# Generated by pormake.
# Topology wiv, (6)-cn, num edge types: 1
# Building blocks:
#     Node 0, Type 0, BuildingBlock: BETDAH_clean_sbu_0, # of connection points: 6
#     Node 1, Type 0, BuildingBlock: BETDAH_clean_sbu_0, # of connection points: 6
#     Node 2, Type 0, BuildingBlock: BETDAH_clean_sbu_0, # of connection points: 6
#     Node 3, Type 0, BuildingBlock: BETDAH_clean_sbu_0, # of connection points: 6
#     Node 4, Type 0, BuildingBlock: BETDAH_clean_sbu_0, # of connection points: 6
#     Node 5, Type 0, BuildingBlock: BETDAH_clean_sbu_0, # of connection points: 6
#     Node 6, Type 0, BuildingBlock: BETDAH_clean_sbu_0, # of connection points: 6
#     Node 7, Type 0, BuildingBlock: BETDAH_clean_sbu_0, # of connection points: 6
#     Node 8, Type 0, BuildingBlock: BETDAH_clean_sbu_0, # of connection points: 6
#     Node 9, Type 0, BuildingBlock: BETDAH_clean_sbu_0, # of connection points: 6
#     Node 10, Type 0, BuildingBlock: BETDAH_clean_sbu_0, # of connection points: 6
#     Node 11, Type 0, BuildingBlock: BETDAH_clean_sbu_0, # of connection points: 6
#     Node 12, Type 0, BuildingBlock: BETDAH_clean_sbu_0, # of connection points: 6
#     Node 13, Type 0, BuildingBlock: BETDAH_clean_sbu_0, # of connection points: 6
#     Node 14, Type 0, BuildingBlock: BETDAH_clean_sbu_0, # of connection points: 6
#     Node 15, Type 0, BuildingBlock: BETDAH_clean_sbu_0, # of connection points: 6
#     Edge 16, Type (0, 0), BuildingBlock: AJUNOK_clean_linker_0, # of connection points: 2
#     Edge 17, Type (0, 0), BuildingBlock: AJUNOK_clean_linker_0, # of connection points: 2
#     Edge 18, Type (0, 0), BuildingBlock: AJUNOK_clean_linker_0, # of connection points: 2
#     Edge 19, Type (0, 0), BuildingBlock: AJUNOK_clean_linker_0, # of connection points: 2
#     Edge 20, Type (0, 0), BuildingBlock: AJUNOK_clean_linker_0, # of connection points: 2
#     Edge 21, Type (0, 0), BuildingBlock: AJUNOK_clean_linker_0, # of connection points: 2
#     Edge 22, Type (0, 0), BuildingBlock: AJUNOK_clean_linker_0, # of connection points: 2
#     Edge 23, Type (0, 0), BuildingBlock: AJUNOK_clean_linker_0, # of connection points: 2
#     Edge 24, Type (0, 0), BuildingBlock: AJUNOK_clean_linker_0, # of connection points: 2
#     Edge 25, Type (0, 0), BuildingBlock: AJUNOK_clean_linker_0, # of connection points: 2
#     Edge 26, Type (0, 0), BuildingBlock: AJUNOK_clean_linker_0, # of connection points: 2
#     Edge 27, Type (0, 0), BuildingBlock: AJUNOK_clean_linker_0, # of connection points: 2
#     Edge 28, Type (0, 0), BuildingBlock: AJUNOK_clean_linker_0, # of connection points: 2
#     Edge 29, Type (0, 0), BuildingBlock: AJUNOK_clean_linker_0, # of connection points: 2
#     Edge 30, Type (0, 0), BuildingBlock: AJUNOK_clean_linker_0, # of connection points: 2
#     Edge 31, Type (0, 0), BuildingBlock: AJUNOK_clean_linker_0, # of connection points: 2
#     Edge 32, Type (0, 0), BuildingBlock: AJUNOK_clean_linker_0, # of connection points: 2
#     Edge 33, Type (0, 0), BuildingBlock: AJUNOK_clean_linker_0, # of connection points: 2
#     Edge 34, Type (0, 0), BuildingBlock: AJUNOK_clean_linker_0, # of connection points: 2
#     Edge 35, Type (0, 0), BuildingBlock: AJUNOK_clean_linker_0, # of connection points: 2
#     Edge 36, Type (0, 0), BuildingBlock: AJUNOK_clean_linker_0, # of connection points: 2
#     Edge 37, Type (0, 0), BuildingBlock: AJUNOK_clean_linker_0, # of connection points: 2
#     Edge 38, Type (0, 0), BuildingBlock: AJUNOK_clean_linker_0, # of connection points: 2
#     Edge 39, Type (0, 0), BuildingBlock: AJUNOK_clean_linker_0, # of connection points: 2
#     Edge 40, Type (0, 0), BuildingBlock: AJUNOK_clean_linker_0, # of connection points: 2
#     Edge 41, Type (0, 0), BuildingBlock: AJUNOK_clean_linker_0, # of connection points: 2
#     Edge 42, Type (0, 0), BuildingBlock: AJUNOK_clean_linker_0, # of connection points: 2
#     Edge 43, Type (0, 0), BuildingBlock: AJUNOK_clean_linker_0, # of connection points: 2
#     Edge 44, Type (0, 0), BuildingBlock: AJUNOK_clean_linker_0, # of connection points: 2
#     Edge 45, Type (0, 0), BuildingBlock: AJUNOK_clean_linker_0, # of connection points: 2
#     Edge 46, Type (0, 0), BuildingBlock: AJUNOK_clean_linker_0, # of connection points: 2
#     Edge 47, Type (0, 0), BuildingBlock: AJUNOK_clean_linker_0, # of connection points: 2
#     Edge 48, Type (0, 0), BuildingBlock: AJUNOK_clean_linker_0, # of connection points: 2
#     Edge 49, Type (0, 0), BuildingBlock: AJUNOK_clean_linker_0, # of connection points: 2
#     Edge 50, Type (0, 0), BuildingBlock: AJUNOK_clean_linker_0, # of connection points: 2
#     Edge 51, Type (0, 0), BuildingBlock: AJUNOK_clean_linker_0, # of connection points: 2
#     Edge 52, Type (0, 0), BuildingBlock: AJUNOK_clean_linker_0, # of connection points: 2
#     Edge 53, Type (0, 0), BuildingBlock: AJUNOK_clean_linker_0, # of connection points: 2
#     Edge 54, Type (0, 0), BuildingBlock: AJUNOK_clean_linker_0, # of connection points: 2
#     Edge 55, Type (0, 0), BuildingBlock: AJUNOK_clean_linker_0, # of connection points: 2
#     Edge 56, Type (0, 0), BuildingBlock: AJUNOK_clean_linker_0, # of connection points: 2
#     Edge 57, Type (0, 0), BuildingBlock: AJUNOK_clean_linker_0, # of connection points: 2
#     Edge 58, Type (0, 0), BuildingBlock: AJUNOK_clean_linker_0, # of connection points: 2
#     Edge 59, Type (0, 0), BuildingBlock: AJUNOK_clean_linker_0, # of connection points: 2
#     Edge 60, Type (0, 0), BuildingBlock: AJUNOK_clean_linker_0, # of connection points: 2
#     Edge 61, Type (0, 0), BuildingBlock: AJUNOK_clean_linker_0, # of connection points: 2
#     Edge 62, Type (0, 0), BuildingBlock: AJUNOK_clean_linker_0, # of connection points: 2
#     Edge 63, Type (0, 0), BuildingBlock: AJUNOK_clean_linker_0, # of connection points: 2
# Relax obj value: 0.173
# Max RMSD: 0.218
# Mean RMSD: 0.218
data_MOF--net-wiv--node1-BETDAH_clean_sbu_0--edge1-AJUNOK_clean_linker_0
_symmetry_space_group_name_H-M    P1
_symmetry_Int_Tables_number       1
_symmetry_cell_setting            triclinic
loop_
_symmetry_equiv_pos_as_xyz
'x, y, z'
_cell_length_a     35.181851
_cell_length_b     35.180559
_cell_length_c     20.257007
_cell_angle_alpha  89.965082
_cell_angle_beta   89.864788
_cell_angle_gamma 89.989517
loop_
_atom_site_label
_atom_site_type_symbol
_atom_site_fract_x
_atom_site_fract_y
_atom_site_fract_z
_atom_type_partial_charge
Ho0 Ho 0.33205 0.0947 0.18265 0.0
Ho1 Ho 0.393 0.09716 0.08166 0.0
C2 C 0.42138 0.11449 0.2258 0.0
C3 C 0.29821 0.08032 0.29381 0.0
C4 C 0.31124 0.08261 0.36395 0.0
C5 C 0.33247 0.05306 0.39303 0.0
C6 C 0.34596 0.05622 0.45803 0.0
C7 C 0.33855 0.08894 0.49601 0.0
C8 C 0.31727 0.11841 0.46677 0.0
C9 C 0.30354 0.11514 0.40208 0.0
C10 C 0.33995 0.1651 0.13085 0.0
C11 C 0.30483 0.08414 1.0319 0.0
C12 C 0.4311 0.10639 0.97293 0.0
C13 C 0.42107 0.10568 0.90123 0.0
C14 C 0.40413 0.1373 0.87047 0.0
C15 C 0.39303 0.13574 0.80408 0.0
C16 C 0.39829 0.10248 0.76648 0.0
C17 C 0.41675 0.07145 0.79632 0.0
C18 C 0.42796 0.07301 0.86279 0.0
C19 C 0.38791 0.03085 0.15095 0.0
O20 O 0.38646 0.1039 0.24315 0.0
O21 O 0.43095 0.11779 0.16288 0.0
O22 O 0.29455 0.11247 0.26211 0.0
O23 O 0.31359 0.05404 0.25674 0.0
O24 O 0.30778 0.14807 0.14195 0.0
O25 O 0.36708 0.14255 0.14453 0.0
O26 O 0.34022 0.0937 1.01777 0.0
O27 O 0.29405 0.07966 0.09458 0.0
O28 O 0.42908 0.07403 1.00455 0.0
O29 O 0.41792 0.13466 1.00833 0.0
O30 O 0.41956 0.04678 0.13316 0.0
O31 O 0.3606 0.05004 0.12765 0.0
H32 H 0.33891 0.02747 0.36549 0.0
H33 H 0.36202 0.03281 0.47871 0.0
H34 H 0.31184 0.14456 0.49331 0.0
H35 H 0.28734 0.13848 0.38152 0.0
H36 H 0.39896 0.16322 0.89784 0.0
H37 H 0.37999 0.16063 0.78227 0.0
H38 H 0.42133 0.04539 0.76896 0.0
H39 H 0.44138 0.04829 0.88448 0.0
Ho40 Ho 0.09979 0.60527 1.00031 0.0
Ho41 Ho 0.10181 0.66805 0.90004 0.0
C42 C 0.09406 0.69395 0.05127 0.0
C43 C 0.1067 0.56911 0.11123 0.0
C44 C 0.10508 0.58164 0.18172 0.0
C45 C 0.13556 0.57405 0.22461 0.0
C46 C 0.13465 0.58636 0.29067 0.0
C47 C 0.10303 0.60627 0.31571 0.0
C48 C 0.07261 0.61395 0.27272 0.0
C49 C 0.07364 0.60194 0.20666 0.0
C50 C 0.0337 0.6162 0.93335 0.0
C51 C 0.11605 0.57743 0.85616 0.0
C52 C 0.0901 0.70376 0.78979 0.0
C53 C 0.09367 0.69169 0.71956 0.0
C54 C 0.06383 0.69858 0.67517 0.0
C55 C 0.06567 0.68512 0.60997 0.0
C56 C 0.09748 0.66448 0.58751 0.0
C57 C 0.12769 0.6583 0.63159 0.0
C58 C 0.12572 0.67148 0.69692 0.0
C59 C 0.17042 0.65351 0.95455 0.0
O60 O 0.10264 0.65814 0.06299 0.0
O61 O 0.08738 0.70548 0.98963 0.0
O62 O 0.07501 0.57058 0.07762 0.0
O63 O 0.13586 0.58084 0.07649 0.0
O64 O 0.04685 0.58321 0.95055 0.0
O65 O 0.0555 0.64195 0.95544 0.0
O66 O 0.10786 0.6131 0.83941 0.0
O67 O 0.11879 0.56689 0.91863 0.0
O68 O 0.1215 0.70672 0.8238 0.0
O69 O 0.06301 0.68746 0.82376 0.0
O70 O 0.15783 0.6872 0.94003 0.0
O71 O 0.14599 0.62897 0.93785 0.0
H72 H 0.16024 0.55868 0.2069 0.0
H73 H 0.15858 0.58008 0.32239 0.0
H74 H 0.04816 0.62986 0.28996 0.0
H75 H 0.04984 0.60886 0.17506 0.0
H76 H 0.0388 0.71401 0.69119 0.0
H77 H 0.04214 0.69085 0.57702 0.0
H78 H 0.15248 0.64236 0.61599 0.0
H79 H 0.14906 0.66526 0.72998 0.0
Ho80 Ho 0.66745 0.90148 0.18492 0.0
Ho81 Ho 0.60517 0.89987 0.08457 0.0
C82 C 0.57759 0.88378 0.22964 0.0
C83 C 0.70227 0.91717 0.29426 0.0
C84 C 0.69149 0.91348 0.36524 0.0
C85 C 0.68662 0.94624 0.40411 0.0
C86 C 0.67511 0.94348 0.47032 0.0
C87 C 0.66815 0.90783 0.49964 0.0
C88 C 0.6732 0.87504 0.46069 0.0
C89 C 0.68475 0.87779 0.39449 0.0
C90 C 0.65576 0.83124 0.13442 0.0
C91 C 0.69315 0.90985 1.03335 0.0
C92 C 0.56949 0.89131 0.97401 0.0
C93 C 0.58263 0.89406 0.90392 0.0
C94 C 0.58481 0.86128 0.86435 0.0
C95 C 0.59885 0.8632 0.79947 0.0
C96 C 0.61096 0.898 0.77226 0.0
C97 C 0.60815 0.93091 0.81137 0.0
C98 C 0.59433 0.92898 0.87635 0.0
C99 C 0.614 0.96718 0.14883 0.0
O100 O 0.61295 0.89331 0.24617 0.0
O101 O 0.56729 0.88065 0.16706 0.0
O102 O 0.70808 0.88591 0.26079 0.0
O103 O 0.68324 0.94232 0.26021 0.0
O104 O 0.68885 0.8454 0.14866 0.0
O105 O 0.6302 0.85522 0.14883 0.0
O106 O 0.65808 0.89874 1.02154 0.0
O107 O 0.70408 0.91709 0.09507 0.0
O108 O 0.5688 0.92284 1.00822 0.0
O109 O 0.5826 0.86267 1.00852 0.0
O110 O 0.58147 0.95266 0.13247 0.0
O111 O 0.64027 0.94595 0.127 0.0
H112 H 0.69158 0.97414 0.3831 0.0
H113 H 0.67178 0.96935 0.4987 0.0
H114 H 0.66729 0.84715 0.48079 0.0
H115 H 0.68776 0.85191 0.36604 0.0
H116 H 0.5759 0.834 0.88381 0.0
H117 H 0.59996 0.83742 0.77033 0.0
H118 H 0.61729 0.95814 0.79203 0.0
H119 H 0.59325 0.9549 0.90511 0.0
Ho120 Ho 0.89857 0.38973 0.99921 0.0
Ho121 Ho 0.90255 0.32866 0.89809 0.0
C122 C 0.91511 0.30208 0.04835 0.0
C123 C 0.88419 0.42577 0.10807 0.0
C124 C 0.88268 0.41409 0.17863 0.0
C125 C 0.86814 0.37844 0.19781 0.0
C126 C 0.86929 0.36682 0.26411 0.0
C127 C 0.88529 0.39042 0.31272 0.0
C128 C 0.89847 0.42665 0.2937 0.0
C129 C 0.89728 0.43827 0.22746 0.0
C130 C 0.96575 0.38573 0.93242 0.0
C131 C 0.88234 0.41805 0.85533 0.0
C132 C 0.91577 0.29511 0.78653 0.0
C133 C 0.91224 0.30881 0.7172 0.0
C134 C 0.92719 0.34417 0.6977 0.0
C135 C 0.92248 0.35748 0.63299 0.0
C136 C 0.90307 0.33563 0.58551 0.0
C137 C 0.88752 0.30054 0.60551 0.0
C138 C 0.89197 0.2874 0.67057 0.0
C139 C 0.83244 0.33575 0.95107 0.0
O140 O 0.90461 0.33712 0.06238 0.0
O141 O 0.91928 0.29109 0.98577 0.0
O142 O 0.91777 0.42527 0.08021 0.0
O143 O 0.85777 0.41207 0.06937 0.0
O144 O 0.94947 0.41723 0.95041 0.0
O145 O 0.94647 0.35795 0.95404 0.0
O146 O 0.89298 0.38317 0.83806 0.0
O147 O 0.87901 0.42783 0.91798 0.0
O148 O 0.88397 0.29124 0.81918 0.0
O149 O 0.94243 0.31053 0.82264 0.0
O150 O 0.84962 0.30367 0.94007 0.0
O151 O 0.85439 0.36295 0.93577 0.0
H152 H 0.85659 0.35913 0.1614 0.0
H153 H 0.85901 0.33874 0.27692 0.0
H154 H 0.91012 0.44594 0.33005 0.0
H155 H 0.90833 0.466 0.21421 0.0
H156 H 0.94215 0.36188 0.73268 0.0
H157 H 0.93357 0.38529 0.62057 0.0
H158 H 0.87214 0.28304 0.5707 0.0
H159 H 0.87932 0.26056 0.6847 0.0
Ho160 Ho 0.32946 0.40091 0.14736 0.0
Ho161 Ho 0.39021 0.39459 0.2469 0.0
C162 C 0.41911 0.38299 0.10275 0.0
C163 C 0.296 0.41825 1.03734 0.0
C164 C 0.30797 0.41366 0.96717 0.0
C165 C 0.30465 0.44423 0.92294 0.0
C166 C 0.31734 0.44092 0.8574 0.0
C167 C 0.3342 0.40703 0.83456 0.0
C168 C 0.33725 0.37632 0.87885 0.0
C169 C 0.32447 0.37962 0.94434 0.0
C170 C 0.33816 0.32841 0.18954 0.0
C171 C 0.30246 0.40493 0.29836 0.0
C172 C 0.42559 0.38273 0.35721 0.0
C173 C 0.41335 0.38653 0.42749 0.0
C174 C 0.42083 0.35734 0.47311 0.0
C175 C 0.4086 0.36036 0.53908 0.0
C176 C 0.38894 0.39284 0.56111 0.0
C177 C 0.38132 0.42193 0.51533 0.0
C178 C 0.39319 0.41877 0.44939 0.0
C179 C 0.3838 0.46434 0.18874 0.0
O180 O 0.38439 0.39457 0.08656 0.0
O181 O 0.42841 0.37632 0.1648 0.0
O182 O 0.2887 0.38728 0.0707 0.0
O183 O 0.31551 0.44266 0.07203 0.0
O184 O 0.30584 0.34545 0.18045 0.0
O185 O 0.36504 0.3517 0.17847 0.0
O186 O 0.33722 0.39274 0.309 0.0
O187 O 0.29218 0.41516 0.23755 0.0
O188 O 0.42852 0.41419 0.32317 0.0
O189 O 0.40961 0.35552 0.32311 0.0
O190 O 0.41566 0.4478 0.20291 0.0
O191 O 0.3568 0.44346 0.20883 0.0
H192 H 0.29233 0.47086 0.93924 0.0
H193 H 0.31382 0.46492 0.82449 0.0
H194 H 0.3503 0.34992 0.86323 0.0
H195 H 0.32803 0.35565 0.97733 0.0
H196 H 0.43603 0.33208 0.45763 0.0
H197 H 0.41481 0.33743 0.57309 0.0
H198 H 0.36561 0.44697 0.53035 0.0
H199 H 0.3863 0.44153 0.41544 0.0
Ho200 Ho 0.3995 0.61184 0.84225 0.0
Ho201 Ho 0.40885 0.6748 0.95008 0.0
C202 C 0.40884 0.70158 0.79601 0.0
C203 C 0.3858 0.57864 0.73077 0.0
C204 C 0.39 0.5914 0.6609 0.0
C205 C 0.36083 0.58489 0.61491 0.0
C206 C 0.36447 0.59738 0.54917 0.0
C207 C 0.39754 0.61632 0.5279 0.0
C208 C 0.42664 0.62287 0.57401 0.0
C209 C 0.42287 0.61075 0.63965 0.0
C210 C 0.469 0.61833 0.90011 0.0
C211 C 0.38678 0.58467 0.9883 0.0
C212 C 0.43769 0.70526 0.05469 0.0
C213 C 0.42936 0.69775 0.12538 0.0
C214 C 0.45794 0.70226 0.17294 0.0
C215 C 0.45205 0.69031 0.23833 0.0
C216 C 0.41739 0.67354 0.25764 0.0
C217 C 0.38831 0.67033 0.21042 0.0
C218 C 0.39437 0.68188 0.14486 0.0
C219 C 0.33367 0.66107 0.93685 0.0
O220 O 0.40251 0.66549 0.78226 0.0
O221 O 0.41499 0.71311 0.8581 0.0
O222 O 0.41727 0.57396 0.76413 0.0
O223 O 0.35929 0.59526 0.76594 0.0
O224 O 0.45331 0.58631 0.88368 0.0
O225 O 0.44725 0.64526 0.88274 0.0
O226 O 0.40127 0.61822 1.00599 0.0
O227 O 0.37891 0.57627 0.92612 0.0
O228 O 0.41101 0.72171 1.01962 0.0
O229 O 0.4533 0.67674 1.02355 0.0
O230 O 0.34816 0.68739 0.97355 0.0
O231 O 0.36018 0.64509 0.90437 0.0
H232 H 0.33514 0.57024 0.6299 0.0
H233 H 0.34157 0.59197 0.5148 0.0
H234 H 0.4522 0.63788 0.55942 0.0
H235 H 0.44571 0.61674 0.67386 0.0
H236 H 0.48527 0.71405 0.15908 0.0
H237 H 0.47482 0.69373 0.27371 0.0
H238 H 0.36131 0.65767 0.22369 0.0
H239 H 0.37201 0.67754 0.10901 0.0
Ho240 Ho 0.67835 0.59365 0.13897 0.0
Ho241 Ho 0.61416 0.59983 0.24509 0.0
C242 C 0.58867 0.61946 0.10121 0.0
C243 C 0.70981 0.5663 1.03356 0.0
C244 C 0.70183 0.5742 0.9631 0.0
C245 C 0.70999 0.5468 0.91476 0.0
C246 C 0.69802 0.55202 0.84928 0.0
C247 C 0.67721 0.58457 0.83098 0.0
C248 C 0.67003 0.61243 0.8793 0.0
C249 C 0.68205 0.60724 0.94462 0.0
C250 C 0.66619 0.66827 0.16071 0.0
C251 C 0.7032 0.58901 0.29329 0.0
C252 C 0.58049 0.60897 0.35751 0.0
C253 C 0.59435 0.60584 0.42678 0.0
C254 C 0.58526 0.63395 0.47341 0.0
C255 C 0.59843 0.63123 0.53872 0.0
C256 C 0.62084 0.60016 0.55915 0.0
C257 C 0.63021 0.57226 0.51208 0.0
C258 C 0.61714 0.57502 0.44689 0.0
C259 C 0.61948 0.53287 0.17783 0.0
O260 O 0.62291 0.60677 0.08267 0.0
O261 O 0.5791 0.62371 0.16394 0.0
O262 O 0.72504 0.59373 0.06847 0.0
O263 O 0.68198 0.54969 0.06486 0.0
O264 O 0.69258 0.65467 0.12283 0.0
O265 O 0.64917 0.64097 0.1896 0.0
O266 O 0.66719 0.59624 0.30634 0.0
O267 O 0.71537 0.58426 0.23118 0.0
O268 O 0.57914 0.57734 0.32361 0.0
O269 O 0.59338 0.63753 0.32241 0.0
O270 O 0.58765 0.54884 0.19473 0.0
O271 O 0.64671 0.553 0.19938 0.0
H272 H 0.72479 0.5209 0.928 0.0
H273 H 0.70401 0.53 0.81339 0.0
H274 H 0.6548 0.63817 0.8667 0.0
H275 H 0.67511 0.62868 0.98107 0.0
H276 H 0.56804 0.65813 0.45925 0.0
H277 H 0.59138 0.65376 0.57303 0.0
H278 H 0.64735 0.54795 0.52583 0.0
H279 H 0.62505 0.55299 0.41217 0.0
Ho280 Ho 0.60469 0.38475 0.83431 0.0
Ho281 Ho 0.59163 0.3229 0.94307 0.0
C282 C 0.58711 0.29682 0.78853 0.0
C283 C 0.62035 0.41694 0.72289 0.0
C284 C 0.61684 0.40296 0.65362 0.0
C285 C 0.63661 0.37048 0.63157 0.0
C286 C 0.6313 0.35649 0.56736 0.0
C287 C 0.60589 0.37439 0.52378 0.0
C288 C 0.58604 0.4067 0.54582 0.0
C289 C 0.59164 0.42094 0.60977 0.0
C290 C 0.53623 0.38468 0.89663 0.0
C291 C 0.62063 0.41067 0.98032 0.0
C292 C 0.56012 0.29357 0.04685 0.0
C293 C 0.56581 0.30092 0.11876 0.0
C294 C 0.54117 0.32574 0.15263 0.0
C295 C 0.54793 0.33572 0.21852 0.0
C296 C 0.57928 0.32083 0.25304 0.0
C297 C 0.60304 0.29475 0.21991 0.0
C298 C 0.59659 0.28517 0.15357 0.0
C299 C 0.66738 0.32913 0.92499 0.0
O300 O 0.59447 0.33246 0.77316 0.0
O301 O 0.58357 0.28533 0.85129 0.0
O302 O 0.58832 0.42236 0.75446 0.0
O303 O 0.64626 0.401 0.76028 0.0
O304 O 0.55427 0.41523 0.87868 0.0
O305 O 0.55503 0.35587 0.8779 0.0
O306 O 0.60381 0.37841 0.999 0.0
O307 O 0.62889 0.418 0.91777 0.0
O308 O 0.58748 0.27658 1.01411 0.0
O309 O 0.54549 0.32173 1.01347 0.0
O310 O 0.65096 0.30474 0.96346 0.0
O311 O 0.6421 0.34799 0.8942 0.0
H312 H 0.65586 0.35549 0.66412 0.0
H313 H 0.6466 0.33125 0.5521 0.0
H314 H 0.56635 0.42114 0.51329 0.0
H315 H 0.57585 0.44584 0.62529 0.0
H316 H 0.51702 0.33826 0.12765 0.0
H317 H 0.52899 0.35594 0.2419 0.0
H318 H 0.62668 0.28156 0.24518 0.0
H319 H 0.61591 0.26556 0.12955 0.0
Ho320 Ho 0.82626 0.5969 0.68442 0.0
Ho321 Ho 0.88731 0.60136 0.58409 0.0
C322 C 0.91614 0.61545 0.72812 0.0
C323 C 0.79092 0.58251 0.7943 0.0
C324 C 0.80221 0.58533 0.86517 0.0
C325 C 0.83066 0.56185 0.89187 0.0
C326 C 0.84231 0.56592 0.95762 0.0
C327 C 0.82571 0.5935 0.999 0.0
C328 C 0.79652 0.61637 0.97266 0.0
C329 C 0.7851 0.61246 0.90662 0.0
C330 C 0.83377 0.66792 0.63575 0.0
C331 C 0.8001 0.58777 0.53343 0.0
C332 C 0.92223 0.61268 0.47324 0.0
C333 C 0.90894 0.61245 0.40337 0.0
C334 C 0.87705 0.63369 0.38326 0.0
C335 C 0.86382 0.63172 0.31802 0.0
C336 C 0.88204 0.60843 0.27114 0.0
C337 C 0.91383 0.58712 0.29137 0.0
C338 C 0.92715 0.58921 0.35656 0.0
C339 C 0.88161 0.53328 0.64722 0.0
O340 O 0.88102 0.60495 0.74492 0.0
O341 O 0.92574 0.62002 0.66548 0.0
O342 O 0.78753 0.61455 0.76231 0.0
O343 O 0.80752 0.55637 0.75846 0.0
O344 O 0.80173 0.65028 0.64457 0.0
O345 O 0.86101 0.64549 0.64903 0.0
O346 O 0.83496 0.59901 0.52061 0.0
O347 O 0.78899 0.58168 0.59549 0.0
O348 O 0.9219 0.57986 0.50356 0.0
O349 O 0.91025 0.64036 0.51124 0.0
O350 O 0.9135 0.54962 0.6319 0.0
O351 O 0.85445 0.55342 0.62603 0.0
H352 H 0.84434 0.54054 0.8618 0.0
H353 H 0.865 0.5479 0.9756 0.0
H354 H 0.78216 0.63716 1.00316 0.0
H355 H 0.7628 0.63073 0.88789 0.0
H356 H 0.86187 0.65142 0.41816 0.0
H357 H 0.83871 0.64777 0.30467 0.0
H358 H 0.92848 0.56885 0.25662 0.0
H359 H 0.95152 0.57225 0.37059 0.0
Ho360 Ho 0.60599 0.11173 0.49683 0.0
Ho361 Ho 0.60004 0.17276 0.39819 0.0
C362 C 0.59418 0.19876 0.54951 0.0
C363 C 0.61399 0.07512 0.60736 0.0
C364 C 0.60865 0.08626 0.67787 0.0
C365 C 0.63482 0.07446 0.72596 0.0
C366 C 0.63044 0.08535 0.79233 0.0
C367 C 0.59956 0.10816 0.81256 0.0
C368 C 0.57339 0.11994 0.76413 0.0
C369 C 0.57788 0.10921 0.69778 0.0
C370 C 0.53742 0.11673 0.43383 0.0
C371 C 0.62225 0.08379 0.3544 0.0
C372 C 0.58252 0.20554 0.28751 0.0
C373 C 0.58487 0.19162 0.21816 0.0
C374 C 0.55604 0.20032 0.17269 0.0
C375 C 0.5576 0.18635 0.10769 0.0
C376 C 0.58777 0.16281 0.08687 0.0
C377 C 0.61661 0.15422 0.13262 0.0
C378 C 0.61515 0.16836 0.19733 0.0
C379 C 0.67158 0.16769 0.44514 0.0
O380 O 0.60668 0.1641 0.5598 0.0
O381 O 0.58455 0.20943 0.48856 0.0
O382 O 0.58337 0.07359 0.5711 0.0
O383 O 0.64241 0.09086 0.5758 0.0
O384 O 0.55489 0.08527 0.447 0.0
O385 O 0.55703 0.14395 0.45625 0.0
O386 O 0.60969 0.11815 0.33789 0.0
O387 O 0.62808 0.07459 0.41668 0.0
O388 O 0.61467 0.21113 0.31819 0.0
O389 O 0.55759 0.18862 0.32524 0.0
O390 O 0.65279 0.199 0.43584 0.0
O391 O 0.65016 0.13934 0.43242 0.0
H392 H 0.65895 0.05707 0.71207 0.0
H393 H 0.65181 0.07656 0.82754 0.0
H394 H 0.54932 0.13754 0.77752 0.0
H395 H 0.55736 0.11917 0.66194 0.0
H396 H 0.53228 0.218 0.18744 0.0
H397 H 0.53489 0.19356 0.07392 0.0
H398 H 0.64066 0.13687 0.11821 0.0
H399 H 0.63776 0.16095 0.23116 0.0
Ho400 Ho 0.17431 0.39782 0.686 0.0
Ho401 Ho 0.11425 0.39452 0.58363 0.0
C402 C 0.08426 0.38166 0.728 0.0
C403 C 0.20892 0.41184 0.79623 0.0
C404 C 0.19623 0.40808 0.8658 0.0
C405 C 0.20628 0.43571 0.91255 0.0
C406 C 0.19305 0.43319 0.97784 0.0
C407 C 0.16888 0.40332 0.99739 0.0
C408 C 0.15896 0.37562 0.95041 0.0
C409 C 0.17238 0.37801 0.88539 0.0
C410 C 0.16522 0.32714 0.636 0.0
C411 C 0.20213 0.40892 0.53535 0.0
C412 C 0.07937 0.38043 0.47416 0.0
C413 C 0.09049 0.3851 0.40394 0.0
C414 C 0.07843 0.35863 0.35661 0.0
C415 C 0.09004 0.36198 0.29054 0.0
C416 C 0.11398 0.39195 0.27035 0.0
C417 C 0.12599 0.41841 0.318 0.0
C418 C 0.1143 0.41509 0.38394 0.0
C419 C 0.11927 0.46225 0.64718 0.0
O420 O 0.11909 0.39196 0.74587 0.0
O421 O 0.07548 0.37627 0.6653 0.0
O422 O 0.2132 0.38029 0.76307 0.0
O423 O 0.1917 0.43793 0.76158 0.0
O424 O 0.19768 0.34325 0.64775 0.0
O425 O 0.13863 0.35019 0.64976 0.0
O426 O 0.16667 0.40099 0.5203 0.0
O427 O 0.2129 0.4121 0.59816 0.0
O428 O 0.07438 0.41167 0.50818 0.0
O429 O 0.09792 0.35447 0.50733 0.0
O430 O 0.08777 0.44713 0.62676 0.0
O431 O 0.14696 0.442 0.62767 0.0
H432 H 0.22395 0.45955 0.8983 0.0
H433 H 0.20109 0.45506 1.01272 0.0
H434 H 0.14093 0.35191 0.964 0.0
H435 H 0.1638 0.35646 0.85029 0.0
H436 H 0.06031 0.33511 0.37089 0.0
H437 H 0.08087 0.34064 0.25552 0.0
H438 H 0.14432 0.44186 0.3042 0.0
H439 H 0.12405 0.43591 0.41941 0.0
Ho440 Ho 0.3974 0.88917 0.50815 0.0
Ho441 Ho 0.39983 0.82814 0.40765 0.0
C442 C 0.41002 0.80136 0.55841 0.0
C443 C 0.38621 0.92485 0.61833 0.0
C444 C 0.38645 0.91153 0.68817 0.0
C445 C 0.37027 0.87639 0.70609 0.0
C446 C 0.37255 0.86302 0.77119 0.0
C447 C 0.39075 0.88454 0.82039 0.0
C448 C 0.4069 0.91973 0.80244 0.0
C449 C 0.40472 0.93306 0.73713 0.0
C450 C 0.46459 0.88299 0.44228 0.0
C451 C 0.38285 0.91808 0.36422 0.0
C452 C 0.41252 0.79265 0.29745 0.0
C453 C 0.41051 0.80481 0.22706 0.0
C454 C 0.42745 0.83882 0.20543 0.0
C455 C 0.42411 0.85079 0.13967 0.0
C456 C 0.40342 0.82921 0.0936 0.0
C457 C 0.38654 0.79505 0.11531 0.0
C458 C 0.38994 0.78314 0.18124 0.0
C459 C 0.32947 0.83679 0.45899 0.0
O460 O 0.4015 0.83686 0.5722 0.0
O461 O 0.41402 0.79007 0.49598 0.0
O462 O 0.41901 0.92428 0.58785 0.0
O463 O 0.35856 0.91246 0.58083 0.0
O464 O 0.44901 0.91497 0.45922 0.0
O465 O 0.44441 0.85588 0.46387 0.0
O466 O 0.39234 0.88285 0.34706 0.0
O467 O 0.37925 0.92797 0.42682 0.0
O468 O 0.38019 0.79107 0.32903 0.0
O469 O 0.43946 0.80749 0.33366 0.0
O470 O 0.34671 0.80452 0.45033 0.0
O471 O 0.35218 0.86364 0.4445 0.0
H472 H 0.35616 0.85891 0.66965 0.0
H473 H 0.36056 0.83545 0.78276 0.0
H474 H 0.42105 0.93707 0.83907 0.0
H475 H 0.41759 0.96013 0.72474 0.0
H476 H 0.44285 0.85656 0.23953 0.0
H477 H 0.43713 0.87743 0.12522 0.0
H478 H 0.37078 0.77737 0.08133 0.0
H479 H 0.37615 0.75709 0.19666 0.0
Ho480 Ho 0.82014 0.89929 0.647 0.0
Ho481 Ho 0.882 0.8985 0.74783 0.0
C482 C 0.91022 0.88555 0.60254 0.0
C483 C 0.78288 0.90533 0.53703 0.0
C484 C 0.79592 0.90333 0.467 0.0
C485 C 0.78574 0.9316 0.42128 0.0
C486 C 0.79768 0.92925 0.35504 0.0
C487 C 0.82 0.89848 0.33301 0.0
C488 C 0.83084 0.87074 0.37932 0.0
C489 C 0.81899 0.87309 0.44521 0.0
C490 C 0.83124 0.8299 0.70164 0.0
C491 C 0.79378 0.91261 0.79694 0.0
C492 C 0.91731 0.88586 0.85783 0.0
C493 C 0.90381 0.88482 0.92759 0.0
C494 C 0.86872 0.86817 0.94441 0.0
C495 C 0.85507 0.86943 1.00949 0.0
C496 C 0.87621 0.88712 0.05983 0.0
C497 C 0.91148 0.90351 1.04292 0.0
C498 C 0.92509 0.90234 0.97765 0.0
C499 C 0.87777 0.96421 0.67886 0.0
O500 O 0.87521 0.89635 0.58641 0.0
O501 O 0.9195 0.87928 0.6649 0.0
O502 O 0.78544 0.87392 0.57093 0.0
O503 O 0.79341 0.93479 0.57167 0.0
O504 O 0.79849 0.8462 0.69397 0.0
O505 O 0.857 0.85315 0.68502 0.0
O506 O 0.82918 0.90349 0.81076 0.0
O507 O 0.78247 0.91591 0.73451 0.0
O508 O 0.91658 0.91914 0.82902 0.0
O509 O 0.90523 0.85874 0.81886 0.0
O510 O 0.90912 0.95023 0.70228 0.0
O511 O 0.84956 0.94484 0.69927 0.0
H512 H 0.76843 0.95546 0.43675 0.0
H513 H 0.78899 0.95124 0.3208 0.0
H514 H 0.84909 0.84738 0.36487 0.0
H515 H 0.82817 0.85118 0.4792 0.0
H516 H 0.85135 0.85478 0.90702 0.0
H517 H 0.82729 0.85757 1.01979 0.0
H518 H 0.92863 0.91725 0.08027 0.0
H519 H 0.95215 0.91551 0.96614 0.0
Ho520 Ho 0.89974 0.11373 0.33501 0.0
Ho521 Ho 0.90901 0.17401 0.43483 0.0
C522 C 0.91564 0.20075 0.28401 0.0
C523 C 0.88681 0.07981 0.22388 0.0
C524 C 0.89152 0.09312 0.15426 0.0
C525 C 0.86058 0.09241 0.1105 0.0
C526 C 0.86415 0.1067 0.04595 0.0
C527 C 0.89881 0.12207 1.02339 0.0
C528 C 0.92992 0.12224 0.0669 0.0
C529 C 0.92632 0.10815 0.13149 0.0
C530 C 0.96921 0.11592 0.39429 0.0
C531 C 0.88764 0.08526 0.47954 0.0
C532 C 0.92729 0.20783 0.54426 0.0
C533 C 0.92246 0.19761 0.61518 0.0
C534 C 0.95308 0.20139 0.65912 0.0
C535 C 0.94923 0.19099 0.7258 0.0
C536 C 0.9145 0.17691 0.75035 0.0
C537 C 0.88383 0.17324 0.70628 0.0
C538 C 0.8878 0.18324 0.63952 0.0
C539 C 0.83617 0.16877 0.39151 0.0
O540 O 0.90111 0.1669 0.2729 0.0
O541 O 0.92581 0.21032 0.34513 0.0
O542 O 0.91785 0.07485 0.25821 0.0
O543 O 0.86006 0.09636 0.25851 0.0
O544 O 0.95112 0.08508 0.37903 0.0
O545 O 0.95015 0.14418 0.374 0.0
O546 O 0.90188 0.11914 0.49483 0.0
O547 O 0.87867 0.0771 0.41774 0.0
O548 O 0.89651 0.21553 0.51088 0.0
O549 O 0.95095 0.1869 0.51035 0.0
O550 O 0.85476 0.20013 0.40111 0.0
O551 O 0.85803 0.1409 0.40352 0.0
H552 H 0.83346 0.08102 0.12643 0.0
H553 H 0.83979 0.10539 1.01344 0.0
H554 H 0.95697 0.13398 0.05137 0.0
H555 H 0.95073 0.10958 0.16384 0.0
H556 H 0.98015 0.21219 0.64172 0.0
H557 H 0.97342 0.19411 0.75832 0.0
H558 H 0.85697 0.16169 0.72309 0.0
H559 H 0.86377 0.17943 0.60687 0.0
Ho560 Ho 0.1717 0.09228 0.64986 0.0
Ho561 Ho 0.11194 0.09824 0.75006 0.0
C562 C 0.08273 0.11062 0.60555 0.0
C563 C 0.20755 0.0789 0.53992 0.0
C564 C 0.19655 0.082 0.46909 0.0
C565 C 0.19431 0.04917 0.42974 0.0
C566 C 0.18234 0.05139 0.3638 0.0
C567 C 0.17267 0.08659 0.33518 0.0
C568 C 0.17522 0.11945 0.37454 0.0
C569 C 0.18698 0.11722 0.44053 0.0
C570 C 0.16426 0.16437 0.69511 0.0
C571 C 0.1996 0.08372 0.80015 0.0
C572 C 0.07715 0.11099 0.86066 0.0
C573 C 0.08958 0.10648 0.9307 0.0
C574 C 0.09327 0.13845 0.9718 0.0
C575 C 0.10673 0.13473 1.03673 0.0
C576 C 0.11685 0.09891 0.0624 0.0
C577 C 0.11238 0.06684 1.02163 0.0
C578 C 0.09913 0.07056 0.95668 0.0
C579 C 0.11389 0.02982 0.68742 0.0
O580 O 0.11721 0.09854 0.58884 0.0
O581 O 0.07377 0.11728 0.66793 0.0
O582 O 0.21074 0.11049 0.57314 0.0
O583 O 0.19047 0.0526 0.57433 0.0
O584 O 0.19594 0.14594 0.68953 0.0
O585 O 0.13702 0.14186 0.68272 0.0
O586 O 0.16491 0.09572 0.81305 0.0
O587 O 0.20936 0.07589 0.73801 0.0
O588 O 0.07278 0.07987 0.82627 0.0
O589 O 0.09388 0.1378 0.82642 0.0
O590 O 0.08331 0.04682 0.70748 0.0
O591 O 0.14259 0.04859 0.70709 0.0
H592 H 0.20126 0.02161 0.45035 0.0
H593 H 0.17989 0.02533 0.33572 0.0
H594 H 0.16818 0.14705 0.35421 0.0
H595 H 0.18822 0.14316 0.46922 0.0
H596 H 0.08617 0.16648 0.95341 0.0
H597 H 0.10981 0.16008 0.06656 0.0
H598 H 0.11885 0.03868 1.04004 0.0
H599 H 0.09663 0.04518 0.92679 0.0
Ho600 Ho 0.09868 0.88238 0.33841 0.0
Ho601 Ho 0.09873 0.82117 0.4393 0.0
C602 C 0.08835 0.79399 0.28854 0.0
C603 C 0.10998 0.91702 0.22726 0.0
C604 C 0.10547 0.90434 0.15712 0.0
C605 C 0.13754 0.89438 0.11927 0.0
C606 C 0.13363 0.88066 0.05457 0.0
C607 C 0.09753 0.87662 1.02542 0.0
C608 C 0.06546 0.88735 0.06279 0.0
C609 C 0.06934 0.90089 0.12771 0.0
C610 C 0.03193 0.87638 0.40426 0.0
C611 C 0.11064 0.91102 0.48318 0.0
C612 C 0.09307 0.78234 0.54833 0.0
C613 C 0.09119 0.79291 0.61981 0.0
C614 C 0.05662 0.80217 0.6511 0.0
C615 C 0.05597 0.8145 0.71717 0.0
C616 C 0.08984 0.81744 0.75386 0.0
C617 C 0.12411 0.80678 0.72321 0.0
C618 C 0.12476 0.79454 0.65743 0.0
C619 C 0.16844 0.83358 0.38633 0.0
O620 O 0.09394 0.83005 0.2743 0.0
O621 O 0.08626 0.78249 0.35111 0.0
O622 O 0.07901 0.92116 0.26246 0.0
O623 O 0.13727 0.90086 0.26105 0.0
O624 O 0.04561 0.90802 0.38142 0.0
O625 O 0.05247 0.8486 0.38551 0.0
O626 O 0.09825 0.87653 0.49922 0.0
O627 O 0.11843 0.91995 0.42114 0.0
O628 O 0.12512 0.78969 0.51856 0.0
O629 O 0.06392 0.79011 0.51068 0.0
O630 O 0.15232 0.80064 0.39265 0.0
O631 O 0.14459 0.85896 0.40242 0.0
H632 H 0.16579 0.89677 0.14001 0.0
H633 H 0.15902 0.87266 1.02761 0.0
H634 H 0.03726 0.88569 1.04169 0.0
H635 H 0.04392 0.9085 0.15488 0.0
H636 H 0.0301 0.80042 0.62432 0.0
H637 H 0.02903 0.82266 0.73891 0.0
H638 H 0.15063 0.80804 0.75018 0.0
H639 H 0.15185 0.78686 0.6357 0.0
C640 C 0.35718 0.94572 0.2575 0.0
C641 C 0.38171 0.94812 0.3123 0.0
C642 C 0.35823 0.97322 0.20639 0.0
C643 C 0.38517 0.00292 0.20666 0.0
H644 H 0.337 0.92255 0.25425 0.0
H645 H 0.33867 0.97054 0.16545 0.0
S646 S 0.45628 0.02078 0.3384 0.0
N647 N 0.43267 0.98316 0.36453 0.0
N648 N 0.4374 0.032 0.26647 0.0
C649 C 0.41011 0.00496 0.2609 0.0
C650 C 0.40767 0.97834 0.31417 0.0
C651 C 0.98431 0.61151 0.76566 0.0
C652 C 0.94598 0.61952 0.78056 0.0
C653 C 0.01256 0.61158 0.81488 0.0
C654 C 0.00419 0.62097 0.88093 0.0
H655 H 0.99243 0.60357 0.71592 0.0
H656 H 0.04105 0.6035 0.80093 0.0
S657 S 0.90899 0.64623 0.94607 0.0
N658 N 0.90148 0.638 0.86686 0.0
N659 N 0.95491 0.63944 0.95832 0.0
C660 C 0.96631 0.63016 0.8963 0.0
C661 C 0.93722 0.62919 0.84649 0.0
C662 C 0.64345 0.02699 0.19675 0.0
C663 C 0.61805 0.99613 0.20238 0.0
C664 C 0.64511 0.05562 0.24587 0.0
C665 C 0.62276 0.05325 0.30363 0.0
H666 H 0.66119 0.02968 0.15322 0.0
H667 H 0.66399 0.07959 0.23875 0.0
S668 S 0.55234 0.97839 0.34284 0.0
N669 N 0.56931 0.9663 0.26979 0.0
N670 N 0.57509 0.01752 0.36363 0.0
C671 C 0.59818 0.02215 0.31034 0.0
C672 C 0.59515 0.99428 0.25939 0.0
C673 C 0.02761 0.35965 0.88592 0.0
C674 C 0.9956 0.38353 0.87963 0.0
C675 C 0.05656 0.35901 0.83713 0.0
C676 C 0.05342 0.3806 0.77866 0.0
H677 H 0.03086 0.34225 0.92967 0.0
H678 H 0.08134 0.3413 0.84491 0.0
S679 S 0.97526 0.44684 0.73719 0.0
N680 N 0.96397 0.43038 0.81101 0.0
N681 N 0.01526 0.4254 0.71678 0.0
C682 C 0.02107 0.40345 0.77107 0.0
C683 C 0.99302 0.4059 0.82214 0.0
C684 C 0.401 0.49019 0.07699 0.0
C685 C 0.38098 0.49451 0.13686 0.0
C686 C 0.40157 0.51898 1.02869 0.0
C687 C 0.38318 0.554 1.03897 0.0
H688 H 0.41649 0.4643 0.06718 0.0
H689 H 0.41759 0.5142 0.9837 0.0
S690 S 0.32608 0.57984 0.1864 0.0
N691 N 0.34102 0.53624 0.20244 0.0
N692 N 0.34363 0.59113 0.11319 0.0
C693 C 0.3629 0.55879 0.09842 0.0
C694 C 0.36135 0.52888 0.14686 0.0
C695 C 0.525 0.59987 0.05802 0.0
C696 C 0.5579 0.62232 0.0507 0.0
C697 C 0.4969 0.59848 1.00871 0.0
C698 C 0.49942 0.62098 0.95133 0.0
H699 H 0.52168 0.58194 0.10117 0.0
H700 H 0.47278 0.57979 1.01594 0.0
S701 S 0.57882 0.68609 0.90951 0.0
N702 N 0.59144 0.66743 0.98111 0.0
N703 N 0.53702 0.66742 0.89116 0.0
C704 C 0.53153 0.64456 0.94432 0.0
C705 C 0.56111 0.6446 0.99326 0.0
C706 C 0.6365 0.46579 0.14193 0.0
C707 C 0.6223 0.50222 0.12646 0.0
C708 C 0.63653 0.43605 0.09469 0.0
C709 C 0.62435 0.44228 1.02921 0.0
H710 H 0.64636 0.45985 0.19148 0.0
H711 H 0.64609 0.40805 0.10947 0.0
S712 S 0.58437 0.53207 0.96328 0.0
N713 N 0.59331 0.5412 1.04155 0.0
N714 N 0.59849 0.48792 0.95154 0.0
C715 C 0.6116 0.4789 1.01273 0.0
C716 C 0.60903 0.50806 0.06169 0.0
C717 C 0.44721 0.35771 0.99623 0.0
C718 C 0.44923 0.3822 0.05115 0.0
C719 C 0.47557 0.35821 0.94655 0.0
C720 C 0.50592 0.38439 0.94863 0.0
H721 H 0.42386 0.33779 0.9921 0.0
H722 H 0.47347 0.33838 0.90585 0.0
S723 S 0.52233 0.45583 0.08048 0.0
N724 N 0.4839 0.43289 0.10477 0.0
N725 N 0.53471 0.4364 1.00943 0.0
C726 C 0.50727 0.40965 1.00249 0.0
C727 C 0.47961 0.40786 0.05425 0.0
C728 C 0.89306 0.48427 0.81378 0.0
C729 C 0.87801 0.44772 0.80317 0.0
C730 C 0.89418 0.51153 0.763 0.0
C731 C 0.87843 0.50423 0.70048 0.0
H732 H 0.90588 0.4913 0.86079 0.0
H733 H 0.90782 0.53843 0.77295 0.0
S734 S 0.83459 0.41353 0.64734 0.0
N735 N 0.84731 0.40558 0.72464 0.0
N736 N 0.84693 0.45788 0.63088 0.0
C737 C 0.86223 0.46826 0.68965 0.0
C738 C 0.86255 0.43982 0.74056 0.0
C739 C 0.51652 0.10782 0.31583 0.0
C740 C 0.50814 0.11992 0.38058 0.0
C741 C 0.48898 0.10852 0.26543 0.0
C742 C 0.45111 0.1194 0.2782 0.0
H743 H 0.54447 0.09716 0.30382 0.0
H744 H 0.497 0.09846 0.21682 0.0
S745 S 0.41404 0.15287 0.43989 0.0
N746 N 0.45938 0.14392 0.4543 0.0
N747 N 0.40688 0.14276 0.36122 0.0
C748 C 0.44227 0.13141 0.34291 0.0
C749 C 0.47084 0.13215 0.39361 0.0
C750 C 0.08622 0.52694 0.7872 0.0
C751 C 0.11864 0.54819 0.80335 0.0
C752 C 0.08695 0.4999 0.73616 0.0
C753 C 0.12027 0.4923 0.69957 0.0
H754 H 0.0599 0.53146 0.81395 0.0
H755 H 0.06102 0.48463 0.7257 0.0
S756 S 0.2127 0.54148 0.72133 0.0
N757 N 0.18484 0.56095 0.77779 0.0
N758 N 0.18645 0.50963 0.6824 0.0
C759 C 0.15295 0.51363 0.71506 0.0
C760 C 0.15206 0.54164 0.76679 0.0
C761 C 0.51229 0.89633 0.27454 0.0
C762 C 0.54833 0.87967 0.28278 0.0
C763 C 0.48574 0.89745 0.32655 0.0
C764 C 0.49297 0.87994 0.38771 0.0
H765 H 0.50522 0.9104 0.22858 0.0
H766 H 0.45926 0.91217 0.3184 0.0
S767 S 0.58217 0.83095 0.43423 0.0
N768 N 0.58995 0.84546 0.35775 0.0
N769 N 0.53855 0.84465 0.45315 0.0
C770 C 0.52829 0.86196 0.39598 0.0
C771 C 0.55623 0.86246 0.3441 0.0
C772 C 0.86351 0.99138 0.56619 0.0
C773 C 0.87698 0.99646 0.63091 0.0
C774 C 0.86612 0.02036 0.51835 0.0
C775 C 0.88319 0.05568 0.53262 0.0
H776 H 0.85292 0.96413 0.55085 0.0
H777 H 0.85557 0.0145 0.46921 0.0
S778 S 0.92759 0.08149 0.69307 0.0
N779 N 0.9107 0.03829 0.70541 0.0
N780 N 0.91625 0.09271 0.61646 0.0
C781 C 0.89771 0.06075 0.59709 0.0
C782 C 0.89476 0.03114 0.64566 0.0
C783 C 0.01979 0.09297 0.55629 0.0
C784 C 0.05331 0.11466 0.55308 0.0
C785 C 0.99315 0.09344 0.50449 0.0
C786 C 0.9979 0.11698 0.44866 0.0
H787 H 0.01473 0.07445 0.59815 0.0
H788 H 0.96857 0.07508 0.50829 0.0
S789 S 0.08065 0.1796 0.41667 0.0
N790 N 0.09029 0.1597 0.48867 0.0
N791 N 0.03887 0.16268 0.39378 0.0
C792 C 0.03087 0.13951 0.44561 0.0
C793 C 0.05885 0.13782 0.49715 0.0
C794 C 0.14637 0.95377 0.56237 0.0
C795 C 0.11181 0.94097 0.53524 0.0
C796 C 0.1471 0.98151 0.61304 0.0
C797 C 0.11337 0.99827 0.63723 0.0
H798 H 0.17298 0.94195 0.54487 0.0
H799 H 0.17427 0.9899 0.63326 0.0
S800 S 0.01538 0.97346 0.58276 0.0
N801 N 0.04321 0.94606 0.53751 0.0
N802 N 0.04417 0.99846 0.63017 0.0
C803 C 0.07865 0.9851 0.61054 0.0
C804 C 0.078 0.95655 0.56011 0.0
C805 C 0.00357 0.86013 0.51522 0.0
C806 C 0.99919 0.87509 0.45132 0.0
C807 C 0.97458 0.86299 0.56311 0.0
C808 C 0.93987 0.88141 0.54953 0.0
H809 H 0.0304 0.84825 0.52987 0.0
H810 H 0.97985 0.85136 0.61175 0.0
S811 S 0.91546 0.92873 0.39089 0.0
N812 N 0.9583 0.91098 0.37802 0.0
N813 N 0.90387 0.91666 0.46712 0.0
C814 C 0.93531 0.897 0.48573 0.0
C815 C 0.96497 0.89402 0.43715 0.0
C816 C 0.30777 0.22771 0.14668 0.0
C817 C 0.34201 0.20719 0.14115 0.0
C818 C 0.30722 0.26616 0.16445 0.0
C819 C 0.34092 0.28663 0.17638 0.0
H820 H 0.28073 0.21379 0.13847 0.0
H821 H 0.27979 0.28001 0.16815 0.0
S822 S 0.43866 0.24706 0.16669 0.0
N823 N 0.41095 0.21057 0.14863 0.0
N824 N 0.40995 0.28347 0.18004 0.0
C825 C 0.37561 0.26684 0.17003 0.0
C826 C 0.37616 0.22714 0.15271 0.0
C827 C 0.27077 0.64001 0.888 0.0
C828 C 0.29294 0.65022 0.94288 0.0
C829 C 0.2307 0.63825 0.89301 0.0
C830 C 0.21185 0.64635 0.95305 0.0
H831 H 0.28412 0.63585 0.84031 0.0
H832 H 0.21427 0.63277 0.84886 0.0
S833 S 0.25716 0.66871 0.11283 0.0
N834 N 0.29303 0.66403 0.06074 0.0
N835 N 0.21837 0.66111 0.06905 0.0
C836 C 0.23384 0.65394 1.00877 0.0
C837 C 0.27426 0.65567 1.00396 0.0
C838 C 0.65652 0.76623 0.08626 0.0
C839 C 0.64997 0.78969 0.14089 0.0
C840 C 0.65872 0.72662 0.09341 0.0
C841 C 0.65473 0.70881 0.15555 0.0
H842 H 0.66167 0.77866 1.0381 0.0
H843 H 0.66532 0.70984 0.05001 0.0
S844 S 0.63597 0.75776 0.31394 0.0
N845 N 0.63816 0.79254 0.25909 0.0
N846 N 0.64238 0.71784 0.27233 0.0
C847 C 0.64628 0.73178 0.21018 0.0
C848 C 0.64404 0.77233 0.20289 0.0
C849 C 0.76971 0.30391 0.95891 0.0
C850 C 0.79021 0.33727 0.94555 0.0
C851 C 0.73053 0.30178 0.94857 0.0
C852 C 0.70952 0.3329 0.92441 0.0
H853 H 0.78412 0.27885 0.97738 0.0
H854 H 0.71646 0.27525 0.96058 0.0
S855 S 0.74918 0.42737 0.88132 0.0
N856 N 0.78649 0.40263 0.90612 0.0
N857 N 0.71221 0.39854 0.88742 0.0
C858 C 0.72941 0.36663 0.9103 0.0
C859 C 0.76981 0.36888 0.921 0.0
C860 C 0.80103 0.72881 0.66358 0.0
C861 C 0.83526 0.70957 0.64979 0.0
C862 C 0.8006 0.76684 0.68364 0.0
C863 C 0.83427 0.78816 0.68937 0.0
H864 H 0.77398 0.71427 0.65993 0.0
H865 H 0.77326 0.77979 0.6935 0.0
S866 S 0.93187 0.75168 0.65918 0.0
N867 N 0.90414 0.71471 0.64458 0.0
N868 N 0.90323 0.78699 0.67991 0.0
C869 C 0.8689 0.76949 0.67577 0.0
C870 C 0.86941 0.73017 0.65633 0.0
C871 C 0.77417 0.13368 0.41422 0.0
C872 C 0.79392 0.16787 0.4015 0.0
C873 C 0.73485 0.13354 0.4295 0.0
C874 C 0.71382 0.16764 0.43379 0.0
H875 H 0.78925 0.10684 0.41292 0.0
H876 H 0.72084 0.10656 0.43801 0.0
S877 S 0.75205 0.26492 0.40377 0.0
N878 N 0.78876 0.23658 0.39216 0.0
N879 N 0.71643 0.23666 0.42353 0.0
C880 C 0.73348 0.20196 0.42133 0.0
C881 C 0.77298 0.20198 0.4044 0.0
C882 C 0.13105 0.26773 0.67529 0.0
C883 C 0.16205 0.28505 0.64266 0.0
C884 C 0.13152 0.22861 0.69159 0.0
C885 C 0.16318 0.20557 0.67662 0.0
H886 H 0.1069 0.28473 0.69052 0.0
H887 H 0.10743 0.21656 0.71761 0.0
S888 S 0.24919 0.23642 0.5833 0.0
N889 N 0.22333 0.27533 0.59029 0.0
N890 N 0.22463 0.20276 0.62077 0.0
C891 C 0.19348 0.22244 0.64123 0.0
C892 C 0.19277 0.26186 0.6243 0.0
C893 C 0.26812 0.80396 0.4358 0.0
C894 C 0.28782 0.83842 0.44481 0.0
C895 C 0.23045 0.80311 0.41403 0.0
C896 C 0.20983 0.83669 0.40179 0.0
H897 H 0.28212 0.77697 0.4443 0.0
H898 H 0.21725 0.77552 0.40791 0.0
S899 S 0.24735 0.93482 0.41933 0.0
N900 N 0.28366 0.90739 0.43966 0.0
N901 N 0.2119 0.9058 0.40138 0.0
C902 C 0.22877 0.87157 0.41148 0.0
C903 C 0.26781 0.87244 0.43255 0.0
C904 C 0.21499 0.09305 0.92259 0.0
C905 C 0.22694 0.08097 0.85875 0.0
C906 C 0.23937 0.09262 0.97842 0.0
C907 C 0.27737 0.08022 0.97408 0.0
H908 H 0.1864 0.10371 0.9298 0.0
H909 H 0.22866 0.10345 1.02489 0.0
S910 S 0.32248 0.04142 0.82181 0.0
N911 N 0.27928 0.05316 0.79743 0.0
N912 N 0.32492 0.05289 0.90075 0.0
C913 C 0.28949 0.06705 0.9112 0.0
C914 C 0.26451 0.06722 0.85437 0.0
C915 C 0.07118 0.75387 0.11304 0.0
C916 C 0.09284 0.72015 0.11127 0.0
C917 C 0.06887 0.77675 0.17086 0.0
C918 C 0.08734 0.76669 0.23061 0.0
H919 H 0.05559 0.76252 0.06965 0.0
H920 H 0.05242 0.80275 0.16868 0.0
S921 S 0.15235 0.68467 0.25039 0.0
N922 N 0.13657 0.68048 0.17411 0.0
N923 N 0.13095 0.72239 0.28146 0.0
C924 C 0.10949 0.73347 0.22922 0.0
C925 C 0.11251 0.71062 0.17025 0.0
C926 C 0.70655 0.90063 0.91059 0.0
C927 C 0.71933 0.91315 0.97355 0.0
C928 C 0.72963 0.90238 0.85321 0.0
C929 C 0.76696 0.91658 0.8553 0.0
H930 H 0.67839 0.88862 0.90528 0.0
H931 H 0.71854 0.89119 0.80736 0.0
S932 S 0.81297 0.95836 1.00395 0.0
N933 N 0.7712 0.94383 1.03151 0.0
N934 N 0.81433 0.94702 0.92484 0.0
C935 C 0.77968 0.9306 0.9171 0.0
C936 C 0.7561 0.92892 0.97558 0.0
C937 C 0.90753 0.23741 0.10406 0.0
C938 C 0.9201 0.27532 0.10657 0.0
C939 C 0.90669 0.21415 0.16121 0.0
C940 C 0.91882 0.2271 0.22432 0.0
H941 H 0.89674 0.22598 0.05813 0.0
H942 H 0.89557 0.18566 0.15561 0.0
S943 S 0.95891 0.32293 0.25626 0.0
N944 N 0.94787 0.32394 0.17703 0.0
N945 N 0.9467 0.28028 0.28308 0.0
C946 C 0.93294 0.26454 0.2268 0.0
C947 C 0.93346 0.28844 0.16862 0.0
C948 C 0.24308 0.42869 0.36116 0.0
C949 C 0.27627 0.40619 0.35853 0.0
C950 C 0.2203 0.43076 0.41925 0.0
C951 C 0.2298 0.41108 0.47812 0.0
H952 H 0.2346 0.4449 0.31818 0.0
H953 H 0.19478 0.44792 0.41794 0.0
S954 S 0.31014 0.34392 0.49573 0.0
N955 N 0.31478 0.36059 0.42 0.0
N956 N 0.27286 0.36579 0.52744 0.0
C957 C 0.26243 0.38821 0.47592 0.0
C958 C 0.28526 0.38546 0.41687 0.0
C959 C 0.4294 0.76247 0.73409 0.0
C960 C 0.40858 0.72821 0.73652 0.0
C961 C 0.43079 0.78513 0.67583 0.0
C962 C 0.41219 0.77437 0.61658 0.0
H963 H 0.44497 0.77176 0.77721 0.0
H964 H 0.44659 0.81154 0.67726 0.0
S965 S 0.34799 0.69168 0.59958 0.0
N966 N 0.36459 0.68791 0.67542 0.0
N967 N 0.36872 0.72948 0.56744 0.0
C968 C 0.39057 0.74092 0.61893 0.0
C969 C 0.38842 0.71827 0.67821 0.0
C970 C 0.7161 0.60231 0.41468 0.0
C971 C 0.72902 0.58709 0.35352 0.0
C972 C 0.73794 0.60071 0.47327 0.0
C973 C 0.77412 0.58385 0.47434 0.0
H974 H 0.68884 0.61649 0.41747 0.0
H975 H 0.72701 0.6143 0.51732 0.0
S976 S 0.82088 0.5369 0.33093 0.0
N977 N 0.78033 0.55263 0.30025 0.0
N978 N 0.82134 0.54993 0.40926 0.0
C979 C 0.78733 0.568 0.41412 0.0
C980 C 0.76497 0.56952 0.35433 0.0
C981 C 0.57042 0.25804 0.61231 0.0
C982 C 0.59209 0.22432 0.61029 0.0
C983 C 0.56762 0.2803 0.67077 0.0
C984 C 0.58559 0.26966 0.7307 0.0
H985 H 0.55553 0.26741 0.56849 0.0
H986 H 0.5514 0.30646 0.66883 0.0
S987 S 0.6505 0.18765 0.75054 0.0
N988 N 0.63542 0.18416 0.67371 0.0
N989 N 0.62884 0.2252 0.78164 0.0
C990 C 0.60776 0.23658 0.72909 0.0
C991 C 0.61131 0.21427 0.66969 0.0
C992 C 0.39056 0.08068 0.58136 0.0
C993 C 0.35333 0.09249 0.56541 0.0
C994 C 0.40498 0.08399 0.64602 0.0
C995 C 0.38295 0.09955 0.69757 0.0
H996 H 0.40898 0.06922 0.54335 0.0
H997 H 0.43382 0.07472 0.6555 0.0
S998 S 0.2831 0.13219 0.68384 0.0
N999 N 0.29419 0.11838 0.60842 0.0
N1000 N 0.32146 0.1252 0.72871 0.0
C1001 C 0.34568 0.11114 0.68246 0.0
C1002 C 0.33089 0.10749 0.61693 0.0
C1003 C 0.13059 0.6553 0.47769 0.0
C1004 C 0.09886 0.64878 0.51878 0.0
C1005 C 0.13214 0.64094 0.41276 0.0
C1006 C 0.10188 0.6197 0.38596 0.0
H1007 H 0.15424 0.67206 0.49561 0.0
H1008 H 0.157 0.64703 0.38304 0.0
S1009 S 0.01539 0.58938 0.47658 0.0
N1010 N 0.0385 0.61602 0.53018 0.0
N1011 N 0.04118 0.58953 0.40842 0.0
C1012 C 0.07065 0.61193 0.42735 0.0
C1013 C 0.06917 0.62635 0.49347 0.0
C1014 C 0.6261 0.92992 0.59346 0.0
C1015 C 0.65454 0.90508 0.56985 0.0
C1016 C 0.61239 0.92759 0.65871 0.0
C1017 C 0.62625 0.90013 0.70323 0.0
H1018 H 0.61383 0.95104 0.56094 0.0
H1019 H 0.59026 0.94711 0.6741 0.0
S1020 S 0.70299 0.83053 0.66864 0.0
N1021 N 0.69781 0.85375 0.59839 0.0
N1022 N 0.67154 0.84896 0.72006 0.0
C1023 C 0.65501 0.87548 0.68069 0.0
C1024 C 0.66922 0.87803 0.61442 0.0
C1025 C 0.85975 0.35912 0.41646 0.0
C1026 C 0.89 0.37659 0.38224 0.0
C1027 C 0.86409 0.34596 0.48182 0.0
C1028 C 0.89897 0.34945 0.51564 0.0
H1029 H 0.83232 0.35605 0.39287 0.0
H1030 H 0.83974 0.33343 0.50631 0.0
S1031 S 0.9879 0.38939 0.4453 0.0
N1032 N 0.95655 0.39434 0.38562 0.0
N1033 N 0.96498 0.36929 0.50727 0.0
C1034 C 0.9296 0.36604 0.48116 0.0
C1035 C 0.92507 0.37962 0.41496 0.0
C1036 C 0.35393 0.36771 0.66125 0.0
C1037 C 0.376 0.3964 0.63136 0.0
C1038 C 0.34049 0.37136 0.72658 0.0
C1039 C 0.34884 0.4037 0.76508 0.0
H1040 H 0.34647 0.34247 0.63363 0.0
H1041 H 0.32302 0.34882 0.74682 0.0
S1042 S 0.40993 0.48434 0.71278 0.0
N1043 N 0.40807 0.45673 0.64705 0.0
N1044 N 0.38365 0.46332 0.7697 0.0
C1045 C 0.37186 0.43201 0.73627 0.0
C1046 C 0.38524 0.42841 0.66966 0.0
C1047 C 0.37991 0.66781 0.36402 0.0
C1048 C 0.41214 0.65812 0.32604 0.0
C1049 C 0.37488 0.65371 0.42868 0.0
C1050 C 0.40195 0.62951 0.45803 0.0
H1051 H 0.3587 0.68688 0.34394 0.0
H1052 H 0.34995 0.66236 0.45626 0.0
S1053 S 0.48797 0.5909 0.37638 0.0
N1054 N 0.46932 0.61954 0.32055 0.0
N1055 N 0.46005 0.59362 0.44176 0.0
C1056 C 0.43354 0.61868 0.41984 0.0
C1057 C 0.43859 0.63283 0.35409 0.0
C1058 C 0.68609 0.5824 0.70729 0.0
C1059 C 0.66232 0.589 0.76214 0.0
C1060 C 0.67255 0.58613 0.64226 0.0
C1061 C 0.63463 0.59672 0.62903 0.0
H1062 H 0.71555 0.57456 0.71461 0.0
H1063 H 0.6921 0.58085 0.60199 0.0
S1064 S 0.55961 0.61302 0.75518 0.0
N1065 N 0.59817 0.60391 0.79872 0.0
N1066 N 0.57285 0.61097 0.67701 0.0
C1067 C 0.61039 0.60272 0.68353 0.0
C1068 C 0.62417 0.59887 0.74976 0.0
C1069 C 0.56316 0.35112 0.43272 0.0
C1070 C 0.59999 0.35949 0.45547 0.0
C1071 C 0.55687 0.33797 0.36805 0.0
C1072 C 0.5871 0.33304 0.32286 0.0
H1073 H 0.53896 0.35459 0.46537 0.0
H1074 H 0.52798 0.33157 0.35345 0.0
S1075 S 0.68886 0.35341 0.35726 0.0
N1076 N 0.66701 0.36279 0.42761 0.0
N1077 N 0.65535 0.33943 0.30577 0.0
C1078 C 0.62412 0.34156 0.34519 0.0
C1079 C 0.6305 0.35445 0.41137 0.0
C1080 C 0.84775 0.56608 0.10784 0.0
C1081 C 0.83919 0.59824 0.06893 0.0
C1082 C 0.8617 0.56961 0.1726 0.0
C1083 C 0.86734 0.60547 0.20192 0.0
H1084 H 0.84346 0.53777 0.08826 0.0
H1085 H 0.86776 0.54394 0.20017 0.0
S1086 S 0.85211 0.69878 0.12061 0.0
N1087 N 0.83954 0.66738 0.06423 0.0
N1088 N 0.86491 0.67384 0.18595 0.0
C1089 C 0.85907 0.63787 0.16375 0.0
C1090 C 0.84518 0.63432 0.09752 0.0
C1091 C 0.5859 0.159 0.89782 0.0
C1092 C 0.59542 0.12095 0.88314 0.0
C1093 C 0.58308 0.1721 0.96336 0.0
C1094 C 0.58956 0.14778 1.01749 0.0
H1095 H 0.58119 0.17915 0.85829 0.0
H1096 H 0.57645 0.20177 0.9716 0.0
S1097 S 0.61033 0.0444 1.00695 0.0
N1098 N 0.60796 0.05833 0.92919 0.0
N1099 N 0.6027 0.08286 0.05178 0.0
C1100 C 0.59793 0.10939 1.00369 0.0
C1101 C 0.60083 0.09604 0.93691 0.0
C1102 C 0.16576 0.40211 0.18591 0.0
C1103 C 0.12712 0.39527 0.20024 0.0
C1104 C 0.17894 0.40495 0.12048 0.0
C1105 C 0.15407 0.401 0.06653 0.0
H1106 H 0.18617 0.4047 0.22563 0.0
H1107 H 0.209 0.40966 0.11208 0.0
S1108 S 0.04966 0.38653 0.07691 0.0
N1109 N 0.06376 0.38713 0.15462 0.0
N1110 N 0.08848 0.39234 1.03205 0.0
C1111 C 0.11526 0.39488 0.08012 0.0
C1112 C 0.10183 0.39203 0.14673 0.0
C1113 C 0.4312 0.85734 0.98923 0.0
C1114 C 0.39949 0.84263 1.02355 0.0
C1115 C 0.42814 0.87084 0.924 0.0
C1116 C 0.39327 0.87016 0.88995 0.0
H1117 H 0.4588 0.85813 1.01278 0.0
H1118 H 0.45346 0.8815 0.89975 0.0
S1119 S 0.30099 0.83726 0.95855 0.0
N1120 N 0.33156 0.83017 1.01904 0.0
N1121 N 0.32596 0.85513 0.89679 0.0
C1122 C 0.36129 0.85581 0.92374 0.0
C1123 C 0.36436 0.84217 0.99024 0.0
C1124 C 0.84923 0.92679 0.22996 0.0
C1125 C 0.83272 0.89543 0.26245 0.0
C1126 C 0.86323 0.92385 0.16491 0.0
C1127 C 0.86111 0.88948 0.12919 0.0
H1128 H 0.85206 0.9537 0.25546 0.0
H1129 H 0.87559 0.94886 0.14225 0.0
S1130 S 0.81925 0.7992 0.19092 0.0
N1131 N 0.81373 0.82925 0.25276 0.0
N1132 N 0.84083 0.82339 0.1319 0.0
C1133 C 0.8442 0.85804 0.16093 0.0
C1134 C 0.82991 0.86108 0.22705 0.0
C1135 C 0.93386 0.12669 0.91461 0.0
C1136 C 0.90277 0.13742 0.95453 0.0
C1137 C 0.93775 0.14 0.84933 0.0
C1138 C 0.91068 0.16459 0.82096 0.0
H1139 H 0.95506 0.10722 0.93355 0.0
H1140 H 0.96177 0.13028 0.82036 0.0
S1141 S 0.82663 0.20511 0.90679 0.0
N1142 N 0.8462 0.17686 0.9623 0.0
N1143 N 0.85338 0.20158 0.83997 0.0
C1144 C 0.88007 0.17641 0.8609 0.0
C1145 C 0.87614 0.16293 0.92741 0.0
C1146 C 0.11394 0.11468 0.18394 0.0
C1147 C 0.13166 0.09511 0.13155 0.0
C1148 C 0.12729 0.11172 0.24918 0.0
C1149 C 0.1591 0.08915 0.26514 0.0
H1150 H 0.08912 0.1321 0.17466 0.0
H1151 H 0.11218 0.12692 0.28764 0.0
S1152 S 0.21735 0.03391 0.14589 0.0
N1153 N 0.18373 0.0533 0.10019 0.0
N1154 N 0.20901 0.0482 0.22217 0.0
C1155 C 0.17735 0.06971 0.21317 0.0
C1156 C 0.16363 0.07257 0.14674 0.0
C1157 C 0.11708 0.86031 0.8415 0.0
C1158 C 0.09012 0.83267 0.82307 0.0
C1159 C 0.11889 0.87451 0.90633 0.0
C1160 C 0.09381 0.8618 0.95605 0.0
H1161 H 0.13695 0.8713 0.80529 0.0
H1162 H 0.14008 0.89589 0.91743 0.0
S1163 S 0.01877 0.78851 0.9344 0.0
N1164 N 0.03835 0.79235 0.86055 0.0
N1165 N 0.04144 0.81912 0.98195 0.0
C1166 C 0.0665 0.83428 0.93818 0.0
C1167 C 0.06475 0.81974 0.87202 0.0
loop_
_geom_bond_atom_site_label_1
_geom_bond_atom_site_label_2
_geom_bond_distance
_geom_bond_site_symmetry_2
_ccdc_geom_bond_type
Ho0 C3 2.811 . S
Ho0 O20 2.322 . S
Ho0 O22 2.378 . S
Ho0 O23 2.524 . S
Ho0 O24 2.381 . S
Ho0 O25 2.669 . S
Ho0 O27 2.346 . S
Ho0 O31 2.305 . S
Ho1 C12 2.811 1_554 S
Ho1 O21 2.346 . S
Ho1 O25 2.305 . S
Ho1 O26 2.322 . S
Ho1 O28 2.378 1_554 S
Ho1 O29 2.524 1_554 S
Ho1 O30 2.381 . S
Ho1 O31 2.669 . S
C2 O20 1.259 . S
C2 O21 1.268 . S
C3 Ho0 2.811 . S
C3 C4 1.488 . S
C3 O22 1.215 . S
C3 O23 1.289 . S
C4 C3 1.488 . S
C4 C5 1.348 . S
C4 C9 1.413 . S
C5 C4 1.348 . S
C5 C6 1.442 . S
C5 H32 0.930 . S
C6 C5 1.442 . S
C6 C7 1.381 . S
C6 H33 0.931 . S
C7 C6 1.381 . S
C7 C8 1.321 . S
C8 C7 1.321 . S
C8 C9 1.403 . S
C8 H34 0.934 . S
C9 C4 1.413 . S
C9 C8 1.403 . S
C9 H35 0.930 . S
C10 O24 1.275 . S
C10 O25 1.256 . S
C11 O26 1.259 . S
C11 O27 1.268 . S
C12 Ho1 2.811 1_556 S
C12 C13 1.488 . S
C12 O28 1.215 . S
C12 O29 1.289 . S
C13 C12 1.488 . S
C13 C14 1.348 . S
C13 C18 1.413 . S
C14 C13 1.348 . S
C14 C15 1.442 . S
C14 H36 0.930 . S
C15 C14 1.442 . S
C15 C16 1.381 . S
C15 H37 0.931 . S
C16 C15 1.381 . S
C16 C17 1.321 . S
C17 C16 1.321 . S
C17 C18 1.403 . S
C17 H38 0.934 . S
C18 C13 1.413 . S
C18 C17 1.403 . S
C18 H39 0.930 . S
C19 O30 1.275 . S
C19 O31 1.256 . S
O20 Ho0 2.322 . S
O20 C2 1.259 . S
O21 Ho1 2.346 . S
O21 C2 1.268 . S
O22 Ho0 2.378 . S
O22 C3 1.215 . S
O23 Ho0 2.524 . S
O23 C3 1.289 . S
O24 Ho0 2.381 . S
O24 C10 1.275 . S
O25 Ho0 2.669 . S
O25 Ho1 2.305 . S
O25 C10 1.256 . S
O26 Ho1 2.322 . S
O26 C11 1.259 . S
O27 Ho0 2.346 . S
O27 C11 1.268 . S
O28 Ho1 2.378 1_556 S
O28 C12 1.215 . S
O29 Ho1 2.524 1_556 S
O29 C12 1.289 . S
O30 Ho1 2.381 . S
O30 C19 1.275 . S
O31 Ho0 2.305 . S
O31 Ho1 2.669 . S
O31 C19 1.256 . S
H32 C5 0.930 . S
H33 C6 0.931 . S
H34 C8 0.934 . S
H35 C9 0.930 . S
H36 C14 0.930 . S
H37 C15 0.931 . S
H38 C17 0.934 . S
H39 C18 0.930 . S
Ho40 C43 2.811 1_556 S
Ho40 O60 2.322 . S
Ho40 O62 2.378 1_556 S
Ho40 O63 2.524 1_556 S
Ho40 O64 2.381 . S
Ho40 O65 2.669 . S
Ho40 O67 2.346 . S
Ho40 O71 2.305 . S
Ho41 C52 2.811 . S
Ho41 O61 2.346 . S
Ho41 O65 2.305 . S
Ho41 O66 2.322 . S
Ho41 O68 2.378 . S
Ho41 O69 2.524 . S
Ho41 O70 2.381 . S
Ho41 O71 2.669 . S
C42 O60 1.259 . S
C42 O61 1.268 . S
C43 Ho40 2.811 1_554 S
C43 C44 1.488 . S
C43 O62 1.215 . S
C43 O63 1.289 . S
C44 C43 1.488 . S
C44 C45 1.348 . S
C44 C49 1.413 . S
C45 C44 1.348 . S
C45 C46 1.442 . S
C45 H72 0.930 . S
C46 C45 1.442 . S
C46 C47 1.381 . S
C46 H73 0.931 . S
C47 C46 1.381 . S
C47 C48 1.321 . S
C48 C47 1.321 . S
C48 C49 1.403 . S
C48 H74 0.934 . S
C49 C44 1.413 . S
C49 C48 1.403 . S
C49 H75 0.930 . S
C50 O64 1.275 . S
C50 O65 1.256 . S
C51 O66 1.259 . S
C51 O67 1.268 . S
C52 Ho41 2.811 . S
C52 C53 1.488 . S
C52 O68 1.215 . S
C52 O69 1.289 . S
C53 C52 1.488 . S
C53 C54 1.348 . S
C53 C58 1.413 . S
C54 C53 1.348 . S
C54 C55 1.442 . S
C54 H76 0.930 . S
C55 C54 1.442 . S
C55 C56 1.381 . S
C55 H77 0.931 . S
C56 C55 1.381 . S
C56 C57 1.321 . S
C57 C56 1.321 . S
C57 C58 1.403 . S
C57 H78 0.934 . S
C58 C53 1.413 . S
C58 C57 1.403 . S
C58 H79 0.930 . S
C59 O70 1.275 . S
C59 O71 1.256 . S
O60 Ho40 2.322 . S
O60 C42 1.259 . S
O61 Ho41 2.346 . S
O61 C42 1.268 . S
O62 Ho40 2.378 1_554 S
O62 C43 1.215 . S
O63 Ho40 2.524 1_554 S
O63 C43 1.289 . S
O64 Ho40 2.381 . S
O64 C50 1.275 . S
O65 Ho40 2.669 . S
O65 Ho41 2.305 . S
O65 C50 1.256 . S
O66 Ho41 2.322 . S
O66 C51 1.259 . S
O67 Ho40 2.346 . S
O67 C51 1.268 . S
O68 Ho41 2.378 . S
O68 C52 1.215 . S
O69 Ho41 2.524 . S
O69 C52 1.289 . S
O70 Ho41 2.381 . S
O70 C59 1.275 . S
O71 Ho40 2.305 . S
O71 Ho41 2.669 . S
O71 C59 1.256 . S
H72 C45 0.930 . S
H73 C46 0.931 . S
H74 C48 0.934 . S
H75 C49 0.930 . S
H76 C54 0.930 . S
H77 C55 0.931 . S
H78 C57 0.934 . S
H79 C58 0.930 . S
Ho80 C83 2.811 . S
Ho80 O100 2.322 . S
Ho80 O102 2.378 . S
Ho80 O103 2.524 . S
Ho80 O104 2.381 . S
Ho80 O105 2.669 . S
Ho80 O107 2.346 . S
Ho80 O111 2.305 . S
Ho81 C92 2.811 1_554 S
Ho81 O101 2.346 . S
Ho81 O105 2.305 . S
Ho81 O106 2.322 . S
Ho81 O108 2.378 1_554 S
Ho81 O109 2.524 1_554 S
Ho81 O110 2.381 . S
Ho81 O111 2.669 . S
C82 O100 1.259 . S
C82 O101 1.268 . S
C83 Ho80 2.811 . S
C83 C84 1.488 . S
C83 O102 1.215 . S
C83 O103 1.289 . S
C84 C83 1.488 . S
C84 C85 1.348 . S
C84 C89 1.413 . S
C85 C84 1.348 . S
C85 C86 1.442 . S
C85 H112 0.930 . S
C86 C85 1.442 . S
C86 C87 1.381 . S
C86 H113 0.931 . S
C87 C86 1.381 . S
C87 C88 1.321 . S
C88 C87 1.321 . S
C88 C89 1.403 . S
C88 H114 0.934 . S
C89 C84 1.413 . S
C89 C88 1.403 . S
C89 H115 0.930 . S
C90 O104 1.275 . S
C90 O105 1.256 . S
C91 O106 1.259 . S
C91 O107 1.268 . S
C92 Ho81 2.811 1_556 S
C92 C93 1.488 . S
C92 O108 1.215 . S
C92 O109 1.289 . S
C93 C92 1.488 . S
C93 C94 1.348 . S
C93 C98 1.413 . S
C94 C93 1.348 . S
C94 C95 1.442 . S
C94 H116 0.930 . S
C95 C94 1.442 . S
C95 C96 1.381 . S
C95 H117 0.931 . S
C96 C95 1.381 . S
C96 C97 1.321 . S
C97 C96 1.321 . S
C97 C98 1.403 . S
C97 H118 0.934 . S
C98 C93 1.413 . S
C98 C97 1.403 . S
C98 H119 0.930 . S
C99 O110 1.275 . S
C99 O111 1.256 . S
O100 Ho80 2.322 . S
O100 C82 1.259 . S
O101 Ho81 2.346 . S
O101 C82 1.268 . S
O102 Ho80 2.378 . S
O102 C83 1.215 . S
O103 Ho80 2.524 . S
O103 C83 1.289 . S
O104 Ho80 2.381 . S
O104 C90 1.275 . S
O105 Ho80 2.669 . S
O105 Ho81 2.305 . S
O105 C90 1.256 . S
O106 Ho81 2.322 . S
O106 C91 1.259 . S
O107 Ho80 2.346 . S
O107 C91 1.268 . S
O108 Ho81 2.378 1_556 S
O108 C92 1.215 . S
O109 Ho81 2.524 1_556 S
O109 C92 1.289 . S
O110 Ho81 2.381 . S
O110 C99 1.275 . S
O111 Ho80 2.305 . S
O111 Ho81 2.669 . S
O111 C99 1.256 . S
H112 C85 0.930 . S
H113 C86 0.931 . S
H114 C88 0.934 . S
H115 C89 0.930 . S
H116 C94 0.930 . S
H117 C95 0.931 . S
H118 C97 0.934 . S
H119 C98 0.930 . S
Ho120 C123 2.811 1_556 S
Ho120 O140 2.322 . S
Ho120 O142 2.378 1_556 S
Ho120 O143 2.524 1_556 S
Ho120 O144 2.381 . S
Ho120 O145 2.669 . S
Ho120 O147 2.346 . S
Ho120 O151 2.305 . S
Ho121 C132 2.811 . S
Ho121 O141 2.346 . S
Ho121 O145 2.305 . S
Ho121 O146 2.322 . S
Ho121 O148 2.378 . S
Ho121 O149 2.524 . S
Ho121 O150 2.381 . S
Ho121 O151 2.669 . S
C122 O140 1.259 . S
C122 O141 1.268 . S
C123 Ho120 2.811 1_554 S
C123 C124 1.488 . S
C123 O142 1.215 . S
C123 O143 1.289 . S
C124 C123 1.488 . S
C124 C125 1.348 . S
C124 C129 1.413 . S
C125 C124 1.348 . S
C125 C126 1.442 . S
C125 H152 0.930 . S
C126 C125 1.442 . S
C126 C127 1.381 . S
C126 H153 0.931 . S
C127 C126 1.381 . S
C127 C128 1.321 . S
C128 C127 1.321 . S
C128 C129 1.403 . S
C128 H154 0.934 . S
C129 C124 1.413 . S
C129 C128 1.403 . S
C129 H155 0.930 . S
C130 O144 1.275 . S
C130 O145 1.256 . S
C131 O146 1.259 . S
C131 O147 1.268 . S
C132 Ho121 2.811 . S
C132 C133 1.488 . S
C132 O148 1.215 . S
C132 O149 1.289 . S
C133 C132 1.488 . S
C133 C134 1.348 . S
C133 C138 1.413 . S
C134 C133 1.348 . S
C134 C135 1.442 . S
C134 H156 0.930 . S
C135 C134 1.442 . S
C135 C136 1.381 . S
C135 H157 0.931 . S
C136 C135 1.381 . S
C136 C137 1.321 . S
C137 C136 1.321 . S
C137 C138 1.403 . S
C137 H158 0.934 . S
C138 C133 1.413 . S
C138 C137 1.403 . S
C138 H159 0.930 . S
C139 O150 1.275 . S
C139 O151 1.256 . S
O140 Ho120 2.322 . S
O140 C122 1.259 . S
O141 Ho121 2.346 . S
O141 C122 1.268 . S
O142 Ho120 2.378 1_554 S
O142 C123 1.215 . S
O143 Ho120 2.524 1_554 S
O143 C123 1.289 . S
O144 Ho120 2.381 . S
O144 C130 1.275 . S
O145 Ho120 2.669 . S
O145 Ho121 2.305 . S
O145 C130 1.256 . S
O146 Ho121 2.322 . S
O146 C131 1.259 . S
O147 Ho120 2.346 . S
O147 C131 1.268 . S
O148 Ho121 2.378 . S
O148 C132 1.215 . S
O149 Ho121 2.524 . S
O149 C132 1.289 . S
O150 Ho121 2.381 . S
O150 C139 1.275 . S
O151 Ho120 2.305 . S
O151 Ho121 2.669 . S
O151 C139 1.256 . S
H152 C125 0.930 . S
H153 C126 0.931 . S
H154 C128 0.934 . S
H155 C129 0.930 . S
H156 C134 0.930 . S
H157 C135 0.931 . S
H158 C137 0.934 . S
H159 C138 0.930 . S
Ho160 C163 2.811 1_554 S
Ho160 O180 2.322 . S
Ho160 O182 2.378 1_554 S
Ho160 O183 2.524 1_554 S
Ho160 O184 2.381 . S
Ho160 O185 2.669 . S
Ho160 O187 2.346 . S
Ho160 O191 2.305 . S
Ho161 C172 2.811 . S
Ho161 O181 2.346 . S
Ho161 O185 2.305 . S
Ho161 O186 2.322 . S
Ho161 O188 2.378 . S
Ho161 O189 2.524 . S
Ho161 O190 2.381 . S
Ho161 O191 2.669 . S
C162 O180 1.259 . S
C162 O181 1.268 . S
C163 Ho160 2.811 1_556 S
C163 C164 1.488 . S
C163 O182 1.215 . S
C163 O183 1.289 . S
C164 C163 1.488 . S
C164 C165 1.348 . S
C164 C169 1.413 . S
C165 C164 1.348 . S
C165 C166 1.442 . S
C165 H192 0.930 . S
C166 C165 1.442 . S
C166 C167 1.381 . S
C166 H193 0.931 . S
C167 C166 1.381 . S
C167 C168 1.321 . S
C168 C167 1.321 . S
C168 C169 1.403 . S
C168 H194 0.934 . S
C169 C164 1.413 . S
C169 C168 1.403 . S
C169 H195 0.930 . S
C170 O184 1.275 . S
C170 O185 1.256 . S
C171 O186 1.259 . S
C171 O187 1.268 . S
C172 Ho161 2.811 . S
C172 C173 1.488 . S
C172 O188 1.215 . S
C172 O189 1.289 . S
C173 C172 1.488 . S
C173 C174 1.348 . S
C173 C178 1.413 . S
C174 C173 1.348 . S
C174 C175 1.442 . S
C174 H196 0.930 . S
C175 C174 1.442 . S
C175 C176 1.381 . S
C175 H197 0.931 . S
C176 C175 1.381 . S
C176 C177 1.321 . S
C177 C176 1.321 . S
C177 C178 1.403 . S
C177 H198 0.934 . S
C178 C173 1.413 . S
C178 C177 1.403 . S
C178 H199 0.930 . S
C179 O190 1.275 . S
C179 O191 1.256 . S
O180 Ho160 2.322 . S
O180 C162 1.259 . S
O181 Ho161 2.346 . S
O181 C162 1.268 . S
O182 Ho160 2.378 1_556 S
O182 C163 1.215 . S
O183 Ho160 2.524 1_556 S
O183 C163 1.289 . S
O184 Ho160 2.381 . S
O184 C170 1.275 . S
O185 Ho160 2.669 . S
O185 Ho161 2.305 . S
O185 C170 1.256 . S
O186 Ho161 2.322 . S
O186 C171 1.259 . S
O187 Ho160 2.346 . S
O187 C171 1.268 . S
O188 Ho161 2.378 . S
O188 C172 1.215 . S
O189 Ho161 2.524 . S
O189 C172 1.289 . S
O190 Ho161 2.381 . S
O190 C179 1.275 . S
O191 Ho160 2.305 . S
O191 Ho161 2.669 . S
O191 C179 1.256 . S
H192 C165 0.930 . S
H193 C166 0.931 . S
H194 C168 0.934 . S
H195 C169 0.930 . S
H196 C174 0.930 . S
H197 C175 0.931 . S
H198 C177 0.934 . S
H199 C178 0.930 . S
Ho200 C203 2.811 . S
Ho200 O220 2.322 . S
Ho200 O222 2.378 . S
Ho200 O223 2.524 . S
Ho200 O224 2.381 . S
Ho200 O225 2.669 . S
Ho200 O227 2.346 . S
Ho200 O231 2.305 . S
Ho201 C212 2.811 1_556 S
Ho201 O221 2.346 . S
Ho201 O225 2.305 . S
Ho201 O226 2.322 . S
Ho201 O228 2.378 1_556 S
Ho201 O229 2.524 1_556 S
Ho201 O230 2.381 . S
Ho201 O231 2.669 . S
C202 O220 1.259 . S
C202 O221 1.268 . S
C203 Ho200 2.811 . S
C203 C204 1.488 . S
C203 O222 1.215 . S
C203 O223 1.289 . S
C204 C203 1.488 . S
C204 C205 1.348 . S
C204 C209 1.413 . S
C205 C204 1.348 . S
C205 C206 1.442 . S
C205 H232 0.930 . S
C206 C205 1.442 . S
C206 C207 1.381 . S
C206 H233 0.931 . S
C207 C206 1.381 . S
C207 C208 1.321 . S
C208 C207 1.321 . S
C208 C209 1.403 . S
C208 H234 0.934 . S
C209 C204 1.413 . S
C209 C208 1.403 . S
C209 H235 0.930 . S
C210 O224 1.275 . S
C210 O225 1.256 . S
C211 O226 1.259 . S
C211 O227 1.268 . S
C212 Ho201 2.811 1_554 S
C212 C213 1.488 . S
C212 O228 1.215 . S
C212 O229 1.289 . S
C213 C212 1.488 . S
C213 C214 1.348 . S
C213 C218 1.413 . S
C214 C213 1.348 . S
C214 C215 1.442 . S
C214 H236 0.930 . S
C215 C214 1.442 . S
C215 C216 1.381 . S
C215 H237 0.931 . S
C216 C215 1.381 . S
C216 C217 1.321 . S
C217 C216 1.321 . S
C217 C218 1.403 . S
C217 H238 0.934 . S
C218 C213 1.413 . S
C218 C217 1.403 . S
C218 H239 0.930 . S
C219 O230 1.275 . S
C219 O231 1.256 . S
O220 Ho200 2.322 . S
O220 C202 1.259 . S
O221 Ho201 2.346 . S
O221 C202 1.268 . S
O222 Ho200 2.378 . S
O222 C203 1.215 . S
O223 Ho200 2.524 . S
O223 C203 1.289 . S
O224 Ho200 2.381 . S
O224 C210 1.275 . S
O225 Ho200 2.669 . S
O225 Ho201 2.305 . S
O225 C210 1.256 . S
O226 Ho201 2.322 . S
O226 C211 1.259 . S
O227 Ho200 2.346 . S
O227 C211 1.268 . S
O228 Ho201 2.378 1_554 S
O228 C212 1.215 . S
O229 Ho201 2.524 1_554 S
O229 C212 1.289 . S
O230 Ho201 2.381 . S
O230 C219 1.275 . S
O231 Ho200 2.305 . S
O231 Ho201 2.669 . S
O231 C219 1.256 . S
H232 C205 0.930 . S
H233 C206 0.931 . S
H234 C208 0.934 . S
H235 C209 0.930 . S
H236 C214 0.930 . S
H237 C215 0.931 . S
H238 C217 0.934 . S
H239 C218 0.930 . S
Ho240 C243 2.811 1_554 S
Ho240 O260 2.322 . S
Ho240 O262 2.378 1_554 S
Ho240 O263 2.524 1_554 S
Ho240 O264 2.381 . S
Ho240 O265 2.669 . S
Ho240 O267 2.346 . S
Ho240 O271 2.305 . S
Ho241 C252 2.811 . S
Ho241 O261 2.346 . S
Ho241 O265 2.305 . S
Ho241 O266 2.322 . S
Ho241 O268 2.378 . S
Ho241 O269 2.524 . S
Ho241 O270 2.381 . S
Ho241 O271 2.669 . S
C242 O260 1.259 . S
C242 O261 1.268 . S
C243 Ho240 2.811 1_556 S
C243 C244 1.488 . S
C243 O262 1.215 . S
C243 O263 1.289 . S
C244 C243 1.488 . S
C244 C245 1.348 . S
C244 C249 1.413 . S
C245 C244 1.348 . S
C245 C246 1.442 . S
C245 H272 0.930 . S
C246 C245 1.442 . S
C246 C247 1.381 . S
C246 H273 0.931 . S
C247 C246 1.381 . S
C247 C248 1.321 . S
C248 C247 1.321 . S
C248 C249 1.403 . S
C248 H274 0.934 . S
C249 C244 1.413 . S
C249 C248 1.403 . S
C249 H275 0.930 . S
C250 O264 1.275 . S
C250 O265 1.256 . S
C251 O266 1.259 . S
C251 O267 1.268 . S
C252 Ho241 2.811 . S
C252 C253 1.488 . S
C252 O268 1.215 . S
C252 O269 1.289 . S
C253 C252 1.488 . S
C253 C254 1.348 . S
C253 C258 1.413 . S
C254 C253 1.348 . S
C254 C255 1.442 . S
C254 H276 0.930 . S
C255 C254 1.442 . S
C255 C256 1.381 . S
C255 H277 0.931 . S
C256 C255 1.381 . S
C256 C257 1.321 . S
C257 C256 1.321 . S
C257 C258 1.403 . S
C257 H278 0.934 . S
C258 C253 1.413 . S
C258 C257 1.403 . S
C258 H279 0.930 . S
C259 O270 1.275 . S
C259 O271 1.256 . S
O260 Ho240 2.322 . S
O260 C242 1.259 . S
O261 Ho241 2.346 . S
O261 C242 1.268 . S
O262 Ho240 2.378 1_556 S
O262 C243 1.215 . S
O263 Ho240 2.524 1_556 S
O263 C243 1.289 . S
O264 Ho240 2.381 . S
O264 C250 1.275 . S
O265 Ho240 2.669 . S
O265 Ho241 2.305 . S
O265 C250 1.256 . S
O266 Ho241 2.322 . S
O266 C251 1.259 . S
O267 Ho240 2.346 . S
O267 C251 1.268 . S
O268 Ho241 2.378 . S
O268 C252 1.215 . S
O269 Ho241 2.524 . S
O269 C252 1.289 . S
O270 Ho241 2.381 . S
O270 C259 1.275 . S
O271 Ho240 2.305 . S
O271 Ho241 2.669 . S
O271 C259 1.256 . S
H272 C245 0.930 . S
H273 C246 0.931 . S
H274 C248 0.934 . S
H275 C249 0.930 . S
H276 C254 0.930 . S
H277 C255 0.931 . S
H278 C257 0.934 . S
H279 C258 0.930 . S
Ho280 C283 2.811 . S
Ho280 O300 2.322 . S
Ho280 O302 2.378 . S
Ho280 O303 2.524 . S
Ho280 O304 2.381 . S
Ho280 O305 2.669 . S
Ho280 O307 2.346 . S
Ho280 O311 2.305 . S
Ho281 C292 2.811 1_556 S
Ho281 O301 2.346 . S
Ho281 O305 2.305 . S
Ho281 O306 2.322 . S
Ho281 O308 2.378 1_556 S
Ho281 O309 2.524 1_556 S
Ho281 O310 2.381 . S
Ho281 O311 2.669 . S
C282 O300 1.259 . S
C282 O301 1.268 . S
C283 Ho280 2.811 . S
C283 C284 1.488 . S
C283 O302 1.215 . S
C283 O303 1.289 . S
C284 C283 1.488 . S
C284 C285 1.348 . S
C284 C289 1.413 . S
C285 C284 1.348 . S
C285 C286 1.442 . S
C285 H312 0.930 . S
C286 C285 1.442 . S
C286 C287 1.381 . S
C286 H313 0.931 . S
C287 C286 1.381 . S
C287 C288 1.321 . S
C288 C287 1.321 . S
C288 C289 1.403 . S
C288 H314 0.934 . S
C289 C284 1.413 . S
C289 C288 1.403 . S
C289 H315 0.930 . S
C290 O304 1.275 . S
C290 O305 1.256 . S
C291 O306 1.259 . S
C291 O307 1.268 . S
C292 Ho281 2.811 1_554 S
C292 C293 1.488 . S
C292 O308 1.215 . S
C292 O309 1.289 . S
C293 C292 1.488 . S
C293 C294 1.348 . S
C293 C298 1.413 . S
C294 C293 1.348 . S
C294 C295 1.442 . S
C294 H316 0.930 . S
C295 C294 1.442 . S
C295 C296 1.381 . S
C295 H317 0.931 . S
C296 C295 1.381 . S
C296 C297 1.321 . S
C297 C296 1.321 . S
C297 C298 1.403 . S
C297 H318 0.934 . S
C298 C293 1.413 . S
C298 C297 1.403 . S
C298 H319 0.930 . S
C299 O310 1.275 . S
C299 O311 1.256 . S
O300 Ho280 2.322 . S
O300 C282 1.259 . S
O301 Ho281 2.346 . S
O301 C282 1.268 . S
O302 Ho280 2.378 . S
O302 C283 1.215 . S
O303 Ho280 2.524 . S
O303 C283 1.289 . S
O304 Ho280 2.381 . S
O304 C290 1.275 . S
O305 Ho280 2.669 . S
O305 Ho281 2.305 . S
O305 C290 1.256 . S
O306 Ho281 2.322 . S
O306 C291 1.259 . S
O307 Ho280 2.346 . S
O307 C291 1.268 . S
O308 Ho281 2.378 1_554 S
O308 C292 1.215 . S
O309 Ho281 2.524 1_554 S
O309 C292 1.289 . S
O310 Ho281 2.381 . S
O310 C299 1.275 . S
O311 Ho280 2.305 . S
O311 Ho281 2.669 . S
O311 C299 1.256 . S
H312 C285 0.930 . S
H313 C286 0.931 . S
H314 C288 0.934 . S
H315 C289 0.930 . S
H316 C294 0.930 . S
H317 C295 0.931 . S
H318 C297 0.934 . S
H319 C298 0.930 . S
Ho320 C323 2.811 . S
Ho320 O340 2.322 . S
Ho320 O342 2.378 . S
Ho320 O343 2.524 . S
Ho320 O344 2.381 . S
Ho320 O345 2.669 . S
Ho320 O347 2.346 . S
Ho320 O351 2.305 . S
Ho321 C332 2.811 . S
Ho321 O341 2.346 . S
Ho321 O345 2.305 . S
Ho321 O346 2.322 . S
Ho321 O348 2.378 . S
Ho321 O349 2.524 . S
Ho321 O350 2.381 . S
Ho321 O351 2.669 . S
C322 O340 1.259 . S
C322 O341 1.268 . S
C323 Ho320 2.811 . S
C323 C324 1.488 . S
C323 O342 1.215 . S
C323 O343 1.289 . S
C324 C323 1.488 . S
C324 C325 1.348 . S
C324 C329 1.413 . S
C325 C324 1.348 . S
C325 C326 1.442 . S
C325 H352 0.930 . S
C326 C325 1.442 . S
C326 C327 1.381 1_556 S
C326 H353 0.931 1_556 S
C327 C326 1.381 1_554 S
C327 C328 1.321 1_554 S
C328 C327 1.321 1_556 S
C328 C329 1.403 . S
C328 H354 0.934 1_556 S
C329 C324 1.413 . S
C329 C328 1.403 . S
C329 H355 0.930 . S
C330 O344 1.275 . S
C330 O345 1.256 . S
C331 O346 1.259 . S
C331 O347 1.268 . S
C332 Ho321 2.811 . S
C332 C333 1.488 . S
C332 O348 1.215 . S
C332 O349 1.289 . S
C333 C332 1.488 . S
C333 C334 1.348 . S
C333 C338 1.413 . S
C334 C333 1.348 . S
C334 C335 1.442 . S
C334 H356 0.930 . S
C335 C334 1.442 . S
C335 C336 1.381 . S
C335 H357 0.931 . S
C336 C335 1.381 . S
C336 C337 1.321 . S
C337 C336 1.321 . S
C337 C338 1.403 . S
C337 H358 0.934 . S
C338 C333 1.413 . S
C338 C337 1.403 . S
C338 H359 0.930 . S
C339 O350 1.275 . S
C339 O351 1.256 . S
O340 Ho320 2.322 . S
O340 C322 1.259 . S
O341 Ho321 2.346 . S
O341 C322 1.268 . S
O342 Ho320 2.378 . S
O342 C323 1.215 . S
O343 Ho320 2.524 . S
O343 C323 1.289 . S
O344 Ho320 2.381 . S
O344 C330 1.275 . S
O345 Ho320 2.669 . S
O345 Ho321 2.305 . S
O345 C330 1.256 . S
O346 Ho321 2.322 . S
O346 C331 1.259 . S
O347 Ho320 2.346 . S
O347 C331 1.268 . S
O348 Ho321 2.378 . S
O348 C332 1.215 . S
O349 Ho321 2.524 . S
O349 C332 1.289 . S
O350 Ho321 2.381 . S
O350 C339 1.275 . S
O351 Ho320 2.305 . S
O351 Ho321 2.669 . S
O351 C339 1.256 . S
H352 C325 0.930 . S
H353 C326 0.931 1_554 S
H354 C328 0.934 1_554 S
H355 C329 0.930 . S
H356 C334 0.930 . S
H357 C335 0.931 . S
H358 C337 0.934 . S
H359 C338 0.930 . S
Ho360 C363 2.811 . S
Ho360 O380 2.322 . S
Ho360 O382 2.378 . S
Ho360 O383 2.524 . S
Ho360 O384 2.381 . S
Ho360 O385 2.669 . S
Ho360 O387 2.346 . S
Ho360 O391 2.305 . S
Ho361 C372 2.811 . S
Ho361 O381 2.346 . S
Ho361 O385 2.305 . S
Ho361 O386 2.322 . S
Ho361 O388 2.378 . S
Ho361 O389 2.524 . S
Ho361 O390 2.381 . S
Ho361 O391 2.669 . S
C362 O380 1.259 . S
C362 O381 1.268 . S
C363 Ho360 2.811 . S
C363 C364 1.488 . S
C363 O382 1.215 . S
C363 O383 1.289 . S
C364 C363 1.488 . S
C364 C365 1.348 . S
C364 C369 1.413 . S
C365 C364 1.348 . S
C365 C366 1.442 . S
C365 H392 0.930 . S
C366 C365 1.442 . S
C366 C367 1.381 . S
C366 H393 0.931 . S
C367 C366 1.381 . S
C367 C368 1.321 . S
C368 C367 1.321 . S
C368 C369 1.403 . S
C368 H394 0.934 . S
C369 C364 1.413 . S
C369 C368 1.403 . S
C369 H395 0.930 . S
C370 O384 1.275 . S
C370 O385 1.256 . S
C371 O386 1.259 . S
C371 O387 1.268 . S
C372 Ho361 2.811 . S
C372 C373 1.488 . S
C372 O388 1.215 . S
C372 O389 1.289 . S
C373 C372 1.488 . S
C373 C374 1.348 . S
C373 C378 1.413 . S
C374 C373 1.348 . S
C374 C375 1.442 . S
C374 H396 0.930 . S
C375 C374 1.442 . S
C375 C376 1.381 1_554 S
C375 H397 0.931 1_554 S
C376 C375 1.381 1_556 S
C376 C377 1.321 1_556 S
C377 C376 1.321 1_554 S
C377 C378 1.403 . S
C377 H398 0.934 1_554 S
C378 C373 1.413 . S
C378 C377 1.403 . S
C378 H399 0.930 . S
C379 O390 1.275 . S
C379 O391 1.256 . S
O380 Ho360 2.322 . S
O380 C362 1.259 . S
O381 Ho361 2.346 . S
O381 C362 1.268 . S
O382 Ho360 2.378 . S
O382 C363 1.215 . S
O383 Ho360 2.524 . S
O383 C363 1.289 . S
O384 Ho360 2.381 . S
O384 C370 1.275 . S
O385 Ho360 2.669 . S
O385 Ho361 2.305 . S
O385 C370 1.256 . S
O386 Ho361 2.322 . S
O386 C371 1.259 . S
O387 Ho360 2.346 . S
O387 C371 1.268 . S
O388 Ho361 2.378 . S
O388 C372 1.215 . S
O389 Ho361 2.524 . S
O389 C372 1.289 . S
O390 Ho361 2.381 . S
O390 C379 1.275 . S
O391 Ho360 2.305 . S
O391 Ho361 2.669 . S
O391 C379 1.256 . S
H392 C365 0.930 . S
H393 C366 0.931 . S
H394 C368 0.934 . S
H395 C369 0.930 . S
H396 C374 0.930 . S
H397 C375 0.931 1_556 S
H398 C377 0.934 1_556 S
H399 C378 0.930 . S
Ho400 C403 2.811 . S
Ho400 O420 2.322 . S
Ho400 O422 2.378 . S
Ho400 O423 2.524 . S
Ho400 O424 2.381 . S
Ho400 O425 2.669 . S
Ho400 O427 2.346 . S
Ho400 O431 2.305 . S
Ho401 C412 2.811 . S
Ho401 O421 2.346 . S
Ho401 O425 2.305 . S
Ho401 O426 2.322 . S
Ho401 O428 2.378 . S
Ho401 O429 2.524 . S
Ho401 O430 2.381 . S
Ho401 O431 2.669 . S
C402 O420 1.259 . S
C402 O421 1.268 . S
C403 Ho400 2.811 . S
C403 C404 1.488 . S
C403 O422 1.215 . S
C403 O423 1.289 . S
C404 C403 1.488 . S
C404 C405 1.348 . S
C404 C409 1.413 . S
C405 C404 1.348 . S
C405 C406 1.442 . S
C405 H432 0.930 . S
C406 C405 1.442 . S
C406 C407 1.381 1_556 S
C406 H433 0.931 1_556 S
C407 C406 1.381 1_554 S
C407 C408 1.321 1_554 S
C408 C407 1.321 1_556 S
C408 C409 1.403 . S
C408 H434 0.934 1_556 S
C409 C404 1.413 . S
C409 C408 1.403 . S
C409 H435 0.930 . S
C410 O424 1.275 . S
C410 O425 1.256 . S
C411 O426 1.259 . S
C411 O427 1.268 . S
C412 Ho401 2.811 . S
C412 C413 1.488 . S
C412 O428 1.215 . S
C412 O429 1.289 . S
C413 C412 1.488 . S
C413 C414 1.348 . S
C413 C418 1.413 . S
C414 C413 1.348 . S
C414 C415 1.442 . S
C414 H436 0.930 . S
C415 C414 1.442 . S
C415 C416 1.381 . S
C415 H437 0.931 . S
C416 C415 1.381 . S
C416 C417 1.321 . S
C417 C416 1.321 . S
C417 C418 1.403 . S
C417 H438 0.934 . S
C418 C413 1.413 . S
C418 C417 1.403 . S
C418 H439 0.930 . S
C419 O430 1.275 . S
C419 O431 1.256 . S
O420 Ho400 2.322 . S
O420 C402 1.259 . S
O421 Ho401 2.346 . S
O421 C402 1.268 . S
O422 Ho400 2.378 . S
O422 C403 1.215 . S
O423 Ho400 2.524 . S
O423 C403 1.289 . S
O424 Ho400 2.381 . S
O424 C410 1.275 . S
O425 Ho400 2.669 . S
O425 Ho401 2.305 . S
O425 C410 1.256 . S
O426 Ho401 2.322 . S
O426 C411 1.259 . S
O427 Ho400 2.346 . S
O427 C411 1.268 . S
O428 Ho401 2.378 . S
O428 C412 1.215 . S
O429 Ho401 2.524 . S
O429 C412 1.289 . S
O430 Ho401 2.381 . S
O430 C419 1.275 . S
O431 Ho400 2.305 . S
O431 Ho401 2.669 . S
O431 C419 1.256 . S
H432 C405 0.930 . S
H433 C406 0.931 1_554 S
H434 C408 0.934 1_554 S
H435 C409 0.930 . S
H436 C414 0.930 . S
H437 C415 0.931 . S
H438 C417 0.934 . S
H439 C418 0.930 . S
Ho440 C443 2.811 . S
Ho440 O460 2.322 . S
Ho440 O462 2.378 . S
Ho440 O463 2.524 . S
Ho440 O464 2.381 . S
Ho440 O465 2.669 . S
Ho440 O467 2.346 . S
Ho440 O471 2.305 . S
Ho441 C452 2.811 . S
Ho441 O461 2.346 . S
Ho441 O465 2.305 . S
Ho441 O466 2.322 . S
Ho441 O468 2.378 . S
Ho441 O469 2.524 . S
Ho441 O470 2.381 . S
Ho441 O471 2.669 . S
C442 O460 1.259 . S
C442 O461 1.268 . S
C443 Ho440 2.811 . S
C443 C444 1.488 . S
C443 O462 1.215 . S
C443 O463 1.289 . S
C444 C443 1.488 . S
C444 C445 1.348 . S
C444 C449 1.413 . S
C445 C444 1.348 . S
C445 C446 1.442 . S
C445 H472 0.930 . S
C446 C445 1.442 . S
C446 C447 1.381 . S
C446 H473 0.931 . S
C447 C446 1.381 . S
C447 C448 1.321 . S
C448 C447 1.321 . S
C448 C449 1.403 . S
C448 H474 0.934 . S
C449 C444 1.413 . S
C449 C448 1.403 . S
C449 H475 0.930 . S
C450 O464 1.275 . S
C450 O465 1.256 . S
C451 O466 1.259 . S
C451 O467 1.268 . S
C452 Ho441 2.811 . S
C452 C453 1.488 . S
C452 O468 1.215 . S
C452 O469 1.289 . S
C453 C452 1.488 . S
C453 C454 1.348 . S
C453 C458 1.413 . S
C454 C453 1.348 . S
C454 C455 1.442 . S
C454 H476 0.930 . S
C455 C454 1.442 . S
C455 C456 1.381 1_554 S
C455 H477 0.931 1_554 S
C456 C455 1.381 1_556 S
C456 C457 1.321 1_556 S
C457 C456 1.321 1_554 S
C457 C458 1.403 . S
C457 H478 0.934 1_554 S
C458 C453 1.413 . S
C458 C457 1.403 . S
C458 H479 0.930 . S
C459 O470 1.275 . S
C459 O471 1.256 . S
O460 Ho440 2.322 . S
O460 C442 1.259 . S
O461 Ho441 2.346 . S
O461 C442 1.268 . S
O462 Ho440 2.378 . S
O462 C443 1.215 . S
O463 Ho440 2.524 . S
O463 C443 1.289 . S
O464 Ho440 2.381 . S
O464 C450 1.275 . S
O465 Ho440 2.669 . S
O465 Ho441 2.305 . S
O465 C450 1.256 . S
O466 Ho441 2.322 . S
O466 C451 1.259 . S
O467 Ho440 2.346 . S
O467 C451 1.268 . S
O468 Ho441 2.378 . S
O468 C452 1.215 . S
O469 Ho441 2.524 . S
O469 C452 1.289 . S
O470 Ho441 2.381 . S
O470 C459 1.275 . S
O471 Ho440 2.305 . S
O471 Ho441 2.669 . S
O471 C459 1.256 . S
H472 C445 0.930 . S
H473 C446 0.931 . S
H474 C448 0.934 . S
H475 C449 0.930 . S
H476 C454 0.930 . S
H477 C455 0.931 1_556 S
H478 C457 0.934 1_556 S
H479 C458 0.930 . S
Ho480 C483 2.811 . S
Ho480 O500 2.322 . S
Ho480 O502 2.378 . S
Ho480 O503 2.524 . S
Ho480 O504 2.381 . S
Ho480 O505 2.669 . S
Ho480 O507 2.346 . S
Ho480 O511 2.305 . S
Ho481 C492 2.811 . S
Ho481 O501 2.346 . S
Ho481 O505 2.305 . S
Ho481 O506 2.322 . S
Ho481 O508 2.378 . S
Ho481 O509 2.524 . S
Ho481 O510 2.381 . S
Ho481 O511 2.669 . S
C482 O500 1.259 . S
C482 O501 1.268 . S
C483 Ho480 2.811 . S
C483 C484 1.488 . S
C483 O502 1.215 . S
C483 O503 1.289 . S
C484 C483 1.488 . S
C484 C485 1.348 . S
C484 C489 1.413 . S
C485 C484 1.348 . S
C485 C486 1.442 . S
C485 H512 0.930 . S
C486 C485 1.442 . S
C486 C487 1.381 . S
C486 H513 0.931 . S
C487 C486 1.381 . S
C487 C488 1.321 . S
C488 C487 1.321 . S
C488 C489 1.403 . S
C488 H514 0.934 . S
C489 C484 1.413 . S
C489 C488 1.403 . S
C489 H515 0.930 . S
C490 O504 1.275 . S
C490 O505 1.256 . S
C491 O506 1.259 . S
C491 O507 1.268 . S
C492 Ho481 2.811 . S
C492 C493 1.488 . S
C492 O508 1.215 . S
C492 O509 1.289 . S
C493 C492 1.488 . S
C493 C494 1.348 . S
C493 C498 1.413 . S
C494 C493 1.348 . S
C494 C495 1.442 . S
C494 H516 0.930 . S
C495 C494 1.442 . S
C495 C496 1.381 1_556 S
C495 H517 0.931 1_556 S
C496 C495 1.381 1_554 S
C496 C497 1.321 1_554 S
C497 C496 1.321 1_556 S
C497 C498 1.403 . S
C497 H518 0.934 . S
C498 C493 1.413 . S
C498 C497 1.403 . S
C498 H519 0.930 . S
C499 O510 1.275 . S
C499 O511 1.256 . S
O500 Ho480 2.322 . S
O500 C482 1.259 . S
O501 Ho481 2.346 . S
O501 C482 1.268 . S
O502 Ho480 2.378 . S
O502 C483 1.215 . S
O503 Ho480 2.524 . S
O503 C483 1.289 . S
O504 Ho480 2.381 . S
O504 C490 1.275 . S
O505 Ho480 2.669 . S
O505 Ho481 2.305 . S
O505 C490 1.256 . S
O506 Ho481 2.322 . S
O506 C491 1.259 . S
O507 Ho480 2.346 . S
O507 C491 1.268 . S
O508 Ho481 2.378 . S
O508 C492 1.215 . S
O509 Ho481 2.524 . S
O509 C492 1.289 . S
O510 Ho481 2.381 . S
O510 C499 1.275 . S
O511 Ho480 2.305 . S
O511 Ho481 2.669 . S
O511 C499 1.256 . S
H512 C485 0.930 . S
H513 C486 0.931 . S
H514 C488 0.934 . S
H515 C489 0.930 . S
H516 C494 0.930 . S
H517 C495 0.931 1_554 S
H518 C497 0.934 . S
H519 C498 0.930 . S
Ho520 C523 2.811 . S
Ho520 O540 2.322 . S
Ho520 O542 2.378 . S
Ho520 O543 2.524 . S
Ho520 O544 2.381 . S
Ho520 O545 2.669 . S
Ho520 O547 2.346 . S
Ho520 O551 2.305 . S
Ho521 C532 2.811 . S
Ho521 O541 2.346 . S
Ho521 O545 2.305 . S
Ho521 O546 2.322 . S
Ho521 O548 2.378 . S
Ho521 O549 2.524 . S
Ho521 O550 2.381 . S
Ho521 O551 2.669 . S
C522 O540 1.259 . S
C522 O541 1.268 . S
C523 Ho520 2.811 . S
C523 C524 1.488 . S
C523 O542 1.215 . S
C523 O543 1.289 . S
C524 C523 1.488 . S
C524 C525 1.348 . S
C524 C529 1.413 . S
C525 C524 1.348 . S
C525 C526 1.442 . S
C525 H552 0.930 . S
C526 C525 1.442 . S
C526 C527 1.381 1_554 S
C526 H553 0.931 1_554 S
C527 C526 1.381 1_556 S
C527 C528 1.321 1_556 S
C528 C527 1.321 1_554 S
C528 C529 1.403 . S
C528 H554 0.934 . S
C529 C524 1.413 . S
C529 C528 1.403 . S
C529 H555 0.930 . S
C530 O544 1.275 . S
C530 O545 1.256 . S
C531 O546 1.259 . S
C531 O547 1.268 . S
C532 Ho521 2.811 . S
C532 C533 1.488 . S
C532 O548 1.215 . S
C532 O549 1.289 . S
C533 C532 1.488 . S
C533 C534 1.348 . S
C533 C538 1.413 . S
C534 C533 1.348 . S
C534 C535 1.442 . S
C534 H556 0.930 . S
C535 C534 1.442 . S
C535 C536 1.381 . S
C535 H557 0.931 . S
C536 C535 1.381 . S
C536 C537 1.321 . S
C537 C536 1.321 . S
C537 C538 1.403 . S
C537 H558 0.934 . S
C538 C533 1.413 . S
C538 C537 1.403 . S
C538 H559 0.930 . S
C539 O550 1.275 . S
C539 O551 1.256 . S
O540 Ho520 2.322 . S
O540 C522 1.259 . S
O541 Ho521 2.346 . S
O541 C522 1.268 . S
O542 Ho520 2.378 . S
O542 C523 1.215 . S
O543 Ho520 2.524 . S
O543 C523 1.289 . S
O544 Ho520 2.381 . S
O544 C530 1.275 . S
O545 Ho520 2.669 . S
O545 Ho521 2.305 . S
O545 C530 1.256 . S
O546 Ho521 2.322 . S
O546 C531 1.259 . S
O547 Ho520 2.346 . S
O547 C531 1.268 . S
O548 Ho521 2.378 . S
O548 C532 1.215 . S
O549 Ho521 2.524 . S
O549 C532 1.289 . S
O550 Ho521 2.381 . S
O550 C539 1.275 . S
O551 Ho520 2.305 . S
O551 Ho521 2.669 . S
O551 C539 1.256 . S
H552 C525 0.930 . S
H553 C526 0.931 1_556 S
H554 C528 0.934 . S
H555 C529 0.930 . S
H556 C534 0.930 . S
H557 C535 0.931 . S
H558 C537 0.934 . S
H559 C538 0.930 . S
Ho560 C563 2.811 . S
Ho560 O580 2.322 . S
Ho560 O582 2.378 . S
Ho560 O583 2.524 . S
Ho560 O584 2.381 . S
Ho560 O585 2.669 . S
Ho560 O587 2.346 . S
Ho560 O591 2.305 . S
Ho561 C572 2.811 . S
Ho561 O581 2.346 . S
Ho561 O585 2.305 . S
Ho561 O586 2.322 . S
Ho561 O588 2.378 . S
Ho561 O589 2.524 . S
Ho561 O590 2.381 . S
Ho561 O591 2.669 . S
C562 O580 1.259 . S
C562 O581 1.268 . S
C563 Ho560 2.811 . S
C563 C564 1.488 . S
C563 O582 1.215 . S
C563 O583 1.289 . S
C564 C563 1.488 . S
C564 C565 1.348 . S
C564 C569 1.413 . S
C565 C564 1.348 . S
C565 C566 1.442 . S
C565 H592 0.930 . S
C566 C565 1.442 . S
C566 C567 1.381 . S
C566 H593 0.931 . S
C567 C566 1.381 . S
C567 C568 1.321 . S
C568 C567 1.321 . S
C568 C569 1.403 . S
C568 H594 0.934 . S
C569 C564 1.413 . S
C569 C568 1.403 . S
C569 H595 0.930 . S
C570 O584 1.275 . S
C570 O585 1.256 . S
C571 O586 1.259 . S
C571 O587 1.268 . S
C572 Ho561 2.811 . S
C572 C573 1.488 . S
C572 O588 1.215 . S
C572 O589 1.289 . S
C573 C572 1.488 . S
C573 C574 1.348 . S
C573 C578 1.413 . S
C574 C573 1.348 . S
C574 C575 1.442 . S
C574 H596 0.930 . S
C575 C574 1.442 . S
C575 C576 1.381 1_556 S
C575 H597 0.931 1_556 S
C576 C575 1.381 1_554 S
C576 C577 1.321 1_554 S
C577 C576 1.321 1_556 S
C577 C578 1.403 . S
C577 H598 0.934 . S
C578 C573 1.413 . S
C578 C577 1.403 . S
C578 H599 0.930 . S
C579 O590 1.275 . S
C579 O591 1.256 . S
O580 Ho560 2.322 . S
O580 C562 1.259 . S
O581 Ho561 2.346 . S
O581 C562 1.268 . S
O582 Ho560 2.378 . S
O582 C563 1.215 . S
O583 Ho560 2.524 . S
O583 C563 1.289 . S
O584 Ho560 2.381 . S
O584 C570 1.275 . S
O585 Ho560 2.669 . S
O585 Ho561 2.305 . S
O585 C570 1.256 . S
O586 Ho561 2.322 . S
O586 C571 1.259 . S
O587 Ho560 2.346 . S
O587 C571 1.268 . S
O588 Ho561 2.378 . S
O588 C572 1.215 . S
O589 Ho561 2.524 . S
O589 C572 1.289 . S
O590 Ho561 2.381 . S
O590 C579 1.275 . S
O591 Ho560 2.305 . S
O591 Ho561 2.669 . S
O591 C579 1.256 . S
H592 C565 0.930 . S
H593 C566 0.931 . S
H594 C568 0.934 . S
H595 C569 0.930 . S
H596 C574 0.930 . S
H597 C575 0.931 1_554 S
H598 C577 0.934 . S
H599 C578 0.930 . S
Ho600 C603 2.811 . S
Ho600 O620 2.322 . S
Ho600 O622 2.378 . S
Ho600 O623 2.524 . S
Ho600 O624 2.381 . S
Ho600 O625 2.669 . S
Ho600 O627 2.346 . S
Ho600 O631 2.305 . S
Ho601 C612 2.811 . S
Ho601 O621 2.346 . S
Ho601 O625 2.305 . S
Ho601 O626 2.322 . S
Ho601 O628 2.378 . S
Ho601 O629 2.524 . S
Ho601 O630 2.381 . S
Ho601 O631 2.669 . S
C602 O620 1.259 . S
C602 O621 1.268 . S
C603 Ho600 2.811 . S
C603 C604 1.488 . S
C603 O622 1.215 . S
C603 O623 1.289 . S
C604 C603 1.488 . S
C604 C605 1.348 . S
C604 C609 1.413 . S
C605 C604 1.348 . S
C605 C606 1.442 . S
C605 H632 0.930 . S
C606 C605 1.442 . S
C606 C607 1.381 1_554 S
C606 H633 0.931 1_554 S
C607 C606 1.381 1_556 S
C607 C608 1.321 1_556 S
C608 C607 1.321 1_554 S
C608 C609 1.403 . S
C608 H634 0.934 . S
C609 C604 1.413 . S
C609 C608 1.403 . S
C609 H635 0.930 . S
C610 O624 1.275 . S
C610 O625 1.256 . S
C611 O626 1.259 . S
C611 O627 1.268 . S
C612 Ho601 2.811 . S
C612 C613 1.488 . S
C612 O628 1.215 . S
C612 O629 1.289 . S
C613 C612 1.488 . S
C613 C614 1.348 . S
C613 C618 1.413 . S
C614 C613 1.348 . S
C614 C615 1.442 . S
C614 H636 0.930 . S
C615 C614 1.442 . S
C615 C616 1.381 . S
C615 H637 0.931 . S
C616 C615 1.381 . S
C616 C617 1.321 . S
C617 C616 1.321 . S
C617 C618 1.403 . S
C617 H638 0.934 . S
C618 C613 1.413 . S
C618 C617 1.403 . S
C618 H639 0.930 . S
C619 O630 1.275 . S
C619 O631 1.256 . S
O620 Ho600 2.322 . S
O620 C602 1.259 . S
O621 Ho601 2.346 . S
O621 C602 1.268 . S
O622 Ho600 2.378 . S
O622 C603 1.215 . S
O623 Ho600 2.524 . S
O623 C603 1.289 . S
O624 Ho600 2.381 . S
O624 C610 1.275 . S
O625 Ho600 2.669 . S
O625 Ho601 2.305 . S
O625 C610 1.256 . S
O626 Ho601 2.322 . S
O626 C611 1.259 . S
O627 Ho600 2.346 . S
O627 C611 1.268 . S
O628 Ho601 2.378 . S
O628 C612 1.215 . S
O629 Ho601 2.524 . S
O629 C612 1.289 . S
O630 Ho601 2.381 . S
O630 C619 1.275 . S
O631 Ho600 2.305 . S
O631 Ho601 2.669 . S
O631 C619 1.256 . S
H632 C605 0.930 . S
H633 C606 0.931 1_556 S
H634 C608 0.934 . S
H635 C609 0.930 . S
H636 C614 0.930 . S
H637 C615 0.931 . S
H638 C617 0.934 . S
H639 C618 0.930 . S
C640 C641 1.369 . S
C640 C642 1.419 . S
C640 H644 0.930 . S
C641 C640 1.369 . S
C641 C650 1.429 . S
C642 C640 1.419 . S
C642 C643 1.363 . S
C642 H645 0.929 . S
C643 C642 1.363 . S
C643 C649 1.428 . S
H644 C640 0.930 . S
H645 C642 0.929 . S
S646 N647 1.613 1_545 S
S646 N648 1.610 . S
N647 S646 1.613 1_565 S
N647 C650 1.350 . S
N648 S646 1.610 . S
N648 C649 1.351 1_545 S
C649 C643 1.428 . S
C649 N648 1.351 1_565 S
C649 C650 1.434 . S
C650 C641 1.429 . S
C650 N647 1.350 . S
C650 C649 1.434 . S
C651 C652 1.369 . S
C651 C653 1.419 . S
C651 H655 0.930 . S
C652 C651 1.369 . S
C652 C661 1.429 . S
C653 C651 1.419 . S
C653 C654 1.363 . S
C653 H656 0.929 . S
C654 C653 1.363 . S
C654 C660 1.428 . S
H655 C651 0.930 . S
H656 C653 0.929 . S
S657 N658 1.613 . S
S657 N659 1.610 . S
N658 S657 1.613 . S
N658 C661 1.350 . S
N659 S657 1.610 . S
N659 C660 1.351 . S
C660 C654 1.428 . S
C660 N659 1.351 . S
C660 C661 1.434 . S
C661 C652 1.429 . S
C661 N658 1.350 . S
C661 C660 1.434 . S
C662 C663 1.369 . S
C662 C664 1.419 . S
C662 H666 0.930 . S
C663 C662 1.369 . S
C663 C672 1.429 . S
C664 C662 1.419 . S
C664 C665 1.363 . S
C664 H667 0.929 . S
C665 C664 1.363 . S
C665 C671 1.428 . S
H666 C662 0.930 . S
H667 C664 0.929 . S
S668 N669 1.613 . S
S668 N670 1.610 1_565 S
N669 S668 1.613 . S
N669 C672 1.350 1_565 S
N670 S668 1.610 1_545 S
N670 C671 1.351 . S
C671 C665 1.428 . S
C671 N670 1.351 . S
C671 C672 1.434 . S
C672 C663 1.429 . S
C672 N669 1.350 1_545 S
C672 C671 1.434 . S
C673 C674 1.369 . S
C673 C675 1.419 . S
C673 H677 0.930 . S
C674 C673 1.369 . S
C674 C683 1.429 . S
C675 C673 1.419 . S
C675 C676 1.363 . S
C675 H678 0.929 . S
C676 C675 1.363 . S
C676 C682 1.428 . S
H677 C673 0.930 . S
H678 C675 0.929 . S
S679 N680 1.613 . S
S679 N681 1.610 1_655 S
N680 S679 1.613 . S
N680 C683 1.350 1_655 S
N681 S679 1.610 1_455 S
N681 C682 1.351 . S
C682 C676 1.428 . S
C682 N681 1.351 . S
C682 C683 1.434 . S
C683 C674 1.429 . S
C683 N680 1.350 1_455 S
C683 C682 1.434 . S
C684 C685 1.369 . S
C684 C686 1.419 . S
C684 H688 0.930 . S
C685 C684 1.369 . S
C685 C694 1.429 . S
C686 C684 1.419 . S
C686 C687 1.363 . S
C686 H689 0.929 . S
C687 C686 1.363 . S
C687 C693 1.428 1_554 S
H688 C684 0.930 . S
H689 C686 0.929 . S
S690 N691 1.618 . S
S690 N692 1.610 . S
N691 S690 1.618 . S
N691 C694 1.348 1_556 S
N692 S690 1.610 . S
N692 C693 1.351 . S
C693 C687 1.428 1_556 S
C693 N692 1.351 . S
C693 C694 1.434 1_556 S
C694 C685 1.429 . S
C694 N691 1.348 1_554 S
C694 C693 1.434 1_554 S
C695 C696 1.369 1_554 S
C695 C697 1.419 1_554 S
C695 H699 0.930 . S
C696 C695 1.369 1_556 S
C696 C705 1.429 . S
C697 C695 1.419 1_556 S
C697 C698 1.363 . S
C697 H700 0.929 1_556 S
C698 C697 1.363 . S
C698 C704 1.428 . S
H699 C695 0.930 . S
H700 C697 0.929 1_554 S
S701 N702 1.613 . S
S701 N703 1.610 . S
N702 S701 1.613 . S
N702 C705 1.350 . S
N703 S701 1.610 . S
N703 C704 1.351 . S
C704 C698 1.428 . S
C704 N703 1.351 . S
C704 C705 1.434 . S
C705 C696 1.429 . S
C705 N702 1.350 . S
C705 C704 1.434 . S
C706 C707 1.369 . S
C706 C708 1.419 . S
C706 H710 0.930 . S
C707 C706 1.369 . S
C707 C716 1.429 . S
C708 C706 1.419 . S
C708 C709 1.363 . S
C708 H711 0.929 . S
C709 C708 1.363 . S
C709 C715 1.428 1_554 S
H710 C706 0.930 . S
H711 C708 0.929 . S
S712 N713 1.613 . S
S712 N714 1.610 . S
N713 S712 1.613 . S
N713 C716 1.350 1_556 S
N714 S712 1.610 . S
N714 C715 1.351 . S
C715 C709 1.428 1_556 S
C715 N714 1.351 . S
C715 C716 1.434 1_556 S
C716 C707 1.429 . S
C716 N713 1.350 1_554 S
C716 C715 1.434 1_554 S
C717 C718 1.369 . S
C717 C719 1.419 . S
C717 H721 0.930 . S
C718 C717 1.369 . S
C718 C727 1.429 1_556 S
C719 C717 1.419 . S
C719 C720 1.363 . S
C719 H722 0.929 . S
C720 C719 1.363 . S
C720 C726 1.428 . S
H721 C717 0.930 . S
H722 C719 0.929 . S
S723 N724 1.613 . S
S723 N725 1.610 . S
N724 S723 1.613 . S
N724 C727 1.350 . S
N725 S723 1.610 . S
N725 C726 1.351 1_554 S
C726 C720 1.428 . S
C726 N725 1.351 1_556 S
C726 C727 1.434 1_556 S
C727 C718 1.429 1_554 S
C727 N724 1.350 . S
C727 C726 1.434 1_554 S
C728 C729 1.369 . S
C728 C730 1.419 . S
C728 H732 0.930 . S
C729 C728 1.369 . S
C729 C738 1.429 . S
C730 C728 1.419 . S
C730 C731 1.363 . S
C730 H733 0.929 . S
C731 C730 1.363 . S
C731 C737 1.428 . S
H732 C728 0.930 . S
H733 C730 0.929 . S
S734 N735 1.613 . S
S734 N736 1.610 . S
N735 S734 1.613 . S
N735 C738 1.350 . S
N736 S734 1.610 . S
N736 C737 1.351 . S
C737 C731 1.428 . S
C737 N736 1.351 . S
C737 C738 1.434 . S
C738 C729 1.429 . S
C738 N735 1.350 . S
C738 C737 1.434 . S
C739 C740 1.369 . S
C739 C741 1.419 . S
C739 H743 0.930 . S
C740 C739 1.369 . S
C740 C749 1.429 . S
C741 C739 1.419 . S
C741 C742 1.363 . S
C741 H744 0.929 . S
C742 C741 1.363 . S
C742 C748 1.428 . S
H743 C739 0.930 . S
H744 C741 0.929 . S
S745 N746 1.613 . S
S745 N747 1.610 . S
N746 S745 1.613 . S
N746 C749 1.350 . S
N747 S745 1.610 . S
N747 C748 1.351 . S
C748 C742 1.428 . S
C748 N747 1.351 . S
C748 C749 1.434 . S
C749 C740 1.429 . S
C749 N746 1.350 . S
C749 C748 1.434 . S
C750 C751 1.369 . S
C750 C752 1.419 . S
C750 H754 0.930 . S
C751 C750 1.369 . S
C751 C760 1.429 . S
C752 C750 1.419 . S
C752 C753 1.363 . S
C752 H755 0.929 . S
C753 C752 1.363 . S
C753 C759 1.428 . S
H754 C750 0.930 . S
H755 C752 0.929 . S
S756 N757 1.613 . S
S756 N758 1.610 . S
N757 S756 1.613 . S
N757 C760 1.350 . S
N758 S756 1.610 . S
N758 C759 1.351 . S
C759 C753 1.428 . S
C759 N758 1.351 . S
C759 C760 1.434 . S
C760 C751 1.429 . S
C760 N757 1.350 . S
C760 C759 1.434 . S
C761 C762 1.369 . S
C761 C763 1.419 . S
C761 H765 0.930 . S
C762 C761 1.369 . S
C762 C771 1.429 . S
C763 C761 1.419 . S
C763 C764 1.363 . S
C763 H766 0.929 . S
C764 C763 1.363 . S
C764 C770 1.428 . S
H765 C761 0.930 . S
H766 C763 0.929 . S
S767 N768 1.613 . S
S767 N769 1.610 . S
N768 S767 1.613 . S
N768 C771 1.350 . S
N769 S767 1.610 . S
N769 C770 1.351 . S
C770 C764 1.428 . S
C770 N769 1.351 . S
C770 C771 1.434 . S
C771 C762 1.429 . S
C771 N768 1.350 . S
C771 C770 1.434 . S
C772 C773 1.369 . S
C772 C774 1.419 . S
C772 H776 0.930 1_545 S
C773 C772 1.369 . S
C773 C782 1.429 . S
C774 C772 1.419 . S
C774 C775 1.363 . S
C774 H777 0.929 . S
C775 C774 1.363 . S
C775 C781 1.428 . S
H776 C772 0.930 1_565 S
H777 C774 0.929 . S
S778 N779 1.613 . S
S778 N780 1.610 . S
N779 S778 1.613 . S
N779 C782 1.350 . S
N780 S778 1.610 . S
N780 C781 1.351 . S
C781 C775 1.428 . S
C781 N780 1.351 . S
C781 C782 1.434 . S
C782 C773 1.429 . S
C782 N779 1.350 . S
C782 C781 1.434 . S
C783 C784 1.369 . S
C783 C785 1.419 . S
C783 H787 0.930 . S
C784 C783 1.369 . S
C784 C793 1.429 . S
C785 C783 1.419 . S
C785 C786 1.363 . S
C785 H788 0.929 1_455 S
C786 C785 1.363 . S
C786 C792 1.428 . S
H787 C783 0.930 . S
H788 C785 0.929 1_655 S
S789 N790 1.613 . S
S789 N791 1.610 . S
N790 S789 1.613 . S
N790 C793 1.350 . S
N791 S789 1.610 . S
N791 C792 1.351 . S
C792 C786 1.428 . S
C792 N791 1.351 . S
C792 C793 1.434 . S
C793 C784 1.429 . S
C793 N790 1.350 . S
C793 C792 1.434 . S
C794 C795 1.369 . S
C794 C796 1.419 . S
C794 H798 0.930 . S
C795 C794 1.369 . S
C795 C804 1.429 . S
C796 C794 1.419 . S
C796 C797 1.363 . S
C796 H799 0.929 . S
C797 C796 1.363 . S
C797 C803 1.428 . S
H798 C794 0.930 . S
H799 C796 0.929 . S
S800 N801 1.613 . S
S800 N802 1.610 . S
N801 S800 1.613 . S
N801 C804 1.350 . S
N802 S800 1.610 . S
N802 C803 1.351 . S
C803 C797 1.428 . S
C803 N802 1.351 . S
C803 C804 1.434 . S
C804 C795 1.429 . S
C804 N801 1.350 . S
C804 C803 1.434 . S
C805 C806 1.369 . S
C805 C807 1.419 . S
C805 H809 0.930 1_655 S
C806 C805 1.369 . S
C806 C815 1.429 . S
C807 C805 1.419 . S
C807 C808 1.363 . S
C807 H810 0.929 . S
C808 C807 1.363 . S
C808 C814 1.428 . S
H809 C805 0.930 1_455 S
H810 C807 0.929 . S
S811 N812 1.613 . S
S811 N813 1.610 . S
N812 S811 1.613 . S
N812 C815 1.350 . S
N813 S811 1.610 . S
N813 C814 1.351 . S
C814 C808 1.428 . S
C814 N813 1.351 . S
C814 C815 1.434 . S
C815 C806 1.429 . S
C815 N812 1.350 . S
C815 C814 1.434 . S
C816 C817 1.369 . S
C816 C818 1.419 . S
C816 H820 0.930 . S
C817 C816 1.369 . S
C817 C826 1.429 . S
C818 C816 1.419 . S
C818 C819 1.363 . S
C818 H821 0.929 . S
C819 C818 1.363 . S
C819 C825 1.428 . S
H820 C816 0.930 . S
H821 C818 0.929 . S
S822 N823 1.613 1_556 S
S822 N824 1.610 1_556 S
N823 S822 1.613 1_554 S
N823 C826 1.350 . S
N824 S822 1.610 1_554 S
N824 C825 1.351 . S
C825 C819 1.428 . S
C825 N824 1.351 . S
C825 C826 1.434 . S
C826 C817 1.429 . S
C826 N823 1.350 . S
C826 C825 1.434 . S
C827 C828 1.369 . S
C827 C829 1.419 . S
C827 H831 0.930 . S
C828 C827 1.369 . S
C828 C837 1.429 . S
C829 C827 1.419 . S
C829 C830 1.363 . S
C829 H832 0.929 . S
C830 C829 1.363 . S
C830 C836 1.428 . S
H831 C827 0.930 . S
H832 C829 0.929 . S
S833 N834 1.613 . S
S833 N835 1.610 . S
N834 S833 1.613 . S
N834 C837 1.350 . S
N835 S833 1.610 . S
N835 C836 1.351 . S
C836 C830 1.428 . S
C836 N835 1.351 . S
C836 C837 1.434 . S
C837 C828 1.429 . S
C837 N834 1.350 . S
C837 C836 1.434 . S
C838 C839 1.369 . S
C838 C840 1.419 . S
C838 H842 0.930 . S
C839 C838 1.369 . S
C839 C848 1.429 . S
C840 C838 1.419 . S
C840 C841 1.363 . S
C840 H843 0.929 . S
C841 C840 1.363 . S
C841 C847 1.428 . S
H842 C838 0.930 . S
H843 C840 0.929 . S
S844 N845 1.613 . S
S844 N846 1.610 . S
N845 S844 1.613 . S
N845 C848 1.350 . S
N846 S844 1.610 . S
N846 C847 1.351 . S
C847 C841 1.428 . S
C847 N846 1.351 . S
C847 C848 1.434 . S
C848 C839 1.429 . S
C848 N845 1.350 . S
C848 C847 1.434 . S
C849 C850 1.369 . S
C849 C851 1.419 . S
C849 H853 0.930 . S
C850 C849 1.369 . S
C850 C859 1.429 . S
C851 C849 1.419 . S
C851 C852 1.363 . S
C851 H854 0.929 . S
C852 C851 1.363 . S
C852 C858 1.428 . S
H853 C849 0.930 . S
H854 C851 0.929 . S
S855 N856 1.613 . S
S855 N857 1.610 . S
N856 S855 1.613 . S
N856 C859 1.350 . S
N857 S855 1.610 . S
N857 C858 1.351 . S
C858 C852 1.428 . S
C858 N857 1.351 . S
C858 C859 1.434 . S
C859 C850 1.429 . S
C859 N856 1.350 . S
C859 C858 1.434 . S
C860 C861 1.369 . S
C860 C862 1.419 . S
C860 H864 0.930 . S
C861 C860 1.369 . S
C861 C870 1.429 . S
C862 C860 1.419 . S
C862 C863 1.363 . S
C862 H865 0.929 . S
C863 C862 1.363 . S
C863 C869 1.428 . S
H864 C860 0.930 . S
H865 C862 0.929 . S
S866 N867 1.613 . S
S866 N868 1.610 . S
N867 S866 1.613 . S
N867 C870 1.350 . S
N868 S866 1.610 . S
N868 C869 1.351 . S
C869 C863 1.428 . S
C869 N868 1.351 . S
C869 C870 1.434 . S
C870 C861 1.429 . S
C870 N867 1.350 . S
C870 C869 1.434 . S
C871 C872 1.369 . S
C871 C873 1.419 . S
C871 H875 0.930 . S
C872 C871 1.369 . S
C872 C881 1.429 . S
C873 C871 1.419 . S
C873 C874 1.363 . S
C873 H876 0.929 . S
C874 C873 1.363 . S
C874 C880 1.428 . S
H875 C871 0.930 . S
H876 C873 0.929 . S
S877 N878 1.613 . S
S877 N879 1.610 . S
N878 S877 1.613 . S
N878 C881 1.350 . S
N879 S877 1.610 . S
N879 C880 1.351 . S
C880 C874 1.428 . S
C880 N879 1.351 . S
C880 C881 1.434 . S
C881 C872 1.429 . S
C881 N878 1.350 . S
C881 C880 1.434 . S
C882 C883 1.369 . S
C882 C884 1.419 . S
C882 H886 0.930 . S
C883 C882 1.369 . S
C883 C892 1.429 . S
C884 C882 1.419 . S
C884 C885 1.363 . S
C884 H887 0.929 . S
C885 C884 1.363 . S
C885 C891 1.428 . S
H886 C882 0.930 . S
H887 C884 0.929 . S
S888 N889 1.613 . S
S888 N890 1.610 . S
N889 S888 1.613 . S
N889 C892 1.350 . S
N890 S888 1.610 . S
N890 C891 1.351 . S
C891 C885 1.428 . S
C891 N890 1.351 . S
C891 C892 1.434 . S
C892 C883 1.429 . S
C892 N889 1.350 . S
C892 C891 1.434 . S
C893 C894 1.369 . S
C893 C895 1.419 . S
C893 H897 0.930 . S
C894 C893 1.369 . S
C894 C903 1.429 . S
C895 C893 1.419 . S
C895 C896 1.363 . S
C895 H898 0.929 . S
C896 C895 1.363 . S
C896 C902 1.428 . S
H897 C893 0.930 . S
H898 C895 0.929 . S
S899 N900 1.613 . S
S899 N901 1.610 . S
N900 S899 1.613 . S
N900 C903 1.350 . S
N901 S899 1.610 . S
N901 C902 1.351 . S
C902 C896 1.428 . S
C902 N901 1.351 . S
C902 C903 1.434 . S
C903 C894 1.429 . S
C903 N900 1.350 . S
C903 C902 1.434 . S
C904 C905 1.369 . S
C904 C906 1.419 . S
C904 H908 0.930 . S
C905 C904 1.369 . S
C905 C914 1.429 . S
C906 C904 1.419 . S
C906 C907 1.363 . S
C906 H909 0.929 . S
C907 C906 1.363 . S
C907 C913 1.428 . S
H908 C904 0.930 . S
H909 C906 0.929 . S
S910 N911 1.613 . S
S910 N912 1.610 . S
N911 S910 1.613 . S
N911 C914 1.350 . S
N912 S910 1.610 . S
N912 C913 1.351 . S
C913 C907 1.428 . S
C913 N912 1.351 . S
C913 C914 1.434 . S
C914 C905 1.429 . S
C914 N911 1.350 . S
C914 C913 1.434 . S
C915 C916 1.369 . S
C915 C917 1.419 . S
C915 H919 0.930 . S
C916 C915 1.369 . S
C916 C925 1.429 . S
C917 C915 1.419 . S
C917 C918 1.363 . S
C917 H920 0.929 . S
C918 C917 1.363 . S
C918 C924 1.428 . S
H919 C915 0.930 . S
H920 C917 0.929 . S
S921 N922 1.613 . S
S921 N923 1.610 . S
N922 S921 1.613 . S
N922 C925 1.350 . S
N923 S921 1.610 . S
N923 C924 1.351 . S
C924 C918 1.428 . S
C924 N923 1.351 . S
C924 C925 1.434 . S
C925 C916 1.429 . S
C925 N922 1.350 . S
C925 C924 1.434 . S
C926 C927 1.369 . S
C926 C928 1.419 . S
C926 H930 0.930 . S
C927 C926 1.369 . S
C927 C936 1.429 . S
C928 C926 1.419 . S
C928 C929 1.363 . S
C928 H931 0.929 . S
C929 C928 1.363 . S
C929 C935 1.428 . S
H930 C926 0.930 . S
H931 C928 0.929 . S
S932 N933 1.613 1_545 S
S932 N934 1.610 1_545 S
N933 S932 1.613 1_565 S
N933 C936 1.350 . S
N934 S932 1.610 1_565 S
N934 C935 1.351 . S
C935 C929 1.428 . S
C935 N934 1.351 . S
C935 C936 1.434 . S
C936 C927 1.429 . S
C936 N933 1.350 . S
C936 C935 1.434 . S
C937 C938 1.369 . S
C937 C939 1.419 . S
C937 H941 0.930 . S
C938 C937 1.369 . S
C938 C947 1.429 . S
C939 C937 1.419 . S
C939 C940 1.363 . S
C939 H942 0.929 . S
C940 C939 1.363 . S
C940 C946 1.428 . S
H941 C937 0.930 . S
H942 C939 0.929 . S
S943 N944 1.613 1_455 S
S943 N945 1.610 1_455 S
N944 S943 1.613 1_655 S
N944 C947 1.350 . S
N945 S943 1.610 1_655 S
N945 C946 1.351 . S
C946 C940 1.428 . S
C946 N945 1.351 . S
C946 C947 1.434 . S
C947 C938 1.429 . S
C947 N944 1.350 . S
C947 C946 1.434 . S
C948 C949 1.369 . S
C948 C950 1.419 . S
C948 H952 0.930 . S
C949 C948 1.369 . S
C949 C958 1.429 . S
C950 C948 1.419 . S
C950 C951 1.363 . S
C950 H953 0.929 . S
C951 C950 1.363 . S
C951 C957 1.428 . S
H952 C948 0.930 . S
H953 C950 0.929 . S
S954 N955 1.613 . S
S954 N956 1.610 . S
N955 S954 1.613 . S
N955 C958 1.350 . S
N956 S954 1.610 . S
N956 C957 1.351 . S
C957 C951 1.428 . S
C957 N956 1.351 . S
C957 C958 1.434 . S
C958 C949 1.429 . S
C958 N955 1.350 . S
C958 C957 1.434 . S
C959 C960 1.369 . S
C959 C961 1.419 . S
C959 H963 0.930 . S
C960 C959 1.369 . S
C960 C969 1.429 . S
C961 C959 1.419 . S
C961 C962 1.363 . S
C961 H964 0.929 . S
C962 C961 1.363 . S
C962 C968 1.428 . S
H963 C959 0.930 . S
H964 C961 0.929 . S
S965 N966 1.613 . S
S965 N967 1.610 . S
N966 S965 1.613 . S
N966 C969 1.350 . S
N967 S965 1.610 . S
N967 C968 1.351 . S
C968 C962 1.428 . S
C968 N967 1.351 . S
C968 C969 1.434 . S
C969 C960 1.429 . S
C969 N966 1.350 . S
C969 C968 1.434 . S
C970 C971 1.369 . S
C970 C972 1.419 . S
C970 H974 0.930 . S
C971 C970 1.369 . S
C971 C980 1.429 . S
C972 C970 1.419 . S
C972 C973 1.363 . S
C972 H975 0.929 . S
C973 C972 1.363 . S
C973 C979 1.428 . S
H974 C970 0.930 . S
H975 C972 0.929 . S
S976 N977 1.613 . S
S976 N978 1.610 . S
N977 S976 1.613 . S
N977 C980 1.350 . S
N978 S976 1.610 . S
N978 C979 1.351 . S
C979 C973 1.428 . S
C979 N978 1.351 . S
C979 C980 1.434 . S
C980 C971 1.429 . S
C980 N977 1.350 . S
C980 C979 1.434 . S
C981 C982 1.369 . S
C981 C983 1.419 . S
C981 H985 0.930 . S
C982 C981 1.369 . S
C982 C991 1.429 . S
C983 C981 1.419 . S
C983 C984 1.363 . S
C983 H986 0.929 . S
C984 C983 1.363 . S
C984 C990 1.428 . S
H985 C981 0.930 . S
H986 C983 0.929 . S
S987 N988 1.613 . S
S987 N989 1.610 . S
N988 S987 1.613 . S
N988 C991 1.350 . S
N989 S987 1.610 . S
N989 C990 1.351 . S
C990 C984 1.428 . S
C990 N989 1.351 . S
C990 C991 1.434 . S
C991 C982 1.429 . S
C991 N988 1.350 . S
C991 C990 1.434 . S
C992 C993 1.369 . S
C992 C994 1.419 . S
C992 H996 0.930 . S
C993 C992 1.369 . S
C993 C1002 1.429 . S
C994 C992 1.419 . S
C994 C995 1.363 . S
C994 H997 0.929 . S
C995 C994 1.363 . S
C995 C1001 1.428 . S
H996 C992 0.930 . S
H997 C994 0.929 . S
S998 N999 1.613 . S
S998 N1000 1.610 . S
N999 S998 1.613 . S
N999 C1002 1.350 . S
N1000 S998 1.610 . S
N1000 C1001 1.351 . S
C1001 C995 1.428 . S
C1001 N1000 1.351 . S
C1001 C1002 1.434 . S
C1002 C993 1.429 . S
C1002 N999 1.350 . S
C1002 C1001 1.434 . S
C1003 C1004 1.369 . S
C1003 C1005 1.419 . S
C1003 H1007 0.930 . S
C1004 C1003 1.369 . S
C1004 C1013 1.429 . S
C1005 C1003 1.419 . S
C1005 C1006 1.363 . S
C1005 H1008 0.929 . S
C1006 C1005 1.363 . S
C1006 C1012 1.428 . S
H1007 C1003 0.930 . S
H1008 C1005 0.929 . S
S1009 N1010 1.613 . S
S1009 N1011 1.610 . S
N1010 S1009 1.613 . S
N1010 C1013 1.350 . S
N1011 S1009 1.610 . S
N1011 C1012 1.351 . S
C1012 C1006 1.428 . S
C1012 N1011 1.351 . S
C1012 C1013 1.434 . S
C1013 C1004 1.429 . S
C1013 N1010 1.350 . S
C1013 C1012 1.434 . S
C1014 C1015 1.369 . S
C1014 C1016 1.419 . S
C1014 H1018 0.930 . S
C1015 C1014 1.369 . S
C1015 C1024 1.429 . S
C1016 C1014 1.419 . S
C1016 C1017 1.363 . S
C1016 H1019 0.929 . S
C1017 C1016 1.363 . S
C1017 C1023 1.428 . S
H1018 C1014 0.930 . S
H1019 C1016 0.929 . S
S1020 N1021 1.613 . S
S1020 N1022 1.610 . S
N1021 S1020 1.613 . S
N1021 C1024 1.350 . S
N1022 S1020 1.610 . S
N1022 C1023 1.351 . S
C1023 C1017 1.428 . S
C1023 N1022 1.351 . S
C1023 C1024 1.434 . S
C1024 C1015 1.429 . S
C1024 N1021 1.350 . S
C1024 C1023 1.434 . S
C1025 C1026 1.369 . S
C1025 C1027 1.419 . S
C1025 H1029 0.930 . S
C1026 C1025 1.369 . S
C1026 C1035 1.429 . S
C1027 C1025 1.419 . S
C1027 C1028 1.363 . S
C1027 H1030 0.929 . S
C1028 C1027 1.363 . S
C1028 C1034 1.428 . S
H1029 C1025 0.930 . S
H1030 C1027 0.929 . S
S1031 N1032 1.613 . S
S1031 N1033 1.610 . S
N1032 S1031 1.613 . S
N1032 C1035 1.350 . S
N1033 S1031 1.610 . S
N1033 C1034 1.351 . S
C1034 C1028 1.428 . S
C1034 N1033 1.351 . S
C1034 C1035 1.434 . S
C1035 C1026 1.429 . S
C1035 N1032 1.350 . S
C1035 C1034 1.434 . S
C1036 C1037 1.369 . S
C1036 C1038 1.419 . S
C1036 H1040 0.930 . S
C1037 C1036 1.369 . S
C1037 C1046 1.429 . S
C1038 C1036 1.419 . S
C1038 C1039 1.363 . S
C1038 H1041 0.929 . S
C1039 C1038 1.363 . S
C1039 C1045 1.428 . S
H1040 C1036 0.930 . S
H1041 C1038 0.929 . S
S1042 N1043 1.613 . S
S1042 N1044 1.610 . S
N1043 S1042 1.613 . S
N1043 C1046 1.350 . S
N1044 S1042 1.610 . S
N1044 C1045 1.351 . S
C1045 C1039 1.428 . S
C1045 N1044 1.351 . S
C1045 C1046 1.434 . S
C1046 C1037 1.429 . S
C1046 N1043 1.350 . S
C1046 C1045 1.434 . S
C1047 C1048 1.369 . S
C1047 C1049 1.419 . S
C1047 H1051 0.930 . S
C1048 C1047 1.369 . S
C1048 C1057 1.429 . S
C1049 C1047 1.419 . S
C1049 C1050 1.363 . S
C1049 H1052 0.929 . S
C1050 C1049 1.363 . S
C1050 C1056 1.428 . S
H1051 C1047 0.930 . S
H1052 C1049 0.929 . S
S1053 N1054 1.613 . S
S1053 N1055 1.610 . S
N1054 S1053 1.613 . S
N1054 C1057 1.350 . S
N1055 S1053 1.610 . S
N1055 C1056 1.351 . S
C1056 C1050 1.428 . S
C1056 N1055 1.351 . S
C1056 C1057 1.434 . S
C1057 C1048 1.429 . S
C1057 N1054 1.350 . S
C1057 C1056 1.434 . S
C1058 C1059 1.369 . S
C1058 C1060 1.419 . S
C1058 H1062 0.930 . S
C1059 C1058 1.369 . S
C1059 C1068 1.429 . S
C1060 C1058 1.419 . S
C1060 C1061 1.363 . S
C1060 H1063 0.929 . S
C1061 C1060 1.363 . S
C1061 C1067 1.428 . S
H1062 C1058 0.930 . S
H1063 C1060 0.929 . S
S1064 N1065 1.613 . S
S1064 N1066 1.610 . S
N1065 S1064 1.613 . S
N1065 C1068 1.350 . S
N1066 S1064 1.610 . S
N1066 C1067 1.351 . S
C1067 C1061 1.428 . S
C1067 N1066 1.351 . S
C1067 C1068 1.434 . S
C1068 C1059 1.429 . S
C1068 N1065 1.350 . S
C1068 C1067 1.434 . S
C1069 C1070 1.369 . S
C1069 C1071 1.419 . S
C1069 H1073 0.930 . S
C1070 C1069 1.369 . S
C1070 C1079 1.429 . S
C1071 C1069 1.419 . S
C1071 C1072 1.363 . S
C1071 H1074 0.929 . S
C1072 C1071 1.363 . S
C1072 C1078 1.428 . S
H1073 C1069 0.930 . S
H1074 C1071 0.929 . S
S1075 N1076 1.613 . S
S1075 N1077 1.610 . S
N1076 S1075 1.613 . S
N1076 C1079 1.350 . S
N1077 S1075 1.610 . S
N1077 C1078 1.351 . S
C1078 C1072 1.428 . S
C1078 N1077 1.351 . S
C1078 C1079 1.434 . S
C1079 C1070 1.429 . S
C1079 N1076 1.350 . S
C1079 C1078 1.434 . S
C1080 C1081 1.369 . S
C1080 C1082 1.419 . S
C1080 H1084 0.930 . S
C1081 C1080 1.369 . S
C1081 C1090 1.429 . S
C1082 C1080 1.419 . S
C1082 C1083 1.363 . S
C1082 H1085 0.929 . S
C1083 C1082 1.363 . S
C1083 C1089 1.428 . S
H1084 C1080 0.930 . S
H1085 C1082 0.929 . S
S1086 N1087 1.613 . S
S1086 N1088 1.610 . S
N1087 S1086 1.613 . S
N1087 C1090 1.350 . S
N1088 S1086 1.610 . S
N1088 C1089 1.351 . S
C1089 C1083 1.428 . S
C1089 N1088 1.351 . S
C1089 C1090 1.434 . S
C1090 C1081 1.429 . S
C1090 N1087 1.350 . S
C1090 C1089 1.434 . S
C1091 C1092 1.369 . S
C1091 C1093 1.419 . S
C1091 H1095 0.930 . S
C1092 C1091 1.369 . S
C1092 C1101 1.429 . S
C1093 C1091 1.419 . S
C1093 C1094 1.363 . S
C1093 H1096 0.929 . S
C1094 C1093 1.363 . S
C1094 C1100 1.428 . S
H1095 C1091 0.930 . S
H1096 C1093 0.929 . S
S1097 N1098 1.613 . S
S1097 N1099 1.610 . S
N1098 S1097 1.613 . S
N1098 C1101 1.350 . S
N1099 S1097 1.610 . S
N1099 C1100 1.351 . S
C1100 C1094 1.428 . S
C1100 N1099 1.351 . S
C1100 C1101 1.434 . S
C1101 C1092 1.429 . S
C1101 N1098 1.350 . S
C1101 C1100 1.434 . S
C1102 C1103 1.369 . S
C1102 C1104 1.419 . S
C1102 H1106 0.930 . S
C1103 C1102 1.369 . S
C1103 C1112 1.429 . S
C1104 C1102 1.419 . S
C1104 C1105 1.363 . S
C1104 H1107 0.929 . S
C1105 C1104 1.363 . S
C1105 C1111 1.428 . S
H1106 C1102 0.930 . S
H1107 C1104 0.929 . S
S1108 N1109 1.613 . S
S1108 N1110 1.610 . S
N1109 S1108 1.613 . S
N1109 C1112 1.350 . S
N1110 S1108 1.610 . S
N1110 C1111 1.351 . S
C1111 C1105 1.428 . S
C1111 N1110 1.351 . S
C1111 C1112 1.434 . S
C1112 C1103 1.429 . S
C1112 N1109 1.350 . S
C1112 C1111 1.434 . S
C1113 C1114 1.369 . S
C1113 C1115 1.419 . S
C1113 H1117 0.930 . S
C1114 C1113 1.369 . S
C1114 C1123 1.429 . S
C1115 C1113 1.419 . S
C1115 C1116 1.363 . S
C1115 H1118 0.929 . S
C1116 C1115 1.363 . S
C1116 C1122 1.428 . S
H1117 C1113 0.930 . S
H1118 C1115 0.929 . S
S1119 N1120 1.613 . S
S1119 N1121 1.610 . S
N1120 S1119 1.613 . S
N1120 C1123 1.350 . S
N1121 S1119 1.610 . S
N1121 C1122 1.351 . S
C1122 C1116 1.428 . S
C1122 N1121 1.351 . S
C1122 C1123 1.434 . S
C1123 C1114 1.429 . S
C1123 N1120 1.350 . S
C1123 C1122 1.434 . S
C1124 C1125 1.369 . S
C1124 C1126 1.419 . S
C1124 H1128 0.930 . S
C1125 C1124 1.369 . S
C1125 C1134 1.429 . S
C1126 C1124 1.419 . S
C1126 C1127 1.363 . S
C1126 H1129 0.929 . S
C1127 C1126 1.363 . S
C1127 C1133 1.428 . S
H1128 C1124 0.930 . S
H1129 C1126 0.929 . S
S1130 N1131 1.613 . S
S1130 N1132 1.610 . S
N1131 S1130 1.613 . S
N1131 C1134 1.350 . S
N1132 S1130 1.610 . S
N1132 C1133 1.351 . S
C1133 C1127 1.428 . S
C1133 N1132 1.351 . S
C1133 C1134 1.434 . S
C1134 C1125 1.429 . S
C1134 N1131 1.350 . S
C1134 C1133 1.434 . S
C1135 C1136 1.369 . S
C1135 C1137 1.419 . S
C1135 H1139 0.930 . S
C1136 C1135 1.369 . S
C1136 C1145 1.429 . S
C1137 C1135 1.419 . S
C1137 C1138 1.363 . S
C1137 H1140 0.929 . S
C1138 C1137 1.363 . S
C1138 C1144 1.428 . S
H1139 C1135 0.930 . S
H1140 C1137 0.929 . S
S1141 N1142 1.613 . S
S1141 N1143 1.610 . S
N1142 S1141 1.613 . S
N1142 C1145 1.350 . S
N1143 S1141 1.610 . S
N1143 C1144 1.351 . S
C1144 C1138 1.428 . S
C1144 N1143 1.351 . S
C1144 C1145 1.434 . S
C1145 C1136 1.429 . S
C1145 N1142 1.350 . S
C1145 C1144 1.434 . S
C1146 C1147 1.369 . S
C1146 C1148 1.419 . S
C1146 H1150 0.930 . S
C1147 C1146 1.369 . S
C1147 C1156 1.429 . S
C1148 C1146 1.419 . S
C1148 C1149 1.363 . S
C1148 H1151 0.929 . S
C1149 C1148 1.363 . S
C1149 C1155 1.428 . S
H1150 C1146 0.930 . S
H1151 C1148 0.929 . S
S1152 N1153 1.613 . S
S1152 N1154 1.610 . S
N1153 S1152 1.613 . S
N1153 C1156 1.350 . S
N1154 S1152 1.610 . S
N1154 C1155 1.351 . S
C1155 C1149 1.428 . S
C1155 N1154 1.351 . S
C1155 C1156 1.434 . S
C1156 C1147 1.429 . S
C1156 N1153 1.350 . S
C1156 C1155 1.434 . S
C1157 C1158 1.369 . S
C1157 C1159 1.419 . S
C1157 H1161 0.930 . S
C1158 C1157 1.369 . S
C1158 C1167 1.429 . S
C1159 C1157 1.419 . S
C1159 C1160 1.363 . S
C1159 H1162 0.929 . S
C1160 C1159 1.363 . S
C1160 C1166 1.428 . S
H1161 C1157 0.930 . S
H1162 C1159 0.929 . S
S1163 N1164 1.613 . S
S1163 N1165 1.610 . S
N1164 S1163 1.613 . S
N1164 C1167 1.350 . S
N1165 S1163 1.610 . S
N1165 C1166 1.351 . S
C1166 C1160 1.428 . S
C1166 N1165 1.351 . S
C1166 C1167 1.434 . S
C1167 C1158 1.429 . S
C1167 N1164 1.350 . S
C1167 C1166 1.434 . S
C641 C451 1.760 . S
C643 C19 1.753 1_565 S
C652 C322 1.764 . S
C654 C50 1.752 1_655 S
C663 C99 1.752 1_545 S
C665 C371 1.761 . S
C674 C130 1.754 1_455 S
C676 C402 1.760 . S
C685 C179 1.755 . S
C687 C211 1.759 1_554 S
C696 C242 1.763 1_556 S
C698 C210 1.754 . S
C707 C259 1.752 . S
C709 C291 1.760 1_554 S
C718 C162 1.761 1_556 S
C720 C290 1.752 . S
C729 C131 1.765 . S
C731 C339 1.752 . S
C740 C370 1.750 . S
C742 C2 1.764 . S
C751 C51 1.760 . S
C753 C419 1.756 . S
C762 C82 1.758 . S
C764 C450 1.756 . S
C773 C499 1.753 1_545 S
C775 C531 1.763 . S
C784 C562 1.759 . S
C786 C530 1.756 1_455 S
C795 C611 1.764 . S
C797 C579 1.751 1_565 S
C806 C610 1.751 1_655 S
C808 C482 1.764 . S
C817 C10 1.233 . S
C819 C170 1.224 . S
C828 C219 1.226 . S
C830 C59 1.230 . S
C839 C90 1.228 . S
C841 C250 1.224 . S
C850 C139 1.233 . S
C852 C299 1.224 . S
C861 C330 1.234 . S
C863 C490 1.222 . S
C872 C539 1.229 . S
C874 C379 1.222 . S
C883 C410 1.233 . S
C885 C570 1.221 . S
C894 C459 1.234 . S
C896 C619 1.223 . S
C905 C571 2.526 . S
C907 C11 2.520 1_556 S
C916 C42 2.519 1_554 S
C918 C602 2.525 . S
C927 C91 2.522 1_556 S
C929 C491 2.523 . S
C938 C122 2.523 1_554 S
C940 C522 2.522 . S
C949 C171 2.524 . S
C951 C411 2.523 . S
C960 C202 2.519 . S
C962 C442 2.525 . S
C971 C251 2.522 . S
C973 C331 2.522 . S
C982 C362 2.520 . S
C984 C282 2.525 . S
C993 C7 1.251 . S
C995 C16 1.242 . S
C1004 C56 1.243 . S
C1006 C47 1.249 . S
C1015 C87 1.251 . S
C1017 C96 1.242 . S
C1026 C127 1.244 . S
C1028 C136 1.247 . S
C1037 C176 1.251 . S
C1039 C167 1.242 . S
C1048 C216 1.241 . S
C1050 C207 1.250 . S
C1059 C247 1.249 . S
C1061 C256 1.244 . S
C1070 C287 1.246 . S
C1072 C296 1.247 . S
C1081 C327 1.245 . S
C1083 C336 1.246 . S
C1092 C367 1.243 . S
C1094 C376 1.249 . S
C1103 C416 1.248 . S
C1105 C407 1.245 . S
C1114 C456 1.252 . S
C1116 C447 1.242 . S
C1125 C487 1.250 . S
C1127 C496 1.243 . S
C1136 C527 1.242 . S
C1138 C536 1.250 . S
C1147 C576 1.246 . S
C1149 C567 1.247 . S
C1158 C616 1.246 . S
C1160 C607 1.246 . S
