# Generated by pormake.
# Topology sne, (6)-cn, num edge types: 1
# Building blocks:
#     Node 0, Type 0, BuildingBlock: KUMJIN_clean_sbu_1, # of connection points: 6
#     Node 1, Type 0, BuildingBlock: KUMJIN_clean_sbu_1, # of connection points: 6
#     Node 2, Type 0, BuildingBlock: KUMJIN_clean_sbu_1, # of connection points: 6
#     Node 3, Type 0, BuildingBlock: KUMJIN_clean_sbu_1, # of connection points: 6
#     Node 4, Type 0, BuildingBlock: KUMJIN_clean_sbu_1, # of connection points: 6
#     Node 5, Type 0, BuildingBlock: KUMJIN_clean_sbu_1, # of connection points: 6
#     Node 6, Type 0, BuildingBlock: KUMJIN_clean_sbu_1, # of connection points: 6
#     Node 7, Type 0, BuildingBlock: KUMJIN_clean_sbu_1, # of connection points: 6
#     Edge 8, Type (0, 0), BuildingBlock: TEMPAE_clean_linker_10, # of connection points: 2
#     Edge 9, Type (0, 0), BuildingBlock: TEMPAE_clean_linker_10, # of connection points: 2
#     Edge 10, Type (0, 0), BuildingBlock: TEMPAE_clean_linker_10, # of connection points: 2
#     Edge 11, Type (0, 0), BuildingBlock: TEMPAE_clean_linker_10, # of connection points: 2
#     Edge 12, Type (0, 0), BuildingBlock: TEMPAE_clean_linker_10, # of connection points: 2
#     Edge 13, Type (0, 0), BuildingBlock: TEMPAE_clean_linker_10, # of connection points: 2
#     Edge 14, Type (0, 0), BuildingBlock: TEMPAE_clean_linker_10, # of connection points: 2
#     Edge 15, Type (0, 0), BuildingBlock: TEMPAE_clean_linker_10, # of connection points: 2
#     Edge 16, Type (0, 0), BuildingBlock: TEMPAE_clean_linker_10, # of connection points: 2
#     Edge 17, Type (0, 0), BuildingBlock: TEMPAE_clean_linker_10, # of connection points: 2
#     Edge 18, Type (0, 0), BuildingBlock: TEMPAE_clean_linker_10, # of connection points: 2
#     Edge 19, Type (0, 0), BuildingBlock: TEMPAE_clean_linker_10, # of connection points: 2
#     Edge 20, Type (0, 0), BuildingBlock: TEMPAE_clean_linker_10, # of connection points: 2
#     Edge 21, Type (0, 0), BuildingBlock: TEMPAE_clean_linker_10, # of connection points: 2
#     Edge 22, Type (0, 0), BuildingBlock: TEMPAE_clean_linker_10, # of connection points: 2
#     Edge 23, Type (0, 0), BuildingBlock: TEMPAE_clean_linker_10, # of connection points: 2
#     Edge 24, Type (0, 0), BuildingBlock: TEMPAE_clean_linker_10, # of connection points: 2
#     Edge 25, Type (0, 0), BuildingBlock: TEMPAE_clean_linker_10, # of connection points: 2
#     Edge 26, Type (0, 0), BuildingBlock: TEMPAE_clean_linker_10, # of connection points: 2
#     Edge 27, Type (0, 0), BuildingBlock: TEMPAE_clean_linker_10, # of connection points: 2
#     Edge 28, Type (0, 0), BuildingBlock: TEMPAE_clean_linker_10, # of connection points: 2
#     Edge 29, Type (0, 0), BuildingBlock: TEMPAE_clean_linker_10, # of connection points: 2
#     Edge 30, Type (0, 0), BuildingBlock: TEMPAE_clean_linker_10, # of connection points: 2
#     Edge 31, Type (0, 0), BuildingBlock: TEMPAE_clean_linker_10, # of connection points: 2
# Relax obj value: 0.230
# Max RMSD: 0.299
# Mean RMSD: 0.298
data_MOF--net-sne--node1-KUMJIN_clean_sbu_1--edge1-TEMPAE_clean_linker_10
_symmetry_space_group_name_H-M    P1
_symmetry_Int_Tables_number       1
_symmetry_cell_setting            triclinic
loop_
_symmetry_equiv_pos_as_xyz
'x, y, z'
_cell_length_a     43.290601
_cell_length_b     43.033322
_cell_length_c     28.283598
_cell_angle_alpha  90.094396
_cell_angle_beta   90.292657
_cell_angle_gamma 90.493019
loop_
_atom_site_label
_atom_site_type_symbol
_atom_site_fract_x
_atom_site_fract_y
_atom_site_fract_z
_atom_type_partial_charge
Eu0 Eu 0.30131 0.18338 0.41955 0.0
C1 C 0.16612 0.1564 0.30925 0.0
N2 N 0.18256 0.18218 0.32223 0.0
C3 C 0.1725 0.20522 0.24671 0.0
C4 C 0.15388 0.1533 0.2632 0.0
C5 C 0.18396 0.20718 0.29293 0.0
C6 C 0.158 0.17787 0.23137 0.0
C7 C 0.1429 0.10699 0.33128 0.0
C8 C 0.16029 0.13375 0.34305 0.0
C9 C 0.13166 0.10324 0.28491 0.0
C10 C 0.13709 0.12635 0.25098 0.0
Eu11 Eu 0.20173 0.18368 0.40078 0.0
N12 N 0.17208 0.13785 0.38739 0.0
C13 C 0.13719 0.08495 0.36659 0.0
C14 C 0.16546 0.1171 0.42238 0.0
C15 C 0.14821 0.09022 0.41244 0.0
H16 H 0.19265 0.22902 0.30596 0.0
H17 H 0.14338 0.07361 0.44017 0.0
H18 H 0.31266 0.13193 0.50866 0.0
H19 H 0.3323 0.30577 0.40629 0.0
H20 H 0.17342 0.12124 0.4581 0.0
H21 H 0.12392 0.06405 0.359 0.0
H22 H 0.30862 0.25598 0.37979 0.0
H23 H 0.17419 0.22507 0.22342 0.0
H24 H 0.11837 0.08275 0.27511 0.0
H25 H 0.12771 0.12343 0.21565 0.0
H26 H 0.33583 0.13175 0.5881 0.0
H27 H 0.14888 0.17649 0.19568 0.0
H28 H 0.35843 0.30896 0.48423 0.0
N29 N 0.32138 0.18015 0.49698 0.0
C30 C 0.33543 0.20646 0.51337 0.0
C31 C 0.33556 0.153 0.56768 0.0
C32 C 0.34953 0.20715 0.55843 0.0
C33 C 0.32196 0.15336 0.52277 0.0
C34 C 0.34925 0.18004 0.58574 0.0
N35 N 0.32087 0.23203 0.44251 0.0
C36 C 0.31982 0.25744 0.41395 0.0
C37 C 0.34939 0.26074 0.5016 0.0
C38 C 0.33554 0.23299 0.48515 0.0
C39 C 0.34813 0.28716 0.47279 0.0
C40 C 0.33329 0.28549 0.42879 0.0
H41 H 0.35987 0.17963 0.6205 0.0
H42 H 0.37445 0.23567 0.6093 0.0
H43 H 0.37423 0.28255 0.55971 0.0
O44 O 0.34031 0.1888 0.36982 0.0
O45 O 0.27399 0.21806 0.46477 0.0
O46 O 0.22418 0.19762 0.47255 0.0
O47 O 0.33659 0.14771 0.41518 0.0
O48 O 0.28332 0.20285 0.34905 0.0
O49 O 0.2341 0.22128 0.36604 0.0
O50 O 0.16177 0.18494 0.4474 0.0
O51 O 0.22026 0.14412 0.35547 0.0
O52 O 0.26062 0.16427 0.38431 0.0
O53 O 0.16825 0.22188 0.39738 0.0
O54 O 0.22206 0.15262 0.45913 0.0
O55 O 0.27504 0.14131 0.44891 0.0
C56 C 0.24865 0.21287 0.48983 0.0
C57 C 0.38065 0.14919 0.36254 0.0
C58 C 0.43248 0.15445 0.32877 0.0
C59 C 0.43355 0.12195 0.32381 0.0
C60 C 0.38261 0.11684 0.35754 0.0
C61 C 0.40882 0.10335 0.33817 0.0
C62 C 0.40579 0.16807 0.34826 0.0
C63 C 0.25768 0.21749 0.33614 0.0
C64 C 0.35234 0.16253 0.38308 0.0
C65 C 0.36356 0.23472 0.57474 0.0
C66 C 0.36351 0.26141 0.54642 0.0
C67 C 0.24977 0.1421 0.35756 0.0
C68 C 0.11653 0.20608 0.41615 0.0
C69 C 0.06255 0.20258 0.44149 0.0
C70 C 0.05441 0.19142 0.39635 0.0
C71 C 0.10743 0.19619 0.37086 0.0
C72 C 0.09383 0.2097 0.45134 0.0
C73 C 0.07669 0.1885 0.36126 0.0
C74 C 0.24673 0.13474 0.4641 0.0
C75 C 0.14968 0.20938 0.42836 0.0
H76 H 0.45383 0.11085 0.30943 0.0
H77 H 0.36371 0.10195 0.36839 0.0
H78 H 0.41001 0.07835 0.33442 0.0
H79 H 0.40462 0.19308 0.3523 0.0
H80 H 0.03059 0.18579 0.38778 0.0
H81 H 0.12402 0.19418 0.3429 0.0
H82 H 0.10054 0.21744 0.48644 0.0
H83 H 0.07008 0.18039 0.32637 0.0
Eu84 Eu 0.17923 0.79418 0.67221 0.0
C85 C 0.2051 0.67179 0.56192 0.0
N86 N 0.17922 0.68606 0.57837 0.0
C87 C 0.15317 0.67584 0.50474 0.0
C88 C 0.20594 0.65958 0.51556 0.0
C89 C 0.15307 0.68708 0.55109 0.0
C90 C 0.17974 0.66223 0.48677 0.0
C91 C 0.25815 0.65502 0.57469 0.0
C92 C 0.23114 0.66939 0.59131 0.0
C93 C 0.25863 0.64245 0.52887 0.0
C94 C 0.2327 0.64484 0.49938 0.0
Eu95 Eu 0.18216 0.69962 0.65939 0.0
N96 N 0.23062 0.68251 0.63517 0.0
C97 C 0.28419 0.65432 0.6043 0.0
C98 C 0.25569 0.68172 0.66443 0.0
C99 C 0.28298 0.66782 0.64925 0.0
H100 H 0.13154 0.69531 0.56484 0.0
H101 H 0.30297 0.66725 0.67235 0.0
H102 H 0.23114 0.81695 0.75382 0.0
H103 H 0.06084 0.83504 0.65411 0.0
H104 H 0.25438 0.69147 0.6996 0.0
H105 H 0.30539 0.64359 0.59268 0.0
H106 H 0.11041 0.81351 0.62679 0.0
H107 H 0.13244 0.67699 0.48326 0.0
H108 H 0.27918 0.63129 0.51556 0.0
H109 H 0.23362 0.63532 0.46393 0.0
H110 H 0.23212 0.83728 0.83563 0.0
H111 H 0.17956 0.65323 0.45095 0.0
H112 H 0.05513 0.85215 0.73698 0.0
N113 N 0.18229 0.81495 0.74966 0.0
C114 C 0.15558 0.82585 0.76823 0.0
C115 C 0.21031 0.83333 0.81767 0.0
C116 C 0.15494 0.83889 0.81402 0.0
C117 C 0.20969 0.8209 0.77195 0.0
C118 C 0.18267 0.84151 0.8394 0.0
N119 N 0.13173 0.81654 0.69434 0.0
C120 C 0.10781 0.82014 0.6633 0.0
C121 C 0.10198 0.84008 0.75638 0.0
C122 C 0.1296 0.82707 0.73952 0.0
C123 C 0.07679 0.84235 0.72539 0.0
C124 C 0.07988 0.83268 0.67851 0.0
H125 H 0.18323 0.85154 0.87456 0.0
H126 H 0.12611 0.86037 0.86708 0.0
H127 H 0.07956 0.86095 0.8168 0.0
O128 O 0.17077 0.83573 0.6305 0.0
O129 O 0.13944 0.76807 0.70665 0.0
O130 O 0.15853 0.71944 0.72455 0.0
O131 O 0.21541 0.82987 0.66305 0.0
O132 O 0.15397 0.77 0.61129 0.0
O133 O 0.13692 0.72206 0.63683 0.0
O134 O 0.19383 0.65624 0.69615 0.0
O135 O 0.2183 0.72951 0.6193 0.0
O136 O 0.19313 0.7743 0.60109 0.0
O137 O 0.15272 0.65845 0.65284 0.0
O138 O 0.20126 0.7181 0.72917 0.0
O139 O 0.21836 0.76794 0.71233 0.0
C140 C 0.13736 0.74109 0.72831 0.0
C141 C 0.19713 0.88144 0.65058 0.0
C142 C 0.19679 0.9356 0.62463 0.0
C143 C 0.18933 0.94467 0.67094 0.0
C144 C 0.18983 0.89111 0.69651 0.0
C145 C 0.18603 0.92256 0.70659 0.0
C146 C 0.20085 0.9038 0.61471 0.0
C147 C 0.1323 0.74853 0.61465 0.0
C148 C 0.19768 0.84819 0.63839 0.0
C149 C 0.12711 0.85061 0.8318 0.0
C150 C 0.10065 0.85109 0.80308 0.0
C151 C 0.21222 0.75213 0.58929 0.0
C152 C 0.15358 0.61965 0.71305 0.0
C153 C 0.15297 0.5696 0.7544 0.0
C154 C 0.12155 0.57391 0.76449 0.0
C155 C 0.12223 0.6235 0.72406 0.0
C156 C 0.16898 0.5928 0.72899 0.0
C157 C 0.10641 0.60069 0.74956 0.0
C158 C 0.2158 0.74394 0.74183 0.0
C159 C 0.16959 0.64132 0.6806 0.0
H160 H 0.18648 0.96899 0.67975 0.0
H161 H 0.18659 0.87444 0.72444 0.0
H162 H 0.18032 0.92981 0.74213 0.0
H163 H 0.20606 0.89643 0.57897 0.0
H164 H 0.10865 0.55641 0.7838 0.0
H165 H 0.10975 0.64373 0.71198 0.0
H166 H 0.19298 0.58931 0.71978 0.0
H167 H 0.0821 0.60344 0.75702 0.0
Eu168 Eu 0.70036 0.8251 0.41984 0.0
C169 C 0.8192 0.84307 0.30383 0.0
N170 N 0.80883 0.8162 0.32362 0.0
C171 C 0.82027 0.78881 0.25186 0.0
C172 C 0.82819 0.84425 0.25595 0.0
C173 C 0.81209 0.78889 0.29967 0.0
C174 C 0.82722 0.81682 0.22938 0.0
C175 C 0.84071 0.89469 0.31602 0.0
C176 C 0.82544 0.86801 0.33333 0.0
C177 C 0.84676 0.89718 0.26745 0.0
C178 C 0.84043 0.87198 0.23738 0.0
Eu179 Eu 0.79306 0.81919 0.40417 0.0
N180 N 0.82006 0.86445 0.38027 0.0
C181 C 0.85144 0.91693 0.34849 0.0
C182 C 0.83286 0.88458 0.41224 0.0
C183 C 0.8484 0.91131 0.39688 0.0
H184 H 0.80874 0.76703 0.31764 0.0
H185 H 0.858 0.92754 0.42237 0.0
H186 H 0.67964 0.87169 0.50728 0.0
H187 H 0.6953 0.69736 0.40589 0.0
H188 H 0.83063 0.88028 0.4497 0.0
H189 H 0.86358 0.93761 0.33671 0.0
H190 H 0.70673 0.74978 0.37808 0.0
H191 H 0.82189 0.7671 0.23273 0.0
H192 H 0.85798 0.91773 0.25329 0.0
H193 H 0.84696 0.87346 0.20051 0.0
H194 H 0.65344 0.86769 0.58463 0.0
H195 H 0.83412 0.81665 0.19261 0.0
H196 H 0.67108 0.68936 0.48383 0.0
N197 N 0.6793 0.82293 0.49553 0.0
C198 C 0.67078 0.79436 0.51118 0.0
C199 C 0.65827 0.84691 0.56445 0.0
C200 C 0.65593 0.791 0.55518 0.0
C201 C 0.6732 0.84911 0.52091 0.0
C202 C 0.64954 0.81773 0.58165 0.0
N203 N 0.69189 0.7723 0.44098 0.0
C204 C 0.69757 0.7472 0.41288 0.0
C205 C 0.66985 0.73844 0.50037 0.0
C206 C 0.67769 0.76838 0.4837 0.0
C207 C 0.67674 0.71271 0.47225 0.0
C208 C 0.69052 0.71714 0.42831 0.0
H209 H 0.63808 0.81608 0.61552 0.0
H210 H 0.63683 0.75817 0.60529 0.0
H211 H 0.64901 0.7122 0.55748 0.0
O212 O 0.65232 0.81472 0.40024 0.0
O213 O 0.72973 0.81607 0.48532 0.0
O214 O 0.76887 0.7862 0.45714 0.0
O215 O 0.66631 0.86214 0.4154 0.0
O216 O 0.71582 0.80399 0.34904 0.0
O217 O 0.76344 0.78253 0.36446 0.0
O218 O 0.82859 0.81832 0.46001 0.0
O219 O 0.76927 0.86342 0.37666 0.0
O220 O 0.72149 0.84564 0.35368 0.0
O221 O 0.8342 0.79024 0.39816 0.0
O222 O 0.7777 0.85334 0.4617 0.0
O223 O 0.72617 0.86806 0.44846 0.0
C224 C 0.75126 0.79531 0.49257 0.0
C225 C 0.61858 0.85497 0.37266 0.0
C226 C 0.56871 0.84642 0.33273 0.0
C227 C 0.56682 0.87862 0.32491 0.0
C228 C 0.61594 0.88699 0.36407 0.0
C229 C 0.59019 0.89861 0.34048 0.0
C230 C 0.59468 0.83473 0.35706 0.0
C231 C 0.74 0.78768 0.33527 0.0
C232 C 0.64355 0.84349 0.40394 0.0
C233 C 0.64817 0.76122 0.57153 0.0
C234 C 0.65517 0.73504 0.5443 0.0
C235 C 0.74317 0.86696 0.35309 0.0
C236 C 0.87963 0.8113 0.43248 0.0
C237 C 0.93279 0.81336 0.46192 0.0
C238 C 0.9404 0.83426 0.42567 0.0
C239 C 0.88842 0.83067 0.39489 0.0
C240 C 0.90218 0.80213 0.46563 0.0
C241 C 0.91836 0.84262 0.39213 0.0
C242 C 0.75414 0.87258 0.46696 0.0
C243 C 0.8472 0.8005 0.43663 0.0
H244 H 0.5468 0.88853 0.30766 0.0
H245 H 0.6333 0.90322 0.37694 0.0
H246 H 0.58788 0.92334 0.33512 0.0
H247 H 0.59605 0.81007 0.36439 0.0
H248 H 0.96379 0.84311 0.4222 0.0
H249 H 0.87234 0.8363 0.36722 0.0
H250 H 0.89607 0.78623 0.49384 0.0
H251 H 0.92464 0.85793 0.36334 0.0
Eu252 Eu 0.81942 0.29997 0.656 0.0
C253 C 0.7895 0.18152 0.78021 0.0
N254 N 0.81697 0.19031 0.76102 0.0
C255 C 0.84391 0.17286 0.83028 0.0
C256 C 0.78834 0.16807 0.82563 0.0
C257 C 0.84409 0.18527 0.78469 0.0
C258 C 0.81592 0.16436 0.85096 0.0
C259 C 0.73394 0.17418 0.77184 0.0
C260 C 0.76247 0.18451 0.75356 0.0
C261 C 0.7328 0.16113 0.81725 0.0
C262 C 0.75993 0.15785 0.84383 0.0
Eu263 Eu 0.8141 0.20816 0.68226 0.0
N264 N 0.76409 0.19705 0.7095 0.0
C265 C 0.70746 0.17661 0.74346 0.0
C266 C 0.73876 0.19781 0.68058 0.0
C267 C 0.70993 0.18824 0.6975 0.0
H268 H 0.86608 0.18965 0.76811 0.0
H269 H 0.68971 0.18946 0.67494 0.0
H270 H 0.76263 0.32047 0.58158 0.0
H271 H 0.94404 0.32094 0.64224 0.0
H272 H 0.74095 0.20613 0.64469 0.0
H273 H 0.68513 0.16896 0.75632 0.0
H274 H 0.89571 0.30729 0.68287 0.0
H275 H 0.86545 0.16912 0.84895 0.0
H276 H 0.7111 0.15299 0.83184 0.0
H277 H 0.75878 0.14684 0.87819 0.0
H278 H 0.75693 0.3407 0.50026 0.0
H279 H 0.81593 0.15421 0.886 0.0
H280 H 0.94285 0.33945 0.5599 0.0
N281 N 0.81159 0.32018 0.57947 0.0
C282 C 0.83735 0.32908 0.55565 0.0
C283 C 0.7797 0.33709 0.5151 0.0
C284 C 0.83524 0.34098 0.50929 0.0
C285 C 0.783 0.32517 0.5608 0.0
C286 C 0.80596 0.34452 0.48889 0.0
N287 N 0.86715 0.31649 0.62337 0.0
C288 C 0.89469 0.31506 0.6469 0.0
C289 C 0.89306 0.3359 0.55397 0.0
C290 C 0.8659 0.32717 0.57811 0.0
C291 C 0.92144 0.33333 0.57739 0.0
C292 C 0.92221 0.32298 0.62405 0.0
H293 H 0.80335 0.3537 0.45345 0.0
H294 H 0.86107 0.35849 0.4494 0.0
H295 H 0.91174 0.35355 0.48824 0.0
O296 O 0.83075 0.34675 0.68096 0.0
O297 O 0.84944 0.26807 0.60989 0.0
O298 O 0.86024 0.224 0.65417 0.0
O299 O 0.78268 0.33328 0.67053 0.0
O300 O 0.84861 0.28485 0.71853 0.0
O301 O 0.85725 0.23136 0.71573 0.0
O302 O 0.80329 0.1735 0.62781 0.0
O303 O 0.77873 0.24222 0.71178 0.0
O304 O 0.80683 0.2846 0.73097 0.0
O305 O 0.82824 0.15993 0.69074 0.0
O306 O 0.80248 0.22438 0.60757 0.0
O307 O 0.78008 0.27127 0.62184 0.0
C308 C 0.8673 0.24445 0.62132 0.0
C309 C 0.79499 0.38778 0.67163 0.0
C310 C 0.79613 0.44273 0.69394 0.0
C311 C 0.78222 0.45006 0.65042 0.0
C312 C 0.7806 0.39564 0.62882 0.0
C313 C 0.77439 0.42663 0.61827 0.0
C314 C 0.80241 0.41144 0.70442 0.0
C315 C 0.86397 0.2598 0.73124 0.0
C316 C 0.80199 0.35526 0.68372 0.0
C317 C 0.86226 0.34952 0.48513 0.0
C318 C 0.8911 0.34681 0.50731 0.0
C319 C 0.78674 0.26322 0.74322 0.0
C320 C 0.83436 0.12865 0.6228 0.0
C321 C 0.83675 0.07757 0.58545 0.0
C322 C 0.86782 0.08351 0.57383 0.0
C323 C 0.86523 0.13441 0.61065 0.0
C324 C 0.8202 0.10044 0.60987 0.0
C325 C 0.88185 0.11184 0.58618 0.0
C326 C 0.78551 0.24772 0.59298 0.0
C327 C 0.8165 0.1509 0.65057 0.0
H328 H 0.77662 0.47389 0.64186 0.0
H329 H 0.77386 0.37801 0.6037 0.0
H330 H 0.76316 0.43248 0.58522 0.0
H331 H 0.813 0.40553 0.73803 0.0
H332 H 0.88112 0.06642 0.55475 0.0
H333 H 0.87644 0.15612 0.62042 0.0
H334 H 0.7964 0.09602 0.61984 0.0
H335 H 0.90572 0.11626 0.57691 0.0
Eu336 Eu 0.19831 0.32441 0.9213 0.0
C337 C 0.33016 0.34684 0.80423 0.0
N338 N 0.31477 0.32146 0.82099 0.0
C339 C 0.32436 0.29432 0.74858 0.0
C340 C 0.34156 0.34754 0.75763 0.0
C341 C 0.31388 0.29474 0.79525 0.0
C342 C 0.33752 0.32113 0.7292 0.0
C343 C 0.35444 0.39687 0.82017 0.0
C344 C 0.33702 0.37098 0.83528 0.0
C345 C 0.36436 0.39844 0.77302 0.0
C346 C 0.35797 0.37382 0.74183 0.0
Eu347 Eu 0.29693 0.32417 0.89993 0.0
N348 N 0.32694 0.36874 0.88068 0.0
C349 C 0.36186 0.42009 0.85317 0.0
C350 C 0.33525 0.39061 0.91344 0.0
C351 C 0.35256 0.41672 0.90012 0.0
H352 H 0.30617 0.27346 0.81141 0.0
H353 H 0.35884 0.43416 0.92611 0.0
H354 H 0.18536 0.37357 1.0128 0.0
H355 H 0.16892 0.20199 0.89978 0.0
H356 H 0.32867 0.38796 0.94999 0.0
H357 H 0.37529 0.44034 0.84301 0.0
H358 H 0.19202 0.25262 0.87694 0.0
H359 H 0.32302 0.2731 0.72813 0.0
H360 H 0.37764 0.41825 0.76063 0.0
H361 H 0.36665 0.37491 0.70601 0.0
H362 H 0.16165 0.37157 0.09146 0.0
H363 H 0.34601 0.32063 0.69323 0.0
H364 H 0.14257 0.19657 0.97682 0.0
N365 N 0.17774 0.32546 0.99827 0.0
C366 C 0.16409 0.29855 1.01275 0.0
C367 C 0.1625 0.35078 0.06992 0.0
C368 C 0.14965 0.29663 0.05726 0.0
C369 C 0.17643 0.35166 1.02546 0.0
C370 C 0.14923 0.32311 0.08604 0.0
N371 N 0.1794 0.27491 0.94088 0.0
C372 C 0.1808 0.25023 0.91077 0.0
C373 C 0.151 0.2444 0.9974 0.0
C374 C 0.16459 0.27271 0.98304 0.0
C375 C 0.15269 0.21874 0.96702 0.0
C376 C 0.16764 0.22168 0.92353 0.0
H377 H 0.13833 0.32257 0.12044 0.0
H378 H 0.12476 0.26662 0.10561 0.0
H379 H 0.12601 0.22093 0.05334 0.0
O380 O 0.15922 0.31932 0.87211 0.0
O381 O 0.22636 0.28894 0.96346 0.0
O382 O 0.27542 0.31057 0.97229 0.0
O383 O 0.16286 0.36042 0.91789 0.0
O384 O 0.21514 0.30637 0.84932 0.0
O385 O 0.26352 0.28665 0.86715 0.0
O386 O 0.3355 0.32343 0.94977 0.0
O387 O 0.27798 0.36474 0.8564 0.0
O388 O 0.23842 0.34399 0.88598 0.0
O389 O 0.33187 0.28735 0.8975 0.0
O390 O 0.279 0.3595 0.95348 0.0
O391 O 0.22456 0.36534 0.95571 0.0
C392 C 0.25132 0.29484 0.98925 0.0
C393 C 0.11819 0.35743 0.86539 0.0
C394 C 0.06619 0.34893 0.83392 0.0
C395 C 0.06373 0.38101 0.8257 0.0
C396 C 0.11505 0.38942 0.85763 0.0
C397 C 0.08801 0.40111 0.83771 0.0
C398 C 0.09357 0.33717 0.85374 0.0
C399 C 0.2403 0.29105 0.83659 0.0
C400 C 0.14713 0.34547 0.88559 0.0
C401 C 0.13592 0.2685 0.07151 0.0
C402 C 0.13656 0.24249 0.04168 0.0
C403 C 0.2485 0.36671 0.8599 0.0
C404 C 0.38215 0.30496 0.9206 0.0
C405 C 0.43532 0.30826 0.94909 0.0
C406 C 0.44394 0.32302 0.90696 0.0
C407 C 0.39163 0.31823 0.87774 0.0
C408 C 0.4043 0.29949 0.95611 0.0
C409 C 0.42218 0.32774 0.87129 0.0
C410 C 0.25338 0.37387 0.96651 0.0
C411 C 0.34906 0.29993 0.93043 0.0
H412 H 0.04282 0.39053 0.81053 0.0
H413 H 0.13369 0.40529 0.86644 0.0
H414 H 0.08586 0.42583 0.83156 0.0
H415 H 0.09569 0.31243 0.86 0.0
H416 H 0.46776 0.32987 0.90105 0.0
H417 H 0.37549 0.32139 0.8493 0.0
H418 H 0.39745 0.28868 0.98908 0.0
H419 H 0.42906 0.33848 0.83836 0.0
Eu420 Eu 0.31878 0.80029 0.16123 0.0
C421 C 0.29269 0.68028 0.27703 0.0
N422 N 0.31936 0.69258 0.2592 0.0
C423 C 0.34591 0.68132 0.33184 0.0
C424 C 0.29174 0.66861 0.32367 0.0
C425 C 0.34607 0.69202 0.28525 0.0
C426 C 0.31862 0.66979 0.35127 0.0
C427 C 0.23844 0.666 0.26646 0.0
C428 C 0.26607 0.67894 0.24863 0.0
C429 C 0.23779 0.65414 0.31264 0.0
C430 C 0.26425 0.65559 0.34118 0.0
Eu431 Eu 0.31599 0.70592 0.17824 0.0
N432 N 0.26684 0.69118 0.20424 0.0
C433 C 0.21205 0.66584 0.23755 0.0
C434 C 0.24148 0.69051 0.17544 0.0
C435 C 0.21357 0.67818 0.19192 0.0
H436 H 0.36798 0.69858 0.2703 0.0
H437 H 0.19333 0.67789 0.1693 0.0
H438 H 0.26288 0.81765 0.08225 0.0
H439 H 0.43549 0.84906 0.16512 0.0
H440 H 0.24301 0.6994 0.13978 0.0
H441 H 0.19038 0.65626 0.25016 0.0
H442 H 0.38843 0.82469 0.19843 0.0
H443 H 0.36709 0.68122 0.35236 0.0
H444 H 0.21676 0.64414 0.32689 0.0
H445 H 0.26325 0.64641 0.3768 0.0
H446 H 0.25856 0.83496 0.99923 0.0
H447 H 0.31875 0.66112 0.38722 0.0
H448 H 0.43819 0.86087 0.0799 0.0
N449 N 0.31195 0.81793 0.08252 0.0
C450 C 0.33771 0.82869 0.06043 0.0
C451 C 0.28107 0.83252 1.01556 0.0
C452 C 0.33637 0.83962 1.01345 0.0
C453 C 0.28362 0.82203 0.0622 0.0
C454 C 0.30767 0.84041 0.99053 0.0
N455 N 0.36468 0.8235 0.1327 0.0
C456 C 0.38945 0.82993 0.16122 0.0
C457 C 0.39141 0.84509 0.06574 0.0
C458 C 0.36482 0.83184 0.08639 0.0
C459 C 0.41743 0.85039 0.09428 0.0
C460 C 0.41613 0.84348 0.14243 0.0
H461 H 0.30562 0.84881 0.95457 0.0
H462 H 0.36273 0.85928 0.95563 0.0
H463 H 0.41105 0.8638 1.00136 0.0
O464 O 0.32777 0.84453 0.19681 0.0
O465 O 0.36009 0.77474 0.13128 0.0
O466 O 0.34492 0.72356 0.11658 0.0
O467 O 0.28153 0.83374 0.17326 0.0
O468 O 0.34547 0.77941 0.22331 0.0
O469 O 0.36056 0.72944 0.2038 0.0
O470 O 0.30128 0.66322 0.14227 0.0
O471 O 0.27971 0.73774 0.21219 0.0
O472 O 0.30554 0.7816 0.23345 0.0
O473 O 0.34287 0.6634 0.18475 0.0
O474 O 0.30091 0.7223 0.10565 0.0
O475 O 0.28126 0.77052 0.12233 0.0
C476 C 0.36423 0.74722 0.11198 0.0
C477 C 0.29671 0.88725 0.17795 0.0
C478 C 0.29781 0.94271 0.19795 0.0
C479 C 0.29494 0.94967 0.14955 0.0
C480 C 0.29405 0.89496 0.12998 0.0
C481 C 0.29299 0.92596 0.11597 0.0
C482 C 0.29839 0.91126 0.21201 0.0
C483 C 0.36582 0.75671 0.22399 0.0
C484 C 0.29971 0.85453 0.19279 0.0
C485 C 0.36326 0.85117 0.99187 0.0
C486 C 0.39075 0.85385 1.01795 0.0
C487 C 0.28649 0.75895 0.24425 0.0
C488 C 0.33989 0.62765 0.12067 0.0
C489 C 0.33886 0.58014 0.07311 0.0
C490 C 0.36831 0.58788 0.05568 0.0
C491 C 0.36907 0.63521 0.10232 0.0
C492 C 0.32476 0.60031 0.10556 0.0
C493 C 0.38316 0.61534 0.07001 0.0
C494 C 0.28621 0.7474 0.09207 0.0
C495 C 0.32502 0.64738 0.15637 0.0
H496 H 0.29383 0.97356 0.13767 0.0
H497 H 0.29306 0.87714 0.10323 0.0
H498 H 0.29079 0.93166 0.07885 0.0
H499 H 0.30079 0.90549 0.24914 0.0
H500 H 0.3797 0.57285 1.03057 0.0
H501 H 0.38102 0.65628 0.11319 0.0
H502 H 0.30228 0.59441 0.11991 0.0
H503 H 0.40574 0.62118 0.05617 0.0
Eu504 Eu 0.80182 0.68398 0.92208 0.0
C505 C 0.66744 0.65546 0.80738 0.0
N506 N 0.6809 0.68197 0.82458 0.0
C507 C 0.66358 0.71012 0.7565 0.0
C508 C 0.65299 0.65502 0.76261 0.0
C509 C 0.67767 0.70943 0.80111 0.0
C510 C 0.65182 0.68268 0.7367 0.0
C511 C 0.64997 0.60236 0.82125 0.0
C512 C 0.66517 0.6296 0.83679 0.0
C513 C 0.63733 0.60125 0.77545 0.0
C514 C 0.63872 0.62754 0.74629 0.0
Eu515 Eu 0.70264 0.67859 0.90124 0.0
N516 N 0.67779 0.63133 0.88098 0.0
C517 C 0.64732 0.57734 0.85264 0.0
C518 C 0.67381 0.60777 0.91252 0.0
C519 C 0.65886 0.58028 0.89869 0.0
H520 H 0.68612 0.73086 0.81657 0.0
H521 H 0.65597 0.56149 0.92365 0.0
H522 H 0.80765 0.63329 1.01478 0.0
H523 H 0.83147 0.80662 0.91109 0.0
H524 H 0.68189 0.61041 0.94849 0.0
H525 H 0.63571 0.55601 0.84211 0.0
H526 H 0.80908 0.75656 0.88303 0.0
H527 H 0.66178 0.73182 0.73743 0.0
H528 H 0.62568 0.58045 0.76273 0.0
H529 H 0.62783 0.62668 0.71173 0.0
H530 H 0.82588 0.63433 0.09679 0.0
H531 H 0.64082 0.68336 0.70222 0.0
H532 H 0.85396 0.81039 0.99157 0.0
N533 N 0.81646 0.68152 1.00261 0.0
C534 C 0.82945 0.70811 1.02014 0.0
C535 C 0.82671 0.65533 0.07579 0.0
C536 C 0.84118 0.70931 0.06675 0.0
C537 C 0.81576 0.65504 1.02922 0.0
C538 C 0.83933 0.68258 0.09473 0.0
N539 N 0.81807 0.73324 0.94754 0.0
C540 C 0.81847 0.7584 0.91841 0.0
C541 C 0.84399 0.76234 1.00887 0.0
C542 C 0.83085 0.73446 0.99154 0.0
C543 C 0.84411 0.78853 0.9795 0.0
C544 C 0.83129 0.78655 0.93409 0.0
H545 H 0.84801 0.68262 0.13074 0.0
H546 H 0.86368 0.73827 0.11962 0.0
H547 H 0.86624 0.78458 0.06899 0.0
O548 O 0.84126 0.69329 0.87557 0.0
O549 O 0.77142 0.71892 0.96194 0.0
O550 O 0.72425 0.694 0.97261 0.0
O551 O 0.84215 0.65388 0.92331 0.0
O552 O 0.7843 0.70237 0.85063 0.0
O553 O 0.73283 0.71651 0.86345 0.0
O554 O 0.6626 0.6726 0.94665 0.0
O555 O 0.7233 0.6404 0.85562 0.0
O556 O 0.76409 0.66133 0.88287 0.0
O557 O 0.66693 0.7147 0.90617 0.0
O558 O 0.72706 0.65282 0.96197 0.0
O559 O 0.77809 0.6389 0.94572 0.0
C560 C 0.7471 0.71213 0.98828 0.0
C561 C 0.87971 0.65475 0.86137 0.0
C562 C 0.93036 0.65577 0.82341 0.0
C563 C 0.92596 0.6245 0.81011 0.0
C564 C 0.87593 0.62367 0.84778 0.0
C565 C 0.89885 0.60867 0.82208 0.0
C566 C 0.90687 0.67077 0.84882 0.0
C567 C 0.75763 0.71399 0.83551 0.0
C568 C 0.8573 0.6703 0.89226 0.0
C569 C 0.85454 0.73699 0.08392 0.0
C570 C 0.85606 0.76336 0.05503 0.0
C571 C 0.75297 0.63934 0.85597 0.0
C572 C 0.61613 0.69514 0.92306 0.0
C573 C 0.56223 0.69612 0.94793 0.0
C574 C 0.55344 0.68213 0.90507 0.0
C575 C 0.60654 0.68209 0.87993 0.0
C576 C 0.5937 0.70224 0.9573 0.0
C577 C 0.57554 0.67518 0.87124 0.0
C578 C 0.74996 0.63265 0.96181 0.0
C579 C 0.64939 0.69832 0.93437 0.0
H580 H 0.94377 0.61201 0.79141 0.0
H581 H 0.85561 0.61093 0.8578 0.0
H582 H 0.89585 0.58453 0.81214 0.0
H583 H 0.90986 0.69483 0.8595 0.0
H584 H 0.52933 0.67717 0.89747 0.0
H585 H 0.62287 0.67705 0.85295 0.0
H586 H 0.60061 0.71257 0.99074 0.0
H587 H 0.56863 0.66466 0.83799 0.0
Eu588 Eu 0.68204 0.2942 0.17053 0.0
C589 C 0.70346 0.16211 0.07567 0.0
N590 N 0.67672 0.17586 0.08871 0.0
C591 C 0.65106 0.15647 1.01944 0.0
C592 C 0.7051 0.14533 1.03289 0.0
C593 C 0.65054 0.17297 0.062 0.0
C594 C 0.67846 0.14261 1.00476 0.0
C595 C 0.75809 0.15348 0.08967 0.0
C596 C 0.7297 0.16621 0.10404 0.0
C597 C 0.75961 0.13626 0.04749 0.0
C598 C 0.73323 0.13221 1.01921 0.0
Eu599 Eu 0.67723 0.19976 0.16298 0.0
N600 N 0.7278 0.18366 0.1443 0.0
C601 C 0.78432 0.15896 0.11761 0.0
C602 C 0.75331 0.18878 0.17182 0.0
C603 C 0.78192 0.17672 0.15873 0.0
H604 H 0.62916 0.18309 0.07377 0.0
H605 H 0.80211 0.18096 0.1806 0.0
H606 H 0.73258 0.3169 0.25591 0.0
H607 H 0.566 0.34018 0.14589 0.0
H608 H 0.75198 0.20173 0.20419 0.0
H609 H 0.80656 0.1497 0.10764 0.0
H610 H 0.61567 0.31756 0.12147 0.0
H611 H 0.6303 0.15428 0.99815 0.0
H612 H 0.78125 0.12634 1.03602 0.0
H613 H 0.73493 0.11924 0.98647 0.0
H614 H 0.73153 0.33552 0.33843 0.0
H615 H 0.67882 0.12991 0.97166 0.0
H616 H 0.55798 0.35532 0.22934 0.0
N617 N 0.68376 0.31489 0.24869 0.0
C618 C 0.6566 0.32539 0.26643 0.0
C619 C 0.71015 0.33201 0.31906 0.0
C620 C 0.65493 0.3378 0.31256 0.0
C621 C 0.71063 0.32055 0.27278 0.0
C622 C 0.68203 0.33982 0.33959 0.0
N623 N 0.63455 0.31763 0.19089 0.0
C624 C 0.61201 0.32321 0.15815 0.0
C625 C 0.60365 0.34108 0.25169 0.0
C626 C 0.63134 0.32743 0.23631 0.0
C627 C 0.57962 0.34494 0.21893 0.0
C628 C 0.58402 0.33639 0.17179 0.0
H629 H 0.68177 0.34925 0.37513 0.0
H630 H 0.62506 0.35895 0.36456 0.0
H631 H 0.58004 0.36155 0.31132 0.0
O632 O 0.67773 0.32955 0.1151 0.0
O633 O 0.63938 0.27019 0.20182 0.0
O634 O 0.66026 0.2252 0.22771 0.0
O635 O 0.71162 0.33562 0.17001 0.0
O636 O 0.65468 0.27209 0.10943 0.0
O637 O 0.63488 0.22498 0.13593 0.0
O638 O 0.68316 0.1528 0.19263 0.0
O639 O 0.69319 0.22507 0.09582 0.0
O640 O 0.71715 0.26988 0.12225 0.0
O641 O 0.63748 0.1688 0.17021 0.0
O642 O 0.70124 0.21886 0.22961 0.0
O643 O 0.71935 0.2689 0.21492 0.0
C644 C 0.63742 0.24481 0.22732 0.0
C645 C 0.68783 0.38078 0.14085 0.0
C646 C 0.68407 0.43402 0.11211 0.0
C647 C 0.66825 0.44216 0.15356 0.0
C648 C 0.67288 0.38975 0.18252 0.0
C649 C 0.66278 0.42011 0.18855 0.0
C650 C 0.69357 0.40307 0.10569 0.0
C651 C 0.63248 0.25088 0.11141 0.0
C652 C 0.69776 0.3484 0.13428 0.0
C653 C 0.62683 0.34968 0.32904 0.0
C654 C 0.60123 0.35131 0.29866 0.0
C655 C 0.71159 0.24916 0.08856 0.0
C656 C 0.63983 0.11603 0.20049 0.0
C657 C 0.64443 0.06265 0.2303 0.0
C658 C 0.6137 0.05707 0.21536 0.0
C659 C 0.60903 0.10986 0.18771 0.0
C660 C 0.65731 0.09255 0.22259 0.0
C661 C 0.59614 0.08057 0.19509 0.0
C662 C 0.71709 0.24405 0.2425 0.0
C663 C 0.65392 0.14618 0.18732 0.0
H664 H 0.66112 0.46589 0.15975 0.0
H665 H 0.66943 0.3735 0.21078 0.0
H666 H 0.65124 0.42671 0.22086 0.0
H667 H 0.70563 0.39644 0.07377 0.0
H668 H 0.60309 0.03431 0.21835 0.0
H669 H 0.59505 0.12743 0.17075 0.0
H670 H 0.68082 0.09766 0.23341 0.0
H671 H 0.57257 0.07585 0.1841 0.0
C672 C 0.25248 0.10147 0.29618 0.0
C673 C 0.26555 0.1146 0.33712 0.0
C674 C 0.26152 0.07226 0.27945 0.0
C675 C 0.2842 0.05525 0.30439 0.0
C676 C 0.29785 0.06835 0.34555 0.0
C677 C 0.28859 0.09802 0.36115 0.0
C678 C 0.24601 0.05919 0.23567 0.0
C679 C 0.32141 0.05055 0.37395 0.0
C680 C 0.27912 0.96973 0.27127 0.0
C681 C 0.29937 0.96873 0.23277 0.0
C682 C 0.27591 0.9971 0.29817 0.0
C683 C 0.29338 0.02399 0.28623 0.0
C684 C 0.31612 0.02194 0.25061 0.0
C685 C 0.31872 0.99442 0.22419 0.0
C686 C 0.25195 0.99787 0.33666 0.0
C687 C 0.33595 0.04963 0.23765 0.0
H688 H 0.23429 0.11381 0.27777 0.0
H689 H 0.29829 0.10705 0.39343 0.0
H690 H 0.26359 0.05384 0.20851 0.0
H691 H 0.23389 0.03712 0.24441 0.0
H692 H 0.22896 0.07546 0.22016 0.0
H693 H 0.32827 0.06293 0.40692 0.0
H694 H 0.3121 0.02733 0.38355 0.0
H695 H 0.34233 0.0467 0.3523 0.0
H696 H 0.26426 0.9499 0.27835 0.0
H697 H 0.33496 0.9935 0.19517 0.0
H698 H 0.23062 0.00869 0.32264 0.0
H699 H 0.26004 0.012 0.36718 0.0
H700 H 0.24599 0.97414 0.34929 0.0
H701 H 0.32166 0.06682 0.21841 0.0
H702 H 0.3556 0.04301 0.21472 0.0
H703 H 0.3452 0.06122 0.26986 0.0
C704 C 0.10459 0.70434 0.77554 0.0
C705 C 0.10797 0.73293 0.7523 0.0
C706 C 0.07559 0.69415 0.79155 0.0
C707 C 0.04928 0.71278 0.78369 0.0
C708 C 0.05281 0.74246 0.76283 0.0
C709 C 0.08214 0.75224 0.74781 0.0
C710 C 0.07283 0.66298 0.81552 0.0
C711 C 0.02557 0.76363 0.75521 0.0
C712 C 0.97417 0.66757 0.76845 0.0
C713 C 0.95986 0.67215 0.81224 0.0
C714 C 0.00297 0.68109 0.75841 0.0
C715 C 0.01791 0.69987 0.79304 0.0
C716 C 0.00328 0.70524 0.83691 0.0
C717 C 0.97447 0.69125 0.84602 0.0
C718 C 0.01757 0.67368 0.71133 0.0
C719 C 0.01867 0.72435 0.87528 0.0
H720 H 0.12442 0.68939 0.77993 0.0
H721 H 0.08439 0.77437 0.73023 0.0
H722 H 0.06168 0.66573 0.85049 0.0
H723 H 0.0578 0.64735 0.79411 0.0
H724 H 0.09561 0.65177 0.82071 0.0
H725 H 0.03113 0.78303 0.73071 0.0
H726 H 0.00536 0.75056 0.74097 0.0
H727 H 0.01865 0.77379 0.78958 0.0
H728 H 0.96297 0.65311 0.7419 0.0
H729 H 0.9639 0.69447 0.88031 0.0
H730 H 0.02786 0.65017 0.71323 0.0
H731 H 0.03604 0.69032 0.7012 0.0
H732 H -0.0002 0.67314 0.68284 0.0
H733 H 0.03717 0.71042 0.89205 0.0
H734 H 0.00208 0.73129 0.90313 0.0
H735 H 0.02964 0.7456 0.86064 0.0
C736 C 0.72676 0.90161 0.28658 0.0
C737 C 0.73475 0.89788 0.33423 0.0
C738 C 0.71497 0.93005 0.26993 0.0
C739 C 0.71159 0.95544 0.30159 0.0
C740 C 0.72055 0.95189 0.3494 0.0
C741 C 0.73081 0.92289 0.3652 0.0
C742 C 0.70464 0.93244 0.21907 0.0
C743 C 0.71799 0.9782 0.38459 0.0
C744 C 0.69492 0.03466 0.24667 0.0
C745 C 0.6627 0.03681 0.25229 0.0
C746 C 0.71142 0.00901 0.26434 0.0
C747 C 0.69527 0.98421 0.28622 0.0
C748 C 0.66307 0.98665 0.29322 0.0
C749 C 0.64747 0.01315 0.27753 0.0
C750 C 0.74608 0.00828 0.25914 0.0
C751 C 0.64472 0.96087 0.31619 0.0
H752 H 0.72881 0.88199 0.26273 0.0
H753 H 0.73382 0.91942 0.40243 0.0
H754 H 0.6793 0.93612 0.21766 0.0
H755 H 0.71579 0.95277 0.20194 0.0
H756 H 0.71014 0.91123 0.19842 0.0
H757 H 0.73084 0.97329 0.41783 0.0
H758 H 0.72701 1.00018 0.36929 0.0
H759 H 0.69341 0.9819 0.39366 0.0
H760 H 0.70733 0.05254 0.22751 0.0
H761 H 0.62299 0.01495 0.28458 0.0
H762 H 0.75256 0.9895 0.2343 0.0
H763 H 0.75711 0.00305 0.29372 0.0
H764 H 0.75557 0.03065 0.24578 0.0
H765 H 0.64765 0.93894 0.29606 0.0
H766 H 0.61973 0.96628 0.3179 0.0
H767 H 0.65324 0.95679 0.35264 0.0
C768 C 0.02416 0.3118 0.85735 0.0
C769 C 0.03982 0.32819 0.82191 0.0
C770 C 0.99637 0.29583 0.84726 0.0
C771 C 0.98435 0.29595 0.80054 0.0
C772 C 0.00135 0.31084 0.76419 0.0
C773 C 0.02863 0.32711 0.77546 0.0
C774 C 0.97895 0.28045 0.88705 0.0
C775 C 0.98969 0.31187 0.71391 0.0
C776 C 0.91725 0.24443 0.75892 0.0
C777 C 0.89286 0.2657 0.7588 0.0
C778 C 0.94704 0.2534 0.77448 0.0
C779 C 0.95238 0.2842 0.79064 0.0
C780 C 0.92727 0.30489 0.79402 0.0
C781 C 0.89786 0.29524 0.77885 0.0
C782 C 0.9732 0.23065 0.77064 0.0
C783 C 0.93181 0.33804 0.8105 0.0
H784 H 0.03279 0.31283 0.89337 0.0
H785 H 0.04082 0.33979 0.74809 0.0
H786 H 0.95757 0.29364 0.89433 0.0
H787 H 0.97186 0.25652 0.87689 0.0
H788 H 0.99287 0.27944 0.9201 0.0
H789 H 0.00879 0.31615 0.68856 0.0
H790 H 0.97759 0.29003 0.70372 0.0
H791 H 0.97313 0.33129 0.71074 0.0
H792 H 0.9136 0.22138 0.74442 0.0
H793 H 0.8791 0.31175 0.77992 0.0
H794 H 0.98651 0.2299 0.80423 0.0
H795 H 0.98932 0.23842 0.74256 0.0
H796 H 0.96488 0.20681 0.76195 0.0
H797 H 0.94426 0.33867 0.84486 0.0
H798 H 0.90957 0.35046 0.81447 0.0
H799 H 0.94617 0.35087 0.7845 0.0
C800 C 0.2921 0.55081 0.04362 0.0
C801 C 0.32315 0.5508 0.05816 0.0
C802 C 0.27718 0.52323 1.02891 0.0
C803 C 0.29355 0.49487 1.0296 0.0
C804 C 0.32487 0.49475 0.0445 0.0
C805 C 0.33928 0.52269 0.0584 0.0
C806 C 0.24402 0.52447 1.01232 0.0
C807 C 0.34327 0.46509 0.04532 0.0
C808 C 0.2541 0.4152 1.0294 0.0
C809 C 0.25857 0.40608 0.98252 0.0
C810 C 0.26399 0.44485 0.04489 0.0
C811 C 0.27869 0.46545 1.01268 0.0
C812 C 0.28155 0.4567 0.96468 0.0
C813 C 0.27138 0.42719 0.9503 0.0
C814 C 0.26007 0.45359 0.09614 0.0
C815 C 0.29681 0.4778 0.92892 0.0
H816 H 0.27963 0.57255 0.04294 0.0
H817 H 0.36319 0.52251 0.06998 0.0
H818 H 0.24166 0.514 0.97658 0.0
H819 H 0.22924 0.51063 1.03649 0.0
H820 H 0.23517 0.54861 1.01104 0.0
H821 H 0.36729 0.46887 0.0582 0.0
H822 H 0.3318 0.44774 0.06847 0.0
H823 H 0.34416 0.45493 1.00928 0.0
H824 H 0.24413 0.3988 0.05418 0.0
H825 H 0.27462 0.42011 0.9139 0.0
H826 H 0.24938 0.47685 0.09908 0.0
H827 H 0.28306 0.45501 0.11357 0.0
H828 H 0.24557 0.43646 0.1155 0.0
H829 H 0.29544 0.46824 0.89243 0.0
H830 H 0.32151 0.48122 0.9384 0.0
H831 H 0.28589 0.50101 0.92923 0.0
C832 C 0.52038 0.73235 0.96775 0.0
C833 C 0.53767 0.7063 0.98016 0.0
C834 C 0.49307 0.73951 0.99158 0.0
C835 C 0.48291 0.72015 1.02892 0.0
C836 C 0.5012 0.69459 0.04321 0.0
C837 C 0.52836 0.68775 1.01822 0.0
C838 C 0.47435 0.76697 0.97525 0.0
C839 C 0.49149 0.67372 0.08343 0.0
C840 C 0.42121 0.75546 0.10676 0.0
C841 C 0.39427 0.74103 0.0894 0.0
C842 C 0.45033 0.74789 0.0887 0.0
C843 C 0.45249 0.72618 0.05132 0.0
C844 C 0.42533 0.71164 1.03347 0.0
C845 C 0.39657 0.7189 0.05324 0.0
C846 C 0.47885 0.76278 0.10996 0.0
C847 C 0.4266 0.68854 0.99332 0.0
H848 H 0.52762 0.74636 0.93789 0.0
H849 H 0.54161 0.6673 1.02718 0.0
H850 H 0.45097 0.75904 0.96403 0.0
H851 H 0.47133 0.78363 1.00478 0.0
H852 H 0.48536 0.77944 0.94529 0.0
H853 H 0.51096 0.65934 0.09643 0.0
H854 H 0.48235 0.68749 0.11339 0.0
H855 H 0.47278 0.65784 0.07116 0.0
H856 H 0.41966 0.77193 0.13564 0.0
H857 H 0.3758 0.70747 0.04011 0.0
H858 H 0.49063 0.77749 0.08331 0.0
H859 H 0.49539 0.74461 0.12114 0.0
H860 H 0.47329 0.77738 0.14095 0.0
H861 H 0.43918 0.69875 0.96289 0.0
H862 H 0.40323 0.68109 0.98124 0.0
H863 H 0.43946 0.66767 1.00479 0.0
C864 C 0.72341 0.4618 0.06328 0.0
C865 C 0.69274 0.45873 0.07819 0.0
C866 C 0.7334 0.48844 0.03915 0.0
C867 C 0.71213 0.51259 1.02995 0.0
C868 C 0.68053 0.50834 0.04132 0.0
C869 C 0.67124 0.48139 0.06529 0.0
C870 C 0.76715 0.49073 1.0262 0.0
C871 C 0.65629 0.53202 1.02864 0.0
C872 C 0.73994 0.5964 1.02802 0.0
C873 C 0.74347 0.60139 0.97962 0.0
C874 C 0.73044 0.56724 0.04493 0.0
C875 C 0.72326 0.54312 1.01236 0.0
C876 C 0.72642 0.54837 0.96336 0.0
C877 C 0.73737 0.57726 0.94759 0.0
C878 C 0.72705 0.56251 0.09749 0.0
C879 C 0.71715 0.52386 0.92778 0.0
H880 H 0.74011 0.44423 0.07286 0.0
H881 H 0.64726 0.47851 0.07543 0.0
H882 H 0.77311 0.51138 1.00463 0.0
H883 H 0.78131 0.49128 0.05903 0.0
H884 H 0.77387 0.46962 1.00622 0.0
H885 H 0.63648 0.53097 0.05341 0.0
H886 H 0.66551 0.55614 1.02832 0.0
H887 H 0.6473 0.52664 0.99271 0.0
H888 H 0.74432 0.61538 0.0525 0.0
H889 H 0.73924 0.58153 0.91005 0.0
H890 H 0.73983 0.5415 0.10875 0.0
H891 H 0.70231 0.55867 0.10606 0.0
H892 H 0.7357 0.58279 0.11817 0.0
H893 H 0.73193 0.50314 0.93237 0.0
H894 H 0.71899 0.53241 0.89086 0.0
H895 H 0.69296 0.51626 0.93403 0.0
C896 C 0.6004 0.2734 0.04665 0.0
C897 C 0.60223 0.25826 0.09027 0.0
C898 C 0.57167 0.28191 1.02761 0.0
C899 C 0.54435 0.27634 0.05386 0.0
C900 C 0.54626 0.2618 0.09856 0.0
C901 C 0.57513 0.25224 0.11569 0.0
C902 C 0.57053 0.2966 0.9792 0.0
C903 C 0.51807 0.25732 0.12904 0.0
C904 C 0.47536 0.32216 1.00951 0.0
C905 C 0.45965 0.29948 0.98296 0.0
C906 C 0.5021 0.31461 1.03529 0.0
C907 C 0.51374 0.28396 1.03288 0.0
C908 C 0.4971 0.26082 1.00746 0.0
C909 C 0.46998 0.26882 0.98331 0.0
C910 C 0.51792 0.33937 0.06476 0.0
C911 C 0.50859 0.22785 1.00413 0.0
H912 H 0.62142 0.2782 1.0272 0.0
H913 H 0.57662 0.24091 0.14976 0.0
H914 H 0.55457 0.2832 0.95585 0.0
H915 H 0.56144 0.32055 0.98189 0.0
H916 H 0.59362 0.29768 0.9623 0.0
H917 H 0.52265 0.2416 0.1592 0.0
H918 H 0.51095 0.28022 0.14322 0.0
H919 H 0.49833 0.24779 0.10837 0.0
H920 H 0.46709 0.34588 1.00916 0.0
H921 H 0.45773 0.25147 0.96243 0.0
H922 H 0.50753 0.36263 0.05954 0.0
H923 H 0.54289 0.34086 0.05634 0.0
H924 H 0.51599 0.33307 0.10266 0.0
H925 H 0.49443 0.21342 0.9795 0.0
H926 H 0.508 0.21686 0.03956 0.0
H927 H 0.53293 0.22769 0.99197 0.0
C928 C 0.7534 0.59634 0.79849 0.0
C929 C 0.76861 0.61177 0.83572 0.0
C930 C 0.76277 0.56705 0.7828 0.0
C931 C 0.78848 0.55258 0.80431 0.0
C932 C 0.80402 0.56778 0.84215 0.0
C933 C 0.79407 0.59742 0.85716 0.0
C934 C 0.74446 0.55118 0.7439 0.0
C935 C 0.83062 0.55238 0.86733 0.0
C936 C 0.78726 0.46703 0.773 0.0
C937 C 0.8018 0.46791 0.72891 0.0
C938 C 0.78562 0.49385 0.80131 0.0
C939 C 0.79904 0.52207 0.78516 0.0
C940 C 0.81723 0.52177 0.74369 0.0
C941 C 0.81797 0.49484 0.71561 0.0
C942 C 0.76673 0.49225 0.84577 0.0
C943 C 0.83348 0.55076 0.7266 0.0
H944 H 0.73328 0.60689 0.78232 0.0
H945 H 0.80542 0.60853 0.88678 0.0
H946 H 0.75942 0.54732 0.71274 0.0
H947 H 0.73616 0.5281 0.75615 0.0
H948 H 0.72414 0.56494 0.73249 0.0
H949 H 0.83746 0.56499 0.9001 0.0
H950 H 0.82461 0.52808 0.87678 0.0
H951 H 0.85077 0.55141 0.84333 0.0
H952 H 0.77496 0.44614 0.78363 0.0
H953 H 0.8298 0.49534 0.68192 0.0
H954 H 0.74191 0.49385 0.83614 0.0
H955 H 0.77255 0.51126 0.8708 0.0
H956 H 0.77013 0.46965 0.8639 0.0
H957 H 0.81628 0.56672 0.7108 0.0
H958 H 0.85112 0.54544 0.69945 0.0
H959 H 0.84484 0.56313 0.75655 0.0
C960 C 0.60361 0.20575 0.26842 0.0
C961 C 0.60728 0.23533 0.24827 0.0
C962 C 0.57461 0.19514 0.28403 0.0
C963 C 0.54841 0.21442 0.27916 0.0
C964 C 0.55217 0.2448 0.2607 0.0
C965 C 0.58153 0.25487 0.24567 0.0
C966 C 0.57198 0.16291 0.30467 0.0
C967 C 0.52519 0.26659 0.25615 0.0
C968 C 0.47317 0.16835 0.26979 0.0
C969 C 0.45981 0.17331 0.31418 0.0
C970 C 0.50124 0.18261 0.2573 0.0
C971 C 0.51695 0.20189 0.29051 0.0
C972 C 0.50308 0.20773 0.33503 0.0
C973 C 0.47445 0.19372 0.346 0.0
C974 C 0.51429 0.17554 0.20904 0.0
C975 C 0.51834 0.22812 0.37199 0.0
H976 H 0.62329 0.19043 0.27103 0.0
H977 H 0.584 0.27771 0.23031 0.0
H978 H 0.55759 0.16317 0.33705 0.0
H979 H 0.56056 0.14723 0.27865 0.0
H980 H 0.59493 0.15309 0.3136 0.0
H981 H 0.53075 0.28703 0.2337 0.0
H982 H 0.50471 0.25439 0.24102 0.0
H983 H 0.5188 0.27513 0.29176 0.0
H984 H 0.46186 0.15271 0.24491 0.0
H985 H 0.46428 0.19756 0.38045 0.0
H986 H 0.52558 0.1525 0.21005 0.0
H987 H 0.53155 0.19298 0.19719 0.0
H988 H 0.49548 0.17413 0.18222 0.0
H989 H 0.51384 0.21896 0.40803 0.0
H990 H 0.50814 0.25166 0.37014 0.0
H991 H 0.54367 0.23034 0.36724 0.0
C992 C 0.1954 0.54018 0.79541 0.0
C993 C 0.16817 0.54005 0.76832 0.0
C994 C 0.20869 0.51216 0.81094 0.0
C995 C 0.19491 0.48334 0.7978 0.0
C996 C 0.16772 0.48322 0.76972 0.0
C997 C 0.15458 0.5115 0.7557 0.0
C998 C 0.23728 0.51344 0.84171 0.0
C999 C 0.1523 0.45312 0.75484 0.0
C1000 C 0.24253 0.40914 0.80107 0.0
C1001 C 0.23179 0.39457 0.84229 0.0
C1002 C 0.23091 0.438 0.78624 0.0
C1003 C 0.20837 0.45318 0.81382 0.0
C1004 C 0.1978 0.43893 0.85587 0.0
C1005 C 0.20935 0.40973 0.86921 0.0
C1006 C 0.24301 0.45239 0.74131 0.0
C1007 C 0.17508 0.45509 0.88776 0.0
H1008 H 0.20581 0.56223 0.80551 0.0
H1009 H 0.13362 0.51133 0.73455 0.0
H1010 H 0.23449 0.49827 0.87311 0.0
H1011 H 0.25733 0.50471 0.82155 0.0
H1012 H 0.24268 0.53743 0.85399 0.0
H1013 H 0.13189 0.45694 0.73168 0.0
H1014 H 0.16901 0.43833 0.7357 0.0
H1015 H 0.14473 0.44004 0.78656 0.0
H1016 H 0.26046 0.39805 0.78057 0.0
H1017 H 0.20184 0.39999 0.90205 0.0
H1018 H 0.25377 0.47532 0.74918 0.0
H1019 H 0.22363 0.45644 0.7163 0.0
H1020 H 0.26041 0.43755 0.72369 0.0
H1021 H 0.18529 0.47726 0.90077 0.0
H1022 H 0.16859 0.44068 0.91878 0.0
H1023 H 0.15382 0.46095 0.86773 0.0
C1024 C 0.52926 0.83101 0.27211 0.0
C1025 C 0.54278 0.8259 0.31649 0.0
C1026 C 0.50192 0.81578 0.2584 0.0
C1027 C 0.48768 0.79422 0.28948 0.0
C1028 C 0.50238 0.78729 0.33311 0.0
C1029 C 0.52971 0.8033 0.34623 0.0
C1030 C 0.48824 0.82444 0.21121 0.0
C1031 C 0.48843 0.76405 0.36686 0.0
C1032 C 0.40031 0.78882 0.27644 0.0
C1033 C 0.39645 0.76309 0.2464 0.0
C1034 C 0.42974 0.79841 0.29204 0.0
C1035 C 0.45615 0.7815 0.27827 0.0
C1036 C 0.45233 0.75455 0.24985 0.0
C1037 C 0.42252 0.74557 0.23444 0.0
C1038 C 0.43269 0.82789 0.32078 0.0
C1039 C 0.47986 0.73605 0.23404 0.0
H1040 H 0.53957 0.84788 0.24833 0.0
H1041 H 0.53999 0.79915 0.38063 0.0
H1042 H 0.46631 0.81219 0.20301 0.0
H1043 H 0.48411 0.84987 0.21042 0.0
H1044 H 0.50513 0.81936 0.18288 0.0
H1045 H 0.50399 0.7591 0.39723 0.0
H1046 H 0.46632 0.77312 0.38071 0.0
H1047 H 0.48312 0.74196 0.34812 0.0
H1048 H 0.38035 0.80241 0.28618 0.0
H1049 H 0.41985 0.72566 0.21121 0.0
H1050 H 0.44492 0.84586 0.29964 0.0
H1051 H 0.44664 0.82374 0.35312 0.0
H1052 H 0.40988 0.83719 0.33133 0.0
H1053 H 0.49669 0.75143 0.21581 0.0
H1054 H 0.47327 0.71674 0.20978 0.0
H1055 H 0.49178 0.72622 0.26538 0.0
C1056 C 0.83664 0.01936 0.58036 0.0
C1057 C 0.82154 0.04759 0.57253 0.0
C1058 C 0.82277 0.99094 0.56745 0.0
C1059 C 0.79313 0.99071 0.54593 0.0
C1060 C 0.77746 0.01911 0.53895 0.0
C1061 C 0.79185 0.04718 0.55236 0.0
C1062 C 0.84031 0.9612 0.5753 0.0
C1063 C 0.74622 0.02011 0.51504 0.0
C1064 C 0.77922 0.92428 0.46068 0.0
C1065 C 0.76165 0.90337 0.48742 0.0
C1066 C 0.78864 0.95308 0.47875 0.0
C1067 C 0.78054 0.96126 0.52541 0.0
C1068 C 0.76173 0.94076 0.55236 0.0
C1069 C 0.75243 0.91189 0.53294 0.0
C1070 C 0.80784 0.97441 0.44803 0.0
C1071 C 0.75197 0.94914 0.60181 0.0
H1072 H 0.85939 0.01951 0.59655 0.0
H1073 H 0.78019 0.06895 0.54575 0.0
H1074 H 0.82563 0.94404 0.59418 0.0
H1075 H 0.84643 0.95084 0.54065 0.0
H1076 H 0.86189 0.96503 0.59599 0.0
H1077 H 0.73454 0.04265 0.52098 0.0
H1078 H 0.74916 0.01695 0.47639 0.0
H1079 H 0.73099 1.00106 0.52778 0.0
H1080 H 0.78498 0.91839 0.42471 0.0
H1081 H 0.73856 0.89582 0.55352 0.0
H1082 H 0.79837 0.99826 0.44815 0.0
H1083 H 0.80887 0.96623 0.4108 0.0
H1084 H 0.83173 0.97583 0.46235 0.0
H1085 H 0.7726 0.95043 0.6252 0.0
H1086 H 0.7354 0.93193 0.61668 0.0
H1087 H 0.74112 0.97241 0.60206 0.0
C1088 C 0.03426 0.2372 0.49758 0.0
C1089 C 0.03778 0.20787 0.47678 0.0
C1090 C 0.00789 0.2442 0.52434 0.0
C1091 C 0.98466 0.22122 0.5307 0.0
C1092 C 0.98919 0.1909 0.51257 0.0
C1093 C 0.01556 0.18466 0.48549 0.0
C1094 C 0.00429 0.27649 0.54433 0.0
C1095 C 0.96572 0.16529 0.52061 0.0
C1096 C 0.9228 0.2301 0.62462 0.0
C1097 C 0.89762 0.24084 0.59811 0.0
C1098 C 0.95149 0.22444 0.60363 0.0
C1099 C 0.955 0.22912 0.55445 0.0
C1100 C 0.9297 0.2404 0.52749 0.0
C1101 C 0.90139 0.2466 0.54982 0.0
C1102 C 0.9779 0.21366 0.63443 0.0
C1103 C 0.93227 0.24496 0.47478 0.0
H1104 H 0.05139 0.25517 0.4909 0.0
H1105 H 0.01848 0.1618 0.47007 0.0
H1106 H 0.98387 0.28776 0.52808 0.0
H1107 H 0.00014 0.27526 0.58297 0.0
H1108 H 0.02496 0.29135 0.53796 0.0
H1109 H 0.97348 0.14257 0.50647 0.0
H1110 H 0.96116 0.16269 0.55899 0.0
H1111 H 0.94353 0.17142 0.50332 0.0
H1112 H 0.92007 0.22604 0.66207 0.0
H1113 H 0.88192 0.25483 0.52923 0.0
H1114 H 0.99335 0.23373 0.64228 0.0
H1115 H 0.99184 0.19568 0.61648 0.0
H1116 H 0.96959 0.20406 0.66855 0.0
H1117 H 0.95184 0.26086 0.46672 0.0
H1118 H 0.91083 0.25462 0.45907 0.0
H1119 H 0.93714 0.22235 0.45752 0.0
C1120 C 0.22813 0.96075 0.5607 0.0
C1121 C 0.2011 0.95977 0.58775 0.0
C1122 C 0.23532 0.98685 0.53287 0.0
C1123 C 0.21493 0.01245 0.53224 0.0
C1124 C 0.18608 0.01001 0.55534 0.0
C1125 C 0.17963 0.98381 0.58318 0.0
C1126 C 0.26585 0.98745 0.50733 0.0
C1127 C 0.16283 0.03593 0.5532 0.0
C1128 C 0.2468 0.09498 0.52797 0.0
C1129 C 0.24098 0.10303 0.48105 0.0
C1130 C 0.23926 0.06512 0.54456 0.0
C1131 C 0.22523 0.04315 0.5135 0.0
C1132 C 0.2201 0.05112 0.46561 0.0
C1133 C 0.22843 0.08091 0.44985 0.0
C1134 C 0.24569 0.05726 0.59563 0.0
C1135 C 0.20511 0.02855 0.43146 0.0
H1136 H 0.24465 0.94205 0.56361 0.0
H1137 H 0.15826 0.98269 0.60296 0.0
H1138 H 0.26694 0.00526 0.47909 0.0
H1139 H 0.2846 0.9923 0.53328 0.0
H1140 H 0.27043 0.96436 0.49131 0.0
H1141 H 0.13987 0.02852 0.5667 0.0
H1142 H 0.17123 0.05583 0.57485 0.0
H1143 H 0.16004 0.04431 0.51637 0.0
H1144 H 0.25676 0.11218 0.55177 0.0
H1145 H 0.2244 0.08721 0.41326 0.0
H1146 H 0.25932 0.03558 0.59784 0.0
H1147 H 0.22358 0.05306 0.61433 0.0
H1148 H 0.25853 0.07612 0.61428 0.0
H1149 H 0.20433 0.03779 0.39481 0.0
H1150 H 0.18114 0.02338 0.44289 0.0
H1151 H 0.21777 0.00624 0.43146 0.0
C1152 C 0.09982 0.77039 0.54978 0.0
C1153 C 0.10179 0.75463 0.59296 0.0
C1154 C 0.07107 0.77893 0.53079 0.0
C1155 C 0.04368 0.77265 0.55649 0.0
C1156 C 0.04562 0.75683 0.60023 0.0
C1157 C 0.07461 0.74736 0.61744 0.0
C1158 C 0.07003 0.7951 0.48349 0.0
C1159 C 0.01726 0.75119 0.62981 0.0
C1160 C 0.97541 0.82272 0.52002 0.0
C1161 C 0.95789 0.80184 0.49275 0.0
C1162 C 0.00272 0.81328 0.54264 0.0
C1163 C 0.01308 0.7823 0.53698 0.0
C1164 C 0.99487 0.76094 0.51032 0.0
C1165 C 0.9672 0.77088 0.48921 0.0
C1166 C 0.0201 0.8366 0.57273 0.0
C1167 C 0.00483 0.72776 0.50277 0.0
H1168 H 0.12085 0.77608 0.53087 0.0
H1169 H 0.07614 0.73547 0.65107 0.0
H1170 H 0.05321 0.78321 0.45968 0.0
H1171 H 0.06214 0.81936 0.48827 0.0
H1172 H 0.09296 0.79566 0.46602 0.0
H1173 H 0.02225 0.73647 0.66094 0.0
H1174 H 0.00823 0.77383 0.64225 0.0
H1175 H 0.99874 0.73982 0.60867 0.0
H1176 H 0.96804 0.84668 0.52276 0.0
H1177 H 0.95371 0.75486 0.46768 0.0
H1178 H 0.01378 0.86087 0.56378 0.0
H1179 H 0.04546 0.83423 0.56917 0.0
H1180 H 0.01402 0.8325 0.61027 0.0
H1181 H 0.99289 0.71696 0.47193 0.0
H1182 H -0.00099 0.71386 0.53454 0.0
H1183 H 0.03013 0.72626 0.49723 0.0
C1184 C 0.27572 0.29402 0.07191 0.0
C1185 C 0.25267 0.28338 0.04024 0.0
C1186 C 0.27678 0.28426 0.11993 0.0
C1187 C 0.25412 0.26332 0.13796 0.0
C1188 C 0.23095 0.25233 0.10609 0.0
C1189 C 0.23068 0.2622 0.05818 0.0
C1190 C 0.30241 0.29634 0.15145 0.0
C1191 C 0.20582 0.23047 0.12261 0.0
C1192 C 0.27214 0.21448 0.2495 0.0
C1193 C 0.2569 0.23041 0.28607 0.0
C1194 C 0.27155 0.22492 0.20195 0.0
C1195 C 0.25527 0.25225 0.1894 0.0
C1196 C 0.24007 0.26868 0.2262 0.0
C1197 C 0.24142 0.25793 0.27378 0.0
C1198 C 0.28814 0.20628 0.16482 0.0
C1199 C 0.22195 0.29755 0.21514 0.0
H1200 H 0.29306 0.31026 0.05927 0.0
H1201 H 0.21324 0.2529 1.0346 0.0
H1202 H 0.29255 0.30812 0.18279 0.0
H1203 H 0.3164 0.27664 0.16461 0.0
H1204 H 0.31792 0.31294 0.13286 0.0
H1205 H 0.19361 0.21906 0.09254 0.0
H1206 H 0.21519 0.2122 0.14616 0.0
H1207 H 0.18865 0.24387 0.14308 0.0
H1208 H 0.28428 0.19326 0.25796 0.0
H1209 H 0.22999 0.27093 0.30137 0.0
H1210 H 0.30536 0.22119 0.14655 0.0
H1211 H 0.27137 0.19797 0.1377 0.0
H1212 H 0.30018 0.18587 0.17997 0.0
H1213 H 0.23723 0.3152 0.19856 0.0
H1214 H 0.21134 0.30782 0.24718 0.0
H1215 H 0.20335 0.29191 0.18926 0.0
C1216 C 0.29225 0.732 1.00624 0.0
C1217 C 0.27533 0.74809 0.04088 0.0
C1218 C 0.28336 0.73157 0.95796 0.0
C1219 C 0.25708 0.74832 0.94248 0.0
C1220 C 0.23982 0.76465 0.97717 0.0
C1221 C 0.24858 0.76363 1.02574 0.0
C1222 C 0.30198 0.71261 0.92356 0.0
C1223 C 0.21213 0.78355 0.96289 0.0
C1224 C 0.25129 0.76585 0.80802 0.0
C1225 C 0.22802 0.74512 0.79246 0.0
C1226 C 0.26009 0.76799 0.85653 0.0
C1227 C 0.24702 0.74748 0.89061 0.0
C1228 C 0.22485 0.72533 0.87457 0.0
C1229 C 0.21538 0.7248 0.82657 0.0
C1230 C 0.28304 0.79272 0.87151 0.0
C1231 C 0.21124 0.70172 0.90815 0.0
H1232 H 0.31277 0.71951 1.01694 0.0
H1233 H 0.23452 0.77523 0.05181 0.0
H1234 H 0.28682 0.69513 0.90593 0.0
H1235 H 0.31157 0.72781 0.89553 0.0
H1236 H 0.32139 0.70032 0.94106 0.0
H1237 H 0.20273 0.79712 0.99292 0.0
H1238 H 0.2185 0.79986 0.93408 0.0
H1239 H 0.19364 0.76802 0.94897 0.0
H1240 H 0.26267 0.78057 0.78239 0.0
H1241 H 0.1977 0.70823 0.81581 0.0
H1242 H 0.30403 0.78184 0.88653 0.0
H1243 H 0.27288 0.80732 0.89975 0.0
H1244 H 0.28996 0.80797 0.84167 0.0
H1245 H 0.23001 0.68794 0.92451 0.0
H1246 H 0.19482 0.68552 0.89025 0.0
H1247 H 0.19894 0.71364 0.93718 0.0
C1248 C 0.72302 0.78974 0.24938 0.0
C1249 C 0.73934 0.77431 0.28548 0.0
C1250 C 0.72353 0.7795 0.20171 0.0
C1251 C 0.74141 0.75338 0.18852 0.0
C1252 C 0.75753 0.73733 0.22488 0.0
C1253 C 0.75554 0.74735 0.27272 0.0
C1254 C 0.70505 0.79699 0.1652 0.0
C1255 C 0.77773 0.71005 0.21304 0.0
C1256 C 0.72424 0.71015 0.07107 0.0
C1257 C 0.74551 0.72346 0.0392 0.0
C1258 C 0.72254 0.71971 0.11902 0.0
C1259 C 0.74303 0.74291 0.13695 0.0
C1260 C 0.76446 0.75657 0.10499 0.0
C1261 C 0.76504 0.74714 0.05683 0.0
C1262 C 0.69841 0.70512 0.15046 0.0
C1263 C 0.78739 0.78081 0.1218 0.0
H1264 H 0.71012 0.8104 0.25823 0.0
H1265 H 0.76742 0.73443 0.30004 0.0
H1266 H 0.72077 0.80727 0.13849 0.0
H1267 H 0.68919 0.78078 0.14627 0.0
H1268 H 0.69123 0.81593 0.1811 0.0
H1269 H 0.79021 0.70108 0.24453 0.0
H1270 H 0.76354 0.69095 0.19767 0.0
H1271 H 0.79495 0.71696 0.18597 0.0
H1272 H 0.7087 0.692 0.05859 0.0
H1273 H 0.78067 0.75868 1.03286 0.0
H1274 H 0.68345 0.72344 0.16548 0.0
H1275 H 0.70967 0.69316 0.18057 0.0
H1276 H 0.68361 0.68803 0.13122 0.0
H1277 H 0.776 0.79874 0.14367 0.0
H1278 H 0.79932 0.7925 0.09197 0.0
H1279 H 0.80502 0.76945 0.14436 0.0
C1280 C 0.79491 0.27129 0.83126 0.0
C1281 C 0.77554 0.26169 0.79379 0.0
C1282 C 0.78526 0.26992 0.87907 0.0
C1283 C 0.75502 0.2594 0.89064 0.0
C1284 C 0.73534 0.24966 0.85283 0.0
C1285 C 0.74576 0.2509 0.80527 0.0
C1286 C 0.8079 0.27893 0.9175 0.0
C1287 C 0.70319 0.23768 0.86262 0.0
C1288 C 0.73798 0.22777 1.01582 0.0
C1289 C 0.72497 0.25316 0.03948 0.0
C1290 C 0.74813 0.22954 0.96843 0.0
C1291 C 0.74463 0.25741 0.94218 0.0
C1292 C 0.73148 0.28338 0.96583 0.0
C1293 C 0.72222 0.28109 1.01402 0.0
C1294 C 0.76161 0.20076 0.94662 0.0
C1295 C 0.72651 0.31349 0.93981 0.0
H1296 H 0.81809 0.27935 0.82324 0.0
H1297 H 0.73037 0.24374 0.77689 0.0
H1298 H 0.79856 0.29838 0.9387 0.0
H1299 H 0.81127 0.259 0.94182 0.0
H1300 H 0.83073 0.28607 0.90317 0.0
H1301 H 0.69003 0.23264 0.82962 0.0
H1302 H 0.70452 0.21601 0.88369 0.0
H1303 H 0.6903 0.25493 0.88385 0.0
H1304 H 0.74061 0.20622 1.0345 0.0
H1305 H 0.71177 0.30088 1.03123 0.0
H1306 H 0.77803 0.20619 0.91778 0.0
H1307 H 0.74237 0.18644 0.9321 0.0
H1308 H 0.77373 0.18654 0.97356 0.0
H1309 H 0.74912 0.32353 0.92921 0.0
H1310 H 0.71415 0.33085 0.96163 0.0
H1311 H 0.71302 0.30912 0.90694 0.0
C1312 C 0.77526 0.75889 0.55473 0.0
C1313 C 0.75458 0.78266 0.54251 0.0
C1314 C 0.7774 0.74745 0.60191 0.0
C1315 C 0.75799 0.7594 0.63812 0.0
C1316 C 0.73722 0.78338 0.62582 0.0
C1317 C 0.73629 0.79495 0.57911 0.0
C1318 C 0.80058 0.72254 0.61309 0.0
C1319 C 0.71537 0.7966 0.66196 0.0
C1320 C 0.74103 0.7103 0.74958 0.0
C1321 C 0.75708 0.72635 0.78553 0.0
C1322 C 0.74082 0.72081 0.70206 0.0
C1323 C 0.75896 0.747 0.68865 0.0
C1324 C 0.77694 0.76208 0.72435 0.0
C1325 C 0.77561 0.7518 0.77204 0.0
C1326 C 0.7205 0.70421 0.66643 0.0
C1327 C 0.79779 0.78911 0.71207 0.0
H1328 H 0.78988 0.74925 0.5275 0.0
H1329 H 0.72089 0.81393 0.57144 0.0
H1330 H 0.81602 0.73041 0.64225 0.0
H1331 H 0.78846 0.70126 0.62541 0.0
H1332 H 0.81491 0.71649 0.58199 0.0
H1333 H 0.70185 0.81636 0.64784 0.0
H1334 H 0.69904 0.77815 0.67362 0.0
H1335 H 0.72829 0.80471 0.69367 0.0
H1336 H 0.72876 0.6891 0.7585 0.0
H1337 H 0.78933 0.76359 0.79884 0.0
H1338 H 0.73353 0.69888 0.63381 0.0
H1339 H 0.70114 0.71961 0.6562 0.0
H1340 H 0.71069 0.68222 0.68065 0.0
H1341 H 0.81391 0.78224 0.68359 0.0
H1342 H 0.81148 0.79744 0.74298 0.0
H1343 H 0.78386 0.80868 0.69838 0.0
C1344 C 0.74983 0.26482 0.52508 0.0
C1345 C 0.77548 0.24799 0.54142 0.0
C1346 C 0.74168 0.26574 0.47632 0.0
C1347 C 0.75847 0.24814 0.4426 0.0
C1348 C 0.78376 0.23032 0.45917 0.0
C1349 C 0.79204 0.23072 0.50771 0.0
C1350 C 0.71507 0.28576 0.4608 0.0
C1351 C 0.80194 0.21032 0.42561 0.0
C1352 C 0.71675 0.22453 0.32693 0.0
C1353 C 0.72983 0.24443 0.29271 0.0
C1354 C 0.72604 0.2253 0.37498 0.0
C1355 C 0.74874 0.247 0.39068 0.0
C1356 C 0.76239 0.26695 0.35638 0.0
C1357 C 0.75341 0.26487 0.30799 0.0
C1358 C 0.71135 0.20272 0.4091 0.0
C1359 C 0.78612 0.29102 0.371 0.0
H1360 H 0.73603 0.27739 0.55042 0.0
H1361 H 0.81178 0.21734 0.51928 0.0
H1362 H 0.7226 0.30167 0.43214 0.0
H1363 H 0.69618 0.27097 0.44625 0.0
H1364 H 0.70575 0.29986 0.49032 0.0
H1365 H 0.82074 0.19753 0.44378 0.0
H1366 H 0.7863 0.19321 0.40812 0.0
H1367 H 0.81225 0.22488 0.39739 0.0
H1368 H 0.69865 0.20838 0.31635 0.0
H1369 H 0.76479 0.27952 0.28223 0.0
H1370 H 0.69881 0.21559 0.43694 0.0
H1371 H 0.72948 0.18887 0.42697 0.0
H1372 H 0.69486 0.18652 0.39133 0.0
H1373 H 0.77634 0.30636 0.39863 0.0
H1374 H 0.79377 0.30562 0.34083 0.0
H1375 H 0.80659 0.27955 0.38667 0.0
C1376 C 0.22706 0.2948 0.74927 0.0
C1377 C 0.24103 0.27817 0.78644 0.0
C1378 C 0.22788 0.28435 0.70165 0.0
C1379 C 0.24321 0.25636 0.68967 0.0
C1380 C 0.257 0.23919 0.72712 0.0
C1381 C 0.25525 0.24989 0.77472 0.0
C1382 C 0.21257 0.30363 0.66387 0.0
C1383 C 0.2742 0.20967 0.71674 0.0
C1384 C 0.22317 0.21497 0.57124 0.0
C1385 C 0.24705 0.22465 0.54069 0.0
C1386 C 0.22167 0.225 0.6191 0.0
C1387 C 0.24471 0.24524 0.63823 0.0
C1388 C 0.26873 0.2553 0.60749 0.0
C1389 C 0.26944 0.24514 0.55967 0.0
C1390 C 0.19516 0.21392 0.6493 0.0
C1391 C 0.29435 0.27634 0.62511 0.0
H1392 H 0.21575 0.31654 0.75733 0.0
H1393 H 0.26551 0.23626 0.80279 0.0
H1394 H 0.23001 0.31126 0.63761 0.0
H1395 H 0.19503 0.2894 0.64471 0.0
H1396 H 0.20113 0.32451 0.67858 0.0
H1397 H 0.2837 0.19883 0.74926 0.0
H1398 H 0.25864 0.19269 0.69882 0.0
H1399 H 0.29354 0.21472 0.69223 0.0
H1400 H 0.20549 0.19926 0.55782 0.0
H1401 H 0.28758 0.25367 0.53699 0.0
H1402 H 0.182 0.23417 0.66248 0.0
H1403 H 0.20412 0.20137 0.68066 0.0
H1404 H 0.17906 0.19827 0.62967 0.0
H1405 H 0.28557 0.29434 0.64961 0.0
H1406 H 0.30655 0.28808 0.59556 0.0
H1407 H 0.31142 0.26215 0.64467 0.0
C1408 C 0.29173 0.772 0.33099 0.0
C1409 C 0.27509 0.75693 0.29456 0.0
C1410 C 0.28197 0.77104 0.37857 0.0
C1411 C 0.2552 0.75376 0.3912 0.0
C1412 C 0.23824 0.73845 0.35468 0.0
C1413 C 0.24792 0.74087 0.30694 0.0
C1414 C 0.30018 0.78901 0.41532 0.0
C1415 C 0.20994 0.71925 0.36615 0.0
C1416 C 0.24761 0.7323 0.52333 0.0
C1417 C 0.22434 0.75236 0.53907 0.0
C1418 C 0.25715 0.73174 0.47538 0.0
C1419 C 0.2444 0.75292 0.4422 0.0
C1420 C 0.22204 0.77429 0.45841 0.0
C1421 C 0.212 0.77336 0.50586 0.0
C1422 C 0.28042 0.70791 0.46002 0.0
C1423 C 0.20908 0.79875 0.4258 0.0
H1424 H 0.3126 0.78482 0.32232 0.0
H1425 H 0.23399 0.73041 0.27923 0.0
H1426 H 0.28483 0.80561 0.43369 0.0
H1427 H 0.3094 0.77295 0.44245 0.0
H1428 H 0.31981 0.80219 0.39974 0.0
H1429 H 0.19901 0.709 0.33404 0.0
H1430 H 0.21638 0.70022 0.39067 0.0
H1431 H 0.19258 0.73363 0.38451 0.0
H1432 H 0.25865 0.71717 0.5485 0.0
H1433 H 0.19436 0.7895 0.51694 0.0
H1434 H 0.29879 0.7186 0.43807 0.0
H1435 H 0.26856 0.69016 0.43782 0.0
H1436 H 0.29143 0.69613 0.49057 0.0
H1437 H 0.22816 0.81356 0.41217 0.0
H1438 H 0.19206 0.81387 0.44371 0.0
H1439 H 0.19768 0.78769 0.39481 0.0
loop_
_geom_bond_atom_site_label_1
_geom_bond_atom_site_label_2
_geom_bond_distance
_geom_bond_site_symmetry_2
_ccdc_geom_bond_type
Eu0 N29 2.600 . S
Eu0 N35 2.562 . S
Eu0 O44 2.462 . S
Eu0 O45 2.373 . S
Eu0 O47 2.432 . S
Eu0 O48 2.291 . S
Eu0 O52 2.335 . S
Eu0 O55 2.372 . S
Eu0 C64 2.787 . S
C1 N2 1.365 . S
C1 C4 1.405 . S
C1 C8 1.448 . S
N2 C1 1.365 . S
N2 C5 1.319 . S
N2 Eu11 2.600 . S
C3 C5 1.397 . S
C3 C6 1.367 . S
C3 H23 0.931 . S
C4 C1 1.405 . S
C4 C6 1.403 . S
C4 C10 1.439 . S
C5 N2 1.319 . S
C5 C3 1.397 . S
C5 H16 0.930 . S
C6 C3 1.367 . S
C6 C4 1.403 . S
C6 H27 0.929 . S
C7 C8 1.430 . S
C7 C9 1.387 . S
C7 C13 1.404 . S
C8 C1 1.448 . S
C8 C7 1.430 . S
C8 N12 1.351 . S
C9 C7 1.387 . S
C9 C10 1.374 . S
C9 H24 0.931 . S
C10 C4 1.439 . S
C10 C9 1.374 . S
C10 H25 0.931 . S
Eu11 N2 2.600 . S
Eu11 N12 2.562 . S
Eu11 O46 2.335 . S
Eu11 O49 2.372 . S
Eu11 O50 2.462 . S
Eu11 O51 2.373 . S
Eu11 O53 2.432 . S
Eu11 O54 2.291 . S
Eu11 C75 2.787 . S
N12 C8 1.351 . S
N12 Eu11 2.562 . S
N12 C14 1.325 . S
C13 C7 1.404 . S
C13 C15 1.366 . S
C13 H21 0.930 . S
C14 N12 1.325 . S
C14 C15 1.416 . S
C14 H20 0.929 . S
C15 C13 1.366 . S
C15 C14 1.416 . S
C15 H17 0.930 . S
H16 C5 0.930 . S
H17 C15 0.930 . S
H18 C33 0.930 . S
H19 C40 0.930 . S
H20 C14 0.929 . S
H21 C13 0.930 . S
H22 C36 0.929 . S
H23 C3 0.931 . S
H24 C9 0.931 . S
H25 C10 0.931 . S
H26 C31 0.931 . S
H27 C6 0.929 . S
H28 C39 0.930 . S
N29 Eu0 2.600 . S
N29 C30 1.365 . S
N29 C33 1.319 . S
C30 N29 1.365 . S
C30 C32 1.405 . S
C30 C38 1.448 . S
C31 H26 0.931 . S
C31 C33 1.397 . S
C31 C34 1.367 . S
C32 C30 1.405 . S
C32 C34 1.403 . S
C32 C65 1.439 . S
C33 H18 0.930 . S
C33 N29 1.319 . S
C33 C31 1.397 . S
C34 C31 1.367 . S
C34 C32 1.403 . S
C34 H41 0.929 . S
N35 Eu0 2.562 . S
N35 C36 1.325 . S
N35 C38 1.351 . S
C36 H22 0.929 . S
C36 N35 1.325 . S
C36 C40 1.416 . S
C37 C38 1.430 . S
C37 C39 1.404 . S
C37 C66 1.387 . S
C38 C30 1.448 . S
C38 N35 1.351 . S
C38 C37 1.430 . S
C39 H28 0.930 . S
C39 C37 1.404 . S
C39 C40 1.366 . S
C40 H19 0.930 . S
C40 C36 1.416 . S
C40 C39 1.366 . S
H41 C34 0.929 . S
H42 C65 0.931 . S
H43 C66 0.931 . S
O44 Eu0 2.462 . S
O44 C64 1.252 . S
O45 Eu0 2.373 . S
O45 C56 1.249 . S
O46 Eu11 2.335 . S
O46 C56 1.264 . S
O47 Eu0 2.432 . S
O47 C64 1.268 . S
O48 Eu0 2.291 . S
O48 C63 1.255 . S
O49 Eu11 2.372 . S
O49 C63 1.257 . S
O50 Eu11 2.462 . S
O50 C75 1.252 . S
O51 Eu11 2.373 . S
O51 C67 1.249 . S
O52 Eu0 2.335 . S
O52 C67 1.264 . S
O53 Eu11 2.432 . S
O53 C75 1.268 . S
O54 Eu11 2.291 . S
O54 C74 1.255 . S
O55 Eu0 2.372 . S
O55 C74 1.257 . S
C56 O45 1.249 . S
C56 O46 1.264 . S
C57 C60 1.382 . S
C57 C62 1.390 . S
C57 C64 1.506 . S
C58 C59 1.398 . S
C58 C62 1.392 . S
C59 C58 1.398 . S
C59 C61 1.372 . S
C59 H76 0.931 . S
C60 C57 1.382 . S
C60 C61 1.390 . S
C60 H77 0.931 . S
C61 C59 1.372 . S
C61 C60 1.390 . S
C61 H78 0.929 . S
C62 C57 1.390 . S
C62 C58 1.392 . S
C62 H79 0.930 . S
C63 O48 1.255 . S
C63 O49 1.257 . S
C64 Eu0 2.787 . S
C64 O44 1.252 . S
C64 O47 1.268 . S
C64 C57 1.506 . S
C65 C32 1.439 . S
C65 H42 0.931 . S
C65 C66 1.374 . S
C66 C37 1.387 . S
C66 H43 0.931 . S
C66 C65 1.374 . S
C67 O51 1.249 . S
C67 O52 1.264 . S
C68 C71 1.382 . S
C68 C72 1.390 . S
C68 C75 1.506 . S
C69 C70 1.398 . S
C69 C72 1.392 . S
C70 C69 1.398 . S
C70 C73 1.372 . S
C70 H80 0.931 . S
C71 C68 1.382 . S
C71 C73 1.390 . S
C71 H81 0.931 . S
C72 C68 1.390 . S
C72 C69 1.392 . S
C72 H82 0.930 . S
C73 C70 1.372 . S
C73 C71 1.390 . S
C73 H83 0.929 . S
C74 O54 1.255 . S
C74 O55 1.257 . S
C75 Eu11 2.787 . S
C75 O50 1.252 . S
C75 O53 1.268 . S
C75 C68 1.506 . S
H76 C59 0.931 . S
H77 C60 0.931 . S
H78 C61 0.929 . S
H79 C62 0.930 . S
H80 C70 0.931 . S
H81 C71 0.931 . S
H82 C72 0.930 . S
H83 C73 0.929 . S
Eu84 N113 2.600 . S
Eu84 N119 2.562 . S
Eu84 O128 2.462 . S
Eu84 O129 2.373 . S
Eu84 O131 2.432 . S
Eu84 O132 2.291 . S
Eu84 O136 2.335 . S
Eu84 O139 2.372 . S
Eu84 C148 2.787 . S
C85 N86 1.365 . S
C85 C88 1.405 . S
C85 C92 1.448 . S
N86 C85 1.365 . S
N86 C89 1.319 . S
N86 Eu95 2.600 . S
C87 C89 1.397 . S
C87 C90 1.367 . S
C87 H107 0.931 . S
C88 C85 1.405 . S
C88 C90 1.403 . S
C88 C94 1.439 . S
C89 N86 1.319 . S
C89 C87 1.397 . S
C89 H100 0.930 . S
C90 C87 1.367 . S
C90 C88 1.403 . S
C90 H111 0.929 . S
C91 C92 1.430 . S
C91 C93 1.387 . S
C91 C97 1.404 . S
C92 C85 1.448 . S
C92 C91 1.430 . S
C92 N96 1.351 . S
C93 C91 1.387 . S
C93 C94 1.374 . S
C93 H108 0.931 . S
C94 C88 1.439 . S
C94 C93 1.374 . S
C94 H109 0.931 . S
Eu95 N86 2.600 . S
Eu95 N96 2.562 . S
Eu95 O130 2.335 . S
Eu95 O133 2.372 . S
Eu95 O134 2.462 . S
Eu95 O135 2.373 . S
Eu95 O137 2.432 . S
Eu95 O138 2.291 . S
Eu95 C159 2.787 . S
N96 C92 1.351 . S
N96 Eu95 2.562 . S
N96 C98 1.325 . S
C97 C91 1.404 . S
C97 C99 1.366 . S
C97 H105 0.930 . S
C98 N96 1.325 . S
C98 C99 1.416 . S
C98 H104 0.929 . S
C99 C97 1.366 . S
C99 C98 1.416 . S
C99 H101 0.930 . S
H100 C89 0.930 . S
H101 C99 0.930 . S
H102 C117 0.930 . S
H103 C124 0.930 . S
H104 C98 0.929 . S
H105 C97 0.930 . S
H106 C120 0.929 . S
H107 C87 0.931 . S
H108 C93 0.931 . S
H109 C94 0.931 . S
H110 C115 0.931 . S
H111 C90 0.929 . S
H112 C123 0.930 . S
N113 Eu84 2.600 . S
N113 C114 1.365 . S
N113 C117 1.319 . S
C114 N113 1.365 . S
C114 C116 1.405 . S
C114 C122 1.448 . S
C115 H110 0.931 . S
C115 C117 1.397 . S
C115 C118 1.367 . S
C116 C114 1.405 . S
C116 C118 1.403 . S
C116 C149 1.439 . S
C117 H102 0.930 . S
C117 N113 1.319 . S
C117 C115 1.397 . S
C118 C115 1.367 . S
C118 C116 1.403 . S
C118 H125 0.929 . S
N119 Eu84 2.562 . S
N119 C120 1.325 . S
N119 C122 1.351 . S
C120 H106 0.929 . S
C120 N119 1.325 . S
C120 C124 1.416 . S
C121 C122 1.430 . S
C121 C123 1.404 . S
C121 C150 1.387 . S
C122 C114 1.448 . S
C122 N119 1.351 . S
C122 C121 1.430 . S
C123 H112 0.930 . S
C123 C121 1.404 . S
C123 C124 1.366 . S
C124 H103 0.930 . S
C124 C120 1.416 . S
C124 C123 1.366 . S
H125 C118 0.929 . S
H126 C149 0.931 . S
H127 C150 0.931 . S
O128 Eu84 2.462 . S
O128 C148 1.252 . S
O129 Eu84 2.373 . S
O129 C140 1.249 . S
O130 Eu95 2.335 . S
O130 C140 1.264 . S
O131 Eu84 2.432 . S
O131 C148 1.268 . S
O132 Eu84 2.291 . S
O132 C147 1.255 . S
O133 Eu95 2.372 . S
O133 C147 1.257 . S
O134 Eu95 2.462 . S
O134 C159 1.252 . S
O135 Eu95 2.373 . S
O135 C151 1.249 . S
O136 Eu84 2.335 . S
O136 C151 1.264 . S
O137 Eu95 2.432 . S
O137 C159 1.268 . S
O138 Eu95 2.291 . S
O138 C158 1.255 . S
O139 Eu84 2.372 . S
O139 C158 1.257 . S
C140 O129 1.249 . S
C140 O130 1.264 . S
C141 C144 1.382 . S
C141 C146 1.390 . S
C141 C148 1.506 . S
C142 C143 1.398 . S
C142 C146 1.392 . S
C143 C142 1.398 . S
C143 C145 1.372 . S
C143 H160 0.931 . S
C144 C141 1.382 . S
C144 C145 1.390 . S
C144 H161 0.931 . S
C145 C143 1.372 . S
C145 C144 1.390 . S
C145 H162 0.929 . S
C146 C141 1.390 . S
C146 C142 1.392 . S
C146 H163 0.930 . S
C147 O132 1.255 . S
C147 O133 1.257 . S
C148 Eu84 2.787 . S
C148 O128 1.252 . S
C148 O131 1.268 . S
C148 C141 1.506 . S
C149 C116 1.439 . S
C149 H126 0.931 . S
C149 C150 1.374 . S
C150 C121 1.387 . S
C150 H127 0.931 . S
C150 C149 1.374 . S
C151 O135 1.249 . S
C151 O136 1.264 . S
C152 C155 1.382 . S
C152 C156 1.390 . S
C152 C159 1.506 . S
C153 C154 1.398 . S
C153 C156 1.392 . S
C154 C153 1.398 . S
C154 C157 1.372 . S
C154 H164 0.931 . S
C155 C152 1.382 . S
C155 C157 1.390 . S
C155 H165 0.931 . S
C156 C152 1.390 . S
C156 C153 1.392 . S
C156 H166 0.930 . S
C157 C154 1.372 . S
C157 C155 1.390 . S
C157 H167 0.929 . S
C158 O138 1.255 . S
C158 O139 1.257 . S
C159 Eu95 2.787 . S
C159 O134 1.252 . S
C159 O137 1.268 . S
C159 C152 1.506 . S
H160 C143 0.931 . S
H161 C144 0.931 . S
H162 C145 0.929 . S
H163 C146 0.930 . S
H164 C154 0.931 . S
H165 C155 0.931 . S
H166 C156 0.930 . S
H167 C157 0.929 . S
Eu168 N197 2.600 . S
Eu168 N203 2.562 . S
Eu168 O212 2.462 . S
Eu168 O213 2.373 . S
Eu168 O215 2.432 . S
Eu168 O216 2.291 . S
Eu168 O220 2.335 . S
Eu168 O223 2.372 . S
Eu168 C232 2.787 . S
C169 N170 1.365 . S
C169 C172 1.405 . S
C169 C176 1.448 . S
N170 C169 1.365 . S
N170 C173 1.319 . S
N170 Eu179 2.600 . S
C171 C173 1.397 . S
C171 C174 1.367 . S
C171 H191 0.931 . S
C172 C169 1.405 . S
C172 C174 1.403 . S
C172 C178 1.439 . S
C173 N170 1.319 . S
C173 C171 1.397 . S
C173 H184 0.930 . S
C174 C171 1.367 . S
C174 C172 1.403 . S
C174 H195 0.929 . S
C175 C176 1.430 . S
C175 C177 1.387 . S
C175 C181 1.404 . S
C176 C169 1.448 . S
C176 C175 1.430 . S
C176 N180 1.351 . S
C177 C175 1.387 . S
C177 C178 1.374 . S
C177 H192 0.931 . S
C178 C172 1.439 . S
C178 C177 1.374 . S
C178 H193 0.931 . S
Eu179 N170 2.600 . S
Eu179 N180 2.562 . S
Eu179 O214 2.335 . S
Eu179 O217 2.372 . S
Eu179 O218 2.462 . S
Eu179 O219 2.373 . S
Eu179 O221 2.432 . S
Eu179 O222 2.291 . S
Eu179 C243 2.787 . S
N180 C176 1.351 . S
N180 Eu179 2.562 . S
N180 C182 1.325 . S
C181 C175 1.404 . S
C181 C183 1.366 . S
C181 H189 0.930 . S
C182 N180 1.325 . S
C182 C183 1.416 . S
C182 H188 0.929 . S
C183 C181 1.366 . S
C183 C182 1.416 . S
C183 H185 0.930 . S
H184 C173 0.930 . S
H185 C183 0.930 . S
H186 C201 0.930 . S
H187 C208 0.930 . S
H188 C182 0.929 . S
H189 C181 0.930 . S
H190 C204 0.929 . S
H191 C171 0.931 . S
H192 C177 0.931 . S
H193 C178 0.931 . S
H194 C199 0.931 . S
H195 C174 0.929 . S
H196 C207 0.930 . S
N197 Eu168 2.600 . S
N197 C198 1.365 . S
N197 C201 1.319 . S
C198 N197 1.365 . S
C198 C200 1.405 . S
C198 C206 1.448 . S
C199 H194 0.931 . S
C199 C201 1.397 . S
C199 C202 1.367 . S
C200 C198 1.405 . S
C200 C202 1.403 . S
C200 C233 1.439 . S
C201 H186 0.930 . S
C201 N197 1.319 . S
C201 C199 1.397 . S
C202 C199 1.367 . S
C202 C200 1.403 . S
C202 H209 0.929 . S
N203 Eu168 2.562 . S
N203 C204 1.325 . S
N203 C206 1.351 . S
C204 H190 0.929 . S
C204 N203 1.325 . S
C204 C208 1.416 . S
C205 C206 1.430 . S
C205 C207 1.404 . S
C205 C234 1.387 . S
C206 C198 1.448 . S
C206 N203 1.351 . S
C206 C205 1.430 . S
C207 H196 0.930 . S
C207 C205 1.404 . S
C207 C208 1.366 . S
C208 H187 0.930 . S
C208 C204 1.416 . S
C208 C207 1.366 . S
H209 C202 0.929 . S
H210 C233 0.931 . S
H211 C234 0.931 . S
O212 Eu168 2.462 . S
O212 C232 1.252 . S
O213 Eu168 2.373 . S
O213 C224 1.249 . S
O214 Eu179 2.335 . S
O214 C224 1.264 . S
O215 Eu168 2.432 . S
O215 C232 1.268 . S
O216 Eu168 2.291 . S
O216 C231 1.255 . S
O217 Eu179 2.372 . S
O217 C231 1.257 . S
O218 Eu179 2.462 . S
O218 C243 1.252 . S
O219 Eu179 2.373 . S
O219 C235 1.249 . S
O220 Eu168 2.335 . S
O220 C235 1.264 . S
O221 Eu179 2.432 . S
O221 C243 1.268 . S
O222 Eu179 2.291 . S
O222 C242 1.255 . S
O223 Eu168 2.372 . S
O223 C242 1.257 . S
C224 O213 1.249 . S
C224 O214 1.264 . S
C225 C228 1.382 . S
C225 C230 1.390 . S
C225 C232 1.506 . S
C226 C227 1.398 . S
C226 C230 1.392 . S
C227 C226 1.398 . S
C227 C229 1.372 . S
C227 H244 0.931 . S
C228 C225 1.382 . S
C228 C229 1.390 . S
C228 H245 0.931 . S
C229 C227 1.372 . S
C229 C228 1.390 . S
C229 H246 0.929 . S
C230 C225 1.390 . S
C230 C226 1.392 . S
C230 H247 0.930 . S
C231 O216 1.255 . S
C231 O217 1.257 . S
C232 Eu168 2.787 . S
C232 O212 1.252 . S
C232 O215 1.268 . S
C232 C225 1.506 . S
C233 C200 1.439 . S
C233 H210 0.931 . S
C233 C234 1.374 . S
C234 C205 1.387 . S
C234 H211 0.931 . S
C234 C233 1.374 . S
C235 O219 1.249 . S
C235 O220 1.264 . S
C236 C239 1.382 . S
C236 C240 1.390 . S
C236 C243 1.506 . S
C237 C238 1.398 . S
C237 C240 1.392 . S
C238 C237 1.398 . S
C238 C241 1.372 . S
C238 H248 0.931 . S
C239 C236 1.382 . S
C239 C241 1.390 . S
C239 H249 0.931 . S
C240 C236 1.390 . S
C240 C237 1.392 . S
C240 H250 0.930 . S
C241 C238 1.372 . S
C241 C239 1.390 . S
C241 H251 0.929 . S
C242 O222 1.255 . S
C242 O223 1.257 . S
C243 Eu179 2.787 . S
C243 O218 1.252 . S
C243 O221 1.268 . S
C243 C236 1.506 . S
H244 C227 0.931 . S
H245 C228 0.931 . S
H246 C229 0.929 . S
H247 C230 0.930 . S
H248 C238 0.931 . S
H249 C239 0.931 . S
H250 C240 0.930 . S
H251 C241 0.929 . S
Eu252 N281 2.600 . S
Eu252 N287 2.562 . S
Eu252 O296 2.462 . S
Eu252 O297 2.373 . S
Eu252 O299 2.432 . S
Eu252 O300 2.291 . S
Eu252 O304 2.335 . S
Eu252 O307 2.372 . S
Eu252 C316 2.787 . S
C253 N254 1.365 . S
C253 C256 1.405 . S
C253 C260 1.448 . S
N254 C253 1.365 . S
N254 C257 1.319 . S
N254 Eu263 2.600 . S
C255 C257 1.397 . S
C255 C258 1.367 . S
C255 H275 0.931 . S
C256 C253 1.405 . S
C256 C258 1.403 . S
C256 C262 1.439 . S
C257 N254 1.319 . S
C257 C255 1.397 . S
C257 H268 0.930 . S
C258 C255 1.367 . S
C258 C256 1.403 . S
C258 H279 0.929 . S
C259 C260 1.430 . S
C259 C261 1.387 . S
C259 C265 1.404 . S
C260 C253 1.448 . S
C260 C259 1.430 . S
C260 N264 1.351 . S
C261 C259 1.387 . S
C261 C262 1.374 . S
C261 H276 0.931 . S
C262 C256 1.439 . S
C262 C261 1.374 . S
C262 H277 0.931 . S
Eu263 N254 2.600 . S
Eu263 N264 2.562 . S
Eu263 O298 2.335 . S
Eu263 O301 2.372 . S
Eu263 O302 2.462 . S
Eu263 O303 2.373 . S
Eu263 O305 2.432 . S
Eu263 O306 2.291 . S
Eu263 C327 2.787 . S
N264 C260 1.351 . S
N264 Eu263 2.562 . S
N264 C266 1.325 . S
C265 C259 1.404 . S
C265 C267 1.366 . S
C265 H273 0.930 . S
C266 N264 1.325 . S
C266 C267 1.416 . S
C266 H272 0.929 . S
C267 C265 1.366 . S
C267 C266 1.416 . S
C267 H269 0.930 . S
H268 C257 0.930 . S
H269 C267 0.930 . S
H270 C285 0.930 . S
H271 C292 0.930 . S
H272 C266 0.929 . S
H273 C265 0.930 . S
H274 C288 0.929 . S
H275 C255 0.931 . S
H276 C261 0.931 . S
H277 C262 0.931 . S
H278 C283 0.931 . S
H279 C258 0.929 . S
H280 C291 0.930 . S
N281 Eu252 2.600 . S
N281 C282 1.365 . S
N281 C285 1.319 . S
C282 N281 1.365 . S
C282 C284 1.405 . S
C282 C290 1.448 . S
C283 H278 0.931 . S
C283 C285 1.397 . S
C283 C286 1.367 . S
C284 C282 1.405 . S
C284 C286 1.403 . S
C284 C317 1.439 . S
C285 H270 0.930 . S
C285 N281 1.319 . S
C285 C283 1.397 . S
C286 C283 1.367 . S
C286 C284 1.403 . S
C286 H293 0.929 . S
N287 Eu252 2.562 . S
N287 C288 1.325 . S
N287 C290 1.351 . S
C288 H274 0.929 . S
C288 N287 1.325 . S
C288 C292 1.416 . S
C289 C290 1.430 . S
C289 C291 1.404 . S
C289 C318 1.387 . S
C290 C282 1.448 . S
C290 N287 1.351 . S
C290 C289 1.430 . S
C291 H280 0.930 . S
C291 C289 1.404 . S
C291 C292 1.366 . S
C292 H271 0.930 . S
C292 C288 1.416 . S
C292 C291 1.366 . S
H293 C286 0.929 . S
H294 C317 0.931 . S
H295 C318 0.931 . S
O296 Eu252 2.462 . S
O296 C316 1.252 . S
O297 Eu252 2.373 . S
O297 C308 1.249 . S
O298 Eu263 2.335 . S
O298 C308 1.264 . S
O299 Eu252 2.432 . S
O299 C316 1.268 . S
O300 Eu252 2.291 . S
O300 C315 1.255 . S
O301 Eu263 2.372 . S
O301 C315 1.257 . S
O302 Eu263 2.462 . S
O302 C327 1.252 . S
O303 Eu263 2.373 . S
O303 C319 1.249 . S
O304 Eu252 2.335 . S
O304 C319 1.264 . S
O305 Eu263 2.432 . S
O305 C327 1.268 . S
O306 Eu263 2.291 . S
O306 C326 1.255 . S
O307 Eu252 2.372 . S
O307 C326 1.257 . S
C308 O297 1.249 . S
C308 O298 1.264 . S
C309 C312 1.382 . S
C309 C314 1.390 . S
C309 C316 1.506 . S
C310 C311 1.398 . S
C310 C314 1.392 . S
C311 C310 1.398 . S
C311 C313 1.372 . S
C311 H328 0.931 . S
C312 C309 1.382 . S
C312 C313 1.390 . S
C312 H329 0.931 . S
C313 C311 1.372 . S
C313 C312 1.390 . S
C313 H330 0.929 . S
C314 C309 1.390 . S
C314 C310 1.392 . S
C314 H331 0.930 . S
C315 O300 1.255 . S
C315 O301 1.257 . S
C316 Eu252 2.787 . S
C316 O296 1.252 . S
C316 O299 1.268 . S
C316 C309 1.506 . S
C317 C284 1.439 . S
C317 H294 0.931 . S
C317 C318 1.374 . S
C318 C289 1.387 . S
C318 H295 0.931 . S
C318 C317 1.374 . S
C319 O303 1.249 . S
C319 O304 1.264 . S
C320 C323 1.382 . S
C320 C324 1.390 . S
C320 C327 1.506 . S
C321 C322 1.398 . S
C321 C324 1.392 . S
C322 C321 1.398 . S
C322 C325 1.372 . S
C322 H332 0.931 . S
C323 C320 1.382 . S
C323 C325 1.390 . S
C323 H333 0.931 . S
C324 C320 1.390 . S
C324 C321 1.392 . S
C324 H334 0.930 . S
C325 C322 1.372 . S
C325 C323 1.390 . S
C325 H335 0.929 . S
C326 O306 1.255 . S
C326 O307 1.257 . S
C327 Eu263 2.787 . S
C327 O302 1.252 . S
C327 O305 1.268 . S
C327 C320 1.506 . S
H328 C311 0.931 . S
H329 C312 0.931 . S
H330 C313 0.929 . S
H331 C314 0.930 . S
H332 C322 0.931 . S
H333 C323 0.931 . S
H334 C324 0.930 . S
H335 C325 0.929 . S
Eu336 N365 2.600 . S
Eu336 N371 2.562 . S
Eu336 O380 2.462 . S
Eu336 O381 2.373 . S
Eu336 O383 2.432 . S
Eu336 O384 2.291 . S
Eu336 O388 2.335 . S
Eu336 O391 2.372 . S
Eu336 C400 2.787 . S
C337 N338 1.365 . S
C337 C340 1.405 . S
C337 C344 1.448 . S
N338 C337 1.365 . S
N338 C341 1.319 . S
N338 Eu347 2.600 . S
C339 C341 1.397 . S
C339 C342 1.367 . S
C339 H359 0.931 . S
C340 C337 1.405 . S
C340 C342 1.403 . S
C340 C346 1.439 . S
C341 N338 1.319 . S
C341 C339 1.397 . S
C341 H352 0.930 . S
C342 C339 1.367 . S
C342 C340 1.403 . S
C342 H363 0.929 . S
C343 C344 1.430 . S
C343 C345 1.387 . S
C343 C349 1.404 . S
C344 C337 1.448 . S
C344 C343 1.430 . S
C344 N348 1.351 . S
C345 C343 1.387 . S
C345 C346 1.374 . S
C345 H360 0.931 . S
C346 C340 1.439 . S
C346 C345 1.374 . S
C346 H361 0.931 . S
Eu347 N338 2.600 . S
Eu347 N348 2.562 . S
Eu347 O382 2.335 . S
Eu347 O385 2.372 . S
Eu347 O386 2.462 . S
Eu347 O387 2.373 . S
Eu347 O389 2.432 . S
Eu347 O390 2.291 . S
Eu347 C411 2.787 . S
N348 C344 1.351 . S
N348 Eu347 2.562 . S
N348 C350 1.325 . S
C349 C343 1.404 . S
C349 C351 1.366 . S
C349 H357 0.930 . S
C350 N348 1.325 . S
C350 C351 1.416 . S
C350 H356 0.929 . S
C351 C349 1.366 . S
C351 C350 1.416 . S
C351 H353 0.930 . S
H352 C341 0.930 . S
H353 C351 0.930 . S
H354 C369 0.930 . S
H355 C376 0.930 . S
H356 C350 0.929 . S
H357 C349 0.930 . S
H358 C372 0.929 . S
H359 C339 0.931 . S
H360 C345 0.931 . S
H361 C346 0.931 . S
H362 C367 0.931 . S
H363 C342 0.929 . S
H364 C375 0.930 . S
N365 Eu336 2.600 . S
N365 C366 1.365 . S
N365 C369 1.319 . S
C366 N365 1.365 . S
C366 C368 1.405 1_556 S
C366 C374 1.448 . S
C367 H362 0.931 . S
C367 C369 1.397 1_554 S
C367 C370 1.367 . S
C368 C366 1.405 1_554 S
C368 C370 1.403 . S
C368 C401 1.439 . S
C369 H354 0.930 . S
C369 N365 1.319 . S
C369 C367 1.397 1_556 S
C370 C367 1.367 . S
C370 C368 1.403 . S
C370 H377 0.929 . S
N371 Eu336 2.562 . S
N371 C372 1.325 . S
N371 C374 1.351 . S
C372 H358 0.929 . S
C372 N371 1.325 . S
C372 C376 1.416 . S
C373 C374 1.430 . S
C373 C375 1.404 . S
C373 C402 1.387 1_556 S
C374 C366 1.448 . S
C374 N371 1.351 . S
C374 C373 1.430 . S
C375 H364 0.930 . S
C375 C373 1.404 . S
C375 C376 1.366 . S
C376 H355 0.930 . S
C376 C372 1.416 . S
C376 C375 1.366 . S
H377 C370 0.929 . S
H378 C401 0.931 . S
H379 C402 0.931 . S
O380 Eu336 2.462 . S
O380 C400 1.252 . S
O381 Eu336 2.373 . S
O381 C392 1.249 . S
O382 Eu347 2.335 . S
O382 C392 1.264 . S
O383 Eu336 2.432 . S
O383 C400 1.268 . S
O384 Eu336 2.291 . S
O384 C399 1.255 . S
O385 Eu347 2.372 . S
O385 C399 1.257 . S
O386 Eu347 2.462 . S
O386 C411 1.252 . S
O387 Eu347 2.373 . S
O387 C403 1.249 . S
O388 Eu336 2.335 . S
O388 C403 1.264 . S
O389 Eu347 2.432 . S
O389 C411 1.268 . S
O390 Eu347 2.291 . S
O390 C410 1.255 . S
O391 Eu336 2.372 . S
O391 C410 1.257 . S
C392 O381 1.249 . S
C392 O382 1.264 . S
C393 C396 1.382 . S
C393 C398 1.390 . S
C393 C400 1.506 . S
C394 C395 1.398 . S
C394 C398 1.392 . S
C395 C394 1.398 . S
C395 C397 1.372 . S
C395 H412 0.931 . S
C396 C393 1.382 . S
C396 C397 1.390 . S
C396 H413 0.931 . S
C397 C395 1.372 . S
C397 C396 1.390 . S
C397 H414 0.929 . S
C398 C393 1.390 . S
C398 C394 1.392 . S
C398 H415 0.930 . S
C399 O384 1.255 . S
C399 O385 1.257 . S
C400 Eu336 2.787 . S
C400 O380 1.252 . S
C400 O383 1.268 . S
C400 C393 1.506 . S
C401 C368 1.439 . S
C401 H378 0.931 . S
C401 C402 1.374 . S
C402 C373 1.387 1_554 S
C402 H379 0.931 . S
C402 C401 1.374 . S
C403 O387 1.249 . S
C403 O388 1.264 . S
C404 C407 1.382 . S
C404 C408 1.390 . S
C404 C411 1.506 . S
C405 C406 1.398 . S
C405 C408 1.392 . S
C406 C405 1.398 . S
C406 C409 1.372 . S
C406 H416 0.931 . S
C407 C404 1.382 . S
C407 C409 1.390 . S
C407 H417 0.931 . S
C408 C404 1.390 . S
C408 C405 1.392 . S
C408 H418 0.930 . S
C409 C406 1.372 . S
C409 C407 1.390 . S
C409 H419 0.929 . S
C410 O390 1.255 . S
C410 O391 1.257 . S
C411 Eu347 2.787 . S
C411 O386 1.252 . S
C411 O389 1.268 . S
C411 C404 1.506 . S
H412 C395 0.931 . S
H413 C396 0.931 . S
H414 C397 0.929 . S
H415 C398 0.930 . S
H416 C406 0.931 . S
H417 C407 0.931 . S
H418 C408 0.930 . S
H419 C409 0.929 . S
Eu420 N449 2.600 . S
Eu420 N455 2.562 . S
Eu420 O464 2.462 . S
Eu420 O465 2.373 . S
Eu420 O467 2.432 . S
Eu420 O468 2.291 . S
Eu420 O472 2.335 . S
Eu420 O475 2.372 . S
Eu420 C484 2.787 . S
C421 N422 1.365 . S
C421 C424 1.405 . S
C421 C428 1.448 . S
N422 C421 1.365 . S
N422 C425 1.319 . S
N422 Eu431 2.600 . S
C423 C425 1.397 . S
C423 C426 1.367 . S
C423 H443 0.931 . S
C424 C421 1.405 . S
C424 C426 1.403 . S
C424 C430 1.439 . S
C425 N422 1.319 . S
C425 C423 1.397 . S
C425 H436 0.930 . S
C426 C423 1.367 . S
C426 C424 1.403 . S
C426 H447 0.929 . S
C427 C428 1.430 . S
C427 C429 1.387 . S
C427 C433 1.404 . S
C428 C421 1.448 . S
C428 C427 1.430 . S
C428 N432 1.351 . S
C429 C427 1.387 . S
C429 C430 1.374 . S
C429 H444 0.931 . S
C430 C424 1.439 . S
C430 C429 1.374 . S
C430 H445 0.931 . S
Eu431 N422 2.600 . S
Eu431 N432 2.562 . S
Eu431 O466 2.335 . S
Eu431 O469 2.372 . S
Eu431 O470 2.462 . S
Eu431 O471 2.373 . S
Eu431 O473 2.432 . S
Eu431 O474 2.291 . S
Eu431 C495 2.787 . S
N432 C428 1.351 . S
N432 Eu431 2.562 . S
N432 C434 1.325 . S
C433 C427 1.404 . S
C433 C435 1.366 . S
C433 H441 0.930 . S
C434 N432 1.325 . S
C434 C435 1.416 . S
C434 H440 0.929 . S
C435 C433 1.366 . S
C435 C434 1.416 . S
C435 H437 0.930 . S
H436 C425 0.930 . S
H437 C435 0.930 . S
H438 C453 0.930 . S
H439 C460 0.930 . S
H440 C434 0.929 . S
H441 C433 0.930 . S
H442 C456 0.929 . S
H443 C423 0.931 . S
H444 C429 0.931 . S
H445 C430 0.931 . S
H446 C451 0.931 . S
H447 C426 0.929 . S
H448 C459 0.930 . S
N449 Eu420 2.600 . S
N449 C450 1.365 . S
N449 C453 1.319 . S
C450 N449 1.365 . S
C450 C452 1.405 1_554 S
C450 C458 1.448 . S
C451 H446 0.931 . S
C451 C453 1.397 1_556 S
C451 C454 1.367 . S
C452 C450 1.405 1_556 S
C452 C454 1.403 . S
C452 C485 1.439 . S
C453 H438 0.930 . S
C453 N449 1.319 . S
C453 C451 1.397 1_554 S
C454 C451 1.367 . S
C454 C452 1.403 . S
C454 H461 0.929 . S
N455 Eu420 2.562 . S
N455 C456 1.325 . S
N455 C458 1.351 . S
C456 H442 0.929 . S
C456 N455 1.325 . S
C456 C460 1.416 . S
C457 C458 1.430 . S
C457 C459 1.404 . S
C457 C486 1.387 1_554 S
C458 C450 1.448 . S
C458 N455 1.351 . S
C458 C457 1.430 . S
C459 H448 0.930 . S
C459 C457 1.404 . S
C459 C460 1.366 . S
C460 H439 0.930 . S
C460 C456 1.416 . S
C460 C459 1.366 . S
H461 C454 0.929 . S
H462 C485 0.931 . S
H463 C486 0.931 . S
O464 Eu420 2.462 . S
O464 C484 1.252 . S
O465 Eu420 2.373 . S
O465 C476 1.249 . S
O466 Eu431 2.335 . S
O466 C476 1.264 . S
O467 Eu420 2.432 . S
O467 C484 1.268 . S
O468 Eu420 2.291 . S
O468 C483 1.255 . S
O469 Eu431 2.372 . S
O469 C483 1.257 . S
O470 Eu431 2.462 . S
O470 C495 1.252 . S
O471 Eu431 2.373 . S
O471 C487 1.249 . S
O472 Eu420 2.335 . S
O472 C487 1.264 . S
O473 Eu431 2.432 . S
O473 C495 1.268 . S
O474 Eu431 2.291 . S
O474 C494 1.255 . S
O475 Eu420 2.372 . S
O475 C494 1.257 . S
C476 O465 1.249 . S
C476 O466 1.264 . S
C477 C480 1.382 . S
C477 C482 1.390 . S
C477 C484 1.506 . S
C478 C479 1.398 . S
C478 C482 1.392 . S
C479 C478 1.398 . S
C479 C481 1.372 . S
C479 H496 0.931 . S
C480 C477 1.382 . S
C480 C481 1.390 . S
C480 H497 0.931 . S
C481 C479 1.372 . S
C481 C480 1.390 . S
C481 H498 0.929 . S
C482 C477 1.390 . S
C482 C478 1.392 . S
C482 H499 0.930 . S
C483 O468 1.255 . S
C483 O469 1.257 . S
C484 Eu420 2.787 . S
C484 O464 1.252 . S
C484 O467 1.268 . S
C484 C477 1.506 . S
C485 C452 1.439 . S
C485 H462 0.931 . S
C485 C486 1.374 . S
C486 C457 1.387 1_556 S
C486 H463 0.931 . S
C486 C485 1.374 . S
C487 O471 1.249 . S
C487 O472 1.264 . S
C488 C491 1.382 . S
C488 C492 1.390 . S
C488 C495 1.506 . S
C489 C490 1.398 . S
C489 C492 1.392 . S
C490 C489 1.398 . S
C490 C493 1.372 . S
C490 H500 0.931 . S
C491 C488 1.382 . S
C491 C493 1.390 . S
C491 H501 0.931 . S
C492 C488 1.390 . S
C492 C489 1.392 . S
C492 H502 0.930 . S
C493 C490 1.372 . S
C493 C491 1.390 . S
C493 H503 0.929 . S
C494 O474 1.255 . S
C494 O475 1.257 . S
C495 Eu431 2.787 . S
C495 O470 1.252 . S
C495 O473 1.268 . S
C495 C488 1.506 . S
H496 C479 0.931 . S
H497 C480 0.931 . S
H498 C481 0.929 . S
H499 C482 0.930 . S
H500 C490 0.931 . S
H501 C491 0.931 . S
H502 C492 0.930 . S
H503 C493 0.929 . S
Eu504 N533 2.600 . S
Eu504 N539 2.562 . S
Eu504 O548 2.462 . S
Eu504 O549 2.373 . S
Eu504 O551 2.432 . S
Eu504 O552 2.291 . S
Eu504 O556 2.335 . S
Eu504 O559 2.372 . S
Eu504 C568 2.787 . S
C505 N506 1.365 . S
C505 C508 1.405 . S
C505 C512 1.448 . S
N506 C505 1.365 . S
N506 C509 1.319 . S
N506 Eu515 2.600 . S
C507 C509 1.397 . S
C507 C510 1.367 . S
C507 H527 0.931 . S
C508 C505 1.405 . S
C508 C510 1.403 . S
C508 C514 1.439 . S
C509 N506 1.319 . S
C509 C507 1.397 . S
C509 H520 0.930 . S
C510 C507 1.367 . S
C510 C508 1.403 . S
C510 H531 0.929 . S
C511 C512 1.430 . S
C511 C513 1.387 . S
C511 C517 1.404 . S
C512 C505 1.448 . S
C512 C511 1.430 . S
C512 N516 1.351 . S
C513 C511 1.387 . S
C513 C514 1.374 . S
C513 H528 0.931 . S
C514 C508 1.439 . S
C514 C513 1.374 . S
C514 H529 0.931 . S
Eu515 N506 2.600 . S
Eu515 N516 2.562 . S
Eu515 O550 2.335 . S
Eu515 O553 2.372 . S
Eu515 O554 2.462 . S
Eu515 O555 2.373 . S
Eu515 O557 2.432 . S
Eu515 O558 2.291 . S
Eu515 C579 2.787 . S
N516 C512 1.351 . S
N516 Eu515 2.562 . S
N516 C518 1.325 . S
C517 C511 1.404 . S
C517 C519 1.366 . S
C517 H525 0.930 . S
C518 N516 1.325 . S
C518 C519 1.416 . S
C518 H524 0.929 . S
C519 C517 1.366 . S
C519 C518 1.416 . S
C519 H521 0.930 . S
H520 C509 0.930 . S
H521 C519 0.930 . S
H522 C537 0.930 . S
H523 C544 0.930 . S
H524 C518 0.929 . S
H525 C517 0.930 . S
H526 C540 0.929 . S
H527 C507 0.931 . S
H528 C513 0.931 . S
H529 C514 0.931 . S
H530 C535 0.931 . S
H531 C510 0.929 . S
H532 C543 0.930 . S
N533 Eu504 2.600 . S
N533 C534 1.365 . S
N533 C537 1.319 . S
C534 N533 1.365 . S
C534 C536 1.405 1_556 S
C534 C542 1.448 . S
C535 H530 0.931 . S
C535 C537 1.397 1_554 S
C535 C538 1.367 . S
C536 C534 1.405 1_554 S
C536 C538 1.403 . S
C536 C569 1.439 . S
C537 H522 0.930 . S
C537 N533 1.319 . S
C537 C535 1.397 1_556 S
C538 C535 1.367 . S
C538 C536 1.403 . S
C538 H545 0.929 . S
N539 Eu504 2.562 . S
N539 C540 1.325 . S
N539 C542 1.351 . S
C540 H526 0.929 . S
C540 N539 1.325 . S
C540 C544 1.416 . S
C541 C542 1.430 . S
C541 C543 1.404 . S
C541 C570 1.387 1_556 S
C542 C534 1.448 . S
C542 N539 1.351 . S
C542 C541 1.430 . S
C543 H532 0.930 . S
C543 C541 1.404 . S
C543 C544 1.366 . S
C544 H523 0.930 . S
C544 C540 1.416 . S
C544 C543 1.366 . S
H545 C538 0.929 . S
H546 C569 0.931 . S
H547 C570 0.931 . S
O548 Eu504 2.462 . S
O548 C568 1.252 . S
O549 Eu504 2.373 . S
O549 C560 1.249 . S
O550 Eu515 2.335 . S
O550 C560 1.264 . S
O551 Eu504 2.432 . S
O551 C568 1.268 . S
O552 Eu504 2.291 . S
O552 C567 1.255 . S
O553 Eu515 2.372 . S
O553 C567 1.257 . S
O554 Eu515 2.462 . S
O554 C579 1.252 . S
O555 Eu515 2.373 . S
O555 C571 1.249 . S
O556 Eu504 2.335 . S
O556 C571 1.264 . S
O557 Eu515 2.432 . S
O557 C579 1.268 . S
O558 Eu515 2.291 . S
O558 C578 1.255 . S
O559 Eu504 2.372 . S
O559 C578 1.257 . S
C560 O549 1.249 . S
C560 O550 1.264 . S
C561 C564 1.382 . S
C561 C566 1.390 . S
C561 C568 1.506 . S
C562 C563 1.398 . S
C562 C566 1.392 . S
C563 C562 1.398 . S
C563 C565 1.372 . S
C563 H580 0.931 . S
C564 C561 1.382 . S
C564 C565 1.390 . S
C564 H581 0.931 . S
C565 C563 1.372 . S
C565 C564 1.390 . S
C565 H582 0.929 . S
C566 C561 1.390 . S
C566 C562 1.392 . S
C566 H583 0.930 . S
C567 O552 1.255 . S
C567 O553 1.257 . S
C568 Eu504 2.787 . S
C568 O548 1.252 . S
C568 O551 1.268 . S
C568 C561 1.506 . S
C569 C536 1.439 . S
C569 H546 0.931 . S
C569 C570 1.374 . S
C570 C541 1.387 1_554 S
C570 H547 0.931 . S
C570 C569 1.374 . S
C571 O555 1.249 . S
C571 O556 1.264 . S
C572 C575 1.382 . S
C572 C576 1.390 . S
C572 C579 1.506 . S
C573 C574 1.398 . S
C573 C576 1.392 . S
C574 C573 1.398 . S
C574 C577 1.372 . S
C574 H584 0.931 . S
C575 C572 1.382 . S
C575 C577 1.390 . S
C575 H585 0.931 . S
C576 C572 1.390 . S
C576 C573 1.392 . S
C576 H586 0.930 . S
C577 C574 1.372 . S
C577 C575 1.390 . S
C577 H587 0.929 . S
C578 O558 1.255 . S
C578 O559 1.257 . S
C579 Eu515 2.787 . S
C579 O554 1.252 . S
C579 O557 1.268 . S
C579 C572 1.506 . S
H580 C563 0.931 . S
H581 C564 0.931 . S
H582 C565 0.929 . S
H583 C566 0.930 . S
H584 C574 0.931 . S
H585 C575 0.931 . S
H586 C576 0.930 . S
H587 C577 0.929 . S
Eu588 N617 2.600 . S
Eu588 N623 2.562 . S
Eu588 O632 2.462 . S
Eu588 O633 2.373 . S
Eu588 O635 2.432 . S
Eu588 O636 2.291 . S
Eu588 O640 2.335 . S
Eu588 O643 2.372 . S
Eu588 C652 2.787 . S
C589 N590 1.365 . S
C589 C592 1.405 1_554 S
C589 C596 1.448 . S
N590 C589 1.365 . S
N590 C593 1.319 . S
N590 Eu599 2.600 . S
C591 C593 1.397 1_556 S
C591 C594 1.367 . S
C591 H611 0.931 . S
C592 C589 1.405 1_556 S
C592 C594 1.403 . S
C592 C598 1.439 . S
C593 N590 1.319 . S
C593 C591 1.397 1_554 S
C593 H604 0.930 . S
C594 C591 1.367 . S
C594 C592 1.403 . S
C594 H615 0.929 . S
C595 C596 1.430 . S
C595 C597 1.387 1_554 S
C595 C601 1.404 . S
C596 C589 1.448 . S
C596 C595 1.430 . S
C596 N600 1.351 . S
C597 C595 1.387 1_556 S
C597 C598 1.374 . S
C597 H612 0.931 . S
C598 C592 1.439 . S
C598 C597 1.374 . S
C598 H613 0.931 . S
Eu599 N590 2.600 . S
Eu599 N600 2.562 . S
Eu599 O634 2.335 . S
Eu599 O637 2.372 . S
Eu599 O638 2.462 . S
Eu599 O639 2.373 . S
Eu599 O641 2.432 . S
Eu599 O642 2.291 . S
Eu599 C663 2.787 . S
N600 C596 1.351 . S
N600 Eu599 2.562 . S
N600 C602 1.325 . S
C601 C595 1.404 . S
C601 C603 1.366 . S
C601 H609 0.930 . S
C602 N600 1.325 . S
C602 C603 1.416 . S
C602 H608 0.929 . S
C603 C601 1.366 . S
C603 C602 1.416 . S
C603 H605 0.930 . S
H604 C593 0.930 . S
H605 C603 0.930 . S
H606 C621 0.930 . S
H607 C628 0.930 . S
H608 C602 0.929 . S
H609 C601 0.930 . S
H610 C624 0.929 . S
H611 C591 0.931 . S
H612 C597 0.931 . S
H613 C598 0.931 . S
H614 C619 0.931 . S
H615 C594 0.929 . S
H616 C627 0.930 . S
N617 Eu588 2.600 . S
N617 C618 1.365 . S
N617 C621 1.319 . S
C618 N617 1.365 . S
C618 C620 1.405 . S
C618 C626 1.448 . S
C619 H614 0.931 . S
C619 C621 1.397 . S
C619 C622 1.367 . S
C620 C618 1.405 . S
C620 C622 1.403 . S
C620 C653 1.439 . S
C621 H606 0.930 . S
C621 N617 1.319 . S
C621 C619 1.397 . S
C622 C619 1.367 . S
C622 C620 1.403 . S
C622 H629 0.929 . S
N623 Eu588 2.562 . S
N623 C624 1.325 . S
N623 C626 1.351 . S
C624 H610 0.929 . S
C624 N623 1.325 . S
C624 C628 1.416 . S
C625 C626 1.430 . S
C625 C627 1.404 . S
C625 C654 1.387 . S
C626 C618 1.448 . S
C626 N623 1.351 . S
C626 C625 1.430 . S
C627 H616 0.930 . S
C627 C625 1.404 . S
C627 C628 1.366 . S
C628 H607 0.930 . S
C628 C624 1.416 . S
C628 C627 1.366 . S
H629 C622 0.929 . S
H630 C653 0.931 . S
H631 C654 0.931 . S
O632 Eu588 2.462 . S
O632 C652 1.252 . S
O633 Eu588 2.373 . S
O633 C644 1.249 . S
O634 Eu599 2.335 . S
O634 C644 1.264 . S
O635 Eu588 2.432 . S
O635 C652 1.268 . S
O636 Eu588 2.291 . S
O636 C651 1.255 . S
O637 Eu599 2.372 . S
O637 C651 1.257 . S
O638 Eu599 2.462 . S
O638 C663 1.252 . S
O639 Eu599 2.373 . S
O639 C655 1.249 . S
O640 Eu588 2.335 . S
O640 C655 1.264 . S
O641 Eu599 2.432 . S
O641 C663 1.268 . S
O642 Eu599 2.291 . S
O642 C662 1.255 . S
O643 Eu588 2.372 . S
O643 C662 1.257 . S
C644 O633 1.249 . S
C644 O634 1.264 . S
C645 C648 1.382 . S
C645 C650 1.390 . S
C645 C652 1.506 . S
C646 C647 1.398 . S
C646 C650 1.392 . S
C647 C646 1.398 . S
C647 C649 1.372 . S
C647 H664 0.931 . S
C648 C645 1.382 . S
C648 C649 1.390 . S
C648 H665 0.931 . S
C649 C647 1.372 . S
C649 C648 1.390 . S
C649 H666 0.929 . S
C650 C645 1.390 . S
C650 C646 1.392 . S
C650 H667 0.930 . S
C651 O636 1.255 . S
C651 O637 1.257 . S
C652 Eu588 2.787 . S
C652 O632 1.252 . S
C652 O635 1.268 . S
C652 C645 1.506 . S
C653 C620 1.439 . S
C653 H630 0.931 . S
C653 C654 1.374 . S
C654 C625 1.387 . S
C654 H631 0.931 . S
C654 C653 1.374 . S
C655 O639 1.249 . S
C655 O640 1.264 . S
C656 C659 1.382 . S
C656 C660 1.390 . S
C656 C663 1.506 . S
C657 C658 1.398 . S
C657 C660 1.392 . S
C658 C657 1.398 . S
C658 C661 1.372 . S
C658 H668 0.931 . S
C659 C656 1.382 . S
C659 C661 1.390 . S
C659 H669 0.931 . S
C660 C656 1.390 . S
C660 C657 1.392 . S
C660 H670 0.930 . S
C661 C658 1.372 . S
C661 C659 1.390 . S
C661 H671 0.929 . S
C662 O642 1.255 . S
C662 O643 1.257 . S
C663 Eu599 2.787 . S
C663 O638 1.252 . S
C663 O641 1.268 . S
C663 C656 1.506 . S
H664 C647 0.931 . S
H665 C648 0.931 . S
H666 C649 0.929 . S
H667 C650 0.930 . S
H668 C658 0.931 . S
H669 C659 0.931 . S
H670 C660 0.930 . S
H671 C661 0.929 . S
C672 C673 1.391 . S
C672 C674 1.394 . S
C672 H688 0.931 . S
C673 C672 1.391 . S
C673 C677 1.376 . S
C674 C672 1.394 . S
C674 C675 1.369 . S
C674 C678 1.531 . S
C675 C674 1.369 . S
C675 C676 1.410 . S
C675 C683 1.503 . S
C676 C675 1.410 . S
C676 C677 1.392 . S
C676 C679 1.511 . S
C677 C673 1.376 . S
C677 C676 1.392 . S
C677 H689 0.929 . S
C678 C674 1.531 . S
C678 H690 0.960 . S
C678 H691 0.962 . S
C678 H692 0.960 . S
C679 C676 1.511 . S
C679 H693 0.961 . S
C679 H694 0.961 . S
C679 H695 0.961 . S
C680 C681 1.370 . S
C680 C682 1.363 . S
C680 H696 0.931 . S
C681 C680 1.370 . S
C681 C685 1.408 . S
C682 C680 1.363 . S
C682 C683 1.370 1_565 S
C682 C686 1.524 . S
C683 C675 1.503 . S
C683 C682 1.370 1_545 S
C683 C684 1.401 1_545 S
C684 C683 1.401 1_565 S
C684 C685 1.434 . S
C684 C687 1.512 1_565 S
C685 C681 1.408 . S
C685 C684 1.434 . S
C685 H697 0.930 . S
C686 C682 1.524 . S
C686 H698 0.956 . S
C686 H699 0.961 . S
C686 H700 0.961 . S
C687 C684 1.512 1_545 S
C687 H701 0.958 . S
C687 H702 0.961 . S
C687 H703 0.960 . S
H688 C672 0.931 . S
H689 C677 0.929 . S
H690 C678 0.960 . S
H691 C678 0.962 . S
H692 C678 0.960 . S
H693 C679 0.961 . S
H694 C679 0.961 . S
H695 C679 0.961 . S
H696 C680 0.931 . S
H697 C685 0.930 . S
H698 C686 0.956 . S
H699 C686 0.961 . S
H700 C686 0.961 . S
H701 C687 0.958 . S
H702 C687 0.961 . S
H703 C687 0.960 . S
C704 C705 1.391 . S
C704 C706 1.394 . S
C704 H720 0.931 . S
C705 C704 1.391 . S
C705 C709 1.376 . S
C706 C704 1.394 . S
C706 C707 1.369 . S
C706 C710 1.531 . S
C707 C706 1.369 . S
C707 C708 1.410 . S
C707 C715 1.503 1_455 S
C708 C707 1.410 . S
C708 C709 1.392 . S
C708 C711 1.505 1_455 S
C709 C705 1.376 . S
C709 C708 1.392 . S
C709 H721 0.929 . S
C710 C706 1.531 . S
C710 H722 0.960 . S
C710 H723 0.962 . S
C710 H724 0.960 . S
C711 C708 1.505 1_655 S
C711 H725 0.960 1_655 S
C711 H726 0.966 . S
C711 H727 0.962 . S
C712 C713 1.370 . S
C712 C714 1.363 . S
C712 H728 0.931 . S
C713 C712 1.370 . S
C713 C717 1.408 . S
C714 C712 1.363 . S
C714 C715 1.370 . S
C714 C718 1.524 1_655 S
C715 C707 1.503 1_655 S
C715 C714 1.370 . S
C715 C716 1.403 . S
C716 C715 1.403 . S
C716 C717 1.404 . S
C716 C719 1.539 . S
C717 C713 1.408 . S
C717 C716 1.404 . S
C717 H729 0.930 . S
C718 C714 1.524 1_455 S
C718 H730 0.956 . S
C718 H731 0.961 . S
C718 H732 0.961 1_455 S
C719 C716 1.539 . S
C719 H733 0.958 1_655 S
C719 H734 0.961 . S
C719 H735 0.960 1_655 S
H720 C704 0.931 . S
H721 C709 0.929 . S
H722 C710 0.960 . S
H723 C710 0.962 . S
H724 C710 0.960 . S
H725 C711 0.960 1_455 S
H726 C711 0.966 . S
H727 C711 0.962 . S
H728 C712 0.931 . S
H729 C717 0.930 . S
H730 C718 0.956 . S
H731 C718 0.961 . S
H732 C718 0.961 1_655 S
H733 C719 0.958 1_455 S
H734 C719 0.961 . S
H735 C719 0.960 1_455 S
C736 C737 1.391 . S
C736 C738 1.394 . S
C736 H752 0.931 . S
C737 C736 1.391 . S
C737 C741 1.376 . S
C738 C736 1.394 . S
C738 C739 1.369 . S
C738 C742 1.531 . S
C739 C738 1.369 . S
C739 C740 1.410 . S
C739 C747 1.503 . S
C740 C739 1.410 . S
C740 C741 1.392 . S
C740 C743 1.511 . S
C741 C737 1.376 . S
C741 C740 1.392 . S
C741 H753 0.929 . S
C742 C738 1.531 . S
C742 H754 0.960 . S
C742 H755 0.962 . S
C742 H756 0.960 . S
C743 C740 1.511 . S
C743 H757 0.961 . S
C743 H758 0.958 . S
C743 H759 0.961 . S
C744 C745 1.370 . S
C744 C746 1.363 . S
C744 H760 0.931 . S
C745 C744 1.370 . S
C745 C749 1.408 . S
C746 C744 1.363 . S
C746 C747 1.370 1_545 S
C746 C750 1.524 . S
C747 C739 1.503 . S
C747 C746 1.370 1_565 S
C747 C748 1.403 1_565 S
C748 C747 1.403 1_545 S
C748 C749 1.404 . S
C748 C751 1.539 1_545 S
C749 C745 1.408 . S
C749 C748 1.404 . S
C749 H761 0.930 . S
C750 C746 1.524 . S
C750 H762 0.956 . S
C750 H763 0.961 . S
C750 H764 0.961 . S
C751 C748 1.539 1_565 S
C751 H765 0.958 . S
C751 H766 0.961 . S
C751 H767 0.960 . S
H752 C736 0.931 . S
H753 C741 0.929 . S
H754 C742 0.960 . S
H755 C742 0.962 . S
H756 C742 0.960 . S
H757 C743 0.961 . S
H758 C743 0.958 . S
H759 C743 0.961 . S
H760 C744 0.931 . S
H761 C749 0.930 . S
H762 C750 0.956 . S
H763 C750 0.961 . S
H764 C750 0.961 . S
H765 C751 0.958 . S
H766 C751 0.961 . S
H767 C751 0.960 . S
C768 C769 1.391 . S
C768 C770 1.394 . S
C768 H784 0.931 . S
C769 C768 1.391 . S
C769 C773 1.376 . S
C770 C768 1.394 . S
C770 C771 1.369 1_455 S
C770 C774 1.531 1_455 S
C771 C770 1.369 1_655 S
C771 C772 1.410 1_655 S
C771 C779 1.503 . S
C772 C771 1.410 1_455 S
C772 C773 1.392 . S
C772 C775 1.511 . S
C773 C769 1.376 . S
C773 C772 1.392 . S
C773 H785 0.929 . S
C774 C770 1.531 1_655 S
C774 H786 0.960 . S
C774 H787 0.962 . S
C774 H788 0.960 . S
C775 C772 1.511 . S
C775 H789 0.961 . S
C775 H790 0.961 1_455 S
C775 H791 0.961 1_455 S
C776 C777 1.370 . S
C776 C778 1.363 . S
C776 H792 0.931 . S
C777 C776 1.370 . S
C777 C781 1.408 . S
C778 C776 1.363 . S
C778 C779 1.370 . S
C778 C782 1.524 . S
C779 C771 1.503 . S
C779 C778 1.370 . S
C779 C780 1.403 . S
C780 C779 1.403 . S
C780 C781 1.404 . S
C780 C783 1.539 . S
C781 C777 1.408 . S
C781 C780 1.404 . S
C781 H793 0.930 . S
C782 C778 1.524 . S
C782 H794 0.956 1_655 S
C782 H795 0.961 1_655 S
C782 H796 0.961 . S
C783 C780 1.539 . S
C783 H797 0.958 . S
C783 H798 0.961 . S
C783 H799 0.960 . S
H784 C768 0.931 . S
H785 C773 0.929 . S
H786 C774 0.960 . S
H787 C774 0.962 . S
H788 C774 0.960 . S
H789 C775 0.961 . S
H790 C775 0.961 1_655 S
H791 C775 0.961 1_655 S
H792 C776 0.931 . S
H793 C781 0.930 . S
H794 C782 0.956 1_455 S
H795 C782 0.961 1_455 S
H796 C782 0.961 . S
H797 C783 0.958 . S
H798 C783 0.961 . S
H799 C783 0.960 . S
C800 C801 1.391 . S
C800 C802 1.394 . S
C800 H816 0.931 . S
C801 C800 1.391 . S
C801 C805 1.376 1_556 S
C802 C800 1.394 . S
C802 C803 1.369 . S
C802 C806 1.531 . S
C803 C802 1.369 . S
C803 C804 1.410 . S
C803 C811 1.503 . S
C804 C803 1.410 . S
C804 C805 1.392 1_556 S
C804 C807 1.511 1_556 S
C805 C801 1.376 1_554 S
C805 C804 1.392 1_554 S
C805 H817 0.929 . S
C806 C802 1.531 . S
C806 H818 0.960 . S
C806 H819 0.962 . S
C806 H820 0.960 . S
C807 C804 1.511 1_554 S
C807 H821 0.961 . S
C807 H822 0.961 . S
C807 H823 0.961 1_554 S
C808 C809 1.370 . S
C808 C810 1.363 . S
C808 H824 0.931 1_556 S
C809 C808 1.370 . S
C809 C813 1.408 . S
C810 C808 1.363 . S
C810 C811 1.370 . S
C810 C814 1.524 1_556 S
C811 C803 1.503 . S
C811 C810 1.370 . S
C811 C812 1.403 . S
C812 C811 1.403 . S
C812 C813 1.404 . S
C812 C815 1.539 . S
C813 C809 1.408 . S
C813 C812 1.404 . S
C813 H825 0.930 . S
C814 C810 1.524 1_554 S
C814 H826 0.956 . S
C814 H827 0.961 . S
C814 H828 0.961 . S
C815 C812 1.539 . S
C815 H829 0.958 . S
C815 H830 0.961 . S
C815 H831 0.960 . S
H816 C800 0.931 . S
H817 C805 0.929 . S
H818 C806 0.960 . S
H819 C806 0.962 . S
H820 C806 0.960 . S
H821 C807 0.961 . S
H822 C807 0.961 . S
H823 C807 0.961 1_556 S
H824 C808 0.931 1_554 S
H825 C813 0.930 . S
H826 C814 0.956 . S
H827 C814 0.961 . S
H828 C814 0.961 . S
H829 C815 0.958 . S
H830 C815 0.961 . S
H831 C815 0.960 . S
C832 C833 1.391 . S
C832 C834 1.394 . S
C832 H848 0.931 . S
C833 C832 1.391 . S
C833 C837 1.376 1_556 S
C834 C832 1.394 . S
C834 C835 1.369 1_556 S
C834 C838 1.531 . S
C835 C834 1.369 1_554 S
C835 C836 1.410 . S
C835 C843 1.503 . S
C836 C835 1.410 . S
C836 C837 1.392 . S
C836 C839 1.511 . S
C837 C833 1.376 1_554 S
C837 C836 1.392 . S
C837 H849 0.929 . S
C838 C834 1.531 . S
C838 H850 0.960 . S
C838 H851 0.962 . S
C838 H852 0.960 . S
C839 C836 1.511 . S
C839 H853 0.961 . S
C839 H854 0.961 . S
C839 H855 0.961 . S
C840 C841 1.370 . S
C840 C842 1.363 . S
C840 H856 0.931 . S
C841 C840 1.370 . S
C841 C845 1.408 . S
C842 C840 1.363 . S
C842 C843 1.370 . S
C842 C846 1.524 . S
C843 C835 1.503 . S
C843 C842 1.370 . S
C843 C844 1.403 1_554 S
C844 C843 1.403 1_556 S
C844 C845 1.404 1_556 S
C844 C847 1.539 . S
C845 C841 1.408 . S
C845 C844 1.404 1_554 S
C845 H857 0.930 1_554 S
C846 C842 1.524 . S
C846 H858 0.956 . S
C846 H859 0.961 . S
C846 H860 0.961 . S
C847 C844 1.539 . S
C847 H861 0.958 . S
C847 H862 0.961 . S
C847 H863 0.960 . S
H848 C832 0.931 . S
H849 C837 0.929 . S
H850 C838 0.960 . S
H851 C838 0.962 . S
H852 C838 0.960 . S
H853 C839 0.961 . S
H854 C839 0.961 . S
H855 C839 0.961 . S
H856 C840 0.931 . S
H857 C845 0.930 1_556 S
H858 C846 0.956 . S
H859 C846 0.961 . S
H860 C846 0.961 . S
H861 C847 0.958 . S
H862 C847 0.961 . S
H863 C847 0.960 . S
C864 C865 1.391 . S
C864 C866 1.394 . S
C864 H880 0.931 . S
C865 C864 1.391 . S
C865 C869 1.376 . S
C866 C864 1.394 . S
C866 C867 1.369 . S
C866 C870 1.531 . S
C867 C866 1.369 . S
C867 C868 1.410 . S
C867 C875 1.503 . S
C868 C867 1.410 . S
C868 C869 1.392 . S
C868 C871 1.511 . S
C869 C865 1.376 . S
C869 C868 1.392 . S
C869 H881 0.929 . S
C870 C866 1.531 . S
C870 H882 0.960 . S
C870 H883 0.962 1_556 S
C870 H884 0.960 . S
C871 C868 1.511 . S
C871 H885 0.961 . S
C871 H886 0.961 . S
C871 H887 0.961 . S
C872 C873 1.370 . S
C872 C874 1.363 1_556 S
C872 H888 0.931 1_556 S
C873 C872 1.370 . S
C873 C877 1.408 . S
C874 C872 1.363 1_554 S
C874 C875 1.370 1_554 S
C874 C878 1.524 . S
C875 C867 1.503 . S
C875 C874 1.370 1_556 S
C875 C876 1.403 . S
C876 C875 1.403 . S
C876 C877 1.404 . S
C876 C879 1.539 . S
C877 C873 1.408 . S
C877 C876 1.404 . S
C877 H889 0.930 . S
C878 C874 1.524 . S
C878 H890 0.956 . S
C878 H891 0.961 . S
C878 H892 0.961 . S
C879 C876 1.539 . S
C879 H893 0.958 . S
C879 H894 0.961 . S
C879 H895 0.960 . S
H880 C864 0.931 . S
H881 C869 0.929 . S
H882 C870 0.960 . S
H883 C870 0.962 1_554 S
H884 C870 0.960 . S
H885 C871 0.961 . S
H886 C871 0.961 . S
H887 C871 0.961 . S
H888 C872 0.931 1_554 S
H889 C877 0.930 . S
H890 C878 0.956 . S
H891 C878 0.961 . S
H892 C878 0.961 . S
H893 C879 0.958 . S
H894 C879 0.961 . S
H895 C879 0.960 . S
C896 C897 1.391 . S
C896 C898 1.394 1_554 S
C896 H912 0.931 1_554 S
C897 C896 1.391 . S
C897 C901 1.376 . S
C898 C896 1.394 1_556 S
C898 C899 1.369 1_556 S
C898 C902 1.531 . S
C899 C898 1.369 1_554 S
C899 C900 1.410 . S
C899 C907 1.503 . S
C900 C899 1.410 . S
C900 C901 1.392 . S
C900 C903 1.511 . S
C901 C897 1.376 . S
C901 C900 1.392 . S
C901 H913 0.929 . S
C902 C898 1.531 . S
C902 H914 0.960 . S
C902 H915 0.962 . S
C902 H916 0.960 . S
C903 C900 1.511 . S
C903 H917 0.961 . S
C903 H918 0.961 . S
C903 H919 0.961 . S
C904 C905 1.370 . S
C904 C906 1.363 . S
C904 H920 0.931 . S
C905 C904 1.370 . S
C905 C909 1.408 1_554 S
C906 C904 1.363 . S
C906 C907 1.370 . S
C906 C910 1.524 . S
C907 C899 1.503 . S
C907 C906 1.370 . S
C907 C908 1.403 1_554 S
C908 C907 1.403 1_556 S
C908 C909 1.404 . S
C908 C911 1.539 . S
C909 C905 1.408 1_556 S
C909 C908 1.404 . S
C909 H921 0.930 . S
C910 C906 1.524 . S
C910 H922 0.956 . S
C910 H923 0.961 . S
C910 H924 0.961 . S
C911 C908 1.539 . S
C911 H925 0.958 . S
C911 H926 0.961 . S
C911 H927 0.960 . S
H912 C896 0.931 1_556 S
H913 C901 0.929 . S
H914 C902 0.960 . S
H915 C902 0.962 . S
H916 C902 0.960 . S
H917 C903 0.961 . S
H918 C903 0.961 . S
H919 C903 0.961 . S
H920 C904 0.931 . S
H921 C909 0.930 . S
H922 C910 0.956 . S
H923 C910 0.961 . S
H924 C910 0.961 . S
H925 C911 0.958 . S
H926 C911 0.961 . S
H927 C911 0.960 . S
C928 C929 1.391 . S
C928 C930 1.394 . S
C928 H944 0.931 . S
C929 C928 1.391 . S
C929 C933 1.376 . S
C930 C928 1.394 . S
C930 C931 1.369 . S
C930 C934 1.531 . S
C931 C930 1.369 . S
C931 C932 1.410 . S
C931 C939 1.503 . S
C932 C931 1.410 . S
C932 C933 1.392 . S
C932 C935 1.511 . S
C933 C929 1.376 . S
C933 C932 1.392 . S
C933 H945 0.929 . S
C934 C930 1.531 . S
C934 H946 0.960 . S
C934 H947 0.962 . S
C934 H948 0.960 . S
C935 C932 1.511 . S
C935 H949 0.961 . S
C935 H950 0.961 . S
C935 H951 0.961 . S
C936 C937 1.370 . S
C936 C938 1.363 . S
C936 H952 0.931 . S
C937 C936 1.370 . S
C937 C941 1.408 . S
C938 C936 1.363 . S
C938 C939 1.370 . S
C938 C942 1.524 . S
C939 C931 1.503 . S
C939 C938 1.370 . S
C939 C940 1.403 . S
C940 C939 1.403 . S
C940 C941 1.404 . S
C940 C943 1.539 . S
C941 C937 1.408 . S
C941 C940 1.404 . S
C941 H953 0.930 . S
C942 C938 1.524 . S
C942 H954 0.956 . S
C942 H955 0.961 . S
C942 H956 0.961 . S
C943 C940 1.539 . S
C943 H957 0.958 . S
C943 H958 0.961 . S
C943 H959 0.960 . S
H944 C928 0.931 . S
H945 C933 0.929 . S
H946 C934 0.960 . S
H947 C934 0.962 . S
H948 C934 0.960 . S
H949 C935 0.961 . S
H950 C935 0.961 . S
H951 C935 0.961 . S
H952 C936 0.931 . S
H953 C941 0.930 . S
H954 C942 0.956 . S
H955 C942 0.961 . S
H956 C942 0.961 . S
H957 C943 0.958 . S
H958 C943 0.961 . S
H959 C943 0.960 . S
C960 C961 1.391 . S
C960 C962 1.394 . S
C960 H976 0.931 . S
C961 C960 1.391 . S
C961 C965 1.376 . S
C962 C960 1.394 . S
C962 C963 1.369 . S
C962 C966 1.531 . S
C963 C962 1.369 . S
C963 C964 1.410 . S
C963 C971 1.503 . S
C964 C963 1.410 . S
C964 C965 1.392 . S
C964 C967 1.511 . S
C965 C961 1.376 . S
C965 C964 1.392 . S
C965 H977 0.929 . S
C966 C962 1.531 . S
C966 H978 0.960 . S
C966 H979 0.962 . S
C966 H980 0.960 . S
C967 C964 1.511 . S
C967 H981 0.961 . S
C967 H982 0.961 . S
C967 H983 0.961 . S
C968 C969 1.370 . S
C968 C970 1.363 . S
C968 H984 0.931 . S
C969 C968 1.370 . S
C969 C973 1.408 . S
C970 C968 1.363 . S
C970 C971 1.370 . S
C970 C974 1.524 . S
C971 C963 1.503 . S
C971 C970 1.370 . S
C971 C972 1.403 . S
C972 C971 1.403 . S
C972 C973 1.404 . S
C972 C975 1.539 . S
C973 C969 1.408 . S
C973 C972 1.404 . S
C973 H985 0.930 . S
C974 C970 1.524 . S
C974 H986 0.956 . S
C974 H987 0.961 . S
C974 H988 0.961 . S
C975 C972 1.539 . S
C975 H989 0.958 . S
C975 H990 0.961 . S
C975 H991 0.960 . S
H976 C960 0.931 . S
H977 C965 0.929 . S
H978 C966 0.960 . S
H979 C966 0.962 . S
H980 C966 0.960 . S
H981 C967 0.961 . S
H982 C967 0.961 . S
H983 C967 0.961 . S
H984 C968 0.931 . S
H985 C973 0.930 . S
H986 C974 0.956 . S
H987 C974 0.961 . S
H988 C974 0.961 . S
H989 C975 0.958 . S
H990 C975 0.961 . S
H991 C975 0.960 . S
C992 C993 1.391 . S
C992 C994 1.394 . S
C992 H1008 0.931 . S
C993 C992 1.391 . S
C993 C997 1.376 . S
C994 C992 1.394 . S
C994 C995 1.369 . S
C994 C998 1.531 . S
C995 C994 1.369 . S
C995 C996 1.410 . S
C995 C1003 1.503 . S
C996 C995 1.410 . S
C996 C997 1.392 . S
C996 C999 1.511 . S
C997 C993 1.376 . S
C997 C996 1.392 . S
C997 H1009 0.929 . S
C998 C994 1.531 . S
C998 H1010 0.960 . S
C998 H1011 0.962 . S
C998 H1012 0.960 . S
C999 C996 1.511 . S
C999 H1013 0.961 . S
C999 H1014 0.961 . S
C999 H1015 0.961 . S
C1000 C1001 1.370 . S
C1000 C1002 1.363 . S
C1000 H1016 0.931 . S
C1001 C1000 1.370 . S
C1001 C1005 1.408 . S
C1002 C1000 1.363 . S
C1002 C1003 1.370 . S
C1002 C1006 1.524 . S
C1003 C995 1.503 . S
C1003 C1002 1.370 . S
C1003 C1004 1.403 . S
C1004 C1003 1.403 . S
C1004 C1005 1.404 . S
C1004 C1007 1.539 . S
C1005 C1001 1.408 . S
C1005 C1004 1.404 . S
C1005 H1017 0.930 . S
C1006 C1002 1.524 . S
C1006 H1018 0.956 . S
C1006 H1019 0.961 . S
C1006 H1020 0.961 . S
C1007 C1004 1.539 . S
C1007 H1021 0.958 . S
C1007 H1022 0.961 . S
C1007 H1023 0.960 . S
H1008 C992 0.931 . S
H1009 C997 0.929 . S
H1010 C998 0.960 . S
H1011 C998 0.962 . S
H1012 C998 0.960 . S
H1013 C999 0.961 . S
H1014 C999 0.961 . S
H1015 C999 0.961 . S
H1016 C1000 0.931 . S
H1017 C1005 0.930 . S
H1018 C1006 0.956 . S
H1019 C1006 0.961 . S
H1020 C1006 0.961 . S
H1021 C1007 0.958 . S
H1022 C1007 0.961 . S
H1023 C1007 0.960 . S
C1024 C1025 1.391 . S
C1024 C1026 1.394 . S
C1024 H1040 0.931 . S
C1025 C1024 1.391 . S
C1025 C1029 1.376 . S
C1026 C1024 1.394 . S
C1026 C1027 1.369 . S
C1026 C1030 1.531 . S
C1027 C1026 1.369 . S
C1027 C1028 1.410 . S
C1027 C1035 1.503 . S
C1028 C1027 1.410 . S
C1028 C1029 1.392 . S
C1028 C1031 1.511 . S
C1029 C1025 1.376 . S
C1029 C1028 1.392 . S
C1029 H1041 0.929 . S
C1030 C1026 1.531 . S
C1030 H1042 0.960 . S
C1030 H1043 0.962 . S
C1030 H1044 0.960 . S
C1031 C1028 1.511 . S
C1031 H1045 0.961 . S
C1031 H1046 0.961 . S
C1031 H1047 0.961 . S
C1032 C1033 1.370 . S
C1032 C1034 1.363 . S
C1032 H1048 0.931 . S
C1033 C1032 1.370 . S
C1033 C1037 1.408 . S
C1034 C1032 1.363 . S
C1034 C1035 1.370 . S
C1034 C1038 1.524 . S
C1035 C1027 1.503 . S
C1035 C1034 1.370 . S
C1035 C1036 1.403 . S
C1036 C1035 1.403 . S
C1036 C1037 1.404 . S
C1036 C1039 1.539 . S
C1037 C1033 1.408 . S
C1037 C1036 1.404 . S
C1037 H1049 0.930 . S
C1038 C1034 1.524 . S
C1038 H1050 0.956 . S
C1038 H1051 0.961 . S
C1038 H1052 0.961 . S
C1039 C1036 1.539 . S
C1039 H1053 0.958 . S
C1039 H1054 0.961 . S
C1039 H1055 0.960 . S
H1040 C1024 0.931 . S
H1041 C1029 0.929 . S
H1042 C1030 0.960 . S
H1043 C1030 0.962 . S
H1044 C1030 0.960 . S
H1045 C1031 0.961 . S
H1046 C1031 0.961 . S
H1047 C1031 0.961 . S
H1048 C1032 0.931 . S
H1049 C1037 0.930 . S
H1050 C1038 0.956 . S
H1051 C1038 0.961 . S
H1052 C1038 0.961 . S
H1053 C1039 0.958 . S
H1054 C1039 0.961 . S
H1055 C1039 0.960 . S
C1056 C1057 1.391 . S
C1056 C1058 1.394 . S
C1056 H1072 0.931 . S
C1057 C1056 1.391 . S
C1057 C1061 1.376 . S
C1058 C1056 1.394 . S
C1058 C1059 1.369 . S
C1058 C1062 1.531 1_545 S
C1059 C1058 1.369 . S
C1059 C1060 1.410 . S
C1059 C1067 1.503 1_545 S
C1060 C1059 1.410 . S
C1060 C1061 1.392 . S
C1060 C1063 1.511 . S
C1061 C1057 1.376 . S
C1061 C1060 1.392 . S
C1061 H1073 0.929 . S
C1062 C1058 1.531 1_565 S
C1062 H1074 0.960 . S
C1062 H1075 0.962 . S
C1062 H1076 0.960 . S
C1063 C1060 1.511 . S
C1063 H1077 0.961 . S
C1063 H1078 0.961 . S
C1063 H1079 0.961 . S
C1064 C1065 1.370 . S
C1064 C1066 1.363 . S
C1064 H1080 0.931 . S
C1065 C1064 1.370 . S
C1065 C1069 1.408 . S
C1066 C1064 1.363 . S
C1066 C1067 1.370 . S
C1066 C1070 1.524 . S
C1067 C1059 1.503 1_565 S
C1067 C1066 1.370 . S
C1067 C1068 1.403 . S
C1068 C1067 1.403 . S
C1068 C1069 1.404 . S
C1068 C1071 1.539 . S
C1069 C1065 1.408 . S
C1069 C1068 1.404 . S
C1069 H1081 0.930 . S
C1070 C1066 1.524 . S
C1070 H1082 0.956 . S
C1070 H1083 0.961 . S
C1070 H1084 0.961 . S
C1071 C1068 1.539 . S
C1071 H1085 0.958 . S
C1071 H1086 0.961 . S
C1071 H1087 0.960 . S
H1072 C1056 0.931 . S
H1073 C1061 0.929 . S
H1074 C1062 0.960 . S
H1075 C1062 0.962 . S
H1076 C1062 0.960 . S
H1077 C1063 0.961 . S
H1078 C1063 0.961 . S
H1079 C1063 0.961 . S
H1080 C1064 0.931 . S
H1081 C1069 0.930 . S
H1082 C1070 0.956 . S
H1083 C1070 0.961 . S
H1084 C1070 0.961 . S
H1085 C1071 0.958 . S
H1086 C1071 0.961 . S
H1087 C1071 0.960 . S
C1088 C1089 1.391 . S
C1088 C1090 1.394 . S
C1088 H1104 0.931 . S
C1089 C1088 1.391 . S
C1089 C1093 1.376 . S
C1090 C1088 1.394 . S
C1090 C1091 1.376 . S
C1090 C1094 1.531 . S
C1091 C1090 1.376 . S
C1091 C1092 1.410 . S
C1091 C1099 1.496 1_455 S
C1092 C1091 1.410 . S
C1092 C1093 1.392 . S
C1092 C1095 1.511 1_455 S
C1093 C1089 1.376 . S
C1093 C1092 1.392 . S
C1093 H1105 0.929 . S
C1094 C1090 1.531 . S
C1094 H1106 0.960 . S
C1094 H1107 0.962 . S
C1094 H1108 0.960 . S
C1095 C1092 1.511 1_655 S
C1095 H1109 0.961 . S
C1095 H1110 0.961 . S
C1095 H1111 0.961 . S
C1096 C1097 1.370 . S
C1096 C1098 1.363 . S
C1096 H1112 0.931 . S
C1097 C1096 1.370 . S
C1097 C1101 1.408 . S
C1098 C1096 1.363 . S
C1098 C1099 1.370 . S
C1098 C1102 1.524 . S
C1099 C1091 1.496 1_655 S
C1099 C1098 1.370 . S
C1099 C1100 1.403 . S
C1100 C1099 1.403 . S
C1100 C1101 1.404 . S
C1100 C1103 1.539 . S
C1101 C1097 1.408 . S
C1101 C1100 1.404 . S
C1101 H1113 0.930 . S
C1102 C1098 1.524 . S
C1102 H1114 0.956 1_655 S
C1102 H1115 0.961 . S
C1102 H1116 0.961 . S
C1103 C1100 1.539 . S
C1103 H1117 0.958 . S
C1103 H1118 0.961 . S
C1103 H1119 0.960 . S
H1104 C1088 0.931 . S
H1105 C1093 0.929 . S
H1106 C1094 0.960 . S
H1107 C1094 0.962 . S
H1108 C1094 0.960 . S
H1109 C1095 0.961 . S
H1110 C1095 0.961 . S
H1111 C1095 0.961 . S
H1112 C1096 0.931 . S
H1113 C1101 0.930 . S
H1114 C1102 0.956 1_455 S
H1115 C1102 0.961 . S
H1116 C1102 0.961 . S
H1117 C1103 0.958 . S
H1118 C1103 0.961 . S
H1119 C1103 0.960 . S
C1120 C1121 1.391 . S
C1120 C1122 1.394 . S
C1120 H1136 0.931 . S
C1121 C1120 1.391 . S
C1121 C1125 1.376 . S
C1122 C1120 1.394 . S
C1122 C1123 1.369 . S
C1122 C1126 1.531 . S
C1123 C1122 1.369 . S
C1123 C1124 1.410 . S
C1123 C1131 1.503 1_565 S
C1124 C1123 1.410 . S
C1124 C1125 1.392 . S
C1124 C1127 1.511 1_565 S
C1125 C1121 1.376 . S
C1125 C1124 1.392 . S
C1125 H1137 0.929 . S
C1126 C1122 1.531 . S
C1126 H1138 0.960 . S
C1126 H1139 0.962 . S
C1126 H1140 0.960 . S
C1127 C1124 1.511 1_545 S
C1127 H1141 0.961 . S
C1127 H1142 0.961 . S
C1127 H1143 0.961 . S
C1128 C1129 1.370 . S
C1128 C1130 1.363 . S
C1128 H1144 0.931 . S
C1129 C1128 1.370 . S
C1129 C1133 1.408 . S
C1130 C1128 1.363 . S
C1130 C1131 1.370 . S
C1130 C1134 1.524 . S
C1131 C1123 1.503 1_545 S
C1131 C1130 1.370 . S
C1131 C1132 1.403 . S
C1132 C1131 1.403 . S
C1132 C1133 1.404 . S
C1132 C1135 1.539 . S
C1133 C1129 1.408 . S
C1133 C1132 1.404 . S
C1133 H1145 0.930 . S
C1134 C1130 1.524 . S
C1134 H1146 0.956 . S
C1134 H1147 0.961 . S
C1134 H1148 0.961 . S
C1135 C1132 1.539 . S
C1135 H1149 0.958 . S
C1135 H1150 0.961 . S
C1135 H1151 0.960 . S
H1136 C1120 0.931 . S
H1137 C1125 0.929 . S
H1138 C1126 0.960 . S
H1139 C1126 0.962 . S
H1140 C1126 0.960 . S
H1141 C1127 0.961 . S
H1142 C1127 0.961 . S
H1143 C1127 0.961 . S
H1144 C1128 0.931 . S
H1145 C1133 0.930 . S
H1146 C1134 0.956 . S
H1147 C1134 0.961 . S
H1148 C1134 0.961 . S
H1149 C1135 0.958 . S
H1150 C1135 0.961 . S
H1151 C1135 0.960 . S
C1152 C1153 1.391 . S
C1152 C1154 1.394 . S
C1152 H1168 0.931 . S
C1153 C1152 1.391 . S
C1153 C1157 1.376 . S
C1154 C1152 1.394 . S
C1154 C1155 1.369 . S
C1154 C1158 1.531 . S
C1155 C1154 1.369 . S
C1155 C1156 1.410 . S
C1155 C1163 1.503 1_455 S
C1156 C1155 1.410 . S
C1156 C1157 1.392 . S
C1156 C1159 1.511 . S
C1157 C1153 1.376 . S
C1157 C1156 1.392 . S
C1157 H1169 0.929 . S
C1158 C1154 1.531 . S
C1158 H1170 0.960 . S
C1158 H1171 0.962 . S
C1158 H1172 0.960 . S
C1159 C1156 1.511 . S
C1159 H1173 0.961 . S
C1159 H1174 0.961 1_455 S
C1159 H1175 0.961 1_455 S
C1160 C1161 1.370 . S
C1160 C1162 1.363 . S
C1160 H1176 0.931 . S
C1161 C1160 1.370 . S
C1161 C1165 1.408 . S
C1162 C1160 1.363 . S
C1162 C1163 1.370 . S
C1162 C1166 1.524 1_655 S
C1163 C1155 1.503 1_655 S
C1163 C1162 1.370 . S
C1163 C1164 1.403 . S
C1164 C1163 1.403 . S
C1164 C1165 1.404 . S
C1164 C1167 1.539 . S
C1165 C1161 1.408 . S
C1165 C1164 1.404 . S
C1165 H1177 0.930 . S
C1166 C1162 1.524 1_455 S
C1166 H1178 0.956 . S
C1166 H1179 0.961 . S
C1166 H1180 0.961 . S
C1167 C1164 1.539 . S
C1167 H1181 0.958 . S
C1167 H1182 0.961 . S
C1167 H1183 0.960 . S
H1168 C1152 0.931 . S
H1169 C1157 0.929 . S
H1170 C1158 0.960 . S
H1171 C1158 0.962 . S
H1172 C1158 0.960 . S
H1173 C1159 0.961 . S
H1174 C1159 0.961 1_655 S
H1175 C1159 0.961 1_655 S
H1176 C1160 0.931 . S
H1177 C1165 0.930 . S
H1178 C1166 0.956 . S
H1179 C1166 0.961 . S
H1180 C1166 0.961 . S
H1181 C1167 0.958 . S
H1182 C1167 0.961 . S
H1183 C1167 0.960 . S
C1184 C1185 1.391 . S
C1184 C1186 1.394 . S
C1184 H1200 0.931 . S
C1185 C1184 1.391 . S
C1185 C1189 1.376 . S
C1186 C1184 1.394 . S
C1186 C1187 1.369 . S
C1186 C1190 1.531 . S
C1187 C1186 1.369 . S
C1187 C1188 1.410 . S
C1187 C1195 1.503 . S
C1188 C1187 1.410 . S
C1188 C1189 1.392 . S
C1188 C1191 1.511 . S
C1189 C1185 1.376 . S
C1189 C1188 1.392 . S
C1189 H1201 0.929 . S
C1190 C1186 1.531 . S
C1190 H1202 0.960 . S
C1190 H1203 0.962 . S
C1190 H1204 0.960 . S
C1191 C1188 1.511 . S
C1191 H1205 0.961 . S
C1191 H1206 0.961 . S
C1191 H1207 0.961 . S
C1192 C1193 1.370 . S
C1192 C1194 1.363 . S
C1192 H1208 0.931 . S
C1193 C1192 1.370 . S
C1193 C1197 1.408 . S
C1194 C1192 1.363 . S
C1194 C1195 1.370 . S
C1194 C1198 1.524 . S
C1195 C1187 1.503 . S
C1195 C1194 1.370 . S
C1195 C1196 1.403 . S
C1196 C1195 1.403 . S
C1196 C1197 1.404 . S
C1196 C1199 1.539 . S
C1197 C1193 1.408 . S
C1197 C1196 1.404 . S
C1197 H1209 0.930 . S
C1198 C1194 1.524 . S
C1198 H1210 0.956 . S
C1198 H1211 0.961 . S
C1198 H1212 0.961 . S
C1199 C1196 1.539 . S
C1199 H1213 0.958 . S
C1199 H1214 0.961 . S
C1199 H1215 0.960 . S
H1200 C1184 0.931 . S
H1201 C1189 0.929 . S
H1202 C1190 0.960 . S
H1203 C1190 0.962 . S
H1204 C1190 0.960 . S
H1205 C1191 0.961 . S
H1206 C1191 0.961 . S
H1207 C1191 0.961 . S
H1208 C1192 0.931 . S
H1209 C1197 0.930 . S
H1210 C1198 0.956 . S
H1211 C1198 0.961 . S
H1212 C1198 0.961 . S
H1213 C1199 0.958 . S
H1214 C1199 0.961 . S
H1215 C1199 0.960 . S
C1216 C1217 1.391 . S
C1216 C1218 1.394 . S
C1216 H1232 0.931 . S
C1217 C1216 1.391 . S
C1217 C1221 1.376 . S
C1218 C1216 1.394 . S
C1218 C1219 1.369 . S
C1218 C1222 1.531 . S
C1219 C1218 1.369 . S
C1219 C1220 1.410 . S
C1219 C1227 1.503 . S
C1220 C1219 1.410 . S
C1220 C1221 1.392 . S
C1220 C1223 1.511 . S
C1221 C1217 1.376 . S
C1221 C1220 1.392 . S
C1221 H1233 0.929 . S
C1222 C1218 1.531 . S
C1222 H1234 0.960 . S
C1222 H1235 0.962 . S
C1222 H1236 0.960 . S
C1223 C1220 1.511 . S
C1223 H1237 0.961 . S
C1223 H1238 0.961 . S
C1223 H1239 0.961 . S
C1224 C1225 1.370 . S
C1224 C1226 1.363 . S
C1224 H1240 0.931 . S
C1225 C1224 1.370 . S
C1225 C1229 1.408 . S
C1226 C1224 1.363 . S
C1226 C1227 1.370 . S
C1226 C1230 1.524 . S
C1227 C1219 1.503 . S
C1227 C1226 1.370 . S
C1227 C1228 1.403 . S
C1228 C1227 1.403 . S
C1228 C1229 1.404 . S
C1228 C1231 1.539 . S
C1229 C1225 1.408 . S
C1229 C1228 1.404 . S
C1229 H1241 0.930 . S
C1230 C1226 1.524 . S
C1230 H1242 0.956 . S
C1230 H1243 0.961 . S
C1230 H1244 0.961 . S
C1231 C1228 1.539 . S
C1231 H1245 0.958 . S
C1231 H1246 0.961 . S
C1231 H1247 0.960 . S
H1232 C1216 0.931 . S
H1233 C1221 0.929 . S
H1234 C1222 0.960 . S
H1235 C1222 0.962 . S
H1236 C1222 0.960 . S
H1237 C1223 0.961 . S
H1238 C1223 0.961 . S
H1239 C1223 0.961 . S
H1240 C1224 0.931 . S
H1241 C1229 0.930 . S
H1242 C1230 0.956 . S
H1243 C1230 0.961 . S
H1244 C1230 0.961 . S
H1245 C1231 0.958 . S
H1246 C1231 0.961 . S
H1247 C1231 0.960 . S
C1248 C1249 1.391 . S
C1248 C1250 1.394 . S
C1248 H1264 0.931 . S
C1249 C1248 1.391 . S
C1249 C1253 1.376 . S
C1250 C1248 1.394 . S
C1250 C1251 1.369 . S
C1250 C1254 1.531 . S
C1251 C1250 1.369 . S
C1251 C1252 1.410 . S
C1251 C1259 1.503 . S
C1252 C1251 1.410 . S
C1252 C1253 1.392 . S
C1252 C1255 1.511 . S
C1253 C1249 1.376 . S
C1253 C1252 1.392 . S
C1253 H1265 0.929 . S
C1254 C1250 1.531 . S
C1254 H1266 0.960 . S
C1254 H1267 0.962 . S
C1254 H1268 0.960 . S
C1255 C1252 1.511 . S
C1255 H1269 0.961 . S
C1255 H1270 0.961 . S
C1255 H1271 0.961 . S
C1256 C1257 1.370 . S
C1256 C1258 1.363 . S
C1256 H1272 0.931 . S
C1257 C1256 1.370 . S
C1257 C1261 1.408 . S
C1258 C1256 1.363 . S
C1258 C1259 1.370 . S
C1258 C1262 1.524 . S
C1259 C1251 1.503 . S
C1259 C1258 1.370 . S
C1259 C1260 1.403 . S
C1260 C1259 1.403 . S
C1260 C1261 1.404 . S
C1260 C1263 1.539 . S
C1261 C1257 1.408 . S
C1261 C1260 1.404 . S
C1261 H1273 0.930 . S
C1262 C1258 1.524 . S
C1262 H1274 0.956 . S
C1262 H1275 0.961 . S
C1262 H1276 0.961 . S
C1263 C1260 1.539 . S
C1263 H1277 0.958 . S
C1263 H1278 0.961 . S
C1263 H1279 0.960 . S
H1264 C1248 0.931 . S
H1265 C1253 0.929 . S
H1266 C1254 0.960 . S
H1267 C1254 0.962 . S
H1268 C1254 0.960 . S
H1269 C1255 0.961 . S
H1270 C1255 0.961 . S
H1271 C1255 0.961 . S
H1272 C1256 0.931 . S
H1273 C1261 0.930 . S
H1274 C1262 0.956 . S
H1275 C1262 0.961 . S
H1276 C1262 0.961 . S
H1277 C1263 0.958 . S
H1278 C1263 0.961 . S
H1279 C1263 0.960 . S
C1280 C1281 1.391 . S
C1280 C1282 1.394 . S
C1280 H1296 0.931 . S
C1281 C1280 1.391 . S
C1281 C1285 1.376 . S
C1282 C1280 1.394 . S
C1282 C1283 1.369 . S
C1282 C1286 1.531 . S
C1283 C1282 1.369 . S
C1283 C1284 1.410 . S
C1283 C1291 1.503 . S
C1284 C1283 1.410 . S
C1284 C1285 1.392 . S
C1284 C1287 1.511 . S
C1285 C1281 1.376 . S
C1285 C1284 1.392 . S
C1285 H1297 0.929 . S
C1286 C1282 1.531 . S
C1286 H1298 0.960 . S
C1286 H1299 0.962 . S
C1286 H1300 0.960 . S
C1287 C1284 1.511 . S
C1287 H1301 0.961 . S
C1287 H1302 0.961 . S
C1287 H1303 0.961 . S
C1288 C1289 1.370 . S
C1288 C1290 1.363 . S
C1288 H1304 0.931 . S
C1289 C1288 1.370 . S
C1289 C1293 1.408 . S
C1290 C1288 1.363 . S
C1290 C1291 1.370 . S
C1290 C1294 1.524 . S
C1291 C1283 1.503 . S
C1291 C1290 1.370 . S
C1291 C1292 1.403 . S
C1292 C1291 1.403 . S
C1292 C1293 1.404 . S
C1292 C1295 1.539 . S
C1293 C1289 1.408 . S
C1293 C1292 1.404 . S
C1293 H1305 0.930 . S
C1294 C1290 1.524 . S
C1294 H1306 0.956 . S
C1294 H1307 0.961 . S
C1294 H1308 0.961 . S
C1295 C1292 1.539 . S
C1295 H1309 0.958 . S
C1295 H1310 0.961 . S
C1295 H1311 0.960 . S
H1296 C1280 0.931 . S
H1297 C1285 0.929 . S
H1298 C1286 0.960 . S
H1299 C1286 0.962 . S
H1300 C1286 0.960 . S
H1301 C1287 0.961 . S
H1302 C1287 0.961 . S
H1303 C1287 0.961 . S
H1304 C1288 0.931 . S
H1305 C1293 0.930 . S
H1306 C1294 0.956 . S
H1307 C1294 0.961 . S
H1308 C1294 0.961 . S
H1309 C1295 0.958 . S
H1310 C1295 0.961 . S
H1311 C1295 0.960 . S
C1312 C1313 1.391 . S
C1312 C1314 1.394 . S
C1312 H1328 0.931 . S
C1313 C1312 1.391 . S
C1313 C1317 1.376 . S
C1314 C1312 1.394 . S
C1314 C1315 1.369 . S
C1314 C1318 1.531 . S
C1315 C1314 1.369 . S
C1315 C1316 1.410 . S
C1315 C1323 1.503 . S
C1316 C1315 1.410 . S
C1316 C1317 1.392 . S
C1316 C1319 1.511 . S
C1317 C1313 1.376 . S
C1317 C1316 1.392 . S
C1317 H1329 0.929 . S
C1318 C1314 1.531 . S
C1318 H1330 0.960 . S
C1318 H1331 0.962 . S
C1318 H1332 0.960 . S
C1319 C1316 1.511 . S
C1319 H1333 0.961 . S
C1319 H1334 0.961 . S
C1319 H1335 0.961 . S
C1320 C1321 1.370 . S
C1320 C1322 1.363 . S
C1320 H1336 0.931 . S
C1321 C1320 1.370 . S
C1321 C1325 1.408 . S
C1322 C1320 1.363 . S
C1322 C1323 1.370 . S
C1322 C1326 1.524 . S
C1323 C1315 1.503 . S
C1323 C1322 1.370 . S
C1323 C1324 1.403 . S
C1324 C1323 1.403 . S
C1324 C1325 1.404 . S
C1324 C1327 1.539 . S
C1325 C1321 1.408 . S
C1325 C1324 1.404 . S
C1325 H1337 0.930 . S
C1326 C1322 1.524 . S
C1326 H1338 0.956 . S
C1326 H1339 0.961 . S
C1326 H1340 0.961 . S
C1327 C1324 1.539 . S
C1327 H1341 0.958 . S
C1327 H1342 0.961 . S
C1327 H1343 0.960 . S
H1328 C1312 0.931 . S
H1329 C1317 0.929 . S
H1330 C1318 0.960 . S
H1331 C1318 0.962 . S
H1332 C1318 0.960 . S
H1333 C1319 0.961 . S
H1334 C1319 0.961 . S
H1335 C1319 0.961 . S
H1336 C1320 0.931 . S
H1337 C1325 0.930 . S
H1338 C1326 0.956 . S
H1339 C1326 0.961 . S
H1340 C1326 0.961 . S
H1341 C1327 0.958 . S
H1342 C1327 0.961 . S
H1343 C1327 0.960 . S
C1344 C1345 1.391 . S
C1344 C1346 1.394 . S
C1344 H1360 0.931 . S
C1345 C1344 1.391 . S
C1345 C1349 1.376 . S
C1346 C1344 1.394 . S
C1346 C1347 1.369 . S
C1346 C1350 1.531 . S
C1347 C1346 1.369 . S
C1347 C1348 1.410 . S
C1347 C1355 1.503 . S
C1348 C1347 1.410 . S
C1348 C1349 1.392 . S
C1348 C1351 1.511 . S
C1349 C1345 1.376 . S
C1349 C1348 1.392 . S
C1349 H1361 0.929 . S
C1350 C1346 1.531 . S
C1350 H1362 0.960 . S
C1350 H1363 0.962 . S
C1350 H1364 0.960 . S
C1351 C1348 1.511 . S
C1351 H1365 0.961 . S
C1351 H1366 0.961 . S
C1351 H1367 0.961 . S
C1352 C1353 1.370 . S
C1352 C1354 1.363 . S
C1352 H1368 0.931 . S
C1353 C1352 1.370 . S
C1353 C1357 1.408 . S
C1354 C1352 1.363 . S
C1354 C1355 1.370 . S
C1354 C1358 1.524 . S
C1355 C1347 1.503 . S
C1355 C1354 1.370 . S
C1355 C1356 1.403 . S
C1356 C1355 1.403 . S
C1356 C1357 1.404 . S
C1356 C1359 1.539 . S
C1357 C1353 1.408 . S
C1357 C1356 1.404 . S
C1357 H1369 0.930 . S
C1358 C1354 1.524 . S
C1358 H1370 0.956 . S
C1358 H1371 0.961 . S
C1358 H1372 0.961 . S
C1359 C1356 1.539 . S
C1359 H1373 0.958 . S
C1359 H1374 0.961 . S
C1359 H1375 0.960 . S
H1360 C1344 0.931 . S
H1361 C1349 0.929 . S
H1362 C1350 0.960 . S
H1363 C1350 0.962 . S
H1364 C1350 0.960 . S
H1365 C1351 0.961 . S
H1366 C1351 0.961 . S
H1367 C1351 0.961 . S
H1368 C1352 0.931 . S
H1369 C1357 0.930 . S
H1370 C1358 0.956 . S
H1371 C1358 0.961 . S
H1372 C1358 0.961 . S
H1373 C1359 0.958 . S
H1374 C1359 0.961 . S
H1375 C1359 0.960 . S
C1376 C1377 1.391 . S
C1376 C1378 1.394 . S
C1376 H1392 0.931 . S
C1377 C1376 1.391 . S
C1377 C1381 1.376 . S
C1378 C1376 1.394 . S
C1378 C1379 1.369 . S
C1378 C1382 1.531 . S
C1379 C1378 1.369 . S
C1379 C1380 1.410 . S
C1379 C1387 1.503 . S
C1380 C1379 1.410 . S
C1380 C1381 1.392 . S
C1380 C1383 1.511 . S
C1381 C1377 1.376 . S
C1381 C1380 1.392 . S
C1381 H1393 0.929 . S
C1382 C1378 1.531 . S
C1382 H1394 0.960 . S
C1382 H1395 0.962 . S
C1382 H1396 0.960 . S
C1383 C1380 1.511 . S
C1383 H1397 0.961 . S
C1383 H1398 0.961 . S
C1383 H1399 0.961 . S
C1384 C1385 1.370 . S
C1384 C1386 1.363 . S
C1384 H1400 0.931 . S
C1385 C1384 1.370 . S
C1385 C1389 1.408 . S
C1386 C1384 1.363 . S
C1386 C1387 1.370 . S
C1386 C1390 1.524 . S
C1387 C1379 1.503 . S
C1387 C1386 1.370 . S
C1387 C1388 1.403 . S
C1388 C1387 1.403 . S
C1388 C1389 1.404 . S
C1388 C1391 1.539 . S
C1389 C1385 1.408 . S
C1389 C1388 1.404 . S
C1389 H1401 0.930 . S
C1390 C1386 1.524 . S
C1390 H1402 0.956 . S
C1390 H1403 0.961 . S
C1390 H1404 0.961 . S
C1391 C1388 1.539 . S
C1391 H1405 0.958 . S
C1391 H1406 0.961 . S
C1391 H1407 0.960 . S
H1392 C1376 0.931 . S
H1393 C1381 0.929 . S
H1394 C1382 0.960 . S
H1395 C1382 0.962 . S
H1396 C1382 0.960 . S
H1397 C1383 0.961 . S
H1398 C1383 0.961 . S
H1399 C1383 0.961 . S
H1400 C1384 0.931 . S
H1401 C1389 0.930 . S
H1402 C1390 0.956 . S
H1403 C1390 0.961 . S
H1404 C1390 0.961 . S
H1405 C1391 0.958 . S
H1406 C1391 0.961 . S
H1407 C1391 0.960 . S
C1408 C1409 1.391 . S
C1408 C1410 1.394 . S
C1408 H1424 0.931 . S
C1409 C1408 1.391 . S
C1409 C1413 1.376 . S
C1410 C1408 1.394 . S
C1410 C1411 1.369 . S
C1410 C1414 1.531 . S
C1411 C1410 1.369 . S
C1411 C1412 1.410 . S
C1411 C1419 1.503 . S
C1412 C1411 1.410 . S
C1412 C1413 1.392 . S
C1412 C1415 1.511 . S
C1413 C1409 1.376 . S
C1413 C1412 1.392 . S
C1413 H1425 0.929 . S
C1414 C1410 1.531 . S
C1414 H1426 0.960 . S
C1414 H1427 0.962 . S
C1414 H1428 0.960 . S
C1415 C1412 1.511 . S
C1415 H1429 0.961 . S
C1415 H1430 0.961 . S
C1415 H1431 0.961 . S
C1416 C1417 1.370 . S
C1416 C1418 1.363 . S
C1416 H1432 0.931 . S
C1417 C1416 1.370 . S
C1417 C1421 1.408 . S
C1418 C1416 1.363 . S
C1418 C1419 1.370 . S
C1418 C1422 1.524 . S
C1419 C1411 1.503 . S
C1419 C1418 1.370 . S
C1419 C1420 1.403 . S
C1420 C1419 1.403 . S
C1420 C1421 1.404 . S
C1420 C1423 1.539 . S
C1421 C1417 1.408 . S
C1421 C1420 1.404 . S
C1421 H1433 0.930 . S
C1422 C1418 1.524 . S
C1422 H1434 0.956 . S
C1422 H1435 0.961 . S
C1422 H1436 0.961 . S
C1423 C1420 1.539 . S
C1423 H1437 0.958 . S
C1423 H1438 0.961 . S
C1423 H1439 0.960 . S
H1424 C1408 0.931 . S
H1425 C1413 0.929 . S
H1426 C1414 0.960 . S
H1427 C1414 0.962 . S
H1428 C1414 0.960 . S
H1429 C1415 0.961 . S
H1430 C1415 0.961 . S
H1431 C1415 0.961 . S
H1432 C1416 0.931 . S
H1433 C1421 0.930 . S
H1434 C1422 0.956 . S
H1435 C1422 0.961 . S
H1436 C1422 0.961 . S
H1437 C1423 0.958 . S
H1438 C1423 0.961 . S
H1439 C1423 0.960 . S
C673 C67 1.323 . S
C681 C478 1.087 . S
C705 C140 1.372 . S
C713 C562 1.261 . S
C737 C235 1.354 . S
C745 C657 1.297 . S
C769 C394 1.238 . S
C777 C315 1.295 . S
C801 C489 1.333 1_556 S
C809 C410 1.322 . S
C833 C573 1.103 . S
C841 C476 1.370 . S
C865 C646 1.138 1_556 S
C873 C578 1.271 . S
C897 C651 1.331 . S
C905 C405 1.071 1_554 S
C929 C571 1.332 . S
C937 C310 1.077 . S
C961 C644 1.373 . S
C969 C58 1.263 . S
C993 C153 1.321 . S
C1001 C403 1.362 . S
C1025 C226 1.299 . S
C1033 C483 1.286 . S
C1057 C321 1.273 . S
C1065 C242 1.345 . S
C1089 C69 1.054 . S
C1097 C308 1.378 . S
C1121 C142 1.153 . S
C1129 C74 1.274 . S
C1153 C147 1.336 . S
C1161 C237 1.069 . S
C1185 C392 2.692 1_554 S
C1193 C63 2.763 . S
C1217 C494 2.766 1_556 S
C1225 C158 2.758 . S
C1249 C231 2.744 . S
C1257 C560 2.719 1_554 S
C1281 C319 2.724 . S
C1289 C655 2.721 1_556 S
C1313 C224 2.701 . S
C1321 C567 2.770 . S
C1345 C326 2.738 . S
C1353 C662 2.755 . S
C1377 C399 2.743 . S
C1385 C56 2.718 . S
C1409 C487 2.730 . S
C1417 C151 2.718 . S
