# Generated by pormake.
# Topology wmc, (6)-cn, num edge types: 1
# Building blocks:
#     Node 0, Type 0, BuildingBlock: IZENUY_clean_sbu_0, # of connection points: 6
#     Node 1, Type 0, BuildingBlock: IZENUY_clean_sbu_0, # of connection points: 6
#     Node 2, Type 0, BuildingBlock: IZENUY_clean_sbu_0, # of connection points: 6
#     Node 3, Type 0, BuildingBlock: IZENUY_clean_sbu_0, # of connection points: 6
#     Node 4, Type 0, BuildingBlock: IZENUY_clean_sbu_0, # of connection points: 6
#     Node 5, Type 0, BuildingBlock: IZENUY_clean_sbu_0, # of connection points: 6
#     Node 6, Type 0, BuildingBlock: IZENUY_clean_sbu_0, # of connection points: 6
#     Node 7, Type 0, BuildingBlock: IZENUY_clean_sbu_0, # of connection points: 6
#     Node 8, Type 0, BuildingBlock: IZENUY_clean_sbu_0, # of connection points: 6
#     Node 9, Type 0, BuildingBlock: IZENUY_clean_sbu_0, # of connection points: 6
#     Node 10, Type 0, BuildingBlock: IZENUY_clean_sbu_0, # of connection points: 6
#     Node 11, Type 0, BuildingBlock: IZENUY_clean_sbu_0, # of connection points: 6
#     Node 12, Type 0, BuildingBlock: IZENUY_clean_sbu_0, # of connection points: 6
#     Node 13, Type 0, BuildingBlock: IZENUY_clean_sbu_0, # of connection points: 6
#     Node 14, Type 0, BuildingBlock: IZENUY_clean_sbu_0, # of connection points: 6
#     Node 15, Type 0, BuildingBlock: IZENUY_clean_sbu_0, # of connection points: 6
#     Node 16, Type 0, BuildingBlock: IZENUY_clean_sbu_0, # of connection points: 6
#     Node 17, Type 0, BuildingBlock: IZENUY_clean_sbu_0, # of connection points: 6
#     Edge 18, Type (0, 0), None
#     Edge 19, Type (0, 0), None
#     Edge 20, Type (0, 0), None
#     Edge 21, Type (0, 0), None
#     Edge 22, Type (0, 0), None
#     Edge 23, Type (0, 0), None
#     Edge 24, Type (0, 0), None
#     Edge 25, Type (0, 0), None
#     Edge 26, Type (0, 0), None
#     Edge 27, Type (0, 0), None
#     Edge 28, Type (0, 0), None
#     Edge 29, Type (0, 0), None
#     Edge 30, Type (0, 0), None
#     Edge 31, Type (0, 0), None
#     Edge 32, Type (0, 0), None
#     Edge 33, Type (0, 0), None
#     Edge 34, Type (0, 0), None
#     Edge 35, Type (0, 0), None
#     Edge 36, Type (0, 0), None
#     Edge 37, Type (0, 0), None
#     Edge 38, Type (0, 0), None
#     Edge 39, Type (0, 0), None
#     Edge 40, Type (0, 0), None
#     Edge 41, Type (0, 0), None
#     Edge 42, Type (0, 0), None
#     Edge 43, Type (0, 0), None
#     Edge 44, Type (0, 0), None
#     Edge 45, Type (0, 0), None
#     Edge 46, Type (0, 0), None
#     Edge 47, Type (0, 0), None
#     Edge 48, Type (0, 0), None
#     Edge 49, Type (0, 0), None
#     Edge 50, Type (0, 0), None
#     Edge 51, Type (0, 0), None
#     Edge 52, Type (0, 0), None
#     Edge 53, Type (0, 0), None
#     Edge 54, Type (0, 0), None
#     Edge 55, Type (0, 0), None
#     Edge 56, Type (0, 0), None
#     Edge 57, Type (0, 0), None
#     Edge 58, Type (0, 0), None
#     Edge 59, Type (0, 0), None
#     Edge 60, Type (0, 0), None
#     Edge 61, Type (0, 0), None
#     Edge 62, Type (0, 0), None
#     Edge 63, Type (0, 0), None
#     Edge 64, Type (0, 0), None
#     Edge 65, Type (0, 0), None
#     Edge 66, Type (0, 0), None
#     Edge 67, Type (0, 0), None
#     Edge 68, Type (0, 0), None
#     Edge 69, Type (0, 0), None
#     Edge 70, Type (0, 0), None
#     Edge 71, Type (0, 0), None
# Relax obj value: 0.342
# Max RMSD: 0.273
# Mean RMSD: 0.273
data_MOF--net-wmc--node1-IZENUY_clean_sbu_0--edge1-none
_symmetry_space_group_name_H-M    P1
_symmetry_Int_Tables_number       1
_symmetry_cell_setting            triclinic
loop_
_symmetry_equiv_pos_as_xyz
'x, y, z'
_cell_length_a     20.929824
_cell_length_b     20.928988
_cell_length_c     13.480323
_cell_angle_alpha  89.998724
_cell_angle_beta   90.002466
_cell_angle_gamma 119.99602
loop_
_atom_site_label
_atom_site_type_symbol
_atom_site_fract_x
_atom_site_fract_y
_atom_site_fract_z
_atom_type_partial_charge
Fe0 Fe 0.74576 0.15514 0.99149 0.0
Fe1 Fe 0.59171 0.13552 0.03765 0.0
O2 O 0.68922 0.18473 0.04919 0.0
Fe3 Fe 0.72808 0.26605 0.11505 0.0
O4 O 0.75878 0.30711 0.99596 0.0
O5 O 0.82178 0.25258 0.9664 0.0
O6 O 0.71647 0.1602 0.87175 0.0
C7 C 0.65389 0.14164 0.84167 0.0
C8 C 0.84627 0.23275 0.14538 0.0
O9 O 0.59823 0.11731 0.90069 0.0
C10 C 0.62704 0.16494 0.23964 0.0
O11 O 0.66035 1.04969 0.99248 0.0
O12 O 0.59159 0.06135 0.09394 0.0
O13 O 0.81797 0.27333 0.15141 0.0
O14 O 0.80146 0.16512 0.11109 0.0
C15 C 0.61535 0.26766 1.01302 0.0
O16 O 0.57974 0.1532 0.17034 0.0
O17 O 0.69279 0.21667 0.22976 0.0
C18 C 0.59283 1.02267 1.02984 0.0
O19 O 0.58159 0.2056 0.97976 0.0
O20 O 0.6493 0.27758 0.09448 0.0
C21 C 0.81708 0.3115 0.96822 0.0
Fe22 Fe 0.98872 0.61944 0.99148 0.0
Fe23 Fe 1.00837 0.48502 0.03766 0.0
O24 O 0.95915 0.53331 0.0492 0.0
Fe25 Fe 0.87783 0.49086 0.11506 0.0
O26 O 0.83677 0.48048 0.99597 0.0
O27 O 0.89127 0.59801 0.96639 0.0
O28 O 0.98365 0.58508 0.87175 0.0
C29 C 1.00221 0.54106 0.84166 0.0
C30 C 0.91111 0.64234 0.14537 0.0
O31 O 1.02655 0.50973 0.90069 0.0
C32 C 0.97895 0.49093 0.23964 0.0
O33 O 0.09416 0.63948 0.99246 0.0
O34 O 1.08253 0.55908 0.09393 0.0
O35 O 0.87054 0.57346 0.15141 0.0
O36 O 0.97874 0.66515 0.11107 0.0
C37 C 0.87624 0.37652 1.01305 0.0
O38 O 0.9907 0.45537 0.17036 0.0
O39 O 0.92721 0.50495 0.22976 0.0
C40 C 0.12119 0.59898 1.02982 0.0
O41 O 0.93829 0.40481 0.97979 0.0
O42 O 0.8663 0.40054 0.09449 0.0
C43 C 0.83236 0.53439 0.96822 0.0
Fe44 Fe 0.52445 0.39808 0.99148 0.0
Fe45 Fe 0.65884 0.55214 0.03765 0.0
O46 O 0.61058 0.45463 0.04918 0.0
Fe47 Fe 0.65304 0.41578 0.11508 0.0
O48 O 0.66349 0.38508 0.99602 0.0
O49 O 0.54589 0.32207 0.96642 0.0
O50 O 0.5588 0.42736 0.87174 0.0
C51 C 0.60281 0.48994 0.84166 0.0
C52 C 0.50156 0.29759 0.14539 0.0
O53 O 0.63413 0.54561 0.90069 0.0
C54 C 0.65294 0.51682 0.23964 0.0
O55 O 0.50441 0.48349 0.99244 0.0
O56 O 0.58478 0.55223 0.09393 0.0
O57 O 0.57044 0.32588 0.1514 0.0
O58 O 0.47875 0.34241 0.11108 0.0
C59 C 0.76735 0.52853 1.01306 0.0
O60 O 0.68849 0.56413 0.17035 0.0
O61 O 0.63891 0.45107 0.22976 0.0
C62 C 0.54489 0.55101 1.02981 0.0
O63 O 0.73905 0.56229 0.97979 0.0
O64 O 0.74334 0.49457 0.09451 0.0
C65 C 0.60954 0.32684 0.96814 0.0
Fe66 Fe 1.00836 0.55217 0.53766 0.0
Fe67 Fe 0.87783 0.41579 0.61509 0.0
O68 O 0.95914 0.45465 0.54921 0.0
Fe69 Fe 0.98872 0.3981 0.49149 0.0
O70 O 0.98364 0.42739 0.37176 0.0
O71 O 1.02653 0.54564 0.40069 0.0
O72 O 0.93826 0.56229 0.4798 0.0
C73 C 0.87621 0.52852 0.51306 0.0
C74 C 0.12119 0.55103 0.52982 0.0
O75 O 0.8663 0.49458 0.59452 0.0
C76 C 0.91111 0.29759 0.6454 0.0
O77 O 0.99071 0.56415 0.67036 0.0
O78 O 0.92722 0.45108 0.72978 0.0
O79 O 0.09416 0.4835 0.49247 0.0
O80 O 1.08253 0.55228 0.59392 0.0
C81 C 0.83235 0.32678 0.46826 0.0
O82 O 0.87054 0.3259 0.65144 0.0
O83 O 0.97874 0.3424 0.61109 0.0
C84 C 0.97895 0.51683 0.73963 0.0
O85 O 0.83675 0.38509 0.49601 0.0
O86 O 0.89127 0.32209 0.46642 0.0
C87 C 1.00223 0.48997 0.34167 0.0
Fe88 Fe 0.59171 0.485 0.53765 0.0
Fe89 Fe 0.72808 0.49081 0.6151 0.0
O90 O 0.68922 0.53327 0.5492 0.0
Fe91 Fe 0.74577 0.6194 0.4915 0.0
O92 O 0.71649 0.58505 0.37176 0.0
O93 O 0.59824 0.5097 0.40069 0.0
O94 O 0.58157 0.40478 0.4798 0.0
C95 C 0.61534 0.37649 0.51307 0.0
C96 C 0.59284 0.59896 0.52981 0.0
O97 O 0.64928 0.40052 0.59454 0.0
C98 C 0.84626 0.6423 0.64541 0.0
O99 O 0.57972 0.45536 0.67036 0.0
O100 O 0.69279 0.50496 0.72978 0.0
O101 O 0.66036 0.63945 0.49245 0.0
O102 O 0.59161 0.55906 0.59392 0.0
C103 C 0.81702 0.53431 0.46818 0.0
O104 O 0.81797 0.57342 0.65144 0.0
O105 O 0.80144 0.66511 0.6111 0.0
C106 C 0.62704 0.49092 0.73963 0.0
O107 O 0.75879 0.48036 0.49606 0.0
O108 O 0.82179 0.59796 0.46644 0.0
C109 C 0.65391 0.54106 0.34167 0.0
Fe110 Fe 0.65885 0.1355 0.53766 0.0
Fe111 Fe 0.65304 0.26606 0.61511 0.0
O112 O 0.61058 0.18475 0.5492 0.0
Fe113 Fe 0.52446 0.15519 0.49148 0.0
O114 O 0.55881 0.16027 0.37175 0.0
O115 O 0.63415 0.11735 0.40069 0.0
O116 O 0.73907 0.20557 0.47983 0.0
C117 C 0.76735 0.26762 0.5131 0.0
C118 C 0.54489 1.0227 0.52979 0.0
O119 O 0.74334 0.27756 0.59456 0.0
C120 C 0.50156 0.23277 0.6454 0.0
O121 O 0.68848 0.15313 0.67037 0.0
O122 O 0.63889 0.21663 0.72978 0.0
O123 O 0.50441 1.04974 0.49243 0.0
O124 O 0.58478 0.06135 0.59392 0.0
C125 C 0.60955 0.31151 0.46818 0.0
O126 O 0.57043 0.27336 0.65143 0.0
O127 O 0.47874 0.16515 0.61109 0.0
C128 C 0.65292 0.1649 0.73964 0.0
O129 O 0.66349 0.30722 0.49606 0.0
O130 O 0.5459 0.25264 0.46644 0.0
C131 C 0.6028 0.14167 0.34166 0.0
Fe132 Fe 0.41243 0.48846 0.32485 0.0
Fe133 Fe 0.25838 0.46885 0.37099 0.0
O134 O 0.35588 0.51806 0.38255 0.0
Fe135 Fe 0.39474 0.59938 0.4484 0.0
O136 O 0.42544 0.64044 0.3293 0.0
O137 O 0.48845 0.58591 0.29976 0.0
O138 O 0.38314 0.49353 0.20511 0.0
C139 C 0.32057 0.47497 0.17501 0.0
C140 C 0.51292 0.56607 0.47878 0.0
O141 O 0.2649 0.45064 0.23404 0.0
C142 C 0.2937 0.49828 0.57298 0.0
O143 O 0.32702 0.38302 0.32584 0.0
O144 O 0.25826 0.39468 0.42729 0.0
O145 O 0.48463 0.60666 0.48475 0.0
O146 O 0.46814 0.49845 0.44444 0.0
C147 C 0.28202 0.60099 0.34636 0.0
O148 O 0.2464 0.48653 0.50369 0.0
O149 O 0.35945 0.55 0.5631 0.0
C150 C 0.2595 0.356 0.36319 0.0
O151 O 0.24826 0.53894 0.3131 0.0
O152 O 0.31597 0.61092 0.42781 0.0
C153 C 0.48375 0.64483 0.30157 0.0
Fe154 Fe 0.65539 0.95278 0.32483 0.0
Fe155 Fe 0.67503 0.81835 0.371 0.0
O156 O 0.62582 0.86665 0.38255 0.0
Fe157 Fe 0.5445 0.82419 0.4484 0.0
O158 O 0.50344 0.81382 0.32931 0.0
O159 O 0.55794 0.93135 0.29976 0.0
O160 O 0.65031 0.91842 0.2051 0.0
C161 C 0.66888 0.8744 0.17501 0.0
C162 C 0.57779 0.97566 0.47876 0.0
O163 O 0.69322 0.84307 0.23404 0.0
C164 C 0.64561 0.82426 0.57299 0.0
O165 O 0.76083 0.97281 0.32581 0.0
O166 O 0.74919 0.89241 0.42728 0.0
O167 O 0.53721 0.90678 0.48475 0.0
O168 O 0.64541 0.9985 0.44442 0.0
C169 C 0.5429 0.70985 0.34639 0.0
O170 O 0.65737 0.7887 0.5037 0.0
O171 O 0.59388 0.83827 0.56311 0.0
C172 C 0.78786 0.93231 0.36317 0.0
O173 O 0.60496 0.73815 0.31313 0.0
O174 O 0.53297 0.73387 0.42783 0.0
C175 C 0.49903 0.86773 0.30157 0.0
Fe176 Fe 0.19111 0.73141 0.32484 0.0
Fe177 Fe 0.32551 0.88548 0.371 0.0
O178 O 0.27724 0.78796 0.38253 0.0
Fe179 Fe 0.31971 0.74912 0.44842 0.0
O180 O 0.33015 0.71841 0.32936 0.0
O181 O 0.21254 0.65539 0.29978 0.0
O182 O 0.22546 0.76069 0.2051 0.0
C183 C 0.26947 0.82327 0.17501 0.0
C184 C 0.16823 0.63094 0.47878 0.0
O185 O 0.30079 0.87894 0.23403 0.0
C186 C 0.31962 0.85016 0.57299 0.0
O187 O 0.17107 0.81683 0.3258 0.0
O188 O 0.25145 0.88557 0.42728 0.0
O189 O 0.23711 0.65923 0.48475 0.0
O190 O 0.1454 0.67573 0.44444 0.0
C191 C 0.43402 0.86186 0.3464 0.0
O192 O 0.35517 0.89747 0.50369 0.0
O193 O 0.30559 0.78441 0.5631 0.0
C194 C 0.21156 0.88435 0.36316 0.0
O195 O 0.40572 0.89562 0.31313 0.0
O196 O 0.41001 0.82791 0.42785 0.0
C197 C 0.2762 0.66018 0.30149 0.0
Fe198 Fe 0.65539 0.73143 0.82485 0.0
Fe199 Fe 0.67502 0.8855 0.871 0.0
O200 O 0.62581 0.78799 0.88256 0.0
Fe201 Fe 0.5445 0.74913 0.94843 0.0
O202 O 0.50342 0.71843 0.82934 0.0
O203 O 0.55795 0.65542 0.79978 0.0
O204 O 0.65031 0.76072 0.70512 0.0
C205 C 0.66889 0.8233 0.67502 0.0
C206 C 0.57779 0.63094 0.97879 0.0
O207 O 0.6932 0.87897 0.73404 0.0
C208 C 0.64561 0.85017 0.07298 0.0
O209 O 0.76083 0.81683 0.82583 0.0
O210 O 0.74919 0.88561 0.92727 0.0
O211 O 0.53721 0.65925 0.98478 0.0
O212 O 0.64541 0.67572 0.94444 0.0
C213 C 0.54288 0.86186 0.8464 0.0
O214 O 0.65738 0.89749 1.00371 0.0
O215 O 0.59388 0.78442 0.06313 0.0
C216 C 0.78786 0.88436 0.86317 0.0
O217 O 0.60493 0.89563 0.81313 0.0
O218 O 0.53297 0.82792 0.92786 0.0
C219 C 0.49903 0.66011 0.80161 0.0
Fe220 Fe 0.25838 0.81833 0.871 0.0
Fe221 Fe 0.39474 0.82414 0.94844 0.0
O222 O 0.35589 0.86661 0.88255 0.0
Fe223 Fe 0.41244 0.95274 0.82485 0.0
O224 O 0.38316 0.91839 0.70511 0.0
O225 O 0.26491 0.84304 0.73403 0.0
O226 O 0.24824 0.73811 0.81314 0.0
C227 C 0.28201 0.70982 0.84641 0.0
C228 C 0.25951 0.93229 0.86316 0.0
O229 O 0.31594 0.73384 0.92788 0.0
C230 C 0.51291 0.97562 0.97881 0.0
O231 O 0.24638 0.78869 1.0037 0.0
O232 O 0.35945 0.83828 0.06312 0.0
O233 O 0.32703 0.97279 0.82581 0.0
O234 O 0.25828 0.89239 0.92727 0.0
C235 C 0.48368 0.86766 0.80152 0.0
O236 O 0.48463 0.90674 0.98478 0.0
O237 O 0.46812 0.99846 0.94446 0.0
C238 C 0.2937 0.82424 0.07297 0.0
O239 O 0.42545 0.8137 0.82939 0.0
O240 O 0.48846 0.93131 0.7998 0.0
C241 C 0.32058 0.8744 0.67502 0.0
Fe242 Fe 0.19111 0.48851 0.82484 0.0
Fe243 Fe 0.32552 0.46884 0.87101 0.0
O244 O 0.27725 0.51808 0.88255 0.0
Fe245 Fe 0.31971 0.59939 0.94845 0.0
O246 O 0.33015 0.64054 0.8294 0.0
O247 O 0.21255 0.58597 0.7998 0.0
O248 O 0.22547 0.4936 0.7051 0.0
C249 C 0.26946 0.47501 0.67501 0.0
C250 C 0.16823 0.5661 0.9788 0.0
O251 O 0.30082 0.45068 0.73403 0.0
C252 C 0.31959 0.49823 0.07298 0.0
O253 O 0.17107 0.38306 0.82579 0.0
O254 O 0.25145 0.39469 0.92727 0.0
O255 O 0.23711 0.60669 0.98478 0.0
O256 O 0.14539 0.49848 0.94444 0.0
C257 C 0.43402 0.60096 0.84644 0.0
O258 O 0.35515 0.48647 1.00371 0.0
O259 O 0.30557 0.54997 0.06313 0.0
C260 C 0.21156 0.35603 0.86314 0.0
O261 O 0.40573 0.53891 0.81317 0.0
O262 O 0.41001 0.61089 0.92789 0.0
C263 C 0.2762 0.64483 0.80152 0.0
Fe264 Fe 1.07909 0.82178 0.6582 0.0
Fe265 Fe 0.92503 0.80219 0.70435 0.0
O266 O 1.02254 0.85138 0.71591 0.0
Fe267 Fe 1.06141 0.93271 0.78175 0.0
O268 O 0.0921 0.97376 0.66265 0.0
O269 O 0.1551 0.91923 0.63311 0.0
O270 O 1.04979 0.82684 0.53847 0.0
C271 C 0.98722 0.80831 0.50837 0.0
C272 C 0.17958 0.8994 0.81213 0.0
O273 O 0.93155 0.784 0.56739 0.0
C274 C 0.96037 0.83162 0.90634 0.0
O275 O 0.99368 0.71634 0.6592 0.0
O276 O 0.92486 0.728 0.76064 0.0
O277 O 0.15129 0.93999 0.8181 0.0
O278 O 0.1348 0.83177 0.77779 0.0
C279 C 0.94869 0.93434 0.67972 0.0
O280 O 0.91306 0.81988 0.83705 0.0
O281 O 1.02612 0.88335 0.89646 0.0
C282 C 0.92615 0.68939 0.69649 0.0
O283 O 0.91493 0.87229 0.64646 0.0
O284 O 0.98264 0.94426 0.76117 0.0
C285 C 0.15041 0.97815 0.63492 0.0
Fe286 Fe 0.32207 0.28612 0.65819 0.0
Fe287 Fe 0.34169 0.15166 0.70436 0.0
O288 O 0.29249 0.19998 0.71591 0.0
Fe289 Fe 0.21117 0.15752 0.78176 0.0
O290 O 0.17012 0.14716 0.66265 0.0
O291 O 0.22462 0.26469 0.63311 0.0
O292 O 0.317 0.25176 0.53846 0.0
C293 C 0.33554 0.20772 0.50837 0.0
C294 C 0.24446 0.309 0.81212 0.0
O295 O 0.35986 0.17637 0.56739 0.0
C296 C 0.31227 0.15758 0.90635 0.0
O297 O 0.42751 0.30616 0.65917 0.0
O298 O 0.41588 0.2257 0.76064 0.0
O299 O 0.20388 0.24012 0.8181 0.0
O300 O 0.31208 0.33184 0.77778 0.0
C301 C 0.20956 1.04317 0.67975 0.0
O302 O 0.32402 0.12202 0.83707 0.0
O303 O 0.26053 0.1716 0.89647 0.0
C304 C 0.45447 0.26559 0.69647 0.0
O305 O 0.27161 0.07147 0.64649 0.0
O306 O 0.19962 0.06719 0.76119 0.0
C307 C 0.16571 0.20107 0.63492 0.0
Fe308 Fe 0.85777 0.06476 0.65819 0.0
Fe309 Fe 0.9922 0.21882 0.70436 0.0
O310 O 0.94391 0.12131 0.7159 0.0
Fe311 Fe 0.98638 0.08246 0.78177 0.0
O312 O 0.99681 1.05176 0.6627 0.0
O313 O 0.87921 0.98874 0.63313 0.0
O314 O 0.89212 0.09404 0.53845 0.0
C315 C 0.93615 0.15661 0.50836 0.0
C316 C 0.8349 0.96428 0.81213 0.0
O317 O 0.9675 0.21228 0.56738 0.0
C318 C 0.98629 0.18349 0.90635 0.0
O319 O 0.83772 0.15016 0.65915 0.0
O320 O 0.91816 0.21896 0.76064 0.0
O321 O 0.90378 0.99257 0.8181 0.0
O322 O 0.81206 1.00907 0.77779 0.0
C323 C 0.1007 0.19519 0.67976 0.0
O324 O 1.02185 0.2308 0.83706 0.0
O325 O 0.97226 0.11774 0.89646 0.0
C326 C 0.87829 0.21769 0.69646 0.0
O327 O 1.0724 0.22895 0.64649 0.0
O328 O 1.07669 0.16124 0.76121 0.0
C329 C 0.94286 0.99352 0.63484 0.0
Fe330 Fe 0.32207 0.06477 0.15821 0.0
Fe331 Fe 0.34168 0.21885 0.20436 0.0
O332 O 0.29249 0.12133 0.21592 0.0
Fe333 Fe 0.21117 0.08247 0.28178 0.0
O334 O 0.1701 1.05177 0.16269 0.0
O335 O 0.22462 0.98876 0.13313 0.0
O336 O 0.317 0.09407 0.03847 0.0
C337 C 0.33556 0.15664 1.00838 0.0
C338 C 0.24446 0.96428 0.31214 0.0
O339 O 0.35984 0.21231 0.06739 0.0
C340 C 0.31227 0.1835 0.40634 0.0
O341 O 0.42751 0.15017 0.15919 0.0
O342 O 0.41587 0.21901 0.26063 0.0
O343 O 0.20389 0.99258 0.31813 0.0
O344 O 0.31208 1.00906 0.2778 0.0
C345 C 0.20953 0.19519 0.17976 0.0
O346 O 0.32403 0.23083 0.33707 0.0
O347 O 0.26054 0.11775 0.39648 0.0
C348 C 0.45447 0.2177 0.19647 0.0
O349 O 0.27158 0.22895 0.14649 0.0
O350 O 0.19962 0.16124 0.26121 0.0
C351 C 0.16571 0.99346 0.13496 0.0
Fe352 Fe 1.0791 0.28608 0.15821 0.0
Fe353 Fe 0.92503 0.15164 0.20436 0.0
O354 O 1.02255 0.19994 0.21591 0.0
Fe355 Fe 1.0614 0.15747 0.2818 0.0
O356 O 0.09211 0.14704 0.16274 0.0
O357 O 0.15511 0.26464 0.13316 0.0
O358 O 1.04981 0.25173 0.03847 0.0
C359 C 0.98724 0.20772 1.00837 0.0
C360 C 0.17957 0.30896 0.31216 0.0
O361 O 0.93157 0.17634 0.06738 0.0
C362 C 0.96037 0.15757 0.40633 0.0
O363 O 0.99369 0.30613 0.15917 0.0
O364 O 0.92488 0.22568 0.26063 0.0
O365 O 0.15129 0.24008 0.31813 0.0
O366 O 0.13479 0.3318 0.27781 0.0
C367 C 0.94868 1.04315 0.17977 0.0
O368 O 0.91305 0.12201 0.33707 0.0
O369 O 1.02612 0.1716 0.39648 0.0
C370 C 0.92617 0.26556 0.19646 0.0
O371 O 0.91491 0.07143 0.14649 0.0
O372 O 0.98261 0.06717 0.26123 0.0
C373 C 0.15034 0.20099 0.13487 0.0
Fe374 Fe 0.99221 0.80218 0.20437 0.0
Fe375 Fe 0.98638 0.93272 0.2818 0.0
O376 O 0.94391 0.85141 0.21591 0.0
Fe377 Fe 0.85778 0.82183 0.1582 0.0
O378 O 0.89213 0.82691 0.03846 0.0
O379 O 0.96752 0.78404 0.06738 0.0
O380 O 1.07241 0.87226 0.14652 0.0
C381 C 0.1007 0.93431 0.17979 0.0
C382 C 0.87829 0.68942 0.19644 0.0
O383 O 1.07669 0.94424 0.26125 0.0
C384 C 0.8349 0.89943 0.31214 0.0
O385 O 1.02183 0.81981 0.33708 0.0
O386 O 0.97225 0.88331 0.39648 0.0
O387 O 0.83772 0.71638 0.15914 0.0
O388 O 0.91816 0.728 0.26063 0.0
C389 C 0.94287 0.97816 0.13488 0.0
O390 O 0.90378 0.94001 0.31813 0.0
O391 O 0.81206 0.83181 0.27779 0.0
C392 C 0.98627 0.83158 0.40634 0.0
O393 O 0.99682 0.97386 0.16275 0.0
O394 O 0.87922 0.91929 0.13315 0.0
C395 C 0.93614 0.80834 1.00837 0.0
loop_
_geom_bond_atom_site_label_1
_geom_bond_atom_site_label_2
_geom_bond_distance
_geom_bond_site_symmetry_2
_ccdc_geom_bond_type
Fe0 O2 1.918 1_556 S
Fe0 O5 1.997 . S
Fe0 O6 2.002 . S
Fe0 O11 1.976 . S
Fe0 O14 1.996 1_556 S
Fe1 O2 1.919 . S
Fe1 O9 1.989 1_554 S
Fe1 O12 1.994 1_554 S
Fe1 O16 1.983 . S
Fe1 O19 2.003 . S
O2 Fe0 1.918 1_554 S
O2 Fe1 1.919 . S
O2 Fe3 1.918 . S
Fe3 O2 1.918 . S
Fe3 O4 2.002 . S
Fe3 O13 1.976 . S
Fe3 O17 1.996 . S
Fe3 O20 1.997 . S
O4 Fe3 2.002 . S
O4 C21 1.295 1_554 S
O5 Fe0 1.997 . S
O5 C21 1.235 . S
O6 Fe0 2.002 . S
O6 C7 1.295 . S
C7 O6 1.295 . S
C7 O9 1.235 . S
C8 O13 1.287 . S
C8 O14 1.255 . S
O9 Fe1 1.989 1_556 S
O9 C7 1.235 . S
C10 O16 1.287 . S
C10 O17 1.255 . S
O11 Fe0 1.976 . S
O11 C18 1.287 1_545 S
O12 Fe1 1.994 1_556 S
O12 C18 1.255 1_545 S
O13 Fe3 1.976 . S
O13 C8 1.287 . S
O14 Fe0 1.996 1_554 S
O14 C8 1.255 . S
C15 O19 1.295 . S
C15 O20 1.235 . S
O16 Fe1 1.983 . S
O16 C10 1.287 . S
O17 Fe3 1.996 . S
O17 C10 1.255 . S
C18 O11 1.287 1_565 S
C18 O12 1.255 1_565 S
O19 Fe1 2.003 . S
O19 C15 1.295 . S
O20 Fe3 1.997 . S
O20 C15 1.235 . S
C21 O4 1.295 1_556 S
C21 O5 1.235 . S
Fe22 O24 1.918 1_556 S
Fe22 O27 1.997 . S
Fe22 O28 2.002 . S
Fe22 O33 1.976 . S
Fe22 O36 1.996 1_556 S
Fe23 O24 1.919 . S
Fe23 O31 1.989 1_554 S
Fe23 O34 1.994 1_554 S
Fe23 O38 1.983 . S
Fe23 O41 2.003 . S
O24 Fe22 1.918 1_554 S
O24 Fe23 1.919 . S
O24 Fe25 1.918 . S
Fe25 O24 1.918 . S
Fe25 O26 2.002 . S
Fe25 O35 1.976 . S
Fe25 O39 1.996 . S
Fe25 O42 1.997 . S
O26 Fe25 2.002 . S
O26 C43 1.295 1_554 S
O27 Fe22 1.997 . S
O27 C43 1.235 . S
O28 Fe22 2.002 . S
O28 C29 1.295 . S
C29 O28 1.295 . S
C29 O31 1.235 . S
C30 O35 1.287 . S
C30 O36 1.255 . S
O31 Fe23 1.989 1_556 S
O31 C29 1.235 . S
C32 O38 1.287 . S
C32 O39 1.255 . S
O33 Fe22 1.976 . S
O33 C40 1.287 1_655 S
O34 Fe23 1.994 1_556 S
O34 C40 1.255 1_655 S
O35 Fe25 1.976 . S
O35 C30 1.287 . S
O36 Fe22 1.996 1_554 S
O36 C30 1.255 . S
C37 O41 1.295 . S
C37 O42 1.235 . S
O38 Fe23 1.983 . S
O38 C32 1.287 . S
O39 Fe25 1.996 . S
O39 C32 1.255 . S
C40 O33 1.287 1_455 S
C40 O34 1.255 1_455 S
O41 Fe23 2.003 . S
O41 C37 1.295 . S
O42 Fe25 1.997 . S
O42 C37 1.235 . S
C43 O26 1.295 1_556 S
C43 O27 1.235 . S
Fe44 O46 1.918 1_556 S
Fe44 O49 1.997 . S
Fe44 O50 2.002 . S
Fe44 O55 1.976 . S
Fe44 O58 1.996 1_556 S
Fe45 O46 1.919 . S
Fe45 O53 1.989 1_554 S
Fe45 O56 1.994 1_554 S
Fe45 O60 1.983 . S
Fe45 O63 2.003 . S
O46 Fe44 1.918 1_554 S
O46 Fe45 1.919 . S
O46 Fe47 1.918 . S
Fe47 O46 1.918 . S
Fe47 O48 2.002 . S
Fe47 O57 1.976 . S
Fe47 O61 1.996 . S
Fe47 O64 1.997 . S
O48 Fe47 2.002 . S
O48 C65 1.295 1_554 S
O49 Fe44 1.997 . S
O49 C65 1.235 . S
O50 Fe44 2.002 . S
O50 C51 1.295 . S
C51 O50 1.295 . S
C51 O53 1.235 . S
C52 O57 1.287 . S
C52 O58 1.255 . S
O53 Fe45 1.989 1_556 S
O53 C51 1.235 . S
C54 O60 1.287 . S
C54 O61 1.255 . S
O55 Fe44 1.976 . S
O55 C62 1.287 . S
O56 Fe45 1.994 1_556 S
O56 C62 1.255 . S
O57 Fe47 1.976 . S
O57 C52 1.287 . S
O58 Fe44 1.996 1_554 S
O58 C52 1.255 . S
C59 O63 1.295 . S
C59 O64 1.235 . S
O60 Fe45 1.983 . S
O60 C54 1.287 . S
O61 Fe47 1.996 . S
O61 C54 1.255 . S
C62 O55 1.287 . S
C62 O56 1.255 . S
O63 Fe45 2.003 . S
O63 C59 1.295 . S
O64 Fe47 1.997 . S
O64 C59 1.235 . S
C65 O48 1.295 1_556 S
C65 O49 1.235 . S
Fe66 O68 1.918 . S
Fe66 O71 1.997 . S
Fe66 O72 2.002 . S
Fe66 O77 1.976 . S
Fe66 O80 1.996 . S
Fe67 O68 1.918 . S
Fe67 O75 1.997 . S
Fe67 O78 1.996 . S
Fe67 O82 1.976 . S
Fe67 O85 2.002 . S
O68 Fe66 1.918 . S
O68 Fe67 1.918 . S
O68 Fe69 1.918 . S
Fe69 O68 1.918 . S
Fe69 O70 2.002 . S
Fe69 O79 1.976 . S
Fe69 O83 1.996 . S
Fe69 O86 1.997 . S
O70 Fe69 2.002 . S
O70 C87 1.295 . S
O71 Fe66 1.997 . S
O71 C87 1.235 . S
O72 Fe66 2.002 . S
O72 C73 1.295 . S
C73 O72 1.295 . S
C73 O75 1.235 . S
C74 O79 1.287 1_455 S
C74 O80 1.255 1_455 S
O75 Fe67 1.997 . S
O75 C73 1.235 . S
C76 O82 1.287 . S
C76 O83 1.255 . S
O77 Fe66 1.976 . S
O77 C84 1.287 . S
O78 Fe67 1.996 . S
O78 C84 1.255 . S
O79 Fe69 1.976 . S
O79 C74 1.287 1_655 S
O80 Fe66 1.996 . S
O80 C74 1.255 1_655 S
C81 O85 1.295 . S
C81 O86 1.235 . S
O82 Fe67 1.976 . S
O82 C76 1.287 . S
O83 Fe69 1.996 . S
O83 C76 1.255 . S
C84 O77 1.287 . S
C84 O78 1.255 . S
O85 Fe67 2.002 . S
O85 C81 1.295 . S
O86 Fe69 1.997 . S
O86 C81 1.235 . S
C87 O70 1.295 . S
C87 O71 1.235 . S
Fe88 O90 1.918 . S
Fe88 O93 1.997 . S
Fe88 O94 2.002 . S
Fe88 O99 1.976 . S
Fe88 O102 1.996 . S
Fe89 O90 1.918 . S
Fe89 O97 1.997 . S
Fe89 O100 1.996 . S
Fe89 O104 1.976 . S
Fe89 O107 2.002 . S
O90 Fe88 1.918 . S
O90 Fe89 1.918 . S
O90 Fe91 1.918 . S
Fe91 O90 1.918 . S
Fe91 O92 2.002 . S
Fe91 O101 1.976 . S
Fe91 O105 1.996 . S
Fe91 O108 1.997 . S
O92 Fe91 2.002 . S
O92 C109 1.295 . S
O93 Fe88 1.997 . S
O93 C109 1.235 . S
O94 Fe88 2.002 . S
O94 C95 1.295 . S
C95 O94 1.295 . S
C95 O97 1.235 . S
C96 O101 1.287 . S
C96 O102 1.255 . S
O97 Fe89 1.997 . S
O97 C95 1.235 . S
C98 O104 1.287 . S
C98 O105 1.255 . S
O99 Fe88 1.976 . S
O99 C106 1.287 . S
O100 Fe89 1.996 . S
O100 C106 1.255 . S
O101 Fe91 1.976 . S
O101 C96 1.287 . S
O102 Fe88 1.996 . S
O102 C96 1.255 . S
C103 O107 1.295 . S
C103 O108 1.235 . S
O104 Fe89 1.976 . S
O104 C98 1.287 . S
O105 Fe91 1.996 . S
O105 C98 1.255 . S
C106 O99 1.287 . S
C106 O100 1.255 . S
O107 Fe89 2.002 . S
O107 C103 1.295 . S
O108 Fe91 1.997 . S
O108 C103 1.235 . S
C109 O92 1.295 . S
C109 O93 1.235 . S
Fe110 O112 1.918 . S
Fe110 O115 1.997 . S
Fe110 O116 2.002 . S
Fe110 O121 1.976 . S
Fe110 O124 1.996 . S
Fe111 O112 1.918 . S
Fe111 O119 1.997 . S
Fe111 O122 1.996 . S
Fe111 O126 1.976 . S
Fe111 O129 2.002 . S
O112 Fe110 1.918 . S
O112 Fe111 1.918 . S
O112 Fe113 1.918 . S
Fe113 O112 1.918 . S
Fe113 O114 2.002 . S
Fe113 O123 1.976 . S
Fe113 O127 1.996 . S
Fe113 O130 1.997 . S
O114 Fe113 2.002 . S
O114 C131 1.295 . S
O115 Fe110 1.997 . S
O115 C131 1.235 . S
O116 Fe110 2.002 . S
O116 C117 1.295 . S
C117 O116 1.295 . S
C117 O119 1.235 . S
C118 O123 1.287 1_565 S
C118 O124 1.255 1_565 S
O119 Fe111 1.997 . S
O119 C117 1.235 . S
C120 O126 1.287 . S
C120 O127 1.255 . S
O121 Fe110 1.976 . S
O121 C128 1.287 . S
O122 Fe111 1.996 . S
O122 C128 1.255 . S
O123 Fe113 1.976 . S
O123 C118 1.287 1_545 S
O124 Fe110 1.996 . S
O124 C118 1.255 1_545 S
C125 O129 1.295 . S
C125 O130 1.235 . S
O126 Fe111 1.976 . S
O126 C120 1.287 . S
O127 Fe113 1.996 . S
O127 C120 1.255 . S
C128 O121 1.287 . S
C128 O122 1.255 . S
O129 Fe111 2.002 . S
O129 C125 1.295 . S
O130 Fe113 1.997 . S
O130 C125 1.235 . S
C131 O114 1.295 . S
C131 O115 1.235 . S
Fe132 O134 1.918 . S
Fe132 O137 1.997 . S
Fe132 O138 2.002 . S
Fe132 O143 1.976 . S
Fe132 O146 1.996 . S
Fe133 O134 1.918 . S
Fe133 O141 1.997 . S
Fe133 O144 1.996 . S
Fe133 O148 1.976 . S
Fe133 O151 2.002 . S
O134 Fe132 1.918 . S
O134 Fe133 1.918 . S
O134 Fe135 1.918 . S
Fe135 O134 1.918 . S
Fe135 O136 2.002 . S
Fe135 O145 1.976 . S
Fe135 O149 1.996 . S
Fe135 O152 1.997 . S
O136 Fe135 2.002 . S
O136 C153 1.295 . S
O137 Fe132 1.997 . S
O137 C153 1.235 . S
O138 Fe132 2.002 . S
O138 C139 1.295 . S
C139 O138 1.295 . S
C139 O141 1.235 . S
C140 O145 1.287 . S
C140 O146 1.255 . S
O141 Fe133 1.997 . S
O141 C139 1.235 . S
C142 O148 1.287 . S
C142 O149 1.255 . S
O143 Fe132 1.976 . S
O143 C150 1.287 . S
O144 Fe133 1.996 . S
O144 C150 1.255 . S
O145 Fe135 1.976 . S
O145 C140 1.287 . S
O146 Fe132 1.996 . S
O146 C140 1.255 . S
C147 O151 1.295 . S
C147 O152 1.235 . S
O148 Fe133 1.976 . S
O148 C142 1.287 . S
O149 Fe135 1.996 . S
O149 C142 1.255 . S
C150 O143 1.287 . S
C150 O144 1.255 . S
O151 Fe133 2.002 . S
O151 C147 1.295 . S
O152 Fe135 1.997 . S
O152 C147 1.235 . S
C153 O136 1.295 . S
C153 O137 1.235 . S
Fe154 O156 1.918 . S
Fe154 O159 1.997 . S
Fe154 O160 2.002 . S
Fe154 O165 1.976 . S
Fe154 O168 1.996 . S
Fe155 O156 1.918 . S
Fe155 O163 1.997 . S
Fe155 O166 1.996 . S
Fe155 O170 1.976 . S
Fe155 O173 2.002 . S
O156 Fe154 1.918 . S
O156 Fe155 1.918 . S
O156 Fe157 1.918 . S
Fe157 O156 1.918 . S
Fe157 O158 2.002 . S
Fe157 O167 1.976 . S
Fe157 O171 1.996 . S
Fe157 O174 1.997 . S
O158 Fe157 2.002 . S
O158 C175 1.295 . S
O159 Fe154 1.997 . S
O159 C175 1.235 . S
O160 Fe154 2.002 . S
O160 C161 1.295 . S
C161 O160 1.295 . S
C161 O163 1.235 . S
C162 O167 1.287 . S
C162 O168 1.255 . S
O163 Fe155 1.997 . S
O163 C161 1.235 . S
C164 O170 1.287 . S
C164 O171 1.255 . S
O165 Fe154 1.976 . S
O165 C172 1.287 . S
O166 Fe155 1.996 . S
O166 C172 1.255 . S
O167 Fe157 1.976 . S
O167 C162 1.287 . S
O168 Fe154 1.996 . S
O168 C162 1.255 . S
C169 O173 1.295 . S
C169 O174 1.235 . S
O170 Fe155 1.976 . S
O170 C164 1.287 . S
O171 Fe157 1.996 . S
O171 C164 1.255 . S
C172 O165 1.287 . S
C172 O166 1.255 . S
O173 Fe155 2.002 . S
O173 C169 1.295 . S
O174 Fe157 1.997 . S
O174 C169 1.235 . S
C175 O158 1.295 . S
C175 O159 1.235 . S
Fe176 O178 1.918 . S
Fe176 O181 1.997 . S
Fe176 O182 2.002 . S
Fe176 O187 1.976 . S
Fe176 O190 1.996 . S
Fe177 O178 1.918 . S
Fe177 O185 1.997 . S
Fe177 O188 1.996 . S
Fe177 O192 1.976 . S
Fe177 O195 2.002 . S
O178 Fe176 1.918 . S
O178 Fe177 1.918 . S
O178 Fe179 1.918 . S
Fe179 O178 1.918 . S
Fe179 O180 2.002 . S
Fe179 O189 1.976 . S
Fe179 O193 1.996 . S
Fe179 O196 1.997 . S
O180 Fe179 2.002 . S
O180 C197 1.295 . S
O181 Fe176 1.997 . S
O181 C197 1.235 . S
O182 Fe176 2.002 . S
O182 C183 1.295 . S
C183 O182 1.295 . S
C183 O185 1.235 . S
C184 O189 1.287 . S
C184 O190 1.255 . S
O185 Fe177 1.997 . S
O185 C183 1.235 . S
C186 O192 1.287 . S
C186 O193 1.255 . S
O187 Fe176 1.976 . S
O187 C194 1.287 . S
O188 Fe177 1.996 . S
O188 C194 1.255 . S
O189 Fe179 1.976 . S
O189 C184 1.287 . S
O190 Fe176 1.996 . S
O190 C184 1.255 . S
C191 O195 1.295 . S
C191 O196 1.235 . S
O192 Fe177 1.976 . S
O192 C186 1.287 . S
O193 Fe179 1.996 . S
O193 C186 1.255 . S
C194 O187 1.287 . S
C194 O188 1.255 . S
O195 Fe177 2.002 . S
O195 C191 1.295 . S
O196 Fe179 1.997 . S
O196 C191 1.235 . S
C197 O180 1.295 . S
C197 O181 1.235 . S
Fe198 O200 1.918 . S
Fe198 O203 1.997 . S
Fe198 O204 2.002 . S
Fe198 O209 1.976 . S
Fe198 O212 1.996 . S
Fe199 O200 1.918 . S
Fe199 O207 1.997 . S
Fe199 O210 1.996 . S
Fe199 O214 1.976 . S
Fe199 O217 2.002 . S
O200 Fe198 1.918 . S
O200 Fe199 1.918 . S
O200 Fe201 1.918 . S
Fe201 O200 1.918 . S
Fe201 O202 2.002 . S
Fe201 O211 1.976 . S
Fe201 O215 1.996 1_556 S
Fe201 O218 1.997 . S
O202 Fe201 2.002 . S
O202 C219 1.295 . S
O203 Fe198 1.997 . S
O203 C219 1.235 . S
O204 Fe198 2.002 . S
O204 C205 1.295 . S
C205 O204 1.295 . S
C205 O207 1.235 . S
C206 O211 1.287 . S
C206 O212 1.255 . S
O207 Fe199 1.997 . S
O207 C205 1.235 . S
C208 O214 1.287 1_554 S
C208 O215 1.255 . S
O209 Fe198 1.976 . S
O209 C216 1.287 . S
O210 Fe199 1.996 . S
O210 C216 1.255 . S
O211 Fe201 1.976 . S
O211 C206 1.287 . S
O212 Fe198 1.996 . S
O212 C206 1.255 . S
C213 O217 1.295 . S
C213 O218 1.235 . S
O214 Fe199 1.976 . S
O214 C208 1.287 1_556 S
O215 Fe201 1.996 1_554 S
O215 C208 1.255 . S
C216 O209 1.287 . S
C216 O210 1.255 . S
O217 Fe199 2.002 . S
O217 C213 1.295 . S
O218 Fe201 1.997 . S
O218 C213 1.235 . S
C219 O202 1.295 . S
C219 O203 1.235 . S
Fe220 O222 1.918 . S
Fe220 O225 1.997 . S
Fe220 O226 2.002 . S
Fe220 O231 1.976 . S
Fe220 O234 1.996 . S
Fe221 O222 1.918 . S
Fe221 O229 1.997 . S
Fe221 O232 1.996 1_556 S
Fe221 O236 1.976 . S
Fe221 O239 2.002 . S
O222 Fe220 1.918 . S
O222 Fe221 1.918 . S
O222 Fe223 1.918 . S
Fe223 O222 1.918 . S
Fe223 O224 2.002 . S
Fe223 O233 1.976 . S
Fe223 O237 1.996 . S
Fe223 O240 1.997 . S
O224 Fe223 2.002 . S
O224 C241 1.295 . S
O225 Fe220 1.997 . S
O225 C241 1.235 . S
O226 Fe220 2.002 . S
O226 C227 1.295 . S
C227 O226 1.295 . S
C227 O229 1.235 . S
C228 O233 1.287 . S
C228 O234 1.255 . S
O229 Fe221 1.997 . S
O229 C227 1.235 . S
C230 O236 1.287 . S
C230 O237 1.255 . S
O231 Fe220 1.976 . S
O231 C238 1.287 1_556 S
O232 Fe221 1.996 1_554 S
O232 C238 1.255 . S
O233 Fe223 1.976 . S
O233 C228 1.287 . S
O234 Fe220 1.996 . S
O234 C228 1.255 . S
C235 O239 1.295 . S
C235 O240 1.235 . S
O236 Fe221 1.976 . S
O236 C230 1.287 . S
O237 Fe223 1.996 . S
O237 C230 1.255 . S
C238 O231 1.287 1_554 S
C238 O232 1.255 . S
O239 Fe221 2.002 . S
O239 C235 1.295 . S
O240 Fe223 1.997 . S
O240 C235 1.235 . S
C241 O224 1.295 . S
C241 O225 1.235 . S
Fe242 O244 1.918 . S
Fe242 O247 1.997 . S
Fe242 O248 2.002 . S
Fe242 O253 1.976 . S
Fe242 O256 1.996 . S
Fe243 O244 1.918 . S
Fe243 O251 1.997 . S
Fe243 O254 1.996 . S
Fe243 O258 1.976 . S
Fe243 O261 2.002 . S
O244 Fe242 1.918 . S
O244 Fe243 1.918 . S
O244 Fe245 1.918 . S
Fe245 O244 1.918 . S
Fe245 O246 2.002 . S
Fe245 O255 1.976 . S
Fe245 O259 1.996 1_556 S
Fe245 O262 1.997 . S
O246 Fe245 2.002 . S
O246 C263 1.295 . S
O247 Fe242 1.997 . S
O247 C263 1.235 . S
O248 Fe242 2.002 . S
O248 C249 1.295 . S
C249 O248 1.295 . S
C249 O251 1.235 . S
C250 O255 1.287 . S
C250 O256 1.255 . S
O251 Fe243 1.997 . S
O251 C249 1.235 . S
C252 O258 1.287 1_554 S
C252 O259 1.255 . S
O253 Fe242 1.976 . S
O253 C260 1.287 . S
O254 Fe243 1.996 . S
O254 C260 1.255 . S
O255 Fe245 1.976 . S
O255 C250 1.287 . S
O256 Fe242 1.996 . S
O256 C250 1.255 . S
C257 O261 1.295 . S
C257 O262 1.235 . S
O258 Fe243 1.976 . S
O258 C252 1.287 1_556 S
O259 Fe245 1.996 1_554 S
O259 C252 1.255 . S
C260 O253 1.287 . S
C260 O254 1.255 . S
O261 Fe243 2.002 . S
O261 C257 1.295 . S
O262 Fe245 1.997 . S
O262 C257 1.235 . S
C263 O246 1.295 . S
C263 O247 1.235 . S
Fe264 O266 1.918 . S
Fe264 O269 1.997 1_655 S
Fe264 O270 2.002 . S
Fe264 O275 1.976 . S
Fe264 O278 1.996 1_655 S
Fe265 O266 1.918 . S
Fe265 O273 1.997 . S
Fe265 O276 1.996 . S
Fe265 O280 1.976 . S
Fe265 O283 2.002 . S
O266 Fe264 1.918 . S
O266 Fe265 1.918 . S
O266 Fe267 1.918 . S
Fe267 O266 1.918 . S
Fe267 O268 2.002 1_655 S
Fe267 O277 1.976 1_655 S
Fe267 O281 1.996 . S
Fe267 O284 1.997 . S
O268 Fe267 2.002 1_455 S
O268 C285 1.295 . S
O269 Fe264 1.997 1_455 S
O269 C285 1.235 . S
O270 Fe264 2.002 . S
O270 C271 1.295 . S
C271 O270 1.295 . S
C271 O273 1.235 . S
C272 O277 1.287 . S
C272 O278 1.255 . S
O273 Fe265 1.997 . S
O273 C271 1.235 . S
C274 O280 1.287 . S
C274 O281 1.255 . S
O275 Fe264 1.976 . S
O275 C282 1.287 . S
O276 Fe265 1.996 . S
O276 C282 1.255 . S
O277 Fe267 1.976 1_455 S
O277 C272 1.287 . S
O278 Fe264 1.996 1_455 S
O278 C272 1.255 . S
C279 O283 1.295 . S
C279 O284 1.235 . S
O280 Fe265 1.976 . S
O280 C274 1.287 . S
O281 Fe267 1.996 . S
O281 C274 1.255 . S
C282 O275 1.287 . S
C282 O276 1.255 . S
O283 Fe265 2.002 . S
O283 C279 1.295 . S
O284 Fe267 1.997 . S
O284 C279 1.235 . S
C285 O268 1.295 . S
C285 O269 1.235 . S
Fe286 O288 1.918 . S
Fe286 O291 1.997 . S
Fe286 O292 2.002 . S
Fe286 O297 1.976 . S
Fe286 O300 1.996 . S
Fe287 O288 1.918 . S
Fe287 O295 1.997 . S
Fe287 O298 1.996 . S
Fe287 O302 1.976 . S
Fe287 O305 2.002 1_545 S
O288 Fe286 1.918 . S
O288 Fe287 1.918 . S
O288 Fe289 1.918 . S
Fe289 O288 1.918 . S
Fe289 O290 2.002 . S
Fe289 O299 1.976 . S
Fe289 O303 1.996 . S
Fe289 O306 1.997 . S
O290 Fe289 2.002 . S
O290 C307 1.295 . S
O291 Fe286 1.997 . S
O291 C307 1.235 . S
O292 Fe286 2.002 . S
O292 C293 1.295 . S
C293 O292 1.295 . S
C293 O295 1.235 . S
C294 O299 1.287 . S
C294 O300 1.255 . S
O295 Fe287 1.997 . S
O295 C293 1.235 . S
C296 O302 1.287 . S
C296 O303 1.255 . S
O297 Fe286 1.976 . S
O297 C304 1.287 . S
O298 Fe287 1.996 . S
O298 C304 1.255 . S
O299 Fe289 1.976 . S
O299 C294 1.287 . S
O300 Fe286 1.996 . S
O300 C294 1.255 . S
C301 O305 1.295 . S
C301 O306 1.235 1_565 S
O302 Fe287 1.976 . S
O302 C296 1.287 . S
O303 Fe289 1.996 . S
O303 C296 1.255 . S
C304 O297 1.287 . S
C304 O298 1.255 . S
O305 Fe287 2.002 1_565 S
O305 C301 1.295 . S
O306 Fe289 1.997 . S
O306 C301 1.235 1_545 S
C307 O290 1.295 . S
C307 O291 1.235 . S
Fe308 O310 1.918 . S
Fe308 O313 1.997 1_545 S
Fe308 O314 2.002 . S
Fe308 O319 1.976 . S
Fe308 O322 1.996 1_545 S
Fe309 O310 1.918 . S
Fe309 O317 1.997 . S
Fe309 O320 1.996 . S
Fe309 O324 1.976 . S
Fe309 O327 2.002 1_655 S
O310 Fe308 1.918 . S
O310 Fe309 1.918 . S
O310 Fe311 1.918 . S
Fe311 O310 1.918 . S
Fe311 O312 2.002 1_545 S
Fe311 O321 1.976 1_545 S
Fe311 O325 1.996 . S
Fe311 O328 1.997 . S
O312 Fe311 2.002 1_565 S
O312 C329 1.295 . S
O313 Fe308 1.997 1_565 S
O313 C329 1.235 . S
O314 Fe308 2.002 . S
O314 C315 1.295 . S
C315 O314 1.295 . S
C315 O317 1.235 . S
C316 O321 1.287 . S
C316 O322 1.255 . S
O317 Fe309 1.997 . S
O317 C315 1.235 . S
C318 O324 1.287 . S
C318 O325 1.255 . S
O319 Fe308 1.976 . S
O319 C326 1.287 . S
O320 Fe309 1.996 . S
O320 C326 1.255 . S
O321 Fe311 1.976 1_565 S
O321 C316 1.287 . S
O322 Fe308 1.996 1_565 S
O322 C316 1.255 . S
C323 O327 1.295 . S
C323 O328 1.235 1_455 S
O324 Fe309 1.976 . S
O324 C318 1.287 . S
O325 Fe311 1.996 . S
O325 C318 1.255 . S
C326 O319 1.287 . S
C326 O320 1.255 . S
O327 Fe309 2.002 1_455 S
O327 C323 1.295 . S
O328 Fe311 1.997 . S
O328 C323 1.235 1_655 S
C329 O312 1.295 . S
C329 O313 1.235 . S
Fe330 O332 1.918 . S
Fe330 O335 1.997 1_545 S
Fe330 O336 2.002 1_554 S
Fe330 O341 1.976 . S
Fe330 O344 1.996 1_545 S
Fe331 O332 1.918 . S
Fe331 O339 1.997 . S
Fe331 O342 1.996 . S
Fe331 O346 1.976 . S
Fe331 O349 2.002 . S
O332 Fe330 1.918 . S
O332 Fe331 1.918 . S
O332 Fe333 1.918 . S
Fe333 O332 1.918 . S
Fe333 O334 2.002 1_545 S
Fe333 O343 1.976 1_545 S
Fe333 O347 1.996 . S
Fe333 O350 1.997 . S
O334 Fe333 2.002 1_565 S
O334 C351 1.295 . S
O335 Fe330 1.997 1_565 S
O335 C351 1.235 . S
O336 Fe330 2.002 1_556 S
O336 C337 1.295 . S
C337 O336 1.295 . S
C337 O339 1.235 1_556 S
C338 O343 1.287 . S
C338 O344 1.255 . S
O339 Fe331 1.997 . S
O339 C337 1.235 1_554 S
C340 O346 1.287 . S
C340 O347 1.255 . S
O341 Fe330 1.976 . S
O341 C348 1.287 . S
O342 Fe331 1.996 . S
O342 C348 1.255 . S
O343 Fe333 1.976 1_565 S
O343 C338 1.287 . S
O344 Fe330 1.996 1_565 S
O344 C338 1.255 . S
C345 O349 1.295 . S
C345 O350 1.235 . S
O346 Fe331 1.976 . S
O346 C340 1.287 . S
O347 Fe333 1.996 . S
O347 C340 1.255 . S
C348 O341 1.287 . S
C348 O342 1.255 . S
O349 Fe331 2.002 . S
O349 C345 1.295 . S
O350 Fe333 1.997 . S
O350 C345 1.235 . S
C351 O334 1.295 . S
C351 O335 1.235 . S
Fe352 O354 1.918 . S
Fe352 O357 1.997 1_655 S
Fe352 O358 2.002 1_554 S
Fe352 O363 1.976 . S
Fe352 O366 1.996 1_655 S
Fe353 O354 1.918 . S
Fe353 O361 1.997 . S
Fe353 O364 1.996 . S
Fe353 O368 1.976 . S
Fe353 O371 2.002 1_545 S
O354 Fe352 1.918 . S
O354 Fe353 1.918 . S
O354 Fe355 1.918 . S
Fe355 O354 1.918 . S
Fe355 O356 2.002 1_655 S
Fe355 O365 1.976 1_655 S
Fe355 O369 1.996 . S
Fe355 O372 1.997 . S
O356 Fe355 2.002 1_455 S
O356 C373 1.295 . S
O357 Fe352 1.997 1_455 S
O357 C373 1.235 . S
O358 Fe352 2.002 1_556 S
O358 C359 1.295 . S
C359 O358 1.295 . S
C359 O361 1.235 1_556 S
C360 O365 1.287 . S
C360 O366 1.255 . S
O361 Fe353 1.997 . S
O361 C359 1.235 1_554 S
C362 O368 1.287 . S
C362 O369 1.255 . S
O363 Fe352 1.976 . S
O363 C370 1.287 . S
O364 Fe353 1.996 . S
O364 C370 1.255 . S
O365 Fe355 1.976 1_455 S
O365 C360 1.287 . S
O366 Fe352 1.996 1_455 S
O366 C360 1.255 . S
C367 O371 1.295 . S
C367 O372 1.235 1_565 S
O368 Fe353 1.976 . S
O368 C362 1.287 . S
O369 Fe355 1.996 . S
O369 C362 1.255 . S
C370 O363 1.287 . S
C370 O364 1.255 . S
O371 Fe353 2.002 1_565 S
O371 C367 1.295 . S
O372 Fe355 1.997 . S
O372 C367 1.235 1_545 S
C373 O356 1.295 . S
C373 O357 1.235 . S
Fe374 O376 1.918 . S
Fe374 O379 1.997 . S
Fe374 O380 2.002 1_655 S
Fe374 O385 1.976 . S
Fe374 O388 1.996 . S
Fe375 O376 1.918 . S
Fe375 O383 1.997 . S
Fe375 O386 1.996 . S
Fe375 O390 1.976 . S
Fe375 O393 2.002 . S
O376 Fe374 1.918 . S
O376 Fe375 1.918 . S
O376 Fe377 1.918 . S
Fe377 O376 1.918 . S
Fe377 O378 2.002 1_554 S
Fe377 O387 1.976 . S
Fe377 O391 1.996 . S
Fe377 O394 1.997 . S
O378 Fe377 2.002 1_556 S
O378 C395 1.295 . S
O379 Fe374 1.997 . S
O379 C395 1.235 1_554 S
O380 Fe374 2.002 1_455 S
O380 C381 1.295 . S
C381 O380 1.295 . S
C381 O383 1.235 1_455 S
C382 O387 1.287 . S
C382 O388 1.255 . S
O383 Fe375 1.997 . S
O383 C381 1.235 1_655 S
C384 O390 1.287 . S
C384 O391 1.255 . S
O385 Fe374 1.976 . S
O385 C392 1.287 . S
O386 Fe375 1.996 . S
O386 C392 1.255 . S
O387 Fe377 1.976 . S
O387 C382 1.287 . S
O388 Fe374 1.996 . S
O388 C382 1.255 . S
C389 O393 1.295 . S
C389 O394 1.235 . S
O390 Fe375 1.976 . S
O390 C384 1.287 . S
O391 Fe377 1.996 . S
O391 C384 1.255 . S
C392 O385 1.287 . S
C392 O386 1.255 . S
O393 Fe375 2.002 . S
O393 C389 1.295 . S
O394 Fe377 1.997 . S
O394 C389 1.235 . S
C395 O378 1.295 . S
C395 O379 1.235 1_556 S
C15 C65 1.988 1_554 S
C21 C37 1.988 1_556 S
C59 C43 1.988 1_554 S
C103 C73 1.988 . S
C125 C95 1.988 . S
C117 C81 1.989 . S
C197 C147 1.988 . S
C169 C153 1.988 . S
C175 C191 1.988 . S
C213 C235 1.988 . S
C263 C227 1.989 . S
C257 C219 1.988 . S
C329 C279 1.988 . S
C301 C285 1.988 . S
C323 C307 1.988 . S
C345 C373 1.988 . S
C389 C367 1.989 . S
C351 C381 1.988 . S
C131 C10 1.593 . S
C87 C32 1.593 . S
C109 C54 1.593 . S
C29 C84 1.593 . S
C106 C51 1.593 . S
C7 C128 1.593 . S
C142 C249 1.593 . S
C164 C205 1.593 . S
C241 C186 1.593 . S
C208 C161 1.593 . S
C238 C183 1.593 . S
C252 C139 1.593 . S
C274 C395 1.593 . S
C296 C337 1.593 . S
C318 C359 1.593 . S
C340 C293 1.593 . S
C362 C315 1.593 . S
C392 C271 1.593 . S
C230 C18 2.711 . S
C40 C250 2.711 . S
C206 C62 2.711 . S
C74 C184 2.711 . S
C96 C140 2.711 . S
C162 C118 2.711 . S
C150 C360 2.711 . S
C172 C384 2.711 . S
C194 C338 2.711 . S
C316 C216 2.711 . S
C272 C228 2.711 . S
C294 C260 2.711 . S
C98 C282 2.711 . S
C304 C120 2.711 . S
C76 C326 2.711 . S
C348 C52 2.711 . S
C370 C8 2.711 . S
C30 C382 2.711 . S
