# Generated by pormake.
# Topology snl, (6)-cn, num edge types: 1
# Building blocks:
#     Node 0, Type 0, BuildingBlock: CUKXOW_clean_sbu_0, # of connection points: 6
#     Node 1, Type 0, BuildingBlock: CUKXOW_clean_sbu_0, # of connection points: 6
#     Node 2, Type 0, BuildingBlock: CUKXOW_clean_sbu_0, # of connection points: 6
#     Node 3, Type 0, BuildingBlock: CUKXOW_clean_sbu_0, # of connection points: 6
#     Node 4, Type 0, BuildingBlock: CUKXOW_clean_sbu_0, # of connection points: 6
#     Node 5, Type 0, BuildingBlock: CUKXOW_clean_sbu_0, # of connection points: 6
#     Node 6, Type 0, BuildingBlock: CUKXOW_clean_sbu_0, # of connection points: 6
#     Node 7, Type 0, BuildingBlock: CUKXOW_clean_sbu_0, # of connection points: 6
#     Node 8, Type 0, BuildingBlock: CUKXOW_clean_sbu_0, # of connection points: 6
#     Node 9, Type 0, BuildingBlock: CUKXOW_clean_sbu_0, # of connection points: 6
#     Node 10, Type 0, BuildingBlock: CUKXOW_clean_sbu_0, # of connection points: 6
#     Node 11, Type 0, BuildingBlock: CUKXOW_clean_sbu_0, # of connection points: 6
#     Node 12, Type 0, BuildingBlock: CUKXOW_clean_sbu_0, # of connection points: 6
#     Node 13, Type 0, BuildingBlock: CUKXOW_clean_sbu_0, # of connection points: 6
#     Node 14, Type 0, BuildingBlock: CUKXOW_clean_sbu_0, # of connection points: 6
#     Node 15, Type 0, BuildingBlock: CUKXOW_clean_sbu_0, # of connection points: 6
#     Edge 16, Type (0, 0), BuildingBlock: XIVTED_clean_linker_0, # of connection points: 2
#     Edge 17, Type (0, 0), BuildingBlock: XIVTED_clean_linker_0, # of connection points: 2
#     Edge 18, Type (0, 0), BuildingBlock: XIVTED_clean_linker_0, # of connection points: 2
#     Edge 19, Type (0, 0), BuildingBlock: XIVTED_clean_linker_0, # of connection points: 2
#     Edge 20, Type (0, 0), BuildingBlock: XIVTED_clean_linker_0, # of connection points: 2
#     Edge 21, Type (0, 0), BuildingBlock: XIVTED_clean_linker_0, # of connection points: 2
#     Edge 22, Type (0, 0), BuildingBlock: XIVTED_clean_linker_0, # of connection points: 2
#     Edge 23, Type (0, 0), BuildingBlock: XIVTED_clean_linker_0, # of connection points: 2
#     Edge 24, Type (0, 0), BuildingBlock: XIVTED_clean_linker_0, # of connection points: 2
#     Edge 25, Type (0, 0), BuildingBlock: XIVTED_clean_linker_0, # of connection points: 2
#     Edge 26, Type (0, 0), BuildingBlock: XIVTED_clean_linker_0, # of connection points: 2
#     Edge 27, Type (0, 0), BuildingBlock: XIVTED_clean_linker_0, # of connection points: 2
#     Edge 28, Type (0, 0), BuildingBlock: XIVTED_clean_linker_0, # of connection points: 2
#     Edge 29, Type (0, 0), BuildingBlock: XIVTED_clean_linker_0, # of connection points: 2
#     Edge 30, Type (0, 0), BuildingBlock: XIVTED_clean_linker_0, # of connection points: 2
#     Edge 31, Type (0, 0), BuildingBlock: XIVTED_clean_linker_0, # of connection points: 2
#     Edge 32, Type (0, 0), BuildingBlock: XIVTED_clean_linker_0, # of connection points: 2
#     Edge 33, Type (0, 0), BuildingBlock: XIVTED_clean_linker_0, # of connection points: 2
#     Edge 34, Type (0, 0), BuildingBlock: XIVTED_clean_linker_0, # of connection points: 2
#     Edge 35, Type (0, 0), BuildingBlock: XIVTED_clean_linker_0, # of connection points: 2
#     Edge 36, Type (0, 0), BuildingBlock: XIVTED_clean_linker_0, # of connection points: 2
#     Edge 37, Type (0, 0), BuildingBlock: XIVTED_clean_linker_0, # of connection points: 2
#     Edge 38, Type (0, 0), BuildingBlock: XIVTED_clean_linker_0, # of connection points: 2
#     Edge 39, Type (0, 0), BuildingBlock: XIVTED_clean_linker_0, # of connection points: 2
#     Edge 40, Type (0, 0), BuildingBlock: XIVTED_clean_linker_0, # of connection points: 2
#     Edge 41, Type (0, 0), BuildingBlock: XIVTED_clean_linker_0, # of connection points: 2
#     Edge 42, Type (0, 0), BuildingBlock: XIVTED_clean_linker_0, # of connection points: 2
#     Edge 43, Type (0, 0), BuildingBlock: XIVTED_clean_linker_0, # of connection points: 2
#     Edge 44, Type (0, 0), BuildingBlock: XIVTED_clean_linker_0, # of connection points: 2
#     Edge 45, Type (0, 0), BuildingBlock: XIVTED_clean_linker_0, # of connection points: 2
#     Edge 46, Type (0, 0), BuildingBlock: XIVTED_clean_linker_0, # of connection points: 2
#     Edge 47, Type (0, 0), BuildingBlock: XIVTED_clean_linker_0, # of connection points: 2
#     Edge 48, Type (0, 0), BuildingBlock: XIVTED_clean_linker_0, # of connection points: 2
#     Edge 49, Type (0, 0), BuildingBlock: XIVTED_clean_linker_0, # of connection points: 2
#     Edge 50, Type (0, 0), BuildingBlock: XIVTED_clean_linker_0, # of connection points: 2
#     Edge 51, Type (0, 0), BuildingBlock: XIVTED_clean_linker_0, # of connection points: 2
#     Edge 52, Type (0, 0), BuildingBlock: XIVTED_clean_linker_0, # of connection points: 2
#     Edge 53, Type (0, 0), BuildingBlock: XIVTED_clean_linker_0, # of connection points: 2
#     Edge 54, Type (0, 0), BuildingBlock: XIVTED_clean_linker_0, # of connection points: 2
#     Edge 55, Type (0, 0), BuildingBlock: XIVTED_clean_linker_0, # of connection points: 2
#     Edge 56, Type (0, 0), BuildingBlock: XIVTED_clean_linker_0, # of connection points: 2
#     Edge 57, Type (0, 0), BuildingBlock: XIVTED_clean_linker_0, # of connection points: 2
#     Edge 58, Type (0, 0), BuildingBlock: XIVTED_clean_linker_0, # of connection points: 2
#     Edge 59, Type (0, 0), BuildingBlock: XIVTED_clean_linker_0, # of connection points: 2
#     Edge 60, Type (0, 0), BuildingBlock: XIVTED_clean_linker_0, # of connection points: 2
#     Edge 61, Type (0, 0), BuildingBlock: XIVTED_clean_linker_0, # of connection points: 2
#     Edge 62, Type (0, 0), BuildingBlock: XIVTED_clean_linker_0, # of connection points: 2
#     Edge 63, Type (0, 0), BuildingBlock: XIVTED_clean_linker_0, # of connection points: 2
# Relax obj value: 0.193
# Max RMSD: 0.285
# Mean RMSD: 0.225
data_MOF--net-snl--node1-CUKXOW_clean_sbu_0--edge1-XIVTED_clean_linker_0
_symmetry_space_group_name_H-M    P1
_symmetry_Int_Tables_number       1
_symmetry_cell_setting            triclinic
loop_
_symmetry_equiv_pos_as_xyz
'x, y, z'
_cell_length_a     67.417186
_cell_length_b     64.972122
_cell_length_c     14.45987
_cell_angle_alpha  94.755149
_cell_angle_beta   94.671179
_cell_angle_gamma 90.208557
loop_
_atom_site_label
_atom_site_type_symbol
_atom_site_fract_x
_atom_site_fract_y
_atom_site_fract_z
_atom_type_partial_charge
Tb0 Tb 0.11135 0.61901 0.14585 0.0
C1 C 0.13292 0.66 0.23253 0.0
Tb2 Tb 0.15851 0.61917 0.20729 0.0
O3 O 0.10149 0.61683 0.28774 0.0
O4 O 0.13092 0.61657 0.26385 0.0
O5 O 0.11772 0.65184 0.17677 0.0
C6 C 0.19401 0.62084 0.30154 0.0
O7 O 0.14866 0.6493 0.26178 0.0
C8 C 0.15016 0.62167 1.02446 0.0
C9 C 0.1364 0.5776 0.13704 0.0
O10 O 0.1859 0.63567 0.25733 0.0
O11 O 0.18208 0.60489 0.29305 0.0
O12 O 0.16809 0.62084 0.06431 0.0
O13 O 0.13886 0.62153 0.08909 0.0
O14 O 0.15171 0.5864 0.18966 0.0
O15 O 0.12093 0.58795 0.10182 0.0
C16 C 0.07677 0.61948 0.04354 0.0
O17 O 0.08326 0.60429 0.09024 0.0
O18 O 0.08976 0.63451 0.05463 0.0
C19 C 0.11946 0.6161 0.32785 0.0
Tb20 Tb 0.59538 0.87538 0.46177 0.0
C21 C 0.61907 0.83257 0.4498 0.0
Tb22 Tb 0.64307 0.8745 0.44037 0.0
O23 O 0.58666 0.87687 0.31142 0.0
O24 O 0.61578 0.8764 0.35955 0.0
O25 O 0.60344 0.84302 0.47981 0.0
C26 C 0.67954 0.87495 0.37782 0.0
O27 O 0.63498 0.84167 0.42092 0.0
C28 C 0.63411 0.87285 0.6153 0.0
C29 C 0.62069 0.91715 0.47796 0.0
O30 O 0.66524 0.862 0.347 0.0
O31 O 0.6731 0.88773 0.44225 0.0
O32 O 0.65214 0.87231 0.58957 0.0
O33 O 0.62274 0.87385 0.54263 0.0
O34 O 0.6356 0.90731 0.43842 0.0
O35 O 0.60462 0.90749 0.50236 0.0
C36 C 0.55731 0.87488 0.5056 0.0
O37 O 0.56961 0.8905 0.52288 0.0
O38 O 0.56684 0.85943 0.46796 0.0
C39 C 0.60464 0.87691 0.28616 0.0
Tb40 Tb 0.40758 0.36531 0.65903 0.0
C41 C 0.38018 0.32632 0.65614 0.0
Tb42 Tb 0.3624 0.37137 0.68368 0.0
O43 O 0.41144 0.35243 0.79407 0.0
O44 O 0.38951 0.37434 0.77033 0.0
O45 O 0.39674 0.33372 0.62631 0.0
C46 C 0.32731 0.37557 0.75343 0.0
O47 O 0.36619 0.33829 0.69093 0.0
C48 C 0.36909 0.36761 0.50427 0.0
C49 C 0.38928 0.41025 0.67748 0.0
O50 O 0.33985 0.36093 0.77019 0.0
O51 O 0.33462 0.38786 0.69836 0.0
O52 O 0.35163 0.37047 0.53439 0.0
O53 O 0.38099 0.36687 0.57528 0.0
O54 O 0.37339 0.40279 0.71198 0.0
O55 O 0.40329 0.39823 0.64323 0.0
C56 C 0.44523 0.36753 0.61735 0.0
O57 O 0.43863 0.37376 0.69646 0.0
O58 O 0.43061 0.35975 0.56084 0.0
C59 C 0.39655 0.36216 0.82811 0.0
Tb60 Tb 0.88129 0.1492 0.90537 0.0
C61 C 0.922 0.12398 0.90154 0.0
Tb62 Tb 0.88175 0.09967 0.92765 0.0
O63 O 0.88119 0.15831 0.05665 0.0
O64 O 0.88184 0.12813 1.00857 0.0
O65 O 0.91159 0.14024 0.87478 0.0
C66 C 0.88163 0.06212 0.99462 0.0
O67 O 0.9137 0.10769 0.93505 0.0
C68 C 0.88106 0.10867 0.7514 0.0
C69 C 0.84067 0.12416 0.90346 0.0
O70 O 0.89583 0.0759 1.0115 0.0
O71 O 0.86749 0.06971 0.94158 0.0
O72 O 0.88157 0.08996 0.77734 0.0
O73 O 0.88101 0.12057 0.8244 0.0
O74 O 0.85036 0.10832 0.93926 0.0
O75 O 0.84993 0.14049 0.87568 0.0
C76 C 0.88154 0.18861 0.86015 0.0
O77 O 0.86676 0.17555 0.84099 0.0
O78 O 0.89631 0.17909 0.90085 0.0
C79 C 0.8816 0.13968 0.08212 0.0
Tb80 Tb 0.10407 0.3842 1.00977 0.0
C81 C 0.12124 0.34232 0.92787 0.0
Tb82 Tb 0.15083 0.38048 0.98152 0.0
O83 O 0.09413 0.38769 0.86168 0.0
O84 O 0.12359 0.38572 0.9055 0.0
O85 O 0.10717 0.35111 0.97683 0.0
C86 C 0.18631 0.37777 0.9156 0.0
O87 O 0.13805 0.35182 0.91284 0.0
C88 C 0.14253 0.37796 0.15848 0.0
C89 C 0.13273 0.42355 0.03964 0.0
O90 O 0.17773 0.36328 0.95513 0.0
O91 O 0.17481 0.39376 0.91212 0.0
O92 O 0.16037 0.37741 0.13075 0.0
O93 O 0.13118 0.37926 0.08609 0.0
O94 O 0.14726 0.41368 0.99824 0.0
O95 O 0.11643 0.41431 0.06289 0.0
C96 C 0.06999 0.38719 0.08944 0.0
O97 O 0.07811 0.40168 0.04823 0.0
O98 O 0.08096 0.37077 0.08508 0.0
C99 C 0.11202 0.38723 0.83367 0.0
Tb100 Tb 0.90639 0.86917 0.13192 0.0
C101 C 0.88168 0.82739 0.12763 0.0
Tb102 Tb 0.85887 0.86987 0.15435 0.0
O103 O 0.91536 0.87235 0.28338 0.0
O104 O 0.88625 0.87006 0.23575 0.0
O105 O 0.8968 0.83702 0.09451 0.0
C106 C 0.82257 0.86985 0.21851 0.0
O107 O 0.86715 0.83756 0.16862 0.0
C108 C 0.86737 0.86869 0.9776 0.0
C109 C 0.88245 0.91176 0.12931 0.0
O110 O 0.82896 0.85665 0.15559 0.0
O111 O 0.83685 0.88301 0.24709 0.0
O112 O 0.84944 0.86965 1.00448 0.0
O113 O 0.87894 0.86839 0.05018 0.0
O114 O 0.86619 0.90297 0.15705 0.0
O115 O 0.89879 0.90129 0.10871 0.0
C116 C 0.94434 0.86629 0.08812 0.0
O117 O 0.93322 0.88254 0.08173 0.0
O118 O 0.93369 0.85149 0.11451 0.0
C119 C 0.89746 0.87183 0.30942 0.0
Tb120 Tb 0.37963 0.64398 0.47453 0.0
C121 C 0.42005 0.62235 0.52176 0.0
Tb122 Tb 0.37965 0.59644 0.49781 0.0
O123 O 0.3778 0.65522 0.62276 0.0
O124 O 0.37801 0.62431 0.58019 0.0
O125 O 0.41114 0.63778 0.48123 0.0
C126 C 0.38499 0.55855 0.55116 0.0
O127 O 0.41039 0.60573 0.54323 0.0
C128 C 0.37552 0.60736 0.32522 0.0
C129 C 0.3389 0.61952 0.47999 0.0
O130 O 0.39395 0.56636 0.48586 0.0
O131 O 0.37291 0.57203 0.58616 0.0
O132 O 0.36855 0.59027 0.35101 0.0
O133 O 0.38584 0.61633 0.39356 0.0
O134 O 0.34823 0.60289 0.50824 0.0
O135 O 0.34816 0.63594 0.4543 0.0
C136 C 0.37885 0.6779 0.38429 0.0
O137 O 0.36641 0.66251 0.36664 0.0
O138 O 0.39141 0.67443 0.45416 0.0
C139 C 0.37736 0.63672 0.65131 0.0
Tb140 Tb 0.60623 0.11494 0.62251 0.0
C141 C 0.63093 0.15656 0.65378 0.0
Tb142 Tb 0.65397 0.11434 0.67766 0.0
O143 O 0.59769 0.11517 0.76702 0.0
O144 O 0.6268 0.11566 0.74051 0.0
O145 O 0.61574 0.14634 0.6061 0.0
C146 C 0.6913 0.11718 0.76046 0.0
O147 O 0.64572 0.1471 0.70027 0.0
C148 C 0.64483 0.11297 0.49519 0.0
C149 C 0.62948 0.07227 0.61922 0.0
O150 O 0.68267 0.13037 0.70817 0.0
O151 O 0.6786 0.10236 0.76866 0.0
O152 O 0.66286 0.1123 0.53376 0.0
O153 O 0.63351 0.11408 0.5601 0.0
O154 O 0.64578 0.08122 0.66509 0.0
O155 O 0.61378 0.08278 0.58678 0.0
C156 C 0.56811 0.11753 0.55333 0.0
O157 O 0.57768 0.10049 0.56584 0.0
O158 O 0.58041 0.13295 0.57513 0.0
C159 C 0.61568 0.11549 0.80563 0.0
Tb160 Tb 0.84576 0.38561 0.89605 0.0
C161 C 0.86701 0.42925 0.95052 0.0
Tb162 Tb 0.89245 0.38793 0.96019 0.0
O163 O 0.83539 0.38588 0.03833 0.0
O164 O 0.86491 0.38693 1.01764 0.0
O165 O 0.85165 0.41902 0.90341 0.0
C166 C 0.92695 0.39018 0.06368 0.0
O167 O 0.88276 0.41983 0.98915 0.0
C168 C 0.88503 0.38697 0.77567 0.0
C169 C 0.87171 0.34438 0.90318 0.0
O170 O 0.91933 0.4048 1.01658 0.0
O171 O 0.91515 0.37417 0.05234 0.0
O172 O 0.90284 0.3879 0.81802 0.0
O173 O 0.87332 0.38653 0.83863 0.0
O174 O 0.88667 0.3547 0.9525 0.0
O175 O 0.85581 0.35371 0.86506 0.0
C176 C 0.81134 0.3822 0.79216 0.0
O177 O 0.81885 0.36833 0.84398 0.0
O178 O 0.82316 0.3982 0.79913 0.0
C179 C 0.8532 0.38665 0.08064 0.0
Tb180 Tb 0.33743 0.13353 0.70664 0.0
C181 C 0.3602 0.09055 0.69602 0.0
Tb182 Tb 0.38507 0.13147 0.68088 0.0
O183 O 0.32792 0.12994 0.5556 0.0
O184 O 0.3573 0.13049 0.60151 0.0
O185 O 0.34405 0.10086 0.72 0.0
C186 C 0.4214 0.12947 0.6165 0.0
O187 O 0.37646 0.09923 0.66921 0.0
C188 C 0.37661 0.13434 0.85927 0.0
C189 C 0.36275 0.17363 0.68554 0.0
O190 O 0.40788 0.11493 0.60368 0.0
O191 O 0.41424 0.14523 0.66386 0.0
O192 O 0.39444 0.13253 0.83177 0.0
O193 O 0.36522 0.13497 0.78635 0.0
O194 O 0.37658 0.16214 0.64667 0.0
O195 O 0.34799 0.16572 0.72823 0.0
C196 C 0.30062 0.13686 0.76732 0.0
O197 O 0.30906 0.14981 0.71861 0.0
O198 O 0.31323 0.12223 0.78444 0.0
C199 C 0.34581 0.12931 0.52839 0.0
Tb200 Tb 0.64658 0.63446 0.43145 0.0
C201 C 0.62621 0.59081 0.43803 0.0
Tb202 Tb 0.60283 0.63211 0.44842 0.0
O203 O 0.65189 0.64801 0.57496 0.0
O204 O 0.62837 0.6272 0.53818 0.0
O205 O 0.64052 0.60099 0.40241 0.0
C206 C 0.56571 0.63055 0.49786 0.0
O207 O 0.61176 0.60097 0.47818 0.0
C208 C 0.61302 0.62849 0.27541 0.0
C209 C 0.62336 0.67659 0.44961 0.0
O210 O 0.57312 0.61856 0.43396 0.0
O211 O 0.57911 0.64396 0.5338 0.0
O212 O 0.59713 0.62036 0.30196 0.0
O213 O 0.62098 0.63987 0.34279 0.0
O214 O 0.60728 0.66595 0.46672 0.0
O215 O 0.64002 0.66727 0.42681 0.0
C216 C 0.68281 0.63248 0.37028 0.0
O217 O 0.67845 0.6279 0.45188 0.0
O218 O 0.66684 0.6381 0.32347 0.0
C219 C 0.63631 0.63938 0.60322 0.0
Tb220 Tb 0.13362 0.8969 0.23005 0.0
C221 C 0.17515 0.87594 0.2772 0.0
Tb222 Tb 0.13519 0.8484 0.25559 0.0
O223 O 0.13307 0.90722 0.38007 0.0
O224 O 0.13348 0.87666 0.33532 0.0
O225 O 0.16567 0.89178 0.24129 0.0
C226 C 0.13513 0.81181 0.32523 0.0
O227 O 0.16585 0.85899 0.29875 0.0
C228 C 0.13597 0.85639 0.07829 0.0
C229 C 0.09388 0.86957 0.20236 0.0
O230 O 0.15025 0.82021 0.29213 0.0
O231 O 0.12008 0.82419 0.32045 0.0
O232 O 0.13656 0.83789 0.10632 0.0
O233 O 0.13513 0.86849 0.15013 0.0
O234 O 0.10307 0.85411 0.24278 0.0
O235 O 0.10348 0.88623 0.18057 0.0
C236 C 0.13135 0.93333 0.16093 0.0
O237 O 0.11851 0.92592 0.21187 0.0
O238 O 0.14558 0.92019 0.14838 0.0
C239 C 0.1332 0.88868 0.40762 0.0
Tb240 Tb 0.85097 0.62929 0.04232 0.0
C241 C 0.87221 0.5858 1.00717 0.0
Tb242 Tb 0.89778 0.62791 1.01492 0.0
O243 O 0.84084 0.62845 0.89189 0.0
O244 O 0.87035 0.62874 0.93626 0.0
O245 O 0.85622 0.59595 0.03427 0.0
C246 C 0.93293 0.6276 0.94288 0.0
O247 O 0.88898 0.59517 0.98908 0.0
C248 C 0.89018 0.62807 0.1932 0.0
C249 C 0.87595 0.67082 0.04544 0.0
O250 O 0.92068 0.61201 0.93783 0.0
O251 O 0.92529 0.64336 0.98779 0.0
O252 O 0.90795 0.62673 0.16451 0.0
O253 O 0.87858 0.62913 0.12137 0.0
O254 O 0.89022 0.66049 1.00331 0.0
O255 O 0.86083 0.66134 0.07892 0.0
C256 C 0.8164 0.63089 0.11824 0.0
O257 O 0.82192 0.64313 0.05833 0.0
O258 O 0.83035 0.61767 0.13555 0.0
C259 C 0.8587 0.62843 0.86392 0.0
Tb260 Tb 0.11337 0.10831 0.84705 0.0
C261 C 0.1523 0.13579 0.83664 0.0
Tb262 Tb 0.10961 0.15652 0.82149 0.0
O263 O 0.11064 0.09763 0.69665 0.0
O264 O 0.10885 0.12815 0.7405 0.0
O265 O 0.14439 0.11935 0.86996 0.0
C266 C 0.10562 0.19357 0.75676 0.0
O267 O 0.14127 0.15107 0.80453 0.0
C268 C 0.11435 0.14874 1.00045 0.0
C269 C 0.07065 0.12888 0.83221 0.0
O270 O 0.12082 0.18156 0.74728 0.0
O271 O 0.09258 0.18445 0.80091 0.0
O272 O 0.11231 0.16711 0.9721 0.0
O273 O 0.11422 0.13671 0.92789 0.0
O274 O 0.07852 0.14549 0.79989 0.0
O275 O 0.08166 0.11338 0.86209 0.0
C276 C 0.11776 0.07243 0.92058 0.0
O277 O 0.10319 0.08507 0.93361 0.0
O278 O 0.12981 0.07997 0.86626 0.0
C279 C 0.10878 0.11604 0.66821 0.0
Tb280 Tb 0.62995 0.39657 0.51164 0.0
C281 C 0.67061 0.37318 0.53163 0.0
Tb282 Tb 0.63017 0.34814 0.5291 0.0
O283 O 0.64243 0.40197 0.65637 0.0
O284 O 0.62542 0.37569 0.61508 0.0
O285 O 0.66115 0.38925 0.49803 0.0
C286 C 0.62923 0.30971 0.58426 0.0
O287 O 0.66134 0.35683 0.5583 0.0
C288 C 0.63078 0.35713 0.35294 0.0
C289 C 0.58961 0.37184 0.51272 0.0
O290 O 0.64302 0.32351 0.61129 0.0
O291 O 0.616 0.31777 0.52806 0.0
O292 O 0.63079 0.33851 0.37894 0.0
O293 O 0.63048 0.36897 0.42578 0.0
O294 O 0.59958 0.35639 0.54858 0.0
O295 O 0.59849 0.38774 0.47986 0.0
C296 C 0.62595 0.43616 0.47216 0.0
O297 O 0.61702 0.4273 0.5348 0.0
O298 O 0.63689 0.42251 0.42969 0.0
C299 C 0.63628 0.38453 0.68181 0.0
Tb300 Tb 0.36642 0.90489 0.42359 0.0
C301 C 0.32553 0.88091 0.36233 0.0
Tb302 Tb 0.36624 0.85627 0.36163 0.0
O303 O 0.36696 0.91532 0.28103 0.0
O304 O 0.36666 0.88476 0.30344 0.0
O305 O 0.33453 0.89718 0.41078 0.0
C306 C 0.36677 0.81988 0.26312 0.0
O307 O 0.3354 0.86488 0.32594 0.0
C308 C 0.36581 0.86449 0.54532 0.0
C309 C 0.40713 0.87969 0.42504 0.0
O310 O 0.35173 0.82739 0.30482 0.0
O311 O 0.38154 0.83297 0.27659 0.0
O312 O 0.36579 0.84589 0.50436 0.0
O313 O 0.36602 0.87641 0.48163 0.0
O314 O 0.398 0.86383 0.37421 0.0
O315 O 0.39736 0.89593 0.46088 0.0
C316 C 0.3652 0.9408 0.52514 0.0
O317 O 0.38027 0.93404 0.48142 0.0
O318 O 0.35078 0.92732 0.51184 0.0
C319 C 0.36692 0.89673 0.23993 0.0
H320 H 0.1131 0.61823 0.92755 0.0
H321 H 0.15651 0.61882 0.42449 0.0
H322 H 0.17555 0.62328 0.88876 0.0
H323 H 0.09398 0.61474 0.46348 0.0
H324 H 0.16391 0.6202 0.59425 0.0
H325 H 0.10568 0.61684 0.75784 0.0
C326 C 0.12521 0.61918 0.88341 0.0
C327 C 0.14493 0.62102 0.9224 0.0
C328 C 0.14856 0.61896 0.5657 0.0
C329 C 0.13669 0.61922 0.72794 0.0
C330 C 0.14437 0.61812 0.46874 0.0
C331 C 0.12463 0.61659 0.42984 0.0
C332 C 0.13287 0.61827 0.62423 0.0
C333 C 0.10943 0.6159 0.49053 0.0
C334 C 0.12102 0.6183 0.78643 0.0
C335 C 0.16011 0.6219 0.86169 0.0
N336 N 0.11385 0.61674 0.58435 0.0
N337 N 0.15569 0.621 0.76786 0.0
H338 H 0.64173 0.87776 0.21821 0.0
H339 H 0.59706 0.87446 0.68345 0.0
H340 H 0.57897 0.87544 0.13228 0.0
H341 H 0.65974 0.87184 0.76847 0.0
H342 H 0.58999 0.8756 0.84807 0.0
H343 H 0.6488 0.87647 0.05372 0.0
C344 C 0.6295 0.87688 0.16478 0.0
C345 C 0.6098 0.87652 0.18867 0.0
C346 C 0.6053 0.87474 0.83059 0.0
C347 C 0.6176 0.87526 1.00088 0.0
C348 C 0.60928 0.87407 0.73676 0.0
C349 C 0.62897 0.87304 0.71267 0.0
C350 C 0.62115 0.87443 0.90039 0.0
C351 C 0.64432 0.87261 0.7842 0.0
C352 C 0.63348 0.87621 0.07094 0.0
C353 C 0.59441 0.87569 0.1168 0.0
N354 N 0.6401 0.87335 0.87463 0.0
N355 N 0.59862 0.87508 1.02637 0.0
H356 H 0.34464 0.3789 0.35947 0.0
H357 H 0.41677 0.3427 0.96596 0.0
H358 H 0.40309 0.35464 0.42303 0.0
H359 H 0.36659 0.38239 0.91615 0.0
H360 H 0.41055 0.34415 0.13075 0.0
H361 H 0.35101 0.37763 0.19504 0.0
C362 C 0.35888 0.37334 0.33877 0.0
C363 C 0.37345 0.367 0.4052 0.0
C364 C 0.40089 0.35254 0.08392 0.0
C365 C 0.38078 0.36531 0.21632 0.0
C366 C 0.40437 0.35166 0.98966 0.0
C367 C 0.39217 0.36246 0.92715 0.0
C368 C 0.38492 0.36411 0.11617 0.0
C369 C 0.37634 0.37383 0.96189 0.0
C370 C 0.36251 0.37267 0.24481 0.0
C371 C 0.39159 0.3599 0.37435 0.0
N372 N 0.37313 0.3743 0.05396 0.0
N373 N 0.39471 0.35915 0.28206 0.0
H374 H 0.88127 0.14714 0.68401 0.0
H375 H 0.8806 0.1011 0.14892 0.0
H376 H 0.88091 0.08201 0.59736 0.0
H377 H 0.88222 0.16618 0.23651 0.0
H378 H 0.88049 0.09362 0.31289 0.0
H379 H 0.88137 0.15455 0.51996 0.0
C380 C 0.88119 0.13445 0.63044 0.0
C381 C 0.88107 0.11397 0.65399 0.0
C382 C 0.88089 0.10954 0.29615 0.0
C383 C 0.88118 0.12219 0.46674 0.0
C384 C 0.88099 0.11376 0.20264 0.0
C385 C 0.8815 0.13424 0.17936 0.0
C386 C 0.88127 0.12595 0.36652 0.0
C387 C 0.88184 0.15014 0.25152 0.0
C388 C 0.88126 0.13863 0.5369 0.0
C389 C 0.881 0.09804 0.58208 0.0
N390 N 0.88172 0.14568 0.3416 0.0
N391 N 0.88106 0.10247 0.49191 0.0
H392 H 0.16817 0.37402 0.31043 0.0
H393 H 0.08622 0.39081 0.68173 0.0
H394 H 0.10622 0.38453 0.23263 0.0
H395 H 0.14834 0.38117 0.75941 0.0
H396 H 0.09319 0.38846 0.51788 0.0
H397 H 0.16116 0.37639 0.47416 0.0
C398 C 0.15302 0.37677 0.32781 0.0
C399 C 0.13772 0.37897 0.25742 0.0
C400 C 0.10534 0.3869 0.57047 0.0
C401 C 0.12955 0.38179 0.44602 0.0
C402 C 0.10139 0.38825 0.66429 0.0
C403 C 0.11674 0.38627 0.73463 0.0
C404 C 0.12486 0.38346 0.54598 0.0
C405 C 0.13608 0.38292 0.70766 0.0
C406 C 0.14904 0.37814 0.42157 0.0
C407 C 0.11841 0.38255 0.28435 0.0
N408 N 0.13958 0.3816 0.6156 0.0
N409 N 0.11489 0.38386 0.37639 0.0
H410 H 0.84114 0.8675 0.8259 0.0
H411 H 0.92317 0.87796 0.46254 0.0
H412 H 0.90414 0.87095 0.90652 0.0
H413 H 0.86094 0.86678 0.37966 0.0
H414 H 0.91631 0.87726 0.62529 0.0
H415 H 0.84798 0.86879 0.66352 0.0
C416 C 0.85648 0.86851 0.80927 0.0
C417 C 0.87213 0.86912 0.87976 0.0
C418 C 0.9041 0.87503 0.57183 0.0
C419 C 0.88007 0.87069 0.69317 0.0
C420 C 0.90797 0.8755 0.47874 0.0
C421 C 0.89254 0.87255 0.40746 0.0
C422 C 0.8846 0.8716 0.59439 0.0
C423 C 0.8732 0.86934 0.43247 0.0
C424 C 0.86035 0.86924 0.71636 0.0
C425 C 0.89167 0.87042 0.85422 0.0
N426 N 0.86977 0.86894 0.52399 0.0
N427 N 0.89509 0.87121 0.76284 0.0
H428 H 0.36883 0.5997 0.71987 0.0
H429 H 0.39221 0.64104 0.25622 0.0
H430 H 0.38495 0.66293 0.80729 0.0
H431 H 0.35905 0.58494 0.16951 0.0
H432 H 0.39246 0.6483 0.0923 0.0
H433 H 0.3682 0.59264 0.88396 0.0
C434 C 0.37238 0.61203 0.77355 0.0
C435 C 0.37706 0.63186 0.74983 0.0
C436 C 0.38506 0.63444 0.10917 0.0
C437 C 0.37636 0.62402 0.93798 0.0
C438 C 0.38485 0.63033 0.2028 0.0
C439 C 0.37544 0.61245 0.22676 0.0
C440 C 0.37609 0.62037 0.03863 0.0
C441 C 0.36642 0.59895 0.15433 0.0
C442 C 0.3719 0.60806 0.86726 0.0
C443 C 0.38127 0.64739 0.82243 0.0
N444 N 0.36706 0.60312 0.06378 0.0
N445 N 0.38093 0.64314 0.91299 0.0
H446 H 0.65282 0.11528 0.90137 0.0
H447 H 0.60782 0.11469 0.40004 0.0
H448 H 0.59001 0.11459 0.93858 0.0
H449 H 0.6705 0.11088 0.3612 0.0
H450 H 0.60087 0.11518 0.23056 0.0
H451 H 0.65982 0.11428 0.0706 0.0
C452 C 0.64057 0.11488 0.94516 0.0
C453 C 0.62086 0.11495 0.90636 0.0
C454 C 0.61614 0.11419 0.25925 0.0
C455 C 0.62858 0.11391 0.09891 0.0
C456 C 0.62005 0.11389 0.35575 0.0
C457 C 0.63971 0.11273 0.39415 0.0
C458 C 0.63204 0.11338 0.20143 0.0
C459 C 0.6551 0.11178 0.33414 0.0
C460 C 0.6445 0.11432 0.04155 0.0
C461 C 0.60545 0.11452 0.96588 0.0
N462 N 0.65095 0.11216 0.24092 0.0
N463 N 0.60962 0.11403 0.05902 0.0
H464 H 0.82722 0.3841 0.21354 0.0
H465 H 0.91097 0.39015 0.64306 0.0
H466 H 0.88991 0.38973 0.181 0.0
H467 H 0.84837 0.38337 0.67502 0.0
H468 H 0.90358 0.39017 0.47461 0.0
H469 H 0.83462 0.38411 0.382 0.0
C470 C 0.84259 0.38534 0.24194 0.0
C471 C 0.85799 0.38685 0.18294 0.0
C472 C 0.89141 0.3887 0.51818 0.0
C473 C 0.86662 0.38687 0.37673 0.0
C474 C 0.89562 0.38868 0.61455 0.0
C475 C 0.88024 0.38685 0.6734 0.0
C476 C 0.87161 0.38686 0.47962 0.0
C477 C 0.86065 0.38497 0.63244 0.0
C478 C 0.8468 0.38533 0.33831 0.0
C479 C 0.8776 0.38843 0.22375 0.0
N480 N 0.8569 0.38503 0.53822 0.0
N481 N 0.88135 0.3884 0.31799 0.0
H482 H 0.31973 0.12741 0.37521 0.0
H483 H 0.40267 0.13237 1.01073 0.0
H484 H 0.38265 0.13101 0.45706 0.0
H485 H 0.33974 0.13479 0.93186 0.0
H486 H 0.39562 0.13069 0.17284 0.0
H487 H 0.32677 0.12865 0.21273 0.0
C488 C 0.33509 0.12835 0.35887 0.0
C489 C 0.35065 0.12905 0.42993 0.0
C490 C 0.38331 0.13159 0.12043 0.0
C491 C 0.35883 0.13057 0.24297 0.0
C492 C 0.3873 0.13255 1.02757 0.0
C493 C 0.37174 0.13368 0.95739 0.0
C494 C 0.36354 0.13168 0.1441 0.0
C495 C 0.35216 0.13388 0.98357 0.0
C496 C 0.33908 0.12912 0.26588 0.0
C497 C 0.37023 0.13033 0.40453 0.0
N498 N 0.34861 0.13285 0.07478 0.0
N499 N 0.37376 0.13105 0.31315 0.0
H500 H 0.59494 0.60632 0.12357 0.0
H501 H 0.65562 0.66097 0.75466 0.0
H502 H 0.63938 0.6538 0.20248 0.0
H503 H 0.60814 0.61668 0.67695 0.0
H504 H 0.65021 0.65845 0.91889 0.0
H505 H 0.60011 0.60943 0.95979 0.0
C506 C 0.60587 0.61733 0.10633 0.0
C507 C 0.61683 0.62973 0.17667 0.0
C508 C 0.64093 0.64932 0.86599 0.0
C509 C 0.6228 0.63348 0.98913 0.0
C510 C 0.64399 0.65078 0.77224 0.0
C511 C 0.63236 0.63895 0.70221 0.0
C512 C 0.62615 0.63588 0.88998 0.0
C513 C 0.61748 0.62603 0.72879 0.0
C514 C 0.60879 0.61915 1.01279 0.0
C515 C 0.63078 0.64378 0.15047 0.0
N516 N 0.61486 0.62478 0.82048 0.0
N517 N 0.63336 0.64528 0.05882 0.0
H518 H 0.13145 0.91564 0.55997 0.0
H519 H 0.13957 0.82949 0.92699 0.0
H520 H 0.13599 0.85057 0.47937 0.0
H521 H 0.13176 0.89422 1.00513 0.0
H522 H 0.13894 0.83691 0.7638 0.0
H523 H 0.13221 0.90814 0.72293 0.0
C524 C 0.1326 0.89972 0.57668 0.0
C525 C 0.13362 0.88368 0.50595 0.0
C526 C 0.1374 0.84954 0.8164 0.0
C527 C 0.13454 0.87494 0.69325 0.0
C528 C 0.13778 0.84533 0.90975 0.0
C529 C 0.13584 0.86131 0.9799 0.0
C530 C 0.13506 0.86993 0.79245 0.0
C531 C 0.1335 0.88149 0.95346 0.0
C532 C 0.13302 0.89545 0.66991 0.0
C533 C 0.1351 0.86337 0.53169 0.0
N534 N 0.13318 0.88523 0.86188 0.0
N535 N 0.13553 0.85958 0.62328 0.0
H536 H 0.83271 0.62959 0.71105 0.0
H537 H 0.91568 0.62157 0.34302 0.0
H538 H 0.89551 0.62673 0.79225 0.0
H539 H 0.85411 0.63454 0.26853 0.0
H540 H 0.90846 0.62157 0.50613 0.0
H541 H 0.84006 0.62946 0.54823 0.0
C542 C 0.8481 0.62889 0.69452 0.0
C543 C 0.86354 0.62813 0.76542 0.0
C544 C 0.89647 0.62434 0.45425 0.0
C545 C 0.87209 0.62794 0.57823 0.0
C546 C 0.90057 0.6243 0.36093 0.0
C547 C 0.88539 0.62778 0.29164 0.0
C548 C 0.87699 0.62784 0.47909 0.0
C549 C 0.86615 0.63137 0.31915 0.0
C550 C 0.85227 0.62886 0.60138 0.0
C551 C 0.88317 0.62728 0.73983 0.0
N552 N 0.86248 0.63126 0.41057 0.0
N553 N 0.88689 0.62717 0.64834 0.0
H554 H 0.11111 0.08903 0.51611 0.0
H555 H 0.11112 0.17568 0.15195 0.0
H556 H 0.10726 0.15418 0.59614 0.0
H557 H 0.11729 0.11073 0.07379 0.0
H558 H 0.10957 0.16813 0.31396 0.0
H559 H 0.11286 0.09662 0.35424 0.0
C560 C 0.11057 0.10499 0.49951 0.0
C561 C 0.10905 0.12102 0.56988 0.0
C562 C 0.11126 0.15548 0.26166 0.0
C563 C 0.11113 0.12987 0.38375 0.0
C564 C 0.11218 0.15977 0.16893 0.0
C565 C 0.11421 0.14377 0.09891 0.0
C566 C 0.11236 0.13497 0.28528 0.0
C567 C 0.11553 0.12349 0.12521 0.0
C568 C 0.11162 0.1093 0.40689 0.0
C569 C 0.10844 0.14137 0.54419 0.0
N570 N 0.11454 0.11966 0.21618 0.0
N571 N 0.1095 0.14521 0.45327 0.0
H572 H 0.63811 0.39476 0.28562 0.0
H573 H 0.6215 0.35006 0.7504 0.0
H574 H 0.6245 0.33089 0.19839 0.0
H575 H 0.65065 0.4085 0.83675 0.0
H576 H 0.61983 0.34378 0.91455 0.0
H577 H 0.6398 0.4015 0.12128 0.0
C578 C 0.63534 0.38225 0.23193 0.0
C579 C 0.63114 0.36229 0.25541 0.0
C580 C 0.62667 0.35795 0.89761 0.0
C581 C 0.63304 0.36974 0.06811 0.0
C582 C 0.62765 0.36149 0.80396 0.0
C583 C 0.63626 0.37978 0.7801 0.0
C584 C 0.63415 0.37292 0.96789 0.0
C585 C 0.64393 0.39416 0.85222 0.0
C586 C 0.63642 0.38603 0.13833 0.0
C587 C 0.62782 0.34652 0.18327 0.0
N588 N 0.64259 0.39049 0.94282 0.0
N589 N 0.62878 0.35058 0.09311 0.0
H590 H 0.36494 0.85829 0.14369 0.0
H591 H 0.36817 0.90292 0.64162 0.0
H592 H 0.36864 0.92317 0.10451 0.0
H593 H 0.36395 0.83808 0.68073 0.0
H594 H 0.36843 0.91076 0.81091 0.0
H595 H 0.36472 0.85047 0.97439 0.0
C596 C 0.36577 0.87086 0.09945 0.0
C597 C 0.36687 0.89138 0.13814 0.0
C598 C 0.36742 0.89481 0.78251 0.0
C599 C 0.36655 0.88266 0.94432 0.0
C600 C 0.36722 0.89037 0.68583 0.0
C601 C 0.36594 0.86985 0.64711 0.0
C602 C 0.36636 0.87859 0.84095 0.0
C603 C 0.36493 0.85413 0.70769 0.0
C604 C 0.36561 0.86643 1.00278 0.0
C605 C 0.36779 0.90712 0.07755 0.0
N606 N 0.36515 0.85881 0.8013 0.0
N607 N 0.36761 0.90245 0.98395 0.0
H608 H 0.16305 0.68342 0.32604 0.0
H609 H 0.10181 0.7884 0.33443 0.0
H610 H 0.10182 0.68702 0.21463 0.0
H611 H 0.16591 0.78558 0.35274 0.0
H612 H 0.1003 0.7506 0.33012 0.0
H613 H 0.16279 0.72026 0.37329 0.0
C614 C 0.14949 0.69189 0.31193 0.0
C615 C 0.13248 0.68213 0.26509 0.0
C616 C 0.11468 0.75832 0.33664 0.0
C617 C 0.13214 0.72434 0.31983 0.0
C618 C 0.11555 0.77983 0.33986 0.0
C619 C 0.13402 0.78995 0.34299 0.0
C620 C 0.13241 0.74704 0.33756 0.0
C621 C 0.15139 0.77825 0.34954 0.0
C622 C 0.14938 0.71294 0.33906 0.0
C623 C 0.11534 0.69395 0.24942 0.0
N624 N 0.15017 0.75735 0.34585 0.0
N625 N 0.11563 0.7145 0.27638 0.0
H626 H 0.53395 0.90776 0.56015 0.0
H627 H 0.43194 0.8476 0.38038 0.0
H628 H 0.53041 0.84367 0.45548 0.0
H629 H 0.43318 0.90978 0.51153 0.0
H630 H 0.46801 0.84627 0.40867 0.0
H631 H 0.49735 0.90909 0.54651 0.0
C632 C 0.52548 0.8939 0.53553 0.0
C633 C 0.53529 0.87556 0.5091 0.0
C634 C 0.46045 0.86022 0.4316 0.0
C635 C 0.49337 0.87704 0.49184 0.0
C636 C 0.43974 0.86103 0.41519 0.0
C637 C 0.42929 0.87887 0.44328 0.0
C638 C 0.4711 0.8774 0.47618 0.0
C639 C 0.44047 0.89569 0.48847 0.0
C640 C 0.50458 0.89469 0.52733 0.0
C641 C 0.52353 0.85814 0.47687 0.0
N642 N 0.46071 0.89457 0.50313 0.0
N643 N 0.5033 0.85934 0.46868 0.0
H644 H 0.40467 0.29543 0.59291 0.0
H645 H 0.33781 0.20419 0.75012 0.0
H646 H 0.3491 0.30559 0.71813 0.0
H647 H 0.39156 0.19467 0.6092 0.0
H648 H 0.34158 0.24148 0.74026 0.0
H649 H 0.39997 0.25829 0.59873 0.0
C650 C 0.39145 0.28989 0.62124 0.0
C651 C 0.3773 0.30371 0.65507 0.0
C652 C 0.3525 0.23116 0.71141 0.0
C653 C 0.37184 0.26118 0.66242 0.0
C654 C 0.35036 0.20989 0.71712 0.0
C655 C 0.36436 0.19623 0.68052 0.0
C656 C 0.36878 0.23877 0.66902 0.0
C657 C 0.38034 0.20452 0.63846 0.0
C658 C 0.38877 0.26866 0.62466 0.0
C659 C 0.36045 0.29557 0.69115 0.0
N660 N 0.38211 0.22519 0.63404 0.0
N661 N 0.35823 0.27487 0.69411 0.0
H662 H 0.94988 0.09435 0.94532 0.0
H663 H 0.04225 0.15727 0.78186 0.0
H664 H 0.94458 0.1538 0.83324 0.0
H665 H 0.0483 0.0981 0.89601 0.0
H666 H 0.00642 0.15582 0.79765 0.0
H667 H 0.9857 0.09509 0.92622 0.0
C668 C 0.95617 0.10757 0.91674 0.0
C669 C 0.94398 0.12404 0.89105 0.0
C670 C 0.01556 0.14311 0.81905 0.0
C671 C 0.98526 0.12495 0.86872 0.0
C672 C 0.03611 0.1439 0.80984 0.0
C673 C 0.04853 0.12778 0.83745 0.0
C674 C 0.00715 0.12607 0.85633 0.0
C675 C 0.03947 0.11092 0.87353 0.0
C676 C 0.97669 0.10797 0.90578 0.0
C677 C 0.95319 0.14071 0.85429 0.0
N678 N 0.01944 0.11054 0.88199 0.0
N679 N 0.97314 0.14072 0.84435 0.0
H680 H 0.14145 0.32266 0.79069 0.0
H681 H 0.13533 0.21653 0.69827 0.0
H682 H 0.09267 0.31418 0.96026 0.0
H683 H 0.07652 0.22111 0.79471 0.0
H684 H 0.13871 0.2539 0.71992 0.0
H685 H 0.1361 0.28777 0.71901 0.0
C686 C 0.12974 0.31334 0.81378 0.0
C687 C 0.11778 0.32121 0.8833 0.0
C688 C 0.12474 0.24698 0.73344 0.0
C689 C 0.11183 0.28085 0.80265 0.0
C690 C 0.12286 0.22553 0.72107 0.0
C691 C 0.10572 0.21582 0.74565 0.0
C692 C 0.10931 0.25871 0.77063 0.0
C693 C 0.09005 0.22808 0.77557 0.0
C694 C 0.12674 0.29329 0.77285 0.0
C695 C 0.10244 0.30865 0.90798 0.0
N696 N 0.09235 0.2489 0.7888 0.0
N697 N 0.10003 0.28903 0.86821 0.0
H698 H 0.06823 0.83732 0.22198 0.0
H699 H 0.96958 0.89769 0.05531 0.0
H700 H 0.0691 0.89876 0.12921 0.0
H701 H 0.96937 0.83443 0.12462 0.0
H702 H 0.00608 0.89807 0.07696 0.0
H703 H 0.03217 0.83578 0.18427 0.0
C704 C 0.0609 0.8505 0.19368 0.0
C705 C 0.07188 0.86822 0.17915 0.0
C706 C 0.99808 0.88403 0.08658 0.0
C707 C 0.03034 0.86654 0.13554 0.0
C708 C 0.97723 0.88378 0.07371 0.0
C709 C 0.9664 0.86599 0.088 0.0
C710 C 0.00822 0.8664 0.11466 0.0
C711 C 0.9771 0.84848 0.11262 0.0
C712 C 0.04025 0.84958 0.17188 0.0
C713 C 0.06139 0.88475 0.14187 0.0
N714 N 0.99735 0.84916 0.12578 0.0
N715 N 0.0413 0.88353 0.12178 0.0
H716 H 0.40831 0.70656 0.38741 0.0
H717 H 0.33695 0.79139 0.22478 0.0
H718 H 0.3489 0.69143 0.26689 0.0
H719 H 0.4007 0.79863 0.23335 0.0
H720 H 0.34094 0.75396 0.21973 0.0
H721 H 0.40646 0.73942 0.31664 0.0
C722 C 0.39494 0.71014 0.34521 0.0
C723 C 0.37858 0.6966 0.33418 0.0
C724 C 0.35404 0.76368 0.22 0.0
C725 C 0.37626 0.73407 0.25373 0.0
C726 C 0.35175 0.78502 0.22277 0.0
C727 C 0.36856 0.79798 0.23151 0.0
C728 C 0.37328 0.75545 0.22834 0.0
C729 C 0.38739 0.78908 0.22793 0.0
C730 C 0.39394 0.72878 0.30413 0.0
C731 C 0.36172 0.70169 0.27781 0.0
N732 N 0.38931 0.76831 0.22919 0.0
N733 N 0.3608 0.72028 0.24112 0.0
H734 H 0.54631 0.1529 0.55508 0.0
H735 H 0.4404 0.09508 0.54534 0.0
H736 H 0.53973 0.08661 0.52673 0.0
H737 H 0.45007 0.15972 0.6307 0.0
H738 H 0.47571 0.09205 0.51571 0.0
H739 H 0.51019 0.15602 0.5586 0.0
C740 C 0.53723 0.13898 0.54802 0.0
C741 C 0.54609 0.11945 0.54068 0.0
C742 C 0.47008 0.10693 0.54029 0.0
C743 C 0.50458 0.12291 0.5457 0.0
C744 C 0.44991 0.10868 0.55691 0.0
C745 C 0.44228 0.12768 0.59076 0.0
C746 C 0.48273 0.12435 0.5569 0.0
C747 C 0.45531 0.14477 0.60483 0.0
C748 C 0.51659 0.14077 0.55067 0.0
C749 C 0.53354 0.10197 0.53233 0.0
N750 N 0.47483 0.14269 0.58802 0.0
N751 N 0.51346 0.1041 0.53554 0.0
H752 H 0.91115 0.21707 0.91041 0.0
H753 H 0.8435 0.31628 0.81916 0.0
H754 H 0.84999 0.21216 0.7977 0.0
H755 H 0.90289 0.31953 0.95607 0.0
H756 H 0.84601 0.27852 0.80056 0.0
H757 H 0.90895 0.2547 0.91564 0.0
C758 C 0.89729 0.22391 0.88572 0.0
C759 C 0.88074 0.21138 0.85345 0.0
C760 C 0.8585 0.28751 0.83449 0.0
C761 C 0.878 0.25476 0.86018 0.0
C762 C 0.85709 0.30914 0.84515 0.0
C763 C 0.87298 0.32131 0.88956 0.0
C764 C 0.87597 0.27783 0.86799 0.0
C765 C 0.89019 0.31097 0.92165 0.0
C766 C 0.89601 0.24546 0.88915 0.0
C767 C 0.86314 0.2212 0.82282 0.0
N768 N 0.89119 0.28997 0.91025 0.0
N769 N 0.86221 0.24227 0.82725 0.0
H770 H 0.5896 0.80683 0.49896 0.0
H771 H 0.65262 0.70329 0.41083 0.0
H772 H 0.64858 0.80543 0.40273 0.0
H773 H 0.59248 0.70278 0.49271 0.0
H774 H 0.65133 0.74077 0.41138 0.0
H775 H 0.5903 0.76912 0.50037 0.0
C776 C 0.60271 0.79868 0.47809 0.0
C777 C 0.61906 0.80953 0.45066 0.0
C778 C 0.63838 0.73253 0.42932 0.0
C779 C 0.61993 0.76611 0.45238 0.0
C780 C 0.6391 0.71101 0.42917 0.0
C781 C 0.62262 0.69965 0.45175 0.0
C782 C 0.62106 0.74306 0.45238 0.0
C783 C 0.60557 0.71077 0.47477 0.0
C784 C 0.60307 0.77708 0.47892 0.0
C785 C 0.63558 0.79792 0.42439 0.0
N786 N 0.60523 0.73179 0.47449 0.0
N787 N 0.63557 0.77698 0.42602 0.0
H788 H 0.90446 0.69664 0.98949 0.0
H789 H 0.85337 0.80145 0.18389 0.0
H790 H 0.84997 0.69806 0.12711 0.0
H791 H 0.90797 0.80025 0.04708 0.0
H792 H 0.852 0.76371 0.1641 0.0
H793 H 0.90602 0.73441 1.00984 0.0
C794 C 0.89279 0.70482 1.0239 0.0
C795 C 0.87703 0.69394 0.05647 0.0
C796 C 0.8643 0.77168 0.13842 0.0
C797 C 0.87879 0.73752 0.08024 0.0
C798 C 0.86512 0.79332 0.14977 0.0
C799 C 0.88082 0.80426 0.11718 0.0
C800 C 0.87928 0.76068 0.09402 0.0
C801 C 0.89555 0.79264 0.07347 0.0
C802 C 0.89371 0.72647 0.03557 0.0
C803 C 0.86241 0.70561 0.10065 0.0
N804 N 0.8944 0.77159 0.06319 0.0
N805 N 0.86365 0.72665 0.11115 0.0
H806 H 0.66032 0.18481 0.7262 0.0
H807 H 0.59999 0.28115 0.5349 0.0
H808 H 0.60187 0.18097 0.57936 0.0
H809 H 0.65834 0.28812 0.68022 0.0
H810 H 0.60039 0.24446 0.55857 0.0
H811 H 0.65999 0.22249 0.71746 0.0
C812 C 0.64741 0.19181 0.69254 0.0
C813 C 0.63114 0.17953 0.65317 0.0
C814 C 0.61313 0.25393 0.58586 0.0
C815 C 0.63068 0.22267 0.64297 0.0
C816 C 0.61288 0.27495 0.57244 0.0
C817 C 0.62916 0.28773 0.6055 0.0
C818 C 0.62986 0.24538 0.63245 0.0
C819 C 0.64546 0.2788 0.6537 0.0
C820 C 0.64725 0.21334 0.68753 0.0
C821 C 0.61484 0.18959 0.61042 0.0
N822 N 0.64546 0.25814 0.66535 0.0
N823 N 0.61508 0.21041 0.60642 0.0
H824 H 0.94839 0.35797 0.12835 0.0
H825 H 0.0486 0.42187 0.12175 0.0
H826 H 0.95175 0.42335 0.09848 0.0
H827 H 0.04652 0.35589 0.13642 0.0
H828 H 0.01365 0.42374 0.15333 0.0
H829 H 0.98434 0.35799 0.1709 0.0
C830 C 0.95665 0.3724 0.13287 0.0
C831 C 0.94732 0.39061 0.10817 0.0
C832 C 0.02085 0.40886 0.15109 0.0
C833 C 0.98819 0.39075 0.15577 0.0
C834 C 0.04079 0.4078 0.13304 0.0
C835 C 0.05021 0.38865 0.12471 0.0
C836 C 0.01019 0.39057 0.15919 0.0
C837 C 0.03962 0.37092 0.14124 0.0
C838 C 0.97714 0.3724 0.15687 0.0
C839 C 0.95854 0.40892 0.11555 0.0
N840 N 0.01999 0.37223 0.15596 0.0
N841 N 0.97846 0.40847 0.13738 0.0
H842 H 0.44334 0.65704 0.5425 0.0
H843 H 0.54196 0.59677 0.46806 0.0
H844 H 0.44627 0.5907 0.54422 0.0
H845 H 0.54306 0.66009 0.58452 0.0
H846 H 0.50684 0.59425 0.49534 0.0
H847 H 0.47966 0.65885 0.5582 0.0
C848 C 0.45164 0.64286 0.54687 0.0
C849 C 0.44183 0.62365 0.54076 0.0
C850 C 0.51478 0.60862 0.5162 0.0
C851 C 0.48329 0.62565 0.55821 0.0
C852 C 0.53477 0.6101 0.50019 0.0
C853 C 0.54522 0.62873 0.52342 0.0
C854 C 0.50508 0.62605 0.55368 0.0
C855 C 0.53538 0.6455 0.56552 0.0
C856 C 0.47235 0.64394 0.5565 0.0
C857 C 0.45327 0.60581 0.54815 0.0
N858 N 0.51567 0.64389 0.57794 0.0
N859 N 0.47345 0.60721 0.55496 0.0
H860 H 0.47688 0.37452 0.74288 0.0
H861 H 0.55994 0.38752 0.39621 0.0
H862 H 0.4611 0.36421 0.44742 0.0
H863 H 0.57024 0.35699 0.64947 0.0
H864 H 0.52384 0.387 0.41598 0.0
H865 H 0.51189 0.37666 0.71253 0.0
C866 C 0.48082 0.37277 0.67149 0.0
C867 C 0.46621 0.36899 0.59749 0.0
C868 C 0.53414 0.38041 0.46663 0.0
C869 C 0.5061 0.37178 0.56241 0.0
C870 C 0.55461 0.3808 0.45577 0.0
C871 C 0.56798 0.37219 0.52107 0.0
C872 C 0.52732 0.37194 0.54466 0.0
C873 C 0.56042 0.36361 0.597 0.0
C874 C 0.50075 0.37397 0.65433 0.0
C875 C 0.47206 0.36694 0.50624 0.0
N876 N 0.54064 0.36388 0.60714 0.0
N877 N 0.49168 0.36845 0.49094 0.0
H878 H 0.05801 0.65308 0.97719 0.0
H879 H 0.95356 0.5933 0.88817 0.0
H880 H 0.05009 0.58793 1.00214 0.0
H881 H 0.95964 0.65928 0.94755 0.0
H882 H 0.9897 0.59095 0.88247 0.0
H883 H 0.02285 0.65512 0.92028 0.0
C884 C 0.04894 0.63915 0.96903 0.0
C885 C 0.05675 0.62038 0.99565 0.0
C886 C 0.98307 0.60598 0.89505 0.0
C887 C 0.01678 0.62256 0.93076 0.0
C888 C 0.96248 0.60733 0.89788 0.0
C889 C 0.95376 0.62647 0.91985 0.0
C890 C 0.99491 0.62391 0.91399 0.0
C891 C 0.9659 0.6442 0.93157 0.0
C892 C 0.02891 0.64033 0.93681 0.0
C893 C 0.04448 0.60276 0.98346 0.0
N894 N 0.98593 0.64247 0.92963 0.0
N895 N 0.02502 0.6043 0.95269 0.0
H896 H 0.10464 0.55256 0.07577 0.0
H897 H 0.16595 0.44822 0.04296 0.0
H898 H 0.16772 0.55108 0.15627 0.0
H899 H 0.10283 0.45042 0.07545 0.0
H900 H 0.16735 0.48604 0.06474 0.0
H901 H 0.10421 0.51496 0.05254 0.0
C902 C 0.11843 0.54435 0.08798 0.0
C903 C 0.13624 0.55496 0.11835 0.0
C904 C 0.15325 0.47815 0.0675 0.0
C905 C 0.1358 0.51196 0.09191 0.0
C906 C 0.15242 0.45663 0.05498 0.0
C907 C 0.13425 0.44617 0.05759 0.0
C908 C 0.13574 0.4892 0.08106 0.0
C909 C 0.11719 0.45781 0.07348 0.0
C910 C 0.11814 0.52289 0.07527 0.0
C911 C 0.15364 0.54349 0.13342 0.0
N912 N 0.11833 0.47872 0.08394 0.0
N913 N 0.15301 0.52255 0.11978 0.0
H914 H 0.69603 0.84762 0.25118 0.0
H915 H 0.80606 0.89771 0.34318 0.0
H916 H 0.71048 0.90084 0.44347 0.0
H917 H 0.79169 0.84374 0.1554 0.0
H918 H 0.77119 0.89923 0.38094 0.0
H919 H 0.73089 0.84621 0.2136 0.0
C920 C 0.70652 0.85907 0.28512 0.0
C921 C 0.70033 0.87437 0.35047 0.0
C922 C 0.77566 0.88702 0.33163 0.0
C923 C 0.74035 0.87282 0.30834 0.0
C924 C 0.79559 0.88613 0.31029 0.0
C925 C 0.8018 0.87057 0.24617 0.0
C926 C 0.76179 0.87225 0.2884 0.0
C927 C 0.78757 0.85599 0.20535 0.0
C928 C 0.72645 0.85823 0.26389 0.0
C929 C 0.71459 0.88878 0.39257 0.0
N930 N 0.76829 0.85721 0.22696 0.0
N931 N 0.73388 0.88764 0.37094 0.0
H932 H 0.36581 0.44017 0.75484 0.0
H933 H 0.41102 0.52979 0.48796 0.0
H934 H 0.41617 0.43177 0.58941 0.0
H935 H 0.36511 0.53955 0.67755 0.0
H936 H 0.4142 0.49416 0.52962 0.0
H937 H 0.36648 0.47696 0.73371 0.0
C938 C 0.37712 0.44607 0.71465 0.0
C939 C 0.39086 0.43281 0.67313 0.0
C940 C 0.40352 0.50412 0.56262 0.0
C941 C 0.39159 0.47497 0.64819 0.0
C942 C 0.40168 0.52441 0.53871 0.0
C943 C 0.3877 0.53746 0.57904 0.0
C944 C 0.39116 0.49685 0.6268 0.0
C945 C 0.37601 0.52987 0.64467 0.0
C946 C 0.37749 0.46711 0.70267 0.0
C947 C 0.40524 0.44139 0.6224 0.0
N948 N 0.37791 0.50998 0.66609 0.0
N949 N 0.40512 0.46191 0.61063 0.0
H950 H 0.81539 0.15402 0.84118 0.0
H951 H 0.71427 0.08808 0.84812 0.0
H952 H 0.81475 0.09292 0.93765 0.0
H953 H 0.71749 0.14856 0.74797 0.0
H954 H 0.75049 0.08977 0.89002 0.0
H955 H 0.77926 0.1525 0.81502 0.0
C956 C 0.80771 0.14026 0.8573 0.0
C957 C 0.81837 0.12355 0.89162 0.0
C958 C 0.74322 0.10271 0.85941 0.0
C959 C 0.77645 0.12169 0.86111 0.0
C960 C 0.72254 0.10178 0.83583 0.0
C961 C 0.7128 0.1182 0.79441 0.0
C962 C 0.75425 0.12021 0.84153 0.0
C963 C 0.72431 0.13551 0.77962 0.0
C964 C 0.78695 0.1394 0.8422 0.0
C965 C 0.8073 0.10621 0.91113 0.0
N966 N 0.7443 0.13602 0.80278 0.0
N967 N 0.78702 0.1057 0.89533 0.0
H968 H 0.90322 0.55857 0.99394 0.0
H969 H 0.83563 0.45573 0.91765 0.0
H970 H 0.83931 0.56003 0.99782 0.0
H971 H 0.89846 0.45577 1.00322 0.0
H972 H 0.83655 0.4937 0.93092 0.0
H973 H 0.90166 0.52079 0.98062 0.0
C974 C 0.88883 0.55101 0.99163 0.0
C975 C 0.87138 0.56268 0.99721 0.0
C976 C 0.85011 0.48536 0.94698 0.0
C977 C 0.86949 0.5191 0.98131 0.0
C978 C 0.84961 0.46365 0.93923 0.0
C979 C 0.86697 0.45238 0.95958 0.0
C980 C 0.86816 0.49598 0.97378 0.0
C981 C 0.88464 0.46365 0.98728 0.0
C982 C 0.88796 0.52937 0.98439 0.0
C983 C 0.85319 0.5518 0.99417 0.0
N984 N 0.88479 0.4847 0.99296 0.0
N985 N 0.85271 0.5307 0.98601 0.0
H986 H 0.17483 0.16629 0.77236 0.0
H987 H 0.2796 0.10862 0.85379 0.0
H988 H 0.18068 0.10786 0.89323 0.0
H989 H 0.27291 0.16621 0.72726 0.0
H990 H 0.24384 0.10879 0.87638 0.0
H991 H 0.21085 0.16721 0.76233 0.0
C992 C 0.18363 0.15366 0.79723 0.0
C993 C 0.17448 0.13695 0.83364 0.0
C994 C 0.2502 0.12146 0.84412 0.0
C995 C 0.21614 0.1379 0.82197 0.0
C996 C 0.27065 0.12139 0.8315 0.0
C997 C 0.27932 0.13743 0.78856 0.0
C998 C 0.23821 0.13768 0.81356 0.0
C999 C 0.26692 0.15353 0.76072 0.0
C1000 C 0.2043 0.1542 0.79135 0.0
C1001 C 0.18691 0.12108 0.86456 0.0
N1002 N 0.24709 0.15321 0.77339 0.0
N1003 N 0.20698 0.12193 0.85783 0.0
H1004 H 0.65222 0.56306 0.35767 0.0
H1005 H 0.60183 0.46477 0.55196 0.0
H1006 H 0.60084 0.56591 0.51774 0.0
H1007 H 0.64849 0.45878 0.36499 0.0
H1008 H 0.60184 0.50203 0.54011 0.0
H1009 H 0.65189 0.52523 0.36002 0.0
C1010 C 0.64089 0.5558 0.3933 0.0
C1011 C 0.62657 0.56782 0.43774 0.0
C1012 C 0.61204 0.49264 0.50113 0.0
C1013 C 0.62612 0.52448 0.44069 0.0
C1014 C 0.61201 0.47131 0.50783 0.0
C1015 C 0.62514 0.45862 0.45929 0.0
C1016 C 0.62544 0.50157 0.44597 0.0
C1017 C 0.63806 0.468 0.40333 0.0
C1018 C 0.64069 0.53418 0.39442 0.0
C1019 C 0.61223 0.55744 0.48252 0.0
N1020 N 0.63796 0.48891 0.39855 0.0
N1021 N 0.61242 0.53652 0.48299 0.0
H1022 H 0.30116 0.84741 0.30834 0.0
H1023 H 0.19941 0.91032 0.28585 0.0
H1024 H 0.29908 0.91287 0.38688 0.0
H1025 H 0.20159 0.8444 0.30419 0.0
H1026 H 0.23585 0.91182 0.30751 0.0
H1027 H 0.26479 0.84632 0.29013 0.0
C1028 C 0.2931 0.86161 0.32139 0.0
C1029 C 0.30333 0.88029 0.34922 0.0
C1030 C 0.22834 0.89705 0.30711 0.0
C1031 C 0.26143 0.87909 0.32794 0.0
C1032 C 0.20751 0.89615 0.29448 0.0
C1033 C 0.1973 0.87719 0.29321 0.0
C1034 C 0.23918 0.87883 0.31703 0.0
C1035 C 0.20871 0.85938 0.30508 0.0
C1036 C 0.27228 0.86093 0.3114 0.0
C1037 C 0.29191 0.89811 0.36558 0.0
N1038 N 0.22898 0.86062 0.31575 0.0
N1039 N 0.27163 0.89709 0.35419 0.0
H1040 H 0.65394 0.94199 0.4802 0.0
H1041 H 0.59625 0.04799 0.5755 0.0
H1042 H 0.59133 0.94477 0.52227 0.0
H1043 H 0.66011 0.04393 0.62195 0.0
H1044 H 0.59428 0.01059 0.54194 0.0
H1045 H 0.65651 0.97946 0.51722 0.0
C1046 C 0.64069 0.95044 0.49668 0.0
C1047 C 0.62235 0.94007 0.49778 0.0
C1048 C 0.60874 0.01783 0.55969 0.0
C1049 C 0.62526 0.98317 0.54018 0.0
C1050 C 0.60992 0.03927 0.57865 0.0
C1051 C 0.62841 0.04928 0.60164 0.0
C1052 C 0.62618 0.00609 0.5622 0.0
C1053 C 0.64552 0.03696 0.60498 0.0
C1054 C 0.64223 0.97186 0.51838 0.0
C1055 C 0.60578 0.95197 0.52052 0.0
N1056 N 0.64401 0.01605 0.58483 0.0
N1057 N 0.60762 0.97281 0.54023 0.0
H1058 H 0.2124 0.34622 0.93163 0.0
H1059 H 0.30046 0.4059 0.72443 0.0
H1060 H 0.20663 0.40747 0.83864 0.0
H1061 H 0.30814 0.34794 0.84787 0.0
H1062 H 0.26583 0.40649 0.76272 0.0
H1063 H 0.24719 0.34591 0.89534 0.0
C1064 C 0.21848 0.35955 0.903 0.0
C1065 C 0.20676 0.3769 0.88801 0.0
C1066 C 0.27509 0.39368 0.78189 0.0
C1067 C 0.24643 0.37675 0.84711 0.0
C1068 C 0.29484 0.39337 0.76027 0.0
C1069 C 0.30704 0.37684 0.78312 0.0
C1070 C 0.26751 0.37726 0.8261 0.0
C1071 C 0.29914 0.36098 0.82931 0.0
C1072 C 0.23832 0.35941 0.88274 0.0
C1073 C 0.21525 0.3938 0.85105 0.0
N1074 N 0.27978 0.36152 0.84894 0.0
N1075 N 0.23463 0.39332 0.8319 0.0
H1076 H 0.85011 0.9375 0.11649 0.0
H1077 H 0.91324 0.04084 0.07143 0.0
H1078 H 0.91406 0.93797 0.11376 0.0
H1079 H 0.85077 0.03432 0.98317 0.0
H1080 H 0.91359 0.0046 0.10936 0.0
H1081 H 0.84987 0.97426 0.08975 0.0
C1082 C 0.86413 0.94531 0.111 0.0
C1083 C 0.88213 0.93444 0.11728 0.0
C1084 C 0.89979 0.01113 0.08205 0.0
C1085 C 0.88193 0.97682 0.087 0.0
C1086 C 0.89956 0.03185 0.06081 0.0
C1087 C 0.88195 0.04064 1.02393 0.0
C1088 C 0.8822 0.99914 0.06767 0.0
C1089 C 0.86469 0.02819 1.01126 0.0
C1090 C 0.86396 0.96633 0.09528 0.0
C1091 C 0.89979 0.94556 0.109 0.0
N1092 N 0.86523 0.00817 0.03324 0.0
N1093 N 0.89925 0.96606 0.09465 0.0
H1094 H 0.21886 0.65391 0.32444 0.0
H1095 H 0.31596 0.65332 0.50563 0.0
H1096 H 0.21541 0.58977 0.37866 0.0
H1097 H 0.31221 0.5872 0.44631 0.0
H1098 H 0.27995 0.65513 0.48391 0.0
H1099 H 0.25353 0.65489 0.38322 0.0
C1100 C 0.22538 0.64011 0.35074 0.0
C1101 C 0.21434 0.62174 0.34682 0.0
C1102 C 0.28687 0.64022 0.47373 0.0
C1103 C 0.25414 0.62277 0.41728 0.0
C1104 C 0.30748 0.63917 0.48719 0.0
C1105 C 0.31704 0.62014 0.47568 0.0
C1106 C 0.27571 0.62213 0.4458 0.0
C1107 C 0.30535 0.6022 0.45479 0.0
C1108 C 0.24523 0.6407 0.38552 0.0
C1109 C 0.22351 0.60425 0.3809 0.0
N1110 N 0.28524 0.60366 0.43916 0.0
N1111 N 0.24301 0.60513 0.41395 0.0
H1112 H 0.3323 0.96039 0.58648 0.0
H1113 H 0.39266 0.06623 0.71394 0.0
H1114 H 0.39556 0.96803 0.57338 0.0
H1115 H 0.32847 0.06325 0.6804 0.0
H1116 H 0.39372 0.0288 0.69456 0.0
H1117 H 0.33051 0.9965 0.6506 0.0
C1118 C 0.34583 0.96961 0.59844 0.0
C1119 C 0.36408 0.96143 0.57391 0.0
C1120 C 0.37936 0.03625 0.69199 0.0
C1121 C 0.36217 0.0024 0.64686 0.0
C1122 C 0.37874 0.05766 0.70292 0.0
C1123 C 0.36044 0.06787 0.69676 0.0
C1124 C 0.36158 0.02485 0.67383 0.0
C1125 C 0.34289 0.05595 0.68472 0.0
C1126 C 0.34479 0.99017 0.6347 0.0
C1127 C 0.38118 0.97387 0.59063 0.0
N1128 N 0.34388 0.03498 0.6722 0.0
N1129 N 0.37978 0.99377 0.62556 0.0
H1130 H 0.78467 0.65434 0.06867 0.0
H1131 H 0.71699 0.6174 0.45322 0.0
H1132 H 0.80427 0.60917 0.25776 0.0
H1133 H 0.69375 0.64652 0.21021 0.0
H1134 H 0.75013 0.61716 0.39412 0.0
H1135 H 0.75217 0.65489 0.13214 0.0
C1136 C 0.7821 0.64458 0.1238 0.0
C1137 C 0.79703 0.63163 0.15797 0.0
C1138 C 0.73774 0.62356 0.3538 0.0
C1139 C 0.76002 0.6322 0.23099 0.0
C1140 C 0.71891 0.62373 0.38749 0.0
C1141 C 0.70274 0.63198 0.33625 0.0
C1142 C 0.74034 0.63192 0.26902 0.0
C1143 C 0.70589 0.63999 0.25162 0.0
C1144 C 0.76356 0.64484 0.15976 0.0
C1145 C 0.79303 0.61929 0.22943 0.0
N1146 N 0.72436 0.63984 0.22077 0.0
N1147 N 0.77486 0.61989 0.26389 0.0
H1148 H 0.09348 0.0549 0.03389 0.0
H1149 H 0.15695 0.9512 0.05363 0.0
H1150 H 0.14718 0.04455 0.89437 0.0
H1151 H 0.10254 0.96166 0.18736 0.0
H1152 H 0.15413 0.98561 0.99635 0.0
H1153 H 0.09707 0.02094 0.09397 0.0
C1154 C 0.10604 0.04544 1.01618 0.0
C1155 C 0.12003 0.05236 0.95916 0.0
C1156 C 0.14282 0.98036 0.03825 0.0
C1157 C 0.12425 0.01363 1.027 0.0
C1158 C 0.14443 0.96077 0.07074 0.0
C1159 C 0.12995 0.95373 0.12498 0.0
C1160 C 0.12661 0.99286 0.06046 0.0
C1161 C 0.114 0.9666 0.14555 0.0
C1162 C 0.10809 0.02608 0.05031 0.0
C1163 C 0.13607 0.03965 0.93816 0.0
N1164 N 0.11276 0.98557 0.11323 0.0
N1165 N 0.13774 0.02082 0.97201 0.0
H1166 H 0.69572 0.40639 0.52455 0.0
H1167 H 0.78797 0.34795 0.76084 0.0
H1168 H 0.69551 0.34184 0.57597 0.0
H1169 H 0.79097 0.41163 0.69892 0.0
H1170 H 0.75491 0.34492 0.67912 0.0
H1171 H 0.73141 0.40812 0.57258 0.0
C1172 C 0.7032 0.39252 0.54459 0.0
C1173 C 0.69254 0.37401 0.54747 0.0
C1174 C 0.76278 0.35955 0.68261 0.0
C1175 C 0.73324 0.37594 0.60299 0.0
C1176 C 0.78165 0.36128 0.72944 0.0
C1177 C 0.79203 0.38011 0.73717 0.0
C1178 C 0.75413 0.37686 0.64396 0.0
C1179 C 0.78331 0.39687 0.69472 0.0
C1180 C 0.72356 0.39354 0.57226 0.0
C1181 C 0.70302 0.35653 0.5739 0.0
N1182 N 0.76471 0.39492 0.65057 0.0
N1183 N 0.72271 0.35799 0.60137 0.0
loop_
_geom_bond_atom_site_label_1
_geom_bond_atom_site_label_2
_geom_bond_distance
_geom_bond_site_symmetry_2
_ccdc_geom_bond_type
Tb0 O3 2.453 . S
Tb0 O4 2.596 . S
Tb0 O5 2.374 . S
Tb0 O13 2.343 . S
Tb0 O15 2.353 . S
Tb0 O17 2.427 . S
Tb0 O18 2.513 . S
C1 O5 1.251 . S
C1 O7 1.263 . S
Tb2 O4 2.343 . S
Tb2 O7 2.353 . S
Tb2 O10 2.427 . S
Tb2 O11 2.513 . S
Tb2 O12 2.453 1_554 S
Tb2 O13 2.596 . S
Tb2 O14 2.374 . S
O3 Tb0 2.453 . S
O3 C19 1.245 . S
O4 Tb0 2.596 . S
O4 Tb2 2.343 . S
O4 C19 1.259 . S
O5 Tb0 2.374 . S
O5 C1 1.251 . S
C6 O10 1.275 . S
C6 O11 1.246 . S
O7 C1 1.263 . S
O7 Tb2 2.353 . S
C8 O12 1.245 . S
C8 O13 1.259 1_556 S
C9 O14 1.250 . S
C9 O15 1.263 . S
O10 Tb2 2.427 . S
O10 C6 1.275 . S
O11 Tb2 2.513 . S
O11 C6 1.246 . S
O12 Tb2 2.453 1_556 S
O12 C8 1.245 . S
O13 Tb0 2.343 . S
O13 Tb2 2.596 . S
O13 C8 1.259 1_554 S
O14 Tb2 2.374 . S
O14 C9 1.250 . S
O15 Tb0 2.353 . S
O15 C9 1.263 . S
C16 O17 1.275 . S
C16 O18 1.246 . S
O17 Tb0 2.427 . S
O17 C16 1.275 . S
O18 Tb0 2.513 . S
O18 C16 1.246 . S
C19 O3 1.245 . S
C19 O4 1.259 . S
Tb20 O23 2.453 . S
Tb20 O24 2.596 . S
Tb20 O25 2.374 . S
Tb20 O33 2.343 . S
Tb20 O35 2.353 . S
Tb20 O37 2.427 . S
Tb20 O38 2.513 . S
C21 O25 1.251 . S
C21 O27 1.263 . S
Tb22 O24 2.343 . S
Tb22 O27 2.353 . S
Tb22 O30 2.427 . S
Tb22 O31 2.513 . S
Tb22 O32 2.453 . S
Tb22 O33 2.596 . S
Tb22 O34 2.374 . S
O23 Tb20 2.453 . S
O23 C39 1.245 . S
O24 Tb20 2.596 . S
O24 Tb22 2.343 . S
O24 C39 1.259 . S
O25 Tb20 2.374 . S
O25 C21 1.251 . S
C26 O30 1.275 . S
C26 O31 1.246 . S
O27 C21 1.263 . S
O27 Tb22 2.353 . S
C28 O32 1.245 . S
C28 O33 1.259 . S
C29 O34 1.250 . S
C29 O35 1.263 . S
O30 Tb22 2.427 . S
O30 C26 1.275 . S
O31 Tb22 2.513 . S
O31 C26 1.246 . S
O32 Tb22 2.453 . S
O32 C28 1.245 . S
O33 Tb20 2.343 . S
O33 Tb22 2.596 . S
O33 C28 1.259 . S
O34 Tb22 2.374 . S
O34 C29 1.250 . S
O35 Tb20 2.353 . S
O35 C29 1.263 . S
C36 O37 1.275 . S
C36 O38 1.246 . S
O37 Tb20 2.427 . S
O37 C36 1.275 . S
O38 Tb20 2.513 . S
O38 C36 1.246 . S
C39 O23 1.245 . S
C39 O24 1.259 . S
Tb40 O43 2.453 . S
Tb40 O44 2.596 . S
Tb40 O45 2.374 . S
Tb40 O53 2.343 . S
Tb40 O55 2.353 . S
Tb40 O57 2.427 . S
Tb40 O58 2.513 . S
C41 O45 1.251 . S
C41 O47 1.263 . S
Tb42 O44 2.343 . S
Tb42 O47 2.353 . S
Tb42 O50 2.427 . S
Tb42 O51 2.513 . S
Tb42 O52 2.453 . S
Tb42 O53 2.596 . S
Tb42 O54 2.374 . S
O43 Tb40 2.453 . S
O43 C59 1.245 . S
O44 Tb40 2.596 . S
O44 Tb42 2.343 . S
O44 C59 1.259 . S
O45 Tb40 2.374 . S
O45 C41 1.251 . S
C46 O50 1.275 . S
C46 O51 1.246 . S
O47 C41 1.263 . S
O47 Tb42 2.353 . S
C48 O52 1.245 . S
C48 O53 1.259 . S
C49 O54 1.250 . S
C49 O55 1.263 . S
O50 Tb42 2.427 . S
O50 C46 1.275 . S
O51 Tb42 2.513 . S
O51 C46 1.246 . S
O52 Tb42 2.453 . S
O52 C48 1.245 . S
O53 Tb40 2.343 . S
O53 Tb42 2.596 . S
O53 C48 1.259 . S
O54 Tb42 2.374 . S
O54 C49 1.250 . S
O55 Tb40 2.353 . S
O55 C49 1.263 . S
C56 O57 1.275 . S
C56 O58 1.246 . S
O57 Tb40 2.427 . S
O57 C56 1.275 . S
O58 Tb40 2.513 . S
O58 C56 1.246 . S
C59 O43 1.245 . S
C59 O44 1.259 . S
Tb60 O63 2.453 1_556 S
Tb60 O64 2.594 1_556 S
Tb60 O65 2.374 . S
Tb60 O73 2.343 . S
Tb60 O75 2.353 . S
Tb60 O77 2.427 . S
Tb60 O78 2.513 . S
C61 O65 1.251 . S
C61 O67 1.263 . S
Tb62 O64 2.338 1_556 S
Tb62 O67 2.353 . S
Tb62 O70 2.427 . S
Tb62 O71 2.513 . S
Tb62 O72 2.453 . S
Tb62 O73 2.596 . S
Tb62 O74 2.374 . S
O63 Tb60 2.453 1_554 S
O63 C79 1.245 . S
O64 Tb60 2.594 1_554 S
O64 Tb62 2.338 1_554 S
O64 C79 1.265 . S
O65 Tb60 2.374 . S
O65 C61 1.251 . S
C66 O70 1.275 . S
C66 O71 1.246 . S
O67 C61 1.263 . S
O67 Tb62 2.353 . S
C68 O72 1.245 . S
C68 O73 1.259 . S
C69 O74 1.250 . S
C69 O75 1.263 . S
O70 Tb62 2.427 . S
O70 C66 1.275 . S
O71 Tb62 2.513 . S
O71 C66 1.246 . S
O72 Tb62 2.453 . S
O72 C68 1.245 . S
O73 Tb60 2.343 . S
O73 Tb62 2.596 . S
O73 C68 1.259 . S
O74 Tb62 2.374 . S
O74 C69 1.250 . S
O75 Tb60 2.353 . S
O75 C69 1.263 . S
C76 O77 1.275 . S
C76 O78 1.246 . S
O77 Tb60 2.427 . S
O77 C76 1.275 . S
O78 Tb60 2.513 . S
O78 C76 1.246 . S
C79 O63 1.245 . S
C79 O64 1.265 . S
Tb80 O83 2.453 . S
Tb80 O84 2.596 . S
Tb80 O85 2.374 . S
Tb80 O93 2.343 1_556 S
Tb80 O95 2.353 . S
Tb80 O97 2.427 . S
Tb80 O98 2.513 . S
C81 O85 1.251 . S
C81 O87 1.263 . S
Tb82 O84 2.343 . S
Tb82 O87 2.353 . S
Tb82 O90 2.427 . S
Tb82 O91 2.513 . S
Tb82 O92 2.453 1_556 S
Tb82 O93 2.596 1_556 S
Tb82 O94 2.374 . S
O83 Tb80 2.453 . S
O83 C99 1.245 . S
O84 Tb80 2.596 . S
O84 Tb82 2.343 . S
O84 C99 1.259 . S
O85 Tb80 2.374 . S
O85 C81 1.251 . S
C86 O90 1.275 . S
C86 O91 1.246 . S
O87 C81 1.263 . S
O87 Tb82 2.353 . S
C88 O92 1.245 . S
C88 O93 1.259 . S
C89 O94 1.250 . S
C89 O95 1.263 . S
O90 Tb82 2.427 . S
O90 C86 1.275 . S
O91 Tb82 2.513 . S
O91 C86 1.246 . S
O92 Tb82 2.453 1_554 S
O92 C88 1.245 . S
O93 Tb80 2.343 1_554 S
O93 Tb82 2.596 1_554 S
O93 C88 1.259 . S
O94 Tb82 2.374 . S
O94 C89 1.250 . S
O95 Tb80 2.353 . S
O95 C89 1.263 . S
C96 O97 1.275 1_554 S
C96 O98 1.246 1_554 S
O97 Tb80 2.427 . S
O97 C96 1.275 1_556 S
O98 Tb80 2.513 . S
O98 C96 1.246 1_556 S
C99 O83 1.245 . S
C99 O84 1.259 . S
Tb100 O103 2.453 . S
Tb100 O104 2.596 . S
Tb100 O105 2.374 . S
Tb100 O113 2.343 . S
Tb100 O115 2.353 . S
Tb100 O117 2.427 . S
Tb100 O118 2.513 . S
C101 O105 1.251 . S
C101 O107 1.263 . S
Tb102 O104 2.343 . S
Tb102 O107 2.353 . S
Tb102 O110 2.427 . S
Tb102 O111 2.513 . S
Tb102 O112 2.453 1_554 S
Tb102 O113 2.596 . S
Tb102 O114 2.374 . S
O103 Tb100 2.453 . S
O103 C119 1.245 . S
O104 Tb100 2.596 . S
O104 Tb102 2.343 . S
O104 C119 1.259 . S
O105 Tb100 2.374 . S
O105 C101 1.251 . S
C106 O110 1.275 . S
C106 O111 1.246 . S
O107 C101 1.263 . S
O107 Tb102 2.353 . S
C108 O112 1.245 . S
C108 O113 1.259 1_556 S
C109 O114 1.250 . S
C109 O115 1.263 . S
O110 Tb102 2.427 . S
O110 C106 1.275 . S
O111 Tb102 2.513 . S
O111 C106 1.246 . S
O112 Tb102 2.453 1_556 S
O112 C108 1.245 . S
O113 Tb100 2.343 . S
O113 Tb102 2.596 . S
O113 C108 1.259 1_554 S
O114 Tb102 2.374 . S
O114 C109 1.250 . S
O115 Tb100 2.353 . S
O115 C109 1.263 . S
C116 O117 1.275 . S
C116 O118 1.246 . S
O117 Tb100 2.427 . S
O117 C116 1.275 . S
O118 Tb100 2.513 . S
O118 C116 1.246 . S
C119 O103 1.245 . S
C119 O104 1.259 . S
Tb120 O123 2.453 . S
Tb120 O124 2.596 . S
Tb120 O125 2.374 . S
Tb120 O133 2.343 . S
Tb120 O135 2.353 . S
Tb120 O137 2.427 . S
Tb120 O138 2.513 . S
C121 O125 1.251 . S
C121 O127 1.263 . S
Tb122 O124 2.343 . S
Tb122 O127 2.353 . S
Tb122 O130 2.427 . S
Tb122 O131 2.513 . S
Tb122 O132 2.453 . S
Tb122 O133 2.596 . S
Tb122 O134 2.374 . S
O123 Tb120 2.453 . S
O123 C139 1.245 . S
O124 Tb120 2.596 . S
O124 Tb122 2.343 . S
O124 C139 1.259 . S
O125 Tb120 2.374 . S
O125 C121 1.251 . S
C126 O130 1.275 . S
C126 O131 1.246 . S
O127 C121 1.263 . S
O127 Tb122 2.353 . S
C128 O132 1.245 . S
C128 O133 1.259 . S
C129 O134 1.250 . S
C129 O135 1.263 . S
O130 Tb122 2.427 . S
O130 C126 1.275 . S
O131 Tb122 2.513 . S
O131 C126 1.246 . S
O132 Tb122 2.453 . S
O132 C128 1.245 . S
O133 Tb120 2.343 . S
O133 Tb122 2.596 . S
O133 C128 1.259 . S
O134 Tb122 2.374 . S
O134 C129 1.250 . S
O135 Tb120 2.353 . S
O135 C129 1.263 . S
C136 O137 1.275 . S
C136 O138 1.246 . S
O137 Tb120 2.427 . S
O137 C136 1.275 . S
O138 Tb120 2.513 . S
O138 C136 1.246 . S
C139 O123 1.245 . S
C139 O124 1.259 . S
Tb140 O143 2.453 . S
Tb140 O144 2.596 . S
Tb140 O145 2.374 . S
Tb140 O153 2.343 . S
Tb140 O155 2.353 . S
Tb140 O157 2.427 . S
Tb140 O158 2.513 . S
C141 O145 1.251 . S
C141 O147 1.263 . S
Tb142 O144 2.343 . S
Tb142 O147 2.353 . S
Tb142 O150 2.427 . S
Tb142 O151 2.513 . S
Tb142 O152 2.453 . S
Tb142 O153 2.596 . S
Tb142 O154 2.374 . S
O143 Tb140 2.453 . S
O143 C159 1.245 . S
O144 Tb140 2.596 . S
O144 Tb142 2.343 . S
O144 C159 1.259 . S
O145 Tb140 2.374 . S
O145 C141 1.251 . S
C146 O150 1.275 . S
C146 O151 1.246 . S
O147 C141 1.263 . S
O147 Tb142 2.353 . S
C148 O152 1.245 . S
C148 O153 1.259 . S
C149 O154 1.250 . S
C149 O155 1.263 . S
O150 Tb142 2.427 . S
O150 C146 1.275 . S
O151 Tb142 2.513 . S
O151 C146 1.246 . S
O152 Tb142 2.453 . S
O152 C148 1.245 . S
O153 Tb140 2.343 . S
O153 Tb142 2.596 . S
O153 C148 1.259 . S
O154 Tb142 2.374 . S
O154 C149 1.250 . S
O155 Tb140 2.353 . S
O155 C149 1.263 . S
C156 O157 1.275 . S
C156 O158 1.246 . S
O157 Tb140 2.427 . S
O157 C156 1.275 . S
O158 Tb140 2.513 . S
O158 C156 1.246 . S
C159 O143 1.245 . S
C159 O144 1.259 . S
Tb160 O163 2.453 1_556 S
Tb160 O164 2.596 . S
Tb160 O165 2.374 . S
Tb160 O173 2.343 . S
Tb160 O175 2.353 . S
Tb160 O177 2.427 . S
Tb160 O178 2.513 . S
C161 O165 1.251 . S
C161 O167 1.263 . S
Tb162 O164 2.343 . S
Tb162 O167 2.353 . S
Tb162 O170 2.427 . S
Tb162 O171 2.513 . S
Tb162 O172 2.453 . S
Tb162 O173 2.596 . S
Tb162 O174 2.374 . S
O163 Tb160 2.453 1_554 S
O163 C179 1.245 . S
O164 Tb160 2.596 . S
O164 Tb162 2.343 . S
O164 C179 1.259 1_556 S
O165 Tb160 2.374 . S
O165 C161 1.251 . S
C166 O170 1.275 . S
C166 O171 1.246 . S
O167 C161 1.263 . S
O167 Tb162 2.353 . S
C168 O172 1.245 . S
C168 O173 1.259 . S
C169 O174 1.250 . S
C169 O175 1.263 . S
O170 Tb162 2.427 . S
O170 C166 1.275 . S
O171 Tb162 2.513 . S
O171 C166 1.246 . S
O172 Tb162 2.453 . S
O172 C168 1.245 . S
O173 Tb160 2.343 . S
O173 Tb162 2.596 . S
O173 C168 1.259 . S
O174 Tb162 2.374 . S
O174 C169 1.250 . S
O175 Tb160 2.353 . S
O175 C169 1.263 . S
C176 O177 1.275 . S
C176 O178 1.246 . S
O177 Tb160 2.427 . S
O177 C176 1.275 . S
O178 Tb160 2.513 . S
O178 C176 1.246 . S
C179 O163 1.245 . S
C179 O164 1.259 1_554 S
Tb180 O183 2.453 . S
Tb180 O184 2.596 . S
Tb180 O185 2.374 . S
Tb180 O193 2.343 . S
Tb180 O195 2.353 . S
Tb180 O197 2.427 . S
Tb180 O198 2.513 . S
C181 O185 1.251 . S
C181 O187 1.263 . S
Tb182 O184 2.343 . S
Tb182 O187 2.353 . S
Tb182 O190 2.427 . S
Tb182 O191 2.513 . S
Tb182 O192 2.453 . S
Tb182 O193 2.596 . S
Tb182 O194 2.374 . S
O183 Tb180 2.453 . S
O183 C199 1.245 . S
O184 Tb180 2.596 . S
O184 Tb182 2.343 . S
O184 C199 1.259 . S
O185 Tb180 2.374 . S
O185 C181 1.251 . S
C186 O190 1.275 . S
C186 O191 1.246 . S
O187 C181 1.263 . S
O187 Tb182 2.353 . S
C188 O192 1.245 . S
C188 O193 1.259 . S
C189 O194 1.250 . S
C189 O195 1.263 . S
O190 Tb182 2.427 . S
O190 C186 1.275 . S
O191 Tb182 2.513 . S
O191 C186 1.246 . S
O192 Tb182 2.453 . S
O192 C188 1.245 . S
O193 Tb180 2.343 . S
O193 Tb182 2.596 . S
O193 C188 1.259 . S
O194 Tb182 2.374 . S
O194 C189 1.250 . S
O195 Tb180 2.353 . S
O195 C189 1.263 . S
C196 O197 1.275 . S
C196 O198 1.246 . S
O197 Tb180 2.427 . S
O197 C196 1.275 . S
O198 Tb180 2.513 . S
O198 C196 1.246 . S
C199 O183 1.245 . S
C199 O184 1.259 . S
Tb200 O203 2.453 . S
Tb200 O204 2.596 . S
Tb200 O205 2.374 . S
Tb200 O213 2.343 . S
Tb200 O215 2.353 . S
Tb200 O217 2.427 . S
Tb200 O218 2.513 . S
C201 O205 1.251 . S
C201 O207 1.263 . S
Tb202 O204 2.343 . S
Tb202 O207 2.353 . S
Tb202 O210 2.427 . S
Tb202 O211 2.513 . S
Tb202 O212 2.453 . S
Tb202 O213 2.596 . S
Tb202 O214 2.374 . S
O203 Tb200 2.453 . S
O203 C219 1.245 . S
O204 Tb200 2.596 . S
O204 Tb202 2.343 . S
O204 C219 1.259 . S
O205 Tb200 2.374 . S
O205 C201 1.251 . S
C206 O210 1.275 . S
C206 O211 1.246 . S
O207 C201 1.263 . S
O207 Tb202 2.353 . S
C208 O212 1.245 . S
C208 O213 1.259 . S
C209 O214 1.250 . S
C209 O215 1.263 . S
O210 Tb202 2.427 . S
O210 C206 1.275 . S
O211 Tb202 2.513 . S
O211 C206 1.246 . S
O212 Tb202 2.453 . S
O212 C208 1.245 . S
O213 Tb200 2.343 . S
O213 Tb202 2.596 . S
O213 C208 1.259 . S
O214 Tb202 2.374 . S
O214 C209 1.250 . S
O215 Tb200 2.353 . S
O215 C209 1.263 . S
C216 O217 1.275 . S
C216 O218 1.246 . S
O217 Tb200 2.427 . S
O217 C216 1.275 . S
O218 Tb200 2.513 . S
O218 C216 1.246 . S
C219 O203 1.245 . S
C219 O204 1.259 . S
Tb220 O223 2.453 . S
Tb220 O224 2.596 . S
Tb220 O225 2.374 . S
Tb220 O233 2.343 . S
Tb220 O235 2.353 . S
Tb220 O237 2.427 . S
Tb220 O238 2.513 . S
C221 O225 1.251 . S
C221 O227 1.263 . S
Tb222 O224 2.343 . S
Tb222 O227 2.353 . S
Tb222 O230 2.427 . S
Tb222 O231 2.513 . S
Tb222 O232 2.453 1_554 S
Tb222 O233 2.596 . S
Tb222 O234 2.374 . S
O223 Tb220 2.453 . S
O223 C239 1.245 . S
O224 Tb220 2.596 . S
O224 Tb222 2.343 . S
O224 C239 1.259 . S
O225 Tb220 2.374 . S
O225 C221 1.251 . S
C226 O230 1.275 . S
C226 O231 1.246 . S
O227 C221 1.263 . S
O227 Tb222 2.353 . S
C228 O232 1.245 . S
C228 O233 1.259 1_556 S
C229 O234 1.250 . S
C229 O235 1.263 . S
O230 Tb222 2.427 . S
O230 C226 1.275 . S
O231 Tb222 2.513 . S
O231 C226 1.246 . S
O232 Tb222 2.453 1_556 S
O232 C228 1.245 . S
O233 Tb220 2.343 . S
O233 Tb222 2.596 . S
O233 C228 1.259 1_554 S
O234 Tb222 2.374 . S
O234 C229 1.250 . S
O235 Tb220 2.353 . S
O235 C229 1.263 . S
C236 O237 1.275 . S
C236 O238 1.246 . S
O237 Tb220 2.427 . S
O237 C236 1.275 . S
O238 Tb220 2.513 . S
O238 C236 1.246 . S
C239 O223 1.245 . S
C239 O224 1.259 . S
Tb240 O243 2.453 . S
Tb240 O244 2.596 . S
Tb240 O245 2.374 . S
Tb240 O253 2.343 1_556 S
Tb240 O255 2.353 1_556 S
Tb240 O257 2.427 1_556 S
Tb240 O258 2.513 1_556 S
C241 O245 1.251 . S
C241 O247 1.263 1_556 S
Tb242 O244 2.343 1_554 S
Tb242 O247 2.353 . S
Tb242 O250 2.427 1_554 S
Tb242 O251 2.513 1_554 S
Tb242 O252 2.453 . S
Tb242 O253 2.596 . S
Tb242 O254 2.374 . S
O243 Tb240 2.453 . S
O243 C259 1.245 . S
O244 Tb240 2.596 . S
O244 Tb242 2.343 1_556 S
O244 C259 1.259 . S
O245 Tb240 2.374 . S
O245 C241 1.251 . S
C246 O250 1.275 . S
C246 O251 1.246 . S
O247 C241 1.263 1_554 S
O247 Tb242 2.353 . S
C248 O252 1.245 . S
C248 O253 1.259 . S
C249 O254 1.250 . S
C249 O255 1.263 . S
O250 Tb242 2.427 1_556 S
O250 C246 1.275 . S
O251 Tb242 2.513 1_556 S
O251 C246 1.246 . S
O252 Tb242 2.453 . S
O252 C248 1.245 . S
O253 Tb240 2.343 1_554 S
O253 Tb242 2.596 . S
O253 C248 1.259 . S
O254 Tb242 2.374 . S
O254 C249 1.250 . S
O255 Tb240 2.353 1_554 S
O255 C249 1.263 . S
C256 O257 1.275 . S
C256 O258 1.246 . S
O257 Tb240 2.427 1_554 S
O257 C256 1.275 . S
O258 Tb240 2.513 1_554 S
O258 C256 1.246 . S
C259 O243 1.245 . S
C259 O244 1.259 . S
Tb260 O263 2.453 . S
Tb260 O264 2.596 . S
Tb260 O265 2.374 . S
Tb260 O273 2.343 . S
Tb260 O275 2.353 . S
Tb260 O277 2.427 . S
Tb260 O278 2.513 . S
C261 O265 1.251 . S
C261 O267 1.263 . S
Tb262 O264 2.343 . S
Tb262 O267 2.353 . S
Tb262 O270 2.427 . S
Tb262 O271 2.513 . S
Tb262 O272 2.453 1_556 S
Tb262 O273 2.596 . S
Tb262 O274 2.374 . S
O263 Tb260 2.453 . S
O263 C279 1.245 . S
O264 Tb260 2.596 . S
O264 Tb262 2.343 . S
O264 C279 1.259 . S
O265 Tb260 2.374 . S
O265 C261 1.251 . S
C266 O270 1.275 . S
C266 O271 1.246 . S
O267 C261 1.263 . S
O267 Tb262 2.353 . S
C268 O272 1.245 . S
C268 O273 1.259 1_554 S
C269 O274 1.250 . S
C269 O275 1.263 . S
O270 Tb262 2.427 . S
O270 C266 1.275 . S
O271 Tb262 2.513 . S
O271 C266 1.246 . S
O272 Tb262 2.453 1_554 S
O272 C268 1.245 . S
O273 Tb260 2.343 . S
O273 Tb262 2.596 . S
O273 C268 1.259 1_556 S
O274 Tb262 2.374 . S
O274 C269 1.250 . S
O275 Tb260 2.353 . S
O275 C269 1.263 . S
C276 O277 1.275 . S
C276 O278 1.246 . S
O277 Tb260 2.427 . S
O277 C276 1.275 . S
O278 Tb260 2.513 . S
O278 C276 1.246 . S
C279 O263 1.245 . S
C279 O264 1.259 . S
Tb280 O283 2.453 . S
Tb280 O284 2.596 . S
Tb280 O285 2.374 . S
Tb280 O293 2.343 . S
Tb280 O295 2.353 . S
Tb280 O297 2.427 . S
Tb280 O298 2.513 . S
C281 O285 1.251 . S
C281 O287 1.263 . S
Tb282 O284 2.343 . S
Tb282 O287 2.353 . S
Tb282 O290 2.427 . S
Tb282 O291 2.513 . S
Tb282 O292 2.453 . S
Tb282 O293 2.596 . S
Tb282 O294 2.374 . S
O283 Tb280 2.453 . S
O283 C299 1.245 . S
O284 Tb280 2.596 . S
O284 Tb282 2.343 . S
O284 C299 1.259 . S
O285 Tb280 2.374 . S
O285 C281 1.251 . S
C286 O290 1.275 . S
C286 O291 1.246 . S
O287 C281 1.263 . S
O287 Tb282 2.353 . S
C288 O292 1.245 . S
C288 O293 1.259 . S
C289 O294 1.250 . S
C289 O295 1.263 . S
O290 Tb282 2.427 . S
O290 C286 1.275 . S
O291 Tb282 2.513 . S
O291 C286 1.246 . S
O292 Tb282 2.453 . S
O292 C288 1.245 . S
O293 Tb280 2.343 . S
O293 Tb282 2.596 . S
O293 C288 1.259 . S
O294 Tb282 2.374 . S
O294 C289 1.250 . S
O295 Tb280 2.353 . S
O295 C289 1.263 . S
C296 O297 1.275 . S
C296 O298 1.246 . S
O297 Tb280 2.427 . S
O297 C296 1.275 . S
O298 Tb280 2.513 . S
O298 C296 1.246 . S
C299 O283 1.245 . S
C299 O284 1.259 . S
Tb300 O303 2.453 . S
Tb300 O304 2.596 . S
Tb300 O305 2.374 . S
Tb300 O313 2.343 . S
Tb300 O315 2.353 . S
Tb300 O317 2.427 . S
Tb300 O318 2.513 . S
C301 O305 1.251 . S
C301 O307 1.263 . S
Tb302 O304 2.343 . S
Tb302 O307 2.353 . S
Tb302 O310 2.427 . S
Tb302 O311 2.513 . S
Tb302 O312 2.453 . S
Tb302 O313 2.596 . S
Tb302 O314 2.374 . S
O303 Tb300 2.453 . S
O303 C319 1.245 . S
O304 Tb300 2.596 . S
O304 Tb302 2.343 . S
O304 C319 1.259 . S
O305 Tb300 2.374 . S
O305 C301 1.251 . S
C306 O310 1.275 . S
C306 O311 1.246 . S
O307 C301 1.263 . S
O307 Tb302 2.353 . S
C308 O312 1.245 . S
C308 O313 1.259 . S
C309 O314 1.250 . S
C309 O315 1.263 . S
O310 Tb302 2.427 . S
O310 C306 1.275 . S
O311 Tb302 2.513 . S
O311 C306 1.246 . S
O312 Tb302 2.453 . S
O312 C308 1.245 . S
O313 Tb300 2.343 . S
O313 Tb302 2.596 . S
O313 C308 1.259 . S
O314 Tb302 2.374 . S
O314 C309 1.250 . S
O315 Tb300 2.353 . S
O315 C309 1.263 . S
C316 O317 1.275 . S
C316 O318 1.246 . S
O317 Tb300 2.427 . S
O317 C316 1.275 . S
O318 Tb300 2.513 . S
O318 C316 1.246 . S
C319 O303 1.245 . S
C319 O304 1.259 . S
H320 C326 0.930 . S
H321 C330 0.930 . S
H322 C335 0.929 . S
H323 C333 0.929 . S
H324 C328 0.929 . S
H325 C334 0.929 . S
C326 H320 0.930 . S
C326 C327 1.367 . S
C326 C334 1.378 . S
C327 C326 1.367 . S
C327 C335 1.433 . S
C328 H324 0.929 . S
C328 C330 1.378 . S
C328 C332 1.350 . S
C329 C332 1.463 . S
C329 C334 1.350 . S
C329 N337 1.427 . S
C330 H321 0.930 . S
C330 C328 1.378 . S
C330 C331 1.367 . S
C331 C330 1.367 . S
C331 C333 1.433 . S
C332 C328 1.350 . S
C332 C329 1.463 . S
C332 N336 1.427 . S
C333 H323 0.929 . S
C333 C331 1.433 . S
C333 N336 1.384 . S
C334 H325 0.929 . S
C334 C326 1.378 . S
C334 C329 1.350 . S
C335 H322 0.929 . S
C335 C327 1.433 . S
C335 N337 1.384 . S
N336 C332 1.427 . S
N336 C333 1.384 . S
N337 C329 1.427 . S
N337 C335 1.384 . S
H338 C344 0.930 . S
H339 C348 0.930 . S
H340 C353 0.929 . S
H341 C351 0.929 . S
H342 C346 0.929 . S
H343 C352 0.929 1_556 S
C344 H338 0.930 . S
C344 C345 1.367 . S
C344 C352 1.378 . S
C345 C344 1.367 . S
C345 C353 1.433 . S
C346 H342 0.929 . S
C346 C348 1.378 . S
C346 C350 1.350 . S
C347 C350 1.463 . S
C347 C352 1.350 1_556 S
C347 N355 1.427 1_556 S
C348 H339 0.930 . S
C348 C346 1.378 . S
C348 C349 1.367 . S
C349 C348 1.367 . S
C349 C351 1.433 . S
C350 C346 1.350 . S
C350 C347 1.463 . S
C350 N354 1.427 . S
C351 H341 0.929 . S
C351 C349 1.433 . S
C351 N354 1.384 . S
C352 H343 0.929 1_554 S
C352 C344 1.378 . S
C352 C347 1.350 1_554 S
C353 H340 0.929 . S
C353 C345 1.433 . S
C353 N355 1.384 . S
N354 C350 1.427 . S
N354 C351 1.384 . S
N355 C347 1.427 1_554 S
N355 C353 1.384 . S
H356 C362 0.930 . S
H357 C366 0.930 . S
H358 C371 0.929 . S
H359 C369 0.929 . S
H360 C364 0.929 . S
H361 C370 0.929 . S
C362 H356 0.930 . S
C362 C363 1.367 . S
C362 C370 1.378 . S
C363 C362 1.367 . S
C363 C371 1.433 . S
C364 H360 0.929 . S
C364 C366 1.378 1_554 S
C364 C368 1.350 . S
C365 C368 1.463 . S
C365 C370 1.350 . S
C365 N373 1.427 . S
C366 H357 0.930 . S
C366 C364 1.378 1_556 S
C366 C367 1.367 . S
C367 C366 1.367 . S
C367 C369 1.433 . S
C368 C364 1.350 . S
C368 C365 1.463 . S
C368 N372 1.427 . S
C369 H359 0.929 . S
C369 C367 1.433 . S
C369 N372 1.384 1_556 S
C370 H361 0.929 . S
C370 C362 1.378 . S
C370 C365 1.350 . S
C371 H358 0.929 . S
C371 C363 1.433 . S
C371 N373 1.384 . S
N372 C368 1.427 . S
N372 C369 1.384 1_554 S
N373 C365 1.427 . S
N373 C371 1.384 . S
H374 C380 0.930 . S
H375 C384 0.930 . S
H376 C389 0.929 . S
H377 C387 0.929 . S
H378 C382 0.929 . S
H379 C388 0.929 . S
C380 H374 0.930 . S
C380 C381 1.367 . S
C380 C388 1.378 . S
C381 C380 1.367 . S
C381 C389 1.433 . S
C382 H378 0.929 . S
C382 C384 1.378 . S
C382 C386 1.350 . S
C383 C386 1.463 . S
C383 C388 1.350 . S
C383 N391 1.427 . S
C384 H375 0.930 . S
C384 C382 1.378 . S
C384 C385 1.367 . S
C385 C384 1.367 . S
C385 C387 1.433 . S
C386 C382 1.350 . S
C386 C383 1.463 . S
C386 N390 1.427 . S
C387 H377 0.929 . S
C387 C385 1.433 . S
C387 N390 1.384 . S
C388 H379 0.929 . S
C388 C380 1.378 . S
C388 C383 1.350 . S
C389 H376 0.929 . S
C389 C381 1.433 . S
C389 N391 1.384 . S
N390 C386 1.427 . S
N390 C387 1.384 . S
N391 C383 1.427 . S
N391 C389 1.384 . S
H392 C398 0.930 . S
H393 C402 0.930 . S
H394 C407 0.929 . S
H395 C405 0.929 . S
H396 C400 0.929 . S
H397 C406 0.929 . S
C398 H392 0.930 . S
C398 C399 1.367 . S
C398 C406 1.378 . S
C399 C398 1.367 . S
C399 C407 1.433 . S
C400 H396 0.929 . S
C400 C402 1.378 . S
C400 C404 1.350 . S
C401 C404 1.463 . S
C401 C406 1.350 . S
C401 N409 1.427 . S
C402 H393 0.930 . S
C402 C400 1.378 . S
C402 C403 1.367 . S
C403 C402 1.367 . S
C403 C405 1.433 . S
C404 C400 1.350 . S
C404 C401 1.463 . S
C404 N408 1.427 . S
C405 H395 0.929 . S
C405 C403 1.433 . S
C405 N408 1.384 . S
C406 H397 0.929 . S
C406 C398 1.378 . S
C406 C401 1.350 . S
C407 H394 0.929 . S
C407 C399 1.433 . S
C407 N409 1.384 . S
N408 C404 1.427 . S
N408 C405 1.384 . S
N409 C401 1.427 . S
N409 C407 1.384 . S
H410 C416 0.930 . S
H411 C420 0.930 . S
H412 C425 0.929 . S
H413 C423 0.929 . S
H414 C418 0.929 . S
H415 C424 0.929 . S
C416 H410 0.930 . S
C416 C417 1.367 . S
C416 C424 1.378 . S
C417 C416 1.367 . S
C417 C425 1.433 . S
C418 H414 0.929 . S
C418 C420 1.378 . S
C418 C422 1.350 . S
C419 C422 1.463 . S
C419 C424 1.350 . S
C419 N427 1.427 . S
C420 H411 0.930 . S
C420 C418 1.378 . S
C420 C421 1.367 . S
C421 C420 1.367 . S
C421 C423 1.433 . S
C422 C418 1.350 . S
C422 C419 1.463 . S
C422 N426 1.427 . S
C423 H413 0.929 . S
C423 C421 1.433 . S
C423 N426 1.384 . S
C424 H415 0.929 . S
C424 C416 1.378 . S
C424 C419 1.350 . S
C425 H412 0.929 . S
C425 C417 1.433 . S
C425 N427 1.384 . S
N426 C422 1.427 . S
N426 C423 1.384 . S
N427 C419 1.427 . S
N427 C425 1.384 . S
H428 C434 0.930 . S
H429 C438 0.930 . S
H430 C443 0.929 . S
H431 C441 0.929 . S
H432 C436 0.929 . S
H433 C442 0.929 . S
C434 H428 0.930 . S
C434 C435 1.367 . S
C434 C442 1.378 . S
C435 C434 1.367 . S
C435 C443 1.433 . S
C436 H432 0.929 . S
C436 C438 1.378 1_556 S
C436 C440 1.350 . S
C437 C440 1.463 . S
C437 C442 1.350 . S
C437 N445 1.427 . S
C438 H429 0.930 . S
C438 C436 1.378 1_554 S
C438 C439 1.367 . S
C439 C438 1.367 . S
C439 C441 1.433 . S
C440 C436 1.350 . S
C440 C437 1.463 . S
C440 N444 1.427 1_556 S
C441 H431 0.929 . S
C441 C439 1.433 . S
C441 N444 1.384 . S
C442 H433 0.929 . S
C442 C434 1.378 . S
C442 C437 1.350 . S
C443 H430 0.929 . S
C443 C435 1.433 . S
C443 N445 1.384 . S
N444 C440 1.427 1_554 S
N444 C441 1.384 . S
N445 C437 1.427 . S
N445 C443 1.384 . S
H446 C452 0.930 . S
H447 C456 0.930 . S
H448 C461 0.929 . S
H449 C459 0.929 . S
H450 C454 0.929 . S
H451 C460 0.929 . S
C452 H446 0.930 . S
C452 C453 1.367 . S
C452 C460 1.378 1_556 S
C453 C452 1.367 . S
C453 C461 1.433 . S
C454 H450 0.929 . S
C454 C456 1.378 . S
C454 C458 1.350 . S
C455 C458 1.463 . S
C455 C460 1.350 . S
C455 N463 1.427 . S
C456 H447 0.930 . S
C456 C454 1.378 . S
C456 C457 1.367 . S
C457 C456 1.367 . S
C457 C459 1.433 . S
C458 C454 1.350 . S
C458 C455 1.463 . S
C458 N462 1.427 . S
C459 H449 0.929 . S
C459 C457 1.433 . S
C459 N462 1.384 . S
C460 H451 0.929 . S
C460 C452 1.378 1_554 S
C460 C455 1.350 . S
C461 H448 0.929 . S
C461 C453 1.433 . S
C461 N463 1.384 1_556 S
N462 C458 1.427 . S
N462 C459 1.384 . S
N463 C455 1.427 . S
N463 C461 1.384 1_554 S
H464 C470 0.930 . S
H465 C474 0.930 . S
H466 C479 0.929 . S
H467 C477 0.929 . S
H468 C472 0.929 . S
H469 C478 0.929 . S
C470 H464 0.930 . S
C470 C471 1.367 . S
C470 C478 1.378 . S
C471 C470 1.367 . S
C471 C479 1.433 . S
C472 H468 0.929 . S
C472 C474 1.378 . S
C472 C476 1.350 . S
C473 C476 1.463 . S
C473 C478 1.350 . S
C473 N481 1.427 . S
C474 H465 0.930 . S
C474 C472 1.378 . S
C474 C475 1.367 . S
C475 C474 1.367 . S
C475 C477 1.433 . S
C476 C472 1.350 . S
C476 C473 1.463 . S
C476 N480 1.427 . S
C477 H467 0.929 . S
C477 C475 1.433 . S
C477 N480 1.384 . S
C478 H469 0.929 . S
C478 C470 1.378 . S
C478 C473 1.350 . S
C479 H466 0.929 . S
C479 C471 1.433 . S
C479 N481 1.384 . S
N480 C476 1.427 . S
N480 C477 1.384 . S
N481 C473 1.427 . S
N481 C479 1.384 . S
H482 C488 0.930 . S
H483 C492 0.930 . S
H484 C497 0.929 . S
H485 C495 0.929 . S
H486 C490 0.929 . S
H487 C496 0.929 . S
C488 H482 0.930 . S
C488 C489 1.367 . S
C488 C496 1.378 . S
C489 C488 1.367 . S
C489 C497 1.433 . S
C490 H486 0.929 . S
C490 C492 1.378 1_554 S
C490 C494 1.350 . S
C491 C494 1.463 . S
C491 C496 1.350 . S
C491 N499 1.427 . S
C492 H483 0.930 . S
C492 C490 1.378 1_556 S
C492 C493 1.367 . S
C493 C492 1.367 . S
C493 C495 1.433 . S
C494 C490 1.350 . S
C494 C491 1.463 . S
C494 N498 1.427 . S
C495 H485 0.929 . S
C495 C493 1.433 . S
C495 N498 1.384 1_556 S
C496 H487 0.929 . S
C496 C488 1.378 . S
C496 C491 1.350 . S
C497 H484 0.929 . S
C497 C489 1.433 . S
C497 N499 1.384 . S
N498 C494 1.427 . S
N498 C495 1.384 1_554 S
N499 C491 1.427 . S
N499 C497 1.384 . S
H500 C506 0.930 . S
H501 C510 0.930 . S
H502 C515 0.929 . S
H503 C513 0.929 . S
H504 C508 0.929 . S
H505 C514 0.929 . S
C506 H500 0.930 . S
C506 C507 1.367 . S
C506 C514 1.378 1_554 S
C507 C506 1.367 . S
C507 C515 1.433 . S
C508 H504 0.929 . S
C508 C510 1.378 . S
C508 C512 1.350 . S
C509 C512 1.463 . S
C509 C514 1.350 . S
C509 N517 1.427 . S
C510 H501 0.930 . S
C510 C508 1.378 . S
C510 C511 1.367 . S
C511 C510 1.367 . S
C511 C513 1.433 . S
C512 C508 1.350 . S
C512 C509 1.463 . S
C512 N516 1.427 . S
C513 H503 0.929 . S
C513 C511 1.433 . S
C513 N516 1.384 . S
C514 H505 0.929 . S
C514 C506 1.378 1_556 S
C514 C509 1.350 . S
C515 H502 0.929 . S
C515 C507 1.433 . S
C515 N517 1.384 1_554 S
N516 C512 1.427 . S
N516 C513 1.384 . S
N517 C509 1.427 . S
N517 C515 1.384 1_556 S
H518 C524 0.930 . S
H519 C528 0.930 . S
H520 C533 0.929 . S
H521 C531 0.929 . S
H522 C526 0.929 . S
H523 C532 0.929 . S
C524 H518 0.930 . S
C524 C525 1.367 . S
C524 C532 1.378 . S
C525 C524 1.367 . S
C525 C533 1.433 . S
C526 H522 0.929 . S
C526 C528 1.378 . S
C526 C530 1.350 . S
C527 C530 1.463 . S
C527 C532 1.350 . S
C527 N535 1.427 . S
C528 H519 0.930 . S
C528 C526 1.378 . S
C528 C529 1.367 . S
C529 C528 1.367 . S
C529 C531 1.433 . S
C530 C526 1.350 . S
C530 C527 1.463 . S
C530 N534 1.427 . S
C531 H521 0.929 . S
C531 C529 1.433 . S
C531 N534 1.384 . S
C532 H523 0.929 . S
C532 C524 1.378 . S
C532 C527 1.350 . S
C533 H520 0.929 . S
C533 C525 1.433 . S
C533 N535 1.384 . S
N534 C530 1.427 . S
N534 C531 1.384 . S
N535 C527 1.427 . S
N535 C533 1.384 . S
H536 C542 0.930 . S
H537 C546 0.930 . S
H538 C551 0.929 . S
H539 C549 0.929 . S
H540 C544 0.929 . S
H541 C550 0.929 . S
C542 H536 0.930 . S
C542 C543 1.367 . S
C542 C550 1.378 . S
C543 C542 1.367 . S
C543 C551 1.433 . S
C544 H540 0.929 . S
C544 C546 1.378 . S
C544 C548 1.350 . S
C545 C548 1.463 . S
C545 C550 1.350 . S
C545 N553 1.427 . S
C546 H537 0.930 . S
C546 C544 1.378 . S
C546 C547 1.367 . S
C547 C546 1.367 . S
C547 C549 1.433 . S
C548 C544 1.350 . S
C548 C545 1.463 . S
C548 N552 1.427 . S
C549 H539 0.929 . S
C549 C547 1.433 . S
C549 N552 1.384 . S
C550 H541 0.929 . S
C550 C542 1.378 . S
C550 C545 1.350 . S
C551 H538 0.929 . S
C551 C543 1.433 . S
C551 N553 1.384 . S
N552 C548 1.427 . S
N552 C549 1.384 . S
N553 C545 1.427 . S
N553 C551 1.384 . S
H554 C560 0.930 . S
H555 C564 0.930 . S
H556 C569 0.929 . S
H557 C567 0.929 . S
H558 C562 0.929 . S
H559 C568 0.929 . S
C560 H554 0.930 . S
C560 C561 1.367 . S
C560 C568 1.378 . S
C561 C560 1.367 . S
C561 C569 1.433 . S
C562 H558 0.929 . S
C562 C564 1.378 . S
C562 C566 1.350 . S
C563 C566 1.463 . S
C563 C568 1.350 . S
C563 N571 1.427 . S
C564 H555 0.930 . S
C564 C562 1.378 . S
C564 C565 1.367 . S
C565 C564 1.367 . S
C565 C567 1.433 . S
C566 C562 1.350 . S
C566 C563 1.463 . S
C566 N570 1.427 . S
C567 H557 0.929 . S
C567 C565 1.433 . S
C567 N570 1.384 . S
C568 H559 0.929 . S
C568 C560 1.378 . S
C568 C563 1.350 . S
C569 H556 0.929 . S
C569 C561 1.433 . S
C569 N571 1.384 . S
N570 C566 1.427 . S
N570 C567 1.384 . S
N571 C563 1.427 . S
N571 C569 1.384 . S
H572 C578 0.930 . S
H573 C582 0.930 . S
H574 C587 0.929 . S
H575 C585 0.929 . S
H576 C580 0.929 . S
H577 C586 0.929 . S
C578 H572 0.930 . S
C578 C579 1.367 . S
C578 C586 1.378 . S
C579 C578 1.367 . S
C579 C587 1.433 . S
C580 H576 0.929 . S
C580 C582 1.378 . S
C580 C584 1.350 . S
C581 C584 1.463 1_554 S
C581 C586 1.350 . S
C581 N589 1.427 . S
C582 H573 0.930 . S
C582 C580 1.378 . S
C582 C583 1.367 . S
C583 C582 1.367 . S
C583 C585 1.433 . S
C584 C580 1.350 . S
C584 C581 1.463 1_556 S
C584 N588 1.427 . S
C585 H575 0.929 . S
C585 C583 1.433 . S
C585 N588 1.384 . S
C586 H577 0.929 . S
C586 C578 1.378 . S
C586 C581 1.350 . S
C587 H574 0.929 . S
C587 C579 1.433 . S
C587 N589 1.384 . S
N588 C584 1.427 . S
N588 C585 1.384 . S
N589 C581 1.427 . S
N589 C587 1.384 . S
H590 C596 0.930 . S
H591 C600 0.930 . S
H592 C605 0.929 . S
H593 C603 0.929 . S
H594 C598 0.929 . S
H595 C604 0.929 . S
C596 H590 0.930 . S
C596 C597 1.367 . S
C596 C604 1.378 1_554 S
C597 C596 1.367 . S
C597 C605 1.433 . S
C598 H594 0.929 . S
C598 C600 1.378 . S
C598 C602 1.350 . S
C599 C602 1.463 . S
C599 C604 1.350 . S
C599 N607 1.427 1_556 S
C600 H591 0.930 . S
C600 C598 1.378 . S
C600 C601 1.367 . S
C601 C600 1.367 . S
C601 C603 1.433 . S
C602 C598 1.350 . S
C602 C599 1.463 . S
C602 N606 1.427 . S
C603 H593 0.929 . S
C603 C601 1.433 . S
C603 N606 1.384 . S
C604 H595 0.929 . S
C604 C596 1.378 1_556 S
C604 C599 1.350 . S
C605 H592 0.929 . S
C605 C597 1.433 . S
C605 N607 1.384 . S
N606 C602 1.427 . S
N606 C603 1.384 . S
N607 C599 1.427 1_554 S
N607 C605 1.384 . S
H608 C614 0.930 . S
H609 C618 0.930 . S
H610 C623 0.929 . S
H611 C621 0.929 . S
H612 C616 0.929 . S
H613 C622 0.929 . S
C614 H608 0.930 . S
C614 C615 1.367 . S
C614 C622 1.378 . S
C615 C614 1.367 . S
C615 C623 1.433 . S
C616 H612 0.929 . S
C616 C618 1.378 . S
C616 C620 1.350 . S
C617 C620 1.463 . S
C617 C622 1.350 . S
C617 N625 1.427 . S
C618 H609 0.930 . S
C618 C616 1.378 . S
C618 C619 1.367 . S
C619 C618 1.367 . S
C619 C621 1.433 . S
C620 C616 1.350 . S
C620 C617 1.463 . S
C620 N624 1.427 . S
C621 H611 0.929 . S
C621 C619 1.433 . S
C621 N624 1.384 . S
C622 H613 0.929 . S
C622 C614 1.378 . S
C622 C617 1.350 . S
C623 H610 0.929 . S
C623 C615 1.433 . S
C623 N625 1.384 . S
N624 C620 1.427 . S
N624 C621 1.384 . S
N625 C617 1.427 . S
N625 C623 1.384 . S
H626 C632 0.930 . S
H627 C636 0.930 . S
H628 C641 0.929 . S
H629 C639 0.929 . S
H630 C634 0.929 . S
H631 C640 0.929 . S
C632 H626 0.930 . S
C632 C633 1.367 . S
C632 C640 1.378 . S
C633 C632 1.367 . S
C633 C641 1.433 . S
C634 H630 0.929 . S
C634 C636 1.378 . S
C634 C638 1.350 . S
C635 C638 1.463 . S
C635 C640 1.350 . S
C635 N643 1.427 . S
C636 H627 0.930 . S
C636 C634 1.378 . S
C636 C637 1.367 . S
C637 C636 1.367 . S
C637 C639 1.433 . S
C638 C634 1.350 . S
C638 C635 1.463 . S
C638 N642 1.427 . S
C639 H629 0.929 . S
C639 C637 1.433 . S
C639 N642 1.384 . S
C640 H631 0.929 . S
C640 C632 1.378 . S
C640 C635 1.350 . S
C641 H628 0.929 . S
C641 C633 1.433 . S
C641 N643 1.384 . S
N642 C638 1.427 . S
N642 C639 1.384 . S
N643 C635 1.427 . S
N643 C641 1.384 . S
H644 C650 0.930 . S
H645 C654 0.930 . S
H646 C659 0.929 . S
H647 C657 0.929 . S
H648 C652 0.929 . S
H649 C658 0.929 . S
C650 H644 0.930 . S
C650 C651 1.367 . S
C650 C658 1.378 . S
C651 C650 1.367 . S
C651 C659 1.433 . S
C652 H648 0.929 . S
C652 C654 1.378 . S
C652 C656 1.350 . S
C653 C656 1.463 . S
C653 C658 1.350 . S
C653 N661 1.427 . S
C654 H645 0.930 . S
C654 C652 1.378 . S
C654 C655 1.367 . S
C655 C654 1.367 . S
C655 C657 1.433 . S
C656 C652 1.350 . S
C656 C653 1.463 . S
C656 N660 1.427 . S
C657 H647 0.929 . S
C657 C655 1.433 . S
C657 N660 1.384 . S
C658 H649 0.929 . S
C658 C650 1.378 . S
C658 C653 1.350 . S
C659 H646 0.929 . S
C659 C651 1.433 . S
C659 N661 1.384 . S
N660 C656 1.427 . S
N660 C657 1.384 . S
N661 C653 1.427 . S
N661 C659 1.384 . S
H662 C668 0.930 . S
H663 C672 0.930 1_554 S
H664 C677 0.929 . S
H665 C675 0.929 . S
H666 C670 0.929 1_554 S
H667 C676 0.929 . S
C668 H662 0.930 . S
C668 C669 1.367 . S
C668 C676 1.378 . S
C669 C668 1.367 . S
C669 C677 1.433 1_556 S
C670 H666 0.929 1_556 S
C670 C672 1.378 . S
C670 C674 1.350 . S
C671 C674 1.463 1_655 S
C671 C676 1.350 . S
C671 N679 1.427 1_556 S
C672 H663 0.930 1_556 S
C672 C670 1.378 . S
C672 C673 1.367 . S
C673 C672 1.367 . S
C673 C675 1.433 . S
C674 C670 1.350 . S
C674 C671 1.463 1_455 S
C674 N678 1.427 . S
C675 H665 0.929 . S
C675 C673 1.433 . S
C675 N678 1.384 . S
C676 H667 0.929 . S
C676 C668 1.378 . S
C676 C671 1.350 . S
C677 H664 0.929 . S
C677 C669 1.433 1_554 S
C677 N679 1.384 . S
N678 C674 1.427 . S
N678 C675 1.384 . S
N679 C671 1.427 1_554 S
N679 C677 1.384 . S
H680 C686 0.930 . S
H681 C690 0.930 . S
H682 C695 0.929 1_554 S
H683 C693 0.929 . S
H684 C688 0.929 . S
H685 C694 0.929 . S
C686 H680 0.930 . S
C686 C687 1.367 . S
C686 C694 1.378 . S
C687 C686 1.367 . S
C687 C695 1.433 . S
C688 H684 0.929 . S
C688 C690 1.378 . S
C688 C692 1.350 . S
C689 C692 1.463 . S
C689 C694 1.350 . S
C689 N697 1.427 . S
C690 H681 0.930 . S
C690 C688 1.378 . S
C690 C691 1.367 . S
C691 C690 1.367 . S
C691 C693 1.433 . S
C692 C688 1.350 . S
C692 C689 1.463 . S
C692 N696 1.427 . S
C693 H683 0.929 . S
C693 C691 1.433 . S
C693 N696 1.384 . S
C694 H685 0.929 . S
C694 C686 1.378 . S
C694 C689 1.350 . S
C695 H682 0.929 1_556 S
C695 C687 1.433 . S
C695 N697 1.384 . S
N696 C692 1.427 . S
N696 C693 1.384 . S
N697 C689 1.427 . S
N697 C695 1.384 . S
H698 C704 0.930 . S
H699 C708 0.930 . S
H700 C713 0.929 . S
H701 C711 0.929 1_556 S
H702 C706 0.929 1_455 S
H703 C712 0.929 . S
C704 H698 0.930 . S
C704 C705 1.367 . S
C704 C712 1.378 . S
C705 C704 1.367 . S
C705 C713 1.433 . S
C706 H702 0.929 1_655 S
C706 C708 1.378 . S
C706 C710 1.350 1_655 S
C707 C710 1.463 . S
C707 C712 1.350 . S
C707 N715 1.427 . S
C708 H699 0.930 . S
C708 C706 1.378 . S
C708 C709 1.367 . S
C709 C708 1.367 . S
C709 C711 1.433 . S
C710 C706 1.350 1_455 S
C710 C707 1.463 . S
C710 N714 1.427 1_455 S
C711 H701 0.929 1_554 S
C711 C709 1.433 . S
C711 N714 1.384 . S
C712 H703 0.929 . S
C712 C704 1.378 . S
C712 C707 1.350 . S
C713 H700 0.929 . S
C713 C705 1.433 . S
C713 N715 1.384 . S
N714 C710 1.427 1_655 S
N714 C711 1.384 . S
N715 C707 1.427 . S
N715 C713 1.384 . S
H716 C722 0.930 . S
H717 C726 0.930 . S
H718 C731 0.929 . S
H719 C729 0.929 . S
H720 C724 0.929 . S
H721 C730 0.929 . S
C722 H716 0.930 . S
C722 C723 1.367 . S
C722 C730 1.378 . S
C723 C722 1.367 . S
C723 C731 1.433 . S
C724 H720 0.929 . S
C724 C726 1.378 . S
C724 C728 1.350 . S
C725 C728 1.463 . S
C725 C730 1.350 . S
C725 N733 1.427 . S
C726 H717 0.930 . S
C726 C724 1.378 . S
C726 C727 1.367 . S
C727 C726 1.367 . S
C727 C729 1.433 . S
C728 C724 1.350 . S
C728 C725 1.463 . S
C728 N732 1.427 . S
C729 H719 0.929 . S
C729 C727 1.433 . S
C729 N732 1.384 . S
C730 H721 0.929 . S
C730 C722 1.378 . S
C730 C725 1.350 . S
C731 H718 0.929 . S
C731 C723 1.433 . S
C731 N733 1.384 . S
N732 C728 1.427 . S
N732 C729 1.384 . S
N733 C725 1.427 . S
N733 C731 1.384 . S
H734 C740 0.930 . S
H735 C744 0.930 . S
H736 C749 0.929 . S
H737 C747 0.929 . S
H738 C742 0.929 . S
H739 C748 0.929 . S
C740 H734 0.930 . S
C740 C741 1.367 . S
C740 C748 1.378 . S
C741 C740 1.367 . S
C741 C749 1.433 . S
C742 H738 0.929 . S
C742 C744 1.378 . S
C742 C746 1.350 . S
C743 C746 1.463 . S
C743 C748 1.350 . S
C743 N751 1.427 . S
C744 H735 0.930 . S
C744 C742 1.378 . S
C744 C745 1.367 . S
C745 C744 1.367 . S
C745 C747 1.433 . S
C746 C742 1.350 . S
C746 C743 1.463 . S
C746 N750 1.427 . S
C747 H737 0.929 . S
C747 C745 1.433 . S
C747 N750 1.384 . S
C748 H739 0.929 . S
C748 C740 1.378 . S
C748 C743 1.350 . S
C749 H736 0.929 . S
C749 C741 1.433 . S
C749 N751 1.384 . S
N750 C746 1.427 . S
N750 C747 1.384 . S
N751 C743 1.427 . S
N751 C749 1.384 . S
H752 C758 0.930 . S
H753 C762 0.930 . S
H754 C767 0.929 . S
H755 C765 0.929 . S
H756 C760 0.929 . S
H757 C766 0.929 . S
C758 H752 0.930 . S
C758 C759 1.367 . S
C758 C766 1.378 . S
C759 C758 1.367 . S
C759 C767 1.433 . S
C760 H756 0.929 . S
C760 C762 1.378 . S
C760 C764 1.350 . S
C761 C764 1.463 . S
C761 C766 1.350 . S
C761 N769 1.427 . S
C762 H753 0.930 . S
C762 C760 1.378 . S
C762 C763 1.367 . S
C763 C762 1.367 . S
C763 C765 1.433 . S
C764 C760 1.350 . S
C764 C761 1.463 . S
C764 N768 1.427 . S
C765 H755 0.929 . S
C765 C763 1.433 . S
C765 N768 1.384 . S
C766 H757 0.929 . S
C766 C758 1.378 . S
C766 C761 1.350 . S
C767 H754 0.929 . S
C767 C759 1.433 . S
C767 N769 1.384 . S
N768 C764 1.427 . S
N768 C765 1.384 . S
N769 C761 1.427 . S
N769 C767 1.384 . S
H770 C776 0.930 . S
H771 C780 0.930 . S
H772 C785 0.929 . S
H773 C783 0.929 . S
H774 C778 0.929 . S
H775 C784 0.929 . S
C776 H770 0.930 . S
C776 C777 1.367 . S
C776 C784 1.378 . S
C777 C776 1.367 . S
C777 C785 1.433 . S
C778 H774 0.929 . S
C778 C780 1.378 . S
C778 C782 1.350 . S
C779 C782 1.463 . S
C779 C784 1.350 . S
C779 N787 1.427 . S
C780 H771 0.930 . S
C780 C778 1.378 . S
C780 C781 1.367 . S
C781 C780 1.367 . S
C781 C783 1.433 . S
C782 C778 1.350 . S
C782 C779 1.463 . S
C782 N786 1.427 . S
C783 H773 0.929 . S
C783 C781 1.433 . S
C783 N786 1.384 . S
C784 H775 0.929 . S
C784 C776 1.378 . S
C784 C779 1.350 . S
C785 H772 0.929 . S
C785 C777 1.433 . S
C785 N787 1.384 . S
N786 C782 1.427 . S
N786 C783 1.384 . S
N787 C779 1.427 . S
N787 C785 1.384 . S
H788 C794 0.930 . S
H789 C798 0.930 . S
H790 C803 0.929 1_556 S
H791 C801 0.929 . S
H792 C796 0.929 . S
H793 C802 0.929 . S
C794 H788 0.930 . S
C794 C795 1.367 . S
C794 C802 1.378 . S
C795 C794 1.367 . S
C795 C803 1.433 . S
C796 H792 0.929 . S
C796 C798 1.378 . S
C796 C800 1.350 . S
C797 C800 1.463 . S
C797 C802 1.350 . S
C797 N805 1.427 . S
C798 H789 0.930 . S
C798 C796 1.378 . S
C798 C799 1.367 . S
C799 C798 1.367 . S
C799 C801 1.433 . S
C800 C796 1.350 . S
C800 C797 1.463 . S
C800 N804 1.427 . S
C801 H791 0.929 . S
C801 C799 1.433 . S
C801 N804 1.384 . S
C802 H793 0.929 . S
C802 C794 1.378 . S
C802 C797 1.350 . S
C803 H790 0.929 1_554 S
C803 C795 1.433 . S
C803 N805 1.384 . S
N804 C800 1.427 . S
N804 C801 1.384 . S
N805 C797 1.427 . S
N805 C803 1.384 . S
H806 C812 0.930 . S
H807 C816 0.930 . S
H808 C821 0.929 . S
H809 C819 0.929 . S
H810 C814 0.929 . S
H811 C820 0.929 . S
C812 H806 0.930 . S
C812 C813 1.367 . S
C812 C820 1.378 . S
C813 C812 1.367 . S
C813 C821 1.433 . S
C814 H810 0.929 . S
C814 C816 1.378 . S
C814 C818 1.350 . S
C815 C818 1.463 . S
C815 C820 1.350 . S
C815 N823 1.427 . S
C816 H807 0.930 . S
C816 C814 1.378 . S
C816 C817 1.367 . S
C817 C816 1.367 . S
C817 C819 1.433 . S
C818 C814 1.350 . S
C818 C815 1.463 . S
C818 N822 1.427 . S
C819 H809 0.929 . S
C819 C817 1.433 . S
C819 N822 1.384 . S
C820 H811 0.929 . S
C820 C812 1.378 . S
C820 C815 1.350 . S
C821 H808 0.929 . S
C821 C813 1.433 . S
C821 N823 1.384 . S
N822 C818 1.427 . S
N822 C819 1.384 . S
N823 C815 1.427 . S
N823 C821 1.384 . S
H824 C830 0.930 . S
H825 C834 0.930 1_556 S
H826 C839 0.929 . S
H827 C837 0.929 . S
H828 C832 0.929 . S
H829 C838 0.929 . S
C830 H824 0.930 . S
C830 C831 1.367 . S
C830 C838 1.378 . S
C831 C830 1.367 . S
C831 C839 1.433 1_554 S
C832 H828 0.929 . S
C832 C834 1.378 1_556 S
C832 C836 1.350 1_556 S
C833 C836 1.463 1_655 S
C833 C838 1.350 . S
C833 N841 1.427 1_554 S
C834 H825 0.930 1_554 S
C834 C832 1.378 1_554 S
C834 C835 1.367 . S
C835 C834 1.367 . S
C835 C837 1.433 . S
C836 C832 1.350 1_554 S
C836 C833 1.463 1_455 S
C836 N840 1.427 . S
C837 H827 0.929 . S
C837 C835 1.433 . S
C837 N840 1.384 . S
C838 H829 0.929 . S
C838 C830 1.378 . S
C838 C833 1.350 . S
C839 H826 0.929 . S
C839 C831 1.433 1_556 S
C839 N841 1.384 . S
N840 C836 1.427 . S
N840 C837 1.384 . S
N841 C833 1.427 1_556 S
N841 C839 1.384 . S
H842 C848 0.930 . S
H843 C852 0.930 . S
H844 C857 0.929 . S
H845 C855 0.929 . S
H846 C850 0.929 . S
H847 C856 0.929 . S
C848 H842 0.930 . S
C848 C849 1.367 . S
C848 C856 1.378 . S
C849 C848 1.367 . S
C849 C857 1.433 . S
C850 H846 0.929 . S
C850 C852 1.378 . S
C850 C854 1.350 . S
C851 C854 1.463 . S
C851 C856 1.350 . S
C851 N859 1.427 . S
C852 H843 0.930 . S
C852 C850 1.378 . S
C852 C853 1.367 . S
C853 C852 1.367 . S
C853 C855 1.433 . S
C854 C850 1.350 . S
C854 C851 1.463 . S
C854 N858 1.427 . S
C855 H845 0.929 . S
C855 C853 1.433 . S
C855 N858 1.384 . S
C856 H847 0.929 . S
C856 C848 1.378 . S
C856 C851 1.350 . S
C857 H844 0.929 . S
C857 C849 1.433 . S
C857 N859 1.384 . S
N858 C854 1.427 . S
N858 C855 1.384 . S
N859 C851 1.427 . S
N859 C857 1.384 . S
H860 C866 0.930 . S
H861 C870 0.930 . S
H862 C875 0.929 . S
H863 C873 0.929 . S
H864 C868 0.929 . S
H865 C874 0.929 . S
C866 H860 0.930 . S
C866 C867 1.367 . S
C866 C874 1.378 . S
C867 C866 1.367 . S
C867 C875 1.433 . S
C868 H864 0.929 . S
C868 C870 1.378 . S
C868 C872 1.350 . S
C869 C872 1.463 . S
C869 C874 1.350 . S
C869 N877 1.427 . S
C870 H861 0.930 . S
C870 C868 1.378 . S
C870 C871 1.367 . S
C871 C870 1.367 . S
C871 C873 1.433 . S
C872 C868 1.350 . S
C872 C869 1.463 . S
C872 N876 1.427 . S
C873 H863 0.929 . S
C873 C871 1.433 . S
C873 N876 1.384 . S
C874 H865 0.929 . S
C874 C866 1.378 . S
C874 C869 1.350 . S
C875 H862 0.929 . S
C875 C867 1.433 . S
C875 N877 1.384 . S
N876 C872 1.427 . S
N876 C873 1.384 . S
N877 C869 1.427 . S
N877 C875 1.384 . S
H878 C884 0.930 . S
H879 C888 0.930 . S
H880 C893 0.929 . S
H881 C891 0.929 . S
H882 C886 0.929 . S
H883 C892 0.929 . S
C884 H878 0.930 . S
C884 C885 1.367 . S
C884 C892 1.378 . S
C885 C884 1.367 . S
C885 C893 1.433 1_556 S
C886 H882 0.929 . S
C886 C888 1.378 . S
C886 C890 1.350 1_554 S
C887 C890 1.463 1_455 S
C887 C892 1.350 . S
C887 N895 1.427 1_556 S
C888 H879 0.930 . S
C888 C886 1.378 . S
C888 C889 1.367 1_554 S
C889 C888 1.367 1_556 S
C889 C891 1.433 . S
C890 C886 1.350 1_556 S
C890 C887 1.463 1_655 S
C890 N894 1.427 . S
C891 H881 0.929 . S
C891 C889 1.433 . S
C891 N894 1.384 . S
C892 H883 0.929 . S
C892 C884 1.378 . S
C892 C887 1.350 . S
C893 H880 0.929 . S
C893 C885 1.433 1_554 S
C893 N895 1.384 . S
N894 C890 1.427 . S
N894 C891 1.384 . S
N895 C887 1.427 1_554 S
N895 C893 1.384 . S
H896 C902 0.930 . S
H897 C906 0.930 . S
H898 C911 0.929 . S
H899 C909 0.929 . S
H900 C904 0.929 . S
H901 C910 0.929 . S
C902 H896 0.930 . S
C902 C903 1.367 . S
C902 C910 1.378 . S
C903 C902 1.367 . S
C903 C911 1.433 1_554 S
C904 H900 0.929 . S
C904 C906 1.378 . S
C904 C908 1.350 1_556 S
C905 C908 1.463 . S
C905 C910 1.350 . S
C905 N913 1.427 1_554 S
C906 H897 0.930 . S
C906 C904 1.378 . S
C906 C907 1.367 . S
C907 C906 1.367 . S
C907 C909 1.433 1_556 S
C908 C904 1.350 1_554 S
C908 C905 1.463 . S
C908 N912 1.427 . S
C909 H899 0.929 . S
C909 C907 1.433 1_554 S
C909 N912 1.384 . S
C910 H901 0.929 . S
C910 C902 1.378 . S
C910 C905 1.350 . S
C911 H898 0.929 . S
C911 C903 1.433 1_556 S
C911 N913 1.384 . S
N912 C908 1.427 . S
N912 C909 1.384 . S
N913 C905 1.427 1_556 S
N913 C911 1.384 . S
H914 C920 0.930 . S
H915 C924 0.930 . S
H916 C929 0.929 . S
H917 C927 0.929 . S
H918 C922 0.929 . S
H919 C928 0.929 . S
C920 H914 0.930 . S
C920 C921 1.367 . S
C920 C928 1.378 . S
C921 C920 1.367 . S
C921 C929 1.433 . S
C922 H918 0.929 . S
C922 C924 1.378 . S
C922 C926 1.350 . S
C923 C926 1.463 . S
C923 C928 1.350 . S
C923 N931 1.427 . S
C924 H915 0.930 . S
C924 C922 1.378 . S
C924 C925 1.367 . S
C925 C924 1.367 . S
C925 C927 1.433 . S
C926 C922 1.350 . S
C926 C923 1.463 . S
C926 N930 1.427 . S
C927 H917 0.929 . S
C927 C925 1.433 . S
C927 N930 1.384 . S
C928 H919 0.929 . S
C928 C920 1.378 . S
C928 C923 1.350 . S
C929 H916 0.929 . S
C929 C921 1.433 . S
C929 N931 1.384 . S
N930 C926 1.427 . S
N930 C927 1.384 . S
N931 C923 1.427 . S
N931 C929 1.384 . S
H932 C938 0.930 . S
H933 C942 0.930 . S
H934 C947 0.929 . S
H935 C945 0.929 . S
H936 C940 0.929 . S
H937 C946 0.929 . S
C938 H932 0.930 . S
C938 C939 1.367 . S
C938 C946 1.378 . S
C939 C938 1.367 . S
C939 C947 1.433 . S
C940 H936 0.929 . S
C940 C942 1.378 . S
C940 C944 1.350 . S
C941 C944 1.463 . S
C941 C946 1.350 . S
C941 N949 1.427 . S
C942 H933 0.930 . S
C942 C940 1.378 . S
C942 C943 1.367 . S
C943 C942 1.367 . S
C943 C945 1.433 . S
C944 C940 1.350 . S
C944 C941 1.463 . S
C944 N948 1.427 . S
C945 H935 0.929 . S
C945 C943 1.433 . S
C945 N948 1.384 . S
C946 H937 0.929 . S
C946 C938 1.378 . S
C946 C941 1.350 . S
C947 H934 0.929 . S
C947 C939 1.433 . S
C947 N949 1.384 . S
N948 C944 1.427 . S
N948 C945 1.384 . S
N949 C941 1.427 . S
N949 C947 1.384 . S
H950 C956 0.930 . S
H951 C960 0.930 . S
H952 C965 0.929 . S
H953 C963 0.929 . S
H954 C958 0.929 . S
H955 C964 0.929 . S
C956 H950 0.930 . S
C956 C957 1.367 . S
C956 C964 1.378 . S
C957 C956 1.367 . S
C957 C965 1.433 . S
C958 H954 0.929 . S
C958 C960 1.378 . S
C958 C962 1.350 . S
C959 C962 1.463 . S
C959 C964 1.350 . S
C959 N967 1.427 . S
C960 H951 0.930 . S
C960 C958 1.378 . S
C960 C961 1.367 . S
C961 C960 1.367 . S
C961 C963 1.433 . S
C962 C958 1.350 . S
C962 C959 1.463 . S
C962 N966 1.427 . S
C963 H953 0.929 . S
C963 C961 1.433 . S
C963 N966 1.384 . S
C964 H955 0.929 . S
C964 C956 1.378 . S
C964 C959 1.350 . S
C965 H952 0.929 . S
C965 C957 1.433 . S
C965 N967 1.384 . S
N966 C962 1.427 . S
N966 C963 1.384 . S
N967 C959 1.427 . S
N967 C965 1.384 . S
H968 C974 0.930 . S
H969 C978 0.930 1_554 S
H970 C983 0.929 . S
H971 C981 0.929 . S
H972 C976 0.937 . S
H973 C982 0.929 . S
C974 H968 0.930 . S
C974 C975 1.367 . S
C974 C982 1.378 . S
C975 C974 1.367 . S
C975 C983 1.433 1_556 S
C976 H972 0.937 . S
C976 C978 1.378 1_554 S
C976 C980 1.342 1_554 S
C977 C980 1.463 . S
C977 C982 1.350 . S
C977 N985 1.427 1_556 S
C978 H969 0.930 1_556 S
C978 C976 1.378 1_556 S
C978 C979 1.367 . S
C979 C978 1.367 . S
C979 C981 1.433 . S
C980 C976 1.342 1_556 S
C980 C977 1.463 . S
C980 N984 1.427 . S
C981 H971 0.929 . S
C981 C979 1.433 . S
C981 N984 1.384 . S
C982 H973 0.929 . S
C982 C974 1.378 . S
C982 C977 1.350 . S
C983 H970 0.929 . S
C983 C975 1.433 1_554 S
C983 N985 1.384 . S
N984 C980 1.427 . S
N984 C981 1.384 . S
N985 C977 1.427 1_554 S
N985 C983 1.384 . S
H986 C992 0.930 . S
H987 C996 0.930 . S
H988 C1001 0.929 . S
H989 C999 0.929 . S
H990 C994 0.929 . S
H991 C1000 0.929 . S
C992 H986 0.930 . S
C992 C993 1.367 . S
C992 C1000 1.378 . S
C993 C992 1.367 . S
C993 C1001 1.433 . S
C994 H990 0.929 . S
C994 C996 1.378 . S
C994 C998 1.350 . S
C995 C998 1.463 . S
C995 C1000 1.350 . S
C995 N1003 1.427 . S
C996 H987 0.930 . S
C996 C994 1.378 . S
C996 C997 1.367 . S
C997 C996 1.367 . S
C997 C999 1.433 . S
C998 C994 1.350 . S
C998 C995 1.463 . S
C998 N1002 1.427 . S
C999 H989 0.929 . S
C999 C997 1.433 . S
C999 N1002 1.384 . S
C1000 H991 0.929 . S
C1000 C992 1.378 . S
C1000 C995 1.350 . S
C1001 H988 0.929 . S
C1001 C993 1.433 . S
C1001 N1003 1.384 . S
N1002 C998 1.427 . S
N1002 C999 1.384 . S
N1003 C995 1.427 . S
N1003 C1001 1.384 . S
H1004 C1010 0.930 . S
H1005 C1014 0.930 . S
H1006 C1019 0.929 . S
H1007 C1017 0.929 . S
H1008 C1012 0.929 . S
H1009 C1018 0.929 . S
C1010 H1004 0.930 . S
C1010 C1011 1.367 . S
C1010 C1018 1.378 . S
C1011 C1010 1.367 . S
C1011 C1019 1.433 . S
C1012 H1008 0.929 . S
C1012 C1014 1.378 . S
C1012 C1016 1.350 . S
C1013 C1016 1.463 . S
C1013 C1018 1.350 . S
C1013 N1021 1.427 . S
C1014 H1005 0.930 . S
C1014 C1012 1.378 . S
C1014 C1015 1.367 . S
C1015 C1014 1.367 . S
C1015 C1017 1.433 . S
C1016 C1012 1.350 . S
C1016 C1013 1.463 . S
C1016 N1020 1.427 . S
C1017 H1007 0.929 . S
C1017 C1015 1.433 . S
C1017 N1020 1.384 . S
C1018 H1009 0.929 . S
C1018 C1010 1.378 . S
C1018 C1013 1.350 . S
C1019 H1006 0.929 . S
C1019 C1011 1.433 . S
C1019 N1021 1.384 . S
N1020 C1016 1.427 . S
N1020 C1017 1.384 . S
N1021 C1013 1.427 . S
N1021 C1019 1.384 . S
H1022 C1028 0.930 . S
H1023 C1032 0.930 . S
H1024 C1037 0.929 . S
H1025 C1035 0.929 . S
H1026 C1030 0.929 . S
H1027 C1036 0.929 . S
C1028 H1022 0.930 . S
C1028 C1029 1.367 . S
C1028 C1036 1.378 . S
C1029 C1028 1.367 . S
C1029 C1037 1.433 . S
C1030 H1026 0.929 . S
C1030 C1032 1.378 . S
C1030 C1034 1.350 . S
C1031 C1034 1.463 . S
C1031 C1036 1.350 . S
C1031 N1039 1.427 . S
C1032 H1023 0.930 . S
C1032 C1030 1.378 . S
C1032 C1033 1.367 . S
C1033 C1032 1.367 . S
C1033 C1035 1.433 . S
C1034 C1030 1.350 . S
C1034 C1031 1.463 . S
C1034 N1038 1.427 . S
C1035 H1025 0.929 . S
C1035 C1033 1.433 . S
C1035 N1038 1.384 . S
C1036 H1027 0.929 . S
C1036 C1028 1.378 . S
C1036 C1031 1.350 . S
C1037 H1024 0.929 . S
C1037 C1029 1.433 . S
C1037 N1039 1.384 . S
N1038 C1034 1.427 . S
N1038 C1035 1.384 . S
N1039 C1031 1.427 . S
N1039 C1037 1.384 . S
H1040 C1046 0.930 . S
H1041 C1050 0.930 . S
H1042 C1055 0.929 . S
H1043 C1053 0.929 . S
H1044 C1048 0.929 . S
H1045 C1054 0.929 . S
C1046 H1040 0.930 . S
C1046 C1047 1.367 . S
C1046 C1054 1.378 . S
C1047 C1046 1.367 . S
C1047 C1055 1.433 . S
C1048 H1044 0.929 . S
C1048 C1050 1.378 . S
C1048 C1052 1.350 . S
C1049 C1052 1.463 1_565 S
C1049 C1054 1.350 . S
C1049 N1057 1.427 . S
C1050 H1041 0.930 . S
C1050 C1048 1.378 . S
C1050 C1051 1.367 . S
C1051 C1050 1.367 . S
C1051 C1053 1.433 . S
C1052 C1048 1.350 . S
C1052 C1049 1.463 1_545 S
C1052 N1056 1.427 . S
C1053 H1043 0.929 . S
C1053 C1051 1.433 . S
C1053 N1056 1.384 . S
C1054 H1045 0.929 . S
C1054 C1046 1.378 . S
C1054 C1049 1.350 . S
C1055 H1042 0.929 . S
C1055 C1047 1.433 . S
C1055 N1057 1.384 . S
N1056 C1052 1.427 . S
N1056 C1053 1.384 . S
N1057 C1049 1.427 . S
N1057 C1055 1.384 . S
H1058 C1064 0.930 . S
H1059 C1068 0.930 . S
H1060 C1073 0.929 . S
H1061 C1071 0.929 . S
H1062 C1066 0.929 . S
H1063 C1072 0.929 . S
C1064 H1058 0.930 . S
C1064 C1065 1.367 . S
C1064 C1072 1.378 . S
C1065 C1064 1.367 . S
C1065 C1073 1.433 . S
C1066 H1062 0.929 . S
C1066 C1068 1.378 . S
C1066 C1070 1.350 . S
C1067 C1070 1.463 . S
C1067 C1072 1.350 . S
C1067 N1075 1.427 . S
C1068 H1059 0.930 . S
C1068 C1066 1.378 . S
C1068 C1069 1.367 . S
C1069 C1068 1.367 . S
C1069 C1071 1.433 . S
C1070 C1066 1.350 . S
C1070 C1067 1.463 . S
C1070 N1074 1.427 . S
C1071 H1061 0.929 . S
C1071 C1069 1.433 . S
C1071 N1074 1.384 . S
C1072 H1063 0.929 . S
C1072 C1064 1.378 . S
C1072 C1067 1.350 . S
C1073 H1060 0.929 . S
C1073 C1065 1.433 . S
C1073 N1075 1.384 . S
N1074 C1070 1.427 . S
N1074 C1071 1.384 . S
N1075 C1067 1.427 . S
N1075 C1073 1.384 . S
H1076 C1082 0.930 1_556 S
H1077 C1086 0.930 . S
H1078 C1091 0.929 . S
H1079 C1089 0.929 . S
H1080 C1084 0.929 . S
H1081 C1090 0.929 1_556 S
C1082 H1076 0.930 1_554 S
C1082 C1083 1.367 . S
C1082 C1090 1.378 . S
C1083 C1082 1.367 . S
C1083 C1091 1.433 . S
C1084 H1080 0.929 . S
C1084 C1086 1.378 . S
C1084 C1088 1.334 1_545 S
C1085 C1088 1.491 . S
C1085 C1090 1.350 . S
C1085 N1093 1.427 . S
C1086 H1077 0.930 . S
C1086 C1084 1.378 . S
C1086 C1087 1.367 . S
C1087 C1086 1.367 . S
C1087 C1089 1.433 1_554 S
C1088 C1084 1.334 1_565 S
C1088 C1085 1.491 . S
C1088 N1092 1.416 1_564 S
C1089 H1079 0.929 . S
C1089 C1087 1.433 1_556 S
C1089 N1092 1.384 . S
C1090 H1081 0.929 1_554 S
C1090 C1082 1.378 . S
C1090 C1085 1.350 . S
C1091 H1078 0.929 . S
C1091 C1083 1.433 . S
C1091 N1093 1.384 . S
N1092 C1088 1.416 1_546 S
N1092 C1089 1.384 . S
N1093 C1085 1.427 . S
N1093 C1091 1.384 . S
H1094 C1100 0.930 . S
H1095 C1104 0.930 . S
H1096 C1109 0.929 . S
H1097 C1107 0.929 . S
H1098 C1102 0.929 . S
H1099 C1108 0.929 . S
C1100 H1094 0.930 . S
C1100 C1101 1.367 . S
C1100 C1108 1.378 . S
C1101 C1100 1.367 . S
C1101 C1109 1.433 . S
C1102 H1098 0.929 . S
C1102 C1104 1.378 . S
C1102 C1106 1.350 . S
C1103 C1106 1.463 . S
C1103 C1108 1.350 . S
C1103 N1111 1.427 . S
C1104 H1095 0.930 . S
C1104 C1102 1.378 . S
C1104 C1105 1.367 . S
C1105 C1104 1.367 . S
C1105 C1107 1.433 . S
C1106 C1102 1.350 . S
C1106 C1103 1.463 . S
C1106 N1110 1.427 . S
C1107 H1097 0.929 . S
C1107 C1105 1.433 . S
C1107 N1110 1.384 . S
C1108 H1099 0.929 . S
C1108 C1100 1.378 . S
C1108 C1103 1.350 . S
C1109 H1096 0.929 . S
C1109 C1101 1.433 . S
C1109 N1111 1.384 . S
N1110 C1106 1.427 . S
N1110 C1107 1.384 . S
N1111 C1103 1.427 . S
N1111 C1109 1.384 . S
H1112 C1118 0.930 . S
H1113 C1122 0.930 . S
H1114 C1127 0.929 . S
H1115 C1125 0.929 . S
H1116 C1120 0.929 . S
H1117 C1126 0.929 1_545 S
C1118 H1112 0.930 . S
C1118 C1119 1.367 . S
C1118 C1126 1.378 . S
C1119 C1118 1.367 . S
C1119 C1127 1.433 . S
C1120 H1116 0.929 . S
C1120 C1122 1.378 . S
C1120 C1124 1.350 . S
C1121 C1124 1.463 . S
C1121 C1126 1.350 1_545 S
C1121 N1129 1.427 1_545 S
C1122 H1113 0.930 . S
C1122 C1120 1.378 . S
C1122 C1123 1.367 . S
C1123 C1122 1.367 . S
C1123 C1125 1.433 . S
C1124 C1120 1.350 . S
C1124 C1121 1.463 . S
C1124 N1128 1.427 . S
C1125 H1115 0.929 . S
C1125 C1123 1.433 . S
C1125 N1128 1.384 . S
C1126 H1117 0.929 1_565 S
C1126 C1118 1.378 . S
C1126 C1121 1.350 1_565 S
C1127 H1114 0.929 . S
C1127 C1119 1.433 . S
C1127 N1129 1.384 . S
N1128 C1124 1.427 . S
N1128 C1125 1.384 . S
N1129 C1121 1.427 1_565 S
N1129 C1127 1.384 . S
H1130 C1136 0.930 . S
H1131 C1140 0.930 . S
H1132 C1145 0.929 . S
H1133 C1143 0.929 . S
H1134 C1138 0.929 . S
H1135 C1144 0.929 . S
C1136 H1130 0.930 . S
C1136 C1137 1.367 . S
C1136 C1144 1.378 . S
C1137 C1136 1.367 . S
C1137 C1145 1.433 . S
C1138 H1134 0.929 . S
C1138 C1140 1.378 . S
C1138 C1142 1.350 . S
C1139 C1142 1.463 . S
C1139 C1144 1.350 . S
C1139 N1147 1.427 . S
C1140 H1131 0.930 . S
C1140 C1138 1.378 . S
C1140 C1141 1.367 . S
C1141 C1140 1.367 . S
C1141 C1143 1.433 . S
C1142 C1138 1.350 . S
C1142 C1139 1.463 . S
C1142 N1146 1.427 . S
C1143 H1133 0.929 . S
C1143 C1141 1.433 . S
C1143 N1146 1.384 . S
C1144 H1135 0.929 . S
C1144 C1136 1.378 . S
C1144 C1139 1.350 . S
C1145 H1132 0.929 . S
C1145 C1137 1.433 . S
C1145 N1147 1.384 . S
N1146 C1142 1.427 . S
N1146 C1143 1.384 . S
N1147 C1139 1.427 . S
N1147 C1145 1.384 . S
H1148 C1154 0.930 . S
H1149 C1158 0.930 . S
H1150 C1163 0.929 . S
H1151 C1161 0.929 . S
H1152 C1156 0.929 . S
H1153 C1162 0.929 . S
C1154 H1148 0.930 . S
C1154 C1155 1.367 . S
C1154 C1162 1.378 . S
C1155 C1154 1.367 . S
C1155 C1163 1.433 1_554 S
C1156 H1152 0.929 . S
C1156 C1158 1.378 . S
C1156 C1160 1.350 1_556 S
C1157 C1160 1.463 1_545 S
C1157 C1162 1.350 . S
C1157 N1165 1.427 1_554 S
C1158 H1149 0.930 . S
C1158 C1156 1.378 . S
C1158 C1159 1.367 1_556 S
C1159 C1158 1.367 1_554 S
C1159 C1161 1.433 . S
C1160 C1156 1.350 1_554 S
C1160 C1157 1.463 1_565 S
C1160 N1164 1.427 . S
C1161 H1151 0.929 . S
C1161 C1159 1.433 . S
C1161 N1164 1.384 . S
C1162 H1153 0.929 . S
C1162 C1154 1.378 . S
C1162 C1157 1.350 . S
C1163 H1150 0.929 . S
C1163 C1155 1.433 1_556 S
C1163 N1165 1.384 . S
N1164 C1160 1.427 . S
N1164 C1161 1.384 . S
N1165 C1157 1.427 1_556 S
N1165 C1163 1.384 . S
H1166 C1172 0.930 . S
H1167 C1176 0.930 . S
H1168 C1181 0.929 . S
H1169 C1179 0.929 . S
H1170 C1174 0.929 . S
H1171 C1180 0.929 . S
C1172 H1166 0.930 . S
C1172 C1173 1.367 . S
C1172 C1180 1.378 . S
C1173 C1172 1.367 . S
C1173 C1181 1.433 . S
C1174 H1170 0.929 . S
C1174 C1176 1.378 . S
C1174 C1178 1.350 . S
C1175 C1178 1.463 . S
C1175 C1180 1.350 . S
C1175 N1183 1.427 . S
C1176 H1167 0.930 . S
C1176 C1174 1.378 . S
C1176 C1177 1.367 . S
C1177 C1176 1.367 . S
C1177 C1179 1.433 . S
C1178 C1174 1.350 . S
C1178 C1175 1.463 . S
C1178 N1182 1.427 . S
C1179 H1169 0.929 . S
C1179 C1177 1.433 . S
C1179 N1182 1.384 . S
C1180 H1171 0.929 . S
C1180 C1172 1.378 . S
C1180 C1175 1.350 . S
C1181 H1168 0.929 . S
C1181 C1173 1.433 . S
C1181 N1183 1.384 . S
N1182 C1178 1.427 . S
N1182 C1179 1.384 . S
N1183 C1175 1.427 . S
N1183 C1181 1.384 . S
C327 C8 1.750 . S
C331 C19 1.750 . S
C345 C39 1.726 . S
C349 C28 1.726 . S
C363 C48 1.689 . S
C367 C59 1.689 . S
C381 C68 1.724 . S
C385 C79 1.724 . S
C399 C88 1.711 . S
C403 C99 1.711 . S
C417 C108 1.706 . S
C421 C119 1.706 . S
C435 C139 1.732 . S
C439 C128 1.732 . S
C453 C159 1.775 . S
C457 C148 1.775 . S
C471 C179 1.756 . S
C475 C168 1.756 . S
C489 C199 1.720 . S
C493 C188 1.720 . S
C507 C208 1.692 . S
C511 C219 1.692 . S
C525 C239 1.710 . S
C529 C228 1.710 . S
C543 C259 1.720 . S
C547 C248 1.720 . S
C561 C279 1.702 . S
C565 C268 1.702 . S
C579 C288 1.725 . S
C583 C299 1.725 . S
C597 C319 1.772 . S
C601 C308 1.772 . S
C615 C1 1.571 . S
C619 C226 1.459 . S
C633 C36 1.795 . S
C637 C309 1.906 . S
C651 C41 1.620 . S
C655 C189 1.587 . S
C669 C61 1.950 . S
C673 C269 1.997 . S
C687 C81 1.567 . S
C691 C266 1.444 . S
C705 C229 1.907 . S
C709 C116 1.780 . S
C723 C136 1.422 . S
C727 C306 1.382 . S
C741 C156 1.685 . S
C745 C186 1.744 . S
C759 C76 1.705 . S
C763 C169 1.773 . S
C777 C21 1.887 . S
C781 C209 1.898 . S
C795 C249 1.794 . S
C799 C101 1.770 . S
C813 C141 1.626 . S
C817 C286 1.587 . S
C831 C166 1.497 1_554 S
C835 C96 1.487 . S
C849 C121 1.586 . S
C853 C206 1.515 . S
C867 C56 1.642 . S
C871 C289 1.692 . S
C885 C16 1.648 1_556 S
C889 C246 1.593 . S
C903 C9 1.311 . S
C907 C89 1.310 . S
C921 C26 1.672 . S
C925 C106 1.671 . S
C939 C49 1.395 . S
C943 C126 1.366 . S
C957 C69 1.685 . S
C961 C146 1.637 . S
C975 C241 1.643 . S
C979 C161 1.646 . S
C993 C261 1.742 . S
C997 C196 1.700 . S
C1011 C201 1.695 . S
C1015 C296 1.636 . S
C1029 C301 1.694 . S
C1033 C221 1.687 . S
C1047 C29 1.692 . S
C1051 C149 1.703 . S
C1065 C86 1.392 . S
C1069 C46 1.383 . S
C1083 C109 1.759 . S
C1087 C66 1.713 1_554 S
C1101 C6 1.324 . S
C1105 C129 1.377 . S
C1119 C316 1.328 . S
C1123 C181 1.380 . S
C1137 C256 1.454 . S
C1141 C216 1.447 . S
C1155 C276 1.395 1_554 S
C1159 C236 1.396 . S
C1173 C281 1.434 . S
C1177 C176 1.393 . S
