# Generated by pormake.
# Topology umx, (4)-cn, num edge types: 1
# Building blocks:
#     Node 0, Type 0, BuildingBlock: NAWXER_clean_sbu_0, # of connection points: 4
#     Node 1, Type 0, BuildingBlock: NAWXER_clean_sbu_0, # of connection points: 4
#     Node 2, Type 0, BuildingBlock: NAWXER_clean_sbu_0, # of connection points: 4
#     Node 3, Type 0, BuildingBlock: NAWXER_clean_sbu_0, # of connection points: 4
#     Node 4, Type 0, BuildingBlock: NAWXER_clean_sbu_0, # of connection points: 4
#     Node 5, Type 0, BuildingBlock: NAWXER_clean_sbu_0, # of connection points: 4
#     Node 6, Type 0, BuildingBlock: NAWXER_clean_sbu_0, # of connection points: 4
#     Node 7, Type 0, BuildingBlock: NAWXER_clean_sbu_0, # of connection points: 4
#     Edge 8, Type (0, 0), BuildingBlock: AJUNOK_clean_linker_0, # of connection points: 2
#     Edge 9, Type (0, 0), BuildingBlock: AJUNOK_clean_linker_0, # of connection points: 2
#     Edge 10, Type (0, 0), BuildingBlock: AJUNOK_clean_linker_0, # of connection points: 2
#     Edge 11, Type (0, 0), BuildingBlock: AJUNOK_clean_linker_0, # of connection points: 2
#     Edge 12, Type (0, 0), BuildingBlock: AJUNOK_clean_linker_0, # of connection points: 2
#     Edge 13, Type (0, 0), BuildingBlock: AJUNOK_clean_linker_0, # of connection points: 2
#     Edge 14, Type (0, 0), BuildingBlock: AJUNOK_clean_linker_0, # of connection points: 2
#     Edge 15, Type (0, 0), BuildingBlock: AJUNOK_clean_linker_0, # of connection points: 2
#     Edge 16, Type (0, 0), BuildingBlock: AJUNOK_clean_linker_0, # of connection points: 2
#     Edge 17, Type (0, 0), BuildingBlock: AJUNOK_clean_linker_0, # of connection points: 2
#     Edge 18, Type (0, 0), BuildingBlock: AJUNOK_clean_linker_0, # of connection points: 2
#     Edge 19, Type (0, 0), BuildingBlock: AJUNOK_clean_linker_0, # of connection points: 2
#     Edge 20, Type (0, 0), BuildingBlock: AJUNOK_clean_linker_0, # of connection points: 2
#     Edge 21, Type (0, 0), BuildingBlock: AJUNOK_clean_linker_0, # of connection points: 2
#     Edge 22, Type (0, 0), BuildingBlock: AJUNOK_clean_linker_0, # of connection points: 2
#     Edge 23, Type (0, 0), BuildingBlock: AJUNOK_clean_linker_0, # of connection points: 2
# Relax obj value: 0.027
# Max RMSD: 0.221
# Mean RMSD: 0.220
data_MOF--net-umx--node1-NAWXER_clean_sbu_0--edge1-AJUNOK_clean_linker_0
_symmetry_space_group_name_H-M    P1
_symmetry_Int_Tables_number       1
_symmetry_cell_setting            triclinic
loop_
_symmetry_equiv_pos_as_xyz
'x, y, z'
_cell_length_a     28.981082
_cell_length_b     29.006775
_cell_length_c     21.175427
_cell_angle_alpha  94.712159
_cell_angle_beta   94.824472
_cell_angle_gamma 89.92044
loop_
_atom_site_label
_atom_site_type_symbol
_atom_site_fract_x
_atom_site_fract_y
_atom_site_fract_z
_atom_type_partial_charge
C0 C 0.22948 0.37063 0.02748 0.0
C1 C 0.08881 0.46008 0.03365 0.0
O2 O 0.18749 0.35763 0.02029 0.0
Zn3 Zn 0.1596 0.41678 0.02871 0.0
O4 O 0.23895 0.41401 0.03597 0.0
Zn5 Zn 0.19945 0.47734 0.04144 0.0
O6 O 0.21919 0.50558 0.12465 0.0
O7 O 0.179 0.44121 0.12663 0.0
O8 O 0.12474 0.48652 0.03927 0.0
O9 O 0.0939 0.41658 0.02612 0.0
O10 O 0.17211 0.44692 0.94196 0.0
O11 O 0.21707 0.50784 0.96949 0.0
C12 C 0.20148 0.47571 0.15614 0.0
C13 C 0.19498 0.48151 0.92657 0.0
C14 C 0.50756 0.1963 0.42854 0.0
C15 C 0.51047 0.19716 0.65864 0.0
O16 O 0.47877 0.21458 0.46498 0.0
Zn17 Zn 0.51057 0.1985 0.54376 0.0
O18 O 0.54275 0.17477 0.45226 0.0
Zn19 Zn 0.57045 0.15833 0.54557 0.0
O20 O 0.56982 0.09265 0.53796 0.0
O21 O 0.50032 0.12377 0.5378 0.0
O22 O 0.54382 0.17342 0.63692 0.0
O23 O 0.48349 0.21895 0.62142 0.0
O24 O 0.57472 0.23776 0.54876 0.0
O25 O 0.62994 0.18572 0.55429 0.0
C26 C 0.52623 0.08775 0.53624 0.0
C27 C 0.61797 0.22764 0.55287 0.0
C28 C 0.9018 0.53158 0.04949 0.0
C29 C 0.75636 0.61311 0.04575 0.0
O30 O 0.86762 0.50295 0.04139 0.0
Zn31 Zn 0.79256 0.50758 0.03571 0.0
O32 O 0.89377 0.5745 0.05762 0.0
Zn33 Zn 0.82801 0.57044 0.04962 0.0
O34 O 0.81162 0.54158 0.13577 0.0
O35 O 0.77644 0.47499 0.10652 0.0
O36 O 0.79773 0.62792 0.05363 0.0
O37 O 0.74879 0.56922 0.0386 0.0
O38 O 0.77631 0.47787 0.9524 0.0
O39 O 0.81292 0.5444 0.95134 0.0
C40 C 0.79194 0.50477 0.15034 0.0
C41 C 0.79325 0.50846 0.92137 0.0
C42 C 0.47251 0.78648 0.41532 0.0
C43 C 0.4751 0.79642 0.64543 0.0
O44 O 0.43704 0.80844 0.43415 0.0
Zn45 Zn 0.41092 0.8284 0.52499 0.0
O46 O 0.50117 0.76998 0.45594 0.0
Zn47 Zn 0.47239 0.79187 0.53084 0.0
O48 O 0.40941 0.75013 0.53012 0.0
O49 O 0.35239 0.8001 0.52006 0.0
O50 O 0.50494 0.77912 0.60996 0.0
O51 O 0.43892 0.81585 0.62053 0.0
O52 O 0.40845 0.89375 0.52727 0.0
O53 O 0.47958 0.86674 0.5327 0.0
C54 C 0.36585 0.75914 0.52691 0.0
C55 C 0.45165 0.90118 0.53122 0.0
C56 C 0.19798 0.50485 0.4303 0.0
C57 C 0.19841 0.51365 0.66071 0.0
O58 O 0.17608 0.54046 0.45182 0.0
Zn59 Zn 0.15889 0.57012 0.54386 0.0
O60 O 0.21647 0.47747 0.46873 0.0
Zn61 Zn 0.1996 0.51084 0.54568 0.0
O62 O 0.12473 0.49994 0.53999 0.0
O63 O 0.09321 0.569 0.53568 0.0
O64 O 0.22082 0.48629 0.62491 0.0
O65 O 0.17403 0.54593 0.63702 0.0
O66 O 0.18568 0.62982 0.55022 0.0
O67 O 0.23824 0.57498 0.54808 0.0
C68 C 0.08853 0.52561 0.53664 0.0
C69 C 0.22777 0.61807 0.55012 0.0
C70 C 0.36987 0.22688 0.0284 0.0
C71 C 0.4537 0.0832 0.03206 0.0
O72 O 0.41363 0.23502 0.03489 0.0
Zn73 Zn 0.47573 0.19289 0.03868 0.0
O74 O 0.35559 0.18539 0.02288 0.0
Zn75 Zn 0.4139 0.15601 0.02881 0.0
O76 O 0.44126 0.17453 0.12626 0.0
O77 O 0.50644 0.21238 0.1201 0.0
O78 O 0.41057 0.09079 0.02593 0.0
O79 O 0.48211 0.1176 0.03667 0.0
O80 O 0.50573 0.20923 0.96605 0.0
O81 O 0.4422 0.16787 0.94007 0.0
C82 C 0.47734 0.19571 0.1537 0.0
C83 C 0.4775 0.18919 0.92361 0.0
C84 C 0.7975 0.47795 0.64723 0.0
C85 C 0.78802 0.47145 0.41688 0.0
O86 O 0.77919 0.50622 0.61004 0.0
Zn87 Zn 0.7921 0.4722 0.53242 0.0
O88 O 0.81686 0.44121 0.62401 0.0
Zn89 Zn 0.82899 0.41116 0.52907 0.0
O90 O 0.89445 0.40841 0.53214 0.0
O91 O 0.86727 0.47944 0.53465 0.0
O92 O 0.81014 0.43637 0.43683 0.0
O93 O 0.77049 0.49993 0.45661 0.0
O94 O 0.75029 0.40955 0.53335 0.0
O95 O 0.80051 0.35274 0.52556 0.0
C96 C 0.90181 0.45156 0.53457 0.0
C97 C 0.7594 0.36608 0.53142 0.0
C98 C 0.61228 0.75348 0.04245 0.0
C99 C 0.52511 0.896 0.04617 0.0
O100 O 0.62586 0.79525 0.04858 0.0
Zn101 Zn 0.56731 0.82403 0.04543 0.0
O102 O 0.56862 0.7446 0.03637 0.0
Zn103 Zn 0.50572 0.78592 0.03345 0.0
O104 O 0.4755 0.76865 0.95085 0.0
O105 O 0.53998 0.80844 0.9478 0.0
O106 O 0.49822 0.86048 0.03903 0.0
O107 O 0.56858 0.89018 0.05292 0.0
O108 O 0.54005 0.80714 0.13256 0.0
O109 O 0.4747 0.76901 0.10497 0.0
C110 C 0.50426 0.78758 0.91889 0.0
C111 C 0.50427 0.78613 0.14808 0.0
C112 C 0.20351 0.52689 0.25703 0.0
C113 C 0.20399 0.48205 0.22635 0.0
C114 C 0.20173 0.53385 0.32308 0.0
C115 C 0.20152 0.49626 0.36104 0.0
H116 H 0.20303 0.55686 0.22963 0.0
H117 H 0.2005 0.569 0.34457 0.0
S118 S 0.2049 0.37199 0.30411 0.0
N119 N 0.20538 0.39949 0.2389 0.0
N120 N 0.20339 0.4126 0.36332 0.0
C121 C 0.20346 0.45126 0.33118 0.0
C122 C 0.20427 0.44416 0.26374 0.0
C123 C 0.51109 0.2333 0.76975 0.0
C124 C 0.50107 0.19525 0.72544 0.0
C125 C 0.50375 0.2309 0.83413 0.0
C126 C 0.4851 0.19077 0.85568 0.0
H127 H 0.52528 0.26476 0.75474 0.0
H128 H 0.5122 0.26083 0.86711 0.0
S129 S 0.45338 0.08189 0.75733 0.0
N130 N 0.47253 0.11631 0.70675 0.0
N131 N 0.45713 0.11216 0.8272 0.0
C132 C 0.47451 0.15273 0.81132 0.0
C133 C 0.48297 0.15488 0.74625 0.0
C134 C 0.7897 0.44358 0.30189 0.0
C135 C 0.78585 0.48036 0.34876 0.0
C136 C 0.79029 0.45161 0.23747 0.0
C137 C 0.78824 0.49681 0.21785 0.0
H138 H 0.79244 0.40831 0.31506 0.0
H139 H 0.7937 0.4223 0.20305 0.0
S140 S 0.7769 0.60504 0.32135 0.0
N141 N 0.77864 0.56367 0.37058 0.0
N142 N 0.78087 0.57866 0.24993 0.0
C143 C 0.78392 0.53382 0.26405 0.0
C144 C 0.78238 0.52563 0.32938 0.0
C145 C 0.53348 0.79114 0.81176 0.0
C146 C 0.49587 0.78773 0.84905 0.0
C147 C 0.52649 0.79333 0.74576 0.0
C148 C 0.48159 0.79339 0.71492 0.0
H149 H 0.56866 0.79196 0.83368 0.0
H150 H 0.55646 0.79586 0.71889 0.0
S151 S 0.3714 0.78477 0.7907 0.0
N152 N 0.41207 0.78383 0.85008 0.0
N153 N 0.39895 0.78901 0.72625 0.0
C154 C 0.44366 0.78997 0.75156 0.0
C155 C 0.4508 0.7868 0.81857 0.0
C156 C 0.79585 0.44938 0.75516 0.0
C157 C 0.7958 0.48675 0.7168 0.0
C158 C 0.79374 0.4567 0.82113 0.0
C159 C 0.79254 0.50169 0.85132 0.0
H160 H 0.7971 0.41415 0.73401 0.0
H161 H 0.79408 0.42689 0.84881 0.0
S162 S 0.79167 0.61129 0.77244 0.0
N163 N 0.79378 0.57039 0.71374 0.0
N164 N 0.79094 0.58413 0.83788 0.0
C165 C 0.79251 0.53936 0.81357 0.0
C166 C 0.7938 0.53189 0.74627 0.0
C167 C 0.45175 0.78439 0.23565 0.0
C168 C 0.4969 0.78321 0.21586 0.0
C169 C 0.44409 0.78488 0.30025 0.0
C170 C 0.48125 0.78302 0.3472 0.0
H171 H 0.42214 0.78636 0.20117 0.0
H172 H 0.4088 0.78693 0.31351 0.0
S173 S 0.60604 0.77686 0.31951 0.0
N174 N 0.57917 0.7787 0.24786 0.0
N175 N 0.56488 0.77844 0.36903 0.0
C176 C 0.52652 0.78033 0.32774 0.0
C177 C 0.53431 0.78079 0.26214 0.0
C178 C 0.23728 0.49968 0.83348 0.0
C179 C 0.19531 0.49057 0.85913 0.0
C180 C 0.23832 0.5066 0.76872 0.0
C181 C 0.19724 0.50623 0.72842 0.0
H182 H 0.26956 0.50044 0.86335 0.0
H183 H 0.27129 0.51282 0.75023 0.0
S184 S 0.07854 0.48518 0.77266 0.0
N185 N 0.11188 0.48147 0.83928 0.0
N186 N 0.11366 0.49666 0.71836 0.0
C187 C 0.15508 0.49802 0.75373 0.0
C188 C 0.15416 0.4896 0.81899 0.0
C189 C 0.45549 0.19786 0.32834 0.0
C190 C 0.50048 0.19899 0.359 0.0
C191 C 0.44826 0.19718 0.26189 0.0
C192 C 0.48574 0.19879 0.2239 0.0
H193 H 0.42568 0.19612 0.3557 0.0
H194 H 0.41305 0.19529 0.24013 0.0
S195 S 0.61031 0.2048 0.28174 0.0
N196 N 0.58297 0.20322 0.34685 0.0
N197 N 0.56949 0.20311 0.22229 0.0
C198 C 0.53086 0.20139 0.25428 0.0
C199 C 0.53821 0.20113 0.32174 0.0
C200 C 0.95833 0.46689 0.03821 0.0
C201 C 0.94999 0.51467 0.04689 0.0
C202 C 0.00319 0.44978 0.03367 0.0
C203 C 0.04174 0.47969 0.03757 0.0
H204 H 0.92997 0.44227 0.03468 0.0
H205 H 0.00753 0.41265 0.02711 0.0
S206 S 0.03893 0.60799 0.0599 0.0
N207 N 0.98428 0.59189 0.05911 0.0
N208 N 0.06856 0.55967 0.05053 0.0
C209 C 0.03401 0.52762 0.04627 0.0
C210 C 0.98822 0.5451 0.05098 0.0
C211 C 0.51664 0.95685 0.52579 0.0
C212 C 0.46959 0.94912 0.53307 0.0
C213 C 0.53442 0.00173 0.52637 0.0
C214 C 0.5059 0.04077 0.53433 0.0
H215 H 0.54004 0.92803 0.51916 0.0
H216 H 0.57093 0.0057 0.52043 0.0
S217 S 0.38038 0.03954 0.55784 0.0
N218 N 0.39482 0.98445 0.55006 0.0
N219 N 0.42831 0.06872 0.55121 0.0
C220 C 0.45878 0.0336 0.54206 0.0
C221 C 0.44062 0.98785 0.54143 0.0
C222 C 0.0024 0.53324 0.52399 0.0
C223 C 0.04153 0.50537 0.53572 0.0
C224 C 0.95748 0.51565 0.5242 0.0
C225 C 0.94978 0.46944 0.53603 0.0
H226 H 0.00635 0.56906 0.51438 0.0
H227 H 0.92859 0.53848 0.51445 0.0
S228 S 0.04037 0.38242 0.57246 0.0
N229 N 0.06958 0.42948 0.56149 0.0
N230 N 0.98519 0.39633 0.56175 0.0
C231 C 0.98858 0.44117 0.54833 0.0
C232 C 0.03439 0.45914 0.54818 0.0
C233 C 0.53588 0.98172 0.04678 0.0
C234 C 0.50584 0.94333 0.04396 0.0
C235 C 0.51876 0.02666 0.04262 0.0
C236 C 0.47089 0.03515 0.03549 0.0
H237 H 0.57306 0.97713 0.05183 0.0
H238 H 0.5434 0.05493 0.04499 0.0
S239 S 0.37727 0.94668 0.02663 0.0
N240 N 0.42567 0.91693 0.03436 0.0
N241 N 0.3935 0.00116 0.02651 0.0
C242 C 0.44037 -0.00292 0.03294 0.0
C243 C 0.45783 0.9513 0.03722 0.0
C244 C 0.25465 0.28847 1.01525 0.0
C245 C 0.26671 0.33553 0.02682 0.0
C246 C 0.28831 0.25403 1.01556 0.0
C247 C 0.3357 0.26496 0.02741 0.0
H248 H 0.21873 0.27783 1.00605 0.0
H249 H 0.2768 0.21841 1.00651 0.0
S250 S 0.38607 0.38301 0.05999 0.0
N251 N 0.32967 0.39149 0.05007 0.0
N252 N 0.39319 0.32646 0.05061 0.0
C253 C 0.34852 0.31191 0.03858 0.0
C254 C 0.31402 0.34721 0.03831 0.0
C255 C 0.6761 0.34112 0.52608 0.0
C256 C 0.72332 0.33152 0.53962 0.0
C257 C 0.64193 0.30781 0.53208 0.0
C258 C 0.65384 0.26391 0.5522 0.0
H259 H 0.66552 0.37416 0.50943 0.0
H260 H 0.60609 0.31619 0.5194 0.0
S261 S 0.77231 0.22386 0.6012 0.0
N262 N 0.77987 0.27637 0.57922 0.0
N263 N 0.716 0.21426 0.59079 0.0
C264 C 0.70084 0.25469 0.5683 0.0
C265 C 0.73548 0.28835 0.56192 0.0
C266 C 0.72888 0.69444 0.04644 0.0
C267 C 0.71799 0.64705 0.0443 0.0
C268 C 0.69442 0.72804 0.04555 0.0
C269 C 0.64724 0.71602 0.04252 0.0
H270 H 0.76454 0.70607 0.04875 0.0
H271 H 0.70519 0.7639 0.0473 0.0
S272 S 0.5997 0.59674 0.03632 0.0
N273 N 0.65636 0.5896 0.0391 0.0
N274 N 0.59119 0.6531 0.03747 0.0
C275 C 0.63554 0.66874 0.04019 0.0
C276 C 0.67094 0.63423 0.04107 0.0
C277 C 0.34091 0.67604 0.52187 0.0
C278 C 0.33134 0.72318 0.53536 0.0
C279 C 0.30768 0.64193 0.52833 0.0
C280 C 0.26391 0.65388 0.54885 0.0
H281 H 0.37386 0.66547 0.50492 0.0
H282 H 0.31598 0.60612 0.51569 0.0
S283 S 0.22424 0.77214 0.59846 0.0
N284 N 0.27656 0.77971 0.57574 0.0
N285 N 0.21452 0.71591 0.58808 0.0
C286 C 0.25476 0.7008 0.56499 0.0
C287 C 0.28836 0.73537 0.55818 0.0
loop_
_geom_bond_atom_site_label_1
_geom_bond_atom_site_label_2
_geom_bond_distance
_geom_bond_site_symmetry_2
_ccdc_geom_bond_type
C0 O2 1.247 . S
C0 O4 1.258 . S
C1 O8 1.247 . S
C1 O9 1.258 . S
O2 C0 1.247 . S
O2 Zn3 2.028 . S
Zn3 O2 2.028 . S
Zn3 O7 2.046 . S
Zn3 O9 2.036 . S
Zn3 O10 2.017 1_554 S
O4 C0 1.258 . S
O4 Zn5 2.035 . S
Zn5 O4 2.035 . S
Zn5 O6 2.028 . S
Zn5 O8 2.028 . S
Zn5 O11 2.035 1_554 S
O6 Zn5 2.028 . S
O6 C12 1.247 . S
O7 Zn3 2.046 . S
O7 C12 1.258 . S
O8 C1 1.247 . S
O8 Zn5 2.028 . S
O9 C1 1.258 . S
O9 Zn3 2.036 . S
O10 Zn3 2.017 1_556 S
O10 C13 1.247 . S
O11 Zn5 2.035 1_556 S
O11 C13 1.258 . S
C12 O6 1.247 . S
C12 O7 1.258 . S
C13 O10 1.247 . S
C13 O11 1.258 . S
C14 O16 1.247 . S
C14 O18 1.258 . S
C15 O22 1.247 . S
C15 O23 1.258 . S
O16 C14 1.247 . S
O16 Zn17 2.028 . S
Zn17 O16 2.028 . S
Zn17 O21 2.035 . S
Zn17 O23 2.035 . S
Zn17 O24 2.028 . S
O18 C14 1.258 . S
O18 Zn19 2.035 . S
Zn19 O18 2.035 . S
Zn19 O20 2.028 . S
Zn19 O22 2.028 . S
Zn19 O25 2.035 . S
O20 Zn19 2.028 . S
O20 C26 1.247 . S
O21 Zn17 2.035 . S
O21 C26 1.258 . S
O22 C15 1.247 . S
O22 Zn19 2.028 . S
O23 C15 1.258 . S
O23 Zn17 2.035 . S
O24 Zn17 2.028 . S
O24 C27 1.247 . S
O25 Zn19 2.035 . S
O25 C27 1.258 . S
C26 O20 1.247 . S
C26 O21 1.258 . S
C27 O24 1.247 . S
C27 O25 1.258 . S
C28 O30 1.247 . S
C28 O32 1.258 . S
C29 O36 1.247 . S
C29 O37 1.258 . S
O30 C28 1.247 . S
O30 Zn31 2.028 . S
Zn31 O30 2.028 . S
Zn31 O35 2.035 . S
Zn31 O37 2.035 . S
Zn31 O38 2.028 1_554 S
O32 C28 1.258 . S
O32 Zn33 2.035 . S
Zn33 O32 2.035 . S
Zn33 O34 2.028 . S
Zn33 O36 2.028 . S
Zn33 O39 2.035 1_554 S
O34 Zn33 2.028 . S
O34 C40 1.247 . S
O35 Zn31 2.035 . S
O35 C40 1.258 . S
O36 C29 1.247 . S
O36 Zn33 2.028 . S
O37 C29 1.258 . S
O37 Zn31 2.035 . S
O38 Zn31 2.028 1_556 S
O38 C41 1.247 . S
O39 Zn33 2.035 1_556 S
O39 C41 1.258 . S
C40 O34 1.247 . S
C40 O35 1.258 . S
C41 O38 1.247 . S
C41 O39 1.258 . S
C42 O44 1.247 . S
C42 O46 1.258 . S
C43 O50 1.247 . S
C43 O51 1.258 . S
O44 C42 1.247 . S
O44 Zn45 2.028 . S
Zn45 O44 2.028 . S
Zn45 O49 2.035 . S
Zn45 O51 2.035 . S
Zn45 O52 2.028 . S
O46 C42 1.258 . S
O46 Zn47 2.035 . S
Zn47 O46 2.035 . S
Zn47 O48 2.028 . S
Zn47 O50 2.028 . S
Zn47 O53 2.035 . S
O48 Zn47 2.028 . S
O48 C54 1.247 . S
O49 Zn45 2.035 . S
O49 C54 1.258 . S
O50 C43 1.247 . S
O50 Zn47 2.028 . S
O51 C43 1.258 . S
O51 Zn45 2.035 . S
O52 Zn45 2.028 . S
O52 C55 1.247 . S
O53 Zn47 2.035 . S
O53 C55 1.258 . S
C54 O48 1.247 . S
C54 O49 1.258 . S
C55 O52 1.247 . S
C55 O53 1.258 . S
C56 O58 1.247 . S
C56 O60 1.258 . S
C57 O64 1.247 . S
C57 O65 1.258 . S
O58 C56 1.247 . S
O58 Zn59 2.028 . S
Zn59 O58 2.028 . S
Zn59 O63 2.035 . S
Zn59 O65 2.035 . S
Zn59 O66 2.028 . S
O60 C56 1.258 . S
O60 Zn61 2.035 . S
Zn61 O60 2.035 . S
Zn61 O62 2.028 . S
Zn61 O64 2.028 . S
Zn61 O67 2.035 . S
O62 Zn61 2.028 . S
O62 C68 1.247 . S
O63 Zn59 2.035 . S
O63 C68 1.258 . S
O64 C57 1.247 . S
O64 Zn61 2.028 . S
O65 C57 1.258 . S
O65 Zn59 2.035 . S
O66 Zn59 2.028 . S
O66 C69 1.247 . S
O67 Zn61 2.035 . S
O67 C69 1.258 . S
C68 O62 1.247 . S
C68 O63 1.258 . S
C69 O66 1.247 . S
C69 O67 1.258 . S
C70 O72 1.247 . S
C70 O74 1.258 . S
C71 O78 1.247 . S
C71 O79 1.258 . S
O72 C70 1.247 . S
O72 Zn73 2.028 . S
Zn73 O72 2.028 . S
Zn73 O77 2.035 . S
Zn73 O79 2.035 . S
Zn73 O80 2.028 1_554 S
O74 C70 1.258 . S
O74 Zn75 2.035 . S
Zn75 O74 2.035 . S
Zn75 O76 2.028 . S
Zn75 O78 2.028 . S
Zn75 O81 2.035 1_554 S
O76 Zn75 2.028 . S
O76 C82 1.247 . S
O77 Zn73 2.035 . S
O77 C82 1.258 . S
O78 C71 1.247 . S
O78 Zn75 2.028 . S
O79 C71 1.258 . S
O79 Zn73 2.035 . S
O80 Zn73 2.028 1_556 S
O80 C83 1.247 . S
O81 Zn75 2.035 1_556 S
O81 C83 1.258 . S
C82 O76 1.247 . S
C82 O77 1.258 . S
C83 O80 1.247 . S
C83 O81 1.258 . S
C84 O86 1.247 . S
C84 O88 1.258 . S
C85 O92 1.247 . S
C85 O93 1.258 . S
O86 C84 1.247 . S
O86 Zn87 2.028 . S
Zn87 O86 2.028 . S
Zn87 O91 2.035 . S
Zn87 O93 2.035 . S
Zn87 O94 2.028 . S
O88 C84 1.258 . S
O88 Zn89 2.035 . S
Zn89 O88 2.035 . S
Zn89 O90 2.028 . S
Zn89 O92 2.028 . S
Zn89 O95 2.035 . S
O90 Zn89 2.028 . S
O90 C96 1.247 . S
O91 Zn87 2.035 . S
O91 C96 1.258 . S
O92 C85 1.247 . S
O92 Zn89 2.028 . S
O93 C85 1.258 . S
O93 Zn87 2.035 . S
O94 Zn87 2.028 . S
O94 C97 1.247 . S
O95 Zn89 2.035 . S
O95 C97 1.258 . S
C96 O90 1.247 . S
C96 O91 1.258 . S
C97 O94 1.247 . S
C97 O95 1.258 . S
C98 O100 1.247 . S
C98 O102 1.258 . S
C99 O106 1.247 . S
C99 O107 1.258 . S
O100 C98 1.247 . S
O100 Zn101 2.028 . S
Zn101 O100 2.028 . S
Zn101 O105 2.035 1_554 S
Zn101 O107 2.035 . S
Zn101 O108 2.028 . S
O102 C98 1.258 . S
O102 Zn103 2.035 . S
Zn103 O102 2.035 . S
Zn103 O104 2.028 1_554 S
Zn103 O106 2.028 . S
Zn103 O109 2.035 . S
O104 Zn103 2.028 1_556 S
O104 C110 1.247 . S
O105 Zn101 2.035 1_556 S
O105 C110 1.258 . S
O106 C99 1.247 . S
O106 Zn103 2.028 . S
O107 C99 1.258 . S
O107 Zn101 2.035 . S
O108 Zn101 2.028 . S
O108 C111 1.247 . S
O109 Zn103 2.035 . S
O109 C111 1.258 . S
C110 O104 1.247 . S
C110 O105 1.258 . S
C111 O108 1.247 . S
C111 O109 1.258 . S
C112 C113 1.369 . S
C112 C114 1.419 . S
C112 H116 0.930 . S
C113 C112 1.369 . S
C113 C122 1.429 . S
C114 C112 1.419 . S
C114 C115 1.363 . S
C114 H117 0.929 . S
C115 C114 1.363 . S
C115 C121 1.428 . S
H116 C112 0.930 . S
H117 C114 0.929 . S
S118 N119 1.613 . S
S118 N120 1.610 . S
N119 S118 1.613 . S
N119 C122 1.350 . S
N120 S118 1.610 . S
N120 C121 1.351 . S
C121 C115 1.428 . S
C121 N120 1.351 . S
C121 C122 1.434 . S
C122 C113 1.429 . S
C122 N119 1.350 . S
C122 C121 1.434 . S
C123 C124 1.369 . S
C123 C125 1.419 . S
C123 H127 0.930 . S
C124 C123 1.369 . S
C124 C133 1.429 . S
C125 C123 1.419 . S
C125 C126 1.363 . S
C125 H128 0.929 . S
C126 C125 1.363 . S
C126 C132 1.428 . S
H127 C123 0.930 . S
H128 C125 0.929 . S
S129 N130 1.613 . S
S129 N131 1.610 . S
N130 S129 1.613 . S
N130 C133 1.350 . S
N131 S129 1.610 . S
N131 C132 1.351 . S
C132 C126 1.428 . S
C132 N131 1.351 . S
C132 C133 1.434 . S
C133 C124 1.429 . S
C133 N130 1.350 . S
C133 C132 1.434 . S
C134 C135 1.369 . S
C134 C136 1.419 . S
C134 H138 0.930 . S
C135 C134 1.369 . S
C135 C144 1.429 . S
C136 C134 1.419 . S
C136 C137 1.363 . S
C136 H139 0.929 . S
C137 C136 1.363 . S
C137 C143 1.428 . S
H138 C134 0.930 . S
H139 C136 0.929 . S
S140 N141 1.613 . S
S140 N142 1.610 . S
N141 S140 1.613 . S
N141 C144 1.350 . S
N142 S140 1.610 . S
N142 C143 1.351 . S
C143 C137 1.428 . S
C143 N142 1.351 . S
C143 C144 1.434 . S
C144 C135 1.429 . S
C144 N141 1.350 . S
C144 C143 1.434 . S
C145 C146 1.369 . S
C145 C147 1.419 . S
C145 H149 0.930 . S
C146 C145 1.369 . S
C146 C155 1.429 . S
C147 C145 1.419 . S
C147 C148 1.363 . S
C147 H150 0.929 . S
C148 C147 1.363 . S
C148 C154 1.428 . S
H149 C145 0.930 . S
H150 C147 0.929 . S
S151 N152 1.613 . S
S151 N153 1.610 . S
N152 S151 1.613 . S
N152 C155 1.350 . S
N153 S151 1.610 . S
N153 C154 1.351 . S
C154 C148 1.428 . S
C154 N153 1.351 . S
C154 C155 1.434 . S
C155 C146 1.429 . S
C155 N152 1.350 . S
C155 C154 1.434 . S
C156 C157 1.369 . S
C156 C158 1.419 . S
C156 H160 0.930 . S
C157 C156 1.369 . S
C157 C166 1.429 . S
C158 C156 1.419 . S
C158 C159 1.363 . S
C158 H161 0.929 . S
C159 C158 1.363 . S
C159 C165 1.428 . S
H160 C156 0.930 . S
H161 C158 0.929 . S
S162 N163 1.613 . S
S162 N164 1.610 . S
N163 S162 1.613 . S
N163 C166 1.350 . S
N164 S162 1.610 . S
N164 C165 1.351 . S
C165 C159 1.428 . S
C165 N164 1.351 . S
C165 C166 1.434 . S
C166 C157 1.429 . S
C166 N163 1.350 . S
C166 C165 1.434 . S
C167 C168 1.369 . S
C167 C169 1.419 . S
C167 H171 0.930 . S
C168 C167 1.369 . S
C168 C177 1.429 . S
C169 C167 1.419 . S
C169 C170 1.363 . S
C169 H172 0.929 . S
C170 C169 1.363 . S
C170 C176 1.428 . S
H171 C167 0.930 . S
H172 C169 0.929 . S
S173 N174 1.613 . S
S173 N175 1.610 . S
N174 S173 1.613 . S
N174 C177 1.350 . S
N175 S173 1.610 . S
N175 C176 1.351 . S
C176 C170 1.428 . S
C176 N175 1.351 . S
C176 C177 1.434 . S
C177 C168 1.429 . S
C177 N174 1.350 . S
C177 C176 1.434 . S
C178 C179 1.369 . S
C178 C180 1.419 . S
C178 H182 0.930 . S
C179 C178 1.369 . S
C179 C188 1.429 . S
C180 C178 1.419 . S
C180 C181 1.363 . S
C180 H183 0.929 . S
C181 C180 1.363 . S
C181 C187 1.428 . S
H182 C178 0.930 . S
H183 C180 0.929 . S
S184 N185 1.613 . S
S184 N186 1.610 . S
N185 S184 1.613 . S
N185 C188 1.350 . S
N186 S184 1.610 . S
N186 C187 1.351 . S
C187 C181 1.428 . S
C187 N186 1.351 . S
C187 C188 1.434 . S
C188 C179 1.429 . S
C188 N185 1.350 . S
C188 C187 1.434 . S
C189 C190 1.369 . S
C189 C191 1.419 . S
C189 H193 0.930 . S
C190 C189 1.369 . S
C190 C199 1.429 . S
C191 C189 1.419 . S
C191 C192 1.363 . S
C191 H194 0.929 . S
C192 C191 1.363 . S
C192 C198 1.428 . S
H193 C189 0.930 . S
H194 C191 0.929 . S
S195 N196 1.613 . S
S195 N197 1.610 . S
N196 S195 1.613 . S
N196 C199 1.350 . S
N197 S195 1.610 . S
N197 C198 1.351 . S
C198 C192 1.428 . S
C198 N197 1.351 . S
C198 C199 1.434 . S
C199 C190 1.429 . S
C199 N196 1.350 . S
C199 C198 1.434 . S
C200 C201 1.369 . S
C200 C202 1.419 1_655 S
C200 H204 0.930 . S
C201 C200 1.369 . S
C201 C210 1.429 1_554 S
C202 C200 1.419 1_455 S
C202 C203 1.363 . S
C202 H205 0.929 . S
C203 C202 1.363 . S
C203 C209 1.428 1_554 S
H204 C200 0.930 . S
H205 C202 0.929 . S
S206 N207 1.613 . S
S206 N208 1.610 1_655 S
N207 S206 1.613 . S
N207 C210 1.350 . S
N208 S206 1.610 1_455 S
N208 C209 1.351 . S
C209 C203 1.428 1_556 S
C209 N208 1.351 . S
C209 C210 1.434 1_455 S
C210 C201 1.429 1_556 S
C210 N207 1.350 . S
C210 C209 1.434 1_655 S
C211 C212 1.369 . S
C211 C213 1.419 1_565 S
C211 H215 0.930 . S
C212 C211 1.369 . S
C212 C221 1.429 . S
C213 C211 1.419 1_545 S
C213 C214 1.363 . S
C213 H216 0.929 . S
C214 C213 1.363 . S
C214 C220 1.428 . S
H215 C211 0.930 . S
H216 C213 0.929 . S
S217 N218 1.613 . S
S217 N219 1.610 1_565 S
N218 S217 1.613 . S
N218 C221 1.350 . S
N219 S217 1.610 1_545 S
N219 C220 1.351 . S
C220 C214 1.428 . S
C220 N219 1.351 . S
C220 C221 1.434 1_545 S
C221 C212 1.429 . S
C221 N218 1.350 . S
C221 C220 1.434 1_565 S
C222 C223 1.369 . S
C222 C224 1.419 1_455 S
C222 H226 0.930 . S
C223 C222 1.369 . S
C223 C232 1.429 . S
C224 C222 1.419 1_655 S
C224 C225 1.363 . S
C224 H227 0.929 . S
C225 C224 1.363 . S
C225 C231 1.428 . S
H226 C222 0.930 . S
H227 C224 0.929 . S
S228 N229 1.613 1_655 S
S228 N230 1.610 . S
N229 S228 1.613 1_455 S
N229 C232 1.350 . S
N230 S228 1.610 . S
N230 C231 1.351 . S
C231 C225 1.428 . S
C231 N230 1.351 . S
C231 C232 1.434 1_655 S
C232 C223 1.429 . S
C232 N229 1.350 . S
C232 C231 1.434 1_455 S
C233 C234 1.369 1_556 S
C233 C235 1.419 1_565 S
C233 H237 0.930 . S
C234 C233 1.369 1_554 S
C234 C243 1.429 . S
C235 C233 1.419 1_545 S
C235 C236 1.363 1_556 S
C235 H238 0.929 . S
C236 C235 1.363 1_554 S
C236 C242 1.428 . S
H237 C233 0.930 . S
H238 C235 0.929 . S
S239 N240 1.613 1_545 S
S239 N241 1.610 . S
N240 S239 1.613 1_565 S
N240 C243 1.350 . S
N241 S239 1.610 . S
N241 C242 1.351 . S
C242 C236 1.428 . S
C242 N241 1.351 . S
C242 C243 1.434 1_545 S
C243 C234 1.429 . S
C243 N240 1.350 . S
C243 C242 1.434 1_565 S
C244 C245 1.369 1_556 S
C244 C246 1.419 . S
C244 H248 0.930 . S
C245 C244 1.369 1_554 S
C245 C254 1.429 . S
C246 C244 1.419 . S
C246 C247 1.363 1_556 S
C246 H249 0.929 . S
C247 C246 1.363 1_554 S
C247 C253 1.428 . S
H248 C244 0.930 . S
H249 C246 0.929 . S
S250 N251 1.613 . S
S250 N252 1.610 . S
N251 S250 1.613 . S
N251 C254 1.350 . S
N252 S250 1.610 . S
N252 C253 1.351 . S
C253 C247 1.428 . S
C253 N252 1.351 . S
C253 C254 1.434 . S
C254 C245 1.429 . S
C254 N251 1.350 . S
C254 C253 1.434 . S
C255 C256 1.369 . S
C255 C257 1.419 . S
C255 H259 0.930 . S
C256 C255 1.369 . S
C256 C265 1.429 . S
C257 C255 1.419 . S
C257 C258 1.363 . S
C257 H260 0.929 . S
C258 C257 1.363 . S
C258 C264 1.428 . S
H259 C255 0.930 . S
H260 C257 0.929 . S
S261 N262 1.613 . S
S261 N263 1.610 . S
N262 S261 1.613 . S
N262 C265 1.350 . S
N263 S261 1.610 . S
N263 C264 1.351 . S
C264 C258 1.428 . S
C264 N263 1.351 . S
C264 C265 1.434 . S
C265 C256 1.429 . S
C265 N262 1.350 . S
C265 C264 1.434 . S
C266 C267 1.369 1_556 S
C266 C268 1.419 . S
C266 H270 0.930 . S
C267 C266 1.369 1_554 S
C267 C276 1.429 . S
C268 C266 1.419 . S
C268 C269 1.363 1_556 S
C268 H271 0.929 . S
C269 C268 1.363 1_554 S
C269 C275 1.428 . S
H270 C266 0.930 . S
H271 C268 0.929 . S
S272 N273 1.613 . S
S272 N274 1.610 . S
N273 S272 1.613 . S
N273 C276 1.350 . S
N274 S272 1.610 . S
N274 C275 1.351 . S
C275 C269 1.428 . S
C275 N274 1.351 . S
C275 C276 1.434 . S
C276 C267 1.429 . S
C276 N273 1.350 . S
C276 C275 1.434 . S
C277 C278 1.369 . S
C277 C279 1.419 . S
C277 H281 0.930 . S
C278 C277 1.369 . S
C278 C287 1.429 . S
C279 C277 1.419 . S
C279 C280 1.363 . S
C279 H282 0.929 . S
C280 C279 1.363 . S
C280 C286 1.428 . S
H281 C277 0.930 . S
H282 C279 0.929 . S
S283 N284 1.613 . S
S283 N285 1.610 . S
N284 S283 1.613 . S
N284 C287 1.350 . S
N285 S283 1.610 . S
N285 C286 1.351 . S
C286 C280 1.428 . S
C286 N285 1.351 . S
C286 C287 1.434 . S
C287 C278 1.429 . S
C287 N284 1.350 . S
C287 C286 1.434 . S
C113 C12 1.544 . S
C115 C56 1.535 . S
C124 C15 1.561 . S
C126 C83 1.548 . S
C135 C85 1.560 . S
C137 C40 1.550 . S
C146 C110 1.541 . S
C148 C43 1.537 . S
C157 C84 1.534 . S
C159 C41 1.544 . S
C168 C111 1.551 . S
C170 C42 1.560 . S
C179 C13 1.549 . S
C181 C57 1.560 . S
C190 C14 1.537 . S
C192 C82 1.542 . S
C201 C28 1.954 . S
C203 C1 1.956 . S
C212 C55 1.949 . S
C214 C26 1.953 . S
C223 C68 1.960 . S
C225 C96 1.948 . S
C234 C99 1.958 . S
C236 C71 1.948 . S
C245 C0 1.848 . S
C247 C70 1.849 . S
C256 C97 1.840 . S
C258 C27 1.841 . S
C267 C29 1.849 . S
C269 C98 1.848 . S
C278 C54 1.841 . S
C280 C69 1.838 . S
