# Generated by pormake.
# Topology cbo, (4)-cn, num edge types: 1
# Building blocks:
#     Node 0, Type 0, BuildingBlock: ESEHIV_clean_sbu_0, # of connection points: 4
#     Node 1, Type 0, BuildingBlock: ESEHIV_clean_sbu_0, # of connection points: 4
#     Node 2, Type 0, BuildingBlock: ESEHIV_clean_sbu_0, # of connection points: 4
#     Node 3, Type 0, BuildingBlock: ESEHIV_clean_sbu_0, # of connection points: 4
#     Node 4, Type 0, BuildingBlock: ESEHIV_clean_sbu_0, # of connection points: 4
#     Node 5, Type 0, BuildingBlock: ESEHIV_clean_sbu_0, # of connection points: 4
#     Node 6, Type 0, BuildingBlock: ESEHIV_clean_sbu_0, # of connection points: 4
#     Node 7, Type 0, BuildingBlock: ESEHIV_clean_sbu_0, # of connection points: 4
#     Node 8, Type 0, BuildingBlock: ESEHIV_clean_sbu_0, # of connection points: 4
#     Node 9, Type 0, BuildingBlock: ESEHIV_clean_sbu_0, # of connection points: 4
#     Node 10, Type 0, BuildingBlock: ESEHIV_clean_sbu_0, # of connection points: 4
#     Node 11, Type 0, BuildingBlock: ESEHIV_clean_sbu_0, # of connection points: 4
#     Node 12, Type 0, BuildingBlock: ESEHIV_clean_sbu_0, # of connection points: 4
#     Node 13, Type 0, BuildingBlock: ESEHIV_clean_sbu_0, # of connection points: 4
#     Node 14, Type 0, BuildingBlock: ESEHIV_clean_sbu_0, # of connection points: 4
#     Node 15, Type 0, BuildingBlock: ESEHIV_clean_sbu_0, # of connection points: 4
#     Node 16, Type 0, BuildingBlock: ESEHIV_clean_sbu_0, # of connection points: 4
#     Node 17, Type 0, BuildingBlock: ESEHIV_clean_sbu_0, # of connection points: 4
#     Node 18, Type 0, BuildingBlock: ESEHIV_clean_sbu_0, # of connection points: 4
#     Node 19, Type 0, BuildingBlock: ESEHIV_clean_sbu_0, # of connection points: 4
#     Node 20, Type 0, BuildingBlock: ESEHIV_clean_sbu_0, # of connection points: 4
#     Node 21, Type 0, BuildingBlock: ESEHIV_clean_sbu_0, # of connection points: 4
#     Node 22, Type 0, BuildingBlock: ESEHIV_clean_sbu_0, # of connection points: 4
#     Node 23, Type 0, BuildingBlock: ESEHIV_clean_sbu_0, # of connection points: 4
#     Edge 24, Type (0, 0), BuildingBlock: ZUJKAS_clean_linker_0, # of connection points: 2
#     Edge 25, Type (0, 0), BuildingBlock: ZUJKAS_clean_linker_0, # of connection points: 2
#     Edge 26, Type (0, 0), BuildingBlock: ZUJKAS_clean_linker_0, # of connection points: 2
#     Edge 27, Type (0, 0), BuildingBlock: ZUJKAS_clean_linker_0, # of connection points: 2
#     Edge 28, Type (0, 0), BuildingBlock: ZUJKAS_clean_linker_0, # of connection points: 2
#     Edge 29, Type (0, 0), BuildingBlock: ZUJKAS_clean_linker_0, # of connection points: 2
#     Edge 30, Type (0, 0), BuildingBlock: ZUJKAS_clean_linker_0, # of connection points: 2
#     Edge 31, Type (0, 0), BuildingBlock: ZUJKAS_clean_linker_0, # of connection points: 2
#     Edge 32, Type (0, 0), BuildingBlock: ZUJKAS_clean_linker_0, # of connection points: 2
#     Edge 33, Type (0, 0), BuildingBlock: ZUJKAS_clean_linker_0, # of connection points: 2
#     Edge 34, Type (0, 0), BuildingBlock: ZUJKAS_clean_linker_0, # of connection points: 2
#     Edge 35, Type (0, 0), BuildingBlock: ZUJKAS_clean_linker_0, # of connection points: 2
#     Edge 36, Type (0, 0), BuildingBlock: ZUJKAS_clean_linker_0, # of connection points: 2
#     Edge 37, Type (0, 0), BuildingBlock: ZUJKAS_clean_linker_0, # of connection points: 2
#     Edge 38, Type (0, 0), BuildingBlock: ZUJKAS_clean_linker_0, # of connection points: 2
#     Edge 39, Type (0, 0), BuildingBlock: ZUJKAS_clean_linker_0, # of connection points: 2
#     Edge 40, Type (0, 0), BuildingBlock: ZUJKAS_clean_linker_0, # of connection points: 2
#     Edge 41, Type (0, 0), BuildingBlock: ZUJKAS_clean_linker_0, # of connection points: 2
#     Edge 42, Type (0, 0), BuildingBlock: ZUJKAS_clean_linker_0, # of connection points: 2
#     Edge 43, Type (0, 0), BuildingBlock: ZUJKAS_clean_linker_0, # of connection points: 2
#     Edge 44, Type (0, 0), BuildingBlock: ZUJKAS_clean_linker_0, # of connection points: 2
#     Edge 45, Type (0, 0), BuildingBlock: ZUJKAS_clean_linker_0, # of connection points: 2
#     Edge 46, Type (0, 0), BuildingBlock: ZUJKAS_clean_linker_0, # of connection points: 2
#     Edge 47, Type (0, 0), BuildingBlock: ZUJKAS_clean_linker_0, # of connection points: 2
#     Edge 48, Type (0, 0), BuildingBlock: ZUJKAS_clean_linker_0, # of connection points: 2
#     Edge 49, Type (0, 0), BuildingBlock: ZUJKAS_clean_linker_0, # of connection points: 2
#     Edge 50, Type (0, 0), BuildingBlock: ZUJKAS_clean_linker_0, # of connection points: 2
#     Edge 51, Type (0, 0), BuildingBlock: ZUJKAS_clean_linker_0, # of connection points: 2
#     Edge 52, Type (0, 0), BuildingBlock: ZUJKAS_clean_linker_0, # of connection points: 2
#     Edge 53, Type (0, 0), BuildingBlock: ZUJKAS_clean_linker_0, # of connection points: 2
#     Edge 54, Type (0, 0), BuildingBlock: ZUJKAS_clean_linker_0, # of connection points: 2
#     Edge 55, Type (0, 0), BuildingBlock: ZUJKAS_clean_linker_0, # of connection points: 2
#     Edge 56, Type (0, 0), BuildingBlock: ZUJKAS_clean_linker_0, # of connection points: 2
#     Edge 57, Type (0, 0), BuildingBlock: ZUJKAS_clean_linker_0, # of connection points: 2
#     Edge 58, Type (0, 0), BuildingBlock: ZUJKAS_clean_linker_0, # of connection points: 2
#     Edge 59, Type (0, 0), BuildingBlock: ZUJKAS_clean_linker_0, # of connection points: 2
#     Edge 60, Type (0, 0), BuildingBlock: ZUJKAS_clean_linker_0, # of connection points: 2
#     Edge 61, Type (0, 0), BuildingBlock: ZUJKAS_clean_linker_0, # of connection points: 2
#     Edge 62, Type (0, 0), BuildingBlock: ZUJKAS_clean_linker_0, # of connection points: 2
#     Edge 63, Type (0, 0), BuildingBlock: ZUJKAS_clean_linker_0, # of connection points: 2
#     Edge 64, Type (0, 0), BuildingBlock: ZUJKAS_clean_linker_0, # of connection points: 2
#     Edge 65, Type (0, 0), BuildingBlock: ZUJKAS_clean_linker_0, # of connection points: 2
#     Edge 66, Type (0, 0), BuildingBlock: ZUJKAS_clean_linker_0, # of connection points: 2
#     Edge 67, Type (0, 0), BuildingBlock: ZUJKAS_clean_linker_0, # of connection points: 2
#     Edge 68, Type (0, 0), BuildingBlock: ZUJKAS_clean_linker_0, # of connection points: 2
#     Edge 69, Type (0, 0), BuildingBlock: ZUJKAS_clean_linker_0, # of connection points: 2
#     Edge 70, Type (0, 0), BuildingBlock: ZUJKAS_clean_linker_0, # of connection points: 2
#     Edge 71, Type (0, 0), BuildingBlock: ZUJKAS_clean_linker_0, # of connection points: 2
# Relax obj value: 0.116
# Max RMSD: 0.283
# Mean RMSD: 0.268
data_MOF--net-cbo--node1-ESEHIV_clean_sbu_0--edge1-ZUJKAS_clean_linker_0
_symmetry_space_group_name_H-M    P1
_symmetry_Int_Tables_number       1
_symmetry_cell_setting            triclinic
loop_
_symmetry_equiv_pos_as_xyz
'x, y, z'
_cell_length_a     70.60409
_cell_length_b     75.365342
_cell_length_c     72.226922
_cell_angle_alpha  90.037945
_cell_angle_beta   89.93632
_cell_angle_gamma 90.014712
loop_
_atom_site_label
_atom_site_type_symbol
_atom_site_fract_x
_atom_site_fract_y
_atom_site_fract_z
_atom_type_partial_charge
Cu0 Cu 0.11792 0.18136 0.32252 0.0
N1 N 0.12979 0.1891 0.34412 0.0
N2 N 0.13752 0.19355 0.37379 0.0
C3 C 0.12579 0.18508 0.36189 0.0
C4 C 0.14933 0.20314 0.36299 0.0
C5 C 0.14452 0.20037 0.34476 0.0
O6 O 0.0954 0.16766 0.32844 0.0
C7 C 0.14727 0.15681 0.31423 0.0
O8 O 0.14608 0.15285 0.3319 0.0
H9 H 0.11437 0.17632 0.36598 0.0
H10 H 0.1513 0.20612 0.33274 0.0
N11 N 0.11014 0.2012 0.30918 0.0
N12 N 0.10806 0.2222 0.28743 0.0
C13 C 0.11785 0.20798 0.29365 0.0
C14 C 0.09505 0.21146 0.31299 0.0
C15 C 0.09371 0.22441 0.2996 0.0
C16 C 0.08887 0.15587 0.31756 0.0
O17 O 0.09838 0.15188 0.30247 0.0
H18 H 0.13013 0.20234 0.28687 0.0
H19 H 0.08564 0.20955 0.32464 0.0
O20 O 0.13601 0.16828 0.30748 0.0
H21 H 0.16084 0.21138 0.36786 0.0
H22 H 0.08308 0.23473 0.29899 0.0
Cu23 Cu 0.40078 0.83544 0.8247 0.0
N24 N 0.38835 0.82859 0.84638 0.0
N25 N 0.37966 0.8251 0.87595 0.0
C26 C 0.39289 0.8317 0.86423 0.0
C27 C 0.36647 0.81752 0.86498 0.0
C28 C 0.37186 0.81969 0.84682 0.0
O29 O 0.42379 0.84858 0.83016 0.0
C30 C 0.37178 0.86011 0.81611 0.0
O31 O 0.37278 0.86397 0.83383 0.0
H32 H 0.40539 0.83895 0.8685 0.0
H33 H 0.36425 0.81521 0.8347 0.0
N34 N 0.40795 0.81512 0.81176 0.0
N35 N 0.41048 0.7944 0.7897 0.0
C36 C 0.40141 0.80928 0.79533 0.0
C37 C 0.42157 0.80364 0.81674 0.0
C38 C 0.42317 0.79086 0.8032 0.0
C39 C 0.42998 0.8607 0.81949 0.0
O40 O 0.41975 0.86551 0.80516 0.0
H41 H 0.39023 0.81585 0.78774 0.0
H42 H 0.42995 0.8047 0.82922 0.0
O43 O 0.38312 0.84867 0.80938 0.0
H44 H 0.35388 0.8107 0.86972 0.0
H45 H 0.43325 0.78005 0.80317 0.0
Cu46 Cu 0.61914 0.33708 0.69712 0.0
N47 N 0.63207 0.3337 0.67482 0.0
N48 N 0.63976 0.33033 0.64496 0.0
C49 C 0.62578 0.33415 0.65719 0.0
C50 C 0.65534 0.32748 0.65538 0.0
C51 C 0.65054 0.32952 0.6737 0.0
O52 O 0.59524 0.34943 0.69355 0.0
C53 C 0.64576 0.36284 0.70914 0.0
O54 O 0.64378 0.36914 0.69229 0.0
H55 H 0.61123 0.33688 0.65346 0.0
H56 H 0.65986 0.32805 0.68548 0.0
N57 N 0.61396 0.31489 0.70728 0.0
N58 N 0.61154 0.29255 0.72751 0.0
C59 C 0.61669 0.30966 0.7249 0.0
C60 C 0.60687 0.30071 0.69839 0.0
C61 C 0.60535 0.28691 0.71081 0.0
C62 C 0.58526 0.35301 0.70775 0.0
O63 O 0.59204 0.34916 0.7242 0.0
H64 H 0.6222 0.31832 0.73556 0.0
H65 H 0.60322 0.30041 0.68385 0.0
O66 O 0.63579 0.34961 0.71413 0.0
H67 H 0.66931 0.32434 0.65017 0.0
H68 H 0.60043 0.27365 0.70764 0.0
Cu69 Cu 0.90157 0.68157 0.19355 0.0
N70 N 0.89059 0.68754 0.17088 0.0
N71 N 0.88416 0.69046 0.14069 0.0
C72 C 0.89605 0.68348 0.15347 0.0
C73 C 0.87078 0.69913 0.15056 0.0
C74 C 0.87481 0.69733 0.16908 0.0
O75 O 0.92495 0.66836 0.19004 0.0
C76 C 0.87002 0.65934 0.20164 0.0
O77 O 0.86964 0.65684 0.18364 0.0
H78 H 0.90856 0.67575 0.1503 0.0
H79 H 0.86673 0.70268 0.18053 0.0
N80 N 0.90744 0.70267 0.20576 0.0
N81 N 0.9088 0.72403 0.22722 0.0
C82 C 0.9025 0.70756 0.22305 0.0
C83 C 0.91723 0.71642 0.19876 0.0
C84 C 0.91808 0.72962 0.21193 0.0
C85 C 0.93476 0.66428 0.20418 0.0
O86 O 0.92806 0.6681 0.22069 0.0
H87 H 0.89414 0.69932 0.23221 0.0
H88 H 0.92323 0.71681 0.18498 0.0
O89 O 0.88316 0.66879 0.20862 0.0
H90 H 0.8587 0.70606 0.14488 0.0
H91 H 0.92513 0.74229 0.21041 0.0
Cu92 Cu 0.32822 0.10317 0.17074 0.0
N93 N 0.32203 0.08256 0.15764 0.0
N94 N 0.3199 0.05446 0.14781 0.0
C95 C 0.32789 0.0657 0.16019 0.0
C96 C 0.30877 0.06476 0.13707 0.0
C97 C 0.31012 0.082 0.14316 0.0
O98 O 0.35469 0.10298 0.17812 0.0
C99 C 0.29938 0.09557 0.19766 0.0
O100 O 0.2991 0.07962 0.19035 0.0
H101 H 0.33749 0.06175 0.17111 0.0
H102 H 0.3029 0.0934 0.13743 0.0
N103 N 0.32501 0.12232 0.15477 0.0
N104 N 0.31342 0.14685 0.14164 0.0
C105 C 0.31143 0.13484 0.1554 0.0
C106 C 0.33598 0.12648 0.1402 0.0
C107 C 0.32888 0.14159 0.13205 0.0
C108 C 0.36157 0.1168 0.18569 0.0
O109 O 0.35019 0.13011 0.18949 0.0
H110 H 0.30023 0.135 0.16565 0.0
H111 H 0.34834 0.11906 0.13589 0.0
O112 O 0.31124 0.10696 0.1917 0.0
H113 H 0.30037 0.06025 0.12546 0.0
H114 H 0.33486 0.14833 0.12018 0.0
Cu115 Cu 0.19157 0.91483 0.67243 0.0
N116 N 0.19924 0.93566 0.66065 0.0
N117 N 0.20207 0.96385 0.65136 0.0
C118 C 0.19248 0.95233 0.66228 0.0
C119 C 0.2152 0.95392 0.64252 0.0
C120 C 0.21342 0.93663 0.64828 0.0
O121 O 0.16518 0.9161 0.67985 0.0
C122 C 0.21789 0.92097 0.70183 0.0
O123 O 0.21561 0.93785 0.6979 0.0
H124 H 0.18099 0.95592 0.67148 0.0
H125 H 0.22184 0.92545 0.64373 0.0
N126 N 0.19383 0.89637 0.65544 0.0
N127 N 0.20347 0.87138 0.64171 0.0
C128 C 0.20488 0.88187 0.65683 0.0
C129 C 0.1851 0.89503 0.63897 0.0
C130 C 0.19103 0.87964 0.63044 0.0
C131 C 0.15811 0.90346 0.68926 0.0
O132 O 0.16928 0.89057 0.6948 0.0
H133 H 0.21404 0.8793 0.66853 0.0
H134 H 0.1752 0.90466 0.63353 0.0
O135 O 0.20832 0.9094 0.69304 0.0
H136 H 0.22524 0.95871 0.63235 0.0
H137 H 0.1864 0.87485 0.61706 0.0
Cu138 Cu 0.82741 0.41351 0.8539 0.0
N139 N 0.82074 0.43422 0.86659 0.0
N140 N 0.81853 0.46233 0.87639 0.0
C141 C 0.82708 0.45099 0.86445 0.0
C142 C 0.80653 0.45218 0.8864 0.0
C143 C 0.80792 0.43494 0.88033 0.0
O144 O 0.8538 0.41417 0.84623 0.0
C145 C 0.79889 0.4205 0.82661 0.0
O146 O 0.7994 0.43686 0.83288 0.0
H147 H 0.83746 0.45479 0.85416 0.0
H148 H 0.80014 0.42365 0.88558 0.0
N149 N 0.8247 0.39468 0.87039 0.0
N150 N 0.81445 0.36964 0.88356 0.0
C151 C 0.81337 0.3804 0.86863 0.0
C152 C 0.83329 0.39291 0.88689 0.0
C153 C 0.82697 0.37749 0.89507 0.0
C154 C 0.86101 0.40046 0.83871 0.0
O155 O 0.84998 0.38682 0.83521 0.0
H156 H 0.80423 0.37818 0.85684 0.0
H157 H 0.84332 0.40228 0.8926 0.0
O158 O 0.81025 0.40903 0.83325 0.0
H159 H 0.79752 0.45678 0.89754 0.0
H160 H 0.83137 0.3724 0.9084 0.0
Cu161 Cu 0.69311 0.60166 0.34923 0.0
N162 N 0.69948 0.58082 0.36169 0.0
N163 N 0.70155 0.55256 0.3709 0.0
C164 C 0.69258 0.56423 0.35969 0.0
C165 C 0.71443 0.56226 0.3803 0.0
C166 C 0.71312 0.57961 0.3746 0.0
O167 O 0.66614 0.6022 0.34375 0.0
C168 C 0.70953 0.61731 0.317 0.0
O169 O 0.69659 0.62966 0.31927 0.0
H170 H 0.68154 0.56076 0.34995 0.0
H171 H 0.72161 0.59063 0.37942 0.0
N172 N 0.69768 0.6206 0.36524 0.0
N173 N 0.70871 0.64579 0.37752 0.0
C174 C 0.71005 0.6341 0.36337 0.0
C175 C 0.68832 0.62374 0.38112 0.0
C176 C 0.69506 0.63925 0.38873 0.0
C177 C 0.65832 0.6007 0.32797 0.0
O178 O 0.66883 0.59761 0.3133 0.0
H179 H 0.71952 0.63553 0.35168 0.0
H180 H 0.67724 0.61537 0.38666 0.0
O181 O 0.70966 0.60398 0.32781 0.0
H182 H 0.72406 0.55721 0.3907 0.0
H183 H 0.69032 0.64519 0.40157 0.0
Cu184 Cu 0.17141 0.34293 0.0999 0.0
N185 N 0.18194 0.3649 0.10599 0.0
N186 N 0.18581 0.39379 0.11222 0.0
C187 C 0.17357 0.38098 0.1067 0.0
C188 C 0.2024 0.38531 0.11509 0.0
C189 C 0.19996 0.36758 0.11126 0.0
O190 O 0.15578 0.34536 0.07776 0.0
C191 C 0.14635 0.32118 0.12162 0.0
O192 O 0.14056 0.31464 0.10577 0.0
H193 H 0.15886 0.38318 0.10323 0.0
H194 H 0.21053 0.35727 0.11249 0.0
N195 N 0.19122 0.32743 0.09445 0.0
N196 N 0.2108 0.30416 0.09533 0.0
C197 C 0.19574 0.31227 0.10324 0.0
C198 C 0.20379 0.32905 0.08057 0.0
C199 C 0.21589 0.31472 0.08106 0.0
C200 C 0.15252 0.3321 0.06729 0.0
O201 O 0.15873 0.31635 0.07215 0.0
H202 H 0.18793 0.30716 0.11498 0.0
H203 H 0.20408 0.3399 0.07077 0.0
O204 O 0.15838 0.33376 0.12169 0.0
H205 H 0.21532 0.39135 0.12009 0.0
H206 H 0.22765 0.3124 0.07175 0.0
Cu207 Cu 0.67043 0.17479 0.9154 0.0
N208 N 0.67558 0.15365 0.90294 0.0
N209 N 0.67623 0.12535 0.89369 0.0
C210 C 0.67013 0.13688 0.90677 0.0
C211 C 0.68593 0.13526 0.88134 0.0
C212 C 0.68551 0.15265 0.88709 0.0
O213 O 0.65778 0.17063 0.93891 0.0
C214 C 0.64393 0.18482 0.88748 0.0
O215 O 0.63924 0.16795 0.88728 0.0
H216 H 0.66153 0.13331 0.9186 0.0
H217 H 0.69185 0.16388 0.88013 0.0
N218 N 0.69331 0.18627 0.91986 0.0
N219 N 0.71589 0.20708 0.91905 0.0
C220 C 0.69775 0.20295 0.91486 0.0
C221 C 0.70908 0.17951 0.92751 0.0
C222 C 0.72303 0.19232 0.92706 0.0
C223 C 0.6486 0.18305 0.94679 0.0
O224 O 0.64697 0.19839 0.9383 0.0
H225 H 0.68782 0.21181 0.90821 0.0
H226 H 0.71042 0.1661 0.93266 0.0
O227 O 0.65611 0.19027 0.89912 0.0
H228 H 0.69295 0.1303 0.86906 0.0
H229 H 0.73745 0.19064 0.9318 0.0
Cu230 Cu 0.84924 0.84328 0.41656 0.0
N231 N 0.83958 0.86506 0.40867 0.0
N232 N 0.83657 0.89353 0.40047 0.0
C233 C 0.84808 0.88108 0.40793 0.0
C234 C 0.82026 0.88497 0.39652 0.0
C235 C 0.82217 0.86748 0.40159 0.0
O236 O 0.86392 0.84649 0.43926 0.0
C237 C 0.8696 0.81695 0.39641 0.0
O238 O 0.86704 0.80732 0.41134 0.0
H239 H 0.86252 0.88345 0.41231 0.0
H240 H 0.81165 0.85715 0.40004 0.0
N241 N 0.82865 0.82843 0.42153 0.0
N242 N 0.80769 0.80627 0.41957 0.0
C243 C 0.82269 0.81437 0.41159 0.0
C244 C 0.81692 0.82943 0.43616 0.0
C245 C 0.80399 0.81577 0.43502 0.0
C246 C 0.866 0.83377 0.4507 0.0
O247 O 0.85885 0.81815 0.44667 0.0
H248 H 0.82922 0.81022 0.39875 0.0
H249 H 0.81794 0.83923 0.44706 0.0
O250 O 0.86386 0.83297 0.39629 0.0
H251 H 0.80778 0.89094 0.39046 0.0
H252 H 0.79307 0.81282 0.44508 0.0
Cu253 Cu 0.34859 0.67918 0.6014 0.0
N254 N 0.34704 0.6577 0.61422 0.0
N255 N 0.34751 0.62916 0.62257 0.0
C256 C 0.34932 0.64081 0.60841 0.0
C257 C 0.3438 0.63912 0.63767 0.0
C258 C 0.34345 0.65664 0.63247 0.0
O259 O 0.35769 0.67652 0.57615 0.0
C260 C 0.37726 0.69092 0.6264 0.0
O261 O 0.38301 0.67434 0.62611 0.0
H262 H 0.35252 0.63716 0.59425 0.0
H263 H 0.34088 0.66792 0.64138 0.0
N264 N 0.32445 0.68903 0.60051 0.0
N265 N 0.30099 0.70871 0.60377 0.0
C266 C 0.31978 0.70569 0.60541 0.0
C267 C 0.30814 0.68115 0.59557 0.0
C268 C 0.29363 0.69327 0.59753 0.0
C269 C 0.37345 0.6697 0.57139 0.0
O270 O 0.38492 0.66359 0.58419 0.0
H271 H 0.33005 0.71539 0.61001 0.0
H272 H 0.30689 0.66751 0.59109 0.0
O273 O 0.3638 0.69566 0.61581 0.0
H274 H 0.34127 0.63407 0.65148 0.0
H275 H 0.27878 0.69075 0.59494 0.0
Cu276 Cu 0.92843 0.84146 0.69361 0.0
N277 N 0.92334 0.83185 0.67031 0.0
N278 N 0.91855 0.82862 0.63986 0.0
C279 C 0.92315 0.83998 0.65368 0.0
C280 C 0.9157 0.81283 0.64825 0.0
C281 C 0.91864 0.81487 0.66695 0.0
O282 O 0.95082 0.85656 0.69194 0.0
C283 C 0.90464 0.862 0.71743 0.0
O284 O 0.91971 0.86332 0.72797 0.0
H285 H 0.92643 0.85389 0.65179 0.0
H286 H 0.91727 0.80471 0.67744 0.0
N287 N 0.93357 0.82271 0.70971 0.0
N288 N 0.93152 0.80315 0.73289 0.0
C289 C 0.92351 0.81735 0.72456 0.0
C290 C 0.9484 0.81157 0.70858 0.0
C291 C 0.94719 0.7995 0.72284 0.0
C292 C 0.96169 0.85899 0.70578 0.0
O293 O 0.95703 0.85215 0.72188 0.0
H294 H 0.91047 0.8236 0.72897 0.0
H295 H 0.95934 0.81226 0.69812 0.0
O296 O 0.90582 0.85381 0.70206 0.0
H297 H 0.91137 0.80069 0.64145 0.0
H298 H 0.95723 0.78902 0.72571 0.0
Cu299 Cu 0.59392 0.17456 0.19357 0.0
N300 N 0.6067 0.17948 0.17153 0.0
N301 N 0.61634 0.18061 0.14205 0.0
C302 C 0.60258 0.17518 0.15383 0.0
C303 C 0.62942 0.18866 0.15278 0.0
C304 C 0.62344 0.18793 0.17087 0.0
O305 O 0.56986 0.16268 0.18939 0.0
C306 C 0.62055 0.14791 0.20294 0.0
O307 O 0.61786 0.1425 0.18585 0.0
H308 H 0.59002 0.16793 0.14977 0.0
H309 H 0.63085 0.19307 0.18283 0.0
N310 N 0.58961 0.19593 0.20584 0.0
N311 N 0.59125 0.21715 0.22747 0.0
C312 C 0.5957 0.20024 0.22291 0.0
C313 C 0.58096 0.2105 0.19929 0.0
C314 C 0.58193 0.22361 0.21258 0.0
C315 C 0.55934 0.15925 0.20326 0.0
O316 O 0.56554 0.16316 0.21992 0.0
H317 H 0.60335 0.1911 0.23169 0.0
H318 H 0.57478 0.2116 0.18564 0.0
O319 O 0.61079 0.1608 0.20911 0.0
H320 H 0.64235 0.19481 0.14789 0.0
H321 H 0.57665 0.23701 0.21109 0.0
Cu322 Cu 0.43103 0.67297 0.32513 0.0
N323 N 0.4221 0.68151 0.34784 0.0
N324 N 0.41355 0.68391 0.37758 0.0
C325 C 0.42287 0.67405 0.36481 0.0
C326 C 0.4069 0.69812 0.36825 0.0
C327 C 0.41218 0.69659 0.34999 0.0
O328 O 0.45409 0.65919 0.32825 0.0
C329 C 0.39886 0.65033 0.32121 0.0
O330 O 0.40025 0.64832 0.33922 0.0
H331 H 0.42952 0.66139 0.36758 0.0
H332 H 0.40877 0.7057 0.33892 0.0
N333 N 0.43658 0.69238 0.31009 0.0
N334 N 0.43486 0.71224 0.28716 0.0
C335 C 0.4271 0.69759 0.29487 0.0
C336 C 0.45083 0.70405 0.31213 0.0
C337 C 0.4498 0.71634 0.29803 0.0
C338 C 0.4631 0.65397 0.31397 0.0
O339 O 0.45588 0.65715 0.29754 0.0
H340 H 0.41461 0.69088 0.28974 0.0
H341 H 0.46124 0.70359 0.32309 0.0
O342 O 0.41116 0.65963 0.31273 0.0
H343 H 0.39875 0.70887 0.37419 0.0
H344 H 0.45948 0.72727 0.29584 0.0
Cu345 Cu 0.09366 0.34602 0.82217 0.0
N346 N 0.10257 0.3362 0.84421 0.0
N347 N 0.11117 0.33262 0.87371 0.0
C348 C 0.10018 0.34184 0.8618 0.0
C349 C 0.12067 0.32075 0.86326 0.0
C350 C 0.11531 0.32297 0.84511 0.0
O351 O 0.07005 0.35888 0.82655 0.0
C352 C 0.11505 0.36709 0.79639 0.0
O353 O 0.10093 0.36453 0.78488 0.0
H354 H 0.09137 0.35301 0.86566 0.0
H355 H 0.12084 0.3159 0.83324 0.0
N356 N 0.08919 0.32749 0.80551 0.0
N357 N 0.09236 0.30835 0.78204 0.0
C358 C 0.10045 0.32175 0.79166 0.0
C359 C 0.07359 0.31728 0.80477 0.0
C360 C 0.07546 0.30551 0.79028 0.0
C361 C 0.05864 0.3621 0.81331 0.0
O362 O 0.06348 0.35754 0.7964 0.0
H363 H 0.11411 0.32753 0.7885 0.0
H364 H 0.06162 0.31845 0.81405 0.0
O365 O 0.114 0.36095 0.81277 0.0
H366 H 0.13104 0.31139 0.86838 0.0
H367 H 0.06522 0.29556 0.78623 0.0
Cu368 Cu 0.68076 0.9146 0.82676 0.0
N369 N 0.6585 0.90616 0.81604 0.0
N370 N 0.62831 0.89831 0.81157 0.0
C371 C 0.64064 0.90705 0.82263 0.0
C372 C 0.63886 0.89179 0.79752 0.0
C373 C 0.65742 0.89666 0.80032 0.0
O374 O 0.6761 0.93722 0.8388 0.0
C375 C 0.70598 0.89772 0.85193 0.0
O376 O 0.71552 0.91267 0.8512 0.0
H377 H 0.63689 0.91351 0.83551 0.0
H378 H 0.6694 0.89329 0.79166 0.0
N379 N 0.69851 0.91873 0.80811 0.0
N380 N 0.72443 0.91714 0.7904 0.0
C381 C 0.71428 0.90942 0.80408 0.0
C382 C 0.6986 0.9327 0.79654 0.0
C383 C 0.71457 0.93178 0.78562 0.0
C384 C 0.67413 0.94007 0.85605 0.0
O385 O 0.67476 0.92671 0.8677 0.0
H386 H 0.7185 0.89755 0.81142 0.0
H387 H 0.68793 0.94299 0.79632 0.0
O388 O 0.69047 0.89637 0.84311 0.0
H389 H 0.63353 0.88408 0.78601 0.0
H390 H 0.7186 0.94117 0.77499 0.0
Cu391 Cu 0.83704 0.10508 0.3299 0.0
N392 N 0.86012 0.11389 0.32119 0.0
N393 N 0.89058 0.12138 0.31783 0.0
C394 C 0.87796 0.11143 0.3274 0.0
C395 C 0.88027 0.13025 0.30514 0.0
C396 C 0.86157 0.12563 0.30726 0.0
O397 O 0.83977 0.08179 0.34105 0.0
C398 C 0.81143 0.12045 0.35609 0.0
O399 O 0.80314 0.10484 0.35617 0.0
H400 H 0.88154 0.10294 0.33896 0.0
H401 H 0.84973 0.13067 0.29936 0.0
N402 N 0.82106 0.10237 0.30953 0.0
N403 N 0.79585 0.10293 0.29079 0.0
C404 C 0.80283 0.10737 0.30762 0.0
C405 C 0.82579 0.09457 0.29345 0.0
C406 C 0.81033 0.09491 0.28187 0.0
C407 C 0.84791 0.07808 0.35626 0.0
O408 O 0.85547 0.09087 0.36618 0.0
H409 H 0.79484 0.11392 0.31842 0.0
H410 H 0.8396 0.08909 0.29036 0.0
O411 O 0.82627 0.12273 0.34639 0.0
H412 H 0.88584 0.13943 0.29497 0.0
H413 H 0.80995 0.08987 0.26784 0.0
Cu414 Cu 0.1846 0.60266 0.1924 0.0
N415 N 0.16187 0.61207 0.20143 0.0
N416 N 0.13149 0.61942 0.20591 0.0
C417 C 0.14395 0.61047 0.19511 0.0
C418 C 0.14205 0.62689 0.2194 0.0
C419 C 0.16068 0.62236 0.21659 0.0
O420 O 0.18103 0.57967 0.18078 0.0
C421 C 0.1888 0.63129 0.16677 0.0
O422 O 0.1702 0.63143 0.16641 0.0
H423 H 0.14012 0.60284 0.18298 0.0
H424 H 0.17263 0.62634 0.22498 0.0
N425 N 0.20047 0.59885 0.21263 0.0
N426 N 0.225 0.60033 0.23215 0.0
C427 C 0.21733 0.60648 0.21623 0.0
C428 C 0.19732 0.58752 0.22665 0.0
C429 C 0.21239 0.58839 0.23871 0.0
C430 C 0.17267 0.57643 0.16556 0.0
O431 O 0.16522 0.58955 0.15606 0.0
H432 H 0.22372 0.61643 0.20741 0.0
H433 H 0.18496 0.57912 0.22792 0.0
O434 O 0.19732 0.61958 0.17634 0.0
H435 H 0.13675 0.63534 0.23036 0.0
H436 H 0.21404 0.58057 0.25116 0.0
Cu437 Cu 0.33775 0.41897 0.68886 0.0
N438 N 0.35903 0.40953 0.70061 0.0
N439 N 0.38872 0.40108 0.70694 0.0
C440 C 0.37718 0.40938 0.69475 0.0
C441 C 0.37729 0.39584 0.72092 0.0
C442 C 0.35905 0.40105 0.71697 0.0
O443 O 0.3447 0.43976 0.67454 0.0
C444 C 0.334 0.38878 0.66508 0.0
O445 O 0.35259 0.38878 0.66451 0.0
H446 H 0.38179 0.4153 0.68186 0.0
H447 H 0.3466 0.3987 0.72536 0.0
N448 N 0.32016 0.42596 0.70668 0.0
N449 N 0.29406 0.42619 0.72421 0.0
C450 C 0.3048 0.41678 0.71222 0.0
C451 C 0.31919 0.44167 0.71547 0.0
C452 C 0.30308 0.44186 0.7263 0.0
C453 C 0.33453 0.44545 0.66128 0.0
O454 O 0.31948 0.43637 0.65632 0.0
H455 H 0.30124 0.40373 0.70702 0.0
H456 H 0.32928 0.45235 0.71379 0.0
O457 O 0.32542 0.40089 0.67404 0.0
H458 H 0.38169 0.38842 0.733 0.0
H459 H 0.29833 0.45273 0.73494 0.0
Cu460 Cu 0.83259 0.69998 0.91638 0.0
N461 N 0.82506 0.67904 0.90463 0.0
N462 N 0.82172 0.65076 0.89569 0.0
C463 C 0.82952 0.66197 0.90823 0.0
C464 C 0.81207 0.66127 0.88386 0.0
C465 C 0.81416 0.67861 0.8894 0.0
O466 O 0.84319 0.69608 0.94084 0.0
C467 C 0.86102 0.70563 0.88905 0.0
O468 O 0.86272 0.68827 0.88921 0.0
H469 H 0.83826 0.65789 0.91975 0.0
H470 H 0.80843 0.69021 0.88261 0.0
N471 N 0.81128 0.71418 0.91977 0.0
N472 N 0.79127 0.73705 0.91785 0.0
C473 C 0.80684 0.72921 0.91067 0.0
C474 C 0.79805 0.71238 0.93305 0.0
C475 C 0.78569 0.72649 0.93192 0.0
C476 C 0.8577 0.68699 0.94517 0.0
O477 O 0.86731 0.67872 0.93219 0.0
H478 H 0.81529 0.73463 0.89951 0.0
H479 H 0.79773 0.70177 0.94312 0.0
O480 O 0.84963 0.71305 0.9003 0.0
H481 H 0.80444 0.65685 0.87172 0.0
H482 H 0.77363 0.72886 0.94085 0.0
Cu483 Cu 0.33623 0.81748 0.10478 0.0
N484 N 0.3284 0.83776 0.11751 0.0
N485 N 0.32453 0.86574 0.12718 0.0
C486 C 0.3329 0.85493 0.11461 0.0
C487 C 0.3145 0.85485 0.13835 0.0
C488 C 0.31693 0.83768 0.13236 0.0
O489 O 0.34817 0.82355 0.08136 0.0
C490 C 0.36454 0.81063 0.13174 0.0
O491 O 0.36692 0.82792 0.13149 0.0
H492 H 0.342 0.85936 0.10347 0.0
H493 H 0.3109 0.82586 0.1385 0.0
N494 N 0.31493 0.80375 0.09965 0.0
N495 N 0.2931 0.78228 0.10105 0.0
C496 C 0.30928 0.78886 0.10837 0.0
C497 C 0.302 0.80671 0.08637 0.0
C498 C 0.28851 0.79352 0.0872 0.0
C499 C 0.35715 0.81176 0.07229 0.0
O500 O 0.35929 0.79594 0.07964 0.0
H501 H 0.31676 0.78316 0.11999 0.0
H502 H 0.30242 0.81768 0.07673 0.0
O503 O 0.35266 0.8036 0.12073 0.0
H504 H 0.30626 0.85892 0.15025 0.0
H505 H 0.27641 0.79219 0.07811 0.0
Cu506 Cu 0.19051 0.19911 0.59992 0.0
N507 N 0.20085 0.17677 0.60507 0.0
N508 N 0.20465 0.14806 0.6121 0.0
C509 C 0.19222 0.16164 0.61046 0.0
C510 C 0.22172 0.15506 0.6079 0.0
C511 C 0.21933 0.17268 0.60361 0.0
O512 O 0.1765 0.19903 0.5767 0.0
C513 C 0.16667 0.22215 0.61981 0.0
O514 O 0.16675 0.23101 0.60415 0.0
H515 H 0.17711 0.16053 0.6127 0.0
H516 H 0.23035 0.18186 0.59959 0.0
N517 N 0.21052 0.21488 0.59623 0.0
N518 N 0.23153 0.23681 0.59961 0.0
C519 C 0.21656 0.22823 0.60715 0.0
C520 C 0.2219 0.21509 0.5813 0.0
C521 C 0.23491 0.22854 0.58336 0.0
C522 C 0.16728 0.18611 0.56978 0.0
O523 O 0.16534 0.1714 0.57931 0.0
H524 H 0.21022 0.23148 0.62038 0.0
H525 H 0.22074 0.20608 0.56969 0.0
O526 O 0.17554 0.20749 0.62071 0.0
H527 H 0.23506 0.14801 0.60797 0.0
H528 H 0.24578 0.23216 0.57348 0.0
Cu529 Cu 0.6809 0.31676 0.41705 0.0
N530 N 0.69105 0.33712 0.40617 0.0
N531 N 0.69518 0.36502 0.39632 0.0
C532 C 0.68386 0.35369 0.40578 0.0
C533 C 0.71005 0.35509 0.39068 0.0
C534 C 0.70744 0.33796 0.39675 0.0
O535 O 0.66739 0.32286 0.43962 0.0
C536 C 0.65276 0.31178 0.38912 0.0
O537 O 0.64914 0.32875 0.39135 0.0
H538 H 0.67048 0.35724 0.41209 0.0
H539 H 0.71686 0.32684 0.3945 0.0
N540 N 0.70063 0.30143 0.42325 0.0
N541 N 0.72008 0.27804 0.42286 0.0
C542 C 0.70604 0.28676 0.414 0.0
C543 C 0.71162 0.3021 0.43842 0.0
C544 C 0.72363 0.28767 0.43824 0.0
C545 C 0.661 0.31065 0.45007 0.0
O546 O 0.66248 0.29407 0.44463 0.0
H547 H 0.6994 0.28232 0.40131 0.0
H548 H 0.71073 0.31223 0.44901 0.0
O549 O 0.66515 0.30438 0.39926 0.0
H550 H 0.72216 0.35987 0.38296 0.0
H551 H 0.73415 0.28455 0.44862 0.0
H552 H 0.15852 0.32907 0.1567 0.0
H553 H 0.15175 0.31279 0.18524 0.0
H554 H 0.11477 0.27756 0.15517 0.0
H555 H 0.12165 0.29356 0.1265 0.0
H556 H 0.1183 0.30572 0.20401 0.0
H557 H 0.15209 0.24346 0.17972 0.0
H558 H 0.1551 0.26435 0.1679 0.0
H559 H 0.13388 0.25155 0.1646 0.0
C560 C 0.14883 0.31794 0.15615 0.0
C561 C 0.14074 0.31254 0.13925 0.0
C562 C 0.145 0.30864 0.17249 0.0
C563 C 0.13306 0.29374 0.17227 0.0
C564 C 0.12437 0.28876 0.15558 0.0
H565 H 0.08261 0.24049 0.26682 0.0
H566 H 0.08899 0.25828 0.23926 0.0
C567 C 0.12822 0.29802 0.13922 0.0
C568 C 0.12992 0.2833 0.18943 0.0
H569 H 0.13494 0.24188 0.20798 0.0
C570 C 0.12197 0.29178 0.20491 0.0
C571 C 0.13504 0.26518 0.19069 0.0
C572 C 0.14467 0.25561 0.17492 0.0
C573 C 0.11864 0.28253 0.22149 0.0
C574 C 0.12307 0.26423 0.2225 0.0
C575 C 0.13137 0.25586 0.20714 0.0
C576 C 0.11921 0.25351 0.23935 0.0
C577 C 0.1107 0.29253 0.23785 0.0
C578 C 0.13398 0.24446 0.24829 0.0
C579 C 0.13035 0.23417 0.26402 0.0
C580 C 0.11185 0.23268 0.27111 0.0
C581 C 0.09707 0.24162 0.26198 0.0
C582 C 0.1007 0.25183 0.24622 0.0
H583 H 0.11322 0.30704 0.23661 0.0
H584 H 0.09517 0.29037 0.23856 0.0
H585 H 0.11705 0.28782 0.25102 0.0
H586 H 0.14837 0.24549 0.24318 0.0
H587 H 0.14208 0.22759 0.27078 0.0
H588 H 0.3944 0.80615 0.75767 0.0
H589 H 0.3895 0.78924 0.7292 0.0
H590 H 0.41593 0.74361 0.75419 0.0
H591 H 0.42013 0.76007 0.78291 0.0
H592 H 0.41535 0.77335 0.70599 0.0
H593 H 0.3668 0.7228 0.73528 0.0
H594 H 0.37277 0.74294 0.74747 0.0
H595 H 0.38878 0.72436 0.7476 0.0
C596 C 0.39892 0.79245 0.75727 0.0
C597 C 0.40758 0.78451 0.77275 0.0
C598 C 0.39625 0.78283 0.74088 0.0
C599 C 0.40209 0.76507 0.73964 0.0
C600 C 0.41095 0.75718 0.75493 0.0
H601 H 0.40118 0.68345 0.65515 0.0
H602 H 0.40849 0.70232 0.68177 0.0
C603 C 0.41356 0.76673 0.77132 0.0
C604 C 0.39916 0.75482 0.72229 0.0
H605 H 0.37903 0.717 0.70517 0.0
C606 C 0.40731 0.76109 0.70578 0.0
C607 C 0.38862 0.73884 0.72201 0.0
C608 C 0.37858 0.73191 0.73899 0.0
C609 C 0.40556 0.75158 0.6891 0.0
C610 C 0.3953 0.73548 0.68894 0.0
C611 C 0.38705 0.72928 0.70539 0.0
C612 C 0.39261 0.72491 0.67182 0.0
C613 C 0.41498 0.75862 0.67186 0.0
C614 C 0.38146 0.73146 0.65728 0.0
C615 C 0.3772 0.72069 0.64205 0.0
C616 C 0.38399 0.70315 0.6411 0.0
C617 C 0.39576 0.69689 0.65538 0.0
C618 C 0.39992 0.70763 0.67064 0.0
H619 H 0.42557 0.76908 0.67507 0.0
H620 H 0.4221 0.74774 0.66416 0.0
H621 H 0.40406 0.76445 0.66265 0.0
H622 H 0.37547 0.74467 0.65804 0.0
H623 H 0.36804 0.72593 0.63134 0.0
H624 H 0.6344 0.29874 0.75715 0.0
H625 H 0.63702 0.28085 0.78524 0.0
H626 H 0.59444 0.24506 0.76446 0.0
H627 H 0.59143 0.26299 0.73646 0.0
H628 H 0.60779 0.27068 0.81164 0.0
H629 H 0.64078 0.21291 0.77613 0.0
H630 H 0.63978 0.23469 0.76577 0.0
H631 H 0.61905 0.22088 0.7662 0.0
C632 C 0.62541 0.2872 0.75858 0.0
C633 C 0.61278 0.2823 0.74439 0.0
C634 C 0.627 0.27694 0.77464 0.0
C635 C 0.61611 0.26152 0.7768 0.0
C636 C 0.60322 0.25675 0.7629 0.0
H637 H 0.61837 0.17769 0.85993 0.0
H638 H 0.60963 0.19683 0.83394 0.0
C639 C 0.60158 0.26701 0.74686 0.0
C640 C 0.61841 0.2503 0.79351 0.0
H641 H 0.63368 0.20959 0.80783 0.0
C642 C 0.61343 0.25731 0.81085 0.0
C643 C 0.6257 0.23286 0.79239 0.0
C644 C 0.63179 0.22486 0.77417 0.0
C645 C 0.61544 0.24728 0.82713 0.0
C646 C 0.62302 0.22992 0.82605 0.0
C647 C 0.62781 0.22287 0.80866 0.0
C648 C 0.62686 0.21902 0.84278 0.0
C649 C 0.60916 0.25528 0.84528 0.0
C650 C 0.63933 0.22517 0.85648 0.0
C651 C 0.64426 0.21431 0.8714 0.0
C652 C 0.637 0.19697 0.87282 0.0
C653 C 0.6242 0.19097 0.85929 0.0
C654 C 0.61921 0.20189 0.8444 0.0
H655 H 0.59849 0.26592 0.84314 0.0
H656 H 0.60301 0.24506 0.85458 0.0
H657 H 0.62157 0.26129 0.8523 0.0
H658 H 0.64578 0.23816 0.85532 0.0
H659 H 0.65427 0.21933 0.88148 0.0
H660 H 0.90738 0.75976 0.23147 0.0
H661 H 0.90279 0.77624 0.26031 0.0
H662 H 0.89879 0.72701 0.29042 0.0
H663 H 0.90373 0.71042 0.26167 0.0
H664 H 0.87113 0.77363 0.28503 0.0
H665 H 0.93898 0.75613 0.31935 0.0
H666 H 0.9353 0.75356 0.29474 0.0
H667 H 0.92555 0.73766 0.31063 0.0
C668 C 0.90576 0.75242 0.24424 0.0
C669 C 0.90602 0.73375 0.24424 0.0
C670 C 0.90303 0.76187 0.2607 0.0
C671 C 0.9007 0.75286 0.27753 0.0
C672 C 0.90086 0.73423 0.27762 0.0
H673 H 0.87856 0.78206 0.39105 0.0
H674 H 0.88674 0.76737 0.36198 0.0
C675 C 0.90348 0.72476 0.26114 0.0
C676 C 0.8975 0.76295 0.29489 0.0
H677 H 0.91624 0.77134 0.3376 0.0
C678 C 0.88103 0.77325 0.2965 0.0
C679 C 0.91044 0.76236 0.30981 0.0
C680 C 0.92865 0.75196 0.30859 0.0
C681 C 0.87687 0.78262 0.31282 0.0
C682 C 0.88981 0.78204 0.32779 0.0
C683 C 0.90637 0.77184 0.32611 0.0
C684 C 0.88603 0.79135 0.34556 0.0
C685 C 0.85836 0.79257 0.3141 0.0
C686 C 0.88343 0.80983 0.34612 0.0
C687 C 0.87865 0.81829 0.36274 0.0
C688 C 0.87657 0.80845 0.37916 0.0
C689 C 0.88 0.79006 0.37868 0.0
C690 C 0.88468 0.78162 0.36205 0.0
H691 H 0.84805 0.78797 0.30352 0.0
H692 H 0.85186 0.791 0.32801 0.0
H693 H 0.861 0.8069 0.31174 0.0
H694 H 0.88486 0.81768 0.33364 0.0
H695 H 0.87624 0.83249 0.36264 0.0
H696 H 0.29327 0.12842 0.21286 0.0
H697 H 0.26781 0.1373 0.23388 0.0
H698 H 0.24712 0.08347 0.23493 0.0
H699 H 0.27235 0.07451 0.21367 0.0
H700 H 0.21888 0.10736 0.22858 0.0
H701 H 0.26146 0.12867 0.28903 0.0
H702 H 0.26836 0.13938 0.26788 0.0
H703 H 0.27133 0.11578 0.27029 0.0
C704 C 0.28346 0.11841 0.21773 0.0
C705 C 0.28491 0.10073 0.21159 0.0
C706 C 0.26894 0.1235 0.22983 0.0
C707 C 0.25568 0.11101 0.23619 0.0
C708 C 0.25723 0.09332 0.23027 0.0
H709 H 0.1733 0.13154 0.32398 0.0
H710 H 0.19899 0.11945 0.30502 0.0
C711 C 0.2717 0.08822 0.21813 0.0
C712 C 0.23962 0.11655 0.24821 0.0
H713 H 0.22884 0.13693 0.28916 0.0
C714 C 0.22106 0.11372 0.24188 0.0
C715 C 0.24244 0.12465 0.26568 0.0
C716 C 0.26197 0.12715 0.27374 0.0
C717 C 0.20527 0.11913 0.25232 0.0
C718 C 0.20811 0.12792 0.26942 0.0
C719 C 0.22666 0.13036 0.27597 0.0
C720 C 0.19206 0.13482 0.28066 0.0
C721 C 0.1857 0.11518 0.24502 0.0
C722 C 0.17963 0.14754 0.27331 0.0
C723 C 0.16487 0.15441 0.28408 0.0
C724 C 0.16233 0.14884 0.30251 0.0
C725 C 0.1748 0.13609 0.30983 0.0
C726 C 0.18953 0.12919 0.29902 0.0
H727 H 0.1859 0.10408 0.23488 0.0
H728 H 0.17582 0.11173 0.25643 0.0
H729 H 0.18013 0.1271 0.23785 0.0
H730 H 0.18154 0.1524 0.25933 0.0
H731 H 0.15564 0.16431 0.27804 0.0
H732 H 0.3443 0.88377 0.82646 0.0
H733 H 0.31807 0.89501 0.80773 0.0
H734 H 0.33831 0.86507 0.76084 0.0
H735 H 0.36472 0.85389 0.77938 0.0
H736 H 0.3276 0.89986 0.75198 0.0
H737 H 0.2717 0.86548 0.79251 0.0
H738 H 0.28716 0.87931 0.806 0.0
H739 H 0.29649 0.86 0.79458 0.0
C740 C 0.34325 0.87962 0.81214 0.0
C741 C 0.35657 0.86784 0.80446 0.0
C742 C 0.32816 0.88598 0.80149 0.0
C743 C 0.32604 0.88062 0.78299 0.0
C744 C 0.33961 0.86928 0.77512 0.0
H745 H 0.22745 0.88711 0.71196 0.0
H746 H 0.25355 0.87783 0.73198 0.0
C747 C 0.35471 0.86291 0.78575 0.0
C748 C 0.30965 0.88677 0.77183 0.0
H749 H 0.26134 0.88543 0.76929 0.0
C750 C 0.31311 0.89673 0.75576 0.0
C751 C 0.29077 0.88246 0.77666 0.0
C752 C 0.28623 0.87109 0.79328 0.0
C753 C 0.29818 0.90265 0.74449 0.0
C754 C 0.27928 0.89871 0.74957 0.0
C755 C 0.27583 0.8886 0.76554 0.0
C756 C 0.26292 0.90451 0.73817 0.0
C757 C 0.3028 0.91274 0.72702 0.0
C758 C 0.25924 0.92261 0.73536 0.0
C759 C 0.24431 0.92798 0.72392 0.0
C760 C 0.23272 0.91534 0.71513 0.0
C761 C 0.2361 0.89721 0.71847 0.0
C762 C 0.25102 0.89187 0.72991 0.0
H763 H 0.31784 0.91098 0.72284 0.0
H764 H 0.29359 0.90841 0.71542 0.0
H765 H 0.30033 0.9271 0.72939 0.0
H766 H 0.26801 0.9326 0.7419 0.0
H767 H 0.24207 0.94204 0.72175 0.0
H768 H 0.77171 0.44138 0.81065 0.0
H769 H 0.74585 0.43209 0.79036 0.0
H770 H 0.76619 0.37819 0.79207 0.0
H771 H 0.79225 0.38736 0.81227 0.0
H772 H 0.75573 0.3896 0.75637 0.0
H773 H 0.69938 0.40379 0.80797 0.0
H774 H 0.71487 0.42216 0.80326 0.0
H775 H 0.72413 0.40253 0.8141 0.0
C776 C 0.77078 0.42755 0.80666 0.0
C777 C 0.78403 0.4151 0.8132 0.0
C778 C 0.75589 0.42225 0.79513 0.0
C779 C 0.75388 0.4044 0.78998 0.0
C780 C 0.7674 0.39202 0.79598 0.0
H781 H 0.65469 0.35201 0.74429 0.0
H782 H 0.68091 0.36229 0.76369 0.0
C783 C 0.7823 0.3973 0.80752 0.0
C784 C 0.7376 0.39859 0.77843 0.0
H785 H 0.68926 0.39611 0.77771 0.0
C786 C 0.7412 0.39101 0.76102 0.0
C787 C 0.71866 0.40022 0.78464 0.0
C788 C 0.71395 0.40746 0.80358 0.0
C789 C 0.72635 0.38526 0.74954 0.0
C790 C 0.70738 0.38735 0.75553 0.0
C791 C 0.7038 0.39468 0.77306 0.0
C792 C 0.69107 0.38167 0.74396 0.0
C793 C 0.73111 0.37669 0.73123 0.0
C794 C 0.6878 0.38945 0.7266 0.0
C795 C 0.67281 0.38363 0.71548 0.0
C796 C 0.66073 0.36995 0.72153 0.0
C797 C 0.66373 0.36254 0.73917 0.0
C798 C 0.67872 0.36839 0.75028 0.0
H799 H 0.74606 0.37213 0.73073 0.0
H800 H 0.7217 0.36517 0.7285 0.0
H801 H 0.72903 0.38649 0.71995 0.0
H802 H 0.69691 0.39997 0.7216 0.0
H803 H 0.67088 0.38969 0.70202 0.0
H804 H 0.83672 0.64436 0.19028 0.0
H805 H 0.80942 0.63627 0.20929 0.0
H806 H 0.84011 0.65111 0.25852 0.0
H807 H 0.86731 0.65978 0.23953 0.0
H808 H 0.80376 0.61257 0.23625 0.0
H809 H 0.79274 0.68021 0.26438 0.0
H810 H 0.80892 0.67574 0.24562 0.0
H811 H 0.81591 0.67163 0.2692 0.0
C812 C 0.83773 0.64585 0.20516 0.0
C813 C 0.85417 0.65288 0.21336 0.0
C814 C 0.82207 0.64121 0.21602 0.0
C815 C 0.82251 0.64344 0.23532 0.0
C816 C 0.83921 0.64974 0.24362 0.0
H817 H 0.74212 0.59792 0.31351 0.0
H818 H 0.76899 0.60375 0.2931 0.0
C819 C 0.85482 0.65456 0.23275 0.0
C820 C 0.80543 0.63931 0.24664 0.0
H821 H 0.77444 0.65714 0.2779 0.0
C822 C 0.79731 0.62233 0.24532 0.0
C823 C 0.79676 0.65215 0.25821 0.0
C824 C 0.80389 0.671 0.25933 0.0
C825 C 0.781 0.61775 0.25544 0.0
C826 C 0.77282 0.63036 0.26761 0.0
C827 C 0.78078 0.64741 0.26871 0.0
C828 C 0.75606 0.62621 0.27938 0.0
C829 C 0.77249 0.59958 0.25265 0.0
C830 C 0.73989 0.63707 0.27877 0.0
C831 C 0.72456 0.63392 0.29065 0.0
C832 C 0.72507 0.61981 0.30338 0.0
C833 C 0.74115 0.60878 0.30375 0.0
C834 C 0.75652 0.61204 0.29199 0.0
H835 H 0.7766 0.59385 0.23905 0.0
H836 H 0.77777 0.59054 0.2636 0.0
H837 H 0.75679 0.60001 0.25348 0.0
H838 H 0.7392 0.64812 0.26922 0.0
H839 H 0.71244 0.64269 0.29002 0.0
H840 H 0.30838 0.16339 0.10866 0.0
H841 H 0.28932 0.18978 0.10261 0.0
H842 H 0.27211 0.19119 0.15988 0.0
H843 H 0.29163 0.16508 0.16621 0.0
H844 H 0.25015 0.1948 0.10773 0.0
H845 H 0.29234 0.24156 0.15072 0.0
H846 H 0.30109 0.21999 0.14401 0.0
H847 H 0.28411 0.22199 0.16243 0.0
C848 C 0.30074 0.16939 0.12004 0.0
C849 C 0.3017 0.16215 0.13797 0.0
C850 C 0.28973 0.18441 0.11652 0.0
C851 C 0.27951 0.19258 0.13084 0.0
C852 C 0.28014 0.18526 0.14869 0.0
H853 H 0.21093 0.28933 0.12963 0.0
H854 H 0.22617 0.26153 0.13885 0.0
C855 C 0.29116 0.17021 0.15224 0.0
C856 C 0.26814 0.2087 0.12694 0.0
H857 H 0.2648 0.25297 0.13656 0.0
C858 C 0.25332 0.20751 0.11406 0.0
C859 C 0.27226 0.22524 0.13528 0.0
C860 C 0.2884 0.22741 0.14878 0.0
C861 C 0.24254 0.22246 0.10923 0.0
C862 C 0.24693 0.23909 0.11725 0.0
C863 C 0.26148 0.2402 0.13043 0.0
C864 C 0.23715 0.25562 0.11157 0.0
C865 C 0.22646 0.2203 0.09567 0.0
C866 C 0.2384 0.26159 0.09321 0.0
C867 C 0.22966 0.27741 0.08789 0.0
C868 C 0.21956 0.28768 0.10083 0.0
C869 C 0.21837 0.28166 0.11925 0.0
C870 C 0.22716 0.26582 0.12457 0.0
H871 H 0.22153 0.20631 0.09496 0.0
H872 H 0.21428 0.22888 0.09946 0.0
H873 H 0.23139 0.22419 0.08165 0.0
H874 H 0.24632 0.25409 0.08302 0.0
H875 H 0.23075 0.28152 0.07358 0.0
H876 H 0.8018 0.34642 0.85767 0.0
H877 H 0.78434 0.3188 0.86317 0.0
H878 H 0.78659 0.3282 0.922 0.0
H879 H 0.80381 0.3559 0.91663 0.0
H880 H 0.7967 0.28887 0.88605 0.0
H881 H 0.72929 0.31937 0.91002 0.0
H882 H 0.74678 0.3315 0.89683 0.0
H883 H 0.75044 0.32743 0.92105 0.0
C884 C 0.79842 0.34269 0.87176 0.0
C885 C 0.80416 0.35338 0.88672 0.0
C886 C 0.78855 0.32687 0.87488 0.0
C887 C 0.78404 0.32157 0.89297 0.0
C888 C 0.78977 0.33216 0.90792 0.0
H889 H 0.74787 0.21952 0.93558 0.0
H890 H 0.76463 0.24709 0.92863 0.0
C891 C 0.79975 0.34791 0.90483 0.0
C892 C 0.77364 0.3048 0.89627 0.0
H893 H 0.73205 0.28816 0.91309 0.0
C894 C 0.78255 0.28868 0.89192 0.0
C895 C 0.75513 0.30466 0.90377 0.0
C896 C 0.74472 0.32164 0.90808 0.0
C897 C 0.77354 0.27236 0.89521 0.0
C898 C 0.75522 0.27221 0.90314 0.0
C899 C 0.74617 0.28834 0.90715 0.0
C900 C 0.74515 0.25542 0.90726 0.0
C901 C 0.78358 0.25541 0.89002 0.0
C902 C 0.72849 0.2511 0.89772 0.0
C903 C 0.71893 0.23528 0.90155 0.0
C904 C 0.72572 0.2235 0.91515 0.0
C905 C 0.74235 0.22804 0.92482 0.0
C906 C 0.75196 0.24384 0.9209 0.0
H907 H 0.79572 0.25786 0.88057 0.0
H908 H 0.78907 0.24898 0.90275 0.0
H909 H 0.77365 0.246 0.88324 0.0
H910 H 0.72301 0.2599 0.88715 0.0
H911 H 0.70636 0.23222 0.89362 0.0
H912 H 0.77164 0.79619 0.42736 0.0
H913 H 0.75603 0.76866 0.4181 0.0
H914 H 0.80604 0.75289 0.388 0.0
H915 H 0.82202 0.7801 0.39771 0.0
H916 H 0.74839 0.75553 0.38258 0.0
H917 H 0.79587 0.71014 0.42156 0.0
H918 H 0.79533 0.73376 0.42567 0.0
H919 H 0.80764 0.725 0.40588 0.0
C920 C 0.77942 0.78682 0.41893 0.0
C921 C 0.79817 0.79036 0.41342 0.0
C922 C 0.77041 0.77113 0.41353 0.0
C923 C 0.77997 0.75861 0.40259 0.0
C924 C 0.79852 0.76223 0.39672 0.0
H925 H 0.74384 0.65357 0.36444 0.0
H926 H 0.76146 0.68127 0.36887 0.0
C927 C 0.80756 0.77792 0.40212 0.0
C928 C 0.77041 0.74181 0.39737 0.0
H929 H 0.77241 0.69682 0.40287 0.0
C930 C 0.75365 0.74269 0.38698 0.0
C931 C 0.77736 0.72506 0.40307 0.0
C932 C 0.79495 0.72334 0.41479 0.0
C933 C 0.7436 0.72728 0.3822 0.0
C934 C 0.75033 0.71058 0.38822 0.0
C935 C 0.7673 0.70965 0.39826 0.0
C936 C 0.7395 0.69401 0.38501 0.0
C937 C 0.7259 0.729 0.37064 0.0
C938 C 0.72141 0.69194 0.39275 0.0
C939 C 0.71132 0.67618 0.39022 0.0
C940 C 0.71914 0.6621 0.37995 0.0
C941 C 0.73731 0.66421 0.37223 0.0
C942 C 0.74744 0.67999 0.37482 0.0
H943 H 0.72563 0.74173 0.36288 0.0
H944 H 0.72468 0.71787 0.36063 0.0
H945 H 0.71333 0.72868 0.37987 0.0
H946 H 0.71515 0.70247 0.40093 0.0
H947 H 0.69731 0.67512 0.3962 0.0
H948 H 0.21647 0.84787 0.66714 0.0
H949 H 0.23349 0.82016 0.66108 0.0
H950 H 0.22959 0.82966 0.60236 0.0
H951 H 0.21292 0.85753 0.60829 0.0
H952 H 0.22091 0.79036 0.63959 0.0
H953 H 0.28676 0.82057 0.61159 0.0
H954 H 0.26966 0.83304 0.6249 0.0
H955 H 0.26521 0.82812 0.60096 0.0
C956 C 0.2194 0.84417 0.65295 0.0
C957 C 0.21338 0.85497 0.6382 0.0
C958 C 0.22902 0.82827 0.64951 0.0
C959 C 0.23297 0.82298 0.63129 0.0
C960 C 0.22689 0.83364 0.61654 0.0
H961 H 0.26698 0.71943 0.59016 0.0
H962 H 0.25017 0.74693 0.5974 0.0
C963 C 0.2172 0.84948 0.61995 0.0
C964 C 0.24321 0.80616 0.62768 0.0
H965 H 0.28383 0.78932 0.60893 0.0
C966 C 0.23469 0.79011 0.63293 0.0
C967 C 0.26126 0.80592 0.61917 0.0
C968 C 0.27139 0.82282 0.61395 0.0
C969 C 0.24361 0.77375 0.62959 0.0
C970 C 0.26142 0.77349 0.62061 0.0
C971 C 0.27009 0.78956 0.61566 0.0
C972 C 0.27143 0.75666 0.61641 0.0
C973 C 0.23403 0.75691 0.6359 0.0
C974 C 0.28909 0.75315 0.62447 0.0
C975 C 0.29872 0.73742 0.62041 0.0
C976 C 0.29096 0.72491 0.60806 0.0
C977 C 0.27327 0.72857 0.59994 0.0
C978 C 0.26363 0.7443 0.60405 0.0
H979 H 0.22278 0.75958 0.6463 0.0
H980 H 0.22738 0.75031 0.62381 0.0
H981 H 0.24447 0.74757 0.64199 0.0
H982 H 0.29536 0.76253 0.63404 0.0
H983 H 0.31215 0.73501 0.62714 0.0
H984 H 0.8577 0.7413 0.88261 0.0
H985 H 0.87067 0.75818 0.85661 0.0
H986 H 0.89873 0.71114 0.8365 0.0
H987 H 0.88562 0.69407 0.8623 0.0
H988 H 0.90789 0.76436 0.84468 0.0
H989 H 0.86684 0.72682 0.79212 0.0
H990 H 0.86178 0.72547 0.81657 0.0
H991 H 0.88123 0.71319 0.80685 0.0
C992 C 0.86675 0.73455 0.87275 0.0
C993 C 0.87048 0.71627 0.87446 0.0
C994 C 0.87415 0.74423 0.85789 0.0
C995 C 0.88535 0.73584 0.84443 0.0
C996 C 0.88976 0.71779 0.84651 0.0
H997 H 0.93805 0.76874 0.74178 0.0
H998 H 0.92722 0.75299 0.76938 0.0
C999 C 0.88235 0.70808 0.86134 0.0
C1000 C 0.89207 0.74589 0.82802 0.0
H1001 H 0.88961 0.74722 0.78081 0.0
C1002 C 0.90385 0.76067 0.83071 0.0
C1003 C 0.8867 0.74108 0.80982 0.0
C1004 C 0.8733 0.72588 0.8061 0.0
C1005 C 0.91077 0.77054 0.81565 0.0
C1006 C 0.9055 0.76564 0.79745 0.0
C1007 C 0.89366 0.75091 0.79477 0.0
C1008 C 0.91228 0.77548 0.78094 0.0
C1009 C 0.92398 0.78589 0.81929 0.0
C1010 C 0.90731 0.79331 0.77817 0.0
C1011 C 0.91355 0.80239 0.7624 0.0
C1012 C 0.92486 0.79379 0.74908 0.0
C1013 C 0.92964 0.77587 0.75187 0.0
C1014 C 0.92336 0.7668 0.76759 0.0
H1015 H 0.93014 0.78531 0.83342 0.0
H1016 H 0.9357 0.78611 0.80902 0.0
H1017 H 0.916 0.79851 0.81802 0.0
H1018 H 0.89849 0.80017 0.78814 0.0
H1019 H 0.90969 0.8162 0.76077 0.0
H1020 H 0.57541 0.24754 0.2409 0.0
H1021 H 0.58482 0.26399 0.26852 0.0
H1022 H 0.62703 0.22434 0.28056 0.0
H1023 H 0.61845 0.20827 0.2526 0.0
H1024 H 0.58482 0.25478 0.30505 0.0
H1025 H 0.65814 0.26924 0.28214 0.0
H1026 H 0.64033 0.26072 0.2666 0.0
H1027 H 0.65279 0.24598 0.28194 0.0
C1028 C 0.58687 0.24238 0.24923 0.0
C1029 C 0.59624 0.22657 0.24425 0.0
C1030 C 0.59213 0.25177 0.26514 0.0
C1031 C 0.60688 0.24559 0.27643 0.0
C1032 C 0.61591 0.22961 0.27183 0.0
H1033 H 0.66026 0.27768 0.37848 0.0
H1034 H 0.64779 0.26185 0.3516 0.0
C1035 C 0.61077 0.22027 0.25588 0.0
C1036 C 0.61276 0.25577 0.29308 0.0
H1037 H 0.65106 0.27506 0.31382 0.0
C1038 C 0.59927 0.25933 0.30691 0.0
C1039 C 0.6316 0.26181 0.29546 0.0
C1040 C 0.6465 0.25941 0.28067 0.0
C1041 C 0.60425 0.26831 0.32327 0.0
C1042 C 0.62316 0.27395 0.32578 0.0
C1043 C 0.63659 0.27059 0.31189 0.0
C1044 C 0.62947 0.28322 0.3428 0.0
C1045 C 0.58939 0.27136 0.33796 0.0
C1046 C 0.62321 0.30047 0.3468 0.0
C1047 C 0.63036 0.30963 0.36215 0.0
C1048 C 0.64392 0.30167 0.37376 0.0
C1049 C 0.64981 0.28422 0.36989 0.0
C1050 C 0.64273 0.27514 0.35451 0.0
H1051 H 0.57642 0.26336 0.33544 0.0
H1052 H 0.59506 0.26803 0.35187 0.0
H1053 H 0.58536 0.28559 0.33805 0.0
H1054 H 0.61316 0.30703 0.33778 0.0
H1055 H 0.62556 0.32306 0.3647 0.0
H1056 H 0.44058 0.74695 0.27871 0.0
H1057 H 0.42963 0.76272 0.25117 0.0
H1058 H 0.40382 0.71465 0.23088 0.0
H1059 H 0.41479 0.69875 0.25832 0.0
H1060 H 0.4371 0.75603 0.21363 0.0
H1061 H 0.36025 0.75043 0.22904 0.0
H1062 H 0.37825 0.74598 0.24614 0.0
H1063 H 0.37273 0.72968 0.2288 0.0
C1064 C 0.43269 0.73967 0.26836 0.0
C1065 C 0.42849 0.72157 0.27084 0.0
C1066 C 0.42637 0.74874 0.25264 0.0
C1067 C 0.41567 0.73993 0.2391 0.0
C1068 C 0.41169 0.72182 0.24136 0.0
H1069 H 0.36127 0.77481 0.13733 0.0
H1070 H 0.37492 0.75724 0.16245 0.0
C1071 C 0.41797 0.71274 0.25709 0.0
C1072 C 0.4088 0.7497 0.22258 0.0
H1073 H 0.36862 0.76247 0.19992 0.0
C1074 C 0.42213 0.75748 0.21063 0.0
C1075 C 0.38926 0.75154 0.21868 0.0
C1076 C 0.37426 0.74412 0.2314 0.0
C1077 C 0.41646 0.76687 0.19478 0.0
C1078 C 0.39692 0.76879 0.19094 0.0
C1079 C 0.3836 0.76093 0.20284 0.0
C1080 C 0.38989 0.77924 0.17494 0.0
C1081 C 0.43144 0.7744 0.18211 0.0
C1082 C 0.39382 0.79746 0.17356 0.0
C1083 C 0.38608 0.80755 0.15919 0.0
C1084 C 0.37411 0.79965 0.14598 0.0
C1085 C 0.37046 0.78133 0.14723 0.0
C1086 C 0.37822 0.77125 0.1616 0.0
H1087 H 0.4453 0.76767 0.18403 0.0
H1088 H 0.42719 0.77316 0.16737 0.0
H1089 H 0.43341 0.78869 0.18527 0.0
H1090 H 0.40247 0.80399 0.1839 0.0
H1091 H 0.3891 0.82163 0.15872 0.0
H1092 H 0.14485 0.25205 0.62217 0.0
H1093 H 0.13212 0.266 0.6501 0.0
H1094 H 0.15625 0.22432 0.68344 0.0
H1095 H 0.16868 0.21003 0.65553 0.0
H1096 H 0.12059 0.23255 0.69453 0.0
H1097 H 0.16292 0.29408 0.68715 0.0
H1098 H 0.14858 0.28943 0.66724 0.0
H1099 H 0.16741 0.27449 0.67346 0.0
C1100 C 0.1474 0.24579 0.63543 0.0
C1101 C 0.15789 0.22998 0.63661 0.0
C1102 C 0.14022 0.25387 0.65141 0.0
C1103 C 0.1436 0.24644 0.66892 0.0
C1104 C 0.15359 0.23037 0.6701 0.0
H1105 H 0.12938 0.30304 0.77347 0.0
H1106 H 0.14202 0.2874 0.74643 0.0
C1107 C 0.16067 0.22221 0.65411 0.0
C1108 C 0.1367 0.25539 0.686 0.0
H1109 H 0.13858 0.29445 0.70998 0.0
C1110 C 0.12459 0.24606 0.69796 0.0
C1111 C 0.14219 0.27291 0.69065 0.0
C1112 C 0.15614 0.28326 0.67906 0.0
C1113 C 0.11748 0.25389 0.71421 0.0
C1114 C 0.12228 0.27169 0.71842 0.0
C1115 C 0.13472 0.28088 0.70666 0.0
C1116 C 0.11455 0.28104 0.73491 0.0
C1117 C 0.10517 0.24288 0.72686 0.0
C1118 C 0.09493 0.28292 0.73732 0.0
C1119 C 0.08768 0.2918 0.75278 0.0
C1120 C 0.09991 0.29922 0.76607 0.0
C1121 C 0.11958 0.2976 0.76346 0.0
C1122 C 0.12682 0.2886 0.74804 0.0
H1123 H 0.10753 0.22845 0.72471 0.0
H1124 H 0.1079 0.24607 0.74163 0.0
H1125 H 0.09006 0.24571 0.72385 0.0
H1126 H 0.08518 0.27769 0.72712 0.0
H1127 H 0.07248 0.29313 0.75415 0.0
H1128 H 0.75222 0.93798 0.77641 0.0
H1129 H 0.78254 0.92842 0.76355 0.0
H1130 H 0.76789 0.87386 0.7745 0.0
H1131 H 0.73756 0.88342 0.78766 0.0
H1132 H 0.80377 0.88094 0.78464 0.0
H1133 H 0.79195 0.90624 0.71363 0.0
H1134 H 0.78947 0.92321 0.73088 0.0
H1135 H 0.77319 0.90483 0.73054 0.0
C1136 C 0.75534 0.92394 0.7759 0.0
C1137 C 0.74238 0.91144 0.78291 0.0
C1138 C 0.77269 0.91848 0.7685 0.0
C1139 C 0.77735 0.90039 0.76766 0.0
C1140 C 0.76456 0.88789 0.77489 0.0
H1141 H 0.86969 0.85642 0.70209 0.0
H1142 H 0.83891 0.86544 0.71445 0.0
C1143 C 0.74726 0.89336 0.78246 0.0
C1144 C 0.79574 0.89458 0.75966 0.0
H1145 H 0.8235 0.89743 0.721 0.0
C1146 C 0.80804 0.88446 0.77069 0.0
C1147 C 0.80121 0.89894 0.74135 0.0
C1148 C 0.78818 0.90874 0.72834 0.0
C1149 C 0.82578 0.87889 0.76405 0.0
C1150 C 0.83161 0.88395 0.74604 0.0
C1151 C 0.81916 0.89376 0.73489 0.0
C1152 C 0.85042 0.87894 0.73838 0.0
C1153 C 0.83793 0.86734 0.77629 0.0
C1154 C 0.86719 0.88387 0.74748 0.0
C1155 C 0.88482 0.87862 0.74051 0.0
C1156 C 0.88606 0.86856 0.72415 0.0
C1157 C 0.86927 0.86416 0.71473 0.0
C1158 C 0.85164 0.86929 0.72179 0.0
H1159 H 0.82935 0.86049 0.78704 0.0
H1160 H 0.84561 0.85718 0.76806 0.0
H1161 H 0.84852 0.87574 0.78349 0.0
H1162 H 0.86665 0.89173 0.76002 0.0
H1163 H 0.89747 0.88237 0.74803 0.0
H1164 H 0.63352 0.1598 0.23645 0.0
H1165 H 0.66227 0.15059 0.25264 0.0
H1166 H 0.6725 0.11077 0.21091 0.0
H1167 H 0.64398 0.12014 0.19439 0.0
H1168 H 0.67467 0.11883 0.26754 0.0
H1169 H 0.72103 0.13983 0.20945 0.0
H1170 H 0.69628 0.14569 0.21065 0.0
H1171 H 0.70329 0.12397 0.20291 0.0
C1172 C 0.64177 0.14896 0.23078 0.0
C1173 C 0.63655 0.14084 0.21398 0.0
C1174 C 0.65822 0.14372 0.24007 0.0
C1175 C 0.66976 0.13027 0.23277 0.0
C1176 C 0.66406 0.12149 0.21655 0.0
H1177 H 0.77806 0.08512 0.2631 0.0
H1178 H 0.74699 0.09148 0.24997 0.0
C1179 C 0.64767 0.12679 0.20718 0.0
C1180 C 0.68807 0.12587 0.24178 0.0
H1181 H 0.73581 0.12456 0.23417 0.0
C1182 C 0.68805 0.12012 0.26028 0.0
C1183 C 0.70554 0.1277 0.23231 0.0
C1184 C 0.70663 0.1348 0.2128 0.0
C1185 C 0.705 0.11578 0.26943 0.0
C1186 C 0.7224 0.11743 0.25987 0.0
C1187 C 0.72242 0.12323 0.24142 0.0
C1188 C 0.74082 0.11315 0.26864 0.0
C1189 C 0.70417 0.10917 0.28911 0.0
C1190 C 0.74771 0.12327 0.2835 0.0
C1191 C 0.76562 0.1198 0.29096 0.0
C1192 C 0.77703 0.10615 0.28365 0.0
C1193 C 0.76989 0.09591 0.26891 0.0
C1194 C 0.75204 0.09944 0.26144 0.0
H1195 H 0.68963 0.105 0.2931 0.0
H1196 H 0.71395 0.0978 0.2911 0.0
H1197 H 0.70865 0.11996 0.2986 0.0
H1198 H 0.73941 0.13414 0.28904 0.0
H1199 H 0.77069 0.12811 0.30212 0.0
H1200 H 0.39084 0.65317 0.2842 0.0
H1201 H 0.36175 0.64417 0.26832 0.0
H1202 H 0.33978 0.62304 0.31946 0.0
H1203 H 0.3687 0.63207 0.33551 0.0
H1204 H 0.34386 0.61005 0.26508 0.0
H1205 H 0.29899 0.65891 0.30245 0.0
H1206 H 0.32452 0.66024 0.30212 0.0
H1207 H 0.31281 0.64469 0.31712 0.0
C1208 C 0.37988 0.64649 0.29206 0.0
C1209 C 0.38206 0.64346 0.31118 0.0
C1210 C 0.36327 0.64136 0.28295 0.0
C1211 C 0.34849 0.63322 0.29278 0.0
C1212 C 0.35088 0.62961 0.31169 0.0
H1213 H 0.23492 0.59774 0.26836 0.0
H1214 H 0.26534 0.60539 0.28222 0.0
C1215 C 0.36748 0.63469 0.32081 0.0
C1216 C 0.33043 0.62879 0.28336 0.0
H1217 H 0.28307 0.63799 0.28355 0.0
C1218 C 0.33056 0.6162 0.26903 0.0
C1219 C 0.31314 0.63688 0.28853 0.0
C1220 C 0.31228 0.65105 0.30328 0.0
C1221 C 0.31374 0.61113 0.26006 0.0
C1222 C 0.29641 0.61913 0.26534 0.0
C1223 C 0.29635 0.63184 0.27955 0.0
C1224 C 0.27809 0.61426 0.2566 0.0
C1225 C 0.3146 0.59689 0.24539 0.0
C1226 C 0.27503 0.61689 0.2376 0.0
C1227 C 0.25764 0.61239 0.22956 0.0
C1228 C 0.2429 0.60525 0.2404 0.0
C1229 C 0.24599 0.60289 0.2595 0.0
C1230 C 0.26336 0.60737 0.26749 0.0
H1231 H 0.32789 0.58904 0.24627 0.0
H1232 H 0.30236 0.5877 0.24659 0.0
H1233 H 0.31408 0.60318 0.23151 0.0
H1234 H 0.28606 0.62252 0.22898 0.0
H1235 H 0.25585 0.61431 0.21483 0.0
H1236 H 0.26473 0.44756 0.73369 0.0
H1237 H 0.23418 0.43853 0.74658 0.0
H1238 H 0.25227 0.38387 0.74595 0.0
H1239 H 0.28275 0.39283 0.73276 0.0
H1240 H 0.21729 0.38711 0.73239 0.0
H1241 H 0.22159 0.42388 0.79869 0.0
H1242 H 0.22433 0.43799 0.77887 0.0
H1243 H 0.24174 0.42114 0.78358 0.0
C1244 C 0.26229 0.43365 0.73652 0.0
C1245 C 0.27621 0.42092 0.73228 0.0
C1246 C 0.24482 0.4285 0.74394 0.0
C1247 C 0.24102 0.41054 0.74757 0.0
C1248 C 0.25489 0.39781 0.74332 0.0
H1249 H 0.14917 0.36843 0.81427 0.0
H1250 H 0.17933 0.37933 0.80219 0.0
C1251 C 0.27229 0.40294 0.73574 0.0
C1252 C 0.22236 0.40493 0.75517 0.0
H1253 H 0.19163 0.41132 0.79115 0.0
C1254 C 0.21171 0.39237 0.74527 0.0
C1255 C 0.21517 0.4116 0.77211 0.0
C1256 C 0.22638 0.42426 0.78403 0.0
C1257 C 0.19405 0.38641 0.75173 0.0
C1258 C 0.18653 0.39358 0.76831 0.0
C1259 C 0.19726 0.40601 0.77831 0.0
C1260 C 0.1679 0.38786 0.77587 0.0
C1261 C 0.18388 0.37214 0.74094 0.0
C1262 C 0.15128 0.38943 0.76531 0.0
C1263 C 0.13401 0.38306 0.77212 0.0
C1264 C 0.13294 0.37524 0.78977 0.0
C1265 C 0.14946 0.37437 0.80062 0.0
C1266 C 0.16674 0.38059 0.79373 0.0
H1267 H 0.19373 0.36466 0.73182 0.0
H1268 H 0.17674 0.3626 0.75035 0.0
H1269 H 0.17296 0.37837 0.73202 0.0
H1270 H 0.1517 0.39544 0.7517 0.0
H1271 H 0.12154 0.38409 0.76347 0.0
H1272 H 0.78986 0.75076 0.88326 0.0
H1273 H 0.77561 0.77897 0.87391 0.0
H1274 H 0.76002 0.78943 0.93065 0.0
H1275 H 0.77381 0.76103 0.93994 0.0
H1276 H 0.73159 0.79698 0.90856 0.0
H1277 H 0.79624 0.82805 0.87986 0.0
H1278 H 0.7911 0.80727 0.86887 0.0
H1279 H 0.79695 0.8078 0.89314 0.0
C1280 C 0.78352 0.75916 0.89374 0.0
C1281 C 0.78299 0.75371 0.91233 0.0
C1282 C 0.77547 0.77532 0.88841 0.0
C1283 C 0.76708 0.78654 0.90163 0.0
C1284 C 0.76646 0.78106 0.9202 0.0
H1285 H 0.73681 0.89625 0.87492 0.0
H1286 H 0.75112 0.8698 0.88877 0.0
C1287 C 0.77429 0.76479 0.92549 0.0
C1288 C 0.75836 0.80369 0.89604 0.0
H1289 H 0.76685 0.84208 0.87233 0.0
C1290 C 0.73937 0.8069 0.90077 0.0
C1291 C 0.76857 0.81684 0.8862 0.0
C1292 C 0.78939 0.81492 0.8819 0.0
C1293 C 0.73016 0.82262 0.8955 0.0
C1294 C 0.74003 0.83528 0.88469 0.0
C1295 C 0.75918 0.83231 0.88042 0.0
C1296 C 0.73068 0.85145 0.87725 0.0
C1297 C 0.71001 0.82556 0.90181 0.0
C1298 C 0.71443 0.84998 0.86616 0.0
C1299 C 0.7061 0.86507 0.85844 0.0
C1300 C 0.71404 0.88196 0.86134 0.0
C1301 C 0.73031 0.88344 0.87246 0.0
C1302 C 0.73853 0.86833 0.88035 0.0
H1303 H 0.70689 0.81804 0.91468 0.0
H1304 H 0.70712 0.83983 0.90438 0.0
H1305 H 0.70018 0.82076 0.89093 0.0
H1306 H 0.70841 0.8371 0.86309 0.0
H1307 H 0.69372 0.86341 0.84977 0.0
H1308 H 0.2272 0.63653 0.1673 0.0
H1309 H 0.24484 0.66178 0.15482 0.0
H1310 H 0.19305 0.68386 0.13324 0.0
H1311 H 0.17522 0.65879 0.14587 0.0
H1312 H 0.24851 0.67515 0.11877 0.0
H1313 H 0.21401 0.7241 0.16536 0.0
H1314 H 0.21219 0.70046 0.16895 0.0
H1315 H 0.19781 0.71117 0.15174 0.0
C1316 C 0.21954 0.64669 0.1598 0.0
C1317 C 0.19975 0.6457 0.15773 0.0
C1318 C 0.22967 0.66111 0.15268 0.0
C1319 C 0.22021 0.67486 0.14342 0.0
C1320 C 0.20057 0.67358 0.1407 0.0
H1321 H 0.25557 0.77571 0.09675 0.0
H1322 H 0.23826 0.74915 0.10629 0.0
C1323 C 0.19042 0.65918 0.14783 0.0
C1324 C 0.23087 0.69067 0.13692 0.0
H1325 H 0.23436 0.73561 0.14223 0.0
C1326 C 0.24547 0.68837 0.12392 0.0
C1327 C 0.2269 0.7079 0.1437 0.0
C1328 C 0.212 0.71111 0.15833 0.0
C1329 C 0.25597 0.70288 0.11727 0.0
C1330 C 0.25196 0.7201 0.12404 0.0
C1331 C 0.23737 0.7224 0.13703 0.0
C1332 C 0.26273 0.73596 0.11786 0.0
C1333 C 0.27102 0.69971 0.10279 0.0
C1334 C 0.28221 0.73744 0.12136 0.0
C1335 C 0.29219 0.75261 0.11585 0.0
C1336 C 0.28285 0.76662 0.10679 0.0
C1337 C 0.26328 0.7651 0.10343 0.0
C1338 C 0.25333 0.74996 0.10897 0.0
H1339 H 0.26913 0.68672 0.09576 0.0
H1340 H 0.2709 0.71038 0.09219 0.0
H1341 H 0.28514 0.69972 0.10953 0.0
H1342 H 0.28969 0.72694 0.12849 0.0
H1343 H 0.30724 0.75325 0.11856 0.0
H1344 H 0.34742 0.36058 0.64501 0.0
H1345 H 0.3294 0.3352 0.63328 0.0
H1346 H 0.278 0.35769 0.65546 0.0
H1347 H 0.29577 0.38322 0.6669 0.0
H1348 H 0.30882 0.31122 0.65358 0.0
H1349 H 0.26203 0.34521 0.60319 0.0
H1350 H 0.28271 0.35571 0.61296 0.0
H1351 H 0.26103 0.35458 0.62602 0.0
C1352 C 0.33224 0.36025 0.64718 0.0
C1353 C 0.32304 0.37398 0.65683 0.0
C1354 C 0.32197 0.34571 0.6405 0.0
C1355 C 0.30231 0.34465 0.64328 0.0
C1356 C 0.29308 0.3584 0.65278 0.0
H1357 H 0.2177 0.26282 0.62184 0.0
H1358 H 0.23492 0.28888 0.63336 0.0
C1359 C 0.3033 0.37296 0.65939 0.0
C1360 C 0.29163 0.32874 0.63709 0.0
H1361 H 0.25445 0.3152 0.61032 0.0
C1362 C 0.29701 0.31209 0.64403 0.0
C1363 C 0.27615 0.3299 0.62471 0.0
C1364 C 0.27022 0.34728 0.61614 0.0
C1365 C 0.2872 0.29659 0.63909 0.0
C1366 C 0.27173 0.29776 0.62675 0.0
C1367 C 0.26627 0.31439 0.61987 0.0
C1368 C 0.26145 0.28178 0.62031 0.0
C1369 C 0.29328 0.27909 0.64729 0.0
C1370 C 0.27067 0.26924 0.60915 0.0
C1371 C 0.2609 0.25441 0.60256 0.0
C1372 C 0.24169 0.25181 0.60701 0.0
C1373 C 0.23252 0.26434 0.61835 0.0
C1374 C 0.24229 0.27927 0.62484 0.0
H1375 H 0.30242 0.28093 0.65966 0.0
H1376 H 0.28077 0.27101 0.65128 0.0
H1377 H 0.30145 0.27152 0.63679 0.0
H1378 H 0.28539 0.27104 0.60534 0.0
H1379 H 0.26841 0.24494 0.59402 0.0
H1380 H 0.72508 0.26576 0.38791 0.0
H1381 H 0.74017 0.23794 0.37862 0.0
H1382 H 0.7503 0.22514 0.43595 0.0
H1383 H 0.73542 0.25304 0.44531 0.0
H1384 H 0.78116 0.2189 0.41525 0.0
H1385 H 0.71884 0.18839 0.38138 0.0
H1386 H 0.7245 0.20974 0.37191 0.0
H1387 H 0.71703 0.20796 0.39568 0.0
C1388 C 0.73034 0.25694 0.39855 0.0
C1389 C 0.72896 0.26161 0.41736 0.0
C1390 C 0.73892 0.241 0.39322 0.0
C1391 C 0.74605 0.22925 0.4066 0.0
C1392 C 0.74484 0.23394 0.42538 0.0
H1393 H 0.77991 0.1207 0.37836 0.0
H1394 H 0.76444 0.1465 0.39243 0.0
C1395 C 0.73639 0.24994 0.43071 0.0
C1396 C 0.75531 0.21235 0.40098 0.0
H1397 H 0.74877 0.17467 0.37545 0.0
C1398 C 0.77402 0.20916 0.40667 0.0
C1399 C 0.7459 0.19946 0.39007 0.0
C1400 C 0.7254 0.20145 0.38457 0.0
C1401 C 0.78376 0.19374 0.40128 0.0
C1402 C 0.7747 0.18135 0.3895 0.0
C1403 C 0.7558 0.18426 0.3843 0.0
C1404 C 0.78473 0.16556 0.38195 0.0
C1405 C 0.8036 0.19084 0.40841 0.0
C1406 C 0.80126 0.16766 0.37138 0.0
C1407 C 0.8102 0.15295 0.36345 0.0
C1408 C 0.80265 0.1358 0.36571 0.0
C1409 C 0.78613 0.1337 0.37639 0.0
C1410 C 0.77725 0.14844 0.38441 0.0
H1411 H 0.80604 0.19814 0.42156 0.0
H1412 H 0.80648 0.17654 0.41078 0.0
H1413 H 0.8139 0.19588 0.39806 0.0
H1414 H 0.80705 0.18075 0.36886 0.0
H1415 H 0.8228 0.15511 0.35518 0.0
H1416 H 0.14928 0.16033 0.54949 0.0
H1417 H 0.14175 0.16096 0.51638 0.0
H1418 H 0.16291 0.2145 0.51281 0.0
H1419 H 0.1706 0.214 0.54577 0.0
H1420 H 0.1189 0.18504 0.49427 0.0
H1421 H 0.195 0.18608 0.47488 0.0
H1422 H 0.18695 0.18017 0.49779 0.0
H1423 H 0.18813 0.20308 0.49099 0.0
C1424 C 0.15217 0.17231 0.54172 0.0
C1425 C 0.16073 0.18705 0.55028 0.0
C1426 C 0.14784 0.17264 0.52279 0.0
C1427 C 0.15208 0.18766 0.5121 0.0
C1428 C 0.15983 0.20266 0.52076 0.0
H1429 H 0.15033 0.21859 0.39763 0.0
H1430 H 0.15254 0.21639 0.43124 0.0
C1431 C 0.16414 0.20236 0.53964 0.0
C1432 C 0.14916 0.1875 0.49175 0.0
H1433 H 0.17293 0.19095 0.45072 0.0
C1434 C 0.13068 0.18621 0.4847 0.0
C1435 C 0.16459 0.18892 0.47933 0.0
C1436 C 0.18481 0.18948 0.48607 0.0
C1437 C 0.12719 0.18696 0.46553 0.0
C1438 C 0.14262 0.18875 0.45315 0.0
C1439 C 0.1611 0.18968 0.46023 0.0
C1440 C 0.14004 0.19023 0.43279 0.0
C1441 C 0.10701 0.18639 0.45873 0.0
C1442 C 0.13223 0.17625 0.42244 0.0
C1443 C 0.13102 0.17744 0.40311 0.0
C1444 C 0.13775 0.19258 0.39377 0.0
C1445 C 0.1453 0.20663 0.40427 0.0
C1446 C 0.14647 0.20544 0.42353 0.0
H1447 H 0.09672 0.18906 0.47003 0.0
H1448 H 0.10476 0.19623 0.4475 0.0
H1449 H 0.10398 0.17301 0.45304 0.0
H1450 H 0.12752 0.16424 0.42925 0.0
H1451 H 0.12534 0.1663 0.39546 0.0
H1452 H 0.37872 0.79029 0.05024 0.0
H1453 H 0.38628 0.79426 0.01749 0.0
H1454 H 0.35655 0.84424 0.01747 0.0
H1455 H 0.34928 0.84056 0.05037 0.0
H1456 H 0.36116 0.79584 0.98994 0.0
H1457 H 0.40411 0.85732 0.98942 0.0
H1458 H 0.39917 0.84513 0.01039 0.0
H1459 H 0.38179 0.86007 1.00098 0.0
C1460 C 0.37404 0.80228 0.04337 0.0
C1461 C 0.36337 0.8151 0.05295 0.0
C1462 C 0.37838 0.80452 0.02462 0.0
C1463 C 0.37217 0.81963 0.01501 0.0
C1464 C 0.36189 0.83266 0.02464 0.0
H1465 H 0.34874 0.82547 0.89813 0.0
H1466 H 0.34805 0.82448 0.93188 0.0
C1467 C 0.35764 0.83048 0.04346 0.0
C1468 C 0.375 0.82091 0.99462 0.0
H1469 H 0.39196 0.84765 0.96012 0.0
C1470 C 0.36805 0.80711 0.98346 0.0
C1471 C 0.38418 0.83551 0.98612 0.0
C1472 C 0.39291 0.85027 0.99736 0.0
C1473 C 0.36955 0.8077 0.9641 0.0
C1474 C 0.37788 0.82269 0.95555 0.0
C1475 C 0.38537 0.83627 0.96668 0.0
C1476 C 0.37851 0.82455 0.93507 0.0
C1477 C 0.36228 0.79217 0.95297 0.0
C1478 C 0.39587 0.82564 0.92561 0.0
C1479 C 0.39631 0.82625 0.90621 0.0
C1480 C 0.37938 0.82579 0.89594 0.0
C1481 C 0.36204 0.82539 0.90555 0.0
C1482 C 0.36162 0.82485 0.92487 0.0
H1483 H 0.3614 0.77992 0.96148 0.0
H1484 H 0.34783 0.79523 0.94786 0.0
H1485 H 0.3715 0.78951 0.94082 0.0
H1486 H 0.40908 0.82553 0.93322 0.0
H1487 H 0.40989 0.82652 0.89925 0.0
H1488 H 0.64811 0.28744 0.47628 0.0
H1489 H 0.64018 0.29374 0.5085 0.0
H1490 H 0.65031 0.34946 0.49923 0.0
H1491 H 0.6586 0.34323 0.46694 0.0
H1492 H 0.66925 0.33721 0.52912 0.0
H1493 H 0.59452 0.31563 0.53367 0.0
H1494 H 0.60948 0.29879 0.52395 0.0
H1495 H 0.6063 0.31943 0.51182 0.0
C1496 C 0.64837 0.30109 0.48097 0.0
C1497 C 0.65405 0.31482 0.469 0.0
C1498 C 0.64367 0.30469 0.49941 0.0
C1499 C 0.64437 0.32211 0.50626 0.0
C1500 C 0.64955 0.33592 0.49422 0.0
H1501 H 0.61507 0.34754 0.62223 0.0
H1502 H 0.61487 0.34701 0.58822 0.0
C1503 C 0.65427 0.33233 0.47575 0.0
C1504 C 0.64152 0.32558 0.52635 0.0
H1505 H 0.61139 0.31794 0.56258 0.0
C1506 C 0.65648 0.33322 0.53637 0.0
C1507 C 0.62478 0.3206 0.53584 0.0
C1508 C 0.60778 0.31333 0.52573 0.0
C1509 C 0.65551 0.33523 0.55567 0.0
C1510 C 0.63928 0.32919 0.56529 0.0
C1511 C 0.62393 0.32235 0.55522 0.0
C1512 C 0.63857 0.32896 0.58584 0.0
C1513 C 0.67201 0.34364 0.56564 0.0
C1514 C 0.65157 0.31862 0.59574 0.0
C1515 C 0.65167 0.31883 0.61506 0.0
C1516 C 0.63871 0.32937 0.625 0.0
C1517 C 0.62521 0.33926 0.61504 0.0
C1518 C 0.62513 0.33902 0.59561 0.0
H1519 H 0.68064 0.35201 0.55618 0.0
H1520 H 0.66709 0.35194 0.57741 0.0
H1521 H 0.68132 0.33305 0.5712 0.0
H1522 H 0.66176 0.31041 0.58848 0.0
H1523 H 0.66194 0.31069 0.6222 0.0
H1524 H 0.8689 0.71296 0.11551 0.0
H1525 H 0.86876 0.7098 0.08201 0.0
H1526 H 0.90233 0.66221 0.08648 0.0
H1527 H 0.90186 0.66487 0.1203 0.0
H1528 H 0.89785 0.7093 0.05713 0.0
H1529 H 0.85821 0.6455 0.05476 0.0
H1530 H 0.86001 0.65863 0.07558 0.0
H1531 H 0.87967 0.6453 0.0681 0.0
C1532 C 0.87607 0.70167 0.10949 0.0
C1533 C 0.88515 0.68903 0.12074 0.0
C1534 C 0.87612 0.69997 0.09025 0.0
C1535 C 0.88526 0.68562 0.0817 0.0
C1536 C 0.89484 0.67321 0.09278 0.0
H1537 H 0.88439 0.66515 0.96098 0.0
H1538 H 0.89359 0.66377 0.99377 0.0
C1539 C 0.89474 0.67487 0.11212 0.0
C1540 C 0.88453 0.68388 0.06119 0.0
H1541 H 0.86662 0.65832 0.02619 0.0
C1542 C 0.89119 0.69806 0.05037 0.0
C1543 C 0.87587 0.66919 0.05235 0.0
C1544 C 0.86788 0.65383 0.06324 0.0
C1545 C 0.88893 0.69819 0.03107 0.0
C1546 C 0.87967 0.68383 0.02233 0.0
C1547 C 0.87374 0.66929 0.03298 0.0
C1548 C 0.87441 0.68453 1.00248 0.0
C1549 C 0.89607 0.71388 0.02014 0.0
C1550 C 0.86046 0.69651 0.99663 0.0
C1551 C 0.85509 0.69723 0.97805 0.0
C1552 C 0.86362 0.68603 0.96486 0.0
C1553 C 0.87761 0.674 0.97076 0.0
C1554 C 0.88287 0.67317 0.98947 0.0
H1555 H 0.90667 0.7217 0.02806 0.0
H1556 H 0.90255 0.70949 1.00689 0.0
H1557 H 0.88398 0.72273 0.01681 0.0
H1558 H 0.85362 0.70524 1.0065 0.0
H1559 H 0.84426 0.70665 0.97404 0.0
H1560 H 0.38997 0.09383 0.17543 0.0
H1561 H 0.42422 0.09861 0.17788 0.0
H1562 H 0.4143 0.14892 0.20463 0.0
H1563 H 0.38018 0.1444 0.20204 0.0
H1564 H 0.4398 0.15126 0.17583 0.0
H1565 H 0.45902 0.09601 0.22307 0.0
H1566 H 0.44602 0.0895 0.20279 0.0
H1567 H 0.43488 0.10331 0.21992 0.0
C1568 C 0.39508 0.10581 0.18205 0.0
C1569 C 0.3823 0.11873 0.18855 0.0
C1570 C 0.41468 0.10849 0.18349 0.0
C1571 C 0.42185 0.12406 0.19158 0.0
C1572 C 0.40911 0.1368 0.19835 0.0
H1573 H 0.5331 0.1523 0.2301 0.0
H1574 H 0.50031 0.14278 0.22609 0.0
C1575 C 0.38957 0.13417 0.19689 0.0
C1576 C 0.44256 0.1276 0.19228 0.0
H1577 H 0.48431 0.11277 0.21051 0.0
C1578 C 0.44955 0.14281 0.18336 0.0
C1579 C 0.45524 0.11664 0.20223 0.0
C1580 C 0.44846 0.10053 0.2127 0.0
C1581 C 0.46879 0.14746 0.18424 0.0
C1582 C 0.48153 0.13641 0.19402 0.0
C1583 C 0.47457 0.12113 0.20286 0.0
C1584 C 0.50186 0.14112 0.19623 0.0
C1585 C 0.47519 0.1645 0.1752 0.0
C1586 C 0.51382 0.14301 0.18078 0.0
C1587 C 0.53262 0.14856 0.18302 0.0
C1588 C 0.53986 0.1522 0.20077 0.0
C1589 C 0.52801 0.14969 0.21622 0.0
C1590 C 0.50924 0.1442 0.21397 0.0
H1591 H 0.46308 0.17342 0.17208 0.0
H1592 H 0.48533 0.17174 0.1842 0.0
H1593 H 0.48244 0.16137 0.16196 0.0
H1594 H 0.50855 0.14036 0.16698 0.0
H1595 H 0.54139 0.15023 0.17083 0.0
H1596 H 0.97969 0.86823 0.67347 0.0
H1597 H 0.0122 0.8792 0.66997 0.0
H1598 H 0.01865 0.88005 0.7293 0.0
H1599 H 0.98626 0.86912 0.73296 0.0
H1600 H 0.03429 0.91089 0.70915 0.0
H1601 H 0.05783 0.84527 0.68225 0.0
H1602 H 0.03783 0.85525 0.67087 0.0
H1603 H 0.03575 0.84817 0.69451 0.0
C1604 C 0.98792 0.87099 0.68578 0.0
C1605 C 0.98043 0.86765 0.7035 0.0
C1606 C 1.00651 0.87719 0.68375 0.0
C1607 C 0.01787 0.88024 0.69938 0.0
C1608 C 0.01013 0.87774 0.71707 0.0
H1609 H 0.13912 0.87936 0.7105 0.0
H1610 H 0.10492 0.87532 0.7132 0.0
C1611 C 0.99162 0.87144 0.71912 0.0
C1612 C 0.03818 0.88491 0.6974 0.0
H1613 H 0.08087 0.86771 0.68432 0.0
C1614 C 0.0445 0.90153 0.70363 0.0
C1615 C 0.05145 0.87254 0.69042 0.0
C1616 C 0.04551 0.85424 0.68423 0.0
C1617 C 0.06382 0.90612 0.70306 0.0
C1618 C 0.07708 0.89377 0.69596 0.0
C1619 C 0.07069 0.87718 0.68969 0.0
C1620 C 0.09776 0.89743 0.69543 0.0
C1621 C 0.06993 0.92391 0.71054 0.0
C1622 C 0.10516 0.91135 0.68471 0.0
C1623 C 0.12478 0.91376 0.68321 0.0
C1624 C 0.13736 0.90218 0.69226 0.0
C1625 C 0.12987 0.88851 0.70331 0.0
C1626 C 0.1103 0.88615 0.70485 0.0
H1627 H 0.05883 0.93001 0.71942 0.0
H1628 H 0.08317 0.92268 0.71871 0.0
H1629 H 0.07271 0.93304 0.6988 0.0
H1630 H 0.09578 0.92001 0.67704 0.0
H1631 H 0.13007 0.92435 0.67449 0.0
H1632 H 0.0425 0.37107 0.84673 0.0
H1633 H 1.00981 0.38068 0.85238 0.0
H1634 H 0.99851 0.37864 0.79377 0.0
H1635 H 0.03108 0.3694 0.78797 0.0
H1636 H 0.98277 0.40823 0.81046 0.0
H1637 H 0.96478 0.3468 0.84924 0.0
H1638 H 0.98436 0.35921 0.85843 0.0
H1639 H 0.98634 0.34901 0.83601 0.0
C1640 C 0.0331 0.37282 0.83504 0.0
C1641 C 0.0394 0.36931 0.81691 0.0
C1642 C 0.01438 0.37821 0.8383 0.0
C1643 C 1.0016 0.38008 0.82352 0.0
C1644 C 1.00807 0.37722 0.80539 0.0
H1645 H 0.88017 0.37341 0.82194 0.0
H1646 H 0.91436 0.36995 0.81848 0.0
C1647 C 0.02674 0.37189 0.80212 0.0
C1648 C 0.98131 0.38438 0.82679 0.0
H1649 H 0.94073 0.36828 0.84639 0.0
C1650 C 0.97358 0.39957 0.81841 0.0
C1651 C 0.96928 0.37293 0.83696 0.0
C1652 C 0.9765 0.35599 0.84556 0.0
C1653 C 0.95416 0.40353 0.8198 0.0
C1654 C 0.94217 0.39213 0.83006 0.0
C1655 C 0.94994 0.37706 0.8386 0.0
C1656 C 0.92137 0.395 0.83141 0.0
C1657 C 0.94652 0.41953 0.80973 0.0
C1658 C 0.91386 0.41032 0.83973 0.0
C1659 C 0.89422 0.4124 0.84166 0.0
C1660 C 0.88173 0.39912 0.83543 0.0
C1661 C 0.88933 0.38392 0.8269 0.0
C1662 C 0.90891 0.38188 0.82494 0.0
H1663 H 0.95659 0.42445 0.79907 0.0
H1664 H 0.93282 0.41642 0.80293 0.0
H1665 H 0.94405 0.43039 0.81983 0.0
H1666 H 0.92319 0.42049 0.84512 0.0
H1667 H 0.88886 0.42422 0.84841 0.0
H1668 H 0.48593 0.6421 0.28602 0.0
H1669 H 0.51821 0.63066 0.28833 0.0
H1670 H 0.51615 0.63642 0.3477 0.0
H1671 H 0.4837 0.64771 0.34555 0.0
H1672 H 0.54916 0.64857 0.30256 0.0
H1673 H 0.53688 0.58612 0.34141 0.0
H1674 H 0.51797 0.59816 0.33022 0.0
H1675 H 0.527 0.60551 0.35219 0.0
C1676 C 0.49222 0.64075 0.29962 0.0
C1677 C 0.48218 0.64581 0.31561 0.0
C1678 C 0.51071 0.63422 0.3009 0.0
C1679 C 0.51955 0.63249 0.31819 0.0
C1680 C 0.5095 0.6373 0.33423 0.0
H1681 H 0.63282 0.60762 0.3556 0.0
H1682 H 0.5992 0.61466 0.35256 0.0
C1683 C 0.49097 0.64384 0.33296 0.0
C1684 C 0.53965 0.62667 0.31928 0.0
H1685 H 0.56893 0.59525 0.33782 0.0
C1686 C 0.55347 0.63684 0.31015 0.0
C1687 C 0.54527 0.61139 0.32923 0.0
C1688 C 0.53101 0.59955 0.33869 0.0
C1689 C 0.57277 0.63239 0.31104 0.0
C1690 C 0.57841 0.61714 0.32105 0.0
C1691 C 0.56459 0.60691 0.33011 0.0
C1692 C 0.59865 0.61194 0.32275 0.0
C1693 C 0.58702 0.64436 0.30172 0.0
C1694 C 0.60948 0.60767 0.30703 0.0
C1695 C 0.62878 0.60365 0.30871 0.0
C1696 C 0.63761 0.60374 0.32616 0.0
C1697 C 0.62655 0.60749 0.34193 0.0
C1698 C 0.60729 0.6115 0.34023 0.0
H1699 H 0.58094 0.65762 0.29856 0.0
H1700 H 0.59974 0.64619 0.31054 0.0
H1701 H 0.59159 0.63824 0.28848 0.0
H1702 H 0.60303 0.60759 0.29344 0.0
H1703 H 0.63682 0.60074 0.2963 0.0
H1704 H 0.2114 0.42069 0.1122 0.0
H1705 H 0.20567 0.45176 0.11952 0.0
H1706 H 0.14597 0.44103 0.12528 0.0
H1707 H 0.1517 0.40962 0.11877 0.0
H1708 H 0.18423 0.47718 0.10296 0.0
H1709 H 0.15824 0.46451 0.1744 0.0
H1710 H 0.16953 0.44757 0.16062 0.0
H1711 H 0.14521 0.45338 0.15648 0.0
C1712 C 0.19705 0.4248 0.11521 0.0
C1713 C 0.18208 0.41246 0.11517 0.0
C1714 C 0.19377 0.44267 0.11922 0.0
C1715 C 0.17544 0.44871 0.12328 0.0
C1716 C 0.16031 0.43662 0.12258 0.0
H1717 H 0.15384 0.56368 0.13499 0.0
H1718 H 0.15264 0.53295 0.12387 0.0
C1719 C 0.16359 0.41866 0.11864 0.0
C1720 C 0.17248 0.46758 0.12858 0.0
H1721 H 0.15861 0.49424 0.1644 0.0
C1722 C 0.1785 0.48093 0.11634 0.0
C1723 C 0.16519 0.47246 0.14613 0.0
C1724 C 0.15932 0.45876 0.16026 0.0
C1725 C 0.17778 0.49897 0.12129 0.0
C1726 C 0.17046 0.50384 0.13883 0.0
C1727 C 0.16409 0.49051 0.15091 0.0
C1728 C 0.17063 0.52251 0.14553 0.0
C1729 C 0.18561 0.51257 0.108 0.0
C1730 C 0.18071 0.52681 0.16166 0.0
C1731 C 0.18125 0.54427 0.16814 0.0
C1732 C 0.17172 0.55789 0.15863 0.0
C1733 C 0.16145 0.55355 0.14256 0.0
C1734 C 0.16084 0.536 0.13613 0.0
H1735 H 0.19462 0.50639 0.09714 0.0
H1736 H 0.1737 0.51944 0.10102 0.0
H1737 H 0.19414 0.52269 0.11545 0.0
H1738 H 0.18835 0.51665 0.16917 0.0
H1739 H 0.18929 0.54708 0.18056 0.0
H1740 H 0.67171 0.97025 0.83531 0.0
H1741 H 0.66923 1.00081 0.84612 0.0
H1742 H 0.66869 0.98268 0.90272 0.0
H1743 H 0.67141 0.95188 0.89201 0.0
H1744 H 0.64111 0.01689 0.86799 0.0
H1745 H 0.71177 0.0195 0.90204 0.0
H1746 H 0.70531 1.00206 0.88612 0.0
H1747 H 0.69618 1.00197 0.90932 0.0
C1748 C 0.67106 0.97268 0.85008 0.0
C1749 C 0.67187 0.95857 0.8628 0.0
C1750 C 0.6696 0.9902 0.85623 0.0
C1751 C 0.66901 0.99406 0.87522 0.0
C1752 C 0.66945 0.98002 0.888 0.0
H1753 H 0.67203 0.10227 0.9223 0.0
H1754 H 0.6681 0.0699 0.92013 0.0
C1755 C 0.6709 0.96242 0.88185 0.0
C1756 C 0.66801 0.01285 0.88135 0.0
H1757 H 0.69369 0.04569 0.90221 0.0
C1758 C 0.65251 0.02315 0.87564 0.0
C1759 C 0.68286 0.02098 0.89142 0.0
C1760 C 0.70006 0.01065 0.89751 0.0
C1761 C 0.65172 0.04144 0.87925 0.0
C1762 C 0.66694 0.04971 0.88859 0.0
C1763 C 0.68204 0.0393 0.89505 0.0
C1764 C 0.66832 0.0693 0.89018 0.0
C1765 C 0.6347 0.05182 0.87279 0.0
C1766 C 0.66982 0.07963 0.87411 0.0
C1767 C 0.6721 0.09799 0.87531 0.0
C1768 C 0.67297 0.10647 0.89264 0.0
C1769 C 0.67122 0.09614 0.90877 0.0
C1770 C 0.66908 0.07767 0.90755 0.0
H1771 H 0.62212 0.04313 0.87102 0.0
H1772 H 0.63112 0.06259 0.8827 0.0
H1773 H 0.63792 0.05795 0.85918 0.0
H1774 H 0.66957 0.07343 0.86057 0.0
H1775 H 0.67318 0.10555 0.86263 0.0
H1776 H 0.83183 0.04917 0.3398 0.0
H1777 H 0.83338 0.01827 0.34961 0.0
H1778 H 0.86795 0.03321 0.39626 0.0
H1779 H 0.86621 0.06439 0.38669 0.0
H1780 H 0.86483 0.99693 0.35359 0.0
H1781 H 0.82645 1.00348 0.42056 0.0
H1782 H 0.82622 0.02071 0.40321 0.0
H1783 H 0.84664 0.01774 0.4177 0.0
C1784 C 0.83971 0.04596 0.35221 0.0
C1785 C 0.84884 0.05932 0.36249 0.0
C1786 C 0.8406 0.02824 0.35778 0.0
C1787 C 0.8506 0.02341 0.37378 0.0
C1788 C 0.85985 0.03666 0.38406 0.0
H1789 H 0.8601 0.91522 0.41984 0.0
H1790 H 0.86603 0.94689 0.41406 0.0
C1791 C 0.85891 0.05447 0.37852 0.0
C1792 C 0.85149 1.00441 0.37926 0.0
H1793 H 0.83754 0.97497 0.41261 0.0
C1794 C 0.85898 0.99216 0.36656 0.0
C1795 C 0.84395 0.99818 0.39624 0.0
C1796 C 0.83522 0.01065 0.41019 0.0
C1797 C 0.85874 0.97385 0.37016 0.0
C1798 C 0.8506 0.96759 0.38681 0.0
C1799 C 0.84378 0.97984 0.39986 0.0
C1800 C 0.84763 0.94836 0.39018 0.0
C1801 C 0.867 0.96132 0.35599 0.0
C1802 C 0.83527 0.93876 0.37877 0.0
C1803 C 0.83184 0.92079 0.38205 0.0
C1804 C 0.8407 0.91198 0.39686 0.0
C1805 C 0.85322 0.92159 0.40823 0.0
C1806 C 0.85654 0.93968 0.40501 0.0
H1807 H 0.87717 0.96818 0.34668 0.0
H1808 H 0.87433 0.95005 0.3628 0.0
H1809 H 0.85539 0.95586 0.34734 0.0
H1810 H 0.82806 0.94525 0.36739 0.0
H1811 H 0.8223 0.91377 0.37291 0.0
H1812 H 0.31786 0.46027 0.63076 0.0
H1813 H 0.32256 0.4902 0.61847 0.0
H1814 H 0.36405 0.50055 0.66092 0.0
H1815 H 0.35988 0.47055 0.6729 0.0
H1816 H 0.31525 0.52051 0.63536 0.0
H1817 H 0.39118 0.52029 0.61694 0.0
H1818 H 0.37835 0.50014 0.62197 0.0
H1819 H 0.38772 0.51356 0.64049 0.0
C1820 C 0.32823 0.46881 0.63728 0.0
C1821 C 0.33853 0.46298 0.65279 0.0
C1822 C 0.33089 0.48594 0.63024 0.0
C1823 C 0.34388 0.49759 0.63856 0.0
C1824 C 0.35436 0.49169 0.65389 0.0
H1825 H 0.36131 0.60803 0.64949 0.0
H1826 H 0.36091 0.57561 0.65031 0.0
C1827 C 0.35184 0.47453 0.66083 0.0
C1828 C 0.34529 0.51637 0.63232 0.0
H1829 H 0.37693 0.54915 0.62156 0.0
C1830 C 0.32869 0.52667 0.63197 0.0
C1831 C 0.36282 0.52446 0.62782 0.0
C1832 C 0.38098 0.51397 0.62663 0.0
C1833 C 0.32929 0.54494 0.62821 0.0
C1834 C 0.34692 0.55314 0.62468 0.0
C1835 C 0.36344 0.5428 0.62434 0.0
C1836 C 0.34859 0.57267 0.62309 0.0
C1837 C 0.31121 0.55558 0.6289 0.0
C1838 C 0.34215 0.58173 0.60732 0.0
C1839 C 0.34242 0.60033 0.60679 0.0
C1840 C 0.34894 0.61009 0.62212 0.0
C1841 C 0.35594 0.60088 0.6376 0.0
C1842 C 0.35584 0.58237 0.63804 0.0
H1843 H 0.29887 0.54746 0.63331 0.0
H1844 H 0.3128 0.56691 0.63862 0.0
H1845 H 0.30821 0.56113 0.61498 0.0
H1846 H 0.33656 0.57442 0.59562 0.0
H1847 H 0.33688 0.60708 0.59474 0.0
H1848 H 0.8774 0.80845 0.4751 0.0
H1849 H 0.88977 0.81262 0.50634 0.0
H1850 H 0.88731 0.86937 0.49934 0.0
H1851 H 0.87489 0.86533 0.46782 0.0
H1852 H 0.92353 0.83359 0.51867 0.0
H1853 H 0.85436 0.85704 0.54685 0.0
H1854 H 0.8559 0.84471 0.52545 0.0
H1855 H 0.86352 0.86739 0.52622 0.0
C1856 C 0.8796 0.82185 0.4801 0.0
C1857 C 0.87505 0.83656 0.46899 0.0
C1858 C 0.88671 0.82419 0.49796 0.0
C1859 C 0.88928 0.84128 0.50519 0.0
C1860 C 0.88527 0.85606 0.49403 0.0
H1861 H 0.91053 0.86041 0.62371 0.0
H1862 H 0.90574 0.86613 0.59064 0.0
C1863 C 0.87827 0.85372 0.47602 0.0
C1864 C 0.89553 0.84333 0.52467 0.0
H1865 H 0.87883 0.85198 0.56814 0.0
C1866 C 0.91386 0.83785 0.52948 0.0
C1867 C 0.88293 0.84899 0.5387 0.0
C1868 C 0.86302 0.85482 0.53421 0.0
C1869 C 0.91975 0.83738 0.54805 0.0
C1870 C 0.90678 0.84204 0.56221 0.0
C1871 C 0.88874 0.84833 0.5573 0.0
C1872 C 0.91102 0.83904 0.58213 0.0
C1873 C 0.93978 0.83172 0.5523 0.0
C1874 C 0.91552 0.82193 0.58839 0.0
C1875 C 0.91838 0.81866 0.6072 0.0
C1876 C 0.91659 0.83237 0.62032 0.0
C1877 C 0.91224 0.84957 0.61402 0.0
C1878 C 0.90939 0.85285 0.59512 0.0
H1879 H 0.94943 0.8347 0.54054 0.0
H1880 H 0.94525 0.8384 0.56491 0.0
H1881 H 0.94008 0.81717 0.5546 0.0
H1882 H 0.91643 0.81096 0.57873 0.0
H1883 H 0.92192 0.8053 0.61145 0.0
H1884 H 0.6545 0.15529 0.97067 0.0
H1885 H 0.64526 0.15344 1.00326 0.0
H1886 H 0.61708 0.20403 0.99893 0.0
H1887 H 0.6266 0.20617 0.96649 0.0
H1888 H 0.64062 0.20319 0.02789 0.0
H1889 H 0.59573 0.14294 0.02924 0.0
H1890 H 0.61854 0.13907 0.01903 0.0
H1891 H 0.60219 0.15398 1.00797 0.0
C1892 C 0.64608 0.1659 0.97657 0.0
C1893 C 0.64134 0.18091 0.96596 0.0
C1894 C 0.64069 0.16476 0.9952 0.0
C1895 C 0.63026 0.17849 1.00353 0.0
C1896 C 0.62507 0.19324 0.99281 0.0
H1897 H 0.58694 0.17888 0.1178 0.0
H1898 H 0.58908 0.17794 0.08384 0.0
C1899 C 0.63053 0.19444 0.97424 0.0
C1900 C 0.62623 0.17829 0.02376 0.0
H1901 H 0.60663 0.15367 0.05864 0.0
C1902 C 0.63302 0.19242 0.03455 0.0
C1903 C 0.61614 0.16436 0.03249 0.0
C1904 C 0.60755 0.14932 0.02157 0.0
C1905 C 0.6305 0.19278 0.05382 0.0
C1906 C 0.62127 0.17843 0.06266 0.0
C1907 C 0.61391 0.16455 0.05187 0.0
C1908 C 0.61971 0.1775 0.08315 0.0
C1909 C 0.63775 0.20859 0.06454 0.0
C1910 C 0.63617 0.17698 0.09399 0.0
C1911 C 0.63498 0.17754 0.11327 0.0
C1912 C 0.61729 0.17849 0.1222 0.0
C1913 C 0.60075 0.17814 0.11135 0.0
C1914 C 0.60196 0.17765 0.09196 0.0
H1915 H 0.63952 0.2204 0.0555 0.0
H1916 H 0.628 0.21207 0.07605 0.0
H1917 H 0.65179 0.20533 0.07053 0.0
H1918 H 0.65 0.17642 0.0875 0.0
H1919 H 0.64797 0.17733 0.1212 0.0
H1920 H 0.43654 0.66521 0.4006 0.0
H1921 H 0.4314 0.65937 0.43371 0.0
H1922 H 0.37864 0.68805 0.43146 0.0
H1923 H 0.3835 0.69366 0.39854 0.0
H1924 H 0.4261 0.68552 0.4625 0.0
H1925 H 0.36428 0.64056 0.45632 0.0
H1926 H 0.38002 0.64515 0.43717 0.0
H1927 H 0.36189 0.66081 0.44344 0.0
C1928 C 0.42375 0.67007 0.40713 0.0
C1929 C 0.41046 0.67994 0.39692 0.0
C1930 C 0.42088 0.66681 0.42605 0.0
C1931 C 0.40453 0.67311 0.43499 0.0
C1932 C 0.39122 0.68285 0.4248 0.0
H1933 H 0.35331 0.68209 0.54178 0.0
H1934 H 0.36229 0.68162 0.50915 0.0
C1935 C 0.39413 0.68621 0.40599 0.0
C1936 C 0.40152 0.67019 0.45512 0.0
H1937 H 0.36995 0.65306 0.4862 0.0
C1938 C 0.41399 0.6782 0.46774 0.0
C1939 C 0.3857 0.66067 0.46189 0.0
C1940 C 0.37229 0.65115 0.44902 0.0
C1941 C 0.41055 0.67767 0.48692 0.0
C1942 C 0.39439 0.66858 0.49366 0.0
C1943 C 0.38228 0.66008 0.48104 0.0
C1944 C 0.38917 0.66855 0.51362 0.0
C1945 C 0.42375 0.68753 0.49973 0.0
C1946 C 0.40119 0.66115 0.52705 0.0
C1947 C 0.39611 0.66145 0.54581 0.0
C1948 C 0.37884 0.66904 0.5515 0.0
C1949 C 0.36673 0.67617 0.53795 0.0
C1950 C 0.37183 0.6759 0.51925 0.0
H1951 H 0.4329 0.69706 0.49212 0.0
H1952 H 0.41565 0.69491 0.51044 0.0
H1953 H 0.43308 0.67787 0.50687 0.0
H1954 H 0.41447 0.65508 0.52301 0.0
H1955 H 0.40572 0.65573 0.55585 0.0
H1956 H 0.13259 0.30775 0.04748 0.0
H1957 H 0.12217 0.31 0.0153 0.0
H1958 H 0.14373 0.3635 0.01263 0.0
H1959 H 0.15329 0.36161 0.0452 0.0
H1960 H 0.11227 0.36083 0.99262 0.0
H1961 H 0.15955 0.30492 0.97431 0.0
H1962 H 0.14202 0.29857 0.99099 0.0
H1963 H 0.15962 0.31493 0.99696 0.0
C1964 C 0.13484 0.32009 0.0401 0.0
C1965 C 0.14393 0.33444 0.04877 0.0
C1966 C 0.12902 0.32131 0.02166 0.0
C1967 C 0.13274 0.3367 0.0113 0.0
C1968 C 0.14086 0.35142 0.02025 0.0
H1969 H 0.1442 0.33332 0.89215 0.0
H1970 H 0.14873 0.33627 0.92555 0.0
C1971 C 0.14631 0.35034 0.03888 0.0
C1972 C 0.12911 0.33706 0.99098 0.0
H1973 H 0.13861 0.31476 0.95089 0.0
C1974 C 0.11808 0.3508 0.98346 0.0
C1975 C 0.13702 0.3242 0.97893 0.0
C1976 C 0.15037 0.30995 0.98567 0.0
C1977 C 0.1146 0.35192 0.9643 0.0
C1978 C 0.12184 0.3386 0.95237 0.0
C1979 C 0.1329 0.32492 0.95995 0.0
C1980 C 0.11885 0.33869 0.93193 0.0
C1981 C 0.10368 0.36765 0.95704 0.0
C1982 C 0.10056 0.33937 0.92419 0.0
C1983 C 0.09803 0.33808 0.90497 0.0
C1984 C 0.11368 0.33557 0.89324 0.0
C1985 C 0.13191 0.33509 0.90095 0.0
C1986 C 0.13448 0.33677 0.92003 0.0
H1987 H 0.1044 0.37908 0.96674 0.0
H1988 H 0.10914 0.37197 0.94334 0.0
H1989 H 0.08856 0.36393 0.95549 0.0
H1990 H 0.08821 0.34034 0.93301 0.0
H1991 H 0.08384 0.3383 0.89932 0.0
H1992 H 0.60727 0.87006 0.8011 0.0
H1993 H 0.57309 0.86636 0.80438 0.0
H1994 H 0.56936 0.91729 0.83139 0.0
H1995 H 0.60378 0.92095 0.82836 0.0
H1996 H 0.54727 0.89257 0.84849 0.0
H1997 H 0.53385 0.891 0.77306 0.0
H1998 H 0.55065 0.87446 0.77999 0.0
H1999 H 0.55636 0.89761 0.78264 0.0
C2000 C 0.59918 0.88054 0.80762 0.0
C2001 C 0.60821 0.89591 0.81424 0.0
C2002 C 0.57962 0.87842 0.80947 0.0
C2003 C 0.56856 0.89174 0.81771 0.0
C2004 C 0.57758 0.90689 0.82485 0.0
H2005 H 0.44595 0.8893 0.80221 0.0
H2006 H 0.47898 0.89898 0.80349 0.0
C2007 C 0.59724 0.90895 0.82315 0.0
C2008 C 0.54763 0.88973 0.81882 0.0
H2009 H 0.50861 0.88098 0.79248 0.0
C2010 C 0.53877 0.8902 0.83624 0.0
C2011 C 0.53645 0.88701 0.80281 0.0
C2012 C 0.54478 0.88768 0.78356 0.0
C2013 C 0.51916 0.88737 0.83812 0.0
C2014 C 0.50819 0.88355 0.82219 0.0
C2015 C 0.51698 0.8837 0.80474 0.0
C2016 C 0.4877 0.87893 0.82318 0.0
C2017 C 0.51042 0.88867 0.85714 0.0
C2018 C 0.48145 0.86458 0.83399 0.0
C2019 C 0.4625 0.85916 0.83346 0.0
C2020 C 0.44945 0.86777 0.82181 0.0
C2021 C 0.45563 0.88236 0.8113 0.0
C2022 C 0.47453 0.8879 0.81201 0.0
H2023 H 0.51896 0.89732 0.86639 0.0
H2024 H 0.49577 0.89399 0.85649 0.0
H2025 H 0.50992 0.87526 0.86346 0.0
H2026 H 0.49137 0.85712 0.84234 0.0
H2027 H 0.45826 0.84776 0.8416 0.0
H2028 H 0.91231 0.15032 0.31186 0.0
H2029 H 0.9467 0.15237 0.31394 0.0
H2030 H 0.9494 0.09795 0.33211 0.0
H2031 H 0.91469 0.09584 0.33013 0.0
H2032 H 0.974 0.1206 0.35168 0.0
H2033 H 0.98209 0.12963 0.27604 0.0
H2034 H 0.9661 0.14543 0.2861 0.0
H2035 H 0.96025 0.12218 0.28645 0.0
C2036 C 0.92018 0.13874 0.31622 0.0
C2037 C 0.91078 0.12281 0.32052 0.0
C2038 C 0.93986 0.13994 0.31741 0.0
C2039 C 0.95067 0.12519 0.32273 0.0
C2040 C 0.94134 0.10945 0.32781 0.0
H2041 H 0.07199 0.12846 0.299 0.0
H2042 H 0.03927 0.11819 0.30181 0.0
C2043 C 0.92153 0.10827 0.32672 0.0
C2044 C 0.97168 0.12632 0.32257 0.0
H2045 H 1.00892 0.13712 0.2946 0.0
C2046 C 0.9817 0.12401 0.33918 0.0
C2047 C 0.98177 0.13042 0.30618 0.0
C2048 C 0.97203 0.13187 0.28765 0.0
C2049 C 1.00145 0.12648 0.33997 0.0
C2050 C 0.01135 0.13173 0.3238 0.0
C2051 C 1.00138 0.13328 0.30706 0.0
C2052 C 0.03185 0.13637 0.32387 0.0
C2053 C 0.01148 0.12339 0.35811 0.0
C2054 C 0.03874 0.14986 0.33549 0.0
C2055 C 0.05752 0.15565 0.33403 0.0
C2056 C 0.06974 0.14828 0.32068 0.0
C2057 C 0.06296 0.13446 0.30939 0.0
C2058 C 0.04424 0.12857 0.31098 0.0
H2059 H 1.00352 0.11392 0.36698 0.0
H2060 H 0.026 0.11815 0.3559 0.0
H2061 H 0.01253 0.13613 0.36573 0.0
H2062 H 0.02939 0.15645 0.3452 0.0
H2063 H 0.06221 0.16641 0.34285 0.0
H2064 H 0.10556 0.62434 0.233 0.0
H2065 H 0.07179 0.63001 0.22932 0.0
H2066 H 0.07735 0.62435 0.17015 0.0
H2067 H 0.1114 0.61867 0.17377 0.0
H2068 H 0.05652 0.65825 0.20947 0.0
H2069 H 0.03063 0.59363 0.18209 0.0
H2070 H 0.05338 0.59595 0.19325 0.0
H2071 H 0.05018 0.60354 0.16991 0.0
C2072 C 0.09965 0.62426 0.21919 0.0
C2073 C 0.11125 0.62119 0.20367 0.0
C2074 C 0.08029 0.62741 0.21711 0.0
C2075 C 0.07198 0.62752 0.19948 0.0
C2076 C 0.08337 0.62404 0.18393 0.0
H2077 H 0.95445 0.6569 0.17216 0.0
H2078 H 0.98767 0.64758 0.16943 0.0
C2079 C 0.10284 0.62081 0.18601 0.0
C2080 C 0.05167 0.63243 0.1976 0.0
H2081 H 1.00804 0.61658 0.18534 0.0
C2082 C 0.04595 0.64914 0.20412 0.0
C2083 C 0.0379 0.62061 0.19047 0.0
C2084 C 0.04321 0.60236 0.18363 0.0
C2085 C 0.02684 0.65424 0.20404 0.0
C2086 C 0.01299 0.64222 0.19752 0.0
C2087 C 0.01871 0.62572 0.1904 0.0
C2088 C 0.99248 0.64636 0.19896 0.0
C2089 C 0.0216 0.67246 0.21105 0.0
C2090 C 0.98406 0.64829 0.21645 0.0
C2091 C 0.96517 0.65356 0.21807 0.0
C2092 C 0.95422 0.65701 0.20221 0.0
C2093 C 0.96248 0.65441 0.18465 0.0
C2094 C 0.98145 0.64907 0.18306 0.0
H2095 H 0.03397 0.68158 0.2111 0.0
H2096 H 0.01021 0.67841 0.20246 0.0
H2097 H 0.01627 0.67136 0.22547 0.0
H2098 H 0.99226 0.64602 0.2289 0.0
H2099 H 0.95928 0.65531 0.2318 0.0
H2100 H 0.41368 0.39618 0.73497 0.0
H2101 H 0.44732 0.38925 0.73243 0.0
H2102 H 0.4435 0.39188 0.67293 0.0
H2103 H 0.40966 0.39872 0.67535 0.0
H2104 H 0.46303 0.35992 0.71446 0.0
H2105 H 0.48996 0.42294 0.68427 0.0
H2106 H 0.46691 0.42123 0.69499 0.0
H2107 H 0.47067 0.41267 0.67208 0.0
C2108 C 0.41992 0.39527 0.72132 0.0
C2109 C 0.40886 0.39795 0.70536 0.0
C2110 C 0.43922 0.3914 0.7199 0.0
C2111 C 0.448 0.3902 0.70251 0.0
C2112 C 0.43712 0.39307 0.68652 0.0
H2113 H 0.56529 0.36007 0.67588 0.0
H2114 H 0.532 0.36921 0.6734 0.0
C2115 C 0.41775 0.39698 0.68793 0.0
C2116 C 0.46829 0.38507 0.7013 0.0
H2117 H 0.51216 0.39975 0.68823 0.0
C2118 C 0.47376 0.36863 0.7087 0.0
C2119 C 0.48226 0.39637 0.69363 0.0
C2120 C 0.47727 0.41436 0.6859 0.0
C2121 C 0.49279 0.36325 0.70882 0.0
C2122 C 0.50683 0.37475 0.70164 0.0
C2123 C 0.50136 0.39099 0.69378 0.0
C2124 C 0.5273 0.37035 0.70297 0.0
C2125 C 0.4977 0.34525 0.71659 0.0
C2126 C 0.53581 0.36845 0.7204 0.0
C2127 C 0.55475 0.36326 0.72187 0.0
C2128 C 0.56565 0.35994 0.70593 0.0
C2129 C 0.55729 0.36247 0.68844 0.0
C2130 C 0.53827 0.36769 0.68699 0.0
H2131 H 0.48521 0.33629 0.71683 0.0
H2132 H 0.50914 0.33886 0.7084 0.0
H2133 H 0.50279 0.34683 0.73103 0.0
H2134 H 0.5277 0.37075 0.73291 0.0
H2135 H 0.56072 0.36158 0.73556 0.0
H2136 H 0.84991 0.63018 0.90999 0.0
H2137 H 0.85335 0.59794 0.90686 0.0
H2138 H 0.80145 0.59577 0.8756 0.0
H2139 H 0.7977 0.62773 0.87889 0.0
H2140 H 0.82803 0.57052 0.9179 0.0
H2141 H 0.83994 0.5699 0.84206 0.0
H2142 H 0.84229 0.58975 0.8559 0.0
H2143 H 0.81925 0.58213 0.84886 0.0
C2144 C 0.83915 0.62285 0.90257 0.0
C2145 C 0.82362 0.63167 0.89453 0.0
C2146 C 0.84121 0.60443 0.9007 0.0
C2147 C 0.82787 0.59452 0.89065 0.0
C2148 C 0.81218 0.60321 0.88299 0.0
H2149 H 0.79373 0.48628 0.89056 0.0
H2150 H 0.79853 0.51802 0.89457 0.0
C2151 C 0.81007 0.62154 0.88489 0.0
C2152 C 0.82988 0.57501 0.88853 0.0
H2153 H 0.83166 0.54211 0.85598 0.0
C2154 C 0.82907 0.56431 0.90439 0.0
C2155 C 0.83152 0.56692 0.87091 0.0
C2156 C 0.83349 0.57776 0.85346 0.0
C2157 C 0.82889 0.54571 0.90303 0.0
C2158 C 0.82932 0.53763 0.88533 0.0
C2159 C 0.83112 0.54832 0.86953 0.0
C2160 C 0.82675 0.51821 0.88291 0.0
C2161 C 0.82802 0.53485 0.92055 0.0
C2162 C 0.84083 0.50777 0.87452 0.0
C2163 C 0.83816 0.48946 0.87225 0.0
C2164 C 0.82128 0.48128 0.8782 0.0
C2165 C 0.80709 0.49194 0.88622 0.0
C2166 C 0.80979 0.51016 0.88852 0.0
H2167 H 0.83325 0.54248 0.93267 0.0
H2168 H 0.81309 0.53107 0.92331 0.0
H2169 H 0.8365 0.5225 0.9192 0.0
H2170 H 0.85397 0.51377 0.86994 0.0
H2171 H 0.84943 0.48171 0.86611 0.0
H2172 H 0.29907 0.88808 0.14296 0.0
H2173 H 0.30171 0.92015 0.14642 0.0
H2174 H 0.35557 0.91924 0.11829 0.0
H2175 H 0.35316 0.88695 0.11492 0.0
H2176 H 0.33031 0.93988 0.16446 0.0
H2177 H 0.3248 0.9569 0.08972 0.0
H2178 H 0.31836 0.93535 0.09862 0.0
H2179 H 0.34286 0.94114 0.09578 0.0
C2180 C 0.31158 0.8946 0.1376 0.0
C2181 C 0.32593 0.88484 0.12868 0.0
C2182 C 0.31301 0.91299 0.13954 0.0
C2183 C 0.32876 0.92211 0.13252 0.0
C2184 C 0.34315 0.9125 0.12358 0.0
H2185 H 0.34994 0.03467 0.15937 0.0
H2186 H 0.35395 1.0025 0.15607 0.0
C2187 C 0.34173 0.89403 0.12163 0.0
C2188 C 0.32995 0.94168 0.13472 0.0
H2189 H 0.32875 0.98064 0.1106 0.0
C2190 C 0.33014 0.94881 0.1527 0.0
C2191 C 0.32957 0.95329 0.11935 0.0
C2192 C 0.32874 0.94637 0.09975 0.0
C2193 C 0.32963 0.96724 0.15572 0.0
C2194 C 0.32913 0.97884 0.14034 0.0
C2195 C 0.32926 0.97171 0.12236 0.0
C2196 C 0.32697 0.99833 0.14257 0.0
C2197 C 0.32891 0.97413 0.17532 0.0
C2198 C 0.31059 1.00667 0.13594 0.0
C2199 C 0.30824 0.02498 0.13785 0.0
C2200 C 0.3223 0.03545 0.14632 0.0
C2201 C 0.33873 0.02703 0.15299 0.0
C2202 C 0.34107 0.00864 0.15109 0.0
H2203 H 0.32581 0.96344 0.18546 0.0
H2204 H 0.34281 0.98007 0.17893 0.0
H2205 H 0.31796 0.98463 0.17671 0.0
H2206 H 0.29949 0.99896 0.12941 0.0
H2207 H 0.29526 0.03086 0.13282 0.0
H2208 H 0.22776 0.98824 0.63987 0.0
H2209 H 0.22248 0.01976 0.63451 0.0
H2210 H 0.16478 0.01448 0.65318 0.0
H2211 H 0.16975 0.98259 0.65819 0.0
H2212 H 0.18866 0.03352 0.61001 0.0
H2213 H 0.19255 0.05818 0.68272 0.0
H2214 H 0.20491 0.03827 0.67576 0.0
H2215 H 0.1796 0.03818 0.67736 0.0
C2216 C 0.21387 0.99364 0.64273 0.0
C2217 C 0.19913 0.98273 0.64929 0.0
C2218 C 0.21094 0.01172 0.63978 0.0
C2219 C 0.19327 0.0194 0.64346 0.0
C2220 C 0.17856 0.00877 0.65036 0.0
H2221 H 0.17504 0.13489 0.63208 0.0
H2222 H 0.16887 0.1036 0.63946 0.0
C2223 C 0.18146 0.99057 0.65327 0.0
C2224 C 0.19034 0.03843 0.63931 0.0
H2225 H 0.19173 0.07961 0.65901 0.0
C2226 C 0.18904 0.04361 0.62072 0.0
C2227 C 0.19065 0.0515 0.65333 0.0
C2228 C 0.19202 0.04641 0.67347 0.0
C2229 C 0.18876 0.0616 0.61572 0.0
C2230 C 0.19034 0.07473 0.62966 0.0
C2231 C 0.19063 0.06954 0.64834 0.0
C2232 C 0.19354 0.09369 0.62499 0.0
C2233 C 0.18712 0.06635 0.59549 0.0
C2234 C 0.20953 0.0985 0.61461 0.0
C2235 C 0.21302 0.11625 0.61032 0.0
C2236 C 0.20071 0.1297 0.61646 0.0
C2237 C 0.18469 0.12487 0.62696 0.0
C2238 C 0.18121 0.10702 0.63128 0.0
H2239 H 0.17979 0.05574 0.58758 0.0
H2240 H 0.17929 0.079 0.59357 0.0
H2241 H 0.20152 0.06792 0.58954 0.0
H2242 H 0.21945 0.0885 0.60992 0.0
H2243 H 0.22535 0.11936 0.60203 0.0
H2244 H 0.67319 0.38787 0.41618 0.0
H2245 H 0.66946 0.41976 0.41111 0.0
H2246 H 0.7076 0.41691 0.36454 0.0
H2247 H 0.71075 0.38505 0.36896 0.0
H2248 H 0.69606 0.44496 0.41308 0.0
H2249 H 0.66529 0.4459 0.34279 0.0
H2250 H 0.66647 0.42594 0.35654 0.0
H2251 H 0.68677 0.43325 0.34348 0.0
C2252 C 0.68049 0.39392 0.40463 0.0
C2253 C 0.69231 0.38377 0.39302 0.0
C2254 C 0.67842 0.41221 0.40181 0.0
C2255 C 0.68801 0.42074 0.38726 0.0
C2256 C 0.69968 0.41063 0.37559 0.0
H2257 H 0.72749 0.52772 0.38023 0.0
H2258 H 0.72223 0.49602 0.38453 0.0
C2259 C 0.70171 0.39237 0.37834 0.0
C2260 C 0.68696 0.44034 0.38503 0.0
H2261 H 0.67979 0.47313 0.35311 0.0
C2262 C 0.69225 0.45111 0.40003 0.0
C2263 C 0.68168 0.44846 0.36812 0.0
C2264 C 0.67454 0.43778 0.35189 0.0
C2265 C 0.69327 0.46964 0.39833 0.0
C2266 C 0.68932 0.47765 0.38103 0.0
C2267 C 0.68312 0.46699 0.36629 0.0
C2268 C 0.69239 0.49692 0.37781 0.0
C2269 C 0.69866 0.48046 0.41511 0.0
C2270 C 0.67754 0.50793 0.37184 0.0
C2271 C 0.68056 0.52616 0.36924 0.0
C2272 C 0.69848 0.53367 0.37256 0.0
C2273 C 0.7134 0.52247 0.378 0.0
C2274 C 0.71042 0.50432 0.38049 0.0
H2275 H 0.69528 0.47332 0.42816 0.0
H2276 H 0.71415 0.48295 0.41489 0.0
H2277 H 0.69125 0.49346 0.41524 0.0
H2278 H 0.66355 0.50247 0.36952 0.0
H2279 H 0.66877 0.53442 0.36509 0.0
loop_
_geom_bond_atom_site_label_1
_geom_bond_atom_site_label_2
_geom_bond_distance
_geom_bond_site_symmetry_2
_ccdc_geom_bond_type
Cu0 N1 1.999 . S
Cu0 O6 1.974 . S
Cu0 N11 1.985 . S
Cu0 O20 1.959 . S
N1 Cu0 1.999 . S
N1 C3 1.263 . S
N1 C5 1.389 . S
N2 C3 1.358 . S
N2 C4 1.400 . S
C3 N1 1.263 . S
C3 N2 1.358 . S
C3 H9 0.930 . S
C4 N2 1.400 . S
C4 C5 1.351 . S
C4 H21 0.930 . S
C5 N1 1.389 . S
C5 C4 1.351 . S
C5 H10 0.930 . S
O6 Cu0 1.974 . S
O6 C16 1.282 . S
C7 O8 1.261 . S
C7 O20 1.251 . S
O8 C7 1.261 . S
H9 C3 0.930 . S
H10 C5 0.930 . S
N11 Cu0 1.985 . S
N11 C13 1.335 . S
N11 C14 1.390 . S
N12 C13 1.345 . S
N12 C15 1.336 . S
C13 N11 1.335 . S
C13 N12 1.345 . S
C13 H18 0.930 . S
C14 N11 1.390 . S
C14 C15 1.346 . S
C14 H19 0.930 . S
C15 N12 1.336 . S
C15 C14 1.346 . S
C15 H22 0.929 . S
C16 O6 1.282 . S
C16 O17 1.216 . S
O17 C16 1.216 . S
H18 C13 0.930 . S
H19 C14 0.930 . S
O20 Cu0 1.959 . S
O20 C7 1.251 . S
H21 C4 0.930 . S
H22 C15 0.929 . S
Cu23 N24 1.999 . S
Cu23 O29 1.974 . S
Cu23 N34 1.985 . S
Cu23 O43 1.959 . S
N24 Cu23 1.999 . S
N24 C26 1.263 . S
N24 C28 1.389 . S
N25 C26 1.358 . S
N25 C27 1.400 . S
C26 N24 1.263 . S
C26 N25 1.358 . S
C26 H32 0.930 . S
C27 N25 1.400 . S
C27 C28 1.351 . S
C27 H44 0.930 . S
C28 N24 1.389 . S
C28 C27 1.351 . S
C28 H33 0.930 . S
O29 Cu23 1.974 . S
O29 C39 1.282 . S
C30 O31 1.261 . S
C30 O43 1.251 . S
O31 C30 1.261 . S
H32 C26 0.930 . S
H33 C28 0.930 . S
N34 Cu23 1.985 . S
N34 C36 1.335 . S
N34 C37 1.390 . S
N35 C36 1.345 . S
N35 C38 1.336 . S
C36 N34 1.335 . S
C36 N35 1.345 . S
C36 H41 0.930 . S
C37 N34 1.390 . S
C37 C38 1.346 . S
C37 H42 0.930 . S
C38 N35 1.336 . S
C38 C37 1.346 . S
C38 H45 0.929 . S
C39 O29 1.282 . S
C39 O40 1.216 . S
O40 C39 1.216 . S
H41 C36 0.930 . S
H42 C37 0.930 . S
O43 Cu23 1.959 . S
O43 C30 1.251 . S
H44 C27 0.930 . S
H45 C38 0.929 . S
Cu46 N47 1.999 . S
Cu46 O52 1.974 . S
Cu46 N57 1.985 . S
Cu46 O66 1.959 . S
N47 Cu46 1.999 . S
N47 C49 1.263 . S
N47 C51 1.389 . S
N48 C49 1.358 . S
N48 C50 1.400 . S
C49 N47 1.263 . S
C49 N48 1.358 . S
C49 H55 0.930 . S
C50 N48 1.400 . S
C50 C51 1.351 . S
C50 H67 0.930 . S
C51 N47 1.389 . S
C51 C50 1.351 . S
C51 H56 0.930 . S
O52 Cu46 1.974 . S
O52 C62 1.282 . S
C53 O54 1.261 . S
C53 O66 1.251 . S
O54 C53 1.261 . S
H55 C49 0.930 . S
H56 C51 0.930 . S
N57 Cu46 1.985 . S
N57 C59 1.335 . S
N57 C60 1.390 . S
N58 C59 1.345 . S
N58 C61 1.336 . S
C59 N57 1.335 . S
C59 N58 1.345 . S
C59 H64 0.930 . S
C60 N57 1.390 . S
C60 C61 1.346 . S
C60 H65 0.930 . S
C61 N58 1.336 . S
C61 C60 1.346 . S
C61 H68 0.929 . S
C62 O52 1.282 . S
C62 O63 1.216 . S
O63 C62 1.216 . S
H64 C59 0.930 . S
H65 C60 0.930 . S
O66 Cu46 1.959 . S
O66 C53 1.251 . S
H67 C50 0.930 . S
H68 C61 0.929 . S
Cu69 N70 1.999 . S
Cu69 O75 1.974 . S
Cu69 N80 1.985 . S
Cu69 O89 1.959 . S
N70 Cu69 1.999 . S
N70 C72 1.263 . S
N70 C74 1.389 . S
N71 C72 1.358 . S
N71 C73 1.400 . S
C72 N70 1.263 . S
C72 N71 1.358 . S
C72 H78 0.930 . S
C73 N71 1.400 . S
C73 C74 1.351 . S
C73 H90 0.930 . S
C74 N70 1.389 . S
C74 C73 1.351 . S
C74 H79 0.930 . S
O75 Cu69 1.974 . S
O75 C85 1.282 . S
C76 O77 1.261 . S
C76 O89 1.251 . S
O77 C76 1.261 . S
H78 C72 0.930 . S
H79 C74 0.930 . S
N80 Cu69 1.985 . S
N80 C82 1.335 . S
N80 C83 1.390 . S
N81 C82 1.345 . S
N81 C84 1.336 . S
C82 N80 1.335 . S
C82 N81 1.345 . S
C82 H87 0.930 . S
C83 N80 1.390 . S
C83 C84 1.346 . S
C83 H88 0.930 . S
C84 N81 1.336 . S
C84 C83 1.346 . S
C84 H91 0.929 . S
C85 O75 1.282 . S
C85 O86 1.216 . S
O86 C85 1.216 . S
H87 C82 0.930 . S
H88 C83 0.930 . S
O89 Cu69 1.959 . S
O89 C76 1.251 . S
H90 C73 0.930 . S
H91 C84 0.929 . S
Cu92 N93 1.999 . S
Cu92 O98 1.974 . S
Cu92 N103 1.985 . S
Cu92 O112 1.959 . S
N93 Cu92 1.999 . S
N93 C95 1.263 . S
N93 C97 1.389 . S
N94 C95 1.358 . S
N94 C96 1.400 . S
C95 N93 1.263 . S
C95 N94 1.358 . S
C95 H101 0.930 . S
C96 N94 1.400 . S
C96 C97 1.351 . S
C96 H113 0.930 . S
C97 N93 1.389 . S
C97 C96 1.351 . S
C97 H102 0.930 . S
O98 Cu92 1.974 . S
O98 C108 1.282 . S
C99 O100 1.261 . S
C99 O112 1.251 . S
O100 C99 1.261 . S
H101 C95 0.930 . S
H102 C97 0.930 . S
N103 Cu92 1.985 . S
N103 C105 1.335 . S
N103 C106 1.390 . S
N104 C105 1.345 . S
N104 C107 1.336 . S
C105 N103 1.335 . S
C105 N104 1.345 . S
C105 H110 0.930 . S
C106 N103 1.390 . S
C106 C107 1.346 . S
C106 H111 0.930 . S
C107 N104 1.336 . S
C107 C106 1.346 . S
C107 H114 0.929 . S
C108 O98 1.282 . S
C108 O109 1.216 . S
O109 C108 1.216 . S
H110 C105 0.930 . S
H111 C106 0.930 . S
O112 Cu92 1.959 . S
O112 C99 1.251 . S
H113 C96 0.930 . S
H114 C107 0.929 . S
Cu115 N116 1.999 . S
Cu115 O121 1.974 . S
Cu115 N126 1.985 . S
Cu115 O135 1.959 . S
N116 Cu115 1.999 . S
N116 C118 1.263 . S
N116 C120 1.389 . S
N117 C118 1.358 . S
N117 C119 1.400 . S
C118 N116 1.263 . S
C118 N117 1.358 . S
C118 H124 0.930 . S
C119 N117 1.400 . S
C119 C120 1.351 . S
C119 H136 0.930 . S
C120 N116 1.389 . S
C120 C119 1.351 . S
C120 H125 0.930 . S
O121 Cu115 1.974 . S
O121 C131 1.282 . S
C122 O123 1.261 . S
C122 O135 1.251 . S
O123 C122 1.261 . S
H124 C118 0.930 . S
H125 C120 0.930 . S
N126 Cu115 1.985 . S
N126 C128 1.335 . S
N126 C129 1.390 . S
N127 C128 1.345 . S
N127 C130 1.336 . S
C128 N126 1.335 . S
C128 N127 1.345 . S
C128 H133 0.930 . S
C129 N126 1.390 . S
C129 C130 1.346 . S
C129 H134 0.930 . S
C130 N127 1.336 . S
C130 C129 1.346 . S
C130 H137 0.929 . S
C131 O121 1.282 . S
C131 O132 1.216 . S
O132 C131 1.216 . S
H133 C128 0.930 . S
H134 C129 0.930 . S
O135 Cu115 1.959 . S
O135 C122 1.251 . S
H136 C119 0.930 . S
H137 C130 0.929 . S
Cu138 N139 1.999 . S
Cu138 O144 1.974 . S
Cu138 N149 1.985 . S
Cu138 O158 1.959 . S
N139 Cu138 1.999 . S
N139 C141 1.263 . S
N139 C143 1.389 . S
N140 C141 1.358 . S
N140 C142 1.400 . S
C141 N139 1.263 . S
C141 N140 1.358 . S
C141 H147 0.930 . S
C142 N140 1.400 . S
C142 C143 1.351 . S
C142 H159 0.930 . S
C143 N139 1.389 . S
C143 C142 1.351 . S
C143 H148 0.930 . S
O144 Cu138 1.974 . S
O144 C154 1.282 . S
C145 O146 1.261 . S
C145 O158 1.251 . S
O146 C145 1.261 . S
H147 C141 0.930 . S
H148 C143 0.930 . S
N149 Cu138 1.985 . S
N149 C151 1.335 . S
N149 C152 1.390 . S
N150 C151 1.345 . S
N150 C153 1.336 . S
C151 N149 1.335 . S
C151 N150 1.345 . S
C151 H156 0.930 . S
C152 N149 1.390 . S
C152 C153 1.346 . S
C152 H157 0.930 . S
C153 N150 1.336 . S
C153 C152 1.346 . S
C153 H160 0.929 . S
C154 O144 1.282 . S
C154 O155 1.216 . S
O155 C154 1.216 . S
H156 C151 0.930 . S
H157 C152 0.930 . S
O158 Cu138 1.959 . S
O158 C145 1.251 . S
H159 C142 0.930 . S
H160 C153 0.929 . S
Cu161 N162 1.999 . S
Cu161 O167 1.974 . S
Cu161 N172 1.985 . S
Cu161 O181 1.959 . S
N162 Cu161 1.999 . S
N162 C164 1.263 . S
N162 C166 1.389 . S
N163 C164 1.358 . S
N163 C165 1.400 . S
C164 N162 1.263 . S
C164 N163 1.358 . S
C164 H170 0.930 . S
C165 N163 1.400 . S
C165 C166 1.351 . S
C165 H182 0.930 . S
C166 N162 1.389 . S
C166 C165 1.351 . S
C166 H171 0.930 . S
O167 Cu161 1.974 . S
O167 C177 1.282 . S
C168 O169 1.261 . S
C168 O181 1.251 . S
O169 C168 1.261 . S
H170 C164 0.930 . S
H171 C166 0.930 . S
N172 Cu161 1.985 . S
N172 C174 1.335 . S
N172 C175 1.390 . S
N173 C174 1.345 . S
N173 C176 1.336 . S
C174 N172 1.335 . S
C174 N173 1.345 . S
C174 H179 0.930 . S
C175 N172 1.390 . S
C175 C176 1.346 . S
C175 H180 0.930 . S
C176 N173 1.336 . S
C176 C175 1.346 . S
C176 H183 0.929 . S
C177 O167 1.282 . S
C177 O178 1.216 . S
O178 C177 1.216 . S
H179 C174 0.930 . S
H180 C175 0.930 . S
O181 Cu161 1.959 . S
O181 C168 1.251 . S
H182 C165 0.930 . S
H183 C176 0.929 . S
Cu184 N185 1.999 . S
Cu184 O190 1.974 . S
Cu184 N195 1.985 . S
Cu184 O204 1.959 . S
N185 Cu184 1.999 . S
N185 C187 1.263 . S
N185 C189 1.389 . S
N186 C187 1.358 . S
N186 C188 1.400 . S
C187 N185 1.263 . S
C187 N186 1.358 . S
C187 H193 0.930 . S
C188 N186 1.400 . S
C188 C189 1.351 . S
C188 H205 0.930 . S
C189 N185 1.389 . S
C189 C188 1.351 . S
C189 H194 0.930 . S
O190 Cu184 1.974 . S
O190 C200 1.282 . S
C191 O192 1.261 . S
C191 O204 1.251 . S
O192 C191 1.261 . S
H193 C187 0.930 . S
H194 C189 0.930 . S
N195 Cu184 1.985 . S
N195 C197 1.335 . S
N195 C198 1.390 . S
N196 C197 1.345 . S
N196 C199 1.336 . S
C197 N195 1.335 . S
C197 N196 1.345 . S
C197 H202 0.930 . S
C198 N195 1.390 . S
C198 C199 1.346 . S
C198 H203 0.930 . S
C199 N196 1.336 . S
C199 C198 1.346 . S
C199 H206 0.929 . S
C200 O190 1.282 . S
C200 O201 1.216 . S
O201 C200 1.216 . S
H202 C197 0.930 . S
H203 C198 0.930 . S
O204 Cu184 1.959 . S
O204 C191 1.251 . S
H205 C188 0.930 . S
H206 C199 0.929 . S
Cu207 N208 1.999 . S
Cu207 O213 1.974 . S
Cu207 N218 1.985 . S
Cu207 O227 1.959 . S
N208 Cu207 1.999 . S
N208 C210 1.263 . S
N208 C212 1.389 . S
N209 C210 1.358 . S
N209 C211 1.400 . S
C210 N208 1.263 . S
C210 N209 1.358 . S
C210 H216 0.930 . S
C211 N209 1.400 . S
C211 C212 1.351 . S
C211 H228 0.930 . S
C212 N208 1.389 . S
C212 C211 1.351 . S
C212 H217 0.930 . S
O213 Cu207 1.974 . S
O213 C223 1.282 . S
C214 O215 1.261 . S
C214 O227 1.251 . S
O215 C214 1.261 . S
H216 C210 0.930 . S
H217 C212 0.930 . S
N218 Cu207 1.985 . S
N218 C220 1.335 . S
N218 C221 1.390 . S
N219 C220 1.345 . S
N219 C222 1.336 . S
C220 N218 1.335 . S
C220 N219 1.345 . S
C220 H225 0.930 . S
C221 N218 1.390 . S
C221 C222 1.346 . S
C221 H226 0.930 . S
C222 N219 1.336 . S
C222 C221 1.346 . S
C222 H229 0.929 . S
C223 O213 1.282 . S
C223 O224 1.216 . S
O224 C223 1.216 . S
H225 C220 0.930 . S
H226 C221 0.930 . S
O227 Cu207 1.959 . S
O227 C214 1.251 . S
H228 C211 0.930 . S
H229 C222 0.929 . S
Cu230 N231 1.999 . S
Cu230 O236 1.974 . S
Cu230 N241 1.985 . S
Cu230 O250 1.959 . S
N231 Cu230 1.999 . S
N231 C233 1.263 . S
N231 C235 1.389 . S
N232 C233 1.358 . S
N232 C234 1.400 . S
C233 N231 1.263 . S
C233 N232 1.358 . S
C233 H239 0.930 . S
C234 N232 1.400 . S
C234 C235 1.351 . S
C234 H251 0.930 . S
C235 N231 1.389 . S
C235 C234 1.351 . S
C235 H240 0.930 . S
O236 Cu230 1.974 . S
O236 C246 1.282 . S
C237 O238 1.261 . S
C237 O250 1.251 . S
O238 C237 1.261 . S
H239 C233 0.930 . S
H240 C235 0.930 . S
N241 Cu230 1.985 . S
N241 C243 1.335 . S
N241 C244 1.390 . S
N242 C243 1.345 . S
N242 C245 1.336 . S
C243 N241 1.335 . S
C243 N242 1.345 . S
C243 H248 0.930 . S
C244 N241 1.390 . S
C244 C245 1.346 . S
C244 H249 0.930 . S
C245 N242 1.336 . S
C245 C244 1.346 . S
C245 H252 0.929 . S
C246 O236 1.282 . S
C246 O247 1.216 . S
O247 C246 1.216 . S
H248 C243 0.930 . S
H249 C244 0.930 . S
O250 Cu230 1.959 . S
O250 C237 1.251 . S
H251 C234 0.930 . S
H252 C245 0.929 . S
Cu253 N254 1.999 . S
Cu253 O259 1.974 . S
Cu253 N264 1.985 . S
Cu253 O273 1.959 . S
N254 Cu253 1.999 . S
N254 C256 1.263 . S
N254 C258 1.389 . S
N255 C256 1.358 . S
N255 C257 1.400 . S
C256 N254 1.263 . S
C256 N255 1.358 . S
C256 H262 0.930 . S
C257 N255 1.400 . S
C257 C258 1.351 . S
C257 H274 0.930 . S
C258 N254 1.389 . S
C258 C257 1.351 . S
C258 H263 0.930 . S
O259 Cu253 1.974 . S
O259 C269 1.282 . S
C260 O261 1.261 . S
C260 O273 1.251 . S
O261 C260 1.261 . S
H262 C256 0.930 . S
H263 C258 0.930 . S
N264 Cu253 1.985 . S
N264 C266 1.335 . S
N264 C267 1.390 . S
N265 C266 1.345 . S
N265 C268 1.336 . S
C266 N264 1.335 . S
C266 N265 1.345 . S
C266 H271 0.930 . S
C267 N264 1.390 . S
C267 C268 1.346 . S
C267 H272 0.930 . S
C268 N265 1.336 . S
C268 C267 1.346 . S
C268 H275 0.929 . S
C269 O259 1.282 . S
C269 O270 1.216 . S
O270 C269 1.216 . S
H271 C266 0.930 . S
H272 C267 0.930 . S
O273 Cu253 1.959 . S
O273 C260 1.251 . S
H274 C257 0.930 . S
H275 C268 0.929 . S
Cu276 N277 1.999 . S
Cu276 O282 1.974 . S
Cu276 N287 1.985 . S
Cu276 O296 1.959 . S
N277 Cu276 1.999 . S
N277 C279 1.263 . S
N277 C281 1.389 . S
N278 C279 1.358 . S
N278 C280 1.400 . S
C279 N277 1.263 . S
C279 N278 1.358 . S
C279 H285 0.930 . S
C280 N278 1.400 . S
C280 C281 1.351 . S
C280 H297 0.930 . S
C281 N277 1.389 . S
C281 C280 1.351 . S
C281 H286 0.930 . S
O282 Cu276 1.974 . S
O282 C292 1.282 . S
C283 O284 1.261 . S
C283 O296 1.251 . S
O284 C283 1.261 . S
H285 C279 0.930 . S
H286 C281 0.930 . S
N287 Cu276 1.985 . S
N287 C289 1.335 . S
N287 C290 1.390 . S
N288 C289 1.345 . S
N288 C291 1.336 . S
C289 N287 1.335 . S
C289 N288 1.345 . S
C289 H294 0.930 . S
C290 N287 1.390 . S
C290 C291 1.346 . S
C290 H295 0.930 . S
C291 N288 1.336 . S
C291 C290 1.346 . S
C291 H298 0.929 . S
C292 O282 1.282 . S
C292 O293 1.216 . S
O293 C292 1.216 . S
H294 C289 0.930 . S
H295 C290 0.930 . S
O296 Cu276 1.959 . S
O296 C283 1.251 . S
H297 C280 0.930 . S
H298 C291 0.929 . S
Cu299 N300 1.999 . S
Cu299 O305 1.974 . S
Cu299 N310 1.985 . S
Cu299 O319 1.959 . S
N300 Cu299 1.999 . S
N300 C302 1.263 . S
N300 C304 1.389 . S
N301 C302 1.358 . S
N301 C303 1.400 . S
C302 N300 1.263 . S
C302 N301 1.358 . S
C302 H308 0.930 . S
C303 N301 1.400 . S
C303 C304 1.351 . S
C303 H320 0.930 . S
C304 N300 1.389 . S
C304 C303 1.351 . S
C304 H309 0.930 . S
O305 Cu299 1.974 . S
O305 C315 1.282 . S
C306 O307 1.261 . S
C306 O319 1.251 . S
O307 C306 1.261 . S
H308 C302 0.930 . S
H309 C304 0.930 . S
N310 Cu299 1.985 . S
N310 C312 1.335 . S
N310 C313 1.390 . S
N311 C312 1.345 . S
N311 C314 1.336 . S
C312 N310 1.335 . S
C312 N311 1.345 . S
C312 H317 0.930 . S
C313 N310 1.390 . S
C313 C314 1.346 . S
C313 H318 0.930 . S
C314 N311 1.336 . S
C314 C313 1.346 . S
C314 H321 0.929 . S
C315 O305 1.282 . S
C315 O316 1.216 . S
O316 C315 1.216 . S
H317 C312 0.930 . S
H318 C313 0.930 . S
O319 Cu299 1.959 . S
O319 C306 1.251 . S
H320 C303 0.930 . S
H321 C314 0.929 . S
Cu322 N323 1.999 . S
Cu322 O328 1.974 . S
Cu322 N333 1.985 . S
Cu322 O342 1.959 . S
N323 Cu322 1.999 . S
N323 C325 1.263 . S
N323 C327 1.389 . S
N324 C325 1.358 . S
N324 C326 1.400 . S
C325 N323 1.263 . S
C325 N324 1.358 . S
C325 H331 0.930 . S
C326 N324 1.400 . S
C326 C327 1.351 . S
C326 H343 0.930 . S
C327 N323 1.389 . S
C327 C326 1.351 . S
C327 H332 0.930 . S
O328 Cu322 1.974 . S
O328 C338 1.282 . S
C329 O330 1.261 . S
C329 O342 1.251 . S
O330 C329 1.261 . S
H331 C325 0.930 . S
H332 C327 0.930 . S
N333 Cu322 1.985 . S
N333 C335 1.335 . S
N333 C336 1.390 . S
N334 C335 1.345 . S
N334 C337 1.336 . S
C335 N333 1.335 . S
C335 N334 1.345 . S
C335 H340 0.930 . S
C336 N333 1.390 . S
C336 C337 1.346 . S
C336 H341 0.930 . S
C337 N334 1.336 . S
C337 C336 1.346 . S
C337 H344 0.929 . S
C338 O328 1.282 . S
C338 O339 1.216 . S
O339 C338 1.216 . S
H340 C335 0.930 . S
H341 C336 0.930 . S
O342 Cu322 1.959 . S
O342 C329 1.251 . S
H343 C326 0.930 . S
H344 C337 0.929 . S
Cu345 N346 1.999 . S
Cu345 O351 1.974 . S
Cu345 N356 1.985 . S
Cu345 O365 1.959 . S
N346 Cu345 1.999 . S
N346 C348 1.263 . S
N346 C350 1.389 . S
N347 C348 1.358 . S
N347 C349 1.400 . S
C348 N346 1.263 . S
C348 N347 1.358 . S
C348 H354 0.930 . S
C349 N347 1.400 . S
C349 C350 1.351 . S
C349 H366 0.930 . S
C350 N346 1.389 . S
C350 C349 1.351 . S
C350 H355 0.930 . S
O351 Cu345 1.974 . S
O351 C361 1.282 . S
C352 O353 1.261 . S
C352 O365 1.251 . S
O353 C352 1.261 . S
H354 C348 0.930 . S
H355 C350 0.930 . S
N356 Cu345 1.985 . S
N356 C358 1.335 . S
N356 C359 1.390 . S
N357 C358 1.345 . S
N357 C360 1.336 . S
C358 N356 1.335 . S
C358 N357 1.345 . S
C358 H363 0.930 . S
C359 N356 1.390 . S
C359 C360 1.346 . S
C359 H364 0.930 . S
C360 N357 1.336 . S
C360 C359 1.346 . S
C360 H367 0.929 . S
C361 O351 1.282 . S
C361 O362 1.216 . S
O362 C361 1.216 . S
H363 C358 0.930 . S
H364 C359 0.930 . S
O365 Cu345 1.959 . S
O365 C352 1.251 . S
H366 C349 0.930 . S
H367 C360 0.929 . S
Cu368 N369 1.999 . S
Cu368 O374 1.974 . S
Cu368 N379 1.985 . S
Cu368 O388 1.959 . S
N369 Cu368 1.999 . S
N369 C371 1.263 . S
N369 C373 1.389 . S
N370 C371 1.358 . S
N370 C372 1.400 . S
C371 N369 1.263 . S
C371 N370 1.358 . S
C371 H377 0.930 . S
C372 N370 1.400 . S
C372 C373 1.351 . S
C372 H389 0.930 . S
C373 N369 1.389 . S
C373 C372 1.351 . S
C373 H378 0.930 . S
O374 Cu368 1.974 . S
O374 C384 1.282 . S
C375 O376 1.261 . S
C375 O388 1.251 . S
O376 C375 1.261 . S
H377 C371 0.930 . S
H378 C373 0.930 . S
N379 Cu368 1.985 . S
N379 C381 1.335 . S
N379 C382 1.390 . S
N380 C381 1.345 . S
N380 C383 1.336 . S
C381 N379 1.335 . S
C381 N380 1.345 . S
C381 H386 0.930 . S
C382 N379 1.390 . S
C382 C383 1.346 . S
C382 H387 0.930 . S
C383 N380 1.336 . S
C383 C382 1.346 . S
C383 H390 0.929 . S
C384 O374 1.282 . S
C384 O385 1.216 . S
O385 C384 1.216 . S
H386 C381 0.930 . S
H387 C382 0.930 . S
O388 Cu368 1.959 . S
O388 C375 1.251 . S
H389 C372 0.930 . S
H390 C383 0.929 . S
Cu391 N392 1.999 . S
Cu391 O397 1.974 . S
Cu391 N402 1.985 . S
Cu391 O411 1.959 . S
N392 Cu391 1.999 . S
N392 C394 1.263 . S
N392 C396 1.389 . S
N393 C394 1.358 . S
N393 C395 1.400 . S
C394 N392 1.263 . S
C394 N393 1.358 . S
C394 H400 0.930 . S
C395 N393 1.400 . S
C395 C396 1.351 . S
C395 H412 0.930 . S
C396 N392 1.389 . S
C396 C395 1.351 . S
C396 H401 0.930 . S
O397 Cu391 1.974 . S
O397 C407 1.282 . S
C398 O399 1.261 . S
C398 O411 1.251 . S
O399 C398 1.261 . S
H400 C394 0.930 . S
H401 C396 0.930 . S
N402 Cu391 1.985 . S
N402 C404 1.335 . S
N402 C405 1.390 . S
N403 C404 1.345 . S
N403 C406 1.336 . S
C404 N402 1.335 . S
C404 N403 1.345 . S
C404 H409 0.930 . S
C405 N402 1.390 . S
C405 C406 1.346 . S
C405 H410 0.930 . S
C406 N403 1.336 . S
C406 C405 1.346 . S
C406 H413 0.929 . S
C407 O397 1.282 . S
C407 O408 1.216 . S
O408 C407 1.216 . S
H409 C404 0.930 . S
H410 C405 0.930 . S
O411 Cu391 1.959 . S
O411 C398 1.251 . S
H412 C395 0.930 . S
H413 C406 0.929 . S
Cu414 N415 1.999 . S
Cu414 O420 1.974 . S
Cu414 N425 1.985 . S
Cu414 O434 1.959 . S
N415 Cu414 1.999 . S
N415 C417 1.263 . S
N415 C419 1.389 . S
N416 C417 1.358 . S
N416 C418 1.400 . S
C417 N415 1.263 . S
C417 N416 1.358 . S
C417 H423 0.930 . S
C418 N416 1.400 . S
C418 C419 1.351 . S
C418 H435 0.930 . S
C419 N415 1.389 . S
C419 C418 1.351 . S
C419 H424 0.930 . S
O420 Cu414 1.974 . S
O420 C430 1.282 . S
C421 O422 1.261 . S
C421 O434 1.251 . S
O422 C421 1.261 . S
H423 C417 0.930 . S
H424 C419 0.930 . S
N425 Cu414 1.985 . S
N425 C427 1.335 . S
N425 C428 1.390 . S
N426 C427 1.345 . S
N426 C429 1.336 . S
C427 N425 1.335 . S
C427 N426 1.345 . S
C427 H432 0.930 . S
C428 N425 1.390 . S
C428 C429 1.346 . S
C428 H433 0.930 . S
C429 N426 1.336 . S
C429 C428 1.346 . S
C429 H436 0.929 . S
C430 O420 1.282 . S
C430 O431 1.216 . S
O431 C430 1.216 . S
H432 C427 0.930 . S
H433 C428 0.930 . S
O434 Cu414 1.959 . S
O434 C421 1.251 . S
H435 C418 0.930 . S
H436 C429 0.929 . S
Cu437 N438 1.999 . S
Cu437 O443 1.974 . S
Cu437 N448 1.985 . S
Cu437 O457 1.959 . S
N438 Cu437 1.999 . S
N438 C440 1.263 . S
N438 C442 1.389 . S
N439 C440 1.358 . S
N439 C441 1.400 . S
C440 N438 1.263 . S
C440 N439 1.358 . S
C440 H446 0.930 . S
C441 N439 1.400 . S
C441 C442 1.351 . S
C441 H458 0.930 . S
C442 N438 1.389 . S
C442 C441 1.351 . S
C442 H447 0.930 . S
O443 Cu437 1.974 . S
O443 C453 1.282 . S
C444 O445 1.261 . S
C444 O457 1.251 . S
O445 C444 1.261 . S
H446 C440 0.930 . S
H447 C442 0.930 . S
N448 Cu437 1.985 . S
N448 C450 1.335 . S
N448 C451 1.390 . S
N449 C450 1.345 . S
N449 C452 1.336 . S
C450 N448 1.335 . S
C450 N449 1.345 . S
C450 H455 0.930 . S
C451 N448 1.390 . S
C451 C452 1.346 . S
C451 H456 0.930 . S
C452 N449 1.336 . S
C452 C451 1.346 . S
C452 H459 0.929 . S
C453 O443 1.282 . S
C453 O454 1.216 . S
O454 C453 1.216 . S
H455 C450 0.930 . S
H456 C451 0.930 . S
O457 Cu437 1.959 . S
O457 C444 1.251 . S
H458 C441 0.930 . S
H459 C452 0.929 . S
Cu460 N461 1.999 . S
Cu460 O466 1.974 . S
Cu460 N471 1.985 . S
Cu460 O480 1.959 . S
N461 Cu460 1.999 . S
N461 C463 1.263 . S
N461 C465 1.389 . S
N462 C463 1.358 . S
N462 C464 1.400 . S
C463 N461 1.263 . S
C463 N462 1.358 . S
C463 H469 0.930 . S
C464 N462 1.400 . S
C464 C465 1.351 . S
C464 H481 0.930 . S
C465 N461 1.389 . S
C465 C464 1.351 . S
C465 H470 0.930 . S
O466 Cu460 1.974 . S
O466 C476 1.282 . S
C467 O468 1.261 . S
C467 O480 1.251 . S
O468 C467 1.261 . S
H469 C463 0.930 . S
H470 C465 0.930 . S
N471 Cu460 1.985 . S
N471 C473 1.335 . S
N471 C474 1.390 . S
N472 C473 1.345 . S
N472 C475 1.336 . S
C473 N471 1.335 . S
C473 N472 1.345 . S
C473 H478 0.930 . S
C474 N471 1.390 . S
C474 C475 1.346 . S
C474 H479 0.930 . S
C475 N472 1.336 . S
C475 C474 1.346 . S
C475 H482 0.929 . S
C476 O466 1.282 . S
C476 O477 1.216 . S
O477 C476 1.216 . S
H478 C473 0.930 . S
H479 C474 0.930 . S
O480 Cu460 1.959 . S
O480 C467 1.251 . S
H481 C464 0.930 . S
H482 C475 0.929 . S
Cu483 N484 1.999 . S
Cu483 O489 1.974 . S
Cu483 N494 1.985 . S
Cu483 O503 1.959 . S
N484 Cu483 1.999 . S
N484 C486 1.263 . S
N484 C488 1.389 . S
N485 C486 1.358 . S
N485 C487 1.400 . S
C486 N484 1.263 . S
C486 N485 1.358 . S
C486 H492 0.930 . S
C487 N485 1.400 . S
C487 C488 1.351 . S
C487 H504 0.930 . S
C488 N484 1.389 . S
C488 C487 1.351 . S
C488 H493 0.930 . S
O489 Cu483 1.974 . S
O489 C499 1.282 . S
C490 O491 1.261 . S
C490 O503 1.251 . S
O491 C490 1.261 . S
H492 C486 0.930 . S
H493 C488 0.930 . S
N494 Cu483 1.985 . S
N494 C496 1.335 . S
N494 C497 1.390 . S
N495 C496 1.345 . S
N495 C498 1.336 . S
C496 N494 1.335 . S
C496 N495 1.345 . S
C496 H501 0.930 . S
C497 N494 1.390 . S
C497 C498 1.346 . S
C497 H502 0.930 . S
C498 N495 1.336 . S
C498 C497 1.346 . S
C498 H505 0.929 . S
C499 O489 1.282 . S
C499 O500 1.216 . S
O500 C499 1.216 . S
H501 C496 0.930 . S
H502 C497 0.930 . S
O503 Cu483 1.959 . S
O503 C490 1.251 . S
H504 C487 0.930 . S
H505 C498 0.929 . S
Cu506 N507 1.999 . S
Cu506 O512 1.974 . S
Cu506 N517 1.985 . S
Cu506 O526 1.959 . S
N507 Cu506 1.999 . S
N507 C509 1.263 . S
N507 C511 1.389 . S
N508 C509 1.358 . S
N508 C510 1.400 . S
C509 N507 1.263 . S
C509 N508 1.358 . S
C509 H515 0.930 . S
C510 N508 1.400 . S
C510 C511 1.351 . S
C510 H527 0.930 . S
C511 N507 1.389 . S
C511 C510 1.351 . S
C511 H516 0.930 . S
O512 Cu506 1.974 . S
O512 C522 1.282 . S
C513 O514 1.261 . S
C513 O526 1.251 . S
O514 C513 1.261 . S
H515 C509 0.930 . S
H516 C511 0.930 . S
N517 Cu506 1.985 . S
N517 C519 1.335 . S
N517 C520 1.390 . S
N518 C519 1.345 . S
N518 C521 1.336 . S
C519 N517 1.335 . S
C519 N518 1.345 . S
C519 H524 0.930 . S
C520 N517 1.390 . S
C520 C521 1.346 . S
C520 H525 0.930 . S
C521 N518 1.336 . S
C521 C520 1.346 . S
C521 H528 0.929 . S
C522 O512 1.282 . S
C522 O523 1.216 . S
O523 C522 1.216 . S
H524 C519 0.930 . S
H525 C520 0.930 . S
O526 Cu506 1.959 . S
O526 C513 1.251 . S
H527 C510 0.930 . S
H528 C521 0.929 . S
Cu529 N530 1.999 . S
Cu529 O535 1.974 . S
Cu529 N540 1.985 . S
Cu529 O549 1.959 . S
N530 Cu529 1.999 . S
N530 C532 1.263 . S
N530 C534 1.389 . S
N531 C532 1.358 . S
N531 C533 1.400 . S
C532 N530 1.263 . S
C532 N531 1.358 . S
C532 H538 0.930 . S
C533 N531 1.400 . S
C533 C534 1.351 . S
C533 H550 0.930 . S
C534 N530 1.389 . S
C534 C533 1.351 . S
C534 H539 0.930 . S
O535 Cu529 1.974 . S
O535 C545 1.282 . S
C536 O537 1.261 . S
C536 O549 1.251 . S
O537 C536 1.261 . S
H538 C532 0.930 . S
H539 C534 0.930 . S
N540 Cu529 1.985 . S
N540 C542 1.335 . S
N540 C543 1.390 . S
N541 C542 1.345 . S
N541 C544 1.336 . S
C542 N540 1.335 . S
C542 N541 1.345 . S
C542 H547 0.930 . S
C543 N540 1.390 . S
C543 C544 1.346 . S
C543 H548 0.930 . S
C544 N541 1.336 . S
C544 C543 1.346 . S
C544 H551 0.929 . S
C545 O535 1.282 . S
C545 O546 1.216 . S
O546 C545 1.216 . S
H547 C542 0.930 . S
H548 C543 0.930 . S
O549 Cu529 1.959 . S
O549 C536 1.251 . S
H550 C533 0.930 . S
H551 C544 0.929 . S
H552 C560 0.929 . S
H553 C562 0.930 . S
H554 C564 0.930 . S
H555 C567 0.929 . S
H556 C570 0.930 . S
H557 C572 0.960 . S
H558 C572 0.960 . S
H559 C572 0.960 . S
C560 H552 0.929 . S
C560 C561 1.377 . S
C560 C562 1.384 . S
C561 C560 1.377 . S
C561 C567 1.390 . S
C562 H553 0.930 . S
C562 C560 1.384 . S
C562 C563 1.372 . S
C563 C562 1.372 . S
C563 C564 1.400 . S
C563 C568 1.490 . S
C564 H554 0.930 . S
C564 C563 1.400 . S
C564 C567 1.386 . S
H565 C581 0.930 . S
H566 C582 0.931 . S
C567 H555 0.929 . S
C567 C561 1.390 . S
C567 C564 1.386 . S
C568 C563 1.490 . S
C568 C570 1.395 . S
C568 C571 1.403 . S
H569 C575 0.930 . S
C570 H556 0.930 . S
C570 C568 1.395 . S
C570 C573 1.403 . S
C571 C568 1.403 . S
C571 C572 1.524 . S
C571 C575 1.400 . S
C572 H557 0.960 . S
C572 H558 0.960 . S
C572 H559 0.960 . S
C572 C571 1.524 . S
C573 C570 1.403 . S
C573 C574 1.392 . S
C573 C577 1.495 . S
C574 C573 1.392 . S
C574 C575 1.385 . S
C574 C576 1.478 . S
C575 H569 0.930 . S
C575 C571 1.400 . S
C575 C574 1.385 . S
C576 C574 1.478 . S
C576 C578 1.381 . S
C576 C582 1.383 . S
C577 C573 1.495 . S
C577 H583 0.959 . S
C577 H584 0.961 . S
C577 H585 0.960 . S
C578 C576 1.381 . S
C578 C579 1.394 . S
C578 H586 0.930 . S
C579 C578 1.394 . S
C579 C580 1.383 . S
C579 H587 0.929 . S
C580 C579 1.383 . S
C580 C581 1.377 . S
C581 H565 0.930 . S
C581 C580 1.377 . S
C581 C582 1.379 . S
C582 H566 0.931 . S
C582 C576 1.383 . S
C582 C581 1.379 . S
H583 C577 0.959 . S
H584 C577 0.961 . S
H585 C577 0.960 . S
H586 C578 0.930 . S
H587 C579 0.929 . S
H588 C596 0.929 . S
H589 C598 0.930 . S
H590 C600 0.930 . S
H591 C603 0.929 . S
H592 C606 0.930 . S
H593 C608 0.960 . S
H594 C608 0.960 . S
H595 C608 0.960 . S
C596 H588 0.929 . S
C596 C597 1.377 . S
C596 C598 1.384 . S
C597 C596 1.377 . S
C597 C603 1.390 . S
C598 H589 0.930 . S
C598 C596 1.384 . S
C598 C599 1.372 . S
C599 C598 1.372 . S
C599 C600 1.400 . S
C599 C604 1.490 . S
C600 H590 0.930 . S
C600 C599 1.400 . S
C600 C603 1.386 . S
H601 C617 0.930 . S
H602 C618 0.931 . S
C603 H591 0.929 . S
C603 C597 1.390 . S
C603 C600 1.386 . S
C604 C599 1.490 . S
C604 C606 1.395 . S
C604 C607 1.403 . S
H605 C611 0.930 . S
C606 H592 0.930 . S
C606 C604 1.395 . S
C606 C609 1.403 . S
C607 C604 1.403 . S
C607 C608 1.524 . S
C607 C611 1.400 . S
C608 H593 0.960 . S
C608 H594 0.960 . S
C608 H595 0.960 . S
C608 C607 1.524 . S
C609 C606 1.403 . S
C609 C610 1.392 . S
C609 C613 1.495 . S
C610 C609 1.392 . S
C610 C611 1.385 . S
C610 C612 1.478 . S
C611 H605 0.930 . S
C611 C607 1.400 . S
C611 C610 1.385 . S
C612 C610 1.478 . S
C612 C614 1.381 . S
C612 C618 1.383 . S
C613 C609 1.495 . S
C613 H619 0.959 . S
C613 H620 0.961 . S
C613 H621 0.960 . S
C614 C612 1.381 . S
C614 C615 1.394 . S
C614 H622 0.930 . S
C615 C614 1.394 . S
C615 C616 1.383 . S
C615 H623 0.929 . S
C616 C615 1.383 . S
C616 C617 1.377 . S
C617 H601 0.930 . S
C617 C616 1.377 . S
C617 C618 1.379 . S
C618 H602 0.931 . S
C618 C612 1.383 . S
C618 C617 1.379 . S
H619 C613 0.959 . S
H620 C613 0.961 . S
H621 C613 0.960 . S
H622 C614 0.930 . S
H623 C615 0.929 . S
H624 C632 0.929 . S
H625 C634 0.930 . S
H626 C636 0.930 . S
H627 C639 0.929 . S
H628 C642 0.930 . S
H629 C644 0.960 . S
H630 C644 0.960 . S
H631 C644 0.960 . S
C632 H624 0.929 . S
C632 C633 1.377 . S
C632 C634 1.384 . S
C633 C632 1.377 . S
C633 C639 1.390 . S
C634 H625 0.930 . S
C634 C632 1.384 . S
C634 C635 1.372 . S
C635 C634 1.372 . S
C635 C636 1.400 . S
C635 C640 1.490 . S
C636 H626 0.930 . S
C636 C635 1.400 . S
C636 C639 1.386 . S
H637 C653 0.930 . S
H638 C654 0.931 . S
C639 H627 0.929 . S
C639 C633 1.390 . S
C639 C636 1.386 . S
C640 C635 1.490 . S
C640 C642 1.395 . S
C640 C643 1.403 . S
H641 C647 0.930 . S
C642 H628 0.930 . S
C642 C640 1.395 . S
C642 C645 1.403 . S
C643 C640 1.403 . S
C643 C644 1.524 . S
C643 C647 1.400 . S
C644 H629 0.960 . S
C644 H630 0.960 . S
C644 H631 0.960 . S
C644 C643 1.524 . S
C645 C642 1.403 . S
C645 C646 1.392 . S
C645 C649 1.495 . S
C646 C645 1.392 . S
C646 C647 1.385 . S
C646 C648 1.478 . S
C647 H641 0.930 . S
C647 C643 1.400 . S
C647 C646 1.385 . S
C648 C646 1.478 . S
C648 C650 1.381 . S
C648 C654 1.383 . S
C649 C645 1.495 . S
C649 H655 0.959 . S
C649 H656 0.961 . S
C649 H657 0.960 . S
C650 C648 1.381 . S
C650 C651 1.394 . S
C650 H658 0.930 . S
C651 C650 1.394 . S
C651 C652 1.383 . S
C651 H659 0.929 . S
C652 C651 1.383 . S
C652 C653 1.377 . S
C653 H637 0.930 . S
C653 C652 1.377 . S
C653 C654 1.379 . S
C654 H638 0.931 . S
C654 C648 1.383 . S
C654 C653 1.379 . S
H655 C649 0.959 . S
H656 C649 0.961 . S
H657 C649 0.960 . S
H658 C650 0.930 . S
H659 C651 0.929 . S
H660 C668 0.929 . S
H661 C670 0.930 . S
H662 C672 0.930 . S
H663 C675 0.929 . S
H664 C678 0.930 . S
H665 C680 0.960 . S
H666 C680 0.960 . S
H667 C680 0.960 . S
C668 H660 0.929 . S
C668 C669 1.377 . S
C668 C670 1.384 . S
C669 C668 1.377 . S
C669 C675 1.390 . S
C670 H661 0.930 . S
C670 C668 1.384 . S
C670 C671 1.372 . S
C671 C670 1.372 . S
C671 C672 1.400 . S
C671 C676 1.490 . S
C672 H662 0.930 . S
C672 C671 1.400 . S
C672 C675 1.386 . S
H673 C689 0.930 . S
H674 C690 0.931 . S
C675 H663 0.929 . S
C675 C669 1.390 . S
C675 C672 1.386 . S
C676 C671 1.490 . S
C676 C678 1.395 . S
C676 C679 1.403 . S
H677 C683 0.930 . S
C678 H664 0.930 . S
C678 C676 1.395 . S
C678 C681 1.403 . S
C679 C676 1.403 . S
C679 C680 1.524 . S
C679 C683 1.400 . S
C680 H665 0.960 . S
C680 H666 0.960 . S
C680 H667 0.960 . S
C680 C679 1.524 . S
C681 C678 1.403 . S
C681 C682 1.392 . S
C681 C685 1.495 . S
C682 C681 1.392 . S
C682 C683 1.385 . S
C682 C684 1.478 . S
C683 H677 0.930 . S
C683 C679 1.400 . S
C683 C682 1.385 . S
C684 C682 1.478 . S
C684 C686 1.381 . S
C684 C690 1.383 . S
C685 C681 1.495 . S
C685 H691 0.959 . S
C685 H692 0.961 . S
C685 H693 0.960 . S
C686 C684 1.381 . S
C686 C687 1.394 . S
C686 H694 0.930 . S
C687 C686 1.394 . S
C687 C688 1.383 . S
C687 H695 0.929 . S
C688 C687 1.383 . S
C688 C689 1.377 . S
C689 H673 0.930 . S
C689 C688 1.377 . S
C689 C690 1.379 . S
C690 H674 0.931 . S
C690 C684 1.383 . S
C690 C689 1.379 . S
H691 C685 0.959 . S
H692 C685 0.961 . S
H693 C685 0.960 . S
H694 C686 0.930 . S
H695 C687 0.929 . S
H696 C704 0.929 . S
H697 C706 0.930 . S
H698 C708 0.930 . S
H699 C711 0.929 . S
H700 C714 0.930 . S
H701 C716 0.960 . S
H702 C716 0.960 . S
H703 C716 0.960 . S
C704 H696 0.929 . S
C704 C705 1.377 . S
C704 C706 1.384 . S
C705 C704 1.377 . S
C705 C711 1.390 . S
C706 H697 0.930 . S
C706 C704 1.384 . S
C706 C707 1.372 . S
C707 C706 1.372 . S
C707 C708 1.400 . S
C707 C712 1.490 . S
C708 H698 0.930 . S
C708 C707 1.400 . S
C708 C711 1.386 . S
H709 C725 0.930 . S
H710 C726 0.931 . S
C711 H699 0.929 . S
C711 C705 1.390 . S
C711 C708 1.386 . S
C712 C707 1.490 . S
C712 C714 1.395 . S
C712 C715 1.403 . S
H713 C719 0.930 . S
C714 H700 0.930 . S
C714 C712 1.395 . S
C714 C717 1.403 . S
C715 C712 1.403 . S
C715 C716 1.524 . S
C715 C719 1.400 . S
C716 H701 0.960 . S
C716 H702 0.960 . S
C716 H703 0.960 . S
C716 C715 1.524 . S
C717 C714 1.403 . S
C717 C718 1.392 . S
C717 C721 1.495 . S
C718 C717 1.392 . S
C718 C719 1.385 . S
C718 C720 1.478 . S
C719 H713 0.930 . S
C719 C715 1.400 . S
C719 C718 1.385 . S
C720 C718 1.478 . S
C720 C722 1.381 . S
C720 C726 1.383 . S
C721 C717 1.495 . S
C721 H727 0.959 . S
C721 H728 0.961 . S
C721 H729 0.960 . S
C722 C720 1.381 . S
C722 C723 1.394 . S
C722 H730 0.930 . S
C723 C722 1.394 . S
C723 C724 1.383 . S
C723 H731 0.929 . S
C724 C723 1.383 . S
C724 C725 1.377 . S
C725 H709 0.930 . S
C725 C724 1.377 . S
C725 C726 1.379 . S
C726 H710 0.931 . S
C726 C720 1.383 . S
C726 C725 1.379 . S
H727 C721 0.959 . S
H728 C721 0.961 . S
H729 C721 0.960 . S
H730 C722 0.930 . S
H731 C723 0.929 . S
H732 C740 0.929 . S
H733 C742 0.930 . S
H734 C744 0.930 . S
H735 C747 0.929 . S
H736 C750 0.930 . S
H737 C752 0.960 . S
H738 C752 0.960 . S
H739 C752 0.960 . S
C740 H732 0.929 . S
C740 C741 1.377 . S
C740 C742 1.384 . S
C741 C740 1.377 . S
C741 C747 1.390 . S
C742 H733 0.930 . S
C742 C740 1.384 . S
C742 C743 1.372 . S
C743 C742 1.372 . S
C743 C744 1.400 . S
C743 C748 1.490 . S
C744 H734 0.930 . S
C744 C743 1.400 . S
C744 C747 1.386 . S
H745 C761 0.930 . S
H746 C762 0.931 . S
C747 H735 0.929 . S
C747 C741 1.390 . S
C747 C744 1.386 . S
C748 C743 1.490 . S
C748 C750 1.395 . S
C748 C751 1.403 . S
H749 C755 0.930 . S
C750 H736 0.930 . S
C750 C748 1.395 . S
C750 C753 1.403 . S
C751 C748 1.403 . S
C751 C752 1.524 . S
C751 C755 1.400 . S
C752 H737 0.960 . S
C752 H738 0.960 . S
C752 H739 0.960 . S
C752 C751 1.524 . S
C753 C750 1.403 . S
C753 C754 1.392 . S
C753 C757 1.495 . S
C754 C753 1.392 . S
C754 C755 1.385 . S
C754 C756 1.478 . S
C755 H749 0.930 . S
C755 C751 1.400 . S
C755 C754 1.385 . S
C756 C754 1.478 . S
C756 C758 1.381 . S
C756 C762 1.383 . S
C757 C753 1.495 . S
C757 H763 0.959 . S
C757 H764 0.961 . S
C757 H765 0.960 . S
C758 C756 1.381 . S
C758 C759 1.394 . S
C758 H766 0.930 . S
C759 C758 1.394 . S
C759 C760 1.383 . S
C759 H767 0.929 . S
C760 C759 1.383 . S
C760 C761 1.377 . S
C761 H745 0.930 . S
C761 C760 1.377 . S
C761 C762 1.379 . S
C762 H746 0.931 . S
C762 C756 1.383 . S
C762 C761 1.379 . S
H763 C757 0.959 . S
H764 C757 0.961 . S
H765 C757 0.960 . S
H766 C758 0.930 . S
H767 C759 0.929 . S
H768 C776 0.929 . S
H769 C778 0.930 . S
H770 C780 0.930 . S
H771 C783 0.929 . S
H772 C786 0.930 . S
H773 C788 0.960 . S
H774 C788 0.960 . S
H775 C788 0.960 . S
C776 H768 0.929 . S
C776 C777 1.377 . S
C776 C778 1.384 . S
C777 C776 1.377 . S
C777 C783 1.390 . S
C778 H769 0.930 . S
C778 C776 1.384 . S
C778 C779 1.372 . S
C779 C778 1.372 . S
C779 C780 1.400 . S
C779 C784 1.490 . S
C780 H770 0.930 . S
C780 C779 1.400 . S
C780 C783 1.386 . S
H781 C797 0.930 . S
H782 C798 0.931 . S
C783 H771 0.929 . S
C783 C777 1.390 . S
C783 C780 1.386 . S
C784 C779 1.490 . S
C784 C786 1.395 . S
C784 C787 1.403 . S
H785 C791 0.930 . S
C786 H772 0.930 . S
C786 C784 1.395 . S
C786 C789 1.403 . S
C787 C784 1.403 . S
C787 C788 1.524 . S
C787 C791 1.400 . S
C788 H773 0.960 . S
C788 H774 0.960 . S
C788 H775 0.960 . S
C788 C787 1.524 . S
C789 C786 1.403 . S
C789 C790 1.392 . S
C789 C793 1.495 . S
C790 C789 1.392 . S
C790 C791 1.385 . S
C790 C792 1.478 . S
C791 H785 0.930 . S
C791 C787 1.400 . S
C791 C790 1.385 . S
C792 C790 1.478 . S
C792 C794 1.381 . S
C792 C798 1.383 . S
C793 C789 1.495 . S
C793 H799 0.959 . S
C793 H800 0.961 . S
C793 H801 0.960 . S
C794 C792 1.381 . S
C794 C795 1.394 . S
C794 H802 0.930 . S
C795 C794 1.394 . S
C795 C796 1.383 . S
C795 H803 0.929 . S
C796 C795 1.383 . S
C796 C797 1.377 . S
C797 H781 0.930 . S
C797 C796 1.377 . S
C797 C798 1.379 . S
C798 H782 0.931 . S
C798 C792 1.383 . S
C798 C797 1.379 . S
H799 C793 0.959 . S
H800 C793 0.961 . S
H801 C793 0.960 . S
H802 C794 0.930 . S
H803 C795 0.929 . S
H804 C812 0.929 . S
H805 C814 0.930 . S
H806 C816 0.930 . S
H807 C819 0.929 . S
H808 C822 0.930 . S
H809 C824 0.960 . S
H810 C824 0.960 . S
H811 C824 0.960 . S
C812 H804 0.929 . S
C812 C813 1.377 . S
C812 C814 1.384 . S
C813 C812 1.377 . S
C813 C819 1.390 . S
C814 H805 0.930 . S
C814 C812 1.384 . S
C814 C815 1.372 . S
C815 C814 1.372 . S
C815 C816 1.400 . S
C815 C820 1.490 . S
C816 H806 0.930 . S
C816 C815 1.400 . S
C816 C819 1.386 . S
H817 C833 0.930 . S
H818 C834 0.931 . S
C819 H807 0.929 . S
C819 C813 1.390 . S
C819 C816 1.386 . S
C820 C815 1.490 . S
C820 C822 1.395 . S
C820 C823 1.403 . S
H821 C827 0.930 . S
C822 H808 0.930 . S
C822 C820 1.395 . S
C822 C825 1.403 . S
C823 C820 1.403 . S
C823 C824 1.524 . S
C823 C827 1.400 . S
C824 H809 0.960 . S
C824 H810 0.960 . S
C824 H811 0.960 . S
C824 C823 1.524 . S
C825 C822 1.403 . S
C825 C826 1.392 . S
C825 C829 1.495 . S
C826 C825 1.392 . S
C826 C827 1.385 . S
C826 C828 1.478 . S
C827 H821 0.930 . S
C827 C823 1.400 . S
C827 C826 1.385 . S
C828 C826 1.478 . S
C828 C830 1.381 . S
C828 C834 1.383 . S
C829 C825 1.495 . S
C829 H835 0.959 . S
C829 H836 0.961 . S
C829 H837 0.960 . S
C830 C828 1.381 . S
C830 C831 1.394 . S
C830 H838 0.930 . S
C831 C830 1.394 . S
C831 C832 1.383 . S
C831 H839 0.929 . S
C832 C831 1.383 . S
C832 C833 1.377 . S
C833 H817 0.930 . S
C833 C832 1.377 . S
C833 C834 1.379 . S
C834 H818 0.931 . S
C834 C828 1.383 . S
C834 C833 1.379 . S
H835 C829 0.959 . S
H836 C829 0.961 . S
H837 C829 0.960 . S
H838 C830 0.930 . S
H839 C831 0.929 . S
H840 C848 0.929 . S
H841 C850 0.930 . S
H842 C852 0.930 . S
H843 C855 0.929 . S
H844 C858 0.930 . S
H845 C860 0.960 . S
H846 C860 0.960 . S
H847 C860 0.960 . S
C848 H840 0.929 . S
C848 C849 1.377 . S
C848 C850 1.384 . S
C849 C848 1.377 . S
C849 C855 1.390 . S
C850 H841 0.930 . S
C850 C848 1.384 . S
C850 C851 1.372 . S
C851 C850 1.372 . S
C851 C852 1.400 . S
C851 C856 1.490 . S
C852 H842 0.930 . S
C852 C851 1.400 . S
C852 C855 1.386 . S
H853 C869 0.930 . S
H854 C870 0.931 . S
C855 H843 0.929 . S
C855 C849 1.390 . S
C855 C852 1.386 . S
C856 C851 1.490 . S
C856 C858 1.395 . S
C856 C859 1.403 . S
H857 C863 0.930 . S
C858 H844 0.930 . S
C858 C856 1.395 . S
C858 C861 1.403 . S
C859 C856 1.403 . S
C859 C860 1.524 . S
C859 C863 1.400 . S
C860 H845 0.960 . S
C860 H846 0.960 . S
C860 H847 0.960 . S
C860 C859 1.524 . S
C861 C858 1.403 . S
C861 C862 1.392 . S
C861 C865 1.495 . S
C862 C861 1.392 . S
C862 C863 1.385 . S
C862 C864 1.478 . S
C863 H857 0.930 . S
C863 C859 1.400 . S
C863 C862 1.385 . S
C864 C862 1.478 . S
C864 C866 1.381 . S
C864 C870 1.383 . S
C865 C861 1.495 . S
C865 H871 0.959 . S
C865 H872 0.961 . S
C865 H873 0.960 . S
C866 C864 1.381 . S
C866 C867 1.394 . S
C866 H874 0.930 . S
C867 C866 1.394 . S
C867 C868 1.383 . S
C867 H875 0.929 . S
C868 C867 1.383 . S
C868 C869 1.377 . S
C869 H853 0.930 . S
C869 C868 1.377 . S
C869 C870 1.379 . S
C870 H854 0.931 . S
C870 C864 1.383 . S
C870 C869 1.379 . S
H871 C865 0.959 . S
H872 C865 0.961 . S
H873 C865 0.960 . S
H874 C866 0.930 . S
H875 C867 0.929 . S
H876 C884 0.929 . S
H877 C886 0.930 . S
H878 C888 0.930 . S
H879 C891 0.929 . S
H880 C894 0.930 . S
H881 C896 0.960 . S
H882 C896 0.960 . S
H883 C896 0.960 . S
C884 H876 0.929 . S
C884 C885 1.377 . S
C884 C886 1.384 . S
C885 C884 1.377 . S
C885 C891 1.390 . S
C886 H877 0.930 . S
C886 C884 1.384 . S
C886 C887 1.372 . S
C887 C886 1.372 . S
C887 C888 1.400 . S
C887 C892 1.490 . S
C888 H878 0.930 . S
C888 C887 1.400 . S
C888 C891 1.386 . S
H889 C905 0.930 . S
H890 C906 0.931 . S
C891 H879 0.929 . S
C891 C885 1.390 . S
C891 C888 1.386 . S
C892 C887 1.490 . S
C892 C894 1.395 . S
C892 C895 1.403 . S
H893 C899 0.930 . S
C894 H880 0.930 . S
C894 C892 1.395 . S
C894 C897 1.403 . S
C895 C892 1.403 . S
C895 C896 1.524 . S
C895 C899 1.400 . S
C896 H881 0.960 . S
C896 H882 0.960 . S
C896 H883 0.960 . S
C896 C895 1.524 . S
C897 C894 1.403 . S
C897 C898 1.392 . S
C897 C901 1.495 . S
C898 C897 1.392 . S
C898 C899 1.385 . S
C898 C900 1.478 . S
C899 H893 0.930 . S
C899 C895 1.400 . S
C899 C898 1.385 . S
C900 C898 1.478 . S
C900 C902 1.381 . S
C900 C906 1.383 . S
C901 C897 1.495 . S
C901 H907 0.959 . S
C901 H908 0.961 . S
C901 H909 0.960 . S
C902 C900 1.381 . S
C902 C903 1.394 . S
C902 H910 0.930 . S
C903 C902 1.394 . S
C903 C904 1.383 . S
C903 H911 0.929 . S
C904 C903 1.383 . S
C904 C905 1.377 . S
C905 H889 0.930 . S
C905 C904 1.377 . S
C905 C906 1.379 . S
C906 H890 0.931 . S
C906 C900 1.383 . S
C906 C905 1.379 . S
H907 C901 0.959 . S
H908 C901 0.961 . S
H909 C901 0.960 . S
H910 C902 0.930 . S
H911 C903 0.929 . S
H912 C920 0.929 . S
H913 C922 0.930 . S
H914 C924 0.930 . S
H915 C927 0.929 . S
H916 C930 0.930 . S
H917 C932 0.960 . S
H918 C932 0.960 . S
H919 C932 0.960 . S
C920 H912 0.929 . S
C920 C921 1.377 . S
C920 C922 1.384 . S
C921 C920 1.377 . S
C921 C927 1.390 . S
C922 H913 0.930 . S
C922 C920 1.384 . S
C922 C923 1.372 . S
C923 C922 1.372 . S
C923 C924 1.400 . S
C923 C928 1.490 . S
C924 H914 0.930 . S
C924 C923 1.400 . S
C924 C927 1.386 . S
H925 C941 0.930 . S
H926 C942 0.931 . S
C927 H915 0.929 . S
C927 C921 1.390 . S
C927 C924 1.386 . S
C928 C923 1.490 . S
C928 C930 1.395 . S
C928 C931 1.403 . S
H929 C935 0.930 . S
C930 H916 0.930 . S
C930 C928 1.395 . S
C930 C933 1.403 . S
C931 C928 1.403 . S
C931 C932 1.524 . S
C931 C935 1.400 . S
C932 H917 0.960 . S
C932 H918 0.960 . S
C932 H919 0.960 . S
C932 C931 1.524 . S
C933 C930 1.403 . S
C933 C934 1.392 . S
C933 C937 1.495 . S
C934 C933 1.392 . S
C934 C935 1.385 . S
C934 C936 1.478 . S
C935 H929 0.930 . S
C935 C931 1.400 . S
C935 C934 1.385 . S
C936 C934 1.478 . S
C936 C938 1.381 . S
C936 C942 1.383 . S
C937 C933 1.495 . S
C937 H943 0.959 . S
C937 H944 0.961 . S
C937 H945 0.960 . S
C938 C936 1.381 . S
C938 C939 1.394 . S
C938 H946 0.930 . S
C939 C938 1.394 . S
C939 C940 1.383 . S
C939 H947 0.929 . S
C940 C939 1.383 . S
C940 C941 1.377 . S
C941 H925 0.930 . S
C941 C940 1.377 . S
C941 C942 1.379 . S
C942 H926 0.931 . S
C942 C936 1.383 . S
C942 C941 1.379 . S
H943 C937 0.959 . S
H944 C937 0.961 . S
H945 C937 0.960 . S
H946 C938 0.930 . S
H947 C939 0.929 . S
H948 C956 0.929 . S
H949 C958 0.930 . S
H950 C960 0.930 . S
H951 C963 0.929 . S
H952 C966 0.930 . S
H953 C968 0.960 . S
H954 C968 0.960 . S
H955 C968 0.960 . S
C956 H948 0.929 . S
C956 C957 1.377 . S
C956 C958 1.384 . S
C957 C956 1.377 . S
C957 C963 1.390 . S
C958 H949 0.930 . S
C958 C956 1.384 . S
C958 C959 1.372 . S
C959 C958 1.372 . S
C959 C960 1.400 . S
C959 C964 1.490 . S
C960 H950 0.930 . S
C960 C959 1.400 . S
C960 C963 1.386 . S
H961 C977 0.930 . S
H962 C978 0.931 . S
C963 H951 0.929 . S
C963 C957 1.390 . S
C963 C960 1.386 . S
C964 C959 1.490 . S
C964 C966 1.395 . S
C964 C967 1.403 . S
H965 C971 0.930 . S
C966 H952 0.930 . S
C966 C964 1.395 . S
C966 C969 1.403 . S
C967 C964 1.403 . S
C967 C968 1.524 . S
C967 C971 1.400 . S
C968 H953 0.960 . S
C968 H954 0.960 . S
C968 H955 0.960 . S
C968 C967 1.524 . S
C969 C966 1.403 . S
C969 C970 1.392 . S
C969 C973 1.495 . S
C970 C969 1.392 . S
C970 C971 1.385 . S
C970 C972 1.478 . S
C971 H965 0.930 . S
C971 C967 1.400 . S
C971 C970 1.385 . S
C972 C970 1.478 . S
C972 C974 1.381 . S
C972 C978 1.383 . S
C973 C969 1.495 . S
C973 H979 0.959 . S
C973 H980 0.961 . S
C973 H981 0.960 . S
C974 C972 1.381 . S
C974 C975 1.394 . S
C974 H982 0.930 . S
C975 C974 1.394 . S
C975 C976 1.383 . S
C975 H983 0.929 . S
C976 C975 1.383 . S
C976 C977 1.377 . S
C977 H961 0.930 . S
C977 C976 1.377 . S
C977 C978 1.379 . S
C978 H962 0.931 . S
C978 C972 1.383 . S
C978 C977 1.379 . S
H979 C973 0.959 . S
H980 C973 0.961 . S
H981 C973 0.960 . S
H982 C974 0.930 . S
H983 C975 0.929 . S
H984 C992 0.929 . S
H985 C994 0.930 . S
H986 C996 0.930 . S
H987 C999 0.929 . S
H988 C1002 0.930 . S
H989 C1004 0.960 . S
H990 C1004 0.960 . S
H991 C1004 0.960 . S
C992 H984 0.929 . S
C992 C993 1.377 . S
C992 C994 1.384 . S
C993 C992 1.377 . S
C993 C999 1.390 . S
C994 H985 0.930 . S
C994 C992 1.384 . S
C994 C995 1.372 . S
C995 C994 1.372 . S
C995 C996 1.400 . S
C995 C1000 1.490 . S
C996 H986 0.930 . S
C996 C995 1.400 . S
C996 C999 1.386 . S
H997 C1013 0.930 . S
H998 C1014 0.931 . S
C999 H987 0.929 . S
C999 C993 1.390 . S
C999 C996 1.386 . S
C1000 C995 1.490 . S
C1000 C1002 1.395 . S
C1000 C1003 1.403 . S
H1001 C1007 0.930 . S
C1002 H988 0.930 . S
C1002 C1000 1.395 . S
C1002 C1005 1.403 . S
C1003 C1000 1.403 . S
C1003 C1004 1.524 . S
C1003 C1007 1.400 . S
C1004 H989 0.960 . S
C1004 H990 0.960 . S
C1004 H991 0.960 . S
C1004 C1003 1.524 . S
C1005 C1002 1.403 . S
C1005 C1006 1.392 . S
C1005 C1009 1.495 . S
C1006 C1005 1.392 . S
C1006 C1007 1.385 . S
C1006 C1008 1.478 . S
C1007 H1001 0.930 . S
C1007 C1003 1.400 . S
C1007 C1006 1.385 . S
C1008 C1006 1.478 . S
C1008 C1010 1.381 . S
C1008 C1014 1.383 . S
C1009 C1005 1.495 . S
C1009 H1015 0.959 . S
C1009 H1016 0.961 . S
C1009 H1017 0.960 . S
C1010 C1008 1.381 . S
C1010 C1011 1.394 . S
C1010 H1018 0.930 . S
C1011 C1010 1.394 . S
C1011 C1012 1.383 . S
C1011 H1019 0.929 . S
C1012 C1011 1.383 . S
C1012 C1013 1.377 . S
C1013 H997 0.930 . S
C1013 C1012 1.377 . S
C1013 C1014 1.379 . S
C1014 H998 0.931 . S
C1014 C1008 1.383 . S
C1014 C1013 1.379 . S
H1015 C1009 0.959 . S
H1016 C1009 0.961 . S
H1017 C1009 0.960 . S
H1018 C1010 0.930 . S
H1019 C1011 0.929 . S
H1020 C1028 0.929 . S
H1021 C1030 0.930 . S
H1022 C1032 0.930 . S
H1023 C1035 0.929 . S
H1024 C1038 0.930 . S
H1025 C1040 0.960 . S
H1026 C1040 0.960 . S
H1027 C1040 0.960 . S
C1028 H1020 0.929 . S
C1028 C1029 1.377 . S
C1028 C1030 1.384 . S
C1029 C1028 1.377 . S
C1029 C1035 1.390 . S
C1030 H1021 0.930 . S
C1030 C1028 1.384 . S
C1030 C1031 1.372 . S
C1031 C1030 1.372 . S
C1031 C1032 1.400 . S
C1031 C1036 1.490 . S
C1032 H1022 0.930 . S
C1032 C1031 1.400 . S
C1032 C1035 1.386 . S
H1033 C1049 0.930 . S
H1034 C1050 0.931 . S
C1035 H1023 0.929 . S
C1035 C1029 1.390 . S
C1035 C1032 1.386 . S
C1036 C1031 1.490 . S
C1036 C1038 1.395 . S
C1036 C1039 1.403 . S
H1037 C1043 0.930 . S
C1038 H1024 0.930 . S
C1038 C1036 1.395 . S
C1038 C1041 1.403 . S
C1039 C1036 1.403 . S
C1039 C1040 1.524 . S
C1039 C1043 1.400 . S
C1040 H1025 0.960 . S
C1040 H1026 0.960 . S
C1040 H1027 0.960 . S
C1040 C1039 1.524 . S
C1041 C1038 1.403 . S
C1041 C1042 1.392 . S
C1041 C1045 1.495 . S
C1042 C1041 1.392 . S
C1042 C1043 1.385 . S
C1042 C1044 1.478 . S
C1043 H1037 0.930 . S
C1043 C1039 1.400 . S
C1043 C1042 1.385 . S
C1044 C1042 1.478 . S
C1044 C1046 1.381 . S
C1044 C1050 1.383 . S
C1045 C1041 1.495 . S
C1045 H1051 0.959 . S
C1045 H1052 0.961 . S
C1045 H1053 0.960 . S
C1046 C1044 1.381 . S
C1046 C1047 1.394 . S
C1046 H1054 0.930 . S
C1047 C1046 1.394 . S
C1047 C1048 1.383 . S
C1047 H1055 0.929 . S
C1048 C1047 1.383 . S
C1048 C1049 1.377 . S
C1049 H1033 0.930 . S
C1049 C1048 1.377 . S
C1049 C1050 1.379 . S
C1050 H1034 0.931 . S
C1050 C1044 1.383 . S
C1050 C1049 1.379 . S
H1051 C1045 0.959 . S
H1052 C1045 0.961 . S
H1053 C1045 0.960 . S
H1054 C1046 0.930 . S
H1055 C1047 0.929 . S
H1056 C1064 0.929 . S
H1057 C1066 0.930 . S
H1058 C1068 0.930 . S
H1059 C1071 0.929 . S
H1060 C1074 0.930 . S
H1061 C1076 0.960 . S
H1062 C1076 0.960 . S
H1063 C1076 0.960 . S
C1064 H1056 0.929 . S
C1064 C1065 1.377 . S
C1064 C1066 1.384 . S
C1065 C1064 1.377 . S
C1065 C1071 1.390 . S
C1066 H1057 0.930 . S
C1066 C1064 1.384 . S
C1066 C1067 1.372 . S
C1067 C1066 1.372 . S
C1067 C1068 1.400 . S
C1067 C1072 1.490 . S
C1068 H1058 0.930 . S
C1068 C1067 1.400 . S
C1068 C1071 1.386 . S
H1069 C1085 0.930 . S
H1070 C1086 0.931 . S
C1071 H1059 0.929 . S
C1071 C1065 1.390 . S
C1071 C1068 1.386 . S
C1072 C1067 1.490 . S
C1072 C1074 1.395 . S
C1072 C1075 1.403 . S
H1073 C1079 0.930 . S
C1074 H1060 0.930 . S
C1074 C1072 1.395 . S
C1074 C1077 1.403 . S
C1075 C1072 1.403 . S
C1075 C1076 1.524 . S
C1075 C1079 1.400 . S
C1076 H1061 0.960 . S
C1076 H1062 0.960 . S
C1076 H1063 0.960 . S
C1076 C1075 1.524 . S
C1077 C1074 1.403 . S
C1077 C1078 1.392 . S
C1077 C1081 1.495 . S
C1078 C1077 1.392 . S
C1078 C1079 1.385 . S
C1078 C1080 1.478 . S
C1079 H1073 0.930 . S
C1079 C1075 1.400 . S
C1079 C1078 1.385 . S
C1080 C1078 1.478 . S
C1080 C1082 1.381 . S
C1080 C1086 1.383 . S
C1081 C1077 1.495 . S
C1081 H1087 0.959 . S
C1081 H1088 0.961 . S
C1081 H1089 0.960 . S
C1082 C1080 1.381 . S
C1082 C1083 1.394 . S
C1082 H1090 0.930 . S
C1083 C1082 1.394 . S
C1083 C1084 1.383 . S
C1083 H1091 0.929 . S
C1084 C1083 1.383 . S
C1084 C1085 1.377 . S
C1085 H1069 0.930 . S
C1085 C1084 1.377 . S
C1085 C1086 1.379 . S
C1086 H1070 0.931 . S
C1086 C1080 1.383 . S
C1086 C1085 1.379 . S
H1087 C1081 0.959 . S
H1088 C1081 0.961 . S
H1089 C1081 0.960 . S
H1090 C1082 0.930 . S
H1091 C1083 0.929 . S
H1092 C1100 0.929 . S
H1093 C1102 0.930 . S
H1094 C1104 0.930 . S
H1095 C1107 0.929 . S
H1096 C1110 0.930 . S
H1097 C1112 0.960 . S
H1098 C1112 0.960 . S
H1099 C1112 0.960 . S
C1100 H1092 0.929 . S
C1100 C1101 1.377 . S
C1100 C1102 1.384 . S
C1101 C1100 1.377 . S
C1101 C1107 1.390 . S
C1102 H1093 0.930 . S
C1102 C1100 1.384 . S
C1102 C1103 1.372 . S
C1103 C1102 1.372 . S
C1103 C1104 1.400 . S
C1103 C1108 1.490 . S
C1104 H1094 0.930 . S
C1104 C1103 1.400 . S
C1104 C1107 1.386 . S
H1105 C1121 0.930 . S
H1106 C1122 0.931 . S
C1107 H1095 0.929 . S
C1107 C1101 1.390 . S
C1107 C1104 1.386 . S
C1108 C1103 1.490 . S
C1108 C1110 1.395 . S
C1108 C1111 1.403 . S
H1109 C1115 0.930 . S
C1110 H1096 0.930 . S
C1110 C1108 1.395 . S
C1110 C1113 1.403 . S
C1111 C1108 1.403 . S
C1111 C1112 1.524 . S
C1111 C1115 1.400 . S
C1112 H1097 0.960 . S
C1112 H1098 0.960 . S
C1112 H1099 0.960 . S
C1112 C1111 1.524 . S
C1113 C1110 1.403 . S
C1113 C1114 1.392 . S
C1113 C1117 1.495 . S
C1114 C1113 1.392 . S
C1114 C1115 1.385 . S
C1114 C1116 1.478 . S
C1115 H1109 0.930 . S
C1115 C1111 1.400 . S
C1115 C1114 1.385 . S
C1116 C1114 1.478 . S
C1116 C1118 1.381 . S
C1116 C1122 1.383 . S
C1117 C1113 1.495 . S
C1117 H1123 0.959 . S
C1117 H1124 0.961 . S
C1117 H1125 0.960 . S
C1118 C1116 1.381 . S
C1118 C1119 1.394 . S
C1118 H1126 0.930 . S
C1119 C1118 1.394 . S
C1119 C1120 1.383 . S
C1119 H1127 0.929 . S
C1120 C1119 1.383 . S
C1120 C1121 1.377 . S
C1121 H1105 0.930 . S
C1121 C1120 1.377 . S
C1121 C1122 1.379 . S
C1122 H1106 0.931 . S
C1122 C1116 1.383 . S
C1122 C1121 1.379 . S
H1123 C1117 0.959 . S
H1124 C1117 0.961 . S
H1125 C1117 0.960 . S
H1126 C1118 0.930 . S
H1127 C1119 0.929 . S
H1128 C1136 0.929 . S
H1129 C1138 0.930 . S
H1130 C1140 0.930 . S
H1131 C1143 0.929 . S
H1132 C1146 0.930 . S
H1133 C1148 0.960 . S
H1134 C1148 0.960 . S
H1135 C1148 0.960 . S
C1136 H1128 0.929 . S
C1136 C1137 1.377 . S
C1136 C1138 1.384 . S
C1137 C1136 1.377 . S
C1137 C1143 1.390 . S
C1138 H1129 0.930 . S
C1138 C1136 1.384 . S
C1138 C1139 1.372 . S
C1139 C1138 1.372 . S
C1139 C1140 1.400 . S
C1139 C1144 1.490 . S
C1140 H1130 0.930 . S
C1140 C1139 1.400 . S
C1140 C1143 1.386 . S
H1141 C1157 0.930 . S
H1142 C1158 0.931 . S
C1143 H1131 0.929 . S
C1143 C1137 1.390 . S
C1143 C1140 1.386 . S
C1144 C1139 1.490 . S
C1144 C1146 1.395 . S
C1144 C1147 1.403 . S
H1145 C1151 0.930 . S
C1146 H1132 0.930 . S
C1146 C1144 1.395 . S
C1146 C1149 1.403 . S
C1147 C1144 1.403 . S
C1147 C1148 1.524 . S
C1147 C1151 1.400 . S
C1148 H1133 0.960 . S
C1148 H1134 0.960 . S
C1148 H1135 0.960 . S
C1148 C1147 1.524 . S
C1149 C1146 1.403 . S
C1149 C1150 1.392 . S
C1149 C1153 1.495 . S
C1150 C1149 1.392 . S
C1150 C1151 1.385 . S
C1150 C1152 1.478 . S
C1151 H1145 0.930 . S
C1151 C1147 1.400 . S
C1151 C1150 1.385 . S
C1152 C1150 1.478 . S
C1152 C1154 1.381 . S
C1152 C1158 1.383 . S
C1153 C1149 1.495 . S
C1153 H1159 0.959 . S
C1153 H1160 0.961 . S
C1153 H1161 0.960 . S
C1154 C1152 1.381 . S
C1154 C1155 1.394 . S
C1154 H1162 0.930 . S
C1155 C1154 1.394 . S
C1155 C1156 1.383 . S
C1155 H1163 0.929 . S
C1156 C1155 1.383 . S
C1156 C1157 1.377 . S
C1157 H1141 0.930 . S
C1157 C1156 1.377 . S
C1157 C1158 1.379 . S
C1158 H1142 0.931 . S
C1158 C1152 1.383 . S
C1158 C1157 1.379 . S
H1159 C1153 0.959 . S
H1160 C1153 0.961 . S
H1161 C1153 0.960 . S
H1162 C1154 0.930 . S
H1163 C1155 0.929 . S
H1164 C1172 0.929 . S
H1165 C1174 0.930 . S
H1166 C1176 0.930 . S
H1167 C1179 0.929 . S
H1168 C1182 0.930 . S
H1169 C1184 0.960 . S
H1170 C1184 0.960 . S
H1171 C1184 0.960 . S
C1172 H1164 0.929 . S
C1172 C1173 1.377 . S
C1172 C1174 1.384 . S
C1173 C1172 1.377 . S
C1173 C1179 1.390 . S
C1174 H1165 0.930 . S
C1174 C1172 1.384 . S
C1174 C1175 1.372 . S
C1175 C1174 1.372 . S
C1175 C1176 1.400 . S
C1175 C1180 1.490 . S
C1176 H1166 0.930 . S
C1176 C1175 1.400 . S
C1176 C1179 1.386 . S
H1177 C1193 0.930 . S
H1178 C1194 0.931 . S
C1179 H1167 0.929 . S
C1179 C1173 1.390 . S
C1179 C1176 1.386 . S
C1180 C1175 1.490 . S
C1180 C1182 1.395 . S
C1180 C1183 1.403 . S
H1181 C1187 0.930 . S
C1182 H1168 0.930 . S
C1182 C1180 1.395 . S
C1182 C1185 1.403 . S
C1183 C1180 1.403 . S
C1183 C1184 1.524 . S
C1183 C1187 1.400 . S
C1184 H1169 0.960 . S
C1184 H1170 0.960 . S
C1184 H1171 0.960 . S
C1184 C1183 1.524 . S
C1185 C1182 1.403 . S
C1185 C1186 1.392 . S
C1185 C1189 1.495 . S
C1186 C1185 1.392 . S
C1186 C1187 1.385 . S
C1186 C1188 1.478 . S
C1187 H1181 0.930 . S
C1187 C1183 1.400 . S
C1187 C1186 1.385 . S
C1188 C1186 1.478 . S
C1188 C1190 1.381 . S
C1188 C1194 1.383 . S
C1189 C1185 1.495 . S
C1189 H1195 0.959 . S
C1189 H1196 0.961 . S
C1189 H1197 0.960 . S
C1190 C1188 1.381 . S
C1190 C1191 1.394 . S
C1190 H1198 0.930 . S
C1191 C1190 1.394 . S
C1191 C1192 1.383 . S
C1191 H1199 0.929 . S
C1192 C1191 1.383 . S
C1192 C1193 1.377 . S
C1193 H1177 0.930 . S
C1193 C1192 1.377 . S
C1193 C1194 1.379 . S
C1194 H1178 0.931 . S
C1194 C1188 1.383 . S
C1194 C1193 1.379 . S
H1195 C1189 0.959 . S
H1196 C1189 0.961 . S
H1197 C1189 0.960 . S
H1198 C1190 0.930 . S
H1199 C1191 0.929 . S
H1200 C1208 0.929 . S
H1201 C1210 0.930 . S
H1202 C1212 0.930 . S
H1203 C1215 0.929 . S
H1204 C1218 0.930 . S
H1205 C1220 0.960 . S
H1206 C1220 0.960 . S
H1207 C1220 0.960 . S
C1208 H1200 0.929 . S
C1208 C1209 1.377 . S
C1208 C1210 1.384 . S
C1209 C1208 1.377 . S
C1209 C1215 1.390 . S
C1210 H1201 0.930 . S
C1210 C1208 1.384 . S
C1210 C1211 1.372 . S
C1211 C1210 1.372 . S
C1211 C1212 1.400 . S
C1211 C1216 1.490 . S
C1212 H1202 0.930 . S
C1212 C1211 1.400 . S
C1212 C1215 1.386 . S
H1213 C1229 0.930 . S
H1214 C1230 0.931 . S
C1215 H1203 0.929 . S
C1215 C1209 1.390 . S
C1215 C1212 1.386 . S
C1216 C1211 1.490 . S
C1216 C1218 1.395 . S
C1216 C1219 1.403 . S
H1217 C1223 0.930 . S
C1218 H1204 0.930 . S
C1218 C1216 1.395 . S
C1218 C1221 1.403 . S
C1219 C1216 1.403 . S
C1219 C1220 1.524 . S
C1219 C1223 1.400 . S
C1220 H1205 0.960 . S
C1220 H1206 0.960 . S
C1220 H1207 0.960 . S
C1220 C1219 1.524 . S
C1221 C1218 1.403 . S
C1221 C1222 1.392 . S
C1221 C1225 1.495 . S
C1222 C1221 1.392 . S
C1222 C1223 1.385 . S
C1222 C1224 1.478 . S
C1223 H1217 0.930 . S
C1223 C1219 1.400 . S
C1223 C1222 1.385 . S
C1224 C1222 1.478 . S
C1224 C1226 1.381 . S
C1224 C1230 1.383 . S
C1225 C1221 1.495 . S
C1225 H1231 0.959 . S
C1225 H1232 0.961 . S
C1225 H1233 0.960 . S
C1226 C1224 1.381 . S
C1226 C1227 1.394 . S
C1226 H1234 0.930 . S
C1227 C1226 1.394 . S
C1227 C1228 1.383 . S
C1227 H1235 0.929 . S
C1228 C1227 1.383 . S
C1228 C1229 1.377 . S
C1229 H1213 0.930 . S
C1229 C1228 1.377 . S
C1229 C1230 1.379 . S
C1230 H1214 0.931 . S
C1230 C1224 1.383 . S
C1230 C1229 1.379 . S
H1231 C1225 0.959 . S
H1232 C1225 0.961 . S
H1233 C1225 0.960 . S
H1234 C1226 0.930 . S
H1235 C1227 0.929 . S
H1236 C1244 0.929 . S
H1237 C1246 0.930 . S
H1238 C1248 0.930 . S
H1239 C1251 0.929 . S
H1240 C1254 0.930 . S
H1241 C1256 0.960 . S
H1242 C1256 0.960 . S
H1243 C1256 0.960 . S
C1244 H1236 0.929 . S
C1244 C1245 1.377 . S
C1244 C1246 1.384 . S
C1245 C1244 1.377 . S
C1245 C1251 1.390 . S
C1246 H1237 0.930 . S
C1246 C1244 1.384 . S
C1246 C1247 1.372 . S
C1247 C1246 1.372 . S
C1247 C1248 1.400 . S
C1247 C1252 1.490 . S
C1248 H1238 0.930 . S
C1248 C1247 1.400 . S
C1248 C1251 1.386 . S
H1249 C1265 0.930 . S
H1250 C1266 0.931 . S
C1251 H1239 0.929 . S
C1251 C1245 1.390 . S
C1251 C1248 1.386 . S
C1252 C1247 1.490 . S
C1252 C1254 1.395 . S
C1252 C1255 1.403 . S
H1253 C1259 0.930 . S
C1254 H1240 0.930 . S
C1254 C1252 1.395 . S
C1254 C1257 1.403 . S
C1255 C1252 1.403 . S
C1255 C1256 1.524 . S
C1255 C1259 1.400 . S
C1256 H1241 0.960 . S
C1256 H1242 0.960 . S
C1256 H1243 0.960 . S
C1256 C1255 1.524 . S
C1257 C1254 1.403 . S
C1257 C1258 1.392 . S
C1257 C1261 1.495 . S
C1258 C1257 1.392 . S
C1258 C1259 1.385 . S
C1258 C1260 1.478 . S
C1259 H1253 0.930 . S
C1259 C1255 1.400 . S
C1259 C1258 1.385 . S
C1260 C1258 1.478 . S
C1260 C1262 1.381 . S
C1260 C1266 1.383 . S
C1261 C1257 1.495 . S
C1261 H1267 0.959 . S
C1261 H1268 0.961 . S
C1261 H1269 0.960 . S
C1262 C1260 1.381 . S
C1262 C1263 1.394 . S
C1262 H1270 0.930 . S
C1263 C1262 1.394 . S
C1263 C1264 1.383 . S
C1263 H1271 0.929 . S
C1264 C1263 1.383 . S
C1264 C1265 1.377 . S
C1265 H1249 0.930 . S
C1265 C1264 1.377 . S
C1265 C1266 1.379 . S
C1266 H1250 0.931 . S
C1266 C1260 1.383 . S
C1266 C1265 1.379 . S
H1267 C1261 0.959 . S
H1268 C1261 0.961 . S
H1269 C1261 0.960 . S
H1270 C1262 0.930 . S
H1271 C1263 0.929 . S
H1272 C1280 0.929 . S
H1273 C1282 0.930 . S
H1274 C1284 0.930 . S
H1275 C1287 0.929 . S
H1276 C1290 0.930 . S
H1277 C1292 0.960 . S
H1278 C1292 0.960 . S
H1279 C1292 0.960 . S
C1280 H1272 0.929 . S
C1280 C1281 1.377 . S
C1280 C1282 1.384 . S
C1281 C1280 1.377 . S
C1281 C1287 1.390 . S
C1282 H1273 0.930 . S
C1282 C1280 1.384 . S
C1282 C1283 1.372 . S
C1283 C1282 1.372 . S
C1283 C1284 1.400 . S
C1283 C1288 1.490 . S
C1284 H1274 0.930 . S
C1284 C1283 1.400 . S
C1284 C1287 1.386 . S
H1285 C1301 0.930 . S
H1286 C1302 0.931 . S
C1287 H1275 0.929 . S
C1287 C1281 1.390 . S
C1287 C1284 1.386 . S
C1288 C1283 1.490 . S
C1288 C1290 1.395 . S
C1288 C1291 1.403 . S
H1289 C1295 0.930 . S
C1290 H1276 0.930 . S
C1290 C1288 1.395 . S
C1290 C1293 1.403 . S
C1291 C1288 1.403 . S
C1291 C1292 1.524 . S
C1291 C1295 1.400 . S
C1292 H1277 0.960 . S
C1292 H1278 0.960 . S
C1292 H1279 0.960 . S
C1292 C1291 1.524 . S
C1293 C1290 1.403 . S
C1293 C1294 1.392 . S
C1293 C1297 1.495 . S
C1294 C1293 1.392 . S
C1294 C1295 1.385 . S
C1294 C1296 1.478 . S
C1295 H1289 0.930 . S
C1295 C1291 1.400 . S
C1295 C1294 1.385 . S
C1296 C1294 1.478 . S
C1296 C1298 1.381 . S
C1296 C1302 1.383 . S
C1297 C1293 1.495 . S
C1297 H1303 0.959 . S
C1297 H1304 0.961 . S
C1297 H1305 0.960 . S
C1298 C1296 1.381 . S
C1298 C1299 1.394 . S
C1298 H1306 0.930 . S
C1299 C1298 1.394 . S
C1299 C1300 1.383 . S
C1299 H1307 0.929 . S
C1300 C1299 1.383 . S
C1300 C1301 1.377 . S
C1301 H1285 0.930 . S
C1301 C1300 1.377 . S
C1301 C1302 1.379 . S
C1302 H1286 0.931 . S
C1302 C1296 1.383 . S
C1302 C1301 1.379 . S
H1303 C1297 0.959 . S
H1304 C1297 0.961 . S
H1305 C1297 0.960 . S
H1306 C1298 0.930 . S
H1307 C1299 0.929 . S
H1308 C1316 0.929 . S
H1309 C1318 0.930 . S
H1310 C1320 0.930 . S
H1311 C1323 0.929 . S
H1312 C1326 0.930 . S
H1313 C1328 0.960 . S
H1314 C1328 0.960 . S
H1315 C1328 0.960 . S
C1316 H1308 0.929 . S
C1316 C1317 1.377 . S
C1316 C1318 1.384 . S
C1317 C1316 1.377 . S
C1317 C1323 1.390 . S
C1318 H1309 0.930 . S
C1318 C1316 1.384 . S
C1318 C1319 1.372 . S
C1319 C1318 1.372 . S
C1319 C1320 1.400 . S
C1319 C1324 1.490 . S
C1320 H1310 0.930 . S
C1320 C1319 1.400 . S
C1320 C1323 1.386 . S
H1321 C1337 0.930 . S
H1322 C1338 0.931 . S
C1323 H1311 0.929 . S
C1323 C1317 1.390 . S
C1323 C1320 1.386 . S
C1324 C1319 1.490 . S
C1324 C1326 1.395 . S
C1324 C1327 1.403 . S
H1325 C1331 0.930 . S
C1326 H1312 0.930 . S
C1326 C1324 1.395 . S
C1326 C1329 1.403 . S
C1327 C1324 1.403 . S
C1327 C1328 1.524 . S
C1327 C1331 1.400 . S
C1328 H1313 0.960 . S
C1328 H1314 0.960 . S
C1328 H1315 0.960 . S
C1328 C1327 1.524 . S
C1329 C1326 1.403 . S
C1329 C1330 1.392 . S
C1329 C1333 1.495 . S
C1330 C1329 1.392 . S
C1330 C1331 1.385 . S
C1330 C1332 1.478 . S
C1331 H1325 0.930 . S
C1331 C1327 1.400 . S
C1331 C1330 1.385 . S
C1332 C1330 1.478 . S
C1332 C1334 1.381 . S
C1332 C1338 1.383 . S
C1333 C1329 1.495 . S
C1333 H1339 0.959 . S
C1333 H1340 0.961 . S
C1333 H1341 0.960 . S
C1334 C1332 1.381 . S
C1334 C1335 1.394 . S
C1334 H1342 0.930 . S
C1335 C1334 1.394 . S
C1335 C1336 1.383 . S
C1335 H1343 0.929 . S
C1336 C1335 1.383 . S
C1336 C1337 1.377 . S
C1337 H1321 0.930 . S
C1337 C1336 1.377 . S
C1337 C1338 1.379 . S
C1338 H1322 0.931 . S
C1338 C1332 1.383 . S
C1338 C1337 1.379 . S
H1339 C1333 0.959 . S
H1340 C1333 0.961 . S
H1341 C1333 0.960 . S
H1342 C1334 0.930 . S
H1343 C1335 0.929 . S
H1344 C1352 0.929 . S
H1345 C1354 0.930 . S
H1346 C1356 0.930 . S
H1347 C1359 0.929 . S
H1348 C1362 0.930 . S
H1349 C1364 0.960 . S
H1350 C1364 0.960 . S
H1351 C1364 0.960 . S
C1352 H1344 0.929 . S
C1352 C1353 1.377 . S
C1352 C1354 1.384 . S
C1353 C1352 1.377 . S
C1353 C1359 1.390 . S
C1354 H1345 0.930 . S
C1354 C1352 1.384 . S
C1354 C1355 1.372 . S
C1355 C1354 1.372 . S
C1355 C1356 1.400 . S
C1355 C1360 1.490 . S
C1356 H1346 0.930 . S
C1356 C1355 1.400 . S
C1356 C1359 1.386 . S
H1357 C1373 0.930 . S
H1358 C1374 0.931 . S
C1359 H1347 0.929 . S
C1359 C1353 1.390 . S
C1359 C1356 1.386 . S
C1360 C1355 1.490 . S
C1360 C1362 1.395 . S
C1360 C1363 1.403 . S
H1361 C1367 0.930 . S
C1362 H1348 0.930 . S
C1362 C1360 1.395 . S
C1362 C1365 1.403 . S
C1363 C1360 1.403 . S
C1363 C1364 1.524 . S
C1363 C1367 1.400 . S
C1364 H1349 0.960 . S
C1364 H1350 0.960 . S
C1364 H1351 0.960 . S
C1364 C1363 1.524 . S
C1365 C1362 1.403 . S
C1365 C1366 1.392 . S
C1365 C1369 1.495 . S
C1366 C1365 1.392 . S
C1366 C1367 1.385 . S
C1366 C1368 1.478 . S
C1367 H1361 0.930 . S
C1367 C1363 1.400 . S
C1367 C1366 1.385 . S
C1368 C1366 1.478 . S
C1368 C1370 1.381 . S
C1368 C1374 1.383 . S
C1369 C1365 1.495 . S
C1369 H1375 0.959 . S
C1369 H1376 0.961 . S
C1369 H1377 0.960 . S
C1370 C1368 1.381 . S
C1370 C1371 1.394 . S
C1370 H1378 0.930 . S
C1371 C1370 1.394 . S
C1371 C1372 1.383 . S
C1371 H1379 0.929 . S
C1372 C1371 1.383 . S
C1372 C1373 1.377 . S
C1373 H1357 0.930 . S
C1373 C1372 1.377 . S
C1373 C1374 1.379 . S
C1374 H1358 0.931 . S
C1374 C1368 1.383 . S
C1374 C1373 1.379 . S
H1375 C1369 0.959 . S
H1376 C1369 0.961 . S
H1377 C1369 0.960 . S
H1378 C1370 0.930 . S
H1379 C1371 0.929 . S
H1380 C1388 0.929 . S
H1381 C1390 0.930 . S
H1382 C1392 0.930 . S
H1383 C1395 0.929 . S
H1384 C1398 0.930 . S
H1385 C1400 0.960 . S
H1386 C1400 0.960 . S
H1387 C1400 0.960 . S
C1388 H1380 0.929 . S
C1388 C1389 1.377 . S
C1388 C1390 1.384 . S
C1389 C1388 1.377 . S
C1389 C1395 1.390 . S
C1390 H1381 0.930 . S
C1390 C1388 1.384 . S
C1390 C1391 1.372 . S
C1391 C1390 1.372 . S
C1391 C1392 1.400 . S
C1391 C1396 1.490 . S
C1392 H1382 0.930 . S
C1392 C1391 1.400 . S
C1392 C1395 1.386 . S
H1393 C1409 0.930 . S
H1394 C1410 0.931 . S
C1395 H1383 0.929 . S
C1395 C1389 1.390 . S
C1395 C1392 1.386 . S
C1396 C1391 1.490 . S
C1396 C1398 1.395 . S
C1396 C1399 1.403 . S
H1397 C1403 0.930 . S
C1398 H1384 0.930 . S
C1398 C1396 1.395 . S
C1398 C1401 1.403 . S
C1399 C1396 1.403 . S
C1399 C1400 1.524 . S
C1399 C1403 1.400 . S
C1400 H1385 0.960 . S
C1400 H1386 0.960 . S
C1400 H1387 0.960 . S
C1400 C1399 1.524 . S
C1401 C1398 1.403 . S
C1401 C1402 1.392 . S
C1401 C1405 1.495 . S
C1402 C1401 1.392 . S
C1402 C1403 1.385 . S
C1402 C1404 1.478 . S
C1403 H1397 0.930 . S
C1403 C1399 1.400 . S
C1403 C1402 1.385 . S
C1404 C1402 1.478 . S
C1404 C1406 1.381 . S
C1404 C1410 1.383 . S
C1405 C1401 1.495 . S
C1405 H1411 0.959 . S
C1405 H1412 0.961 . S
C1405 H1413 0.960 . S
C1406 C1404 1.381 . S
C1406 C1407 1.394 . S
C1406 H1414 0.930 . S
C1407 C1406 1.394 . S
C1407 C1408 1.383 . S
C1407 H1415 0.929 . S
C1408 C1407 1.383 . S
C1408 C1409 1.377 . S
C1409 H1393 0.930 . S
C1409 C1408 1.377 . S
C1409 C1410 1.379 . S
C1410 H1394 0.931 . S
C1410 C1404 1.383 . S
C1410 C1409 1.379 . S
H1411 C1405 0.959 . S
H1412 C1405 0.961 . S
H1413 C1405 0.960 . S
H1414 C1406 0.930 . S
H1415 C1407 0.929 . S
H1416 C1424 0.929 . S
H1417 C1426 0.930 . S
H1418 C1428 0.930 . S
H1419 C1431 0.929 . S
H1420 C1434 0.930 . S
H1421 C1436 0.960 . S
H1422 C1436 0.960 . S
H1423 C1436 0.960 . S
C1424 H1416 0.929 . S
C1424 C1425 1.377 . S
C1424 C1426 1.384 . S
C1425 C1424 1.377 . S
C1425 C1431 1.390 . S
C1426 H1417 0.930 . S
C1426 C1424 1.384 . S
C1426 C1427 1.372 . S
C1427 C1426 1.372 . S
C1427 C1428 1.400 . S
C1427 C1432 1.490 . S
C1428 H1418 0.930 . S
C1428 C1427 1.400 . S
C1428 C1431 1.386 . S
H1429 C1445 0.930 . S
H1430 C1446 0.931 . S
C1431 H1419 0.929 . S
C1431 C1425 1.390 . S
C1431 C1428 1.386 . S
C1432 C1427 1.490 . S
C1432 C1434 1.395 . S
C1432 C1435 1.403 . S
H1433 C1439 0.930 . S
C1434 H1420 0.930 . S
C1434 C1432 1.395 . S
C1434 C1437 1.403 . S
C1435 C1432 1.403 . S
C1435 C1436 1.524 . S
C1435 C1439 1.400 . S
C1436 H1421 0.960 . S
C1436 H1422 0.960 . S
C1436 H1423 0.960 . S
C1436 C1435 1.524 . S
C1437 C1434 1.403 . S
C1437 C1438 1.392 . S
C1437 C1441 1.495 . S
C1438 C1437 1.392 . S
C1438 C1439 1.385 . S
C1438 C1440 1.478 . S
C1439 H1433 0.930 . S
C1439 C1435 1.400 . S
C1439 C1438 1.385 . S
C1440 C1438 1.478 . S
C1440 C1442 1.381 . S
C1440 C1446 1.383 . S
C1441 C1437 1.495 . S
C1441 H1447 0.959 . S
C1441 H1448 0.961 . S
C1441 H1449 0.960 . S
C1442 C1440 1.381 . S
C1442 C1443 1.394 . S
C1442 H1450 0.930 . S
C1443 C1442 1.394 . S
C1443 C1444 1.383 . S
C1443 H1451 0.929 . S
C1444 C1443 1.383 . S
C1444 C1445 1.377 . S
C1445 H1429 0.930 . S
C1445 C1444 1.377 . S
C1445 C1446 1.379 . S
C1446 H1430 0.931 . S
C1446 C1440 1.383 . S
C1446 C1445 1.379 . S
H1447 C1441 0.959 . S
H1448 C1441 0.961 . S
H1449 C1441 0.960 . S
H1450 C1442 0.930 . S
H1451 C1443 0.929 . S
H1452 C1460 0.929 . S
H1453 C1462 0.930 . S
H1454 C1464 0.930 . S
H1455 C1467 0.929 . S
H1456 C1470 0.930 . S
H1457 C1472 0.960 . S
H1458 C1472 0.934 1_554 S
H1459 C1472 0.982 . S
C1460 H1452 0.929 . S
C1460 C1461 1.377 . S
C1460 C1462 1.384 . S
C1461 C1460 1.377 . S
C1461 C1467 1.390 . S
C1462 H1453 0.930 . S
C1462 C1460 1.384 . S
C1462 C1463 1.372 . S
C1463 C1462 1.372 . S
C1463 C1464 1.400 . S
C1463 C1468 1.490 1_554 S
C1464 H1454 0.930 . S
C1464 C1463 1.400 . S
C1464 C1467 1.386 . S
H1465 C1481 0.930 . S
H1466 C1482 0.931 . S
C1467 H1455 0.929 . S
C1467 C1461 1.390 . S
C1467 C1464 1.386 . S
C1468 C1463 1.490 1_556 S
C1468 C1470 1.395 . S
C1468 C1471 1.403 . S
H1469 C1475 0.930 . S
C1470 H1456 0.930 . S
C1470 C1468 1.395 . S
C1470 C1473 1.403 . S
C1471 C1468 1.403 . S
C1471 C1472 1.524 . S
C1471 C1475 1.400 . S
C1472 H1457 0.960 . S
C1472 H1458 0.934 1_556 S
C1472 H1459 0.982 . S
C1472 C1471 1.524 . S
C1473 C1470 1.403 . S
C1473 C1474 1.392 . S
C1473 C1477 1.495 . S
C1474 C1473 1.392 . S
C1474 C1475 1.385 . S
C1474 C1476 1.478 . S
C1475 H1469 0.930 . S
C1475 C1471 1.400 . S
C1475 C1474 1.385 . S
C1476 C1474 1.478 . S
C1476 C1478 1.381 . S
C1476 C1482 1.383 . S
C1477 C1473 1.495 . S
C1477 H1483 0.959 . S
C1477 H1484 0.961 . S
C1477 H1485 0.960 . S
C1478 C1476 1.381 . S
C1478 C1479 1.394 . S
C1478 H1486 0.930 . S
C1479 C1478 1.394 . S
C1479 C1480 1.383 . S
C1479 H1487 0.929 . S
C1480 C1479 1.383 . S
C1480 C1481 1.377 . S
C1481 H1465 0.930 . S
C1481 C1480 1.377 . S
C1481 C1482 1.379 . S
C1482 H1466 0.931 . S
C1482 C1476 1.383 . S
C1482 C1481 1.379 . S
H1483 C1477 0.959 . S
H1484 C1477 0.961 . S
H1485 C1477 0.960 . S
H1486 C1478 0.930 . S
H1487 C1479 0.929 . S
H1488 C1496 0.929 . S
H1489 C1498 0.930 . S
H1490 C1500 0.930 . S
H1491 C1503 0.929 . S
H1492 C1506 0.930 . S
H1493 C1508 0.960 . S
H1494 C1508 0.960 . S
H1495 C1508 0.960 . S
C1496 H1488 0.929 . S
C1496 C1497 1.377 . S
C1496 C1498 1.384 . S
C1497 C1496 1.377 . S
C1497 C1503 1.390 . S
C1498 H1489 0.930 . S
C1498 C1496 1.384 . S
C1498 C1499 1.372 . S
C1499 C1498 1.372 . S
C1499 C1500 1.400 . S
C1499 C1504 1.490 . S
C1500 H1490 0.930 . S
C1500 C1499 1.400 . S
C1500 C1503 1.386 . S
H1501 C1517 0.930 . S
H1502 C1518 0.931 . S
C1503 H1491 0.929 . S
C1503 C1497 1.390 . S
C1503 C1500 1.386 . S
C1504 C1499 1.490 . S
C1504 C1506 1.395 . S
C1504 C1507 1.403 . S
H1505 C1511 0.930 . S
C1506 H1492 0.930 . S
C1506 C1504 1.395 . S
C1506 C1509 1.403 . S
C1507 C1504 1.403 . S
C1507 C1508 1.524 . S
C1507 C1511 1.400 . S
C1508 H1493 0.960 . S
C1508 H1494 0.960 . S
C1508 H1495 0.960 . S
C1508 C1507 1.524 . S
C1509 C1506 1.403 . S
C1509 C1510 1.392 . S
C1509 C1513 1.495 . S
C1510 C1509 1.392 . S
C1510 C1511 1.385 . S
C1510 C1512 1.478 . S
C1511 H1505 0.930 . S
C1511 C1507 1.400 . S
C1511 C1510 1.385 . S
C1512 C1510 1.478 . S
C1512 C1514 1.381 . S
C1512 C1518 1.383 . S
C1513 C1509 1.495 . S
C1513 H1519 0.959 . S
C1513 H1520 0.961 . S
C1513 H1521 0.960 . S
C1514 C1512 1.381 . S
C1514 C1515 1.394 . S
C1514 H1522 0.930 . S
C1515 C1514 1.394 . S
C1515 C1516 1.383 . S
C1515 H1523 0.929 . S
C1516 C1515 1.383 . S
C1516 C1517 1.377 . S
C1517 H1501 0.930 . S
C1517 C1516 1.377 . S
C1517 C1518 1.379 . S
C1518 H1502 0.931 . S
C1518 C1512 1.383 . S
C1518 C1517 1.379 . S
H1519 C1513 0.959 . S
H1520 C1513 0.961 . S
H1521 C1513 0.960 . S
H1522 C1514 0.930 . S
H1523 C1515 0.929 . S
H1524 C1532 0.929 . S
H1525 C1534 0.930 . S
H1526 C1536 0.930 . S
H1527 C1539 0.929 . S
H1528 C1542 0.930 . S
H1529 C1544 0.960 . S
H1530 C1544 0.960 . S
H1531 C1544 0.960 . S
C1532 H1524 0.929 . S
C1532 C1533 1.377 . S
C1532 C1534 1.384 . S
C1533 C1532 1.377 . S
C1533 C1539 1.390 . S
C1534 H1525 0.930 . S
C1534 C1532 1.384 . S
C1534 C1535 1.372 . S
C1535 C1534 1.372 . S
C1535 C1536 1.400 . S
C1535 C1540 1.490 . S
C1536 H1526 0.930 . S
C1536 C1535 1.400 . S
C1536 C1539 1.386 . S
H1537 C1553 0.930 . S
H1538 C1554 0.931 . S
C1539 H1527 0.929 . S
C1539 C1533 1.390 . S
C1539 C1536 1.386 . S
C1540 C1535 1.490 . S
C1540 C1542 1.395 . S
C1540 C1543 1.403 . S
H1541 C1547 0.930 . S
C1542 H1528 0.930 . S
C1542 C1540 1.395 . S
C1542 C1545 1.403 . S
C1543 C1540 1.403 . S
C1543 C1544 1.524 . S
C1543 C1547 1.400 . S
C1544 H1529 0.960 . S
C1544 H1530 0.960 . S
C1544 H1531 0.960 . S
C1544 C1543 1.524 . S
C1545 C1542 1.403 . S
C1545 C1546 1.392 . S
C1545 C1549 1.495 . S
C1546 C1545 1.392 . S
C1546 C1547 1.385 . S
C1546 C1548 1.478 1_554 S
C1547 H1541 0.930 . S
C1547 C1543 1.400 . S
C1547 C1546 1.385 . S
C1548 C1546 1.478 1_556 S
C1548 C1550 1.381 . S
C1548 C1554 1.383 . S
C1549 C1545 1.495 . S
C1549 H1555 0.959 . S
C1549 H1556 0.961 . S
C1549 H1557 0.960 . S
C1550 C1548 1.381 . S
C1550 C1551 1.394 . S
C1550 H1558 0.930 . S
C1551 C1550 1.394 . S
C1551 C1552 1.383 . S
C1551 H1559 0.929 . S
C1552 C1551 1.383 . S
C1552 C1553 1.377 . S
C1553 H1537 0.930 . S
C1553 C1552 1.377 . S
C1553 C1554 1.379 . S
C1554 H1538 0.931 . S
C1554 C1548 1.383 . S
C1554 C1553 1.379 . S
H1555 C1549 0.959 . S
H1556 C1549 0.961 . S
H1557 C1549 0.960 . S
H1558 C1550 0.930 . S
H1559 C1551 0.929 . S
H1560 C1568 0.929 . S
H1561 C1570 0.930 . S
H1562 C1572 0.930 . S
H1563 C1575 0.929 . S
H1564 C1578 0.930 . S
H1565 C1580 0.960 . S
H1566 C1580 0.960 . S
H1567 C1580 0.960 . S
C1568 H1560 0.929 . S
C1568 C1569 1.377 . S
C1568 C1570 1.384 . S
C1569 C1568 1.377 . S
C1569 C1575 1.390 . S
C1570 H1561 0.930 . S
C1570 C1568 1.384 . S
C1570 C1571 1.372 . S
C1571 C1570 1.372 . S
C1571 C1572 1.400 . S
C1571 C1576 1.490 . S
C1572 H1562 0.930 . S
C1572 C1571 1.400 . S
C1572 C1575 1.386 . S
H1573 C1589 0.930 . S
H1574 C1590 0.931 . S
C1575 H1563 0.929 . S
C1575 C1569 1.390 . S
C1575 C1572 1.386 . S
C1576 C1571 1.490 . S
C1576 C1578 1.395 . S
C1576 C1579 1.403 . S
H1577 C1583 0.930 . S
C1578 H1564 0.930 . S
C1578 C1576 1.395 . S
C1578 C1581 1.403 . S
C1579 C1576 1.403 . S
C1579 C1580 1.524 . S
C1579 C1583 1.400 . S
C1580 H1565 0.960 . S
C1580 H1566 0.960 . S
C1580 H1567 0.960 . S
C1580 C1579 1.524 . S
C1581 C1578 1.403 . S
C1581 C1582 1.392 . S
C1581 C1585 1.495 . S
C1582 C1581 1.392 . S
C1582 C1583 1.385 . S
C1582 C1584 1.478 . S
C1583 H1577 0.930 . S
C1583 C1579 1.400 . S
C1583 C1582 1.385 . S
C1584 C1582 1.478 . S
C1584 C1586 1.381 . S
C1584 C1590 1.383 . S
C1585 C1581 1.495 . S
C1585 H1591 0.959 . S
C1585 H1592 0.961 . S
C1585 H1593 0.960 . S
C1586 C1584 1.381 . S
C1586 C1587 1.394 . S
C1586 H1594 0.930 . S
C1587 C1586 1.394 . S
C1587 C1588 1.383 . S
C1587 H1595 0.929 . S
C1588 C1587 1.383 . S
C1588 C1589 1.377 . S
C1589 H1573 0.930 . S
C1589 C1588 1.377 . S
C1589 C1590 1.379 . S
C1590 H1574 0.931 . S
C1590 C1584 1.383 . S
C1590 C1589 1.379 . S
H1591 C1585 0.959 . S
H1592 C1585 0.961 . S
H1593 C1585 0.960 . S
H1594 C1586 0.930 . S
H1595 C1587 0.929 . S
H1596 C1604 0.929 . S
H1597 C1606 0.930 1_455 S
H1598 C1608 0.950 . S
H1599 C1611 0.929 . S
H1600 C1614 0.930 . S
H1601 C1616 0.960 . S
H1602 C1616 0.960 . S
H1603 C1616 0.960 . S
C1604 H1596 0.929 . S
C1604 C1605 1.377 . S
C1604 C1606 1.384 . S
C1605 C1604 1.377 . S
C1605 C1611 1.390 . S
C1606 H1597 0.930 1_655 S
C1606 C1604 1.384 . S
C1606 C1607 1.372 1_655 S
C1607 C1606 1.372 1_455 S
C1607 C1608 1.400 1_455 S
C1607 C1612 1.490 . S
C1608 H1598 0.950 . S
C1608 C1607 1.400 1_655 S
C1608 C1611 1.386 . S
H1609 C1625 0.930 . S
H1610 C1626 0.931 . S
C1611 H1599 0.929 . S
C1611 C1605 1.390 . S
C1611 C1608 1.386 . S
C1612 C1607 1.490 . S
C1612 C1614 1.395 . S
C1612 C1615 1.403 . S
H1613 C1619 0.930 . S
C1614 H1600 0.930 . S
C1614 C1612 1.395 . S
C1614 C1617 1.403 . S
C1615 C1612 1.403 . S
C1615 C1616 1.524 . S
C1615 C1619 1.400 . S
C1616 H1601 0.960 . S
C1616 H1602 0.960 . S
C1616 H1603 0.960 . S
C1616 C1615 1.524 . S
C1617 C1614 1.403 . S
C1617 C1618 1.392 . S
C1617 C1621 1.495 . S
C1618 C1617 1.392 . S
C1618 C1619 1.385 . S
C1618 C1620 1.478 . S
C1619 H1613 0.930 . S
C1619 C1615 1.400 . S
C1619 C1618 1.385 . S
C1620 C1618 1.478 . S
C1620 C1622 1.381 . S
C1620 C1626 1.383 . S
C1621 C1617 1.495 . S
C1621 H1627 0.959 . S
C1621 H1628 0.961 . S
C1621 H1629 0.960 . S
C1622 C1620 1.381 . S
C1622 C1623 1.394 . S
C1622 H1630 0.930 . S
C1623 C1622 1.394 . S
C1623 C1624 1.383 . S
C1623 H1631 0.929 . S
C1624 C1623 1.383 . S
C1624 C1625 1.377 . S
C1625 H1609 0.930 . S
C1625 C1624 1.377 . S
C1625 C1626 1.379 . S
C1626 H1610 0.931 . S
C1626 C1620 1.383 . S
C1626 C1625 1.379 . S
H1627 C1621 0.959 . S
H1628 C1621 0.961 . S
H1629 C1621 0.960 . S
H1630 C1622 0.930 . S
H1631 C1623 0.929 . S
H1632 C1640 0.929 . S
H1633 C1642 0.930 . S
H1634 C1644 0.930 1_655 S
H1635 C1647 0.929 . S
H1636 C1650 0.930 . S
H1637 C1652 0.960 . S
H1638 C1652 0.960 . S
H1639 C1652 0.960 . S
C1640 H1632 0.929 . S
C1640 C1641 1.377 . S
C1640 C1642 1.384 . S
C1641 C1640 1.377 . S
C1641 C1647 1.390 . S
C1642 H1633 0.930 . S
C1642 C1640 1.384 . S
C1642 C1643 1.372 1_455 S
C1643 C1642 1.372 1_655 S
C1643 C1644 1.400 1_655 S
C1643 C1648 1.490 . S
C1644 H1634 0.930 1_455 S
C1644 C1643 1.400 1_455 S
C1644 C1647 1.386 . S
H1645 C1661 0.930 . S
H1646 C1662 0.931 . S
C1647 H1635 0.929 . S
C1647 C1641 1.390 . S
C1647 C1644 1.386 . S
C1648 C1643 1.490 . S
C1648 C1650 1.395 . S
C1648 C1651 1.403 . S
H1649 C1655 0.930 . S
C1650 H1636 0.930 . S
C1650 C1648 1.395 . S
C1650 C1653 1.403 . S
C1651 C1648 1.403 . S
C1651 C1652 1.524 . S
C1651 C1655 1.400 . S
C1652 H1637 0.960 . S
C1652 H1638 0.960 . S
C1652 H1639 0.960 . S
C1652 C1651 1.524 . S
C1653 C1650 1.403 . S
C1653 C1654 1.392 . S
C1653 C1657 1.495 . S
C1654 C1653 1.392 . S
C1654 C1655 1.385 . S
C1654 C1656 1.478 . S
C1655 H1649 0.930 . S
C1655 C1651 1.400 . S
C1655 C1654 1.385 . S
C1656 C1654 1.478 . S
C1656 C1658 1.381 . S
C1656 C1662 1.383 . S
C1657 C1653 1.495 . S
C1657 H1663 0.959 . S
C1657 H1664 0.961 . S
C1657 H1665 0.960 . S
C1658 C1656 1.381 . S
C1658 C1659 1.394 . S
C1658 H1666 0.930 . S
C1659 C1658 1.394 . S
C1659 C1660 1.383 . S
C1659 H1667 0.929 . S
C1660 C1659 1.383 . S
C1660 C1661 1.377 . S
C1661 H1645 0.930 . S
C1661 C1660 1.377 . S
C1661 C1662 1.379 . S
C1662 H1646 0.931 . S
C1662 C1656 1.383 . S
C1662 C1661 1.379 . S
H1663 C1657 0.959 . S
H1664 C1657 0.961 . S
H1665 C1657 0.960 . S
H1666 C1658 0.930 . S
H1667 C1659 0.929 . S
H1668 C1676 0.929 . S
H1669 C1678 0.930 . S
H1670 C1680 0.930 . S
H1671 C1683 0.929 . S
H1672 C1686 0.930 . S
H1673 C1688 0.960 . S
H1674 C1688 0.960 . S
H1675 C1688 0.960 . S
C1676 H1668 0.929 . S
C1676 C1677 1.377 . S
C1676 C1678 1.384 . S
C1677 C1676 1.377 . S
C1677 C1683 1.390 . S
C1678 H1669 0.930 . S
C1678 C1676 1.384 . S
C1678 C1679 1.372 . S
C1679 C1678 1.372 . S
C1679 C1680 1.400 . S
C1679 C1684 1.490 . S
C1680 H1670 0.930 . S
C1680 C1679 1.400 . S
C1680 C1683 1.386 . S
H1681 C1697 0.930 . S
H1682 C1698 0.931 . S
C1683 H1671 0.929 . S
C1683 C1677 1.390 . S
C1683 C1680 1.386 . S
C1684 C1679 1.490 . S
C1684 C1686 1.395 . S
C1684 C1687 1.403 . S
H1685 C1691 0.930 . S
C1686 H1672 0.930 . S
C1686 C1684 1.395 . S
C1686 C1689 1.403 . S
C1687 C1684 1.403 . S
C1687 C1688 1.524 . S
C1687 C1691 1.400 . S
C1688 H1673 0.960 . S
C1688 H1674 0.960 . S
C1688 H1675 0.960 . S
C1688 C1687 1.524 . S
C1689 C1686 1.403 . S
C1689 C1690 1.392 . S
C1689 C1693 1.495 . S
C1690 C1689 1.392 . S
C1690 C1691 1.385 . S
C1690 C1692 1.478 . S
C1691 H1685 0.930 . S
C1691 C1687 1.400 . S
C1691 C1690 1.385 . S
C1692 C1690 1.478 . S
C1692 C1694 1.381 . S
C1692 C1698 1.383 . S
C1693 C1689 1.495 . S
C1693 H1699 0.959 . S
C1693 H1700 0.961 . S
C1693 H1701 0.960 . S
C1694 C1692 1.381 . S
C1694 C1695 1.394 . S
C1694 H1702 0.930 . S
C1695 C1694 1.394 . S
C1695 C1696 1.383 . S
C1695 H1703 0.929 . S
C1696 C1695 1.383 . S
C1696 C1697 1.377 . S
C1697 H1681 0.930 . S
C1697 C1696 1.377 . S
C1697 C1698 1.379 . S
C1698 H1682 0.931 . S
C1698 C1692 1.383 . S
C1698 C1697 1.379 . S
H1699 C1693 0.959 . S
H1700 C1693 0.961 . S
H1701 C1693 0.960 . S
H1702 C1694 0.930 . S
H1703 C1695 0.929 . S
H1704 C1712 0.929 . S
H1705 C1714 0.930 . S
H1706 C1716 0.930 . S
H1707 C1719 0.929 . S
H1708 C1722 0.930 . S
H1709 C1724 0.960 . S
H1710 C1724 0.960 . S
H1711 C1724 0.960 . S
C1712 H1704 0.929 . S
C1712 C1713 1.377 . S
C1712 C1714 1.384 . S
C1713 C1712 1.377 . S
C1713 C1719 1.390 . S
C1714 H1705 0.930 . S
C1714 C1712 1.384 . S
C1714 C1715 1.372 . S
C1715 C1714 1.372 . S
C1715 C1716 1.400 . S
C1715 C1720 1.490 . S
C1716 H1706 0.930 . S
C1716 C1715 1.400 . S
C1716 C1719 1.386 . S
H1717 C1733 0.930 . S
H1718 C1734 0.931 . S
C1719 H1707 0.929 . S
C1719 C1713 1.390 . S
C1719 C1716 1.386 . S
C1720 C1715 1.490 . S
C1720 C1722 1.395 . S
C1720 C1723 1.403 . S
H1721 C1727 0.930 . S
C1722 H1708 0.930 . S
C1722 C1720 1.395 . S
C1722 C1725 1.403 . S
C1723 C1720 1.403 . S
C1723 C1724 1.524 . S
C1723 C1727 1.400 . S
C1724 H1709 0.960 . S
C1724 H1710 0.960 . S
C1724 H1711 0.960 . S
C1724 C1723 1.524 . S
C1725 C1722 1.403 . S
C1725 C1726 1.392 . S
C1725 C1729 1.495 . S
C1726 C1725 1.392 . S
C1726 C1727 1.385 . S
C1726 C1728 1.478 . S
C1727 H1721 0.930 . S
C1727 C1723 1.400 . S
C1727 C1726 1.385 . S
C1728 C1726 1.478 . S
C1728 C1730 1.381 . S
C1728 C1734 1.383 . S
C1729 C1725 1.495 . S
C1729 H1735 0.959 . S
C1729 H1736 0.961 . S
C1729 H1737 0.960 . S
C1730 C1728 1.381 . S
C1730 C1731 1.394 . S
C1730 H1738 0.930 . S
C1731 C1730 1.394 . S
C1731 C1732 1.383 . S
C1731 H1739 0.929 . S
C1732 C1731 1.383 . S
C1732 C1733 1.377 . S
C1733 H1717 0.930 . S
C1733 C1732 1.377 . S
C1733 C1734 1.379 . S
C1734 H1718 0.931 . S
C1734 C1728 1.383 . S
C1734 C1733 1.379 . S
H1735 C1729 0.959 . S
H1736 C1729 0.961 . S
H1737 C1729 0.960 . S
H1738 C1730 0.930 . S
H1739 C1731 0.929 . S
H1740 C1748 0.929 . S
H1741 C1750 0.930 . S
H1742 C1752 0.930 . S
H1743 C1755 0.929 . S
H1744 C1758 0.930 . S
H1745 C1760 0.960 . S
H1746 C1760 0.960 . S
H1747 C1760 0.960 . S
C1748 H1740 0.929 . S
C1748 C1749 1.377 . S
C1748 C1750 1.384 . S
C1749 C1748 1.377 . S
C1749 C1755 1.390 . S
C1750 H1741 0.930 . S
C1750 C1748 1.384 . S
C1750 C1751 1.372 . S
C1751 C1750 1.372 . S
C1751 C1752 1.400 . S
C1751 C1756 1.490 1_565 S
C1752 H1742 0.930 . S
C1752 C1751 1.400 . S
C1752 C1755 1.386 . S
H1753 C1769 0.930 . S
H1754 C1770 0.931 . S
C1755 H1743 0.929 . S
C1755 C1749 1.390 . S
C1755 C1752 1.386 . S
C1756 C1751 1.490 1_545 S
C1756 C1758 1.395 . S
C1756 C1759 1.403 . S
H1757 C1763 0.930 . S
C1758 H1744 0.930 . S
C1758 C1756 1.395 . S
C1758 C1761 1.403 . S
C1759 C1756 1.403 . S
C1759 C1760 1.524 . S
C1759 C1763 1.400 . S
C1760 H1745 0.960 . S
C1760 H1746 0.960 . S
C1760 H1747 0.960 . S
C1760 C1759 1.524 . S
C1761 C1758 1.403 . S
C1761 C1762 1.392 . S
C1761 C1765 1.495 . S
C1762 C1761 1.392 . S
C1762 C1763 1.385 . S
C1762 C1764 1.478 . S
C1763 H1757 0.930 . S
C1763 C1759 1.400 . S
C1763 C1762 1.385 . S
C1764 C1762 1.478 . S
C1764 C1766 1.381 . S
C1764 C1770 1.383 . S
C1765 C1761 1.495 . S
C1765 H1771 0.959 . S
C1765 H1772 0.961 . S
C1765 H1773 0.960 . S
C1766 C1764 1.381 . S
C1766 C1767 1.394 . S
C1766 H1774 0.930 . S
C1767 C1766 1.394 . S
C1767 C1768 1.383 . S
C1767 H1775 0.929 . S
C1768 C1767 1.383 . S
C1768 C1769 1.377 . S
C1769 H1753 0.930 . S
C1769 C1768 1.377 . S
C1769 C1770 1.379 . S
C1770 H1754 0.931 . S
C1770 C1764 1.383 . S
C1770 C1769 1.379 . S
H1771 C1765 0.959 . S
H1772 C1765 0.961 . S
H1773 C1765 0.960 . S
H1774 C1766 0.930 . S
H1775 C1767 0.929 . S
H1776 C1784 0.929 . S
H1777 C1786 0.930 . S
H1778 C1788 0.930 . S
H1779 C1791 0.929 . S
H1780 C1794 0.930 . S
H1781 C1796 0.960 . S
H1782 C1796 0.960 . S
H1783 C1796 0.960 . S
C1784 H1776 0.929 . S
C1784 C1785 1.377 . S
C1784 C1786 1.384 . S
C1785 C1784 1.377 . S
C1785 C1791 1.390 . S
C1786 H1777 0.930 . S
C1786 C1784 1.384 . S
C1786 C1787 1.372 . S
C1787 C1786 1.372 . S
C1787 C1788 1.400 . S
C1787 C1792 1.490 1_545 S
C1788 H1778 0.930 . S
C1788 C1787 1.400 . S
C1788 C1791 1.386 . S
H1789 C1805 0.930 . S
H1790 C1806 0.931 . S
C1791 H1779 0.929 . S
C1791 C1785 1.390 . S
C1791 C1788 1.386 . S
C1792 C1787 1.490 1_565 S
C1792 C1794 1.395 . S
C1792 C1795 1.403 . S
H1793 C1799 0.930 . S
C1794 H1780 0.930 . S
C1794 C1792 1.395 . S
C1794 C1797 1.403 . S
C1795 C1792 1.403 . S
C1795 C1796 1.524 . S
C1795 C1799 1.400 . S
C1796 H1781 0.960 . S
C1796 H1782 0.960 . S
C1796 H1783 0.960 . S
C1796 C1795 1.524 . S
C1797 C1794 1.403 . S
C1797 C1798 1.392 . S
C1797 C1801 1.495 . S
C1798 C1797 1.392 . S
C1798 C1799 1.385 . S
C1798 C1800 1.478 . S
C1799 H1793 0.930 . S
C1799 C1795 1.400 . S
C1799 C1798 1.385 . S
C1800 C1798 1.478 . S
C1800 C1802 1.381 . S
C1800 C1806 1.383 . S
C1801 C1797 1.495 . S
C1801 H1807 0.959 . S
C1801 H1808 0.961 . S
C1801 H1809 0.960 . S
C1802 C1800 1.381 . S
C1802 C1803 1.394 . S
C1802 H1810 0.930 . S
C1803 C1802 1.394 . S
C1803 C1804 1.383 . S
C1803 H1811 0.929 . S
C1804 C1803 1.383 . S
C1804 C1805 1.377 . S
C1805 H1789 0.930 . S
C1805 C1804 1.377 . S
C1805 C1806 1.379 . S
C1806 H1790 0.931 . S
C1806 C1800 1.383 . S
C1806 C1805 1.379 . S
H1807 C1801 0.959 . S
H1808 C1801 0.961 . S
H1809 C1801 0.960 . S
H1810 C1802 0.930 . S
H1811 C1803 0.929 . S
H1812 C1820 0.929 . S
H1813 C1822 0.930 . S
H1814 C1824 0.930 . S
H1815 C1827 0.929 . S
H1816 C1830 0.930 . S
H1817 C1832 0.960 . S
H1818 C1832 0.960 . S
H1819 C1832 0.960 . S
C1820 H1812 0.929 . S
C1820 C1821 1.377 . S
C1820 C1822 1.384 . S
C1821 C1820 1.377 . S
C1821 C1827 1.390 . S
C1822 H1813 0.930 . S
C1822 C1820 1.384 . S
C1822 C1823 1.372 . S
C1823 C1822 1.372 . S
C1823 C1824 1.400 . S
C1823 C1828 1.490 . S
C1824 H1814 0.930 . S
C1824 C1823 1.400 . S
C1824 C1827 1.386 . S
H1825 C1841 0.930 . S
H1826 C1842 0.931 . S
C1827 H1815 0.929 . S
C1827 C1821 1.390 . S
C1827 C1824 1.386 . S
C1828 C1823 1.490 . S
C1828 C1830 1.395 . S
C1828 C1831 1.403 . S
H1829 C1835 0.930 . S
C1830 H1816 0.930 . S
C1830 C1828 1.395 . S
C1830 C1833 1.403 . S
C1831 C1828 1.403 . S
C1831 C1832 1.524 . S
C1831 C1835 1.400 . S
C1832 H1817 0.960 . S
C1832 H1818 0.960 . S
C1832 H1819 0.960 . S
C1832 C1831 1.524 . S
C1833 C1830 1.403 . S
C1833 C1834 1.392 . S
C1833 C1837 1.495 . S
C1834 C1833 1.392 . S
C1834 C1835 1.385 . S
C1834 C1836 1.478 . S
C1835 H1829 0.930 . S
C1835 C1831 1.400 . S
C1835 C1834 1.385 . S
C1836 C1834 1.478 . S
C1836 C1838 1.381 . S
C1836 C1842 1.383 . S
C1837 C1833 1.495 . S
C1837 H1843 0.959 . S
C1837 H1844 0.961 . S
C1837 H1845 0.960 . S
C1838 C1836 1.381 . S
C1838 C1839 1.394 . S
C1838 H1846 0.930 . S
C1839 C1838 1.394 . S
C1839 C1840 1.383 . S
C1839 H1847 0.929 . S
C1840 C1839 1.383 . S
C1840 C1841 1.377 . S
C1841 H1825 0.930 . S
C1841 C1840 1.377 . S
C1841 C1842 1.379 . S
C1842 H1826 0.931 . S
C1842 C1836 1.383 . S
C1842 C1841 1.379 . S
H1843 C1837 0.959 . S
H1844 C1837 0.961 . S
H1845 C1837 0.960 . S
H1846 C1838 0.930 . S
H1847 C1839 0.929 . S
H1848 C1856 0.929 . S
H1849 C1858 0.930 . S
H1850 C1860 0.930 . S
H1851 C1863 0.929 . S
H1852 C1866 0.930 . S
H1853 C1868 0.960 . S
H1854 C1868 0.960 . S
H1855 C1868 0.960 . S
C1856 H1848 0.929 . S
C1856 C1857 1.377 . S
C1856 C1858 1.384 . S
C1857 C1856 1.377 . S
C1857 C1863 1.390 . S
C1858 H1849 0.930 . S
C1858 C1856 1.384 . S
C1858 C1859 1.372 . S
C1859 C1858 1.372 . S
C1859 C1860 1.400 . S
C1859 C1864 1.490 . S
C1860 H1850 0.930 . S
C1860 C1859 1.400 . S
C1860 C1863 1.386 . S
H1861 C1877 0.930 . S
H1862 C1878 0.931 . S
C1863 H1851 0.929 . S
C1863 C1857 1.390 . S
C1863 C1860 1.386 . S
C1864 C1859 1.490 . S
C1864 C1866 1.395 . S
C1864 C1867 1.403 . S
H1865 C1871 0.930 . S
C1866 H1852 0.930 . S
C1866 C1864 1.395 . S
C1866 C1869 1.403 . S
C1867 C1864 1.403 . S
C1867 C1868 1.524 . S
C1867 C1871 1.400 . S
C1868 H1853 0.960 . S
C1868 H1854 0.960 . S
C1868 H1855 0.960 . S
C1868 C1867 1.524 . S
C1869 C1866 1.403 . S
C1869 C1870 1.392 . S
C1869 C1873 1.495 . S
C1870 C1869 1.392 . S
C1870 C1871 1.385 . S
C1870 C1872 1.478 . S
C1871 H1865 0.930 . S
C1871 C1867 1.400 . S
C1871 C1870 1.385 . S
C1872 C1870 1.478 . S
C1872 C1874 1.381 . S
C1872 C1878 1.383 . S
C1873 C1869 1.495 . S
C1873 H1879 0.959 . S
C1873 H1880 0.961 . S
C1873 H1881 0.960 . S
C1874 C1872 1.381 . S
C1874 C1875 1.394 . S
C1874 H1882 0.930 . S
C1875 C1874 1.394 . S
C1875 C1876 1.383 . S
C1875 H1883 0.929 . S
C1876 C1875 1.383 . S
C1876 C1877 1.377 . S
C1877 H1861 0.930 . S
C1877 C1876 1.377 . S
C1877 C1878 1.379 . S
C1878 H1862 0.931 . S
C1878 C1872 1.383 . S
C1878 C1877 1.379 . S
H1879 C1873 0.959 . S
H1880 C1873 0.961 . S
H1881 C1873 0.960 . S
H1882 C1874 0.930 . S
H1883 C1875 0.929 . S
H1884 C1892 0.929 . S
H1885 C1894 0.930 . S
H1886 C1896 0.930 . S
H1887 C1899 0.929 . S
H1888 C1902 0.930 . S
H1889 C1904 0.960 . S
H1890 C1904 0.934 1_556 S
H1891 C1904 0.960 . S
C1892 H1884 0.929 . S
C1892 C1893 1.377 . S
C1892 C1894 1.384 . S
C1893 C1892 1.377 . S
C1893 C1899 1.390 . S
C1894 H1885 0.930 . S
C1894 C1892 1.384 . S
C1894 C1895 1.372 . S
C1895 C1894 1.372 . S
C1895 C1896 1.400 . S
C1895 C1900 1.490 1_556 S
C1896 H1886 0.930 . S
C1896 C1895 1.400 . S
C1896 C1899 1.386 . S
H1897 C1913 0.930 . S
H1898 C1914 0.931 . S
C1899 H1887 0.929 . S
C1899 C1893 1.390 . S
C1899 C1896 1.386 . S
C1900 C1895 1.490 1_554 S
C1900 C1902 1.395 . S
C1900 C1903 1.403 . S
H1901 C1907 0.930 . S
C1902 H1888 0.930 . S
C1902 C1900 1.395 . S
C1902 C1905 1.403 . S
C1903 C1900 1.403 . S
C1903 C1904 1.524 . S
C1903 C1907 1.400 . S
C1904 H1889 0.960 . S
C1904 H1890 0.934 1_554 S
C1904 H1891 0.960 . S
C1904 C1903 1.524 . S
C1905 C1902 1.403 . S
C1905 C1906 1.392 . S
C1905 C1909 1.495 . S
C1906 C1905 1.392 . S
C1906 C1907 1.385 . S
C1906 C1908 1.478 . S
C1907 H1901 0.930 . S
C1907 C1903 1.400 . S
C1907 C1906 1.385 . S
C1908 C1906 1.478 . S
C1908 C1910 1.381 . S
C1908 C1914 1.383 . S
C1909 C1905 1.495 . S
C1909 H1915 0.959 . S
C1909 H1916 0.961 . S
C1909 H1917 0.960 . S
C1910 C1908 1.381 . S
C1910 C1911 1.394 . S
C1910 H1918 0.930 . S
C1911 C1910 1.394 . S
C1911 C1912 1.383 . S
C1911 H1919 0.929 . S
C1912 C1911 1.383 . S
C1912 C1913 1.377 . S
C1913 H1897 0.930 . S
C1913 C1912 1.377 . S
C1913 C1914 1.379 . S
C1914 H1898 0.931 . S
C1914 C1908 1.383 . S
C1914 C1913 1.379 . S
H1915 C1909 0.959 . S
H1916 C1909 0.961 . S
H1917 C1909 0.960 . S
H1918 C1910 0.930 . S
H1919 C1911 0.929 . S
H1920 C1928 0.929 . S
H1921 C1930 0.930 . S
H1922 C1932 0.930 . S
H1923 C1935 0.929 . S
H1924 C1938 0.930 . S
H1925 C1940 0.960 . S
H1926 C1940 0.960 . S
H1927 C1940 0.960 . S
C1928 H1920 0.929 . S
C1928 C1929 1.377 . S
C1928 C1930 1.384 . S
C1929 C1928 1.377 . S
C1929 C1935 1.390 . S
C1930 H1921 0.930 . S
C1930 C1928 1.384 . S
C1930 C1931 1.372 . S
C1931 C1930 1.372 . S
C1931 C1932 1.400 . S
C1931 C1936 1.490 . S
C1932 H1922 0.930 . S
C1932 C1931 1.400 . S
C1932 C1935 1.386 . S
H1933 C1949 0.930 . S
H1934 C1950 0.931 . S
C1935 H1923 0.929 . S
C1935 C1929 1.390 . S
C1935 C1932 1.386 . S
C1936 C1931 1.490 . S
C1936 C1938 1.395 . S
C1936 C1939 1.403 . S
H1937 C1943 0.930 . S
C1938 H1924 0.930 . S
C1938 C1936 1.395 . S
C1938 C1941 1.403 . S
C1939 C1936 1.403 . S
C1939 C1940 1.524 . S
C1939 C1943 1.400 . S
C1940 H1925 0.960 . S
C1940 H1926 0.960 . S
C1940 H1927 0.960 . S
C1940 C1939 1.524 . S
C1941 C1938 1.403 . S
C1941 C1942 1.392 . S
C1941 C1945 1.495 . S
C1942 C1941 1.392 . S
C1942 C1943 1.385 . S
C1942 C1944 1.478 . S
C1943 H1937 0.930 . S
C1943 C1939 1.400 . S
C1943 C1942 1.385 . S
C1944 C1942 1.478 . S
C1944 C1946 1.381 . S
C1944 C1950 1.383 . S
C1945 C1941 1.495 . S
C1945 H1951 0.959 . S
C1945 H1952 0.961 . S
C1945 H1953 0.960 . S
C1946 C1944 1.381 . S
C1946 C1947 1.394 . S
C1946 H1954 0.930 . S
C1947 C1946 1.394 . S
C1947 C1948 1.383 . S
C1947 H1955 0.929 . S
C1948 C1947 1.383 . S
C1948 C1949 1.377 . S
C1949 H1933 0.930 . S
C1949 C1948 1.377 . S
C1949 C1950 1.379 . S
C1950 H1934 0.931 . S
C1950 C1944 1.383 . S
C1950 C1949 1.379 . S
H1951 C1945 0.959 . S
H1952 C1945 0.961 . S
H1953 C1945 0.960 . S
H1954 C1946 0.930 . S
H1955 C1947 0.929 . S
H1956 C1964 0.929 . S
H1957 C1966 0.930 . S
H1958 C1968 0.930 . S
H1959 C1971 0.929 . S
H1960 C1974 0.930 . S
H1961 C1976 0.960 . S
H1962 C1976 0.960 . S
H1963 C1976 0.960 . S
C1964 H1956 0.929 . S
C1964 C1965 1.377 . S
C1964 C1966 1.384 . S
C1965 C1964 1.377 . S
C1965 C1971 1.390 . S
C1966 H1957 0.930 . S
C1966 C1964 1.384 . S
C1966 C1967 1.372 . S
C1967 C1966 1.372 . S
C1967 C1968 1.400 . S
C1967 C1972 1.490 1_554 S
C1968 H1958 0.930 . S
C1968 C1967 1.400 . S
C1968 C1971 1.386 . S
H1969 C1985 0.930 . S
H1970 C1986 0.931 . S
C1971 H1959 0.929 . S
C1971 C1965 1.390 . S
C1971 C1968 1.386 . S
C1972 C1967 1.490 1_556 S
C1972 C1974 1.395 . S
C1972 C1975 1.403 . S
H1973 C1979 0.930 . S
C1974 H1960 0.930 . S
C1974 C1972 1.395 . S
C1974 C1977 1.403 . S
C1975 C1972 1.403 . S
C1975 C1976 1.524 . S
C1975 C1979 1.400 . S
C1976 H1961 0.960 . S
C1976 H1962 0.960 . S
C1976 H1963 0.960 . S
C1976 C1975 1.524 . S
C1977 C1974 1.403 . S
C1977 C1978 1.392 . S
C1977 C1981 1.495 . S
C1978 C1977 1.392 . S
C1978 C1979 1.385 . S
C1978 C1980 1.478 . S
C1979 H1973 0.930 . S
C1979 C1975 1.400 . S
C1979 C1978 1.385 . S
C1980 C1978 1.478 . S
C1980 C1982 1.381 . S
C1980 C1986 1.383 . S
C1981 C1977 1.495 . S
C1981 H1987 0.959 . S
C1981 H1988 0.961 . S
C1981 H1989 0.960 . S
C1982 C1980 1.381 . S
C1982 C1983 1.394 . S
C1982 H1990 0.930 . S
C1983 C1982 1.394 . S
C1983 C1984 1.383 . S
C1983 H1991 0.929 . S
C1984 C1983 1.383 . S
C1984 C1985 1.377 . S
C1985 H1969 0.930 . S
C1985 C1984 1.377 . S
C1985 C1986 1.379 . S
C1986 H1970 0.931 . S
C1986 C1980 1.383 . S
C1986 C1985 1.379 . S
H1987 C1981 0.959 . S
H1988 C1981 0.961 . S
H1989 C1981 0.960 . S
H1990 C1982 0.930 . S
H1991 C1983 0.929 . S
H1992 C2000 0.929 . S
H1993 C2002 0.930 . S
H1994 C2004 0.930 . S
H1995 C2007 0.929 . S
H1996 C2010 0.930 . S
H1997 C2012 0.960 . S
H1998 C2012 0.960 . S
H1999 C2012 0.960 . S
C2000 H1992 0.929 . S
C2000 C2001 1.377 . S
C2000 C2002 1.384 . S
C2001 C2000 1.377 . S
C2001 C2007 1.390 . S
C2002 H1993 0.930 . S
C2002 C2000 1.384 . S
C2002 C2003 1.372 . S
C2003 C2002 1.372 . S
C2003 C2004 1.400 . S
C2003 C2008 1.490 . S
C2004 H1994 0.930 . S
C2004 C2003 1.400 . S
C2004 C2007 1.386 . S
H2005 C2021 0.930 . S
H2006 C2022 0.931 . S
C2007 H1995 0.929 . S
C2007 C2001 1.390 . S
C2007 C2004 1.386 . S
C2008 C2003 1.490 . S
C2008 C2010 1.395 . S
C2008 C2011 1.403 . S
H2009 C2015 0.930 . S
C2010 H1996 0.930 . S
C2010 C2008 1.395 . S
C2010 C2013 1.403 . S
C2011 C2008 1.403 . S
C2011 C2012 1.524 . S
C2011 C2015 1.400 . S
C2012 H1997 0.960 . S
C2012 H1998 0.960 . S
C2012 H1999 0.960 . S
C2012 C2011 1.524 . S
C2013 C2010 1.403 . S
C2013 C2014 1.392 . S
C2013 C2017 1.495 . S
C2014 C2013 1.392 . S
C2014 C2015 1.385 . S
C2014 C2016 1.478 . S
C2015 H2009 0.930 . S
C2015 C2011 1.400 . S
C2015 C2014 1.385 . S
C2016 C2014 1.478 . S
C2016 C2018 1.381 . S
C2016 C2022 1.383 . S
C2017 C2013 1.495 . S
C2017 H2023 0.959 . S
C2017 H2024 0.961 . S
C2017 H2025 0.960 . S
C2018 C2016 1.381 . S
C2018 C2019 1.394 . S
C2018 H2026 0.930 . S
C2019 C2018 1.394 . S
C2019 C2020 1.383 . S
C2019 H2027 0.929 . S
C2020 C2019 1.383 . S
C2020 C2021 1.377 . S
C2021 H2005 0.930 . S
C2021 C2020 1.377 . S
C2021 C2022 1.379 . S
C2022 H2006 0.931 . S
C2022 C2016 1.383 . S
C2022 C2021 1.379 . S
H2023 C2017 0.959 . S
H2024 C2017 0.961 . S
H2025 C2017 0.960 . S
H2026 C2018 0.930 . S
H2027 C2019 0.929 . S
H2028 C2036 0.929 . S
H2029 C2038 0.930 . S
H2030 C2040 0.930 . S
H2031 C2043 0.929 . S
H2032 C2046 0.930 . S
H2033 C2048 0.960 . S
H2034 C2048 0.960 . S
H2035 C2048 0.960 . S
C2036 H2028 0.929 . S
C2036 C2037 1.377 . S
C2036 C2038 1.384 . S
C2037 C2036 1.377 . S
C2037 C2043 1.390 . S
C2038 H2029 0.930 . S
C2038 C2036 1.384 . S
C2038 C2039 1.372 . S
C2039 C2038 1.372 . S
C2039 C2040 1.400 . S
C2039 C2044 1.490 . S
C2040 H2030 0.930 . S
C2040 C2039 1.400 . S
C2040 C2043 1.386 . S
H2041 C2057 0.930 . S
H2042 C2058 0.931 . S
C2043 H2031 0.929 . S
C2043 C2037 1.390 . S
C2043 C2040 1.386 . S
C2044 C2039 1.490 . S
C2044 C2046 1.395 . S
C2044 C2047 1.403 . S
H2045 C2051 0.930 . S
C2046 H2032 0.930 . S
C2046 C2044 1.395 . S
C2046 C2049 1.403 . S
C2047 C2044 1.403 . S
C2047 C2048 1.524 . S
C2047 C2051 1.400 . S
C2048 H2033 0.960 . S
C2048 H2034 0.960 . S
C2048 H2035 0.960 . S
C2048 C2047 1.524 . S
C2049 C2046 1.403 . S
C2049 C2050 1.392 . S
C2049 C2053 1.495 1_655 S
C2050 C2049 1.392 . S
C2050 C2051 1.385 . S
C2050 C2052 1.478 1_655 S
C2051 H2045 0.930 . S
C2051 C2047 1.400 . S
C2051 C2050 1.385 . S
C2052 C2050 1.478 1_455 S
C2052 C2054 1.381 . S
C2052 C2058 1.383 . S
C2053 C2049 1.495 1_455 S
C2053 H2059 0.959 1_455 S
C2053 H2060 0.961 . S
C2053 H2061 0.960 . S
C2054 C2052 1.381 . S
C2054 C2055 1.394 . S
C2054 H2062 0.930 . S
C2055 C2054 1.394 . S
C2055 C2056 1.383 . S
C2055 H2063 0.929 . S
C2056 C2055 1.383 . S
C2056 C2057 1.377 . S
C2057 H2041 0.930 . S
C2057 C2056 1.377 . S
C2057 C2058 1.379 . S
C2058 H2042 0.931 . S
C2058 C2052 1.383 . S
C2058 C2057 1.379 . S
H2059 C2053 0.959 1_655 S
H2060 C2053 0.961 . S
H2061 C2053 0.960 . S
H2062 C2054 0.930 . S
H2063 C2055 0.929 . S
H2064 C2072 0.929 . S
H2065 C2074 0.930 . S
H2066 C2076 0.930 . S
H2067 C2079 0.929 . S
H2068 C2082 0.930 . S
H2069 C2084 0.960 . S
H2070 C2084 0.960 . S
H2071 C2084 0.960 . S
C2072 H2064 0.929 . S
C2072 C2073 1.377 . S
C2072 C2074 1.384 . S
C2073 C2072 1.377 . S
C2073 C2079 1.390 . S
C2074 H2065 0.930 . S
C2074 C2072 1.384 . S
C2074 C2075 1.372 . S
C2075 C2074 1.372 . S
C2075 C2076 1.400 . S
C2075 C2080 1.490 . S
C2076 H2066 0.930 . S
C2076 C2075 1.400 . S
C2076 C2079 1.386 . S
H2077 C2093 0.930 . S
H2078 C2094 0.931 . S
C2079 H2067 0.929 . S
C2079 C2073 1.390 . S
C2079 C2076 1.386 . S
C2080 C2075 1.490 . S
C2080 C2082 1.395 . S
C2080 C2083 1.403 . S
H2081 C2087 0.935 . S
C2082 H2068 0.930 . S
C2082 C2080 1.395 . S
C2082 C2085 1.403 . S
C2083 C2080 1.403 . S
C2083 C2084 1.524 . S
C2083 C2087 1.400 . S
C2084 H2069 0.960 . S
C2084 H2070 0.960 . S
C2084 H2071 0.960 . S
C2084 C2083 1.524 . S
C2085 C2082 1.403 . S
C2085 C2086 1.392 . S
C2085 C2089 1.495 . S
C2086 C2085 1.392 . S
C2086 C2087 1.385 . S
C2086 C2088 1.478 1_455 S
C2087 H2081 0.935 . S
C2087 C2083 1.400 . S
C2087 C2086 1.385 . S
C2088 C2086 1.478 1_655 S
C2088 C2090 1.381 . S
C2088 C2094 1.383 . S
C2089 C2085 1.495 . S
C2089 H2095 0.959 . S
C2089 H2096 0.961 . S
C2089 H2097 0.960 . S
C2090 C2088 1.381 . S
C2090 C2091 1.394 . S
C2090 H2098 0.930 . S
C2091 C2090 1.394 . S
C2091 C2092 1.383 . S
C2091 H2099 0.929 . S
C2092 C2091 1.383 . S
C2092 C2093 1.377 . S
C2093 H2077 0.930 . S
C2093 C2092 1.377 . S
C2093 C2094 1.379 . S
C2094 H2078 0.931 . S
C2094 C2088 1.383 . S
C2094 C2093 1.379 . S
H2095 C2089 0.959 . S
H2096 C2089 0.961 . S
H2097 C2089 0.960 . S
H2098 C2090 0.930 . S
H2099 C2091 0.929 . S
H2100 C2108 0.929 . S
H2101 C2110 0.930 . S
H2102 C2112 0.930 . S
H2103 C2115 0.929 . S
H2104 C2118 0.930 . S
H2105 C2120 0.960 . S
H2106 C2120 0.960 . S
H2107 C2120 0.960 . S
C2108 H2100 0.929 . S
C2108 C2109 1.377 . S
C2108 C2110 1.384 . S
C2109 C2108 1.377 . S
C2109 C2115 1.390 . S
C2110 H2101 0.930 . S
C2110 C2108 1.384 . S
C2110 C2111 1.372 . S
C2111 C2110 1.372 . S
C2111 C2112 1.400 . S
C2111 C2116 1.490 . S
C2112 H2102 0.930 . S
C2112 C2111 1.400 . S
C2112 C2115 1.386 . S
H2113 C2129 0.930 . S
H2114 C2130 0.931 . S
C2115 H2103 0.929 . S
C2115 C2109 1.390 . S
C2115 C2112 1.386 . S
C2116 C2111 1.490 . S
C2116 C2118 1.395 . S
C2116 C2119 1.403 . S
H2117 C2123 0.930 . S
C2118 H2104 0.930 . S
C2118 C2116 1.395 . S
C2118 C2121 1.403 . S
C2119 C2116 1.403 . S
C2119 C2120 1.524 . S
C2119 C2123 1.400 . S
C2120 H2105 0.960 . S
C2120 H2106 0.960 . S
C2120 H2107 0.960 . S
C2120 C2119 1.524 . S
C2121 C2118 1.403 . S
C2121 C2122 1.392 . S
C2121 C2125 1.495 . S
C2122 C2121 1.392 . S
C2122 C2123 1.385 . S
C2122 C2124 1.478 . S
C2123 H2117 0.930 . S
C2123 C2119 1.400 . S
C2123 C2122 1.385 . S
C2124 C2122 1.478 . S
C2124 C2126 1.381 . S
C2124 C2130 1.383 . S
C2125 C2121 1.495 . S
C2125 H2131 0.959 . S
C2125 H2132 0.961 . S
C2125 H2133 0.960 . S
C2126 C2124 1.381 . S
C2126 C2127 1.394 . S
C2126 H2134 0.930 . S
C2127 C2126 1.394 . S
C2127 C2128 1.383 . S
C2127 H2135 0.929 . S
C2128 C2127 1.383 . S
C2128 C2129 1.377 . S
C2129 H2113 0.930 . S
C2129 C2128 1.377 . S
C2129 C2130 1.379 . S
C2130 H2114 0.931 . S
C2130 C2124 1.383 . S
C2130 C2129 1.379 . S
H2131 C2125 0.959 . S
H2132 C2125 0.961 . S
H2133 C2125 0.960 . S
H2134 C2126 0.930 . S
H2135 C2127 0.929 . S
H2136 C2144 0.929 . S
H2137 C2146 0.930 . S
H2138 C2148 0.930 . S
H2139 C2151 0.929 . S
H2140 C2154 0.930 . S
H2141 C2156 0.960 . S
H2142 C2156 0.960 . S
H2143 C2156 0.960 . S
C2144 H2136 0.929 . S
C2144 C2145 1.377 . S
C2144 C2146 1.384 . S
C2145 C2144 1.377 . S
C2145 C2151 1.390 . S
C2146 H2137 0.930 . S
C2146 C2144 1.384 . S
C2146 C2147 1.372 . S
C2147 C2146 1.372 . S
C2147 C2148 1.400 . S
C2147 C2152 1.490 . S
C2148 H2138 0.930 . S
C2148 C2147 1.400 . S
C2148 C2151 1.386 . S
H2149 C2165 0.930 . S
H2150 C2166 0.931 . S
C2151 H2139 0.929 . S
C2151 C2145 1.390 . S
C2151 C2148 1.386 . S
C2152 C2147 1.490 . S
C2152 C2154 1.395 . S
C2152 C2155 1.403 . S
H2153 C2159 0.930 . S
C2154 H2140 0.930 . S
C2154 C2152 1.395 . S
C2154 C2157 1.403 . S
C2155 C2152 1.403 . S
C2155 C2156 1.524 . S
C2155 C2159 1.400 . S
C2156 H2141 0.960 . S
C2156 H2142 0.960 . S
C2156 H2143 0.960 . S
C2156 C2155 1.524 . S
C2157 C2154 1.403 . S
C2157 C2158 1.392 . S
C2157 C2161 1.495 . S
C2158 C2157 1.392 . S
C2158 C2159 1.385 . S
C2158 C2160 1.478 . S
C2159 H2153 0.930 . S
C2159 C2155 1.400 . S
C2159 C2158 1.385 . S
C2160 C2158 1.478 . S
C2160 C2162 1.381 . S
C2160 C2166 1.383 . S
C2161 C2157 1.495 . S
C2161 H2167 0.959 . S
C2161 H2168 0.961 . S
C2161 H2169 0.960 . S
C2162 C2160 1.381 . S
C2162 C2163 1.394 . S
C2162 H2170 0.930 . S
C2163 C2162 1.394 . S
C2163 C2164 1.383 . S
C2163 H2171 0.929 . S
C2164 C2163 1.383 . S
C2164 C2165 1.377 . S
C2165 H2149 0.930 . S
C2165 C2164 1.377 . S
C2165 C2166 1.379 . S
C2166 H2150 0.931 . S
C2166 C2160 1.383 . S
C2166 C2165 1.379 . S
H2167 C2161 0.959 . S
H2168 C2161 0.961 . S
H2169 C2161 0.960 . S
H2170 C2162 0.930 . S
H2171 C2163 0.929 . S
H2172 C2180 0.929 . S
H2173 C2182 0.930 . S
H2174 C2184 0.930 . S
H2175 C2187 0.929 . S
H2176 C2190 0.930 . S
H2177 C2192 0.960 . S
H2178 C2192 0.960 . S
H2179 C2192 0.960 . S
C2180 H2172 0.929 . S
C2180 C2181 1.377 . S
C2180 C2182 1.384 . S
C2181 C2180 1.377 . S
C2181 C2187 1.390 . S
C2182 H2173 0.930 . S
C2182 C2180 1.384 . S
C2182 C2183 1.372 . S
C2183 C2182 1.372 . S
C2183 C2184 1.400 . S
C2183 C2188 1.490 . S
C2184 H2174 0.930 . S
C2184 C2183 1.400 . S
C2184 C2187 1.386 . S
H2185 C2201 0.930 . S
H2186 C2202 0.931 . S
C2187 H2175 0.929 . S
C2187 C2181 1.390 . S
C2187 C2184 1.386 . S
C2188 C2183 1.490 . S
C2188 C2190 1.395 . S
C2188 C2191 1.403 . S
H2189 C2195 0.930 . S
C2190 H2176 0.930 . S
C2190 C2188 1.395 . S
C2190 C2193 1.403 . S
C2191 C2188 1.403 . S
C2191 C2192 1.524 . S
C2191 C2195 1.400 . S
C2192 H2177 0.960 . S
C2192 H2178 0.960 . S
C2192 H2179 0.960 . S
C2192 C2191 1.524 . S
C2193 C2190 1.403 . S
C2193 C2194 1.392 . S
C2193 C2197 1.495 . S
C2194 C2193 1.392 . S
C2194 C2195 1.385 . S
C2194 C2196 1.478 . S
C2195 H2189 0.930 . S
C2195 C2191 1.400 . S
C2195 C2194 1.385 . S
C2196 C2194 1.478 . S
C2196 C2198 1.381 . S
C2196 C2202 1.383 1_565 S
C2197 C2193 1.495 . S
C2197 H2203 0.959 . S
C2197 H2204 0.961 . S
C2197 H2205 0.960 . S
C2198 C2196 1.381 . S
C2198 C2199 1.394 1_565 S
C2198 H2206 0.930 . S
C2199 C2198 1.394 1_545 S
C2199 C2200 1.383 . S
C2199 H2207 0.929 . S
C2200 C2199 1.383 . S
C2200 C2201 1.377 . S
C2201 H2185 0.930 . S
C2201 C2200 1.377 . S
C2201 C2202 1.379 . S
C2202 H2186 0.931 . S
C2202 C2196 1.383 1_545 S
C2202 C2201 1.379 . S
H2203 C2197 0.959 . S
H2204 C2197 0.961 . S
H2205 C2197 0.960 . S
H2206 C2198 0.930 . S
H2207 C2199 0.929 . S
H2208 C2216 0.929 . S
H2209 C2218 0.930 . S
H2210 C2220 0.930 . S
H2211 C2223 0.929 . S
H2212 C2226 0.930 . S
H2213 C2228 0.960 . S
H2214 C2228 0.960 . S
H2215 C2228 0.960 . S
C2216 H2208 0.929 . S
C2216 C2217 1.377 . S
C2216 C2218 1.384 1_565 S
C2217 C2216 1.377 . S
C2217 C2223 1.390 . S
C2218 H2209 0.930 . S
C2218 C2216 1.384 1_545 S
C2218 C2219 1.372 . S
C2219 C2218 1.372 . S
C2219 C2220 1.400 1_545 S
C2219 C2224 1.490 . S
C2220 H2210 0.930 . S
C2220 C2219 1.400 1_565 S
C2220 C2223 1.386 . S
H2221 C2237 0.930 . S
H2222 C2238 0.931 . S
C2223 H2211 0.929 . S
C2223 C2217 1.390 . S
C2223 C2220 1.386 . S
C2224 C2219 1.490 . S
C2224 C2226 1.395 . S
C2224 C2227 1.403 . S
H2225 C2231 0.930 . S
C2226 H2212 0.930 . S
C2226 C2224 1.395 . S
C2226 C2229 1.403 . S
C2227 C2224 1.403 . S
C2227 C2228 1.524 . S
C2227 C2231 1.400 . S
C2228 H2213 0.960 . S
C2228 H2214 0.960 . S
C2228 H2215 0.960 . S
C2228 C2227 1.524 . S
C2229 C2226 1.403 . S
C2229 C2230 1.392 . S
C2229 C2233 1.495 . S
C2230 C2229 1.392 . S
C2230 C2231 1.385 . S
C2230 C2232 1.478 . S
C2231 H2225 0.930 . S
C2231 C2227 1.400 . S
C2231 C2230 1.385 . S
C2232 C2230 1.478 . S
C2232 C2234 1.381 . S
C2232 C2238 1.383 . S
C2233 C2229 1.495 . S
C2233 H2239 0.959 . S
C2233 H2240 0.961 . S
C2233 H2241 0.960 . S
C2234 C2232 1.381 . S
C2234 C2235 1.394 . S
C2234 H2242 0.930 . S
C2235 C2234 1.394 . S
C2235 C2236 1.383 . S
C2235 H2243 0.929 . S
C2236 C2235 1.383 . S
C2236 C2237 1.377 . S
C2237 H2221 0.930 . S
C2237 C2236 1.377 . S
C2237 C2238 1.379 . S
C2238 H2222 0.931 . S
C2238 C2232 1.383 . S
C2238 C2237 1.379 . S
H2239 C2233 0.959 . S
H2240 C2233 0.961 . S
H2241 C2233 0.960 . S
H2242 C2234 0.930 . S
H2243 C2235 0.929 . S
H2244 C2252 0.929 . S
H2245 C2254 0.930 . S
H2246 C2256 0.930 . S
H2247 C2259 0.929 . S
H2248 C2262 0.930 . S
H2249 C2264 0.960 . S
H2250 C2264 0.960 . S
H2251 C2264 0.960 . S
C2252 H2244 0.929 . S
C2252 C2253 1.377 . S
C2252 C2254 1.384 . S
C2253 C2252 1.377 . S
C2253 C2259 1.390 . S
C2254 H2245 0.930 . S
C2254 C2252 1.384 . S
C2254 C2255 1.372 . S
C2255 C2254 1.372 . S
C2255 C2256 1.400 . S
C2255 C2260 1.490 . S
C2256 H2246 0.930 . S
C2256 C2255 1.400 . S
C2256 C2259 1.386 . S
H2257 C2273 0.930 . S
H2258 C2274 0.931 . S
C2259 H2247 0.929 . S
C2259 C2253 1.390 . S
C2259 C2256 1.386 . S
C2260 C2255 1.490 . S
C2260 C2262 1.395 . S
C2260 C2263 1.403 . S
H2261 C2267 0.930 . S
C2262 H2248 0.930 . S
C2262 C2260 1.395 . S
C2262 C2265 1.403 . S
C2263 C2260 1.403 . S
C2263 C2264 1.524 . S
C2263 C2267 1.400 . S
C2264 H2249 0.960 . S
C2264 H2250 0.960 . S
C2264 H2251 0.960 . S
C2264 C2263 1.524 . S
C2265 C2262 1.403 . S
C2265 C2266 1.392 . S
C2265 C2269 1.495 . S
C2266 C2265 1.392 . S
C2266 C2267 1.385 . S
C2266 C2268 1.478 . S
C2267 H2261 0.930 . S
C2267 C2263 1.400 . S
C2267 C2266 1.385 . S
C2268 C2266 1.478 . S
C2268 C2270 1.381 . S
C2268 C2274 1.383 . S
C2269 C2265 1.495 . S
C2269 H2275 0.959 . S
C2269 H2276 0.961 . S
C2269 H2277 0.960 . S
C2270 C2268 1.381 . S
C2270 C2271 1.394 . S
C2270 H2278 0.930 . S
C2271 C2270 1.394 . S
C2271 C2272 1.383 . S
C2271 H2279 0.929 . S
C2272 C2271 1.383 . S
C2272 C2273 1.377 . S
C2273 H2257 0.930 . S
C2273 C2272 1.377 . S
C2273 C2274 1.379 . S
C2274 H2258 0.931 . S
C2274 C2268 1.383 . S
C2274 C2273 1.379 . S
H2275 C2269 0.959 . S
H2276 C2269 0.961 . S
H2277 C2269 0.960 . S
H2278 C2270 0.930 . S
H2279 C2271 0.929 . S
C561 C191 1.714 . S
C580 N12 1.683 . S
C597 N35 1.709 . S
C616 C260 1.697 . S
C633 N58 1.705 . S
C652 C214 1.692 . S
C669 N81 1.700 . S
C688 C237 1.717 . S
C705 C99 1.758 . S
C724 C7 1.763 . S
C741 C30 1.783 . S
C760 C122 1.777 . S
C777 C145 1.763 . S
C796 C53 1.794 . S
C813 C76 1.783 . S
C832 C168 1.765 . S
C849 N104 1.531 . S
C868 N196 1.519 . S
C885 N150 1.534 . S
C904 N219 1.474 . S
C921 N242 1.498 . S
C940 N173 1.539 . S
C957 N127 1.534 . S
C976 N265 1.476 . S
C993 C467 1.682 . S
C1012 N288 1.695 . S
C1029 N311 1.674 . S
C1048 C536 1.660 . S
C1065 N334 1.675 . S
C1084 C490 1.663 . S
C1101 C513 1.675 . S
C1120 N357 1.660 . S
C1137 N380 1.628 . S
C1156 C283 1.618 . S
C1173 C306 1.632 . S
C1192 N403 1.639 . S
C1209 C329 1.629 . S
C1228 N426 1.622 . S
C1245 N449 1.627 . S
C1264 C352 1.614 . S
C1281 N472 1.602 . S
C1300 C375 1.614 . S
C1317 C421 1.604 . S
C1336 N495 1.600 . S
C1353 C444 1.606 . S
C1372 N518 1.599 . S
C1389 N541 1.604 . S
C1408 C398 1.619 . S
C1425 C522 1.957 . S
C1444 N2 1.785 . S
C1461 C499 1.953 . S
C1480 N25 1.756 . S
C1497 C545 1.951 . S
C1516 N48 1.765 . S
C1533 N71 1.791 . S
C1552 C476 1.938 . S
C1569 C108 1.779 . S
C1588 C315 1.845 . S
C1605 C292 1.841 . S
C1624 C131 1.797 . S
C1641 C361 1.843 . S
C1660 C154 1.795 . S
C1677 C338 1.835 . S
C1696 C177 1.750 . S
C1713 N186 1.757 . S
C1732 C430 1.900 . S
C1749 C384 1.921 . S
C1768 N209 1.779 . S
C1785 C407 1.921 . S
C1804 N232 1.780 . S
C1821 C453 1.920 . S
C1840 N255 1.734 . S
C1857 C246 1.945 . S
C1876 N278 1.782 . S
C1893 C223 1.946 . S
C1912 N301 1.752 . S
C1929 N324 1.789 . S
C1948 C269 1.923 . S
C1965 C200 1.942 . S
C1984 N347 1.807 . S
C2001 N370 1.782 . S
C2020 C39 1.937 . S
C2037 N393 1.779 . S
C2056 C16 1.944 . S
C2073 N416 1.786 . S
C2092 C85 1.939 . S
C2109 N439 1.787 . S
C2128 C62 1.936 . S
C2145 N462 1.812 . S
C2164 N140 1.857 . S
C2181 N485 1.801 . S
C2200 N94 1.901 . S
C2217 N117 1.885 . S
C2236 N508 1.795 . S
C2253 N531 1.813 . S
C2272 N163 1.853 . S
