# Generated by pormake.
# Topology ung, (4)-cn, num edge types: 1
# Building blocks:
#     Node 0, Type 0, BuildingBlock: GALJAG_clean_sbu_0, # of connection points: 4
#     Node 1, Type 0, BuildingBlock: GALJAG_clean_sbu_0, # of connection points: 4
#     Node 2, Type 0, BuildingBlock: GALJAG_clean_sbu_0, # of connection points: 4
#     Node 3, Type 0, BuildingBlock: GALJAG_clean_sbu_0, # of connection points: 4
#     Node 4, Type 0, BuildingBlock: GALJAG_clean_sbu_0, # of connection points: 4
#     Node 5, Type 0, BuildingBlock: GALJAG_clean_sbu_0, # of connection points: 4
#     Node 6, Type 0, BuildingBlock: GALJAG_clean_sbu_0, # of connection points: 4
#     Node 7, Type 0, BuildingBlock: GALJAG_clean_sbu_0, # of connection points: 4
#     Node 8, Type 0, BuildingBlock: GALJAG_clean_sbu_0, # of connection points: 4
#     Node 9, Type 0, BuildingBlock: GALJAG_clean_sbu_0, # of connection points: 4
#     Node 10, Type 0, BuildingBlock: GALJAG_clean_sbu_0, # of connection points: 4
#     Node 11, Type 0, BuildingBlock: GALJAG_clean_sbu_0, # of connection points: 4
#     Node 12, Type 0, BuildingBlock: GALJAG_clean_sbu_0, # of connection points: 4
#     Node 13, Type 0, BuildingBlock: GALJAG_clean_sbu_0, # of connection points: 4
#     Node 14, Type 0, BuildingBlock: GALJAG_clean_sbu_0, # of connection points: 4
#     Node 15, Type 0, BuildingBlock: GALJAG_clean_sbu_0, # of connection points: 4
#     Node 16, Type 0, BuildingBlock: GALJAG_clean_sbu_0, # of connection points: 4
#     Node 17, Type 0, BuildingBlock: GALJAG_clean_sbu_0, # of connection points: 4
#     Edge 18, Type (0, 0), BuildingBlock: ZUJKAS_clean_linker_0, # of connection points: 2
#     Edge 19, Type (0, 0), BuildingBlock: ZUJKAS_clean_linker_0, # of connection points: 2
#     Edge 20, Type (0, 0), BuildingBlock: ZUJKAS_clean_linker_0, # of connection points: 2
#     Edge 21, Type (0, 0), BuildingBlock: ZUJKAS_clean_linker_0, # of connection points: 2
#     Edge 22, Type (0, 0), BuildingBlock: ZUJKAS_clean_linker_0, # of connection points: 2
#     Edge 23, Type (0, 0), BuildingBlock: ZUJKAS_clean_linker_0, # of connection points: 2
#     Edge 24, Type (0, 0), BuildingBlock: ZUJKAS_clean_linker_0, # of connection points: 2
#     Edge 25, Type (0, 0), BuildingBlock: ZUJKAS_clean_linker_0, # of connection points: 2
#     Edge 26, Type (0, 0), BuildingBlock: ZUJKAS_clean_linker_0, # of connection points: 2
#     Edge 27, Type (0, 0), BuildingBlock: ZUJKAS_clean_linker_0, # of connection points: 2
#     Edge 28, Type (0, 0), BuildingBlock: ZUJKAS_clean_linker_0, # of connection points: 2
#     Edge 29, Type (0, 0), BuildingBlock: ZUJKAS_clean_linker_0, # of connection points: 2
#     Edge 30, Type (0, 0), BuildingBlock: ZUJKAS_clean_linker_0, # of connection points: 2
#     Edge 31, Type (0, 0), BuildingBlock: ZUJKAS_clean_linker_0, # of connection points: 2
#     Edge 32, Type (0, 0), BuildingBlock: ZUJKAS_clean_linker_0, # of connection points: 2
#     Edge 33, Type (0, 0), BuildingBlock: ZUJKAS_clean_linker_0, # of connection points: 2
#     Edge 34, Type (0, 0), BuildingBlock: ZUJKAS_clean_linker_0, # of connection points: 2
#     Edge 35, Type (0, 0), BuildingBlock: ZUJKAS_clean_linker_0, # of connection points: 2
#     Edge 36, Type (0, 0), BuildingBlock: ZUJKAS_clean_linker_0, # of connection points: 2
#     Edge 37, Type (0, 0), BuildingBlock: ZUJKAS_clean_linker_0, # of connection points: 2
#     Edge 38, Type (0, 0), BuildingBlock: ZUJKAS_clean_linker_0, # of connection points: 2
#     Edge 39, Type (0, 0), BuildingBlock: ZUJKAS_clean_linker_0, # of connection points: 2
#     Edge 40, Type (0, 0), BuildingBlock: ZUJKAS_clean_linker_0, # of connection points: 2
#     Edge 41, Type (0, 0), BuildingBlock: ZUJKAS_clean_linker_0, # of connection points: 2
#     Edge 42, Type (0, 0), BuildingBlock: ZUJKAS_clean_linker_0, # of connection points: 2
#     Edge 43, Type (0, 0), BuildingBlock: ZUJKAS_clean_linker_0, # of connection points: 2
#     Edge 44, Type (0, 0), BuildingBlock: ZUJKAS_clean_linker_0, # of connection points: 2
#     Edge 45, Type (0, 0), BuildingBlock: ZUJKAS_clean_linker_0, # of connection points: 2
#     Edge 46, Type (0, 0), BuildingBlock: ZUJKAS_clean_linker_0, # of connection points: 2
#     Edge 47, Type (0, 0), BuildingBlock: ZUJKAS_clean_linker_0, # of connection points: 2
#     Edge 48, Type (0, 0), BuildingBlock: ZUJKAS_clean_linker_0, # of connection points: 2
#     Edge 49, Type (0, 0), BuildingBlock: ZUJKAS_clean_linker_0, # of connection points: 2
#     Edge 50, Type (0, 0), BuildingBlock: ZUJKAS_clean_linker_0, # of connection points: 2
#     Edge 51, Type (0, 0), BuildingBlock: ZUJKAS_clean_linker_0, # of connection points: 2
#     Edge 52, Type (0, 0), BuildingBlock: ZUJKAS_clean_linker_0, # of connection points: 2
#     Edge 53, Type (0, 0), BuildingBlock: ZUJKAS_clean_linker_0, # of connection points: 2
# Relax obj value: 0.030
# Max RMSD: 0.132
# Mean RMSD: 0.132
data_MOF--net-ung--node1-GALJAG_clean_sbu_0--edge1-ZUJKAS_clean_linker_0
_symmetry_space_group_name_H-M    P1
_symmetry_Int_Tables_number       1
_symmetry_cell_setting            triclinic
loop_
_symmetry_equiv_pos_as_xyz
'x, y, z'
_cell_length_a     102.02649
_cell_length_b     102.00649
_cell_length_c     26.25472
_cell_angle_alpha  90.000354
_cell_angle_beta   90.00229
_cell_angle_gamma 120.00247
loop_
_atom_site_label
_atom_site_type_symbol
_atom_site_fract_x
_atom_site_fract_y
_atom_site_fract_z
_atom_type_partial_charge
In0 In 0.09222 0.66411 0.25158 0.0
O1 O 0.10408 0.65802 0.18995 0.0
O2 O 0.08162 0.64159 0.21188 0.0
C3 C 0.11271 0.69163 0.28551 0.0
C4 C 0.09043 0.64842 0.33551 0.0
C5 C 0.07294 0.67037 0.20281 0.0
O6 O 0.11614 0.68457 0.25345 0.0
O7 O 0.09901 0.68491 0.29918 0.0
O8 O 0.06938 0.66293 0.24401 0.0
O9 O 0.08617 0.67467 0.18702 0.0
C10 C 0.09294 0.64478 0.18427 0.0
O11 O 0.07928 0.64955 0.32016 0.0
O12 O 0.10227 0.65537 0.30902 0.0
In13 In 0.5227 0.5189 0.23792 0.0
O14 O 0.52829 0.53708 0.17783 0.0
O15 O 0.54453 0.53026 0.19416 0.0
C16 C 0.49574 0.51169 0.27742 0.0
C17 C 0.5394 0.53409 0.31864 0.0
C18 C 0.51584 0.49336 0.1879 0.0
O19 O 0.5017 0.52138 0.24214 0.0
O20 O 0.50323 0.50551 0.29126 0.0
O21 O 0.52371 0.49716 0.22823 0.0
O22 O 0.5114 0.50234 0.17381 0.0
C23 C 0.54126 0.53879 0.16906 0.0
O24 O 0.53806 0.52151 0.30555 0.0
O25 O 0.53224 0.53858 0.29147 0.0
In26 In 0.65772 0.09001 0.2434 0.0
O27 O 0.64247 0.07537 0.17835 0.0
O28 O 0.65061 0.09913 0.17779 0.0
C29 C 0.66376 0.07192 0.3007 0.0
C30 C 0.63833 0.09291 0.30473 0.0
C31 C 0.68547 0.10901 0.20752 0.0
O32 O 0.65659 0.06747 0.2591 0.0
O33 O 0.66787 0.08542 0.31278 0.0
O34 O 0.6789 0.1134 0.23835 0.0
O35 O 0.67817 0.09511 0.19642 0.0
C36 C 0.6428 0.08653 0.15604 0.0
O37 O 0.6515 0.10388 0.29629 0.0
O38 O 0.63522 0.0807 0.28275 0.0
In39 In 0.08978 0.52096 0.75012 0.0
O40 O 0.10083 0.53824 0.68607 0.0
O41 O 0.07844 0.53201 0.70957 0.0
C42 C 0.11029 0.5137 0.78172 0.0
C43 C 0.09036 0.53676 0.83224 0.0
C44 C 0.06917 0.49492 0.70723 0.0
O45 O 0.11317 0.52319 0.74631 0.0
O46 O 0.09706 0.50777 0.79977 0.0
O47 O 0.06643 0.49976 0.74794 0.0
O48 O 0.0823 0.50311 0.68922 0.0
C49 C 0.08946 0.53998 0.68062 0.0
O50 O 0.07878 0.52423 0.82123 0.0
O51 O 0.10141 0.54098 0.8023 0.0
In52 In 0.66155 0.6622 0.74228 0.0
O53 O 0.66015 0.64847 0.81289 0.0
O54 O 0.64457 0.65652 0.80494 0.0
C55 C 0.6858 0.6659 0.69069 0.0
C56 C 0.6402 0.64118 0.68226 0.0
C57 C 0.66985 0.69087 0.76627 0.0
O58 O 0.68384 0.66211 0.73718 0.0
O59 O 0.67569 0.66798 0.67108 0.0
O60 O 0.65831 0.68284 0.73907 0.0
O61 O 0.67723 0.68453 0.77955 0.0
C62 C 0.64898 0.64909 0.83107 0.0
O63 O 0.64319 0.65483 0.6814 0.0
O64 O 0.64792 0.63837 0.71326 0.0
In65 In 0.52341 0.09883 0.74354 0.0
O66 O 0.54156 0.10769 0.80551 0.0
O67 O 0.53652 0.08739 0.7662 0.0
C68 C 0.51797 0.12152 0.72482 0.0
C69 C 0.53393 0.09763 0.65118 0.0
C70 C 0.49871 0.07933 0.79575 0.0
O71 O 0.53013 0.12383 0.7456 0.0
O72 O 0.50851 0.10783 0.71559 0.0
O73 O 0.50013 0.07754 0.74874 0.0
O74 O 0.50963 0.09091 0.81561 0.0
C75 C 0.54425 0.09692 0.80002 0.0
O76 O 0.52275 0.08611 0.67072 0.0
O77 O 0.53935 0.10948 0.67787 0.0
In78 In 0.76349 0.0014 0.56111 0.0
O79 O 0.75213 0.98389 0.62398 0.0
O80 O 0.77224 0.98639 0.58966 0.0
C81 C 0.74368 0.011 0.54528 0.0
C82 C 0.76169 0.98745 0.47264 0.0
C83 C 0.78622 0.02557 0.60692 0.0
O84 O 0.7404 -0.00045 0.57255 0.0
O85 O 0.75694 0.01766 0.52749 0.0
O86 O 0.7859 0.02388 0.55912 0.0
O87 O 0.77516 0.01523 0.63077 0.0
C88 C 0.76187 0.97967 0.62219 0.0
O89 O 0.77422 -0.00224 0.4899 0.0
O90 O 0.75031 0.98466 0.49925 0.0
In91 In 0.19177 0.85661 0.58482 0.0
O92 O 0.19674 0.87375 0.52132 0.0
O93 O 0.21417 0.86928 0.54448 0.0
C94 C 0.16373 0.84814 0.61666 0.0
C95 C 0.20679 0.87195 0.66804 0.0
C96 C 0.18673 0.8311 0.53856 0.0
O97 O 0.17049 0.85859 0.58425 0.0
O98 O 0.17105 0.84192 0.63193 0.0
O99 O 0.19388 0.83534 0.5803 0.0
O100 O 0.18218 0.83966 0.52113 0.0
C101 C 0.21023 0.87659 0.51565 0.0
O102 O 0.20721 0.86035 0.65322 0.0
O103 O 0.19869 0.87542 0.64143 0.0
In104 In 0.32982 0.4239 0.57298 0.0
O105 O 0.31341 0.41316 0.50649 0.0
O106 O 0.32162 0.43642 0.52414 0.0
C107 C 0.33575 0.40291 0.60956 0.0
C108 C 0.31208 0.42375 0.64822 0.0
C109 C 0.3572 0.44369 0.53644 0.0
O110 O 0.32813 0.40073 0.56922 0.0
O111 O 0.34031 0.4156 0.63065 0.0
O112 O 0.35147 0.44701 0.57355 0.0
O113 O 0.3492 0.43046 0.51903 0.0
C114 C 0.31329 0.42524 0.49623 0.0
O115 O 0.32533 0.43482 0.64176 0.0
O116 O 0.30809 0.41296 0.61726 0.0
In117 In 0.75566 0.85631 0.0661 0.0
O118 O 0.76914 0.87195 0.00029 0.0
O119 O 0.74683 0.86782 0.0153 0.0
C120 C 0.77412 0.84857 0.11288 0.0
C121 C 0.75436 0.87404 0.13865 0.0
C122 C 0.73598 0.83003 0.02194 0.0
O123 O 0.77855 0.85777 0.07594 0.0
O124 O 0.76042 0.84321 0.12531 0.0
O125 O 0.73228 0.83507 0.06008 0.0
O126 O 0.74951 0.8381 0.00741 0.0
C127 C 0.75862 0.87453 0.98839 0.0
O128 O 0.74274 0.86172 0.12595 0.0
O129 O 0.76638 0.87698 0.11568 0.0
In130 In 0.32931 0.00352 0.08308 0.0
O131 O 0.32615 0.98794 0.1499 0.0
O132 O 0.30864 0.99295 0.13297 0.0
C133 C 0.35652 0.01138 0.04396 0.0
C134 C 0.31127 0.98481 0.01033 0.0
C135 C 0.33566 0.03056 0.12 0.0
O136 O 0.35161 0.00335 0.08373 0.0
O137 O 0.34771 0.01535 0.02459 0.0
O138 O 0.32851 0.02555 0.07856 0.0
O139 O 0.33942 0.02193 0.14189 0.0
C140 C 0.31319 0.98595 0.16087 0.0
O141 O 0.31124 0.99689 0.0214 0.0
O142 O 0.32055 0.98255 0.03512 0.0
In143 In 0.18977 0.4283 0.07658 0.0
O144 O 0.19391 0.41515 0.01409 0.0
O145 O 0.2116 0.43733 0.03349 0.0
C146 C 0.16237 0.4096 0.11569 0.0
C147 C 0.20632 0.42955 0.15739 0.0
C148 C 0.18452 0.4483 0.02793 0.0
O149 O 0.16818 0.40526 0.08179 0.0
O150 O 0.17027 0.42331 0.12865 0.0
O151 O 0.19237 0.45176 0.06822 0.0
O152 O 0.17927 0.4348 0.01317 0.0
C153 C 0.20735 0.4257 0.00633 0.0
O154 O 0.20596 0.44113 0.14194 0.0
O155 O 0.19818 0.41757 0.13264 0.0
In156 In 0.41846 0.32334 0.92227 0.0
O157 O 0.4052 0.31021 0.99285 0.0
O158 O 0.42923 0.3204 0.99274 0.0
C159 C 0.39834 0.32604 0.86401 0.0
C160 C 0.42057 0.3016 0.87205 0.0
C161 C 0.43859 0.35256 0.94012 0.0
O162 O 0.39624 0.3233 0.91122 0.0
O163 O 0.4105 0.32741 0.84675 0.0
O164 O 0.4422 0.34404 0.91633 0.0
O165 O 0.42486 0.3464 0.95305 0.0
C166 C 0.41699 0.31253 0.01642 0.0
O167 O 0.43101 0.31531 0.87034 0.0
O168 O 0.40925 0.29906 0.89865 0.0
In169 In 0.85421 0.18668 0.92512 0.0
O170 O 0.86902 0.18995 0.99449 0.0
O171 O 0.86073 0.20521 0.98279 0.0
C172 C 0.85078 0.16179 0.87861 0.0
C173 C 0.87384 0.20727 0.85979 0.0
C174 C 0.82575 0.17764 0.95418 0.0
O175 O 0.85569 0.1651 0.92376 0.0
O176 O 0.84744 0.17089 0.85774 0.0
O177 O 0.83258 0.18822 0.9222 0.0
O178 O 0.83316 0.17156 0.96976 0.0
C179 C 0.8686 0.2015 0.0097 0.0
O180 O 0.86017 0.20415 0.86173 0.0
O181 O 0.87733 0.19997 0.89039 0.0
In182 In -0.00252 0.76333 0.91618 0.0
O183 O 0.99506 0.77618 0.98356 0.0
O184 O 0.97918 0.75262 0.97512 0.0
C185 C 0.02277 0.78278 0.86668 0.0
C186 C 0.97712 0.76211 0.84922 0.0
C187 C 0.00563 0.74366 0.94966 0.0
O188 O 0.01907 0.78627 0.90841 0.0
O189 O 0.01376 0.7696 0.85071 0.0
O190 O 0.99495 0.73979 0.91805 0.0
O191 O 0.01216 0.75737 0.96331 0.0
C192 C 0.98335 0.7646 0.00026 0.0
O193 O 0.97953 0.75116 0.85469 0.0
O194 O 0.98504 0.77345 0.87702 0.0
In195 In 0.43266 0.19485 0.4251 0.0
O196 O 0.41895 0.1916 0.49779 0.0
O197 O 0.44195 0.20933 0.49522 0.0
C198 C 0.41284 0.17144 0.36804 0.0
C199 C 0.43215 0.2173 0.37361 0.0
C200 C 0.45523 0.18897 0.44123 0.0
O201 O 0.41076 0.17233 0.41513 0.0
O202 O 0.42495 0.18223 0.35032 0.0
O203 O 0.45771 0.20172 0.42555 0.0
O204 O 0.44145 0.1792 0.4469 0.0
C205 C 0.42983 0.20262 0.52042 0.0
O206 O 0.44251 0.21409 0.36691 0.0
O207 O 0.42229 0.20926 0.4061 0.0
In208 In 0.99557 0.32943 0.421 0.0
O209 O 0.99268 0.31399 0.48862 0.0
O210 O 0.97473 0.31811 0.46949 0.0
C211 C 0.02235 0.33767 0.37754 0.0
C212 C 0.97753 0.31178 0.34647 0.0
C213 C 0.00104 0.35573 0.46184 0.0
O214 O 0.01747 0.32857 0.41479 0.0
O215 O 0.01379 0.3426 0.36325 0.0
O216 O 0.99227 0.34995 0.42411 0.0
O217 O 0.00714 0.34837 0.47779 0.0
C218 C 0.97946 0.3115 0.49838 0.0
O219 O 0.97842 0.32428 0.35753 0.0
O220 O 0.98594 0.30852 0.37228 0.0
In221 In 0.85416 0.76084 0.4121 0.0
O222 O 0.86025 0.74964 0.34833 0.0
O223 O 0.87486 0.77319 0.36284 0.0
C224 C 0.82767 0.73956 0.45035 0.0
C225 C 0.87194 0.76212 0.48897 0.0
C226 C 0.84542 0.77952 0.37307 0.0
O227 O 0.83299 0.73742 0.40962 0.0
O228 O 0.83568 0.75234 0.4709 0.0
O229 O 0.85465 0.78351 0.40987 0.0
O230 O 0.84068 0.76625 0.3569 0.0
C231 C 0.87229 0.76172 0.33699 0.0
O232 O 0.86942 0.77288 0.48026 0.0
O233 O 0.86543 0.75096 0.45921 0.0
H234 H 0.06727 0.53256 0.89581 0.0
H235 H 0.06794 0.55048 0.95978 0.0
H236 H 0.1152 0.58062 0.92751 0.0
H237 H 0.11465 0.56295 0.86378 0.0
H238 H 0.08853 0.56455 0.04844 0.0
H239 H 0.09339 0.60546 0.89923 0.0
H240 H 0.08691 0.5858 0.88557 0.0
H241 H 0.10673 0.59888 0.89441 0.0
C242 C 0.07782 0.54293 0.90286 0.0
C243 C 0.09086 0.54646 0.87456 0.0
C244 C 0.07818 0.55312 0.93925 0.0
C245 C 0.09156 0.56691 0.94748 0.0
C246 C 0.10473 0.57011 0.92095 0.0
H247 H 0.11605 0.64806 0.12275 0.0
H248 H 0.11607 0.62883 0.06657 0.0
C249 C 0.10439 0.55999 0.88471 0.0
C250 C 0.09174 0.5783 0.98232 0.0
H251 H 0.09622 0.61374 0.98477 0.0
C252 C 0.09013 0.57529 0.0347 0.0
C253 C 0.09391 0.59227 0.9639 0.0
C254 C 0.09522 0.59582 0.90768 0.0
C255 C 0.09091 0.58607 0.06951 0.0
C256 C 0.09306 0.60005 0.05106 0.0
C257 C 0.09465 0.60303 -0.00136 0.0
C258 C 0.09319 0.61155 0.08537 0.0
C259 C 0.08969 0.58255 0.12571 0.0
C260 C 0.08024 0.60821 0.11357 0.0
C261 C 0.08019 0.61911 0.14542 0.0
C262 C 0.09307 0.63357 0.14932 0.0
C263 C 0.10599 0.63699 0.12047 0.0
C264 C 0.10602 0.62605 0.08854 0.0
H265 H 0.09218 0.57334 0.13414 0.0
H266 H 0.09756 0.59273 0.14804 0.0
H267 H 0.07799 0.57879 0.13868 0.0
H268 H 0.07012 0.5972 0.11067 0.0
H269 H 0.07004 0.61617 0.16702 0.0
H270 H 0.65189 0.62741 0.8829 0.0
H271 H 0.63434 0.60993 0.94702 0.0
H272 H 0.60915 0.63353 0.94351 0.0
H273 H 0.6265 0.65094 0.8796 0.0
H274 H 0.62299 0.61531 0.04724 0.0
H275 H 0.57962 0.58863 0.89458 0.0
H276 H 0.59955 0.60043 0.88095 0.0
H277 H 0.58855 0.60888 0.9002 0.0
C278 C 0.6428 0.62905 0.89667 0.0
C279 C 0.64041 0.64038 0.87592 0.0
C280 C 0.63281 0.61908 0.93313 0.0
C281 C 0.62038 0.62037 0.94906 0.0
C282 C 0.6186 0.63229 0.93101 0.0
H283 H 0.53889 0.56114 0.11978 0.0
H284 H 0.55833 0.58158 0.06763 0.0
C285 C 0.62853 0.64222 0.89463 0.0
C286 C 0.60856 0.60858 0.98126 0.0
H287 H 0.572 0.57961 0.97823 0.0
C288 C 0.61184 0.60747 0.03234 0.0
C289 C 0.59407 0.59848 0.96135 0.0
C290 C 0.59019 0.59902 0.90618 0.0
C291 C 0.60083 0.59653 0.06449 0.0
C292 C 0.58636 0.58631 0.04442 0.0
C293 C 0.5831 0.58751 0.99337 0.0
C294 C 0.57459 0.57396 0.07533 0.0
C295 C 0.6047 0.59615 0.11974 0.0
C296 C 0.57721 0.56277 0.09554 0.0
C297 C 0.5662 0.55116 0.12515 0.0
C298 C 0.55231 0.55047 0.13461 0.0
C299 C 0.5495 0.56142 0.11305 0.0
C300 C 0.56058 0.5731 0.08349 0.0
H301 H 0.61444 0.60713 0.13212 0.0
H302 H 0.59487 0.5934 0.14474 0.0
H303 H 0.60785 0.58729 0.12508 0.0
H304 H 0.5878 0.56303 0.08847 0.0
H305 H 0.56863 0.5428 0.141 0.0
H306 H 0.61903 0.06091 0.11564 0.0
H307 H 0.60251 0.0597 0.04543 0.0
H308 H 0.63025 0.10791 0.02359 0.0
H309 H 0.64666 0.10921 0.09319 0.0
H310 H 0.58697 0.07656 0.04901 0.0
H311 H 0.62324 0.09058 0.87744 0.0
H312 H 0.62702 0.08354 0.93554 0.0
H313 H 0.63232 0.10315 0.9301 0.0
C314 C 0.62175 0.07116 0.09502 0.0
C315 C 0.63405 0.08515 0.10983 0.0
C316 C 0.61233 0.07046 0.05512 0.0
C317 C 0.6153 0.0837 0.02916 0.0
C318 C 0.62794 0.09754 0.04259 0.0
H319 H 0.55951 0.11327 0.8841 0.0
H320 H 0.57655 0.10903 0.93877 0.0
C321 C 0.63724 0.09827 0.08259 0.0
C322 C 0.60439 0.08355 0.99202 0.0
H323 H 0.60166 0.094 0.87083 0.0
C324 C 0.59006 0.08013 0.0098 0.0
C325 C 0.60851 0.0882 0.94101 0.0
C326 C 0.62357 0.09145 0.91966 0.0
C327 C 0.57995 0.08188 0.97837 0.0
C328 C 0.58439 0.0873 0.92821 0.0
C329 C 0.59843 0.09006 0.90966 0.0
C330 C 0.57458 0.09022 0.89451 0.0
C331 C 0.56467 0.07811 -0.00085 0.0
C332 C 0.5682 0.08126 0.85117 0.0
C333 C 0.5585 0.08363 0.82009 0.0
C334 C 0.55516 0.09511 0.83165 0.0
C335 C 0.56189 0.10434 0.87439 0.0
C336 C 0.57153 0.10189 0.90569 0.0
H337 H 0.56173 0.07103 0.03405 0.0
H338 H 0.5648 0.08875 0.00898 0.0
H339 H 0.55568 0.07203 0.9702 0.0
H340 H 0.57051 0.07226 0.84193 0.0
H341 H 0.55352 0.07638 0.78723 0.0
H342 H 0.64055 0.11836 0.34795 0.0
H343 H 0.62147 0.11994 0.40028 0.0
H344 H 0.59203 0.07165 0.38681 0.0
H345 H 0.6108 0.07004 0.33379 0.0
H346 H 0.57702 0.08746 0.37173 0.0
H347 H 0.61179 0.1064 0.54797 0.0
H348 H 0.6206 0.11827 0.49363 0.0
H349 H 0.61689 0.09908 0.49359 0.0
C350 C 0.63003 0.1081 0.35635 0.0
C351 C 0.62718 0.09408 0.33711 0.0
C352 C 0.61917 0.10901 0.38629 0.0
C353 C 0.60544 0.09588 0.39786 0.0
C354 C 0.60256 0.08191 0.37832 0.0
H355 H 0.52961 0.07272 0.59767 0.0
H356 H 0.54585 0.07235 0.52937 0.0
C357 C 0.61333 0.08101 0.3482 0.0
C358 C 0.59402 0.09657 0.43057 0.0
H359 H 0.58827 0.10566 0.55023 0.0
C360 C 0.57945 0.09144 0.41077 0.0
C361 C 0.59724 0.10166 0.48154 0.0
C362 C 0.61243 0.10653 0.50571 0.0
C363 C 0.56803 0.09143 0.4406 0.0
C364 C 0.57132 0.09661 0.49134 0.0
C365 C 0.58587 0.10178 0.51106 0.0
C366 C 0.55989 0.09673 0.52537 0.0
C367 C 0.55262 0.08605 0.4177 0.0
C368 C 0.56226 0.11055 0.54465 0.0
C369 C 0.55309 0.11078 0.58348 0.0
C370 C 0.54145 0.09719 0.60389 0.0
C371 C 0.53847 0.08335 0.58244 0.0
C372 C 0.54771 0.08313 0.54345 0.0
H373 H 0.55275 0.08519 0.37553 0.0
H374 H 0.54454 0.0747 0.43315 0.0
H375 H 0.54838 0.09384 0.42799 0.0
H376 H 0.57164 0.12114 0.53113 0.0
H377 H 0.55559 0.12162 0.59912 0.0
H378 H 0.11347 0.64566 0.37505 0.0
H379 H 0.11189 0.62756 0.43873 0.0
H380 H 0.06417 0.61128 0.45723 0.0
H381 H 0.0656 0.62931 0.39243 0.0
H382 H 0.10242 0.6227 0.5402 0.0
H383 H 0.06598 0.57324 0.41693 0.0
H384 H 0.07575 0.5924 0.39306 0.0
H385 H 0.05881 0.58579 0.43023 0.0
C386 C 0.10265 0.63833 0.39295 0.0
C387 C 0.08961 0.63876 0.37846 0.0
C388 C 0.10178 0.62802 0.42937 0.0
C389 C 0.08788 0.61795 0.4519 0.0
C390 C 0.07495 0.61881 0.43944 0.0
H391 H 0.06541 0.5435 0.6588 0.0
H392 H 0.06491 0.56259 0.60404 0.0
C393 C 0.0758 0.62915 0.40278 0.0
C394 C 0.087 0.60617 0.48668 0.0
H395 H 0.07259 0.56806 0.49738 0.0
C396 C 0.09585 0.61074 0.53105 0.0
C397 C 0.07849 0.59062 0.47421 0.0
C398 C 0.0693 0.58515 0.42585 0.0
C399 C 0.09642 0.60012 0.56343 0.0
C400 C 0.08807 0.58461 0.55058 0.0
C401 C 0.07901 0.58001 0.50676 0.0
C402 C 0.08847 0.57294 0.58249 0.0
C403 C 0.10586 0.60553 0.61124 0.0
C404 C 0.10184 0.57231 0.58748 0.0
C405 C 0.10216 0.56136 0.61859 0.0
C406 C 0.0891 0.55094 0.64504 0.0
C407 C 0.07566 0.55143 0.639 0.0
C408 C 0.07534 0.56231 0.6078 0.0
H409 H 0.10895 0.61732 0.62109 0.0
H410 H 0.09973 0.59804 0.64392 0.0
H411 H 0.11647 0.60521 0.60545 0.0
H412 H 0.11202 0.58033 0.56746 0.0
H413 H 0.11266 0.56121 0.62256 0.0
H414 H 0.62264 0.64406 0.60927 0.0
H415 H 0.60472 0.62427 0.55159 0.0
H416 H 0.61479 0.59202 0.62133 0.0
H417 H 0.63246 0.61157 0.67932 0.0
H418 H 0.61181 0.60779 0.48235 0.0
H419 H 0.56847 0.56967 0.62179 0.0
H420 H 0.58245 0.589 0.63671 0.0
H421 H 0.58752 0.57446 0.63715 0.0
C422 C 0.62089 0.63271 0.61259 0.0
C423 C 0.6289 0.62933 0.64877 0.0
C424 C 0.61069 0.62145 0.57968 0.0
C425 C 0.60831 0.60667 0.5828 0.0
C426 C 0.61624 0.60328 0.61908 0.0
H427 H 0.55711 0.52819 0.38292 0.0
H428 H 0.57434 0.5451 0.44925 0.0
C429 C 0.6264 0.61449 0.65193 0.0
C430 C 0.59818 0.59499 0.54625 0.0
H431 H 0.56602 0.56048 0.5372 0.0
C432 C 0.60179 0.59746 0.49431 0.0
C433 C 0.58521 0.58148 0.5622 0.0
C434 C 0.58057 0.5785 0.61745 0.0
C435 C 0.5927 0.58678 0.45771 0.0
C436 C 0.57965 0.57339 0.47359 0.0
C437 C 0.57614 0.57075 0.5255 0.0
C438 C 0.56883 0.56274 0.43617 0.0
C439 C 0.59701 0.5899 0.40222 0.0
C440 C 0.55994 0.56703 0.40812 0.0
C441 C 0.55015 0.55749 0.37079 0.0
C442 C 0.54909 0.54345 0.36078 0.0
C443 C 0.55774 0.53896 0.38986 0.0
C444 C 0.56754 0.54856 0.42759 0.0
H445 H 0.60892 0.5991 0.39717 0.0
H446 H 0.59548 0.57953 0.38293 0.0
H447 H 0.58952 0.59337 0.38312 0.0
H448 H 0.56073 0.5779 0.41471 0.0
H449 H 0.5436 0.56126 0.34919 0.0
H450 H 0.72955 0.87326 0.18218 0.0
H451 H 0.72931 0.89312 0.23454 0.0
H452 H 0.77805 0.91915 0.22769 0.0
H453 H 0.77839 0.89959 0.17532 0.0
H454 H 0.7438 0.90564 0.32888 0.0
H455 H 0.76489 0.94881 0.17549 0.0
H456 H 0.75743 0.9289 0.16307 0.0
H457 H 0.77651 0.94042 0.18571 0.0
C458 C 0.74019 0.88318 0.19224 0.0
C459 C 0.75397 0.88496 0.17441 0.0
C460 C 0.74004 0.8945 0.22188 0.0
C461 C 0.75365 0.90772 0.23376 0.0
C462 C 0.76741 0.9092 0.21772 0.0
H463 H 0.78452 0.98684 0.42001 0.0
H464 H 0.78176 0.96772 0.35755 0.0
C465 C 0.76758 0.89796 0.18815 0.0
C466 C 0.75363 0.91999 0.26347 0.0
H467 H 0.76537 0.95774 0.26001 0.0
C468 C 0.74833 0.91699 0.31373 0.0
C469 C 0.75959 0.93476 0.24337 0.0
C470 C 0.7648 0.93842 0.18879 0.0
C471 C 0.74933 0.92855 0.34521 0.0
C472 C 0.7556 0.94339 0.32545 0.0
C473 C 0.76063 0.94634 0.2749 0.0
C474 C 0.75728 0.95602 0.35742 0.0
C475 C 0.74415 0.92493 0.39986 0.0
C476 C 0.74444 0.95605 0.37603 0.0
C477 C 0.74597 0.9669 0.41148 0.0
C478 C 0.76039 0.97791 0.42867 0.0
C479 C 0.77329 0.97847 0.40741 0.0
C480 C 0.77173 0.96757 0.37192 0.0
H481 H 0.74252 0.91376 0.41185 0.0
H482 H 0.75246 0.93377 0.42586 0.0
H483 H 0.73319 0.92463 0.40424 0.0
H484 H 0.73321 0.94736 0.3645 0.0
H485 H 0.73583 0.96627 0.42693 0.0
H486 H 0.20525 0.89481 0.45166 0.0
H487 H 0.2234 0.91377 0.3922 0.0
H488 H 0.25724 0.90266 0.43856 0.0
H489 H 0.23925 0.8837 0.49751 0.0
H490 H 0.25266 0.93913 0.41795 0.0
H491 H 0.25649 0.89954 0.28136 0.0
H492 H 0.24114 0.89352 0.32632 0.0
H493 H 0.25925 0.8966 0.34707 0.0
C494 C 0.21653 0.89636 0.44886 0.0
C495 C 0.22083 0.88777 0.47896 0.0
C496 C 0.22686 0.90718 0.41506 0.0
C497 C 0.24155 0.90941 0.41074 0.0
C498 C 0.24587 0.90088 0.44083 0.0
H499 H 0.31951 0.96851 0.22414 0.0
H500 H 0.30276 0.95057 0.28878 0.0
C501 C 0.23559 0.89011 0.47459 0.0
C502 C 0.25256 0.92098 0.37579 0.0
H503 H 0.27396 0.92565 0.27031 0.0
C504 C 0.2573 0.93622 0.38553 0.0
C505 C 0.25862 0.91706 0.33395 0.0
C506 C 0.25355 0.90079 0.32113 0.0
C507 C 0.26811 0.94775 0.35455 0.0
C508 C 0.27407 0.94383 0.31238 0.0
C509 C 0.2694 0.92858 0.3029 0.0
C510 C 0.28456 0.95529 0.27599 0.0
C511 C 0.2732 0.96401 0.36759 0.0
C512 C 0.2798 0.96377 0.24756 0.0
C513 C 0.28929 0.97398 0.21092 0.0
C514 C 0.30367 0.97578 0.20178 0.0
C515 C 0.3085 0.96737 0.23057 0.0
C516 C 0.29897 0.95714 0.26735 0.0
H517 H 0.27099 0.96529 0.40822 0.0
H518 H 0.28546 0.97145 0.35982 0.0
H519 H 0.26684 0.96795 0.34387 0.0
H520 H 0.26859 0.96225 0.25291 0.0
H521 H 0.28523 0.98025 0.1891 0.0
H522 H 0.29078 0.40208 0.44166 0.0
H523 H 0.27288 0.40376 0.38328 0.0
H524 H 0.29558 0.4521 0.40568 0.0
H525 H 0.31347 0.45056 0.46357 0.0
H526 H 0.25393 0.4161 0.41315 0.0
H527 H 0.29121 0.44676 0.249 0.0
H528 H 0.29605 0.43685 0.29565 0.0
H529 H 0.2983 0.45505 0.31046 0.0
C530 C 0.29208 0.41308 0.43341 0.0
C531 C 0.30347 0.42618 0.4571 0.0
C532 C 0.28186 0.41401 0.40028 0.0
C533 C 0.28304 0.42807 0.39004 0.0
C534 C 0.29465 0.4412 0.41258 0.0
H535 H 0.22857 0.45438 0.20684 0.0
H536 H 0.24684 0.45475 0.26857 0.0
C537 C 0.3048 0.44027 0.44579 0.0
C538 C 0.27153 0.42895 0.35863 0.0
H539 H 0.26654 0.4435 0.2482 0.0
C540 C 0.25664 0.42204 0.37698 0.0
C541 C 0.27524 0.43689 0.31196 0.0
C542 C 0.29104 0.44423 0.29024 0.0
C543 C 0.24528 0.42287 0.34972 0.0
C544 C 0.24891 0.43058 0.30257 0.0
C545 C 0.26386 0.43768 0.28457 0.0
C546 C 0.23716 0.43042 0.26941 0.0
C547 C 0.22953 0.4156 0.37179 0.0
C548 C 0.2257 0.41663 0.24995 0.0
C549 C 0.21533 0.41639 0.215 0.0
C550 C 0.21629 0.42996 0.1986 0.0
C551 C 0.22754 0.44377 0.21908 0.0
C552 C 0.23798 0.444 0.25411 0.0
H553 H 0.22964 0.41427 0.41377 0.0
H554 H 0.224 0.42234 0.36297 0.0
H555 H 0.22257 0.40416 0.355 0.0
H556 H 0.22508 0.40607 0.26054 0.0
H557 H 0.20681 0.40558 0.19974 0.0
H558 H 0.20149 0.40219 0.94213 0.0
H559 H 0.21925 0.40073 0.88233 0.0
H560 H 0.25399 0.44543 0.92761 0.0
H561 H 0.2365 0.44695 0.98724 0.0
H562 H 0.23549 0.42138 0.80045 0.0
H563 H 0.27402 0.41909 0.94501 0.0
H564 H 0.25507 0.41502 0.96005 0.0
H565 H 0.27014 0.43428 0.95396 0.0
C566 C 0.21293 0.41166 0.93929 0.0
C567 C 0.21765 0.42464 0.96941 0.0
C568 C 0.22303 0.41082 0.90527 0.0
C569 C 0.23796 0.42287 0.9014 0.0
C570 C 0.24259 0.43589 0.93091 0.0
H571 H 0.31694 0.44583 0.71744 0.0
H572 H 0.2987 0.44541 0.77942 0.0
C573 C 0.23255 0.43677 0.9647 0.0
C574 C 0.2487 0.42217 0.8655 0.0
H575 H 0.28284 0.42368 0.85933 0.0
C576 C 0.24577 0.42173 0.8132 0.0
C577 C 0.26212 0.42274 0.88255 0.0
C578 C 0.26551 0.42268 0.93847 0.0
C579 C 0.25615 0.42223 0.77721 0.0
C580 C 0.26964 0.42293 0.79426 0.0
C581 C 0.2725 0.42323 0.84658 0.0
C582 C 0.28078 0.42306 0.7582 0.0
C583 C 0.2528 0.42239 0.72129 0.0
C584 C 0.27676 0.41051 0.72685 0.0
C585 C 0.28708 0.41071 0.6917 0.0
C586 C 0.30163 0.42346 0.68749 0.0
C587 C 0.30579 0.43589 0.71985 0.0
C588 C 0.29541 0.43567 0.75514 0.0
H589 H 0.24395 0.42551 0.71483 0.0
H590 H 0.26318 0.43045 0.70017 0.0
H591 H 0.24867 0.41092 0.70516 0.0
H592 H 0.2656 0.40057 0.72943 0.0
H593 H 0.28359 0.40092 0.66748 0.0
H594 H 0.78231 0.8903 0.92258 0.0
H595 H 0.78432 0.90843 0.85693 0.0
H596 H 0.73989 0.90033 0.89696 0.0
H597 H 0.73775 0.88232 0.96202 0.0
H598 H 0.76166 0.90259 0.77201 0.0
H599 H 0.77001 0.94754 0.90968 0.0
H600 H 0.77391 0.93258 0.92544 0.0
H601 H 0.75475 0.92885 0.92408 0.0
C602 C 0.77298 0.89237 0.91715 0.0
C603 C 0.75991 0.88498 0.94746 0.0
C604 C 0.77414 0.90268 0.87978 0.0
C605 C 0.76231 0.90576 0.87283 0.0
C606 C 0.74918 0.89818 0.90237 0.0
H607 H 0.74112 0.96359 0.6961 0.0
H608 H 0.74149 0.94513 0.75495 0.0
C609 C 0.74798 0.88788 0.93937 0.0
C610 C 0.7635 0.91693 0.83492 0.0
H611 H 0.76456 0.95074 0.82422 0.0
C612 C 0.76248 0.91321 0.78315 0.0
C613 C 0.76445 0.93066 0.85004 0.0
C614 C 0.76596 0.93526 0.90531 0.0
C615 C 0.76187 0.92274 0.74585 0.0
C616 C 0.76258 0.93639 0.76105 0.0
C617 C 0.76391 0.94021 0.81284 0.0
C618 C 0.76199 0.94693 0.72392 0.0
C619 C 0.75996 0.91789 0.69077 0.0
C620 C 0.77341 0.95402 0.68731 0.0
C621 C 0.77319 0.96449 0.65371 0.0
C622 C 0.76162 0.96813 0.65649 0.0
C623 C 0.75015 0.96097 0.69307 0.0
C624 C 0.75036 0.95046 0.72665 0.0
H625 H 0.75578 0.90557 0.68692 0.0
H626 H 0.75195 0.92056 0.67101 0.0
H627 H 0.77107 0.9241 0.67122 0.0
H628 H 0.78264 0.95168 0.68535 0.0
H629 H 0.78223 0.9699 0.62604 0.0
H630 H 0.28771 0.98474 0.96001 0.0
H631 H 0.26908 0.96468 0.90456 0.0
H632 H 0.29248 0.93957 0.92282 0.0
H633 H 0.31094 0.95935 0.97841 0.0
H634 H 0.27372 0.95288 0.81312 0.0
H635 H 0.2488 0.9089 0.96379 0.0
H636 H 0.26063 0.92878 0.97801 0.0
H637 H 0.269 0.91773 0.95816 0.0
C638 C 0.2889 0.97497 0.95193 0.0
C639 C 0.30069 0.97354 0.97372 0.0
C640 C 0.27825 0.96353 0.92047 0.0
C641 C 0.27926 0.95053 0.91065 0.0
C642 C 0.29131 0.94934 0.93102 0.0
H643 H 0.22963 0.87103 0.71991 0.0
H644 H 0.24702 0.88978 0.78165 0.0
C645 C 0.3019 0.96071 0.96245 0.0
C646 C 0.26787 0.93826 0.87843 0.0
H647 H 0.24136 0.90064 0.87851 0.0
C648 C 0.26657 0.94149 0.82743 0.0
C649 C 0.25865 0.9234 0.89736 0.0
C650 C 0.2592 0.91948 0.95244 0.0
C651 C 0.25642 0.93015 0.79444 0.0
C652 C 0.24721 0.9153 0.81334 0.0
C653 C 0.2485 0.91205 0.86432 0.0
C654 C 0.23592 0.90313 0.78067 0.0
C655 C 0.2558 0.93408 0.73939 0.0
C656 C 0.22368 0.90421 0.76153 0.0
C657 C 0.21383 0.89361 0.72652 0.0
C658 C 0.21599 0.88169 0.71032 0.0
C659 C 0.22774 0.88012 0.73174 0.0
C660 C 0.23767 0.89081 0.76682 0.0
H661 H 0.26598 0.9449 0.72828 0.0
H662 H 0.25479 0.92496 0.71375 0.0
H663 H 0.24571 0.93534 0.73348 0.0
H664 H 0.22202 0.91351 0.77262 0.0
H665 H 0.20477 0.89502 0.71103 0.0
H666 H 0.4437 0.30367 0.81337 0.0
H667 H 0.44402 0.28324 0.76497 0.0
H668 H 0.39935 0.25162 0.82036 0.0
H669 H 0.3989 0.27187 0.86874 0.0
H670 H 0.43762 0.25213 0.80453 0.0
H671 H 0.39761 0.25133 0.65825 0.0
H672 H 0.40864 0.26757 0.6985 0.0
H673 H 0.39266 0.251 0.72424 0.0
C674 C 0.434 0.29235 0.8154 0.0
C675 C 0.42124 0.28937 0.84447 0.0
C676 C 0.43422 0.28072 0.78797 0.0
C677 C 0.42167 0.26602 0.78909 0.0
C678 C 0.40908 0.26294 0.81895 0.0
H679 H 0.40414 0.19305 0.5774 0.0
H680 H 0.40122 0.20581 0.6521 0.0
C681 C 0.40887 0.27452 0.84647 0.0
C682 C 0.42145 0.25405 0.75712 0.0
H683 H 0.40657 0.23437 0.64727 0.0
C684 C 0.43077 0.24813 0.7703 0.0
C685 C 0.41234 0.2488 0.71302 0.0
C686 C 0.40227 0.255 0.69721 0.0
C687 C 0.43144 0.2372 0.7397 0.0
C688 C 0.42282 0.23241 0.69431 0.0
C689 C 0.41311 0.23799 0.68222 0.0
C690 C 0.4249 0.22303 0.6558 0.0
C691 C 0.44141 0.23096 0.75616 0.0
C692 C 0.4392 0.22831 0.63388 0.0
C693 C 0.44089 0.22104 0.59159 0.0
C694 C 0.42827 0.20847 0.56999 0.0
C695 C 0.41406 0.20271 0.59336 0.0
C696 C 0.41238 0.20999 0.63592 0.0
H697 H 0.44263 0.2313 0.79828 0.0
H698 H 0.43686 0.21912 0.74303 0.0
H699 H 0.45288 0.23803 0.7397 0.0
H700 H 0.44895 0.23856 0.64766 0.0
H701 H 0.45199 0.22575 0.57436 0.0
H702 H 0.9033 0.21491 0.85034 0.0
H703 H 0.92221 0.23343 0.79254 0.0
H704 H 0.88895 0.2435 0.73178 0.0
H705 H 0.86985 0.22497 0.79008 0.0
H706 H 0.92063 0.23332 0.68477 0.0
H707 H 0.92536 0.28541 0.76984 0.0
H708 H 0.9169 0.26754 0.80324 0.0
H709 H 0.90644 0.27079 0.75471 0.0
C710 C 0.89999 0.2211 0.82483 0.0
C711 C 0.88511 0.21854 0.82472 0.0
C712 C 0.91082 0.23166 0.79187 0.0
C713 C 0.90699 0.23991 0.75846 0.0
C714 C 0.89214 0.23738 0.758 0.0
H715 H 0.95083 0.30453 0.52151 0.0
H716 H 0.93427 0.28722 0.58675 0.0
C717 C 0.88125 0.22676 0.79104 0.0
C718 C 0.9185 0.25083 0.72306 0.0
H719 H 0.93817 0.28825 0.69166 0.0
C720 C 0.92456 0.24535 0.68635 0.0
C721 C 0.9236 0.26648 0.72565 0.0
C722 C 0.91786 0.27298 0.76572 0.0
C723 C 0.93528 0.2551 0.65089 0.0
C724 C 0.94024 0.27074 0.65305 0.0
C725 C 0.93435 0.27624 0.69033 0.0
C726 C 0.9507 0.28145 0.61471 0.0
C727 C 0.9408 0.24852 0.61036 0.0
C728 C 0.96551 0.28407 0.60928 0.0
C729 C 0.97505 0.29396 0.57165 0.0
C730 C 0.96988 0.3014 0.53937 0.0
C731 C 0.95514 0.29894 0.54573 0.0
C732 C 0.94566 0.28908 0.58305 0.0
H733 H 0.93352 0.23603 0.60747 0.0
H734 H 0.94115 0.25358 0.57259 0.0
H735 H 0.95245 0.2511 0.61987 0.0
H736 H 0.96967 0.27846 0.63404 0.0
H737 H 0.98639 0.29572 0.56768 0.0
H738 H 0.97025 0.7843 0.83455 0.0
H739 H 0.9515 0.78416 0.77654 0.0
H740 H 0.93985 0.73945 0.72516 0.0
H741 H 0.95855 0.73941 0.78387 0.0
H742 H 0.95058 0.78097 0.67042 0.0
H743 H 0.89872 0.73539 0.76277 0.0
H744 H 0.91687 0.74484 0.79442 0.0
H745 H 0.91288 0.73042 0.74782 0.0
C746 C 0.96367 0.7744 0.81105 0.0
C747 C 0.96582 0.76184 0.81374 0.0
C748 C 0.95298 0.77435 0.77798 0.0
C749 C 0.9442 0.76173 0.74718 0.0
C750 C 0.94635 0.74918 0.74942 0.0
H751 H 0.8784 0.74008 0.51232 0.0
H752 H 0.89584 0.74071 0.577 0.0
C753 C 0.95708 0.74921 0.78265 0.0
C754 C 0.93315 0.762 0.71162 0.0
H755 H 0.89553 0.74443 0.68311 0.0
C756 C 0.93852 0.77305 0.67326 0.0
C757 C 0.91747 0.75167 0.71582 0.0
C758 C 0.91107 0.73998 0.75766 0.0
C759 C 0.92863 0.77381 0.63794 0.0
C760 C 0.91296 0.76339 0.64184 0.0
C761 C 0.90757 0.75243 0.68051 0.0
C762 C 0.90207 0.76309 0.60426 0.0
C763 C 0.93506 0.78543 0.59586 0.0
C764 C 0.89967 0.77542 0.59882 0.0
C765 C 0.8897 0.77513 0.56165 0.0
C766 C 0.882 0.76246 0.52977 0.0
C767 C 0.88421 0.75002 0.53623 0.0
C768 C 0.89414 0.75033 0.5732 0.0
H769 H 0.9475 0.79041 0.59202 0.0
H770 H 0.92966 0.78034 0.55882 0.0
H771 H 0.93274 0.79473 0.60439 0.0
H772 H 0.90554 0.78527 0.62312 0.0
H773 H 0.88814 0.78482 0.55759 0.0
H774 H 0.89754 0.7868 0.30329 0.0
H775 H 0.91692 0.78792 0.24601 0.0
H776 H 0.89154 0.73935 0.22934 0.0
H777 H 0.8719 0.73815 0.28612 0.0
H778 H 0.93414 0.77421 0.26203 0.0
H779 H 0.90131 0.75424 0.08227 0.0
H780 H 0.89487 0.76046 0.13628 0.0
H781 H 0.89257 0.74179 0.13543 0.0
C782 C 0.89597 0.77637 0.2869 0.0
C783 C 0.88321 0.76238 0.299 0.0
C784 C 0.90707 0.77704 0.25433 0.0
C785 C 0.90558 0.76375 0.23323 0.0
C786 C 0.89274 0.74976 0.24459 0.0
H787 H 0.95984 0.74064 0.04648 0.0
H788 H 0.94204 0.74116 0.10733 0.0
C789 C 0.88157 0.74909 0.27707 0.0
C790 C 0.91784 0.76449 0.20128 0.0
H791 H 0.92545 0.75604 0.08329 0.0
C792 C 0.9323 0.77033 0.22282 0.0
C793 C 0.91534 0.75947 0.15021 0.0
C794 C 0.90022 0.75377 0.12443 0.0
C795 C 0.94429 0.77092 0.19488 0.0
C796 C 0.94171 0.76566 0.14413 0.0
C797 C 0.92731 0.75999 0.12242 0.0
C798 C 0.95366 0.76558 0.1128 0.0
C799 C 0.95951 0.77679 0.22007 0.0
C800 C 0.96626 0.77917 0.09679 0.0
C801 C 0.97652 0.77892 0.06202 0.0
C802 C 0.97417 0.76507 0.04267 0.0
C803 C 0.96189 0.75149 0.0606 0.0
C804 C 0.95171 0.75175 0.09529 0.0
H805 H 0.95882 0.77761 0.26209 0.0
H806 H 0.96427 0.76935 0.21128 0.0
H807 H 0.96747 0.78826 0.20513 0.0
H808 H 0.96781 0.78996 0.1095 0.0
H809 H 0.98585 0.78954 0.04857 0.0
H810 H 0.44971 0.2339 0.29346 0.0
H811 H 0.44643 0.252 0.24127 0.0
H812 H 0.40875 0.245 0.33505 0.0
H813 H 0.41198 0.22701 0.38739 0.0
H814 H 0.41885 0.2442 0.18819 0.0
H815 H 0.43553 0.29181 0.32404 0.0
H816 H 0.44103 0.27763 0.33233 0.0
H817 H 0.42213 0.2733 0.3476 0.0
C818 C 0.44087 0.23639 0.3033 0.0
C819 C 0.43109 0.22905 0.34435 0.0
C820 C 0.439 0.24668 0.27352 0.0
C821 C 0.42744 0.24989 0.28476 0.0
C822 C 0.41788 0.24283 0.32636 0.0
H823 H 0.39268 0.2889 0.06319 0.0
H824 H 0.39361 0.2739 0.13479 0.0
C825 C 0.4197 0.2325 0.35598 0.0
C826 C 0.42468 0.25976 0.25078 0.0
H827 H 0.42504 0.29337 0.24527 0.0
C828 C 0.42016 0.25494 0.2006 0.0
C829 C 0.42642 0.27373 0.2674 0.0
C830 C 0.43165 0.27954 0.32066 0.0
C831 C 0.41742 0.26379 0.16623 0.0
C832 C 0.41907 0.27772 0.18285 0.0
C833 C 0.42355 0.28254 0.23311 0.0
C834 C 0.41773 0.28805 0.14676 0.0
C835 C 0.41326 0.25841 0.11194 0.0
C836 C 0.43083 0.30129 0.13182 0.0
C837 C 0.43033 0.30981 0.09121 0.0
C838 C 0.41669 0.30525 0.06512 0.0
C839 C 0.40333 0.29263 0.08264 0.0
C840 C 0.40386 0.28404 0.12327 0.0
H841 H 0.41489 0.24865 0.10331 0.0
H842 H 0.40118 0.25482 0.10537 0.0
H843 H 0.42016 0.2677 0.08484 0.0
H844 H 0.44161 0.30456 0.14967 0.0
H845 H 0.44078 0.31957 0.07871 0.0
H846 H 0.97539 0.28557 0.31338 0.0
H847 H 0.9562 0.26669 0.25703 0.0
H848 H 0.9358 0.29467 0.24012 0.0
H849 H 0.95516 0.3138 0.29602 0.0
H850 H 0.9251 0.25136 0.27464 0.0
H851 H 0.93976 0.28365 0.09306 0.0
H852 H 0.95253 0.28949 0.1467 0.0
H853 H 0.93697 0.29306 0.14627 0.0
C854 C 0.96693 0.28781 0.29714 0.0
C855 C 0.96675 0.30115 0.30893 0.0
C856 C 0.95598 0.277 0.26512 0.0
C857 C 0.94469 0.27936 0.24428 0.0
C858 C 0.9446 0.29278 0.25525 0.0
H859 H 0.86799 0.22565 0.05028 0.0
H860 H 0.88558 0.24374 0.11221 0.0
C861 C 0.95562 0.30366 0.2872 0.0
C862 C 0.93265 0.26742 0.21289 0.0
H863 H 0.91715 0.25988 0.09405 0.0
C864 C 0.92336 0.25318 0.2351 0.0
C865 C 0.93047 0.2699 0.16144 0.0
C866 C 0.94053 0.2848 0.13519 0.0
C867 C 0.91177 0.24134 0.2072 0.0
C868 C 0.90961 0.24383 0.15579 0.0
C869 C 0.91886 0.25808 0.13365 0.0
C870 C 0.8979 0.23182 0.12376 0.0
C871 C 0.90181 0.22635 0.23302 0.0
C872 C 0.89888 0.219 0.11069 0.0
C873 C 0.88881 0.2086 0.07532 0.0
C874 C 0.87776 0.21101 0.0524 0.0
C875 C 0.87644 0.22354 0.06724 0.0
C876 C 0.88646 0.23388 0.10254 0.0
H877 H 0.90266 0.22736 0.27518 0.0
H878 H 0.88979 0.22168 0.22179 0.0
H879 H 0.90536 0.21815 0.22109 0.0
H880 H 0.9078 0.21737 0.1262 0.0
H881 H 0.89011 0.19908 0.06433 0.0
H882 H 0.10687 0.71014 0.34307 0.0
H883 H 0.12501 0.7336 0.38492 0.0
H884 H 0.16191 0.72948 0.32247 0.0
H885 H 0.14367 0.70599 0.27916 0.0
H886 H 0.14638 0.73716 0.45692 0.0
H887 H 0.1733 0.77296 0.28572 0.0
H888 H 0.15578 0.75516 0.28198 0.0
H889 H 0.17337 0.7554 0.29005 0.0
C890 C 0.11884 0.71427 0.33781 0.0
C891 C 0.12387 0.70628 0.30778 0.0
C892 C 0.12919 0.72765 0.36191 0.0
C893 C 0.14479 0.73329 0.3567 0.0
C894 C 0.14991 0.72542 0.3264 0.0
H895 H 0.19659 0.81128 0.56301 0.0
H896 H 0.19017 0.78752 0.51914 0.0
C897 C 0.1395 0.71202 0.30178 0.0
C898 C 0.15539 0.74732 0.38403 0.0
H899 H 0.18006 0.78491 0.36535 0.0
C900 C 0.15398 0.74758 0.43714 0.0
C901 C 0.16528 0.76082 0.35789 0.0
C902 C 0.16703 0.76121 0.30074 0.0
C903 C 0.16133 0.76119 0.46451 0.0
C904 C 0.17065 0.77483 0.43803 0.0
C905 C 0.17292 0.7744 0.38543 0.0
C906 C 0.17602 0.78975 0.46234 0.0
C907 C 0.15814 0.76097 0.52076 0.0
C908 C 0.1706 0.79905 0.44393 0.0
C909 C 0.17434 0.81258 0.4684 0.0
C910 C 0.18354 0.81707 0.51199 0.0
C911 C 0.18935 0.80799 0.52975 0.0
C912 C 0.18567 0.79443 0.50486 0.0
H913 H 0.14876 0.74981 0.53349 0.0
H914 H 0.16843 0.76346 0.54266 0.0
H915 H 0.15514 0.76976 0.53026 0.0
H916 H 0.1631 0.79564 0.41127 0.0
H917 H 0.16974 0.81936 0.45366 0.0
H918 H 0.48017 0.48962 0.34683 0.0
H919 H 0.45708 0.48416 0.39164 0.0
H920 H 0.45622 0.52075 0.31225 0.0
H921 H 0.47934 0.52614 0.26611 0.0
H922 H 0.45182 0.50294 0.45547 0.0
H923 H 0.41403 0.48441 0.28539 0.0
H924 H 0.43272 0.48665 0.28356 0.0
H925 H 0.43047 0.50301 0.28374 0.0
C926 C 0.47505 0.49647 0.33862 0.0
C927 C 0.48148 0.50824 0.30273 0.0
C928 C 0.46191 0.49339 0.36448 0.0
C929 C 0.45494 0.50202 0.35514 0.0
C930 C 0.46134 0.51385 0.31951 0.0
H931 H 0.37497 0.47417 0.55472 0.0
H932 H 0.3988 0.49183 0.51177 0.0
C933 C 0.47452 0.5169 0.29324 0.0
C934 C 0.44078 0.49811 0.38244 0.0
H935 H 0.40257 0.48041 0.36538 0.0
C936 C 0.44104 0.49829 0.43592 0.0
C937 C 0.4268 0.4921 0.35657 0.0
C938 C 0.42585 0.4914 0.29917 0.0
C939 C 0.42759 0.49158 0.46432 0.0
C940 C 0.41359 0.48479 0.43834 0.0
C941 C 0.41337 0.48565 0.385 0.0
C942 C 0.39921 0.47462 0.46466 0.0
C943 C 0.42844 0.49082 0.52154 0.0
C944 C 0.39157 0.45921 0.45205 0.0
C945 C 0.37805 0.44922 0.47604 0.0
C946 C 0.37188 0.45442 0.51332 0.0
C947 C 0.37956 0.46986 0.52636 0.0
C948 C 0.39314 0.47993 0.50194 0.0
H949 H 0.44019 0.49496 0.53512 0.0
H950 H 0.42424 0.4979 0.53922 0.0
H951 H 0.42116 0.47901 0.53501 0.0
H952 H 0.39613 0.45488 0.4236 0.0
H953 H 0.37241 0.43739 0.46521 0.0
H954 H 0.71304 0.99569 0.56197 0.0
H955 H 0.69449 0.00188 0.52648 0.0
H956 H 0.73078 0.04261 0.46036 0.0
H957 H 0.74926 0.0365 0.49501 0.0
H958 H 0.6914 0.02874 0.53449 0.0
H959 H 0.70365 0.01804 0.33823 0.0
H960 H 0.70907 0.01149 0.39397 0.0
H961 H 0.72042 0.03078 0.37298 0.0
C962 C 0.71703 0.00606 0.54046 0.0
C963 C 0.73256 0.01554 0.53072 0.0
C964 C 0.70645 0.00955 0.52019 0.0
C965 C 0.7113 0.02251 0.48998 0.0
C966 C 0.72683 0.03239 0.48274 0.0
H967 H 0.68072 0.08008 0.387 0.0
H968 H 0.68879 0.06508 0.43596 0.0
C969 C 0.73736 0.02891 0.50274 0.0
C970 C 0.70033 0.02566 0.46404 0.0
H971 H 0.69154 0.03294 0.34614 0.0
C972 C 0.69118 0.02941 0.49329 0.0
C973 C 0.69981 0.02613 0.41031 0.0
C974 C 0.70864 0.02124 0.37698 0.0
C975 C 0.68231 0.03471 0.47008 0.0
C976 C 0.68291 0.03653 0.41651 0.0
C977 C 0.69121 0.03171 0.38724 0.0
C978 C 0.6764 0.04483 0.3903 0.0
C979 C 0.67265 0.03857 0.50325 0.0
C980 C 0.66696 0.03854 0.34768 0.0
C981 C 0.66253 0.04722 0.31896 0.0
C982 C 0.66752 0.06232 0.33242 0.0
C983 C 0.67665 0.06845 0.3758 0.0
C984 C 0.68113 0.05983 0.40423 0.0
H985 H 0.669 0.0315 0.53826 0.0
H986 H 0.67939 0.05058 0.51532 0.0
H987 H 0.66245 0.03698 0.48263 0.0
H988 H 0.66332 0.02704 0.33596 0.0
H989 H 0.65547 0.04221 0.28573 0.0
H990 H 0.70131 0.10138 0.14303 0.0
H991 H 0.72487 0.11821 0.09907 0.0
H992 H 0.72631 0.15683 0.17171 0.0
H993 H 0.70259 0.13992 0.21663 0.0
H994 H 0.73056 0.14272 0.03183 0.0
H995 H 0.76824 0.1609 0.20226 0.0
H996 H 0.74953 0.14444 0.20346 0.0
H997 H 0.75176 0.16303 0.20378 0.0
C998 C 0.70665 0.11344 0.14999 0.0
C999 C 0.70015 0.11934 0.18343 0.0
C1000 C 0.72007 0.12304 0.12461 0.0
C1001 C 0.7273 0.13873 0.13218 0.0
C1002 C 0.72093 0.14473 0.16573 0.0
H1003 H 0.80869 0.19129 0.93903 0.0
H1004 H 0.78456 0.18476 0.98066 0.0
C1005 C 0.70742 0.13508 0.19132 0.0
C1006 C 0.7416 0.1485 0.10491 0.0
H1007 H 0.77985 0.16773 0.12214 0.0
C1008 C 0.74136 0.1485 0.05143 0.0
C1009 C 0.7556 0.15597 0.13084 0.0
C1010 C 0.75644 0.15611 0.18824 0.0
C1011 C 0.75482 0.15498 0.02309 0.0
C1012 C 0.7688 0.1617 0.0491 0.0
C1013 C 0.76905 0.16256 0.10249 0.0
C1014 C 0.78309 0.16578 0.02247 0.0
C1015 C 0.754 0.15367 0.9658 0.0
C1016 C 0.79011 0.15723 0.03216 0.0
C1017 C 0.80375 0.1609 0.00869 0.0
C1018 C 0.81068 0.17323 0.97505 0.0
C1019 C 0.80353 0.18167 0.96457 0.0
C1020 C 0.7898 0.17798 0.98828 0.0
H1021 H 0.74218 0.14679 0.95184 0.0
H1022 H 0.75902 0.16514 0.94877 0.0
H1023 H 0.76065 0.14846 0.95212 0.0
H1024 H 0.78504 0.14772 0.05822 0.0
H1025 H 0.80897 0.15418 0.01754 0.0
H1026 H 0.03036 0.75061 0.00683 0.0
H1027 H 0.03699 0.73323 0.04732 0.0
H1028 H -0.00295 0.69522 0.98384 0.0
H1029 H 0.99046 0.7127 0.94197 0.0
H1030 H 0.01982 0.71118 0.11853 0.0
H1031 H 0.03092 0.68635 0.94622 0.0
H1032 H 0.02965 0.70336 0.94342 0.0
H1033 H 0.0128 0.68525 0.95011 0.0
C1034 C 0.02304 0.73856 0.00106 0.0
C1035 C 0.00991 0.73299 0.97122 0.0
C1036 C 0.02682 0.72865 0.02434 0.0
C1037 C 0.01754 0.71296 0.01844 0.0
C1038 C 0.00446 0.7073 0.98826 0.0
H1039 H 0.0431 0.66058 0.22315 0.0
H1040 H 0.02648 0.66763 0.17782 0.0
C1041 C 0.00071 0.71728 0.96451 0.0
C1042 C 0.02166 0.70279 0.04525 0.0
H1043 H 0.03585 0.6792 0.02575 0.0
C1044 C 0.02311 0.70399 0.09844 0.0
C1045 C 0.02592 0.69346 0.0187 0.0
C1046 C 0.02487 0.69203 0.96144 0.0
C1047 C 0.02959 0.69683 0.12565 0.0
C1048 C 0.03438 0.68792 0.09891 0.0
C1049 C 0.03211 0.68601 0.04604 0.0
C1050 C 0.04362 0.68229 0.12384 0.0
C1051 C 0.03217 0.6997 0.18217 0.0
C1052 C 0.05854 0.6878 0.10739 0.0
C1053 C 0.06795 0.6837 0.13272 0.0
C1054 C 0.06262 0.67405 0.17517 0.0
C1055 C 0.04753 0.66818 0.19086 0.0
C1056 C 0.03806 0.67221 0.16512 0.0
H1057 H 0.03034 0.70904 0.19503 0.0
H1058 H 0.02417 0.68931 0.20324 0.0
H1059 H 0.04386 0.70258 0.1926 0.0
H1060 H 0.06306 0.69561 0.07566 0.0
H1061 H 0.0795 0.68835 0.1196 0.0
H1062 H 0.46954 0.36717 0.93193 0.0
H1063 H 0.48773 0.39154 0.97079 0.0
H1064 H 0.4508 0.39691 0.02502 0.0
H1065 H 0.43267 0.37275 0.98681 0.0
H1066 H 0.49142 0.42193 0.95983 0.0
H1067 H 0.47529 0.39852 0.1548 0.0
H1068 H 0.471 0.38669 0.09902 0.0
H1069 H 0.45931 0.39463 0.11561 0.0
C1070 C 0.46534 0.37368 0.95155 0.0
C1071 C 0.4497 0.36802 0.95678 0.0
C1072 C 0.47572 0.38753 0.97378 0.0
C1073 C 0.47054 0.39579 0.00159 0.0
C1074 C 0.45497 0.39052 0.00453 0.0
H1075 H 0.499 0.48347 0.10165 0.0
H1076 H 0.49144 0.46011 0.05519 0.0
C1077 C 0.44465 0.37675 0.98246 0.0
C1078 C 0.48116 0.40977 0.029 0.0
H1079 H 0.48779 0.42559 0.1473 0.0
C1080 C 0.49089 0.42272 0.00091 0.0
C1081 C 0.48068 0.41064 0.08265 0.0
C1082 C 0.47112 0.39684 0.11489 0.0
C1083 C 0.49931 0.43684 0.0249 0.0
C1084 C 0.49772 0.43795 0.07805 0.0
C1085 C 0.48889 0.42477 0.10649 0.0
C1086 C 0.50362 0.45273 0.10402 0.0
C1087 C 0.50954 0.45046 0.99293 0.0
C1088 C 0.51269 0.4562 0.14777 0.0
C1089 C 0.51689 0.46953 0.17496 0.0
C1090 C 0.51197 0.4795 0.15893 0.0
C1091 C 0.50302 0.47604 0.11487 0.0
C1092 C 0.49883 0.46276 0.08788 0.0
H1093 H 0.51374 0.44715 0.95903 0.0
H1094 H 0.50305 0.45582 0.97906 0.0
H1095 H 0.5194 0.45897 0.01518 0.0
H1096 H 0.51634 0.44849 0.16121 0.0
H1097 H 0.5238 0.47192 0.20879 0.0
H1098 H 0.02114 0.37091 0.53718 0.0
H1099 H 0.02583 0.39407 0.5795 0.0
H1100 H 0.99172 0.39554 0.48647 0.0
H1101 H 0.98717 0.37234 0.44274 0.0
H1102 H 0.01704 0.4226 0.49064 0.0
H1103 H 0.00153 0.4008 0.68616 0.0
H1104 H 0.01465 0.39565 0.66094 0.0
H1105 H -0.00368 0.3884 0.63159 0.0
C1106 C 0.01456 0.37609 0.52583 0.0
C1107 C 0.00377 0.36982 0.48676 0.0
C1108 C 0.01713 0.38925 0.55049 0.0
C1109 C 0.00881 0.39628 0.53718 0.0
C1110 C -0.00191 0.39014 0.49779 0.0
H1111 H 0.03918 0.47674 0.73089 0.0
H1112 H 0.02081 0.45339 0.68729 0.0
C1113 C 0.99556 0.37696 0.47277 0.0
C1114 C 0.01237 0.41069 0.56213 0.0
H1115 H 0.02093 0.42759 0.67879 0.0
C1116 C 0.01752 0.42366 0.5318 0.0
C1117 C 0.01255 0.41206 0.61578 0.0
C1118 C 0.00578 0.39842 0.65037 0.0
C1119 C 0.0243 0.43811 0.55378 0.0
C1120 C 0.02631 0.43956 0.60723 0.0
C1121 C 0.01973 0.42652 0.63771 0.0
C1122 C 0.03683 0.45422 0.63148 0.0
C1123 C 0.02973 0.45169 0.51933 0.0
C1124 C 0.05193 0.46225 0.61509 0.0
C1125 C 0.06235 0.47551 0.63964 0.0
C1126 C 0.05795 0.48089 0.68172 0.0
C1127 C 0.04286 0.47282 0.69853 0.0
C1128 C 0.03237 0.45955 0.67358 0.0
H1129 H 0.02236 0.44888 0.48521 0.0
H1130 H 0.02997 0.4614 0.53935 0.0
H1131 H 0.04133 0.45518 0.50581 0.0
H1132 H 0.05579 0.45808 0.5839 0.0
H1133 H 0.07393 0.48142 0.62605 0.0
H1134 H 0.68904 0.66769 0.58799 0.0
H1135 H 0.71194 0.67456 0.53916 0.0
H1136 H 0.7357 0.67716 0.67821 0.0
H1137 H 0.71261 0.66978 0.72719 0.0
H1138 H 0.73661 0.70123 0.54932 0.0
H1139 H 0.75154 0.65681 0.58478 0.0
H1140 H 0.73302 0.65412 0.59886 0.0
H1141 H 0.74843 0.66412 0.64286 0.0
C1142 C 0.69907 0.66943 0.60805 0.0
C1143 C 0.69913 0.66834 0.66136 0.0
C1144 C 0.71212 0.67329 0.58009 0.0
C1145 C 0.72549 0.67623 0.60494 0.0
C1146 C 0.72541 0.67458 0.65809 0.0
H1147 H 0.81563 0.7415 0.54009 0.0
H1148 H 0.7905 0.72412 0.57364 0.0
C1149 C 0.71227 0.67051 0.68609 0.0
C1150 C 0.7399 0.6831 0.57625 0.0
H1151 H 0.77183 0.68098 0.55518 0.0
C1152 C 0.74415 0.69661 0.54984 0.0
C1153 C 0.74972 0.67705 0.57669 0.0
C1154 C 0.74537 0.66214 0.6019 0.0
C1155 C 0.75824 0.7046 0.5259 0.0
C1156 C 0.76841 0.69905 0.52908 0.0
C1157 C 0.76397 0.68521 0.55332 0.0
C1158 C 0.7841 0.70831 0.51106 0.0
C1159 C 0.76237 0.7192 0.49864 0.0
C1160 C 0.78884 0.70488 0.46534 0.0
C1161 C 0.80324 0.71484 0.44588 0.0
C1162 C 0.81298 0.72829 0.47205 0.0
C1163 C 0.80833 0.7313 0.51885 0.0
C1164 C 0.79402 0.72138 0.53818 0.0
H1165 H 0.75224 0.72021 0.49017 0.0
H1166 H 0.7701 0.7289 0.52306 0.0
H1167 H 0.76836 0.72004 0.46241 0.0
H1168 H 0.78124 0.69482 0.444 0.0
H1169 H 0.80658 0.71224 0.40981 0.0
H1170 H 0.48407 0.20979 0.46929 0.0
H1171 H 0.50215 0.20462 0.51409 0.0
H1172 H 0.47145 0.15666 0.49799 0.0
H1173 H 0.45334 0.16171 0.4541 0.0
H1174 H 0.49251 0.18658 0.60794 0.0
H1175 H 0.51403 0.16258 0.46283 0.0
H1176 H 0.50664 0.17489 0.44668 0.0
H1177 H 0.49395 0.15516 0.45946 0.0
C1178 C 0.48141 0.19817 0.47406 0.0
C1179 C 0.46732 0.18613 0.45842 0.0
C1180 C 0.4917 0.19524 0.49973 0.0
C1181 C 0.48815 0.18027 0.50889 0.0
C1182 C 0.47448 0.16829 0.49056 0.0
H1183 H 0.49123 0.11975 0.70216 0.0
H1184 H 0.48747 0.13822 0.65466 0.0
C1185 C 0.46413 0.17119 0.46569 0.0
C1186 C 0.49754 0.17687 0.54316 0.0
H1187 H 0.51415 0.15508 0.5501 0.0
C1188 C 0.49768 0.1801 0.59522 0.0
C1189 C 0.50426 0.16844 0.52636 0.0
C1190 C 0.50486 0.16517 0.47068 0.0
C1191 C 0.50324 0.17397 0.63138 0.0
C1192 C 0.50882 0.16454 0.61479 0.0
C1193 C 0.50982 0.16234 0.56253 0.0
C1194 C 0.51129 0.1549 0.65073 0.0
C1195 C 0.50222 0.17673 0.68725 0.0
C1196 C 0.52592 0.15845 0.66533 0.0
C1197 C 0.52808 0.14798 0.69324 0.0
C1198 C 0.51565 0.13378 0.70572 0.0
C1199 C 0.50099 0.13062 0.69303 0.0
C1200 C 0.49883 0.14113 0.66594 0.0
H1201 H 0.50001 0.18621 0.69368 0.0
H1202 H 0.49287 0.16632 0.70466 0.0
H1203 H 0.51287 0.17927 0.70697 0.0
H1204 H 0.53564 0.16902 0.6535 0.0
H1205 H 0.53951 0.15062 0.70219 0.0
H1206 H 0.37807 0.00495 0.07825 0.0
H1207 H 0.40342 0.01403 0.04225 0.0
H1208 H 0.39386 0.03731 0.9237 0.0
H1209 H 0.36871 0.02842 0.95921 0.0
H1210 H 0.41228 0.01103 0.93651 0.0
H1211 H 0.43289 0.07025 -0.0021 0.0
H1212 H 0.41631 0.0543 0.02507 0.0
H1213 H 0.41519 0.06175 0.96421 0.0
C1214 C 0.38139 0.01195 0.04442 0.0
C1215 C 0.3715 0.0161 0.02177 0.0
C1216 C 0.3958 0.01708 0.0239 0.0
C1217 C 0.40048 0.02645 0.98078 0.0
C1218 C 0.39047 0.03023 0.95739 0.0
H1219 H 0.4713 0.05719 0.75998 0.0
H1220 H 0.44804 0.04252 0.80936 0.0
C1221 C 0.37612 0.02513 0.97773 0.0
C1222 C 0.41597 0.0328 0.96058 0.0
H1223 H 0.44778 0.06647 0.93623 0.0
C1224 C 0.42017 0.02312 0.93693 0.0
C1225 C 0.42623 0.04853 0.96194 0.0
C1226 C 0.42252 0.05933 0.98905 0.0
C1227 C 0.43424 0.02892 0.91246 0.0
C1228 C 0.44414 0.04477 0.91124 0.0
C1229 C 0.44013 0.05433 0.93687 0.0
C1230 C 0.45849 0.0519 0.88223 0.0
C1231 C 0.43833 0.01806 0.88806 0.0
C1232 C 0.47204 0.06205 0.90676 0.0
C1233 C 0.48522 0.07059 0.87861 0.0
C1234 C 0.4851 0.06912 0.82538 0.0
C1235 C 0.47171 0.0585 0.80099 0.0
C1236 C 0.45845 0.05003 0.82921 0.0
H1237 H 0.43198 0.00663 0.90555 0.0
H1238 H 0.43536 0.01692 0.84702 0.0
H1239 H 0.45065 0.02222 0.89139 0.0
H1240 H 0.4723 0.0637 0.9476 0.0
H1241 H 0.49543 0.07863 0.89846 0.0
H1242 H 0.10547 0.49209 0.85113 0.0
H1243 H 0.12415 0.48713 0.89058 0.0
H1244 H 0.15948 0.52271 0.80104 0.0
H1245 H 0.14065 0.52762 0.76038 0.0
H1246 H 0.16165 0.49694 0.80362 0.0
H1247 H 0.15479 0.51253 -0.00118 0.0
H1248 H 0.13675 0.49924 0.97233 0.0
H1249 H 0.14775 0.51766 0.94366 0.0
C1250 C 0.11721 0.49888 0.83974 0.0
C1251 C 0.12163 0.5103 0.80291 0.0
C1252 C 0.12789 0.49612 0.86268 0.0
C1253 C 0.14324 0.50485 0.8498 0.0
C1254 C 0.1477 0.51601 0.81199 0.0
H1255 H 0.19585 0.47851 0.04692 0.0
H1256 H 0.1901 0.4959 0.00031 0.0
C1257 C 0.13695 0.51875 0.78872 0.0
C1258 C 0.15432 0.50165 0.87482 0.0
H1259 H 0.16351 0.4943 0.99201 0.0
C1260 C 0.16237 0.4967 0.8448 0.0
C1261 C 0.15565 0.50179 0.92847 0.0
C1262 C 0.1484 0.50827 0.96259 0.0
C1263 C 0.17054 0.49051 0.86723 0.0
C1264 C 0.17028 0.48892 0.92084 0.0
C1265 C 0.16347 0.49523 0.95085 0.0
C1266 C 0.17514 0.47907 0.94603 0.0
C1267 C 0.17893 0.48527 0.83315 0.0
C1268 C 0.16852 0.46385 0.9313 0.0
C1269 C 0.17179 0.45397 0.95761 0.0
C1270 C 0.18157 0.45905 -0.00024 0.0
C1271 C 0.18826 0.4743 0.01456 0.0
C1272 C 0.18504 0.48424 0.9879 0.0
H1273 H 0.18309 0.49239 0.79833 0.0
H1274 H 0.1887 0.48563 0.85306 0.0
H1275 H 0.1711 0.47347 0.82078 0.0
H1276 H 0.16045 0.45945 0.9003 0.0
H1277 H 0.16639 0.44226 0.94547 0.0
H1278 H 0.65309 0.70512 0.76114 0.0
H1279 H 0.65887 0.72901 0.80297 0.0
H1280 H 0.70118 0.73427 0.85687 0.0
H1281 H 0.69549 0.71057 0.81597 0.0
H1282 H 0.68189 0.73636 0.93352 0.0
H1283 H 0.69184 0.77348 0.76502 0.0
H1284 H 0.67487 0.75522 0.76725 0.0
H1285 H 0.6929 0.75637 0.76046 0.0
C1286 C 0.66372 0.71153 0.78127 0.0
C1287 C 0.67384 0.706 0.78544 0.0
C1288 C 0.66698 0.72512 0.80513 0.0
C1289 C 0.68042 0.73333 0.83302 0.0
C1290 C 0.6907 0.72803 0.83573 0.0
H1291 H 0.74231 0.81757 0.94131 0.0
H1292 H 0.72537 0.79414 0.89699 0.0
C1293 C 0.68746 0.71452 0.81218 0.0
C1294 C 0.68385 0.74719 0.86136 0.0
H1295 H 0.69787 0.78506 0.84547 0.0
C1296 C 0.68508 0.74699 0.91455 0.0
C1297 C 0.68795 0.76094 0.8362 0.0
C1298 C 0.68692 0.76167 0.77906 0.0
C1299 C 0.69133 0.76039 0.94307 0.0
C1300 C 0.69623 0.77429 0.91759 0.0
C1301 C 0.69404 0.77435 0.86477 0.0
C1302 C 0.70583 0.78892 0.94344 0.0
C1303 C 0.69366 0.75971 -0.00043 0.0
C1304 C 0.70042 0.7938 0.98419 0.0
C1305 C 0.71017 0.80721 0.01008 0.0
C1306 C 0.72542 0.8159 0.99526 0.0
C1307 C 0.73065 0.81109 0.95381 0.0
C1308 C 0.72096 0.79775 0.9282 0.0
H1309 H 0.69106 0.74824 0.01207 0.0
H1310 H 0.70554 0.76794 0.01018 0.0
H1311 H 0.68616 0.76276 0.02073 0.0
H1312 H 0.68872 0.78719 0.99614 0.0
H1313 H 0.70582 0.81073 0.04165 0.0
H1314 H 0.79545 0.02716 0.7045 0.0
H1315 H 0.81173 0.05004 0.7534 0.0
H1316 H 0.81893 0.07723 0.61913 0.0
H1317 H 0.80319 0.05422 0.56939 0.0
H1318 H 0.84423 0.08889 0.67966 0.0
H1319 H 0.79332 0.07532 0.79506 0.0
H1320 H 0.79854 0.06096 0.79738 0.0
H1321 H 0.79235 0.06499 0.73821 0.0
C1322 C 0.80076 0.03801 0.68526 0.0
C1323 C 0.79793 0.03903 0.6335 0.0
C1324 C 0.80998 0.05105 0.71323 0.0
C1325 C 0.81612 0.06533 0.69023 0.0
C1326 C 0.81418 0.0663 0.63765 0.0
H1327 H 0.84608 0.15573 0.77748 0.0
H1328 H 0.84051 0.13235 0.73387 0.0
C1329 C 0.8052 0.05319 0.60931 0.0
C1330 C 0.82331 0.07922 0.72173 0.0
H1331 H 0.81605 0.09705 0.81845 0.0
C1332 C 0.83812 0.09065 0.71021 0.0
C1333 C 0.81524 0.08151 0.76137 0.0
C1334 C 0.79894 0.07012 0.7735 0.0
C1335 C 0.84502 0.10439 0.73709 0.0
C1336 C 0.83688 0.10665 0.77631 0.0
C1337 C 0.82227 0.09511 0.7887 0.0
C1338 C 0.84256 0.12142 0.80155 0.0
C1339 C 0.86084 0.11649 0.7231 0.0
C1340 C 0.84555 0.12294 0.85402 0.0
C1341 C 0.84879 0.13633 0.87909 0.0
C1342 C 0.84874 0.14819 0.85205 0.0
C1343 C 0.84611 0.14673 0.79928 0.0
C1344 C 0.84307 0.13346 0.77423 0.0
H1345 H 0.86678 0.11186 0.70029 0.0
H1346 H 0.86028 0.12533 0.70013 0.0
H1347 H 0.86758 0.12199 0.75784 0.0
H1348 H 0.84499 0.11364 0.87572 0.0
H1349 H 0.85077 0.13717 0.9198 0.0
H1350 H 0.14571 0.82351 0.67402 0.0
H1351 H 0.12162 0.8171 0.71363 0.0
H1352 H 0.12401 0.85706 0.64829 0.0
H1353 H 0.14809 0.86336 0.6072 0.0
H1354 H 0.11673 0.83419 0.78371 0.0
H1355 H 0.0813 0.82387 0.61065 0.0
H1356 H 0.09955 0.82507 0.6082 0.0
H1357 H 0.09834 0.84196 0.61478 0.0
C1358 C 0.14104 0.83086 0.66762 0.0
C1359 C 0.14872 0.84391 0.63749 0.0
C1360 C 0.12731 0.82721 0.69039 0.0
C1361 C 0.12102 0.83657 0.68373 0.0
C1362 C 0.12857 0.84957 0.65324 0.0
H1363 H 0.04323 0.8125 0.88766 0.0
H1364 H 0.06703 0.82886 0.84255 0.0
C1365 C 0.14231 0.85316 0.62994 0.0
C1366 C 0.10674 0.83267 0.71019 0.0
H1367 H 0.06918 0.81959 0.68995 0.0
C1368 C 0.10634 0.83118 0.76339 0.0
C1369 C 0.09327 0.82881 0.68336 0.0
C1370 C 0.09301 0.82988 0.62607 0.0
C1371 C 0.09267 0.82504 0.79032 0.0
C1372 C 0.07911 0.82068 0.76331 0.0
C1373 C 0.07964 0.82301 0.71045 0.0
C1374 C 0.06414 0.81172 0.78787 0.0
C1375 C 0.09278 0.82235 0.84684 0.0
C1376 C 0.05444 0.79692 0.77087 0.0
C1377 C 0.04086 0.78768 0.79602 0.0
C1378 C 0.03675 0.79305 0.83888 0.0
C1379 C 0.04623 0.80804 0.85504 0.0
C1380 C 0.05981 0.81736 0.82944 0.0
H1381 H 0.10379 0.8238 0.85988 0.0
H1382 H 0.09069 0.83056 0.8679 0.0
H1383 H 0.0837 0.81076 0.85709 0.0
H1384 H 0.05758 0.79234 0.73891 0.0
H1385 H 0.03376 0.7762 0.78253 0.0
H1386 H 0.35159 0.40564 0.69567 0.0
H1387 H 0.35894 0.38794 0.72913 0.0
H1388 H 0.33571 0.35723 0.6052 0.0
H1389 H 0.3282 0.37499 0.57113 0.0
H1390 H 0.33142 0.34414 0.71247 0.0
H1391 H 0.39106 0.38062 0.65123 0.0
H1392 H 0.38316 0.39045 0.68461 0.0
H1393 H 0.37557 0.38201 0.62373 0.0
C1394 C 0.34796 0.3951 0.67554 0.0
C1395 C 0.33943 0.39174 0.63053 0.0
C1396 C 0.35217 0.38502 0.69474 0.0
C1397 C 0.34797 0.37142 0.66928 0.0
C1398 C 0.33906 0.36774 0.62518 0.0
H1399 H 0.39805 0.32706 0.76065 0.0
H1400 H 0.3833 0.33453 0.70712 0.0
C1401 C 0.33484 0.37788 0.60578 0.0
C1402 C 0.35355 0.3615 0.68831 0.0
H1403 H 0.38641 0.36176 0.71335 0.0
C1404 C 0.3434 0.34779 0.71202 0.0
C1405 C 0.36913 0.36625 0.68688 0.0
C1406 C 0.38038 0.38057 0.65985 0.0
C1407 C 0.34862 0.33908 0.73692 0.0
C1408 C 0.36435 0.34441 0.73857 0.0
C1409 C 0.37435 0.35771 0.71237 0.0
C1410 C 0.371 0.33711 0.76983 0.0
C1411 C 0.33727 0.32438 0.76165 0.0
C1412 C 0.36872 0.33573 0.82279 0.0
C1413 C 0.37706 0.33133 0.85345 0.0
C1414 C 0.38798 0.32852 0.83164 0.0
C1415 C 0.38977 0.32927 0.77849 0.0
C1416 C 0.38133 0.33349 0.74786 0.0
H1417 H 0.32605 0.31946 0.7427 0.0
H1418 H 0.34113 0.31596 0.76055 0.0
H1419 H 0.33576 0.32654 0.80205 0.0
H1420 H 0.3611 0.33883 0.84075 0.0
H1421 H 0.37551 0.33091 0.89436 0.0
H1422 H 0.04174 0.32672 0.39288 0.0
H1423 H 0.06558 0.33431 0.34774 0.0
H1424 H 0.05929 0.36641 0.25932 0.0
H1425 H 0.0355 0.35871 0.30314 0.0
H1426 H 0.06792 0.34941 0.20082 0.0
H1427 H 0.10512 0.37413 0.3705 0.0
H1428 H 0.09042 0.35465 0.37522 0.0
H1429 H 0.0855 0.36923 0.37074 0.0
C1430 C 0.0455 0.33541 0.36385 0.0
C1431 C 0.03682 0.34219 0.35166 0.0
C1432 C 0.0591 0.33975 0.33823 0.0
C1433 C 0.06424 0.351 0.30052 0.0
C1434 C 0.05551 0.35766 0.28821 0.0
H1435 H 0.14709 0.41743 0.18209 0.0
H1436 H 0.12338 0.40079 0.2257 0.0
C1437 C 0.04194 0.3533 0.31345 0.0
C1438 C 0.07881 0.35627 0.27395 0.0
H1439 H 0.11701 0.37705 0.29157 0.0
C1440 C 0.07869 0.35526 0.2206 0.0
C1441 C 0.09278 0.36391 0.30006 0.0
C1442 C 0.09358 0.36569 0.35724 0.0
C1443 C 0.09215 0.3624 0.19236 0.0
C1444 C 0.10609 0.37049 0.2184 0.0
C1445 C 0.10626 0.3708 0.27186 0.0
C1446 C 0.12043 0.38022 0.19111 0.0
C1447 C 0.09129 0.362 0.13494 0.0
C1448 C 0.1266 0.37416 0.15698 0.0
C1449 C 0.14014 0.38371 0.13147 0.0
C1450 C 0.14773 0.39941 0.14024 0.0
C1451 C 0.1415 0.40539 0.1745 0.0
C1452 C 0.12799 0.39589 0.19963 0.0
H1453 H 0.07953 0.35751 0.12098 0.0
H1454 H 0.09851 0.37351 0.11888 0.0
H1455 H 0.09552 0.35461 0.12015 0.0
H1456 H 0.12104 0.36207 0.15046 0.0
H1457 H 0.14478 0.37881 0.10557 0.0
H1458 H 0.85661 0.80985 0.38987 0.0
H1459 H 0.84878 0.82628 0.34717 0.0
H1460 H 0.81548 0.78801 0.26117 0.0
H1461 H 0.8234 0.77174 0.30247 0.0
H1462 H 0.83252 0.81319 0.20163 0.0
H1463 H 0.80975 0.82736 0.37274 0.0
H1464 H 0.82909 0.83162 0.37601 0.0
H1465 H 0.81412 0.81226 0.37283 0.0
C1466 C 0.84758 0.80498 0.362 0.0
C1467 C 0.84059 0.78953 0.34951 0.0
C1468 C 0.84311 0.81435 0.33779 0.0
C1469 C 0.83149 0.80832 0.3013 0.0
C1470 C 0.82451 0.79289 0.2891 0.0
H1471 H 0.76606 0.82687 0.18525 0.0
H1472 H 0.78239 0.81975 0.23078 0.0
C1473 C 0.82902 0.7836 0.31286 0.0
C1474 C 0.82639 0.81782 0.27512 0.0
H1475 H 0.80668 0.8363 0.29385 0.0
C1476 C 0.82705 0.81845 0.22171 0.0
C1477 C 0.81925 0.82459 0.30164 0.0
C1478 C 0.81787 0.82389 0.35894 0.0
C1479 C 0.82004 0.82496 0.19385 0.0
C1480 C 0.81249 0.83134 0.22031 0.0
C1481 C 0.81252 0.83142 0.2738 0.0
C1482 C 0.803 0.83633 0.19342 0.0
C1483 C 0.81996 0.82411 0.13642 0.0
C1484 C 0.80919 0.84809 0.15747 0.0
C1485 C 0.79981 0.85206 0.1308 0.0
C1486 C 0.78416 0.84445 0.14029 0.0
C1487 C 0.77807 0.8329 0.17703 0.0
C1488 C 0.7874 0.82887 0.20325 0.0
H1489 H 0.82372 0.81623 0.12253 0.0
H1490 H 0.80847 0.82035 0.12114 0.0
H1491 H 0.82779 0.83551 0.12073 0.0
H1492 H 0.82124 0.85416 0.14999 0.0
H1493 H 0.80481 0.86111 0.10304 0.0
H1494 H 0.33402 0.0539 0.07398 0.0
H1495 H 0.34436 0.07983 0.10695 0.0
H1496 H 0.35757 0.0669 0.24561 0.0
H1497 H 0.34742 0.04122 0.21332 0.0
H1498 H 0.33922 0.09086 0.21537 0.0
H1499 H 0.39712 0.10216 0.16875 0.0
H1500 H 0.38038 0.08762 0.13729 0.0
H1501 H 0.38504 0.08449 0.20038 0.0
C1502 C 0.33892 0.05657 0.11178 0.0
C1503 C 0.34009 0.04563 0.14089 0.0
C1504 C 0.34478 0.07132 0.1305 0.0
C1505 C 0.35179 0.07519 0.17843 0.0
C1506 C 0.35226 0.06408 0.20841 0.0
H1507 H 0.38773 0.14535 0.39852 0.0
H1508 H 0.37154 0.12325 0.346 0.0
C1509 C 0.34649 0.04945 0.18981 0.0
C1510 C 0.3598 0.091 0.19628 0.0
H1511 H 0.39532 0.11941 0.225 0.0
C1512 C 0.35149 0.09728 0.21678 0.0
C1513 C 0.37577 0.0993 0.19747 0.0
C1514 C 0.38516 0.09314 0.17447 0.0
C1515 C 0.35882 0.11149 0.24087 0.0
C1516 C 0.3748 0.11935 0.24501 0.0
C1517 C 0.38307 0.11334 0.22206 0.0
C1518 C 0.38326 0.13336 0.27544 0.0
C1519 C 0.34942 0.11784 0.26212 0.0
C1520 C 0.39529 0.1463 0.25333 0.0
C1521 C 0.40469 0.15882 0.28336 0.0
C1522 C 0.40221 0.15861 0.33608 0.0
C1523 C 0.38987 0.14583 0.35796 0.0
C1524 C 0.38052 0.13326 0.3279 0.0
H1525 H 0.3384 0.11316 0.24198 0.0
H1526 H 0.34702 0.11469 0.30291 0.0
H1527 H 0.35548 0.13038 0.25923 0.0
H1528 H 0.39766 0.14656 0.213 0.0
H1529 H 0.41407 0.16855 0.2654 0.0
loop_
_geom_bond_atom_site_label_1
_geom_bond_atom_site_label_2
_geom_bond_distance
_geom_bond_site_symmetry_2
_ccdc_geom_bond_type
In0 O1 2.294 . S
In0 O2 2.326 . S
In0 O6 2.266 . S
In0 O7 2.326 . S
In0 O8 2.266 . S
In0 O9 2.326 . S
In0 O11 2.294 . S
In0 O12 2.326 . S
O1 In0 2.294 . S
O1 C10 1.240 . S
O2 In0 2.326 . S
O2 C10 1.252 . S
C3 O6 1.252 . S
C3 O7 1.260 . S
C4 O11 1.240 . S
C4 O12 1.252 . S
C5 O8 1.252 . S
C5 O9 1.260 . S
O6 In0 2.266 . S
O6 C3 1.252 . S
O7 In0 2.326 . S
O7 C3 1.260 . S
O8 In0 2.266 . S
O8 C5 1.252 . S
O9 In0 2.326 . S
O9 C5 1.260 . S
C10 O1 1.240 . S
C10 O2 1.252 . S
O11 In0 2.294 . S
O11 C4 1.240 . S
O12 In0 2.326 . S
O12 C4 1.252 . S
In13 O14 2.294 . S
In13 O15 2.326 . S
In13 O19 2.266 . S
In13 O20 2.326 . S
In13 O21 2.266 . S
In13 O22 2.326 . S
In13 O24 2.294 . S
In13 O25 2.326 . S
O14 In13 2.294 . S
O14 C23 1.240 . S
O15 In13 2.326 . S
O15 C23 1.252 . S
C16 O19 1.252 . S
C16 O20 1.260 . S
C17 O24 1.240 . S
C17 O25 1.252 . S
C18 O21 1.252 . S
C18 O22 1.260 . S
O19 In13 2.266 . S
O19 C16 1.252 . S
O20 In13 2.326 . S
O20 C16 1.260 . S
O21 In13 2.266 . S
O21 C18 1.252 . S
O22 In13 2.326 . S
O22 C18 1.260 . S
C23 O14 1.240 . S
C23 O15 1.252 . S
O24 In13 2.294 . S
O24 C17 1.240 . S
O25 In13 2.326 . S
O25 C17 1.252 . S
In26 O27 2.294 . S
In26 O28 2.326 . S
In26 O32 2.266 . S
In26 O33 2.326 . S
In26 O34 2.266 . S
In26 O35 2.326 . S
In26 O37 2.294 . S
In26 O38 2.326 . S
O27 In26 2.294 . S
O27 C36 1.240 . S
O28 In26 2.326 . S
O28 C36 1.252 . S
C29 O32 1.252 . S
C29 O33 1.260 . S
C30 O37 1.240 . S
C30 O38 1.252 . S
C31 O34 1.252 . S
C31 O35 1.260 . S
O32 In26 2.266 . S
O32 C29 1.252 . S
O33 In26 2.326 . S
O33 C29 1.260 . S
O34 In26 2.266 . S
O34 C31 1.252 . S
O35 In26 2.326 . S
O35 C31 1.260 . S
C36 O27 1.240 . S
C36 O28 1.252 . S
O37 In26 2.294 . S
O37 C30 1.240 . S
O38 In26 2.326 . S
O38 C30 1.252 . S
In39 O40 2.294 . S
In39 O41 2.326 . S
In39 O45 2.266 . S
In39 O46 2.326 . S
In39 O47 2.266 . S
In39 O48 2.326 . S
In39 O50 2.294 . S
In39 O51 2.326 . S
O40 In39 2.294 . S
O40 C49 1.240 . S
O41 In39 2.326 . S
O41 C49 1.252 . S
C42 O45 1.252 . S
C42 O46 1.260 . S
C43 O50 1.240 . S
C43 O51 1.252 . S
C44 O47 1.252 . S
C44 O48 1.260 . S
O45 In39 2.266 . S
O45 C42 1.252 . S
O46 In39 2.326 . S
O46 C42 1.260 . S
O47 In39 2.266 . S
O47 C44 1.252 . S
O48 In39 2.326 . S
O48 C44 1.260 . S
C49 O40 1.240 . S
C49 O41 1.252 . S
O50 In39 2.294 . S
O50 C43 1.240 . S
O51 In39 2.326 . S
O51 C43 1.252 . S
In52 O53 2.294 . S
In52 O54 2.326 . S
In52 O58 2.266 . S
In52 O59 2.326 . S
In52 O60 2.266 . S
In52 O61 2.326 . S
In52 O63 2.294 . S
In52 O64 2.326 . S
O53 In52 2.294 . S
O53 C62 1.240 . S
O54 In52 2.326 . S
O54 C62 1.252 . S
C55 O58 1.252 . S
C55 O59 1.260 . S
C56 O63 1.240 . S
C56 O64 1.252 . S
C57 O60 1.252 . S
C57 O61 1.260 . S
O58 In52 2.266 . S
O58 C55 1.252 . S
O59 In52 2.326 . S
O59 C55 1.260 . S
O60 In52 2.266 . S
O60 C57 1.252 . S
O61 In52 2.326 . S
O61 C57 1.260 . S
C62 O53 1.240 . S
C62 O54 1.252 . S
O63 In52 2.294 . S
O63 C56 1.240 . S
O64 In52 2.326 . S
O64 C56 1.252 . S
In65 O66 2.294 . S
In65 O67 2.326 . S
In65 O71 2.266 . S
In65 O72 2.326 . S
In65 O73 2.266 . S
In65 O74 2.326 . S
In65 O76 2.294 . S
In65 O77 2.326 . S
O66 In65 2.294 . S
O66 C75 1.240 . S
O67 In65 2.326 . S
O67 C75 1.252 . S
C68 O71 1.252 . S
C68 O72 1.260 . S
C69 O76 1.240 . S
C69 O77 1.252 . S
C70 O73 1.252 . S
C70 O74 1.260 . S
O71 In65 2.266 . S
O71 C68 1.252 . S
O72 In65 2.326 . S
O72 C68 1.260 . S
O73 In65 2.266 . S
O73 C70 1.252 . S
O74 In65 2.326 . S
O74 C70 1.260 . S
C75 O66 1.240 . S
C75 O67 1.252 . S
O76 In65 2.294 . S
O76 C69 1.240 . S
O77 In65 2.326 . S
O77 C69 1.252 . S
In78 O79 2.325 . S
In78 O80 2.369 . S
In78 O84 2.198 1_565 S
In78 O85 2.284 1_565 S
In78 O86 2.236 1_565 S
In78 O87 2.284 1_565 S
In78 O89 2.325 . S
In78 O90 2.369 . S
O79 In78 2.325 . S
O79 C88 1.240 . S
O80 In78 2.369 . S
O80 C88 1.252 . S
C81 O84 1.293 . S
C81 O85 1.260 . S
C82 O89 1.240 . S
C82 O90 1.252 . S
C83 O86 1.252 . S
C83 O87 1.260 . S
O84 In78 2.198 1_545 S
O84 C81 1.293 . S
O85 In78 2.284 1_545 S
O85 C81 1.260 . S
O86 In78 2.236 1_545 S
O86 C83 1.252 . S
O87 In78 2.284 1_545 S
O87 C83 1.260 . S
C88 O79 1.240 . S
C88 O80 1.252 . S
O89 In78 2.325 . S
O89 C82 1.240 . S
O90 In78 2.369 . S
O90 C82 1.252 . S
In91 O92 2.294 . S
In91 O93 2.326 . S
In91 O97 2.266 . S
In91 O98 2.326 . S
In91 O99 2.266 . S
In91 O100 2.326 . S
In91 O102 2.294 . S
In91 O103 2.326 . S
O92 In91 2.294 . S
O92 C101 1.240 . S
O93 In91 2.326 . S
O93 C101 1.252 . S
C94 O97 1.252 . S
C94 O98 1.260 . S
C95 O102 1.240 . S
C95 O103 1.252 . S
C96 O99 1.252 . S
C96 O100 1.260 . S
O97 In91 2.266 . S
O97 C94 1.252 . S
O98 In91 2.326 . S
O98 C94 1.260 . S
O99 In91 2.266 . S
O99 C96 1.252 . S
O100 In91 2.326 . S
O100 C96 1.260 . S
C101 O92 1.240 . S
C101 O93 1.252 . S
O102 In91 2.294 . S
O102 C95 1.240 . S
O103 In91 2.326 . S
O103 C95 1.252 . S
In104 O105 2.294 . S
In104 O106 2.326 . S
In104 O110 2.266 . S
In104 O111 2.326 . S
In104 O112 2.266 . S
In104 O113 2.326 . S
In104 O115 2.294 . S
In104 O116 2.326 . S
O105 In104 2.294 . S
O105 C114 1.240 . S
O106 In104 2.326 . S
O106 C114 1.252 . S
C107 O110 1.252 . S
C107 O111 1.260 . S
C108 O115 1.240 . S
C108 O116 1.252 . S
C109 O112 1.252 . S
C109 O113 1.260 . S
O110 In104 2.266 . S
O110 C107 1.252 . S
O111 In104 2.326 . S
O111 C107 1.260 . S
O112 In104 2.266 . S
O112 C109 1.252 . S
O113 In104 2.326 . S
O113 C109 1.260 . S
C114 O105 1.240 . S
C114 O106 1.252 . S
O115 In104 2.294 . S
O115 C108 1.240 . S
O116 In104 2.326 . S
O116 C108 1.252 . S
In117 O118 2.294 . S
In117 O119 2.326 . S
In117 O123 2.266 . S
In117 O124 2.326 . S
In117 O125 2.266 . S
In117 O126 2.326 . S
In117 O128 2.294 . S
In117 O129 2.326 . S
O118 In117 2.294 . S
O118 C127 1.240 . S
O119 In117 2.326 . S
O119 C127 1.252 . S
C120 O123 1.252 . S
C120 O124 1.260 . S
C121 O128 1.240 . S
C121 O129 1.252 . S
C122 O125 1.252 . S
C122 O126 1.260 . S
O123 In117 2.266 . S
O123 C120 1.252 . S
O124 In117 2.326 . S
O124 C120 1.260 . S
O125 In117 2.266 . S
O125 C122 1.252 . S
O126 In117 2.326 . S
O126 C122 1.260 . S
C127 O118 1.240 . S
C127 O119 1.252 . S
O128 In117 2.294 . S
O128 C121 1.240 . S
O129 In117 2.326 . S
O129 C121 1.252 . S
In130 O131 2.336 . S
In130 O132 2.332 . S
In130 O136 2.327 1_565 S
In130 O137 2.312 1_565 S
In130 O138 2.211 1_565 S
In130 O139 2.299 1_565 S
In130 O141 2.283 . S
In130 O142 2.365 . S
O131 In130 2.336 . S
O131 C140 1.240 . S
O132 In130 2.332 . S
O132 C140 1.252 . S
C133 O136 1.294 . S
C133 O137 1.260 . S
C134 O141 1.240 . S
C134 O142 1.252 . S
C135 O138 1.252 . S
C135 O139 1.260 . S
O136 In130 2.327 1_545 S
O136 C133 1.294 . S
O137 In130 2.312 1_545 S
O137 C133 1.260 . S
O138 In130 2.211 1_545 S
O138 C135 1.252 . S
O139 In130 2.299 1_545 S
O139 C135 1.260 . S
C140 O131 1.240 . S
C140 O132 1.252 . S
O141 In130 2.283 . S
O141 C134 1.240 . S
O142 In130 2.365 . S
O142 C134 1.252 . S
In143 O144 2.294 . S
In143 O145 2.326 . S
In143 O149 2.266 . S
In143 O150 2.326 . S
In143 O151 2.266 . S
In143 O152 2.326 . S
In143 O154 2.294 . S
In143 O155 2.326 . S
O144 In143 2.294 . S
O144 C153 1.240 . S
O145 In143 2.326 . S
O145 C153 1.252 . S
C146 O149 1.252 . S
C146 O150 1.260 . S
C147 O154 1.240 . S
C147 O155 1.252 . S
C148 O151 1.252 . S
C148 O152 1.260 . S
O149 In143 2.266 . S
O149 C146 1.252 . S
O150 In143 2.326 . S
O150 C146 1.260 . S
O151 In143 2.266 . S
O151 C148 1.252 . S
O152 In143 2.326 . S
O152 C148 1.260 . S
C153 O144 1.240 . S
C153 O145 1.252 . S
O154 In143 2.294 . S
O154 C147 1.240 . S
O155 In143 2.326 . S
O155 C147 1.252 . S
In156 O157 2.294 . S
In156 O158 2.326 . S
In156 O162 2.266 . S
In156 O163 2.326 . S
In156 O164 2.266 . S
In156 O165 2.326 . S
In156 O167 2.294 . S
In156 O168 2.326 . S
O157 In156 2.294 . S
O157 C166 1.240 . S
O158 In156 2.326 . S
O158 C166 1.252 . S
C159 O162 1.252 . S
C159 O163 1.260 . S
C160 O167 1.240 . S
C160 O168 1.252 . S
C161 O164 1.252 . S
C161 O165 1.260 . S
O162 In156 2.266 . S
O162 C159 1.252 . S
O163 In156 2.326 . S
O163 C159 1.260 . S
O164 In156 2.266 . S
O164 C161 1.252 . S
O165 In156 2.326 . S
O165 C161 1.260 . S
C166 O157 1.240 . S
C166 O158 1.252 . S
O167 In156 2.294 . S
O167 C160 1.240 . S
O168 In156 2.326 . S
O168 C160 1.252 . S
In169 O170 2.294 . S
In169 O171 2.326 . S
In169 O175 2.266 . S
In169 O176 2.326 . S
In169 O177 2.266 . S
In169 O178 2.326 . S
In169 O180 2.294 . S
In169 O181 2.326 . S
O170 In169 2.294 . S
O170 C179 1.240 . S
O171 In169 2.326 . S
O171 C179 1.252 . S
C172 O175 1.252 . S
C172 O176 1.260 . S
C173 O180 1.240 . S
C173 O181 1.252 . S
C174 O177 1.252 . S
C174 O178 1.260 . S
O175 In169 2.266 . S
O175 C172 1.252 . S
O176 In169 2.326 . S
O176 C172 1.260 . S
O177 In169 2.266 . S
O177 C174 1.252 . S
O178 In169 2.326 . S
O178 C174 1.260 . S
C179 O170 1.240 . S
C179 O171 1.252 . S
O180 In169 2.294 . S
O180 C173 1.240 . S
O181 In169 2.326 . S
O181 C173 1.252 . S
In182 O183 2.324 . S
In182 O184 2.368 . S
In182 O188 2.237 1_655 S
In182 O189 2.286 1_655 S
In182 O190 2.198 1_655 S
In182 O191 2.286 1_655 S
In182 O193 2.324 . S
In182 O194 2.368 . S
O183 In182 2.324 . S
O183 C192 1.240 . S
O184 In182 2.368 . S
O184 C192 1.252 . S
C185 O188 1.252 . S
C185 O189 1.260 . S
C186 O193 1.240 . S
C186 O194 1.252 . S
C187 O190 1.295 . S
C187 O191 1.260 . S
O188 In182 2.237 1_455 S
O188 C185 1.252 . S
O189 In182 2.286 1_455 S
O189 C185 1.260 . S
O190 In182 2.198 1_455 S
O190 C187 1.295 . S
O191 In182 2.286 1_455 S
O191 C187 1.260 . S
C192 O183 1.240 . S
C192 O184 1.252 . S
O193 In182 2.324 . S
O193 C186 1.240 . S
O194 In182 2.368 . S
O194 C186 1.252 . S
In195 O196 2.294 . S
In195 O197 2.326 . S
In195 O201 2.266 . S
In195 O202 2.326 . S
In195 O203 2.266 . S
In195 O204 2.326 . S
In195 O206 2.294 . S
In195 O207 2.326 . S
O196 In195 2.294 . S
O196 C205 1.240 . S
O197 In195 2.326 . S
O197 C205 1.252 . S
C198 O201 1.252 . S
C198 O202 1.260 . S
C199 O206 1.240 . S
C199 O207 1.252 . S
C200 O203 1.252 . S
C200 O204 1.260 . S
O201 In195 2.266 . S
O201 C198 1.252 . S
O202 In195 2.326 . S
O202 C198 1.260 . S
O203 In195 2.266 . S
O203 C200 1.252 . S
O204 In195 2.326 . S
O204 C200 1.260 . S
C205 O196 1.240 . S
C205 O197 1.252 . S
O206 In195 2.294 . S
O206 C199 1.240 . S
O207 In195 2.326 . S
O207 C199 1.252 . S
In208 O209 2.283 . S
In208 O210 2.364 . S
In208 O214 2.212 1_655 S
In208 O215 2.299 1_655 S
In208 O216 2.327 1_655 S
In208 O217 2.312 1_655 S
In208 O219 2.335 . S
In208 O220 2.331 . S
O209 In208 2.283 . S
O209 C218 1.240 . S
O210 In208 2.364 . S
O210 C218 1.252 . S
C211 O214 1.252 . S
C211 O215 1.260 . S
C212 O219 1.240 . S
C212 O220 1.252 . S
C213 O216 1.295 . S
C213 O217 1.260 . S
O214 In208 2.212 1_455 S
O214 C211 1.252 . S
O215 In208 2.299 1_455 S
O215 C211 1.260 . S
O216 In208 2.327 1_455 S
O216 C213 1.295 . S
O217 In208 2.312 1_455 S
O217 C213 1.260 . S
C218 O209 1.240 . S
C218 O210 1.252 . S
O219 In208 2.335 . S
O219 C212 1.240 . S
O220 In208 2.331 . S
O220 C212 1.252 . S
In221 O222 2.294 . S
In221 O223 2.326 . S
In221 O227 2.266 . S
In221 O228 2.326 . S
In221 O229 2.266 . S
In221 O230 2.326 . S
In221 O232 2.294 . S
In221 O233 2.326 . S
O222 In221 2.294 . S
O222 C231 1.240 . S
O223 In221 2.326 . S
O223 C231 1.252 . S
C224 O227 1.252 . S
C224 O228 1.260 . S
C225 O232 1.240 . S
C225 O233 1.252 . S
C226 O229 1.252 . S
C226 O230 1.260 . S
O227 In221 2.266 . S
O227 C224 1.252 . S
O228 In221 2.326 . S
O228 C224 1.260 . S
O229 In221 2.266 . S
O229 C226 1.252 . S
O230 In221 2.326 . S
O230 C226 1.260 . S
C231 O222 1.240 . S
C231 O223 1.252 . S
O232 In221 2.294 . S
O232 C225 1.240 . S
O233 In221 2.326 . S
O233 C225 1.252 . S
H234 C242 0.929 . S
H235 C244 0.930 . S
H236 C246 0.930 . S
H237 C249 0.929 . S
H238 C252 0.930 . S
H239 C254 0.960 . S
H240 C254 0.960 . S
H241 C254 0.960 . S
C242 H234 0.929 . S
C242 C243 1.377 . S
C242 C244 1.384 . S
C243 C242 1.377 . S
C243 C249 1.390 . S
C244 H235 0.930 . S
C244 C242 1.384 . S
C244 C245 1.372 . S
C245 C244 1.372 . S
C245 C246 1.400 . S
C245 C250 1.490 . S
C246 H236 0.930 . S
C246 C245 1.400 . S
C246 C249 1.386 . S
H247 C263 0.930 . S
H248 C264 0.931 . S
C249 H237 0.929 . S
C249 C243 1.390 . S
C249 C246 1.386 . S
C250 C245 1.490 . S
C250 C252 1.395 . S
C250 C253 1.403 . S
H251 C257 0.930 . S
C252 H238 0.930 . S
C252 C250 1.395 . S
C252 C255 1.403 1_556 S
C253 C250 1.403 . S
C253 C254 1.524 . S
C253 C257 1.400 1_556 S
C254 H239 0.960 . S
C254 H240 0.960 . S
C254 H241 0.960 . S
C254 C253 1.524 . S
C255 C252 1.403 1_554 S
C255 C256 1.392 . S
C255 C259 1.495 . S
C256 C255 1.392 . S
C256 C257 1.385 . S
C256 C258 1.478 . S
C257 H251 0.930 . S
C257 C253 1.400 1_554 S
C257 C256 1.385 . S
C258 C256 1.478 . S
C258 C260 1.381 . S
C258 C264 1.383 . S
C259 C255 1.495 . S
C259 H265 0.959 . S
C259 H266 0.961 . S
C259 H267 0.960 . S
C260 C258 1.381 . S
C260 C261 1.394 . S
C260 H268 0.930 . S
C261 C260 1.394 . S
C261 C262 1.383 . S
C261 H269 0.929 . S
C262 C261 1.383 . S
C262 C263 1.377 . S
C263 H247 0.930 . S
C263 C262 1.377 . S
C263 C264 1.379 . S
C264 H248 0.931 . S
C264 C258 1.383 . S
C264 C263 1.379 . S
H265 C259 0.959 . S
H266 C259 0.961 . S
H267 C259 0.960 . S
H268 C260 0.930 . S
H269 C261 0.929 . S
H270 C278 0.929 . S
H271 C280 0.930 . S
H272 C282 0.930 . S
H273 C285 0.929 . S
H274 C288 0.930 . S
H275 C290 0.960 . S
H276 C290 0.960 . S
H277 C290 0.960 . S
C278 H270 0.929 . S
C278 C279 1.377 . S
C278 C280 1.384 . S
C279 C278 1.377 . S
C279 C285 1.390 . S
C280 H271 0.930 . S
C280 C278 1.384 . S
C280 C281 1.372 . S
C281 C280 1.372 . S
C281 C282 1.400 . S
C281 C286 1.490 . S
C282 H272 0.930 . S
C282 C281 1.400 . S
C282 C285 1.386 . S
H283 C299 0.930 . S
H284 C300 0.931 . S
C285 H273 0.929 . S
C285 C279 1.390 . S
C285 C282 1.386 . S
C286 C281 1.490 . S
C286 C288 1.395 . S
C286 C289 1.403 . S
H287 C293 0.930 . S
C288 H274 0.930 . S
C288 C286 1.395 . S
C288 C291 1.403 1_556 S
C289 C286 1.403 . S
C289 C290 1.524 . S
C289 C293 1.400 1_556 S
C290 H275 0.960 . S
C290 H276 0.960 . S
C290 H277 0.960 . S
C290 C289 1.524 . S
C291 C288 1.403 1_554 S
C291 C292 1.392 . S
C291 C295 1.495 . S
C292 C291 1.392 . S
C292 C293 1.385 . S
C292 C294 1.478 . S
C293 H287 0.930 . S
C293 C289 1.400 1_554 S
C293 C292 1.385 . S
C294 C292 1.478 . S
C294 C296 1.381 . S
C294 C300 1.383 . S
C295 C291 1.495 . S
C295 H301 0.959 . S
C295 H302 0.961 . S
C295 H303 0.960 . S
C296 C294 1.381 . S
C296 C297 1.394 . S
C296 H304 0.930 . S
C297 C296 1.394 . S
C297 C298 1.383 . S
C297 H305 0.929 . S
C298 C297 1.383 . S
C298 C299 1.377 . S
C299 H283 0.930 . S
C299 C298 1.377 . S
C299 C300 1.379 . S
C300 H284 0.931 . S
C300 C294 1.383 . S
C300 C299 1.379 . S
H301 C295 0.959 . S
H302 C295 0.961 . S
H303 C295 0.960 . S
H304 C296 0.930 . S
H305 C297 0.929 . S
H306 C314 0.929 . S
H307 C316 0.930 . S
H308 C318 0.930 . S
H309 C321 0.929 . S
H310 C324 0.930 . S
H311 C326 0.960 . S
H312 C326 0.960 . S
H313 C326 0.960 . S
C314 H306 0.929 . S
C314 C315 1.377 . S
C314 C316 1.384 . S
C315 C314 1.377 . S
C315 C321 1.390 . S
C316 H307 0.930 . S
C316 C314 1.384 . S
C316 C317 1.372 . S
C317 C316 1.372 . S
C317 C318 1.400 . S
C317 C322 1.490 . S
C318 H308 0.930 . S
C318 C317 1.400 . S
C318 C321 1.386 . S
H319 C335 0.930 . S
H320 C336 0.931 . S
C321 H309 0.929 . S
C321 C315 1.390 . S
C321 C318 1.386 . S
C322 C317 1.490 . S
C322 C324 1.395 . S
C322 C325 1.403 1_554 S
H323 C329 0.930 . S
C324 H310 0.930 . S
C324 C322 1.395 . S
C324 C327 1.403 . S
C325 C322 1.403 1_556 S
C325 C326 1.524 . S
C325 C329 1.400 . S
C326 H311 0.960 . S
C326 H312 0.960 . S
C326 H313 0.960 . S
C326 C325 1.524 . S
C327 C324 1.403 . S
C327 C328 1.392 1_554 S
C327 C331 1.495 . S
C328 C327 1.392 1_556 S
C328 C329 1.385 . S
C328 C330 1.478 . S
C329 H323 0.930 . S
C329 C325 1.400 . S
C329 C328 1.385 . S
C330 C328 1.478 . S
C330 C332 1.381 . S
C330 C336 1.383 . S
C331 C327 1.495 . S
C331 H337 0.959 . S
C331 H338 0.961 . S
C331 H339 0.960 . S
C332 C330 1.381 . S
C332 C333 1.394 . S
C332 H340 0.930 . S
C333 C332 1.394 . S
C333 C334 1.383 . S
C333 H341 0.929 . S
C334 C333 1.383 . S
C334 C335 1.377 . S
C335 H319 0.930 . S
C335 C334 1.377 . S
C335 C336 1.379 . S
C336 H320 0.931 . S
C336 C330 1.383 . S
C336 C335 1.379 . S
H337 C331 0.959 . S
H338 C331 0.961 . S
H339 C331 0.960 . S
H340 C332 0.930 . S
H341 C333 0.929 . S
H342 C350 0.929 . S
H343 C352 0.930 . S
H344 C354 0.930 . S
H345 C357 0.929 . S
H346 C360 0.930 . S
H347 C362 0.960 . S
H348 C362 0.960 . S
H349 C362 0.960 . S
C350 H342 0.929 . S
C350 C351 1.377 . S
C350 C352 1.384 . S
C351 C350 1.377 . S
C351 C357 1.390 . S
C352 H343 0.930 . S
C352 C350 1.384 . S
C352 C353 1.372 . S
C353 C352 1.372 . S
C353 C354 1.400 . S
C353 C358 1.490 . S
C354 H344 0.930 . S
C354 C353 1.400 . S
C354 C357 1.386 . S
H355 C371 0.930 . S
H356 C372 0.931 . S
C357 H345 0.929 . S
C357 C351 1.390 . S
C357 C354 1.386 . S
C358 C353 1.490 . S
C358 C360 1.395 . S
C358 C361 1.403 . S
H359 C365 0.930 . S
C360 H346 0.930 . S
C360 C358 1.395 . S
C360 C363 1.403 . S
C361 C358 1.403 . S
C361 C362 1.524 . S
C361 C365 1.400 . S
C362 H347 0.960 . S
C362 H348 0.960 . S
C362 H349 0.960 . S
C362 C361 1.524 . S
C363 C360 1.403 . S
C363 C364 1.392 . S
C363 C367 1.495 . S
C364 C363 1.392 . S
C364 C365 1.385 . S
C364 C366 1.478 . S
C365 H359 0.930 . S
C365 C361 1.400 . S
C365 C364 1.385 . S
C366 C364 1.478 . S
C366 C368 1.381 . S
C366 C372 1.383 . S
C367 C363 1.495 . S
C367 H373 0.959 . S
C367 H374 0.961 . S
C367 H375 0.960 . S
C368 C366 1.381 . S
C368 C369 1.394 . S
C368 H376 0.930 . S
C369 C368 1.394 . S
C369 C370 1.383 . S
C369 H377 0.929 . S
C370 C369 1.383 . S
C370 C371 1.377 . S
C371 H355 0.930 . S
C371 C370 1.377 . S
C371 C372 1.379 . S
C372 H356 0.931 . S
C372 C366 1.383 . S
C372 C371 1.379 . S
H373 C367 0.959 . S
H374 C367 0.961 . S
H375 C367 0.960 . S
H376 C368 0.930 . S
H377 C369 0.929 . S
H378 C386 0.929 . S
H379 C388 0.930 . S
H380 C390 0.930 . S
H381 C393 0.929 . S
H382 C396 0.930 . S
H383 C398 0.960 . S
H384 C398 0.960 . S
H385 C398 0.960 . S
C386 H378 0.929 . S
C386 C387 1.377 . S
C386 C388 1.384 . S
C387 C386 1.377 . S
C387 C393 1.390 . S
C388 H379 0.930 . S
C388 C386 1.384 . S
C388 C389 1.372 . S
C389 C388 1.372 . S
C389 C390 1.400 . S
C389 C394 1.490 . S
C390 H380 0.930 . S
C390 C389 1.400 . S
C390 C393 1.386 . S
H391 C407 0.930 . S
H392 C408 0.931 . S
C393 H381 0.929 . S
C393 C387 1.390 . S
C393 C390 1.386 . S
C394 C389 1.490 . S
C394 C396 1.395 . S
C394 C397 1.403 . S
H395 C401 0.930 . S
C396 H382 0.930 . S
C396 C394 1.395 . S
C396 C399 1.403 . S
C397 C394 1.403 . S
C397 C398 1.524 . S
C397 C401 1.400 . S
C398 H383 0.960 . S
C398 H384 0.960 . S
C398 H385 0.960 . S
C398 C397 1.524 . S
C399 C396 1.403 . S
C399 C400 1.392 . S
C399 C403 1.495 . S
C400 C399 1.392 . S
C400 C401 1.385 . S
C400 C402 1.478 . S
C401 H395 0.930 . S
C401 C397 1.400 . S
C401 C400 1.385 . S
C402 C400 1.478 . S
C402 C404 1.381 . S
C402 C408 1.383 . S
C403 C399 1.495 . S
C403 H409 0.959 . S
C403 H410 0.961 . S
C403 H411 0.960 . S
C404 C402 1.381 . S
C404 C405 1.394 . S
C404 H412 0.930 . S
C405 C404 1.394 . S
C405 C406 1.383 . S
C405 H413 0.929 . S
C406 C405 1.383 . S
C406 C407 1.377 . S
C407 H391 0.930 . S
C407 C406 1.377 . S
C407 C408 1.379 . S
C408 H392 0.931 . S
C408 C402 1.383 . S
C408 C407 1.379 . S
H409 C403 0.959 . S
H410 C403 0.961 . S
H411 C403 0.960 . S
H412 C404 0.930 . S
H413 C405 0.929 . S
H414 C422 0.929 . S
H415 C424 0.930 . S
H416 C426 0.930 . S
H417 C429 0.929 . S
H418 C432 0.930 . S
H419 C434 0.960 . S
H420 C434 0.960 . S
H421 C434 0.960 . S
C422 H414 0.929 . S
C422 C423 1.377 . S
C422 C424 1.384 . S
C423 C422 1.377 . S
C423 C429 1.390 . S
C424 H415 0.930 . S
C424 C422 1.384 . S
C424 C425 1.372 . S
C425 C424 1.372 . S
C425 C426 1.400 . S
C425 C430 1.490 . S
C426 H416 0.930 . S
C426 C425 1.400 . S
C426 C429 1.386 . S
H427 C443 0.930 . S
H428 C444 0.931 . S
C429 H417 0.929 . S
C429 C423 1.390 . S
C429 C426 1.386 . S
C430 C425 1.490 . S
C430 C432 1.395 . S
C430 C433 1.403 . S
H431 C437 0.930 . S
C432 H418 0.930 . S
C432 C430 1.395 . S
C432 C435 1.403 . S
C433 C430 1.403 . S
C433 C434 1.524 . S
C433 C437 1.400 . S
C434 H419 0.960 . S
C434 H420 0.960 . S
C434 H421 0.960 . S
C434 C433 1.524 . S
C435 C432 1.403 . S
C435 C436 1.392 . S
C435 C439 1.495 . S
C436 C435 1.392 . S
C436 C437 1.385 . S
C436 C438 1.478 . S
C437 H431 0.930 . S
C437 C433 1.400 . S
C437 C436 1.385 . S
C438 C436 1.478 . S
C438 C440 1.381 . S
C438 C444 1.383 . S
C439 C435 1.495 . S
C439 H445 0.959 . S
C439 H446 0.961 . S
C439 H447 0.960 . S
C440 C438 1.381 . S
C440 C441 1.394 . S
C440 H448 0.930 . S
C441 C440 1.394 . S
C441 C442 1.383 . S
C441 H449 0.929 . S
C442 C441 1.383 . S
C442 C443 1.377 . S
C443 H427 0.930 . S
C443 C442 1.377 . S
C443 C444 1.379 . S
C444 H428 0.931 . S
C444 C438 1.383 . S
C444 C443 1.379 . S
H445 C439 0.959 . S
H446 C439 0.961 . S
H447 C439 0.960 . S
H448 C440 0.930 . S
H449 C441 0.929 . S
H450 C458 0.929 . S
H451 C460 0.930 . S
H452 C462 0.930 . S
H453 C465 0.929 . S
H454 C468 0.930 . S
H455 C470 0.960 . S
H456 C470 0.960 . S
H457 C470 0.960 . S
C458 H450 0.929 . S
C458 C459 1.377 . S
C458 C460 1.384 . S
C459 C458 1.377 . S
C459 C465 1.390 . S
C460 H451 0.930 . S
C460 C458 1.384 . S
C460 C461 1.372 . S
C461 C460 1.372 . S
C461 C462 1.400 . S
C461 C466 1.490 . S
C462 H452 0.930 . S
C462 C461 1.400 . S
C462 C465 1.386 . S
H463 C479 0.930 . S
H464 C480 0.931 . S
C465 H453 0.929 . S
C465 C459 1.390 . S
C465 C462 1.386 . S
C466 C461 1.490 . S
C466 C468 1.395 . S
C466 C469 1.403 . S
H467 C473 0.930 . S
C468 H454 0.930 . S
C468 C466 1.395 . S
C468 C471 1.403 . S
C469 C466 1.403 . S
C469 C470 1.524 . S
C469 C473 1.400 . S
C470 H455 0.960 . S
C470 H456 0.960 . S
C470 H457 0.960 . S
C470 C469 1.524 . S
C471 C468 1.403 . S
C471 C472 1.392 . S
C471 C475 1.495 . S
C472 C471 1.392 . S
C472 C473 1.385 . S
C472 C474 1.478 . S
C473 H467 0.930 . S
C473 C469 1.400 . S
C473 C472 1.385 . S
C474 C472 1.478 . S
C474 C476 1.381 . S
C474 C480 1.383 . S
C475 C471 1.495 . S
C475 H481 0.959 . S
C475 H482 0.961 . S
C475 H483 0.960 . S
C476 C474 1.381 . S
C476 C477 1.394 . S
C476 H484 0.930 . S
C477 C476 1.394 . S
C477 C478 1.383 . S
C477 H485 0.929 . S
C478 C477 1.383 . S
C478 C479 1.377 . S
C479 H463 0.930 . S
C479 C478 1.377 . S
C479 C480 1.379 . S
C480 H464 0.931 . S
C480 C474 1.383 . S
C480 C479 1.379 . S
H481 C475 0.959 . S
H482 C475 0.961 . S
H483 C475 0.960 . S
H484 C476 0.930 . S
H485 C477 0.929 . S
H486 C494 0.929 . S
H487 C496 0.930 . S
H488 C498 0.930 . S
H489 C501 0.929 . S
H490 C504 0.930 . S
H491 C506 0.960 . S
H492 C506 0.960 . S
H493 C506 0.960 . S
C494 H486 0.929 . S
C494 C495 1.377 . S
C494 C496 1.384 . S
C495 C494 1.377 . S
C495 C501 1.390 . S
C496 H487 0.930 . S
C496 C494 1.384 . S
C496 C497 1.372 . S
C497 C496 1.372 . S
C497 C498 1.400 . S
C497 C502 1.490 . S
C498 H488 0.930 . S
C498 C497 1.400 . S
C498 C501 1.386 . S
H499 C515 0.930 . S
H500 C516 0.931 . S
C501 H489 0.929 . S
C501 C495 1.390 . S
C501 C498 1.386 . S
C502 C497 1.490 . S
C502 C504 1.395 . S
C502 C505 1.403 . S
H503 C509 0.930 . S
C504 H490 0.930 . S
C504 C502 1.395 . S
C504 C507 1.403 . S
C505 C502 1.403 . S
C505 C506 1.524 . S
C505 C509 1.400 . S
C506 H491 0.960 . S
C506 H492 0.960 . S
C506 H493 0.960 . S
C506 C505 1.524 . S
C507 C504 1.403 . S
C507 C508 1.392 . S
C507 C511 1.495 . S
C508 C507 1.392 . S
C508 C509 1.385 . S
C508 C510 1.478 . S
C509 H503 0.930 . S
C509 C505 1.400 . S
C509 C508 1.385 . S
C510 C508 1.478 . S
C510 C512 1.381 . S
C510 C516 1.383 . S
C511 C507 1.495 . S
C511 H517 0.959 . S
C511 H518 0.961 . S
C511 H519 0.960 . S
C512 C510 1.381 . S
C512 C513 1.394 . S
C512 H520 0.930 . S
C513 C512 1.394 . S
C513 C514 1.383 . S
C513 H521 0.929 . S
C514 C513 1.383 . S
C514 C515 1.377 . S
C515 H499 0.930 . S
C515 C514 1.377 . S
C515 C516 1.379 . S
C516 H500 0.931 . S
C516 C510 1.383 . S
C516 C515 1.379 . S
H517 C511 0.959 . S
H518 C511 0.961 . S
H519 C511 0.960 . S
H520 C512 0.930 . S
H521 C513 0.929 . S
H522 C530 0.929 . S
H523 C532 0.930 . S
H524 C534 0.930 . S
H525 C537 0.929 . S
H526 C540 0.930 . S
H527 C542 0.960 . S
H528 C542 0.960 . S
H529 C542 0.960 . S
C530 H522 0.929 . S
C530 C531 1.377 . S
C530 C532 1.384 . S
C531 C530 1.377 . S
C531 C537 1.390 . S
C532 H523 0.930 . S
C532 C530 1.384 . S
C532 C533 1.372 . S
C533 C532 1.372 . S
C533 C534 1.400 . S
C533 C538 1.490 . S
C534 H524 0.930 . S
C534 C533 1.400 . S
C534 C537 1.386 . S
H535 C551 0.930 . S
H536 C552 0.931 . S
C537 H525 0.929 . S
C537 C531 1.390 . S
C537 C534 1.386 . S
C538 C533 1.490 . S
C538 C540 1.395 . S
C538 C541 1.403 . S
H539 C545 0.930 . S
C540 H526 0.930 . S
C540 C538 1.395 . S
C540 C543 1.403 . S
C541 C538 1.403 . S
C541 C542 1.524 . S
C541 C545 1.400 . S
C542 H527 0.960 . S
C542 H528 0.960 . S
C542 H529 0.960 . S
C542 C541 1.524 . S
C543 C540 1.403 . S
C543 C544 1.392 . S
C543 C547 1.495 . S
C544 C543 1.392 . S
C544 C545 1.385 . S
C544 C546 1.478 . S
C545 H539 0.930 . S
C545 C541 1.400 . S
C545 C544 1.385 . S
C546 C544 1.478 . S
C546 C548 1.381 . S
C546 C552 1.383 . S
C547 C543 1.495 . S
C547 H553 0.959 . S
C547 H554 0.961 . S
C547 H555 0.960 . S
C548 C546 1.381 . S
C548 C549 1.394 . S
C548 H556 0.930 . S
C549 C548 1.394 . S
C549 C550 1.383 . S
C549 H557 0.929 . S
C550 C549 1.383 . S
C550 C551 1.377 . S
C551 H535 0.930 . S
C551 C550 1.377 . S
C551 C552 1.379 . S
C552 H536 0.931 . S
C552 C546 1.383 . S
C552 C551 1.379 . S
H553 C547 0.959 . S
H554 C547 0.961 . S
H555 C547 0.960 . S
H556 C548 0.930 . S
H557 C549 0.929 . S
H558 C566 0.929 . S
H559 C568 0.930 . S
H560 C570 0.930 . S
H561 C573 0.929 . S
H562 C576 0.930 . S
H563 C578 0.960 . S
H564 C578 0.960 . S
H565 C578 0.960 . S
C566 H558 0.929 . S
C566 C567 1.377 . S
C566 C568 1.384 . S
C567 C566 1.377 . S
C567 C573 1.390 . S
C568 H559 0.930 . S
C568 C566 1.384 . S
C568 C569 1.372 . S
C569 C568 1.372 . S
C569 C570 1.400 . S
C569 C574 1.490 . S
C570 H560 0.930 . S
C570 C569 1.400 . S
C570 C573 1.386 . S
H571 C587 0.930 . S
H572 C588 0.931 . S
C573 H561 0.929 . S
C573 C567 1.390 . S
C573 C570 1.386 . S
C574 C569 1.490 . S
C574 C576 1.395 . S
C574 C577 1.403 . S
H575 C581 0.930 . S
C576 H562 0.930 . S
C576 C574 1.395 . S
C576 C579 1.403 . S
C577 C574 1.403 . S
C577 C578 1.524 . S
C577 C581 1.400 . S
C578 H563 0.960 . S
C578 H564 0.960 . S
C578 H565 0.960 . S
C578 C577 1.524 . S
C579 C576 1.403 . S
C579 C580 1.392 . S
C579 C583 1.495 . S
C580 C579 1.392 . S
C580 C581 1.385 . S
C580 C582 1.478 . S
C581 H575 0.930 . S
C581 C577 1.400 . S
C581 C580 1.385 . S
C582 C580 1.478 . S
C582 C584 1.381 . S
C582 C588 1.383 . S
C583 C579 1.495 . S
C583 H589 0.959 . S
C583 H590 0.961 . S
C583 H591 0.960 . S
C584 C582 1.381 . S
C584 C585 1.394 . S
C584 H592 0.930 . S
C585 C584 1.394 . S
C585 C586 1.383 . S
C585 H593 0.929 . S
C586 C585 1.383 . S
C586 C587 1.377 . S
C587 H571 0.930 . S
C587 C586 1.377 . S
C587 C588 1.379 . S
C588 H572 0.931 . S
C588 C582 1.383 . S
C588 C587 1.379 . S
H589 C583 0.959 . S
H590 C583 0.961 . S
H591 C583 0.960 . S
H592 C584 0.930 . S
H593 C585 0.929 . S
H594 C602 0.929 . S
H595 C604 0.930 . S
H596 C606 0.930 . S
H597 C609 0.929 1_554 S
H598 C612 0.930 . S
H599 C614 0.960 . S
H600 C614 0.960 . S
H601 C614 0.960 . S
C602 H594 0.929 . S
C602 C603 1.377 . S
C602 C604 1.384 . S
C603 C602 1.377 . S
C603 C609 1.390 . S
C604 H595 0.930 . S
C604 C602 1.384 . S
C604 C605 1.372 . S
C605 C604 1.372 . S
C605 C606 1.400 . S
C605 C610 1.490 . S
C606 H596 0.930 . S
C606 C605 1.400 . S
C606 C609 1.386 . S
H607 C623 0.930 . S
H608 C624 0.931 . S
C609 H597 0.929 1_556 S
C609 C603 1.390 . S
C609 C606 1.386 . S
C610 C605 1.490 . S
C610 C612 1.395 . S
C610 C613 1.403 . S
H611 C617 0.930 . S
C612 H598 0.930 . S
C612 C610 1.395 . S
C612 C615 1.403 . S
C613 C610 1.403 . S
C613 C614 1.524 . S
C613 C617 1.400 . S
C614 H599 0.960 . S
C614 H600 0.960 . S
C614 H601 0.960 . S
C614 C613 1.524 . S
C615 C612 1.403 . S
C615 C616 1.392 . S
C615 C619 1.495 . S
C616 C615 1.392 . S
C616 C617 1.385 . S
C616 C618 1.478 . S
C617 H611 0.930 . S
C617 C613 1.400 . S
C617 C616 1.385 . S
C618 C616 1.478 . S
C618 C620 1.381 . S
C618 C624 1.383 . S
C619 C615 1.495 . S
C619 H625 0.959 . S
C619 H626 0.961 . S
C619 H627 0.960 . S
C620 C618 1.381 . S
C620 C621 1.394 . S
C620 H628 0.930 . S
C621 C620 1.394 . S
C621 C622 1.383 . S
C621 H629 0.929 . S
C622 C621 1.383 . S
C622 C623 1.377 . S
C623 H607 0.930 . S
C623 C622 1.377 . S
C623 C624 1.379 . S
C624 H608 0.931 . S
C624 C618 1.383 . S
C624 C623 1.379 . S
H625 C619 0.959 . S
H626 C619 0.961 . S
H627 C619 0.960 . S
H628 C620 0.930 . S
H629 C621 0.929 . S
H630 C638 0.929 1_554 S
H631 C640 0.930 . S
H632 C642 0.930 . S
H633 C645 0.929 . S
H634 C648 0.930 . S
H635 C650 0.960 . S
H636 C650 0.960 . S
H637 C650 0.960 . S
C638 H630 0.929 1_556 S
C638 C639 1.377 . S
C638 C640 1.384 . S
C639 C638 1.377 . S
C639 C645 1.390 . S
C640 H631 0.930 . S
C640 C638 1.384 . S
C640 C641 1.372 . S
C641 C640 1.372 . S
C641 C642 1.400 . S
C641 C646 1.490 . S
C642 H632 0.930 . S
C642 C641 1.400 . S
C642 C645 1.386 . S
H643 C659 0.930 . S
H644 C660 0.931 . S
C645 H633 0.929 . S
C645 C639 1.390 . S
C645 C642 1.386 . S
C646 C641 1.490 . S
C646 C648 1.395 . S
C646 C649 1.403 . S
H647 C653 0.930 . S
C648 H634 0.930 . S
C648 C646 1.395 . S
C648 C651 1.403 . S
C649 C646 1.403 . S
C649 C650 1.524 . S
C649 C653 1.400 . S
C650 H635 0.960 . S
C650 H636 0.960 . S
C650 H637 0.960 . S
C650 C649 1.524 . S
C651 C648 1.403 . S
C651 C652 1.392 . S
C651 C655 1.495 . S
C652 C651 1.392 . S
C652 C653 1.385 . S
C652 C654 1.478 . S
C653 H647 0.930 . S
C653 C649 1.400 . S
C653 C652 1.385 . S
C654 C652 1.478 . S
C654 C656 1.381 . S
C654 C660 1.383 . S
C655 C651 1.495 . S
C655 H661 0.959 . S
C655 H662 0.961 . S
C655 H663 0.960 . S
C656 C654 1.381 . S
C656 C657 1.394 . S
C656 H664 0.930 . S
C657 C656 1.394 . S
C657 C658 1.383 . S
C657 H665 0.929 . S
C658 C657 1.383 . S
C658 C659 1.377 . S
C659 H643 0.930 . S
C659 C658 1.377 . S
C659 C660 1.379 . S
C660 H644 0.931 . S
C660 C654 1.383 . S
C660 C659 1.379 . S
H661 C655 0.959 . S
H662 C655 0.961 . S
H663 C655 0.960 . S
H664 C656 0.930 . S
H665 C657 0.929 . S
H666 C674 0.929 . S
H667 C676 0.930 . S
H668 C678 0.930 . S
H669 C681 0.929 . S
H670 C684 0.930 . S
H671 C686 0.960 . S
H672 C686 0.960 . S
H673 C686 0.960 . S
C674 H666 0.929 . S
C674 C675 1.377 . S
C674 C676 1.384 . S
C675 C674 1.377 . S
C675 C681 1.390 . S
C676 H667 0.930 . S
C676 C674 1.384 . S
C676 C677 1.372 . S
C677 C676 1.372 . S
C677 C678 1.400 . S
C677 C682 1.490 . S
C678 H668 0.930 . S
C678 C677 1.400 . S
C678 C681 1.386 . S
H679 C695 0.930 . S
H680 C696 0.931 . S
C681 H669 0.929 . S
C681 C675 1.390 . S
C681 C678 1.386 . S
C682 C677 1.490 . S
C682 C684 1.395 . S
C682 C685 1.403 . S
H683 C689 0.930 . S
C684 H670 0.930 . S
C684 C682 1.395 . S
C684 C687 1.403 . S
C685 C682 1.403 . S
C685 C686 1.524 . S
C685 C689 1.400 . S
C686 H671 0.960 . S
C686 H672 0.960 . S
C686 H673 0.960 . S
C686 C685 1.524 . S
C687 C684 1.403 . S
C687 C688 1.392 . S
C687 C691 1.495 . S
C688 C687 1.392 . S
C688 C689 1.385 . S
C688 C690 1.478 . S
C689 H683 0.930 . S
C689 C685 1.400 . S
C689 C688 1.385 . S
C690 C688 1.478 . S
C690 C692 1.381 . S
C690 C696 1.383 . S
C691 C687 1.495 . S
C691 H697 0.959 . S
C691 H698 0.961 . S
C691 H699 0.960 . S
C692 C690 1.381 . S
C692 C693 1.394 . S
C692 H700 0.930 . S
C693 C692 1.394 . S
C693 C694 1.383 . S
C693 H701 0.929 . S
C694 C693 1.383 . S
C694 C695 1.377 . S
C695 H679 0.930 . S
C695 C694 1.377 . S
C695 C696 1.379 . S
C696 H680 0.931 . S
C696 C690 1.383 . S
C696 C695 1.379 . S
H697 C691 0.959 . S
H698 C691 0.961 . S
H699 C691 0.960 . S
H700 C692 0.930 . S
H701 C693 0.929 . S
H702 C710 0.929 . S
H703 C712 0.930 . S
H704 C714 0.930 . S
H705 C717 0.929 . S
H706 C720 0.930 . S
H707 C722 0.960 . S
H708 C722 0.960 . S
H709 C722 0.960 . S
C710 H702 0.929 . S
C710 C711 1.377 . S
C710 C712 1.384 . S
C711 C710 1.377 . S
C711 C717 1.390 . S
C712 H703 0.930 . S
C712 C710 1.384 . S
C712 C713 1.372 . S
C713 C712 1.372 . S
C713 C714 1.400 . S
C713 C718 1.490 . S
C714 H704 0.930 . S
C714 C713 1.400 . S
C714 C717 1.386 . S
H715 C731 0.930 . S
H716 C732 0.931 . S
C717 H705 0.929 . S
C717 C711 1.390 . S
C717 C714 1.386 . S
C718 C713 1.490 . S
C718 C720 1.395 . S
C718 C721 1.403 . S
H719 C725 0.930 . S
C720 H706 0.930 . S
C720 C718 1.395 . S
C720 C723 1.403 . S
C721 C718 1.403 . S
C721 C722 1.524 . S
C721 C725 1.400 . S
C722 H707 0.960 . S
C722 H708 0.960 . S
C722 H709 0.960 . S
C722 C721 1.524 . S
C723 C720 1.403 . S
C723 C724 1.392 . S
C723 C727 1.495 . S
C724 C723 1.392 . S
C724 C725 1.385 . S
C724 C726 1.478 . S
C725 H719 0.930 . S
C725 C721 1.400 . S
C725 C724 1.385 . S
C726 C724 1.478 . S
C726 C728 1.381 . S
C726 C732 1.383 . S
C727 C723 1.495 . S
C727 H733 0.959 . S
C727 H734 0.961 . S
C727 H735 0.960 . S
C728 C726 1.381 . S
C728 C729 1.394 . S
C728 H736 0.930 . S
C729 C728 1.394 . S
C729 C730 1.383 . S
C729 H737 0.929 . S
C730 C729 1.383 . S
C730 C731 1.377 . S
C731 H715 0.930 . S
C731 C730 1.377 . S
C731 C732 1.379 . S
C732 H716 0.931 . S
C732 C726 1.383 . S
C732 C731 1.379 . S
H733 C727 0.959 . S
H734 C727 0.961 . S
H735 C727 0.960 . S
H736 C728 0.930 . S
H737 C729 0.929 . S
H738 C746 0.929 . S
H739 C748 0.930 . S
H740 C750 0.930 . S
H741 C753 0.929 . S
H742 C756 0.930 . S
H743 C758 0.960 . S
H744 C758 0.960 . S
H745 C758 0.960 . S
C746 H738 0.929 . S
C746 C747 1.377 . S
C746 C748 1.384 . S
C747 C746 1.377 . S
C747 C753 1.390 . S
C748 H739 0.930 . S
C748 C746 1.384 . S
C748 C749 1.372 . S
C749 C748 1.372 . S
C749 C750 1.400 . S
C749 C754 1.490 . S
C750 H740 0.930 . S
C750 C749 1.400 . S
C750 C753 1.386 . S
H751 C767 0.930 . S
H752 C768 0.931 . S
C753 H741 0.929 . S
C753 C747 1.390 . S
C753 C750 1.386 . S
C754 C749 1.490 . S
C754 C756 1.395 . S
C754 C757 1.403 . S
H755 C761 0.930 . S
C756 H742 0.930 . S
C756 C754 1.395 . S
C756 C759 1.403 . S
C757 C754 1.403 . S
C757 C758 1.524 . S
C757 C761 1.400 . S
C758 H743 0.960 . S
C758 H744 0.960 . S
C758 H745 0.960 . S
C758 C757 1.524 . S
C759 C756 1.403 . S
C759 C760 1.392 . S
C759 C763 1.495 . S
C760 C759 1.392 . S
C760 C761 1.385 . S
C760 C762 1.478 . S
C761 H755 0.930 . S
C761 C757 1.400 . S
C761 C760 1.385 . S
C762 C760 1.478 . S
C762 C764 1.381 . S
C762 C768 1.383 . S
C763 C759 1.495 . S
C763 H769 0.959 . S
C763 H770 0.961 . S
C763 H771 0.960 . S
C764 C762 1.381 . S
C764 C765 1.394 . S
C764 H772 0.930 . S
C765 C764 1.394 . S
C765 C766 1.383 . S
C765 H773 0.929 . S
C766 C765 1.383 . S
C766 C767 1.377 . S
C767 H751 0.930 . S
C767 C766 1.377 . S
C767 C768 1.379 . S
C768 H752 0.931 . S
C768 C762 1.383 . S
C768 C767 1.379 . S
H769 C763 0.959 . S
H770 C763 0.961 . S
H771 C763 0.960 . S
H772 C764 0.930 . S
H773 C765 0.929 . S
H774 C782 0.929 . S
H775 C784 0.930 . S
H776 C786 0.930 . S
H777 C789 0.929 . S
H778 C792 0.930 . S
H779 C794 0.960 . S
H780 C794 0.960 . S
H781 C794 0.960 . S
C782 H774 0.929 . S
C782 C783 1.377 . S
C782 C784 1.384 . S
C783 C782 1.377 . S
C783 C789 1.390 . S
C784 H775 0.930 . S
C784 C782 1.384 . S
C784 C785 1.372 . S
C785 C784 1.372 . S
C785 C786 1.400 . S
C785 C790 1.490 . S
C786 H776 0.930 . S
C786 C785 1.400 . S
C786 C789 1.386 . S
H787 C803 0.930 . S
H788 C804 0.931 . S
C789 H777 0.929 . S
C789 C783 1.390 . S
C789 C786 1.386 . S
C790 C785 1.490 . S
C790 C792 1.395 . S
C790 C793 1.403 . S
H791 C797 0.930 . S
C792 H778 0.930 . S
C792 C790 1.395 . S
C792 C795 1.403 . S
C793 C790 1.403 . S
C793 C794 1.524 . S
C793 C797 1.400 . S
C794 H779 0.960 . S
C794 H780 0.960 . S
C794 H781 0.960 . S
C794 C793 1.524 . S
C795 C792 1.403 . S
C795 C796 1.392 . S
C795 C799 1.495 . S
C796 C795 1.392 . S
C796 C797 1.385 . S
C796 C798 1.478 . S
C797 H791 0.930 . S
C797 C793 1.400 . S
C797 C796 1.385 . S
C798 C796 1.478 . S
C798 C800 1.381 . S
C798 C804 1.383 . S
C799 C795 1.495 . S
C799 H805 0.959 . S
C799 H806 0.961 . S
C799 H807 0.960 . S
C800 C798 1.381 . S
C800 C801 1.394 . S
C800 H808 0.930 . S
C801 C800 1.394 . S
C801 C802 1.383 . S
C801 H809 0.929 . S
C802 C801 1.383 . S
C802 C803 1.377 . S
C803 H787 0.930 . S
C803 C802 1.377 . S
C803 C804 1.379 . S
C804 H788 0.931 . S
C804 C798 1.383 . S
C804 C803 1.379 . S
H805 C799 0.959 . S
H806 C799 0.961 . S
H807 C799 0.960 . S
H808 C800 0.930 . S
H809 C801 0.929 . S
H810 C818 0.929 . S
H811 C820 0.930 . S
H812 C822 0.930 . S
H813 C825 0.929 . S
H814 C828 0.930 . S
H815 C830 0.960 . S
H816 C830 0.960 . S
H817 C830 0.960 . S
C818 H810 0.929 . S
C818 C819 1.377 . S
C818 C820 1.384 . S
C819 C818 1.377 . S
C819 C825 1.390 . S
C820 H811 0.930 . S
C820 C818 1.384 . S
C820 C821 1.372 . S
C821 C820 1.372 . S
C821 C822 1.400 . S
C821 C826 1.490 . S
C822 H812 0.930 . S
C822 C821 1.400 . S
C822 C825 1.386 . S
H823 C839 0.930 . S
H824 C840 0.931 . S
C825 H813 0.929 . S
C825 C819 1.390 . S
C825 C822 1.386 . S
C826 C821 1.490 . S
C826 C828 1.395 . S
C826 C829 1.403 . S
H827 C833 0.930 . S
C828 H814 0.930 . S
C828 C826 1.395 . S
C828 C831 1.403 . S
C829 C826 1.403 . S
C829 C830 1.524 . S
C829 C833 1.400 . S
C830 H815 0.960 . S
C830 H816 0.960 . S
C830 H817 0.960 . S
C830 C829 1.524 . S
C831 C828 1.403 . S
C831 C832 1.392 . S
C831 C835 1.495 . S
C832 C831 1.392 . S
C832 C833 1.385 . S
C832 C834 1.478 . S
C833 H827 0.930 . S
C833 C829 1.400 . S
C833 C832 1.385 . S
C834 C832 1.478 . S
C834 C836 1.381 . S
C834 C840 1.383 . S
C835 C831 1.495 . S
C835 H841 0.959 . S
C835 H842 0.961 . S
C835 H843 0.960 . S
C836 C834 1.381 . S
C836 C837 1.394 . S
C836 H844 0.930 . S
C837 C836 1.394 . S
C837 C838 1.383 . S
C837 H845 0.929 1_554 S
C838 C837 1.383 . S
C838 C839 1.377 . S
C839 H823 0.930 . S
C839 C838 1.377 . S
C839 C840 1.379 . S
C840 H824 0.931 . S
C840 C834 1.383 . S
C840 C839 1.379 . S
H841 C835 0.959 . S
H842 C835 0.961 . S
H843 C835 0.960 . S
H844 C836 0.930 . S
H845 C837 0.929 1_556 S
H846 C854 0.929 . S
H847 C856 0.930 . S
H848 C858 0.930 . S
H849 C861 0.929 . S
H850 C864 0.930 . S
H851 C866 0.960 . S
H852 C866 0.960 . S
H853 C866 0.960 . S
C854 H846 0.929 . S
C854 C855 1.377 . S
C854 C856 1.384 . S
C855 C854 1.377 . S
C855 C861 1.390 . S
C856 H847 0.930 . S
C856 C854 1.384 . S
C856 C857 1.372 . S
C857 C856 1.372 . S
C857 C858 1.400 . S
C857 C862 1.490 . S
C858 H848 0.930 . S
C858 C857 1.400 . S
C858 C861 1.386 . S
H859 C875 0.930 . S
H860 C876 0.931 . S
C861 H849 0.929 . S
C861 C855 1.390 . S
C861 C858 1.386 . S
C862 C857 1.490 . S
C862 C864 1.395 . S
C862 C865 1.403 . S
H863 C869 0.930 . S
C864 H850 0.930 . S
C864 C862 1.395 . S
C864 C867 1.403 . S
C865 C862 1.403 . S
C865 C866 1.524 . S
C865 C869 1.400 . S
C866 H851 0.960 . S
C866 H852 0.960 . S
C866 H853 0.960 . S
C866 C865 1.524 . S
C867 C864 1.403 . S
C867 C868 1.392 . S
C867 C871 1.495 . S
C868 C867 1.392 . S
C868 C869 1.385 . S
C868 C870 1.478 . S
C869 H863 0.930 . S
C869 C865 1.400 . S
C869 C868 1.385 . S
C870 C868 1.478 . S
C870 C872 1.381 . S
C870 C876 1.383 . S
C871 C867 1.495 . S
C871 H877 0.959 . S
C871 H878 0.961 . S
C871 H879 0.960 . S
C872 C870 1.381 . S
C872 C873 1.394 . S
C872 H880 0.930 . S
C873 C872 1.394 . S
C873 C874 1.383 . S
C873 H881 0.929 . S
C874 C873 1.383 . S
C874 C875 1.377 . S
C875 H859 0.930 . S
C875 C874 1.377 . S
C875 C876 1.379 . S
C876 H860 0.931 . S
C876 C870 1.383 . S
C876 C875 1.379 . S
H877 C871 0.959 . S
H878 C871 0.961 . S
H879 C871 0.960 . S
H880 C872 0.930 . S
H881 C873 0.929 . S
H882 C890 0.929 . S
H883 C892 0.930 . S
H884 C894 0.930 . S
H885 C897 0.929 . S
H886 C900 0.930 . S
H887 C902 0.960 . S
H888 C902 0.960 . S
H889 C902 0.960 . S
C890 H882 0.929 . S
C890 C891 1.377 . S
C890 C892 1.384 . S
C891 C890 1.377 . S
C891 C897 1.390 . S
C892 H883 0.930 . S
C892 C890 1.384 . S
C892 C893 1.372 . S
C893 C892 1.372 . S
C893 C894 1.400 . S
C893 C898 1.490 . S
C894 H884 0.930 . S
C894 C893 1.400 . S
C894 C897 1.386 . S
H895 C911 0.930 . S
H896 C912 0.931 . S
C897 H885 0.929 . S
C897 C891 1.390 . S
C897 C894 1.386 . S
C898 C893 1.490 . S
C898 C900 1.395 . S
C898 C901 1.403 . S
H899 C905 0.930 . S
C900 H886 0.930 . S
C900 C898 1.395 . S
C900 C903 1.403 . S
C901 C898 1.403 . S
C901 C902 1.524 . S
C901 C905 1.400 . S
C902 H887 0.960 . S
C902 H888 0.960 . S
C902 H889 0.960 . S
C902 C901 1.524 . S
C903 C900 1.403 . S
C903 C904 1.392 . S
C903 C907 1.495 . S
C904 C903 1.392 . S
C904 C905 1.385 . S
C904 C906 1.478 . S
C905 H899 0.930 . S
C905 C901 1.400 . S
C905 C904 1.385 . S
C906 C904 1.478 . S
C906 C908 1.381 . S
C906 C912 1.383 . S
C907 C903 1.495 . S
C907 H913 0.959 . S
C907 H914 0.961 . S
C907 H915 0.960 . S
C908 C906 1.381 . S
C908 C909 1.394 . S
C908 H916 0.930 . S
C909 C908 1.394 . S
C909 C910 1.383 . S
C909 H917 0.929 . S
C910 C909 1.383 . S
C910 C911 1.377 . S
C911 H895 0.930 . S
C911 C910 1.377 . S
C911 C912 1.379 . S
C912 H896 0.931 . S
C912 C906 1.383 . S
C912 C911 1.379 . S
H913 C907 0.959 . S
H914 C907 0.961 . S
H915 C907 0.960 . S
H916 C908 0.930 . S
H917 C909 0.929 . S
H918 C926 0.929 . S
H919 C928 0.930 . S
H920 C930 0.930 . S
H921 C933 0.929 . S
H922 C936 0.930 . S
H923 C938 0.960 . S
H924 C938 0.960 . S
H925 C938 0.960 . S
C926 H918 0.929 . S
C926 C927 1.377 . S
C926 C928 1.384 . S
C927 C926 1.377 . S
C927 C933 1.390 . S
C928 H919 0.930 . S
C928 C926 1.384 . S
C928 C929 1.372 . S
C929 C928 1.372 . S
C929 C930 1.400 . S
C929 C934 1.490 . S
C930 H920 0.930 . S
C930 C929 1.400 . S
C930 C933 1.386 . S
H931 C947 0.930 . S
H932 C948 0.931 . S
C933 H921 0.929 . S
C933 C927 1.390 . S
C933 C930 1.386 . S
C934 C929 1.490 . S
C934 C936 1.395 . S
C934 C937 1.403 . S
H935 C941 0.930 . S
C936 H922 0.930 . S
C936 C934 1.395 . S
C936 C939 1.403 . S
C937 C934 1.403 . S
C937 C938 1.524 . S
C937 C941 1.400 . S
C938 H923 0.960 . S
C938 H924 0.960 . S
C938 H925 0.960 . S
C938 C937 1.524 . S
C939 C936 1.403 . S
C939 C940 1.392 . S
C939 C943 1.495 . S
C940 C939 1.392 . S
C940 C941 1.385 . S
C940 C942 1.478 . S
C941 H935 0.930 . S
C941 C937 1.400 . S
C941 C940 1.385 . S
C942 C940 1.478 . S
C942 C944 1.381 . S
C942 C948 1.383 . S
C943 C939 1.495 . S
C943 H949 0.959 . S
C943 H950 0.961 . S
C943 H951 0.960 . S
C944 C942 1.381 . S
C944 C945 1.394 . S
C944 H952 0.930 . S
C945 C944 1.394 . S
C945 C946 1.383 . S
C945 H953 0.929 . S
C946 C945 1.383 . S
C946 C947 1.377 . S
C947 H931 0.930 . S
C947 C946 1.377 . S
C947 C948 1.379 . S
C948 H932 0.931 . S
C948 C942 1.383 . S
C948 C947 1.379 . S
H949 C943 0.959 . S
H950 C943 0.961 . S
H951 C943 0.960 . S
H952 C944 0.930 . S
H953 C945 0.929 . S
H954 C962 0.929 1_565 S
H955 C964 0.930 . S
H956 C966 0.930 . S
H957 C969 0.929 . S
H958 C972 0.930 . S
H959 C974 0.960 . S
H960 C974 0.960 . S
H961 C974 0.960 . S
C962 H954 0.929 1_545 S
C962 C963 1.377 . S
C962 C964 1.384 . S
C963 C962 1.377 . S
C963 C969 1.390 . S
C964 H955 0.930 . S
C964 C962 1.384 . S
C964 C965 1.372 . S
C965 C964 1.372 . S
C965 C966 1.400 . S
C965 C970 1.490 . S
C966 H956 0.930 . S
C966 C965 1.400 . S
C966 C969 1.386 . S
H967 C983 0.930 . S
H968 C984 0.931 . S
C969 H957 0.929 . S
C969 C963 1.390 . S
C969 C966 1.386 . S
C970 C965 1.490 . S
C970 C972 1.395 . S
C970 C973 1.403 . S
H971 C977 0.930 . S
C972 H958 0.930 . S
C972 C970 1.395 . S
C972 C975 1.403 . S
C973 C970 1.403 . S
C973 C974 1.524 . S
C973 C977 1.400 . S
C974 H959 0.960 . S
C974 H960 0.960 . S
C974 H961 0.960 . S
C974 C973 1.524 . S
C975 C972 1.403 . S
C975 C976 1.392 . S
C975 C979 1.495 . S
C976 C975 1.392 . S
C976 C977 1.385 . S
C976 C978 1.478 . S
C977 H971 0.930 . S
C977 C973 1.400 . S
C977 C976 1.385 . S
C978 C976 1.478 . S
C978 C980 1.381 . S
C978 C984 1.383 . S
C979 C975 1.495 . S
C979 H985 0.959 . S
C979 H986 0.961 . S
C979 H987 0.960 . S
C980 C978 1.381 . S
C980 C981 1.394 . S
C980 H988 0.930 . S
C981 C980 1.394 . S
C981 C982 1.383 . S
C981 H989 0.929 . S
C982 C981 1.383 . S
C982 C983 1.377 . S
C983 H967 0.930 . S
C983 C982 1.377 . S
C983 C984 1.379 . S
C984 H968 0.931 . S
C984 C978 1.383 . S
C984 C983 1.379 . S
H985 C979 0.959 . S
H986 C979 0.961 . S
H987 C979 0.960 . S
H988 C980 0.930 . S
H989 C981 0.929 . S
H990 C998 0.929 . S
H991 C1000 0.930 . S
H992 C1002 0.930 . S
H993 C1005 0.929 . S
H994 C1008 0.930 . S
H995 C1010 0.960 . S
H996 C1010 0.960 . S
H997 C1010 0.960 . S
C998 H990 0.929 . S
C998 C999 1.377 . S
C998 C1000 1.384 . S
C999 C998 1.377 . S
C999 C1005 1.390 . S
C1000 H991 0.930 . S
C1000 C998 1.384 . S
C1000 C1001 1.372 . S
C1001 C1000 1.372 . S
C1001 C1002 1.400 . S
C1001 C1006 1.490 . S
C1002 H992 0.930 . S
C1002 C1001 1.400 . S
C1002 C1005 1.386 . S
H1003 C1019 0.930 . S
H1004 C1020 0.931 . S
C1005 H993 0.929 . S
C1005 C999 1.390 . S
C1005 C1002 1.386 . S
C1006 C1001 1.490 . S
C1006 C1008 1.395 . S
C1006 C1009 1.403 . S
H1007 C1013 0.930 . S
C1008 H994 0.930 . S
C1008 C1006 1.395 . S
C1008 C1011 1.403 . S
C1009 C1006 1.403 . S
C1009 C1010 1.524 . S
C1009 C1013 1.400 . S
C1010 H995 0.960 . S
C1010 H996 0.960 . S
C1010 H997 0.960 . S
C1010 C1009 1.524 . S
C1011 C1008 1.403 . S
C1011 C1012 1.392 . S
C1011 C1015 1.495 1_554 S
C1012 C1011 1.392 . S
C1012 C1013 1.385 . S
C1012 C1014 1.478 . S
C1013 H1007 0.930 . S
C1013 C1009 1.400 . S
C1013 C1012 1.385 . S
C1014 C1012 1.478 . S
C1014 C1016 1.381 1_554 S
C1014 C1020 1.383 . S
C1015 C1011 1.495 1_556 S
C1015 H1021 0.959 . S
C1015 H1022 0.961 . S
C1015 H1023 0.960 . S
C1016 C1014 1.381 1_556 S
C1016 C1017 1.394 . S
C1016 H1024 0.930 . S
C1017 C1016 1.394 . S
C1017 C1018 1.383 . S
C1017 H1025 0.929 . S
C1018 C1017 1.383 . S
C1018 C1019 1.377 1_556 S
C1019 H1003 0.930 . S
C1019 C1018 1.377 1_554 S
C1019 C1020 1.379 . S
C1020 H1004 0.931 . S
C1020 C1014 1.383 . S
C1020 C1019 1.379 . S
H1021 C1015 0.959 . S
H1022 C1015 0.961 . S
H1023 C1015 0.960 . S
H1024 C1016 0.930 . S
H1025 C1017 0.929 . S
H1026 C1034 0.929 . S
H1027 C1036 0.930 . S
H1028 C1038 0.930 . S
H1029 C1041 0.929 1_655 S
H1030 C1044 0.930 . S
H1031 C1046 0.960 . S
H1032 C1046 0.960 1_556 S
H1033 C1046 0.960 . S
C1034 H1026 0.929 . S
C1034 C1035 1.377 . S
C1034 C1036 1.384 . S
C1035 C1034 1.377 . S
C1035 C1041 1.390 1_556 S
C1036 H1027 0.930 . S
C1036 C1034 1.384 . S
C1036 C1037 1.372 1_556 S
C1037 C1036 1.372 1_554 S
C1037 C1038 1.400 . S
C1037 C1042 1.490 . S
C1038 H1028 0.930 . S
C1038 C1037 1.400 . S
C1038 C1041 1.386 . S
H1039 C1055 0.930 . S
H1040 C1056 0.931 . S
C1041 H1029 0.929 1_455 S
C1041 C1035 1.390 1_554 S
C1041 C1038 1.386 . S
C1042 C1037 1.490 . S
C1042 C1044 1.395 . S
C1042 C1045 1.403 . S
H1043 C1049 0.930 . S
C1044 H1030 0.930 . S
C1044 C1042 1.395 . S
C1044 C1047 1.403 . S
C1045 C1042 1.403 . S
C1045 C1046 1.524 . S
C1045 C1049 1.400 . S
C1046 H1031 0.960 . S
C1046 H1032 0.960 1_554 S
C1046 H1033 0.960 . S
C1046 C1045 1.524 . S
C1047 C1044 1.403 . S
C1047 C1048 1.392 . S
C1047 C1051 1.495 . S
C1048 C1047 1.392 . S
C1048 C1049 1.385 . S
C1048 C1050 1.478 . S
C1049 H1043 0.930 . S
C1049 C1045 1.400 . S
C1049 C1048 1.385 . S
C1050 C1048 1.478 . S
C1050 C1052 1.381 . S
C1050 C1056 1.383 . S
C1051 C1047 1.495 . S
C1051 H1057 0.959 . S
C1051 H1058 0.961 . S
C1051 H1059 0.960 . S
C1052 C1050 1.381 . S
C1052 C1053 1.394 . S
C1052 H1060 0.930 . S
C1053 C1052 1.394 . S
C1053 C1054 1.383 . S
C1053 H1061 0.929 . S
C1054 C1053 1.383 . S
C1054 C1055 1.377 . S
C1055 H1039 0.930 . S
C1055 C1054 1.377 . S
C1055 C1056 1.379 . S
C1056 H1040 0.931 . S
C1056 C1050 1.383 . S
C1056 C1055 1.379 . S
H1057 C1051 0.959 . S
H1058 C1051 0.961 . S
H1059 C1051 0.960 . S
H1060 C1052 0.930 . S
H1061 C1053 0.929 . S
H1062 C1070 0.929 . S
H1063 C1072 0.930 . S
H1064 C1074 0.930 . S
H1065 C1077 0.929 . S
H1066 C1080 0.930 . S
H1067 C1082 0.960 . S
H1068 C1082 0.960 . S
H1069 C1082 0.960 . S
C1070 H1062 0.929 . S
C1070 C1071 1.377 1_554 S
C1070 C1072 1.384 . S
C1071 C1070 1.377 1_556 S
C1071 C1077 1.390 . S
C1072 H1063 0.930 . S
C1072 C1070 1.384 . S
C1072 C1073 1.372 . S
C1073 C1072 1.372 . S
C1073 C1074 1.400 1_554 S
C1073 C1078 1.490 . S
C1074 H1064 0.930 . S
C1074 C1073 1.400 1_556 S
C1074 C1077 1.386 . S
H1075 C1091 0.930 . S
H1076 C1092 0.931 . S
C1077 H1065 0.929 . S
C1077 C1071 1.390 . S
C1077 C1074 1.386 . S
C1078 C1073 1.490 . S
C1078 C1080 1.395 . S
C1078 C1081 1.403 . S
H1079 C1085 0.930 . S
C1080 H1066 0.930 . S
C1080 C1078 1.395 . S
C1080 C1083 1.403 . S
C1081 C1078 1.403 . S
C1081 C1082 1.524 . S
C1081 C1085 1.400 . S
C1082 H1067 0.960 . S
C1082 H1068 0.960 . S
C1082 H1069 0.960 . S
C1082 C1081 1.524 . S
C1083 C1080 1.403 . S
C1083 C1084 1.392 . S
C1083 C1087 1.495 . S
C1084 C1083 1.392 . S
C1084 C1085 1.385 . S
C1084 C1086 1.478 . S
C1085 H1079 0.930 . S
C1085 C1081 1.400 . S
C1085 C1084 1.385 . S
C1086 C1084 1.478 . S
C1086 C1088 1.381 . S
C1086 C1092 1.383 . S
C1087 C1083 1.495 . S
C1087 H1093 0.959 . S
C1087 H1094 0.961 . S
C1087 H1095 0.960 . S
C1088 C1086 1.381 . S
C1088 C1089 1.394 . S
C1088 H1096 0.930 . S
C1089 C1088 1.394 . S
C1089 C1090 1.383 . S
C1089 H1097 0.929 . S
C1090 C1089 1.383 . S
C1090 C1091 1.377 . S
C1091 H1075 0.930 . S
C1091 C1090 1.377 . S
C1091 C1092 1.379 . S
C1092 H1076 0.931 . S
C1092 C1086 1.383 . S
C1092 C1091 1.379 . S
H1093 C1087 0.959 . S
H1094 C1087 0.961 . S
H1095 C1087 0.960 . S
H1096 C1088 0.930 . S
H1097 C1089 0.929 . S
H1098 C1106 0.929 . S
H1099 C1108 0.930 . S
H1100 C1110 0.930 . S
H1101 C1113 0.929 1_655 S
H1102 C1116 0.930 . S
H1103 C1118 0.960 . S
H1104 C1118 0.960 . S
H1105 C1118 0.960 . S
C1106 H1098 0.929 . S
C1106 C1107 1.377 . S
C1106 C1108 1.384 . S
C1107 C1106 1.377 . S
C1107 C1113 1.390 . S
C1108 H1099 0.930 . S
C1108 C1106 1.384 . S
C1108 C1109 1.372 . S
C1109 C1108 1.372 . S
C1109 C1110 1.400 . S
C1109 C1114 1.490 . S
C1110 H1100 0.930 . S
C1110 C1109 1.400 . S
C1110 C1113 1.386 . S
H1111 C1127 0.930 . S
H1112 C1128 0.931 . S
C1113 H1101 0.929 1_455 S
C1113 C1107 1.390 . S
C1113 C1110 1.386 . S
C1114 C1109 1.490 . S
C1114 C1116 1.395 . S
C1114 C1117 1.403 . S
H1115 C1121 0.930 . S
C1116 H1102 0.930 . S
C1116 C1114 1.395 . S
C1116 C1119 1.403 . S
C1117 C1114 1.403 . S
C1117 C1118 1.524 . S
C1117 C1121 1.400 . S
C1118 H1103 0.960 . S
C1118 H1104 0.960 . S
C1118 H1105 0.960 . S
C1118 C1117 1.524 . S
C1119 C1116 1.403 . S
C1119 C1120 1.392 . S
C1119 C1123 1.495 . S
C1120 C1119 1.392 . S
C1120 C1121 1.385 . S
C1120 C1122 1.478 . S
C1121 H1115 0.930 . S
C1121 C1117 1.400 . S
C1121 C1120 1.385 . S
C1122 C1120 1.478 . S
C1122 C1124 1.381 . S
C1122 C1128 1.383 . S
C1123 C1119 1.495 . S
C1123 H1129 0.959 . S
C1123 H1130 0.961 . S
C1123 H1131 0.960 . S
C1124 C1122 1.381 . S
C1124 C1125 1.394 . S
C1124 H1132 0.930 . S
C1125 C1124 1.394 . S
C1125 C1126 1.383 . S
C1125 H1133 0.929 . S
C1126 C1125 1.383 . S
C1126 C1127 1.377 . S
C1127 H1111 0.930 . S
C1127 C1126 1.377 . S
C1127 C1128 1.379 . S
C1128 H1112 0.931 . S
C1128 C1122 1.383 . S
C1128 C1127 1.379 . S
H1129 C1123 0.959 . S
H1130 C1123 0.961 . S
H1131 C1123 0.960 . S
H1132 C1124 0.930 . S
H1133 C1125 0.929 . S
H1134 C1142 0.929 . S
H1135 C1144 0.930 . S
H1136 C1146 0.930 . S
H1137 C1149 0.929 . S
H1138 C1152 0.930 . S
H1139 C1154 0.960 . S
H1140 C1154 0.960 . S
H1141 C1154 0.960 . S
C1142 H1134 0.929 . S
C1142 C1143 1.377 . S
C1142 C1144 1.384 . S
C1143 C1142 1.377 . S
C1143 C1149 1.390 . S
C1144 H1135 0.930 . S
C1144 C1142 1.384 . S
C1144 C1145 1.372 . S
C1145 C1144 1.372 . S
C1145 C1146 1.400 . S
C1145 C1150 1.490 . S
C1146 H1136 0.930 . S
C1146 C1145 1.400 . S
C1146 C1149 1.386 . S
H1147 C1163 0.930 . S
H1148 C1164 0.931 . S
C1149 H1137 0.929 . S
C1149 C1143 1.390 . S
C1149 C1146 1.386 . S
C1150 C1145 1.490 . S
C1150 C1152 1.395 . S
C1150 C1153 1.403 . S
H1151 C1157 0.930 . S
C1152 H1138 0.930 . S
C1152 C1150 1.395 . S
C1152 C1155 1.403 . S
C1153 C1150 1.403 . S
C1153 C1154 1.524 . S
C1153 C1157 1.400 . S
C1154 H1139 0.960 . S
C1154 H1140 0.960 . S
C1154 H1141 0.960 . S
C1154 C1153 1.524 . S
C1155 C1152 1.403 . S
C1155 C1156 1.392 . S
C1155 C1159 1.495 . S
C1156 C1155 1.392 . S
C1156 C1157 1.385 . S
C1156 C1158 1.478 . S
C1157 H1151 0.930 . S
C1157 C1153 1.400 . S
C1157 C1156 1.385 . S
C1158 C1156 1.478 . S
C1158 C1160 1.381 . S
C1158 C1164 1.383 . S
C1159 C1155 1.495 . S
C1159 H1165 0.959 . S
C1159 H1166 0.961 . S
C1159 H1167 0.960 . S
C1160 C1158 1.381 . S
C1160 C1161 1.394 . S
C1160 H1168 0.930 . S
C1161 C1160 1.394 . S
C1161 C1162 1.383 . S
C1161 H1169 0.929 . S
C1162 C1161 1.383 . S
C1162 C1163 1.377 . S
C1163 H1147 0.930 . S
C1163 C1162 1.377 . S
C1163 C1164 1.379 . S
C1164 H1148 0.931 . S
C1164 C1158 1.383 . S
C1164 C1163 1.379 . S
H1165 C1159 0.959 . S
H1166 C1159 0.961 . S
H1167 C1159 0.960 . S
H1168 C1160 0.930 . S
H1169 C1161 0.929 . S
H1170 C1178 0.929 . S
H1171 C1180 0.930 . S
H1172 C1182 0.930 . S
H1173 C1185 0.929 . S
H1174 C1188 0.930 . S
H1175 C1190 0.960 . S
H1176 C1190 0.960 . S
H1177 C1190 0.960 . S
C1178 H1170 0.929 . S
C1178 C1179 1.377 . S
C1178 C1180 1.384 . S
C1179 C1178 1.377 . S
C1179 C1185 1.390 . S
C1180 H1171 0.930 . S
C1180 C1178 1.384 . S
C1180 C1181 1.372 . S
C1181 C1180 1.372 . S
C1181 C1182 1.400 . S
C1181 C1186 1.490 . S
C1182 H1172 0.930 . S
C1182 C1181 1.400 . S
C1182 C1185 1.386 . S
H1183 C1199 0.930 . S
H1184 C1200 0.931 . S
C1185 H1173 0.929 . S
C1185 C1179 1.390 . S
C1185 C1182 1.386 . S
C1186 C1181 1.490 . S
C1186 C1188 1.395 . S
C1186 C1189 1.403 . S
H1187 C1193 0.930 . S
C1188 H1174 0.930 . S
C1188 C1186 1.395 . S
C1188 C1191 1.403 . S
C1189 C1186 1.403 . S
C1189 C1190 1.524 . S
C1189 C1193 1.400 . S
C1190 H1175 0.960 . S
C1190 H1176 0.960 . S
C1190 H1177 0.960 . S
C1190 C1189 1.524 . S
C1191 C1188 1.403 . S
C1191 C1192 1.392 . S
C1191 C1195 1.495 . S
C1192 C1191 1.392 . S
C1192 C1193 1.385 . S
C1192 C1194 1.478 . S
C1193 H1187 0.930 . S
C1193 C1189 1.400 . S
C1193 C1192 1.385 . S
C1194 C1192 1.478 . S
C1194 C1196 1.381 . S
C1194 C1200 1.383 . S
C1195 C1191 1.495 . S
C1195 H1201 0.959 . S
C1195 H1202 0.961 . S
C1195 H1203 0.960 . S
C1196 C1194 1.381 . S
C1196 C1197 1.394 . S
C1196 H1204 0.930 . S
C1197 C1196 1.394 . S
C1197 C1198 1.383 . S
C1197 H1205 0.929 . S
C1198 C1197 1.383 . S
C1198 C1199 1.377 . S
C1199 H1183 0.930 . S
C1199 C1198 1.377 . S
C1199 C1200 1.379 . S
C1200 H1184 0.931 . S
C1200 C1194 1.383 . S
C1200 C1199 1.379 . S
H1201 C1195 0.959 . S
H1202 C1195 0.961 . S
H1203 C1195 0.960 . S
H1204 C1196 0.930 . S
H1205 C1197 0.929 . S
H1206 C1214 0.929 . S
H1207 C1216 0.930 . S
H1208 C1218 0.930 . S
H1209 C1221 0.929 . S
H1210 C1224 0.930 . S
H1211 C1226 0.960 . S
H1212 C1226 0.960 . S
H1213 C1226 0.960 . S
C1214 H1206 0.929 . S
C1214 C1215 1.377 . S
C1214 C1216 1.384 . S
C1215 C1214 1.377 . S
C1215 C1221 1.390 1_554 S
C1216 H1207 0.930 . S
C1216 C1214 1.384 . S
C1216 C1217 1.372 1_554 S
C1217 C1216 1.372 1_556 S
C1217 C1218 1.400 . S
C1217 C1222 1.490 . S
C1218 H1208 0.930 . S
C1218 C1217 1.400 . S
C1218 C1221 1.386 . S
H1219 C1235 0.930 . S
H1220 C1236 0.931 . S
C1221 H1209 0.929 . S
C1221 C1215 1.390 1_556 S
C1221 C1218 1.386 . S
C1222 C1217 1.490 . S
C1222 C1224 1.395 . S
C1222 C1225 1.403 . S
H1223 C1229 0.930 . S
C1224 H1210 0.930 . S
C1224 C1222 1.395 . S
C1224 C1227 1.403 . S
C1225 C1222 1.403 . S
C1225 C1226 1.524 . S
C1225 C1229 1.400 . S
C1226 H1211 0.960 . S
C1226 H1212 0.960 . S
C1226 H1213 0.960 . S
C1226 C1225 1.524 . S
C1227 C1224 1.403 . S
C1227 C1228 1.392 . S
C1227 C1231 1.495 . S
C1228 C1227 1.392 . S
C1228 C1229 1.385 . S
C1228 C1230 1.478 . S
C1229 H1223 0.930 . S
C1229 C1225 1.400 . S
C1229 C1228 1.385 . S
C1230 C1228 1.478 . S
C1230 C1232 1.381 . S
C1230 C1236 1.383 . S
C1231 C1227 1.495 . S
C1231 H1237 0.959 . S
C1231 H1238 0.961 . S
C1231 H1239 0.960 . S
C1232 C1230 1.381 . S
C1232 C1233 1.394 . S
C1232 H1240 0.930 . S
C1233 C1232 1.394 . S
C1233 C1234 1.383 . S
C1233 H1241 0.929 . S
C1234 C1233 1.383 . S
C1234 C1235 1.377 . S
C1235 H1219 0.930 . S
C1235 C1234 1.377 . S
C1235 C1236 1.379 . S
C1236 H1220 0.931 . S
C1236 C1230 1.383 . S
C1236 C1235 1.379 . S
H1237 C1231 0.959 . S
H1238 C1231 0.961 . S
H1239 C1231 0.960 . S
H1240 C1232 0.930 . S
H1241 C1233 0.929 . S
H1242 C1250 0.929 . S
H1243 C1252 0.930 . S
H1244 C1254 0.930 . S
H1245 C1257 0.929 . S
H1246 C1260 0.930 . S
H1247 C1262 0.960 . S
H1248 C1262 0.960 . S
H1249 C1262 0.960 . S
C1250 H1242 0.929 . S
C1250 C1251 1.377 . S
C1250 C1252 1.384 . S
C1251 C1250 1.377 . S
C1251 C1257 1.390 . S
C1252 H1243 0.930 . S
C1252 C1250 1.384 . S
C1252 C1253 1.372 . S
C1253 C1252 1.372 . S
C1253 C1254 1.400 . S
C1253 C1258 1.490 . S
C1254 H1244 0.930 . S
C1254 C1253 1.400 . S
C1254 C1257 1.386 . S
H1255 C1271 0.930 . S
H1256 C1272 0.931 . S
C1257 H1245 0.929 . S
C1257 C1251 1.390 . S
C1257 C1254 1.386 . S
C1258 C1253 1.490 . S
C1258 C1260 1.395 . S
C1258 C1261 1.403 . S
H1259 C1265 0.930 . S
C1260 H1246 0.930 . S
C1260 C1258 1.395 . S
C1260 C1263 1.403 . S
C1261 C1258 1.403 . S
C1261 C1262 1.524 . S
C1261 C1265 1.400 . S
C1262 H1247 0.960 . S
C1262 H1248 0.960 . S
C1262 H1249 0.960 . S
C1262 C1261 1.524 . S
C1263 C1260 1.403 . S
C1263 C1264 1.392 . S
C1263 C1267 1.495 . S
C1264 C1263 1.392 . S
C1264 C1265 1.385 . S
C1264 C1266 1.478 . S
C1265 H1259 0.930 . S
C1265 C1261 1.400 . S
C1265 C1264 1.385 . S
C1266 C1264 1.478 . S
C1266 C1268 1.381 . S
C1266 C1272 1.383 . S
C1267 C1263 1.495 . S
C1267 H1273 0.959 . S
C1267 H1274 0.961 . S
C1267 H1275 0.960 . S
C1268 C1266 1.381 . S
C1268 C1269 1.394 1_556 S
C1268 H1276 0.930 . S
C1269 C1268 1.394 1_554 S
C1269 C1270 1.383 . S
C1269 H1277 0.929 . S
C1270 C1269 1.383 . S
C1270 C1271 1.377 1_554 S
C1271 H1255 0.930 . S
C1271 C1270 1.377 1_556 S
C1271 C1272 1.379 . S
C1272 H1256 0.931 . S
C1272 C1266 1.383 . S
C1272 C1271 1.379 . S
H1273 C1267 0.959 . S
H1274 C1267 0.961 . S
H1275 C1267 0.960 . S
H1276 C1268 0.930 . S
H1277 C1269 0.929 . S
H1278 C1286 0.929 . S
H1279 C1288 0.930 . S
H1280 C1290 0.930 . S
H1281 C1293 0.929 . S
H1282 C1296 0.930 . S
H1283 C1298 0.960 . S
H1284 C1298 0.960 . S
H1285 C1298 0.960 . S
C1286 H1278 0.929 . S
C1286 C1287 1.377 . S
C1286 C1288 1.384 . S
C1287 C1286 1.377 . S
C1287 C1293 1.390 . S
C1288 H1279 0.930 . S
C1288 C1286 1.384 . S
C1288 C1289 1.372 . S
C1289 C1288 1.372 . S
C1289 C1290 1.400 . S
C1289 C1294 1.490 . S
C1290 H1280 0.930 . S
C1290 C1289 1.400 . S
C1290 C1293 1.386 . S
H1291 C1307 0.930 . S
H1292 C1308 0.931 . S
C1293 H1281 0.929 . S
C1293 C1287 1.390 . S
C1293 C1290 1.386 . S
C1294 C1289 1.490 . S
C1294 C1296 1.395 . S
C1294 C1297 1.403 . S
H1295 C1301 0.930 . S
C1296 H1282 0.930 . S
C1296 C1294 1.395 . S
C1296 C1299 1.403 . S
C1297 C1294 1.403 . S
C1297 C1298 1.524 . S
C1297 C1301 1.400 . S
C1298 H1283 0.960 . S
C1298 H1284 0.960 . S
C1298 H1285 0.960 . S
C1298 C1297 1.524 . S
C1299 C1296 1.403 . S
C1299 C1300 1.392 . S
C1299 C1303 1.495 1_556 S
C1300 C1299 1.392 . S
C1300 C1301 1.385 . S
C1300 C1302 1.478 . S
C1301 H1295 0.930 . S
C1301 C1297 1.400 . S
C1301 C1300 1.385 . S
C1302 C1300 1.478 . S
C1302 C1304 1.380 1_556 S
C1302 C1308 1.383 . S
C1303 C1299 1.495 1_554 S
C1303 H1309 0.959 . S
C1303 H1310 0.961 . S
C1303 H1311 0.960 . S
C1304 C1302 1.380 1_554 S
C1304 C1305 1.395 . S
C1304 H1312 0.930 1_554 S
C1305 C1304 1.395 . S
C1305 C1306 1.383 . S
C1305 H1313 0.929 . S
C1306 C1305 1.383 . S
C1306 C1307 1.377 . S
C1307 H1291 0.930 . S
C1307 C1306 1.377 . S
C1307 C1308 1.379 1_554 S
C1308 H1292 0.931 . S
C1308 C1302 1.383 . S
C1308 C1307 1.379 1_556 S
H1309 C1303 0.959 . S
H1310 C1303 0.961 . S
H1311 C1303 0.960 . S
H1312 C1304 0.930 1_556 S
H1313 C1305 0.929 . S
H1314 C1322 0.929 . S
H1315 C1324 0.930 . S
H1316 C1326 0.930 . S
H1317 C1329 0.929 . S
H1318 C1332 0.930 . S
H1319 C1334 0.960 . S
H1320 C1334 0.960 . S
H1321 C1334 0.960 . S
C1322 H1314 0.929 . S
C1322 C1323 1.377 . S
C1322 C1324 1.384 . S
C1323 C1322 1.377 . S
C1323 C1329 1.390 . S
C1324 H1315 0.930 . S
C1324 C1322 1.384 . S
C1324 C1325 1.372 . S
C1325 C1324 1.372 . S
C1325 C1326 1.400 . S
C1325 C1330 1.490 . S
C1326 H1316 0.930 . S
C1326 C1325 1.400 . S
C1326 C1329 1.386 . S
H1327 C1343 0.930 . S
H1328 C1344 0.931 . S
C1329 H1317 0.929 . S
C1329 C1323 1.390 . S
C1329 C1326 1.386 . S
C1330 C1325 1.490 . S
C1330 C1332 1.395 . S
C1330 C1333 1.403 . S
H1331 C1337 0.930 . S
C1332 H1318 0.930 . S
C1332 C1330 1.395 . S
C1332 C1335 1.403 . S
C1333 C1330 1.403 . S
C1333 C1334 1.524 . S
C1333 C1337 1.400 . S
C1334 H1319 0.960 . S
C1334 H1320 0.960 . S
C1334 H1321 0.960 . S
C1334 C1333 1.524 . S
C1335 C1332 1.403 . S
C1335 C1336 1.392 . S
C1335 C1339 1.495 . S
C1336 C1335 1.392 . S
C1336 C1337 1.385 . S
C1336 C1338 1.478 . S
C1337 H1331 0.930 . S
C1337 C1333 1.400 . S
C1337 C1336 1.385 . S
C1338 C1336 1.478 . S
C1338 C1340 1.381 . S
C1338 C1344 1.383 . S
C1339 C1335 1.495 . S
C1339 H1345 0.959 . S
C1339 H1346 0.961 . S
C1339 H1347 0.960 . S
C1340 C1338 1.381 . S
C1340 C1341 1.394 . S
C1340 H1348 0.930 . S
C1341 C1340 1.394 . S
C1341 C1342 1.383 . S
C1341 H1349 0.929 . S
C1342 C1341 1.383 . S
C1342 C1343 1.377 . S
C1343 H1327 0.930 . S
C1343 C1342 1.377 . S
C1343 C1344 1.379 . S
C1344 H1328 0.931 . S
C1344 C1338 1.383 . S
C1344 C1343 1.379 . S
H1345 C1339 0.959 . S
H1346 C1339 0.961 . S
H1347 C1339 0.960 . S
H1348 C1340 0.930 . S
H1349 C1341 0.929 . S
H1350 C1358 0.929 . S
H1351 C1360 0.930 . S
H1352 C1362 0.930 . S
H1353 C1365 0.929 . S
H1354 C1368 0.930 . S
H1355 C1370 0.960 . S
H1356 C1370 0.960 . S
H1357 C1370 0.960 . S
C1358 H1350 0.929 . S
C1358 C1359 1.377 . S
C1358 C1360 1.384 . S
C1359 C1358 1.377 . S
C1359 C1365 1.390 . S
C1360 H1351 0.930 . S
C1360 C1358 1.384 . S
C1360 C1361 1.372 . S
C1361 C1360 1.372 . S
C1361 C1362 1.400 . S
C1361 C1366 1.490 . S
C1362 H1352 0.930 . S
C1362 C1361 1.400 . S
C1362 C1365 1.386 . S
H1363 C1379 0.930 . S
H1364 C1380 0.931 . S
C1365 H1353 0.929 . S
C1365 C1359 1.390 . S
C1365 C1362 1.386 . S
C1366 C1361 1.490 . S
C1366 C1368 1.395 . S
C1366 C1369 1.403 . S
H1367 C1373 0.930 . S
C1368 H1354 0.930 . S
C1368 C1366 1.395 . S
C1368 C1371 1.403 . S
C1369 C1366 1.403 . S
C1369 C1370 1.524 . S
C1369 C1373 1.400 . S
C1370 H1355 0.960 . S
C1370 H1356 0.960 . S
C1370 H1357 0.960 . S
C1370 C1369 1.524 . S
C1371 C1368 1.403 . S
C1371 C1372 1.392 . S
C1371 C1375 1.495 . S
C1372 C1371 1.392 . S
C1372 C1373 1.385 . S
C1372 C1374 1.478 . S
C1373 H1367 0.930 . S
C1373 C1369 1.400 . S
C1373 C1372 1.385 . S
C1374 C1372 1.478 . S
C1374 C1376 1.381 . S
C1374 C1380 1.383 . S
C1375 C1371 1.495 . S
C1375 H1381 0.959 . S
C1375 H1382 0.961 . S
C1375 H1383 0.960 . S
C1376 C1374 1.381 . S
C1376 C1377 1.394 . S
C1376 H1384 0.930 . S
C1377 C1376 1.394 . S
C1377 C1378 1.383 . S
C1377 H1385 0.929 . S
C1378 C1377 1.383 . S
C1378 C1379 1.377 . S
C1379 H1363 0.930 . S
C1379 C1378 1.377 . S
C1379 C1380 1.379 . S
C1380 H1364 0.931 . S
C1380 C1374 1.383 . S
C1380 C1379 1.379 . S
H1381 C1375 0.959 . S
H1382 C1375 0.961 . S
H1383 C1375 0.960 . S
H1384 C1376 0.930 . S
H1385 C1377 0.929 . S
H1386 C1394 0.929 . S
H1387 C1396 0.930 . S
H1388 C1398 0.930 . S
H1389 C1401 0.929 . S
H1390 C1404 0.930 . S
H1391 C1406 0.960 . S
H1392 C1406 0.960 . S
H1393 C1406 0.960 . S
C1394 H1386 0.929 . S
C1394 C1395 1.377 . S
C1394 C1396 1.384 . S
C1395 C1394 1.377 . S
C1395 C1401 1.390 . S
C1396 H1387 0.930 . S
C1396 C1394 1.384 . S
C1396 C1397 1.372 . S
C1397 C1396 1.372 . S
C1397 C1398 1.400 . S
C1397 C1402 1.490 . S
C1398 H1388 0.930 . S
C1398 C1397 1.400 . S
C1398 C1401 1.386 . S
H1399 C1415 0.930 . S
H1400 C1416 0.931 . S
C1401 H1389 0.929 . S
C1401 C1395 1.390 . S
C1401 C1398 1.386 . S
C1402 C1397 1.490 . S
C1402 C1404 1.395 . S
C1402 C1405 1.403 . S
H1403 C1409 0.930 . S
C1404 H1390 0.930 . S
C1404 C1402 1.395 . S
C1404 C1407 1.403 . S
C1405 C1402 1.403 . S
C1405 C1406 1.524 . S
C1405 C1409 1.400 . S
C1406 H1391 0.960 . S
C1406 H1392 0.960 . S
C1406 H1393 0.960 . S
C1406 C1405 1.524 . S
C1407 C1404 1.403 . S
C1407 C1408 1.392 . S
C1407 C1411 1.495 . S
C1408 C1407 1.392 . S
C1408 C1409 1.385 . S
C1408 C1410 1.478 . S
C1409 H1403 0.930 . S
C1409 C1405 1.400 . S
C1409 C1408 1.385 . S
C1410 C1408 1.478 . S
C1410 C1412 1.381 . S
C1410 C1416 1.383 . S
C1411 C1407 1.495 . S
C1411 H1417 0.959 . S
C1411 H1418 0.961 . S
C1411 H1419 0.960 . S
C1412 C1410 1.381 . S
C1412 C1413 1.394 . S
C1412 H1420 0.930 . S
C1413 C1412 1.394 . S
C1413 C1414 1.383 . S
C1413 H1421 0.929 . S
C1414 C1413 1.383 . S
C1414 C1415 1.377 . S
C1415 H1399 0.930 . S
C1415 C1414 1.377 . S
C1415 C1416 1.379 . S
C1416 H1400 0.931 . S
C1416 C1410 1.383 . S
C1416 C1415 1.379 . S
H1417 C1411 0.959 . S
H1418 C1411 0.961 . S
H1419 C1411 0.960 . S
H1420 C1412 0.930 . S
H1421 C1413 0.929 . S
H1422 C1430 0.929 . S
H1423 C1432 0.930 . S
H1424 C1434 0.930 . S
H1425 C1437 0.929 . S
H1426 C1440 0.930 . S
H1427 C1442 0.960 . S
H1428 C1442 0.960 . S
H1429 C1442 0.960 . S
C1430 H1422 0.929 . S
C1430 C1431 1.377 . S
C1430 C1432 1.384 . S
C1431 C1430 1.377 . S
C1431 C1437 1.390 . S
C1432 H1423 0.930 . S
C1432 C1430 1.384 . S
C1432 C1433 1.372 . S
C1433 C1432 1.372 . S
C1433 C1434 1.400 . S
C1433 C1438 1.490 . S
C1434 H1424 0.930 . S
C1434 C1433 1.400 . S
C1434 C1437 1.386 . S
H1435 C1451 0.930 . S
H1436 C1452 0.931 . S
C1437 H1425 0.929 . S
C1437 C1431 1.390 . S
C1437 C1434 1.386 . S
C1438 C1433 1.490 . S
C1438 C1440 1.395 . S
C1438 C1441 1.403 . S
H1439 C1445 0.930 . S
C1440 H1426 0.930 . S
C1440 C1438 1.395 . S
C1440 C1443 1.403 . S
C1441 C1438 1.403 . S
C1441 C1442 1.524 . S
C1441 C1445 1.400 . S
C1442 H1427 0.960 . S
C1442 H1428 0.960 . S
C1442 H1429 0.960 . S
C1442 C1441 1.524 . S
C1443 C1440 1.403 . S
C1443 C1444 1.392 . S
C1443 C1447 1.495 . S
C1444 C1443 1.392 . S
C1444 C1445 1.385 . S
C1444 C1446 1.478 . S
C1445 H1439 0.930 . S
C1445 C1441 1.400 . S
C1445 C1444 1.385 . S
C1446 C1444 1.478 . S
C1446 C1448 1.381 . S
C1446 C1452 1.383 . S
C1447 C1443 1.495 . S
C1447 H1453 0.959 . S
C1447 H1454 0.961 . S
C1447 H1455 0.960 . S
C1448 C1446 1.381 . S
C1448 C1449 1.394 . S
C1448 H1456 0.930 . S
C1449 C1448 1.394 . S
C1449 C1450 1.383 . S
C1449 H1457 0.929 . S
C1450 C1449 1.383 . S
C1450 C1451 1.377 . S
C1451 H1435 0.930 . S
C1451 C1450 1.377 . S
C1451 C1452 1.379 . S
C1452 H1436 0.931 . S
C1452 C1446 1.383 . S
C1452 C1451 1.379 . S
H1453 C1447 0.959 . S
H1454 C1447 0.961 . S
H1455 C1447 0.960 . S
H1456 C1448 0.930 . S
H1457 C1449 0.929 . S
H1458 C1466 0.929 . S
H1459 C1468 0.930 . S
H1460 C1470 0.930 . S
H1461 C1473 0.929 . S
H1462 C1476 0.930 . S
H1463 C1478 0.960 . S
H1464 C1478 0.960 . S
H1465 C1478 0.960 . S
C1466 H1458 0.929 . S
C1466 C1467 1.377 . S
C1466 C1468 1.384 . S
C1467 C1466 1.377 . S
C1467 C1473 1.390 . S
C1468 H1459 0.930 . S
C1468 C1466 1.384 . S
C1468 C1469 1.372 . S
C1469 C1468 1.372 . S
C1469 C1470 1.400 . S
C1469 C1474 1.490 . S
C1470 H1460 0.930 . S
C1470 C1469 1.400 . S
C1470 C1473 1.386 . S
H1471 C1487 0.930 . S
H1472 C1488 0.931 . S
C1473 H1461 0.929 . S
C1473 C1467 1.390 . S
C1473 C1470 1.386 . S
C1474 C1469 1.490 . S
C1474 C1476 1.395 . S
C1474 C1477 1.403 . S
H1475 C1481 0.930 . S
C1476 H1462 0.930 . S
C1476 C1474 1.395 . S
C1476 C1479 1.403 . S
C1477 C1474 1.403 . S
C1477 C1478 1.524 . S
C1477 C1481 1.400 . S
C1478 H1463 0.960 . S
C1478 H1464 0.960 . S
C1478 H1465 0.960 . S
C1478 C1477 1.524 . S
C1479 C1476 1.403 . S
C1479 C1480 1.392 . S
C1479 C1483 1.495 . S
C1480 C1479 1.392 . S
C1480 C1481 1.385 . S
C1480 C1482 1.478 . S
C1481 H1475 0.930 . S
C1481 C1477 1.400 . S
C1481 C1480 1.385 . S
C1482 C1480 1.478 . S
C1482 C1484 1.381 . S
C1482 C1488 1.383 . S
C1483 C1479 1.495 . S
C1483 H1489 0.959 . S
C1483 H1490 0.961 . S
C1483 H1491 0.960 . S
C1484 C1482 1.381 . S
C1484 C1485 1.394 . S
C1484 H1492 0.930 . S
C1485 C1484 1.394 . S
C1485 C1486 1.383 . S
C1485 H1493 0.929 . S
C1486 C1485 1.383 . S
C1486 C1487 1.377 . S
C1487 H1471 0.930 . S
C1487 C1486 1.377 . S
C1487 C1488 1.379 . S
C1488 H1472 0.931 . S
C1488 C1482 1.383 . S
C1488 C1487 1.379 . S
H1489 C1483 0.959 . S
H1490 C1483 0.961 . S
H1491 C1483 0.960 . S
H1492 C1484 0.930 . S
H1493 C1485 0.929 . S
H1494 C1502 0.929 . S
H1495 C1504 0.930 . S
H1496 C1506 0.930 . S
H1497 C1509 0.929 . S
H1498 C1512 0.930 . S
H1499 C1514 0.960 . S
H1500 C1514 0.960 . S
H1501 C1514 0.960 . S
C1502 H1494 0.929 . S
C1502 C1503 1.377 . S
C1502 C1504 1.384 . S
C1503 C1502 1.377 . S
C1503 C1509 1.390 . S
C1504 H1495 0.930 . S
C1504 C1502 1.384 . S
C1504 C1505 1.372 . S
C1505 C1504 1.372 . S
C1505 C1506 1.400 . S
C1505 C1510 1.490 . S
C1506 H1496 0.930 . S
C1506 C1505 1.400 . S
C1506 C1509 1.386 . S
H1507 C1523 0.930 . S
H1508 C1524 0.931 . S
C1509 H1497 0.929 . S
C1509 C1503 1.390 . S
C1509 C1506 1.386 . S
C1510 C1505 1.490 . S
C1510 C1512 1.395 . S
C1510 C1513 1.403 . S
H1511 C1517 0.930 . S
C1512 H1498 0.930 . S
C1512 C1510 1.395 . S
C1512 C1515 1.403 . S
C1513 C1510 1.403 . S
C1513 C1514 1.524 . S
C1513 C1517 1.400 . S
C1514 H1499 0.960 . S
C1514 H1500 0.960 . S
C1514 H1501 0.960 . S
C1514 C1513 1.524 . S
C1515 C1512 1.403 . S
C1515 C1516 1.392 . S
C1515 C1519 1.495 . S
C1516 C1515 1.392 . S
C1516 C1517 1.385 . S
C1516 C1518 1.478 . S
C1517 H1511 0.930 . S
C1517 C1513 1.400 . S
C1517 C1516 1.385 . S
C1518 C1516 1.478 . S
C1518 C1520 1.381 . S
C1518 C1524 1.383 . S
C1519 C1515 1.495 . S
C1519 H1525 0.959 . S
C1519 H1526 0.961 . S
C1519 H1527 0.960 . S
C1520 C1518 1.381 . S
C1520 C1521 1.394 . S
C1520 H1528 0.930 . S
C1521 C1520 1.394 . S
C1521 C1522 1.383 . S
C1521 H1529 0.929 . S
C1522 C1521 1.383 . S
C1522 C1523 1.377 . S
C1523 H1507 0.930 . S
C1523 C1522 1.377 . S
C1523 C1524 1.379 . S
C1524 H1508 0.931 . S
C1524 C1518 1.383 . S
C1524 C1523 1.379 . S
H1525 C1519 0.959 . S
H1526 C1519 0.961 . S
H1527 C1519 0.960 . S
H1528 C1520 0.930 . S
H1529 C1521 0.929 . S
C243 C43 1.305 . S
C262 C10 1.292 . S
C279 C62 1.306 . S
C298 C23 1.293 . S
C315 C36 1.310 . S
C334 C75 1.307 . S
C351 C30 1.309 . S
C370 C69 1.315 . S
C387 C4 1.306 . S
C406 C49 1.297 . S
C423 C56 1.310 . S
C442 C17 1.311 . S
C459 C121 1.306 . S
C478 C82 1.293 . S
C495 C101 1.309 . S
C514 C140 1.300 . S
C531 C114 1.310 . S
C550 C147 1.315 . S
C567 C153 1.308 1_556 S
C586 C108 1.297 . S
C603 C127 1.310 1_556 S
C622 C88 1.305 . S
C639 C134 1.305 1_556 S
C658 C95 1.294 . S
C675 C160 1.309 . S
C694 C205 1.300 . S
C711 C173 1.309 . S
C730 C218 1.317 . S
C747 C186 1.307 . S
C766 C225 1.315 . S
C783 C231 1.307 . S
C802 C192 1.313 1_554 S
C819 C199 1.310 . S
C838 C166 1.306 1_554 S
C855 C212 1.306 . S
C874 C179 1.311 1_554 S
C891 C3 1.283 . S
C910 C96 1.276 . S
C927 C16 1.281 . S
C946 C109 1.290 . S
C963 C81 1.284 . S
C982 C29 1.276 . S
C999 C31 1.280 . S
C1018 C174 1.290 . S
C1035 C187 1.284 . S
C1054 C5 1.276 . S
C1071 C161 1.282 . S
C1090 C18 1.286 . S
C1107 C213 1.280 . S
C1126 C44 1.269 . S
C1143 C55 1.281 . S
C1162 C224 1.268 . S
C1179 C200 1.284 . S
C1198 C68 1.292 . S
C1215 C133 1.281 . S
C1234 C70 1.283 . S
C1251 C42 1.281 . S
C1270 C148 1.270 . S
C1287 C57 1.285 . S
C1306 C122 1.287 . S
C1323 C83 1.281 . S
C1342 C172 1.286 . S
C1359 C94 1.283 . S
C1378 C185 1.275 . S
C1395 C107 1.280 . S
C1414 C159 1.291 . S
C1431 C211 1.285 . S
C1450 C146 1.286 . S
C1467 C226 1.285 . S
C1486 C120 1.284 . S
C1503 C135 1.281 . S
C1522 C198 1.284 . S
