# Generated by pormake.
# Topology sod, (4)-cn, num edge types: 1
# Building blocks:
#     Node 0, Type 0, BuildingBlock: QUQFOY_clean_sbu_3, # of connection points: 4
#     Node 1, Type 0, BuildingBlock: QUQFOY_clean_sbu_3, # of connection points: 4
#     Node 2, Type 0, BuildingBlock: QUQFOY_clean_sbu_3, # of connection points: 4
#     Node 3, Type 0, BuildingBlock: QUQFOY_clean_sbu_3, # of connection points: 4
#     Node 4, Type 0, BuildingBlock: QUQFOY_clean_sbu_3, # of connection points: 4
#     Node 5, Type 0, BuildingBlock: QUQFOY_clean_sbu_3, # of connection points: 4
#     Node 6, Type 0, BuildingBlock: QUQFOY_clean_sbu_3, # of connection points: 4
#     Node 7, Type 0, BuildingBlock: QUQFOY_clean_sbu_3, # of connection points: 4
#     Node 8, Type 0, BuildingBlock: QUQFOY_clean_sbu_3, # of connection points: 4
#     Node 9, Type 0, BuildingBlock: QUQFOY_clean_sbu_3, # of connection points: 4
#     Node 10, Type 0, BuildingBlock: QUQFOY_clean_sbu_3, # of connection points: 4
#     Node 11, Type 0, BuildingBlock: QUQFOY_clean_sbu_3, # of connection points: 4
#     Edge 12, Type (0, 0), BuildingBlock: AJUNOK_clean_linker_0, # of connection points: 2
#     Edge 13, Type (0, 0), BuildingBlock: AJUNOK_clean_linker_0, # of connection points: 2
#     Edge 14, Type (0, 0), BuildingBlock: AJUNOK_clean_linker_0, # of connection points: 2
#     Edge 15, Type (0, 0), BuildingBlock: AJUNOK_clean_linker_0, # of connection points: 2
#     Edge 16, Type (0, 0), BuildingBlock: AJUNOK_clean_linker_0, # of connection points: 2
#     Edge 17, Type (0, 0), BuildingBlock: AJUNOK_clean_linker_0, # of connection points: 2
#     Edge 18, Type (0, 0), BuildingBlock: AJUNOK_clean_linker_0, # of connection points: 2
#     Edge 19, Type (0, 0), BuildingBlock: AJUNOK_clean_linker_0, # of connection points: 2
#     Edge 20, Type (0, 0), BuildingBlock: AJUNOK_clean_linker_0, # of connection points: 2
#     Edge 21, Type (0, 0), BuildingBlock: AJUNOK_clean_linker_0, # of connection points: 2
#     Edge 22, Type (0, 0), BuildingBlock: AJUNOK_clean_linker_0, # of connection points: 2
#     Edge 23, Type (0, 0), BuildingBlock: AJUNOK_clean_linker_0, # of connection points: 2
#     Edge 24, Type (0, 0), BuildingBlock: AJUNOK_clean_linker_0, # of connection points: 2
#     Edge 25, Type (0, 0), BuildingBlock: AJUNOK_clean_linker_0, # of connection points: 2
#     Edge 26, Type (0, 0), BuildingBlock: AJUNOK_clean_linker_0, # of connection points: 2
#     Edge 27, Type (0, 0), BuildingBlock: AJUNOK_clean_linker_0, # of connection points: 2
#     Edge 28, Type (0, 0), BuildingBlock: AJUNOK_clean_linker_0, # of connection points: 2
#     Edge 29, Type (0, 0), BuildingBlock: AJUNOK_clean_linker_0, # of connection points: 2
#     Edge 30, Type (0, 0), BuildingBlock: AJUNOK_clean_linker_0, # of connection points: 2
#     Edge 31, Type (0, 0), BuildingBlock: AJUNOK_clean_linker_0, # of connection points: 2
#     Edge 32, Type (0, 0), BuildingBlock: AJUNOK_clean_linker_0, # of connection points: 2
#     Edge 33, Type (0, 0), BuildingBlock: AJUNOK_clean_linker_0, # of connection points: 2
#     Edge 34, Type (0, 0), BuildingBlock: AJUNOK_clean_linker_0, # of connection points: 2
#     Edge 35, Type (0, 0), BuildingBlock: AJUNOK_clean_linker_0, # of connection points: 2
# Relax obj value: 0.139
# Max RMSD: 0.178
# Mean RMSD: 0.168
data_MOF--net-sod--node1-QUQFOY_clean_sbu_3--edge1-AJUNOK_clean_linker_0
_symmetry_space_group_name_H-M    P1
_symmetry_Int_Tables_number       1
_symmetry_cell_setting            triclinic
loop_
_symmetry_equiv_pos_as_xyz
'x, y, z'
_cell_length_a     32.132761
_cell_length_b     32.578113
_cell_length_c     32.502522
_cell_angle_alpha  93.57069
_cell_angle_beta   89.799557
_cell_angle_gamma 92.076054
loop_
_atom_site_label
_atom_site_type_symbol
_atom_site_fract_x
_atom_site_fract_y
_atom_site_fract_z
_atom_type_partial_charge
C0 C -0.00906 0.19472 0.54304 0.0
O1 O 0.0124 0.19741 0.57588 0.0
Cd2 Cd 0.07099 0.24284 0.58614 0.0
O3 O 0.00162 0.21554 0.51238 0.0
Cd4 Cd 0.05988 0.26519 0.49651 0.0
C5 C 0.1338 0.19696 0.51443 0.0
O6 O 0.04083 0.30212 0.55917 0.0
O7 O 0.09421 0.32924 0.52982 0.0
O8 O 0.01339 0.28643 0.44295 0.0
C9 C 0.06528 0.33288 0.55626 0.0
O10 O 0.1276 0.20528 0.55264 0.0
C11 C 0.04254 0.29871 0.41971 0.0
O12 O 0.11224 0.21362 0.48792 0.0
O13 O 0.07947 0.2939 0.43164 0.0
C14 C 0.6971 0.08338 0.44861 0.0
O15 O 0.69935 0.12067 0.46249 0.0
Cd16 Cd 0.73999 0.13808 0.52334 0.0
O17 O 0.71662 0.05619 0.46641 0.0
Cd18 Cd 0.76351 0.04731 0.52412 0.0
C19 C 0.68968 0.07744 0.59151 0.0
O20 O 0.80678 0.10752 0.50976 0.0
O21 O 0.82108 0.07803 0.56536 0.0
O22 O 0.79084 -0.00694 0.47833 0.0
C23 C 0.83167 0.10388 0.53934 0.0
O24 O 0.69698 0.11365 0.58001 0.0
C25 C 0.79431 0.96752 0.50592 0.0
O26 O 0.7089 0.04739 0.57492 0.0
O27 O 0.78321 0.97918 0.54216 0.0
C28 C 0.88483 0.81821 0.47389 0.0
O29 O 0.89701 0.80838 0.43753 0.0
Cd30 Cd 0.9458 0.75713 0.41816 0.0
O31 O 0.89899 0.80032 0.50444 0.0
Cd32 Cd 0.95078 0.74689 0.51208 0.0
C33 C 0.02866 0.80283 0.46839 0.0
O34 O 0.92548 0.69881 0.4564 0.0
O35 O 0.98527 0.68645 0.48119 0.0
O36 O 0.91916 0.71789 0.57327 0.0
C37 C 0.95485 0.67422 0.45839 0.0
O38 O 0.01467 0.78993 0.43315 0.0
C39 C 0.95262 0.72148 0.59418 0.0
O40 O 0.00942 0.79363 0.50092 0.0
O41 O 0.98351 0.73937 0.57764 0.0
C42 C 0.3279 0.92775 0.40887 0.0
O43 O 0.32447 0.89312 0.42471 0.0
Cd44 Cd 0.27388 0.87508 0.47572 0.0
O45 O 0.30432 0.95682 0.4209 0.0
Cd46 Cd 0.24889 0.965 0.47376 0.0
C47 C 0.30541 0.93724 0.55595 0.0
O48 O 0.20901 0.90164 0.45194 0.0
O49 O 0.18582 0.93595 0.50529 0.0
O50 O 0.21744 0.02474 0.44387 0.0
C51 C 0.18023 0.90662 0.47826 0.0
O52 O 0.30165 0.89941 0.54393 0.0
C53 C 0.22212 0.04759 0.4769 0.0
O54 O 0.29137 0.96439 0.53406 0.0
O55 O 0.23966 0.0319 0.5067 0.0
C56 C 0.59417 0.02227 0.30981 0.0
O57 O 0.59643 0.98409 0.29984 0.0
Cd58 Cd 0.55635 0.94518 0.24925 0.0
O59 O 0.56849 0.04414 0.29184 0.0
Cd60 Cd 0.51579 0.03119 0.23617 0.0
C61 C 0.46107 0.96329 0.29257 0.0
O62 O 0.56049 0.98839 0.19268 0.0
O63 O 0.49681 0.98805 0.17333 0.0
O64 O 0.52922 0.10072 0.21423 0.0
C65 C 0.53365 0.9772 0.16564 0.0
O66 O 0.48804 0.93689 0.28217 0.0
C67 C 0.49105 0.10854 0.21015 0.0
O68 O 0.46537 1e-05 0.28164 0.0
O69 O 0.46462 0.0808 0.21961 0.0
C70 C 0.04112 0.54671 0.19626 0.0
O71 O 0.01497 0.57498 0.20031 0.0
Cd72 Cd 0.95649 0.57315 0.24422 0.0
O73 O 0.03574 0.51362 0.21512 0.0
Cd74 Cd 0.98106 0.48759 0.26351 0.0
C75 C 0.90243 0.49283 0.19593 0.0
O76 O 0.98928 0.55051 0.30476 0.0
O77 O 0.93629 0.51368 0.32264 0.0
O78 O 0.03218 0.44356 0.29307 0.0
C79 C 0.96225 0.54305 0.33162 0.0
O80 O 0.90297 0.53122 0.20591 0.0
C81 C 0.00605 0.41413 0.29842 0.0
O82 O 0.92937 0.47043 0.21073 0.0
O83 O 0.9694 0.41846 0.28557 0.0
C84 C 0.5473 0.04931 0.69859 0.0
O85 O 0.52209 0.07842 0.70252 0.0
Cd86 Cd 0.46228 0.0781 0.74469 0.0
O87 O 0.5404 0.0161 0.7169 0.0
Cd88 Cd 0.48415 -0.00908 0.76406 0.0
C89 C 0.40745 -0.00132 0.69498 0.0
O90 O 0.49145 0.05373 0.80602 0.0
O91 O 0.43746 0.01711 0.82145 0.0
O92 O 0.53388 0.94637 0.79491 0.0
C93 C 0.46274 0.0468 0.83136 0.0
O94 O 0.40902 0.03702 0.70523 0.0
C95 C 0.50739 0.91705 0.79939 0.0
O96 O 0.43338 0.97524 0.70993 0.0
O97 O 0.47117 0.92164 0.78554 0.0
C98 C 0.09739 0.5205 0.80989 0.0
O99 O 0.09889 0.48207 0.80108 0.0
Cd100 Cd 0.05683 0.44215 0.75295 0.0
O101 O 0.07096 0.54211 0.79259 0.0
Cd102 Cd 0.01634 0.52786 0.73886 0.0
C103 C 0.96236 0.46171 0.79761 0.0
O104 O 0.06016 0.48416 0.69541 0.0
O105 O -0.00385 0.48346 0.67708 0.0
O106 O 0.0291 0.59655 0.71455 0.0
C107 C 0.03291 0.47268 0.66892 0.0
O108 O 0.98912 0.43505 0.78739 0.0
C109 C -0.00917 0.60436 0.71121 0.0
O110 O 0.9666 0.49812 0.78586 0.0
O111 O 0.96471 0.57712 0.7224 0.0
C112 C 0.19802 0.58595 0.94762 0.0
O113 O 0.19695 0.62308 0.96181 0.0
Cd114 Cd 0.23457 0.64168 0.02444 0.0
O115 O 0.21788 0.55987 0.96658 0.0
Cd116 Cd 0.26153 0.55248 0.02676 0.0
C117 C 0.18387 0.5798 0.09096 0.0
O118 O 0.30333 0.61397 0.01338 0.0
O119 O 0.31761 0.58449 0.06901 0.0
O120 O 0.29016 0.49883 0.9813 0.0
C121 C 0.32792 0.61075 0.04331 0.0
O122 O 0.19011 0.61618 0.07955 0.0
C123 C 0.29387 0.47332 0.00888 0.0
O124 O 0.20498 0.55063 0.07535 0.0
O125 O 0.28277 0.48489 0.04515 0.0
C126 C 0.38101 0.32213 0.97512 0.0
O127 O 0.39108 0.31117 0.93838 0.0
Cd128 Cd 0.43817 0.25875 0.9178 0.0
O129 O 0.3964 0.30466 0.00535 0.0
Cd130 Cd 0.44742 0.25033 0.01193 0.0
C131 C 0.524 0.30379 0.96403 0.0
O132 O 0.41983 0.20141 0.95799 0.0
O133 O 0.48105 0.18995 0.97991 0.0
O134 O 0.41756 0.22212 0.07431 0.0
C135 C 0.44959 0.17714 0.95881 0.0
O136 O 0.50796 0.29052 0.92977 0.0
C137 C 0.45155 0.22597 0.09435 0.0
O138 O 0.50615 0.29604 -0.00225 0.0
O139 O 0.48202 0.24346 0.07675 0.0
C140 C 0.82624 0.42726 0.91118 0.0
O141 O 0.82116 0.39213 0.92573 0.0
Cd142 Cd 0.76842 0.3734 0.97413 0.0
O143 O 0.80299 0.45665 0.92315 0.0
Cd144 Cd 0.74553 0.46466 0.97414 0.0
C145 C 0.8001 0.43333 0.05618 0.0
O146 O 0.70597 0.40277 0.94849 0.0
O147 O 0.68082 0.4346 0.00233 0.0
O148 O 0.7166 0.52571 0.94423 0.0
C149 C 0.67607 0.40675 0.97362 0.0
O150 O 0.79502 0.39586 0.04321 0.0
C151 C 0.71934 0.54756 0.97807 0.0
O152 O 0.78699 0.46156 0.03504 0.0
O153 O 0.73474 0.53078 0.00837 0.0
C154 C 0.48877 0.69884 0.04522 0.0
O155 O 0.51064 0.70142 0.07779 0.0
Cd156 Cd 0.57034 0.74558 0.0868 0.0
O157 O 0.4997 0.71892 0.01411 0.0
Cd158 Cd 0.55904 0.76696 -0.00296 0.0
C159 C 0.63198 0.69774 0.01522 0.0
O160 O 0.54106 0.80503 0.05933 0.0
O161 O 0.59466 0.83094 0.02927 0.0
O162 O 0.5126 0.78865 0.94361 0.0
C163 C 0.56588 0.8354 0.05576 0.0
O164 O 0.626 0.70658 0.05339 0.0
C165 C 0.5418 0.80031 0.9201 0.0
O166 O 0.61058 0.71442 -0.01141 0.0
O167 O 0.57867 0.79477 0.93175 0.0
C168 C 0.0656 0.34852 0.36829 0.0
C169 C 0.0342 0.32207 0.38322 0.0
C170 C 0.0568 0.37662 0.33888 0.0
C171 C 0.01637 0.37905 0.32299 0.0
H172 H 0.09673 0.34924 0.38105 0.0
H173 H 0.08149 0.39784 0.33003 0.0
S174 S 0.9249 0.31142 0.34676 0.0
N175 N 0.96244 0.29648 0.37633 0.0
N176 N 0.94585 0.34879 0.32058 0.0
C177 C 0.98551 0.3504 0.33519 0.0
C178 C -0.00558 0.32207 0.36547 0.0
C179 C 0.67562 0.03041 0.39379 0.0
C180 C 0.67177 0.07047 0.41179 0.0
C181 C 0.65101 0.01579 0.36046 0.0
C182 C 0.62126 0.04047 0.34349 0.0
H183 H 0.69766 0.00974 0.40571 0.0
H184 H 0.6552 0.98449 0.3483 0.0
S185 S 0.59993 0.14851 0.37801 0.0
N186 N 0.63685 0.13537 0.40932 0.0
N187 N 0.59026 0.10772 0.34631 0.0
C188 C 0.61767 0.08107 0.36039 0.0
C189 C 0.64298 0.09609 0.39458 0.0
C190 C 0.92117 0.58815 0.38019 0.0
C191 C 0.95921 0.57103 0.36862 0.0
C192 C 0.91984 0.62084 0.41036 0.0
C193 C 0.95639 0.63682 0.43029 0.0
H194 H 0.89274 0.57785 0.36429 0.0
H195 H 0.89013 0.6344 0.41729 0.0
S196 S 0.06298 0.59861 0.41381 0.0
N197 N 0.03357 0.56975 0.38112 0.0
N198 N 0.03111 0.6303 0.4385 0.0
C199 C -0.00583 0.61797 0.42065 0.0
C200 C -0.00445 0.5853 0.38956 0.0
C201 C 0.36668 0.97444 0.36254 0.0
C202 C 0.36041 0.93494 0.37719 0.0
C203 C 0.39852 0.98288 0.33447 0.0
C204 C 0.42559 0.95222 0.31973 0.0
H205 H 0.34733 -0.00055 0.37336 0.0
H206 H 0.40233 0.01407 0.32494 0.0
S207 S 0.42068 0.84276 0.34597 0.0
N208 N 0.38269 0.86409 0.37299 0.0
N209 N 0.44251 0.88001 0.32028 0.0
C210 C 0.41893 0.9122 0.33309 0.0
C211 C 0.38642 0.90357 0.36176 0.0
C212 C 0.00799 0.66945 0.6774 0.0
C213 C 0.97764 0.6407 0.69004 0.0
C214 C -0.00155 0.6984 0.64919 0.0
C215 C 0.95826 0.69953 0.63223 0.0
H216 H 0.04001 0.66804 0.68737 0.0
H217 H 0.02364 0.71803 0.63847 0.0
S218 S 0.86551 0.63695 0.66209 0.0
N219 N 0.90408 0.61974 0.68884 0.0
N220 N 0.88631 0.67399 0.63537 0.0
C221 C 0.92661 0.67393 0.64792 0.0
C222 C 0.93628 0.64452 0.67693 0.0
C223 C 0.38256 0.94181 0.64441 0.0
C224 C 0.37755 0.98163 0.66304 0.0
C225 C 0.35785 0.92669 0.61092 0.0
C226 C 0.32729 0.95087 0.59473 0.0
H227 H 0.40679 0.92261 0.65474 0.0
H228 H 0.36397 0.8966 0.59656 0.0
S229 S 0.29721 0.05455 0.63615 0.0
N230 N 0.33641 0.043 0.66547 0.0
N231 N 0.29007 0.01469 0.60275 0.0
C232 C 0.32027 0.98972 0.61459 0.0
C233 C 0.34535 0.00507 0.64865 0.0
C234 C 0.01759 0.37889 0.59562 0.0
C235 C 0.05828 0.37104 0.58181 0.0
C236 C 0.00937 0.41305 0.62215 0.0
C237 C 0.04168 0.44029 0.63655 0.0
H238 H -0.00824 0.35814 0.58622 0.0
H239 H 0.97768 0.41714 0.63268 0.0
S240 S 0.15332 0.4351 0.60751 0.0
N241 N 0.13086 0.3946 0.58238 0.0
N242 N 0.1157 0.45861 0.63329 0.0
C243 C 0.08239 0.43362 0.62197 0.0
C244 C 0.09063 0.39907 0.59428 0.0
C245 C 0.59407 0.09425 0.65787 0.0
C246 C 0.58517 0.05531 0.67308 0.0
C247 C 0.62867 0.10135 0.63284 0.0
C248 C 0.65593 0.06979 0.62163 0.0
H249 H 0.57393 0.1197 0.66499 0.0
H250 H 0.63337 0.13171 0.62141 0.0
S251 S 0.64843 0.96275 0.65526 0.0
N252 N 0.60774 0.98514 0.67667 0.0
N253 N 0.67295 -0.00162 0.62941 0.0
C254 C 0.64821 0.03089 0.6375 0.0
C255 C 0.61285 0.02368 0.66323 0.0
C256 C 0.34784 0.37392 0.02367 0.0
C257 C 0.35425 0.35795 0.98298 0.0
C258 C 0.32705 0.41057 0.03182 0.0
C259 C 0.31204 0.43279 -0.0004 0.0
H260 H 0.36008 0.35877 0.04954 0.0
H261 H 0.324 0.42224 0.06359 0.0
S262 S 0.31583 0.40185 0.88786 0.0
N263 N 0.34017 0.36544 0.91019 0.0
N264 N 0.30143 0.43443 0.92569 0.0
C265 C 0.31634 0.41625 0.95889 0.0
C266 C 0.33731 0.3788 0.95054 0.0
C267 C 0.38025 0.65934 0.0138 0.0
C268 C 0.36885 0.63317 0.04515 0.0
C269 C 0.4194 0.67962 0.01353 0.0
C270 C 0.44872 0.67472 0.04471 0.0
H271 H 0.35883 0.6642 -0.01094 0.0
H272 H 0.42639 0.69976 -0.01106 0.0
S273 S 0.43468 0.60873 0.13341 0.0
N274 N 0.39034 0.60291 0.10792 0.0
N275 N 0.46391 0.64088 0.10748 0.0
C276 C 0.43785 0.64836 0.07615 0.0
C277 C 0.39794 0.62769 0.07639 0.0
C278 C 0.57333 0.35424 0.00104 0.0
C279 C 0.5632 0.32931 0.96526 0.0
C280 C 0.60977 0.37916 0.00335 0.0
C281 C 0.63792 0.37981 0.97018 0.0
H282 H 0.5527 0.35496 0.02749 0.0
H283 H 0.61594 0.39791 0.03152 0.0
S284 S 0.62655 0.31974 0.86966 0.0
N285 N 0.58458 0.30661 0.89592 0.0
N286 N 0.65338 0.35311 0.90039 0.0
C287 C 0.62845 0.3548 0.93428 0.0
C288 C 0.59102 0.3297 0.93176 0.0
C289 C 0.70525 0.61026 0.02311 0.0
C290 C 0.70248 0.58933 0.98391 0.0
C291 C 0.68441 0.64666 0.03214 0.0
C292 C 0.65996 0.66392 0.00234 0.0
H293 H 0.72229 0.5976 0.04778 0.0
H294 H 0.68619 0.66041 0.06334 0.0
S295 S 0.6473 0.6244 0.89312 0.0
N296 N 0.67696 0.59081 0.91372 0.0
N297 N 0.63784 0.65953 0.93047 0.0
C298 C 0.65936 0.64497 0.96207 0.0
C299 C 0.68056 0.60762 0.95292 0.0
C300 C 0.56565 0.84953 0.86843 0.0
C301 C 0.53371 0.82396 0.88373 0.0
C302 C 0.55735 0.87801 0.83925 0.0
C303 C 0.51687 0.88169 0.82392 0.0
H304 H 0.59693 0.84927 0.88072 0.0
H305 H 0.58254 0.89849 0.83006 0.0
S306 S 0.42373 0.81692 0.84902 0.0
N307 N 0.46115 0.80066 0.87792 0.0
N308 N 0.44547 0.8537 0.82259 0.0
C309 C 0.48532 0.85397 0.83653 0.0
C310 C 0.49375 0.82525 0.8666 0.0
C311 C 0.14011 0.59233 0.89731 0.0
C312 C 0.17542 0.57194 0.90956 0.0
C313 C 0.1157 0.5764 0.86392 0.0
C314 C 0.12588 0.53961 0.84177 0.0
H315 H 0.13031 0.61984 0.91457 0.0
H316 H 0.08784 0.59216 0.8565 0.0
S317 S 0.21921 0.47838 0.85745 0.0
N318 N 0.22209 0.51582 0.89401 0.0
N319 N 0.17646 0.48601 0.83145 0.0
C320 C 0.16255 0.52038 0.85226 0.0
C321 C 0.18726 0.53651 0.88612 0.0
C322 C 0.49319 0.09425 0.88645 0.0
C323 C 0.45742 0.07553 0.86761 0.0
C324 C 0.49019 0.12575 0.91736 0.0
C325 C 0.45128 0.14038 0.92996 0.0
H326 H 0.52391 0.08508 0.87652 0.0
H327 H 0.51873 0.1399 0.93014 0.0
S328 S 0.34802 0.09964 0.89225 0.0
N329 N 0.38183 0.07177 0.86543 0.0
N330 N 0.37598 0.13198 0.92313 0.0
C331 C 0.41511 0.12087 0.91248 0.0
C332 C 0.41822 0.08811 0.88142 0.0
C333 C 0.89939 0.48193 0.8386 0.0
C334 C 0.92677 0.45115 0.82484 0.0
C335 C 0.86681 0.47375 0.86596 0.0
C336 C 0.86006 0.4344 0.88081 0.0
H337 H 0.90337 0.51296 0.82867 0.0
H338 H 0.84708 0.49877 0.87585 0.0
S339 S 0.92158 0.34221 0.85279 0.0
N340 N 0.94396 0.37916 0.82709 0.0
N341 N 0.88279 0.36372 0.87842 0.0
C342 C 0.88665 0.403 0.86664 0.0
C343 C 0.91993 0.41137 0.83874 0.0
C344 C 0.43806 0.14543 0.17211 0.0
C345 C 0.47807 0.14527 0.1896 0.0
C346 C 0.42814 0.17445 0.144 0.0
C347 C 0.45786 0.20439 0.1325 0.0
H348 H 0.41514 0.1212 0.17772 0.0
H349 H 0.39807 0.17134 0.12893 0.0
S350 S 0.56335 0.22342 0.17759 0.0
N351 N 0.54485 0.18205 0.19931 0.0
N352 N 0.52617 0.23689 0.14676 0.0
C353 C 0.49625 0.20746 0.15345 0.0
C354 C 0.50641 0.17776 0.18191 0.0
C355 C 0.84603 0.50108 0.14476 0.0
C356 C 0.87274 0.47502 0.16409 0.0
C357 C 0.82158 0.48667 0.11107 0.0
C358 C 0.82259 0.44549 0.09512 0.0
H359 H 0.84488 0.53336 0.15477 0.0
H360 H 0.80249 0.50852 0.09677 0.0
S361 S 0.88372 0.36327 0.13726 0.0
N362 N 0.8961 0.40486 0.16693 0.0
N363 N 0.85003 0.37791 0.10334 0.0
C364 C 0.84735 0.41841 0.11547 0.0
C365 C 0.87245 0.43313 0.14995 0.0
C366 C 0.51825 0.88305 0.09291 0.0
C367 C 0.55907 0.87421 0.08026 0.0
C368 C 0.51009 0.91772 0.11874 0.0
C369 C 0.54258 0.94451 0.13361 0.0
H370 H 0.49226 0.86264 0.0832 0.0
H371 H 0.47825 0.92249 0.12845 0.0
S372 S 0.65468 0.93683 0.1073 0.0
N373 N 0.63203 0.89642 0.08218 0.0
N374 N 0.61697 0.96141 0.13184 0.0
C375 C 0.58345 0.93692 0.12006 0.0
C376 C 0.59165 0.90183 0.09304 0.0
C377 C 0.12037 0.60102 0.12993 0.0
C378 C 0.14951 0.57082 0.12003 0.0
C379 C 0.08569 0.59268 0.15446 0.0
C380 C 0.07859 0.55381 0.17047 0.0
H381 H 0.12378 0.63127 0.11799 0.0
H382 H 0.06418 0.61715 0.16071 0.0
S383 S 0.14671 0.46445 0.15554 0.0
N384 N 0.16989 0.50068 0.12944 0.0
N385 N 0.10455 0.4851 0.17577 0.0
C386 C 0.10794 0.52347 0.16163 0.0
C387 C 0.14337 0.53195 0.13641 0.0
C388 C 0.82697 0.90472 0.52939 0.0
C389 C 0.81281 0.92707 0.49688 0.0
C390 C 0.84869 0.86856 0.52167 0.0
C391 C 0.85696 0.85325 0.48111 0.0
H392 H 0.82264 0.91597 0.56113 0.0
H393 H 0.86028 0.85336 0.5478 0.0
S394 S 0.82126 0.89748 0.38513 0.0
N395 N 0.80487 0.92934 0.42268 0.0
N396 N 0.84538 0.86127 0.40798 0.0
C397 C 0.84078 0.87411 0.4483 0.0
C398 C 0.81883 0.91105 0.45623 0.0
C399 C 0.92194 0.17489 0.51093 0.0
C400 C 0.95155 0.16956 0.54173 0.0
C401 C 0.88319 0.15383 0.51075 0.0
C402 C 0.87249 0.12647 0.54126 0.0
H403 H 0.92835 0.19605 0.48709 0.0
H404 H 0.86144 0.15919 0.48643 0.0
S405 S 0.93967 0.09995 0.62774 0.0
N406 N 0.96802 0.13366 0.60288 0.0
N407 N 0.89518 0.09421 0.60248 0.0
C408 C 0.902 0.12035 0.57194 0.0
C409 C 0.9415 0.14181 0.57216 0.0
C410 C 0.09561 0.82984 0.43871 0.0
C411 C 0.06732 0.82914 0.47182 0.0
C412 C 0.1323 0.85451 0.44133 0.0
C413 C 0.14187 0.87991 0.47693 0.0
H414 H 0.08954 0.81098 0.41059 0.0
H415 H 0.15305 0.85401 0.41498 0.0
S416 S 0.07808 0.88968 0.57224 0.0
N417 N 0.05151 0.85617 0.54148 0.0
N418 N 0.12014 0.9027 0.54612 0.0
C419 C 0.11387 0.87956 0.51026 0.0
C420 C 0.07673 0.85414 0.50779 0.0
C421 C 0.18742 0.14687 0.53074 0.0
C422 C 0.16209 0.16351 0.50128 0.0
C423 C 0.2085 0.11062 0.52161 0.0
C424 C 0.20501 0.08924 0.48268 0.0
H425 H 0.18971 0.16095 0.56177 0.0
H426 H 0.22623 0.0984 0.54607 0.0
S427 S 0.14742 0.12275 0.39266 0.0
N428 N 0.13841 0.15815 0.42988 0.0
N429 N 0.17792 0.0897 0.41298 0.0
C430 C 0.1822 0.10695 0.45196 0.0
C431 C 0.16082 0.14417 0.46118 0.0
loop_
_geom_bond_atom_site_label_1
_geom_bond_atom_site_label_2
_geom_bond_distance
_geom_bond_site_symmetry_2
_ccdc_geom_bond_type
C0 O1 1.306 . S
C0 O3 1.160 . S
O1 C0 1.306 . S
O1 Cd2 2.228 . S
Cd2 O1 2.228 . S
Cd2 O6 2.273 . S
Cd2 O10 2.277 1_655 S
O3 C0 1.160 . S
O3 Cd4 2.203 1_655 S
Cd4 O3 2.203 1_455 S
Cd4 O6 2.411 1_455 S
Cd4 O7 2.333 . S
Cd4 O8 2.352 1_455 S
Cd4 O12 2.277 . S
Cd4 O13 2.356 . S
C5 O10 1.209 . S
C5 O12 1.226 . S
O6 Cd2 2.273 . S
O6 Cd4 2.411 1_655 S
O6 C9 1.320 1_655 S
O7 Cd4 2.333 . S
O7 C9 1.214 . S
O8 Cd4 2.352 1_655 S
O8 C11 1.258 . S
C9 O6 1.320 1_455 S
C9 O7 1.214 . S
O10 Cd2 2.277 1_455 S
O10 C5 1.209 . S
C11 O8 1.258 . S
C11 O13 1.282 1_655 S
O12 Cd4 2.277 . S
O12 C5 1.226 . S
O13 Cd4 2.356 . S
O13 C11 1.282 1_455 S
C14 O15 1.306 . S
C14 O17 1.160 1_545 S
O15 C14 1.306 . S
O15 Cd16 2.228 . S
Cd16 O15 2.228 . S
Cd16 O20 2.273 . S
Cd16 O24 2.277 . S
O17 C14 1.160 1_565 S
O17 Cd18 2.196 1_565 S
Cd18 O17 2.196 1_545 S
Cd18 O20 2.438 . S
Cd18 O21 2.349 . S
Cd18 O22 2.340 1_545 S
Cd18 O26 2.274 1_545 S
Cd18 O27 2.333 1_545 S
C19 O24 1.209 . S
C19 O26 1.226 1_545 S
O20 Cd16 2.273 . S
O20 Cd18 2.438 . S
O20 C23 1.320 . S
O21 Cd18 2.349 . S
O21 C23 1.214 . S
O22 Cd18 2.340 1_565 S
O22 C25 1.258 . S
C23 O20 1.320 . S
C23 O21 1.214 . S
O24 Cd16 2.277 . S
O24 C19 1.209 . S
C25 O22 1.258 . S
C25 O27 1.282 . S
O26 Cd18 2.274 1_565 S
O26 C19 1.226 1_565 S
O27 Cd18 2.333 1_565 S
O27 C25 1.282 . S
C28 O29 1.306 . S
C28 O31 1.160 . S
O29 C28 1.306 . S
O29 Cd30 2.228 1_655 S
Cd30 O29 2.228 1_455 S
Cd30 O34 2.273 . S
Cd30 O38 2.277 . S
O31 C28 1.160 . S
O31 Cd32 2.203 1_655 S
Cd32 O31 2.203 1_455 S
Cd32 O34 2.411 . S
Cd32 O35 2.333 . S
Cd32 O36 2.352 1_455 S
Cd32 O40 2.277 . S
Cd32 O41 2.356 . S
C33 O38 1.209 . S
C33 O40 1.226 . S
O34 Cd30 2.273 . S
O34 Cd32 2.411 . S
O34 C37 1.320 . S
O35 Cd32 2.333 . S
O35 C37 1.214 . S
O36 Cd32 2.352 1_655 S
O36 C39 1.258 1_655 S
C37 O34 1.320 . S
C37 O35 1.214 . S
O38 Cd30 2.277 . S
O38 C33 1.209 . S
C39 O36 1.258 1_455 S
C39 O41 1.282 . S
O40 Cd32 2.277 . S
O40 C33 1.226 . S
O41 Cd32 2.356 . S
O41 C39 1.282 . S
C42 O43 1.306 1_545 S
C42 O45 1.160 . S
O43 C42 1.306 1_565 S
O43 Cd44 2.228 . S
Cd44 O43 2.228 . S
Cd44 O48 2.273 . S
Cd44 O52 2.277 . S
O45 C42 1.160 . S
O45 Cd46 2.203 . S
Cd46 O45 2.203 . S
Cd46 O48 2.411 1_545 S
Cd46 O49 2.333 1_545 S
Cd46 O50 2.352 . S
Cd46 O54 2.277 . S
Cd46 O55 2.356 . S
C47 O52 1.209 1_545 S
C47 O54 1.226 . S
O48 Cd44 2.273 . S
O48 Cd46 2.411 1_565 S
O48 C51 1.320 . S
O49 Cd46 2.333 1_565 S
O49 C51 1.214 . S
O50 Cd46 2.352 . S
O50 C53 1.258 . S
C51 O48 1.320 . S
C51 O49 1.214 . S
O52 Cd44 2.277 . S
O52 C47 1.209 1_565 S
C53 O50 1.258 . S
C53 O55 1.282 . S
O54 Cd46 2.277 . S
O54 C47 1.226 . S
O55 Cd46 2.356 . S
O55 C53 1.282 . S
C56 O57 1.306 1_545 S
C56 O59 1.160 . S
O57 C56 1.306 1_565 S
O57 Cd58 2.228 . S
Cd58 O57 2.228 . S
Cd58 O62 2.273 . S
Cd58 O66 2.277 . S
O59 C56 1.160 . S
O59 Cd60 2.203 . S
Cd60 O59 2.203 . S
Cd60 O62 2.411 1_545 S
Cd60 O63 2.333 1_545 S
Cd60 O64 2.352 . S
Cd60 O68 2.277 . S
Cd60 O69 2.356 . S
C61 O66 1.209 . S
C61 O68 1.226 1_565 S
O62 Cd58 2.273 . S
O62 Cd60 2.411 1_565 S
O62 C65 1.320 . S
O63 Cd60 2.333 1_565 S
O63 C65 1.214 . S
O64 Cd60 2.352 . S
O64 C67 1.258 . S
C65 O62 1.320 . S
C65 O63 1.214 . S
O66 Cd58 2.277 . S
O66 C61 1.209 . S
C67 O64 1.258 . S
C67 O69 1.282 . S
O68 Cd60 2.277 . S
O68 C61 1.226 1_545 S
O69 Cd60 2.356 . S
O69 C67 1.282 . S
C70 O71 1.306 . S
C70 O73 1.160 . S
O71 C70 1.306 . S
O71 Cd72 2.228 . S
Cd72 O71 2.228 . S
Cd72 O76 2.273 . S
Cd72 O80 2.277 1_455 S
O73 C70 1.160 . S
O73 Cd74 2.203 . S
Cd74 O73 2.203 . S
Cd74 O76 2.411 . S
Cd74 O77 2.333 1_455 S
Cd74 O78 2.352 . S
Cd74 O82 2.277 1_455 S
Cd74 O83 2.356 1_455 S
C75 O80 1.209 . S
C75 O82 1.226 . S
O76 Cd72 2.273 . S
O76 Cd74 2.411 . S
O76 C79 1.320 . S
O77 Cd74 2.333 1_655 S
O77 C79 1.214 1_655 S
O78 Cd74 2.352 . S
O78 C81 1.258 . S
C79 O76 1.320 . S
C79 O77 1.214 1_455 S
O80 Cd72 2.277 1_655 S
O80 C75 1.209 . S
C81 O78 1.258 . S
C81 O83 1.282 1_455 S
O82 Cd74 2.277 1_655 S
O82 C75 1.226 . S
O83 Cd74 2.356 1_655 S
O83 C81 1.282 1_655 S
C84 O85 1.306 . S
C84 O87 1.160 1_545 S
O85 C84 1.306 . S
O85 Cd86 2.228 . S
Cd86 O85 2.228 . S
Cd86 O90 2.273 . S
Cd86 O94 2.277 . S
O87 C84 1.160 1_565 S
O87 Cd88 2.203 1_565 S
Cd88 O87 2.203 1_545 S
Cd88 O90 2.411 . S
Cd88 O91 2.333 . S
Cd88 O92 2.352 1_545 S
Cd88 O96 2.277 . S
Cd88 O97 2.356 1_545 S
C89 O94 1.209 . S
C89 O96 1.244 . S
O90 Cd86 2.273 . S
O90 Cd88 2.411 . S
O90 C93 1.320 . S
O91 Cd88 2.333 . S
O91 C93 1.214 . S
O92 Cd88 2.352 1_565 S
O92 C95 1.258 . S
C93 O90 1.320 . S
C93 O91 1.214 . S
O94 Cd86 2.277 . S
O94 C89 1.209 . S
C95 O92 1.258 . S
C95 O97 1.282 . S
O96 Cd88 2.277 . S
O96 C89 1.244 . S
O97 Cd88 2.356 1_565 S
O97 C95 1.282 . S
C98 O99 1.306 . S
C98 O101 1.160 . S
O99 C98 1.306 . S
O99 Cd100 2.228 . S
Cd100 O99 2.228 . S
Cd100 O104 2.273 . S
Cd100 O108 2.277 1_455 S
O101 C98 1.160 . S
O101 Cd102 2.203 . S
Cd102 O101 2.203 . S
Cd102 O104 2.411 . S
Cd102 O105 2.333 1_455 S
Cd102 O106 2.352 . S
Cd102 O110 2.277 1_455 S
Cd102 O111 2.356 1_455 S
C103 O108 1.209 . S
C103 O110 1.226 . S
O104 Cd100 2.273 . S
O104 Cd102 2.411 . S
O104 C107 1.320 1_455 S
O105 Cd102 2.333 1_655 S
O105 C107 1.214 . S
O106 Cd102 2.352 . S
O106 C109 1.258 . S
C107 O104 1.320 1_655 S
C107 O105 1.214 . S
O108 Cd100 2.277 1_655 S
O108 C103 1.209 . S
C109 O106 1.258 . S
C109 O111 1.282 1_455 S
O110 Cd102 2.277 1_655 S
O110 C103 1.226 . S
O111 Cd102 2.356 1_655 S
O111 C109 1.282 1_655 S
C112 O113 1.306 . S
C112 O115 1.160 . S
O113 C112 1.306 . S
O113 Cd114 2.228 . S
Cd114 O113 2.228 . S
Cd114 O118 2.273 . S
Cd114 O122 2.277 1_556 S
O115 C112 1.160 . S
O115 Cd116 2.203 1_556 S
Cd116 O115 2.203 1_554 S
Cd116 O118 2.411 1_554 S
Cd116 O119 2.333 . S
Cd116 O120 2.352 1_554 S
Cd116 O124 2.277 . S
Cd116 O125 2.356 . S
C117 O122 1.209 . S
C117 O124 1.226 . S
O118 Cd114 2.273 . S
O118 Cd116 2.411 1_556 S
O118 C121 1.320 1_556 S
O119 Cd116 2.333 . S
O119 C121 1.214 . S
O120 Cd116 2.352 1_556 S
O120 C123 1.258 . S
C121 O118 1.320 1_554 S
C121 O119 1.214 . S
O122 Cd114 2.277 1_554 S
O122 C117 1.209 . S
C123 O120 1.258 . S
C123 O125 1.282 1_556 S
O124 Cd116 2.277 . S
O124 C117 1.226 . S
O125 Cd116 2.356 . S
O125 C123 1.282 1_554 S
C126 O127 1.306 1_554 S
C126 O129 1.160 . S
O127 C126 1.306 1_556 S
O127 Cd128 2.228 . S
Cd128 O127 2.228 . S
Cd128 O132 2.273 . S
Cd128 O136 2.277 . S
O129 C126 1.160 . S
O129 Cd130 2.203 . S
Cd130 O129 2.203 . S
Cd130 O132 2.411 1_554 S
Cd130 O133 2.333 1_554 S
Cd130 O134 2.352 . S
Cd130 O138 2.277 . S
Cd130 O139 2.356 . S
C131 O136 1.209 . S
C131 O138 1.226 1_556 S
O132 Cd128 2.273 . S
O132 Cd130 2.411 1_556 S
O132 C135 1.320 . S
O133 Cd130 2.333 1_556 S
O133 C135 1.214 . S
O134 Cd130 2.352 . S
O134 C137 1.258 . S
C135 O132 1.320 . S
C135 O133 1.214 . S
O136 Cd128 2.277 . S
O136 C131 1.209 . S
C137 O134 1.258 . S
C137 O139 1.282 . S
O138 Cd130 2.277 . S
O138 C131 1.226 1_554 S
O139 Cd130 2.356 . S
O139 C137 1.282 . S
C140 O141 1.306 . S
C140 O143 1.160 . S
O141 C140 1.306 . S
O141 Cd142 2.228 . S
Cd142 O141 2.228 . S
Cd142 O146 2.273 . S
Cd142 O150 2.277 1_556 S
O143 C140 1.160 . S
O143 Cd144 2.203 1_556 S
Cd144 O143 2.203 1_554 S
Cd144 O146 2.411 1_554 S
Cd144 O147 2.333 . S
Cd144 O148 2.352 1_554 S
Cd144 O152 2.277 . S
Cd144 O153 2.356 . S
C145 O150 1.209 . S
C145 O152 1.226 . S
O146 Cd142 2.273 . S
O146 Cd144 2.411 1_556 S
O146 C149 1.320 1_556 S
O147 Cd144 2.333 . S
O147 C149 1.214 . S
O148 Cd144 2.352 1_556 S
O148 C151 1.258 1_556 S
C149 O146 1.320 1_554 S
C149 O147 1.214 . S
O150 Cd142 2.277 1_554 S
O150 C145 1.209 . S
C151 O148 1.258 1_554 S
C151 O153 1.282 . S
O152 Cd144 2.277 . S
O152 C145 1.226 . S
O153 Cd144 2.356 . S
O153 C151 1.282 . S
C154 O155 1.306 . S
C154 O157 1.160 1_554 S
O155 C154 1.306 . S
O155 Cd156 2.228 . S
Cd156 O155 2.228 . S
Cd156 O160 2.273 . S
Cd156 O164 2.277 . S
O157 C154 1.160 1_556 S
O157 Cd158 2.203 1_556 S
Cd158 O157 2.203 1_554 S
Cd158 O160 2.411 . S
Cd158 O161 2.333 . S
Cd158 O162 2.352 1_554 S
Cd158 O166 2.277 1_554 S
Cd158 O167 2.356 1_554 S
C159 O164 1.209 . S
C159 O166 1.226 1_554 S
O160 Cd156 2.273 . S
O160 Cd158 2.411 . S
O160 C163 1.320 . S
O161 Cd158 2.333 . S
O161 C163 1.214 . S
O162 Cd158 2.352 1_556 S
O162 C165 1.258 . S
C163 O160 1.320 . S
C163 O161 1.214 . S
O164 Cd156 2.277 . S
O164 C159 1.209 . S
C165 O162 1.258 . S
C165 O167 1.282 . S
O166 Cd158 2.277 1_556 S
O166 C159 1.226 1_556 S
O167 Cd158 2.356 1_556 S
O167 C165 1.282 . S
C168 C169 1.367 1_455 S
C168 C170 1.424 . S
C168 H172 0.927 1_455 S
C169 C168 1.367 1_655 S
C169 C178 1.429 1_655 S
C170 C168 1.424 . S
C170 C171 1.363 . S
C170 H173 0.929 . S
C171 C170 1.363 . S
C171 C177 1.428 . S
H172 C168 0.927 1_655 S
H173 C170 0.929 . S
S174 N175 1.610 1_455 S
S174 N176 1.610 . S
N175 S174 1.610 1_655 S
N175 C178 1.348 1_655 S
N176 S174 1.610 . S
N176 C177 1.351 . S
C177 C171 1.428 . S
C177 N176 1.351 . S
C177 C178 1.434 . S
C178 C169 1.429 1_455 S
C178 N175 1.348 1_455 S
C178 C177 1.434 . S
C179 C180 1.353 1_565 S
C179 C181 1.419 . S
C179 H183 0.930 . S
C180 C179 1.353 1_545 S
C180 C189 1.452 . S
C181 C179 1.419 . S
C181 C182 1.363 1_565 S
C181 H184 0.929 . S
C182 C181 1.363 1_545 S
C182 C188 1.428 . S
H183 C179 0.930 . S
H184 C181 0.929 . S
S185 N186 1.613 . S
S185 N187 1.610 . S
N186 S185 1.613 . S
N186 C189 1.350 . S
N187 S185 1.610 . S
N187 C188 1.351 . S
C188 C182 1.428 . S
C188 N187 1.351 . S
C188 C189 1.434 . S
C189 C180 1.452 . S
C189 N186 1.350 . S
C189 C188 1.434 . S
C190 C191 1.369 1_655 S
C190 C192 1.419 . S
C190 H194 0.930 . S
C191 C190 1.369 1_455 S
C191 C200 1.429 . S
C192 C190 1.419 . S
C192 C193 1.363 1_655 S
C192 H195 0.929 . S
C193 C192 1.363 1_455 S
C193 C199 1.428 . S
H194 C190 0.930 . S
H195 C192 0.929 . S
S196 N197 1.613 . S
S196 N198 1.610 . S
N197 S196 1.613 . S
N197 C200 1.350 . S
N198 S196 1.610 . S
N198 C199 1.351 . S
C199 C193 1.428 . S
C199 N198 1.351 . S
C199 C200 1.434 . S
C200 C191 1.429 . S
C200 N197 1.350 . S
C200 C199 1.434 . S
C201 C202 1.369 . S
C201 C203 1.419 . S
C201 H205 0.930 . S
C202 C201 1.369 . S
C202 C211 1.429 . S
C203 C201 1.419 . S
C203 C204 1.370 . S
C203 H206 0.929 . S
C204 C203 1.370 . S
C204 C210 1.425 1_545 S
H205 C201 0.930 . S
H206 C203 0.929 . S
S207 N208 1.613 . S
S207 N209 1.610 . S
N208 S207 1.613 . S
N208 C211 1.350 1_565 S
N209 S207 1.610 . S
N209 C210 1.351 . S
C210 C204 1.425 1_565 S
C210 N209 1.351 . S
C210 C211 1.434 1_565 S
C211 C202 1.429 . S
C211 N208 1.350 1_545 S
C211 C210 1.434 1_545 S
C212 C213 1.369 . S
C212 C214 1.419 . S
C212 H216 0.930 . S
C213 C212 1.369 . S
C213 C222 1.429 1_455 S
C214 C212 1.419 . S
C214 C215 1.363 . S
C214 H217 0.929 . S
C215 C214 1.363 . S
C215 C221 1.428 1_455 S
H216 C212 0.930 . S
H217 C214 0.929 . S
S218 N219 1.613 . S
S218 N220 1.610 . S
N219 S218 1.613 . S
N219 C222 1.350 . S
N220 S218 1.610 . S
N220 C221 1.351 . S
C221 C215 1.428 1_655 S
C221 N220 1.351 . S
C221 C222 1.434 . S
C222 C213 1.429 1_655 S
C222 N219 1.350 . S
C222 C221 1.434 . S
C223 C224 1.387 . S
C223 C225 1.414 1_545 S
C223 H227 0.916 1_545 S
C224 C223 1.387 . S
C224 C233 1.429 . S
C225 C223 1.414 1_565 S
C225 C226 1.363 1_565 S
C225 H228 0.929 . S
C226 C225 1.363 1_545 S
C226 C232 1.428 . S
H227 C223 0.916 1_565 S
H228 C225 0.929 . S
S229 N230 1.613 . S
S229 N231 1.610 . S
N230 S229 1.613 . S
N230 C233 1.350 . S
N231 S229 1.610 . S
N231 C232 1.351 . S
C232 C226 1.428 . S
C232 N231 1.351 . S
C232 C233 1.434 . S
C233 C224 1.429 . S
C233 N230 1.350 . S
C233 C232 1.434 . S
C234 C235 1.369 1_655 S
C234 C236 1.419 . S
C234 H238 0.930 . S
C235 C234 1.369 1_455 S
C235 C244 1.429 . S
C236 C234 1.419 . S
C236 C237 1.365 1_655 S
C236 H239 0.929 . S
C237 C236 1.365 1_455 S
C237 C243 1.425 . S
H238 C234 0.930 . S
H239 C236 0.929 . S
S240 N241 1.613 . S
S240 N242 1.610 . S
N241 S240 1.613 . S
N241 C244 1.350 . S
N242 S240 1.610 . S
N242 C243 1.351 . S
C243 C237 1.425 . S
C243 N242 1.351 . S
C243 C244 1.434 . S
C244 C235 1.429 . S
C244 N241 1.350 . S
C244 C243 1.434 . S
C245 C246 1.369 . S
C245 C247 1.419 . S
C245 H249 0.930 . S
C246 C245 1.369 . S
C246 C255 1.429 . S
C247 C245 1.419 . S
C247 C248 1.363 . S
C247 H250 0.929 . S
C248 C247 1.363 . S
C248 C254 1.428 . S
H249 C245 0.930 . S
H250 C247 0.929 . S
S251 N252 1.613 . S
S251 N253 1.610 1_565 S
N252 S251 1.613 . S
N252 C255 1.350 1_565 S
N253 S251 1.610 1_545 S
N253 C254 1.351 . S
C254 C248 1.428 . S
C254 N253 1.351 . S
C254 C255 1.434 . S
C255 C246 1.429 . S
C255 N252 1.350 1_545 S
C255 C254 1.434 . S
C256 C257 1.369 . S
C256 C258 1.419 . S
C256 H260 0.930 . S
C257 C256 1.369 . S
C257 C266 1.429 . S
C258 C256 1.419 . S
C258 C259 1.363 1_554 S
C258 H261 0.929 . S
C259 C258 1.363 1_556 S
C259 C265 1.428 . S
H260 C256 0.930 . S
H261 C258 0.929 . S
S262 N263 1.613 . S
S262 N264 1.610 . S
N263 S262 1.613 . S
N263 C266 1.350 1_556 S
N264 S262 1.610 . S
N264 C265 1.351 . S
C265 C259 1.428 . S
C265 N264 1.351 . S
C265 C266 1.434 1_556 S
C266 C257 1.429 . S
C266 N263 1.350 1_554 S
C266 C265 1.434 1_554 S
C267 C268 1.369 . S
C267 C269 1.419 1_554 S
C267 H271 0.930 1_554 S
C268 C267 1.369 . S
C268 C277 1.429 . S
C269 C267 1.419 1_556 S
C269 C270 1.363 1_556 S
C269 H272 0.929 . S
C270 C269 1.363 1_554 S
C270 C276 1.428 . S
H271 C267 0.930 1_556 S
H272 C269 0.929 . S
S273 N274 1.613 . S
S273 N275 1.610 . S
N274 S273 1.613 . S
N274 C277 1.350 . S
N275 S273 1.610 . S
N275 C276 1.351 . S
C276 C270 1.428 . S
C276 N275 1.351 . S
C276 C277 1.434 . S
C277 C268 1.429 . S
C277 N274 1.350 . S
C277 C276 1.434 . S
C278 C279 1.369 1_554 S
C278 C280 1.419 . S
C278 H282 0.930 . S
C279 C278 1.369 1_556 S
C279 C288 1.429 . S
C280 C278 1.419 . S
C280 C281 1.363 . S
C280 H283 0.929 . S
C281 C280 1.363 . S
C281 C287 1.428 1_554 S
H282 C278 0.930 . S
H283 C280 0.929 . S
S284 N285 1.613 . S
S284 N286 1.610 . S
N285 S284 1.613 . S
N285 C288 1.350 . S
N286 S284 1.610 . S
N286 C287 1.351 . S
C287 C281 1.428 1_556 S
C287 N286 1.351 . S
C287 C288 1.434 . S
C288 C279 1.429 . S
C288 N285 1.350 . S
C288 C287 1.434 . S
C289 C290 1.369 . S
C289 C291 1.419 . S
C289 H293 0.930 . S
C290 C289 1.369 . S
C290 C299 1.429 . S
C291 C289 1.419 . S
C291 C292 1.363 . S
C291 H294 0.929 . S
C292 C291 1.363 . S
C292 C298 1.428 . S
H293 C289 0.930 . S
H294 C291 0.929 . S
S295 N296 1.613 . S
S295 N297 1.610 . S
N296 S295 1.613 . S
N296 C299 1.350 . S
N297 S295 1.610 . S
N297 C298 1.351 . S
C298 C292 1.428 . S
C298 N297 1.351 . S
C298 C299 1.434 . S
C299 C290 1.429 . S
C299 N296 1.350 . S
C299 C298 1.434 . S
C300 C301 1.369 . S
C300 C302 1.419 . S
C300 H304 0.930 . S
C301 C300 1.369 . S
C301 C310 1.429 . S
C302 C300 1.419 . S
C302 C303 1.363 . S
C302 H305 0.929 . S
C303 C302 1.363 . S
C303 C309 1.428 . S
H304 C300 0.930 . S
H305 C302 0.929 . S
S306 N307 1.613 . S
S306 N308 1.610 . S
N307 S306 1.613 . S
N307 C310 1.350 . S
N308 S306 1.610 . S
N308 C309 1.351 . S
C309 C303 1.428 . S
C309 N308 1.351 . S
C309 C310 1.434 . S
C310 C301 1.429 . S
C310 N307 1.350 . S
C310 C309 1.434 . S
C311 C312 1.369 . S
C311 C313 1.419 . S
C311 H315 0.930 . S
C312 C311 1.369 . S
C312 C321 1.429 . S
C313 C311 1.419 . S
C313 C314 1.363 . S
C313 H316 0.929 . S
C314 C313 1.363 . S
C314 C320 1.428 . S
H315 C311 0.930 . S
H316 C313 0.929 . S
S317 N318 1.613 . S
S317 N319 1.610 . S
N318 S317 1.613 . S
N318 C321 1.350 . S
N319 S317 1.610 . S
N319 C320 1.351 . S
C320 C314 1.428 . S
C320 N319 1.351 . S
C320 C321 1.434 . S
C321 C312 1.429 . S
C321 N318 1.350 . S
C321 C320 1.434 . S
C322 C323 1.369 . S
C322 C324 1.419 . S
C322 H326 0.930 . S
C323 C322 1.369 . S
C323 C332 1.429 . S
C324 C322 1.419 . S
C324 C325 1.363 . S
C324 H327 0.929 . S
C325 C324 1.363 . S
C325 C331 1.428 . S
H326 C322 0.930 . S
H327 C324 0.929 . S
S328 N329 1.613 . S
S328 N330 1.610 . S
N329 S328 1.613 . S
N329 C332 1.350 . S
N330 S328 1.610 . S
N330 C331 1.351 . S
C331 C325 1.428 . S
C331 N330 1.351 . S
C331 C332 1.434 . S
C332 C323 1.429 . S
C332 N329 1.350 . S
C332 C331 1.434 . S
C333 C334 1.369 . S
C333 C335 1.419 . S
C333 H337 0.930 . S
C334 C333 1.369 . S
C334 C343 1.429 . S
C335 C333 1.419 . S
C335 C336 1.363 . S
C335 H338 0.929 . S
C336 C335 1.363 . S
C336 C342 1.428 . S
H337 C333 0.930 . S
H338 C335 0.929 . S
S339 N340 1.613 . S
S339 N341 1.610 . S
N340 S339 1.613 . S
N340 C343 1.350 . S
N341 S339 1.610 . S
N341 C342 1.351 . S
C342 C336 1.428 . S
C342 N341 1.351 . S
C342 C343 1.434 . S
C343 C334 1.429 . S
C343 N340 1.350 . S
C343 C342 1.434 . S
C344 C345 1.369 . S
C344 C346 1.419 . S
C344 H348 0.930 . S
C345 C344 1.369 . S
C345 C354 1.429 . S
C346 C344 1.419 . S
C346 C347 1.363 . S
C346 H349 0.929 . S
C347 C346 1.363 . S
C347 C353 1.428 . S
H348 C344 0.930 . S
H349 C346 0.929 . S
S350 N351 1.613 . S
S350 N352 1.610 . S
N351 S350 1.613 . S
N351 C354 1.350 . S
N352 S350 1.610 . S
N352 C353 1.351 . S
C353 C347 1.428 . S
C353 N352 1.351 . S
C353 C354 1.434 . S
C354 C345 1.429 . S
C354 N351 1.350 . S
C354 C353 1.434 . S
C355 C356 1.369 . S
C355 C357 1.419 . S
C355 H359 0.930 . S
C356 C355 1.369 . S
C356 C365 1.429 . S
C357 C355 1.419 . S
C357 C358 1.363 . S
C357 H360 0.929 . S
C358 C357 1.363 . S
C358 C364 1.428 . S
H359 C355 0.930 . S
H360 C357 0.929 . S
S361 N362 1.613 . S
S361 N363 1.610 . S
N362 S361 1.613 . S
N362 C365 1.350 . S
N363 S361 1.610 . S
N363 C364 1.351 . S
C364 C358 1.428 . S
C364 N363 1.351 . S
C364 C365 1.434 . S
C365 C356 1.429 . S
C365 N362 1.350 . S
C365 C364 1.434 . S
C366 C367 1.369 . S
C366 C368 1.419 . S
C366 H370 0.930 . S
C367 C366 1.369 . S
C367 C376 1.429 . S
C368 C366 1.419 . S
C368 C369 1.363 . S
C368 H371 0.929 . S
C369 C368 1.363 . S
C369 C375 1.428 . S
H370 C366 0.930 . S
H371 C368 0.929 . S
S372 N373 1.613 . S
S372 N374 1.610 . S
N373 S372 1.613 . S
N373 C376 1.350 . S
N374 S372 1.610 . S
N374 C375 1.351 . S
C375 C369 1.428 . S
C375 N374 1.351 . S
C375 C376 1.434 . S
C376 C367 1.429 . S
C376 N373 1.350 . S
C376 C375 1.434 . S
C377 C378 1.369 . S
C377 C379 1.419 . S
C377 H381 0.930 . S
C378 C377 1.369 . S
C378 C387 1.429 . S
C379 C377 1.419 . S
C379 C380 1.363 . S
C379 H382 0.929 . S
C380 C379 1.363 . S
C380 C386 1.428 . S
H381 C377 0.930 . S
H382 C379 0.929 . S
S383 N384 1.613 . S
S383 N385 1.610 . S
N384 S383 1.613 . S
N384 C387 1.350 . S
N385 S383 1.610 . S
N385 C386 1.351 . S
C386 C380 1.428 . S
C386 N385 1.351 . S
C386 C387 1.434 . S
C387 C378 1.429 . S
C387 N384 1.350 . S
C387 C386 1.434 . S
C388 C389 1.369 . S
C388 C390 1.419 . S
C388 H392 0.930 . S
C389 C388 1.369 . S
C389 C398 1.429 . S
C390 C388 1.419 . S
C390 C391 1.363 . S
C390 H393 0.929 . S
C391 C390 1.363 . S
C391 C397 1.428 . S
H392 C388 0.930 . S
H393 C390 0.929 . S
S394 N395 1.613 . S
S394 N396 1.610 . S
N395 S394 1.613 . S
N395 C398 1.350 . S
N396 S394 1.610 . S
N396 C397 1.351 . S
C397 C391 1.428 . S
C397 N396 1.351 . S
C397 C398 1.434 . S
C398 C389 1.429 . S
C398 N395 1.350 . S
C398 C397 1.434 . S
C399 C400 1.369 . S
C399 C401 1.419 . S
C399 H403 0.930 . S
C400 C399 1.369 . S
C400 C409 1.429 . S
C401 C399 1.419 . S
C401 C402 1.363 . S
C401 H404 0.929 . S
C402 C401 1.363 . S
C402 C408 1.428 . S
H403 C399 0.930 . S
H404 C401 0.929 . S
S405 N406 1.613 . S
S405 N407 1.610 . S
N406 S405 1.613 . S
N406 C409 1.350 . S
N407 S405 1.610 . S
N407 C408 1.351 . S
C408 C402 1.428 . S
C408 N407 1.351 . S
C408 C409 1.434 . S
C409 C400 1.429 . S
C409 N406 1.350 . S
C409 C408 1.434 . S
C410 C411 1.369 . S
C410 C412 1.419 . S
C410 H414 0.930 . S
C411 C410 1.369 . S
C411 C420 1.429 . S
C412 C410 1.419 . S
C412 C413 1.363 . S
C412 H415 0.929 . S
C413 C412 1.363 . S
C413 C419 1.428 . S
H414 C410 0.930 . S
H415 C412 0.929 . S
S416 N417 1.613 . S
S416 N418 1.610 . S
N417 S416 1.613 . S
N417 C420 1.350 . S
N418 S416 1.610 . S
N418 C419 1.351 . S
C419 C413 1.428 . S
C419 N418 1.351 . S
C419 C420 1.434 . S
C420 C411 1.429 . S
C420 N417 1.350 . S
C420 C419 1.434 . S
C421 C422 1.369 . S
C421 C423 1.419 . S
C421 H425 0.930 . S
C422 C421 1.369 . S
C422 C431 1.429 . S
C423 C421 1.419 . S
C423 C424 1.363 . S
C423 H426 0.929 . S
C424 C423 1.363 . S
C424 C430 1.428 . S
H425 C421 0.930 . S
H426 C423 0.929 . S
S427 N428 1.613 . S
S427 N429 1.610 . S
N428 S427 1.613 . S
N428 C431 1.350 . S
N429 S427 1.610 . S
N429 C430 1.351 . S
C430 C424 1.428 . S
C430 N429 1.351 . S
C430 C431 1.434 . S
C431 C422 1.429 . S
C431 N428 1.350 . S
C431 C430 1.434 . S
C169 C11 1.503 . S
C171 C81 1.505 . S
C180 C14 1.463 . S
C182 C56 1.477 . S
C191 C79 1.456 . S
C193 C37 1.457 . S
C202 C42 1.461 . S
C204 C61 1.495 1_545 S
C213 C109 1.502 . S
C215 C39 1.511 . S
C224 C89 1.482 . S
C226 C47 1.479 . S
C235 C9 1.463 . S
C237 C107 1.455 1_455 S
C246 C84 1.468 . S
C248 C19 1.494 . S
C257 C126 1.486 . S
C259 C123 1.497 . S
C268 C121 1.482 . S
C270 C154 1.449 . S
C279 C131 1.473 . S
C281 C149 1.469 . S
C290 C151 1.485 . S
C292 C159 1.503 . S
C301 C165 1.503 . S
C303 C95 1.505 . S
C312 C112 1.469 . S
C314 C98 1.475 . S
C323 C93 1.462 . S
C325 C135 1.456 . S
C334 C103 1.497 . S
C336 C140 1.460 . S
C345 C67 1.506 . S
C347 C137 1.509 . S
C356 C75 1.476 . S
C358 C145 1.483 . S
C367 C163 1.462 . S
C369 C65 1.455 . S
C378 C117 1.493 . S
C380 C70 1.469 . S
C389 C25 1.498 . S
C391 C28 1.485 . S
C400 C0 1.448 . S
C402 C23 1.482 . S
C411 C33 1.467 . S
C413 C51 1.472 . S
C422 C5 1.501 . S
C424 C53 1.487 . S
