# Generated by pormake.
# Topology yfw, (5)-cn, num edge types: 1
# Building blocks:
#     Node 0, Type 0, BuildingBlock: BEQFEK_clean_sbu_0, # of connection points: 5
#     Node 1, Type 0, BuildingBlock: BEQFEK_clean_sbu_0, # of connection points: 5
#     Node 2, Type 0, BuildingBlock: BEQFEK_clean_sbu_0, # of connection points: 5
#     Node 3, Type 0, BuildingBlock: BEQFEK_clean_sbu_0, # of connection points: 5
#     Node 4, Type 0, BuildingBlock: BEQFEK_clean_sbu_0, # of connection points: 5
#     Node 5, Type 0, BuildingBlock: BEQFEK_clean_sbu_0, # of connection points: 5
#     Node 6, Type 0, BuildingBlock: BEQFEK_clean_sbu_0, # of connection points: 5
#     Node 7, Type 0, BuildingBlock: BEQFEK_clean_sbu_0, # of connection points: 5
#     Node 8, Type 0, BuildingBlock: BEQFEK_clean_sbu_0, # of connection points: 5
#     Node 9, Type 0, BuildingBlock: BEQFEK_clean_sbu_0, # of connection points: 5
#     Node 10, Type 0, BuildingBlock: BEQFEK_clean_sbu_0, # of connection points: 5
#     Node 11, Type 0, BuildingBlock: BEQFEK_clean_sbu_0, # of connection points: 5
#     Node 12, Type 0, BuildingBlock: BEQFEK_clean_sbu_0, # of connection points: 5
#     Node 13, Type 0, BuildingBlock: BEQFEK_clean_sbu_0, # of connection points: 5
#     Node 14, Type 0, BuildingBlock: BEQFEK_clean_sbu_0, # of connection points: 5
#     Node 15, Type 0, BuildingBlock: BEQFEK_clean_sbu_0, # of connection points: 5
#     Edge 16, Type (0, 0), BuildingBlock: XIVTED_clean_linker_0, # of connection points: 2
#     Edge 17, Type (0, 0), BuildingBlock: XIVTED_clean_linker_0, # of connection points: 2
#     Edge 18, Type (0, 0), BuildingBlock: XIVTED_clean_linker_0, # of connection points: 2
#     Edge 19, Type (0, 0), BuildingBlock: XIVTED_clean_linker_0, # of connection points: 2
#     Edge 20, Type (0, 0), BuildingBlock: XIVTED_clean_linker_0, # of connection points: 2
#     Edge 21, Type (0, 0), BuildingBlock: XIVTED_clean_linker_0, # of connection points: 2
#     Edge 22, Type (0, 0), BuildingBlock: XIVTED_clean_linker_0, # of connection points: 2
#     Edge 23, Type (0, 0), BuildingBlock: XIVTED_clean_linker_0, # of connection points: 2
#     Edge 24, Type (0, 0), BuildingBlock: XIVTED_clean_linker_0, # of connection points: 2
#     Edge 25, Type (0, 0), BuildingBlock: XIVTED_clean_linker_0, # of connection points: 2
#     Edge 26, Type (0, 0), BuildingBlock: XIVTED_clean_linker_0, # of connection points: 2
#     Edge 27, Type (0, 0), BuildingBlock: XIVTED_clean_linker_0, # of connection points: 2
#     Edge 28, Type (0, 0), BuildingBlock: XIVTED_clean_linker_0, # of connection points: 2
#     Edge 29, Type (0, 0), BuildingBlock: XIVTED_clean_linker_0, # of connection points: 2
#     Edge 30, Type (0, 0), BuildingBlock: XIVTED_clean_linker_0, # of connection points: 2
#     Edge 31, Type (0, 0), BuildingBlock: XIVTED_clean_linker_0, # of connection points: 2
#     Edge 32, Type (0, 0), BuildingBlock: XIVTED_clean_linker_0, # of connection points: 2
#     Edge 33, Type (0, 0), BuildingBlock: XIVTED_clean_linker_0, # of connection points: 2
#     Edge 34, Type (0, 0), BuildingBlock: XIVTED_clean_linker_0, # of connection points: 2
#     Edge 35, Type (0, 0), BuildingBlock: XIVTED_clean_linker_0, # of connection points: 2
#     Edge 36, Type (0, 0), BuildingBlock: XIVTED_clean_linker_0, # of connection points: 2
#     Edge 37, Type (0, 0), BuildingBlock: XIVTED_clean_linker_0, # of connection points: 2
#     Edge 38, Type (0, 0), BuildingBlock: XIVTED_clean_linker_0, # of connection points: 2
#     Edge 39, Type (0, 0), BuildingBlock: XIVTED_clean_linker_0, # of connection points: 2
#     Edge 40, Type (0, 0), BuildingBlock: XIVTED_clean_linker_0, # of connection points: 2
#     Edge 41, Type (0, 0), BuildingBlock: XIVTED_clean_linker_0, # of connection points: 2
#     Edge 42, Type (0, 0), BuildingBlock: XIVTED_clean_linker_0, # of connection points: 2
#     Edge 43, Type (0, 0), BuildingBlock: XIVTED_clean_linker_0, # of connection points: 2
#     Edge 44, Type (0, 0), BuildingBlock: XIVTED_clean_linker_0, # of connection points: 2
#     Edge 45, Type (0, 0), BuildingBlock: XIVTED_clean_linker_0, # of connection points: 2
#     Edge 46, Type (0, 0), BuildingBlock: XIVTED_clean_linker_0, # of connection points: 2
#     Edge 47, Type (0, 0), BuildingBlock: XIVTED_clean_linker_0, # of connection points: 2
#     Edge 48, Type (0, 0), BuildingBlock: XIVTED_clean_linker_0, # of connection points: 2
#     Edge 49, Type (0, 0), BuildingBlock: XIVTED_clean_linker_0, # of connection points: 2
#     Edge 50, Type (0, 0), BuildingBlock: XIVTED_clean_linker_0, # of connection points: 2
#     Edge 51, Type (0, 0), BuildingBlock: XIVTED_clean_linker_0, # of connection points: 2
#     Edge 52, Type (0, 0), BuildingBlock: XIVTED_clean_linker_0, # of connection points: 2
#     Edge 53, Type (0, 0), BuildingBlock: XIVTED_clean_linker_0, # of connection points: 2
#     Edge 54, Type (0, 0), BuildingBlock: XIVTED_clean_linker_0, # of connection points: 2
#     Edge 55, Type (0, 0), BuildingBlock: XIVTED_clean_linker_0, # of connection points: 2
# Relax obj value: 0.075
# Max RMSD: 0.124
# Mean RMSD: 0.124
data_MOF--net-yfw--node1-BEQFEK_clean_sbu_0--edge1-XIVTED_clean_linker_0
_symmetry_space_group_name_H-M    P1
_symmetry_Int_Tables_number       1
_symmetry_cell_setting            triclinic
loop_
_symmetry_equiv_pos_as_xyz
'x, y, z'
_cell_length_a     56.040485
_cell_length_b     55.975029
_cell_length_c     28.086995
_cell_angle_alpha  89.962486
_cell_angle_beta   90.040978
_cell_angle_gamma 90.048591
loop_
_atom_site_label
_atom_site_type_symbol
_atom_site_fract_x
_atom_site_fract_y
_atom_site_fract_z
_atom_type_partial_charge
Co0 Co 0.11911 0.06449 0.01599 0.0
Co1 Co 0.17369 0.07671 0.02664 0.0
C2 C 0.13512 0.11376 0.04014 0.0
O3 O 0.11834 0.09906 0.03085 0.0
O4 O 0.15694 0.10733 0.03929 0.0
C5 C 0.06928 0.05683 0.97925 0.0
O6 O 0.07133 0.07498 0.94988 0.0
C7 C 0.21892 0.09731 -0.00639 0.0
C8 C 0.24486 0.07385 0.02996 0.0
C9 C 0.24308 0.09183 -0.00385 0.0
N10 N 0.20709 0.08271 0.02346 0.0
N11 N 0.22277 0.06926 0.04611 0.0
C12 C 0.20683 0.11405 0.95972 0.0
H13 H 0.18752 0.10981 0.95695 0.0
H14 H 0.21524 0.11319 0.92401 0.0
H15 H 0.20877 0.13258 0.9732 0.0
C16 C 0.13599 0.04686 0.92218 0.0
N17 N 0.13984 0.05756 0.96443 0.0
N18 N 0.16288 0.06171 0.96935 0.0
C19 C 0.17439 0.05323 0.93059 0.0
C20 C 0.15764 0.04405 0.8993 0.0
C21 C 0.11238 0.03754 0.9056 0.0
H22 H 0.10346 0.02782 0.93499 0.0
H23 H 0.10102 0.05275 0.89451 0.0
H24 H 0.11435 0.0252 0.87495 0.0
O25 O 0.13005 0.04706 0.0727 0.0
O26 O 0.16855 0.05504 0.08125 0.0
H27 H 0.20995 0.04934 0.95801 0.0
H28 H 0.20659 0.03985 0.89722 0.0
C29 C 0.20089 0.05324 0.92386 0.0
H30 H 0.20661 0.07095 0.91062 0.0
H31 H 0.21824 0.05585 0.07031 0.0
O32 O 0.08653 0.05123 0.00644 0.0
C33 C 0.14964 0.04451 0.09491 0.0
Co34 Co 0.9312 0.6203 0.24391 0.0
Co35 Co 0.91943 0.67521 0.25016 0.0
C36 C 0.88342 0.63765 0.27656 0.0
O37 O 0.89808 0.62078 0.26794 0.0
O38 O 0.88897 0.65952 0.26985 0.0
C39 C 0.94531 0.57312 0.2664 0.0
O40 O 0.93812 0.57983 0.30885 0.0
C41 C 0.89993 0.72153 0.21772 0.0
C42 C 0.92649 0.74619 0.24882 0.0
C43 C 0.90697 0.74539 0.21853 0.0
N44 N 0.91509 0.70894 0.24518 0.0
N45 N 0.93049 0.72391 0.26462 0.0
C46 C 0.88079 0.71035 0.18794 0.0
H47 H 0.88358 0.69077 0.18517 0.0
H48 H 0.88039 0.71848 0.1519 0.0
H49 H 0.86324 0.7136 0.20501 0.0
C50 C 0.94376 0.6337 0.14623 0.0
N51 N 0.93481 0.63933 0.18915 0.0
N52 N 0.93132 0.66256 0.1916 0.0
C53 C 0.93864 0.67254 0.15029 0.0
C54 C 0.94642 0.65452 0.12012 0.0
C55 C 0.95222 0.60919 0.13315 0.0
H56 H 0.96686 0.60392 0.1576 0.0
H57 H 0.9374 0.59625 0.1378 0.0
H58 H 0.95891 0.60828 0.09608 0.0
O59 O 0.95225 0.63205 0.2945 0.0
O60 O 0.94331 0.67044 0.3016 0.0
H61 H 0.94557 0.70862 0.17219 0.0
H62 H 0.95062 0.70334 0.10965 0.0
C63 C 0.93913 0.69883 0.14042 0.0
H64 H 0.92087 0.7049 0.13167 0.0
H65 H 0.94461 0.71872 0.28652 0.0
O66 O 0.94253 0.5873 0.23149 0.0
C67 C 0.95513 0.65216 0.31462 0.0
Co68 Co 0.37902 0.42943 0.50941 0.0
Co69 Co 0.32444 0.41771 0.51958 0.0
C70 C 0.363 0.37995 0.52888 0.0
O71 O 0.37988 0.39472 0.52104 0.0
O72 O 0.3412 0.38656 0.52864 0.0
C73 C 0.42775 0.44302 0.52583 0.0
O74 O 0.42468 0.43201 0.5667 0.0
C75 C 0.2795 0.39922 0.48143 0.0
C76 C 0.25302 0.41897 0.52428 0.0
C77 C 0.25519 0.40347 0.48605 0.0
N78 N 0.29104 0.41194 0.51488 0.0
N79 N 0.2751 0.42332 0.541 0.0
C80 C 0.29189 0.38562 0.44284 0.0
H81 H 0.31106 0.39055 0.44122 0.0
H82 H 0.28327 0.38905 0.40791 0.0
H83 H 0.29056 0.36622 0.45052 0.0
C84 C 0.36253 0.44915 0.4186 0.0
N85 N 0.35825 0.43713 0.4591 0.0
N86 N 0.33511 0.43428 0.46438 0.0
C87 C 0.32383 0.44541 0.42806 0.0
C88 C 0.34089 0.45509 0.3978 0.0
C89 C 0.387 0.45479 0.40041 0.0
H90 H 0.39919 0.43962 0.40768 0.0
H91 H 0.38678 0.45835 0.36155 0.0
H92 H 0.39391 0.47081 0.41914 0.0
O93 O 0.36871 0.44566 0.56845 0.0
O94 O 0.33016 0.43748 0.57667 0.0
H95 H 0.29341 0.46636 0.40603 0.0
H96 H 0.28885 0.43462 0.40664 0.0
C97 C 0.29748 0.44965 0.4257 0.0
H98 H 0.28991 0.45095 0.46201 0.0
H99 H 0.27936 0.43502 0.56864 0.0
O100 O 0.41099 0.44285 0.49538 0.0
C101 C 0.34921 0.44746 0.59136 0.0
Co102 Co 0.55967 0.87124 0.78448 0.0
Co103 Co 0.57405 0.81699 0.78431 0.0
C104 C 0.61023 0.85743 0.79228 0.0
O105 O 0.59463 0.87387 0.78812 0.0
O106 O 0.60443 0.83537 0.79143 0.0
C107 C 0.55042 0.92236 0.76272 0.0
O108 O 0.57127 0.9234 0.74142 0.0
C109 C 0.59368 0.77472 0.73736 0.0
C110 C 0.57672 0.74571 0.77869 0.0
C111 C 0.59081 0.75011 0.7391 0.0
N112 N 0.58149 0.78434 0.77379 0.0
N113 N 0.57185 0.76689 0.79897 0.0
C114 C 0.60532 0.7891 0.69892 0.0
H115 H 0.59948 0.80802 0.70061 0.0
H116 H 0.60112 0.78148 0.66341 0.0
H117 H 0.62496 0.78846 0.70383 0.0
C118 C 0.53648 0.85662 0.69455 0.0
N119 N 0.55008 0.85177 0.73283 0.0
N120 N 0.55458 0.82872 0.73417 0.0
C121 C 0.54302 0.81798 0.69784 0.0
C122 C 0.53138 0.83533 0.67126 0.0
C123 C 0.52945 0.88133 0.67982 0.0
H124 H 0.54498 0.89343 0.68365 0.0
H125 H 0.52333 0.88195 0.64229 0.0
H126 H 0.51498 0.88782 0.70343 0.0
O127 O 0.54828 0.8576 0.8455 0.0
O128 O 0.55634 0.81878 0.84434 0.0
H129 H 0.52359 0.7869 0.67381 0.0
H130 H 0.55549 0.78465 0.67027 0.0
C131 C 0.54053 0.7915 0.69212 0.0
H132 H 0.5408 0.7826 0.72732 0.0
H133 H 0.56086 0.76951 0.82849 0.0
O134 O 0.5435 0.90283 0.7812 0.0
C135 C 0.54756 0.83701 0.86469 0.0
Co136 Co 0.87758 0.06657 0.49355 0.0
Co137 Co 0.82287 0.07837 0.50096 0.0
C138 C 0.8604 0.1141 0.52841 0.0
O139 O 0.87727 0.09979 0.51763 0.0
O140 O 0.83855 0.10824 0.5231 0.0
C141 C 0.9247 0.05365 0.51566 0.0
O142 O 0.91804 0.06194 0.55735 0.0
C143 C 0.776 0.09986 0.47694 0.0
C144 C 0.75224 0.06983 0.49598 0.0
C145 C 0.7523 0.09235 0.47545 0.0
N146 N 0.78919 0.0822 0.49607 0.0
N147 N 0.77478 0.06454 0.50818 0.0
C148 C 0.78607 0.1234 0.46148 0.0
H149 H 0.80203 0.12793 0.48296 0.0
H150 H 0.79164 0.12236 0.42367 0.0
H151 H 0.77256 0.13777 0.46525 0.0
C152 C 0.8637 0.05463 0.39562 0.0
N153 N 0.85843 0.06323 0.43903 0.0
N154 N 0.83543 0.06772 0.44158 0.0
C155 C 0.82525 0.06194 0.39955 0.0
C156 C 0.84286 0.05358 0.36908 0.0
C157 C 0.88777 0.04513 0.38231 0.0
H158 H 0.89308 0.03116 0.40825 0.0
H159 H 0.90108 0.05978 0.38443 0.0
H160 H 0.88801 0.03729 0.34611 0.0
O161 O 0.86617 0.04532 0.54426 0.0
O162 O 0.82772 0.05384 0.55084 0.0
H163 H 0.78888 0.05314 0.41483 0.0
H164 H 0.79477 0.05813 0.35229 0.0
C165 C 0.79915 0.064 0.38894 0.0
H166 H 0.79364 0.08286 0.39257 0.0
H167 H 0.78048 0.04844 0.52307 0.0
O168 O 0.91043 0.05538 0.48069 0.0
C169 C 0.84603 0.04217 0.56399 0.0
Co170 Co 0.92986 0.37352 0.76792 0.0
Co171 Co 0.91699 0.31902 0.77669 0.0
C172 C 0.88012 0.35775 0.78839 0.0
O173 O 0.89513 0.37439 0.78022 0.0
O174 O 0.8863 0.33585 0.78778 0.0
C175 C 0.93735 0.42289 0.73039 0.0
O176 O 0.91981 0.41989 0.69994 0.0
C177 C 0.89599 0.27431 0.74239 0.0
C178 C 0.91903 0.24765 0.77779 0.0
C179 C 0.90098 0.25001 0.7443 0.0
N180 N 0.91086 0.28567 0.77239 0.0
N181 N 0.9241 0.26959 0.79442 0.0
C182 C 0.87951 0.28698 0.70886 0.0
H183 H 0.88422 0.3062 0.70639 0.0
H184 H 0.88013 0.27872 0.67297 0.0
H185 H 0.86098 0.28544 0.72243 0.0
C186 C 0.94955 0.35691 0.67578 0.0
N187 N 0.93771 0.35297 0.71673 0.0
N188 N 0.93292 0.32998 0.72046 0.0
C189 C 0.94187 0.31861 0.68192 0.0
C190 C 0.95224 0.33541 0.65223 0.0
C191 C 0.96029 0.38033 0.66143 0.0
H192 H 0.96878 0.38894 0.69264 0.0
H193 H 0.94606 0.39213 0.64741 0.0
H194 H 0.97401 0.37804 0.63334 0.0
O195 O 0.94626 0.36236 0.82551 0.0
O196 O 0.93775 0.32385 0.83291 0.0
H197 H 0.94493 0.28261 0.70748 0.0
H198 H 0.95397 0.28642 0.64642 0.0
C199 C 0.94103 0.29219 0.67387 0.0
H200 H 0.92303 0.28713 0.6612 0.0
H201 H 0.93762 0.27372 0.81863 0.0
O202 O 0.94289 0.4062 0.759 0.0
C203 C 0.94822 0.34263 0.84756 0.0
Co204 Co 0.61482 0.43404 0.00639 0.0
Co205 Co 0.66915 0.42014 0.01284 0.0
C206 C 0.62958 0.38504 0.03495 0.0
O207 O 0.61327 0.40023 0.02572 0.0
O208 O 0.65166 0.39024 0.03054 0.0
C209 C 0.56886 0.45183 0.0292 0.0
O210 O 0.57521 0.44473 0.07196 0.0
C211 C 0.7134 0.39816 0.97778 0.0
C212 C 0.7403 0.42218 0.00975 0.0
C213 C 0.73764 0.40345 0.97793 0.0
N214 N 0.70233 0.41356 0.00713 0.0
N215 N 0.7186 0.4274 0.02711 0.0
C216 C 0.70049 0.38079 0.94648 0.0
H217 H 0.6812 0.38521 0.94471 0.0
H218 H 0.70827 0.38071 0.91016 0.0
H219 H 0.70245 0.36258 0.9616 0.0
C220 C 0.62954 0.44897 0.91059 0.0
N221 N 0.63442 0.4386 0.95268 0.0
N222 N 0.65742 0.43407 0.95542 0.0
C223 C 0.66805 0.44214 0.91533 0.0
C224 C 0.65067 0.45153 0.88552 0.0
C225 C 0.60551 0.45858 0.89735 0.0
H226 H 0.60059 0.47297 0.92265 0.0
H227 H 0.592 0.44417 0.9005 0.0
H228 H 0.60518 0.46599 0.86075 0.0
O229 O 0.62735 0.45214 0.06084 0.0
O230 O 0.66585 0.44327 0.06572 0.0
H231 H 0.70418 0.44676 0.93905 0.0
H232 H 0.69965 0.4539 0.8771 0.0
C233 C 0.69439 0.44171 0.9063 0.0
H234 H 0.69971 0.42347 0.89561 0.0
H235 H 0.71471 0.44141 0.05032 0.0
O236 O 0.58266 0.44764 -0.00569 0.0
C237 C 0.64758 0.45439 0.08079 0.0
Co238 Co 0.56053 0.11458 0.25381 0.0
Co239 Co 0.5708 0.17003 0.25662 0.0
C240 C 0.6077 0.13372 0.28544 0.0
O241 O 0.59385 0.11621 0.27628 0.0
O242 O 0.60126 0.15533 0.27881 0.0
C243 C 0.54926 0.06627 0.2773 0.0
O244 O 0.55806 0.07242 0.3189 0.0
C245 C 0.59152 0.21673 0.22747 0.0
C246 C 0.56102 0.24043 0.24305 0.0
C247 C 0.58355 0.24022 0.22267 0.0
N248 N 0.57409 0.20377 0.24814 0.0
N249 N 0.55616 0.2182 0.25819 0.0
C250 C 0.61518 0.20661 0.21329 0.0
H251 H 0.61975 0.19111 0.23604 0.0
H252 H 0.61436 0.20032 0.17589 0.0
H253 H 0.6294 0.22033 0.21643 0.0
C254 C 0.54653 0.1265 0.15592 0.0
N255 N 0.55579 0.13277 0.1983 0.0
N256 N 0.55994 0.15591 0.19877 0.0
C257 C 0.55346 0.16512 0.15626 0.0
C258 C 0.54479 0.14679 0.12778 0.0
C259 C 0.53696 0.10209 0.14529 0.0
H260 H 0.52371 0.09714 0.17293 0.0
H261 H 0.55174 0.08895 0.14689 0.0
H262 H 0.5282 0.1011 0.10998 0.0
O263 O 0.54043 0.12646 0.30537 0.0
O264 O 0.54666 0.16558 0.30801 0.0
H265 H 0.54417 0.20175 0.16759 0.0
H266 H 0.54977 0.19438 0.10591 0.0
C267 C 0.55535 0.19097 0.14315 0.0
H268 H 0.5741 0.1968 0.14682 0.0
H269 H 0.54015 0.21264 0.27359 0.0
O270 O 0.54992 0.0812 0.24324 0.0
C271 C 0.53647 0.14682 0.32366 0.0
Co272 Co 0.61823 0.56355 0.50915 0.0
Co273 Co 0.67286 0.57652 0.51145 0.0
C274 C 0.63378 0.61253 0.53332 0.0
O275 O 0.61701 0.59755 0.52613 0.0
O276 O 0.65569 0.60669 0.52863 0.0
C277 C 0.5659 0.55575 0.49119 0.0
O278 O 0.56314 0.57792 0.47686 0.0
C279 C 0.71669 0.59797 0.47154 0.0
C280 C 0.74419 0.57627 0.50757 0.0
C281 C 0.7413 0.59404 0.47354 0.0
N282 N 0.70595 0.58288 0.50213 0.0
N283 N 0.72253 0.5702 0.52392 0.0
C284 C 0.70325 0.61583 0.44233 0.0
H285 H 0.68518 0.61871 0.4573 0.0
H286 H 0.70114 0.60903 0.40549 0.0
H287 H 0.71305 0.63306 0.44116 0.0
C288 C 0.63068 0.54857 0.41243 0.0
N289 N 0.63658 0.55871 0.45409 0.0
N290 N 0.65981 0.56203 0.45579 0.0
C291 C 0.6696 0.553 0.41574 0.0
C292 C 0.65142 0.54428 0.38686 0.0
C293 C 0.60553 0.54353 0.39755 0.0
H294 H 0.59391 0.55857 0.40844 0.0
H295 H 0.60407 0.54119 0.35844 0.0
H296 H 0.59917 0.52709 0.41562 0.0
O297 O 0.63218 0.54554 0.56239 0.0
O298 O 0.67069 0.55426 0.56592 0.0
H299 H 0.69948 0.53439 0.3843 0.0
H300 H 0.70337 0.56605 0.39168 0.0
C301 C 0.69585 0.54972 0.40823 0.0
H302 H 0.70491 0.54654 0.4427 0.0
H303 H 0.719 0.55688 0.54895 0.0
O304 O 0.58639 0.54833 0.5036 0.0
C305 C 0.65256 0.54309 0.58153 0.0
Co306 Co 0.42841 0.112 0.75434 0.0
Co307 Co 0.41832 0.16719 0.75784 0.0
C308 C 0.38109 0.13028 0.78457 0.0
O309 O 0.395 0.11278 0.77599 0.0
O310 O 0.38778 0.15186 0.77831 0.0
C311 C 0.44126 0.0642 0.77806 0.0
O312 O 0.43221 0.07021 0.81949 0.0
C313 C 0.3995 0.21157 0.71684 0.0
C314 C 0.42238 0.23846 0.75201 0.0
C315 C 0.40504 0.23576 0.71719 0.0
N316 N 0.41329 0.20055 0.74932 0.0
N317 N 0.42653 0.2168 0.77093 0.0
C318 C 0.38348 0.19863 0.68289 0.0
H319 H 0.38725 0.17917 0.68334 0.0
H320 H 0.38565 0.20579 0.64628 0.0
H321 H 0.36466 0.2014 0.69379 0.0
C322 C 0.44164 0.12391 0.65634 0.0
N323 N 0.43258 0.13024 0.69873 0.0
N324 N 0.43073 0.15362 0.70085 0.0
C325 C 0.43979 0.16304 0.66042 0.0
C326 C 0.4468 0.14448 0.63068 0.0
C327 C 0.4454 0.09853 0.64133 0.0
H328 H 0.43063 0.08721 0.6549 0.0
H329 H 0.4462 0.09695 0.60198 0.0
H330 H 0.46236 0.09188 0.65681 0.0
O331 O 0.44904 0.12452 0.80572 0.0
O332 O 0.44172 0.16342 0.80964 0.0
H333 H 0.46132 0.19144 0.63088 0.0
H334 H 0.43004 0.19783 0.63568 0.0
C335 C 0.4453 0.18901 0.65358 0.0
H336 H 0.44858 0.19775 0.68833 0.0
H337 H 0.43933 0.21292 0.79678 0.0
O338 O 0.44017 0.07899 0.74379 0.0
C339 C 0.45262 0.14491 0.82439 0.0
Co340 Co 0.87967 0.93871 0.00071 0.0
Co341 Co 0.82515 0.92509 -0.00063 0.0
C342 C 0.86206 0.88934 0.0269 0.0
O343 O 0.87875 0.90454 0.02035 0.0
O344 O 0.84026 0.89471 0.01956 0.0
C345 C 0.93014 0.94455 0.9688 0.0
O346 O 0.92696 0.92786 0.93656 0.0
C347 C 0.77939 0.90432 0.9661 0.0
C348 C 0.755 0.93394 0.98439 0.0
C349 C 0.75598 0.91221 0.9609 0.0
N350 N 0.79167 0.9211 0.99018 0.0
N351 N 0.7768 0.93838 0.00213 0.0
C352 C 0.79061 0.88271 0.9442 0.0
H353 H 0.81032 0.88456 0.94341 0.0
H354 H 0.78371 0.87986 0.90759 0.0
H355 H 0.78597 0.86679 0.96586 0.0
C356 C 0.86774 0.95526 0.90288 0.0
N357 N 0.86211 0.9442 0.94404 0.0
N358 N 0.83947 0.93779 0.94277 0.0
C359 C 0.83023 0.94412 0.90015 0.0
C360 C 0.84786 0.95525 0.87362 0.0
C361 C 0.89052 0.96852 0.89405 0.0
H362 H 0.89743 0.97613 0.92773 0.0
H363 H 0.90389 0.95611 0.87885 0.0
H364 H 0.8878 0.98329 0.86822 0.0
O365 O 0.86613 0.95832 0.05155 0.0
O366 O 0.82784 0.94846 0.05233 0.0
H367 H 0.79257 0.94851 0.90935 0.0
H368 H 0.80158 0.9456 0.84793 0.0
C369 C 0.80508 0.93946 0.88476 0.0
H370 H 0.80171 0.92003 0.8857 0.0
H371 H 0.78186 0.95392 0.01997 0.0
O372 O 0.91314 0.95029 -0.00359 0.0
C373 C 0.84528 0.96048 0.06866 0.0
Co374 Co 0.06004 0.37828 0.2764 0.0
Co375 Co 0.07494 0.32401 0.2742 0.0
C376 C 0.11036 0.36285 0.29577 0.0
O377 O 0.0946 0.37914 0.29118 0.0
O378 O 0.10528 0.34085 0.2895 0.0
C379 C 0.05225 0.42958 0.25061 0.0
O380 O 0.07124 0.42921 0.22324 0.0
C381 C 0.09558 0.27956 0.23472 0.0
C382 C 0.07022 0.25312 0.26403 0.0
C383 C 0.08919 0.25555 0.2328 0.0
N384 N 0.08051 0.29075 0.2646 0.0
N385 N 0.06589 0.27469 0.28297 0.0
C386 C 0.11381 0.29221 0.20503 0.0
H387 H 0.11036 0.31174 0.20472 0.0
H388 H 0.11378 0.28516 0.16811 0.0
H389 H 0.13175 0.28903 0.22049 0.0
C390 C 0.04122 0.36592 0.1812 0.0
N391 N 0.05346 0.36035 0.22094 0.0
N392 N 0.05914 0.3375 0.21995 0.0
C393 C 0.05046 0.32783 0.1794 0.0
C394 C 0.03907 0.34559 0.15354 0.0
C395 C 0.02956 0.38957 0.17235 0.0
H396 H 0.02009 0.39548 0.2049 0.0
H397 H 0.04345 0.40295 0.16346 0.0
H398 H 0.01654 0.38869 0.14264 0.0
O399 O 0.04296 0.36382 0.32999 0.0
O400 O 0.05371 0.32573 0.33044 0.0
H401 H 0.04713 0.29059 0.19592 0.0
H402 H 0.04188 0.29751 0.13408 0.0
C403 C 0.05269 0.30208 0.16578 0.0
H404 H 0.07151 0.29824 0.15694 0.0
H405 H 0.05196 0.27871 0.30625 0.0
O406 O 0.04615 0.41088 0.27324 0.0
C407 C 0.04191 0.34301 0.3479 0.0
Co408 Co 0.37545 0.56624 0.02163 0.0
Co409 Co 0.3199 0.5736 0.01382 0.0
C410 C 0.3542 0.61463 0.03071 0.0
O411 O 0.37268 0.60143 0.02715 0.0
O412 O 0.33319 0.60603 0.02669 0.0
C413 C 0.42756 0.56103 0.0002 0.0
O414 O 0.42618 0.57784 0.96765 0.0
C415 C 0.27464 0.59027 0.97093 0.0
C416 C 0.24989 0.56242 -0.00304 0.0
C417 C 0.25119 0.58222 0.96741 0.0
N418 N 0.28658 0.57552 0.00037 0.0
N419 N 0.27154 0.55925 0.01653 0.0
C420 C 0.28632 0.60987 0.94316 0.0
H421 H 0.30599 0.6076 0.94313 0.0
H422 H 0.27955 0.61015 0.90601 0.0
H423 H 0.28203 0.62727 0.95998 0.0
C424 C 0.36693 0.54114 0.92987 0.0
N425 N 0.35936 0.55423 0.9672 0.0
N426 N 0.33619 0.55773 0.96325 0.0
C427 C 0.32839 0.54716 0.92293 0.0
C428 C 0.34763 0.5364 0.90048 0.0
C429 C 0.39166 0.53142 0.92466 0.0
H430 H 0.39812 0.5247 0.95947 0.0
H431 H 0.40369 0.54587 0.91233 0.0
H432 H 0.39231 0.51657 0.89855 0.0
O433 O 0.36184 0.55217 0.07969 0.0
O434 O 0.32251 0.55463 0.07314 0.0
H435 H 0.29117 0.54015 0.93295 0.0
H436 H 0.30067 0.5382 0.87162 0.0
C437 C 0.30314 0.54791 0.90559 0.0
H438 H 0.29795 0.5667 0.89945 0.0
H439 H 0.27633 0.54531 0.03928 0.0
O440 O 0.4091 0.55522 0.02378 0.0
C441 C 0.34105 0.54815 0.0958 0.0
Co442 Co 0.43266 0.87128 0.28588 0.0
Co443 Co 0.4163 0.8175 0.28268 0.0
C444 C 0.38204 0.85972 0.29423 0.0
O445 O 0.39816 0.87561 0.28999 0.0
O446 O 0.38702 0.8375 0.29208 0.0
C447 C 0.44315 0.92205 0.26783 0.0
O448 O 0.42199 0.92354 0.24791 0.0
C449 C 0.39484 0.77871 0.22752 0.0
C450 C 0.40016 0.74746 0.27437 0.0
C451 C 0.39112 0.75432 0.23056 0.0
N452 N 0.40583 0.78599 0.26754 0.0
N453 N 0.40882 0.76724 0.29557 0.0
C454 C 0.38688 0.79505 0.18844 0.0
H455 H 0.39144 0.81388 0.19682 0.0
H456 H 0.39534 0.78981 0.15436 0.0
H457 H 0.36729 0.79331 0.18365 0.0
C458 C 0.45523 0.85732 0.19566 0.0
N459 N 0.44129 0.85233 0.23326 0.0
N460 N 0.43647 0.82934 0.23382 0.0
C461 C 0.44832 0.81871 0.19782 0.0
C462 C 0.4604 0.83614 0.17217 0.0
C463 C 0.4626 0.88208 0.18186 0.0
H464 H 0.4474 0.89444 0.18697 0.0
H465 H 0.46828 0.88303 0.1441 0.0
H466 H 0.47752 0.88798 0.20506 0.0
O467 O 0.44291 0.85583 0.34577 0.0
O468 O 0.43409 0.81709 0.34342 0.0
H469 H 0.46896 0.78774 0.17851 0.0
H470 H 0.43768 0.78563 0.16604 0.0
C471 C 0.45093 0.79223 0.19218 0.0
H472 H 0.44811 0.78304 0.22668 0.0
H473 H 0.41699 0.76791 0.32894 0.0
O474 O 0.45015 0.90219 0.28473 0.0
C475 C 0.44306 0.83511 0.36451 0.0
Co476 Co 0.11671 0.93688 0.52892 0.0
Co477 Co 0.17035 0.92073 0.5223 0.0
C478 C 0.13275 0.88682 0.5538 0.0
O479 O 0.11675 0.90291 0.54956 0.0
O480 O 0.15451 0.8909 0.54328 0.0
C481 C 0.06563 0.94357 0.50316 0.0
O482 O 0.06682 0.92496 0.47478 0.0
C483 C 0.2157 0.89866 0.48839 0.0
C484 C 0.23992 0.92926 0.50026 0.0
C485 C 0.23903 0.90653 0.48083 0.0
N486 N 0.20346 0.91639 0.50968 0.0
N487 N 0.21822 0.93436 0.51752 0.0
C488 C 0.20512 0.87486 0.47638 0.0
H489 H 0.19012 0.8707 0.50071 0.0
H490 H 0.19804 0.87519 0.43952 0.0
H491 H 0.21882 0.86061 0.47906 0.0
C492 C 0.12685 0.95289 0.43041 0.0
N493 N 0.13297 0.94138 0.47076 0.0
N494 N 0.15522 0.93401 0.46734 0.0
C495 C 0.16371 0.94008 0.42405 0.0
C496 C 0.14606 0.95227 0.39942 0.0
C497 C 0.10433 0.96693 0.42414 0.0
H498 H 0.09929 0.97554 0.45817 0.0
H499 H 0.0898 0.9547 0.41298 0.0
H500 H 0.10638 0.98099 0.39659 0.0
O501 O 0.13219 0.95606 0.57789 0.0
O502 O 0.16975 0.9438 0.57615 0.0
H503 H 0.20157 0.94475 0.42641 0.0
H504 H 0.19012 0.93814 0.36774 0.0
C505 C 0.18817 0.93425 0.40625 0.0
H506 H 0.19168 0.91503 0.41172 0.0
H507 H 0.21319 0.95057 0.53282 0.0
O508 O 0.0839 0.94991 0.52677 0.0
C509 C 0.1534 0.95686 0.59361 0.0
Co510 Co 0.05811 0.61114 0.74787 0.0
Co511 Co 0.0733 0.6653 0.74853 0.0
C512 C 0.10794 0.62738 0.775 0.0
O513 O 0.09229 0.61115 0.76792 0.0
O514 O 0.10323 0.64942 0.76831 0.0
C515 C 0.05073 0.56099 0.71392 0.0
O516 O 0.06712 0.56385 0.68101 0.0
C517 C 0.09473 0.71282 0.72464 0.0
C518 C 0.06312 0.7355 0.73751 0.0
C519 C 0.08645 0.73625 0.72138 0.0
N520 N 0.07677 0.69899 0.74079 0.0
N521 N 0.05813 0.71279 0.74905 0.0
C522 C 0.11923 0.70371 0.71379 0.0
H523 H 0.12325 0.68776 0.73574 0.0
H524 H 0.12024 0.69843 0.6758 0.0
H525 H 0.1328 0.71775 0.72062 0.0
C526 C 0.04259 0.62455 0.64993 0.0
N527 N 0.05333 0.62939 0.69179 0.0
N528 N 0.06083 0.65171 0.69137 0.0
C529 C 0.05582 0.66145 0.64857 0.0
C530 C 0.04411 0.64457 0.62102 0.0
C531 C 0.0284 0.60245 0.63989 0.0
H532 H 0.02067 0.59527 0.67323 0.0
H533 H 0.04017 0.58884 0.62355 0.0
H534 H 0.01368 0.60624 0.61452 0.0
O535 O 0.03864 0.62448 0.79914 0.0
O536 O 0.04998 0.66235 0.8013 0.0
H537 H 0.05134 0.6993 0.65306 0.0
H538 H 0.06048 0.68895 0.59496 0.0
C539 C 0.06262 0.68622 0.63383 0.0
H540 H 0.0815 0.68948 0.64318 0.0
H541 H 0.04168 0.70655 0.76122 0.0
O542 O 0.04582 0.578 0.74219 0.0
C543 C 0.03733 0.64523 0.81706 0.0
H544 H 0.95974 0.95579 0.89425 0.0
H545 H 0.05166 0.02988 0.05162 0.0
H546 H 0.94984 0.96722 0.0448 0.0
H547 H 0.03934 0.04739 0.90405 0.0
H548 H 0.01847 0.00155 0.04853 0.0
H549 H 0.99363 0.98379 0.89583 0.0
C550 C 0.96494 0.9639 0.92769 0.0
C551 C 0.95208 0.95918 0.96951 0.0
C552 C 0.02295 0.01167 0.01689 0.0
C553 C 0.99055 0.99101 0.97151 0.0
C554 C 0.04186 0.02783 0.0186 0.0
C555 C 0.04811 0.0411 0.97811 0.0
C556 C 0.0105 0.00833 0.97408 0.0
C557 C 0.03488 0.03769 0.9362 0.0
C558 C 0.98405 0.98002 0.92845 0.0
C559 C 0.95929 0.97041 0.01178 0.0
N560 N 0.01678 0.02143 0.93509 0.0
N561 N 0.97811 0.98569 0.01176 0.0
H562 H 0.97213 0.55888 0.18966 0.0
H563 H 0.01672 0.43848 0.3144 0.0
H564 H 0.95091 0.53693 0.33079 0.0
H565 H 0.05183 0.469 0.19184 0.0
H566 H 0.98975 0.47257 0.31639 0.0
H567 H -0.00174 0.5239 0.18484 0.0
C568 C 0.97275 0.54659 0.21943 0.0
C569 C 0.95933 0.55088 0.26079 0.0
C570 C 0.00338 0.47189 0.28911 0.0
C571 C 0.98926 0.51092 0.25549 0.0
C572 C 0.01881 0.4524 0.2879 0.0
C573 C 0.03664 0.45089 0.25293 0.0
C574 C 0.00553 0.49 0.25482 0.0
C575 C 0.03845 0.46951 0.21959 0.0
C576 C 0.98781 0.52673 0.21675 0.0
C577 C 0.96097 0.5344 0.2983 0.0
N578 N 0.023 0.48827 0.22121 0.0
N579 N 0.97565 0.51518 0.29475 0.0
H580 H 0.52108 0.56065 0.45202 0.0
H581 H 0.46945 0.44337 0.57664 0.0
H582 H 0.56417 0.51266 0.53627 0.0
H583 H 0.43467 0.47705 0.45701 0.0
H584 H 0.50332 0.47047 0.56642 0.0
H585 H 0.4878 0.53221 0.45775 0.0
C586 C 0.52354 0.54419 0.47171 0.0
C587 C 0.54543 0.53905 0.4937 0.0
C588 C 0.48833 0.47181 0.5422 0.0
C589 C 0.50753 0.50661 0.50061 0.0
C590 C 0.469 0.45635 0.54804 0.0
C591 C 0.44919 0.45793 0.51766 0.0
C592 C 0.48773 0.48924 0.50619 0.0
C593 C 0.44959 0.47513 0.48117 0.0
C594 C 0.50461 0.52794 0.47478 0.0
C595 C 0.54765 0.51738 0.51862 0.0
N596 N 0.46845 0.49027 0.47671 0.0
N597 N 0.52893 0.50207 0.52163 0.0
H598 H 0.55369 0.96392 0.71086 0.0
H599 H 0.44292 0.02616 0.83921 0.0
H600 H 0.51022 0.92843 0.81622 0.0
H601 H 0.47215 0.05184 0.70653 0.0
H602 H 0.4691 0.99133 0.83437 0.0
H603 H 0.52597 -0.00219 0.71223 0.0
C604 C 0.53839 0.96328 0.73437 0.0
C605 C 0.53429 0.94332 0.7635 0.0
C606 C 0.46966 0.0045 0.80614 0.0
C607 C 0.50259 0.98197 0.7653 0.0
C608 C 0.45471 0.02439 0.80887 0.0
C609 C 0.45534 0.04196 0.77325 0.0
C610 C 0.48564 0.00229 0.76786 0.0
C611 C 0.471 0.0387 0.73474 0.0
C612 C 0.52251 0.98256 0.73494 0.0
C613 C 0.51409 0.94341 0.79308 0.0
N614 N 0.48569 0.01937 0.73328 0.0
N615 N 0.49909 0.96246 0.79339 0.0
H616 H 0.02701 0.94356 0.44249 0.0
H617 H 0.96076 0.04949 0.58055 0.0
H618 H 0.05562 0.97895 0.5666 0.0
H619 H 0.93858 0.02467 0.4419 0.0
H620 H 0.99489 0.02253 0.57711 0.0
H621 H 0.99315 0.97136 0.44347 0.0
C622 C 0.02609 0.95702 0.47011 0.0
C623 C 0.04417 0.95892 0.5045 0.0
C624 C 0.98266 0.02307 0.54726 0.0
C625 C 0.00568 0.99078 0.50567 0.0
C626 C 0.96318 0.03852 0.54917 0.0
C627 C 0.94677 0.03933 0.5115 0.0
C628 C 0.98568 0.00811 0.50758 0.0
C629 C 0.95083 0.02468 0.47172 0.0
C630 C 0.00687 0.97298 0.47046 0.0
C631 C 0.04215 0.97683 0.53928 0.0
N632 N 0.96979 0.00952 0.47095 0.0
N633 N 0.02328 0.992 0.53898 0.0
H634 H 0.96319 0.44224 0.80252 0.0
H635 H 0.03882 0.53093 0.64031 0.0
H636 H 0.94746 0.45134 0.65323 0.0
H637 H 0.02781 0.54236 0.79058 0.0
H638 H 0.01032 0.49746 0.64329 0.0
H639 H 0.99162 0.47527 0.79783 0.0
C640 C 0.96563 0.45133 0.76879 0.0
C641 C 0.95286 0.4442 0.72827 0.0
C642 C 0.01428 0.5073 0.67553 0.0
C643 C 0.98575 0.48163 0.72243 0.0
C644 C 0.03068 0.52618 0.67398 0.0
C645 C 0.03568 0.53934 0.71531 0.0
C646 C 0.00328 0.50137 0.71889 0.0
C647 C 0.02441 0.53269 0.75789 0.0
C648 C 0.98185 0.47015 0.76615 0.0
C649 C 0.95676 0.45652 0.68541 0.0
N650 N 0.00884 0.51411 0.75863 0.0
N651 N 0.97307 0.47455 0.68346 0.0
H652 H 0.55467 0.47644 0.94936 0.0
H653 H 0.43884 0.53149 0.07392 0.0
H654 H 0.53451 0.4623 0.09501 0.0
H655 H 0.46575 0.55689 0.93912 0.0
H656 H 0.47291 0.50468 0.08026 0.0
H657 H 0.52093 0.50401 0.94236 0.0
C658 C 0.54306 0.47897 0.97975 0.0
C659 C 0.54745 0.46702 0.02289 0.0
C660 C 0.47149 0.51619 0.04937 0.0
C661 C 0.50892 0.49865 0.01512 0.0
C662 C 0.45203 0.53154 0.04572 0.0
C663 C 0.44942 0.54648 0.00589 0.0
C664 C 0.48848 0.51549 0.01271 0.0
C665 C 0.46712 0.54578 0.97056 0.0
C666 C 0.5239 0.49483 0.97579 0.0
C667 C 0.53186 0.4711 0.06109 0.0
N668 N 0.48584 0.5304 0.97462 0.0
N669 N 0.51332 0.48654 0.05629 0.0
H670 H 0.48412 0.9274 0.31959 0.0
H671 H 0.51916 0.05322 0.2049 0.0
H672 H 0.43961 0.96394 0.21739 0.0
H673 H 0.54814 0.02806 0.33825 0.0
H674 H 0.49382 0.01766 0.20122 0.0
H675 H 0.51133 0.96154 0.31965 0.0
C676 C 0.48006 0.9426 0.29712 0.0
C677 C 0.45948 0.94285 0.26856 0.0
C678 C 0.50581 0.0199 0.23115 0.0
C679 C 0.49074 0.98188 0.26815 0.0
C680 C 0.52041 0.0401 0.23315 0.0
C681 C 0.53574 0.04368 0.27209 0.0
C682 C 0.50675 0.00299 0.26801 0.0
C683 C 0.53652 0.02609 0.3077 0.0
C684 C 0.4956 0.96208 0.29726 0.0
C685 C 0.45517 0.96304 0.24019 0.0
N686 N 0.52222 0.00651 0.30481 0.0
N687 N 0.47072 0.98172 0.24055 0.0
H688 H 0.18087 0.98294 0.36998 0.0
H689 H 0.11452 0.01475 0.12689 0.0
H690 H 0.11552 0.94934 0.32434 0.0
H691 H 0.18564 0.03939 0.1605 0.0
H692 H 0.11458 0.99088 0.19932 0.0
H693 H 0.1831 0.00393 0.29364 0.0
C694 C 0.16716 0.97981 0.34351 0.0
C695 C 0.14807 0.96435 0.35299 0.0
C696 C 0.13023 0.00141 0.19079 0.0
C697 C 0.15019 0.98851 0.26632 0.0
C698 C 0.1302 0.01512 0.14945 0.0
C699 C 0.15007 0.02923 0.13773 0.0
C700 C 0.15019 0.00191 0.22093 0.0
C701 C 0.16992 0.02882 0.1682 0.0
C702 C 0.16836 0.99183 0.30012 0.0
C703 C 0.13047 0.96122 0.31819 0.0
N704 N 0.16941 0.01548 0.20863 0.0
N705 N 0.1319 0.97328 0.27636 0.0
H706 H 0.04955 0.615 0.54514 0.0
H707 H 0.96083 0.68924 0.37766 0.0
H708 H 0.0156 0.68058 0.58823 0.0
H709 H 0.98673 0.61842 0.34535 0.0
H710 H 0.98526 0.68928 0.44994 0.0
H711 H 0.03077 0.61867 0.46684 0.0
C712 C 0.0382 0.63022 0.53787 0.0
C713 C 0.03403 0.6475 0.57288 0.0
C714 C 0.98569 0.67382 0.42678 0.0
C715 C 0.01256 0.65192 0.48374 0.0
C716 C 0.97182 0.67382 0.38546 0.0
C717 C 0.97153 0.65369 0.35569 0.0
C718 C -0.0006 0.65361 0.43819 0.0
C719 C 0.98618 0.63423 0.3675 0.0
C720 C 0.02754 0.63237 0.49325 0.0
C721 C 0.01939 0.66702 0.56184 0.0
N722 N -0.0006 0.63463 0.40794 0.0
N723 N 0.00906 0.66867 0.5182 0.0
H724 H 0.3838 0.47717 0.62625 0.0
H725 H 0.31942 0.49856 0.87583 0.0
H726 H 0.3142 0.44847 0.65948 0.0
H727 H 0.37643 0.54321 0.82378 0.0
H728 H 0.31941 0.47694 0.79992 0.0
H729 H 0.38359 0.49861 0.70188 0.0
C730 C 0.36845 0.47539 0.6494 0.0
C731 C 0.34896 0.46102 0.63647 0.0
C732 C 0.33186 0.49153 0.80505 0.0
C733 C 0.34873 0.4854 0.72322 0.0
C734 C 0.33181 0.50386 0.84817 0.0
C735 C 0.34771 0.52283 0.85548 0.0
C736 C 0.34819 0.49803 0.76942 0.0
C737 C 0.36386 0.52868 0.81927 0.0
C738 C 0.36834 0.48768 0.69252 0.0
C739 C 0.32956 0.45942 0.66791 0.0
N740 N 0.36371 0.5163 0.77771 0.0
N741 N 0.32998 0.47139 0.70997 0.0
H742 H 0.50405 0.85617 0.15604 0.0
H743 H 0.52514 0.79777 0.90178 0.0
H744 H 0.45222 0.80848 0.09369 0.0
H745 H 0.54513 0.87039 0.93471 0.0
H746 H 0.50572 0.79474 0.98005 0.0
H747 H 0.52726 0.85446 0.08233 0.0
C748 C 0.49761 0.8453 0.12683 0.0
C749 C 0.47594 0.83291 0.13031 0.0
C750 C 0.51451 0.81123 0.96999 0.0
C751 C 0.50268 0.83027 0.04706 0.0
C752 C 0.52558 0.81296 0.92563 0.0
C753 C 0.53652 0.83443 0.91186 0.0
C754 C 0.51502 0.83088 0.0009 0.0
C755 C 0.53664 0.85363 0.94387 0.0
C756 C 0.51089 0.84425 0.08507 0.0
C757 C 0.46882 0.81835 0.09225 0.0
N758 N 0.52612 0.85137 0.98709 0.0
N759 N 0.48214 0.81749 0.05189 0.0
H760 H 0.87946 0.01018 0.5949 0.0
H761 H 0.81483 0.9876 0.84301 0.0
H762 H 0.8093 0.0375 0.6277 0.0
H763 H 0.87663 0.94806 0.79714 0.0
H764 H 0.81237 0.00611 0.76417 0.0
H765 H 0.87858 0.98693 0.66829 0.0
C766 C 0.86376 0.01112 0.61732 0.0
C767 C 0.84449 0.02597 0.60534 0.0
C768 C 0.82633 0.99321 0.77114 0.0
C769 C 0.84352 -0.00043 0.68966 0.0
C770 C 0.82768 0.98263 0.81598 0.0
C771 C 0.84578 0.96615 0.82604 0.0
C772 C 0.84347 0.9875 0.7365 0.0
C773 C 0.86241 0.96072 0.7905 0.0
C774 C 0.86328 -0.00218 0.65922 0.0
C775 C 0.82458 0.02636 0.63561 0.0
N776 N 0.86092 0.97145 0.74725 0.0
N777 N 0.82472 0.01355 0.67668 0.0
H778 H 0.98028 0.37592 0.87796 0.0
H779 H 0.00228 0.31566 0.13083 0.0
H780 H 0.94948 0.30784 0.91654 0.0
H781 H 0.04705 0.37122 0.07324 0.0
H782 H 0.98107 0.31338 0.0545 0.0
H783 H 0.00326 0.37557 0.95148 0.0
C784 C 0.97837 0.36085 0.90189 0.0
C785 C 0.96285 0.3419 0.8912 0.0
C786 C 0.99568 0.32591 0.05843 0.0
C787 C 0.98911 0.34148 0.97562 0.0
C788 C 0.00778 0.32713 0.10177 0.0
C789 C 0.02653 0.34342 0.10769 0.0
C790 C 0.0022 0.34139 0.02129 0.0
C791 C 0.03268 0.35839 0.06972 0.0
C792 C 0.99158 0.36064 0.9438 0.0
C793 C 0.96125 0.32279 0.92341 0.0
N794 N 0.02048 0.35709 0.02809 0.0
N795 N 0.97411 0.32315 0.96445 0.0
H796 H 0.67912 0.55466 0.30902 0.0
H797 H 0.61167 0.46493 0.1419 0.0
H798 H 0.62904 0.50282 0.36337 0.0
H799 H 0.68706 0.47633 0.11931 0.0
H800 H 0.61448 0.48675 0.21679 0.0
H801 H 0.68009 0.53271 0.23299 0.0
C802 C 0.66847 0.53863 0.305 0.0
C803 C 0.65359 0.53075 0.34199 0.0
C804 C 0.63037 0.4845 0.1953 0.0
C805 C 0.65422 0.50624 0.25579 0.0
C806 C 0.62879 0.47223 0.15248 0.0
C807 C 0.6492 0.46879 0.12451 0.0
C808 C 0.65239 0.49384 0.20985 0.0
C809 C 0.67095 0.47852 0.14012 0.0
C810 C 0.66901 0.52623 0.26183 0.0
C811 C 0.64013 0.50993 0.33519 0.0
N812 N 0.67199 0.49082 0.18185 0.0
N813 N 0.64048 0.49858 0.29264 0.0
H814 H 0.51397 0.1859 0.36307 0.0
H815 H 0.48646 0.11964 0.6047 0.0
H816 H 0.52517 0.11019 0.38277 0.0
H817 H 0.43791 0.1739 0.55455 0.0
H818 H 0.50716 0.12104 0.52845 0.0
H819 H 0.49127 0.18669 0.43825 0.0
C820 C 0.51157 0.1695 0.38299 0.0
C821 C 0.52143 0.14795 0.3667 0.0
C822 C 0.49192 0.13259 0.53413 0.0
C823 C 0.49623 0.1489 0.45227 0.0
C824 C 0.47999 0.13167 0.57742 0.0
C825 C 0.46007 0.14621 0.58536 0.0
C826 C 0.48424 0.14857 0.49888 0.0
C827 C 0.45316 0.16232 0.54957 0.0
C828 C 0.49863 0.16997 0.4256 0.0
C829 C 0.51781 0.12718 0.39378 0.0
N830 N 0.46529 0.16312 0.50762 0.0
N831 N 0.50575 0.12824 0.43546 0.0
H832 H 0.67751 0.49094 0.86538 0.0
H833 H 0.62258 0.50715 0.60757 0.0
H834 H 0.63049 0.43918 0.8013 0.0
H835 H 0.68723 0.54318 0.65063 0.0
H836 H 0.62433 0.48305 0.67974 0.0
H837 H 0.68074 0.51145 0.78841 0.0
C838 C 0.66818 0.48375 0.83478 0.0
C839 C 0.65388 0.46333 0.83914 0.0
C840 C 0.63826 0.49607 0.67325 0.0
C841 C 0.65696 0.48682 0.7519 0.0
C842 C 0.63723 0.50991 0.63216 0.0
C843 C 0.65472 0.52729 0.62331 0.0
C844 C 0.6567 0.49988 0.70618 0.0
C845 C 0.6734 0.52996 0.65617 0.0
C846 C 0.66996 0.49544 0.79105 0.0
C847 C 0.64167 0.45492 0.79905 0.0
N848 N 0.67375 0.51657 0.69657 0.0
N849 N 0.64334 0.46682 0.75707 0.0
H850 H 0.50847 0.17635 0.10192 0.0
H851 H 0.48545 0.11218 0.85475 0.0
H852 H 0.55491 0.12144 0.04757 0.0
H853 H 0.45679 0.18183 0.88776 0.0
H854 H 0.5101 0.1143 0.92634 0.0
H855 H 0.48823 0.17795 0.02473 0.0
C856 C 0.51456 0.16486 0.07339 0.0
C857 C 0.53335 0.1488 0.08071 0.0
C858 C 0.49858 0.1292 0.91764 0.0
C859 C 0.51008 0.1501 -0.00693 0.0
C860 C 0.48445 0.12798 0.8769 0.0
C861 C 0.46894 0.1468 0.86544 0.0
C862 C 0.49693 0.14921 0.94751 0.0
C863 C 0.46848 0.1669 0.89527 0.0
C864 C 0.50301 0.16572 0.02949 0.0
C865 C 0.54036 0.13396 0.04313 0.0
N866 N 0.48208 0.16747 0.93528 0.0
N867 N 0.52857 0.1348 0.00091 0.0
H868 H 0.86596 0.06624 0.28789 0.0
H869 H 0.80778 0.96189 0.1314 0.0
H870 H 0.8134 0.01715 0.34258 0.0
H871 H 0.87456 0.99653 0.09773 0.0
H872 H 0.80418 0.98745 0.20189 0.0
H873 H 0.86383 0.04615 0.21048 0.0
C874 C 0.8538 0.05136 0.28325 0.0
C875 C 0.83991 0.04318 0.32129 0.0
C876 C 0.8195 0.98951 0.17879 0.0
C877 C 0.83728 0.02025 0.23348 0.0
C878 C 0.82154 0.97501 0.13856 0.0
C879 C 0.84164 0.9769 0.10905 0.0
C880 C 0.83755 0.00615 0.18906 0.0
C881 C 0.85892 0.99423 0.11988 0.0
C882 C 0.85258 0.03992 0.23928 0.0
C883 C 0.82428 0.024 0.31379 0.0
N884 N 0.85651 0.00813 0.15909 0.0
N885 N 0.82346 0.01304 0.27069 0.0
H886 H 0.00508 0.37077 0.37777 0.0
H887 H 0.99074 0.30774 0.62857 0.0
H888 H 0.04385 0.30654 0.41329 0.0
H889 H 0.93878 0.35626 0.56991 0.0
H890 H 0.01084 0.30643 0.55088 0.0
H891 H 0.98111 0.36574 0.4492 0.0
C892 C 0.00851 0.35554 0.40061 0.0
C893 C 0.0266 0.33914 0.38983 0.0
C894 C 0.99481 0.31702 0.55484 0.0
C895 C -0.00077 0.33332 0.4719 0.0
C896 C 0.98332 0.31766 0.59893 0.0
C897 C 0.96308 0.33199 0.60507 0.0
C898 C 0.98611 0.33115 0.51729 0.0
C899 C 0.9544 0.34502 0.56627 0.0
C900 C 0.99471 0.35261 0.44127 0.0
C901 C 0.03008 0.31961 0.42042 0.0
N902 N 0.96608 0.34447 0.52408 0.0
N903 N 0.01667 0.31737 0.46052 0.0
H904 H 0.37367 0.54744 0.16713 0.0
H905 H 0.31096 0.44789 0.322 0.0
H906 H 0.30341 0.52172 0.1302 0.0
H907 H 0.362 0.49783 0.37948 0.0
H908 H 0.30819 0.47254 0.24962 0.0
H909 H 0.37086 0.52668 0.24305 0.0
C910 C 0.35761 0.5374 0.17506 0.0
C911 C 0.33878 0.53618 0.1423 0.0
C912 C 0.31981 0.47814 0.27834 0.0
C913 C 0.33551 0.51224 0.22915 0.0
C914 C 0.32137 0.46415 0.31948 0.0
C915 C 0.33713 0.47065 0.35605 0.0
C916 C 0.3343 0.4985 0.27397 0.0
C917 C 0.3502 0.49184 0.35139 0.0
C918 C 0.35596 0.52568 0.21854 0.0
C919 C 0.3183 0.5231 0.15461 0.0
N920 N 0.34874 0.50486 0.31082 0.0
N921 N 0.3173 0.51133 0.19701 0.0
H922 H 0.44245 0.86788 0.43523 0.0
H923 H 0.54057 0.80754 0.59344 0.0
H924 H 0.4671 0.79678 0.40229 0.0
H925 H 0.48773 0.85486 0.65296 0.0
H926 H 0.51635 0.80422 0.52088 0.0
H927 H 0.46161 0.8651 0.51303 0.0
C928 C 0.45187 0.85163 0.44455 0.0
C929 C 0.45338 0.83256 0.41238 0.0
C930 C 0.51001 0.81512 0.55009 0.0
C931 C 0.47552 0.8294 0.50097 0.0
C932 C 0.52375 0.81701 0.59138 0.0
C933 C 0.51626 0.83182 0.62874 0.0
C934 C 0.48891 0.82844 0.54613 0.0
C935 C 0.49444 0.8438 0.62435 0.0
C936 C 0.46265 0.85001 0.489 0.0
C937 C 0.46558 0.81183 0.42628 0.0
N938 N 0.48167 0.84213 0.58345 0.0
N939 N 0.47657 0.81091 0.46946 0.0
H940 H 0.18989 0.95342 0.65847 0.0
H941 H 0.13905 0.06057 0.81695 0.0
H942 H 0.12853 0.99613 0.6212 0.0
H943 H 0.18405 0.00502 0.87371 0.0
H944 H 0.14193 0.0422 0.73812 0.0
H945 H 0.19486 0.97744 0.73093 0.0
C946 C 0.1777 0.96804 0.6652 0.0
C947 C 0.15859 0.97264 0.63425 0.0
C948 C 0.15143 0.03418 0.76766 0.0
C949 C 0.16421 5e-05 0.71636 0.0
C950 C 0.1498 0.04464 0.81244 0.0
C951 C 0.16143 0.03426 0.85135 0.0
C952 C 0.16473 0.01312 0.76195 0.0
C953 C 0.17512 0.01366 0.84417 0.0
C954 C 0.18048 0.98163 0.70653 0.0
C955 C 0.1433 0.99177 0.64451 0.0
N956 N 0.17631 0.00362 0.80019 0.0
N957 N 0.14639 0.00471 0.68479 0.0
H958 H 0.98645 0.67958 0.09665 0.0
H959 H -0.00018 0.61758 0.84533 0.0
H960 H 0.93205 0.63395 0.03747 0.0
H961 H 0.03851 0.68175 0.88193 0.0
H962 H 0.97539 0.6226 0.91648 0.0
H963 H 0.0065 0.68034 0.01912 0.0
C964 C 0.97854 0.67011 0.06694 0.0
C965 C 0.95756 0.65685 0.07291 0.0
C966 C 0.98906 0.63571 0.9087 0.0
C967 C 0.98057 0.65702 0.98506 0.0
C968 C 0.00309 0.6328 0.86824 0.0
C969 C 0.02134 0.64918 0.85796 0.0
C970 C 0.99357 0.6549 0.93955 0.0
C971 C 0.02465 0.66869 0.88862 0.0
C972 C 0.98999 0.67045 0.02289 0.0
C973 C 0.94825 0.64436 0.03394 0.0
N974 N 0.01108 0.67085 0.92845 0.0
N975 N 0.95995 0.64455 -0.00834 0.0
H976 H 0.0603 0.22418 0.18762 0.0
H977 H 0.16566 0.14922 0.06981 0.0
H978 H 0.13425 0.24484 0.19901 0.0
H979 H 0.09075 0.13338 0.05172 0.0
H980 H 0.15491 0.18621 0.11076 0.0
H981 H 0.07147 0.19252 0.13284 0.0
C982 C 0.07895 0.22205 0.17847 0.0
C983 C 0.0964 0.23713 0.19799 0.0
C984 C 0.14086 0.17476 0.09731 0.0
C985 C 0.10941 0.20072 0.13506 0.0
C986 C 0.14695 0.15365 0.07378 0.0
C987 C 0.12907 0.13794 0.0578 0.0
C988 C 0.11672 0.18018 0.10505 0.0
C989 C 0.10517 0.14475 0.06378 0.0
C990 C 0.08532 0.20403 0.14691 0.0
C991 C 0.12024 0.23375 0.18442 0.0
N992 N 0.09972 0.1652 0.08734 0.0
N993 N 0.1261 0.21572 0.15404 0.0
H994 H 0.84159 0.66347 0.27761 0.0
H995 H 0.78849 0.59258 0.49494 0.0
H996 H 0.87384 0.59881 0.33133 0.0
H997 H 0.74045 0.61692 0.38459 0.0
H998 H 0.82206 0.60368 0.44468 0.0
H999 H 0.8056 0.65456 0.32495 0.0
C1000 C 0.84102 0.64736 0.29898 0.0
C1001 C 0.86067 0.6318 0.30044 0.0
C1002 C 0.80408 0.60681 0.43192 0.0
C1003 C 0.82024 0.62209 0.35526 0.0
C1004 C 0.78483 0.60055 0.46055 0.0
C1005 C 0.76129 0.60387 0.44456 0.0
C1006 C 0.79996 0.61688 0.38706 0.0
C1007 C 0.75797 0.61446 0.39952 0.0
C1008 C 0.82057 0.64234 0.32582 0.0
C1009 C 0.85907 0.6112 0.3288 0.0
N1010 N 0.77713 0.62065 0.37233 0.0
N1011 N 0.83936 0.60714 0.3556 0.0
H1012 H 0.40729 0.35973 0.53677 0.0
H1013 H 0.36072 0.24458 0.67811 0.0
H1014 H 0.3325 0.34426 0.55778 0.0
H1015 H 0.43352 0.26969 0.67846 0.0
H1016 H 0.35023 0.27689 0.6228 0.0
H1017 H 0.4173 0.32218 0.57579 0.0
C1018 C 0.39293 0.34831 0.54896 0.0
C1019 C 0.36901 0.35541 0.5446 0.0
C1020 C 0.36853 0.27516 0.63473 0.0
C1021 C 0.38042 0.31239 0.58993 0.0
C1022 C 0.37454 0.25666 0.66605 0.0
C1023 C 0.39802 0.25446 0.68276 0.0
C1024 C 0.3862 0.29139 0.61997 0.0
C1025 C 0.41514 0.27088 0.66676 0.0
C1026 C 0.39868 0.32689 0.57149 0.0
C1027 C 0.3512 0.33967 0.56078 0.0
N1028 N 0.40889 0.28862 0.63632 0.0
N1029 N 0.35727 0.31901 0.58325 0.0
H1030 H 0.64679 0.82813 0.82126 0.0
H1031 H 0.72626 0.93858 0.90613 0.0
H1032 H 0.6301 0.90211 0.79295 0.0
H1033 H 0.74247 0.86553 0.94301 0.0
H1034 H 0.69378 0.92468 0.85587 0.0
H1035 H 0.68491 0.8406 0.85573 0.0
C1036 C 0.65128 0.84696 0.82148 0.0
C1037 C 0.63502 0.86414 0.80478 0.0
C1038 C 0.70449 0.9116 0.8746 0.0
C1039 C 0.67851 0.87847 0.84459 0.0
C1040 C 0.72299 0.91954 0.90356 0.0
C1041 C 0.73706 0.90318 0.92892 0.0
C1042 C 0.69972 0.88706 0.87121 0.0
C1043 C 0.73222 0.87873 0.92369 0.0
C1044 C 0.67301 0.85405 0.84142 0.0
C1045 C 0.64189 0.88824 0.8059 0.0
N1046 N 0.71377 0.87138 0.89567 0.0
N1047 N 0.66298 0.89467 0.82593 0.0
H1048 H 0.8566 0.24135 0.70513 0.0
H1049 H 0.9047 0.13189 0.54894 0.0
H1050 H 0.92919 0.21574 0.7063 0.0
H1051 H 0.8297 0.14804 0.56375 0.0
H1052 H 0.91414 0.1663 0.59836 0.0
H1053 H 0.84646 0.21035 0.64666 0.0
C1054 C 0.87041 0.22934 0.69284 0.0
C1055 C 0.89379 0.23119 0.71031 0.0
C1056 C 0.89561 0.16243 0.5906 0.0
C1057 C 0.88238 0.19579 0.64388 0.0
C1058 C 0.89019 0.14281 0.56211 0.0
C1059 C 0.86634 0.13686 0.5525 0.0
C1060 C 0.87709 0.17629 0.60979 0.0
C1061 C 0.84834 0.15184 0.57046 0.0
C1062 C 0.86461 0.21162 0.65967 0.0
C1063 C 0.9109 0.21486 0.69399 0.0
N1064 N 0.85408 0.17078 0.59858 0.0
N1065 N 0.90487 0.19794 0.66164 0.0
H1066 H 0.86036 0.40234 0.7951 0.0
H1067 H 0.74665 0.35812 0.94355 0.0
H1068 H 0.84457 0.32781 0.81987 0.0
H1069 H 0.77101 0.43114 0.93546 0.0
H1070 H 0.77858 0.34654 0.88828 0.0
H1071 H 0.82327 0.41302 0.83481 0.0
C1072 C 0.84897 0.38817 0.80832 0.0
C1073 C 0.85584 0.36414 0.80477 0.0
C1074 C 0.77677 0.36511 0.89842 0.0
C1075 C 0.81336 0.37632 0.85095 0.0
C1076 C 0.75852 0.37172 0.92976 0.0
C1077 C 0.75623 0.39561 0.94409 0.0
C1078 C 0.79265 0.38258 0.88127 0.0
C1079 C 0.7723 0.41247 0.92576 0.0
C1080 C 0.8278 0.39431 0.83123 0.0
C1081 C 0.84014 0.34659 0.82222 0.0
N1082 N 0.78979 0.40564 0.89539 0.0
N1083 N 0.81975 0.35304 0.84509 0.0
H1084 H 0.61511 0.24034 0.1459 0.0
H1085 H 0.58735 0.37399 0.07762 0.0
H1086 H 0.57405 0.28722 0.2364 0.0
H1087 H 0.65639 0.34405 0.04459 0.0
H1088 H 0.5779 0.3383 0.12367 0.0
H1089 H 0.62749 0.27489 0.0989 0.0
C1090 C 0.60923 0.25781 0.15704 0.0
C1091 C 0.59387 0.26078 0.19621 0.0
C1092 C 0.59506 0.33951 0.1061 0.0
C1093 C 0.60688 0.30015 0.14038 0.0
C1094 C 0.60041 0.35976 0.07937 0.0
C1095 C 0.62275 0.36207 0.05727 0.0
C1096 C 0.61196 0.32117 0.11018 0.0
C1097 C 0.63899 0.34303 0.06122 0.0
C1098 C 0.61606 0.27752 0.12954 0.0
C1099 C 0.58593 0.28398 0.20672 0.0
N1100 N 0.63325 0.32328 0.08717 0.0
N1101 N 0.5923 0.30268 0.17873 0.0
H1102 H 0.64769 0.16222 0.29074 0.0
H1103 H 0.70574 0.08522 0.4972 0.0
H1104 H 0.61922 0.09444 0.33748 0.0
H1105 H 0.75077 0.12215 0.39635 0.0
H1106 H 0.67096 0.09652 0.45005 0.0
H1107 H 0.68364 0.15474 0.33899 0.0
C1108 C 0.64907 0.14574 0.31079 0.0
C1109 C 0.63051 0.12886 0.30994 0.0
C1110 C 0.68848 0.10243 0.43878 0.0
C1111 C 0.67091 0.12071 0.36588 0.0
C1112 C 0.70833 0.09611 0.46573 0.0
C1113 C 0.73131 0.10293 0.45121 0.0
C1114 C 0.69151 0.11587 0.39712 0.0
C1115 C 0.7335 0.11704 0.40997 0.0
C1116 C 0.6695 0.14155 0.33824 0.0
C1117 C 0.63316 0.10784 0.3367 0.0
N1118 N 0.7138 0.12304 0.38424 0.0
N1119 N 0.65283 0.10451 0.36399 0.0
H1120 H 0.56254 0.71462 0.70617 0.0
H1121 H 0.66416 0.64879 0.5601 0.0
H1122 H 0.6328 0.74492 0.6893 0.0
H1123 H 0.58938 0.63049 0.5515 0.0
H1124 H 0.65352 0.68498 0.60415 0.0
H1125 H 0.57248 0.68402 0.64792 0.0
C1126 C 0.58009 0.71482 0.69002 0.0
C1127 C 0.5969 0.73226 0.70249 0.0
C1128 C 0.63947 0.67317 0.592 0.0
C1129 C 0.60851 0.6972 0.6358 0.0
C1130 C 0.6455 0.65252 0.5668 0.0
C1131 C 0.62767 0.63633 0.5527 0.0
C1132 C 0.61547 0.67752 0.60344 0.0
C1133 C 0.60379 0.64222 0.56213 0.0
C1134 C 0.58571 0.69745 0.65649 0.0
C1135 C 0.61929 0.73188 0.68023 0.0
N1136 N 0.59845 0.66214 0.58741 0.0
N1137 N 0.62457 0.71442 0.64822 0.0
H1138 H 0.34786 0.16257 0.81715 0.0
H1139 H 0.27612 0.0621 0.95876 0.0
H1140 H 0.36129 0.08683 0.80515 0.0
H1141 H 0.25349 0.13574 0.95603 0.0
H1142 H 0.30738 0.07153 0.90185 0.0
H1143 H 0.31256 0.15376 0.86547 0.0
C1144 C 0.34324 0.14409 0.82405 0.0
C1145 C 0.35777 0.12541 0.80742 0.0
C1146 C 0.29556 0.08568 0.91336 0.0
C1147 C 0.31759 0.1153 0.8631 0.0
C1148 C 0.2778 0.08033 0.94623 0.0
C1149 C 0.26215 0.09816 0.96206 0.0
C1150 C 0.298 0.10915 0.89643 0.0
C1151 C 0.26501 0.12141 0.94424 0.0
C1152 C 0.32311 0.1391 0.85177 0.0
C1153 C 0.35082 0.10185 0.81745 0.0
N1154 N 0.28271 0.1263 0.91247 0.0
N1155 N 0.33142 0.09751 0.84496 0.0
H1156 H 0.83141 0.85369 0.05562 0.0
H1157 H 0.93583 0.77874 0.17912 0.0
H1158 H 0.90633 0.87129 0.04665 0.0
H1159 H 0.86188 0.75747 0.18589 0.0
H1160 H 0.92488 0.81182 0.12759 0.0
H1161 H 0.84179 0.81716 0.0989 0.0
C1162 C 0.85005 0.84978 0.06221 0.0
C1163 C 0.86802 0.86576 0.04776 0.0
C1164 C 0.91098 0.7999 0.14 0.0
C1165 C 0.87994 0.82406 0.09759 0.0
C1166 C 0.91721 0.78104 0.16973 0.0
C1167 C 0.89976 0.76522 0.18671 0.0
C1168 C 0.887 0.80328 0.1273 0.0
C1169 C 0.87597 0.76899 0.17298 0.0
C1170 C 0.85593 0.82894 0.08707 0.0
C1171 C 0.89184 0.85967 0.0573 0.0
N1172 N 0.87024 0.78774 0.1442 0.0
N1173 N 0.89705 0.83945 0.08184 0.0
H1174 H 0.24745 0.36079 0.43936 0.0
H1175 H 0.12725 0.40756 0.31655 0.0
H1176 H 0.21824 0.43143 0.45827 0.0
H1177 H 0.14797 0.33324 0.31763 0.0
H1178 H 0.16417 0.41757 0.35774 0.0
H1179 H 0.21435 0.35127 0.38539 0.0
C1180 C 0.23427 0.37438 0.43169 0.0
C1181 C 0.23566 0.39699 0.45305 0.0
C1182 C 0.16074 0.39908 0.34868 0.0
C1183 C 0.19776 0.38619 0.39185 0.0
C1184 C 0.13967 0.39334 0.3249 0.0
C1185 C 0.13429 0.36946 0.31407 0.0
C1186 C 0.17663 0.38085 0.36183 0.0
C1187 C 0.15125 0.35188 0.32559 0.0
C1188 C 0.21532 0.36889 0.40115 0.0
C1189 C 0.21778 0.41373 0.44278 0.0
N1190 N 0.17157 0.3579 0.34924 0.0
N1191 N 0.19962 0.40801 0.41291 0.0
H1192 H 0.35424 0.72306 0.23828 0.0
H1193 H 0.39416 0.64294 0.02593 0.0
H1194 H 0.40814 0.74783 0.14066 0.0
H1195 H 0.32113 0.64281 0.07475 0.0
H1196 H 0.40056 0.68088 0.06758 0.0
H1197 H 0.34237 0.69253 0.1802 0.0
C1198 C 0.36327 0.72225 0.20421 0.0
C1199 C 0.38195 0.738 0.19377 0.0
C1200 C 0.38302 0.67274 0.06833 0.0
C1201 C 0.36906 0.70292 0.12804 0.0
C1202 C 0.37936 0.6511 0.04463 0.0
C1203 C 0.35713 0.63958 0.04719 0.0
C1204 C 0.36452 0.68256 0.09569 0.0
C1205 C 0.33857 0.651 0.07187 0.0
C1206 C 0.35649 0.70494 0.17111 0.0
C1207 C 0.39336 0.73618 0.14951 0.0
N1208 N 0.34282 0.6716 0.09601 0.0
N1209 N 0.38701 0.71865 0.11846 0.0
H1210 H 0.23709 0.87405 0.40551 0.0
H1211 H 0.36801 0.90409 0.32284 0.0
H1212 H 0.28608 0.91665 0.48881 0.0
H1213 H 0.34156 0.83216 0.30409 0.0
H1214 H 0.33172 0.91408 0.36608 0.0
H1215 H 0.2703 0.86202 0.3544 0.0
C1216 C 0.25476 0.88038 0.41414 0.0
C1217 C 0.25874 0.89609 0.45244 0.0
C1218 C 0.33379 0.8962 0.35193 0.0
C1219 C 0.29631 0.88358 0.39199 0.0
C1220 C 0.35439 0.89049 0.32685 0.0
C1221 C 0.35804 0.86711 0.31042 0.0
C1222 C 0.31651 0.87856 0.36004 0.0
C1223 C 0.33959 0.85033 0.31665 0.0
C1224 C 0.27362 0.87377 0.38431 0.0
C1225 C 0.28206 0.90453 0.45985 0.0
N1226 N 0.31958 0.85634 0.34134 0.0
N1227 N 0.29985 0.8984 0.42965 0.0
H1228 H 0.09244 0.87625 0.60386 0.0
H1229 H 0.11954 0.73945 0.64809 0.0
H1230 H 0.15842 0.84492 0.55493 0.0
H1231 H 0.07713 0.78236 0.74367 0.0
H1232 H 0.13227 0.77589 0.60726 0.0
H1233 H 0.08344 0.83943 0.64652 0.0
C1234 C 0.10494 0.86154 0.60163 0.0
C1235 C 0.12625 0.86371 0.57581 0.0
C1236 C 0.12049 0.77724 0.6377 0.0
C1237 C 0.11603 0.8215 0.62488 0.0
C1238 C 0.11345 0.75645 0.66156 0.0
C1239 C 0.09749 0.75779 0.70004 0.0
C1240 C 0.11103 0.79934 0.65173 0.0
C1241 C 0.08942 0.78043 0.7142 0.0
C1242 C 0.09988 0.84061 0.62639 0.0
C1243 C 0.14183 0.84404 0.57455 0.0
N1244 N 0.09606 0.80024 0.68978 0.0
N1245 N 0.13637 0.82365 0.59867 0.0
H1246 H 0.23959 0.62777 0.9369 0.0
H1247 H 0.12517 0.58239 0.79194 0.0
H1248 H 0.21865 0.55387 0.92368 0.0
H1249 H 0.14405 0.65691 0.80554 0.0
H1250 H 0.16159 0.57169 0.83418 0.0
H1251 H 0.20679 0.63892 0.88362 0.0
C1252 C 0.22838 0.61386 0.92225 0.0
C1253 C 0.23201 0.58983 0.93444 0.0
C1254 C 0.15788 0.59039 0.82768 0.0
C1255 C 0.19423 0.60246 0.87422 0.0
C1256 C 0.13706 0.59653 0.8034 0.0
C1257 C 0.13136 0.62061 0.79548 0.0
C1258 C 0.17316 0.60844 0.84448 0.0
C1259 C 0.14762 0.6381 0.81101 0.0
C1260 C 0.20953 0.62025 0.89211 0.0
C1261 C 0.21644 0.57264 0.91547 0.0
N1262 N 0.16768 0.63168 0.83513 0.0
N1263 N 0.19828 0.57928 0.88642 0.0
loop_
_geom_bond_atom_site_label_1
_geom_bond_atom_site_label_2
_geom_bond_distance
_geom_bond_site_symmetry_2
_ccdc_geom_bond_type
Co0 O3 1.970 . S
Co0 N17 1.989 1_554 S
Co0 O25 1.967 . S
Co0 O32 1.920 . S
Co1 O4 1.966 . S
Co1 N10 2.022 . S
Co1 N18 1.993 1_554 S
Co1 O26 1.941 . S
C2 O3 1.258 . S
C2 O4 1.263 . S
O3 Co0 1.970 . S
O3 C2 1.258 . S
O4 Co1 1.966 . S
O4 C2 1.263 . S
C5 O6 1.235 1_554 S
C5 O32 1.289 . S
O6 C5 1.235 1_556 S
C7 C9 1.400 . S
C7 N10 1.351 1_556 S
C7 C12 1.501 . S
C8 C9 1.387 . S
C8 N11 1.341 . S
C9 C7 1.400 . S
C9 C8 1.387 . S
N10 Co1 2.022 . S
N10 C7 1.351 1_554 S
N10 N11 1.365 1_554 S
N11 C8 1.341 . S
N11 N10 1.365 1_556 S
N11 H31 0.862 1_556 S
C12 C7 1.501 . S
C12 H13 0.961 1_556 S
C12 H14 0.961 . S
C12 H15 0.960 1_556 S
H13 C12 0.961 1_554 S
H14 C12 0.961 . S
H15 C12 0.960 1_554 S
C16 N17 1.342 . S
C16 C20 1.401 . S
C16 C21 1.499 . S
N17 Co0 1.989 1_556 S
N17 C16 1.342 . S
N17 N18 1.388 . S
N18 Co1 1.993 1_556 S
N18 N17 1.388 . S
N18 C19 1.346 . S
C19 N18 1.346 . S
C19 C20 1.396 . S
C19 C29 1.510 . S
C20 C16 1.401 . S
C20 C19 1.396 . S
C21 C16 1.499 . S
C21 H22 0.959 . S
C21 H23 0.960 . S
C21 H24 0.961 1_545 S
H22 C21 0.959 . S
H23 C21 0.960 . S
H24 C21 0.961 1_565 S
O25 Co0 1.967 . S
O25 C33 1.258 . S
O26 Co1 1.941 . S
O26 C33 1.266 . S
H27 C29 0.959 . S
H28 C29 0.961 . S
C29 C19 1.510 . S
C29 H27 0.959 . S
C29 H28 0.961 . S
C29 H30 0.960 . S
H30 C29 0.960 . S
H31 N11 0.862 1_554 S
O32 Co0 1.920 . S
O32 C5 1.289 . S
C33 O25 1.258 . S
C33 O26 1.266 . S
Co34 O37 1.970 . S
Co34 N51 1.989 . S
Co34 O59 1.967 . S
Co34 O66 1.920 . S
Co35 O38 1.966 . S
Co35 N44 2.022 . S
Co35 N52 1.993 . S
Co35 O60 1.941 . S
C36 O37 1.258 . S
C36 O38 1.263 . S
O37 Co34 1.970 . S
O37 C36 1.258 . S
O38 Co35 1.966 . S
O38 C36 1.263 . S
C39 O40 1.235 . S
C39 O66 1.289 . S
O40 C39 1.235 . S
C41 C43 1.400 . S
C41 N44 1.351 . S
C41 C46 1.501 . S
C42 C43 1.387 . S
C42 N45 1.341 . S
C43 C41 1.400 . S
C43 C42 1.387 . S
N44 Co35 2.022 . S
N44 C41 1.351 . S
N44 N45 1.365 . S
N45 C42 1.341 . S
N45 N44 1.365 . S
N45 H65 0.862 . S
C46 C41 1.501 . S
C46 H47 0.961 . S
C46 H48 0.961 . S
C46 H49 0.960 . S
H47 C46 0.961 . S
H48 C46 0.961 . S
H49 C46 0.960 . S
C50 N51 1.342 . S
C50 C54 1.401 . S
C50 C55 1.499 . S
N51 Co34 1.989 . S
N51 C50 1.342 . S
N51 N52 1.388 . S
N52 Co35 1.993 . S
N52 N51 1.388 . S
N52 C53 1.346 . S
C53 N52 1.346 . S
C53 C54 1.396 . S
C53 C63 1.510 . S
C54 C50 1.401 . S
C54 C53 1.396 . S
C55 C50 1.499 . S
C55 H56 0.959 . S
C55 H57 0.960 . S
C55 H58 0.961 1_655 S
H56 C55 0.959 . S
H57 C55 0.960 . S
H58 C55 0.961 1_455 S
O59 Co34 1.967 . S
O59 C67 1.258 . S
O60 Co35 1.941 . S
O60 C67 1.266 . S
H61 C63 0.959 . S
H62 C63 0.961 . S
C63 C53 1.510 . S
C63 H61 0.959 . S
C63 H62 0.961 . S
C63 H64 0.960 . S
H64 C63 0.960 . S
H65 N45 0.862 . S
O66 Co34 1.920 . S
O66 C39 1.289 . S
C67 O59 1.258 . S
C67 O60 1.266 . S
Co68 O71 1.970 . S
Co68 N85 1.989 . S
Co68 O93 1.967 . S
Co68 O100 1.920 . S
Co69 O72 1.966 . S
Co69 N78 2.022 . S
Co69 N86 1.993 . S
Co69 O94 1.941 . S
C70 O71 1.258 . S
C70 O72 1.263 . S
O71 Co68 1.970 . S
O71 C70 1.258 . S
O72 Co69 1.966 . S
O72 C70 1.263 . S
C73 O74 1.235 . S
C73 O100 1.289 . S
O74 C73 1.235 . S
C75 C77 1.400 . S
C75 N78 1.351 . S
C75 C80 1.501 . S
C76 C77 1.387 . S
C76 N79 1.341 . S
C77 C75 1.400 . S
C77 C76 1.387 . S
N78 Co69 2.022 . S
N78 C75 1.351 . S
N78 N79 1.365 . S
N79 C76 1.341 . S
N79 N78 1.365 . S
N79 H99 0.862 . S
C80 C75 1.501 . S
C80 H81 0.961 . S
C80 H82 0.961 . S
C80 H83 0.960 . S
H81 C80 0.961 . S
H82 C80 0.961 . S
H83 C80 0.960 . S
C84 N85 1.342 . S
C84 C88 1.401 . S
C84 C89 1.499 . S
N85 Co68 1.989 . S
N85 C84 1.342 . S
N85 N86 1.388 . S
N86 Co69 1.993 . S
N86 N85 1.388 . S
N86 C87 1.346 . S
C87 N86 1.346 . S
C87 C88 1.396 . S
C87 C97 1.510 . S
C88 C84 1.401 . S
C88 C87 1.396 . S
C89 C84 1.499 . S
C89 H90 0.959 . S
C89 H91 0.960 . S
C89 H92 0.961 . S
H90 C89 0.959 . S
H91 C89 0.960 . S
H92 C89 0.961 . S
O93 Co68 1.967 . S
O93 C101 1.258 . S
O94 Co69 1.941 . S
O94 C101 1.266 . S
H95 C97 0.959 . S
H96 C97 0.961 . S
C97 C87 1.510 . S
C97 H95 0.959 . S
C97 H96 0.961 . S
C97 H98 0.960 . S
H98 C97 0.960 . S
H99 N79 0.862 . S
O100 Co68 1.920 . S
O100 C73 1.289 . S
C101 O93 1.258 . S
C101 O94 1.266 . S
Co102 O105 1.970 . S
Co102 N119 1.989 . S
Co102 O127 1.967 . S
Co102 O134 1.920 . S
Co103 O106 1.966 . S
Co103 N112 2.022 . S
Co103 N120 1.993 . S
Co103 O128 1.941 . S
C104 O105 1.258 . S
C104 O106 1.263 . S
O105 Co102 1.970 . S
O105 C104 1.258 . S
O106 Co103 1.966 . S
O106 C104 1.263 . S
C107 O108 1.235 . S
C107 O134 1.289 . S
O108 C107 1.235 . S
C109 C111 1.400 . S
C109 N112 1.351 . S
C109 C114 1.501 . S
C110 C111 1.387 . S
C110 N113 1.341 . S
C111 C109 1.400 . S
C111 C110 1.387 . S
N112 Co103 2.022 . S
N112 C109 1.351 . S
N112 N113 1.365 . S
N113 C110 1.341 . S
N113 N112 1.365 . S
N113 H133 0.862 . S
C114 C109 1.501 . S
C114 H115 0.961 . S
C114 H116 0.961 . S
C114 H117 0.960 . S
H115 C114 0.961 . S
H116 C114 0.961 . S
H117 C114 0.960 . S
C118 N119 1.342 . S
C118 C122 1.401 . S
C118 C123 1.499 . S
N119 Co102 1.989 . S
N119 C118 1.342 . S
N119 N120 1.388 . S
N120 Co103 1.993 . S
N120 N119 1.388 . S
N120 C121 1.346 . S
C121 N120 1.346 . S
C121 C122 1.396 . S
C121 C131 1.510 . S
C122 C118 1.401 . S
C122 C121 1.396 . S
C123 C118 1.499 . S
C123 H124 0.959 . S
C123 H125 0.960 . S
C123 H126 0.961 . S
H124 C123 0.959 . S
H125 C123 0.960 . S
H126 C123 0.961 . S
O127 Co102 1.967 . S
O127 C135 1.258 . S
O128 Co103 1.941 . S
O128 C135 1.266 . S
H129 C131 0.959 . S
H130 C131 0.961 . S
C131 C121 1.510 . S
C131 H129 0.959 . S
C131 H130 0.961 . S
C131 H132 0.960 . S
H132 C131 0.960 . S
H133 N113 0.862 . S
O134 Co102 1.920 . S
O134 C107 1.289 . S
C135 O127 1.258 . S
C135 O128 1.266 . S
Co136 O139 1.970 . S
Co136 N153 1.989 . S
Co136 O161 1.967 . S
Co136 O168 1.920 . S
Co137 O140 1.966 . S
Co137 N146 2.022 . S
Co137 N154 1.993 . S
Co137 O162 1.941 . S
C138 O139 1.258 . S
C138 O140 1.263 . S
O139 Co136 1.970 . S
O139 C138 1.258 . S
O140 Co137 1.966 . S
O140 C138 1.263 . S
C141 O142 1.235 . S
C141 O168 1.289 . S
O142 C141 1.235 . S
C143 C145 1.400 . S
C143 N146 1.351 . S
C143 C148 1.501 . S
C144 C145 1.387 . S
C144 N147 1.341 . S
C145 C143 1.400 . S
C145 C144 1.387 . S
N146 Co137 2.022 . S
N146 C143 1.351 . S
N146 N147 1.365 . S
N147 C144 1.341 . S
N147 N146 1.365 . S
N147 H167 0.862 . S
C148 C143 1.501 . S
C148 H149 0.961 . S
C148 H150 0.961 . S
C148 H151 0.960 . S
H149 C148 0.961 . S
H150 C148 0.961 . S
H151 C148 0.960 . S
C152 N153 1.342 . S
C152 C156 1.401 . S
C152 C157 1.499 . S
N153 Co136 1.989 . S
N153 C152 1.342 . S
N153 N154 1.388 . S
N154 Co137 1.993 . S
N154 N153 1.388 . S
N154 C155 1.346 . S
C155 N154 1.346 . S
C155 C156 1.396 . S
C155 C165 1.510 . S
C156 C152 1.401 . S
C156 C155 1.396 . S
C157 C152 1.499 . S
C157 H158 0.959 . S
C157 H159 0.960 . S
C157 H160 0.961 1_545 S
H158 C157 0.959 . S
H159 C157 0.960 . S
H160 C157 0.961 1_565 S
O161 Co136 1.967 . S
O161 C169 1.258 . S
O162 Co137 1.941 . S
O162 C169 1.266 . S
H163 C165 0.959 . S
H164 C165 0.961 . S
C165 C155 1.510 . S
C165 H163 0.959 . S
C165 H164 0.961 . S
C165 H166 0.960 . S
H166 C165 0.960 . S
H167 N147 0.862 . S
O168 Co136 1.920 . S
O168 C141 1.289 . S
C169 O161 1.258 . S
C169 O162 1.266 . S
Co170 O173 1.970 . S
Co170 N187 1.989 . S
Co170 O195 1.967 . S
Co170 O202 1.920 . S
Co171 O174 1.966 . S
Co171 N180 2.022 . S
Co171 N188 1.993 . S
Co171 O196 1.941 . S
C172 O173 1.258 . S
C172 O174 1.263 . S
O173 Co170 1.970 . S
O173 C172 1.258 . S
O174 Co171 1.966 . S
O174 C172 1.263 . S
C175 O176 1.235 . S
C175 O202 1.289 . S
O176 C175 1.235 . S
C177 C179 1.400 . S
C177 N180 1.351 . S
C177 C182 1.501 . S
C178 C179 1.387 . S
C178 N181 1.341 . S
C179 C177 1.400 . S
C179 C178 1.387 . S
N180 Co171 2.022 . S
N180 C177 1.351 . S
N180 N181 1.365 . S
N181 C178 1.341 . S
N181 N180 1.365 . S
N181 H201 0.862 . S
C182 C177 1.501 . S
C182 H183 0.961 . S
C182 H184 0.961 . S
C182 H185 0.960 . S
H183 C182 0.961 . S
H184 C182 0.961 . S
H185 C182 0.960 . S
C186 N187 1.342 . S
C186 C190 1.401 . S
C186 C191 1.499 . S
N187 Co170 1.989 . S
N187 C186 1.342 . S
N187 N188 1.388 . S
N188 Co171 1.993 . S
N188 N187 1.388 . S
N188 C189 1.346 . S
C189 N188 1.346 . S
C189 C190 1.396 . S
C189 C199 1.510 . S
C190 C186 1.401 . S
C190 C189 1.396 . S
C191 C186 1.499 . S
C191 H192 0.959 . S
C191 H193 0.960 . S
C191 H194 0.961 1_655 S
H192 C191 0.959 . S
H193 C191 0.960 . S
H194 C191 0.961 1_455 S
O195 Co170 1.967 . S
O195 C203 1.258 . S
O196 Co171 1.941 . S
O196 C203 1.266 . S
H197 C199 0.959 . S
H198 C199 0.961 . S
C199 C189 1.510 . S
C199 H197 0.959 . S
C199 H198 0.961 . S
C199 H200 0.960 . S
H200 C199 0.960 . S
H201 N181 0.862 . S
O202 Co170 1.920 . S
O202 C175 1.289 . S
C203 O195 1.258 . S
C203 O196 1.266 . S
Co204 O207 1.970 . S
Co204 N221 1.989 1_554 S
Co204 O229 1.967 . S
Co204 O236 1.920 . S
Co205 O208 1.966 . S
Co205 N214 2.022 . S
Co205 N222 1.993 1_554 S
Co205 O230 1.941 . S
C206 O207 1.258 . S
C206 O208 1.263 . S
O207 Co204 1.970 . S
O207 C206 1.258 . S
O208 Co205 1.966 . S
O208 C206 1.263 . S
C209 O210 1.235 1_554 S
C209 O236 1.289 . S
O210 C209 1.235 1_556 S
C211 C213 1.400 . S
C211 N214 1.351 1_556 S
C211 C216 1.501 . S
C212 C213 1.387 . S
C212 N215 1.341 . S
C213 C211 1.400 . S
C213 C212 1.387 . S
N214 Co205 2.022 . S
N214 C211 1.351 1_554 S
N214 N215 1.365 1_554 S
N215 C212 1.341 . S
N215 N214 1.365 1_556 S
N215 H235 0.862 1_556 S
C216 C211 1.501 . S
C216 H217 0.961 1_556 S
C216 H218 0.961 . S
C216 H219 0.960 1_556 S
H217 C216 0.961 1_554 S
H218 C216 0.961 . S
H219 C216 0.960 1_554 S
C220 N221 1.342 . S
C220 C224 1.401 . S
C220 C225 1.499 . S
N221 Co204 1.989 1_556 S
N221 C220 1.342 . S
N221 N222 1.388 . S
N222 Co205 1.993 1_556 S
N222 N221 1.388 . S
N222 C223 1.346 . S
C223 N222 1.346 . S
C223 C224 1.396 . S
C223 C233 1.510 . S
C224 C220 1.401 . S
C224 C223 1.396 . S
C225 C220 1.499 . S
C225 H226 0.959 . S
C225 H227 0.960 . S
C225 H228 0.961 . S
H226 C225 0.959 . S
H227 C225 0.960 . S
H228 C225 0.961 . S
O229 Co204 1.967 . S
O229 C237 1.258 . S
O230 Co205 1.941 . S
O230 C237 1.266 . S
H231 C233 0.959 . S
H232 C233 0.961 . S
C233 C223 1.510 . S
C233 H231 0.959 . S
C233 H232 0.961 . S
C233 H234 0.960 . S
H234 C233 0.960 . S
H235 N215 0.862 1_554 S
O236 Co204 1.920 . S
O236 C209 1.289 . S
C237 O229 1.258 . S
C237 O230 1.266 . S
Co238 O241 1.970 . S
Co238 N255 1.989 . S
Co238 O263 1.967 . S
Co238 O270 1.920 . S
Co239 O242 1.966 . S
Co239 N248 2.022 . S
Co239 N256 1.993 . S
Co239 O264 1.941 . S
C240 O241 1.258 . S
C240 O242 1.263 . S
O241 Co238 1.970 . S
O241 C240 1.258 . S
O242 Co239 1.966 . S
O242 C240 1.263 . S
C243 O244 1.235 . S
C243 O270 1.289 . S
O244 C243 1.235 . S
C245 C247 1.400 . S
C245 N248 1.351 . S
C245 C250 1.501 . S
C246 C247 1.387 . S
C246 N249 1.341 . S
C247 C245 1.400 . S
C247 C246 1.387 . S
N248 Co239 2.022 . S
N248 C245 1.351 . S
N248 N249 1.365 . S
N249 C246 1.341 . S
N249 N248 1.365 . S
N249 H269 0.862 . S
C250 C245 1.501 . S
C250 H251 0.961 . S
C250 H252 0.961 . S
C250 H253 0.960 . S
H251 C250 0.961 . S
H252 C250 0.961 . S
H253 C250 0.960 . S
C254 N255 1.342 . S
C254 C258 1.401 . S
C254 C259 1.499 . S
N255 Co238 1.989 . S
N255 C254 1.342 . S
N255 N256 1.388 . S
N256 Co239 1.993 . S
N256 N255 1.388 . S
N256 C257 1.346 . S
C257 N256 1.346 . S
C257 C258 1.396 . S
C257 C267 1.510 . S
C258 C254 1.401 . S
C258 C257 1.396 . S
C259 C254 1.499 . S
C259 H260 0.959 . S
C259 H261 0.960 . S
C259 H262 0.961 . S
H260 C259 0.959 . S
H261 C259 0.960 . S
H262 C259 0.961 . S
O263 Co238 1.967 . S
O263 C271 1.258 . S
O264 Co239 1.941 . S
O264 C271 1.266 . S
H265 C267 0.959 . S
H266 C267 0.961 . S
C267 C257 1.510 . S
C267 H265 0.959 . S
C267 H266 0.961 . S
C267 H268 0.960 . S
H268 C267 0.960 . S
H269 N249 0.862 . S
O270 Co238 1.920 . S
O270 C243 1.289 . S
C271 O263 1.258 . S
C271 O264 1.266 . S
Co272 O275 1.970 . S
Co272 N289 1.989 . S
Co272 O297 1.967 . S
Co272 O304 1.920 . S
Co273 O276 1.966 . S
Co273 N282 2.022 . S
Co273 N290 1.993 . S
Co273 O298 1.941 . S
C274 O275 1.258 . S
C274 O276 1.263 . S
O275 Co272 1.970 . S
O275 C274 1.258 . S
O276 Co273 1.966 . S
O276 C274 1.263 . S
C277 O278 1.235 . S
C277 O304 1.289 . S
O278 C277 1.235 . S
C279 C281 1.400 . S
C279 N282 1.351 . S
C279 C284 1.501 . S
C280 C281 1.387 . S
C280 N283 1.341 . S
C281 C279 1.400 . S
C281 C280 1.387 . S
N282 Co273 2.022 . S
N282 C279 1.351 . S
N282 N283 1.365 . S
N283 C280 1.341 . S
N283 N282 1.365 . S
N283 H303 0.862 . S
C284 C279 1.501 . S
C284 H285 0.961 . S
C284 H286 0.961 . S
C284 H287 0.960 . S
H285 C284 0.961 . S
H286 C284 0.961 . S
H287 C284 0.960 . S
C288 N289 1.342 . S
C288 C292 1.401 . S
C288 C293 1.499 . S
N289 Co272 1.989 . S
N289 C288 1.342 . S
N289 N290 1.388 . S
N290 Co273 1.993 . S
N290 N289 1.388 . S
N290 C291 1.346 . S
C291 N290 1.346 . S
C291 C292 1.396 . S
C291 C301 1.510 . S
C292 C288 1.401 . S
C292 C291 1.396 . S
C293 C288 1.499 . S
C293 H294 0.959 . S
C293 H295 0.960 . S
C293 H296 0.961 . S
H294 C293 0.959 . S
H295 C293 0.960 . S
H296 C293 0.961 . S
O297 Co272 1.967 . S
O297 C305 1.258 . S
O298 Co273 1.941 . S
O298 C305 1.266 . S
H299 C301 0.959 . S
H300 C301 0.961 . S
C301 C291 1.510 . S
C301 H299 0.959 . S
C301 H300 0.961 . S
C301 H302 0.960 . S
H302 C301 0.960 . S
H303 N283 0.862 . S
O304 Co272 1.920 . S
O304 C277 1.289 . S
C305 O297 1.258 . S
C305 O298 1.266 . S
Co306 O309 1.970 . S
Co306 N323 1.989 . S
Co306 O331 1.967 . S
Co306 O338 1.920 . S
Co307 O310 1.966 . S
Co307 N316 2.022 . S
Co307 N324 1.993 . S
Co307 O332 1.941 . S
C308 O309 1.258 . S
C308 O310 1.263 . S
O309 Co306 1.970 . S
O309 C308 1.258 . S
O310 Co307 1.966 . S
O310 C308 1.263 . S
C311 O312 1.235 . S
C311 O338 1.289 . S
O312 C311 1.235 . S
C313 C315 1.400 . S
C313 N316 1.351 . S
C313 C318 1.501 . S
C314 C315 1.387 . S
C314 N317 1.341 . S
C315 C313 1.400 . S
C315 C314 1.387 . S
N316 Co307 2.022 . S
N316 C313 1.351 . S
N316 N317 1.365 . S
N317 C314 1.341 . S
N317 N316 1.365 . S
N317 H337 0.862 . S
C318 C313 1.501 . S
C318 H319 0.961 . S
C318 H320 0.961 . S
C318 H321 0.960 . S
H319 C318 0.961 . S
H320 C318 0.961 . S
H321 C318 0.960 . S
C322 N323 1.342 . S
C322 C326 1.401 . S
C322 C327 1.499 . S
N323 Co306 1.989 . S
N323 C322 1.342 . S
N323 N324 1.388 . S
N324 Co307 1.993 . S
N324 N323 1.388 . S
N324 C325 1.346 . S
C325 N324 1.346 . S
C325 C326 1.396 . S
C325 C335 1.510 . S
C326 C322 1.401 . S
C326 C325 1.396 . S
C327 C322 1.499 . S
C327 H328 0.959 . S
C327 H329 0.960 . S
C327 H330 0.961 . S
H328 C327 0.959 . S
H329 C327 0.960 . S
H330 C327 0.961 . S
O331 Co306 1.967 . S
O331 C339 1.258 . S
O332 Co307 1.941 . S
O332 C339 1.266 . S
H333 C335 0.959 . S
H334 C335 0.961 . S
C335 C325 1.510 . S
C335 H333 0.959 . S
C335 H334 0.961 . S
C335 H336 0.960 . S
H336 C335 0.960 . S
H337 N317 0.862 . S
O338 Co306 1.920 . S
O338 C311 1.289 . S
C339 O331 1.258 . S
C339 O332 1.266 . S
Co340 O343 1.970 . S
Co340 N357 1.989 1_554 S
Co340 O365 1.967 . S
Co340 O372 1.920 . S
Co341 O344 1.966 . S
Co341 N350 2.022 . S
Co341 N358 1.993 1_554 S
Co341 O366 1.941 . S
C342 O343 1.258 . S
C342 O344 1.263 . S
O343 Co340 1.970 . S
O343 C342 1.258 . S
O344 Co341 1.966 . S
O344 C342 1.263 . S
C345 O346 1.235 1_554 S
C345 O372 1.289 . S
O346 C345 1.235 1_556 S
C347 C349 1.400 . S
C347 N350 1.351 1_556 S
C347 C352 1.501 . S
C348 C349 1.387 . S
C348 N351 1.341 . S
C349 C347 1.400 . S
C349 C348 1.387 . S
N350 Co341 2.022 . S
N350 C347 1.351 1_554 S
N350 N351 1.365 1_554 S
N351 C348 1.341 . S
N351 N350 1.365 1_556 S
N351 H371 0.862 1_556 S
C352 C347 1.501 . S
C352 H353 0.961 1_556 S
C352 H354 0.961 . S
C352 H355 0.960 1_556 S
H353 C352 0.961 1_554 S
H354 C352 0.961 . S
H355 C352 0.960 1_554 S
C356 N357 1.342 . S
C356 C360 1.401 . S
C356 C361 1.499 . S
N357 Co340 1.989 1_556 S
N357 C356 1.342 . S
N357 N358 1.388 . S
N358 Co341 1.993 1_556 S
N358 N357 1.388 . S
N358 C359 1.346 . S
C359 N358 1.346 . S
C359 C360 1.396 . S
C359 C369 1.510 . S
C360 C356 1.401 . S
C360 C359 1.396 . S
C361 C356 1.499 . S
C361 H362 0.959 . S
C361 H363 0.960 . S
C361 H364 0.961 1_565 S
H362 C361 0.959 . S
H363 C361 0.960 . S
H364 C361 0.961 1_545 S
O365 Co340 1.967 . S
O365 C373 1.258 . S
O366 Co341 1.941 . S
O366 C373 1.266 . S
H367 C369 0.959 . S
H368 C369 0.961 . S
C369 C359 1.510 . S
C369 H367 0.959 . S
C369 H368 0.961 . S
C369 H370 0.960 . S
H370 C369 0.960 . S
H371 N351 0.862 1_554 S
O372 Co340 1.920 . S
O372 C345 1.289 . S
C373 O365 1.258 . S
C373 O366 1.266 . S
Co374 O377 1.970 . S
Co374 N391 1.989 . S
Co374 O399 1.967 . S
Co374 O406 1.920 . S
Co375 O378 1.966 . S
Co375 N384 2.022 . S
Co375 N392 1.993 . S
Co375 O400 1.941 . S
C376 O377 1.258 . S
C376 O378 1.263 . S
O377 Co374 1.970 . S
O377 C376 1.258 . S
O378 Co375 1.966 . S
O378 C376 1.263 . S
C379 O380 1.235 . S
C379 O406 1.289 . S
O380 C379 1.235 . S
C381 C383 1.400 . S
C381 N384 1.351 . S
C381 C386 1.501 . S
C382 C383 1.387 . S
C382 N385 1.341 . S
C383 C381 1.400 . S
C383 C382 1.387 . S
N384 Co375 2.022 . S
N384 C381 1.351 . S
N384 N385 1.365 . S
N385 C382 1.341 . S
N385 N384 1.365 . S
N385 H405 0.862 . S
C386 C381 1.501 . S
C386 H387 0.961 . S
C386 H388 0.961 . S
C386 H389 0.960 . S
H387 C386 0.961 . S
H388 C386 0.961 . S
H389 C386 0.960 . S
C390 N391 1.342 . S
C390 C394 1.401 . S
C390 C395 1.499 . S
N391 Co374 1.989 . S
N391 C390 1.342 . S
N391 N392 1.388 . S
N392 Co375 1.993 . S
N392 N391 1.388 . S
N392 C393 1.346 . S
C393 N392 1.346 . S
C393 C394 1.396 . S
C393 C403 1.510 . S
C394 C390 1.401 . S
C394 C393 1.396 . S
C395 C390 1.499 . S
C395 H396 0.959 . S
C395 H397 0.960 . S
C395 H398 0.961 1_455 S
H396 C395 0.959 . S
H397 C395 0.960 . S
H398 C395 0.961 1_655 S
O399 Co374 1.967 . S
O399 C407 1.258 . S
O400 Co375 1.941 . S
O400 C407 1.266 . S
H401 C403 0.959 . S
H402 C403 0.961 . S
C403 C393 1.510 . S
C403 H401 0.959 . S
C403 H402 0.961 . S
C403 H404 0.960 . S
H404 C403 0.960 . S
H405 N385 0.862 . S
O406 Co374 1.920 . S
O406 C379 1.289 . S
C407 O399 1.258 . S
C407 O400 1.266 . S
Co408 O411 1.970 . S
Co408 N425 1.989 1_554 S
Co408 O433 1.967 . S
Co408 O440 1.920 . S
Co409 O412 1.966 . S
Co409 N418 2.022 . S
Co409 N426 1.993 1_554 S
Co409 O434 1.941 . S
C410 O411 1.258 . S
C410 O412 1.263 . S
O411 Co408 1.970 . S
O411 C410 1.258 . S
O412 Co409 1.966 . S
O412 C410 1.263 . S
C413 O414 1.235 1_554 S
C413 O440 1.289 . S
O414 C413 1.235 1_556 S
C415 C417 1.400 . S
C415 N418 1.351 1_556 S
C415 C420 1.501 . S
C416 C417 1.387 . S
C416 N419 1.341 . S
C417 C415 1.400 . S
C417 C416 1.387 . S
N418 Co409 2.022 . S
N418 C415 1.351 1_554 S
N418 N419 1.365 1_554 S
N419 C416 1.341 . S
N419 N418 1.365 1_556 S
N419 H439 0.862 1_556 S
C420 C415 1.501 . S
C420 H421 0.961 1_556 S
C420 H422 0.961 . S
C420 H423 0.960 1_556 S
H421 C420 0.961 1_554 S
H422 C420 0.961 . S
H423 C420 0.960 1_554 S
C424 N425 1.342 . S
C424 C428 1.401 . S
C424 C429 1.499 . S
N425 Co408 1.989 1_556 S
N425 C424 1.342 . S
N425 N426 1.388 . S
N426 Co409 1.993 1_556 S
N426 N425 1.388 . S
N426 C427 1.346 . S
C427 N426 1.346 . S
C427 C428 1.396 . S
C427 C437 1.510 . S
C428 C424 1.401 . S
C428 C427 1.396 . S
C429 C424 1.499 . S
C429 H430 0.959 . S
C429 H431 0.960 . S
C429 H432 0.961 . S
H430 C429 0.959 . S
H431 C429 0.960 . S
H432 C429 0.961 . S
O433 Co408 1.967 . S
O433 C441 1.258 . S
O434 Co409 1.941 . S
O434 C441 1.266 . S
H435 C437 0.959 . S
H436 C437 0.961 . S
C437 C427 1.510 . S
C437 H435 0.959 . S
C437 H436 0.961 . S
C437 H438 0.960 . S
H438 C437 0.960 . S
H439 N419 0.862 1_554 S
O440 Co408 1.920 . S
O440 C413 1.289 . S
C441 O433 1.258 . S
C441 O434 1.266 . S
Co442 O445 1.970 . S
Co442 N459 1.989 . S
Co442 O467 1.967 . S
Co442 O474 1.920 . S
Co443 O446 1.966 . S
Co443 N452 2.022 . S
Co443 N460 1.993 . S
Co443 O468 1.941 . S
C444 O445 1.258 . S
C444 O446 1.263 . S
O445 Co442 1.970 . S
O445 C444 1.258 . S
O446 Co443 1.966 . S
O446 C444 1.263 . S
C447 O448 1.235 . S
C447 O474 1.289 . S
O448 C447 1.235 . S
C449 C451 1.400 . S
C449 N452 1.351 . S
C449 C454 1.501 . S
C450 C451 1.387 . S
C450 N453 1.341 . S
C451 C449 1.400 . S
C451 C450 1.387 . S
N452 Co443 2.022 . S
N452 C449 1.351 . S
N452 N453 1.365 . S
N453 C450 1.341 . S
N453 N452 1.365 . S
N453 H473 0.862 . S
C454 C449 1.501 . S
C454 H455 0.961 . S
C454 H456 0.961 . S
C454 H457 0.960 . S
H455 C454 0.961 . S
H456 C454 0.961 . S
H457 C454 0.960 . S
C458 N459 1.342 . S
C458 C462 1.401 . S
C458 C463 1.499 . S
N459 Co442 1.989 . S
N459 C458 1.342 . S
N459 N460 1.388 . S
N460 Co443 1.993 . S
N460 N459 1.388 . S
N460 C461 1.346 . S
C461 N460 1.346 . S
C461 C462 1.396 . S
C461 C471 1.510 . S
C462 C458 1.401 . S
C462 C461 1.396 . S
C463 C458 1.499 . S
C463 H464 0.959 . S
C463 H465 0.960 . S
C463 H466 0.961 . S
H464 C463 0.959 . S
H465 C463 0.960 . S
H466 C463 0.961 . S
O467 Co442 1.967 . S
O467 C475 1.258 . S
O468 Co443 1.941 . S
O468 C475 1.266 . S
H469 C471 0.959 . S
H470 C471 0.961 . S
C471 C461 1.510 . S
C471 H469 0.959 . S
C471 H470 0.961 . S
C471 H472 0.960 . S
H472 C471 0.960 . S
H473 N453 0.862 . S
O474 Co442 1.920 . S
O474 C447 1.289 . S
C475 O467 1.258 . S
C475 O468 1.266 . S
Co476 O479 1.970 . S
Co476 N493 1.989 . S
Co476 O501 1.967 . S
Co476 O508 1.920 . S
Co477 O480 1.966 . S
Co477 N486 2.022 . S
Co477 N494 1.993 . S
Co477 O502 1.941 . S
C478 O479 1.258 . S
C478 O480 1.263 . S
O479 Co476 1.970 . S
O479 C478 1.258 . S
O480 Co477 1.966 . S
O480 C478 1.263 . S
C481 O482 1.235 . S
C481 O508 1.289 . S
O482 C481 1.235 . S
C483 C485 1.400 . S
C483 N486 1.351 . S
C483 C488 1.501 . S
C484 C485 1.387 . S
C484 N487 1.341 . S
C485 C483 1.400 . S
C485 C484 1.387 . S
N486 Co477 2.022 . S
N486 C483 1.351 . S
N486 N487 1.365 . S
N487 C484 1.341 . S
N487 N486 1.365 . S
N487 H507 0.862 . S
C488 C483 1.501 . S
C488 H489 0.961 . S
C488 H490 0.961 . S
C488 H491 0.960 . S
H489 C488 0.961 . S
H490 C488 0.961 . S
H491 C488 0.960 . S
C492 N493 1.342 . S
C492 C496 1.401 . S
C492 C497 1.499 . S
N493 Co476 1.989 . S
N493 C492 1.342 . S
N493 N494 1.388 . S
N494 Co477 1.993 . S
N494 N493 1.388 . S
N494 C495 1.346 . S
C495 N494 1.346 . S
C495 C496 1.396 . S
C495 C505 1.510 . S
C496 C492 1.401 . S
C496 C495 1.396 . S
C497 C492 1.499 . S
C497 H498 0.959 . S
C497 H499 0.960 . S
C497 H500 0.961 1_565 S
H498 C497 0.959 . S
H499 C497 0.960 . S
H500 C497 0.961 1_545 S
O501 Co476 1.967 . S
O501 C509 1.258 . S
O502 Co477 1.941 . S
O502 C509 1.266 . S
H503 C505 0.959 . S
H504 C505 0.961 . S
C505 C495 1.510 . S
C505 H503 0.959 . S
C505 H504 0.961 . S
C505 H506 0.960 . S
H506 C505 0.960 . S
H507 N487 0.862 . S
O508 Co476 1.920 . S
O508 C481 1.289 . S
C509 O501 1.258 . S
C509 O502 1.266 . S
Co510 O513 1.970 . S
Co510 N527 1.989 . S
Co510 O535 1.967 . S
Co510 O542 1.920 . S
Co511 O514 1.966 . S
Co511 N520 2.022 . S
Co511 N528 1.993 . S
Co511 O536 1.941 . S
C512 O513 1.258 . S
C512 O514 1.263 . S
O513 Co510 1.970 . S
O513 C512 1.258 . S
O514 Co511 1.966 . S
O514 C512 1.263 . S
C515 O516 1.235 . S
C515 O542 1.289 . S
O516 C515 1.235 . S
C517 C519 1.400 . S
C517 N520 1.351 . S
C517 C522 1.501 . S
C518 C519 1.387 . S
C518 N521 1.341 . S
C519 C517 1.400 . S
C519 C518 1.387 . S
N520 Co511 2.022 . S
N520 C517 1.351 . S
N520 N521 1.365 . S
N521 C518 1.341 . S
N521 N520 1.365 . S
N521 H541 0.862 . S
C522 C517 1.501 . S
C522 H523 0.961 . S
C522 H524 0.961 . S
C522 H525 0.960 . S
H523 C522 0.961 . S
H524 C522 0.961 . S
H525 C522 0.960 . S
C526 N527 1.342 . S
C526 C530 1.401 . S
C526 C531 1.499 . S
N527 Co510 1.989 . S
N527 C526 1.342 . S
N527 N528 1.388 . S
N528 Co511 1.993 . S
N528 N527 1.388 . S
N528 C529 1.346 . S
C529 N528 1.346 . S
C529 C530 1.396 . S
C529 C539 1.510 . S
C530 C526 1.401 . S
C530 C529 1.396 . S
C531 C526 1.499 . S
C531 H532 0.959 . S
C531 H533 0.960 . S
C531 H534 0.961 1_455 S
H532 C531 0.959 . S
H533 C531 0.960 . S
H534 C531 0.961 1_655 S
O535 Co510 1.967 . S
O535 C543 1.258 . S
O536 Co511 1.941 . S
O536 C543 1.266 . S
H537 C539 0.959 . S
H538 C539 0.961 . S
C539 C529 1.510 . S
C539 H537 0.959 . S
C539 H538 0.961 . S
C539 H540 0.960 . S
H540 C539 0.960 . S
H541 N521 0.862 . S
O542 Co510 1.920 . S
O542 C515 1.289 . S
C543 O535 1.258 . S
C543 O536 1.266 . S
H544 C550 0.930 . S
H545 C554 0.930 . S
H546 C559 0.929 . S
H547 C557 0.929 . S
H548 C552 0.929 1_565 S
H549 C558 0.929 1_545 S
C550 H544 0.930 . S
C550 C551 1.367 1_556 S
C550 C558 1.378 . S
C551 C550 1.367 1_554 S
C551 C559 1.433 . S
C552 H548 0.929 1_545 S
C552 C554 1.378 . S
C552 C556 1.350 . S
C553 C556 1.463 1_665 S
C553 C558 1.350 1_554 S
C553 N561 1.427 . S
C554 H545 0.930 . S
C554 C552 1.378 . S
C554 C555 1.367 . S
C555 C554 1.367 . S
C555 C557 1.433 1_554 S
C556 C552 1.350 . S
C556 C553 1.463 1_445 S
C556 N560 1.427 1_554 S
C557 H547 0.929 . S
C557 C555 1.433 1_556 S
C557 N560 1.384 . S
C558 H549 0.929 1_565 S
C558 C550 1.378 . S
C558 C553 1.350 1_556 S
C559 H546 0.929 . S
C559 C551 1.433 . S
C559 N561 1.384 . S
N560 C556 1.427 1_556 S
N560 C557 1.384 . S
N561 C553 1.427 . S
N561 C559 1.384 . S
H562 C568 0.930 . S
H563 C572 0.930 . S
H564 C577 0.929 . S
H565 C575 0.929 . S
H566 C570 0.929 . S
H567 C576 0.929 . S
C568 H562 0.930 . S
C568 C569 1.367 . S
C568 C576 1.378 1_655 S
C569 C568 1.367 . S
C569 C577 1.433 . S
C570 H566 0.929 . S
C570 C572 1.378 1_655 S
C570 C574 1.350 1_655 S
C571 C574 1.463 1_655 S
C571 C576 1.350 1_655 S
C571 N579 1.427 . S
C572 H563 0.930 . S
C572 C570 1.378 1_455 S
C572 C573 1.367 . S
C573 C572 1.367 . S
C573 C575 1.433 . S
C574 C570 1.350 1_455 S
C574 C571 1.463 1_455 S
C574 N578 1.427 . S
C575 H565 0.929 . S
C575 C573 1.433 . S
C575 N578 1.384 . S
C576 H567 0.929 . S
C576 C568 1.378 1_455 S
C576 C571 1.350 1_455 S
C577 H564 0.929 . S
C577 C569 1.433 . S
C577 N579 1.384 . S
N578 C574 1.427 . S
N578 C575 1.384 . S
N579 C571 1.427 . S
N579 C577 1.384 . S
H580 C586 0.930 . S
H581 C590 0.930 . S
H582 C595 0.929 . S
H583 C593 0.929 . S
H584 C588 0.929 . S
H585 C594 0.929 . S
C586 H580 0.930 . S
C586 C587 1.367 . S
C586 C594 1.378 . S
C587 C586 1.367 . S
C587 C595 1.433 . S
C588 H584 0.929 . S
C588 C590 1.378 . S
C588 C592 1.350 . S
C589 C592 1.463 . S
C589 C594 1.350 . S
C589 N597 1.427 . S
C590 H581 0.930 . S
C590 C588 1.378 . S
C590 C591 1.367 . S
C591 C590 1.367 . S
C591 C593 1.433 . S
C592 C588 1.350 . S
C592 C589 1.463 . S
C592 N596 1.427 . S
C593 H583 0.929 . S
C593 C591 1.433 . S
C593 N596 1.384 . S
C594 H585 0.929 . S
C594 C586 1.378 . S
C594 C589 1.350 . S
C595 H582 0.929 . S
C595 C587 1.433 . S
C595 N597 1.384 . S
N596 C592 1.427 . S
N596 C593 1.384 . S
N597 C589 1.427 . S
N597 C595 1.384 . S
H598 C604 0.930 . S
H599 C608 0.930 . S
H600 C613 0.929 . S
H601 C611 0.929 . S
H602 C606 0.929 . S
H603 C612 0.929 . S
C604 H598 0.930 . S
C604 C605 1.367 . S
C604 C612 1.378 . S
C605 C604 1.367 . S
C605 C613 1.433 . S
C606 H602 0.929 . S
C606 C608 1.378 . S
C606 C610 1.350 . S
C607 C610 1.463 1_565 S
C607 C612 1.350 . S
C607 N615 1.427 . S
C608 H599 0.930 . S
C608 C606 1.378 . S
C608 C609 1.367 . S
C609 C608 1.367 . S
C609 C611 1.433 . S
C610 C606 1.350 . S
C610 C607 1.463 1_545 S
C610 N614 1.427 . S
C611 H601 0.929 . S
C611 C609 1.433 . S
C611 N614 1.384 . S
C612 H603 0.929 . S
C612 C604 1.378 . S
C612 C607 1.350 . S
C613 H600 0.929 . S
C613 C605 1.433 . S
C613 N615 1.384 . S
N614 C610 1.427 . S
N614 C611 1.384 . S
N615 C607 1.427 . S
N615 C613 1.384 . S
H616 C622 0.930 . S
H617 C626 0.930 . S
H618 C631 0.929 1_545 S
H619 C629 0.929 1_565 S
H620 C624 0.929 1_455 S
H621 C630 0.929 1_655 S
C622 H616 0.930 . S
C622 C623 1.367 . S
C622 C630 1.378 . S
C623 C622 1.367 . S
C623 C631 1.433 . S
C624 H620 0.929 1_655 S
C624 C626 1.378 . S
C624 C628 1.350 . S
C625 C628 1.463 1_465 S
C625 C630 1.350 . S
C625 N633 1.427 1_565 S
C626 H617 0.930 . S
C626 C624 1.378 . S
C626 C627 1.367 . S
C627 C626 1.367 . S
C627 C629 1.433 . S
C628 C624 1.350 . S
C628 C625 1.463 1_645 S
C628 N632 1.427 1_545 S
C629 H619 0.929 1_545 S
C629 C627 1.433 . S
C629 N632 1.384 1_545 S
C630 H621 0.929 1_455 S
C630 C622 1.378 . S
C630 C625 1.350 . S
C631 H618 0.929 1_565 S
C631 C623 1.433 . S
C631 N633 1.384 1_565 S
N632 C628 1.427 1_565 S
N632 C629 1.384 1_565 S
N633 C625 1.427 1_545 S
N633 C631 1.384 1_545 S
H634 C640 0.930 . S
H635 C644 0.930 . S
H636 C649 0.929 . S
H637 C647 0.929 . S
H638 C642 0.929 1_655 S
H639 C648 0.929 1_455 S
C640 H634 0.930 . S
C640 C641 1.367 . S
C640 C648 1.378 . S
C641 C640 1.367 . S
C641 C649 1.433 . S
C642 H638 0.929 1_455 S
C642 C644 1.378 . S
C642 C646 1.350 . S
C643 C646 1.463 1_655 S
C643 C648 1.350 . S
C643 N651 1.427 . S
C644 H635 0.930 . S
C644 C642 1.378 . S
C644 C645 1.367 . S
C645 C644 1.367 . S
C645 C647 1.433 . S
C646 C642 1.350 . S
C646 C643 1.463 1_455 S
C646 N650 1.427 . S
C647 H637 0.929 . S
C647 C645 1.433 . S
C647 N650 1.384 . S
C648 H639 0.929 1_655 S
C648 C640 1.378 . S
C648 C643 1.350 . S
C649 H636 0.929 . S
C649 C641 1.433 . S
C649 N651 1.384 . S
N650 C646 1.427 . S
N650 C647 1.384 . S
N651 C643 1.427 . S
N651 C649 1.384 . S
H652 C658 0.930 . S
H653 C662 0.930 . S
H654 C667 0.929 . S
H655 C665 0.929 . S
H656 C660 0.929 . S
H657 C666 0.929 . S
C658 H652 0.930 . S
C658 C659 1.367 1_556 S
C658 C666 1.378 . S
C659 C658 1.367 1_554 S
C659 C667 1.433 . S
C660 H656 0.929 . S
C660 C662 1.378 . S
C660 C664 1.350 . S
C661 C664 1.463 . S
C661 C666 1.350 1_554 S
C661 N669 1.427 . S
C662 H653 0.930 . S
C662 C660 1.378 . S
C662 C663 1.367 . S
C663 C662 1.367 . S
C663 C665 1.433 1_554 S
C664 C660 1.350 . S
C664 C661 1.463 . S
C664 N668 1.427 1_554 S
C665 H655 0.929 . S
C665 C663 1.433 1_556 S
C665 N668 1.384 . S
C666 H657 0.929 . S
C666 C658 1.378 . S
C666 C661 1.350 1_556 S
C667 H654 0.929 . S
C667 C659 1.433 . S
C667 N669 1.384 . S
N668 C664 1.427 1_556 S
N668 C665 1.384 . S
N669 C661 1.427 . S
N669 C667 1.384 . S
H670 C676 0.930 . S
H671 C680 0.930 . S
H672 C685 0.929 . S
H673 C683 0.929 . S
H674 C678 0.929 . S
H675 C684 0.929 . S
C676 H670 0.930 . S
C676 C677 1.367 . S
C676 C684 1.378 . S
C677 C676 1.367 . S
C677 C685 1.433 . S
C678 H674 0.929 . S
C678 C680 1.378 . S
C678 C682 1.350 . S
C679 C682 1.463 1_565 S
C679 C684 1.350 . S
C679 N687 1.427 . S
C680 H671 0.930 . S
C680 C678 1.378 . S
C680 C681 1.367 . S
C681 C680 1.367 . S
C681 C683 1.433 . S
C682 C678 1.350 . S
C682 C679 1.463 1_545 S
C682 N686 1.427 . S
C683 H673 0.929 . S
C683 C681 1.433 . S
C683 N686 1.384 . S
C684 H675 0.929 . S
C684 C676 1.378 . S
C684 C679 1.350 . S
C685 H672 0.929 . S
C685 C677 1.433 . S
C685 N687 1.384 . S
N686 C682 1.427 . S
N686 C683 1.384 . S
N687 C679 1.427 . S
N687 C685 1.384 . S
H688 C694 0.930 . S
H689 C698 0.930 1_565 S
H690 C703 0.929 . S
H691 C701 0.929 . S
H692 C696 0.929 . S
H693 C702 0.929 . S
C694 H688 0.930 . S
C694 C695 1.367 1_545 S
C694 C702 1.378 . S
C695 C694 1.367 1_565 S
C695 C703 1.433 . S
C696 H692 0.929 . S
C696 C698 1.378 1_565 S
C696 C700 1.350 1_565 S
C697 C700 1.463 . S
C697 C702 1.350 . S
C697 N705 1.427 1_545 S
C698 H689 0.930 1_545 S
C698 C696 1.378 1_545 S
C698 C699 1.367 . S
C699 C698 1.367 . S
C699 C701 1.433 . S
C700 C696 1.350 1_545 S
C700 C697 1.463 . S
C700 N704 1.427 . S
C701 H691 0.929 . S
C701 C699 1.433 . S
C701 N704 1.384 . S
C702 H693 0.929 . S
C702 C694 1.378 . S
C702 C697 1.350 . S
C703 H690 0.929 . S
C703 C695 1.433 . S
C703 N705 1.384 . S
N704 C700 1.427 . S
N704 C701 1.384 . S
N705 C697 1.427 1_565 S
N705 C703 1.384 . S
H706 C712 0.930 . S
H707 C716 0.930 . S
H708 C721 0.926 1_655 S
H709 C719 0.929 . S
H710 C714 0.929 . S
H711 C720 0.929 . S
C712 H706 0.930 . S
C712 C713 1.367 . S
C712 C720 1.378 . S
C713 C712 1.367 . S
C713 C721 1.441 . S
C714 H710 0.929 . S
C714 C716 1.378 . S
C714 C718 1.350 . S
C715 C718 1.476 . S
C715 C720 1.329 1_655 S
C715 N723 1.438 . S
C716 H707 0.930 . S
C716 C714 1.378 . S
C716 C717 1.367 . S
C717 C716 1.367 . S
C717 C719 1.433 . S
C718 C714 1.350 . S
C718 C715 1.476 . S
C718 N722 1.427 . S
C719 H709 0.929 . S
C719 C717 1.433 . S
C719 N722 1.384 . S
C720 H711 0.929 . S
C720 C712 1.378 . S
C720 C715 1.329 1_455 S
C721 H708 0.926 1_455 S
C721 C713 1.441 . S
C721 N723 1.379 1_455 S
N722 C718 1.427 . S
N722 C719 1.384 . S
N723 C715 1.438 . S
N723 C721 1.379 1_655 S
H724 C730 0.930 . S
H725 C734 0.930 . S
H726 C739 0.929 . S
H727 C737 0.929 . S
H728 C732 0.929 . S
H729 C738 0.929 . S
C730 H724 0.930 . S
C730 C731 1.367 . S
C730 C738 1.378 . S
C731 C730 1.367 . S
C731 C739 1.433 . S
C732 H728 0.929 . S
C732 C734 1.378 . S
C732 C736 1.350 . S
C733 C736 1.463 . S
C733 C738 1.350 . S
C733 N741 1.427 . S
C734 H725 0.930 . S
C734 C732 1.378 . S
C734 C735 1.367 . S
C735 C734 1.367 . S
C735 C737 1.433 . S
C736 C732 1.350 . S
C736 C733 1.463 . S
C736 N740 1.427 . S
C737 H727 0.929 . S
C737 C735 1.433 . S
C737 N740 1.384 . S
C738 H729 0.929 . S
C738 C730 1.378 . S
C738 C733 1.350 . S
C739 H726 0.929 . S
C739 C731 1.433 . S
C739 N741 1.384 . S
N740 C736 1.427 . S
N740 C737 1.384 . S
N741 C733 1.427 . S
N741 C739 1.384 . S
H742 C748 0.930 . S
H743 C752 0.930 . S
H744 C757 0.929 . S
H745 C755 0.929 . S
H746 C750 0.929 . S
H747 C756 0.929 . S
C748 H742 0.930 . S
C748 C749 1.367 . S
C748 C756 1.378 . S
C749 C748 1.367 . S
C749 C757 1.433 . S
C750 H746 0.929 . S
C750 C752 1.378 . S
C750 C754 1.350 . S
C751 C754 1.463 1_554 S
C751 C756 1.350 . S
C751 N759 1.427 . S
C752 H743 0.930 . S
C752 C750 1.378 . S
C752 C753 1.367 . S
C753 C752 1.367 . S
C753 C755 1.433 . S
C754 C750 1.350 . S
C754 C751 1.463 1_556 S
C754 N758 1.427 . S
C755 H745 0.929 . S
C755 C753 1.433 . S
C755 N758 1.384 . S
C756 H747 0.929 . S
C756 C748 1.378 . S
C756 C751 1.350 . S
C757 H744 0.929 . S
C757 C749 1.433 . S
C757 N759 1.384 . S
N758 C754 1.427 . S
N758 C755 1.384 . S
N759 C751 1.427 . S
N759 C757 1.384 . S
H760 C766 0.930 1_565 S
H761 C770 0.930 . S
H762 C775 0.929 . S
H763 C773 0.929 . S
H764 C768 0.929 . S
H765 C774 0.929 . S
C766 H760 0.930 1_545 S
C766 C767 1.367 . S
C766 C774 1.378 1_545 S
C767 C766 1.367 . S
C767 C775 1.433 . S
C768 H764 0.929 . S
C768 C770 1.378 . S
C768 C772 1.350 . S
C769 C772 1.463 . S
C769 C774 1.350 1_545 S
C769 N777 1.427 . S
C770 H761 0.930 . S
C770 C768 1.378 . S
C770 C771 1.367 1_545 S
C771 C770 1.367 1_565 S
C771 C773 1.433 . S
C772 C768 1.350 . S
C772 C769 1.463 . S
C772 N776 1.427 1_545 S
C773 H763 0.929 . S
C773 C771 1.433 . S
C773 N776 1.384 . S
C774 H765 0.929 . S
C774 C766 1.378 1_565 S
C774 C769 1.350 1_565 S
C775 H762 0.929 . S
C775 C767 1.433 . S
C775 N777 1.384 . S
N776 C772 1.427 1_565 S
N776 C773 1.384 . S
N777 C769 1.427 . S
N777 C775 1.384 . S
H778 C784 0.930 . S
H779 C788 0.930 . S
H780 C793 0.929 . S
H781 C791 0.929 . S
H782 C786 0.929 . S
H783 C792 0.929 . S
C784 H778 0.930 . S
C784 C785 1.367 . S
C784 C792 1.378 . S
C785 C784 1.367 . S
C785 C793 1.433 . S
C786 H782 0.929 . S
C786 C788 1.378 . S
C786 C790 1.334 1_455 S
C787 C790 1.480 1_556 S
C787 C792 1.350 . S
C787 N795 1.427 . S
C788 H779 0.930 . S
C788 C786 1.378 . S
C788 C789 1.367 . S
C789 C788 1.367 . S
C789 C791 1.433 . S
C790 C786 1.334 1_655 S
C790 C787 1.480 1_554 S
C790 N794 1.429 . S
C791 H781 0.929 . S
C791 C789 1.433 . S
C791 N794 1.384 1_455 S
C792 H783 0.929 . S
C792 C784 1.378 . S
C792 C787 1.350 . S
C793 H780 0.929 . S
C793 C785 1.433 . S
C793 N795 1.384 . S
N794 C790 1.429 . S
N794 C791 1.384 1_655 S
N795 C787 1.427 . S
N795 C793 1.384 . S
H796 C802 0.930 . S
H797 C806 0.930 . S
H798 C811 0.929 . S
H799 C809 0.929 . S
H800 C804 0.929 . S
H801 C810 0.929 . S
C802 H796 0.930 . S
C802 C803 1.367 . S
C802 C810 1.378 . S
C803 C802 1.367 . S
C803 C811 1.433 . S
C804 H800 0.929 . S
C804 C806 1.378 . S
C804 C808 1.350 . S
C805 C808 1.463 . S
C805 C810 1.350 . S
C805 N813 1.427 . S
C806 H797 0.930 . S
C806 C804 1.378 . S
C806 C807 1.367 . S
C807 C806 1.367 . S
C807 C809 1.433 . S
C808 C804 1.350 . S
C808 C805 1.463 . S
C808 N812 1.427 . S
C809 H799 0.929 . S
C809 C807 1.433 . S
C809 N812 1.384 . S
C810 H801 0.929 . S
C810 C802 1.378 . S
C810 C805 1.350 . S
C811 H798 0.929 . S
C811 C803 1.433 . S
C811 N813 1.384 . S
N812 C808 1.427 . S
N812 C809 1.384 . S
N813 C805 1.427 . S
N813 C811 1.384 . S
H814 C820 0.930 . S
H815 C824 0.930 . S
H816 C829 0.929 . S
H817 C827 0.929 . S
H818 C822 0.929 . S
H819 C828 0.929 . S
C820 H814 0.930 . S
C820 C821 1.367 . S
C820 C828 1.378 . S
C821 C820 1.367 . S
C821 C829 1.433 . S
C822 H818 0.929 . S
C822 C824 1.378 . S
C822 C826 1.350 . S
C823 C826 1.463 . S
C823 C828 1.350 . S
C823 N831 1.427 . S
C824 H815 0.930 . S
C824 C822 1.378 . S
C824 C825 1.367 . S
C825 C824 1.367 . S
C825 C827 1.433 . S
C826 C822 1.350 . S
C826 C823 1.463 . S
C826 N830 1.427 . S
C827 H817 0.929 . S
C827 C825 1.433 . S
C827 N830 1.384 . S
C828 H819 0.929 . S
C828 C820 1.378 . S
C828 C823 1.350 . S
C829 H816 0.929 . S
C829 C821 1.433 . S
C829 N831 1.384 . S
N830 C826 1.427 . S
N830 C827 1.384 . S
N831 C823 1.427 . S
N831 C829 1.384 . S
H832 C838 0.930 . S
H833 C842 0.930 . S
H834 C847 0.929 . S
H835 C845 0.929 . S
H836 C840 0.929 . S
H837 C846 0.929 . S
C838 H832 0.930 . S
C838 C839 1.367 . S
C838 C846 1.378 . S
C839 C838 1.367 . S
C839 C847 1.433 . S
C840 H836 0.929 . S
C840 C842 1.378 . S
C840 C844 1.350 . S
C841 C844 1.463 . S
C841 C846 1.350 . S
C841 N849 1.427 . S
C842 H833 0.930 . S
C842 C840 1.378 . S
C842 C843 1.367 . S
C843 C842 1.367 . S
C843 C845 1.433 . S
C844 C840 1.350 . S
C844 C841 1.463 . S
C844 N848 1.427 . S
C845 H835 0.929 . S
C845 C843 1.433 . S
C845 N848 1.384 . S
C846 H837 0.929 . S
C846 C838 1.378 . S
C846 C841 1.350 . S
C847 H834 0.929 . S
C847 C839 1.433 . S
C847 N849 1.384 . S
N848 C844 1.427 . S
N848 C845 1.384 . S
N849 C841 1.427 . S
N849 C847 1.384 . S
H850 C856 0.930 . S
H851 C860 0.930 . S
H852 C865 0.929 . S
H853 C863 0.929 . S
H854 C858 0.929 . S
H855 C864 0.929 . S
C856 H850 0.930 . S
C856 C857 1.367 . S
C856 C864 1.378 . S
C857 C856 1.367 . S
C857 C865 1.433 . S
C858 H854 0.929 . S
C858 C860 1.378 . S
C858 C862 1.350 . S
C859 C862 1.463 1_554 S
C859 C864 1.350 . S
C859 N867 1.427 . S
C860 H851 0.930 . S
C860 C858 1.378 . S
C860 C861 1.367 . S
C861 C860 1.367 . S
C861 C863 1.433 . S
C862 C858 1.350 . S
C862 C859 1.463 1_556 S
C862 N866 1.427 . S
C863 H853 0.929 . S
C863 C861 1.433 . S
C863 N866 1.384 . S
C864 H855 0.929 . S
C864 C856 1.378 . S
C864 C859 1.350 . S
C865 H852 0.929 . S
C865 C857 1.433 . S
C865 N867 1.384 . S
N866 C862 1.427 . S
N866 C863 1.384 . S
N867 C859 1.427 . S
N867 C865 1.384 . S
H868 C874 0.930 . S
H869 C878 0.930 . S
H870 C883 0.929 . S
H871 C881 0.931 1_545 S
H872 C876 0.929 . S
H873 C882 0.929 . S
C874 H868 0.930 . S
C874 C875 1.367 . S
C874 C882 1.378 . S
C875 C874 1.367 . S
C875 C883 1.433 1_545 S
C876 H872 0.929 . S
C876 C878 1.378 . S
C876 C880 1.350 . S
C877 C880 1.473 . S
C877 C882 1.329 1_565 S
C877 N885 1.440 . S
C878 H869 0.930 . S
C878 C876 1.378 . S
C878 C879 1.367 . S
C879 C878 1.367 . S
C879 C881 1.433 . S
C880 C876 1.350 . S
C880 C877 1.473 . S
C880 N884 1.427 1_565 S
C881 H871 0.931 1_565 S
C881 C879 1.433 . S
C881 N884 1.384 1_565 S
C882 H873 0.929 . S
C882 C874 1.378 . S
C882 C877 1.329 1_545 S
C883 H870 0.929 . S
C883 C875 1.433 1_565 S
C883 N885 1.384 . S
N884 C880 1.427 1_545 S
N884 C881 1.384 1_545 S
N885 C877 1.440 . S
N885 C883 1.384 . S
H886 C892 0.930 . S
H887 C896 0.945 . S
H888 C901 0.929 . S
H889 C899 0.929 . S
H890 C894 0.929 . S
H891 C900 0.929 1_655 S
C892 H886 0.930 . S
C892 C893 1.367 . S
C892 C900 1.378 . S
C893 C892 1.367 . S
C893 C901 1.433 . S
C894 H890 0.929 . S
C894 C896 1.394 . S
C894 C898 1.350 . S
C895 C898 1.463 . S
C895 C900 1.350 . S
C895 N903 1.427 . S
C896 H887 0.945 . S
C896 C894 1.394 . S
C896 C897 1.338 1_455 S
C897 C896 1.338 1_655 S
C897 C899 1.433 . S
C898 C894 1.350 . S
C898 C895 1.463 . S
C898 N902 1.427 1_455 S
C899 H889 0.929 . S
C899 C897 1.433 . S
C899 N902 1.384 . S
C900 H891 0.929 1_455 S
C900 C892 1.378 . S
C900 C895 1.350 . S
C901 H888 0.929 . S
C901 C893 1.433 . S
C901 N903 1.384 . S
N902 C898 1.427 1_655 S
N902 C899 1.384 . S
N903 C895 1.427 . S
N903 C901 1.384 . S
H904 C910 0.930 . S
H905 C914 0.930 . S
H906 C919 0.929 . S
H907 C917 0.929 . S
H908 C912 0.929 . S
H909 C918 0.929 . S
C910 H904 0.930 . S
C910 C911 1.367 . S
C910 C918 1.378 . S
C911 C910 1.367 . S
C911 C919 1.433 . S
C912 H908 0.929 . S
C912 C914 1.378 . S
C912 C916 1.350 . S
C913 C916 1.463 . S
C913 C918 1.350 . S
C913 N921 1.427 . S
C914 H905 0.930 . S
C914 C912 1.378 . S
C914 C915 1.367 . S
C915 C914 1.367 . S
C915 C917 1.433 . S
C916 C912 1.350 . S
C916 C913 1.463 . S
C916 N920 1.427 . S
C917 H907 0.929 . S
C917 C915 1.433 . S
C917 N920 1.384 . S
C918 H909 0.929 . S
C918 C910 1.378 . S
C918 C913 1.350 . S
C919 H906 0.929 . S
C919 C911 1.433 . S
C919 N921 1.384 . S
N920 C916 1.427 . S
N920 C917 1.384 . S
N921 C913 1.427 . S
N921 C919 1.384 . S
H922 C928 0.930 . S
H923 C932 0.930 . S
H924 C937 0.929 . S
H925 C935 0.929 . S
H926 C930 0.929 . S
H927 C936 0.929 . S
C928 H922 0.930 . S
C928 C929 1.367 . S
C928 C936 1.378 . S
C929 C928 1.367 . S
C929 C937 1.433 . S
C930 H926 0.929 . S
C930 C932 1.378 . S
C930 C934 1.350 . S
C931 C934 1.463 . S
C931 C936 1.350 . S
C931 N939 1.427 . S
C932 H923 0.930 . S
C932 C930 1.378 . S
C932 C933 1.367 . S
C933 C932 1.367 . S
C933 C935 1.433 . S
C934 C930 1.350 . S
C934 C931 1.463 . S
C934 N938 1.427 . S
C935 H925 0.929 . S
C935 C933 1.433 . S
C935 N938 1.384 . S
C936 H927 0.929 . S
C936 C928 1.378 . S
C936 C931 1.350 . S
C937 H924 0.929 . S
C937 C929 1.433 . S
C937 N939 1.384 . S
N938 C934 1.427 . S
N938 C935 1.384 . S
N939 C931 1.427 . S
N939 C937 1.384 . S
H940 C946 0.930 . S
H941 C950 0.930 . S
H942 C955 0.929 . S
H943 C953 0.929 . S
H944 C948 0.929 . S
H945 C954 0.929 . S
C946 H940 0.930 . S
C946 C947 1.367 . S
C946 C954 1.378 . S
C947 C946 1.367 . S
C947 C955 1.433 . S
C948 H944 0.929 . S
C948 C950 1.378 . S
C948 C952 1.329 1_545 S
C949 C952 1.474 . S
C949 C954 1.350 . S
C949 N957 1.427 1_565 S
C950 H941 0.930 . S
C950 C948 1.378 . S
C950 C951 1.367 . S
C951 C950 1.367 . S
C951 C953 1.433 1_545 S
C952 C948 1.329 1_565 S
C952 C949 1.474 . S
C952 N956 1.440 . S
C953 H943 0.929 . S
C953 C951 1.433 1_565 S
C953 N956 1.384 . S
C954 H945 0.929 . S
C954 C946 1.378 . S
C954 C949 1.350 . S
C955 H942 0.929 . S
C955 C947 1.433 . S
C955 N957 1.383 1_565 S
N956 C952 1.440 . S
N956 C953 1.384 . S
N957 C949 1.427 1_545 S
N957 C955 1.383 1_545 S
H958 C964 0.930 . S
H959 C968 0.930 1_655 S
H960 C973 0.929 . S
H961 C971 0.929 . S
H962 C966 0.929 . S
H963 C972 0.929 . S
C964 H958 0.930 . S
C964 C965 1.367 1_455 S
C964 C972 1.378 . S
C965 C964 1.367 1_655 S
C965 C973 1.433 . S
C966 H962 0.929 . S
C966 C968 1.378 1_655 S
C966 C970 1.350 1_655 S
C967 C970 1.463 1_554 S
C967 C972 1.350 . S
C967 N975 1.427 1_455 S
C968 H959 0.930 1_455 S
C968 C966 1.378 1_455 S
C968 C969 1.367 . S
C969 C968 1.367 . S
C969 C971 1.433 . S
C970 C966 1.350 1_455 S
C970 C967 1.463 1_556 S
C970 N974 1.427 . S
C971 H961 0.929 . S
C971 C969 1.433 . S
C971 N974 1.384 . S
C972 H963 0.929 . S
C972 C964 1.378 . S
C972 C967 1.350 . S
C973 H960 0.929 . S
C973 C965 1.433 . S
C973 N975 1.384 . S
N974 C970 1.427 . S
N974 C971 1.384 . S
N975 C967 1.427 1_655 S
N975 C973 1.384 . S
H976 C982 0.930 . S
H977 C986 0.930 . S
H978 C991 0.929 . S
H979 C989 0.929 . S
H980 C984 0.929 . S
H981 C990 0.929 . S
C982 H976 0.930 . S
C982 C983 1.367 . S
C982 C990 1.378 . S
C983 C982 1.367 . S
C983 C991 1.433 . S
C984 H980 0.929 . S
C984 C986 1.378 . S
C984 C988 1.350 . S
C985 C988 1.463 . S
C985 C990 1.350 . S
C985 N993 1.427 . S
C986 H977 0.930 . S
C986 C984 1.378 . S
C986 C987 1.367 . S
C987 C986 1.367 . S
C987 C989 1.433 . S
C988 C984 1.350 . S
C988 C985 1.463 . S
C988 N992 1.427 . S
C989 H979 0.929 . S
C989 C987 1.433 . S
C989 N992 1.384 . S
C990 H981 0.929 . S
C990 C982 1.378 . S
C990 C985 1.350 . S
C991 H978 0.929 . S
C991 C983 1.433 . S
C991 N993 1.384 . S
N992 C988 1.427 . S
N992 C989 1.384 . S
N993 C985 1.427 . S
N993 C991 1.384 . S
H994 C1000 0.930 . S
H995 C1004 0.930 . S
H996 C1009 0.929 . S
H997 C1007 0.929 . S
H998 C1002 0.929 . S
H999 C1008 0.929 . S
C1000 H994 0.930 . S
C1000 C1001 1.367 . S
C1000 C1008 1.378 . S
C1001 C1000 1.367 . S
C1001 C1009 1.433 . S
C1002 H998 0.929 . S
C1002 C1004 1.378 . S
C1002 C1006 1.350 . S
C1003 C1006 1.463 . S
C1003 C1008 1.350 . S
C1003 N1011 1.427 . S
C1004 H995 0.930 . S
C1004 C1002 1.378 . S
C1004 C1005 1.367 . S
C1005 C1004 1.367 . S
C1005 C1007 1.433 . S
C1006 C1002 1.350 . S
C1006 C1003 1.463 . S
C1006 N1010 1.427 . S
C1007 H997 0.929 . S
C1007 C1005 1.433 . S
C1007 N1010 1.384 . S
C1008 H999 0.929 . S
C1008 C1000 1.378 . S
C1008 C1003 1.350 . S
C1009 H996 0.929 . S
C1009 C1001 1.433 . S
C1009 N1011 1.384 . S
N1010 C1006 1.427 . S
N1010 C1007 1.384 . S
N1011 C1003 1.427 . S
N1011 C1009 1.384 . S
H1012 C1018 0.930 . S
H1013 C1022 0.930 . S
H1014 C1027 0.929 . S
H1015 C1025 0.929 . S
H1016 C1020 0.929 . S
H1017 C1026 0.929 . S
C1018 H1012 0.930 . S
C1018 C1019 1.367 . S
C1018 C1026 1.378 . S
C1019 C1018 1.367 . S
C1019 C1027 1.433 . S
C1020 H1016 0.929 . S
C1020 C1022 1.378 . S
C1020 C1024 1.350 . S
C1021 C1024 1.463 . S
C1021 C1026 1.350 . S
C1021 N1029 1.427 . S
C1022 H1013 0.930 . S
C1022 C1020 1.378 . S
C1022 C1023 1.367 . S
C1023 C1022 1.367 . S
C1023 C1025 1.433 . S
C1024 C1020 1.350 . S
C1024 C1021 1.463 . S
C1024 N1028 1.427 . S
C1025 H1015 0.929 . S
C1025 C1023 1.433 . S
C1025 N1028 1.384 . S
C1026 H1017 0.929 . S
C1026 C1018 1.378 . S
C1026 C1021 1.350 . S
C1027 H1014 0.929 . S
C1027 C1019 1.433 . S
C1027 N1029 1.384 . S
N1028 C1024 1.427 . S
N1028 C1025 1.384 . S
N1029 C1021 1.427 . S
N1029 C1027 1.384 . S
H1030 C1036 0.930 . S
H1031 C1040 0.930 . S
H1032 C1045 0.929 . S
H1033 C1043 0.929 . S
H1034 C1038 0.929 . S
H1035 C1044 0.929 . S
C1036 H1030 0.930 . S
C1036 C1037 1.367 . S
C1036 C1044 1.378 . S
C1037 C1036 1.367 . S
C1037 C1045 1.433 . S
C1038 H1034 0.929 . S
C1038 C1040 1.378 . S
C1038 C1042 1.350 . S
C1039 C1042 1.463 . S
C1039 C1044 1.350 . S
C1039 N1047 1.427 . S
C1040 H1031 0.930 . S
C1040 C1038 1.378 . S
C1040 C1041 1.367 . S
C1041 C1040 1.367 . S
C1041 C1043 1.433 . S
C1042 C1038 1.350 . S
C1042 C1039 1.463 . S
C1042 N1046 1.427 . S
C1043 H1033 0.929 . S
C1043 C1041 1.433 . S
C1043 N1046 1.384 . S
C1044 H1035 0.929 . S
C1044 C1036 1.378 . S
C1044 C1039 1.350 . S
C1045 H1032 0.929 . S
C1045 C1037 1.433 . S
C1045 N1047 1.384 . S
N1046 C1042 1.427 . S
N1046 C1043 1.384 . S
N1047 C1039 1.427 . S
N1047 C1045 1.384 . S
H1048 C1054 0.930 . S
H1049 C1058 0.930 . S
H1050 C1063 0.929 . S
H1051 C1061 0.929 . S
H1052 C1056 0.929 . S
H1053 C1062 0.929 . S
C1054 H1048 0.930 . S
C1054 C1055 1.367 . S
C1054 C1062 1.378 . S
C1055 C1054 1.367 . S
C1055 C1063 1.433 . S
C1056 H1052 0.929 . S
C1056 C1058 1.378 . S
C1056 C1060 1.350 . S
C1057 C1060 1.463 . S
C1057 C1062 1.350 . S
C1057 N1065 1.427 . S
C1058 H1049 0.930 . S
C1058 C1056 1.378 . S
C1058 C1059 1.367 . S
C1059 C1058 1.367 . S
C1059 C1061 1.433 . S
C1060 C1056 1.350 . S
C1060 C1057 1.463 . S
C1060 N1064 1.427 . S
C1061 H1051 0.929 . S
C1061 C1059 1.433 . S
C1061 N1064 1.384 . S
C1062 H1053 0.929 . S
C1062 C1054 1.378 . S
C1062 C1057 1.350 . S
C1063 H1050 0.929 . S
C1063 C1055 1.433 . S
C1063 N1065 1.384 . S
N1064 C1060 1.427 . S
N1064 C1061 1.384 . S
N1065 C1057 1.427 . S
N1065 C1063 1.384 . S
H1066 C1072 0.930 . S
H1067 C1076 0.930 . S
H1068 C1081 0.929 . S
H1069 C1079 0.929 . S
H1070 C1074 0.929 . S
H1071 C1080 0.929 . S
C1072 H1066 0.930 . S
C1072 C1073 1.367 . S
C1072 C1080 1.378 . S
C1073 C1072 1.367 . S
C1073 C1081 1.433 . S
C1074 H1070 0.929 . S
C1074 C1076 1.378 . S
C1074 C1078 1.350 . S
C1075 C1078 1.463 . S
C1075 C1080 1.350 . S
C1075 N1083 1.427 . S
C1076 H1067 0.930 . S
C1076 C1074 1.378 . S
C1076 C1077 1.367 . S
C1077 C1076 1.367 . S
C1077 C1079 1.433 . S
C1078 C1074 1.350 . S
C1078 C1075 1.463 . S
C1078 N1082 1.427 . S
C1079 H1069 0.929 . S
C1079 C1077 1.433 . S
C1079 N1082 1.384 . S
C1080 H1071 0.929 . S
C1080 C1072 1.378 . S
C1080 C1075 1.350 . S
C1081 H1068 0.929 . S
C1081 C1073 1.433 . S
C1081 N1083 1.384 . S
N1082 C1078 1.427 . S
N1082 C1079 1.384 . S
N1083 C1075 1.427 . S
N1083 C1081 1.384 . S
H1084 C1090 0.930 . S
H1085 C1094 0.930 . S
H1086 C1099 0.929 . S
H1087 C1097 0.929 . S
H1088 C1092 0.929 . S
H1089 C1098 0.929 . S
C1090 H1084 0.930 . S
C1090 C1091 1.367 . S
C1090 C1098 1.378 . S
C1091 C1090 1.367 . S
C1091 C1099 1.433 . S
C1092 H1088 0.929 . S
C1092 C1094 1.378 . S
C1092 C1096 1.350 . S
C1093 C1096 1.463 . S
C1093 C1098 1.350 . S
C1093 N1101 1.427 . S
C1094 H1085 0.930 . S
C1094 C1092 1.378 . S
C1094 C1095 1.367 . S
C1095 C1094 1.367 . S
C1095 C1097 1.433 . S
C1096 C1092 1.350 . S
C1096 C1093 1.463 . S
C1096 N1100 1.427 . S
C1097 H1087 0.929 . S
C1097 C1095 1.433 . S
C1097 N1100 1.384 . S
C1098 H1089 0.929 . S
C1098 C1090 1.378 . S
C1098 C1093 1.350 . S
C1099 H1086 0.929 . S
C1099 C1091 1.433 . S
C1099 N1101 1.384 . S
N1100 C1096 1.427 . S
N1100 C1097 1.384 . S
N1101 C1093 1.427 . S
N1101 C1099 1.384 . S
H1102 C1108 0.930 . S
H1103 C1112 0.930 . S
H1104 C1117 0.929 . S
H1105 C1115 0.929 . S
H1106 C1110 0.929 . S
H1107 C1116 0.929 . S
C1108 H1102 0.930 . S
C1108 C1109 1.367 . S
C1108 C1116 1.378 . S
C1109 C1108 1.367 . S
C1109 C1117 1.433 . S
C1110 H1106 0.929 . S
C1110 C1112 1.378 . S
C1110 C1114 1.350 . S
C1111 C1114 1.463 . S
C1111 C1116 1.350 . S
C1111 N1119 1.427 . S
C1112 H1103 0.930 . S
C1112 C1110 1.378 . S
C1112 C1113 1.367 . S
C1113 C1112 1.367 . S
C1113 C1115 1.433 . S
C1114 C1110 1.350 . S
C1114 C1111 1.463 . S
C1114 N1118 1.427 . S
C1115 H1105 0.929 . S
C1115 C1113 1.433 . S
C1115 N1118 1.384 . S
C1116 H1107 0.929 . S
C1116 C1108 1.378 . S
C1116 C1111 1.350 . S
C1117 H1104 0.929 . S
C1117 C1109 1.433 . S
C1117 N1119 1.384 . S
N1118 C1114 1.427 . S
N1118 C1115 1.384 . S
N1119 C1111 1.427 . S
N1119 C1117 1.384 . S
H1120 C1126 0.930 . S
H1121 C1130 0.930 . S
H1122 C1135 0.929 . S
H1123 C1133 0.929 . S
H1124 C1128 0.929 . S
H1125 C1134 0.929 . S
C1126 H1120 0.930 . S
C1126 C1127 1.367 . S
C1126 C1134 1.378 . S
C1127 C1126 1.367 . S
C1127 C1135 1.433 . S
C1128 H1124 0.929 . S
C1128 C1130 1.378 . S
C1128 C1132 1.350 . S
C1129 C1132 1.463 . S
C1129 C1134 1.350 . S
C1129 N1137 1.427 . S
C1130 H1121 0.930 . S
C1130 C1128 1.378 . S
C1130 C1131 1.367 . S
C1131 C1130 1.367 . S
C1131 C1133 1.433 . S
C1132 C1128 1.350 . S
C1132 C1129 1.463 . S
C1132 N1136 1.427 . S
C1133 H1123 0.929 . S
C1133 C1131 1.433 . S
C1133 N1136 1.384 . S
C1134 H1125 0.929 . S
C1134 C1126 1.378 . S
C1134 C1129 1.350 . S
C1135 H1122 0.929 . S
C1135 C1127 1.433 . S
C1135 N1137 1.384 . S
N1136 C1132 1.427 . S
N1136 C1133 1.384 . S
N1137 C1129 1.427 . S
N1137 C1135 1.384 . S
H1138 C1144 0.930 . S
H1139 C1148 0.930 . S
H1140 C1153 0.929 . S
H1141 C1151 0.929 . S
H1142 C1146 0.929 . S
H1143 C1152 0.929 . S
C1144 H1138 0.930 . S
C1144 C1145 1.367 . S
C1144 C1152 1.378 . S
C1145 C1144 1.367 . S
C1145 C1153 1.433 . S
C1146 H1142 0.929 . S
C1146 C1148 1.378 . S
C1146 C1150 1.350 . S
C1147 C1150 1.463 . S
C1147 C1152 1.350 . S
C1147 N1155 1.427 . S
C1148 H1139 0.930 . S
C1148 C1146 1.378 . S
C1148 C1149 1.367 . S
C1149 C1148 1.367 . S
C1149 C1151 1.433 . S
C1150 C1146 1.350 . S
C1150 C1147 1.463 . S
C1150 N1154 1.427 . S
C1151 H1141 0.929 . S
C1151 C1149 1.433 . S
C1151 N1154 1.384 . S
C1152 H1143 0.929 . S
C1152 C1144 1.378 . S
C1152 C1147 1.350 . S
C1153 H1140 0.929 . S
C1153 C1145 1.433 . S
C1153 N1155 1.384 . S
N1154 C1150 1.427 . S
N1154 C1151 1.384 . S
N1155 C1147 1.427 . S
N1155 C1153 1.384 . S
H1156 C1162 0.930 . S
H1157 C1166 0.930 . S
H1158 C1171 0.929 . S
H1159 C1169 0.929 . S
H1160 C1164 0.929 . S
H1161 C1170 0.929 . S
C1162 H1156 0.930 . S
C1162 C1163 1.367 . S
C1162 C1170 1.378 . S
C1163 C1162 1.367 . S
C1163 C1171 1.433 . S
C1164 H1160 0.929 . S
C1164 C1166 1.378 . S
C1164 C1168 1.350 . S
C1165 C1168 1.463 . S
C1165 C1170 1.350 . S
C1165 N1173 1.427 . S
C1166 H1157 0.930 . S
C1166 C1164 1.378 . S
C1166 C1167 1.367 . S
C1167 C1166 1.367 . S
C1167 C1169 1.433 . S
C1168 C1164 1.350 . S
C1168 C1165 1.463 . S
C1168 N1172 1.427 . S
C1169 H1159 0.929 . S
C1169 C1167 1.433 . S
C1169 N1172 1.384 . S
C1170 H1161 0.929 . S
C1170 C1162 1.378 . S
C1170 C1165 1.350 . S
C1171 H1158 0.929 . S
C1171 C1163 1.433 . S
C1171 N1173 1.384 . S
N1172 C1168 1.427 . S
N1172 C1169 1.384 . S
N1173 C1165 1.427 . S
N1173 C1171 1.384 . S
H1174 C1180 0.930 . S
H1175 C1184 0.930 . S
H1176 C1189 0.929 . S
H1177 C1187 0.929 . S
H1178 C1182 0.929 . S
H1179 C1188 0.929 . S
C1180 H1174 0.930 . S
C1180 C1181 1.367 . S
C1180 C1188 1.378 . S
C1181 C1180 1.367 . S
C1181 C1189 1.433 . S
C1182 H1178 0.929 . S
C1182 C1184 1.378 . S
C1182 C1186 1.350 . S
C1183 C1186 1.463 . S
C1183 C1188 1.350 . S
C1183 N1191 1.427 . S
C1184 H1175 0.930 . S
C1184 C1182 1.378 . S
C1184 C1185 1.367 . S
C1185 C1184 1.367 . S
C1185 C1187 1.433 . S
C1186 C1182 1.350 . S
C1186 C1183 1.463 . S
C1186 N1190 1.427 . S
C1187 H1177 0.929 . S
C1187 C1185 1.433 . S
C1187 N1190 1.384 . S
C1188 H1179 0.929 . S
C1188 C1180 1.378 . S
C1188 C1183 1.350 . S
C1189 H1176 0.929 . S
C1189 C1181 1.433 . S
C1189 N1191 1.384 . S
N1190 C1186 1.427 . S
N1190 C1187 1.384 . S
N1191 C1183 1.427 . S
N1191 C1189 1.384 . S
H1192 C1198 0.930 . S
H1193 C1202 0.930 . S
H1194 C1207 0.929 . S
H1195 C1205 0.929 . S
H1196 C1200 0.929 . S
H1197 C1206 0.929 . S
C1198 H1192 0.930 . S
C1198 C1199 1.367 . S
C1198 C1206 1.378 . S
C1199 C1198 1.367 . S
C1199 C1207 1.433 . S
C1200 H1196 0.929 . S
C1200 C1202 1.378 . S
C1200 C1204 1.350 . S
C1201 C1204 1.463 . S
C1201 C1206 1.350 . S
C1201 N1209 1.427 . S
C1202 H1193 0.930 . S
C1202 C1200 1.378 . S
C1202 C1203 1.367 . S
C1203 C1202 1.367 . S
C1203 C1205 1.433 . S
C1204 C1200 1.350 . S
C1204 C1201 1.463 . S
C1204 N1208 1.427 . S
C1205 H1195 0.929 . S
C1205 C1203 1.433 . S
C1205 N1208 1.384 . S
C1206 H1197 0.929 . S
C1206 C1198 1.378 . S
C1206 C1201 1.350 . S
C1207 H1194 0.929 . S
C1207 C1199 1.433 . S
C1207 N1209 1.384 . S
N1208 C1204 1.427 . S
N1208 C1205 1.384 . S
N1209 C1201 1.427 . S
N1209 C1207 1.384 . S
H1210 C1216 0.930 . S
H1211 C1220 0.930 . S
H1212 C1225 0.929 . S
H1213 C1223 0.929 . S
H1214 C1218 0.929 . S
H1215 C1224 0.929 . S
C1216 H1210 0.930 . S
C1216 C1217 1.367 . S
C1216 C1224 1.378 . S
C1217 C1216 1.367 . S
C1217 C1225 1.433 . S
C1218 H1214 0.929 . S
C1218 C1220 1.378 . S
C1218 C1222 1.350 . S
C1219 C1222 1.463 . S
C1219 C1224 1.350 . S
C1219 N1227 1.427 . S
C1220 H1211 0.930 . S
C1220 C1218 1.378 . S
C1220 C1221 1.367 . S
C1221 C1220 1.367 . S
C1221 C1223 1.433 . S
C1222 C1218 1.350 . S
C1222 C1219 1.463 . S
C1222 N1226 1.427 . S
C1223 H1213 0.929 . S
C1223 C1221 1.433 . S
C1223 N1226 1.384 . S
C1224 H1215 0.929 . S
C1224 C1216 1.378 . S
C1224 C1219 1.350 . S
C1225 H1212 0.929 . S
C1225 C1217 1.433 . S
C1225 N1227 1.384 . S
N1226 C1222 1.427 . S
N1226 C1223 1.384 . S
N1227 C1219 1.427 . S
N1227 C1225 1.384 . S
H1228 C1234 0.930 . S
H1229 C1238 0.930 . S
H1230 C1243 0.929 . S
H1231 C1241 0.929 . S
H1232 C1236 0.929 . S
H1233 C1242 0.929 . S
C1234 H1228 0.930 . S
C1234 C1235 1.367 . S
C1234 C1242 1.378 . S
C1235 C1234 1.367 . S
C1235 C1243 1.433 . S
C1236 H1232 0.929 . S
C1236 C1238 1.378 . S
C1236 C1240 1.350 . S
C1237 C1240 1.463 . S
C1237 C1242 1.350 . S
C1237 N1245 1.427 . S
C1238 H1229 0.930 . S
C1238 C1236 1.378 . S
C1238 C1239 1.367 . S
C1239 C1238 1.367 . S
C1239 C1241 1.433 . S
C1240 C1236 1.350 . S
C1240 C1237 1.463 . S
C1240 N1244 1.427 . S
C1241 H1231 0.929 . S
C1241 C1239 1.433 . S
C1241 N1244 1.384 . S
C1242 H1233 0.929 . S
C1242 C1234 1.378 . S
C1242 C1237 1.350 . S
C1243 H1230 0.929 . S
C1243 C1235 1.433 . S
C1243 N1245 1.384 . S
N1244 C1240 1.427 . S
N1244 C1241 1.384 . S
N1245 C1237 1.427 . S
N1245 C1243 1.384 . S
H1246 C1252 0.930 . S
H1247 C1256 0.930 . S
H1248 C1261 0.929 . S
H1249 C1259 0.929 . S
H1250 C1254 0.929 . S
H1251 C1260 0.929 . S
C1252 H1246 0.930 . S
C1252 C1253 1.367 . S
C1252 C1260 1.378 . S
C1253 C1252 1.367 . S
C1253 C1261 1.433 . S
C1254 H1250 0.929 . S
C1254 C1256 1.378 . S
C1254 C1258 1.350 . S
C1255 C1258 1.463 . S
C1255 C1260 1.350 . S
C1255 N1263 1.427 . S
C1256 H1247 0.930 . S
C1256 C1254 1.378 . S
C1256 C1257 1.367 . S
C1257 C1256 1.367 . S
C1257 C1259 1.433 . S
C1258 C1254 1.350 . S
C1258 C1255 1.463 . S
C1258 N1262 1.427 . S
C1259 H1249 0.929 . S
C1259 C1257 1.433 . S
C1259 N1262 1.384 . S
C1260 H1251 0.929 . S
C1260 C1252 1.378 . S
C1260 C1255 1.350 . S
C1261 H1248 0.929 . S
C1261 C1253 1.433 . S
C1261 N1263 1.384 . S
N1262 C1258 1.427 . S
N1262 C1259 1.384 . S
N1263 C1255 1.427 . S
N1263 C1261 1.384 . S
C551 C345 1.745 . S
C555 C5 1.750 . S
C569 C39 1.746 . S
C573 C379 1.749 . S
C587 C277 1.746 . S
C591 C73 1.750 . S
C605 C107 1.746 . S
C609 C311 1.749 . S
C623 C481 1.747 . S
C627 C141 1.748 . S
C641 C175 1.750 . S
C645 C515 1.745 . S
C659 C209 1.746 . S
C663 C413 1.749 . S
C677 C447 1.749 . S
C681 C243 1.747 . S
C695 C496 1.059 . S
C699 C33 1.058 . S
C713 C530 1.049 . S
C717 C67 1.055 . S
C731 C101 1.058 . S
C735 C428 1.058 . S
C749 C462 1.055 . S
C753 C135 1.059 . S
C767 C169 1.057 . S
C771 C360 1.059 . S
C785 C203 1.050 . S
C789 C394 1.055 . S
C803 C292 1.053 . S
C807 C237 1.050 . S
C821 C271 1.059 . S
C825 C326 1.054 . S
C839 C224 1.058 . S
C843 C305 1.053 . S
C857 C258 1.054 . S
C861 C339 1.050 . S
C875 C156 1.049 . S
C879 C373 1.053 . S
C893 C407 1.054 . S
C897 C190 1.058 . S
C911 C441 1.049 . S
C915 C88 1.053 . S
C929 C475 1.049 . S
C933 C122 1.052 . S
C947 C509 1.054 . S
C951 C20 1.049 . S
C965 C54 1.058 . S
C969 C543 1.058 . S
C983 C383 1.550 . S
C987 C2 1.622 . S
C1001 C36 1.623 . S
C1005 C281 1.554 . S
C1019 C70 1.622 . S
C1023 C315 1.561 . S
C1037 C104 1.621 . S
C1041 C349 1.553 . S
C1055 C179 1.562 . S
C1059 C138 1.621 . S
C1073 C172 1.620 . S
C1077 C213 1.565 . S
C1091 C247 1.565 . S
C1095 C206 1.620 . S
C1109 C240 1.623 . S
C1113 C145 1.551 . S
C1127 C111 1.551 . S
C1131 C274 1.623 . S
C1145 C308 1.622 . S
C1149 C9 1.551 . S
C1163 C342 1.620 . S
C1167 C43 1.557 . S
C1181 C77 1.560 . S
C1185 C376 1.622 . S
C1199 C451 1.559 . S
C1203 C410 1.622 . S
C1217 C485 1.565 . S
C1221 C444 1.619 . S
C1235 C478 1.620 . S
C1239 C519 1.558 . S
C1253 C417 1.561 . S
C1257 C512 1.621 . S
