# Generated by pormake.
# Topology yfl, (5)-cn, num edge types: 1
# Building blocks:
#     Node 0, Type 0, BuildingBlock: BEQFEK_clean_sbu_0, # of connection points: 5
#     Node 1, Type 0, BuildingBlock: BEQFEK_clean_sbu_0, # of connection points: 5
#     Node 2, Type 0, BuildingBlock: BEQFEK_clean_sbu_0, # of connection points: 5
#     Node 3, Type 0, BuildingBlock: BEQFEK_clean_sbu_0, # of connection points: 5
#     Node 4, Type 0, BuildingBlock: BEQFEK_clean_sbu_0, # of connection points: 5
#     Node 5, Type 0, BuildingBlock: BEQFEK_clean_sbu_0, # of connection points: 5
#     Node 6, Type 0, BuildingBlock: BEQFEK_clean_sbu_0, # of connection points: 5
#     Node 7, Type 0, BuildingBlock: BEQFEK_clean_sbu_0, # of connection points: 5
#     Node 8, Type 0, BuildingBlock: BEQFEK_clean_sbu_0, # of connection points: 5
#     Node 9, Type 0, BuildingBlock: BEQFEK_clean_sbu_0, # of connection points: 5
#     Node 10, Type 0, BuildingBlock: BEQFEK_clean_sbu_0, # of connection points: 5
#     Node 11, Type 0, BuildingBlock: BEQFEK_clean_sbu_0, # of connection points: 5
#     Node 12, Type 0, BuildingBlock: BEQFEK_clean_sbu_0, # of connection points: 5
#     Node 13, Type 0, BuildingBlock: BEQFEK_clean_sbu_0, # of connection points: 5
#     Node 14, Type 0, BuildingBlock: BEQFEK_clean_sbu_0, # of connection points: 5
#     Node 15, Type 0, BuildingBlock: BEQFEK_clean_sbu_0, # of connection points: 5
#     Edge 16, Type (0, 0), BuildingBlock: AJUNOK_clean_linker_0, # of connection points: 2
#     Edge 17, Type (0, 0), BuildingBlock: AJUNOK_clean_linker_0, # of connection points: 2
#     Edge 18, Type (0, 0), BuildingBlock: AJUNOK_clean_linker_0, # of connection points: 2
#     Edge 19, Type (0, 0), BuildingBlock: AJUNOK_clean_linker_0, # of connection points: 2
#     Edge 20, Type (0, 0), BuildingBlock: AJUNOK_clean_linker_0, # of connection points: 2
#     Edge 21, Type (0, 0), BuildingBlock: AJUNOK_clean_linker_0, # of connection points: 2
#     Edge 22, Type (0, 0), BuildingBlock: AJUNOK_clean_linker_0, # of connection points: 2
#     Edge 23, Type (0, 0), BuildingBlock: AJUNOK_clean_linker_0, # of connection points: 2
#     Edge 24, Type (0, 0), BuildingBlock: AJUNOK_clean_linker_0, # of connection points: 2
#     Edge 25, Type (0, 0), BuildingBlock: AJUNOK_clean_linker_0, # of connection points: 2
#     Edge 26, Type (0, 0), BuildingBlock: AJUNOK_clean_linker_0, # of connection points: 2
#     Edge 27, Type (0, 0), BuildingBlock: AJUNOK_clean_linker_0, # of connection points: 2
#     Edge 28, Type (0, 0), BuildingBlock: AJUNOK_clean_linker_0, # of connection points: 2
#     Edge 29, Type (0, 0), BuildingBlock: AJUNOK_clean_linker_0, # of connection points: 2
#     Edge 30, Type (0, 0), BuildingBlock: AJUNOK_clean_linker_0, # of connection points: 2
#     Edge 31, Type (0, 0), BuildingBlock: AJUNOK_clean_linker_0, # of connection points: 2
#     Edge 32, Type (0, 0), BuildingBlock: AJUNOK_clean_linker_0, # of connection points: 2
#     Edge 33, Type (0, 0), BuildingBlock: AJUNOK_clean_linker_0, # of connection points: 2
#     Edge 34, Type (0, 0), BuildingBlock: AJUNOK_clean_linker_0, # of connection points: 2
#     Edge 35, Type (0, 0), BuildingBlock: AJUNOK_clean_linker_0, # of connection points: 2
#     Edge 36, Type (0, 0), BuildingBlock: AJUNOK_clean_linker_0, # of connection points: 2
#     Edge 37, Type (0, 0), BuildingBlock: AJUNOK_clean_linker_0, # of connection points: 2
#     Edge 38, Type (0, 0), BuildingBlock: AJUNOK_clean_linker_0, # of connection points: 2
#     Edge 39, Type (0, 0), BuildingBlock: AJUNOK_clean_linker_0, # of connection points: 2
#     Edge 40, Type (0, 0), BuildingBlock: AJUNOK_clean_linker_0, # of connection points: 2
#     Edge 41, Type (0, 0), BuildingBlock: AJUNOK_clean_linker_0, # of connection points: 2
#     Edge 42, Type (0, 0), BuildingBlock: AJUNOK_clean_linker_0, # of connection points: 2
#     Edge 43, Type (0, 0), BuildingBlock: AJUNOK_clean_linker_0, # of connection points: 2
#     Edge 44, Type (0, 0), BuildingBlock: AJUNOK_clean_linker_0, # of connection points: 2
#     Edge 45, Type (0, 0), BuildingBlock: AJUNOK_clean_linker_0, # of connection points: 2
#     Edge 46, Type (0, 0), BuildingBlock: AJUNOK_clean_linker_0, # of connection points: 2
#     Edge 47, Type (0, 0), BuildingBlock: AJUNOK_clean_linker_0, # of connection points: 2
#     Edge 48, Type (0, 0), BuildingBlock: AJUNOK_clean_linker_0, # of connection points: 2
#     Edge 49, Type (0, 0), BuildingBlock: AJUNOK_clean_linker_0, # of connection points: 2
#     Edge 50, Type (0, 0), BuildingBlock: AJUNOK_clean_linker_0, # of connection points: 2
#     Edge 51, Type (0, 0), BuildingBlock: AJUNOK_clean_linker_0, # of connection points: 2
#     Edge 52, Type (0, 0), BuildingBlock: AJUNOK_clean_linker_0, # of connection points: 2
#     Edge 53, Type (0, 0), BuildingBlock: AJUNOK_clean_linker_0, # of connection points: 2
#     Edge 54, Type (0, 0), BuildingBlock: AJUNOK_clean_linker_0, # of connection points: 2
#     Edge 55, Type (0, 0), BuildingBlock: AJUNOK_clean_linker_0, # of connection points: 2
# Relax obj value: 0.262
# Max RMSD: 0.188
# Mean RMSD: 0.188
data_MOF--net-yfl--node1-BEQFEK_clean_sbu_0--edge1-AJUNOK_clean_linker_0
_symmetry_space_group_name_H-M    P1
_symmetry_Int_Tables_number       1
_symmetry_cell_setting            triclinic
loop_
_symmetry_equiv_pos_as_xyz
'x, y, z'
_cell_length_a     22.877013
_cell_length_b     22.857984
_cell_length_c     91.066487
_cell_angle_alpha  90.003962
_cell_angle_beta   89.996738
_cell_angle_gamma 89.977574
loop_
_atom_site_label
_atom_site_type_symbol
_atom_site_fract_x
_atom_site_fract_y
_atom_site_fract_z
_atom_type_partial_charge
Co0 Co 0.00667 0.27208 0.28567 0.0
Co1 Co 0.11085 0.27747 0.30819 0.0
C2 C 0.02595 0.37675 0.305 0.0
O3 O 0.99526 0.34882 0.29567 0.0
O4 O 0.07161 0.35432 0.31068 0.0
C5 C 0.88841 0.27334 0.27452 0.0
O6 O 0.87452 0.28996 0.28788 0.0
C7 C 0.17213 0.28798 0.3367 0.0
C8 C 0.24655 0.22796 0.33329 0.0
C9 C 0.22004 0.26305 0.34377 0.0
N10 N 0.16996 0.26734 0.32286 0.0
N11 N 0.2152 0.23233 0.32084 0.0
C12 C 0.1301 0.33218 0.34269 0.0
H13 H 0.12293 0.36722 0.3345 0.0
H14 H 0.08748 0.3107 0.34487 0.0
H15 H 0.14672 0.35276 0.35289 0.0
C16 C 0.99112 0.15644 0.29926 0.0
N17 N 0.01588 0.20977 0.29889 0.0
N18 N 0.05701 0.21298 0.30895 0.0
C19 C 0.05767 0.1623 0.31657 0.0
C20 C 0.01671 0.12421 0.31051 0.0
C21 C 0.94995 0.13466 0.2877 0.0
H22 H 0.96216 0.15308 0.27686 0.0
H23 H 0.90501 0.1495 0.29037 0.0
H24 H 0.95031 0.08627 0.28689 0.0
O25 O 0.07631 0.27756 0.27333 0.0
O26 O 0.15148 0.28087 0.28872 0.0
H27 H 0.14116 0.143 0.32596 0.0
H28 H 0.08012 0.11269 0.33598 0.0
C29 C 0.09571 0.15111 0.32964 0.0
H30 H 0.0957 0.19007 0.33689 0.0
H31 H 0.22354 0.20982 0.31109 0.0
O32 O 0.94127 0.26056 0.27174 0.0
C33 C 0.13093 0.28092 0.2757 0.0
Co34 Co 0.27765 0.00481 0.7108 0.0
Co35 Co 0.27518 0.89012 0.69196 0.0
C36 C 0.37785 0.97484 0.69193 0.0
O37 O 0.35242 0.01117 0.70038 0.0
O38 O 0.35324 0.92715 0.68808 0.0
C39 C 0.28869 0.12233 0.72266 0.0
O40 O 0.31758 0.13441 0.71056 0.0
C41 C 0.27914 0.82849 0.66391 0.0
C42 C 0.23446 0.74518 0.66893 0.0
C43 C 0.26094 0.77629 0.6577 0.0
N44 N 0.26459 0.82819 0.6782 0.0
N45 N 0.23845 0.778 0.68118 0.0
C46 C 0.30579 0.87983 0.65625 0.0
H47 H 0.29119 0.92114 0.66151 0.0
H48 H 0.29417 0.88009 0.64441 0.0
H49 H 0.35406 0.87715 0.65725 0.0
C50 C 0.16502 0.02349 0.69666 0.0
N51 N 0.21562 0.99418 0.69776 0.0
N52 N 0.21186 0.94464 0.69048 0.0
C53 C 0.15749 0.94016 0.68484 0.0
C54 C 0.12579 0.98984 0.6887 0.0
C55 C 0.15284 0.07994 0.70442 0.0
H56 H 0.18889 0.11117 0.70223 0.0
H57 H 0.11082 0.09943 0.70078 0.0
H58 H 0.1513 0.07216 0.71644 0.0
O59 O 0.28212 0.93833 0.72455 0.0
O60 O 0.27832 0.8556 0.71192 0.0
H61 H 0.1396 0.84849 0.68574 0.0
H62 H 0.08686 0.88984 0.67519 0.0
C63 C 0.13383 0.88554 0.67801 0.0
H64 H 0.15891 0.87553 0.6679 0.0
H65 H 0.22203 0.76678 0.6915 0.0
O66 O 0.2661 0.07202 0.72411 0.0
C67 C 0.28179 0.88273 0.7241 0.0
Co68 Co 0.98658 0.72719 0.28497 0.0
Co69 Co 0.88452 0.72181 0.308 0.0
C70 C 0.96995 0.62315 0.30467 0.0
O71 O 0.99872 0.65117 0.295 0.0
O72 O 0.92441 0.64487 0.3106 0.0
C73 C 0.1041 0.72356 0.27406 0.0
O74 O 0.11662 0.70726 0.28752 0.0
C75 C 0.82742 0.71071 0.33684 0.0
C76 C 0.75345 0.77225 0.3346 0.0
C77 C 0.78173 0.73634 0.34459 0.0
N78 N 0.82719 0.7321 0.32308 0.0
N79 N 0.78225 0.76805 0.32175 0.0
C80 C 0.86891 0.6645 0.34205 0.0
H81 H 0.86836 0.6273 0.33424 0.0
H82 H 0.91395 0.68251 0.34225 0.0
H83 H 0.85686 0.64767 0.35306 0.0
C84 C 0.00545 0.84158 0.29864 0.0
N85 N 0.97905 0.78912 0.29825 0.0
N86 N 0.93848 0.78658 0.30847 0.0
C87 C 0.93969 0.83713 0.31617 0.0
C88 C 0.98204 0.87385 0.31018 0.0
C89 C 0.04496 0.86306 0.28667 0.0
H90 H 0.03023 0.8456 0.27593 0.0
H91 H 0.08997 0.84691 0.28873 0.0
H92 H 0.04558 0.91149 0.28603 0.0
O93 O 0.9162 0.72178 0.27295 0.0
O94 O 0.84233 0.71768 0.28872 0.0
H95 H 0.85629 0.86162 0.32473 0.0
H96 H 0.91737 0.88818 0.33535 0.0
C97 C 0.90053 0.85066 0.32888 0.0
H98 H 0.89723 0.81197 0.33615 0.0
H99 H 0.77243 0.79128 0.31219 0.0
O100 O 0.05183 0.73773 0.27101 0.0
C101 C 0.86181 0.71788 0.27559 0.0
Co102 Co 0.72206 0.99888 0.71371 0.0
Co103 Co 0.72152 0.11172 0.69412 0.0
C104 C 0.62348 0.02243 0.69352 0.0
O105 O 0.64887 0.98915 0.70272 0.0
O106 O 0.64631 0.07074 0.68951 0.0
C107 C 0.71088 0.88137 0.72471 0.0
O108 O 0.6859 0.87129 0.71198 0.0
C109 C 0.72501 0.16791 0.66543 0.0
C110 C 0.74211 0.26043 0.6709 0.0
C111 C 0.73238 0.22292 0.65917 0.0
N112 N 0.72997 0.17293 0.68007 0.0
N113 N 0.74012 0.22834 0.6833 0.0
C114 C 0.71651 0.11059 0.65779 0.0
H115 H 0.73202 0.07411 0.66482 0.0
H116 H 0.74015 0.10999 0.64714 0.0
H117 H 0.66922 0.10393 0.65568 0.0
C118 C 0.83617 0.98278 0.69989 0.0
N119 N 0.78504 0.01115 0.701 0.0
N120 N 0.78737 0.06008 0.69342 0.0
C121 C 0.84132 0.06523 0.68757 0.0
C122 C 0.87415 0.01644 0.69154 0.0
C123 C 0.84886 0.92586 0.70737 0.0
H124 H 0.81281 0.89467 0.70514 0.0
H125 H 0.89073 0.90665 0.70353 0.0
H126 H 0.85077 0.93286 0.71942 0.0
O127 O 0.71412 0.06598 0.72723 0.0
O128 O 0.71395 0.14729 0.71394 0.0
H129 H 0.91155 0.12055 0.67966 0.0
H130 H 0.84602 0.12014 0.66866 0.0
C131 C 0.8631 0.11923 0.68006 0.0
H132 H 0.84666 0.15862 0.68584 0.0
H133 H 0.74556 0.24426 0.69395 0.0
O134 O 0.73329 0.93133 0.72701 0.0
C135 C 0.71175 0.12146 0.72632 0.0
Co136 Co 0.99846 0.22409 0.9615 0.0
Co137 Co 0.11181 0.22279 0.94209 0.0
C138 C 0.02491 0.12341 0.94213 0.0
O139 O 0.99088 0.14956 0.951 0.0
O140 O 0.07299 0.1463 0.93806 0.0
C141 C 0.88191 0.20745 0.97219 0.0
O142 O 0.87444 0.1812 0.9595 0.0
C143 C 0.16481 0.22504 0.9132 0.0
C144 C 0.25691 0.24751 0.91774 0.0
C145 C 0.21814 0.23534 0.90642 0.0
N146 N 0.17177 0.23088 0.92777 0.0
N147 N 0.22697 0.244 0.93045 0.0
C148 C 0.10695 0.21383 0.90608 0.0
H149 H 0.07078 0.22734 0.91345 0.0
H150 H 0.10365 0.23759 0.89548 0.0
H151 H 0.10244 0.16627 0.90392 0.0
C152 C 0.98254 0.33754 0.94724 0.0
N153 N 0.01018 0.28601 0.94845 0.0
N154 N 0.05902 0.28749 0.94083 0.0
C155 C 0.06465 0.34102 0.93476 0.0
C156 C 0.01621 0.37451 0.93861 0.0
C157 C 0.92776 0.3525 0.9554 0.0
H158 H 0.89609 0.316 0.9544 0.0
H159 H 0.90763 0.39327 0.95112 0.0
H160 H 0.93815 0.35816 0.96722 0.0
O161 O 0.06541 0.2192 0.97509 0.0
O162 O 0.14727 0.21858 0.96199 0.0
H163 H 0.12137 0.41087 0.92718 0.0
H164 H 0.1217 0.34516 0.91624 0.0
C165 C 0.11957 0.36242 0.92761 0.0
H166 H 0.15815 0.34603 0.93372 0.0
H167 H 0.24403 0.25119 0.94093 0.0
O168 O 0.92982 0.23389 0.97456 0.0
C169 C 0.12092 0.21771 0.97432 0.0
Co170 Co 0.22765 0.00322 0.03825 0.0
Co171 Co 0.22819 0.88989 0.0578 0.0
C172 C 0.12611 0.97433 0.05687 0.0
O173 O 0.15213 0.00974 0.04833 0.0
O174 O 0.15036 0.92702 0.06103 0.0
C175 C 0.21083 0.11946 0.02734 0.0
O176 O 0.18328 0.12702 0.03985 0.0
C177 C 0.22157 0.83259 0.08643 0.0
C178 C 0.2725 0.75162 0.08297 0.0
C179 C 0.24382 0.78392 0.09365 0.0
N180 N 0.2381 0.83012 0.07228 0.0
N181 N 0.26769 0.78113 0.07022 0.0
C182 C 0.1817 0.87871 0.09247 0.0
H183 H 0.14132 0.88031 0.08577 0.0
H184 H 0.20332 0.92206 0.09169 0.0
H185 H 0.16861 0.86965 0.10396 0.0
C186 C 0.33938 0.02263 0.05295 0.0
N187 N 0.28878 0.99346 0.05161 0.0
N188 N 0.29101 0.9451 0.05942 0.0
C189 C 0.34405 0.9417 0.06586 0.0
C190 C 0.37654 0.9907 0.06192 0.0
C191 C 0.3539 0.07671 0.04444 0.0
H192 H 0.35891 0.06531 0.03266 0.0
H193 H 0.31747 0.1085 0.0454 0.0
H194 H 0.39483 0.09725 0.04847 0.0
O195 O 0.22479 0.93586 0.02478 0.0
O196 O 0.22634 0.85393 0.03788 0.0
H197 H 0.36184 0.84998 0.06606 0.0
H198 H 0.41297 0.89242 0.07668 0.0
C199 C 0.36643 0.88816 0.07347 0.0
H200 H 0.33992 0.88002 0.08346 0.0
H201 H 0.28605 0.76867 0.0602 0.0
O202 O 0.23746 0.07149 0.02516 0.0
C203 C 0.22481 0.88029 0.02555 0.0
Co204 Co 0.0074 0.77705 0.96136 0.0
Co205 Co 0.8954 0.77456 0.94129 0.0
C206 C 0.97871 0.87729 0.94216 0.0
O207 O 0.01371 0.85208 0.95097 0.0
O208 O 0.93191 0.85247 0.93786 0.0
C209 C 0.12365 0.7941 0.97254 0.0
O210 O 0.13185 0.82136 0.96002 0.0
C211 C 0.8379 0.77733 0.91254 0.0
C212 C 0.75573 0.72947 0.91679 0.0
C213 C 0.78812 0.75558 0.90572 0.0
N214 N 0.83578 0.76305 0.92686 0.0
N215 N 0.78618 0.73518 0.92936 0.0
C216 C 0.88496 0.81453 0.90595 0.0
H217 H 0.88977 0.8551 0.91249 0.0
H218 H 0.92717 0.79064 0.90638 0.0
H219 H 0.87479 0.82738 0.8945 0.0
C220 C 0.02832 0.66447 0.94707 0.0
N221 N 0.99875 0.71499 0.94817 0.0
N222 N 0.9511 0.7122 0.94011 0.0
C223 C 0.9485 0.65893 0.93376 0.0
C224 C 0.99737 0.62685 0.938 0.0
C225 C 0.08192 0.65058 0.95582 0.0
H226 H 0.0699 0.64625 0.96757 0.0
H227 H 0.11361 0.68707 0.95482 0.0
H228 H 0.10282 0.60945 0.95201 0.0
O229 O 0.93928 0.78044 0.97462 0.0
O230 O 0.8587 0.77724 0.96107 0.0
H231 H 0.85676 0.64172 0.93305 0.0
H232 H 0.89995 0.58908 0.9231 0.0
C233 C 0.89568 0.63602 0.92595 0.0
H234 H 0.88879 0.66149 0.91573 0.0
H235 H 0.77372 0.71887 0.93961 0.0
O236 O 0.07529 0.76821 0.9747 0.0
C237 C 0.88382 0.78022 0.97353 0.0
Co238 Co 0.77821 0.99302 0.03807 0.0
Co239 Co 0.7791 0.10694 0.05733 0.0
C240 C 0.87974 0.02044 0.05675 0.0
O241 O 0.85295 0.98498 0.04837 0.0
O242 O 0.85697 0.06902 0.06055 0.0
C243 C 0.79262 0.87651 0.02665 0.0
O244 O 0.82116 0.86713 0.03895 0.0
C245 C 0.77723 0.16285 0.08633 0.0
C246 C 0.74625 0.25182 0.0811 0.0
C247 C 0.76228 0.21622 0.09279 0.0
N248 N 0.76976 0.16718 0.07171 0.0
N249 N 0.75157 0.2206 0.06865 0.0
C250 C 0.79875 0.10838 0.09369 0.0
H251 H 0.82167 0.07963 0.08583 0.0
H252 H 0.76086 0.08353 0.09804 0.0
H253 H 0.82871 0.11932 0.10288 0.0
C254 C 0.66576 0.97607 0.05263 0.0
N255 N 0.71688 0.00428 0.05127 0.0
N256 N 0.71525 0.05314 0.05889 0.0
C257 C 0.66193 0.05818 0.06511 0.0
C258 C 0.6288 0.00937 0.06135 0.0
C259 C 0.651 0.92116 0.04448 0.0
H260 H 0.68766 0.88964 0.04546 0.0
H261 H 0.61044 0.90081 0.0488 0.0
H262 H 0.64512 0.93149 0.03267 0.0
O263 O 0.78296 0.06017 0.02452 0.0
O264 O 0.7813 0.14259 0.03739 0.0
H265 H 0.59184 0.11323 0.07338 0.0
H266 H 0.65984 0.11693 0.08333 0.0
C267 C 0.6401 0.113 0.07226 0.0
H268 H 0.65358 0.15149 0.06568 0.0
H269 H 0.7419 0.23544 0.05809 0.0
O270 O 0.76703 0.92527 0.02486 0.0
C271 C 0.78324 0.11577 0.02513 0.0
Co272 Co 0.49711 0.77891 0.78831 0.0
Co273 Co 0.60479 0.77873 0.80975 0.0
C274 C 0.52368 0.88124 0.80789 0.0
O275 O 0.49119 0.85499 0.79866 0.0
O276 O 0.5694 0.85714 0.81309 0.0
C277 C 0.37999 0.79561 0.77741 0.0
O278 O 0.37127 0.82296 0.78991 0.0
C279 C 0.67286 0.78624 0.83733 0.0
C280 C 0.7376 0.7159 0.83388 0.0
C281 C 0.71782 0.75567 0.84425 0.0
N282 N 0.66562 0.76417 0.82374 0.0
N283 N 0.70531 0.72302 0.82166 0.0
C284 C 0.63867 0.83703 0.84317 0.0
H285 H 0.63499 0.87121 0.8346 0.0
H286 H 0.59392 0.82229 0.84607 0.0
H287 H 0.66 0.85688 0.8529 0.0
C288 C 0.4779 0.66429 0.80164 0.0
N289 N 0.50528 0.71621 0.80127 0.0
N290 N 0.54747 0.71713 0.81107 0.0
C291 C 0.54571 0.6665 0.8187 0.0
C292 C 0.50195 0.63091 0.81291 0.0
C293 C 0.43769 0.64417 0.78967 0.0
H294 H 0.45163 0.66306 0.77901 0.0
H295 H 0.39274 0.65985 0.79202 0.0
H296 H 0.43734 0.59586 0.7886 0.0
O297 O 0.5643 0.78079 0.77525 0.0
O298 O 0.64227 0.78084 0.78975 0.0
H299 H 0.62789 0.63653 0.82694 0.0
H300 H 0.56623 0.61709 0.83824 0.0
C301 C 0.58532 0.65202 0.83126 0.0
H302 H 0.59274 0.69145 0.83808 0.0
H303 H 0.70877 0.6981 0.8121 0.0
O304 O 0.42893 0.77103 0.77516 0.0
C305 C 0.61935 0.7812 0.77697 0.0
Co306 Co 0.76937 0.48853 0.2138 0.0
Co307 Co 0.77378 0.385 0.19119 0.0
C308 C 0.8728 0.47051 0.19399 0.0
O309 O 0.84514 0.50026 0.20357 0.0
O310 O 0.85081 0.42449 0.18835 0.0
C311 C 0.7691 0.60698 0.22509 0.0
O312 O 0.78563 0.6221 0.2118 0.0
C313 C 0.78481 0.32479 0.16271 0.0
C314 C 0.7162 0.25722 0.16462 0.0
C315 C 0.75546 0.28174 0.1548 0.0
N316 N 0.76203 0.32705 0.17631 0.0
N317 N 0.722 0.28567 0.17747 0.0
C318 C 0.83607 0.36069 0.1579 0.0
H319 H 0.87061 0.35876 0.16642 0.0
H320 H 0.82245 0.40705 0.1567 0.0
H321 H 0.85485 0.34442 0.14744 0.0
C322 C 0.65454 0.50688 0.20038 0.0
N323 N 0.70699 0.48042 0.20073 0.0
N324 N 0.70933 0.4396 0.19057 0.0
C325 C 0.6588 0.44108 0.18286 0.0
C326 C 0.6222 0.48347 0.18888 0.0
C327 C 0.63312 0.54631 0.21239 0.0
H328 H 0.65066 0.53149 0.22311 0.0
H329 H 0.64908 0.5914 0.21034 0.0
H330 H 0.58473 0.54683 0.21306 0.0
O331 O 0.7747 0.4188 0.22602 0.0
O332 O 0.77804 0.34351 0.21064 0.0
H333 H 0.6311 0.35919 0.17399 0.0
H334 H 0.60958 0.42168 0.16323 0.0
C335 C 0.64525 0.40275 0.17 0.0
H336 H 0.68464 0.39749 0.16305 0.0
H337 H 0.69682 0.27852 0.18687 0.0
O338 O 0.75817 0.55361 0.22775 0.0
C339 C 0.77775 0.36414 0.22366 0.0
Co340 Co 0.49097 0.23102 0.78841 0.0
Co341 Co 0.38163 0.22382 0.8091 0.0
C342 C 0.46983 0.12723 0.80791 0.0
O343 O 0.50132 0.15563 0.79887 0.0
O344 O 0.42184 0.14804 0.81267 0.0
C345 C 0.60872 0.21854 0.77821 0.0
O346 O 0.61732 0.19589 0.79129 0.0
C347 C 0.32451 0.21891 0.83766 0.0
C348 C 0.23577 0.25216 0.83298 0.0
C349 C 0.27162 0.23237 0.84417 0.0
N350 N 0.32055 0.23049 0.82324 0.0
N351 N 0.26719 0.24982 0.82046 0.0
C352 C 0.37823 0.19559 0.84498 0.0
H353 H 0.41786 0.20811 0.8387 0.0
H354 H 0.38162 0.21162 0.85645 0.0
H355 H 0.37563 0.14713 0.84528 0.0
C356 C 0.50017 0.34767 0.80173 0.0
N357 N 0.47705 0.29369 0.80121 0.0
N358 N 0.43335 0.29 0.81056 0.0
C359 C 0.42916 0.34121 0.81788 0.0
C360 C 0.47066 0.37997 0.81234 0.0
C361 C 0.54386 0.36966 0.79079 0.0
H362 H 0.53638 0.34871 0.77998 0.0
H363 H 0.58846 0.35793 0.79456 0.0
H364 H 0.54113 0.41778 0.7894 0.0
O365 O 0.4247 0.22417 0.77507 0.0
O366 O 0.3453 0.21957 0.78903 0.0
H367 H 0.34207 0.35124 0.82617 0.0
H368 H 0.39654 0.3942 0.83588 0.0
C369 C 0.38767 0.35199 0.8303 0.0
H370 H 0.39268 0.31678 0.83852 0.0
H371 H 0.2526 0.26254 0.81008 0.0
O372 O 0.55945 0.24151 0.77538 0.0
C373 C 0.36958 0.22014 0.77642 0.0
Co374 Co 0.22331 0.50574 0.21292 0.0
Co375 Co 0.21841 0.61125 0.19088 0.0
C376 C 0.11909 0.52593 0.1935 0.0
O377 O 0.14692 0.49471 0.20276 0.0
O378 O 0.14156 0.57204 0.18804 0.0
C379 C 0.22279 0.3872 0.22438 0.0
O380 O 0.20435 0.3717 0.21128 0.0
C381 C 0.20995 0.67503 0.16266 0.0
C382 C 0.27462 0.74525 0.16626 0.0
C383 C 0.23841 0.72117 0.15565 0.0
N384 N 0.23004 0.67126 0.17652 0.0
N385 N 0.26765 0.71421 0.17868 0.0
C386 C 0.1631 0.63621 0.1566 0.0
H387 H 0.12907 0.62871 0.16503 0.0
H388 H 0.18236 0.59326 0.15361 0.0
H389 H 0.14181 0.656 0.14685 0.0
C390 C 0.33938 0.49111 0.19962 0.0
N391 N 0.286 0.51573 0.19993 0.0
N392 N 0.28295 0.55727 0.18997 0.0
C393 C 0.33377 0.55814 0.18241 0.0
C394 C 0.37181 0.51712 0.18847 0.0
C395 C 0.36094 0.44969 0.21116 0.0
H396 H 0.34278 0.46212 0.22201 0.0
H397 H 0.34563 0.40487 0.20851 0.0
H398 H 0.40929 0.44957 0.21194 0.0
O399 O 0.21752 0.57442 0.2255 0.0
O400 O 0.21454 0.65091 0.21053 0.0
H401 H 0.35469 0.64109 0.1729 0.0
H402 H 0.38275 0.57925 0.16283 0.0
C403 C 0.34507 0.59586 0.16929 0.0
H404 H 0.30579 0.59679 0.16217 0.0
H405 H 0.29059 0.72071 0.18845 0.0
O406 O 0.23524 0.44043 0.22675 0.0
C407 C 0.21462 0.62926 0.22344 0.0
Co408 Co 0.51019 0.72661 0.46571 0.0
Co409 Co 0.61194 0.71938 0.44252 0.0
C410 C 0.52414 0.62275 0.44576 0.0
O411 O 0.49562 0.6511 0.45545 0.0
O412 O 0.57016 0.64374 0.43991 0.0
C413 C 0.39234 0.73139 0.4775 0.0
O414 O 0.37569 0.71733 0.46415 0.0
C415 C 0.67169 0.70904 0.41372 0.0
C416 C 0.74668 0.76834 0.41708 0.0
C417 C 0.71954 0.73381 0.40659 0.0
N418 N 0.67022 0.72924 0.42761 0.0
N419 N 0.71577 0.76385 0.42959 0.0
C420 C 0.62908 0.66544 0.40774 0.0
H421 H 0.6207 0.63097 0.41601 0.0
H422 H 0.58707 0.68776 0.40533 0.0
H423 H 0.64585 0.64408 0.39765 0.0
C424 C 0.49564 0.84294 0.45242 0.0
N425 N 0.5198 0.78931 0.45264 0.0
N426 N 0.55989 0.78555 0.44233 0.0
C427 C 0.5605 0.83631 0.43473 0.0
C428 C 0.52047 0.87483 0.44102 0.0
C429 C 0.45546 0.8652 0.46415 0.0
H430 H 0.46813 0.84662 0.47493 0.0
H431 H 0.41018 0.851 0.46164 0.0
H432 H 0.45647 0.91358 0.46495 0.0
O433 O 0.58077 0.71816 0.47761 0.0
O434 O 0.6542 0.71339 0.46173 0.0
H435 H 0.64321 0.8551 0.42487 0.0
H436 H 0.58148 0.88561 0.41517 0.0
C437 C 0.59742 0.84715 0.42144 0.0
H438 H 0.5966 0.80814 0.41421 0.0
H439 H 0.72467 0.78597 0.43936 0.0
O440 O 0.44633 0.73935 0.48002 0.0
C441 C 0.63501 0.71313 0.47488 0.0
Co442 Co 0.73245 0.48482 0.53657 0.0
Co443 Co 0.71807 0.38938 0.56098 0.0
C444 C 0.62359 0.47486 0.55555 0.0
O445 O 0.65362 0.49641 0.54509 0.0
O446 O 0.64374 0.43406 0.56362 0.0
C447 C 0.73264 0.60176 0.52502 0.0
O448 O 0.71461 0.61589 0.53825 0.0
C449 C 0.71304 0.33783 0.59048 0.0
C450 C 0.7431 0.24738 0.58637 0.0
C451 C 0.72527 0.28516 0.59736 0.0
N452 N 0.72374 0.33169 0.57605 0.0
N453 N 0.74128 0.27741 0.57365 0.0
C454 C 0.68949 0.39253 0.5973 0.0
H455 H 0.70384 0.43143 0.59096 0.0
H456 H 0.70321 0.39657 0.60894 0.0
H457 H 0.64103 0.39092 0.59699 0.0
C458 C 0.84523 0.50153 0.55112 0.0
N459 N 0.7915 0.47791 0.55069 0.0
N460 N 0.78616 0.4388 0.5612 0.0
C461 C 0.83646 0.43762 0.56899 0.0
C462 C 0.87578 0.47704 0.56278 0.0
C463 C 0.86904 0.54017 0.53925 0.0
H464 H 0.8528 0.52526 0.52841 0.0
H465 H 0.85333 0.58553 0.54106 0.0
H466 H 0.91749 0.54016 0.53904 0.0
O467 O 0.72901 0.41371 0.52494 0.0
O468 O 0.71088 0.34591 0.54177 0.0
H469 H 0.84465 0.35275 0.57873 0.0
H470 H 0.88955 0.40851 0.58732 0.0
C471 C 0.84676 0.39937 0.58207 0.0
H472 H 0.81204 0.4074 0.59028 0.0
H473 H 0.75278 0.26107 0.56334 0.0
O474 O 0.74596 0.54888 0.52239 0.0
C475 C 0.71748 0.36114 0.52838 0.0
Co476 Co 0.48682 0.27298 0.46552 0.0
Co477 Co 0.38451 0.27583 0.4425 0.0
C478 C 0.46832 0.37641 0.44587 0.0
O479 O 0.4987 0.34923 0.45541 0.0
O480 O 0.42326 0.35324 0.44007 0.0
C481 C 0.60425 0.26952 0.47796 0.0
O482 O 0.62271 0.28253 0.4647 0.0
C483 C 0.32836 0.28617 0.41349 0.0
C484 C 0.25465 0.22433 0.41567 0.0
C485 C 0.28293 0.26031 0.40571 0.0
N486 N 0.32795 0.26487 0.42726 0.0
N487 N 0.28319 0.22872 0.42855 0.0
C488 C 0.36962 0.33264 0.40833 0.0
H489 H 0.36873 0.3698 0.41614 0.0
H490 H 0.41478 0.31487 0.40816 0.0
H491 H 0.35761 0.34942 0.39731 0.0
C492 C 0.50716 0.15798 0.4521 0.0
N493 N 0.48025 0.21026 0.45236 0.0
N494 N 0.43948 0.21186 0.44218 0.0
C495 C 0.44113 0.16098 0.43463 0.0
C496 C 0.48395 0.12498 0.44068 0.0
C497 C 0.54675 0.1371 0.46412 0.0
H498 H 0.53169 0.15452 0.47483 0.0
H499 H 0.59163 0.15354 0.46207 0.0
H500 H 0.54787 0.08868 0.46482 0.0
O501 O 0.41576 0.27809 0.47728 0.0
O502 O 0.34137 0.27971 0.46164 0.0
H503 H 0.35774 0.13541 0.42627 0.0
H504 H 0.41879 0.10855 0.41568 0.0
C505 C 0.40182 0.14637 0.42203 0.0
H506 H 0.39811 0.18455 0.4146 0.0
H507 H 0.27323 0.20556 0.43811 0.0
O508 O 0.54993 0.26219 0.48011 0.0
C509 C 0.36124 0.28031 0.47472 0.0
Co510 Co 0.26732 0.51361 0.53552 0.0
Co511 Co 0.27706 0.60949 0.55998 0.0
C512 C 0.37519 0.52827 0.5548 0.0
O513 O 0.34628 0.50546 0.54429 0.0
O514 O 0.35333 0.56842 0.5628 0.0
C515 C 0.26833 0.39559 0.52459 0.0
O516 O 0.28305 0.38235 0.53813 0.0
C517 C 0.28498 0.66672 0.5889 0.0
C518 C 0.22847 0.74405 0.58557 0.0
C519 C 0.26145 0.71494 0.59601 0.0
N520 N 0.26667 0.66733 0.57487 0.0
N521 N 0.23366 0.71415 0.57291 0.0
C522 C 0.31919 0.61774 0.59561 0.0
H523 H 0.30673 0.57556 0.59045 0.0
H524 H 0.31212 0.61548 0.60765 0.0
H525 H 0.36638 0.62512 0.59349 0.0
C526 C 0.15577 0.49085 0.5502 0.0
N527 N 0.20799 0.51761 0.54962 0.0
N528 N 0.21189 0.55631 0.56026 0.0
C529 C 0.16242 0.55375 0.56835 0.0
C530 C 0.12512 0.51215 0.56225 0.0
C531 C 0.13261 0.45331 0.53803 0.0
H532 H 0.14923 0.46924 0.52731 0.0
H533 H 0.14816 0.40777 0.53961 0.0
H534 H 0.08416 0.45343 0.5377 0.0
O535 O 0.26793 0.5846 0.52383 0.0
O536 O 0.28289 0.65292 0.54071 0.0
H537 H 0.14134 0.63682 0.57771 0.0
H538 H 0.11207 0.5752 0.58773 0.0
C539 C 0.15024 0.59147 0.58142 0.0
H540 H 0.18894 0.59207 0.58872 0.0
H541 H 0.21283 0.72446 0.56304 0.0
O542 O 0.25672 0.44847 0.52149 0.0
C543 C 0.27733 0.63755 0.5273 0.0
C544 C 0.15101 0.27591 0.2489 0.0
C545 C 0.16876 0.29422 0.26297 0.0
C546 C 0.17362 0.30204 0.23621 0.0
C547 C 0.21422 0.34804 0.23716 0.0
H548 H 0.11618 0.24414 0.2477 0.0
H549 H 0.15521 0.28954 0.22571 0.0
S550 S 0.28378 0.40358 0.27126 0.0
N551 N 0.23627 0.3543 0.27703 0.0
N552 N 0.27878 0.40372 0.25317 0.0
C553 C 0.23722 0.36205 0.25108 0.0
C554 C 0.2145 0.335 0.26401 0.0
C555 C 0.30672 0.85791 0.76456 0.0
C556 C 0.34149 0.80719 0.76467 0.0
C557 C 0.28322 0.87945 0.75144 0.0
C558 C 0.293 0.85077 0.73797 0.0
H559 H 0.30143 0.88389 0.77442 0.0
H560 H 0.26026 0.92092 0.75175 0.0
S561 S 0.37004 0.7093 0.73295 0.0
N562 N 0.37642 0.72359 0.75065 0.0
N563 N 0.33186 0.76395 0.72597 0.0
C564 C 0.32202 0.79653 0.73821 0.0
C565 C 0.34642 0.77479 0.75157 0.0
C566 C 0.81777 0.69358 0.23634 0.0
C567 C 0.77765 0.64732 0.23763 0.0
C568 C 0.84043 0.72107 0.24884 0.0
C569 C 0.82327 0.70378 0.26305 0.0
H570 H 0.83584 0.70524 0.22574 0.0
H571 H 0.875 0.75296 0.2474 0.0
S572 S 0.70902 0.59458 0.27211 0.0
N573 N 0.71375 0.59272 0.25402 0.0
N574 N 0.75634 0.64466 0.27753 0.0
C575 C 0.77779 0.66284 0.26438 0.0
C576 C 0.75503 0.63443 0.25165 0.0
C577 C 0.63788 0.22865 0.75185 0.0
C578 C 0.64795 0.20354 0.76577 0.0
C579 C 0.66302 0.20496 0.73912 0.0
C580 C 0.69868 0.15496 0.73985 0.0
H581 H 0.60743 0.26464 0.75064 0.0
H582 H 0.65078 0.22327 0.72859 0.0
S583 S 0.74837 0.0798 0.77374 0.0
N584 N 0.70374 0.13148 0.77963 0.0
N585 N 0.75025 0.08672 0.7557 0.0
C586 C 0.71368 0.13299 0.75378 0.0
C587 C 0.68861 0.15744 0.76675 0.0
C588 C 0.22468 0.14563 0.00089 0.0
C589 C 0.19844 0.15791 0.01457 0.0
C590 C 0.20282 0.16979 0.98784 0.0
C591 C 0.15377 0.20676 0.98802 0.0
H592 H 0.25982 0.11401 1.00009 0.0
H593 H 0.2215 0.15556 0.97751 0.0
S594 S 0.07776 0.26352 0.02107 0.0
N595 N 0.12739 0.21799 0.0276 0.0
N596 N 0.08609 0.26269 0.00306 0.0
C597 C 0.13125 0.22438 0.00169 0.0
C598 C 0.15375 0.20023 0.01499 0.0
C599 C 0.15043 0.77862 0.99893 0.0
C600 C 0.16268 0.80523 0.98529 0.0
C601 C 0.17567 0.79927 0.01197 0.0
C602 C 0.21375 0.84746 0.01184 0.0
H603 H 0.11804 0.7442 0.9997 0.0
H604 H 0.16133 0.78059 0.0223 0.0
S605 S 0.27062 0.92385 0.97887 0.0
N606 N 0.22377 0.87555 0.97231 0.0
N607 N 0.27042 0.91462 0.99685 0.0
C608 C 0.23128 0.87019 0.99818 0.0
C609 C 0.20602 0.84892 0.98489 0.0
C610 C 0.87427 0.77721 0.00075 0.0
C611 C 0.84958 0.79131 0.98705 0.0
C612 C 0.85167 0.80036 0.0138 0.0
C613 C 0.80397 0.83921 0.01362 0.0
H614 H 0.91365 0.75096 0.00135 0.0
H615 H 0.8748 0.79128 0.02393 0.0
S616 S 0.71676 0.88112 0.98086 0.0
N617 N 0.76956 0.83943 0.97427 0.0
N618 N 0.72707 0.8833 0.9988 0.0
C619 C 0.77518 0.84879 1.00015 0.0
C620 C 0.79799 0.82473 0.98685 0.0
C621 C 0.82899 0.1989 0.01152 0.0
C622 C 0.79423 0.14823 0.01133 0.0
C623 C 0.85333 0.22108 0.99852 0.0
C624 C 0.84339 0.19367 0.98487 0.0
H625 H 0.84136 0.21884 0.02185 0.0
H626 H 0.88321 0.2577 0.99933 0.0
S627 S 0.74496 0.0671 0.97827 0.0
N628 N 0.74341 0.0768 0.99623 0.0
N629 N 0.78846 0.11862 0.97181 0.0
C630 C 0.80345 0.14683 0.9844 0.0
C631 C 0.77914 0.124 0.99765 0.0
C632 C 0.70161 0.83167 0.76426 0.0
C633 C 0.65536 0.79137 0.76375 0.0
C634 C 0.72352 0.8568 0.75132 0.0
C635 C 0.70006 0.84227 0.73746 0.0
H636 H 0.71732 0.84793 0.77471 0.0
H637 H 0.75602 0.89104 0.75233 0.0
S638 S 0.58811 0.72822 0.73025 0.0
N639 N 0.59401 0.73021 0.7483 0.0
N640 N 0.63537 0.77678 0.724 0.0
C641 C 0.65881 0.79668 0.73678 0.0
C642 C 0.63633 0.77146 0.74994 0.0
C643 C 0.83548 0.28426 0.23529 0.0
C644 C 0.79112 0.3265 0.23641 0.0
C645 C 0.86344 0.26283 0.2479 0.0
C646 C 0.84767 0.2826 0.26204 0.0
H647 H 0.85252 0.27188 0.22463 0.0
H648 H 0.9005 0.23385 0.24647 0.0
S649 S 0.72439 0.38244 0.27076 0.0
N650 N 0.72567 0.37955 0.25265 0.0
N651 N 0.77747 0.33886 0.27637 0.0
C652 C 0.79847 0.31924 0.2633 0.0
C653 C 0.77042 0.34138 0.25046 0.0
C654 C 0.33924 0.20295 0.73605 0.0
C655 C 0.29566 0.15962 0.73589 0.0
C656 C 0.35903 0.22682 0.7493 0.0
C657 C 0.33569 0.20873 0.76287 0.0
H658 H 0.36168 0.21519 0.72604 0.0
H659 H 0.39579 0.25669 0.74895 0.0
S660 S 0.21126 0.10708 0.76816 0.0
N661 N 0.22232 0.10759 0.75025 0.0
N662 N 0.25996 0.15253 0.77516 0.0
C663 C 0.28733 0.17093 0.76274 0.0
C664 C 0.26722 0.14631 0.74923 0.0
C665 C 0.16006 0.71131 0.23514 0.0
C666 C 0.20139 0.66612 0.23635 0.0
C667 C 0.13226 0.73379 0.24766 0.0
C668 C 0.14525 0.71219 0.26179 0.0
H669 H 0.14515 0.72566 0.22444 0.0
H670 H 0.09743 0.76534 0.24613 0.0
S671 S 0.26003 0.60318 0.2709 0.0
N672 N 0.26115 0.60751 0.2528 0.0
N673 N 0.20951 0.65001 0.27633 0.0
C674 C 0.19153 0.67203 0.26322 0.0
C675 C 0.21942 0.64885 0.25047 0.0
C676 C 0.68121 0.68726 0.51398 0.0
C677 C 0.72219 0.64178 0.51248 0.0
C678 C 0.65718 0.71457 0.50162 0.0
C679 C 0.6738 0.69802 0.48732 0.0
H680 H 0.66372 0.69856 0.52466 0.0
H681 H 0.62229 0.74598 0.50326 0.0
S682 S 0.78946 0.59104 0.47764 0.0
N683 N 0.7859 0.58862 0.49574 0.0
N684 N 0.74084 0.64035 0.47248 0.0
C685 C 0.71983 0.65777 0.48574 0.0
C686 C 0.74398 0.62948 0.49835 0.0
C687 C 0.69402 0.31095 0.48955 0.0
C688 C 0.64315 0.27689 0.49086 0.0
C689 C 0.72228 0.33297 0.50202 0.0
C690 C 0.70107 0.32129 0.51624 0.0
H691 H 0.70935 0.32497 0.47886 0.0
H692 H 0.75827 0.36315 0.50045 0.0
S693 S 0.5779 0.22267 0.52563 0.0
N694 N 0.57917 0.22353 0.5075 0.0
N695 N 0.6324 0.26503 0.53094 0.0
C696 C 0.65482 0.28127 0.51773 0.0
C697 C 0.62572 0.25912 0.50502 0.0
C698 C 0.25897 0.3682 0.49811 0.0
C699 C 0.27802 0.35366 0.51238 0.0
C700 C 0.28083 0.33894 0.48574 0.0
C701 C 0.32283 0.29453 0.48724 0.0
H702 H 0.23025 0.40527 0.49638 0.0
H703 H 0.26908 0.35509 0.47495 0.0
S704 S 0.37706 0.23095 0.52213 0.0
N705 N 0.33337 0.28466 0.52729 0.0
N706 N 0.37496 0.23047 0.50401 0.0
C707 C 0.33698 0.27508 0.50145 0.0
C708 C 0.31437 0.30443 0.51405 0.0
C709 C 0.27383 0.66503 0.50088 0.0
C710 C 0.29308 0.67794 0.51521 0.0
C711 C 0.30262 0.68764 0.48855 0.0
C712 C 0.35207 0.72358 0.49011 0.0
H713 H 0.23923 0.63341 0.49914 0.0
H714 H 0.28906 0.67255 0.4778 0.0
S715 S 0.41108 0.7819 0.52515 0.0
N716 N 0.35774 0.73762 0.53021 0.0
N717 N 0.41197 0.78016 0.50703 0.0
C718 C 0.36716 0.74263 0.50433 0.0
C719 C 0.33751 0.71988 0.5169 0.0
C720 C 0.95291 0.03645 0.31393 0.0
C721 C 0.00939 0.06052 0.31316 0.0
C722 C 0.94426 0.97572 0.31375 0.0
C723 C 0.99192 0.9369 0.31318 0.0
H724 H 0.91497 0.06484 0.3139 0.0
H725 H 0.89991 0.95931 0.31327 0.0
S726 S 0.14874 0.97721 0.31271 0.0
N727 N 0.11382 0.0404 0.3124 0.0
N728 N 0.09751 0.92649 0.31356 0.0
C729 C 0.04863 0.96031 0.3136 0.0
C730 C 0.05745 0.02208 0.31326 0.0
C731 C 0.02823 0.00091 0.67645 0.0
C732 C 0.06155 0.99528 0.68933 0.0
C733 C 0.96726 0.00812 0.67716 0.0
C734 C 0.93829 0.00983 0.69078 0.0
H735 H 0.04947 0.00016 0.66582 0.0
H736 H 0.94262 0.01216 0.66706 0.0
S737 S 0.00632 0.99741 0.7276 0.0
N738 N 0.0612 0.99018 0.71599 0.0
N739 N 0.94769 0.00752 0.71736 0.0
C740 C 0.97142 0.00474 0.70369 0.0
C741 C 0.03287 0.99638 0.70295 0.0
C742 C 0.00285 0.53153 0.9509 0.0
C743 C 0.00342 0.56268 0.93762 0.0
C744 C 0.00712 0.47064 0.95105 0.0
C745 C 0.01127 0.43875 0.93792 0.0
H746 H 0.99867 0.55439 0.96127 0.0
H747 H 0.00748 0.44839 0.96156 0.0
S748 S 0.01462 0.49978 0.90026 0.0
N749 N 0.00922 0.55778 0.91102 0.0
N750 N 0.01585 0.44234 0.91128 0.0
C751 C 0.01194 0.46925 0.92455 0.0
C752 C 0.00808 0.53153 0.9244 0.0
C753 C 0.53272 0.00033 0.04891 0.0
C754 C 0.5646 0.00408 0.06205 0.0
C755 C 0.47189 0.99602 0.04905 0.0
C756 C 0.44073 0.99614 0.06233 0.0
H757 H 0.55495 0.00113 0.0384 0.0
H758 H 0.44906 0.99229 0.03867 0.0
S759 S 0.50359 0.00589 0.09972 0.0
N760 N 0.56099 0.00755 0.08869 0.0
N761 N 0.44565 0.00088 0.08894 0.0
C762 C 0.47186 0.00023 0.07556 0.0
C763 C 0.53411 0.00411 0.07542 0.0
C764 C 0.53249 0.4685 0.81634 0.0
C765 C 0.4765 0.44375 0.81504 0.0
C766 C 0.54036 0.52925 0.81635 0.0
C767 C 0.49232 0.56756 0.8156 0.0
H768 H 0.57081 0.44065 0.81661 0.0
H769 H 0.58459 0.54598 0.81615 0.0
S770 S 0.33614 0.52529 0.81384 0.0
N771 N 0.37195 0.46261 0.81337 0.0
N772 N 0.38654 0.57655 0.81541 0.0
C773 C 0.43587 0.5434 0.81556 0.0
C774 C 0.42794 0.48157 0.81481 0.0
C775 C 0.5206 0.44535 0.18525 0.0
C776 C 0.55914 0.49321 0.18591 0.0
C777 C 0.45988 0.45372 0.18506 0.0
C778 C 0.43553 0.51012 0.18589 0.0
H779 H 0.5372 0.40102 0.18567 0.0
H780 H 0.43171 0.41562 0.18501 0.0
S781 S 0.51803 0.64995 0.18654 0.0
N782 N 0.56899 0.59893 0.18566 0.0
N783 N 0.45508 0.61471 0.18679 0.0
C784 C 0.47369 0.55839 0.18588 0.0
C785 C 0.53545 0.54986 0.18556 0.0
C786 C 0.45588 0.962 0.43761 0.0
C787 C 0.51259 0.93833 0.43821 0.0
C788 C 0.4468 0.02267 0.43762 0.0
C789 C 0.4942 0.06181 0.4379 0.0
H790 H 0.41816 0.93337 0.43787 0.0
H791 H 0.40237 0.03882 0.4382 0.0
S792 S 0.65132 0.02248 0.43792 0.0
N793 N 0.61688 0.95906 0.43848 0.0
N794 N 0.59969 0.07287 0.43717 0.0
C795 C 0.55106 0.03874 0.43737 0.0
C796 C 0.56035 0.97703 0.43782 0.0
C797 C 0.02367 0.5494 0.56647 0.0
C798 C 0.06247 0.50182 0.56554 0.0
C799 C 0.96304 0.5406 0.56669 0.0
C800 C 0.93914 0.48408 0.56569 0.0
H801 H 0.03999 0.59384 0.56616 0.0
H802 H 0.93456 0.57849 0.56679 0.0
S803 S 0.0224 0.34487 0.56432 0.0
N804 N 0.07309 0.39614 0.56526 0.0
N805 N 0.95914 0.37969 0.56442 0.0
C806 C 0.97752 0.43604 0.5655 0.0
C807 C 0.03922 0.44497 0.56571 0.0
C808 C 0.94131 0.51884 0.30864 0.0
C809 C 0.98564 0.56133 0.30752 0.0
C810 C 0.95466 0.45884 0.30843 0.0
C811 C 0.01287 0.43933 0.3076 0.0
H812 H 0.89578 0.5319 0.30875 0.0
H813 H 0.91912 0.42751 0.3085 0.0
S814 S 0.14509 0.53309 0.30565 0.0
N815 N 0.09006 0.57982 0.30624 0.0
N816 N 0.11534 0.46734 0.30645 0.0
C817 C 0.05773 0.48145 0.30738 0.0
C818 C 0.04406 0.5424 0.30718 0.0
C819 C 0.46153 0.04266 0.68761 0.0
C820 C 0.44019 0.98502 0.68845 0.0
C821 C 0.5217 0.05424 0.68785 0.0
C822 C 0.56258 0.00862 0.6893 0.0
H823 H 0.43144 0.07928 0.68754 0.0
H824 H 0.53591 0.09944 0.68805 0.0
S825 S 0.52972 0.84974 0.69001 0.0
N826 N 0.46498 0.88152 0.6891 0.0
N827 N 0.57799 0.90343 0.68992 0.0
C828 C 0.54202 0.95065 0.68905 0.0
C829 C 0.4808 0.93879 0.68851 0.0
C830 C 0.05821 0.02107 0.93796 0.0
C831 C 0.0122 0.06185 0.93843 0.0
C832 C 0.04695 0.96083 0.93819 0.0
C833 C 0.98934 0.93937 0.93854 0.0
H834 H 0.10321 0.03563 0.93855 0.0
H835 H 0.08363 0.93092 0.93882 0.0
S836 S 0.85365 0.02833 0.93766 0.0
N837 N 0.90708 0.07687 0.93771 0.0
N838 N 0.88579 0.96363 0.93777 0.0
C839 C 0.943 0.97968 0.93769 0.0
C840 C 0.95448 0.041 0.93774 0.0
C841 C 0.98218 0.05433 0.0603 0.0
C842 C 0.9415 0.00826 0.06032 0.0
C843 C 0.04237 0.04305 0.06015 0.0
C844 C 0.06394 0.98537 0.06034 0.0
H845 H 0.96757 0.09926 0.05931 0.0
H846 H 0.07216 0.07969 0.05918 0.0
S847 S 0.97511 0.84986 0.06277 0.0
N848 N 0.92657 0.90328 0.06217 0.0
N849 N 0.03973 0.88194 0.06224 0.0
C850 C 0.02367 0.93916 0.06169 0.0
C851 C 0.96239 0.95065 0.06156 0.0
C852 C 0.44039 0.02338 0.81189 0.0
C853 C 0.48508 0.06557 0.81108 0.0
C854 C 0.45335 0.96341 0.81166 0.0
C855 C 0.51148 0.94351 0.81106 0.0
H856 H 0.39492 0.03663 0.81168 0.0
H857 H 0.41754 0.93241 0.81139 0.0
S858 S 0.64452 0.03626 0.8105 0.0
N859 N 0.58978 0.08338 0.81078 0.0
N860 N 0.61425 0.97068 0.81084 0.0
C861 C 0.55666 0.98521 0.81135 0.0
C862 C 0.54342 0.04626 0.81123 0.0
C863 C 0.97703 0.44101 0.19045 0.0
C864 C 0.93459 0.48558 0.19097 0.0
C865 C 0.03699 0.45431 0.19058 0.0
C866 C 0.0566 0.51264 0.19075 0.0
H867 H 0.96393 0.3955 0.19089 0.0
H868 H 0.0682 0.41868 0.19102 0.0
S869 S 0.96283 0.64524 0.19067 0.0
N870 N 0.91613 0.59017 0.19078 0.0
N871 N 0.02855 0.61533 0.19042 0.0
C872 C 0.0145 0.55756 0.19028 0.0
C873 C 0.95355 0.54399 0.19055 0.0
C874 C 0.55287 0.51834 0.44222 0.0
C875 C 0.50843 0.5609 0.44298 0.0
C876 C 0.53957 0.45838 0.44251 0.0
C877 C 0.48133 0.43887 0.44307 0.0
H878 H 0.5984 0.53137 0.44235 0.0
H879 H 0.57515 0.42709 0.44275 0.0
S880 S 0.34893 0.53272 0.44382 0.0
N881 N 0.40396 0.57947 0.44352 0.0
N882 N 0.37875 0.46691 0.44341 0.0
C883 C 0.43643 0.48099 0.44287 0.0
C884 C 0.45003 0.54199 0.443 0.0
C885 C 0.46985 0.50622 0.5428 0.0
C886 C 0.4382 0.5141 0.55589 0.0
C887 C 0.52987 0.49519 0.54298 0.0
C888 C 0.56079 0.49007 0.55626 0.0
H889 H 0.44822 0.5096 0.53225 0.0
H890 H 0.55206 0.48938 0.53256 0.0
S891 S 0.49857 0.50628 0.59362 0.0
N892 N 0.44226 0.51693 0.58255 0.0
N893 N 0.55543 0.49318 0.5829 0.0
C894 C 0.52983 0.49709 0.56948 0.0
C895 C 0.46851 0.51009 0.56929 0.0
C896 C 0.20991 0.26794 0.38548 0.0
C897 C 0.26867 0.26444 0.38988 0.0
C898 C 0.19447 0.2684 0.37059 0.0
C899 C 0.23728 0.26625 0.35948 0.0
H900 H 0.17545 0.26952 0.39363 0.0
H901 H 0.14847 0.26839 0.36784 0.0
S902 S 0.39701 0.24935 0.36524 0.0
N903 N 0.36943 0.25194 0.38198 0.0
N904 N 0.34088 0.25668 0.354 0.0
C905 C 0.2962 0.26153 0.36376 0.0
C906 C 0.31182 0.25992 0.37894 0.0
C907 C 0.21026 0.74763 0.63464 0.0
C908 C 0.26271 0.75926 0.6421 0.0
C909 C 0.21038 0.73349 0.61966 0.0
C910 C 0.26305 0.72902 0.6118 0.0
H911 H 0.16882 0.75067 0.64035 0.0
H912 H 0.16902 0.72558 0.61422 0.0
S913 S 0.41207 0.75345 0.62645 0.0
N914 N 0.36857 0.76476 0.64066 0.0
N915 N 0.36887 0.73662 0.61253 0.0
C916 C 0.31582 0.73947 0.61919 0.0
C917 C 0.31563 0.75504 0.63437 0.0
C918 C 0.70888 0.72868 0.36487 0.0
C919 C 0.76757 0.73241 0.36042 0.0
C920 C 0.69361 0.72826 0.37977 0.0
C921 C 0.73653 0.73066 0.39085 0.0
H922 H 0.67435 0.72687 0.35674 0.0
H923 H 0.64764 0.72809 0.38255 0.0
S924 S 0.89611 0.74837 0.38495 0.0
N925 N 0.86833 0.74556 0.36824 0.0
N926 N 0.84017 0.74076 0.39624 0.0
C927 C 0.79538 0.73564 0.38651 0.0
C928 C 0.81081 0.73726 0.37133 0.0
C929 C 0.69059 0.21317 0.63374 0.0
C930 C 0.73047 0.2399 0.64344 0.0
C931 C 0.68878 0.22844 0.61883 0.0
C932 C 0.72569 0.27195 0.61319 0.0
H933 H 0.65995 0.18076 0.63767 0.0
H934 H 0.65801 0.20637 0.61168 0.0
S935 S 0.83836 0.35477 0.63367 0.0
N936 N 0.80825 0.31171 0.64612 0.0
N937 N 0.80394 0.34077 0.61813 0.0
C938 C 0.76524 0.29951 0.62269 0.0
C939 C 0.7676 0.28363 0.63783 0.0
C940 C 0.20762 0.19266 0.88115 0.0
C941 C 0.23187 0.2353 0.89052 0.0
C942 C 0.22026 0.19214 0.86608 0.0
C943 C 0.25819 0.23368 0.85995 0.0
H944 H 0.17952 0.15878 0.8855 0.0
H945 H 0.20094 0.15863 0.85921 0.0
S946 S 0.33206 0.35505 0.87944 0.0
N947 N 0.29484 0.32072 0.89238 0.0
N948 N 0.31896 0.31902 0.86407 0.0
C949 C 0.2828 0.27636 0.86911 0.0
C950 C 0.26976 0.27717 0.88441 0.0
C951 C 0.22948 0.69628 0.12879 0.0
C952 C 0.23758 0.73847 0.1399 0.0
C953 C 0.23085 0.71163 0.1139 0.0
C954 C 0.24164 0.76947 0.10948 0.0
H955 H 0.22378 0.65061 0.1315 0.0
H956 H 0.22378 0.67779 0.10575 0.0
S957 S 0.27667 0.89438 0.13397 0.0
N958 N 0.262 0.83987 0.14527 0.0
N959 N 0.26928 0.86736 0.11727 0.0
C960 C 0.25334 0.81144 0.12038 0.0
C961 C 0.25038 0.79621 0.13556 0.0
C962 C 0.71406 0.76906 0.88593 0.0
C963 C 0.772 0.75674 0.88998 0.0
C964 C 0.6969 0.76915 0.87116 0.0
C965 C 0.7373 0.75803 0.85982 0.0
H966 H 0.68154 0.77831 0.89426 0.0
H967 H 0.65119 0.77631 0.86873 0.0
S968 S 0.89245 0.71471 0.86481 0.0
N969 N 0.86794 0.72519 0.88165 0.0
N970 N 0.83697 0.72954 0.85383 0.0
C971 C 0.79506 0.74385 0.86379 0.0
C972 C 0.81217 0.74242 0.87886 0.0
C973 C 0.75384 0.19195 0.11982 0.0
C974 C 0.76178 0.23371 0.10861 0.0
C975 C 0.75337 0.20797 0.13467 0.0
C976 C 0.75927 0.26662 0.13899 0.0
H977 H 0.74601 0.14658 0.11731 0.0
H978 H 0.7476 0.17402 0.14285 0.0
S979 S 0.76949 0.39472 0.11408 0.0
N980 N 0.77039 0.33758 0.10301 0.0
N981 N 0.76395 0.36775 0.13082 0.0
C982 C 0.76352 0.30942 0.12796 0.0
C983 C 0.76583 0.29298 0.11282 0.0
loop_
_geom_bond_atom_site_label_1
_geom_bond_atom_site_label_2
_geom_bond_distance
_geom_bond_site_symmetry_2
_ccdc_geom_bond_type
Co0 O3 1.970 1_455 S
Co0 N17 1.989 . S
Co0 O25 1.967 . S
Co0 O32 1.920 1_455 S
Co1 O4 1.966 . S
Co1 N10 2.022 . S
Co1 N18 1.993 . S
Co1 O26 1.941 . S
C2 O3 1.258 1_455 S
C2 O4 1.263 . S
O3 Co0 1.970 1_655 S
O3 C2 1.258 1_655 S
O4 Co1 1.966 . S
O4 C2 1.263 . S
C5 O6 1.235 . S
C5 O32 1.289 . S
O6 C5 1.235 . S
C7 C9 1.400 . S
C7 N10 1.351 . S
C7 C12 1.501 . S
C8 C9 1.387 . S
C8 N11 1.341 . S
C9 C7 1.400 . S
C9 C8 1.387 . S
N10 Co1 2.022 . S
N10 C7 1.351 . S
N10 N11 1.365 . S
N11 C8 1.341 . S
N11 N10 1.365 . S
N11 H31 0.862 . S
C12 C7 1.501 . S
C12 H13 0.961 . S
C12 H14 0.961 . S
C12 H15 0.960 . S
H13 C12 0.961 . S
H14 C12 0.961 . S
H15 C12 0.960 . S
C16 N17 1.342 1_655 S
C16 C20 1.401 1_655 S
C16 C21 1.499 . S
N17 Co0 1.989 . S
N17 C16 1.342 1_455 S
N17 N18 1.388 . S
N18 Co1 1.993 . S
N18 N17 1.388 . S
N18 C19 1.346 . S
C19 N18 1.346 . S
C19 C20 1.396 . S
C19 C29 1.510 . S
C20 C16 1.401 1_455 S
C20 C19 1.396 . S
C21 C16 1.499 . S
C21 H22 0.959 . S
C21 H23 0.960 . S
C21 H24 0.961 . S
H22 C21 0.959 . S
H23 C21 0.960 . S
H24 C21 0.961 . S
O25 Co0 1.967 . S
O25 C33 1.258 . S
O26 Co1 1.941 . S
O26 C33 1.266 . S
H27 C29 0.959 . S
H28 C29 0.961 . S
C29 C19 1.510 . S
C29 H27 0.959 . S
C29 H28 0.961 . S
C29 H30 0.960 . S
H30 C29 0.960 . S
H31 N11 0.862 . S
O32 Co0 1.920 1_655 S
O32 C5 1.289 . S
C33 O25 1.258 . S
C33 O26 1.266 . S
Co34 O37 1.970 1_565 S
Co34 N51 1.989 . S
Co34 O59 1.967 . S
Co34 O66 1.920 1_565 S
Co35 O38 1.966 . S
Co35 N44 2.022 . S
Co35 N52 1.993 . S
Co35 O60 1.941 . S
C36 O37 1.258 1_565 S
C36 O38 1.263 . S
O37 Co34 1.970 1_545 S
O37 C36 1.258 1_545 S
O38 Co35 1.966 . S
O38 C36 1.263 . S
C39 O40 1.235 . S
C39 O66 1.289 . S
O40 C39 1.235 . S
C41 C43 1.400 . S
C41 N44 1.351 . S
C41 C46 1.501 . S
C42 C43 1.387 . S
C42 N45 1.341 . S
C43 C41 1.400 . S
C43 C42 1.387 . S
N44 Co35 2.022 . S
N44 C41 1.351 . S
N44 N45 1.365 . S
N45 C42 1.341 . S
N45 N44 1.365 . S
N45 H65 0.862 . S
C46 C41 1.501 . S
C46 H47 0.961 . S
C46 H48 0.961 . S
C46 H49 0.960 . S
H47 C46 0.961 . S
H48 C46 0.961 . S
H49 C46 0.960 . S
C50 N51 1.342 1_545 S
C50 C54 1.401 1_545 S
C50 C55 1.499 . S
N51 Co34 1.989 . S
N51 C50 1.342 1_565 S
N51 N52 1.388 . S
N52 Co35 1.993 . S
N52 N51 1.388 . S
N52 C53 1.346 . S
C53 N52 1.346 . S
C53 C54 1.396 . S
C53 C63 1.510 . S
C54 C50 1.401 1_565 S
C54 C53 1.396 . S
C55 C50 1.499 . S
C55 H56 0.959 . S
C55 H57 0.960 . S
C55 H58 0.961 . S
H56 C55 0.959 . S
H57 C55 0.960 . S
H58 C55 0.961 . S
O59 Co34 1.967 . S
O59 C67 1.258 . S
O60 Co35 1.941 . S
O60 C67 1.266 . S
H61 C63 0.959 . S
H62 C63 0.961 . S
C63 C53 1.510 . S
C63 H61 0.959 . S
C63 H62 0.961 . S
C63 H64 0.960 . S
H64 C63 0.960 . S
H65 N45 0.862 . S
O66 Co34 1.920 1_545 S
O66 C39 1.289 . S
C67 O59 1.258 . S
C67 O60 1.266 . S
Co68 O71 1.970 1_655 S
Co68 N85 1.989 . S
Co68 O93 1.967 . S
Co68 O100 1.920 1_655 S
Co69 O72 1.966 . S
Co69 N78 2.022 . S
Co69 N86 1.993 . S
Co69 O94 1.941 . S
C70 O71 1.258 1_655 S
C70 O72 1.263 . S
O71 Co68 1.970 1_455 S
O71 C70 1.258 1_455 S
O72 Co69 1.966 . S
O72 C70 1.263 . S
C73 O74 1.235 . S
C73 O100 1.289 . S
O74 C73 1.235 . S
C75 C77 1.400 . S
C75 N78 1.351 . S
C75 C80 1.501 . S
C76 C77 1.387 . S
C76 N79 1.341 . S
C77 C75 1.400 . S
C77 C76 1.387 . S
N78 Co69 2.022 . S
N78 C75 1.351 . S
N78 N79 1.365 . S
N79 C76 1.341 . S
N79 N78 1.365 . S
N79 H99 0.862 . S
C80 C75 1.501 . S
C80 H81 0.961 . S
C80 H82 0.961 . S
C80 H83 0.960 . S
H81 C80 0.961 . S
H82 C80 0.961 . S
H83 C80 0.960 . S
C84 N85 1.342 1_455 S
C84 C88 1.401 1_455 S
C84 C89 1.499 . S
N85 Co68 1.989 . S
N85 C84 1.342 1_655 S
N85 N86 1.388 . S
N86 Co69 1.993 . S
N86 N85 1.388 . S
N86 C87 1.346 . S
C87 N86 1.346 . S
C87 C88 1.396 . S
C87 C97 1.510 . S
C88 C84 1.401 1_655 S
C88 C87 1.396 . S
C89 C84 1.499 . S
C89 H90 0.959 . S
C89 H91 0.960 . S
C89 H92 0.961 . S
H90 C89 0.959 . S
H91 C89 0.960 . S
H92 C89 0.961 . S
O93 Co68 1.967 . S
O93 C101 1.258 . S
O94 Co69 1.941 . S
O94 C101 1.266 . S
H95 C97 0.959 . S
H96 C97 0.961 . S
C97 C87 1.510 . S
C97 H95 0.959 . S
C97 H96 0.961 . S
C97 H98 0.960 . S
H98 C97 0.960 . S
H99 N79 0.862 . S
O100 Co68 1.920 1_455 S
O100 C73 1.289 . S
C101 O93 1.258 . S
C101 O94 1.266 . S
Co102 O105 1.970 1_545 S
Co102 N119 1.989 . S
Co102 O127 1.967 . S
Co102 O134 1.920 1_545 S
Co103 O106 1.966 . S
Co103 N112 2.022 . S
Co103 N120 1.993 . S
Co103 O128 1.941 . S
C104 O105 1.258 1_545 S
C104 O106 1.263 . S
O105 Co102 1.970 1_565 S
O105 C104 1.258 1_565 S
O106 Co103 1.966 . S
O106 C104 1.263 . S
C107 O108 1.235 . S
C107 O134 1.289 . S
O108 C107 1.235 . S
C109 C111 1.400 . S
C109 N112 1.351 . S
C109 C114 1.501 . S
C110 C111 1.387 . S
C110 N113 1.341 . S
C111 C109 1.400 . S
C111 C110 1.387 . S
N112 Co103 2.022 . S
N112 C109 1.351 . S
N112 N113 1.365 . S
N113 C110 1.341 . S
N113 N112 1.365 . S
N113 H133 0.862 . S
C114 C109 1.501 . S
C114 H115 0.961 . S
C114 H116 0.961 . S
C114 H117 0.960 . S
H115 C114 0.961 . S
H116 C114 0.961 . S
H117 C114 0.960 . S
C118 N119 1.342 1_565 S
C118 C122 1.401 1_565 S
C118 C123 1.499 . S
N119 Co102 1.989 . S
N119 C118 1.342 1_545 S
N119 N120 1.388 . S
N120 Co103 1.993 . S
N120 N119 1.388 . S
N120 C121 1.346 . S
C121 N120 1.346 . S
C121 C122 1.396 . S
C121 C131 1.510 . S
C122 C118 1.401 1_545 S
C122 C121 1.396 . S
C123 C118 1.499 . S
C123 H124 0.959 . S
C123 H125 0.960 . S
C123 H126 0.961 . S
H124 C123 0.959 . S
H125 C123 0.960 . S
H126 C123 0.961 . S
O127 Co102 1.967 . S
O127 C135 1.258 . S
O128 Co103 1.941 . S
O128 C135 1.266 . S
H129 C131 0.959 . S
H130 C131 0.961 . S
C131 C121 1.510 . S
C131 H129 0.959 . S
C131 H130 0.961 . S
C131 H132 0.960 . S
H132 C131 0.960 . S
H133 N113 0.862 . S
O134 Co102 1.920 1_565 S
O134 C107 1.289 . S
C135 O127 1.258 . S
C135 O128 1.266 . S
Co136 O139 1.970 1_455 S
Co136 N153 1.989 . S
Co136 O161 1.967 . S
Co136 O168 1.920 1_455 S
Co137 O140 1.966 . S
Co137 N146 2.022 . S
Co137 N154 1.993 . S
Co137 O162 1.941 . S
C138 O139 1.258 1_455 S
C138 O140 1.263 . S
O139 Co136 1.970 1_655 S
O139 C138 1.258 1_655 S
O140 Co137 1.966 . S
O140 C138 1.263 . S
C141 O142 1.235 . S
C141 O168 1.289 . S
O142 C141 1.235 . S
C143 C145 1.400 . S
C143 N146 1.351 . S
C143 C148 1.501 . S
C144 C145 1.387 . S
C144 N147 1.341 . S
C145 C143 1.400 . S
C145 C144 1.387 . S
N146 Co137 2.022 . S
N146 C143 1.351 . S
N146 N147 1.365 . S
N147 C144 1.341 . S
N147 N146 1.365 . S
N147 H167 0.862 . S
C148 C143 1.501 . S
C148 H149 0.961 . S
C148 H150 0.961 . S
C148 H151 0.960 . S
H149 C148 0.961 . S
H150 C148 0.961 . S
H151 C148 0.960 . S
C152 N153 1.342 1_655 S
C152 C156 1.401 1_655 S
C152 C157 1.499 . S
N153 Co136 1.989 . S
N153 C152 1.342 1_455 S
N153 N154 1.388 . S
N154 Co137 1.993 . S
N154 N153 1.388 . S
N154 C155 1.346 . S
C155 N154 1.346 . S
C155 C156 1.396 . S
C155 C165 1.510 . S
C156 C152 1.401 1_455 S
C156 C155 1.396 . S
C157 C152 1.499 . S
C157 H158 0.959 . S
C157 H159 0.960 . S
C157 H160 0.961 . S
H158 C157 0.959 . S
H159 C157 0.960 . S
H160 C157 0.961 . S
O161 Co136 1.967 . S
O161 C169 1.258 . S
O162 Co137 1.941 . S
O162 C169 1.266 . S
H163 C165 0.959 . S
H164 C165 0.961 . S
C165 C155 1.510 . S
C165 H163 0.959 . S
C165 H164 0.961 . S
C165 H166 0.960 . S
H166 C165 0.960 . S
H167 N147 0.862 . S
O168 Co136 1.920 1_655 S
O168 C141 1.289 . S
C169 O161 1.258 . S
C169 O162 1.266 . S
Co170 O173 1.970 1_565 S
Co170 N187 1.989 . S
Co170 O195 1.967 . S
Co170 O202 1.920 1_565 S
Co171 O174 1.966 . S
Co171 N180 2.022 . S
Co171 N188 1.993 . S
Co171 O196 1.941 . S
C172 O173 1.258 1_565 S
C172 O174 1.263 . S
O173 Co170 1.970 1_545 S
O173 C172 1.258 1_545 S
O174 Co171 1.966 . S
O174 C172 1.263 . S
C175 O176 1.235 . S
C175 O202 1.289 . S
O176 C175 1.235 . S
C177 C179 1.400 . S
C177 N180 1.351 . S
C177 C182 1.501 . S
C178 C179 1.387 . S
C178 N181 1.341 . S
C179 C177 1.400 . S
C179 C178 1.387 . S
N180 Co171 2.022 . S
N180 C177 1.351 . S
N180 N181 1.365 . S
N181 C178 1.341 . S
N181 N180 1.365 . S
N181 H201 0.862 . S
C182 C177 1.501 . S
C182 H183 0.961 . S
C182 H184 0.961 . S
C182 H185 0.960 . S
H183 C182 0.961 . S
H184 C182 0.961 . S
H185 C182 0.960 . S
C186 N187 1.342 1_545 S
C186 C190 1.401 1_545 S
C186 C191 1.499 . S
N187 Co170 1.989 . S
N187 C186 1.342 1_565 S
N187 N188 1.388 . S
N188 Co171 1.993 . S
N188 N187 1.388 . S
N188 C189 1.346 . S
C189 N188 1.346 . S
C189 C190 1.396 . S
C189 C199 1.510 . S
C190 C186 1.401 1_565 S
C190 C189 1.396 . S
C191 C186 1.499 . S
C191 H192 0.959 . S
C191 H193 0.960 . S
C191 H194 0.961 . S
H192 C191 0.959 . S
H193 C191 0.960 . S
H194 C191 0.961 . S
O195 Co170 1.967 . S
O195 C203 1.258 . S
O196 Co171 1.941 . S
O196 C203 1.266 . S
H197 C199 0.959 . S
H198 C199 0.961 . S
C199 C189 1.510 . S
C199 H197 0.959 . S
C199 H198 0.961 . S
C199 H200 0.960 . S
H200 C199 0.960 . S
H201 N181 0.862 . S
O202 Co170 1.920 1_545 S
O202 C175 1.289 . S
C203 O195 1.258 . S
C203 O196 1.266 . S
Co204 O207 1.970 1_655 S
Co204 N221 1.989 . S
Co204 O229 1.967 . S
Co204 O236 1.920 1_655 S
Co205 O208 1.966 . S
Co205 N214 2.022 . S
Co205 N222 1.993 . S
Co205 O230 1.941 . S
C206 O207 1.258 1_655 S
C206 O208 1.263 . S
O207 Co204 1.970 1_455 S
O207 C206 1.258 1_455 S
O208 Co205 1.966 . S
O208 C206 1.263 . S
C209 O210 1.235 . S
C209 O236 1.289 . S
O210 C209 1.235 . S
C211 C213 1.400 . S
C211 N214 1.351 . S
C211 C216 1.501 . S
C212 C213 1.387 . S
C212 N215 1.341 . S
C213 C211 1.400 . S
C213 C212 1.387 . S
N214 Co205 2.022 . S
N214 C211 1.351 . S
N214 N215 1.365 . S
N215 C212 1.341 . S
N215 N214 1.365 . S
N215 H235 0.862 . S
C216 C211 1.501 . S
C216 H217 0.961 . S
C216 H218 0.961 . S
C216 H219 0.960 . S
H217 C216 0.961 . S
H218 C216 0.961 . S
H219 C216 0.960 . S
C220 N221 1.342 1_455 S
C220 C224 1.401 1_455 S
C220 C225 1.499 . S
N221 Co204 1.989 . S
N221 C220 1.342 1_655 S
N221 N222 1.388 . S
N222 Co205 1.993 . S
N222 N221 1.388 . S
N222 C223 1.346 . S
C223 N222 1.346 . S
C223 C224 1.396 . S
C223 C233 1.510 . S
C224 C220 1.401 1_655 S
C224 C223 1.396 . S
C225 C220 1.499 . S
C225 H226 0.959 . S
C225 H227 0.960 . S
C225 H228 0.961 . S
H226 C225 0.959 . S
H227 C225 0.960 . S
H228 C225 0.961 . S
O229 Co204 1.967 . S
O229 C237 1.258 . S
O230 Co205 1.941 . S
O230 C237 1.266 . S
H231 C233 0.959 . S
H232 C233 0.961 . S
C233 C223 1.510 . S
C233 H231 0.959 . S
C233 H232 0.961 . S
C233 H234 0.960 . S
H234 C233 0.960 . S
H235 N215 0.862 . S
O236 Co204 1.920 1_455 S
O236 C209 1.289 . S
C237 O229 1.258 . S
C237 O230 1.266 . S
Co238 O241 1.970 1_545 S
Co238 N255 1.989 . S
Co238 O263 1.967 . S
Co238 O270 1.920 1_545 S
Co239 O242 1.966 . S
Co239 N248 2.022 . S
Co239 N256 1.993 . S
Co239 O264 1.941 . S
C240 O241 1.258 1_545 S
C240 O242 1.263 . S
O241 Co238 1.970 1_565 S
O241 C240 1.258 1_565 S
O242 Co239 1.966 . S
O242 C240 1.263 . S
C243 O244 1.235 . S
C243 O270 1.289 . S
O244 C243 1.235 . S
C245 C247 1.400 . S
C245 N248 1.351 . S
C245 C250 1.501 . S
C246 C247 1.387 . S
C246 N249 1.341 . S
C247 C245 1.400 . S
C247 C246 1.387 . S
N248 Co239 2.022 . S
N248 C245 1.351 . S
N248 N249 1.365 . S
N249 C246 1.341 . S
N249 N248 1.365 . S
N249 H269 0.862 . S
C250 C245 1.501 . S
C250 H251 0.961 . S
C250 H252 0.961 . S
C250 H253 0.960 . S
H251 C250 0.961 . S
H252 C250 0.961 . S
H253 C250 0.960 . S
C254 N255 1.342 1_565 S
C254 C258 1.401 1_565 S
C254 C259 1.499 . S
N255 Co238 1.989 . S
N255 C254 1.342 1_545 S
N255 N256 1.388 . S
N256 Co239 1.993 . S
N256 N255 1.388 . S
N256 C257 1.346 . S
C257 N256 1.346 . S
C257 C258 1.396 . S
C257 C267 1.510 . S
C258 C254 1.401 1_545 S
C258 C257 1.396 . S
C259 C254 1.499 . S
C259 H260 0.959 . S
C259 H261 0.960 . S
C259 H262 0.961 . S
H260 C259 0.959 . S
H261 C259 0.960 . S
H262 C259 0.961 . S
O263 Co238 1.967 . S
O263 C271 1.258 . S
O264 Co239 1.941 . S
O264 C271 1.266 . S
H265 C267 0.959 . S
H266 C267 0.961 . S
C267 C257 1.510 . S
C267 H265 0.959 . S
C267 H266 0.961 . S
C267 H268 0.960 . S
H268 C267 0.960 . S
H269 N249 0.862 . S
O270 Co238 1.920 1_565 S
O270 C243 1.289 . S
C271 O263 1.258 . S
C271 O264 1.266 . S
Co272 O275 1.970 . S
Co272 N289 1.989 . S
Co272 O297 1.967 . S
Co272 O304 1.920 . S
Co273 O276 1.966 . S
Co273 N282 2.022 . S
Co273 N290 1.993 . S
Co273 O298 1.941 . S
C274 O275 1.258 . S
C274 O276 1.263 . S
O275 Co272 1.970 . S
O275 C274 1.258 . S
O276 Co273 1.966 . S
O276 C274 1.263 . S
C277 O278 1.235 . S
C277 O304 1.289 . S
O278 C277 1.235 . S
C279 C281 1.400 . S
C279 N282 1.351 . S
C279 C284 1.501 . S
C280 C281 1.387 . S
C280 N283 1.341 . S
C281 C279 1.400 . S
C281 C280 1.387 . S
N282 Co273 2.022 . S
N282 C279 1.351 . S
N282 N283 1.365 . S
N283 C280 1.341 . S
N283 N282 1.365 . S
N283 H303 0.862 . S
C284 C279 1.501 . S
C284 H285 0.961 . S
C284 H286 0.961 . S
C284 H287 0.960 . S
H285 C284 0.961 . S
H286 C284 0.961 . S
H287 C284 0.960 . S
C288 N289 1.342 . S
C288 C292 1.401 . S
C288 C293 1.499 . S
N289 Co272 1.989 . S
N289 C288 1.342 . S
N289 N290 1.388 . S
N290 Co273 1.993 . S
N290 N289 1.388 . S
N290 C291 1.346 . S
C291 N290 1.346 . S
C291 C292 1.396 . S
C291 C301 1.510 . S
C292 C288 1.401 . S
C292 C291 1.396 . S
C293 C288 1.499 . S
C293 H294 0.959 . S
C293 H295 0.960 . S
C293 H296 0.961 . S
H294 C293 0.959 . S
H295 C293 0.960 . S
H296 C293 0.961 . S
O297 Co272 1.967 . S
O297 C305 1.258 . S
O298 Co273 1.941 . S
O298 C305 1.266 . S
H299 C301 0.959 . S
H300 C301 0.961 . S
C301 C291 1.510 . S
C301 H299 0.959 . S
C301 H300 0.961 . S
C301 H302 0.960 . S
H302 C301 0.960 . S
H303 N283 0.862 . S
O304 Co272 1.920 . S
O304 C277 1.289 . S
C305 O297 1.258 . S
C305 O298 1.266 . S
Co306 O309 1.970 . S
Co306 N323 1.989 . S
Co306 O331 1.967 . S
Co306 O338 1.920 . S
Co307 O310 1.966 . S
Co307 N316 2.022 . S
Co307 N324 1.993 . S
Co307 O332 1.941 . S
C308 O309 1.258 . S
C308 O310 1.263 . S
O309 Co306 1.970 . S
O309 C308 1.258 . S
O310 Co307 1.966 . S
O310 C308 1.263 . S
C311 O312 1.235 . S
C311 O338 1.289 . S
O312 C311 1.235 . S
C313 C315 1.400 . S
C313 N316 1.351 . S
C313 C318 1.501 . S
C314 C315 1.387 . S
C314 N317 1.341 . S
C315 C313 1.400 . S
C315 C314 1.387 . S
N316 Co307 2.022 . S
N316 C313 1.351 . S
N316 N317 1.365 . S
N317 C314 1.341 . S
N317 N316 1.365 . S
N317 H337 0.862 . S
C318 C313 1.501 . S
C318 H319 0.961 . S
C318 H320 0.961 . S
C318 H321 0.960 . S
H319 C318 0.961 . S
H320 C318 0.961 . S
H321 C318 0.960 . S
C322 N323 1.342 . S
C322 C326 1.401 . S
C322 C327 1.499 . S
N323 Co306 1.989 . S
N323 C322 1.342 . S
N323 N324 1.388 . S
N324 Co307 1.993 . S
N324 N323 1.388 . S
N324 C325 1.346 . S
C325 N324 1.346 . S
C325 C326 1.396 . S
C325 C335 1.510 . S
C326 C322 1.401 . S
C326 C325 1.396 . S
C327 C322 1.499 . S
C327 H328 0.959 . S
C327 H329 0.960 . S
C327 H330 0.961 . S
H328 C327 0.959 . S
H329 C327 0.960 . S
H330 C327 0.961 . S
O331 Co306 1.967 . S
O331 C339 1.258 . S
O332 Co307 1.941 . S
O332 C339 1.266 . S
H333 C335 0.959 . S
H334 C335 0.961 . S
C335 C325 1.510 . S
C335 H333 0.959 . S
C335 H334 0.961 . S
C335 H336 0.960 . S
H336 C335 0.960 . S
H337 N317 0.862 . S
O338 Co306 1.920 . S
O338 C311 1.289 . S
C339 O331 1.258 . S
C339 O332 1.266 . S
Co340 O343 1.970 . S
Co340 N357 1.989 . S
Co340 O365 1.967 . S
Co340 O372 1.920 . S
Co341 O344 1.966 . S
Co341 N350 2.022 . S
Co341 N358 1.993 . S
Co341 O366 1.941 . S
C342 O343 1.258 . S
C342 O344 1.263 . S
O343 Co340 1.970 . S
O343 C342 1.258 . S
O344 Co341 1.966 . S
O344 C342 1.263 . S
C345 O346 1.235 . S
C345 O372 1.289 . S
O346 C345 1.235 . S
C347 C349 1.400 . S
C347 N350 1.351 . S
C347 C352 1.501 . S
C348 C349 1.387 . S
C348 N351 1.341 . S
C349 C347 1.400 . S
C349 C348 1.387 . S
N350 Co341 2.022 . S
N350 C347 1.351 . S
N350 N351 1.365 . S
N351 C348 1.341 . S
N351 N350 1.365 . S
N351 H371 0.862 . S
C352 C347 1.501 . S
C352 H353 0.961 . S
C352 H354 0.961 . S
C352 H355 0.960 . S
H353 C352 0.961 . S
H354 C352 0.961 . S
H355 C352 0.960 . S
C356 N357 1.342 . S
C356 C360 1.401 . S
C356 C361 1.499 . S
N357 Co340 1.989 . S
N357 C356 1.342 . S
N357 N358 1.388 . S
N358 Co341 1.993 . S
N358 N357 1.388 . S
N358 C359 1.346 . S
C359 N358 1.346 . S
C359 C360 1.396 . S
C359 C369 1.510 . S
C360 C356 1.401 . S
C360 C359 1.396 . S
C361 C356 1.499 . S
C361 H362 0.959 . S
C361 H363 0.960 . S
C361 H364 0.961 . S
H362 C361 0.959 . S
H363 C361 0.960 . S
H364 C361 0.961 . S
O365 Co340 1.967 . S
O365 C373 1.258 . S
O366 Co341 1.941 . S
O366 C373 1.266 . S
H367 C369 0.959 . S
H368 C369 0.961 . S
C369 C359 1.510 . S
C369 H367 0.959 . S
C369 H368 0.961 . S
C369 H370 0.960 . S
H370 C369 0.960 . S
H371 N351 0.862 . S
O372 Co340 1.920 . S
O372 C345 1.289 . S
C373 O365 1.258 . S
C373 O366 1.266 . S
Co374 O377 1.970 . S
Co374 N391 1.989 . S
Co374 O399 1.967 . S
Co374 O406 1.920 . S
Co375 O378 1.966 . S
Co375 N384 2.022 . S
Co375 N392 1.993 . S
Co375 O400 1.941 . S
C376 O377 1.258 . S
C376 O378 1.263 . S
O377 Co374 1.970 . S
O377 C376 1.258 . S
O378 Co375 1.966 . S
O378 C376 1.263 . S
C379 O380 1.235 . S
C379 O406 1.289 . S
O380 C379 1.235 . S
C381 C383 1.400 . S
C381 N384 1.351 . S
C381 C386 1.501 . S
C382 C383 1.387 . S
C382 N385 1.341 . S
C383 C381 1.400 . S
C383 C382 1.387 . S
N384 Co375 2.022 . S
N384 C381 1.351 . S
N384 N385 1.365 . S
N385 C382 1.341 . S
N385 N384 1.365 . S
N385 H405 0.862 . S
C386 C381 1.501 . S
C386 H387 0.961 . S
C386 H388 0.961 . S
C386 H389 0.960 . S
H387 C386 0.961 . S
H388 C386 0.961 . S
H389 C386 0.960 . S
C390 N391 1.342 . S
C390 C394 1.401 . S
C390 C395 1.499 . S
N391 Co374 1.989 . S
N391 C390 1.342 . S
N391 N392 1.388 . S
N392 Co375 1.993 . S
N392 N391 1.388 . S
N392 C393 1.346 . S
C393 N392 1.346 . S
C393 C394 1.396 . S
C393 C403 1.510 . S
C394 C390 1.401 . S
C394 C393 1.396 . S
C395 C390 1.499 . S
C395 H396 0.959 . S
C395 H397 0.960 . S
C395 H398 0.961 . S
H396 C395 0.959 . S
H397 C395 0.960 . S
H398 C395 0.961 . S
O399 Co374 1.967 . S
O399 C407 1.258 . S
O400 Co375 1.941 . S
O400 C407 1.266 . S
H401 C403 0.959 . S
H402 C403 0.961 . S
C403 C393 1.510 . S
C403 H401 0.959 . S
C403 H402 0.961 . S
C403 H404 0.960 . S
H404 C403 0.960 . S
H405 N385 0.862 . S
O406 Co374 1.920 . S
O406 C379 1.289 . S
C407 O399 1.258 . S
C407 O400 1.266 . S
Co408 O411 1.970 . S
Co408 N425 1.989 . S
Co408 O433 1.967 . S
Co408 O440 1.920 . S
Co409 O412 1.966 . S
Co409 N418 2.022 . S
Co409 N426 1.993 . S
Co409 O434 1.941 . S
C410 O411 1.258 . S
C410 O412 1.263 . S
O411 Co408 1.970 . S
O411 C410 1.258 . S
O412 Co409 1.966 . S
O412 C410 1.263 . S
C413 O414 1.235 . S
C413 O440 1.289 . S
O414 C413 1.235 . S
C415 C417 1.400 . S
C415 N418 1.351 . S
C415 C420 1.501 . S
C416 C417 1.387 . S
C416 N419 1.341 . S
C417 C415 1.400 . S
C417 C416 1.387 . S
N418 Co409 2.022 . S
N418 C415 1.351 . S
N418 N419 1.365 . S
N419 C416 1.341 . S
N419 N418 1.365 . S
N419 H439 0.862 . S
C420 C415 1.501 . S
C420 H421 0.961 . S
C420 H422 0.961 . S
C420 H423 0.960 . S
H421 C420 0.961 . S
H422 C420 0.961 . S
H423 C420 0.960 . S
C424 N425 1.342 . S
C424 C428 1.401 . S
C424 C429 1.499 . S
N425 Co408 1.989 . S
N425 C424 1.342 . S
N425 N426 1.388 . S
N426 Co409 1.993 . S
N426 N425 1.388 . S
N426 C427 1.346 . S
C427 N426 1.346 . S
C427 C428 1.396 . S
C427 C437 1.510 . S
C428 C424 1.401 . S
C428 C427 1.396 . S
C429 C424 1.499 . S
C429 H430 0.959 . S
C429 H431 0.960 . S
C429 H432 0.961 . S
H430 C429 0.959 . S
H431 C429 0.960 . S
H432 C429 0.961 . S
O433 Co408 1.967 . S
O433 C441 1.258 . S
O434 Co409 1.941 . S
O434 C441 1.266 . S
H435 C437 0.959 . S
H436 C437 0.961 . S
C437 C427 1.510 . S
C437 H435 0.959 . S
C437 H436 0.961 . S
C437 H438 0.960 . S
H438 C437 0.960 . S
H439 N419 0.862 . S
O440 Co408 1.920 . S
O440 C413 1.289 . S
C441 O433 1.258 . S
C441 O434 1.266 . S
Co442 O445 1.970 . S
Co442 N459 1.989 . S
Co442 O467 1.967 . S
Co442 O474 1.920 . S
Co443 O446 1.966 . S
Co443 N452 2.022 . S
Co443 N460 1.993 . S
Co443 O468 1.941 . S
C444 O445 1.258 . S
C444 O446 1.263 . S
O445 Co442 1.970 . S
O445 C444 1.258 . S
O446 Co443 1.966 . S
O446 C444 1.263 . S
C447 O448 1.235 . S
C447 O474 1.289 . S
O448 C447 1.235 . S
C449 C451 1.400 . S
C449 N452 1.351 . S
C449 C454 1.501 . S
C450 C451 1.387 . S
C450 N453 1.341 . S
C451 C449 1.400 . S
C451 C450 1.387 . S
N452 Co443 2.022 . S
N452 C449 1.351 . S
N452 N453 1.365 . S
N453 C450 1.341 . S
N453 N452 1.365 . S
N453 H473 0.862 . S
C454 C449 1.501 . S
C454 H455 0.961 . S
C454 H456 0.961 . S
C454 H457 0.960 . S
H455 C454 0.961 . S
H456 C454 0.961 . S
H457 C454 0.960 . S
C458 N459 1.342 . S
C458 C462 1.401 . S
C458 C463 1.499 . S
N459 Co442 1.989 . S
N459 C458 1.342 . S
N459 N460 1.388 . S
N460 Co443 1.993 . S
N460 N459 1.388 . S
N460 C461 1.346 . S
C461 N460 1.346 . S
C461 C462 1.396 . S
C461 C471 1.510 . S
C462 C458 1.401 . S
C462 C461 1.396 . S
C463 C458 1.499 . S
C463 H464 0.959 . S
C463 H465 0.960 . S
C463 H466 0.961 . S
H464 C463 0.959 . S
H465 C463 0.960 . S
H466 C463 0.961 . S
O467 Co442 1.967 . S
O467 C475 1.258 . S
O468 Co443 1.941 . S
O468 C475 1.266 . S
H469 C471 0.959 . S
H470 C471 0.961 . S
C471 C461 1.510 . S
C471 H469 0.959 . S
C471 H470 0.961 . S
C471 H472 0.960 . S
H472 C471 0.960 . S
H473 N453 0.862 . S
O474 Co442 1.920 . S
O474 C447 1.289 . S
C475 O467 1.258 . S
C475 O468 1.266 . S
Co476 O479 1.970 . S
Co476 N493 1.989 . S
Co476 O501 1.967 . S
Co476 O508 1.920 . S
Co477 O480 1.966 . S
Co477 N486 2.022 . S
Co477 N494 1.993 . S
Co477 O502 1.941 . S
C478 O479 1.258 . S
C478 O480 1.263 . S
O479 Co476 1.970 . S
O479 C478 1.258 . S
O480 Co477 1.966 . S
O480 C478 1.263 . S
C481 O482 1.235 . S
C481 O508 1.289 . S
O482 C481 1.235 . S
C483 C485 1.400 . S
C483 N486 1.351 . S
C483 C488 1.501 . S
C484 C485 1.387 . S
C484 N487 1.341 . S
C485 C483 1.400 . S
C485 C484 1.387 . S
N486 Co477 2.022 . S
N486 C483 1.351 . S
N486 N487 1.365 . S
N487 C484 1.341 . S
N487 N486 1.365 . S
N487 H507 0.862 . S
C488 C483 1.501 . S
C488 H489 0.961 . S
C488 H490 0.961 . S
C488 H491 0.960 . S
H489 C488 0.961 . S
H490 C488 0.961 . S
H491 C488 0.960 . S
C492 N493 1.342 . S
C492 C496 1.401 . S
C492 C497 1.499 . S
N493 Co476 1.989 . S
N493 C492 1.342 . S
N493 N494 1.388 . S
N494 Co477 1.993 . S
N494 N493 1.388 . S
N494 C495 1.346 . S
C495 N494 1.346 . S
C495 C496 1.396 . S
C495 C505 1.510 . S
C496 C492 1.401 . S
C496 C495 1.396 . S
C497 C492 1.499 . S
C497 H498 0.959 . S
C497 H499 0.960 . S
C497 H500 0.961 . S
H498 C497 0.959 . S
H499 C497 0.960 . S
H500 C497 0.961 . S
O501 Co476 1.967 . S
O501 C509 1.258 . S
O502 Co477 1.941 . S
O502 C509 1.266 . S
H503 C505 0.959 . S
H504 C505 0.961 . S
C505 C495 1.510 . S
C505 H503 0.959 . S
C505 H504 0.961 . S
C505 H506 0.960 . S
H506 C505 0.960 . S
H507 N487 0.862 . S
O508 Co476 1.920 . S
O508 C481 1.289 . S
C509 O501 1.258 . S
C509 O502 1.266 . S
Co510 O513 1.970 . S
Co510 N527 1.989 . S
Co510 O535 1.967 . S
Co510 O542 1.920 . S
Co511 O514 1.966 . S
Co511 N520 2.022 . S
Co511 N528 1.993 . S
Co511 O536 1.941 . S
C512 O513 1.258 . S
C512 O514 1.263 . S
O513 Co510 1.970 . S
O513 C512 1.258 . S
O514 Co511 1.966 . S
O514 C512 1.263 . S
C515 O516 1.235 . S
C515 O542 1.289 . S
O516 C515 1.235 . S
C517 C519 1.400 . S
C517 N520 1.351 . S
C517 C522 1.501 . S
C518 C519 1.387 . S
C518 N521 1.341 . S
C519 C517 1.400 . S
C519 C518 1.387 . S
N520 Co511 2.022 . S
N520 C517 1.351 . S
N520 N521 1.365 . S
N521 C518 1.341 . S
N521 N520 1.365 . S
N521 H541 0.862 . S
C522 C517 1.501 . S
C522 H523 0.961 . S
C522 H524 0.961 . S
C522 H525 0.960 . S
H523 C522 0.961 . S
H524 C522 0.961 . S
H525 C522 0.960 . S
C526 N527 1.342 . S
C526 C530 1.401 . S
C526 C531 1.499 . S
N527 Co510 1.989 . S
N527 C526 1.342 . S
N527 N528 1.388 . S
N528 Co511 1.993 . S
N528 N527 1.388 . S
N528 C529 1.346 . S
C529 N528 1.346 . S
C529 C530 1.396 . S
C529 C539 1.510 . S
C530 C526 1.401 . S
C530 C529 1.396 . S
C531 C526 1.499 . S
C531 H532 0.959 . S
C531 H533 0.960 . S
C531 H534 0.961 . S
H532 C531 0.959 . S
H533 C531 0.960 . S
H534 C531 0.961 . S
O535 Co510 1.967 . S
O535 C543 1.258 . S
O536 Co511 1.941 . S
O536 C543 1.266 . S
H537 C539 0.959 . S
H538 C539 0.961 . S
C539 C529 1.510 . S
C539 H537 0.959 . S
C539 H538 0.961 . S
C539 H540 0.960 . S
H540 C539 0.960 . S
H541 N521 0.862 . S
O542 Co510 1.920 . S
O542 C515 1.289 . S
C543 O535 1.258 . S
C543 O536 1.266 . S
C544 C545 1.369 . S
C544 C546 1.419 . S
C544 H548 0.930 . S
C545 C544 1.369 . S
C545 C554 1.429 . S
C546 C544 1.419 . S
C546 C547 1.363 . S
C546 H549 0.929 . S
C547 C546 1.363 . S
C547 C553 1.428 . S
H548 C544 0.930 . S
H549 C546 0.929 . S
S550 N551 1.613 . S
S550 N552 1.610 . S
N551 S550 1.613 . S
N551 C554 1.350 . S
N552 S550 1.610 . S
N552 C553 1.351 . S
C553 C547 1.428 . S
C553 N552 1.351 . S
C553 C554 1.434 . S
C554 C545 1.429 . S
C554 N551 1.350 . S
C554 C553 1.434 . S
C555 C556 1.369 . S
C555 C557 1.419 . S
C555 H559 0.930 . S
C556 C555 1.369 . S
C556 C565 1.429 . S
C557 C555 1.419 . S
C557 C558 1.363 . S
C557 H560 0.929 . S
C558 C557 1.363 . S
C558 C564 1.428 . S
H559 C555 0.930 . S
H560 C557 0.929 . S
S561 N562 1.613 . S
S561 N563 1.610 . S
N562 S561 1.613 . S
N562 C565 1.350 . S
N563 S561 1.610 . S
N563 C564 1.351 . S
C564 C558 1.428 . S
C564 N563 1.351 . S
C564 C565 1.434 . S
C565 C556 1.429 . S
C565 N562 1.350 . S
C565 C564 1.434 . S
C566 C567 1.369 . S
C566 C568 1.419 . S
C566 H570 0.930 . S
C567 C566 1.369 . S
C567 C576 1.429 . S
C568 C566 1.419 . S
C568 C569 1.363 . S
C568 H571 0.929 . S
C569 C568 1.363 . S
C569 C575 1.428 . S
H570 C566 0.930 . S
H571 C568 0.929 . S
S572 N573 1.613 . S
S572 N574 1.610 . S
N573 S572 1.613 . S
N573 C576 1.350 . S
N574 S572 1.610 . S
N574 C575 1.351 . S
C575 C569 1.428 . S
C575 N574 1.351 . S
C575 C576 1.434 . S
C576 C567 1.429 . S
C576 N573 1.350 . S
C576 C575 1.434 . S
C577 C578 1.369 . S
C577 C579 1.419 . S
C577 H581 0.930 . S
C578 C577 1.369 . S
C578 C587 1.429 . S
C579 C577 1.419 . S
C579 C580 1.363 . S
C579 H582 0.929 . S
C580 C579 1.363 . S
C580 C586 1.428 . S
H581 C577 0.930 . S
H582 C579 0.929 . S
S583 N584 1.613 . S
S583 N585 1.610 . S
N584 S583 1.613 . S
N584 C587 1.350 . S
N585 S583 1.610 . S
N585 C586 1.351 . S
C586 C580 1.428 . S
C586 N585 1.351 . S
C586 C587 1.434 . S
C587 C578 1.429 . S
C587 N584 1.350 . S
C587 C586 1.434 . S
C588 C589 1.369 1_556 S
C588 C590 1.419 . S
C588 H592 0.930 . S
C589 C588 1.369 1_554 S
C589 C598 1.429 . S
C590 C588 1.419 . S
C590 C591 1.363 . S
C590 H593 0.929 . S
C591 C590 1.363 . S
C591 C597 1.428 . S
H592 C588 0.930 . S
H593 C590 0.929 . S
S594 N595 1.613 . S
S594 N596 1.610 1_554 S
N595 S594 1.613 . S
N595 C598 1.350 . S
N596 S594 1.610 1_556 S
N596 C597 1.351 . S
C597 C591 1.428 . S
C597 N596 1.351 . S
C597 C598 1.434 1_556 S
C598 C589 1.429 . S
C598 N595 1.350 . S
C598 C597 1.434 1_554 S
C599 C600 1.369 1_554 S
C599 C601 1.419 . S
C599 H603 0.930 . S
C600 C599 1.369 1_556 S
C600 C609 1.429 . S
C601 C599 1.419 . S
C601 C602 1.363 . S
C601 H604 0.929 . S
C602 C601 1.363 . S
C602 C608 1.428 . S
H603 C599 0.930 . S
H604 C601 0.929 . S
S605 N606 1.613 . S
S605 N607 1.610 1_556 S
N606 S605 1.613 . S
N606 C609 1.350 . S
N607 S605 1.610 1_554 S
N607 C608 1.351 . S
C608 C602 1.428 . S
C608 N607 1.351 . S
C608 C609 1.434 1_554 S
C609 C600 1.429 . S
C609 N606 1.350 . S
C609 C608 1.434 1_556 S
C610 C611 1.369 . S
C610 C612 1.419 1_556 S
C610 H614 0.930 . S
C611 C610 1.369 . S
C611 C620 1.429 . S
C612 C610 1.419 1_554 S
C612 C613 1.363 . S
C612 H615 0.929 . S
C613 C612 1.363 . S
C613 C619 1.428 1_554 S
H614 C610 0.930 . S
H615 C612 0.929 . S
S616 N617 1.613 . S
S616 N618 1.599 1_556 S
N617 S616 1.613 . S
N617 C620 1.350 . S
N618 S616 1.599 1_554 S
N618 C619 1.350 1_554 S
C619 C613 1.428 1_556 S
C619 N618 1.350 1_556 S
C619 C620 1.434 . S
C620 C611 1.429 . S
C620 N617 1.350 . S
C620 C619 1.434 . S
C621 C622 1.369 . S
C621 C623 1.419 . S
C621 H625 0.930 . S
C622 C621 1.369 . S
C622 C631 1.429 . S
C623 C621 1.419 . S
C623 C624 1.363 1_554 S
C623 H626 0.929 . S
C624 C623 1.363 1_556 S
C624 C630 1.428 . S
H625 C621 0.930 . S
H626 C623 0.929 . S
S627 N628 1.613 1_556 S
S627 N629 1.610 . S
N628 S627 1.613 1_554 S
N628 C631 1.350 . S
N629 S627 1.610 . S
N629 C630 1.351 . S
C630 C624 1.428 . S
C630 N629 1.351 . S
C630 C631 1.434 1_556 S
C631 C622 1.429 . S
C631 N628 1.350 . S
C631 C630 1.434 1_554 S
C632 C633 1.369 . S
C632 C634 1.419 . S
C632 H636 0.930 . S
C633 C632 1.369 . S
C633 C642 1.429 . S
C634 C632 1.419 . S
C634 C635 1.363 . S
C634 H637 0.929 . S
C635 C634 1.363 . S
C635 C641 1.428 . S
H636 C632 0.930 . S
H637 C634 0.929 . S
S638 N639 1.613 . S
S638 N640 1.610 . S
N639 S638 1.613 . S
N639 C642 1.350 . S
N640 S638 1.610 . S
N640 C641 1.351 . S
C641 C635 1.428 . S
C641 N640 1.351 . S
C641 C642 1.434 . S
C642 C633 1.429 . S
C642 N639 1.350 . S
C642 C641 1.434 . S
C643 C644 1.369 . S
C643 C645 1.419 . S
C643 H647 0.930 . S
C644 C643 1.369 . S
C644 C653 1.429 . S
C645 C643 1.419 . S
C645 C646 1.363 . S
C645 H648 0.929 . S
C646 C645 1.363 . S
C646 C652 1.428 . S
H647 C643 0.930 . S
H648 C645 0.929 . S
S649 N650 1.613 . S
S649 N651 1.610 . S
N650 S649 1.613 . S
N650 C653 1.350 . S
N651 S649 1.610 . S
N651 C652 1.351 . S
C652 C646 1.428 . S
C652 N651 1.351 . S
C652 C653 1.434 . S
C653 C644 1.429 . S
C653 N650 1.350 . S
C653 C652 1.434 . S
C654 C655 1.369 . S
C654 C656 1.419 . S
C654 H658 0.930 . S
C655 C654 1.369 . S
C655 C664 1.429 . S
C656 C654 1.419 . S
C656 C657 1.363 . S
C656 H659 0.929 . S
C657 C656 1.363 . S
C657 C663 1.428 . S
H658 C654 0.930 . S
H659 C656 0.929 . S
S660 N661 1.613 . S
S660 N662 1.610 . S
N661 S660 1.613 . S
N661 C664 1.350 . S
N662 S660 1.610 . S
N662 C663 1.351 . S
C663 C657 1.428 . S
C663 N662 1.351 . S
C663 C664 1.434 . S
C664 C655 1.429 . S
C664 N661 1.350 . S
C664 C663 1.434 . S
C665 C666 1.369 . S
C665 C667 1.419 . S
C665 H669 0.930 . S
C666 C665 1.369 . S
C666 C675 1.429 . S
C667 C665 1.419 . S
C667 C668 1.363 . S
C667 H670 0.929 . S
C668 C667 1.363 . S
C668 C674 1.428 . S
H669 C665 0.930 . S
H670 C667 0.929 . S
S671 N672 1.613 . S
S671 N673 1.610 . S
N672 S671 1.613 . S
N672 C675 1.350 . S
N673 S671 1.610 . S
N673 C674 1.351 . S
C674 C668 1.428 . S
C674 N673 1.351 . S
C674 C675 1.434 . S
C675 C666 1.429 . S
C675 N672 1.350 . S
C675 C674 1.434 . S
C676 C677 1.369 . S
C676 C678 1.419 . S
C676 H680 0.930 . S
C677 C676 1.369 . S
C677 C686 1.429 . S
C678 C676 1.419 . S
C678 C679 1.363 . S
C678 H681 0.929 . S
C679 C678 1.363 . S
C679 C685 1.428 . S
H680 C676 0.930 . S
H681 C678 0.929 . S
S682 N683 1.613 . S
S682 N684 1.610 . S
N683 S682 1.613 . S
N683 C686 1.350 . S
N684 S682 1.610 . S
N684 C685 1.351 . S
C685 C679 1.428 . S
C685 N684 1.351 . S
C685 C686 1.434 . S
C686 C677 1.429 . S
C686 N683 1.350 . S
C686 C685 1.434 . S
C687 C688 1.369 . S
C687 C689 1.419 . S
C687 H691 0.930 . S
C688 C687 1.369 . S
C688 C697 1.429 . S
C689 C687 1.419 . S
C689 C690 1.363 . S
C689 H692 0.929 . S
C690 C689 1.363 . S
C690 C696 1.428 . S
H691 C687 0.930 . S
H692 C689 0.929 . S
S693 N694 1.613 . S
S693 N695 1.610 . S
N694 S693 1.613 . S
N694 C697 1.350 . S
N695 S693 1.610 . S
N695 C696 1.351 . S
C696 C690 1.428 . S
C696 N695 1.351 . S
C696 C697 1.434 . S
C697 C688 1.429 . S
C697 N694 1.350 . S
C697 C696 1.434 . S
C698 C699 1.369 . S
C698 C700 1.419 . S
C698 H702 0.930 . S
C699 C698 1.369 . S
C699 C708 1.429 . S
C700 C698 1.419 . S
C700 C701 1.363 . S
C700 H703 0.929 . S
C701 C700 1.363 . S
C701 C707 1.428 . S
H702 C698 0.930 . S
H703 C700 0.929 . S
S704 N705 1.613 . S
S704 N706 1.610 . S
N705 S704 1.613 . S
N705 C708 1.350 . S
N706 S704 1.610 . S
N706 C707 1.351 . S
C707 C701 1.428 . S
C707 N706 1.351 . S
C707 C708 1.434 . S
C708 C699 1.429 . S
C708 N705 1.350 . S
C708 C707 1.434 . S
C709 C710 1.369 . S
C709 C711 1.419 . S
C709 H713 0.930 . S
C710 C709 1.369 . S
C710 C719 1.429 . S
C711 C709 1.419 . S
C711 C712 1.363 . S
C711 H714 0.929 . S
C712 C711 1.363 . S
C712 C718 1.428 . S
H713 C709 0.930 . S
H714 C711 0.929 . S
S715 N716 1.613 . S
S715 N717 1.610 . S
N716 S715 1.613 . S
N716 C719 1.350 . S
N717 S715 1.610 . S
N717 C718 1.351 . S
C718 C712 1.428 . S
C718 N717 1.351 . S
C718 C719 1.434 . S
C719 C710 1.429 . S
C719 N716 1.350 . S
C719 C718 1.434 . S
C720 C721 1.369 1_655 S
C720 C722 1.419 1_545 S
C720 H724 0.930 . S
C721 C720 1.369 1_455 S
C721 C730 1.429 . S
C722 C720 1.419 1_565 S
C722 C723 1.363 . S
C722 H725 0.929 . S
C723 C722 1.363 . S
C723 C729 1.428 1_655 S
H724 C720 0.930 . S
H725 C722 0.929 . S
S726 N727 1.613 1_565 S
S726 N728 1.610 . S
N727 S726 1.613 1_545 S
N727 C730 1.350 . S
N728 S726 1.610 . S
N728 C729 1.351 . S
C729 C723 1.428 1_455 S
C729 N728 1.351 . S
C729 C730 1.434 1_565 S
C730 C721 1.429 . S
C730 N727 1.350 . S
C730 C729 1.434 1_545 S
C731 C732 1.369 1_545 S
C731 C733 1.419 1_455 S
C731 H735 0.930 . S
C732 C731 1.369 1_565 S
C732 C741 1.429 . S
C733 C731 1.419 1_655 S
C733 C734 1.363 . S
C733 H736 0.929 . S
C734 C733 1.363 . S
C734 C740 1.428 1_545 S
H735 C731 0.930 . S
H736 C733 0.929 . S
S737 N738 1.613 1_655 S
S737 N739 1.610 . S
N738 S737 1.613 1_455 S
N738 C741 1.350 . S
N739 S737 1.610 . S
N739 C740 1.351 . S
C740 C734 1.428 1_565 S
C740 N739 1.351 . S
C740 C741 1.434 1_655 S
C741 C732 1.429 . S
C741 N738 1.350 . S
C741 C740 1.434 1_455 S
C742 C743 1.369 . S
C742 C744 1.419 . S
C742 H746 0.930 . S
C743 C742 1.369 . S
C743 C752 1.429 1_655 S
C744 C742 1.419 . S
C744 C745 1.363 1_655 S
C744 H747 0.929 . S
C745 C744 1.363 1_455 S
C745 C751 1.428 . S
H746 C742 0.930 . S
H747 C744 0.929 . S
S748 N749 1.613 . S
S748 N750 1.610 . S
N749 S748 1.613 . S
N749 C752 1.350 . S
N750 S748 1.610 . S
N750 C751 1.351 . S
C751 C745 1.428 . S
C751 N750 1.351 . S
C751 C752 1.434 . S
C752 C743 1.429 1_455 S
C752 N749 1.350 . S
C752 C751 1.434 . S
C753 C754 1.369 1_565 S
C753 C755 1.419 . S
C753 H757 0.930 . S
C754 C753 1.369 1_545 S
C754 C763 1.429 . S
C755 C753 1.419 . S
C755 C756 1.363 . S
C755 H758 0.929 . S
C756 C755 1.363 . S
C756 C762 1.428 1_565 S
H757 C753 0.930 . S
H758 C755 0.929 . S
S759 N760 1.613 . S
S759 N761 1.610 . S
N760 S759 1.613 . S
N760 C763 1.350 . S
N761 S759 1.610 . S
N761 C762 1.351 . S
C762 C756 1.428 1_545 S
C762 N761 1.351 . S
C762 C763 1.434 . S
C763 C754 1.429 . S
C763 N760 1.350 . S
C763 C762 1.434 . S
C764 C765 1.369 . S
C764 C766 1.419 . S
C764 H768 0.930 . S
C765 C764 1.369 . S
C765 C774 1.429 . S
C766 C764 1.419 . S
C766 C767 1.363 . S
C766 H769 0.929 . S
C767 C766 1.363 . S
C767 C773 1.428 . S
H768 C764 0.930 . S
H769 C766 0.929 . S
S770 N771 1.613 . S
S770 N772 1.610 . S
N771 S770 1.613 . S
N771 C774 1.350 . S
N772 S770 1.610 . S
N772 C773 1.351 . S
C773 C767 1.428 . S
C773 N772 1.351 . S
C773 C774 1.434 . S
C774 C765 1.429 . S
C774 N771 1.350 . S
C774 C773 1.434 . S
C775 C776 1.369 . S
C775 C777 1.419 . S
C775 H779 0.930 . S
C776 C775 1.369 . S
C776 C785 1.429 . S
C777 C775 1.419 . S
C777 C778 1.363 . S
C777 H780 0.929 . S
C778 C777 1.363 . S
C778 C784 1.428 . S
H779 C775 0.930 . S
H780 C777 0.929 . S
S781 N782 1.613 . S
S781 N783 1.610 . S
N782 S781 1.613 . S
N782 C785 1.350 . S
N783 S781 1.610 . S
N783 C784 1.351 . S
C784 C778 1.428 . S
C784 N783 1.351 . S
C784 C785 1.434 . S
C785 C776 1.429 . S
C785 N782 1.350 . S
C785 C784 1.434 . S
C786 C787 1.369 . S
C786 C788 1.419 1_565 S
C786 H790 0.930 . S
C787 C786 1.369 . S
C787 C796 1.429 . S
C788 C786 1.419 1_545 S
C788 C789 1.363 . S
C788 H791 0.929 . S
C789 C788 1.363 . S
C789 C795 1.428 . S
H790 C786 0.930 . S
H791 C788 0.929 . S
S792 N793 1.613 1_545 S
S792 N794 1.610 . S
N793 S792 1.613 1_565 S
N793 C796 1.350 . S
N794 S792 1.610 . S
N794 C795 1.351 . S
C795 C789 1.428 . S
C795 N794 1.351 . S
C795 C796 1.434 1_545 S
C796 C787 1.429 . S
C796 N793 1.350 . S
C796 C795 1.434 1_565 S
C797 C798 1.369 . S
C797 C799 1.419 1_455 S
C797 H801 0.930 . S
C798 C797 1.369 . S
C798 C807 1.429 . S
C799 C797 1.419 1_655 S
C799 C800 1.363 . S
C799 H802 0.929 . S
C800 C799 1.363 . S
C800 C806 1.428 . S
H801 C797 0.930 . S
H802 C799 0.929 . S
S803 N804 1.613 . S
S803 N805 1.610 1_455 S
N804 S803 1.613 . S
N804 C807 1.350 . S
N805 S803 1.610 1_655 S
N805 C806 1.351 . S
C806 C800 1.428 . S
C806 N805 1.351 . S
C806 C807 1.434 1_655 S
C807 C798 1.429 . S
C807 N804 1.350 . S
C807 C806 1.434 1_455 S
C808 C809 1.369 . S
C808 C810 1.419 . S
C808 H812 0.930 . S
C809 C808 1.369 . S
C809 C818 1.429 1_655 S
C810 C808 1.419 . S
C810 C811 1.363 1_655 S
C810 H813 0.929 . S
C811 C810 1.363 1_455 S
C811 C817 1.428 . S
H812 C808 0.930 . S
H813 C810 0.929 . S
S814 N815 1.613 . S
S814 N816 1.610 . S
N815 S814 1.613 . S
N815 C818 1.350 . S
N816 S814 1.610 . S
N816 C817 1.351 . S
C817 C811 1.428 . S
C817 N816 1.351 . S
C817 C818 1.434 . S
C818 C809 1.429 1_455 S
C818 N815 1.350 . S
C818 C817 1.434 . S
C819 C820 1.369 1_545 S
C819 C821 1.419 . S
C819 H823 0.930 . S
C820 C819 1.369 1_565 S
C820 C829 1.429 . S
C821 C819 1.419 . S
C821 C822 1.363 . S
C821 H824 0.929 . S
C822 C821 1.363 . S
C822 C828 1.428 1_545 S
H823 C819 0.930 . S
H824 C821 0.929 . S
S825 N826 1.613 . S
S825 N827 1.610 . S
N826 S825 1.613 . S
N826 C829 1.350 . S
N827 S825 1.610 . S
N827 C828 1.351 . S
C828 C822 1.428 1_565 S
C828 N827 1.351 . S
C828 C829 1.434 . S
C829 C820 1.429 . S
C829 N826 1.350 . S
C829 C828 1.434 . S
C830 C831 1.369 . S
C830 C832 1.419 1_545 S
C830 H834 0.930 . S
C831 C830 1.369 . S
C831 C840 1.429 1_455 S
C832 C830 1.419 1_565 S
C832 C833 1.363 1_455 S
C832 H835 0.929 . S
C833 C832 1.363 1_655 S
C833 C839 1.428 . S
H834 C830 0.930 . S
H835 C832 0.929 . S
S836 N837 1.613 . S
S836 N838 1.610 1_545 S
N837 S836 1.613 . S
N837 C840 1.350 . S
N838 S836 1.610 1_565 S
N838 C839 1.351 . S
C839 C833 1.428 . S
C839 N838 1.351 . S
C839 C840 1.434 1_565 S
C840 C831 1.429 1_655 S
C840 N837 1.350 . S
C840 C839 1.434 1_545 S
C841 C842 1.369 . S
C841 C843 1.419 1_655 S
C841 H845 0.930 . S
C842 C841 1.369 . S
C842 C851 1.429 1_545 S
C843 C841 1.419 1_455 S
C843 C844 1.363 1_545 S
C843 H846 0.929 . S
C844 C843 1.363 1_565 S
C844 C850 1.428 . S
H845 C841 0.930 . S
H846 C843 0.929 . S
S847 N848 1.613 . S
S847 N849 1.610 1_655 S
N848 S847 1.613 . S
N848 C851 1.350 . S
N849 S847 1.610 1_455 S
N849 C850 1.351 . S
C850 C844 1.428 . S
C850 N849 1.351 . S
C850 C851 1.434 1_455 S
C851 C842 1.429 1_565 S
C851 N848 1.350 . S
C851 C850 1.434 1_655 S
C852 C853 1.369 . S
C852 C854 1.419 1_545 S
C852 H856 0.930 . S
C853 C852 1.369 . S
C853 C862 1.429 . S
C854 C852 1.419 1_565 S
C854 C855 1.363 . S
C854 H857 0.929 . S
C855 C854 1.363 . S
C855 C861 1.428 . S
H856 C852 0.930 . S
H857 C854 0.929 . S
S858 N859 1.613 . S
S858 N860 1.610 1_545 S
N859 S858 1.613 . S
N859 C862 1.350 . S
N860 S858 1.610 1_565 S
N860 C861 1.351 . S
C861 C855 1.428 . S
C861 N860 1.351 . S
C861 C862 1.434 1_565 S
C862 C853 1.429 . S
C862 N859 1.350 . S
C862 C861 1.434 1_545 S
C863 C864 1.369 . S
C863 C865 1.419 1_655 S
C863 H867 0.930 . S
C864 C863 1.369 . S
C864 C873 1.429 . S
C865 C863 1.419 1_455 S
C865 C866 1.363 . S
C865 H868 0.929 . S
C866 C865 1.363 . S
C866 C872 1.428 . S
H867 C863 0.930 . S
H868 C865 0.929 . S
S869 N870 1.613 . S
S869 N871 1.610 1_655 S
N870 S869 1.613 . S
N870 C873 1.350 . S
N871 S869 1.610 1_455 S
N871 C872 1.351 . S
C872 C866 1.428 . S
C872 N871 1.351 . S
C872 C873 1.434 1_455 S
C873 C864 1.429 . S
C873 N870 1.350 . S
C873 C872 1.434 1_655 S
C874 C875 1.369 . S
C874 C876 1.419 . S
C874 H878 0.930 . S
C875 C874 1.369 . S
C875 C884 1.429 . S
C876 C874 1.419 . S
C876 C877 1.363 . S
C876 H879 0.929 . S
C877 C876 1.363 . S
C877 C883 1.428 . S
H878 C874 0.930 . S
H879 C876 0.929 . S
S880 N881 1.613 . S
S880 N882 1.610 . S
N881 S880 1.613 . S
N881 C884 1.350 . S
N882 S880 1.610 . S
N882 C883 1.351 . S
C883 C877 1.428 . S
C883 N882 1.351 . S
C883 C884 1.434 . S
C884 C875 1.429 . S
C884 N881 1.350 . S
C884 C883 1.434 . S
C885 C886 1.369 . S
C885 C887 1.419 . S
C885 H889 0.930 . S
C886 C885 1.369 . S
C886 C895 1.429 . S
C887 C885 1.419 . S
C887 C888 1.363 . S
C887 H890 0.929 . S
C888 C887 1.363 . S
C888 C894 1.428 . S
H889 C885 0.930 . S
H890 C887 0.929 . S
S891 N892 1.613 . S
S891 N893 1.610 . S
N892 S891 1.613 . S
N892 C895 1.350 . S
N893 S891 1.610 . S
N893 C894 1.351 . S
C894 C888 1.428 . S
C894 N893 1.351 . S
C894 C895 1.434 . S
C895 C886 1.429 . S
C895 N892 1.350 . S
C895 C894 1.434 . S
C896 C897 1.369 . S
C896 C898 1.419 . S
C896 H900 0.930 . S
C897 C896 1.369 . S
C897 C906 1.429 . S
C898 C896 1.419 . S
C898 C899 1.363 . S
C898 H901 0.929 . S
C899 C898 1.363 . S
C899 C905 1.428 . S
H900 C896 0.930 . S
H901 C898 0.929 . S
S902 N903 1.613 . S
S902 N904 1.610 . S
N903 S902 1.613 . S
N903 C906 1.350 . S
N904 S902 1.610 . S
N904 C905 1.351 . S
C905 C899 1.428 . S
C905 N904 1.351 . S
C905 C906 1.434 . S
C906 C897 1.429 . S
C906 N903 1.350 . S
C906 C905 1.434 . S
C907 C908 1.369 . S
C907 C909 1.419 . S
C907 H911 0.930 . S
C908 C907 1.369 . S
C908 C917 1.429 . S
C909 C907 1.419 . S
C909 C910 1.363 . S
C909 H912 0.929 . S
C910 C909 1.363 . S
C910 C916 1.428 . S
H911 C907 0.930 . S
H912 C909 0.929 . S
S913 N914 1.613 . S
S913 N915 1.610 . S
N914 S913 1.613 . S
N914 C917 1.350 . S
N915 S913 1.610 . S
N915 C916 1.351 . S
C916 C910 1.428 . S
C916 N915 1.351 . S
C916 C917 1.434 . S
C917 C908 1.429 . S
C917 N914 1.350 . S
C917 C916 1.434 . S
C918 C919 1.369 . S
C918 C920 1.419 . S
C918 H922 0.930 . S
C919 C918 1.369 . S
C919 C928 1.429 . S
C920 C918 1.419 . S
C920 C921 1.363 . S
C920 H923 0.929 . S
C921 C920 1.363 . S
C921 C927 1.428 . S
H922 C918 0.930 . S
H923 C920 0.929 . S
S924 N925 1.613 . S
S924 N926 1.610 . S
N925 S924 1.613 . S
N925 C928 1.350 . S
N926 S924 1.610 . S
N926 C927 1.351 . S
C927 C921 1.428 . S
C927 N926 1.351 . S
C927 C928 1.434 . S
C928 C919 1.429 . S
C928 N925 1.350 . S
C928 C927 1.434 . S
C929 C930 1.369 . S
C929 C931 1.419 . S
C929 H933 0.930 . S
C930 C929 1.369 . S
C930 C939 1.429 . S
C931 C929 1.419 . S
C931 C932 1.363 . S
C931 H934 0.929 . S
C932 C931 1.363 . S
C932 C938 1.428 . S
H933 C929 0.930 . S
H934 C931 0.929 . S
S935 N936 1.613 . S
S935 N937 1.610 . S
N936 S935 1.613 . S
N936 C939 1.350 . S
N937 S935 1.610 . S
N937 C938 1.351 . S
C938 C932 1.428 . S
C938 N937 1.351 . S
C938 C939 1.434 . S
C939 C930 1.429 . S
C939 N936 1.350 . S
C939 C938 1.434 . S
C940 C941 1.369 . S
C940 C942 1.419 . S
C940 H944 0.930 . S
C941 C940 1.369 . S
C941 C950 1.429 . S
C942 C940 1.419 . S
C942 C943 1.363 . S
C942 H945 0.929 . S
C943 C942 1.363 . S
C943 C949 1.428 . S
H944 C940 0.930 . S
H945 C942 0.929 . S
S946 N947 1.613 . S
S946 N948 1.610 . S
N947 S946 1.613 . S
N947 C950 1.350 . S
N948 S946 1.610 . S
N948 C949 1.351 . S
C949 C943 1.428 . S
C949 N948 1.351 . S
C949 C950 1.434 . S
C950 C941 1.429 . S
C950 N947 1.350 . S
C950 C949 1.434 . S
C951 C952 1.369 . S
C951 C953 1.419 . S
C951 H955 0.930 . S
C952 C951 1.369 . S
C952 C961 1.429 . S
C953 C951 1.419 . S
C953 C954 1.363 . S
C953 H956 0.929 . S
C954 C953 1.363 . S
C954 C960 1.428 . S
H955 C951 0.930 . S
H956 C953 0.929 . S
S957 N958 1.613 . S
S957 N959 1.610 . S
N958 S957 1.613 . S
N958 C961 1.350 . S
N959 S957 1.610 . S
N959 C960 1.351 . S
C960 C954 1.428 . S
C960 N959 1.351 . S
C960 C961 1.434 . S
C961 C952 1.429 . S
C961 N958 1.350 . S
C961 C960 1.434 . S
C962 C963 1.369 . S
C962 C964 1.419 . S
C962 H966 0.930 . S
C963 C962 1.369 . S
C963 C972 1.429 . S
C964 C962 1.419 . S
C964 C965 1.363 . S
C964 H967 0.929 . S
C965 C964 1.363 . S
C965 C971 1.428 . S
H966 C962 0.930 . S
H967 C964 0.929 . S
S968 N969 1.613 . S
S968 N970 1.610 . S
N969 S968 1.613 . S
N969 C972 1.350 . S
N970 S968 1.610 . S
N970 C971 1.351 . S
C971 C965 1.428 . S
C971 N970 1.351 . S
C971 C972 1.434 . S
C972 C963 1.429 . S
C972 N969 1.350 . S
C972 C971 1.434 . S
C973 C974 1.369 . S
C973 C975 1.419 . S
C973 H977 0.930 . S
C974 C973 1.369 . S
C974 C983 1.429 . S
C975 C973 1.419 . S
C975 C976 1.363 . S
C975 H978 0.929 . S
C976 C975 1.363 . S
C976 C982 1.428 . S
H977 C973 0.930 . S
H978 C975 0.929 . S
S979 N980 1.613 . S
S979 N981 1.610 . S
N980 S979 1.613 . S
N980 C983 1.350 . S
N981 S979 1.610 . S
N981 C982 1.351 . S
C982 C976 1.428 . S
C982 N981 1.351 . S
C982 C983 1.434 . S
C983 C974 1.429 . S
C983 N980 1.350 . S
C983 C982 1.434 . S
C545 C33 1.067 . S
C547 C379 1.046 . S
C556 C277 1.054 . S
C558 C67 1.070 . S
C567 C311 1.054 . S
C569 C101 1.070 . S
C578 C345 1.055 . S
C580 C135 1.069 . S
C589 C175 1.048 . S
C591 C169 1.066 . S
C600 C209 1.051 . S
C602 C203 1.067 . S
C611 C237 1.070 . S
C613 C243 1.053 . S
C622 C271 1.065 . S
C624 C141 1.045 . S
C633 C305 1.065 . S
C635 C107 1.046 . S
C644 C339 1.066 . S
C646 C5 1.049 . S
C655 C39 1.046 . S
C657 C373 1.067 . S
C666 C407 1.065 . S
C668 C73 1.047 . S
C677 C447 1.047 . S
C679 C441 1.068 . S
C688 C481 1.044 . S
C690 C475 1.067 . S
C699 C515 1.052 . S
C701 C509 1.068 . S
C710 C543 1.069 . S
C712 C413 1.048 . S
C721 C20 1.390 . S
C723 C88 1.388 . S
C732 C54 1.389 . S
C734 C122 1.388 . S
C743 C224 1.390 . S
C745 C156 1.390 . S
C754 C258 1.390 . S
C756 C190 1.390 . S
C765 C360 1.389 . S
C767 C292 1.388 . S
C776 C326 1.388 . S
C778 C394 1.389 . S
C787 C428 1.389 . S
C789 C496 1.388 . S
C798 C530 1.388 . S
C800 C462 1.390 . S
C809 C70 1.386 . S
C811 C2 1.384 . S
C820 C36 1.382 . S
C822 C104 1.384 . S
C831 C138 1.387 . S
C833 C206 1.384 . S
C842 C240 1.389 . S
C844 C172 1.386 . S
C853 C342 1.384 . S
C855 C274 1.383 . S
C864 C308 1.390 . S
C866 C376 1.388 . S
C875 C410 1.386 . S
C877 C478 1.384 . S
C886 C512 1.387 . S
C888 C444 1.389 . S
C897 C485 1.475 . S
C899 C9 1.468 . S
C908 C43 1.472 . S
C910 C519 1.471 . S
C919 C77 1.475 . S
C921 C417 1.468 . S
C930 C111 1.467 . S
C932 C451 1.474 . S
C941 C145 1.470 . S
C943 C349 1.471 . S
C952 C383 1.466 . S
C954 C179 1.474 . S
C963 C213 1.475 . S
C965 C281 1.468 . S
C974 C247 1.466 . S
C976 C315 1.474 . S
