# Generated by pormake.
# Topology wgu, (5)-cn, num edge types: 1
# Building blocks:
#     Node 0, Type 0, BuildingBlock: BEQFEK_clean_sbu_0, # of connection points: 5
#     Node 1, Type 0, BuildingBlock: BEQFEK_clean_sbu_0, # of connection points: 5
#     Node 2, Type 0, BuildingBlock: BEQFEK_clean_sbu_0, # of connection points: 5
#     Node 3, Type 0, BuildingBlock: BEQFEK_clean_sbu_0, # of connection points: 5
#     Node 4, Type 0, BuildingBlock: BEQFEK_clean_sbu_0, # of connection points: 5
#     Node 5, Type 0, BuildingBlock: BEQFEK_clean_sbu_0, # of connection points: 5
#     Node 6, Type 0, BuildingBlock: BEQFEK_clean_sbu_0, # of connection points: 5
#     Node 7, Type 0, BuildingBlock: BEQFEK_clean_sbu_0, # of connection points: 5
#     Edge 8, Type (0, 0), BuildingBlock: XIVTED_clean_linker_0, # of connection points: 2
#     Edge 9, Type (0, 0), BuildingBlock: XIVTED_clean_linker_0, # of connection points: 2
#     Edge 10, Type (0, 0), BuildingBlock: XIVTED_clean_linker_0, # of connection points: 2
#     Edge 11, Type (0, 0), BuildingBlock: XIVTED_clean_linker_0, # of connection points: 2
#     Edge 12, Type (0, 0), BuildingBlock: XIVTED_clean_linker_0, # of connection points: 2
#     Edge 13, Type (0, 0), BuildingBlock: XIVTED_clean_linker_0, # of connection points: 2
#     Edge 14, Type (0, 0), BuildingBlock: XIVTED_clean_linker_0, # of connection points: 2
#     Edge 15, Type (0, 0), BuildingBlock: XIVTED_clean_linker_0, # of connection points: 2
#     Edge 16, Type (0, 0), BuildingBlock: XIVTED_clean_linker_0, # of connection points: 2
#     Edge 17, Type (0, 0), BuildingBlock: XIVTED_clean_linker_0, # of connection points: 2
#     Edge 18, Type (0, 0), BuildingBlock: XIVTED_clean_linker_0, # of connection points: 2
#     Edge 19, Type (0, 0), BuildingBlock: XIVTED_clean_linker_0, # of connection points: 2
#     Edge 20, Type (0, 0), BuildingBlock: XIVTED_clean_linker_0, # of connection points: 2
#     Edge 21, Type (0, 0), BuildingBlock: XIVTED_clean_linker_0, # of connection points: 2
#     Edge 22, Type (0, 0), BuildingBlock: XIVTED_clean_linker_0, # of connection points: 2
#     Edge 23, Type (0, 0), BuildingBlock: XIVTED_clean_linker_0, # of connection points: 2
#     Edge 24, Type (0, 0), BuildingBlock: XIVTED_clean_linker_0, # of connection points: 2
#     Edge 25, Type (0, 0), BuildingBlock: XIVTED_clean_linker_0, # of connection points: 2
#     Edge 26, Type (0, 0), BuildingBlock: XIVTED_clean_linker_0, # of connection points: 2
#     Edge 27, Type (0, 0), BuildingBlock: XIVTED_clean_linker_0, # of connection points: 2
# Relax obj value: 0.463
# Max RMSD: 0.226
# Mean RMSD: 0.226
data_MOF--net-wgu--node1-BEQFEK_clean_sbu_0--edge1-XIVTED_clean_linker_0
_symmetry_space_group_name_H-M    P1
_symmetry_Int_Tables_number       1
_symmetry_cell_setting            triclinic
loop_
_symmetry_equiv_pos_as_xyz
'x, y, z'
_cell_length_a     32.910209
_cell_length_b     32.98117
_cell_length_c     28.404268
_cell_angle_alpha  89.935619
_cell_angle_beta   90.146038
_cell_angle_gamma 89.923671
loop_
_atom_site_label
_atom_site_type_symbol
_atom_site_fract_x
_atom_site_fract_y
_atom_site_fract_z
_atom_type_partial_charge
Co0 Co 0.30039 0.38901 0.0353 0.0
Co1 Co 0.3628 0.31734 0.03684 0.0
C2 C 0.3033 0.32845 0.957 0.0
O3 O 0.28721 0.35944 0.97615 0.0
O4 O 0.33309 0.31014 0.97633 0.0
C5 C 0.22695 0.43673 1.02106 0.0
O6 O 0.21916 0.41208 0.98591 0.0
C7 C 0.38747 0.23255 0.03369 0.0
C8 C 0.4422 0.23151 0.07879 0.0
C9 C 0.41606 0.20682 0.05352 0.0
N10 N 0.39637 0.27076 0.04628 0.0
N11 N 0.42973 0.27008 0.07231 0.0
C12 C 0.34885 0.2205 1.00945 0.0
H13 H 0.324 0.24178 1.01869 0.0
H14 H 0.33967 0.18919 1.01898 0.0
H15 H 0.35363 0.22175 0.97085 0.0
C16 C 0.27729 0.35251 0.12691 0.0
N17 N 0.3 0.35316 0.08749 0.0
N18 N 0.32534 0.32228 0.08802 0.0
C19 C 0.319 0.30049 0.12764 0.0
C20 C 0.2884 0.31901 0.15378 0.0
C21 C 0.2475 0.38502 0.13967 0.0
H22 H 0.22045 0.38262 0.11644 0.0
H23 H 0.23788 0.38285 0.17696 0.0
H24 H 0.26147 0.41518 0.13381 0.0
O25 O 0.35399 0.41645 1.03052 0.0
O26 O 0.39864 0.36599 0.03338 0.0
H27 H 0.37282 0.26718 0.14501 0.0
H28 H 0.32698 0.24597 0.16988 0.0
C29 C 0.34008 0.26135 0.13875 0.0
H30 H 0.33712 0.24056 0.10845 0.0
H31 H 0.44251 0.29567 0.08803 0.0
O32 O 0.25917 0.43191 0.04523 0.0
C33 C 0.39059 0.40376 1.03068 0.0
Co34 Co 0.61975 0.30141 0.52368 0.0
Co35 Co 0.69384 0.36058 0.52672 0.0
C36 C 0.68316 0.30015 0.44841 0.0
O37 O 0.65105 0.28574 0.46682 0.0
O38 O 0.70191 0.32963 0.46743 0.0
C39 C 0.57725 0.2244 0.52955 0.0
O40 O 0.61338 0.20752 0.53144 0.0
C41 C 0.78013 0.37998 0.52718 0.0
C42 C 0.78269 0.4369 0.56791 0.0
C43 C 0.80676 0.40802 0.54615 0.0
N44 N 0.74198 0.39173 0.53693 0.0
N45 N 0.74363 0.42633 0.56033 0.0
C46 C 0.79085 0.33968 0.50632 0.0
H47 H 0.76772 0.31669 0.51594 0.0
H48 H 0.82124 0.32924 0.5183 0.0
H49 H 0.79141 0.34258 0.46744 0.0
C50 C 0.65125 0.28071 0.62002 0.0
N51 N 0.65332 0.30062 0.5785 0.0
N52 N 0.68524 0.32472 0.57902 0.0
C53 C 0.70484 0.32023 0.62053 0.0
C54 C 0.68391 0.29231 0.64792 0.0
C55 C 0.61676 0.25405 0.63464 0.0
H56 H 0.58805 0.26451 0.61817 0.0
H57 H 0.62305 0.22253 0.62322 0.0
H58 H 0.61324 0.254 0.6735 0.0
O59 O 0.59505 0.35605 0.5163 0.0
O60 O 0.64702 0.39874 0.52034 0.0
H61 H 0.73816 0.37434 0.63559 0.0
H62 H 0.75653 0.33025 0.66692 0.0
C63 C 0.74366 0.34125 0.63317 0.0
H64 H 0.76646 0.33561 0.60542 0.0
H65 H 0.71822 0.44147 0.57348 0.0
O66 O 0.57395 0.26277 0.52763 0.0
C67 C 0.60901 0.39207 0.5163 0.0
Co68 Co 0.71089 0.62052 0.03693 0.0
Co69 Co 0.64757 0.69117 0.03622 0.0
C70 C 0.70916 0.67994 0.95816 0.0
O71 O 0.72546 0.64925 0.97779 0.0
O72 O 0.67881 0.69765 0.97673 0.0
C73 C 0.78509 0.57393 1.02649 0.0
O74 O 0.79392 0.59963 0.99269 0.0
C75 C 0.6297 0.77649 0.03207 0.0
C76 C 0.56783 0.78201 0.06132 0.0
C77 C 0.59992 0.80443 0.04348 0.0
N78 N 0.61589 0.73925 0.04207 0.0
N79 N 0.57865 0.74255 0.05902 0.0
C80 C 0.67267 0.78523 1.01799 0.0
H81 H 0.69303 0.75999 1.02861 0.0
H82 H 0.6836 0.81372 0.03444 0.0
H83 H 0.6741 0.78882 0.9792 0.0
C84 C 0.73236 0.65833 0.1286 0.0
N85 N 0.7103 0.65695 0.08859 0.0
N86 N 0.68315 0.68626 0.08908 0.0
C87 C 0.68678 0.707 0.12984 0.0
C88 C 0.71821 0.69009 0.15618 0.0
C89 C 0.76466 0.62816 0.1411 0.0
H90 H 0.75183 0.59712 0.13904 0.0
H91 H 0.78969 0.63023 0.11512 0.0
H92 H 0.77691 0.63315 0.17703 0.0
O93 O 0.65693 0.59312 0.03106 0.0
O94 O 0.61153 0.64306 0.03222 0.0
H95 H 0.62876 0.73551 0.13835 0.0
H96 H 0.66702 0.75344 0.17908 0.0
C97 C 0.66138 0.74304 0.1426 0.0
H98 H 0.66868 0.76843 0.11855 0.0
H99 H 0.56119 0.71807 0.07046 0.0
O100 O 0.75188 0.57768 0.04885 0.0
C101 C 0.62013 0.60538 1.03017 0.0
Co102 Co 0.39731 0.71639 0.52517 0.0
Co103 Co 0.32625 0.65405 0.52614 0.0
C104 C 0.33722 0.71472 0.44699 0.0
O105 O 0.36839 0.73069 0.46601 0.0
O106 O 0.3192 0.68488 0.46626 0.0
C107 C 0.46421 0.7677 0.5033 0.0
O108 O 0.46075 0.75092 0.46155 0.0
C109 C 0.24055 0.63643 0.52622 0.0
C110 C 0.23666 0.57442 0.55531 0.0
C111 C 0.21321 0.6067 0.53958 0.0
N112 N 0.27833 0.62243 0.53333 0.0
N113 N 0.27597 0.58508 0.55006 0.0
C114 C 0.23119 0.67941 0.51279 0.0
H115 H 0.2573 0.69944 0.52094 0.0
H116 H 0.20392 0.69058 0.53168 0.0
H117 H 0.22505 0.68088 0.4744 0.0
C118 C 0.35812 0.74168 0.61468 0.0
N119 N 0.36084 0.71726 0.57675 0.0
N120 N 0.33143 0.69031 0.57814 0.0
C121 C 0.30941 0.69637 0.61756 0.0
C122 C 0.32531 0.72933 0.64181 0.0
C123 C 0.3849 0.77764 0.62278 0.0
H124 H 0.38733 0.79551 0.58979 0.0
H125 H 0.37311 0.79743 0.6512 0.0
H126 H 0.41584 0.76697 0.63233 0.0
O127 O 0.42474 0.6624 0.52008 0.0
O128 O 0.37425 0.61782 0.52207 0.0
H129 H 0.28147 0.63794 0.62477 0.0
H130 H 0.26975 0.67285 0.67162 0.0
C131 C 0.27494 0.67006 0.63317 0.0
H132 H 0.24679 0.67943 0.61458 0.0
H133 H 0.30107 0.56755 0.5597 0.0
O134 O 0.44001 0.75723 0.53585 0.0
C135 C 0.41206 0.62586 0.51961 0.0
Co136 Co 0.79825 0.11858 0.07628 0.0
Co137 Co 0.86088 0.1897 0.07449 0.0
C138 C 0.80176 0.17776 0.15491 0.0
O139 O 0.78503 0.14704 0.13599 0.0
O140 O 0.8314 0.19561 0.13509 0.0
C141 C 0.72511 0.07107 0.08912 0.0
O142 O 0.71734 0.09593 0.12405 0.0
C143 C 0.8769 0.27524 0.07748 0.0
C144 C 0.93886 0.28183 0.04883 0.0
C145 C 0.90618 0.3037 0.06625 0.0
N146 N 0.89155 0.23825 0.06782 0.0
N147 N 0.92882 0.24219 0.05114 0.0
C148 C 0.83383 0.28313 0.0919 0.0
H149 H 0.81398 0.25751 0.08148 0.0
H150 H 0.82222 0.31147 0.07556 0.0
H151 H 0.83254 0.28654 0.13071 0.0
C152 C 0.77204 0.15803 0.98704 0.0
N153 N 0.79669 0.15537 1.02492 0.0
N154 N 0.8235 0.1849 1.02343 0.0
C155 C 0.81695 0.2071 0.98419 0.0
C156 C 0.78398 0.19102 0.96 0.0
C157 C 0.73637 0.13086 0.97872 0.0
H158 H 0.74737 0.09961 0.97189 0.0
H159 H 0.71727 0.13 1.01081 0.0
H160 H 0.71757 0.14124 0.94856 0.0
O161 O 0.85276 0.09167 0.08029 0.0
O162 O 0.89752 0.14199 0.07716 0.0
H163 H 0.87517 0.23544 0.97624 0.0
H164 H 0.83906 0.24811 0.93062 0.0
C165 C 0.84276 0.242 0.96882 0.0
H166 H 0.83373 0.26955 0.98853 0.0
H167 H 0.94689 0.21799 0.04011 0.0
O168 O 0.75748 0.07549 0.0653 0.0
C169 C 0.88942 0.10427 0.07984 0.0
Co170 Co 0.89241 0.79631 0.58649 0.0
Co171 Co 0.82257 0.86127 0.58777 0.0
C172 C 0.83342 0.79911 0.66573 0.0
O173 O 0.86367 0.78234 0.64575 0.0
O174 O 0.81595 0.82983 0.64741 0.0
C175 C 0.94579 0.7275 0.60217 0.0
O176 O 0.92979 0.72606 0.64446 0.0
C177 C 0.74086 0.88482 0.59565 0.0
C178 C 0.75747 0.90556 0.58316 0.0
C179 C 0.71415 0.91564 0.59409 0.0
N180 N 0.77647 0.89752 0.5827 0.0
N181 N 0.78325 0.93664 0.57307 0.0
C182 C 0.72985 0.83896 0.61066 0.0
H183 H 0.7298 0.83676 0.64961 0.0
H184 H 0.75263 0.81746 0.59635 0.0
H185 H 0.69922 0.8299 0.59818 0.0
C186 C 0.85242 0.77525 0.4962 0.0
N187 N 0.85515 0.79806 0.53541 0.0
N188 N 0.82602 0.82545 0.53509 0.0
C189 C 0.8041 0.82112 0.49518 0.0
C190 C 0.81999 0.7891 0.46924 0.0
C191 C 0.87909 0.73945 0.48636 0.0
H192 H 0.91009 0.75024 0.47762 0.0
H193 H 0.88128 0.72022 0.51833 0.0
H194 H 0.86725 0.72084 0.45689 0.0
O195 O 0.922 0.84888 0.59236 0.0
O196 O 0.87259 0.89468 0.59205 0.0
H197 H 0.76288 0.84591 0.44309 0.0
H198 H 0.74224 0.83851 0.50125 0.0
C199 C 0.76953 0.848 0.48131 0.0
H200 H 0.77666 0.87991 0.49018 0.0
H201 H 0.81358 0.9402 0.56347 0.0
O202 O 0.93409 0.75459 0.57331 0.0
C203 C 0.91021 0.88568 0.59374 0.0
Co204 Co 0.21385 0.89484 0.07627 0.0
Co205 Co 0.1537 0.82194 0.07307 0.0
C206 C 0.21384 0.83263 0.15242 0.0
O207 O 0.22932 0.86409 0.13379 0.0
O208 O 0.18403 0.81463 0.13309 0.0
C209 C 0.29121 0.93667 0.07176 0.0
O210 O 0.30789 0.90049 0.07062 0.0
C211 C 0.13728 0.73599 0.0751 0.0
C212 C 0.07653 0.73022 0.04258 0.0
C213 C 0.1082 0.70789 0.06184 0.0
N214 N 0.12346 0.77321 0.06465 0.0
N215 N 0.08687 0.76973 0.04574 0.0
C216 C 0.17978 0.72751 0.09151 0.0
H217 H 0.20033 0.75272 0.08156 0.0
H218 H 0.19144 0.6989 0.07605 0.0
H219 H 0.17991 0.7244 0.13039 0.0
C220 C 0.23516 0.86245 0.98056 0.0
N221 N 0.21485 0.861 1.0218 0.0
N222 N 0.18981 0.82985 1.02105 0.0
C223 C 0.19377 0.81033 0.97956 0.0
C224 C 0.22267 0.83028 0.95254 0.0
C225 C 0.26312 0.89598 0.96624 0.0
H226 H 0.2531 0.92504 0.98198 0.0
H227 H 0.29427 0.88895 0.9788 0.0
H228 H 0.26405 0.89917 0.92735 0.0
O229 O 0.15896 0.91982 0.08273 0.0
O230 O 0.11549 0.86854 0.0781 0.0
H231 H 0.13774 0.77911 0.96748 0.0
H232 H 0.17915 0.76126 0.93122 0.0
C233 C 0.17082 0.77279 0.9665 0.0
H234 H 0.17766 0.74863 0.99238 0.0
H235 H 0.06951 0.79416 0.03374 0.0
O236 O 0.25276 0.94028 0.07249 0.0
C237 C 0.12265 0.90636 0.08214 0.0
Co238 Co 0.12091 0.20692 0.58736 0.0
Co239 Co 0.19499 0.14758 0.58266 0.0
C240 C 0.18522 0.20665 0.66228 0.0
O241 O 0.15311 0.22171 0.64423 0.0
O242 O 0.20359 0.17723 0.64265 0.0
C243 C 0.07823 0.28414 0.58175 0.0
O244 O 0.11426 0.30103 0.57894 0.0
C245 C 0.281 0.1256 0.58239 0.0
C246 C 0.28226 0.0722 0.53562 0.0
C247 C 0.307 0.09844 0.56066 0.0
N248 N 0.24259 0.11586 0.57094 0.0
N249 N 0.24347 0.08324 0.54395 0.0
C250 C 0.29268 0.16387 0.60736 0.0
H251 H 0.27075 0.18843 0.59902 0.0
H252 H 0.32372 0.17387 0.59762 0.0
H253 H 0.29203 0.1583 0.64585 0.0
C254 C 0.15145 0.22874 0.49114 0.0
N255 N 0.15375 0.20805 0.53213 0.0
N256 N 0.1863 0.18476 0.5315 0.0
C257 C 0.20652 0.19116 0.49084 0.0
C258 C 0.18497 0.219 0.46368 0.0
C259 C 0.11606 0.25442 0.47656 0.0
H260 H 0.08782 0.24342 0.49344 0.0
H261 H 0.12159 0.28622 0.48741 0.0
H262 H 0.11211 0.2539 0.43775 0.0
O263 O 0.09618 0.15253 0.59441 0.0
O264 O 0.14791 0.10963 0.58854 0.0
H265 H 0.24357 0.1404 0.47195 0.0
H266 H 0.26193 0.18824 0.44942 0.0
C267 C 0.24717 0.17314 0.47972 0.0
H268 H 0.26755 0.17657 0.5104 0.0
H269 H 0.21776 0.07008 0.5288 0.0
O270 O 0.07509 0.2458 0.58426 0.0
C271 C 0.11001 0.11645 0.59347 0.0
H272 H 0.27705 1.00492 0.12192 0.0
H273 H 0.41968 0.14847 0.98578 0.0
H274 H 0.3624 0.95156 1.02504 0.0
H275 H 0.39848 0.16664 0.13387 0.0
H276 H 0.39657 0.07782 0.99395 0.0
H277 H 0.31709 0.06737 0.12186 0.0
C278 C 0.30436 0.00641 0.10077 0.0
C279 C 0.31654 0.97332 0.07335 0.0
C280 C 0.39806 0.09703 1.02481 0.0
C281 C 0.36192 0.04456 0.07256 0.0
C282 C 0.41125 0.13708 1.02018 0.0
C283 C 0.41122 0.16284 0.05935 0.0
C284 C 0.38357 0.08351 0.06851 0.0
C285 C 0.39934 0.14732 0.10308 0.0
C286 C 0.32729 0.04183 0.10103 0.0
C287 C 0.35224 0.97655 0.04672 0.0
N288 N 0.38512 0.1088 0.10634 0.0
N289 N 0.37342 0.01199 0.04624 0.0
H290 H 0.00908 0.27157 0.63123 0.0
H291 H 0.86695 0.4073 0.48049 0.0
H292 H 0.06308 0.35262 0.52998 0.0
H293 H 0.84444 0.39141 0.62868 0.0
H294 H 0.93732 0.38389 0.49259 0.0
H295 H 0.94569 0.31032 0.62624 0.0
C296 C 0.00755 0.29771 0.60814 0.0
C297 C 0.04112 0.30906 0.58096 0.0
C298 C 0.91718 0.38647 0.52255 0.0
C299 C 0.9688 0.35282 0.57443 0.0
C300 C 0.87729 0.39982 0.51568 0.0
C301 C 0.85046 0.40159 0.55381 0.0
C302 C 0.9295 0.37362 0.56751 0.0
C303 C 0.86464 0.39088 0.59865 0.0
C304 C 0.97157 0.31988 0.60554 0.0
C305 C 0.03777 0.34317 0.55165 0.0
N306 N 0.90307 0.37656 0.60418 0.0
N307 N 1.00185 0.36355 0.54845 0.0
H308 H 0.66249 0.04174 0.14284 0.0
H309 H 0.62811 0.85216 0.97269 0.0
H310 H 0.72438 0.02335 1.01073 0.0
H311 H 0.58293 0.85715 0.11484 0.0
H312 H 0.65014 0.92261 0.97941 0.0
H313 H 0.62114 0.98152 0.12692 0.0
C314 C 0.66709 0.02531 0.11029 0.0
C315 C 0.69736 0.03716 0.0784 0.0
C316 C 0.63492 0.90857 1.00898 0.0
C317 C 0.6501 0.96862 0.05991 0.0
C318 C 0.62231 0.86844 1.00509 0.0
C319 C 0.6046 0.84883 0.04365 0.0
C320 C 0.6299 0.92913 0.05185 0.0
C321 C 0.59684 0.87131 0.08449 0.0
C322 C 0.6435 0.99098 0.10125 0.0
C323 C 0.70185 0.01493 0.03666 0.0
N324 N 0.61022 0.91021 0.08788 0.0
N325 N 0.67869 0.98161 1.0288 0.0
H326 H 0.9805 0.71802 0.51564 0.0
H327 H 0.1658 0.58703 0.61483 0.0
H328 H 0.98758 0.67425 0.65875 0.0
H329 H 0.1602 0.63748 0.47492 0.0
H330 H 0.09496 0.60744 0.62735 0.0
H331 H 0.04059 0.67823 0.49633 0.0
C332 C 0.99452 0.69979 0.54297 0.0
C333 C 0.9794 0.70002 0.58911 0.0
C334 C 0.10904 0.61354 0.59367 0.0
C335 C 0.04845 0.65441 0.56722 0.0
C336 C 0.14931 0.60166 0.58644 0.0
C337 C 0.16887 0.61147 0.54419 0.0
C338 C 0.0884 0.63515 0.55823 0.0
C339 C 0.14635 0.63033 0.50844 0.0
C340 C 0.02884 0.67698 0.53188 0.0
C341 C 0.99848 0.67531 0.62285 0.0
N342 N 0.10745 0.64204 0.51647 0.0
N343 N 0.03235 0.65387 0.61138 0.0
H344 H 0.84845 0.54506 0.97353 0.0
H345 H 0.8764 0.34996 0.13747 0.0
H346 H 0.78353 0.52407 0.10314 0.0
H347 H 0.92422 0.35797 0.99666 0.0
H348 H 0.85517 0.42081 0.13247 0.0
H349 H 0.88822 0.48341 0.98812 0.0
C350 C 0.84289 0.52777 1.0053 0.0
C351 C 0.81221 0.53933 0.03683 0.0
C352 C 0.87071 0.40731 0.1028 0.0
C353 C 0.85763 0.46912 0.05377 0.0
C354 C 0.8828 0.36692 0.10567 0.0
C355 C 0.9011 0.34808 0.06697 0.0
C356 C 0.87688 0.42895 0.06082 0.0
C357 C 0.90981 0.37149 1.02707 0.0
C358 C 0.86556 0.49261 1.01355 0.0
C359 C 0.80643 0.51595 0.07752 0.0
N360 N 0.89697 0.41068 1.02465 0.0
N361 N 0.82872 0.48185 0.08464 0.0
H362 H 0.47672 0.81126 0.58386 0.0
H363 H 0.69455 0.89195 0.50383 0.0
H364 H 0.52686 0.79046 0.44563 0.0
H365 H 0.6432 0.91284 0.64096 0.0
H366 H 0.63016 0.86168 0.47825 0.0
H367 H 0.53416 0.85514 0.60213 0.0
C368 C 0.49971 0.8161 0.55721 0.0
C369 C 0.49723 0.79676 0.51332 0.0
C370 C 0.63283 0.87309 0.51385 0.0
C371 C 0.56323 0.84698 0.5341 0.0
C372 C 0.6696 0.89002 0.52842 0.0
C373 C 0.67434 0.90322 0.57503 0.0
C374 C 0.60067 0.86971 0.5461 0.0
C375 C 0.64073 0.90218 0.60502 0.0
C376 C 0.5325 0.84126 0.56766 0.0
C377 C 0.5277 0.80451 0.48004 0.0
N378 N 0.60543 0.88504 0.5903 0.0
N379 N 0.55966 0.82873 0.49128 0.0
H380 H 0.16575 0.46773 0.96584 0.0
H381 H 0.1359 0.66001 0.13319 0.0
H382 H 0.22667 0.48484 0.09911 0.0
H383 H 0.09131 0.65502 0.99051 0.0
H384 H 0.15639 0.58899 0.12746 0.0
H385 H 0.12644 0.52966 0.9802 0.0
C386 C 0.17052 0.48422 0.99834 0.0
C387 C 0.19998 0.47149 0.03101 0.0
C388 C 0.14171 0.6032 0.09752 0.0
C389 C 0.15509 0.54202 0.04768 0.0
C390 C 0.13006 0.64369 0.1008 0.0
C391 C 0.11292 0.66344 0.06184 0.0
C392 C 0.13625 0.58236 0.05488 0.0
C393 C 0.10486 0.64081 1.02115 0.0
C394 C 0.14812 0.51955 1.00647 0.0
C395 C 0.20475 0.49387 0.07261 0.0
N396 N 0.11725 0.60152 1.01838 0.0
N397 N 0.18277 0.52816 0.07958 0.0
H398 H 0.36793 0.09591 0.62587 0.0
H399 H 0.50728 0.23852 0.48177 0.0
H400 H 0.34399 0.11804 0.47888 0.0
H401 H 0.56323 0.15403 0.57819 0.0
H402 H 0.44438 0.19915 0.48526 0.0
H403 H 0.43809 0.11993 0.61465 0.0
C404 C 0.37792 0.10486 0.59107 0.0
C405 C 0.3507 0.10478 0.55308 0.0
C406 C 0.47057 0.189 0.50525 0.0
C407 C 0.4295 0.13339 0.54048 0.0
C408 C 0.50627 0.21153 0.50353 0.0
C409 C 0.54026 0.1994 0.52979 0.0
C410 C 0.46849 0.15481 0.53453 0.0
C411 C 0.53758 0.16415 0.55731 0.0
C412 C 0.4177 0.11855 0.58471 0.0
C413 C 0.36447 0.11728 0.50879 0.0
N414 N 0.50192 0.14335 0.55969 0.0
N415 N 0.40277 0.13189 0.50385 0.0
H416 H 0.62608 0.5223 1.02766 0.0
H417 H 0.3852 0.48668 1.02572 0.0
H418 H 0.53782 0.61931 1.02753 0.0
H419 H 0.47296 0.38929 1.03067 0.0
H420 H 0.44081 0.53548 1.02374 0.0
H421 H 0.57062 0.47315 1.02608 0.0
C422 C 0.59508 0.53335 1.02717 0.0
C423 C 0.58673 0.57515 1.02781 0.0
C424 C 0.44795 0.50345 1.02519 0.0
C425 C 0.52291 0.51879 1.02607 0.0
C426 C 0.41615 0.47546 1.0263 0.0
C427 C 0.42428 0.43366 1.02845 0.0
C428 C 0.48836 0.48971 1.02622 0.0
C429 C 0.46512 0.42115 1.02907 0.0
C430 C 0.56338 0.50519 1.02631 0.0
C431 C 0.54584 0.58747 1.02712 0.0
N432 N 0.49558 0.44902 1.02803 0.0
N433 N 0.51554 0.55946 1.02635 0.0
H434 H 0.52604 0.38925 0.50858 0.0
H435 H 0.49548 0.63027 0.51686 0.0
H436 H 0.62576 0.47389 0.51758 0.0
H437 H 0.39676 0.54415 0.51579 0.0
H438 H 0.54377 0.57392 0.51358 0.0
H439 H 0.4786 0.44603 0.50731 0.0
C440 C 0.53807 0.41977 0.5101 0.0
C441 C 0.58011 0.42666 0.51331 0.0
C442 C 0.51154 0.56738 0.51399 0.0
C443 C 0.52558 0.49214 0.512 0.0
C444 C 0.48389 0.59956 0.51584 0.0
C445 C 0.44186 0.59206 0.51671 0.0
C446 C 0.49717 0.52729 0.51291 0.0
C447 C 0.42879 0.55153 0.51528 0.0
C448 C 0.51085 0.45226 0.50944 0.0
C449 C 0.59367 0.46703 0.51513 0.0
N450 N 0.4563 0.52078 0.5135 0.0
N451 N 0.5665 0.4982 0.51456 0.0
H452 H 0.12623 0.98923 0.08872 0.0
H453 H 0.88478 0.02107 0.08269 0.0
H454 H 0.04057 0.89037 0.08103 0.0
H455 H 0.97145 0.11927 0.08211 0.0
H456 H 0.94108 0.97269 0.08532 0.0
H457 H 0.06965 0.03702 0.08985 0.0
C458 C 0.09554 0.97747 0.08743 0.0
C459 C 0.08829 0.93556 0.08468 0.0
C460 C 0.94777 1.00482 0.08467 0.0
C461 C 0.02308 0.99047 0.08585 0.0
C462 C 0.9156 0.03253 0.08319 0.0
C463 C 0.92326 0.07444 0.08209 0.0
C464 C 0.988 0.019 0.08514 0.0
C465 C 0.96394 0.08733 0.08283 0.0
C466 C 0.06318 1.00488 0.08801 0.0
C467 C 0.04772 0.92234 0.08312 0.0
N468 N 0.99469 0.05976 0.08428 0.0
N469 N 0.01669 0.94968 0.08365 0.0
H470 H 0.99366 0.87962 0.59335 0.0
H471 H 0.02747 0.12002 0.60444 0.0
H472 H 0.89643 0.96747 0.60016 0.0
H473 H 0.12604 0.03442 0.58982 0.0
H474 H 0.97964 0.06384 0.60679 0.0
H475 H 0.04295 0.93512 0.59568 0.0
C476 C 0.98262 0.91051 0.59548 0.0
C477 C 0.94071 0.91878 0.59645 0.0
C478 C 0.01172 0.05724 0.60316 0.0
C479 C 0.99711 0.98251 0.59912 0.0
C480 C 0.03917 0.08939 0.60186 0.0
C481 C 0.081 0.08208 0.59678 0.0
C482 C 0.02595 0.01722 0.59936 0.0
C483 C 0.09412 0.04159 0.59371 0.0
C484 C 0.01082 0.9422 0.59677 0.0
C485 C 0.92834 0.95949 0.59922 0.0
N486 N 0.06669 0.0107 0.59494 0.0
N487 N 0.95635 0.98972 0.6004 0.0
H488 H 0.33033 0.29727 0.2331 0.0
H489 H 0.18317 0.29789 0.43321 0.0
H490 H 0.20847 0.3116 0.17928 0.0
H491 H 0.21123 0.17659 0.3867 0.0
H492 H 0.2058 0.32399 0.35633 0.0
H493 H 0.30199 0.27295 0.30806 0.0
C494 C 0.29767 0.29525 0.23705 0.0
C495 C 0.27167 0.30603 0.19986 0.0
C496 C 0.20666 0.29169 0.36323 0.0
C497 C 0.2395 0.27971 0.28539 0.0
C498 C 0.19366 0.27675 0.40675 0.0
C499 C 0.19578 0.23505 0.41647 0.0
C500 C 0.22222 0.26473 0.32974 0.0
C501 C 0.20999 0.20902 0.38101 0.0
C502 C 0.28168 0.28166 0.2797 0.0
C503 C 0.22952 0.30376 0.2072 0.0
N504 N 0.22327 0.22434 0.33934 0.0
N505 N 0.2146 0.29088 0.24931 0.0
H506 H 0.7559 0.26738 0.94482 0.0
H507 H 0.69865 0.34002 0.72426 0.0
H508 H 0.76844 0.15121 0.87737 0.0
H509 H 0.69103 0.21495 0.68184 0.0
H510 H 0.72031 0.31872 0.80219 0.0
H511 H 0.72651 0.29488 0.87296 0.0
C512 C 0.75266 0.24782 0.91443 0.0
C513 C 0.76482 0.20718 0.9167 0.0
C514 C 0.71326 0.29552 0.77667 0.0
C515 C 0.73227 0.23856 0.83304 0.0
C516 C 0.70126 0.30791 0.73176 0.0
C517 C 0.69356 0.27921 0.69659 0.0
C518 C 0.71716 0.25388 0.78681 0.0
C519 C 0.69676 0.238 0.70812 0.0
C520 C 0.73609 0.26356 0.87299 0.0
C521 C 0.75937 0.18278 0.87685 0.0
N522 N 0.70863 0.22657 0.75214 0.0
N523 N 0.74371 0.1989 0.83656 0.0
H524 H 0.86479 0.77538 0.39007 0.0
H525 H 0.67489 0.69699 0.23759 0.0
H526 H 0.74281 0.76749 0.44404 0.0
H527 H 0.79528 0.71184 0.18103 0.0
H528 H 0.69962 0.72042 0.31436 0.0
H529 H 0.8406 0.74969 0.31408 0.0
C530 C 0.83292 0.76802 0.38585 0.0
C531 C 0.80571 0.77347 0.4232 0.0
C532 C 0.7207 0.71858 0.28523 0.0
C533 C 0.77769 0.74435 0.33647 0.0
C534 C 0.70656 0.70533 0.24148 0.0
C535 C 0.73308 0.70291 0.20308 0.0
C536 C 0.76177 0.72933 0.29065 0.0
C537 C 0.77394 0.71335 0.20993 0.0
C538 C 0.81908 0.75352 0.34249 0.0
C539 C 0.76467 0.76396 0.41591 0.0
N540 N 0.78705 0.72621 0.25284 0.0
N541 N 0.75189 0.74984 0.37342 0.0
H542 H 0.17532 0.81945 0.87476 0.0
H543 H 0.2478 0.75429 0.65731 0.0
H544 H 0.30014 0.81896 0.92049 0.0
H545 H 0.36533 0.74774 0.7238 0.0
H546 H 0.21968 0.78309 0.72865 0.0
H547 H 0.19658 0.79795 0.79705 0.0
C548 C 0.2074 0.81486 0.86808 0.0
C549 C 0.23596 0.82032 0.9041 0.0
C550 C 0.25153 0.77529 0.72856 0.0
C551 C 0.26142 0.7963 0.8142 0.0
C552 C 0.2676 0.75883 0.68737 0.0
C553 C 0.30878 0.74839 0.68491 0.0
C554 C 0.27681 0.781 0.76811 0.0
C555 C 0.33336 0.75548 0.72439 0.0
C556 C 0.21982 0.80276 0.8233 0.0
C557 C 0.27717 0.81485 0.89356 0.0
N558 N 0.31696 0.77113 0.76443 0.0
N559 N 0.28863 0.80285 0.8497 0.0
H560 H 0.68275 0.74533 0.9069 0.0
H561 H 0.85752 0.72973 0.71191 0.0
H562 H 0.77578 0.65288 0.9088 0.0
H563 H 0.77172 0.82858 0.72071 0.0
H564 H 0.82744 0.70003 0.78266 0.0
H565 H 0.71371 0.7745 0.8368 0.0
C566 C 0.70967 0.73107 0.89261 0.0
C567 C 0.72672 0.69662 0.91409 0.0
C568 C 0.81525 0.72824 0.7691 0.0
C569 C 0.76246 0.73005 0.83336 0.0
C570 C 0.83247 0.7453 0.72872 0.0
C571 C 0.817 0.78166 0.70998 0.0
C572 C 0.78222 0.74756 0.79093 0.0
C573 C 0.78446 0.80035 0.73343 0.0
C574 C 0.7274 0.74783 0.8525 0.0
C575 C 0.76155 0.67945 0.89357 0.0
N576 N 0.76812 0.78305 0.77248 0.0
N577 N 0.77826 0.69635 0.8544 0.0
H578 H 0.36558 0.77958 0.39579 0.0
H579 H 0.18674 0.76795 0.20417 0.0
H580 H 0.27045 0.68952 0.39714 0.0
H581 H 0.28124 0.85861 0.20127 0.0
H582 H 0.21724 0.73908 0.27496 0.0
H583 H 0.33573 0.8088 0.32442 0.0
C584 C 0.33852 0.76583 0.38106 0.0
C585 C 0.32054 0.73198 0.40266 0.0
C586 C 0.23134 0.76531 0.25891 0.0
C587 C 0.2861 0.76549 0.32094 0.0
C588 C 0.21391 0.78186 0.21837 0.0
C589 C 0.23145 0.81578 0.19649 0.0
C590 C 0.26668 0.78269 0.27796 0.0
C591 C 0.2666 0.8325 0.21687 0.0
C592 C 0.32145 0.78261 0.34032 0.0
C593 C 0.28544 0.71558 0.38187 0.0
N594 N 0.28306 0.81576 0.25638 0.0
N595 N 0.2694 0.7325 0.34231 0.0
H596 H 0.25067 0.17998 0.71353 0.0
H597 H 0.23626 0.35523 0.9079 0.0
H598 H 0.15876 0.27351 0.71135 0.0
H599 H 0.33113 0.26474 0.90414 0.0
H600 H 0.20712 0.32598 0.83631 0.0
H601 H 0.27978 0.21041 0.78405 0.0
C602 C 0.23658 0.20696 0.72778 0.0
C603 C 0.20226 0.22425 0.70616 0.0
C604 C 0.23435 0.31258 0.85115 0.0
C605 C 0.23553 0.25933 0.78745 0.0
C606 C 0.25108 0.32932 0.89203 0.0
C607 C 0.28617 0.31234 0.91238 0.0
C608 C 0.25275 0.27857 0.8304 0.0
C609 C 0.30394 0.27873 0.89008 0.0
C610 C 0.25326 0.22435 0.76819 0.0
C611 C 0.18521 0.25908 0.72672 0.0
N612 N 0.28701 0.26295 0.85047 0.0
N613 N 0.20203 0.27547 0.76616 0.0
H614 H 0.83078 0.24192 0.20599 0.0
H615 H 0.65486 0.23361 0.40025 0.0
H616 H 0.73545 0.15207 0.20569 0.0
H617 H 0.74931 0.32433 0.39707 0.0
H618 H 0.68398 0.20275 0.3297 0.0
H619 H 0.80186 0.27138 0.27703 0.0
C620 C 0.80381 0.22824 0.22088 0.0
C621 C 0.7855 0.19444 0.19958 0.0
C622 C 0.69832 0.2294 0.34447 0.0
C623 C 0.75205 0.2283 0.2813 0.0
C624 C 0.68166 0.24713 0.38474 0.0
C625 C 0.69968 0.28164 0.40485 0.0
C626 C 0.73329 0.24625 0.32406 0.0
C627 C 0.73443 0.29768 0.3831 0.0
C628 C 0.78726 0.24517 0.26154 0.0
C629 C 0.75064 0.17809 0.2208 0.0
N630 N 0.75006 0.27986 0.34401 0.0
N631 N 0.73501 0.19522 0.2604 0.0
loop_
_geom_bond_atom_site_label_1
_geom_bond_atom_site_label_2
_geom_bond_distance
_geom_bond_site_symmetry_2
_ccdc_geom_bond_type
Co0 O3 1.970 1_554 S
Co0 N17 1.989 . S
Co0 O25 1.967 1_554 S
Co0 O32 1.920 . S
Co1 O4 1.966 1_554 S
Co1 N10 2.022 . S
Co1 N18 1.993 . S
Co1 O26 1.941 . S
C2 O3 1.258 . S
C2 O4 1.263 . S
O3 Co0 1.970 1_556 S
O3 C2 1.258 . S
O4 Co1 1.966 1_556 S
O4 C2 1.263 . S
C5 O6 1.235 . S
C5 O32 1.289 . S
O6 C5 1.235 . S
C7 C9 1.400 1_556 S
C7 N10 1.351 1_556 S
C7 C12 1.501 . S
C8 C9 1.387 . S
C8 N11 1.341 . S
C9 C7 1.400 1_554 S
C9 C8 1.387 . S
N10 Co1 2.022 . S
N10 C7 1.351 1_554 S
N10 N11 1.365 . S
N11 C8 1.341 . S
N11 N10 1.365 . S
N11 H31 0.862 . S
C12 C7 1.501 . S
C12 H13 0.961 . S
C12 H14 0.961 . S
C12 H15 0.960 . S
H13 C12 0.961 . S
H14 C12 0.961 . S
H15 C12 0.960 . S
C16 N17 1.342 . S
C16 C20 1.401 . S
C16 C21 1.499 . S
N17 Co0 1.989 . S
N17 C16 1.342 . S
N17 N18 1.388 . S
N18 Co1 1.993 . S
N18 N17 1.388 . S
N18 C19 1.346 . S
C19 N18 1.346 . S
C19 C20 1.396 . S
C19 C29 1.510 . S
C20 C16 1.401 . S
C20 C19 1.396 . S
C21 C16 1.499 . S
C21 H22 0.959 . S
C21 H23 0.960 . S
C21 H24 0.961 . S
H22 C21 0.959 . S
H23 C21 0.960 . S
H24 C21 0.961 . S
O25 Co0 1.967 1_556 S
O25 C33 1.258 . S
O26 Co1 1.941 . S
O26 C33 1.266 1_554 S
H27 C29 0.959 . S
H28 C29 0.961 . S
C29 C19 1.510 . S
C29 H27 0.959 . S
C29 H28 0.961 . S
C29 H30 0.960 . S
H30 C29 0.960 . S
H31 N11 0.862 . S
O32 Co0 1.920 . S
O32 C5 1.289 . S
C33 O25 1.258 . S
C33 O26 1.266 1_556 S
Co34 O37 1.970 . S
Co34 N51 1.989 . S
Co34 O59 1.967 . S
Co34 O66 1.920 . S
Co35 O38 1.966 . S
Co35 N44 2.022 . S
Co35 N52 1.993 . S
Co35 O60 1.941 . S
C36 O37 1.258 . S
C36 O38 1.263 . S
O37 Co34 1.970 . S
O37 C36 1.258 . S
O38 Co35 1.966 . S
O38 C36 1.263 . S
C39 O40 1.235 . S
C39 O66 1.289 . S
O40 C39 1.235 . S
C41 C43 1.400 . S
C41 N44 1.351 . S
C41 C46 1.501 . S
C42 C43 1.387 . S
C42 N45 1.341 . S
C43 C41 1.400 . S
C43 C42 1.387 . S
N44 Co35 2.022 . S
N44 C41 1.351 . S
N44 N45 1.365 . S
N45 C42 1.341 . S
N45 N44 1.365 . S
N45 H65 0.862 . S
C46 C41 1.501 . S
C46 H47 0.961 . S
C46 H48 0.961 . S
C46 H49 0.960 . S
H47 C46 0.961 . S
H48 C46 0.961 . S
H49 C46 0.960 . S
C50 N51 1.342 . S
C50 C54 1.401 . S
C50 C55 1.499 . S
N51 Co34 1.989 . S
N51 C50 1.342 . S
N51 N52 1.388 . S
N52 Co35 1.993 . S
N52 N51 1.388 . S
N52 C53 1.346 . S
C53 N52 1.346 . S
C53 C54 1.396 . S
C53 C63 1.510 . S
C54 C50 1.401 . S
C54 C53 1.396 . S
C55 C50 1.499 . S
C55 H56 0.959 . S
C55 H57 0.960 . S
C55 H58 0.961 . S
H56 C55 0.959 . S
H57 C55 0.960 . S
H58 C55 0.961 . S
O59 Co34 1.967 . S
O59 C67 1.258 . S
O60 Co35 1.941 . S
O60 C67 1.266 . S
H61 C63 0.959 . S
H62 C63 0.961 . S
C63 C53 1.510 . S
C63 H61 0.959 . S
C63 H62 0.961 . S
C63 H64 0.960 . S
H64 C63 0.960 . S
H65 N45 0.862 . S
O66 Co34 1.920 . S
O66 C39 1.289 . S
C67 O59 1.258 . S
C67 O60 1.266 . S
Co68 O71 1.970 1_554 S
Co68 N85 1.989 . S
Co68 O93 1.967 1_554 S
Co68 O100 1.920 . S
Co69 O72 1.966 1_554 S
Co69 N78 2.022 . S
Co69 N86 1.993 . S
Co69 O94 1.941 . S
C70 O71 1.258 . S
C70 O72 1.263 . S
O71 Co68 1.970 1_556 S
O71 C70 1.258 . S
O72 Co69 1.966 1_556 S
O72 C70 1.263 . S
C73 O74 1.235 . S
C73 O100 1.289 . S
O74 C73 1.235 . S
C75 C77 1.400 1_556 S
C75 N78 1.351 1_556 S
C75 C80 1.501 . S
C76 C77 1.387 . S
C76 N79 1.341 . S
C77 C75 1.400 1_554 S
C77 C76 1.387 . S
N78 Co69 2.022 . S
N78 C75 1.351 1_554 S
N78 N79 1.365 . S
N79 C76 1.341 . S
N79 N78 1.365 . S
N79 H99 0.862 . S
C80 C75 1.501 . S
C80 H81 0.961 . S
C80 H82 0.961 . S
C80 H83 0.960 . S
H81 C80 0.961 . S
H82 C80 0.961 . S
H83 C80 0.960 . S
C84 N85 1.342 . S
C84 C88 1.401 . S
C84 C89 1.499 . S
N85 Co68 1.989 . S
N85 C84 1.342 . S
N85 N86 1.388 . S
N86 Co69 1.993 . S
N86 N85 1.388 . S
N86 C87 1.346 . S
C87 N86 1.346 . S
C87 C88 1.396 . S
C87 C97 1.510 . S
C88 C84 1.401 . S
C88 C87 1.396 . S
C89 C84 1.499 . S
C89 H90 0.959 . S
C89 H91 0.960 . S
C89 H92 0.961 . S
H90 C89 0.959 . S
H91 C89 0.960 . S
H92 C89 0.961 . S
O93 Co68 1.967 1_556 S
O93 C101 1.258 . S
O94 Co69 1.941 . S
O94 C101 1.266 1_554 S
H95 C97 0.959 . S
H96 C97 0.961 . S
C97 C87 1.510 . S
C97 H95 0.959 . S
C97 H96 0.961 . S
C97 H98 0.960 . S
H98 C97 0.960 . S
H99 N79 0.862 . S
O100 Co68 1.920 . S
O100 C73 1.289 . S
C101 O93 1.258 . S
C101 O94 1.266 1_556 S
Co102 O105 1.970 . S
Co102 N119 1.989 . S
Co102 O127 1.967 . S
Co102 O134 1.920 . S
Co103 O106 1.966 . S
Co103 N112 2.022 . S
Co103 N120 1.993 . S
Co103 O128 1.941 . S
C104 O105 1.258 . S
C104 O106 1.263 . S
O105 Co102 1.970 . S
O105 C104 1.258 . S
O106 Co103 1.966 . S
O106 C104 1.263 . S
C107 O108 1.235 . S
C107 O134 1.289 . S
O108 C107 1.235 . S
C109 C111 1.400 . S
C109 N112 1.351 . S
C109 C114 1.501 . S
C110 C111 1.387 . S
C110 N113 1.341 . S
C111 C109 1.400 . S
C111 C110 1.387 . S
N112 Co103 2.022 . S
N112 C109 1.351 . S
N112 N113 1.365 . S
N113 C110 1.341 . S
N113 N112 1.365 . S
N113 H133 0.862 . S
C114 C109 1.501 . S
C114 H115 0.961 . S
C114 H116 0.961 . S
C114 H117 0.960 . S
H115 C114 0.961 . S
H116 C114 0.961 . S
H117 C114 0.960 . S
C118 N119 1.342 . S
C118 C122 1.401 . S
C118 C123 1.499 . S
N119 Co102 1.989 . S
N119 C118 1.342 . S
N119 N120 1.388 . S
N120 Co103 1.993 . S
N120 N119 1.388 . S
N120 C121 1.346 . S
C121 N120 1.346 . S
C121 C122 1.396 . S
C121 C131 1.510 . S
C122 C118 1.401 . S
C122 C121 1.396 . S
C123 C118 1.499 . S
C123 H124 0.959 . S
C123 H125 0.960 . S
C123 H126 0.961 . S
H124 C123 0.959 . S
H125 C123 0.960 . S
H126 C123 0.961 . S
O127 Co102 1.967 . S
O127 C135 1.258 . S
O128 Co103 1.941 . S
O128 C135 1.266 . S
H129 C131 0.959 . S
H130 C131 0.961 . S
C131 C121 1.510 . S
C131 H129 0.959 . S
C131 H130 0.961 . S
C131 H132 0.960 . S
H132 C131 0.960 . S
H133 N113 0.862 . S
O134 Co102 1.920 . S
O134 C107 1.289 . S
C135 O127 1.258 . S
C135 O128 1.266 . S
Co136 O139 1.970 . S
Co136 N153 1.989 1_554 S
Co136 O161 1.967 . S
Co136 O168 1.920 . S
Co137 O140 1.966 . S
Co137 N146 2.022 . S
Co137 N154 1.993 1_554 S
Co137 O162 1.941 . S
C138 O139 1.258 . S
C138 O140 1.263 . S
O139 Co136 1.970 . S
O139 C138 1.258 . S
O140 Co137 1.966 . S
O140 C138 1.263 . S
C141 O142 1.235 1_565 S
C141 O168 1.289 1_565 S
O142 C141 1.235 1_545 S
C143 C145 1.400 . S
C143 N146 1.351 . S
C143 C148 1.501 . S
C144 C145 1.387 . S
C144 N147 1.341 . S
C145 C143 1.400 . S
C145 C144 1.387 . S
N146 Co137 2.022 . S
N146 C143 1.351 . S
N146 N147 1.365 . S
N147 C144 1.341 . S
N147 N146 1.365 . S
N147 H167 0.862 1_554 S
C148 C143 1.501 . S
C148 H149 0.961 . S
C148 H150 0.961 . S
C148 H151 0.960 . S
H149 C148 0.961 . S
H150 C148 0.961 . S
H151 C148 0.960 . S
C152 N153 1.342 . S
C152 C156 1.401 . S
C152 C157 1.499 . S
N153 Co136 1.989 1_556 S
N153 C152 1.342 . S
N153 N154 1.388 . S
N154 Co137 1.993 1_556 S
N154 N153 1.388 . S
N154 C155 1.346 . S
C155 N154 1.346 . S
C155 C156 1.396 . S
C155 C165 1.510 . S
C156 C152 1.401 . S
C156 C155 1.396 . S
C157 C152 1.499 . S
C157 H158 0.959 . S
C157 H159 0.960 . S
C157 H160 0.961 . S
H158 C157 0.959 . S
H159 C157 0.960 . S
H160 C157 0.961 . S
O161 Co136 1.967 . S
O161 C169 1.258 . S
O162 Co137 1.941 . S
O162 C169 1.266 . S
H163 C165 0.959 . S
H164 C165 0.961 . S
C165 C155 1.510 . S
C165 H163 0.959 . S
C165 H164 0.961 . S
C165 H166 0.960 . S
H166 C165 0.960 . S
H167 N147 0.862 1_556 S
O168 Co136 1.920 . S
O168 C141 1.289 1_545 S
C169 O161 1.258 . S
C169 O162 1.266 . S
Co170 O173 1.970 . S
Co170 N187 1.989 . S
Co170 O195 1.967 . S
Co170 O202 1.920 . S
Co171 O174 1.966 . S
Co171 N180 2.022 . S
Co171 N188 1.993 . S
Co171 O196 1.941 . S
C172 O173 1.258 . S
C172 O174 1.263 . S
O173 Co170 1.970 . S
O173 C172 1.258 . S
O174 Co171 1.966 . S
O174 C172 1.263 . S
C175 O176 1.235 1_455 S
C175 O202 1.289 1_455 S
O176 C175 1.235 1_655 S
C177 C179 1.400 . S
C177 N180 1.351 . S
C177 C182 1.501 . S
C178 C179 1.387 . S
C178 N181 1.341 . S
C179 C177 1.400 . S
C179 C178 1.387 . S
N180 Co171 2.022 . S
N180 C177 1.351 . S
N180 N181 1.365 . S
N181 C178 1.341 . S
N181 N180 1.365 . S
N181 H201 0.862 . S
C182 C177 1.501 . S
C182 H183 0.961 . S
C182 H184 0.961 . S
C182 H185 0.960 . S
H183 C182 0.961 . S
H184 C182 0.961 . S
H185 C182 0.960 . S
C186 N187 1.342 . S
C186 C190 1.401 . S
C186 C191 1.499 . S
N187 Co170 1.989 . S
N187 C186 1.342 . S
N187 N188 1.388 . S
N188 Co171 1.993 . S
N188 N187 1.388 . S
N188 C189 1.346 . S
C189 N188 1.346 . S
C189 C190 1.396 . S
C189 C199 1.510 . S
C190 C186 1.401 . S
C190 C189 1.396 . S
C191 C186 1.499 . S
C191 H192 0.959 . S
C191 H193 0.960 . S
C191 H194 0.961 . S
H192 C191 0.959 . S
H193 C191 0.960 . S
H194 C191 0.961 . S
O195 Co170 1.967 . S
O195 C203 1.258 . S
O196 Co171 1.941 . S
O196 C203 1.266 . S
H197 C199 0.959 . S
H198 C199 0.961 . S
C199 C189 1.510 . S
C199 H197 0.959 . S
C199 H198 0.961 . S
C199 H200 0.960 . S
H200 C199 0.960 . S
H201 N181 0.862 . S
O202 Co170 1.920 . S
O202 C175 1.289 1_655 S
C203 O195 1.258 . S
C203 O196 1.266 . S
Co204 O207 1.970 . S
Co204 N221 1.989 1_554 S
Co204 O229 1.967 . S
Co204 O236 1.920 . S
Co205 O208 1.966 . S
Co205 N214 2.022 . S
Co205 N222 1.993 1_554 S
Co205 O230 1.941 . S
C206 O207 1.258 . S
C206 O208 1.263 . S
O207 Co204 1.970 . S
O207 C206 1.258 . S
O208 Co205 1.966 . S
O208 C206 1.263 . S
C209 O210 1.235 1_545 S
C209 O236 1.289 1_545 S
O210 C209 1.235 1_565 S
C211 C213 1.400 . S
C211 N214 1.351 . S
C211 C216 1.501 . S
C212 C213 1.387 . S
C212 N215 1.341 . S
C213 C211 1.400 . S
C213 C212 1.387 . S
N214 Co205 2.022 . S
N214 C211 1.351 . S
N214 N215 1.365 . S
N215 C212 1.341 . S
N215 N214 1.365 . S
N215 H235 0.862 1_554 S
C216 C211 1.501 . S
C216 H217 0.961 . S
C216 H218 0.961 . S
C216 H219 0.960 . S
H217 C216 0.961 . S
H218 C216 0.961 . S
H219 C216 0.960 . S
C220 N221 1.342 . S
C220 C224 1.401 . S
C220 C225 1.499 . S
N221 Co204 1.989 1_556 S
N221 C220 1.342 . S
N221 N222 1.388 . S
N222 Co205 1.993 1_556 S
N222 N221 1.388 . S
N222 C223 1.346 . S
C223 N222 1.346 . S
C223 C224 1.396 . S
C223 C233 1.510 . S
C224 C220 1.401 . S
C224 C223 1.396 . S
C225 C220 1.499 . S
C225 H226 0.959 . S
C225 H227 0.960 . S
C225 H228 0.961 . S
H226 C225 0.959 . S
H227 C225 0.960 . S
H228 C225 0.961 . S
O229 Co204 1.967 . S
O229 C237 1.258 . S
O230 Co205 1.941 . S
O230 C237 1.266 . S
H231 C233 0.959 . S
H232 C233 0.961 . S
C233 C223 1.510 . S
C233 H231 0.959 . S
C233 H232 0.961 . S
C233 H234 0.960 . S
H234 C233 0.960 . S
H235 N215 0.862 1_556 S
O236 Co204 1.920 . S
O236 C209 1.289 1_565 S
C237 O229 1.258 . S
C237 O230 1.266 . S
Co238 O241 1.970 . S
Co238 N255 1.989 . S
Co238 O263 1.967 . S
Co238 O270 1.920 . S
Co239 O242 1.966 . S
Co239 N248 2.022 . S
Co239 N256 1.993 . S
Co239 O264 1.941 . S
C240 O241 1.258 . S
C240 O242 1.263 . S
O241 Co238 1.970 . S
O241 C240 1.258 . S
O242 Co239 1.966 . S
O242 C240 1.263 . S
C243 O244 1.235 1_655 S
C243 O270 1.289 1_655 S
O244 C243 1.235 1_455 S
C245 C247 1.400 . S
C245 N248 1.351 . S
C245 C250 1.501 . S
C246 C247 1.387 . S
C246 N249 1.341 . S
C247 C245 1.400 . S
C247 C246 1.387 . S
N248 Co239 2.022 . S
N248 C245 1.351 . S
N248 N249 1.365 . S
N249 C246 1.341 . S
N249 N248 1.365 . S
N249 H269 0.862 . S
C250 C245 1.501 . S
C250 H251 0.961 . S
C250 H252 0.961 . S
C250 H253 0.960 . S
H251 C250 0.961 . S
H252 C250 0.961 . S
H253 C250 0.960 . S
C254 N255 1.342 . S
C254 C258 1.401 . S
C254 C259 1.499 . S
N255 Co238 1.989 . S
N255 C254 1.342 . S
N255 N256 1.388 . S
N256 Co239 1.993 . S
N256 N255 1.388 . S
N256 C257 1.346 . S
C257 N256 1.346 . S
C257 C258 1.396 . S
C257 C267 1.510 . S
C258 C254 1.401 . S
C258 C257 1.396 . S
C259 C254 1.499 . S
C259 H260 0.959 . S
C259 H261 0.960 . S
C259 H262 0.961 . S
H260 C259 0.959 . S
H261 C259 0.960 . S
H262 C259 0.961 . S
O263 Co238 1.967 . S
O263 C271 1.258 . S
O264 Co239 1.941 . S
O264 C271 1.266 . S
H265 C267 0.959 . S
H266 C267 0.961 . S
C267 C257 1.510 . S
C267 H265 0.959 . S
C267 H266 0.961 . S
C267 H268 0.960 . S
H268 C267 0.960 . S
H269 N249 0.862 . S
O270 Co238 1.920 . S
O270 C243 1.289 1_455 S
C271 O263 1.258 . S
C271 O264 1.266 . S
H272 C278 0.930 . S
H273 C282 0.930 . S
H274 C287 0.929 . S
H275 C285 0.927 1_556 S
H276 C280 0.929 . S
H277 C286 0.929 . S
C278 H272 0.930 . S
C278 C279 1.367 . S
C278 C286 1.378 . S
C279 C278 1.367 . S
C279 C287 1.433 . S
C280 H276 0.929 . S
C280 C282 1.378 . S
C280 C284 1.350 . S
C281 C284 1.463 . S
C281 C286 1.350 . S
C281 N289 1.427 . S
C282 H273 0.930 . S
C282 C280 1.378 . S
C282 C283 1.367 . S
C283 C282 1.367 . S
C283 C285 1.434 . S
C284 C280 1.350 . S
C284 C281 1.463 . S
C284 N288 1.427 . S
C285 H275 0.927 1_554 S
C285 C283 1.434 . S
C285 N288 1.384 . S
C286 H277 0.929 . S
C286 C278 1.378 . S
C286 C281 1.350 . S
C287 H274 0.929 . S
C287 C279 1.433 . S
C287 N289 1.384 . S
N288 C284 1.427 . S
N288 C285 1.384 . S
N289 C281 1.427 . S
N289 C287 1.384 . S
H290 C296 0.930 . S
H291 C300 0.930 . S
H292 C305 0.929 . S
H293 C303 0.929 . S
H294 C298 0.929 . S
H295 C304 0.929 . S
C296 H290 0.930 . S
C296 C297 1.367 . S
C296 C304 1.378 . S
C297 C296 1.367 . S
C297 C305 1.433 . S
C298 H294 0.929 . S
C298 C300 1.378 . S
C298 C302 1.350 . S
C299 C302 1.463 . S
C299 C304 1.350 . S
C299 N307 1.427 . S
C300 H291 0.930 . S
C300 C298 1.378 . S
C300 C301 1.367 . S
C301 C300 1.367 . S
C301 C303 1.433 . S
C302 C298 1.350 . S
C302 C299 1.463 . S
C302 N306 1.427 . S
C303 H293 0.929 . S
C303 C301 1.433 . S
C303 N306 1.384 . S
C304 H295 0.929 . S
C304 C296 1.378 . S
C304 C299 1.350 . S
C305 H292 0.929 . S
C305 C297 1.433 . S
C305 N307 1.384 . S
N306 C302 1.427 . S
N306 C303 1.384 . S
N307 C299 1.427 . S
N307 C305 1.384 . S
H308 C314 0.930 . S
H309 C318 0.930 . S
H310 C323 0.929 . S
H311 C321 0.929 . S
H312 C316 0.929 . S
H313 C322 0.929 . S
C314 H308 0.930 . S
C314 C315 1.367 . S
C314 C322 1.378 . S
C315 C314 1.367 . S
C315 C323 1.433 1_554 S
C316 H312 0.929 . S
C316 C318 1.378 . S
C316 C320 1.350 1_556 S
C317 C320 1.463 . S
C317 C322 1.350 . S
C317 N325 1.427 1_554 S
C318 H309 0.930 . S
C318 C316 1.378 . S
C318 C319 1.367 1_556 S
C319 C318 1.367 1_554 S
C319 C321 1.433 . S
C320 C316 1.350 1_554 S
C320 C317 1.463 . S
C320 N324 1.427 . S
C321 H311 0.929 . S
C321 C319 1.433 . S
C321 N324 1.384 . S
C322 H313 0.929 . S
C322 C314 1.378 . S
C322 C317 1.350 . S
C323 H310 0.929 . S
C323 C315 1.433 1_556 S
C323 N325 1.384 . S
N324 C320 1.427 . S
N324 C321 1.384 . S
N325 C317 1.427 1_556 S
N325 C323 1.384 . S
H326 C332 0.930 . S
H327 C336 0.930 . S
H328 C341 0.929 . S
H329 C339 0.929 . S
H330 C334 0.929 . S
H331 C340 0.929 . S
C332 H326 0.930 . S
C332 C333 1.367 . S
C332 C340 1.378 . S
C333 C332 1.367 . S
C333 C341 1.433 . S
C334 H330 0.929 . S
C334 C336 1.378 . S
C334 C338 1.350 . S
C335 C338 1.463 . S
C335 C340 1.350 . S
C335 N343 1.427 . S
C336 H327 0.930 . S
C336 C334 1.378 . S
C336 C337 1.367 . S
C337 C336 1.367 . S
C337 C339 1.433 . S
C338 C334 1.350 . S
C338 C335 1.463 . S
C338 N342 1.427 . S
C339 H329 0.929 . S
C339 C337 1.433 . S
C339 N342 1.384 . S
C340 H331 0.929 . S
C340 C332 1.378 . S
C340 C335 1.350 . S
C341 H328 0.929 . S
C341 C333 1.433 . S
C341 N343 1.384 . S
N342 C338 1.427 . S
N342 C339 1.384 . S
N343 C335 1.427 . S
N343 C341 1.384 . S
H344 C350 0.930 . S
H345 C354 0.930 . S
H346 C359 0.929 . S
H347 C357 0.929 . S
H348 C352 0.929 . S
H349 C358 0.929 . S
C350 H344 0.930 . S
C350 C351 1.367 1_556 S
C350 C358 1.378 . S
C351 C350 1.367 1_554 S
C351 C359 1.433 . S
C352 H348 0.929 . S
C352 C354 1.378 . S
C352 C356 1.350 . S
C353 C356 1.463 . S
C353 C358 1.350 1_554 S
C353 N361 1.427 . S
C354 H345 0.930 . S
C354 C352 1.378 . S
C354 C355 1.367 . S
C355 C354 1.367 . S
C355 C357 1.433 1_554 S
C356 C352 1.350 . S
C356 C353 1.463 . S
C356 N360 1.427 1_554 S
C357 H347 0.929 . S
C357 C355 1.433 1_556 S
C357 N360 1.384 . S
C358 H349 0.929 . S
C358 C350 1.378 . S
C358 C353 1.350 1_556 S
C359 H346 0.929 . S
C359 C351 1.433 . S
C359 N361 1.384 . S
N360 C356 1.427 1_556 S
N360 C357 1.384 . S
N361 C353 1.427 . S
N361 C359 1.384 . S
H362 C368 0.930 . S
H363 C372 0.930 . S
H364 C377 0.929 . S
H365 C375 0.929 . S
H366 C370 0.929 . S
H367 C376 0.929 . S
C368 H362 0.930 . S
C368 C369 1.367 . S
C368 C376 1.378 . S
C369 C368 1.367 . S
C369 C377 1.433 . S
C370 H366 0.929 . S
C370 C372 1.378 . S
C370 C374 1.350 . S
C371 C374 1.463 . S
C371 C376 1.350 . S
C371 N379 1.427 . S
C372 H363 0.930 . S
C372 C370 1.378 . S
C372 C373 1.367 . S
C373 C372 1.367 . S
C373 C375 1.433 . S
C374 C370 1.350 . S
C374 C371 1.463 . S
C374 N378 1.427 . S
C375 H365 0.929 . S
C375 C373 1.433 . S
C375 N378 1.384 . S
C376 H367 0.929 . S
C376 C368 1.378 . S
C376 C371 1.350 . S
C377 H364 0.929 . S
C377 C369 1.433 . S
C377 N379 1.384 . S
N378 C374 1.427 . S
N378 C375 1.384 . S
N379 C371 1.427 . S
N379 C377 1.384 . S
H380 C386 0.930 . S
H381 C390 0.930 . S
H382 C395 0.929 . S
H383 C393 0.929 1_556 S
H384 C388 0.929 . S
H385 C394 0.929 . S
C386 H380 0.930 . S
C386 C387 1.367 1_556 S
C386 C394 1.378 . S
C387 C386 1.367 1_554 S
C387 C395 1.433 . S
C388 H384 0.929 . S
C388 C390 1.378 . S
C388 C392 1.350 . S
C389 C392 1.463 . S
C389 C394 1.350 1_554 S
C389 N397 1.427 . S
C390 H381 0.930 . S
C390 C388 1.378 . S
C390 C391 1.367 . S
C391 C390 1.367 . S
C391 C393 1.433 . S
C392 C388 1.350 . S
C392 C389 1.463 . S
C392 N396 1.422 1_554 S
C393 H383 0.929 1_554 S
C393 C391 1.433 . S
C393 N396 1.382 1_554 S
C394 H385 0.929 . S
C394 C386 1.378 . S
C394 C389 1.350 1_556 S
C395 H382 0.929 . S
C395 C387 1.433 . S
C395 N397 1.384 . S
N396 C392 1.422 1_556 S
N396 C393 1.382 1_556 S
N397 C389 1.427 . S
N397 C395 1.384 . S
H398 C404 0.930 . S
H399 C408 0.930 . S
H400 C413 0.929 . S
H401 C411 0.929 . S
H402 C406 0.929 . S
H403 C412 0.929 . S
C404 H398 0.930 . S
C404 C405 1.367 . S
C404 C412 1.378 . S
C405 C404 1.367 . S
C405 C413 1.433 . S
C406 H402 0.929 . S
C406 C408 1.378 . S
C406 C410 1.350 . S
C407 C410 1.463 . S
C407 C412 1.350 . S
C407 N415 1.427 . S
C408 H399 0.930 . S
C408 C406 1.378 . S
C408 C409 1.367 . S
C409 C408 1.367 . S
C409 C411 1.433 . S
C410 C406 1.350 . S
C410 C407 1.463 . S
C410 N414 1.427 . S
C411 H401 0.929 . S
C411 C409 1.433 . S
C411 N414 1.384 . S
C412 H403 0.929 . S
C412 C404 1.378 . S
C412 C407 1.350 . S
C413 H400 0.929 . S
C413 C405 1.433 . S
C413 N415 1.384 . S
N414 C410 1.427 . S
N414 C411 1.384 . S
N415 C407 1.427 . S
N415 C413 1.384 . S
H416 C422 0.930 . S
H417 C426 0.930 . S
H418 C431 0.929 . S
H419 C429 0.929 . S
H420 C424 0.929 . S
H421 C430 0.929 . S
C422 H416 0.930 . S
C422 C423 1.367 . S
C422 C430 1.378 . S
C423 C422 1.367 . S
C423 C431 1.433 1_556 S
C424 H420 0.929 . S
C424 C426 1.378 . S
C424 C428 1.350 1_554 S
C425 C428 1.463 . S
C425 C430 1.350 . S
C425 N433 1.427 1_556 S
C426 H417 0.930 . S
C426 C424 1.378 . S
C426 C427 1.367 1_554 S
C427 C426 1.367 1_556 S
C427 C429 1.433 . S
C428 C424 1.350 1_556 S
C428 C425 1.463 . S
C428 N432 1.427 . S
C429 H419 0.929 . S
C429 C427 1.433 . S
C429 N432 1.384 . S
C430 H421 0.929 . S
C430 C422 1.378 . S
C430 C425 1.350 . S
C431 H418 0.929 . S
C431 C423 1.433 1_554 S
C431 N433 1.384 . S
N432 C428 1.427 . S
N432 C429 1.384 . S
N433 C425 1.427 1_554 S
N433 C431 1.384 . S
H434 C440 0.930 . S
H435 C444 0.930 . S
H436 C449 0.929 . S
H437 C447 0.929 . S
H438 C442 0.929 . S
H439 C448 0.929 . S
C440 H434 0.930 . S
C440 C441 1.367 . S
C440 C448 1.378 . S
C441 C440 1.367 . S
C441 C449 1.433 . S
C442 H438 0.929 . S
C442 C444 1.378 . S
C442 C446 1.350 . S
C443 C446 1.463 . S
C443 C448 1.350 . S
C443 N451 1.427 . S
C444 H435 0.930 . S
C444 C442 1.378 . S
C444 C445 1.367 . S
C445 C444 1.367 . S
C445 C447 1.433 . S
C446 C442 1.350 . S
C446 C443 1.463 . S
C446 N450 1.427 . S
C447 H437 0.929 . S
C447 C445 1.433 . S
C447 N450 1.384 . S
C448 H439 0.929 . S
C448 C440 1.378 . S
C448 C443 1.350 . S
C449 H436 0.929 . S
C449 C441 1.433 . S
C449 N451 1.384 . S
N450 C446 1.427 . S
N450 C447 1.384 . S
N451 C443 1.427 . S
N451 C449 1.384 . S
H452 C458 0.930 1_556 S
H453 C462 0.930 . S
H454 C467 0.929 . S
H455 C465 0.929 1_556 S
H456 C460 0.929 . S
H457 C466 0.929 1_556 S
C458 H452 0.930 1_554 S
C458 C459 1.367 . S
C458 C466 1.378 . S
C459 C458 1.367 . S
C459 C467 1.433 . S
C460 H456 0.929 . S
C460 C462 1.378 . S
C460 C464 1.350 . S
C461 C464 1.463 1_465 S
C461 C466 1.350 . S
C461 N469 1.427 . S
C462 H453 0.930 . S
C462 C460 1.378 . S
C462 C463 1.367 . S
C463 C462 1.367 . S
C463 C465 1.433 . S
C464 C460 1.350 . S
C464 C461 1.463 1_645 S
C464 N468 1.427 . S
C465 H455 0.929 1_554 S
C465 C463 1.433 . S
C465 N468 1.384 . S
C466 H457 0.929 1_554 S
C466 C458 1.378 . S
C466 C461 1.350 . S
C467 H454 0.929 . S
C467 C459 1.433 . S
C467 N469 1.384 . S
N468 C464 1.427 . S
N468 C465 1.384 . S
N469 C461 1.427 . S
N469 C467 1.384 . S
H470 C476 0.930 . S
H471 C480 0.930 . S
H472 C485 0.929 . S
H473 C483 0.929 . S
H474 C478 0.929 . S
H475 C484 0.929 . S
C476 H470 0.930 . S
C476 C477 1.367 . S
C476 C484 1.378 1_655 S
C477 C476 1.367 . S
C477 C485 1.433 . S
C478 H474 0.929 . S
C478 C480 1.378 1_655 S
C478 C482 1.350 1_655 S
C479 C482 1.463 1_665 S
C479 C484 1.350 1_655 S
C479 N487 1.427 . S
C480 H471 0.930 . S
C480 C478 1.378 1_455 S
C480 C481 1.367 . S
C481 C480 1.367 . S
C481 C483 1.433 . S
C482 C478 1.350 1_455 S
C482 C479 1.463 1_445 S
C482 N486 1.427 . S
C483 H473 0.929 . S
C483 C481 1.433 . S
C483 N486 1.384 . S
C484 H475 0.929 . S
C484 C476 1.378 1_455 S
C484 C479 1.350 1_455 S
C485 H472 0.929 . S
C485 C477 1.433 . S
C485 N487 1.384 . S
N486 C482 1.427 . S
N486 C483 1.384 . S
N487 C479 1.427 . S
N487 C485 1.384 . S
H488 C494 0.930 . S
H489 C498 0.930 . S
H490 C503 0.929 . S
H491 C501 0.929 . S
H492 C496 0.929 . S
H493 C502 0.929 . S
C494 H488 0.930 . S
C494 C495 1.367 . S
C494 C502 1.378 . S
C495 C494 1.367 . S
C495 C503 1.433 . S
C496 H492 0.929 . S
C496 C498 1.378 . S
C496 C500 1.350 . S
C497 C500 1.463 . S
C497 C502 1.350 . S
C497 N505 1.427 . S
C498 H489 0.930 . S
C498 C496 1.378 . S
C498 C499 1.367 . S
C499 C498 1.367 . S
C499 C501 1.433 . S
C500 C496 1.350 . S
C500 C497 1.463 . S
C500 N504 1.427 . S
C501 H491 0.929 . S
C501 C499 1.433 . S
C501 N504 1.384 . S
C502 H493 0.929 . S
C502 C494 1.378 . S
C502 C497 1.350 . S
C503 H490 0.929 . S
C503 C495 1.433 . S
C503 N505 1.384 . S
N504 C500 1.427 . S
N504 C501 1.384 . S
N505 C497 1.427 . S
N505 C503 1.384 . S
H506 C512 0.930 . S
H507 C516 0.930 . S
H508 C521 0.929 . S
H509 C519 0.929 . S
H510 C514 0.929 . S
H511 C520 0.929 . S
C512 H506 0.930 . S
C512 C513 1.367 . S
C512 C520 1.378 . S
C513 C512 1.367 . S
C513 C521 1.433 . S
C514 H510 0.929 . S
C514 C516 1.378 . S
C514 C518 1.350 . S
C515 C518 1.463 . S
C515 C520 1.350 . S
C515 N523 1.427 . S
C516 H507 0.930 . S
C516 C514 1.378 . S
C516 C517 1.367 . S
C517 C516 1.367 . S
C517 C519 1.433 . S
C518 C514 1.350 . S
C518 C515 1.463 . S
C518 N522 1.427 . S
C519 H509 0.929 . S
C519 C517 1.433 . S
C519 N522 1.384 . S
C520 H511 0.929 . S
C520 C512 1.378 . S
C520 C515 1.350 . S
C521 H508 0.929 . S
C521 C513 1.433 . S
C521 N523 1.384 . S
N522 C518 1.427 . S
N522 C519 1.384 . S
N523 C515 1.427 . S
N523 C521 1.384 . S
H524 C530 0.930 . S
H525 C534 0.930 . S
H526 C539 0.929 . S
H527 C537 0.929 . S
H528 C532 0.929 . S
H529 C538 0.929 . S
C530 H524 0.930 . S
C530 C531 1.367 . S
C530 C538 1.378 . S
C531 C530 1.367 . S
C531 C539 1.433 . S
C532 H528 0.929 . S
C532 C534 1.378 . S
C532 C536 1.350 . S
C533 C536 1.463 . S
C533 C538 1.350 . S
C533 N541 1.427 . S
C534 H525 0.930 . S
C534 C532 1.378 . S
C534 C535 1.367 . S
C535 C534 1.367 . S
C535 C537 1.433 . S
C536 C532 1.350 . S
C536 C533 1.463 . S
C536 N540 1.427 . S
C537 H527 0.929 . S
C537 C535 1.433 . S
C537 N540 1.384 . S
C538 H529 0.929 . S
C538 C530 1.378 . S
C538 C533 1.350 . S
C539 H526 0.929 . S
C539 C531 1.433 . S
C539 N541 1.384 . S
N540 C536 1.427 . S
N540 C537 1.384 . S
N541 C533 1.427 . S
N541 C539 1.384 . S
H542 C548 0.930 . S
H543 C552 0.930 . S
H544 C557 0.929 . S
H545 C555 0.929 . S
H546 C550 0.929 . S
H547 C556 0.929 . S
C548 H542 0.930 . S
C548 C549 1.367 . S
C548 C556 1.378 . S
C549 C548 1.367 . S
C549 C557 1.433 . S
C550 H546 0.929 . S
C550 C552 1.378 . S
C550 C554 1.350 . S
C551 C554 1.463 . S
C551 C556 1.350 . S
C551 N559 1.427 . S
C552 H543 0.930 . S
C552 C550 1.378 . S
C552 C553 1.367 . S
C553 C552 1.367 . S
C553 C555 1.433 . S
C554 C550 1.350 . S
C554 C551 1.463 . S
C554 N558 1.427 . S
C555 H545 0.929 . S
C555 C553 1.433 . S
C555 N558 1.384 . S
C556 H547 0.929 . S
C556 C548 1.378 . S
C556 C551 1.350 . S
C557 H544 0.929 . S
C557 C549 1.433 . S
C557 N559 1.384 . S
N558 C554 1.427 . S
N558 C555 1.384 . S
N559 C551 1.427 . S
N559 C557 1.384 . S
H560 C566 0.930 . S
H561 C570 0.930 . S
H562 C575 0.929 . S
H563 C573 0.929 . S
H564 C568 0.929 . S
H565 C574 0.929 . S
C566 H560 0.930 . S
C566 C567 1.367 . S
C566 C574 1.378 . S
C567 C566 1.367 . S
C567 C575 1.433 . S
C568 H564 0.929 . S
C568 C570 1.378 . S
C568 C572 1.350 . S
C569 C572 1.463 . S
C569 C574 1.350 . S
C569 N577 1.427 . S
C570 H561 0.930 . S
C570 C568 1.378 . S
C570 C571 1.367 . S
C571 C570 1.367 . S
C571 C573 1.433 . S
C572 C568 1.350 . S
C572 C569 1.463 . S
C572 N576 1.427 . S
C573 H563 0.929 . S
C573 C571 1.433 . S
C573 N576 1.384 . S
C574 H565 0.929 . S
C574 C566 1.378 . S
C574 C569 1.350 . S
C575 H562 0.929 . S
C575 C567 1.433 . S
C575 N577 1.384 . S
N576 C572 1.427 . S
N576 C573 1.384 . S
N577 C569 1.427 . S
N577 C575 1.384 . S
H578 C584 0.930 . S
H579 C588 0.930 . S
H580 C593 0.929 . S
H581 C591 0.929 . S
H582 C586 0.929 . S
H583 C592 0.929 . S
C584 H578 0.930 . S
C584 C585 1.367 . S
C584 C592 1.378 . S
C585 C584 1.367 . S
C585 C593 1.433 . S
C586 H582 0.929 . S
C586 C588 1.378 . S
C586 C590 1.350 . S
C587 C590 1.463 . S
C587 C592 1.350 . S
C587 N595 1.427 . S
C588 H579 0.930 . S
C588 C586 1.378 . S
C588 C589 1.367 . S
C589 C588 1.367 . S
C589 C591 1.433 . S
C590 C586 1.350 . S
C590 C587 1.463 . S
C590 N594 1.427 . S
C591 H581 0.929 . S
C591 C589 1.433 . S
C591 N594 1.384 . S
C592 H583 0.929 . S
C592 C584 1.378 . S
C592 C587 1.350 . S
C593 H580 0.929 . S
C593 C585 1.433 . S
C593 N595 1.384 . S
N594 C590 1.427 . S
N594 C591 1.384 . S
N595 C587 1.427 . S
N595 C593 1.384 . S
H596 C602 0.930 . S
H597 C606 0.930 . S
H598 C611 0.929 . S
H599 C609 0.929 . S
H600 C604 0.929 . S
H601 C610 0.929 . S
C602 H596 0.930 . S
C602 C603 1.367 . S
C602 C610 1.378 . S
C603 C602 1.367 . S
C603 C611 1.433 . S
C604 H600 0.929 . S
C604 C606 1.378 . S
C604 C608 1.350 . S
C605 C608 1.463 . S
C605 C610 1.350 . S
C605 N613 1.427 . S
C606 H597 0.930 . S
C606 C604 1.378 . S
C606 C607 1.367 . S
C607 C606 1.367 . S
C607 C609 1.433 . S
C608 C604 1.350 . S
C608 C605 1.463 . S
C608 N612 1.427 . S
C609 H599 0.929 . S
C609 C607 1.433 . S
C609 N612 1.384 . S
C610 H601 0.929 . S
C610 C602 1.378 . S
C610 C605 1.350 . S
C611 H598 0.929 . S
C611 C603 1.433 . S
C611 N613 1.384 . S
N612 C608 1.427 . S
N612 C609 1.384 . S
N613 C605 1.427 . S
N613 C611 1.384 . S
H614 C620 0.930 . S
H615 C624 0.930 . S
H616 C629 0.929 . S
H617 C627 0.929 . S
H618 C622 0.929 . S
H619 C628 0.929 . S
C620 H614 0.930 . S
C620 C621 1.367 . S
C620 C628 1.378 . S
C621 C620 1.367 . S
C621 C629 1.433 . S
C622 H618 0.929 . S
C622 C624 1.378 . S
C622 C626 1.350 . S
C623 C626 1.463 . S
C623 C628 1.350 . S
C623 N631 1.427 . S
C624 H615 0.930 . S
C624 C622 1.378 . S
C624 C625 1.367 . S
C625 C624 1.367 . S
C625 C627 1.433 . S
C626 C622 1.350 . S
C626 C623 1.463 . S
C626 N630 1.427 . S
C627 H617 0.929 . S
C627 C625 1.433 . S
C627 N630 1.384 . S
C628 H619 0.929 . S
C628 C620 1.378 . S
C628 C623 1.350 . S
C629 H616 0.929 . S
C629 C621 1.433 . S
C629 N631 1.384 . S
N630 C626 1.427 . S
N630 C627 1.384 . S
N631 C623 1.427 . S
N631 C629 1.384 . S
C279 C209 0.226 . S
C283 C9 0.488 . S
C297 C243 0.229 . S
C301 C43 0.494 . S
C315 C141 0.256 . S
C319 C77 0.532 . S
C333 C175 0.241 . S
C337 C111 0.507 . S
C351 C73 0.249 . S
C355 C145 0.523 . S
C369 C107 0.228 . S
C373 C179 0.489 . S
C387 C5 0.263 . S
C391 C213 0.542 . S
C405 C247 0.494 . S
C409 C39 0.229 . S
C423 C101 2.802 . S
C427 C33 2.802 . S
C441 C67 2.803 . S
C445 C135 2.802 . S
C459 C237 2.802 . S
C463 C169 2.804 . S
C477 C203 2.803 . S
C481 C271 2.802 . S
C495 C20 1.725 . S
C499 C258 1.728 . S
C513 C156 1.726 . S
C517 C54 1.724 . S
C531 C190 1.729 . S
C535 C88 1.728 . S
C549 C224 1.724 . S
C553 C122 1.727 . S
C567 C70 2.099 . S
C571 C172 2.098 . S
C585 C104 2.103 . S
C589 C206 2.101 . S
C603 C240 2.098 . S
C607 C2 2.099 . S
C621 C138 2.099 . S
C625 C36 2.102 . S
