# Generated by pormake.
# Topology qtz-e, (6)-cn, num edge types: 1
# Building blocks:
#     Node 0, Type 0, BuildingBlock: BETDAH_clean_sbu_0, # of connection points: 6
#     Node 1, Type 0, BuildingBlock: BETDAH_clean_sbu_0, # of connection points: 6
#     Node 2, Type 0, BuildingBlock: BETDAH_clean_sbu_0, # of connection points: 6
#     Node 3, Type 0, BuildingBlock: BETDAH_clean_sbu_0, # of connection points: 6
#     Node 4, Type 0, BuildingBlock: BETDAH_clean_sbu_0, # of connection points: 6
#     Node 5, Type 0, BuildingBlock: BETDAH_clean_sbu_0, # of connection points: 6
#     Edge 6, Type (0, 0), BuildingBlock: AJUNOK_clean_linker_0, # of connection points: 2
#     Edge 7, Type (0, 0), BuildingBlock: AJUNOK_clean_linker_0, # of connection points: 2
#     Edge 8, Type (0, 0), BuildingBlock: AJUNOK_clean_linker_0, # of connection points: 2
#     Edge 9, Type (0, 0), BuildingBlock: AJUNOK_clean_linker_0, # of connection points: 2
#     Edge 10, Type (0, 0), BuildingBlock: AJUNOK_clean_linker_0, # of connection points: 2
#     Edge 11, Type (0, 0), BuildingBlock: AJUNOK_clean_linker_0, # of connection points: 2
#     Edge 12, Type (0, 0), BuildingBlock: AJUNOK_clean_linker_0, # of connection points: 2
#     Edge 13, Type (0, 0), BuildingBlock: AJUNOK_clean_linker_0, # of connection points: 2
#     Edge 14, Type (0, 0), BuildingBlock: AJUNOK_clean_linker_0, # of connection points: 2
#     Edge 15, Type (0, 0), BuildingBlock: AJUNOK_clean_linker_0, # of connection points: 2
#     Edge 16, Type (0, 0), BuildingBlock: AJUNOK_clean_linker_0, # of connection points: 2
#     Edge 17, Type (0, 0), BuildingBlock: AJUNOK_clean_linker_0, # of connection points: 2
#     Edge 18, Type (0, 0), BuildingBlock: AJUNOK_clean_linker_0, # of connection points: 2
#     Edge 19, Type (0, 0), BuildingBlock: AJUNOK_clean_linker_0, # of connection points: 2
#     Edge 20, Type (0, 0), BuildingBlock: AJUNOK_clean_linker_0, # of connection points: 2
#     Edge 21, Type (0, 0), BuildingBlock: AJUNOK_clean_linker_0, # of connection points: 2
#     Edge 22, Type (0, 0), BuildingBlock: AJUNOK_clean_linker_0, # of connection points: 2
#     Edge 23, Type (0, 0), BuildingBlock: AJUNOK_clean_linker_0, # of connection points: 2
# Relax obj value: 0.088
# Max RMSD: 0.183
# Mean RMSD: 0.183
data_MOF--net-qtz-e--node1-BETDAH_clean_sbu_0--edge1-AJUNOK_clean_linker_0
_symmetry_space_group_name_H-M    P1
_symmetry_Int_Tables_number       1
_symmetry_cell_setting            triclinic
loop_
_symmetry_equiv_pos_as_xyz
'x, y, z'
_cell_length_a     19.279177
_cell_length_b     19.222238
_cell_length_c     41.839619
_cell_angle_alpha  90.319287
_cell_angle_beta   90.078077
_cell_angle_gamma 119.75565
loop_
_atom_site_label
_atom_site_type_symbol
_atom_site_fract_x
_atom_site_fract_y
_atom_site_fract_z
_atom_type_partial_charge
Ho0 Ho 0.19656 0.49785 0.09156 0.0
Ho1 Ho 0.14954 0.33884 0.05731 0.0
C2 C 0.12638 0.34016 0.13498 0.0
C3 C 0.21954 0.62782 0.11869 0.0
C4 C 0.2305 0.64712 0.15304 0.0
C5 C 0.17887 0.66761 0.16872 0.0
C6 C 0.17866 0.67135 0.20205 0.0
C7 C 0.22997 0.65443 0.22015 0.0
C8 C 0.28409 0.63752 0.20445 0.0
C9 C 0.28407 0.63338 0.17117 0.0
C10 C 0.31354 0.45973 0.08843 0.0
C11 C 0.20951 0.49425 1.01557 0.0
C12 C 0.14177 0.21868 1.02584 0.0
C13 C 0.16423 0.21231 0.99233 0.0
C14 C 0.18513 0.15435 0.98375 0.0
C15 C 0.20863 0.14992 0.95231 0.0
C16 C 0.21194 0.20353 0.9287 0.0
C17 C 0.19088 0.26148 0.93746 0.0
C18 C 0.16716 0.26566 0.96878 0.0
C19 C 0.03801 0.38615 0.05964 0.0
O20 O 0.14099 0.41479 0.13249 0.0
O21 O 0.13295 0.30018 0.10999 0.0
O22 O 0.27671 0.62161 0.10454 0.0
O23 O 0.14858 0.56984 0.11073 0.0
O24 O 0.2981 0.48981 0.11338 0.0
O25 O 0.26424 0.44933 0.06657 0.0
O26 O 0.21146 0.42734 1.01893 0.0
O27 O 0.19418 0.52913 0.03967 0.0
O28 O 0.08089 0.2305 1.02933 0.0
O29 O 0.20079 0.26369 0.04528 0.0
O30 O 0.04908 0.35249 0.0347 0.0
O31 O 0.08454 0.38994 0.08126 0.0
H32 H 0.13655 0.67753 0.15524 0.0
H33 H 0.13745 0.68613 0.21373 0.0
H34 H 0.32426 0.62452 0.21795 0.0
H35 H 0.32384 0.61626 0.15979 0.0
H36 H 0.18412 0.11299 1.00147 0.0
H37 H 0.22618 0.10578 0.94671 0.0
H38 H 0.19268 0.30376 0.92001 0.0
H39 H 0.15142 0.31102 0.9746 0.0
Ho40 Ho 0.7205 0.2135 0.42582 0.0
Ho41 Ho 0.83153 0.16583 0.39255 0.0
C42 C 0.7922 0.12465 0.46763 0.0
C43 C 0.61627 0.24208 0.45197 0.0
C44 C 0.6058 0.25021 0.48627 0.0
C45 C 0.63366 0.21471 0.50823 0.0
C46 C 0.62724 0.22329 0.54085 0.0
C47 C 0.59275 0.26766 0.5523 0.0
C48 C 0.56623 0.30499 0.5305 0.0
C49 C 0.57295 0.29642 0.49752 0.0
C50 C 0.8771 0.32037 0.43289 0.0
C51 C 0.76242 0.25236 0.35129 0.0
C52 C 0.94104 0.15114 0.36253 0.0
C53 C 0.97459 0.17527 0.32963 0.0
C54 C 0.01539 0.25625 0.32048 0.0
C55 C 0.04155 0.27794 0.28897 0.0
C56 C 0.02745 0.21952 0.26543 0.0
C57 C 0.98805 0.13853 0.27473 0.0
C58 C 0.96225 0.1168 0.30642 0.0
C59 C 0.67212 0.06599 0.38434 0.0
O60 O 0.73295 0.13979 0.46423 0.0
O61 O 0.84344 0.13649 0.44425 0.0
O62 O 0.68345 0.29843 0.44024 0.0
O63 O 0.60001 0.17042 0.4426 0.0
O64 O 0.82544 0.29591 0.45577 0.0
O65 O 0.84356 0.28222 0.40761 0.0
O66 O 0.8275 0.24902 0.35737 0.0
O67 O 0.70664 0.23385 0.37323 0.0
O68 O 0.86674 0.09351 0.36421 0.0
O69 O 0.95697 0.20856 0.38329 0.0
O70 O 0.72421 0.0803 0.36224 0.0
O71 O 0.70717 0.10069 0.40963 0.0
H72 H 0.65977 0.17943 0.50028 0.0
H73 H 0.64784 0.1938 0.55722 0.0
H74 H 0.5383 0.33854 0.53894 0.0
H75 H 0.55206 0.32511 0.48091 0.0
H76 H 0.02601 0.3032 0.33751 0.0
H77 H 0.07224 0.34096 0.28293 0.0
H78 H 0.97436 0.09155 0.25732 0.0
H79 H 0.9307 0.05388 0.3126 0.0
Ho80 Ho 0.48372 0.69513 0.76177 0.0
Ho81 Ho 0.64465 0.83349 0.72838 0.0
C82 C 0.63977 0.80973 0.80609 0.0
C83 C 0.37912 0.56802 0.79035 0.0
C84 C 0.34206 0.56264 0.82139 0.0
C85 C 0.29294 0.4883 0.83561 0.0
C86 C 0.26578 0.48511 0.86685 0.0
C87 C 0.28835 0.55627 0.88409 0.0
C88 C 0.33548 0.63039 0.86941 0.0
C89 C 0.3622 0.63356 0.83829 0.0
C90 C 0.48395 0.83592 0.76038 0.0
C91 C 0.49075 0.72527 0.68605 0.0
C92 C 0.75468 0.95786 0.69955 0.0
C93 C 0.76859 0.98252 0.66526 0.0
C94 C 0.76095 0.04797 0.65498 0.0
C95 C 0.77024 0.06989 0.62264 0.0
C96 C 0.78735 0.02691 0.59961 0.0
C97 C 0.79667 0.96248 0.60997 0.0
C98 C 0.78734 0.94048 0.64233 0.0
C99 C 0.61144 0.67852 0.72438 0.0
O100 O 0.56459 0.75057 0.80411 0.0
O101 O 0.68297 0.85025 0.78079 0.0
O102 O 0.36039 0.6029 0.76779 0.0
O103 O 0.45591 0.59429 0.79202 0.0
O104 O 0.42833 0.77168 0.77354 0.0
O105 O 0.53582 0.82072 0.74958 0.0
O106 O 0.55053 0.79852 0.69117 0.0
O107 O 0.46055 0.67006 0.70872 0.0
O108 O 0.76344 0.89696 0.70803 0.0
O109 O 0.69256 0.95635 0.71305 0.0
O110 O 0.64626 0.73006 0.70168 0.0
O111 O 0.6002 0.71351 0.74738 0.0
H112 H 0.27776 0.43314 0.82299 0.0
H113 H 0.23001 0.42732 0.87802 0.0
H114 H 0.35319 0.68573 0.88234 0.0
H115 H 0.40093 0.69149 0.82779 0.0
H116 H 0.74671 0.08176 0.67195 0.0
H117 H 0.76245 0.1197 0.61554 0.0
H118 H 0.81133 0.92901 0.59302 0.0
H119 H 0.79403 0.88992 0.64925 0.0
Ho120 Ho 0.74947 0.50039 0.08945 0.0
Ho121 Ho 0.81372 0.66657 0.0606 0.0
C122 C 0.82806 0.65945 0.13698 0.0
C123 C 0.71026 0.37343 0.12248 0.0
C124 C 0.72128 0.35641 0.1555 0.0
C125 C 0.77028 0.41863 0.17663 0.0
C126 C 0.7737 0.40267 0.20892 0.0
C127 C 0.72868 0.32414 0.22022 0.0
C128 C 0.68022 0.26189 0.19899 0.0
C129 C 0.67629 0.27806 0.1668 0.0
C130 C 0.63651 0.52969 0.06556 0.0
C131 C 0.76507 0.51698 1.01469 0.0
C132 C 0.82452 0.79007 0.0316 0.0
C133 C 0.80329 0.79899 0.99812 0.0
C134 C 0.73135 0.73988 0.98414 0.0
C135 C 0.71003 0.74881 0.95304 0.0
C136 C 0.76014 0.81672 0.93483 0.0
C137 C 0.83346 0.87461 0.94829 0.0
C138 C 0.85458 0.86604 0.97969 0.0
C139 C 0.9167 0.60842 0.06323 0.0
O140 O 0.78895 0.58019 0.13359 0.0
O141 O 0.84639 0.70778 0.11196 0.0
O142 O 0.66497 0.40581 0.11936 0.0
O143 O 0.77405 0.40706 0.10443 0.0
O144 O 0.63837 0.46406 0.06132 0.0
O145 O 0.69717 0.57843 0.08165 0.0
O146 O 0.76067 0.58265 1.01914 0.0
O147 O 0.7717 0.47657 0.03885 0.0
O148 O 0.88569 0.77886 0.0354 0.0
O149 O 0.76466 0.74356 0.0501 0.0
O150 O 0.91379 0.65014 0.0395 0.0
O151 O 0.86759 0.60323 0.08391 0.0
H152 H 0.80553 0.47936 0.16819 0.0
H153 H 0.81229 0.45117 0.22493 0.0
H154 H 0.6453 0.20085 0.20737 0.0
H155 H 0.63743 0.22962 0.15083 0.0
H156 H 0.69097 0.68664 0.99731 0.0
H157 H 0.65395 0.70228 0.94318 0.0
H158 H 0.87354 0.92734 0.93481 0.0
H159 H 0.91072 0.9121 0.98967 0.0
Ho160 Ho 0.26406 0.75177 0.42797 0.0
Ho161 Ho 0.16561 0.80875 0.39209 0.0
C162 C 0.21358 0.8628 0.46665 0.0
C163 C 0.36189 0.71295 0.45336 0.0
C164 C 0.37995 0.70465 0.48706 0.0
C165 C 0.4415 0.77041 0.50337 0.0
C166 C 0.45567 0.76477 0.53564 0.0
C167 C 0.40965 0.6929 0.55225 0.0
C168 C 0.34825 0.62689 0.53611 0.0
C169 C 0.33373 0.63255 0.50371 0.0
C170 C 0.10533 0.65895 0.43672 0.0
C171 C 0.21168 0.69658 0.35483 0.0
C172 C 0.06414 0.83573 0.36139 0.0
C173 C 0.02691 0.81167 0.329 0.0
C174 C 0.01196 0.7391 0.31466 0.0
C175 C 0.97897 0.71804 0.28379 0.0
C176 C 0.96031 0.76907 0.26626 0.0
C177 C 0.9751 0.84161 0.28073 0.0
C178 C 0.00811 0.86264 0.31167 0.0
C179 C 0.32656 0.89121 0.38234 0.0
O180 O 0.26617 0.83794 0.4645 0.0
O181 O 0.16216 0.85091 0.44309 0.0
O182 O 0.29098 0.66025 0.44283 0.0
O183 O 0.38351 0.78566 0.44384 0.0
O184 O 0.15848 0.68325 0.45931 0.0
O185 O 0.13949 0.6907 0.41078 0.0
O186 O 0.15311 0.71154 0.35961 0.0
O187 O 0.26906 0.71743 0.37631 0.0
O188 O 0.14096 0.88607 0.36213 0.0
O189 O 0.04314 0.77867 0.38246 0.0
O190 O 0.27449 0.87642 0.36001 0.0
O191 O 0.29129 0.86632 0.40838 0.0
H192 H 0.47813 0.82679 0.49134 0.0
H193 H 0.50247 0.81705 0.54777 0.0
H194 H 0.31214 0.57089 0.54845 0.0
H195 H 0.28587 0.58066 0.49182 0.0
H196 H 0.02603 0.69861 0.32726 0.0
H197 H 0.96891 0.66199 0.27344 0.0
H198 H 0.96019 0.88176 0.26831 0.0
H199 H 0.01901 0.91893 0.32208 0.0
Ho200 Ho 0.50403 0.27632 0.75992 0.0
Ho201 Ho 0.34593 0.17227 0.72521 0.0
C202 C 0.34501 0.2093 0.80176 0.0
C203 C 0.64158 0.37791 0.78375 0.0
C204 C 0.67309 0.39843 0.81671 0.0
C205 C 0.6838 0.46947 0.83084 0.0
C206 C 0.70736 0.48703 0.86272 0.0
C207 C 0.72241 0.43478 0.88102 0.0
C208 C 0.71322 0.36439 0.86678 0.0
C209 C 0.68889 0.34636 0.83487 0.0
C210 C 0.45 0.11753 0.76233 0.0
C211 C 0.50268 0.24469 0.68483 0.0
C212 C 0.22351 0.06713 0.69302 0.0
C213 C 0.21801 0.03503 0.65995 0.0
C214 C 0.27326 0.01272 0.649 0.0
C215 C 0.27123 0.98797 0.61722 0.0
C216 C 0.2148 0.986 0.5952 0.0
C217 C 0.15867 0.00705 0.60637 0.0
C218 C 0.16041 0.03139 0.6383 0.0
C219 C 0.4075 0.33362 0.72208 0.0
O220 O 0.42102 0.26547 0.7993 0.0
O221 O 0.30498 0.16039 0.77738 0.0
O222 O 0.62474 0.30738 0.77283 0.0
O223 O 0.58701 0.3964 0.77616 0.0
O224 O 0.48065 0.16616 0.78639 0.0
O225 O 0.44772 0.15537 0.73822 0.0
O226 O 0.43445 0.17901 0.68994 0.0
O227 O 0.53699 0.29964 0.70749 0.0
O228 O 0.24311 0.14263 0.69499 0.0
O229 O 0.26032 0.04783 0.71462 0.0
O230 O 0.3725 0.28559 0.69819 0.0
O231 O 0.40508 0.29311 0.74579 0.0
H232 H 0.67193 0.51058 0.81745 0.0
H233 H 0.71177 0.54068 0.87327 0.0
H234 H 0.72441 0.32314 0.88039 0.0
H235 H 0.68127 0.29108 0.82467 0.0
H236 H 0.3188 0.01512 0.6649 0.0
H237 H 0.31399 0.97003 0.60997 0.0
H238 H 0.11435 0.00634 0.59024 0.0
H239 H 0.11745 0.04874 0.64595 0.0
C240 C 0.29207 0.7081 0.30672 0.0
C241 C 0.21839 0.6695 0.32264 0.0
C242 C 0.29601 0.70032 0.27354 0.0
C243 C 0.22635 0.65373 0.2554 0.0
H244 H 0.34609 0.74917 0.31945 0.0
H245 H 0.35321 0.73445 0.26182 0.0
S246 S 0.02153 0.52795 0.28676 0.0
N247 N 0.07625 0.57437 0.31858 0.0
N248 N 0.08375 0.55901 0.25625 0.0
C249 C 0.15344 0.60969 0.27142 0.0
C250 C 0.14946 0.61772 0.30508 0.0
C251 C 0.51345 0.18586 0.63381 0.0
C252 C 0.53671 0.25495 0.6526 0.0
C253 C 0.53326 0.19131 0.60163 0.0
C254 C 0.57644 0.26601 0.58676 0.0
H255 H 0.47779 0.12661 0.64382 0.0
H256 H 0.51281 0.13635 0.58806 0.0
S257 S 0.65772 0.46517 0.62562 0.0
N258 N 0.60993 0.40073 0.65453 0.0
N259 N 0.64679 0.4108 0.59328 0.0
C260 C 0.60256 0.33586 0.60528 0.0
C261 C 0.5831 0.33035 0.63845 0.0
C262 C 0.16888 0.50131 0.9605 0.0
C263 C 0.22907 0.53018 0.98397 0.0
C264 C 0.18828 0.51273 0.92798 0.0
C265 C 0.26841 0.55321 0.91819 0.0
H266 H 0.10675 0.46509 0.96722 0.0
H267 H 0.1406 0.48714 0.91039 0.0
S268 S 0.44744 0.63812 0.97065 0.0
N269 N 0.37115 0.59999 0.99556 0.0
N270 N 0.40808 0.62214 0.93441 0.0
C271 C 0.32898 0.58467 0.94155 0.0
C272 C 0.30913 0.57285 0.97454 0.0
C273 C 0.71884 0.31894 0.31086 0.0
C274 C 0.75062 0.26908 0.31811 0.0
C275 C 0.71259 0.33782 0.27896 0.0
C276 C 0.7363 0.30573 0.25368 0.0
H277 H 0.70054 0.34476 0.32987 0.0
H278 H 0.68863 0.37707 0.27397 0.0
S279 S 0.82039 0.17017 0.26014 0.0
N280 N 0.80439 0.18682 0.29742 0.0
N281 N 0.79174 0.2219 0.2378 0.0
C282 C 0.76705 0.25518 0.26069 0.0
C283 C 0.77436 0.23686 0.29288 0.0
C284 C 0.38694 0.67219 0.64254 0.0
C285 C 0.46667 0.70393 0.65246 0.0
C286 C 0.3675 0.66481 0.60978 0.0
C287 C 0.42728 0.68805 0.58632 0.0
H288 H 0.34036 0.65727 0.66003 0.0
H289 H 0.30623 0.64452 0.6028 0.0
S290 S 0.64194 0.75929 0.60047 0.0
N291 N 0.60389 0.7503 0.6365 0.0
N292 N 0.56655 0.73188 0.57539 0.0
C293 C 0.50584 0.71359 0.59619 0.0
C294 C 0.52577 0.72285 0.62919 0.0
C295 C 0.71262 0.41319 0.97133 0.0
C296 C 0.76491 0.49201 0.98148 0.0
C297 C 0.7019 0.39375 0.93861 0.0
C298 C 0.74379 0.45254 0.91529 0.0
H299 H 0.67643 0.36771 0.98856 0.0
H300 H 0.65752 0.33351 0.9315 0.0
S301 S 0.89793 0.66422 0.93052 0.0
N302 N 0.86543 0.62672 0.96634 0.0
N303 N 0.84742 0.58977 0.90508 0.0
C304 C 0.80073 0.52994 0.92552 0.0
C305 C 0.81074 0.54979 0.95859 0.0
C306 C 0.45746 0.52392 0.10369 0.0
C307 C 0.39611 0.47855 0.08151 0.0
C308 C 0.53708 0.5466 0.0972 0.0
C309 C 0.55792 0.52372 0.06848 0.0
H310 H 0.44403 0.54191 0.12638 0.0
H311 H 0.58184 0.57869 0.11547 0.0
S312 S 0.42146 0.40899 1.00173 0.0
N313 N 0.36279 0.41545 1.02889 0.0
N314 N 0.51251 0.45636 1.01714 0.0
C315 C 0.49785 0.48025 0.04576 0.0
C316 C 0.41687 0.4579 0.05218 0.0
C317 C 0.03622 0.52367 0.46164 0.0
C318 C 0.03999 0.57491 0.4369 0.0
C319 C 0.98525 0.44078 0.45949 0.0
C320 C 0.93669 0.40612 0.43251 0.0
H321 H 0.07458 0.54721 0.48248 0.0
H322 H 0.98381 0.40344 0.47909 0.0
S323 S 0.91424 0.5148 0.36375 0.0
N324 N 0.98433 0.58576 0.38628 0.0
N325 N 0.88828 0.42971 0.38221 0.0
C326 C 0.93723 0.45674 0.4082 0.0
C327 C 0.98878 0.54125 0.41048 0.0
C328 C 0.44123 -0.0026 0.78747 0.0
C329 C 0.45762 0.04519 0.76025 0.0
C330 C 0.45292 0.93125 0.78739 0.0
C331 C 0.48364 0.91201 0.76043 0.0
H332 H 0.41857 0.01089 0.80893 0.0
H333 H 0.43739 0.89452 0.80862 0.0
S334 S 0.53825 0.01921 0.6833 0.0
N335 N 0.50713 0.06953 0.70556 0.0
N336 N 0.5303 0.94529 0.70583 0.0
C337 C 0.50175 0.9599 0.7332 0.0
C338 C 0.48823 0.02651 0.73298 0.0
C339 C 0.54682 0.54556 0.7495 0.0
C340 C 0.56751 0.59028 0.72127 0.0
C341 C 0.4925 0.46351 0.74929 0.0
C342 C 0.45992 0.42151 0.72061 0.0
H343 H 0.57115 0.57485 0.77226 0.0
H344 H 0.47584 0.43275 0.772 0.0
S345 S 0.49686 0.50997 0.6396 0.0
N346 N 0.55198 0.5867 0.66352 0.0
N347 N 0.45258 0.43053 0.66286 0.0
C348 C 0.48172 0.46476 0.69188 0.0
C349 C 0.53587 0.54945 0.69221 0.0
C350 C -0.00737 0.47225 0.03172 0.0
C351 C 0.00063 0.43719 0.05991 0.0
C352 C 0.96758 0.52969 0.03281 0.0
C353 C 0.94965 0.55346 0.06212 0.0
H354 H 0.00764 0.45677 1.00884 0.0
H355 H 0.9614 0.55489 1.01061 0.0
S356 S 0.96068 0.47874 0.14251 0.0
N357 N 0.98621 0.42838 0.11766 0.0
N358 N 0.9427 0.53816 0.11987 0.0
C359 C 0.95714 0.51838 0.09033 0.0
C360 C 0.98129 0.45942 0.08916 0.0
C361 C 0.4563 0.01867 0.38104 0.0
C362 C 0.41435 0.93479 0.37876 0.0
C363 C 0.54015 0.06137 0.38175 0.0
C364 C 0.58474 0.0216 0.38009 0.0
H365 H 0.4241 0.05132 0.38324 0.0
H366 H 0.5697 0.1257 0.38404 0.0
S367 S 0.5042 0.80314 0.37285 0.0
N368 N 0.42449 0.81393 0.37413 0.0
N369 N 0.58167 0.89467 0.37502 0.0
C370 C 0.54382 0.93829 0.37675 0.0
C371 C 0.45857 0.89466 0.37631 0.0
C372 C 0.33073 0.27566 0.85114 0.0
C373 C 0.30491 0.20504 0.83288 0.0
C374 C 0.29932 0.27449 0.88155 0.0
C375 C 0.24134 0.20244 0.89553 0.0
H376 H 0.37619 0.3328 0.84189 0.0
H377 H 0.32223 0.33058 0.89457 0.0
S378 S 0.15148 0.00079 0.85757 0.0
N379 N 0.21601 0.06102 0.83081 0.0
N380 N 0.15735 0.05848 0.88807 0.0
C381 C 0.21407 0.13134 0.8774 0.0
C382 C 0.24546 0.13274 0.84609 0.0
C383 C 0.03524 0.30308 0.21811 0.0
C384 C 0.04948 0.24395 0.23116 0.0
C385 C 0.05854 0.3313 0.18693 0.0
C386 C 0.09677 0.30155 0.16683 0.0
H387 H 0.00585 0.32835 0.23217 0.0
H388 H 0.04663 0.37766 0.17862 0.0
S389 S 0.14621 0.14436 0.18859 0.0
N390 N 0.10347 0.1552 0.221 0.0
N391 N 0.14568 0.20741 0.16203 0.0
C392 C 0.10911 0.24041 0.17899 0.0
C393 C 0.08586 0.21187 0.21113 0.0
C394 C 0.84099 0.12999 0.55571 0.0
C395 C 0.79452 0.04922 0.56496 0.0
C396 C 0.84418 0.15326 0.52363 0.0
C397 C 0.80126 0.09675 0.4995 0.0
H398 H 0.87416 0.17589 0.57351 0.0
H399 H 0.87817 0.21637 0.51785 0.0
S400 S 0.66923 0.8786 0.51062 0.0
N401 N 0.70399 0.91295 0.54685 0.0
N402 N 0.71014 0.95716 0.48684 0.0
C403 C 0.75551 0.01598 0.50818 0.0
C404 C 0.75236 0.99206 0.54079 0.0
C405 C 0.75393 0.83879 0.84389 0.0
C406 C 0.67632 0.82644 0.83872 0.0
C407 C 0.78237 0.83892 0.87509 0.0
C408 C 0.73419 0.82663 0.90219 0.0
H409 H 0.79128 0.8441 0.82369 0.0
H410 H 0.84101 0.84505 0.87792 0.0
S411 S 0.53233 0.80586 0.90186 0.0
N412 N 0.55599 0.81147 0.86369 0.0
N413 N 0.60922 0.8121 0.92178 0.0
C414 C 0.65869 0.81942 0.89732 0.0
C415 C 0.6299 0.81925 0.86578 0.0
C416 C 0.86148 0.66698 0.22739 0.0
C417 C 0.9244 0.74535 0.2333 0.0
C418 C 0.82889 0.64152 0.19661 0.0
C419 C 0.85797 0.69273 0.16993 0.0
H420 H 0.83707 0.62454 0.2468 0.0
H421 H 0.78081 0.58039 0.19376 0.0
S422 S 0.02205 0.90464 0.17233 0.0
N423 N 0.01407 0.87474 0.20975 0.0
N424 N 0.95331 0.82699 0.15199 0.0
C425 C 0.91978 0.77202 0.1756 0.0
C426 C 0.95281 0.79816 0.20713 0.0
C427 C 0.14218 0.90816 0.54513 0.0
C428 C 0.21444 0.96154 0.5609 0.0
C429 C 0.14142 0.87976 0.51383 0.0
C430 C 0.2129 0.90314 0.49712 0.0
H431 H 0.08584 0.88573 0.5575 0.0
H432 H 0.08482 0.83627 0.50328 0.0
S433 S 0.41688 0.05099 0.52507 0.0
N434 N 0.35852 0.04412 0.55517 0.0
N435 N 0.35702 0.98865 0.49731 0.0
C436 C 0.28499 0.95917 0.51192 0.0
C437 C 0.28581 0.98885 0.54348 0.0
loop_
_geom_bond_atom_site_label_1
_geom_bond_atom_site_label_2
_geom_bond_distance
_geom_bond_site_symmetry_2
_ccdc_geom_bond_type
Ho0 C3 2.811 . S
Ho0 O20 2.322 . S
Ho0 O22 2.378 . S
Ho0 O23 2.524 . S
Ho0 O24 2.381 . S
Ho0 O25 2.669 . S
Ho0 O27 2.346 . S
Ho0 O31 2.305 . S
Ho1 C12 2.811 1_554 S
Ho1 O21 2.346 . S
Ho1 O25 2.305 . S
Ho1 O26 2.322 1_554 S
Ho1 O28 2.378 1_554 S
Ho1 O29 2.524 1_554 S
Ho1 O30 2.381 . S
Ho1 O31 2.669 . S
C2 O20 1.259 . S
C2 O21 1.268 . S
C3 Ho0 2.811 . S
C3 C4 1.488 . S
C3 O22 1.215 . S
C3 O23 1.289 . S
C4 C3 1.488 . S
C4 C5 1.348 . S
C4 C9 1.413 . S
C5 C4 1.348 . S
C5 C6 1.442 . S
C5 H32 0.930 . S
C6 C5 1.442 . S
C6 C7 1.381 . S
C6 H33 0.931 . S
C7 C6 1.381 . S
C7 C8 1.321 . S
C8 C7 1.321 . S
C8 C9 1.403 . S
C8 H34 0.934 . S
C9 C4 1.413 . S
C9 C8 1.403 . S
C9 H35 0.930 . S
C10 O24 1.275 . S
C10 O25 1.256 . S
C11 O26 1.259 . S
C11 O27 1.268 1_556 S
C12 Ho1 2.811 1_556 S
C12 C13 1.488 . S
C12 O28 1.215 . S
C12 O29 1.289 . S
C13 C12 1.488 . S
C13 C14 1.348 . S
C13 C18 1.413 . S
C14 C13 1.348 . S
C14 C15 1.442 . S
C14 H36 0.930 . S
C15 C14 1.442 . S
C15 C16 1.381 . S
C15 H37 0.931 . S
C16 C15 1.381 . S
C16 C17 1.321 . S
C17 C16 1.321 . S
C17 C18 1.403 . S
C17 H38 0.934 . S
C18 C13 1.413 . S
C18 C17 1.403 . S
C18 H39 0.930 . S
C19 O30 1.275 . S
C19 O31 1.256 . S
O20 Ho0 2.322 . S
O20 C2 1.259 . S
O21 Ho1 2.346 . S
O21 C2 1.268 . S
O22 Ho0 2.378 . S
O22 C3 1.215 . S
O23 Ho0 2.524 . S
O23 C3 1.289 . S
O24 Ho0 2.381 . S
O24 C10 1.275 . S
O25 Ho0 2.669 . S
O25 Ho1 2.305 . S
O25 C10 1.256 . S
O26 Ho1 2.322 1_556 S
O26 C11 1.259 . S
O27 Ho0 2.346 . S
O27 C11 1.268 1_554 S
O28 Ho1 2.378 1_556 S
O28 C12 1.215 . S
O29 Ho1 2.524 1_556 S
O29 C12 1.289 . S
O30 Ho1 2.381 . S
O30 C19 1.275 . S
O31 Ho0 2.305 . S
O31 Ho1 2.669 . S
O31 C19 1.256 . S
H32 C5 0.930 . S
H33 C6 0.931 . S
H34 C8 0.934 . S
H35 C9 0.930 . S
H36 C14 0.930 . S
H37 C15 0.931 . S
H38 C17 0.934 . S
H39 C18 0.930 . S
Ho40 C43 2.811 . S
Ho40 O60 2.322 . S
Ho40 O62 2.378 . S
Ho40 O63 2.524 . S
Ho40 O64 2.381 . S
Ho40 O65 2.669 . S
Ho40 O67 2.346 . S
Ho40 O71 2.305 . S
Ho41 C52 2.811 . S
Ho41 O61 2.346 . S
Ho41 O65 2.305 . S
Ho41 O66 2.322 . S
Ho41 O68 2.378 . S
Ho41 O69 2.524 . S
Ho41 O70 2.381 . S
Ho41 O71 2.669 . S
C42 O60 1.259 . S
C42 O61 1.268 . S
C43 Ho40 2.811 . S
C43 C44 1.488 . S
C43 O62 1.215 . S
C43 O63 1.289 . S
C44 C43 1.488 . S
C44 C45 1.348 . S
C44 C49 1.413 . S
C45 C44 1.348 . S
C45 C46 1.442 . S
C45 H72 0.930 . S
C46 C45 1.442 . S
C46 C47 1.381 . S
C46 H73 0.931 . S
C47 C46 1.381 . S
C47 C48 1.321 . S
C48 C47 1.321 . S
C48 C49 1.403 . S
C48 H74 0.934 . S
C49 C44 1.413 . S
C49 C48 1.403 . S
C49 H75 0.930 . S
C50 O64 1.275 . S
C50 O65 1.256 . S
C51 O66 1.259 . S
C51 O67 1.268 . S
C52 Ho41 2.811 . S
C52 C53 1.488 . S
C52 O68 1.215 . S
C52 O69 1.289 . S
C53 C52 1.488 . S
C53 C54 1.348 1_655 S
C53 C58 1.413 . S
C54 C53 1.348 1_455 S
C54 C55 1.442 . S
C54 H76 0.930 . S
C55 C54 1.442 . S
C55 C56 1.381 . S
C55 H77 0.931 . S
C56 C55 1.381 . S
C56 C57 1.321 1_455 S
C57 C56 1.321 1_655 S
C57 C58 1.403 . S
C57 H78 0.934 . S
C58 C53 1.413 . S
C58 C57 1.403 . S
C58 H79 0.930 . S
C59 O70 1.275 . S
C59 O71 1.256 . S
O60 Ho40 2.322 . S
O60 C42 1.259 . S
O61 Ho41 2.346 . S
O61 C42 1.268 . S
O62 Ho40 2.378 . S
O62 C43 1.215 . S
O63 Ho40 2.524 . S
O63 C43 1.289 . S
O64 Ho40 2.381 . S
O64 C50 1.275 . S
O65 Ho40 2.669 . S
O65 Ho41 2.305 . S
O65 C50 1.256 . S
O66 Ho41 2.322 . S
O66 C51 1.259 . S
O67 Ho40 2.346 . S
O67 C51 1.268 . S
O68 Ho41 2.378 . S
O68 C52 1.215 . S
O69 Ho41 2.524 . S
O69 C52 1.289 . S
O70 Ho41 2.381 . S
O70 C59 1.275 . S
O71 Ho40 2.305 . S
O71 Ho41 2.669 . S
O71 C59 1.256 . S
H72 C45 0.930 . S
H73 C46 0.931 . S
H74 C48 0.934 . S
H75 C49 0.930 . S
H76 C54 0.930 . S
H77 C55 0.931 . S
H78 C57 0.934 . S
H79 C58 0.930 . S
Ho80 C83 2.811 . S
Ho80 O100 2.322 . S
Ho80 O102 2.378 . S
Ho80 O103 2.524 . S
Ho80 O104 2.381 . S
Ho80 O105 2.669 . S
Ho80 O107 2.346 . S
Ho80 O111 2.305 . S
Ho81 C92 2.811 . S
Ho81 O101 2.346 . S
Ho81 O105 2.305 . S
Ho81 O106 2.322 . S
Ho81 O108 2.378 . S
Ho81 O109 2.524 . S
Ho81 O110 2.381 . S
Ho81 O111 2.669 . S
C82 O100 1.259 . S
C82 O101 1.268 . S
C83 Ho80 2.811 . S
C83 C84 1.488 . S
C83 O102 1.215 . S
C83 O103 1.289 . S
C84 C83 1.488 . S
C84 C85 1.348 . S
C84 C89 1.413 . S
C85 C84 1.348 . S
C85 C86 1.442 . S
C85 H112 0.930 . S
C86 C85 1.442 . S
C86 C87 1.381 . S
C86 H113 0.931 . S
C87 C86 1.381 . S
C87 C88 1.321 . S
C88 C87 1.321 . S
C88 C89 1.403 . S
C88 H114 0.934 . S
C89 C84 1.413 . S
C89 C88 1.403 . S
C89 H115 0.930 . S
C90 O104 1.275 . S
C90 O105 1.256 . S
C91 O106 1.259 . S
C91 O107 1.268 . S
C92 Ho81 2.811 . S
C92 C93 1.488 . S
C92 O108 1.215 . S
C92 O109 1.289 . S
C93 C92 1.488 . S
C93 C94 1.348 1_565 S
C93 C98 1.413 . S
C94 C93 1.348 1_545 S
C94 C95 1.442 . S
C94 H116 0.930 . S
C95 C94 1.442 . S
C95 C96 1.381 . S
C95 H117 0.931 . S
C96 C95 1.381 . S
C96 C97 1.321 1_545 S
C97 C96 1.321 1_565 S
C97 C98 1.403 . S
C97 H118 0.934 . S
C98 C93 1.413 . S
C98 C97 1.403 . S
C98 H119 0.930 . S
C99 O110 1.275 . S
C99 O111 1.256 . S
O100 Ho80 2.322 . S
O100 C82 1.259 . S
O101 Ho81 2.346 . S
O101 C82 1.268 . S
O102 Ho80 2.378 . S
O102 C83 1.215 . S
O103 Ho80 2.524 . S
O103 C83 1.289 . S
O104 Ho80 2.381 . S
O104 C90 1.275 . S
O105 Ho80 2.669 . S
O105 Ho81 2.305 . S
O105 C90 1.256 . S
O106 Ho81 2.322 . S
O106 C91 1.259 . S
O107 Ho80 2.346 . S
O107 C91 1.268 . S
O108 Ho81 2.378 . S
O108 C92 1.215 . S
O109 Ho81 2.524 . S
O109 C92 1.289 . S
O110 Ho81 2.381 . S
O110 C99 1.275 . S
O111 Ho80 2.305 . S
O111 Ho81 2.669 . S
O111 C99 1.256 . S
H112 C85 0.930 . S
H113 C86 0.931 . S
H114 C88 0.934 . S
H115 C89 0.930 . S
H116 C94 0.930 . S
H117 C95 0.931 . S
H118 C97 0.934 . S
H119 C98 0.930 . S
Ho120 C123 2.811 . S
Ho120 O140 2.322 . S
Ho120 O142 2.378 . S
Ho120 O143 2.524 . S
Ho120 O144 2.381 . S
Ho120 O145 2.669 . S
Ho120 O147 2.346 . S
Ho120 O151 2.305 . S
Ho121 C132 2.811 1_554 S
Ho121 O141 2.346 . S
Ho121 O145 2.305 . S
Ho121 O146 2.322 1_554 S
Ho121 O148 2.378 1_554 S
Ho121 O149 2.524 1_554 S
Ho121 O150 2.381 . S
Ho121 O151 2.669 . S
C122 O140 1.259 . S
C122 O141 1.268 . S
C123 Ho120 2.811 . S
C123 C124 1.488 . S
C123 O142 1.215 . S
C123 O143 1.289 . S
C124 C123 1.488 . S
C124 C125 1.348 . S
C124 C129 1.413 . S
C125 C124 1.348 . S
C125 C126 1.442 . S
C125 H152 0.930 . S
C126 C125 1.442 . S
C126 C127 1.381 . S
C126 H153 0.931 . S
C127 C126 1.381 . S
C127 C128 1.321 . S
C128 C127 1.321 . S
C128 C129 1.403 . S
C128 H154 0.934 . S
C129 C124 1.413 . S
C129 C128 1.403 . S
C129 H155 0.930 . S
C130 O144 1.275 . S
C130 O145 1.256 . S
C131 O146 1.259 . S
C131 O147 1.268 1_556 S
C132 Ho121 2.811 1_556 S
C132 C133 1.488 . S
C132 O148 1.215 . S
C132 O149 1.289 . S
C133 C132 1.488 . S
C133 C134 1.348 . S
C133 C138 1.413 . S
C134 C133 1.348 . S
C134 C135 1.442 . S
C134 H156 0.930 . S
C135 C134 1.442 . S
C135 C136 1.381 . S
C135 H157 0.931 . S
C136 C135 1.381 . S
C136 C137 1.321 . S
C137 C136 1.321 . S
C137 C138 1.403 . S
C137 H158 0.934 . S
C138 C133 1.413 . S
C138 C137 1.403 . S
C138 H159 0.930 . S
C139 O150 1.275 . S
C139 O151 1.256 . S
O140 Ho120 2.322 . S
O140 C122 1.259 . S
O141 Ho121 2.346 . S
O141 C122 1.268 . S
O142 Ho120 2.378 . S
O142 C123 1.215 . S
O143 Ho120 2.524 . S
O143 C123 1.289 . S
O144 Ho120 2.381 . S
O144 C130 1.275 . S
O145 Ho120 2.669 . S
O145 Ho121 2.305 . S
O145 C130 1.256 . S
O146 Ho121 2.322 1_556 S
O146 C131 1.259 . S
O147 Ho120 2.346 . S
O147 C131 1.268 1_554 S
O148 Ho121 2.378 1_556 S
O148 C132 1.215 . S
O149 Ho121 2.524 1_556 S
O149 C132 1.289 . S
O150 Ho121 2.381 . S
O150 C139 1.275 . S
O151 Ho120 2.305 . S
O151 Ho121 2.669 . S
O151 C139 1.256 . S
H152 C125 0.930 . S
H153 C126 0.931 . S
H154 C128 0.934 . S
H155 C129 0.930 . S
H156 C134 0.930 . S
H157 C135 0.931 . S
H158 C137 0.934 . S
H159 C138 0.930 . S
Ho160 C163 2.811 . S
Ho160 O180 2.322 . S
Ho160 O182 2.378 . S
Ho160 O183 2.524 . S
Ho160 O184 2.381 . S
Ho160 O185 2.669 . S
Ho160 O187 2.346 . S
Ho160 O191 2.305 . S
Ho161 C172 2.811 . S
Ho161 O181 2.346 . S
Ho161 O185 2.305 . S
Ho161 O186 2.322 . S
Ho161 O188 2.378 . S
Ho161 O189 2.524 . S
Ho161 O190 2.381 . S
Ho161 O191 2.669 . S
C162 O180 1.259 . S
C162 O181 1.268 . S
C163 Ho160 2.811 . S
C163 C164 1.488 . S
C163 O182 1.215 . S
C163 O183 1.289 . S
C164 C163 1.488 . S
C164 C165 1.348 . S
C164 C169 1.413 . S
C165 C164 1.348 . S
C165 C166 1.442 . S
C165 H192 0.930 . S
C166 C165 1.442 . S
C166 C167 1.381 . S
C166 H193 0.931 . S
C167 C166 1.381 . S
C167 C168 1.321 . S
C168 C167 1.321 . S
C168 C169 1.403 . S
C168 H194 0.934 . S
C169 C164 1.413 . S
C169 C168 1.403 . S
C169 H195 0.930 . S
C170 O184 1.275 . S
C170 O185 1.256 . S
C171 O186 1.259 . S
C171 O187 1.268 . S
C172 Ho161 2.811 . S
C172 C173 1.488 . S
C172 O188 1.215 . S
C172 O189 1.289 . S
C173 C172 1.488 . S
C173 C174 1.348 1_455 S
C173 C178 1.413 . S
C174 C173 1.348 1_655 S
C174 C175 1.442 . S
C174 H196 0.930 . S
C175 C174 1.442 . S
C175 C176 1.381 . S
C175 H197 0.931 . S
C176 C175 1.381 . S
C176 C177 1.321 1_655 S
C177 C176 1.321 1_455 S
C177 C178 1.403 . S
C177 H198 0.934 . S
C178 C173 1.413 . S
C178 C177 1.403 . S
C178 H199 0.930 . S
C179 O190 1.275 . S
C179 O191 1.256 . S
O180 Ho160 2.322 . S
O180 C162 1.259 . S
O181 Ho161 2.346 . S
O181 C162 1.268 . S
O182 Ho160 2.378 . S
O182 C163 1.215 . S
O183 Ho160 2.524 . S
O183 C163 1.289 . S
O184 Ho160 2.381 . S
O184 C170 1.275 . S
O185 Ho160 2.669 . S
O185 Ho161 2.305 . S
O185 C170 1.256 . S
O186 Ho161 2.322 . S
O186 C171 1.259 . S
O187 Ho160 2.346 . S
O187 C171 1.268 . S
O188 Ho161 2.378 . S
O188 C172 1.215 . S
O189 Ho161 2.524 . S
O189 C172 1.289 . S
O190 Ho161 2.381 . S
O190 C179 1.275 . S
O191 Ho160 2.305 . S
O191 Ho161 2.669 . S
O191 C179 1.256 . S
H192 C165 0.930 . S
H193 C166 0.931 . S
H194 C168 0.934 . S
H195 C169 0.930 . S
H196 C174 0.930 . S
H197 C175 0.931 . S
H198 C177 0.934 . S
H199 C178 0.930 . S
Ho200 C203 2.811 . S
Ho200 O220 2.322 . S
Ho200 O222 2.378 . S
Ho200 O223 2.524 . S
Ho200 O224 2.381 . S
Ho200 O225 2.669 . S
Ho200 O227 2.346 . S
Ho200 O231 2.305 . S
Ho201 C212 2.811 . S
Ho201 O221 2.346 . S
Ho201 O225 2.305 . S
Ho201 O226 2.322 . S
Ho201 O228 2.378 . S
Ho201 O229 2.524 . S
Ho201 O230 2.381 . S
Ho201 O231 2.669 . S
C202 O220 1.259 . S
C202 O221 1.268 . S
C203 Ho200 2.811 . S
C203 C204 1.488 . S
C203 O222 1.215 . S
C203 O223 1.289 . S
C204 C203 1.488 . S
C204 C205 1.348 . S
C204 C209 1.413 . S
C205 C204 1.348 . S
C205 C206 1.442 . S
C205 H232 0.930 . S
C206 C205 1.442 . S
C206 C207 1.381 . S
C206 H233 0.931 . S
C207 C206 1.381 . S
C207 C208 1.321 . S
C208 C207 1.321 . S
C208 C209 1.403 . S
C208 H234 0.934 . S
C209 C204 1.413 . S
C209 C208 1.403 . S
C209 H235 0.930 . S
C210 O224 1.275 . S
C210 O225 1.256 . S
C211 O226 1.259 . S
C211 O227 1.268 . S
C212 Ho201 2.811 . S
C212 C213 1.488 . S
C212 O228 1.215 . S
C212 O229 1.289 . S
C213 C212 1.488 . S
C213 C214 1.348 1_545 S
C213 C218 1.413 . S
C214 C213 1.348 1_565 S
C214 C215 1.442 . S
C214 H236 0.930 . S
C215 C214 1.442 . S
C215 C216 1.381 . S
C215 H237 0.931 . S
C216 C215 1.381 . S
C216 C217 1.321 1_565 S
C217 C216 1.321 1_545 S
C217 C218 1.403 . S
C217 H238 0.934 . S
C218 C213 1.413 . S
C218 C217 1.403 . S
C218 H239 0.930 . S
C219 O230 1.275 . S
C219 O231 1.256 . S
O220 Ho200 2.322 . S
O220 C202 1.259 . S
O221 Ho201 2.346 . S
O221 C202 1.268 . S
O222 Ho200 2.378 . S
O222 C203 1.215 . S
O223 Ho200 2.524 . S
O223 C203 1.289 . S
O224 Ho200 2.381 . S
O224 C210 1.275 . S
O225 Ho200 2.669 . S
O225 Ho201 2.305 . S
O225 C210 1.256 . S
O226 Ho201 2.322 . S
O226 C211 1.259 . S
O227 Ho200 2.346 . S
O227 C211 1.268 . S
O228 Ho201 2.378 . S
O228 C212 1.215 . S
O229 Ho201 2.524 . S
O229 C212 1.289 . S
O230 Ho201 2.381 . S
O230 C219 1.275 . S
O231 Ho200 2.305 . S
O231 Ho201 2.669 . S
O231 C219 1.256 . S
H232 C205 0.930 . S
H233 C206 0.931 . S
H234 C208 0.934 . S
H235 C209 0.930 . S
H236 C214 0.930 . S
H237 C215 0.931 . S
H238 C217 0.934 . S
H239 C218 0.930 . S
C240 C241 1.369 . S
C240 C242 1.419 . S
C240 H244 0.930 . S
C241 C240 1.369 . S
C241 C250 1.429 . S
C242 C240 1.419 . S
C242 C243 1.363 . S
C242 H245 0.929 . S
C243 C242 1.363 . S
C243 C249 1.428 . S
H244 C240 0.930 . S
H245 C242 0.929 . S
S246 N247 1.613 . S
S246 N248 1.610 . S
N247 S246 1.613 . S
N247 C250 1.350 . S
N248 S246 1.610 . S
N248 C249 1.351 . S
C249 C243 1.428 . S
C249 N248 1.351 . S
C249 C250 1.434 . S
C250 C241 1.429 . S
C250 N247 1.350 . S
C250 C249 1.434 . S
C251 C252 1.369 . S
C251 C253 1.419 . S
C251 H255 0.930 . S
C252 C251 1.369 . S
C252 C261 1.429 . S
C253 C251 1.419 . S
C253 C254 1.363 . S
C253 H256 0.929 . S
C254 C253 1.363 . S
C254 C260 1.428 . S
H255 C251 0.930 . S
H256 C253 0.929 . S
S257 N258 1.613 . S
S257 N259 1.610 . S
N258 S257 1.613 . S
N258 C261 1.350 . S
N259 S257 1.610 . S
N259 C260 1.351 . S
C260 C254 1.428 . S
C260 N259 1.351 . S
C260 C261 1.434 . S
C261 C252 1.429 . S
C261 N258 1.350 . S
C261 C260 1.434 . S
C262 C263 1.369 . S
C262 C264 1.419 . S
C262 H266 0.930 . S
C263 C262 1.369 . S
C263 C272 1.429 . S
C264 C262 1.419 . S
C264 C265 1.363 . S
C264 H267 0.929 . S
C265 C264 1.363 . S
C265 C271 1.428 . S
H266 C262 0.930 . S
H267 C264 0.929 . S
S268 N269 1.613 . S
S268 N270 1.610 . S
N269 S268 1.613 . S
N269 C272 1.350 . S
N270 S268 1.610 . S
N270 C271 1.351 . S
C271 C265 1.428 . S
C271 N270 1.351 . S
C271 C272 1.434 . S
C272 C263 1.429 . S
C272 N269 1.350 . S
C272 C271 1.434 . S
C273 C274 1.369 . S
C273 C275 1.419 . S
C273 H277 0.930 . S
C274 C273 1.369 . S
C274 C283 1.429 . S
C275 C273 1.419 . S
C275 C276 1.363 . S
C275 H278 0.929 . S
C276 C275 1.363 . S
C276 C282 1.428 . S
H277 C273 0.930 . S
H278 C275 0.929 . S
S279 N280 1.613 . S
S279 N281 1.610 . S
N280 S279 1.613 . S
N280 C283 1.350 . S
N281 S279 1.610 . S
N281 C282 1.351 . S
C282 C276 1.428 . S
C282 N281 1.351 . S
C282 C283 1.434 . S
C283 C274 1.429 . S
C283 N280 1.350 . S
C283 C282 1.434 . S
C284 C285 1.369 . S
C284 C286 1.419 . S
C284 H288 0.930 . S
C285 C284 1.369 . S
C285 C294 1.429 . S
C286 C284 1.419 . S
C286 C287 1.363 . S
C286 H289 0.929 . S
C287 C286 1.363 . S
C287 C293 1.428 . S
H288 C284 0.930 . S
H289 C286 0.929 . S
S290 N291 1.613 . S
S290 N292 1.610 . S
N291 S290 1.613 . S
N291 C294 1.350 . S
N292 S290 1.610 . S
N292 C293 1.351 . S
C293 C287 1.428 . S
C293 N292 1.351 . S
C293 C294 1.434 . S
C294 C285 1.429 . S
C294 N291 1.350 . S
C294 C293 1.434 . S
C295 C296 1.369 . S
C295 C297 1.419 . S
C295 H299 0.930 . S
C296 C295 1.369 . S
C296 C305 1.429 . S
C297 C295 1.419 . S
C297 C298 1.363 . S
C297 H300 0.929 . S
C298 C297 1.363 . S
C298 C304 1.428 . S
H299 C295 0.930 . S
H300 C297 0.929 . S
S301 N302 1.613 . S
S301 N303 1.610 . S
N302 S301 1.613 . S
N302 C305 1.350 . S
N303 S301 1.610 . S
N303 C304 1.351 . S
C304 C298 1.428 . S
C304 N303 1.351 . S
C304 C305 1.434 . S
C305 C296 1.429 . S
C305 N302 1.350 . S
C305 C304 1.434 . S
C306 C307 1.369 . S
C306 C308 1.419 . S
C306 H310 0.930 . S
C307 C306 1.369 . S
C307 C316 1.429 . S
C308 C306 1.419 . S
C308 C309 1.363 . S
C308 H311 0.929 . S
C309 C308 1.363 . S
C309 C315 1.428 . S
H310 C306 0.930 . S
H311 C308 0.929 . S
S312 N313 1.611 . S
S312 N314 1.611 1_556 S
N313 S312 1.611 . S
N313 C316 1.353 1_556 S
N314 S312 1.611 1_554 S
N314 C315 1.350 . S
C315 C309 1.428 . S
C315 N314 1.350 . S
C315 C316 1.434 . S
C316 C307 1.429 . S
C316 N313 1.353 1_554 S
C316 C315 1.434 . S
C317 C318 1.369 . S
C317 C319 1.419 . S
C317 H321 0.930 . S
C318 C317 1.369 . S
C318 C327 1.429 1_455 S
C319 C317 1.419 . S
C319 C320 1.363 1_455 S
C319 H322 0.929 . S
C320 C319 1.363 1_655 S
C320 C326 1.428 . S
H321 C317 0.930 . S
H322 C319 0.929 . S
S323 N324 1.613 . S
S323 N325 1.610 . S
N324 S323 1.613 . S
N324 C327 1.350 . S
N325 S323 1.610 . S
N325 C326 1.351 . S
C326 C320 1.428 . S
C326 N325 1.351 . S
C326 C327 1.434 . S
C327 C318 1.429 1_655 S
C327 N324 1.350 . S
C327 C326 1.434 . S
C328 C329 1.369 1_565 S
C328 C330 1.419 . S
C328 H332 0.930 . S
C329 C328 1.369 1_545 S
C329 C338 1.429 . S
C330 C328 1.419 . S
C330 C331 1.363 . S
C330 H333 0.929 . S
C331 C330 1.363 . S
C331 C337 1.428 1_565 S
H332 C328 0.930 . S
H333 C330 0.929 . S
S334 N335 1.613 . S
S334 N336 1.610 . S
N335 S334 1.613 . S
N335 C338 1.350 . S
N336 S334 1.610 . S
N336 C337 1.351 . S
C337 C331 1.428 1_545 S
C337 N336 1.351 . S
C337 C338 1.434 . S
C338 C329 1.429 . S
C338 N335 1.350 . S
C338 C337 1.434 . S
C339 C340 1.369 . S
C339 C341 1.419 . S
C339 H343 0.930 . S
C340 C339 1.369 . S
C340 C349 1.429 . S
C341 C339 1.419 . S
C341 C342 1.363 . S
C341 H344 0.929 . S
C342 C341 1.363 . S
C342 C348 1.428 . S
H343 C339 0.930 . S
H344 C341 0.929 . S
S345 N346 1.613 . S
S345 N347 1.610 . S
N346 S345 1.613 . S
N346 C349 1.350 . S
N347 S345 1.610 . S
N347 C348 1.351 . S
C348 C342 1.428 . S
C348 N347 1.351 . S
C348 C349 1.434 . S
C349 C340 1.429 . S
C349 N346 1.350 . S
C349 C348 1.434 . S
C350 C351 1.369 . S
C350 C352 1.419 . S
C350 H354 0.930 1_554 S
C351 C350 1.369 . S
C351 C360 1.429 1_455 S
C352 C350 1.419 . S
C352 C353 1.363 1_455 S
C352 H355 0.929 1_554 S
C353 C352 1.363 1_655 S
C353 C359 1.428 . S
H354 C350 0.930 1_556 S
H355 C352 0.929 1_556 S
S356 N357 1.613 . S
S356 N358 1.610 . S
N357 S356 1.613 . S
N357 C360 1.350 . S
N358 S356 1.610 . S
N358 C359 1.351 . S
C359 C353 1.428 . S
C359 N358 1.351 . S
C359 C360 1.434 . S
C360 C351 1.429 1_655 S
C360 N357 1.350 . S
C360 C359 1.434 . S
C361 C362 1.369 1_545 S
C361 C363 1.419 . S
C361 H365 0.930 . S
C362 C361 1.369 1_565 S
C362 C371 1.429 . S
C363 C361 1.419 . S
C363 C364 1.363 . S
C363 H366 0.929 . S
C364 C363 1.363 . S
C364 C370 1.428 1_545 S
H365 C361 0.930 . S
H366 C363 0.929 . S
S367 N368 1.613 . S
S367 N369 1.610 . S
N368 S367 1.613 . S
N368 C371 1.350 . S
N369 S367 1.610 . S
N369 C370 1.351 . S
C370 C364 1.428 1_565 S
C370 N369 1.351 . S
C370 C371 1.434 . S
C371 C362 1.429 . S
C371 N368 1.350 . S
C371 C370 1.434 . S
C372 C373 1.369 . S
C372 C374 1.419 . S
C372 H376 0.930 . S
C373 C372 1.369 . S
C373 C382 1.429 . S
C374 C372 1.419 . S
C374 C375 1.363 . S
C374 H377 0.929 . S
C375 C374 1.363 . S
C375 C381 1.428 . S
H376 C372 0.930 . S
H377 C374 0.929 . S
S378 N379 1.613 . S
S378 N380 1.610 . S
N379 S378 1.613 . S
N379 C382 1.350 . S
N380 S378 1.610 . S
N380 C381 1.351 . S
C381 C375 1.428 . S
C381 N380 1.351 . S
C381 C382 1.434 . S
C382 C373 1.429 . S
C382 N379 1.350 . S
C382 C381 1.434 . S
C383 C384 1.369 . S
C383 C385 1.419 . S
C383 H387 0.930 . S
C384 C383 1.369 . S
C384 C393 1.429 . S
C385 C383 1.419 . S
C385 C386 1.363 . S
C385 H388 0.929 . S
C386 C385 1.363 . S
C386 C392 1.428 . S
H387 C383 0.930 . S
H388 C385 0.929 . S
S389 N390 1.613 . S
S389 N391 1.610 . S
N390 S389 1.613 . S
N390 C393 1.350 . S
N391 S389 1.610 . S
N391 C392 1.351 . S
C392 C386 1.428 . S
C392 N391 1.351 . S
C392 C393 1.434 . S
C393 C384 1.429 . S
C393 N390 1.350 . S
C393 C392 1.434 . S
C394 C395 1.369 . S
C394 C396 1.419 . S
C394 H398 0.930 . S
C395 C394 1.369 . S
C395 C404 1.429 1_545 S
C396 C394 1.419 . S
C396 C397 1.363 . S
C396 H399 0.929 . S
C397 C396 1.363 . S
C397 C403 1.428 . S
H398 C394 0.930 . S
H399 C396 0.929 . S
S400 N401 1.613 . S
S400 N402 1.610 . S
N401 S400 1.613 . S
N401 C404 1.350 . S
N402 S400 1.610 . S
N402 C403 1.351 1_565 S
C403 C397 1.428 . S
C403 N402 1.351 1_545 S
C403 C404 1.434 1_545 S
C404 C395 1.429 1_565 S
C404 N401 1.350 . S
C404 C403 1.434 1_565 S
C405 C406 1.369 . S
C405 C407 1.419 . S
C405 H409 0.930 . S
C406 C405 1.369 . S
C406 C415 1.429 . S
C407 C405 1.419 . S
C407 C408 1.363 . S
C407 H410 0.929 . S
C408 C407 1.363 . S
C408 C414 1.428 . S
H409 C405 0.930 . S
H410 C407 0.929 . S
S411 N412 1.613 1_545 S
S411 N413 1.610 1_545 S
N412 S411 1.613 1_565 S
N412 C415 1.350 . S
N413 S411 1.610 1_565 S
N413 C414 1.351 . S
C414 C408 1.428 . S
C414 N413 1.351 . S
C414 C415 1.434 . S
C415 C406 1.429 . S
C415 N412 1.350 . S
C415 C414 1.434 . S
C416 C417 1.369 . S
C416 C418 1.419 . S
C416 H420 0.930 . S
C417 C416 1.369 . S
C417 C426 1.429 . S
C418 C416 1.419 . S
C418 C419 1.363 . S
C418 H421 0.929 . S
C419 C418 1.363 . S
C419 C425 1.428 . S
H420 C416 0.930 . S
H421 C418 0.929 . S
S422 N423 1.613 . S
S422 N424 1.610 1_455 S
N423 S422 1.613 . S
N423 C426 1.350 1_455 S
N424 S422 1.610 1_655 S
N424 C425 1.351 . S
C425 C419 1.428 . S
C425 N424 1.351 . S
C425 C426 1.434 . S
C426 C417 1.429 . S
C426 N423 1.350 1_655 S
C426 C425 1.434 . S
C427 C428 1.369 . S
C427 C429 1.419 . S
C427 H431 0.930 . S
C428 C427 1.369 . S
C428 C437 1.429 . S
C429 C427 1.419 . S
C429 C430 1.363 . S
C429 H432 0.929 . S
C430 C429 1.363 . S
C430 C436 1.428 . S
H431 C427 0.930 . S
H432 C429 0.929 . S
S433 N434 1.613 . S
S433 N435 1.610 . S
N434 S433 1.613 . S
N434 C437 1.350 . S
N435 S433 1.610 . S
N435 C436 1.351 . S
C436 C430 1.428 . S
C436 N435 1.351 . S
C436 C437 1.434 . S
C437 C428 1.429 . S
C437 N434 1.350 . S
C437 C436 1.434 . S
C241 C171 1.234 . S
C243 C7 1.240 . S
C252 C211 1.232 . S
C254 C47 1.240 . S
C263 C11 1.232 . S
C265 C87 1.240 . S
C274 C51 1.231 . S
C276 C127 1.242 . S
C285 C91 1.231 . S
C287 C167 1.242 . S
C296 C131 1.230 . S
C298 C207 1.243 . S
C307 C10 1.261 . S
C309 C130 1.260 . S
C318 C170 1.267 . S
C320 C50 1.253 . S
C329 C210 1.262 . S
C331 C90 1.261 . S
C340 C99 1.492 . S
C342 C219 1.493 . S
C351 C19 1.495 . S
C353 C139 1.491 . S
C362 C179 1.493 . S
C364 C59 1.494 . S
C373 C202 1.429 . S
C375 C16 1.385 . S
C384 C56 1.388 . S
C386 C2 1.430 . S
C395 C96 1.384 . S
C397 C42 1.433 . S
C406 C82 1.429 . S
C408 C136 1.386 . S
C417 C176 1.388 . S
C419 C122 1.431 . S
C428 C216 1.378 . S
C430 C162 1.434 . S
