# Generated by pormake.
# Topology vch, (7)-cn, num edge types: 1
# Building blocks:
#     Node 0, Type 0, BuildingBlock: HICVOG_clean_sbu_0, # of connection points: 7
#     Node 1, Type 0, BuildingBlock: HICVOG_clean_sbu_0, # of connection points: 7
#     Node 2, Type 0, BuildingBlock: HICVOG_clean_sbu_0, # of connection points: 7
#     Node 3, Type 0, BuildingBlock: HICVOG_clean_sbu_0, # of connection points: 7
#     Node 4, Type 0, BuildingBlock: HICVOG_clean_sbu_0, # of connection points: 7
#     Node 5, Type 0, BuildingBlock: HICVOG_clean_sbu_0, # of connection points: 7
#     Node 6, Type 0, BuildingBlock: HICVOG_clean_sbu_0, # of connection points: 7
#     Node 7, Type 0, BuildingBlock: HICVOG_clean_sbu_0, # of connection points: 7
#     Node 8, Type 0, BuildingBlock: HICVOG_clean_sbu_0, # of connection points: 7
#     Node 9, Type 0, BuildingBlock: HICVOG_clean_sbu_0, # of connection points: 7
#     Node 10, Type 0, BuildingBlock: HICVOG_clean_sbu_0, # of connection points: 7
#     Node 11, Type 0, BuildingBlock: HICVOG_clean_sbu_0, # of connection points: 7
#     Node 12, Type 0, BuildingBlock: HICVOG_clean_sbu_0, # of connection points: 7
#     Node 13, Type 0, BuildingBlock: HICVOG_clean_sbu_0, # of connection points: 7
#     Node 14, Type 0, BuildingBlock: HICVOG_clean_sbu_0, # of connection points: 7
#     Node 15, Type 0, BuildingBlock: HICVOG_clean_sbu_0, # of connection points: 7
#     Edge 16, Type (0, 0), BuildingBlock: KIFKEQ_clean_linker_1, # of connection points: 2
#     Edge 17, Type (0, 0), BuildingBlock: KIFKEQ_clean_linker_1, # of connection points: 2
#     Edge 18, Type (0, 0), BuildingBlock: KIFKEQ_clean_linker_1, # of connection points: 2
#     Edge 19, Type (0, 0), BuildingBlock: KIFKEQ_clean_linker_1, # of connection points: 2
#     Edge 20, Type (0, 0), BuildingBlock: KIFKEQ_clean_linker_1, # of connection points: 2
#     Edge 21, Type (0, 0), BuildingBlock: KIFKEQ_clean_linker_1, # of connection points: 2
#     Edge 22, Type (0, 0), BuildingBlock: KIFKEQ_clean_linker_1, # of connection points: 2
#     Edge 23, Type (0, 0), BuildingBlock: KIFKEQ_clean_linker_1, # of connection points: 2
#     Edge 24, Type (0, 0), BuildingBlock: KIFKEQ_clean_linker_1, # of connection points: 2
#     Edge 25, Type (0, 0), BuildingBlock: KIFKEQ_clean_linker_1, # of connection points: 2
#     Edge 26, Type (0, 0), BuildingBlock: KIFKEQ_clean_linker_1, # of connection points: 2
#     Edge 27, Type (0, 0), BuildingBlock: KIFKEQ_clean_linker_1, # of connection points: 2
#     Edge 28, Type (0, 0), BuildingBlock: KIFKEQ_clean_linker_1, # of connection points: 2
#     Edge 29, Type (0, 0), BuildingBlock: KIFKEQ_clean_linker_1, # of connection points: 2
#     Edge 30, Type (0, 0), BuildingBlock: KIFKEQ_clean_linker_1, # of connection points: 2
#     Edge 31, Type (0, 0), BuildingBlock: KIFKEQ_clean_linker_1, # of connection points: 2
#     Edge 32, Type (0, 0), BuildingBlock: KIFKEQ_clean_linker_1, # of connection points: 2
#     Edge 33, Type (0, 0), BuildingBlock: KIFKEQ_clean_linker_1, # of connection points: 2
#     Edge 34, Type (0, 0), BuildingBlock: KIFKEQ_clean_linker_1, # of connection points: 2
#     Edge 35, Type (0, 0), BuildingBlock: KIFKEQ_clean_linker_1, # of connection points: 2
#     Edge 36, Type (0, 0), BuildingBlock: KIFKEQ_clean_linker_1, # of connection points: 2
#     Edge 37, Type (0, 0), BuildingBlock: KIFKEQ_clean_linker_1, # of connection points: 2
#     Edge 38, Type (0, 0), BuildingBlock: KIFKEQ_clean_linker_1, # of connection points: 2
#     Edge 39, Type (0, 0), BuildingBlock: KIFKEQ_clean_linker_1, # of connection points: 2
#     Edge 40, Type (0, 0), BuildingBlock: KIFKEQ_clean_linker_1, # of connection points: 2
#     Edge 41, Type (0, 0), BuildingBlock: KIFKEQ_clean_linker_1, # of connection points: 2
#     Edge 42, Type (0, 0), BuildingBlock: KIFKEQ_clean_linker_1, # of connection points: 2
#     Edge 43, Type (0, 0), BuildingBlock: KIFKEQ_clean_linker_1, # of connection points: 2
#     Edge 44, Type (0, 0), BuildingBlock: KIFKEQ_clean_linker_1, # of connection points: 2
#     Edge 45, Type (0, 0), BuildingBlock: KIFKEQ_clean_linker_1, # of connection points: 2
#     Edge 46, Type (0, 0), BuildingBlock: KIFKEQ_clean_linker_1, # of connection points: 2
#     Edge 47, Type (0, 0), BuildingBlock: KIFKEQ_clean_linker_1, # of connection points: 2
#     Edge 48, Type (0, 0), BuildingBlock: KIFKEQ_clean_linker_1, # of connection points: 2
#     Edge 49, Type (0, 0), BuildingBlock: KIFKEQ_clean_linker_1, # of connection points: 2
#     Edge 50, Type (0, 0), BuildingBlock: KIFKEQ_clean_linker_1, # of connection points: 2
#     Edge 51, Type (0, 0), BuildingBlock: KIFKEQ_clean_linker_1, # of connection points: 2
#     Edge 52, Type (0, 0), BuildingBlock: KIFKEQ_clean_linker_1, # of connection points: 2
#     Edge 53, Type (0, 0), BuildingBlock: KIFKEQ_clean_linker_1, # of connection points: 2
#     Edge 54, Type (0, 0), BuildingBlock: KIFKEQ_clean_linker_1, # of connection points: 2
#     Edge 55, Type (0, 0), BuildingBlock: KIFKEQ_clean_linker_1, # of connection points: 2
#     Edge 56, Type (0, 0), BuildingBlock: KIFKEQ_clean_linker_1, # of connection points: 2
#     Edge 57, Type (0, 0), BuildingBlock: KIFKEQ_clean_linker_1, # of connection points: 2
#     Edge 58, Type (0, 0), BuildingBlock: KIFKEQ_clean_linker_1, # of connection points: 2
#     Edge 59, Type (0, 0), BuildingBlock: KIFKEQ_clean_linker_1, # of connection points: 2
#     Edge 60, Type (0, 0), BuildingBlock: KIFKEQ_clean_linker_1, # of connection points: 2
#     Edge 61, Type (0, 0), BuildingBlock: KIFKEQ_clean_linker_1, # of connection points: 2
#     Edge 62, Type (0, 0), BuildingBlock: KIFKEQ_clean_linker_1, # of connection points: 2
#     Edge 63, Type (0, 0), BuildingBlock: KIFKEQ_clean_linker_1, # of connection points: 2
#     Edge 64, Type (0, 0), BuildingBlock: KIFKEQ_clean_linker_1, # of connection points: 2
#     Edge 65, Type (0, 0), BuildingBlock: KIFKEQ_clean_linker_1, # of connection points: 2
#     Edge 66, Type (0, 0), BuildingBlock: KIFKEQ_clean_linker_1, # of connection points: 2
#     Edge 67, Type (0, 0), BuildingBlock: KIFKEQ_clean_linker_1, # of connection points: 2
#     Edge 68, Type (0, 0), BuildingBlock: KIFKEQ_clean_linker_1, # of connection points: 2
#     Edge 69, Type (0, 0), BuildingBlock: KIFKEQ_clean_linker_1, # of connection points: 2
#     Edge 70, Type (0, 0), BuildingBlock: KIFKEQ_clean_linker_1, # of connection points: 2
#     Edge 71, Type (0, 0), BuildingBlock: KIFKEQ_clean_linker_1, # of connection points: 2
# Relax obj value: 0.108
# Max RMSD: 0.193
# Mean RMSD: 0.193
data_MOF--net-vch--node1-HICVOG_clean_sbu_0--edge1-KIFKEQ_clean_linker_1
_symmetry_space_group_name_H-M    P1
_symmetry_Int_Tables_number       1
_symmetry_cell_setting            triclinic
loop_
_symmetry_equiv_pos_as_xyz
'x, y, z'
_cell_length_a     18.334995
_cell_length_b     79.471858
_cell_length_c     52.891537
_cell_angle_alpha  90.022361
_cell_angle_beta   89.982013
_cell_angle_gamma 90.012804
loop_
_atom_site_label
_atom_site_type_symbol
_atom_site_fract_x
_atom_site_fract_y
_atom_site_fract_z
_atom_type_partial_charge
Zn0 Zn 0.99869 0.1465 0.1281 0.0
C1 C 0.12658 0.11651 0.0867 0.0
N2 N 0.07269 0.11759 0.06973 0.0
C3 C 0.0193 0.12528 0.08261 0.0
N4 N 0.03923 0.12901 0.10652 0.0
N5 N 0.10626 0.12305 0.10912 0.0
C6 C 0.30034 0.13141 0.14159 0.0
O7 O 0.26498 0.14439 0.15085 0.0
O8 O 0.88849 0.14834 0.12305 0.0
Zn9 Zn 0.15407 0.11634 0.13994 0.0
N10 N 0.05203 0.16719 0.12072 0.0
C11 C 0.17257 0.17778 0.1157 0.0
C12 C 0.12516 0.16454 0.1204 0.0
C13 C 0.02403 0.18298 0.1176 0.0
N14 N 0.14515 0.19344 0.11249 0.0
C15 C 0.07226 0.19665 0.11355 0.0
O16 O 0.11759 0.12765 0.17212 0.0
C17 C 0.06321 0.13613 0.18016 0.0
O18 O 0.01585 0.1424 0.16527 0.0
H19 H 0.1465 0.15218 0.12422 0.0
H20 H 0.96562 0.1848 0.11842 0.0
C21 C 0.1661 0.07918 0.13898 0.0
C22 C 0.13589 0.06296 0.1426 0.0
C23 C 0.0258 0.07563 0.15691 0.0
C24 C 0.05571 0.0915 0.15327 0.0
N25 N 0.12506 0.09303 0.14453 0.0
N26 N 0.06631 0.06185 0.15151 0.0
H27 H 0.2204 0.08086 0.13141 0.0
C28 C 0.85187 0.13592 0.13148 0.0
O29 O 0.88738 0.1233 0.14178 0.0
O30 O 0.26481 0.11813 0.13608 0.0
H31 H 0.02361 0.10261 0.15716 0.0
H32 H 0.23087 0.17571 0.11512 0.0
H33 H 0.97062 0.07425 0.16386 0.0
Zn34 Zn 0.36892 0.8985 0.12991 0.0
C35 C 0.48101 0.87378 0.07609 0.0
N36 N 0.4189 0.87591 0.06313 0.0
C37 C 0.3736 0.88229 0.08048 0.0
N38 N 0.40616 0.88435 0.10302 0.0
N39 N 0.47368 0.87869 0.10043 0.0
C40 C 0.67027 0.87895 0.12831 0.0
O41 O 0.63428 0.89192 0.13734 0.0
O42 O 0.25734 0.89815 0.12858 0.0
Zn43 Zn 0.52404 0.86728 0.12728 0.0
N44 N 0.40482 0.92105 0.12301 0.0
C45 C 0.50828 0.93752 0.11198 0.0
C46 C 0.47668 0.92197 0.11693 0.0
C47 C 0.36293 0.9352 0.12459 0.0
N48 N 0.46695 0.95162 0.11365 0.0
C49 C 0.39491 0.9511 0.11995 0.0
O50 O 0.50804 0.87766 0.16158 0.0
C51 C 0.46239 0.88585 0.17494 0.0
O52 O 0.40578 0.89268 0.16532 0.0
H53 H 0.5093 0.91066 0.11606 0.0
H54 H 0.3058 0.93393 0.12923 0.0
C55 C 0.49965 0.82998 0.1229 0.0
C56 C 0.45242 0.81597 0.12564 0.0
C57 C 0.36045 0.83417 0.14167 0.0
C58 C 0.40709 0.8478 0.13913 0.0
N59 N 0.47541 0.84557 0.12983 0.0
N60 N 0.38415 0.81869 0.13495 0.0
H61 H 0.55387 0.82867 0.11511 0.0
C62 C 0.22205 0.88486 0.13423 0.0
O63 O 0.25836 0.8716 0.14197 0.0
O64 O 0.63429 0.86596 0.12158 0.0
H65 H 0.38897 0.86023 0.14434 0.0
H66 H 0.5654 0.93842 0.10704 0.0
H67 H 0.30579 0.83584 0.14896 0.0
Zn68 Zn 0.64036 0.90057 0.4062 0.0
C69 C 0.51237 0.88735 0.46371 0.0
N70 N 0.56763 0.89396 0.47696 0.0
C71 C 0.61803 0.89667 0.45919 0.0
N72 N 0.59505 0.89188 0.43618 0.0
N73 N 0.52806 0.88591 0.43884 0.0
C74 C 0.33784 0.88129 0.41338 0.0
O75 O 0.3732 0.89426 0.40403 0.0
O76 O 0.75121 0.89927 0.40965 0.0
Zn77 Zn 0.48425 0.87061 0.41477 0.0
N78 N 0.60764 0.92373 0.40507 0.0
C79 C 0.50168 0.9408 0.40149 0.0
C80 C 0.53437 0.92503 0.40185 0.0
C81 C 0.65021 0.93767 0.40793 0.0
N82 N 0.54367 0.9547 0.4043 0.0
C83 C 0.6173 0.95375 0.40746 0.0
O84 O 0.49843 0.87776 0.37832 0.0
C85 C 0.54727 0.88411 0.36404 0.0
O86 O 0.60488 0.89092 0.3729 0.0
H87 H 0.50158 0.91381 0.3998 0.0
H88 H 0.70817 0.93617 0.41097 0.0
C89 C 0.51188 0.83376 0.42289 0.0
C90 C 0.56142 0.8201 0.42455 0.0
C91 C 0.6595 0.83897 0.41667 0.0
C92 C 0.61068 0.85224 0.41476 0.0
N93 N 0.53817 0.84953 0.41807 0.0
N94 N 0.63384 0.82333 0.42144 0.0
H95 H 0.45392 0.83201 0.42558 0.0
C96 C 0.78755 0.88662 0.40192 0.0
O97 O 0.75312 0.87438 0.39028 0.0
O98 O 0.37449 0.86851 0.42049 0.0
H99 H 0.63032 0.86473 0.41064 0.0
H100 H 0.44334 0.942 0.39903 0.0
H101 H 0.7174 0.84104 0.41423 0.0
Zn102 Zn 0.01428 0.14911 0.41862 0.0
C103 C 0.88571 0.11965 0.46061 0.0
N104 N 0.93885 0.12113 0.47778 0.0
C105 C 0.99239 0.12872 0.46485 0.0
N106 N 0.97326 0.132 0.44071 0.0
N107 N 0.90638 0.12595 0.43809 0.0
C108 C 0.71298 0.13352 0.40538 0.0
O109 O 0.74849 0.14653 0.39627 0.0
O110 O 0.12464 0.15098 0.42374 0.0
Zn111 Zn 0.85959 0.11871 0.40738 0.0
N112 N 0.96049 0.16983 0.42537 0.0
C113 C 0.83988 0.18032 0.43055 0.0
C114 C 0.88744 0.16707 0.4262 0.0
C115 C 0.98817 0.18571 0.42767 0.0
N116 N 0.86695 0.19608 0.43281 0.0
C117 C 0.93969 0.19941 0.43124 0.0
O118 O 0.89637 0.12948 0.37492 0.0
C119 C 0.95083 0.13786 0.36673 0.0
O120 O 0.99773 0.14443 0.38151 0.0
H121 H 0.86617 0.15464 0.42305 0.0
H122 H 0.04649 0.18755 0.42649 0.0
C123 C 0.8488 0.08158 0.40748 0.0
C124 C 0.88105 0.06549 0.40523 0.0
C125 C 0.99488 0.07847 0.39609 0.0
C126 C 0.96289 0.09424 0.39828 0.0
N127 N 0.89081 0.09555 0.40389 0.0
N128 N 0.95346 0.06455 0.39963 0.0
H129 H 0.79197 0.08307 0.41249 0.0
C130 C 0.16116 0.13848 0.41546 0.0
O131 O 0.1255 0.12583 0.4053 0.0
O132 O 0.74851 0.12024 0.41092 0.0
H133 H 0.9954 0.10548 0.39579 0.0
H134 H 0.78166 0.17818 0.43152 0.0
H135 H 0.05228 0.07727 0.39171 0.0
Zn136 Zn 0.84783 0.90421 0.9038 0.0
C137 C 0.98206 0.9034 0.95989 0.0
N138 N 0.92432 0.91003 0.97195 0.0
C139 C 0.86865 0.90656 0.95638 0.0
N140 N 0.89228 0.89864 0.93543 0.0
N141 N 0.96284 0.89593 0.93796 0.0
C142 C 0.14925 0.89227 0.91678 0.0
O143 O 0.10736 0.9047 0.9092 0.0
O144 O 0.73873 0.90189 0.90802 0.0
Zn145 Zn 0.00962 0.87874 0.91757 0.0
N146 N 0.87749 0.92733 0.89812 0.0
C147 C 0.97945 0.94434 0.88713 0.0
C148 C 0.94791 0.9286 0.89033 0.0
C149 C 0.83682 0.94133 0.903 0.0
N150 N 0.93943 0.95828 0.89204 0.0
C151 C 0.8688 0.95737 0.89989 0.0
O152 O 0.99636 0.88248 0.88024 0.0
C153 C 0.94502 0.88589 0.86486 0.0
O154 O 0.88393 0.89179 0.87235 0.0
H155 H 0.97984 0.9174 0.8871 0.0
H156 H 0.78157 0.93993 0.90987 0.0
C157 C 0.98934 0.84221 0.92964 0.0
C158 C 0.94312 0.82808 0.93278 0.0
C159 C 0.84029 0.8454 0.92468 0.0
C160 C 0.88593 0.85907 0.92077 0.0
N161 N 0.95915 0.85748 0.92403 0.0
N162 N 0.86981 0.8303 0.93048 0.0
H163 H 0.04793 0.8411 0.93139 0.0
C164 C 0.69249 0.9058 0.89115 0.0
O165 O 0.71571 0.91192 0.86952 0.0
O166 O 0.11918 0.87845 0.9231 0.0
H167 H 0.86295 0.87089 0.91479 0.0
H168 H 0.03556 0.9455 0.88105 0.0
H169 H 0.78186 0.84666 0.92255 0.0
Zn170 Zn 0.64715 0.12334 0.90794 0.0
C171 C 0.5158 0.13374 0.96552 0.0
N172 N 0.56925 0.12609 0.97839 0.0
C173 C 0.62176 0.12446 0.96105 0.0
N174 N 0.60131 0.13082 0.93858 0.0
N175 N 0.53447 0.13691 0.94128 0.0
C176 C 0.34604 0.14325 0.9147 0.0
O177 O 0.38187 0.1311 0.90331 0.0
O178 O 0.75845 0.12433 0.9112 0.0
Zn179 Zn 0.49319 0.15414 0.91938 0.0
N180 N 0.613 0.1004 0.9046 0.0
C181 C 0.50608 0.084 0.89819 0.0
C182 C 0.54029 0.09956 0.89983 0.0
C183 C 0.65354 0.08618 0.90777 0.0
N184 N 0.54604 0.06983 0.90135 0.0
C185 C 0.61906 0.07032 0.90604 0.0
O186 O 0.51206 0.15004 0.88213 0.0
C187 C 0.55863 0.14326 0.86742 0.0
O188 O 0.61146 0.1344 0.87569 0.0
H189 H 0.50902 0.11101 0.89766 0.0
H190 H 0.71101 0.08728 0.9121 0.0
C191 C 0.51431 0.19086 0.92869 0.0
C192 C 0.55963 0.20473 0.93461 0.0
C193 C 0.66096 0.18629 0.93786 0.0
C194 C 0.6166 0.17277 0.93156 0.0
N195 N 0.54406 0.17511 0.92761 0.0
N196 N 0.63159 0.20187 0.93923 0.0
H197 H 0.45668 0.1925 0.92508 0.0
C198 C 0.7934 0.13802 0.90789 0.0
O199 O 0.75697 0.15162 0.90158 0.0
O200 O 0.38237 0.15541 0.92415 0.0
H201 H 0.64022 0.16047 0.92955 0.0
H202 H 0.44815 0.08317 0.89453 0.0
H203 H 0.71858 0.18446 0.94129 0.0
Zn204 Zn 0.36388 0.12307 0.6395 0.0
C205 C 0.49334 0.13408 0.58164 0.0
N206 N 0.43888 0.12677 0.56881 0.0
C207 C 0.38701 0.12508 0.58638 0.0
N208 N 0.40872 0.13109 0.60891 0.0
N209 N 0.47584 0.13697 0.60606 0.0
C210 C 0.66508 0.14298 0.63187 0.0
O211 O 0.6292 0.13057 0.64258 0.0
O212 O 0.25253 0.12422 0.63635 0.0
Zn213 Zn 0.51823 0.15379 0.62829 0.0
N214 N 0.39737 0.09998 0.64168 0.0
C215 C 0.50465 0.0833 0.64398 0.0
C216 C 0.47118 0.09894 0.64297 0.0
C217 C 0.35494 0.08588 0.64144 0.0
N218 N 0.46286 0.06925 0.6437 0.0
C219 C 0.38865 0.06986 0.64246 0.0
O220 O 0.50085 0.14907 0.66541 0.0
C221 C 0.45457 0.14227 0.68021 0.0
O222 O 0.40085 0.13363 0.67203 0.0
H223 H 0.50372 0.11029 0.64312 0.0
H224 H 0.2964 0.0873 0.64072 0.0
C225 C 0.49303 0.19035 0.61766 0.0
C226 C 0.44453 0.20405 0.61416 0.0
C227 C 0.34426 0.18531 0.6187 0.0
C228 C 0.39198 0.17204 0.62261 0.0
N229 N 0.46516 0.17464 0.62173 0.0
N230 N 0.37151 0.2009 0.61467 0.0
H231 H 0.55152 0.19204 0.61719 0.0
C232 C 0.21684 0.13749 0.6418 0.0
O233 O 0.25228 0.15058 0.6507 0.0
O234 O 0.62879 0.15538 0.62314 0.0
H235 H 0.37082 0.15968 0.62662 0.0
H236 H 0.56342 0.08229 0.64496 0.0
H237 H 0.28591 0.18331 0.61919 0.0
Zn238 Zn 0.14689 0.90468 0.63826 0.0
C239 C 0.01765 0.89645 0.57923 0.0
N240 N 0.07302 0.90385 0.56701 0.0
C241 C 0.125 0.9048 0.58469 0.0
N242 N 0.1018 0.89837 0.60683 0.0
N243 N 0.03449 0.8928 0.60344 0.0
C244 C 0.84445 0.88638 0.62755 0.0
O245 O 0.87989 0.89881 0.63841 0.0
O246 O 0.25771 0.90362 0.63475 0.0
Zn247 Zn 0.99084 0.87569 0.62473 0.0
N248 N 0.11422 0.92763 0.6432 0.0
C249 C 0.0084 0.94424 0.65018 0.0
C250 C 0.04114 0.92864 0.64707 0.0
C251 C 0.15655 0.94173 0.64224 0.0
N252 N 0.0501 0.9583 0.6492 0.0
C253 C 0.12354 0.95771 0.64529 0.0
O254 O 0.00466 0.88006 0.66195 0.0
C255 C 0.05301 0.88526 0.67738 0.0
O256 O 0.11094 0.89267 0.66992 0.0
H257 H 0.00858 0.9173 0.64757 0.0
H258 H 0.21455 0.94034 0.63934 0.0
C259 C 0.0149 0.83921 0.61437 0.0
C260 C 0.06244 0.82542 0.61044 0.0
C261 C 0.16388 0.84386 0.61388 0.0
C262 C 0.11707 0.85724 0.61848 0.0
N263 N 0.04373 0.85486 0.61806 0.0
N264 N 0.13561 0.82834 0.61006 0.0
H265 H 0.95633 0.83757 0.61462 0.0
C266 C 0.2937 0.89032 0.63969 0.0
O267 O 0.25878 0.87708 0.64831 0.0
O268 O 0.88106 0.87406 0.61879 0.0
H269 H 0.13905 0.86947 0.6227 0.0
H270 H 0.95023 0.94522 0.65326 0.0
H271 H 0.22234 0.84572 0.61384 0.0
Zn272 Zn 0.49728 0.64185 0.12806 0.0
C273 C 0.63385 0.61502 0.0858 0.0
N274 N 0.57743 0.61274 0.07005 0.0
C275 C 0.52083 0.61923 0.08287 0.0
N276 N 0.54142 0.62546 0.10553 0.0
N277 N 0.61159 0.62205 0.10767 0.0
C278 C 0.80317 0.62809 0.14342 0.0
O279 O 0.77069 0.64012 0.15619 0.0
O280 O 0.38842 0.64429 0.12179 0.0
Zn281 Zn 0.65504 0.61468 0.13891 0.0
N282 N 0.55327 0.66274 0.12502 0.0
C283 C 0.67442 0.67326 0.12895 0.0
C284 C 0.62545 0.65996 0.12911 0.0
C285 C 0.52743 0.67871 0.12151 0.0
N286 N 0.64906 0.68908 0.12574 0.0
C287 C 0.57695 0.69238 0.12223 0.0
O288 O 0.6191 0.62571 0.1719 0.0
C289 C 0.55808 0.63139 0.17995 0.0
O290 O 0.50721 0.6357 0.16487 0.0
H291 H 0.64487 0.64747 0.13306 0.0
H292 H 0.46944 0.68076 0.1193 0.0
C293 C 0.66411 0.57774 0.13583 0.0
C294 C 0.63304 0.56151 0.13799 0.0
C295 C 0.52246 0.57395 0.15228 0.0
C296 C 0.55326 0.58984 0.15005 0.0
N297 N 0.62334 0.59148 0.14208 0.0
N298 N 0.56281 0.56025 0.14622 0.0
H299 H 0.71888 0.57956 0.12878 0.0
C300 C 0.35171 0.63085 0.12497 0.0
O301 O 0.38681 0.61694 0.13065 0.0
O302 O 0.7653 0.61585 0.13514 0.0
H303 H 0.52119 0.60088 0.15434 0.0
H304 H 0.73201 0.6711 0.13197 0.0
H305 H 0.46671 0.57248 0.1586 0.0
Zn306 Zn 0.88818 0.39891 0.1274 0.0
C307 C 0.0266 0.37547 0.08076 0.0
N308 N 0.96783 0.37239 0.06639 0.0
C309 C 0.91229 0.37775 0.08085 0.0
N310 N 0.93582 0.38414 0.10302 0.0
N311 N 0.00714 0.38189 0.10335 0.0
C312 C 0.19175 0.38075 0.12608 0.0
O313 O 0.15682 0.39518 0.12676 0.0
O314 O 0.77815 0.39657 0.12443 0.0
Zn315 Zn 0.04606 0.37064 0.1322 0.0
N316 N 0.91789 0.42171 0.11911 0.0
C317 C 0.01947 0.43956 0.11121 0.0
C318 C 0.99098 0.42373 0.11634 0.0
C319 C 0.87176 0.43515 0.11797 0.0
N320 N 0.97392 0.45296 0.11013 0.0
C321 C 0.90062 0.45141 0.11365 0.0
O322 O 0.03042 0.38334 0.16468 0.0
C323 C 0.97998 0.39154 0.17579 0.0
O324 O 0.92233 0.39626 0.16418 0.0
H325 H 0.027 0.41311 0.11858 0.0
H326 H 0.81397 0.43313 0.12064 0.0
C327 C 0.01185 0.33397 0.12867 0.0
C328 C 0.962 0.32045 0.13123 0.0
C329 C 0.87344 0.33951 0.14726 0.0
C330 C 0.92246 0.35269 0.14467 0.0
N331 N 0.99055 0.34979 0.13555 0.0
N332 N 0.89424 0.32381 0.14051 0.0
H333 H 0.06574 0.3321 0.12085 0.0
C334 C 0.74091 0.38662 0.13815 0.0
O335 O 0.77408 0.37787 0.15578 0.0
O336 O 0.155 0.3672 0.12785 0.0
H337 H 0.90604 0.36529 0.14952 0.0
H338 H 0.07755 0.44127 0.10869 0.0
H339 H 0.81901 0.34172 0.15443 0.0
Zn340 Zn 0.12275 0.40108 0.41344 0.0
C341 C 0.98887 0.37617 0.4599 0.0
N342 N 0.04855 0.37297 0.47372 0.0
C343 C 0.10302 0.37875 0.45912 0.0
N344 N 0.07802 0.38553 0.43741 0.0
N345 N 0.00682 0.38313 0.43754 0.0
C346 C 0.81828 0.384 0.41389 0.0
O347 O 0.85291 0.39831 0.41065 0.0
O348 O 0.23304 0.39959 0.41567 0.0
Zn349 Zn 0.96356 0.37349 0.40825 0.0
N350 N 0.09115 0.42358 0.42273 0.0
C351 C 0.98882 0.441 0.43154 0.0
C352 C 0.01805 0.42532 0.42582 0.0
C353 C 0.13652 0.43715 0.42415 0.0
N354 N 0.03363 0.45453 0.43287 0.0
C355 C 0.10691 0.45326 0.42905 0.0
O356 O 0.97674 0.3874 0.37675 0.0
C357 C 0.02834 0.39505 0.36542 0.0
O358 O 0.08804 0.39881 0.37661 0.0
H359 H 0.98262 0.41461 0.42337 0.0
H360 H 0.19433 0.43533 0.42123 0.0
C361 C 0.99321 0.33659 0.40819 0.0
C362 C 0.03742 0.32269 0.40152 0.0
C363 C 0.12297 0.34132 0.38282 0.0
C364 C 0.07951 0.35492 0.38941 0.0
N365 N 0.01518 0.35242 0.40162 0.0
N366 N 0.10088 0.3256 0.3889 0.0
H367 H 0.94199 0.33485 0.41802 0.0
C368 C 0.26701 0.38581 0.41241 0.0
O369 O 0.22986 0.37217 0.40687 0.0
O370 O 0.85507 0.37042 0.41396 0.0
H371 H 0.09729 0.36746 0.38489 0.0
H372 H 0.93072 0.44249 0.43432 0.0
H373 H 0.17403 0.34322 0.37296 0.0
Zn374 Zn 0.51515 0.64579 0.42042 0.0
C375 C 0.38331 0.61791 0.46324 0.0
N376 N 0.43686 0.6191 0.48039 0.0
C377 C 0.49176 0.62607 0.4673 0.0
N378 N 0.4728 0.62937 0.44317 0.0
N379 N 0.40535 0.62374 0.44056 0.0
C380 C 0.21081 0.63134 0.40593 0.0
O381 O 0.24407 0.64346 0.39361 0.0
O382 O 0.6243 0.64821 0.4268 0.0
Zn383 Zn 0.3584 0.61704 0.40955 0.0
N384 N 0.45966 0.6666 0.42455 0.0
C385 C 0.33813 0.67707 0.4241 0.0
C386 C 0.38698 0.66382 0.42195 0.0
C387 C 0.48611 0.68246 0.42849 0.0
N388 N 0.36396 0.69281 0.42803 0.0
C389 C 0.4366 0.69613 0.43011 0.0
O390 O 0.39474 0.62802 0.37675 0.0
C391 C 0.45422 0.63442 0.36858 0.0
O392 O 0.50384 0.63964 0.38354 0.0
H393 H 0.36717 0.65133 0.418 0.0
H394 H 0.54429 0.68431 0.43029 0.0
C395 C 0.34563 0.58 0.41147 0.0
C396 C 0.3754 0.56369 0.40849 0.0
C397 C 0.48604 0.57594 0.39389 0.0
C398 C 0.4566 0.59191 0.39695 0.0
N399 N 0.38714 0.59368 0.4055 0.0
N400 N 0.44502 0.56231 0.39972 0.0
H401 H 0.29134 0.58189 0.41893 0.0
C402 C 0.66119 0.63495 0.42235 0.0
O403 O 0.62614 0.62129 0.41538 0.0
O404 O 0.24794 0.61883 0.41371 0.0
H405 H 0.48924 0.6029 0.39284 0.0
H406 H 0.28008 0.67493 0.42232 0.0
H407 H 0.54128 0.57437 0.3871 0.0
Zn408 Zn 0.52326 0.37853 0.91673 0.0
C409 C 0.40808 0.41017 0.95983 0.0
N410 N 0.46749 0.40974 0.97464 0.0
C411 C 0.51598 0.40125 0.96065 0.0
N412 N 0.4878 0.39638 0.93832 0.0
N413 N 0.42095 0.40261 0.93738 0.0
C414 C 0.2211 0.39338 0.90322 0.0
O415 O 0.25535 0.38135 0.891 0.0
O416 O 0.63313 0.37555 0.92193 0.0
Zn417 Zn 0.36808 0.40813 0.90661 0.0
N418 N 0.46437 0.35849 0.92357 0.0
C419 C 0.34191 0.34934 0.92934 0.0
C420 C 0.3921 0.36209 0.92525 0.0
C421 C 0.4885 0.34224 0.92485 0.0
N422 N 0.36554 0.33325 0.93072 0.0
C423 C 0.43728 0.32906 0.92838 0.0
O424 O 0.40233 0.39646 0.874 0.0
C425 C 0.45907 0.38906 0.86541 0.0
O426 O 0.50888 0.3835 0.87994 0.0
H427 H 0.37321 0.37479 0.92279 0.0
H428 H 0.54596 0.33974 0.92234 0.0
C429 C 0.35303 0.44515 0.90682 0.0
C430 C 0.38048 0.46146 0.90186 0.0
C431 C 0.48786 0.44919 0.88459 0.0
C432 C 0.46075 0.43323 0.88961 0.0
N433 N 0.39394 0.43145 0.9004 0.0
N434 N 0.44736 0.46282 0.8908 0.0
H435 H 0.30114 0.44325 0.91609 0.0
C436 C 0.67039 0.38872 0.91714 0.0
O437 O 0.63552 0.40241 0.91018 0.0
O438 O 0.25751 0.40598 0.91119 0.0
H439 H 0.49315 0.42226 0.88519 0.0
H440 H 0.28434 0.35214 0.93089 0.0
H441 H 0.54094 0.45077 0.87597 0.0
Zn442 Zn 0.97709 0.65463 0.91328 0.0
C443 C 0.12504 0.6443 0.96283 0.0
N444 N 0.07758 0.65136 0.97884 0.0
C445 C 0.01515 0.65161 0.9656 0.0
N446 N 0.02471 0.64506 0.94223 0.0
N447 N 0.09346 0.64009 0.94079 0.0
C448 C 0.27892 0.6358 0.90306 0.0
O449 O 0.24239 0.64376 0.88537 0.0
O450 O 0.86615 0.65647 0.9181 0.0
Zn451 Zn 0.13356 0.62414 0.91689 0.0
N452 N 0.02697 0.67605 0.90825 0.0
C453 C 0.13934 0.6872 0.89315 0.0
C454 C 0.0924 0.67371 0.89668 0.0
C455 C 0.00662 0.69157 0.91681 0.0
N456 N 0.11952 0.7026 0.90161 0.0
C457 C 0.05462 0.70536 0.91343 0.0
O458 O 0.09628 0.6263 0.8805 0.0
C459 C 0.04088 0.63246 0.86916 0.0
O460 O 0.99535 0.64192 0.88055 0.0
H461 H 0.10886 0.66128 0.89075 0.0
H462 H 0.95539 0.693 0.92673 0.0
C463 C 0.1459 0.58797 0.92505 0.0
C464 C 0.11928 0.57208 0.93283 0.0
C465 C 0.01066 0.58534 0.94729 0.0
C466 C 0.03668 0.60085 0.93916 0.0
N467 N 0.10375 0.60193 0.92835 0.0
N468 N 0.0522 0.57142 0.94388 0.0
H469 H 0.19914 0.58939 0.91656 0.0
C470 C 0.82877 0.64452 0.90854 0.0
O471 O 0.86315 0.63205 0.89742 0.0
O472 O 0.24445 0.6263 0.9183 0.0
H473 H 1.00331 0.61194 0.94131 0.0
H474 H 0.19161 0.68543 0.88404 0.0
H475 H 0.95748 0.58432 0.95603 0.0
Zn476 Zn 0.88045 0.62278 0.63221 0.0
C477 C 0.99734 0.65086 0.58399 0.0
N478 N 0.93275 0.65363 0.57286 0.0
C479 C 0.885 0.64653 0.58874 0.0
N480 N 0.91846 0.63948 0.60877 0.0
N481 N 0.98876 0.64291 0.6064 0.0
C482 C 0.18381 0.64138 0.63447 0.0
O483 O 0.14907 0.62775 0.64171 0.0
O484 O 0.7696 0.62393 0.63192 0.0
Zn485 Zn 0.03717 0.65224 0.63536 0.0
N486 N 0.91135 0.60075 0.61997 0.0
C487 C 1.0017 0.58447 0.59884 0.0
C488 C 0.97567 0.59992 0.60724 0.0
C489 C 0.87198 0.58655 0.62483 0.0
N490 N 0.96278 0.57034 0.60371 0.0
C491 C 0.89834 0.57078 0.6165 0.0
O492 O 0.02332 0.63904 0.66781 0.0
C493 C 0.97647 0.63008 0.67947 0.0
O494 O 0.91879 0.62471 0.66856 0.0
H495 H 0.00728 0.61113 0.60387 0.0
H496 H 0.82205 0.58757 0.6356 0.0
C497 C 0.00588 0.68889 0.63172 0.0
C498 C 0.95939 0.7028 0.63607 0.0
C499 C 0.88031 0.68521 0.65987 0.0
C500 C 0.92582 0.67158 0.65542 0.0
N501 N 0.98768 0.67357 0.64157 0.0
N502 N 0.89797 0.7004 0.65009 0.0
H503 H 0.05421 0.69005 0.62011 0.0
C504 C 0.73563 0.63756 0.6365 0.0
O505 O 0.77318 0.65106 0.64247 0.0
O506 O 0.14671 0.65456 0.62964 0.0
H507 H 0.91081 0.65934 0.66249 0.0
H508 H 0.05287 0.58367 0.58871 0.0
H509 H 0.83078 0.68371 0.67076 0.0
Zn510 Zn 0.64292 0.40698 0.63508 0.0
C511 C 0.49725 0.3996 0.58058 0.0
N512 N 0.54673 0.40778 0.5666 0.0
C513 C 0.60539 0.40829 0.58175 0.0
N514 N 0.59143 0.40097 0.60428 0.0
N515 N 0.52416 0.395 0.60321 0.0
C516 C 0.34026 0.38792 0.62408 0.0
O517 O 0.37512 0.40169 0.6307 0.0
O518 O 0.75341 0.40483 0.63078 0.0
Zn519 Zn 0.48708 0.37763 0.62514 0.0
N520 N 0.61637 0.43032 0.64025 0.0
C521 C 0.51724 0.44819 0.65113 0.0
C522 C 0.54513 0.43221 0.64669 0.0
C523 C 0.66131 0.4439 0.63771 0.0
N524 N 0.56168 0.46172 0.64878 0.0
C525 C 0.63316 0.4602 0.64211 0.0
O526 O 0.50041 0.38311 0.66185 0.0
C527 C 0.54989 0.38877 0.67644 0.0
O528 O 0.60732 0.3959 0.6679 0.0
H529 H 0.51025 0.42129 0.64836 0.0
H530 H 0.71786 0.44194 0.63271 0.0
C531 C 0.5201 0.3415 0.61567 0.0
C532 C 0.5706 0.32811 0.6129 0.0
C533 C 0.66793 0.34774 0.61672 0.0
C534 C 0.61819 0.36071 0.62 0.0
N535 N 0.54547 0.35749 0.61915 0.0
N536 N 0.64309 0.33186 0.61338 0.0
H537 H 0.4619 0.33939 0.61517 0.0
C538 C 0.79025 0.39255 0.63955 0.0
O539 O 0.75657 0.38088 0.6527 0.0
O540 O 0.37746 0.37469 0.61967 0.0
H541 H 0.63749 0.3733 0.62357 0.0
H542 H 0.46067 0.44986 0.65636 0.0
H543 H 0.72595 0.35022 0.61722 0.0
H544 H 0.76265 0.10986 0.14431 0.0
H545 H 0.75719 0.16072 0.11563 0.0
H546 H 0.63022 0.10903 0.14454 0.0
H547 H 0.6236 0.1598 0.11554 0.0
H548 H 0.39126 0.15801 0.15103 0.0
H549 H 0.52334 0.15928 0.14611 0.0
H550 H 0.5236 0.10838 0.1175 0.0
H551 H 0.39142 0.10701 0.12278 0.0
C552 C 0.73321 0.12086 0.13785 0.0
C553 C 0.77081 0.13541 0.1301 0.0
C554 C 0.65698 0.12033 0.13781 0.0
C555 C 0.6159 0.13434 0.13007 0.0
C556 C 0.65344 0.14884 0.1219 0.0
C557 C 0.73003 0.14934 0.12182 0.0
C558 C 0.41936 0.14708 0.14362 0.0
C559 C 0.38061 0.13233 0.13758 0.0
C560 C 0.49521 0.14787 0.1406 0.0
C561 C 0.53445 0.13392 0.13151 0.0
C562 C 0.49541 0.11929 0.12492 0.0
C563 C 0.4195 0.11851 0.12788 0.0
H564 H 0.13201 0.85886 0.14715 0.0
H565 H 0.12934 0.90874 0.11475 0.0
H566 H 0.99987 0.85732 0.14342 0.0
H567 H 0.99677 0.90707 0.11059 0.0
H568 H 0.75795 0.90589 0.13798 0.0
H569 H 0.8903 0.9072 0.13754 0.0
H570 H 0.89947 0.85527 0.11362 0.0
H571 H 0.76607 0.85387 0.11446 0.0
C572 C 0.10329 0.86949 0.1391 0.0
C573 C 0.1414 0.884 0.13149 0.0
C574 C 0.02736 0.86854 0.13676 0.0
C575 C 0.98733 0.88206 0.12671 0.0
C576 C 0.02561 0.8965 0.11874 0.0
C577 C 0.10169 0.89745 0.12109 0.0
C578 C 0.78796 0.89473 0.1325 0.0
C579 C 0.75116 0.87972 0.12642 0.0
C580 C 0.86413 0.89554 0.13207 0.0
C581 C 0.90591 0.88135 0.12559 0.0
C582 C 0.86912 0.86639 0.11901 0.0
C583 C 0.79262 0.8656 0.11936 0.0
H584 H 0.87683 0.90937 0.42582 0.0
H585 H 0.87964 0.86117 0.38804 0.0
H586 H 0.00879 0.90766 0.43174 0.0
H587 H 0.01133 0.85957 0.39368 0.0
H588 H 0.2428 0.85558 0.42512 0.0
H589 H 0.10921 0.85658 0.42508 0.0
H590 H 0.11696 0.90923 0.40503 0.0
H591 H 0.24942 0.90829 0.40535 0.0
C592 C 0.90551 0.89842 0.41875 0.0
C593 C 0.86759 0.88551 0.40619 0.0
C594 C 0.98123 0.89745 0.4221 0.0
C595 C 0.0209 0.8835 0.4131 0.0
C596 C 0.9826 0.87041 0.4011 0.0
C597 C 0.90701 0.87141 0.39767 0.0
C598 C 0.21588 0.86739 0.42092 0.0
C599 C 0.25692 0.88181 0.41507 0.0
C600 C 0.13933 0.86795 0.42076 0.0
C601 C 0.10217 0.88298 0.41497 0.0
C602 C 0.1435 0.89748 0.40984 0.0
C603 C 0.2197 0.8969 0.40984 0.0
H604 H 0.62234 0.16012 0.39577 0.0
H605 H 0.62138 0.10917 0.42414 0.0
H606 H 0.4903 0.1615 0.40064 0.0
H607 H 0.48918 0.11064 0.42939 0.0
H608 H 0.24989 0.11228 0.40289 0.0
H609 H 0.38227 0.11132 0.4026 0.0
H610 H 0.39006 0.16223 0.43107 0.0
H611 H 0.25647 0.16328 0.43102 0.0
C612 C 0.59407 0.14922 0.40318 0.0
C613 C 0.63262 0.13446 0.40928 0.0
C614 C 0.51822 0.15007 0.40618 0.0
C615 C 0.47872 0.13617 0.41533 0.0
C616 C 0.51754 0.12152 0.42193 0.0
C617 C 0.59348 0.12068 0.41899 0.0
C618 C 0.27957 0.12329 0.40922 0.0
C619 C 0.24226 0.13791 0.41683 0.0
C620 C 0.3558 0.12268 0.40923 0.0
C621 C 0.39723 0.13668 0.4168 0.0
C622 C 0.35998 0.15126 0.42484 0.0
C623 C 0.28338 0.15184 0.42494 0.0
H624 H 0.25523 0.86924 0.92976 0.0
H625 H 0.22558 0.91978 0.90146 0.0
H626 H 0.38752 0.87223 0.92454 0.0
H627 H 0.35659 0.92274 0.89648 0.0
H628 H 0.57906 0.91437 0.86026 0.0
H629 H 0.44906 0.91074 0.86802 0.0
H630 H 0.49606 0.88833 0.94058 0.0
H631 H 0.62661 0.89183 0.93276 0.0
C632 C 0.27684 0.88101 0.92265 0.0
C633 C 0.22971 0.8942 0.91582 0.0
C634 C 0.35257 0.88274 0.91973 0.0
C635 C 0.38246 0.89766 0.90978 0.0
C636 C 0.33529 0.91098 0.90372 0.0
C637 C 0.26005 0.90929 0.90674 0.0
C638 C 0.56185 0.90866 0.87787 0.0
C639 C 0.61336 0.90345 0.8959 0.0
C640 C 0.48724 0.90665 0.88238 0.0
C641 C 0.46216 0.89933 0.90499 0.0
C642 C 0.51363 0.89391 0.92291 0.0
C643 C 0.58841 0.89601 0.91846 0.0
H644 H 0.25071 0.16675 0.93426 0.0
H645 H 0.25731 0.11789 0.89857 0.0
H646 H 0.11724 0.16542 0.935 0.0
H647 H 0.12495 0.11668 0.89894 0.0
H648 H 0.88693 0.11259 0.92164 0.0
H649 H 0.01947 0.11393 0.92593 0.0
H650 H 0.01508 0.16657 0.90574 0.0
H651 H 0.8828 0.16531 0.90189 0.0
C652 C 0.22383 0.15573 0.92662 0.0
C653 C 0.26496 0.14248 0.91624 0.0
C654 C 0.14725 0.15499 0.92693 0.0
C655 C 0.10997 0.14094 0.917 0.0
C656 C 0.15143 0.1276 0.90707 0.0
C657 C 0.22765 0.12836 0.90669 0.0
C658 C 0.91421 0.12446 0.91817 0.0
C659 C 0.87404 0.13879 0.91118 0.0
C660 C 0.99035 0.12522 0.92055 0.0
C661 C 0.02838 0.14035 0.91607 0.0
C662 C 0.98787 0.15475 0.90962 0.0
C663 C 0.91184 0.15398 0.9072 0.0
H664 H 0.76107 0.16747 0.61571 0.0
H665 H 0.75305 0.11672 0.64476 0.0
H666 H 0.89462 0.16619 0.61558 0.0
H667 H 0.88543 0.11554 0.64496 0.0
H668 H 0.12497 0.11301 0.6235 0.0
H669 H 0.99273 0.11452 0.61822 0.0
H670 H 0.99443 0.16559 0.64616 0.0
H671 H 0.12638 0.16417 0.65108 0.0
C672 C 0.78765 0.15603 0.62196 0.0
C673 C 0.74614 0.14225 0.63039 0.0
C674 C 0.86424 0.15532 0.62203 0.0
C675 C 0.90109 0.14076 0.63032 0.0
C676 C 0.85927 0.12688 0.63815 0.0
C677 C 0.78304 0.12762 0.63821 0.0
C678 C 0.09717 0.12457 0.62847 0.0
C679 C 0.13645 0.1384 0.63796 0.0
C680 C 0.02122 0.12543 0.62551 0.0
C681 C 0.98256 0.14017 0.63186 0.0
C682 C 0.02221 0.15411 0.6408 0.0
C683 C 0.09802 0.15323 0.64383 0.0
H684 H 0.38342 0.915 0.62095 0.0
H685 H 0.3856 0.86382 0.64843 0.0
H686 H 0.51538 0.91383 0.61495 0.0
H687 H 0.51745 0.86275 0.64281 0.0
H688 H 0.74975 0.8617 0.61132 0.0
H689 H 0.61616 0.86254 0.61165 0.0
H690 H 0.62309 0.91312 0.64146 0.0
H691 H 0.75549 0.91237 0.6408 0.0
C692 C 0.41198 0.90351 0.62575 0.0
C693 C 0.37384 0.88957 0.63544 0.0
C694 C 0.48774 0.90284 0.62237 0.0
C695 C 0.52733 0.88822 0.62851 0.0
C696 C 0.48883 0.87416 0.63762 0.0
C697 C 0.41314 0.87483 0.64105 0.0
C698 C 0.72264 0.87303 0.61774 0.0
C699 C 0.76347 0.88692 0.62617 0.0
C700 C 0.64607 0.87349 0.61807 0.0
C701 C 0.60866 0.88789 0.62664 0.0
C702 C 0.64977 0.90189 0.63444 0.0
C703 C 0.72598 0.9014 0.63424 0.0
H704 H 0.88658 0.60639 0.11533 0.0
H705 H 0.90009 0.6519 0.1598 0.0
H706 H 0.01772 0.60766 0.10769 0.0
H707 H 0.03126 0.65299 0.15254 0.0
H708 H 0.25885 0.65774 0.11887 0.0
H709 H 0.12548 0.6575 0.12076 0.0
H710 H 0.12875 0.60363 0.1315 0.0
H711 H 0.26107 0.60382 0.12916 0.0
C712 C 0.9175 0.61664 0.12355 0.0
C713 C 0.88281 0.62894 0.1384 0.0
C714 C 0.99279 0.61735 0.1192 0.0
C715 C 0.0353 0.6304 0.12957 0.0
C716 C 1.00025 0.64288 0.144 0.0
C717 C 0.925 0.64216 0.14835 0.0
C718 C 0.23097 0.64584 0.12137 0.0
C719 C 0.27076 0.63082 0.12403 0.0
C720 C 0.15455 0.64571 0.12262 0.0
C721 C 0.11622 0.63055 0.12642 0.0
C722 C 0.15616 0.61551 0.12828 0.0
C723 C 0.23231 0.61564 0.1271 0.0
H724 H 0.28472 0.35386 0.13145 0.0
H725 H 0.28184 0.40742 0.11756 0.0
H726 H 0.41813 0.35441 0.13207 0.0
H727 H 0.41437 0.40801 0.11861 0.0
H728 H 0.65567 0.4018 0.10218 0.0
H729 H 0.524 0.39926 0.09655 0.0
H730 H 0.51374 0.36504 0.1599 0.0
H731 H 0.64532 0.36734 0.16526 0.0
C732 C 0.31248 0.36571 0.12838 0.0
C733 C 0.27256 0.38061 0.12466 0.0
C734 C 0.38891 0.36606 0.12889 0.0
C735 C 0.42709 0.38127 0.12553 0.0
C736 C 0.38698 0.39604 0.12102 0.0
C737 C 0.31079 0.39571 0.12062 0.0
C738 C 0.62536 0.3937 0.11488 0.0
C739 C 0.66106 0.38488 0.13431 0.0
C740 C 0.5498 0.39228 0.11169 0.0
C741 C 0.50811 0.38198 0.12782 0.0
C742 C 0.54413 0.37292 0.14693 0.0
C743 C 0.61963 0.37435 0.15013 0.0
H744 H 0.72797 0.35725 0.42423 0.0
H745 H 0.72595 0.41061 0.40876 0.0
H746 H 0.59481 0.35734 0.4265 0.0
H747 H 0.59373 0.41062 0.41012 0.0
H748 H 0.35772 0.40935 0.43328 0.0
H749 H 0.49027 0.40837 0.43651 0.0
H750 H 0.49078 0.35975 0.39982 0.0
H751 H 0.35817 0.3605 0.39747 0.0
C752 C 0.69916 0.36898 0.42129 0.0
C753 C 0.73765 0.3839 0.41623 0.0
C754 C 0.62276 0.36903 0.42244 0.0
C755 C 0.58313 0.38399 0.41844 0.0
C756 C 0.62205 0.39891 0.41373 0.0
C757 C 0.69817 0.39888 0.41276 0.0
C758 C 0.38619 0.39844 0.42595 0.0
C759 C 0.34746 0.38508 0.4149 0.0
C760 C 0.4623 0.39789 0.42772 0.0
C761 C 0.50167 0.38403 0.41824 0.0
C762 C 0.46255 0.37053 0.40763 0.0
C763 C 0.38639 0.37101 0.40609 0.0
H764 H 0.11553 0.65578 0.39053 0.0
H765 H 0.12539 0.60939 0.43291 0.0
H766 H 0.9842 0.65708 0.39735 0.0
H767 H 0.99401 0.61085 0.4401 0.0
H768 H 0.75132 0.60791 0.4173 0.0
H769 H 0.88371 0.60752 0.41562 0.0
H770 H 0.88834 0.66116 0.42871 0.0
H771 H 0.75483 0.66159 0.42997 0.0
C772 C 0.0898 0.6459 0.40144 0.0
C773 C 0.13106 0.63237 0.41089 0.0
C774 C 0.01441 0.64673 0.40554 0.0
C775 C 0.97818 0.63405 0.41921 0.0
C776 C 0.01979 0.6207 0.42915 0.0
C777 C 0.09524 0.61988 0.42507 0.0
C778 C 0.78037 0.61964 0.42 0.0
C779 C 0.74222 0.63481 0.42358 0.0
C780 C 0.85658 0.61939 0.41921 0.0
C781 C 0.89703 0.63431 0.42194 0.0
C782 C 0.85897 0.64946 0.42619 0.0
C783 C 0.78243 0.6497 0.42708 0.0
H784 H 0.13328 0.41518 0.92961 0.0
H785 H 0.12767 0.36858 0.8876 0.0
H786 H 1.00165 0.41339 0.93607 0.0
H787 H 0.99608 0.36695 0.89367 0.0
H788 H 0.76454 0.36214 0.92493 0.0
H789 H 0.89819 0.36276 0.92422 0.0
H790 H 0.89258 0.41639 0.91107 0.0
H791 H 0.76026 0.4158 0.91219 0.0
C792 C 0.10403 0.40457 0.92171 0.0
C793 C 0.14116 0.39213 0.90785 0.0
C794 C 0.02841 0.40355 0.92536 0.0
C795 C 0.98784 0.39006 0.91529 0.0
C796 C 0.02538 0.37742 0.90195 0.0
C797 C 0.10096 0.37844 0.89829 0.0
C798 C 0.79198 0.37406 0.92211 0.0
C799 C 0.75149 0.38889 0.91845 0.0
C800 C 0.8686 0.37442 0.92155 0.0
C801 C 0.90648 0.38963 0.91751 0.0
C802 C 0.86568 0.40447 0.91454 0.0
C803 C 0.78945 0.4041 0.91499 0.0
H804 H 0.36781 0.62879 0.94359 0.0
H805 H 0.37164 0.64794 0.86717 0.0
H806 H 0.50068 0.63235 0.94624 0.0
H807 H 0.50383 0.65114 0.86974 0.0
H808 H 0.73956 0.62971 0.87443 0.0
H809 H 0.60683 0.62854 0.87433 0.0
H810 H 0.6009 0.6575 0.94332 0.0
H811 H 0.73525 0.65899 0.94319 0.0
C812 C 0.39691 0.63375 0.92739 0.0
C813 C 0.35919 0.63798 0.90509 0.0
C814 C 0.47279 0.6359 0.929 0.0
C815 C 0.5125 0.642 0.90819 0.0
C816 C 0.47465 0.64635 0.88603 0.0
C817 C 0.39891 0.64451 0.88458 0.0
C818 C 0.71016 0.6359 0.88957 0.0
C819 C 0.74787 0.64451 0.90877 0.0
C820 C 0.63408 0.63527 0.88944 0.0
C821 C 0.59354 0.64295 0.90877 0.0
C822 C 0.63094 0.65145 0.92821 0.0
C823 C 0.70757 0.6524 0.92805 0.0
H824 H 0.64251 0.61335 0.61867 0.0
H825 H 0.64617 0.66386 0.64883 0.0
H826 H 0.50996 0.61471 0.61553 0.0
H827 H 0.51354 0.66507 0.64629 0.0
H828 H 0.2762 0.66698 0.61998 0.0
H829 H 0.40961 0.66629 0.61819 0.0
H830 H 0.40688 0.61455 0.64324 0.0
H831 H 0.27467 0.61512 0.64444 0.0
C832 C 0.61503 0.62472 0.62476 0.0
C833 C 0.65499 0.63842 0.63427 0.0
C834 C 0.53892 0.62549 0.62302 0.0
C835 C 0.50073 0.63997 0.63081 0.0
C836 C 0.54096 0.65379 0.63985 0.0
C837 C 0.61711 0.65304 0.6415 0.0
C838 C 0.30421 0.65545 0.62495 0.0
C839 C 0.26462 0.64114 0.63242 0.0
C840 C 0.38071 0.65507 0.62406 0.0
C841 C 0.41927 0.64035 0.63058 0.0
C842 C 0.37932 0.62602 0.6377 0.0
C843 C 0.3032 0.6264 0.63857 0.0
H844 H 0.24627 0.36112 0.61811 0.0
H845 H 0.25039 0.4151 0.62745 0.0
H846 H 0.11267 0.36168 0.61924 0.0
H847 H 0.11804 0.41563 0.62898 0.0
H848 H 0.8767 0.4136 0.61134 0.0
H849 H 0.00815 0.41176 0.60449 0.0
H850 H 0.01613 0.36675 0.65014 0.0
H851 H 0.88472 0.36843 0.65664 0.0
C852 C 0.21878 0.3731 0.62024 0.0
C853 C 0.25919 0.38803 0.62286 0.0
C854 C 0.14221 0.37342 0.62105 0.0
C855 C 0.10432 0.38871 0.6243 0.0
C856 C 0.145 0.40365 0.62617 0.0
C857 C 0.22121 0.40332 0.62548 0.0
C858 C 0.90645 0.40329 0.61989 0.0
C859 C 0.87007 0.39127 0.63477 0.0
C860 C 0.98194 0.40225 0.616 0.0
C861 C 0.02309 0.38914 0.62685 0.0
C862 C 0.98631 0.37691 0.64125 0.0
C863 C 0.91086 0.37796 0.64515 0.0
H864 H 0.22351 0.14168 0.09266 0.0
H865 H 0.193 0.0936 0.05659 0.0
H866 H 0.31077 0.14965 0.0607 0.0
H867 H 0.28523 0.10088 0.02528 0.0
H868 H 0.38044 0.12163 0.9563 0.0
H869 H 0.28973 0.11747 0.98936 0.0
H870 H 0.41864 0.14833 0.0399 0.0
H871 H 0.50417 0.15367 1.00601 0.0
C872 C 0.23898 0.13237 0.07878 0.0
C873 C 0.20156 0.11701 0.07713 0.0
C874 C 0.28855 0.13704 0.06005 0.0
C875 C 0.30319 0.1262 0.03962 0.0
C876 C 0.27275 0.10992 0.03997 0.0
C877 C 0.22174 0.10545 0.0584 0.0
C878 C 0.38603 0.12852 0.97386 0.0
C879 C 0.44825 0.13823 0.9785 0.0
C880 C 0.3358 0.12558 0.99326 0.0
C881 C 0.34834 0.13192 1.0178 0.0
C882 C 0.40672 0.14313 1.02145 0.0
C883 C 0.45553 0.14641 1.00187 0.0
H884 H 0.24281 0.86689 0.07971 0.0
H885 H 0.35399 0.91292 0.06063 0.0
H886 H 0.14814 0.87325 0.04867 0.0
H887 H 0.26228 0.91901 0.02868 0.0
H888 H 0.05501 0.92838 0.98215 0.0
H889 H 0.1422 0.92543 1.01647 0.0
H890 H 0.14936 0.87172 1.00339 0.0
H891 H 0.05839 0.87476 0.96987 0.0
C892 C 0.24486 0.87876 0.06964 0.0
C893 C 0.30449 0.88957 0.07261 0.0
C894 C 0.19206 0.88219 0.05138 0.0
C895 C 0.19924 0.89631 0.03552 0.0
C896 C 0.25509 0.90799 0.04045 0.0
C897 C 0.30715 0.90466 0.05899 0.0
C898 C 0.07731 0.91603 0.98614 0.0
C899 C 0.05148 0.90182 0.9732 0.0
C900 C 0.12675 0.91431 1.00592 0.0
C901 C 0.15153 0.8983 1.01308 0.0
C902 C 0.12966 0.88419 0.9988 0.0
C903 C 0.0794 0.88592 0.9791 0.0
H904 H 0.67776 0.92348 0.48256 0.0
H905 H 0.72358 0.87349 0.45534 0.0
H906 H 0.77721 0.92113 0.5129 0.0
H907 H 0.81968 0.87048 0.48662 0.0
H908 H 0.01753 0.87558 0.53959 0.0
H909 H 0.93039 0.8768 0.50511 0.0
H910 H 0.78717 0.90711 0.5516 0.0
H911 H 0.87834 0.90703 0.58514 0.0
C912 C 0.71151 0.91228 0.48238 0.0
C913 C 0.69394 0.89873 0.46665 0.0
C914 C 0.76688 0.91067 0.50027 0.0
C915 C 0.80417 0.8953 0.50308 0.0
C916 C 0.79187 0.88246 0.48525 0.0
C917 C 0.73752 0.88425 0.46699 0.0
C918 C 0.9659 0.88191 0.5427 0.0
C919 C 0.95362 0.89093 0.56511 0.0
C920 C 0.9162 0.88277 0.52283 0.0
C921 C 0.8526 0.89249 0.5252 0.0
C922 C 0.83691 0.90002 0.54875 0.0
C923 C 0.88767 0.89947 0.56841 0.0
H924 H 0.82001 0.09595 0.4894 0.0
H925 H 0.78727 0.14449 0.45503 0.0
H926 H 0.72605 0.10233 0.52054 0.0
H927 H 0.6981 0.15156 0.4869 0.0
H928 H 0.50387 0.15419 0.54136 0.0
H929 H 0.58972 0.14947 0.50733 0.0
H930 H 0.71991 0.11833 0.55704 0.0
H931 H 0.62888 0.12183 0.59017 0.0
C932 C 0.79038 0.10771 0.48791 0.0
C933 C 0.81034 0.11966 0.46973 0.0
C934 C 0.73835 0.11165 0.50625 0.0
C935 C 0.70672 0.1278 0.50709 0.0
C936 C 0.72122 0.13903 0.48715 0.0
C937 C 0.77185 0.13489 0.46847 0.0
C938 C 0.55277 0.14698 0.54528 0.0
C939 C 0.56053 0.13858 0.56845 0.0
C940 C 0.60179 0.14407 0.52563 0.0
C941 C 0.66079 0.133 0.529 0.0
C942 C 0.67346 0.12636 0.55335 0.0
C943 C 0.62303 0.12892 0.5728 0.0
H944 H 0.79276 0.92621 0.98917 0.0
H945 H 0.78724 0.87832 0.95094 0.0
H946 H 0.70186 0.91614 1.01917 0.0
H947 H 0.70243 0.86764 0.98184 0.0
H948 H 0.50818 0.85682 0.03307 0.0
H949 H 0.59316 0.86565 1.00074 0.0
H950 H 0.69551 0.89944 0.05432 0.0
H951 H 0.60395 0.89195 0.08551 0.0
C952 C 0.77049 0.91367 0.98681 0.0
C953 C 0.79686 0.90308 0.96769 0.0
C954 C 0.72003 0.90767 1.00444 0.0
C955 C 0.69655 0.89078 1.00375 0.0
C956 C 0.71868 0.88069 0.98326 0.0
C957 C 0.76733 0.88687 0.96524 0.0
C958 C 0.55055 0.86571 0.03814 0.0
C959 C 0.5501 0.8735 0.06197 0.0
C960 C 0.59936 0.87091 1.01949 0.0
C961 C 0.65051 0.88369 0.02448 0.0
C962 C 0.65523 0.89006 0.04932 0.0
C963 C 0.60467 0.88523 0.06773 0.0
H964 H 0.72544 0.14832 0.95904 0.0
H965 H 0.68209 0.09799 0.98523 0.0
H966 H 0.81885 0.15164 0.99103 0.0
H967 H 0.77919 0.10069 1.01643 0.0
H968 H 0.88059 0.11434 0.0888 0.0
H969 H 0.78906 0.11427 0.05538 0.0
H970 H 0.92911 0.14589 1.00972 0.0
H971 H 0.01649 0.14704 0.0441 0.0
C972 C 0.7393 0.13756 0.97062 0.0
C973 C 0.69716 0.12285 0.96961 0.0
C974 C 0.79222 0.13954 0.98934 0.0
C975 C 0.80477 0.12667 1.00708 0.0
C976 C 0.76872 0.11116 1.00387 0.0
C977 C 0.71474 0.10936 0.98547 0.0
C978 C 0.88907 0.12218 0.07231 0.0
C979 C 0.95435 0.13104 0.0692 0.0
C980 C 0.8381 0.12165 0.05269 0.0
C981 C 0.85285 0.12954 0.02935 0.0
C982 C 0.91552 0.13963 0.02727 0.0
C983 C 0.96539 0.14047 0.04711 0.0
H984 H 0.99604 0.15048 0.50338 0.0
H985 H 0.13069 0.11763 0.45846 0.0
H986 H 0.08254 0.14875 0.53798 0.0
H987 H 0.22135 0.11697 0.49212 0.0
H988 H 0.32341 0.09913 0.56196 0.0
H989 H 0.22709 0.10278 0.53073 0.0
H990 H 0.19307 0.15367 0.55739 0.0
H991 H 0.28577 0.14941 0.58951 0.0
C992 C 0.04679 0.14377 0.50037 0.0
C993 C 0.05757 0.13442 0.47817 0.0
C994 C 0.0961 0.14259 0.52035 0.0
C995 C 0.15791 0.13224 0.51827 0.0
C996 C 0.17283 0.12453 0.49479 0.0
C997 C 0.12242 0.1254 0.47504 0.0
C998 C 0.29207 0.11069 0.562 0.0
C999 C 0.31121 0.12392 0.57815 0.0
C1000 C 0.23861 0.11304 0.54359 0.0
C1001 C 0.2047 0.12882 0.54067 0.0
C1002 C 0.21828 0.1414 0.55882 0.0
C1003 C 0.27066 0.13888 0.57759 0.0
H1004 H 0.37961 0.90111 0.45559 0.0
H1005 H 0.49747 0.86649 0.50301 0.0
H1006 H 0.29022 0.90529 0.489 0.0
H1007 H 0.41361 0.87186 0.53741 0.0
H1008 H 0.21821 0.87893 0.59029 0.0
H1009 H 0.30557 0.8711 0.55827 0.0
H1010 H 0.28954 0.92097 0.52586 0.0
H1011 H 0.1971 0.92818 0.55713 0.0
C1012 C 0.38396 0.89366 0.47265 0.0
C1013 C 0.44424 0.88319 0.47656 0.0
C1014 C 0.33468 0.89661 0.49232 0.0
C1015 C 0.34637 0.88954 0.51644 0.0
C1016 C 0.40249 0.87764 0.51931 0.0
C1017 C 0.45026 0.87435 0.49942 0.0
C1018 C 0.23596 0.88848 0.57711 0.0
C1019 C 0.20087 0.90415 0.57616 0.0
C1020 C 0.28553 0.8839 0.55834 0.0
C1021 C 0.3025 0.89513 0.53863 0.0
C1022 C 0.27502 0.91166 0.53993 0.0
C1023 C 0.22397 0.91606 0.55837 0.0
H1024 H 0.70913 0.59616 0.0518 0.0
H1025 H 0.71456 0.64324 0.09219 0.0
H1026 H 0.79766 0.60705 1.02161 0.0
H1027 H 0.79675 0.65479 0.06116 0.0
H1028 H 0.98517 0.66791 1.00903 0.0
H1029 H 0.90272 0.65802 0.04128 0.0
H1030 H 0.80373 0.62413 0.98709 0.0
H1031 H 0.89291 0.63281 0.95568 0.0
C1032 C 0.73104 0.60869 0.0546 0.0
C1033 C 0.70536 0.61879 0.07443 0.0
C1034 C 0.78006 0.61519 0.03685 0.0
C1035 C 0.80275 0.63213 0.03809 0.0
C1036 C 0.78134 0.64172 0.05925 0.0
C1037 C 0.73426 0.63502 0.07739 0.0
C1038 C 0.9443 0.65868 1.00381 0.0
C1039 C 0.94589 0.65111 0.97982 0.0
C1040 C 0.89676 0.6529 0.02246 0.0
C1041 C 0.84739 0.63977 1.01733 0.0
C1042 C 0.843 0.63369 0.99227 0.0
C1043 C 0.89244 0.63913 0.97381 0.0
H1044 H 0.53334 0.37063 0.98161 0.0
H1045 H 0.64099 0.41804 0.96873 0.0
H1046 H 0.62071 0.364 1.01505 0.0
H1047 H 0.73067 0.41128 1.00128 0.0
H1048 H 0.82815 0.40594 0.0774 0.0
H1049 H 0.73023 0.41012 0.04662 0.0
H1050 H 0.74314 0.35756 0.02585 0.0
H1051 H 0.83784 0.3534 0.05739 0.0
C1052 C 0.57813 0.37922 0.98516 0.0
C1053 C 0.58187 0.39466 0.97246 0.0
C1054 C 0.62756 0.37557 1.0045 0.0
C1055 C 0.68152 0.38733 1.01133 0.0
C1056 C 0.68832 0.4022 0.9971 0.0
C1057 C 0.63836 0.4059 0.97802 0.0
C1058 C 0.80708 0.39518 0.06717 0.0
C1059 C 0.83927 0.37932 0.06993 0.0
C1060 C 0.7525 0.39761 0.04906 0.0
C1061 C 0.73033 0.38425 0.03325 0.0
C1062 C 0.7587 0.36811 0.03763 0.0
C1063 C 0.81265 0.3657 0.0558 0.0
H1064 H 0.18439 0.40721 0.46472 0.0
H1065 H 0.18116 0.35389 0.47958 0.0
H1066 H 0.28191 0.41071 0.49588 0.0
H1067 H 0.27548 0.3573 0.51143 0.0
H1068 H 0.4829 0.36979 0.55714 0.0
H1069 H 0.39659 0.36406 0.52306 0.0
H1070 H 0.28104 0.40994 0.54128 0.0
H1071 H 0.36985 0.41587 0.57451 0.0
C1072 C 0.20683 0.39618 0.47389 0.0
C1073 C 0.17646 0.38027 0.46965 0.0
C1074 C 0.26118 0.39819 0.4922 0.0
C1075 C 0.28489 0.38434 0.50671 0.0
C1076 C 0.25864 0.36823 0.50071 0.0
C1077 C 0.20496 0.36624 0.48233 0.0
C1078 C 0.43708 0.37821 0.55443 0.0
C1079 C 0.43157 0.39305 0.5686 0.0
C1080 C 0.38826 0.3751 0.53471 0.0
C1081 C 0.33305 0.38679 0.52898 0.0
C1082 C 0.32438 0.40096 0.54464 0.0
C1083 C 0.37379 0.40415 0.56411 0.0
H1084 H 0.11547 0.63001 0.59062 0.0
H1085 H 0.02094 0.6658 0.53884 0.0
H1086 H 0.20105 0.62124 0.55821 0.0
H1087 H 0.09854 0.6556 0.50549 0.0
H1088 H 0.29252 0.64391 0.45526 0.0
H1089 H 0.20311 0.65341 0.48525 0.0
H1090 H 0.21386 0.6052 0.52331 0.0
H1091 H 0.30981 0.59652 0.49423 0.0
C1092 C 0.11427 0.63635 0.57255 0.0
C1093 C 0.062 0.64878 0.56752 0.0
C1094 C 0.1616 0.63085 0.55348 0.0
C1095 C 0.15598 0.63722 0.52862 0.0
C1096 C 0.10599 0.65033 0.52415 0.0
C1097 C 0.06095 0.65625 0.54344 0.0
C1098 C 0.27351 0.63507 0.46935 0.0
C1099 C 0.30796 0.61946 0.47236 0.0
C1100 C 0.22219 0.6406 0.48696 0.0
C1101 C 0.2022 0.63038 0.50762 0.0
C1102 C 0.23007 0.61384 0.50855 0.0
C1103 C 0.2834 0.60856 0.49136 0.0
H1104 H 0.11238 0.35664 0.0499 0.0
H1105 H 0.08492 0.40662 0.07994 0.0
H1106 H 0.19853 0.36748 1.01872 0.0
H1107 H 0.16606 0.41779 0.04807 0.0
H1108 H 0.36687 0.42964 0.99921 0.0
H1109 H 0.27927 0.42126 0.03114 0.0
H1110 H 0.19911 0.38225 0.98126 0.0
H1111 H 0.29246 0.38948 0.95087 0.0
C1112 C 0.1265 0.36988 0.05023 0.0
C1113 C 0.09357 0.38072 0.0677 0.0
C1114 C 0.17423 0.37623 0.03195 0.0
C1115 C 0.18803 0.39367 0.03026 0.0
C1116 C 0.15769 0.40432 0.04871 0.0
C1117 C 0.11153 0.39788 0.0673 0.0
C1118 C 0.32858 0.41969 0.99473 0.0
C1119 C 0.33617 0.41039 0.9723 0.0
C1120 C 0.27843 0.41475 1.01318 0.0
C1121 C 0.23328 0.40065 1.00927 0.0
C1122 C 0.23483 0.39273 0.98546 0.0
C1123 C 0.28654 0.39735 0.96738 0.0
H1124 H 0.14541 0.61364 0.98262 0.0
H1125 H 0.25291 0.66079 0.96764 0.0
H1126 H 0.2361 0.60696 1.01462 0.0
H1127 H 0.34694 0.65386 0.99868 0.0
H1128 H 0.44717 0.64866 0.07546 0.0
H1129 H 0.35318 0.65331 0.04337 0.0
H1130 H 0.3548 0.60012 0.02585 0.0
H1131 H 0.44432 0.59556 0.05893 0.0
C1132 C 0.19114 0.62211 0.98524 0.0
C1133 C 0.19341 0.63755 0.97253 0.0
C1134 C 0.24272 0.61842 1.00381 0.0
C1135 C 0.29793 0.63009 1.00976 0.0
C1136 C 0.30376 0.64486 0.99521 0.0
C1137 C 0.2513 0.64865 0.97695 0.0
C1138 C 0.42427 0.63794 0.06559 0.0
C1139 C 0.45104 0.62172 0.07002 0.0
C1140 C 0.37217 0.64061 0.04669 0.0
C1141 C 0.3475 0.62713 0.03156 0.0
C1142 C 0.37187 0.61079 0.03711 0.0
C1143 C 0.42289 0.60814 0.05618 0.0
H1144 H 0.78849 0.6703 0.57639 0.0
H1145 H 0.81894 0.61657 0.5792 0.0
H1146 H 0.69277 0.66688 0.54508 0.0
H1147 H 0.7205 0.61289 0.54844 0.0
H1148 H 0.62755 0.61284 0.46957 0.0
H1149 H 0.715 0.61788 0.50366 0.0
H1150 H 0.57658 0.65751 0.53269 0.0
H1151 H 0.49198 0.65291 0.49786 0.0
C1152 C 0.77161 0.65767 0.57125 0.0
C1153 C 0.81019 0.64369 0.58025 0.0
C1154 C 0.71725 0.6557 0.5531 0.0
C1155 C 0.7004 0.63964 0.54366 0.0
C1156 C 0.73386 0.62548 0.55475 0.0
C1157 C 0.78876 0.6275 0.57286 0.0
C1158 C 0.61818 0.62317 0.48256 0.0
C1159 C 0.55466 0.63285 0.4808 0.0
C1160 C 0.66688 0.62574 0.50252 0.0
C1161 C 0.65185 0.63782 0.52132 0.0
C1162 C 0.59013 0.64815 0.51857 0.0
C1163 C 0.54212 0.64569 0.49846 0.0
H1164 H 0.72093 0.38761 0.59079 0.0
H1165 H 0.64777 0.42837 0.54342 0.0
H1166 H 0.81573 0.3809 0.56052 0.0
H1167 H 0.73585 0.42048 0.51155 0.0
H1168 H 0.92591 0.4068 0.4613 0.0
H1169 H 0.84606 0.41731 0.49389 0.0
H1170 H 0.82172 0.36671 0.52311 0.0
H1171 H 0.9078 0.35661 0.49137 0.0
C1172 C 0.72744 0.3957 0.57451 0.0
C1173 C 0.67786 0.40877 0.56978 0.0
C1174 C 0.7799 0.39138 0.55647 0.0
C1175 C 0.78204 0.39963 0.53289 0.0
C1176 C 0.73668 0.41373 0.5293 0.0
C1177 C 0.68608 0.41839 0.54772 0.0
C1178 C 0.90154 0.39784 0.47413 0.0
C1179 C 0.922 0.38084 0.47353 0.0
C1180 C 0.85591 0.4039 0.49314 0.0
C1181 C 0.82792 0.39301 0.51174 0.0
C1182 C 0.84414 0.37569 0.50984 0.0
C1183 C 0.89178 0.36974 0.49121 0.0
H1184 H 0.28545 0.05693 0.14123 0.0
H1185 H 0.07652 0.03243 0.13185 0.0
H1186 H 0.34643 0.02999 0.13482 0.0
H1187 H 0.13757 1.00566 0.12563 0.0
H1188 H 0.26776 0.95832 0.14664 0.0
H1189 H 0.20707 0.98537 0.15067 0.0
H1190 H 0.36978 1.0082 0.10269 0.0
H1191 H 0.43053 0.98116 0.09834 0.0
C1192 C 0.25237 0.04596 0.13738 0.0
C1193 C 0.17572 0.047 0.137 0.0
C1194 C 0.28747 0.03045 0.1338 0.0
C1195 C 0.24686 0.01562 0.12989 0.0
C1196 C 0.17052 0.01675 0.12906 0.0
C1197 C 0.13555 0.03218 0.13254 0.0
C1198 C 0.29016 0.96893 0.13647 0.0
C1199 C 0.35403 0.96733 0.12187 0.0
C1200 C 0.25533 0.98454 0.13892 0.0
C1201 C 0.28355 0.99898 0.12701 0.0
C1202 C 0.34707 0.9974 0.11239 0.0
C1203 C 0.3817 0.98181 0.10983 0.0
H1204 H 0.93484 0.0355 0.42133 0.0
H1205 H 0.73484 0.059 0.39635 0.0
H1206 H 0.87283 1.00852 0.42394 0.0
H1207 H 0.67295 0.03191 0.39882 0.0
H1208 H 0.56775 0.98349 0.42617 0.0
H1209 H 0.63011 1.01047 0.42774 0.0
H1210 H 0.82272 0.98757 0.39567 0.0
H1211 H 0.76054 0.96049 0.39422 0.0
C1212 C 0.87749 0.03495 0.41647 0.0
C1213 C 0.83994 0.04951 0.40873 0.0
C1214 C 0.84205 0.01942 0.41786 0.0
C1215 C 0.76801 0.01798 0.41145 0.0
C1216 C 0.72983 0.03259 0.40423 0.0
C1217 C 0.76534 0.04818 0.40288 0.0
C1218 C 0.6236 0.98414 0.41956 0.0
C1219 C 0.65905 0.96972 0.41019 0.0
C1220 C 0.65922 0.99967 0.42035 0.0
C1221 C 0.73131 1.00125 0.41172 0.0
C1222 C 0.76747 0.98677 0.40282 0.0
C1223 C 0.7318 0.97118 0.40205 0.0
H1224 H 0.92664 0.98654 0.91739 0.0
H1225 H 0.72269 0.96456 0.89322 0.0
H1226 H 0.86768 0.01378 0.9218 0.0
H1227 H 0.66378 0.99196 0.89719 0.0
H1228 H 0.56501 0.04092 0.92438 0.0
H1229 H 0.62392 0.01352 0.92588 0.0
H1230 H 0.82031 0.03532 0.89478 0.0
H1231 H 0.76172 0.06281 0.89362 0.0
C1232 C 0.86901 0.98751 0.91312 0.0
C1233 C 0.82943 0.97334 0.90497 0.0
C1234 C 0.83531 1.00317 0.91551 0.0
C1235 C 0.76113 1.00515 0.90962 0.0
C1236 C 0.72085 0.99087 0.90219 0.0
C1237 C 0.75458 0.97512 0.89994 0.0
C1238 C 0.62103 0.03991 0.91803 0.0
C1239 C 0.65865 0.05413 0.90899 0.0
C1240 C 0.65465 0.02415 0.91877 0.0
C1241 C 0.72675 0.02214 0.91033 0.0
C1242 C 0.76505 0.03643 0.90181 0.0
C1243 C 0.73147 0.05225 0.90119 0.0
H1244 H 0.26248 0.96455 0.62602 0.0
H1245 H 0.07732 0.98826 0.66231 0.0
H1246 H 0.32464 0.99158 0.62488 0.0
H1247 H 0.13946 0.01516 0.66063 0.0
H1248 H 0.24398 0.06333 0.62874 0.0
H1249 H 0.18172 0.0363 0.62896 0.0
H1250 H 0.37792 0.01209 0.65544 0.0
H1251 H 0.44036 0.03896 0.65575 0.0
C1252 C 0.23502 0.97533 0.63405 0.0
C1253 C 0.16463 0.97396 0.64456 0.0
C1254 C 0.27077 0.99091 0.63323 0.0
C1255 C 0.23686 1.00552 0.64261 0.0
C1256 C 0.16667 1.0042 0.65293 0.0
C1257 C 0.13122 0.98867 0.65396 0.0
C1258 C 0.27402 0.0524 0.63501 0.0
C1259 C 0.34758 0.0536 0.64252 0.0
C1260 C 0.23814 0.03682 0.63498 0.0
C1261 C 0.27496 0.02205 0.64216 0.0
C1262 C 0.34828 0.02319 0.64946 0.0
C1263 C 0.38394 0.03871 0.64971 0.0
H1264 H 0.93195 0.48137 0.09117 0.0
H1265 H 0.76858 0.45729 0.13781 0.0
H1266 H 0.86758 0.508 0.09519 0.0
H1267 H 0.70423 0.48393 0.14153 0.0
H1268 H 0.5737 0.53137 0.12484 0.0
H1269 H 0.63502 0.50479 0.11699 0.0
H1270 H 0.84347 0.52877 0.12892 0.0
H1271 H 0.78244 0.55545 0.13703 0.0
C1272 C 0.882 0.48166 0.10211 0.0
C1273 C 0.85556 0.46702 0.11401 0.0
C1274 C 0.84534 0.49699 0.10449 0.0
C1275 C 0.78103 0.49812 0.11878 0.0
C1276 C 0.75324 0.48344 0.13012 0.0
C1277 C 0.79011 0.46808 0.12784 0.0
C1278 C 0.6327 0.53108 0.12577 0.0
C1279 C 0.6728 0.54572 0.13151 0.0
C1280 C 0.66778 0.51577 0.12132 0.0
C1281 C 0.74406 0.51463 0.1224 0.0
C1282 C 0.78456 0.52928 0.12761 0.0
C1283 C 0.7494 0.54464 0.13218 0.0
H1284 H 0.23854 0.45974 0.40494 0.0
H1285 H 0.07434 0.48296 0.45222 0.0
H1286 H 0.30242 0.48646 0.4022 0.0
H1287 H 0.13834 0.50971 0.44918 0.0
H1288 H 0.22573 0.55796 0.40963 0.0
H1289 H 0.16371 0.53124 0.41671 0.0
H1290 H 0.37144 0.50673 0.4276 0.0
H1291 H 0.43359 0.53331 0.42072 0.0
C1292 C 0.21668 0.47035 0.41526 0.0
C1293 C 0.15123 0.46901 0.42903 0.0
C1294 C 0.25331 0.48577 0.41354 0.0
C1295 C 0.22534 0.50026 0.42539 0.0
C1296 C 0.16081 0.49887 0.43952 0.0
C1297 C 0.12435 0.48346 0.44134 0.0
C1298 C 0.25834 0.547 0.41403 0.0
C1299 C 0.33499 0.54793 0.41463 0.0
C1300 C 0.22264 0.53162 0.41801 0.0
C1301 C 0.26267 0.51681 0.42256 0.0
C1302 C 0.33899 0.51782 0.42371 0.0
C1303 C 0.37457 0.53313 0.41983 0.0
H1304 H 0.23162 0.4666 0.9095 0.0
H1305 H 0.43904 0.4926 0.90844 0.0
H1306 H 0.17011 0.49325 0.91774 0.0
H1307 H 0.37721 0.51905 0.91632 0.0
H1308 H 0.23266 0.5649 0.89941 0.0
H1309 H 0.29413 0.53816 0.89329 0.0
H1310 H 0.15894 0.51552 0.95077 0.0
H1311 H 0.09776 0.54231 0.95738 0.0
C1312 C 0.26447 0.47784 0.91138 0.0
C1313 C 0.34075 0.47728 0.90835 0.0
C1314 C 0.22898 0.49317 0.91601 0.0
C1315 C 0.26876 0.50829 0.91751 0.0
C1316 C 0.34482 0.50769 0.91485 0.0
C1317 C 0.38024 0.49244 0.91039 0.0
C1318 C 0.21662 0.55444 0.91121 0.0
C1319 C 0.16041 0.55603 0.92921 0.0
C1320 C 0.25182 0.53899 0.90754 0.0
C1321 C 0.23142 0.5247 0.92155 0.0
C1322 C 0.17538 0.52623 0.93946 0.0
C1323 C 0.14054 0.54167 0.94329 0.0
H1324 H 0.9587 0.53962 0.62046 0.0
H1325 H 0.75047 0.56507 0.62329 0.0
H1326 H 0.89799 0.5128 0.62734 0.0
H1327 H 0.6899 0.53819 0.63008 0.0
H1328 H 0.61201 0.48977 0.66681 0.0
H1329 H 0.67636 0.51624 0.66141 0.0
H1330 H 0.81768 0.49299 0.60618 0.0
H1331 H 0.75341 0.46637 0.61163 0.0
C1332 C 0.89993 0.53953 0.62254 0.0
C1333 C 0.8598 0.55463 0.62158 0.0
C1334 C 0.86511 0.5241 0.62638 0.0
C1335 C 0.78907 0.52329 0.6293 0.0
C1336 C 0.74876 0.53837 0.62837 0.0
C1337 C 0.78363 0.55384 0.62454 0.0
C1338 C 0.657 0.49023 0.65354 0.0
C1339 C 0.67754 0.47582 0.63977 0.0
C1340 C 0.69367 0.50548 0.65036 0.0
C1341 C 0.75189 0.50682 0.63324 0.0
C1342 C 0.77357 0.49236 0.61977 0.0
C1343 C 0.73681 0.47704 0.62297 0.0
H1344 H 0.95061 0.21197 0.13454 0.0
H1345 H 0.14177 0.22213 0.08916 0.0
H1346 H 0.92411 0.24201 0.13597 0.0
H1347 H 0.11526 0.25209 0.09074 0.0
H1348 H 0.09621 0.30424 0.13015 0.0
H1349 H 0.11864 0.27436 0.12299 0.0
H1350 H 0.8886 0.26636 0.11035 0.0
H1351 H 0.86595 0.2961 0.11735 0.0
C1352 C 0.986 0.22049 0.12433 0.0
C1353 C 0.04834 0.21452 0.11168 0.0
C1354 C 0.97101 0.23778 0.12527 0.0
C1355 C 0.01804 0.24949 0.11367 0.0
C1356 C 0.0787 0.24346 0.10027 0.0
C1357 C 0.09356 0.22624 0.09927 0.0
C1358 C 0.05055 0.29624 0.12531 0.0
C1359 C 0.9792 0.3027 0.12435 0.0
C1360 C 0.06339 0.27904 0.12128 0.0
C1361 C 0.00525 0.26793 0.11628 0.0
C1362 C 0.93442 0.27449 0.1146 0.0
C1363 C 0.92161 0.2916 0.11854 0.0
H1364 H 0.59052 0.80155 0.12317 0.0
H1365 H 0.36126 0.78991 0.115 0.0
H1366 H 0.61943 0.77183 0.11882 0.0
H1367 H 0.38997 0.76025 0.11218 0.0
H1368 H 0.46813 0.70711 0.0934 0.0
H1369 H 0.44122 0.73722 0.08984 0.0
H1370 H 0.60876 0.74797 0.14503 0.0
H1371 H 0.63654 0.71827 0.14795 0.0
C1372 C 0.54625 0.79279 0.12006 0.0
C1373 C 0.47337 0.79828 0.11961 0.0
C1374 C 0.56278 0.77563 0.11795 0.0
C1375 C 0.50694 0.76352 0.11559 0.0
C1376 C 0.43455 0.76911 0.11384 0.0
C1377 C 0.41809 0.78622 0.11573 0.0
C1378 C 0.49859 0.71594 0.10488 0.0
C1379 C 0.55443 0.7103 0.12095 0.0
C1380 C 0.48347 0.73321 0.10279 0.0
C1381 C 0.52352 0.74514 0.11689 0.0
C1382 C 0.57821 0.73932 0.13328 0.0
C1383 C 0.59365 0.7222 0.13516 0.0
H1384 H 0.35513 0.72186 0.44894 0.0
H1385 H 0.56797 0.71146 0.41729 0.0
H1386 H 0.38317 0.75173 0.4496 0.0
H1387 H 0.59594 0.74144 0.41828 0.0
H1388 H 0.64482 0.79498 0.4441 0.0
H1389 H 0.61675 0.76522 0.4475 0.0
H1390 H 0.4007 0.77452 0.41831 0.0
H1391 H 0.42869 0.80442 0.41458 0.0
C1392 C 0.40823 0.72587 0.44228 0.0
C1393 C 0.45921 0.71407 0.4331 0.0
C1394 C 0.42403 0.74307 0.44258 0.0
C1395 C 0.49149 0.74902 0.43383 0.0
C1396 C 0.5436 0.73725 0.42539 0.0
C1397 C 0.52764 0.71999 0.42496 0.0
C1398 C 0.59102 0.79079 0.43846 0.0
C1399 C 0.53913 0.80228 0.42905 0.0
C1400 C 0.57518 0.77364 0.44034 0.0
C1401 C 0.50679 0.76744 0.433 0.0
C1402 C 0.45381 0.77892 0.42435 0.0
C1403 C 0.4698 0.79614 0.42232 0.0
H1404 H 0.0612 0.29557 0.37189 0.0
H1405 H 0.97357 0.30973 0.44461 0.0
H1406 H 0.0432 0.26609 0.38194 0.0
H1407 H 0.95742 0.27998 0.45519 0.0
H1408 H 0.86557 0.22582 0.45149 0.0
H1409 H 0.88846 0.25559 0.44577 0.0
H1410 H 0.08973 0.24402 0.40697 0.0
H1411 H 0.06476 0.21414 0.41132 0.0
C1412 C 0.03798 0.29234 0.3901 0.0
C1413 C 0.01841 0.30499 0.40739 0.0
C1414 C 0.02849 0.27539 0.39601 0.0
C1415 C 1.00002 0.27053 0.41958 0.0
C1416 C 0.97909 0.28322 0.43678 0.0
C1417 C 0.98794 0.30029 0.43071 0.0
C1418 C 0.91517 0.22956 0.44188 0.0
C1419 C 0.96284 0.2174 0.4317 0.0
C1420 C 0.92857 0.24673 0.4388 0.0
C1421 C 0.9904 0.25231 0.42557 0.0
C1422 C 0.04055 0.2402 0.41675 0.0
C1423 C 0.02682 0.22296 0.41965 0.0
H1424 H 0.87612 0.8031 0.95892 0.0
H1425 H 0.06841 0.81327 0.91425 0.0
H1426 H 0.90442 0.77318 0.95843 0.0
H1427 H 0.09647 0.78327 0.9136 0.0
H1428 H 0.15247 0.72898 0.92837 0.0
H1429 H 0.13125 0.75856 0.93754 0.0
H1430 H 0.9 0.75114 0.92665 0.0
H1431 H 0.92115 0.72142 0.91762 0.0
C1432 C 0.92521 0.79898 0.94933 0.0
C1433 C 0.96996 0.81062 0.93662 0.0
C1434 C 0.94104 0.78179 0.9489 0.0
C1435 C 1.00207 0.77575 0.93568 0.0
C1436 C 0.04925 0.78748 0.92415 0.0
C1437 C 0.03341 0.80474 0.92462 0.0
C1438 C 0.09687 0.73359 0.92815 0.0
C1439 C 0.03853 0.72276 0.92218 0.0
C1440 C 0.08485 0.7506 0.93332 0.0
C1441 C 0.01409 0.7573 0.93262 0.0
C1442 C 0.95523 0.74636 0.92764 0.0
C1443 C 0.96728 0.72927 0.9225 0.0
H1444 H 0.45602 0.22004 0.90457 0.0
H1445 H 0.60738 0.22966 0.96543 0.0
H1446 H 0.42815 0.25004 0.90238 0.0
H1447 H 0.57851 0.25949 0.96369 0.0
H1448 H 0.57225 0.31367 0.93677 0.0
H1449 H 0.59827 0.28367 0.93788 0.0
H1450 H 0.3711 0.2728 0.92372 0.0
H1451 H 0.34547 0.30256 0.92128 0.0
C1452 C 0.48196 0.22848 0.9179 0.0
C1453 C 0.53365 0.22243 0.93526 0.0
C1454 C 0.46631 0.24573 0.91659 0.0
C1455 C 0.50168 0.25729 0.93269 0.0
C1456 C 0.55153 0.25109 0.95056 0.0
C1457 C 0.56749 0.23392 0.95174 0.0
C1458 C 0.5279 0.30498 0.93343 0.0
C1459 C 0.45664 0.31079 0.92877 0.0
C1460 C 0.54271 0.28767 0.93444 0.0
C1461 C 0.48673 0.27573 0.93096 0.0
C1462 C 0.41586 0.28154 0.92615 0.0
C1463 C 0.40112 0.29875 0.92502 0.0
H1464 H 0.57522 0.21942 0.62805 0.0
H1465 H 0.36644 0.22952 0.59306 0.0
H1466 H 0.60455 0.24933 0.62584 0.0
H1467 H 0.39567 0.25928 0.5914 0.0
H1468 H 0.43879 0.31237 0.62481 0.0
H1469 H 0.41159 0.28243 0.62304 0.0
H1470 H 0.62773 0.27247 0.59447 0.0
H1471 H 0.65514 0.30234 0.59565 0.0
C1472 C 0.53607 0.22784 0.61946 0.0
C1473 C 0.46831 0.22187 0.61071 0.0
C1474 C 0.55281 0.24505 0.61834 0.0
C1475 C 0.50204 0.25669 0.60868 0.0
C1476 C 0.43539 0.25069 0.59936 0.0
C1477 C 0.41891 0.23355 0.60026 0.0
C1478 C 0.48027 0.30398 0.61761 0.0
C1479 C 0.54928 0.31003 0.61024 0.0
C1480 C 0.46465 0.28672 0.61674 0.0
C1481 C 0.51771 0.27506 0.60875 0.0
C1482 C 0.58607 0.28108 0.60107 0.0
C1483 C 0.60149 0.29829 0.60169 0.0
H1484 H 0.09165 0.71868 0.62829 0.0
H1485 H 0.85886 0.72604 0.62218 0.0
H1486 H 0.11103 0.74829 0.618 0.0
H1487 H 0.87821 0.75548 0.61167 0.0
H1488 H 0.94265 0.81031 0.63252 0.0
H1489 H 0.91644 0.7803 0.63452 0.0
H1490 H 0.10123 0.77016 0.58617 0.0
H1491 H 0.12778 0.80014 0.58431 0.0
C1492 C 0.04474 0.72647 0.62412 0.0
C1493 C 0.9737 0.71997 0.62617 0.0
C1494 C 0.05576 0.74348 0.61826 0.0
C1495 C 0.99604 0.75434 0.61426 0.0
C1496 C 0.92533 0.7476 0.61514 0.0
C1497 C 0.91434 0.73067 0.62106 0.0
C1498 C 0.97647 0.80177 0.62172 0.0
C1499 C 0.03734 0.80769 0.60824 0.0
C1500 C 0.96164 0.7845 0.62294 0.0
C1501 C 0.00724 0.77276 0.6107 0.0
C1502 C 0.06586 0.77879 0.59622 0.0
C1503 C 0.08073 0.79601 0.59504 0.0
H1504 H 0.02295 0.16241 0.34042 0.0
H1505 H 0.909 0.11527 0.33071 0.0
H1506 H 0.05114 0.16285 0.29506 0.0
H1507 H 0.93919 0.11553 0.28561 0.0
H1508 H 0.10511 0.11412 0.21696 0.0
H1509 H 0.07554 0.11524 0.2621 0.0
H1510 H 0.96484 0.16253 0.25099 0.0
H1511 H 0.99241 0.16125 0.20562 0.0
C1512 C 1.00368 0.1522 0.3286 0.0
C1513 C 0.96351 0.13884 0.3391 0.0
C1514 C 0.01976 0.15248 0.30271 0.0
C1515 C 0.99763 0.13918 0.287 0.0
C1516 C 0.95711 0.12589 0.29742 0.0
C1517 C 0.93946 0.12581 0.32315 0.0
C1518 C 0.07511 0.12484 0.22417 0.0
C1519 C 0.05116 0.13761 0.20776 0.0
C1520 C 0.05782 0.12541 0.24993 0.0
C1521 C 0.0178 0.13894 0.25988 0.0
C1522 C 0.99586 0.15199 0.2437 0.0
C1523 C 0.01157 0.15123 0.21781 0.0
H1524 H 0.58464 0.87644 0.20074 0.0
H1525 H 0.36833 0.89673 0.21208 0.0
H1526 H 0.6042 0.87616 0.24615 0.0
H1527 H 0.38862 0.89661 0.25782 0.0
H1528 H 0.42447 0.87465 0.33803 0.0
H1529 H 0.40353 0.87582 0.29251 0.0
H1530 H 0.62062 0.89561 0.28163 0.0
H1531 H 0.6421 0.89429 0.32703 0.0
C1532 C 0.54126 0.88094 0.21289 0.0
C1533 C 0.47474 0.88658 0.20268 0.0
C1534 C 0.55276 0.88086 0.23899 0.0
C1535 C 0.49802 0.88635 0.25563 0.0
C1536 C 0.43162 0.89213 0.24549 0.0
C1537 C 0.4202 0.89232 0.21928 0.0
C1538 C 0.46795 0.87918 0.32595 0.0
C1539 C 0.53516 0.8843 0.33626 0.0
C1540 C 0.45562 0.87999 0.29986 0.0
C1541 C 0.51032 0.88584 0.28344 0.0
C1542 C 0.57757 0.89089 0.29373 0.0
C1543 C 0.58979 0.89017 0.3198 0.0
H1544 H 0.93125 0.87255 0.70058 0.0
H1545 H 0.14238 0.89427 0.71676 0.0
H1546 H 0.90476 0.87137 0.74568 0.0
H1547 H 0.11523 0.89327 0.76186 0.0
H1548 H 0.07027 0.87506 0.84186 0.0
H1549 H 0.09655 0.87357 0.79682 0.0
H1550 H 0.87895 0.89115 0.7802 0.0
H1551 H 0.85202 0.89246 0.82534 0.0
C1552 C 0.97228 0.877 0.71372 0.0
C1553 C 0.03904 0.88353 0.70494 0.0
C1554 C 0.95675 0.87642 0.7396 0.0
C1555 C 0.00767 0.88229 0.75739 0.0
C1556 C 0.07505 0.88849 0.74868 0.0
C1557 C 0.0905 0.88913 0.72278 0.0
C1558 C 0.02765 0.87849 0.82866 0.0
C1559 C 0.95895 0.88392 0.83733 0.0
C1560 C 0.04302 0.87774 0.80279 0.0
C1561 C 0.99006 0.88233 0.78488 0.0
C1562 C 0.92078 0.88737 0.79348 0.0
C1563 C 0.90543 0.88819 0.81939 0.0
H1564 H 0.6016 0.12079 0.83142 0.0
H1565 H 0.4881 0.16801 0.8409 0.0
H1566 H 0.57388 0.12127 0.7862 0.0
H1567 H 0.46231 0.16864 0.79536 0.0
H1568 H 0.5247 0.16728 0.70621 0.0
H1569 H 0.55013 0.16845 0.75173 0.0
H1570 H 0.43965 0.12102 0.76191 0.0
H1571 H 0.41226 0.12001 0.71664 0.0
C1572 C 0.57176 0.1314 0.8238 0.0
C1573 C 0.54715 0.14439 0.83973 0.0
C1574 C 0.55552 0.13159 0.79797 0.0
C1575 C 0.51584 0.14496 0.78742 0.0
C1576 C 0.4931 0.15822 0.80311 0.0
C1577 C 0.5078 0.15784 0.8291 0.0
C1578 C 0.50524 0.15719 0.71821 0.0
C1579 C 0.46633 0.14357 0.70786 0.0
C1580 C 0.51967 0.15789 0.7442 0.0
C1581 C 0.49706 0.14479 0.76018 0.0
C1582 C 0.45785 0.13124 0.74991 0.0
C1583 C 0.44187 0.13072 0.72406 0.0
H1584 H 0.6513 0.62387 0.2192 0.0
H1585 H 0.43289 0.64153 0.20374 0.0
H1586 H 0.62581 0.62501 0.26452 0.0
H1587 H 0.40806 0.64287 0.24886 0.0
H1588 H 0.36315 0.62471 0.32993 0.0
H1589 H 0.38921 0.62424 0.28471 0.0
H1590 H 0.60324 0.64485 0.29893 0.0
H1591 H 0.57778 0.64512 0.34413 0.0
C1592 C 0.59805 0.62809 0.2254 0.0
C1593 C 0.54425 0.63258 0.20768 0.0
C1594 C 0.58351 0.62882 0.25143 0.0
C1595 C 0.51472 0.63399 0.26041 0.0
C1596 C 0.46124 0.6386 0.24268 0.0
C1597 C 0.47579 0.63793 0.21673 0.0
C1598 C 0.41566 0.62922 0.32345 0.0
C1599 C 0.46823 0.63496 0.34082 0.0
C1600 C 0.43055 0.62901 0.29745 0.0
C1601 C 0.49848 0.63447 0.2881 0.0
C1602 C 0.55076 0.64034 0.30544 0.0
C1603 C 0.53582 0.64061 0.33141 0.0
H1604 H 0.0974 0.38454 0.20585 0.0
H1605 H 0.88133 0.40623 0.20826 0.0
H1606 H 0.10866 0.38813 0.25125 0.0
H1607 H 0.89344 0.41016 0.2539 0.0
H1608 H 0.13187 0.4061 0.33155 0.0
H1609 H 0.12041 0.40806 0.28561 0.0
H1610 H 0.89545 0.39229 0.29087 0.0
H1611 H 0.90622 0.3907 0.33653 0.0
C1612 C 0.05244 0.39025 0.216 0.0
C1613 C 0.98809 0.39495 0.20331 0.0
C1614 C 0.05927 0.39245 0.2421 0.0
C1615 C 1.00199 0.39942 0.25633 0.0
C1616 C 0.93834 0.40456 0.24358 0.0
C1617 C 0.9315 0.40237 0.21738 0.0
C1618 C 0.07969 0.4033 0.32293 0.0
C1619 C 0.02025 0.39809 0.33781 0.0
C1620 C 0.07323 0.40431 0.29656 0.0
C1621 C 0.00713 0.40021 0.28446 0.0
C1622 C 0.94696 0.39571 0.29947 0.0
C1623 C 0.95341 0.39467 0.32574 0.0
H1624 H 0.64428 0.39751 0.71467 0.0
H1625 H 0.42761 0.37796 0.70131 0.0
H1626 H 0.62124 0.39703 0.76015 0.0
H1627 H 0.40514 0.37739 0.74666 0.0
H1628 H 0.36489 0.39812 0.8273 0.0
H1629 H 0.38752 0.39755 0.78178 0.0
H1630 H 0.60176 0.37681 0.79503 0.0
H1631 H 0.57971 0.37746 0.84039 0.0
C1632 C 0.59197 0.39301 0.72138 0.0
C1633 C 0.53791 0.38778 0.70423 0.0
C1634 C 0.57886 0.39268 0.74747 0.0
C1635 C 0.51122 0.38722 0.75705 0.0
C1636 C 0.45746 0.38187 0.73992 0.0
C1637 C 0.47068 0.38209 0.71388 0.0
C1638 C 0.41666 0.39334 0.82052 0.0
C1639 C 0.47038 0.38785 0.83761 0.0
C1640 C 0.42955 0.39297 0.79441 0.0
C1641 C 0.49662 0.3872 0.78477 0.0
C1642 C 0.54992 0.38154 0.80183 0.0
C1643 C 0.53692 0.3818 0.82787 0.0
H1644 H 0.0998 0.63573 0.70729 0.0
H1645 H 0.87747 0.61833 0.71442 0.0
H1646 H 0.11459 0.63414 0.75293 0.0
H1647 H 0.89276 0.61656 0.76028 0.0
H1648 H 0.92079 0.63975 0.84049 0.0
H1649 H 0.90584 0.63681 0.795 0.0
H1650 H 0.1214 0.61525 0.7895 0.0
H1651 H 0.13691 0.61836 0.83519 0.0
C1652 C 0.05422 0.63136 0.71854 0.0
C1653 C 0.98719 0.62727 0.70708 0.0
C1654 C 0.06295 0.63034 0.74478 0.0
C1655 C 0.00482 0.62529 0.76037 0.0
C1656 C 0.93843 0.62069 0.74888 0.0
C1657 C 0.92981 0.6216 0.72255 0.0
C1658 C 0.965 0.63428 0.82968 0.0
C1659 C 0.03034 0.6294 0.8416 0.0
C1660 C 0.9561 0.63246 0.80354 0.0
C1661 C 0.0124 0.62582 0.7885 0.0
C1662 C 0.07717 0.62058 0.80046 0.0
C1663 C 0.08592 0.62228 0.82669 0.0
loop_
_geom_bond_atom_site_label_1
_geom_bond_atom_site_label_2
_geom_bond_distance
_geom_bond_site_symmetry_2
_ccdc_geom_bond_type
Zn0 N4 2.020 1_655 S
Zn0 O8 2.019 . S
Zn0 N10 2.119 1_655 S
Zn0 O18 1.975 1_655 S
C1 N2 1.334 . S
C1 N5 1.336 . S
N2 C1 1.334 . S
N2 C3 1.334 . S
C3 N2 1.334 . S
C3 N4 1.336 . S
N4 Zn0 2.020 1_455 S
N4 C3 1.336 . S
N4 N5 1.354 . S
N5 C1 1.336 . S
N5 N4 1.354 . S
N5 Zn9 2.020 . S
C6 O7 1.244 . S
C6 O30 1.257 . S
O7 C6 1.244 . S
O8 Zn0 2.019 . S
O8 C28 1.257 . S
Zn9 N5 2.020 . S
Zn9 O16 1.975 . S
Zn9 N25 2.119 . S
Zn9 O30 2.019 . S
N10 Zn0 2.119 1_455 S
N10 C12 1.334 . S
N10 C13 1.328 1_455 S
C11 C12 1.391 . S
C11 N14 1.329 . S
C11 H32 0.930 . S
C12 N10 1.334 . S
C12 C11 1.391 . S
C12 H19 0.930 . S
C13 N10 1.328 1_655 S
C13 C15 1.392 . S
C13 H20 0.930 . S
N14 C11 1.329 . S
N14 C15 1.331 1_455 S
C15 C13 1.392 . S
C15 N14 1.331 1_655 S
O16 Zn9 1.975 . S
O16 C17 1.252 . S
C17 O16 1.252 . S
C17 O18 1.252 . S
O18 Zn0 1.975 1_455 S
O18 C17 1.252 . S
H19 C12 0.930 . S
H20 C13 0.930 . S
C21 C22 1.392 . S
C21 N25 1.328 . S
C21 H27 0.930 . S
C22 C21 1.392 . S
C22 N26 1.331 . S
C23 C24 1.391 . S
C23 N26 1.329 . S
C23 H33 0.930 . S
C24 C23 1.391 . S
C24 N25 1.334 . S
C24 H31 0.930 . S
N25 Zn9 2.119 . S
N25 C21 1.328 . S
N25 C24 1.334 . S
N26 C22 1.331 . S
N26 C23 1.329 . S
H27 C21 0.930 . S
C28 O8 1.257 . S
C28 O29 1.244 . S
O29 C28 1.244 . S
O30 C6 1.257 . S
O30 Zn9 2.019 . S
H31 C24 0.930 . S
H32 C11 0.930 . S
H33 C23 0.930 . S
Zn34 N38 2.020 . S
Zn34 O42 2.019 . S
Zn34 N44 2.119 . S
Zn34 O52 1.975 . S
C35 N36 1.334 . S
C35 N39 1.336 . S
N36 C35 1.334 . S
N36 C37 1.334 . S
C37 N36 1.334 . S
C37 N38 1.336 . S
N38 Zn34 2.020 . S
N38 C37 1.336 . S
N38 N39 1.354 . S
N39 C35 1.336 . S
N39 N38 1.354 . S
N39 Zn43 2.020 . S
C40 O41 1.244 . S
C40 O64 1.257 . S
O41 C40 1.244 . S
O42 Zn34 2.019 . S
O42 C62 1.257 . S
Zn43 N39 2.020 . S
Zn43 O50 1.975 . S
Zn43 N59 2.119 . S
Zn43 O64 2.019 . S
N44 Zn34 2.119 . S
N44 C46 1.334 . S
N44 C47 1.328 . S
C45 C46 1.391 . S
C45 N48 1.329 . S
C45 H66 0.930 . S
C46 N44 1.334 . S
C46 C45 1.391 . S
C46 H53 0.930 . S
C47 N44 1.328 . S
C47 C49 1.392 . S
C47 H54 0.930 . S
N48 C45 1.329 . S
N48 C49 1.331 . S
C49 C47 1.392 . S
C49 N48 1.331 . S
O50 Zn43 1.975 . S
O50 C51 1.252 . S
C51 O50 1.252 . S
C51 O52 1.252 . S
O52 Zn34 1.975 . S
O52 C51 1.252 . S
H53 C46 0.930 . S
H54 C47 0.930 . S
C55 C56 1.392 . S
C55 N59 1.328 . S
C55 H61 0.930 . S
C56 C55 1.392 . S
C56 N60 1.331 . S
C57 C58 1.391 . S
C57 N60 1.329 . S
C57 H67 0.930 . S
C58 C57 1.391 . S
C58 N59 1.334 . S
C58 H65 0.930 . S
N59 Zn43 2.119 . S
N59 C55 1.328 . S
N59 C58 1.334 . S
N60 C56 1.331 . S
N60 C57 1.329 . S
H61 C55 0.930 . S
C62 O42 1.257 . S
C62 O63 1.244 . S
O63 C62 1.244 . S
O64 C40 1.257 . S
O64 Zn43 2.019 . S
H65 C58 0.930 . S
H66 C45 0.930 . S
H67 C57 0.930 . S
Zn68 N72 2.020 . S
Zn68 O76 2.019 . S
Zn68 N78 2.119 . S
Zn68 O86 1.975 . S
C69 N70 1.334 . S
C69 N73 1.336 . S
N70 C69 1.334 . S
N70 C71 1.334 . S
C71 N70 1.334 . S
C71 N72 1.336 . S
N72 Zn68 2.020 . S
N72 C71 1.336 . S
N72 N73 1.354 . S
N73 C69 1.336 . S
N73 N72 1.354 . S
N73 Zn77 2.020 . S
C74 O75 1.244 . S
C74 O98 1.257 . S
O75 C74 1.244 . S
O76 Zn68 2.019 . S
O76 C96 1.257 . S
Zn77 N73 2.020 . S
Zn77 O84 1.975 . S
Zn77 N93 2.119 . S
Zn77 O98 2.019 . S
N78 Zn68 2.119 . S
N78 C80 1.334 . S
N78 C81 1.328 . S
C79 C80 1.391 . S
C79 N82 1.329 . S
C79 H100 0.930 . S
C80 N78 1.334 . S
C80 C79 1.391 . S
C80 H87 0.930 . S
C81 N78 1.328 . S
C81 C83 1.392 . S
C81 H88 0.930 . S
N82 C79 1.329 . S
N82 C83 1.331 . S
C83 C81 1.392 . S
C83 N82 1.331 . S
O84 Zn77 1.975 . S
O84 C85 1.252 . S
C85 O84 1.252 . S
C85 O86 1.252 . S
O86 Zn68 1.975 . S
O86 C85 1.252 . S
H87 C80 0.930 . S
H88 C81 0.930 . S
C89 C90 1.392 . S
C89 N93 1.328 . S
C89 H95 0.930 . S
C90 C89 1.392 . S
C90 N94 1.331 . S
C91 C92 1.391 . S
C91 N94 1.329 . S
C91 H101 0.930 . S
C92 C91 1.391 . S
C92 N93 1.334 . S
C92 H99 0.930 . S
N93 Zn77 2.119 . S
N93 C89 1.328 . S
N93 C92 1.334 . S
N94 C90 1.331 . S
N94 C91 1.329 . S
H95 C89 0.930 . S
C96 O76 1.257 . S
C96 O97 1.244 . S
O97 C96 1.244 . S
O98 C74 1.257 . S
O98 Zn77 2.019 . S
H99 C92 0.930 . S
H100 C79 0.930 . S
H101 C91 0.930 . S
Zn102 N106 2.020 1_455 S
Zn102 O110 2.019 . S
Zn102 N112 2.119 1_455 S
Zn102 O120 1.975 1_455 S
C103 N104 1.334 . S
C103 N107 1.336 . S
N104 C103 1.334 . S
N104 C105 1.334 . S
C105 N104 1.334 . S
C105 N106 1.336 . S
N106 Zn102 2.020 1_655 S
N106 C105 1.336 . S
N106 N107 1.354 . S
N107 C103 1.336 . S
N107 N106 1.354 . S
N107 Zn111 2.020 . S
C108 O109 1.244 . S
C108 O132 1.257 . S
O109 C108 1.244 . S
O110 Zn102 2.019 . S
O110 C130 1.257 . S
Zn111 N107 2.020 . S
Zn111 O118 1.975 . S
Zn111 N127 2.119 . S
Zn111 O132 2.019 . S
N112 Zn102 2.119 1_655 S
N112 C114 1.334 . S
N112 C115 1.328 1_655 S
C113 C114 1.391 . S
C113 N116 1.329 . S
C113 H134 0.930 . S
C114 N112 1.334 . S
C114 C113 1.391 . S
C114 H121 0.930 . S
C115 N112 1.328 1_455 S
C115 C117 1.392 . S
C115 H122 0.930 . S
N116 C113 1.329 . S
N116 C117 1.331 1_655 S
C117 C115 1.392 . S
C117 N116 1.331 1_455 S
O118 Zn111 1.975 . S
O118 C119 1.252 . S
C119 O118 1.252 . S
C119 O120 1.252 . S
O120 Zn102 1.975 1_655 S
O120 C119 1.252 . S
H121 C114 0.930 . S
H122 C115 0.930 . S
C123 C124 1.392 . S
C123 N127 1.328 . S
C123 H129 0.930 . S
C124 C123 1.392 . S
C124 N128 1.331 . S
C125 C126 1.391 . S
C125 N128 1.329 . S
C125 H135 0.930 . S
C126 C125 1.391 . S
C126 N127 1.334 . S
C126 H133 0.930 . S
N127 Zn111 2.119 . S
N127 C123 1.328 . S
N127 C126 1.334 . S
N128 C124 1.331 . S
N128 C125 1.329 . S
H129 C123 0.930 . S
C130 O110 1.257 . S
C130 O131 1.244 . S
O131 C130 1.244 . S
O132 C108 1.257 . S
O132 Zn111 2.019 . S
H133 C126 0.930 . S
H134 C113 0.930 . S
H135 C125 0.930 . S
Zn136 N140 2.020 . S
Zn136 O144 2.019 . S
Zn136 N146 2.119 . S
Zn136 O154 1.975 . S
C137 N138 1.334 . S
C137 N141 1.336 . S
N138 C137 1.334 . S
N138 C139 1.334 . S
C139 N138 1.334 . S
C139 N140 1.336 . S
N140 Zn136 2.020 . S
N140 C139 1.336 . S
N140 N141 1.354 . S
N141 C137 1.336 . S
N141 N140 1.354 . S
N141 Zn145 2.020 1_655 S
C142 O143 1.244 . S
C142 O166 1.257 . S
O143 C142 1.244 . S
O144 Zn136 2.019 . S
O144 C164 1.257 . S
Zn145 N141 2.020 1_455 S
Zn145 O152 1.975 1_455 S
Zn145 N161 2.119 1_455 S
Zn145 O166 2.019 . S
N146 Zn136 2.119 . S
N146 C148 1.334 . S
N146 C149 1.328 . S
C147 C148 1.391 . S
C147 N150 1.329 . S
C147 H168 0.930 . S
C148 N146 1.334 . S
C148 C147 1.391 . S
C148 H155 0.930 . S
C149 N146 1.328 . S
C149 C151 1.392 . S
C149 H156 0.930 . S
N150 C147 1.329 . S
N150 C151 1.331 . S
C151 C149 1.392 . S
C151 N150 1.331 . S
O152 Zn145 1.975 1_655 S
O152 C153 1.252 . S
C153 O152 1.252 . S
C153 O154 1.252 . S
O154 Zn136 1.975 . S
O154 C153 1.252 . S
H155 C148 0.930 . S
H156 C149 0.930 . S
C157 C158 1.392 . S
C157 N161 1.328 1_455 S
C157 H163 0.930 . S
C158 C157 1.392 . S
C158 N162 1.331 1_455 S
C159 C160 1.391 . S
C159 N162 1.329 . S
C159 H169 0.930 . S
C160 C159 1.391 . S
C160 N161 1.334 . S
C160 H167 0.930 . S
N161 Zn145 2.119 1_655 S
N161 C157 1.328 1_655 S
N161 C160 1.334 . S
N162 C158 1.331 1_655 S
N162 C159 1.329 . S
H163 C157 0.930 . S
C164 O144 1.257 . S
C164 O165 1.244 . S
O165 C164 1.244 . S
O166 C142 1.257 . S
O166 Zn145 2.019 . S
H167 C160 0.930 . S
H168 C147 0.930 . S
H169 C159 0.930 . S
Zn170 N174 2.020 . S
Zn170 O178 2.019 . S
Zn170 N180 2.119 . S
Zn170 O188 1.975 . S
C171 N172 1.334 . S
C171 N175 1.336 . S
N172 C171 1.334 . S
N172 C173 1.334 . S
C173 N172 1.334 . S
C173 N174 1.336 . S
N174 Zn170 2.020 . S
N174 C173 1.336 . S
N174 N175 1.354 . S
N175 C171 1.336 . S
N175 N174 1.354 . S
N175 Zn179 2.020 . S
C176 O177 1.244 . S
C176 O200 1.257 . S
O177 C176 1.244 . S
O178 Zn170 2.019 . S
O178 C198 1.257 . S
Zn179 N175 2.020 . S
Zn179 O186 1.975 . S
Zn179 N195 2.119 . S
Zn179 O200 2.019 . S
N180 Zn170 2.119 . S
N180 C182 1.334 . S
N180 C183 1.328 . S
C181 C182 1.391 . S
C181 N184 1.329 . S
C181 H202 0.930 . S
C182 N180 1.334 . S
C182 C181 1.391 . S
C182 H189 0.930 . S
C183 N180 1.328 . S
C183 C185 1.392 . S
C183 H190 0.930 . S
N184 C181 1.329 . S
N184 C185 1.331 . S
C185 C183 1.392 . S
C185 N184 1.331 . S
O186 Zn179 1.975 . S
O186 C187 1.252 . S
C187 O186 1.252 . S
C187 O188 1.252 . S
O188 Zn170 1.975 . S
O188 C187 1.252 . S
H189 C182 0.930 . S
H190 C183 0.930 . S
C191 C192 1.392 . S
C191 N195 1.328 . S
C191 H197 0.930 . S
C192 C191 1.392 . S
C192 N196 1.331 . S
C193 C194 1.391 . S
C193 N196 1.329 . S
C193 H203 0.930 . S
C194 C193 1.391 . S
C194 N195 1.334 . S
C194 H201 0.930 . S
N195 Zn179 2.119 . S
N195 C191 1.328 . S
N195 C194 1.334 . S
N196 C192 1.331 . S
N196 C193 1.329 . S
H197 C191 0.930 . S
C198 O178 1.257 . S
C198 O199 1.244 . S
O199 C198 1.244 . S
O200 C176 1.257 . S
O200 Zn179 2.019 . S
H201 C194 0.930 . S
H202 C181 0.930 . S
H203 C193 0.930 . S
Zn204 N208 2.020 . S
Zn204 O212 2.019 . S
Zn204 N214 2.119 . S
Zn204 O222 1.975 . S
C205 N206 1.334 . S
C205 N209 1.336 . S
N206 C205 1.334 . S
N206 C207 1.334 . S
C207 N206 1.334 . S
C207 N208 1.336 . S
N208 Zn204 2.020 . S
N208 C207 1.336 . S
N208 N209 1.354 . S
N209 C205 1.336 . S
N209 N208 1.354 . S
N209 Zn213 2.020 . S
C210 O211 1.244 . S
C210 O234 1.257 . S
O211 C210 1.244 . S
O212 Zn204 2.019 . S
O212 C232 1.257 . S
Zn213 N209 2.020 . S
Zn213 O220 1.975 . S
Zn213 N229 2.119 . S
Zn213 O234 2.019 . S
N214 Zn204 2.119 . S
N214 C216 1.334 . S
N214 C217 1.328 . S
C215 C216 1.391 . S
C215 N218 1.329 . S
C215 H236 0.930 . S
C216 N214 1.334 . S
C216 C215 1.391 . S
C216 H223 0.930 . S
C217 N214 1.328 . S
C217 C219 1.392 . S
C217 H224 0.930 . S
N218 C215 1.329 . S
N218 C219 1.331 . S
C219 C217 1.392 . S
C219 N218 1.331 . S
O220 Zn213 1.975 . S
O220 C221 1.252 . S
C221 O220 1.252 . S
C221 O222 1.252 . S
O222 Zn204 1.975 . S
O222 C221 1.252 . S
H223 C216 0.930 . S
H224 C217 0.930 . S
C225 C226 1.392 . S
C225 N229 1.328 . S
C225 H231 0.930 . S
C226 C225 1.392 . S
C226 N230 1.331 . S
C227 C228 1.391 . S
C227 N230 1.329 . S
C227 H237 0.930 . S
C228 C227 1.391 . S
C228 N229 1.334 . S
C228 H235 0.930 . S
N229 Zn213 2.119 . S
N229 C225 1.328 . S
N229 C228 1.334 . S
N230 C226 1.331 . S
N230 C227 1.329 . S
H231 C225 0.930 . S
C232 O212 1.257 . S
C232 O233 1.244 . S
O233 C232 1.244 . S
O234 C210 1.257 . S
O234 Zn213 2.019 . S
H235 C228 0.930 . S
H236 C215 0.930 . S
H237 C227 0.930 . S
Zn238 N242 2.020 . S
Zn238 O246 2.019 . S
Zn238 N248 2.119 . S
Zn238 O256 1.975 . S
C239 N240 1.334 . S
C239 N243 1.336 . S
N240 C239 1.334 . S
N240 C241 1.334 . S
C241 N240 1.334 . S
C241 N242 1.336 . S
N242 Zn238 2.020 . S
N242 C241 1.336 . S
N242 N243 1.354 . S
N243 C239 1.336 . S
N243 N242 1.354 . S
N243 Zn247 2.020 1_455 S
C244 O245 1.244 . S
C244 O268 1.257 . S
O245 C244 1.244 . S
O246 Zn238 2.019 . S
O246 C266 1.257 . S
Zn247 N243 2.020 1_655 S
Zn247 O254 1.975 1_655 S
Zn247 N263 2.119 1_655 S
Zn247 O268 2.019 . S
N248 Zn238 2.119 . S
N248 C250 1.334 . S
N248 C251 1.328 . S
C249 C250 1.391 . S
C249 N252 1.329 . S
C249 H270 0.930 . S
C250 N248 1.334 . S
C250 C249 1.391 . S
C250 H257 0.930 . S
C251 N248 1.328 . S
C251 C253 1.392 . S
C251 H258 0.930 . S
N252 C249 1.329 . S
N252 C253 1.331 . S
C253 C251 1.392 . S
C253 N252 1.331 . S
O254 Zn247 1.975 1_455 S
O254 C255 1.252 . S
C255 O254 1.252 . S
C255 O256 1.252 . S
O256 Zn238 1.975 . S
O256 C255 1.252 . S
H257 C250 0.930 . S
H258 C251 0.930 . S
C259 C260 1.392 . S
C259 N263 1.328 1_655 S
C259 H265 0.930 . S
C260 C259 1.392 . S
C260 N264 1.331 1_655 S
C261 C262 1.391 . S
C261 N264 1.329 . S
C261 H271 0.930 . S
C262 C261 1.391 . S
C262 N263 1.334 . S
C262 H269 0.930 . S
N263 Zn247 2.119 1_455 S
N263 C259 1.328 1_455 S
N263 C262 1.334 . S
N264 C260 1.331 1_455 S
N264 C261 1.329 . S
H265 C259 0.930 . S
C266 O246 1.257 . S
C266 O267 1.244 . S
O267 C266 1.244 . S
O268 C244 1.257 . S
O268 Zn247 2.019 . S
H269 C262 0.930 . S
H270 C249 0.930 . S
H271 C261 0.930 . S
Zn272 N276 2.020 . S
Zn272 O280 2.019 . S
Zn272 N282 2.119 . S
Zn272 O290 1.975 . S
C273 N274 1.334 . S
C273 N277 1.336 . S
N274 C273 1.334 . S
N274 C275 1.334 . S
C275 N274 1.334 . S
C275 N276 1.336 . S
N276 Zn272 2.020 . S
N276 C275 1.336 . S
N276 N277 1.354 . S
N277 C273 1.336 . S
N277 N276 1.354 . S
N277 Zn281 2.020 . S
C278 O279 1.244 . S
C278 O302 1.257 . S
O279 C278 1.244 . S
O280 Zn272 2.019 . S
O280 C300 1.257 . S
Zn281 N277 2.020 . S
Zn281 O288 1.975 . S
Zn281 N297 2.119 . S
Zn281 O302 2.019 . S
N282 Zn272 2.119 . S
N282 C284 1.334 . S
N282 C285 1.328 . S
C283 C284 1.391 . S
C283 N286 1.329 . S
C283 H304 0.930 . S
C284 N282 1.334 . S
C284 C283 1.391 . S
C284 H291 0.930 . S
C285 N282 1.328 . S
C285 C287 1.392 . S
C285 H292 0.930 . S
N286 C283 1.329 . S
N286 C287 1.331 . S
C287 C285 1.392 . S
C287 N286 1.331 . S
O288 Zn281 1.975 . S
O288 C289 1.252 . S
C289 O288 1.252 . S
C289 O290 1.252 . S
O290 Zn272 1.975 . S
O290 C289 1.252 . S
H291 C284 0.930 . S
H292 C285 0.930 . S
C293 C294 1.392 . S
C293 N297 1.328 . S
C293 H299 0.930 . S
C294 C293 1.392 . S
C294 N298 1.331 . S
C295 C296 1.391 . S
C295 N298 1.329 . S
C295 H305 0.930 . S
C296 C295 1.391 . S
C296 N297 1.334 . S
C296 H303 0.930 . S
N297 Zn281 2.119 . S
N297 C293 1.328 . S
N297 C296 1.334 . S
N298 C294 1.331 . S
N298 C295 1.329 . S
H299 C293 0.930 . S
C300 O280 1.257 . S
C300 O301 1.244 . S
O301 C300 1.244 . S
O302 C278 1.257 . S
O302 Zn281 2.019 . S
H303 C296 0.930 . S
H304 C283 0.930 . S
H305 C295 0.930 . S
Zn306 N310 2.020 . S
Zn306 O314 2.019 . S
Zn306 N316 2.119 . S
Zn306 O324 1.975 . S
C307 N308 1.334 . S
C307 N311 1.336 . S
N308 C307 1.334 . S
N308 C309 1.334 . S
C309 N308 1.334 . S
C309 N310 1.336 . S
N310 Zn306 2.020 . S
N310 C309 1.336 . S
N310 N311 1.354 . S
N311 C307 1.336 . S
N311 N310 1.354 . S
N311 Zn315 2.020 1_655 S
C312 O313 1.244 . S
C312 O336 1.257 . S
O313 C312 1.244 . S
O314 Zn306 2.019 . S
O314 C334 1.257 . S
Zn315 N311 2.020 1_455 S
Zn315 O322 1.975 1_455 S
Zn315 N331 2.119 1_455 S
Zn315 O336 2.019 . S
N316 Zn306 2.119 . S
N316 C318 1.334 . S
N316 C319 1.328 . S
C317 C318 1.391 . S
C317 N320 1.329 . S
C317 H338 0.930 . S
C318 N316 1.334 . S
C318 C317 1.391 . S
C318 H325 0.930 . S
C319 N316 1.328 . S
C319 C321 1.392 . S
C319 H326 0.930 . S
N320 C317 1.329 . S
N320 C321 1.331 . S
C321 C319 1.392 . S
C321 N320 1.331 . S
O322 Zn315 1.975 1_655 S
O322 C323 1.252 . S
C323 O322 1.252 . S
C323 O324 1.252 . S
O324 Zn306 1.975 . S
O324 C323 1.252 . S
H325 C318 0.930 . S
H326 C319 0.930 . S
C327 C328 1.392 . S
C327 N331 1.328 1_455 S
C327 H333 0.930 . S
C328 C327 1.392 . S
C328 N332 1.331 1_455 S
C329 C330 1.391 . S
C329 N332 1.329 . S
C329 H339 0.930 . S
C330 C329 1.391 . S
C330 N331 1.334 . S
C330 H337 0.930 . S
N331 Zn315 2.119 1_655 S
N331 C327 1.328 1_655 S
N331 C330 1.334 . S
N332 C328 1.331 1_655 S
N332 C329 1.329 . S
H333 C327 0.930 . S
C334 O314 1.257 . S
C334 O335 1.244 . S
O335 C334 1.244 . S
O336 C312 1.257 . S
O336 Zn315 2.019 . S
H337 C330 0.930 . S
H338 C317 0.930 . S
H339 C329 0.930 . S
Zn340 N344 2.020 . S
Zn340 O348 2.019 . S
Zn340 N350 2.119 . S
Zn340 O358 1.975 . S
C341 N342 1.334 . S
C341 N345 1.336 . S
N342 C341 1.334 . S
N342 C343 1.334 . S
C343 N342 1.334 . S
C343 N344 1.336 . S
N344 Zn340 2.020 . S
N344 C343 1.336 . S
N344 N345 1.354 . S
N345 C341 1.336 . S
N345 N344 1.354 . S
N345 Zn349 2.020 1_455 S
C346 O347 1.244 . S
C346 O370 1.257 . S
O347 C346 1.244 . S
O348 Zn340 2.019 . S
O348 C368 1.257 . S
Zn349 N345 2.020 1_655 S
Zn349 O356 1.975 1_655 S
Zn349 N365 2.119 1_655 S
Zn349 O370 2.019 . S
N350 Zn340 2.119 . S
N350 C352 1.334 . S
N350 C353 1.328 . S
C351 C352 1.391 . S
C351 N354 1.329 . S
C351 H372 0.930 . S
C352 N350 1.334 . S
C352 C351 1.391 . S
C352 H359 0.930 . S
C353 N350 1.328 . S
C353 C355 1.392 . S
C353 H360 0.930 . S
N354 C351 1.329 . S
N354 C355 1.331 . S
C355 C353 1.392 . S
C355 N354 1.331 . S
O356 Zn349 1.975 1_455 S
O356 C357 1.252 . S
C357 O356 1.252 . S
C357 O358 1.252 . S
O358 Zn340 1.975 . S
O358 C357 1.252 . S
H359 C352 0.930 . S
H360 C353 0.930 . S
C361 C362 1.392 . S
C361 N365 1.328 1_655 S
C361 H367 0.930 . S
C362 C361 1.392 . S
C362 N366 1.331 1_655 S
C363 C364 1.391 . S
C363 N366 1.329 . S
C363 H373 0.930 . S
C364 C363 1.391 . S
C364 N365 1.334 . S
C364 H371 0.930 . S
N365 Zn349 2.119 1_455 S
N365 C361 1.328 1_455 S
N365 C364 1.334 . S
N366 C362 1.331 1_455 S
N366 C363 1.329 . S
H367 C361 0.930 . S
C368 O348 1.257 . S
C368 O369 1.244 . S
O369 C368 1.244 . S
O370 C346 1.257 . S
O370 Zn349 2.019 . S
H371 C364 0.930 . S
H372 C351 0.930 . S
H373 C363 0.930 . S
Zn374 N378 2.020 . S
Zn374 O382 2.019 . S
Zn374 N384 2.119 . S
Zn374 O392 1.975 . S
C375 N376 1.334 . S
C375 N379 1.336 . S
N376 C375 1.334 . S
N376 C377 1.334 . S
C377 N376 1.334 . S
C377 N378 1.336 . S
N378 Zn374 2.020 . S
N378 C377 1.336 . S
N378 N379 1.354 . S
N379 C375 1.336 . S
N379 N378 1.354 . S
N379 Zn383 2.020 . S
C380 O381 1.244 . S
C380 O404 1.257 . S
O381 C380 1.244 . S
O382 Zn374 2.019 . S
O382 C402 1.257 . S
Zn383 N379 2.020 . S
Zn383 O390 1.975 . S
Zn383 N399 2.119 . S
Zn383 O404 2.019 . S
N384 Zn374 2.119 . S
N384 C386 1.334 . S
N384 C387 1.328 . S
C385 C386 1.391 . S
C385 N388 1.329 . S
C385 H406 0.930 . S
C386 N384 1.334 . S
C386 C385 1.391 . S
C386 H393 0.930 . S
C387 N384 1.328 . S
C387 C389 1.392 . S
C387 H394 0.930 . S
N388 C385 1.329 . S
N388 C389 1.331 . S
C389 C387 1.392 . S
C389 N388 1.331 . S
O390 Zn383 1.975 . S
O390 C391 1.252 . S
C391 O390 1.252 . S
C391 O392 1.252 . S
O392 Zn374 1.975 . S
O392 C391 1.252 . S
H393 C386 0.930 . S
H394 C387 0.930 . S
C395 C396 1.392 . S
C395 N399 1.328 . S
C395 H401 0.930 . S
C396 C395 1.392 . S
C396 N400 1.331 . S
C397 C398 1.391 . S
C397 N400 1.329 . S
C397 H407 0.930 . S
C398 C397 1.391 . S
C398 N399 1.334 . S
C398 H405 0.930 . S
N399 Zn383 2.119 . S
N399 C395 1.328 . S
N399 C398 1.334 . S
N400 C396 1.331 . S
N400 C397 1.329 . S
H401 C395 0.930 . S
C402 O382 1.257 . S
C402 O403 1.244 . S
O403 C402 1.244 . S
O404 C380 1.257 . S
O404 Zn383 2.019 . S
H405 C398 0.930 . S
H406 C385 0.930 . S
H407 C397 0.930 . S
Zn408 N412 2.020 . S
Zn408 O416 2.019 . S
Zn408 N418 2.119 . S
Zn408 O426 1.975 . S
C409 N410 1.334 . S
C409 N413 1.336 . S
N410 C409 1.334 . S
N410 C411 1.334 . S
C411 N410 1.334 . S
C411 N412 1.336 . S
N412 Zn408 2.020 . S
N412 C411 1.336 . S
N412 N413 1.354 . S
N413 C409 1.336 . S
N413 N412 1.354 . S
N413 Zn417 2.020 . S
C414 O415 1.244 . S
C414 O438 1.257 . S
O415 C414 1.244 . S
O416 Zn408 2.019 . S
O416 C436 1.257 . S
Zn417 N413 2.020 . S
Zn417 O424 1.975 . S
Zn417 N433 2.119 . S
Zn417 O438 2.019 . S
N418 Zn408 2.119 . S
N418 C420 1.334 . S
N418 C421 1.328 . S
C419 C420 1.391 . S
C419 N422 1.329 . S
C419 H440 0.930 . S
C420 N418 1.334 . S
C420 C419 1.391 . S
C420 H427 0.930 . S
C421 N418 1.328 . S
C421 C423 1.392 . S
C421 H428 0.930 . S
N422 C419 1.329 . S
N422 C423 1.331 . S
C423 C421 1.392 . S
C423 N422 1.331 . S
O424 Zn417 1.975 . S
O424 C425 1.252 . S
C425 O424 1.252 . S
C425 O426 1.252 . S
O426 Zn408 1.975 . S
O426 C425 1.252 . S
H427 C420 0.930 . S
H428 C421 0.930 . S
C429 C430 1.392 . S
C429 N433 1.328 . S
C429 H435 0.930 . S
C430 C429 1.392 . S
C430 N434 1.331 . S
C431 C432 1.391 . S
C431 N434 1.329 . S
C431 H441 0.930 . S
C432 C431 1.391 . S
C432 N433 1.334 . S
C432 H439 0.930 . S
N433 Zn417 2.119 . S
N433 C429 1.328 . S
N433 C432 1.334 . S
N434 C430 1.331 . S
N434 C431 1.329 . S
H435 C429 0.930 . S
C436 O416 1.257 . S
C436 O437 1.244 . S
O437 C436 1.244 . S
O438 C414 1.257 . S
O438 Zn417 2.019 . S
H439 C432 0.930 . S
H440 C419 0.930 . S
H441 C431 0.930 . S
Zn442 N446 2.020 1_655 S
Zn442 O450 2.019 . S
Zn442 N452 2.119 1_655 S
Zn442 O460 1.975 1_655 S
C443 N444 1.334 . S
C443 N447 1.336 . S
N444 C443 1.334 . S
N444 C445 1.334 . S
C445 N444 1.334 . S
C445 N446 1.336 . S
N446 Zn442 2.020 1_455 S
N446 C445 1.336 . S
N446 N447 1.354 . S
N447 C443 1.336 . S
N447 N446 1.354 . S
N447 Zn451 2.020 . S
C448 O449 1.244 . S
C448 O472 1.257 . S
O449 C448 1.244 . S
O450 Zn442 2.019 . S
O450 C470 1.257 . S
Zn451 N447 2.020 . S
Zn451 O458 1.975 . S
Zn451 N467 2.119 . S
Zn451 O472 2.019 . S
N452 Zn442 2.119 1_455 S
N452 C454 1.334 . S
N452 C455 1.328 1_455 S
C453 C454 1.391 . S
C453 N456 1.329 . S
C453 H474 0.930 . S
C454 N452 1.334 . S
C454 C453 1.391 . S
C454 H461 0.930 . S
C455 N452 1.328 1_655 S
C455 C457 1.392 . S
C455 H462 0.930 . S
N456 C453 1.329 . S
N456 C457 1.331 1_455 S
C457 C455 1.392 . S
C457 N456 1.331 1_655 S
O458 Zn451 1.975 . S
O458 C459 1.252 . S
C459 O458 1.252 . S
C459 O460 1.252 . S
O460 Zn442 1.975 1_455 S
O460 C459 1.252 . S
H461 C454 0.930 . S
H462 C455 0.930 . S
C463 C464 1.392 . S
C463 N467 1.328 . S
C463 H469 0.930 . S
C464 C463 1.392 . S
C464 N468 1.331 . S
C465 C466 1.391 . S
C465 N468 1.329 . S
C465 H475 0.930 . S
C466 C465 1.391 . S
C466 N467 1.334 . S
C466 H473 0.930 . S
N467 Zn451 2.119 . S
N467 C463 1.328 . S
N467 C466 1.334 . S
N468 C464 1.331 . S
N468 C465 1.329 . S
H469 C463 0.930 . S
C470 O450 1.257 . S
C470 O471 1.244 . S
O471 C470 1.244 . S
O472 C448 1.257 . S
O472 Zn451 2.019 . S
H473 C466 0.930 . S
H474 C453 0.930 . S
H475 C465 0.930 . S
Zn476 N480 2.020 . S
Zn476 O484 2.019 . S
Zn476 N486 2.119 . S
Zn476 O494 1.975 . S
C477 N478 1.334 . S
C477 N481 1.336 . S
N478 C477 1.334 . S
N478 C479 1.334 . S
C479 N478 1.334 . S
C479 N480 1.336 . S
N480 Zn476 2.020 . S
N480 C479 1.336 . S
N480 N481 1.354 . S
N481 C477 1.336 . S
N481 N480 1.354 . S
N481 Zn485 2.020 1_655 S
C482 O483 1.244 . S
C482 O506 1.257 . S
O483 C482 1.244 . S
O484 Zn476 2.019 . S
O484 C504 1.257 . S
Zn485 N481 2.020 1_455 S
Zn485 O492 1.975 1_455 S
Zn485 N501 2.119 1_455 S
Zn485 O506 2.019 . S
N486 Zn476 2.119 . S
N486 C488 1.334 . S
N486 C489 1.328 . S
C487 C488 1.391 . S
C487 N490 1.329 . S
C487 H508 0.930 . S
C488 N486 1.334 . S
C488 C487 1.391 . S
C488 H495 0.930 . S
C489 N486 1.328 . S
C489 C491 1.392 . S
C489 H496 0.930 . S
N490 C487 1.329 . S
N490 C491 1.331 . S
C491 C489 1.392 . S
C491 N490 1.331 . S
O492 Zn485 1.975 1_655 S
O492 C493 1.252 . S
C493 O492 1.252 . S
C493 O494 1.252 . S
O494 Zn476 1.975 . S
O494 C493 1.252 . S
H495 C488 0.930 . S
H496 C489 0.930 . S
C497 C498 1.392 . S
C497 N501 1.328 1_455 S
C497 H503 0.930 . S
C498 C497 1.392 . S
C498 N502 1.331 1_455 S
C499 C500 1.391 . S
C499 N502 1.329 . S
C499 H509 0.930 . S
C500 C499 1.391 . S
C500 N501 1.334 . S
C500 H507 0.930 . S
N501 Zn485 2.119 1_655 S
N501 C497 1.328 1_655 S
N501 C500 1.334 . S
N502 C498 1.331 1_655 S
N502 C499 1.329 . S
H503 C497 0.930 . S
C504 O484 1.257 . S
C504 O505 1.244 . S
O505 C504 1.244 . S
O506 C482 1.257 . S
O506 Zn485 2.019 . S
H507 C500 0.930 . S
H508 C487 0.930 . S
H509 C499 0.930 . S
Zn510 N514 2.020 . S
Zn510 O518 2.019 . S
Zn510 N520 2.119 . S
Zn510 O528 1.975 . S
C511 N512 1.334 . S
C511 N515 1.336 . S
N512 C511 1.334 . S
N512 C513 1.334 . S
C513 N512 1.334 . S
C513 N514 1.336 . S
N514 Zn510 2.020 . S
N514 C513 1.336 . S
N514 N515 1.354 . S
N515 C511 1.336 . S
N515 N514 1.354 . S
N515 Zn519 2.020 . S
C516 O517 1.244 . S
C516 O540 1.257 . S
O517 C516 1.244 . S
O518 Zn510 2.019 . S
O518 C538 1.257 . S
Zn519 N515 2.020 . S
Zn519 O526 1.975 . S
Zn519 N535 2.119 . S
Zn519 O540 2.019 . S
N520 Zn510 2.119 . S
N520 C522 1.334 . S
N520 C523 1.328 . S
C521 C522 1.391 . S
C521 N524 1.329 . S
C521 H542 0.930 . S
C522 N520 1.334 . S
C522 C521 1.391 . S
C522 H529 0.930 . S
C523 N520 1.328 . S
C523 C525 1.392 . S
C523 H530 0.930 . S
N524 C521 1.329 . S
N524 C525 1.331 . S
C525 C523 1.392 . S
C525 N524 1.331 . S
O526 Zn519 1.975 . S
O526 C527 1.252 . S
C527 O526 1.252 . S
C527 O528 1.252 . S
O528 Zn510 1.975 . S
O528 C527 1.252 . S
H529 C522 0.930 . S
H530 C523 0.930 . S
C531 C532 1.392 . S
C531 N535 1.328 . S
C531 H537 0.930 . S
C532 C531 1.392 . S
C532 N536 1.331 . S
C533 C534 1.391 . S
C533 N536 1.329 . S
C533 H543 0.930 . S
C534 C533 1.391 . S
C534 N535 1.334 . S
C534 H541 0.930 . S
N535 Zn519 2.119 . S
N535 C531 1.328 . S
N535 C534 1.334 . S
N536 C532 1.331 . S
N536 C533 1.329 . S
H537 C531 0.930 . S
C538 O518 1.257 . S
C538 O539 1.244 . S
O539 C538 1.244 . S
O540 C516 1.257 . S
O540 Zn519 2.019 . S
H541 C534 0.930 . S
H542 C521 0.930 . S
H543 C533 0.930 . S
H544 C552 0.950 . S
H545 C557 0.950 . S
H546 C554 0.950 . S
H547 C556 0.950 . S
H548 C558 0.950 . S
H549 C560 0.950 . S
H550 C562 0.950 . S
H551 C563 0.950 . S
C552 H544 0.950 . S
C552 C553 1.386 . S
C552 C554 1.391 . S
C553 C552 1.386 . S
C553 C557 1.393 . S
C554 H546 0.950 . S
C554 C552 1.391 . S
C554 C555 1.400 . S
C555 C554 1.400 . S
C555 C556 1.398 . S
C555 C561 1.491 . S
C556 H547 0.950 . S
C556 C555 1.398 . S
C556 C557 1.391 . S
C557 H545 0.950 . S
C557 C553 1.393 . S
C557 C556 1.391 . S
C558 H548 0.950 . S
C558 C559 1.386 . S
C558 C560 1.391 . S
C559 C558 1.386 . S
C559 C563 1.393 . S
C560 H549 0.950 . S
C560 C558 1.391 . S
C560 C561 1.400 . S
C561 C555 1.491 . S
C561 C560 1.400 . S
C561 C562 1.398 . S
C562 H550 0.950 . S
C562 C561 1.398 . S
C562 C563 1.391 . S
C563 H551 0.950 . S
C563 C559 1.393 . S
C563 C562 1.391 . S
H564 C572 0.950 . S
H565 C577 0.950 . S
H566 C574 0.943 1_655 S
H567 C576 0.950 . S
H568 C578 0.950 . S
H569 C580 0.950 . S
H570 C582 0.950 . S
H571 C583 0.950 . S
C572 H564 0.950 . S
C572 C573 1.386 . S
C572 C574 1.408 . S
C573 C572 1.386 . S
C573 C577 1.393 . S
C574 H566 0.943 1_455 S
C574 C572 1.408 . S
C574 C575 1.391 1_455 S
C575 C574 1.391 1_655 S
C575 C576 1.398 . S
C575 C581 1.491 . S
C576 H567 0.950 . S
C576 C575 1.398 . S
C576 C577 1.391 1_655 S
C577 H565 0.950 . S
C577 C573 1.393 . S
C577 C576 1.391 1_455 S
C578 H568 0.950 . S
C578 C579 1.386 . S
C578 C580 1.391 . S
C579 C578 1.386 . S
C579 C583 1.393 . S
C580 H569 0.950 . S
C580 C578 1.391 . S
C580 C581 1.400 . S
C581 C575 1.491 . S
C581 C580 1.400 . S
C581 C582 1.398 . S
C582 H570 0.950 . S
C582 C581 1.398 . S
C582 C583 1.391 . S
C583 H571 0.950 . S
C583 C579 1.393 . S
C583 C582 1.391 . S
H584 C592 0.950 . S
H585 C597 0.950 . S
H586 C594 0.950 . S
H587 C596 0.946 1_455 S
H588 C598 0.950 . S
H589 C600 0.950 . S
H590 C602 0.950 . S
H591 C603 0.950 . S
C592 H584 0.950 . S
C592 C593 1.386 . S
C592 C594 1.391 1_655 S
C593 C592 1.386 . S
C593 C597 1.393 . S
C594 H586 0.950 . S
C594 C592 1.391 1_455 S
C594 C595 1.400 . S
C595 C594 1.400 . S
C595 C596 1.394 1_455 S
C595 C601 1.491 . S
C596 H587 0.946 1_655 S
C596 C595 1.394 1_655 S
C596 C597 1.399 . S
C597 H585 0.950 . S
C597 C593 1.393 . S
C597 C596 1.399 . S
C598 H588 0.950 . S
C598 C599 1.386 . S
C598 C600 1.391 . S
C599 C598 1.386 . S
C599 C603 1.393 . S
C600 H589 0.950 . S
C600 C598 1.391 . S
C600 C601 1.400 . S
C601 C595 1.491 . S
C601 C600 1.400 . S
C601 C602 1.398 . S
C602 H590 0.950 . S
C602 C601 1.398 . S
C602 C603 1.391 . S
C603 H591 0.950 . S
C603 C599 1.393 . S
C603 C602 1.391 . S
H604 C612 0.950 . S
H605 C617 0.950 . S
H606 C614 0.950 . S
H607 C616 0.950 . S
H608 C618 0.950 . S
H609 C620 0.950 . S
H610 C622 0.950 . S
H611 C623 0.950 . S
C612 H604 0.950 . S
C612 C613 1.386 . S
C612 C614 1.391 . S
C613 C612 1.386 . S
C613 C617 1.393 . S
C614 H606 0.950 . S
C614 C612 1.391 . S
C614 C615 1.400 . S
C615 C614 1.400 . S
C615 C616 1.398 . S
C615 C621 1.491 . S
C616 H607 0.950 . S
C616 C615 1.398 . S
C616 C617 1.391 . S
C617 H605 0.950 . S
C617 C613 1.393 . S
C617 C616 1.391 . S
C618 H608 0.950 . S
C618 C619 1.386 . S
C618 C620 1.391 . S
C619 C618 1.386 . S
C619 C623 1.393 . S
C620 H609 0.950 . S
C620 C618 1.391 . S
C620 C621 1.400 . S
C621 C615 1.491 . S
C621 C620 1.400 . S
C621 C622 1.398 . S
C622 H610 0.950 . S
C622 C621 1.398 . S
C622 C623 1.391 . S
C623 H611 0.950 . S
C623 C619 1.393 . S
C623 C622 1.391 . S
H624 C632 0.950 . S
H625 C637 0.950 . S
H626 C634 0.950 . S
H627 C636 0.950 . S
H628 C638 0.950 . S
H629 C640 0.950 . S
H630 C642 0.950 . S
H631 C643 0.950 . S
C632 H624 0.950 . S
C632 C633 1.386 . S
C632 C634 1.391 . S
C633 C632 1.386 . S
C633 C637 1.393 . S
C634 H626 0.950 . S
C634 C632 1.391 . S
C634 C635 1.400 . S
C635 C634 1.400 . S
C635 C636 1.398 . S
C635 C641 1.491 . S
C636 H627 0.950 . S
C636 C635 1.398 . S
C636 C637 1.391 . S
C637 H625 0.950 . S
C637 C633 1.393 . S
C637 C636 1.391 . S
C638 H628 0.950 . S
C638 C639 1.386 . S
C638 C640 1.391 . S
C639 C638 1.386 . S
C639 C643 1.393 . S
C640 H629 0.950 . S
C640 C638 1.391 . S
C640 C641 1.400 . S
C641 C635 1.491 . S
C641 C640 1.400 . S
C641 C642 1.398 . S
C642 H630 0.950 . S
C642 C641 1.398 . S
C642 C643 1.391 . S
C643 H631 0.950 . S
C643 C639 1.393 . S
C643 C642 1.391 . S
H644 C652 0.950 . S
H645 C657 0.950 . S
H646 C654 0.950 . S
H647 C656 0.950 . S
H648 C658 0.950 . S
H649 C660 0.950 . S
H650 C662 0.950 1_455 S
H651 C663 0.950 . S
C652 H644 0.950 . S
C652 C653 1.386 . S
C652 C654 1.391 . S
C653 C652 1.386 . S
C653 C657 1.393 . S
C654 H646 0.950 . S
C654 C652 1.391 . S
C654 C655 1.400 . S
C655 C654 1.400 . S
C655 C656 1.398 . S
C655 C661 1.491 . S
C656 H647 0.950 . S
C656 C655 1.398 . S
C656 C657 1.391 . S
C657 H645 0.950 . S
C657 C653 1.393 . S
C657 C656 1.391 . S
C658 H648 0.950 . S
C658 C659 1.386 . S
C658 C660 1.391 1_655 S
C659 C658 1.386 . S
C659 C663 1.393 . S
C660 H649 0.950 . S
C660 C658 1.391 1_455 S
C660 C661 1.400 . S
C661 C655 1.491 . S
C661 C660 1.400 . S
C661 C662 1.398 1_455 S
C662 H650 0.950 1_655 S
C662 C661 1.398 1_655 S
C662 C663 1.391 . S
C663 H651 0.950 . S
C663 C659 1.393 . S
C663 C662 1.391 . S
H664 C672 0.950 . S
H665 C677 0.950 . S
H666 C674 0.950 . S
H667 C676 0.950 . S
H668 C678 0.950 . S
H669 C680 0.950 . S
H670 C682 0.949 . S
H671 C683 0.950 . S
C672 H664 0.950 . S
C672 C673 1.386 . S
C672 C674 1.391 . S
C673 C672 1.386 . S
C673 C677 1.393 . S
C674 H666 0.950 . S
C674 C672 1.391 . S
C674 C675 1.400 . S
C675 C674 1.400 . S
C675 C676 1.398 . S
C675 C681 1.491 . S
C676 H667 0.950 . S
C676 C675 1.398 . S
C676 C677 1.391 . S
C677 H665 0.950 . S
C677 C673 1.393 . S
C677 C676 1.391 . S
C678 H668 0.950 . S
C678 C679 1.386 . S
C678 C680 1.391 1_455 S
C679 C678 1.386 . S
C679 C683 1.393 . S
C680 H669 0.950 . S
C680 C678 1.391 1_655 S
C680 C681 1.400 . S
C681 C675 1.491 . S
C681 C680 1.400 . S
C681 C682 1.397 . S
C682 H670 0.949 . S
C682 C681 1.397 . S
C682 C683 1.392 1_655 S
C683 H671 0.950 . S
C683 C679 1.393 . S
C683 C682 1.392 1_455 S
H684 C692 0.950 . S
H685 C697 0.950 . S
H686 C694 0.950 . S
H687 C696 0.950 . S
H688 C698 0.950 . S
H689 C700 0.950 . S
H690 C702 0.950 . S
H691 C703 0.950 . S
C692 H684 0.950 . S
C692 C693 1.386 . S
C692 C694 1.391 . S
C693 C692 1.386 . S
C693 C697 1.393 . S
C694 H686 0.950 . S
C694 C692 1.391 . S
C694 C695 1.400 . S
C695 C694 1.400 . S
C695 C696 1.398 . S
C695 C701 1.491 . S
C696 H687 0.950 . S
C696 C695 1.398 . S
C696 C697 1.391 . S
C697 H685 0.950 . S
C697 C693 1.393 . S
C697 C696 1.391 . S
C698 H688 0.950 . S
C698 C699 1.386 . S
C698 C700 1.391 . S
C699 C698 1.386 . S
C699 C703 1.393 . S
C700 H689 0.950 . S
C700 C698 1.391 . S
C700 C701 1.400 . S
C701 C695 1.491 . S
C701 C700 1.400 . S
C701 C702 1.398 . S
C702 H690 0.950 . S
C702 C701 1.398 . S
C702 C703 1.391 . S
C703 H691 0.950 . S
C703 C699 1.393 . S
C703 C702 1.391 . S
H704 C712 0.950 . S
H705 C717 0.950 . S
H706 C714 0.950 . S
H707 C716 0.949 1_455 S
H708 C718 0.950 . S
H709 C720 0.950 . S
H710 C722 0.950 . S
H711 C723 0.950 . S
C712 H704 0.950 . S
C712 C713 1.386 . S
C712 C714 1.391 1_655 S
C713 C712 1.386 . S
C713 C717 1.393 . S
C714 H706 0.950 . S
C714 C712 1.391 1_455 S
C714 C715 1.400 . S
C715 C714 1.400 . S
C715 C716 1.397 1_455 S
C715 C721 1.491 . S
C716 H707 0.949 1_655 S
C716 C715 1.397 1_655 S
C716 C717 1.393 . S
C717 H705 0.950 . S
C717 C713 1.393 . S
C717 C716 1.393 . S
C718 H708 0.950 . S
C718 C719 1.386 . S
C718 C720 1.391 . S
C719 C718 1.386 . S
C719 C723 1.393 . S
C720 H709 0.950 . S
C720 C718 1.391 . S
C720 C721 1.400 . S
C721 C715 1.491 . S
C721 C720 1.400 . S
C721 C722 1.398 . S
C722 H710 0.950 . S
C722 C721 1.398 . S
C722 C723 1.391 . S
C723 H711 0.950 . S
C723 C719 1.393 . S
C723 C722 1.391 . S
H724 C732 0.950 . S
H725 C737 0.950 . S
H726 C734 0.950 . S
H727 C736 0.950 . S
H728 C738 0.950 . S
H729 C740 0.950 . S
H730 C742 0.950 . S
H731 C743 0.950 . S
C732 H724 0.950 . S
C732 C733 1.386 . S
C732 C734 1.391 . S
C733 C732 1.386 . S
C733 C737 1.393 . S
C734 H726 0.950 . S
C734 C732 1.391 . S
C734 C735 1.400 . S
C735 C734 1.400 . S
C735 C736 1.398 . S
C735 C741 1.491 . S
C736 H727 0.950 . S
C736 C735 1.398 . S
C736 C737 1.391 . S
C737 H725 0.950 . S
C737 C733 1.393 . S
C737 C736 1.391 . S
C738 H728 0.950 . S
C738 C739 1.386 . S
C738 C740 1.391 . S
C739 C738 1.386 . S
C739 C743 1.393 . S
C740 H729 0.950 . S
C740 C738 1.391 . S
C740 C741 1.400 . S
C741 C735 1.491 . S
C741 C740 1.400 . S
C741 C742 1.398 . S
C742 H730 0.950 . S
C742 C741 1.398 . S
C742 C743 1.391 . S
C743 H731 0.950 . S
C743 C739 1.393 . S
C743 C742 1.391 . S
H744 C752 0.950 . S
H745 C757 0.950 . S
H746 C754 0.950 . S
H747 C756 0.950 . S
H748 C758 0.950 . S
H749 C760 0.950 . S
H750 C762 0.950 . S
H751 C763 0.950 . S
C752 H744 0.950 . S
C752 C753 1.386 . S
C752 C754 1.391 . S
C753 C752 1.386 . S
C753 C757 1.393 . S
C754 H746 0.950 . S
C754 C752 1.391 . S
C754 C755 1.400 . S
C755 C754 1.400 . S
C755 C756 1.398 . S
C755 C761 1.491 . S
C756 H747 0.950 . S
C756 C755 1.398 . S
C756 C757 1.391 . S
C757 H745 0.950 . S
C757 C753 1.393 . S
C757 C756 1.391 . S
C758 H748 0.950 . S
C758 C759 1.386 . S
C758 C760 1.391 . S
C759 C758 1.386 . S
C759 C763 1.393 . S
C760 H749 0.950 . S
C760 C758 1.391 . S
C760 C761 1.400 . S
C761 C755 1.491 . S
C761 C760 1.400 . S
C761 C762 1.398 . S
C762 H750 0.950 . S
C762 C761 1.398 . S
C762 C763 1.391 . S
C763 H751 0.950 . S
C763 C759 1.393 . S
C763 C762 1.391 . S
H764 C772 0.950 . S
H765 C777 0.950 . S
H766 C774 0.950 . S
H767 C776 0.950 . S
H768 C778 0.950 . S
H769 C780 0.950 . S
H770 C782 0.950 . S
H771 C783 0.950 . S
C772 H764 0.950 . S
C772 C773 1.386 . S
C772 C774 1.391 1_455 S
C773 C772 1.386 . S
C773 C777 1.393 . S
C774 H766 0.950 . S
C774 C772 1.391 1_655 S
C774 C775 1.400 . S
C775 C774 1.400 . S
C775 C776 1.398 . S
C775 C781 1.491 . S
C776 H767 0.950 . S
C776 C775 1.398 . S
C776 C777 1.391 1_655 S
C777 H765 0.950 . S
C777 C773 1.393 . S
C777 C776 1.391 1_455 S
C778 H768 0.950 . S
C778 C779 1.386 . S
C778 C780 1.391 . S
C779 C778 1.386 . S
C779 C783 1.393 . S
C780 H769 0.950 . S
C780 C778 1.391 . S
C780 C781 1.400 . S
C781 C775 1.491 . S
C781 C780 1.400 . S
C781 C782 1.398 . S
C782 H770 0.950 . S
C782 C781 1.398 . S
C782 C783 1.391 . S
C783 H771 0.950 . S
C783 C779 1.393 . S
C783 C782 1.391 . S
H784 C792 0.950 . S
H785 C797 0.950 . S
H786 C794 0.950 . S
H787 C796 0.954 . S
H788 C798 0.950 . S
H789 C800 0.950 . S
H790 C802 0.950 . S
H791 C803 0.950 . S
C792 H784 0.950 . S
C792 C793 1.386 . S
C792 C794 1.391 1_455 S
C793 C792 1.386 . S
C793 C797 1.393 . S
C794 H786 0.950 . S
C794 C792 1.391 1_655 S
C794 C795 1.400 . S
C795 C794 1.400 . S
C795 C796 1.403 . S
C795 C801 1.491 . S
C796 H787 0.954 . S
C796 C795 1.403 . S
C796 C797 1.382 1_655 S
C797 H785 0.950 . S
C797 C793 1.393 . S
C797 C796 1.382 1_455 S
C798 H788 0.950 . S
C798 C799 1.386 . S
C798 C800 1.391 . S
C799 C798 1.386 . S
C799 C803 1.393 . S
C800 H789 0.950 . S
C800 C798 1.391 . S
C800 C801 1.400 . S
C801 C795 1.491 . S
C801 C800 1.400 . S
C801 C802 1.398 . S
C802 H790 0.950 . S
C802 C801 1.398 . S
C802 C803 1.391 . S
C803 H791 0.950 . S
C803 C799 1.393 . S
C803 C802 1.391 . S
H804 C812 0.950 . S
H805 C817 0.950 . S
H806 C814 0.950 . S
H807 C816 0.950 . S
H808 C818 0.950 . S
H809 C820 0.950 . S
H810 C822 0.950 . S
H811 C823 0.950 . S
C812 H804 0.950 . S
C812 C813 1.386 . S
C812 C814 1.391 . S
C813 C812 1.386 . S
C813 C817 1.393 . S
C814 H806 0.950 . S
C814 C812 1.391 . S
C814 C815 1.400 . S
C815 C814 1.400 . S
C815 C816 1.398 . S
C815 C821 1.491 . S
C816 H807 0.950 . S
C816 C815 1.398 . S
C816 C817 1.391 . S
C817 H805 0.950 . S
C817 C813 1.393 . S
C817 C816 1.391 . S
C818 H808 0.950 . S
C818 C819 1.386 . S
C818 C820 1.391 . S
C819 C818 1.386 . S
C819 C823 1.393 . S
C820 H809 0.950 . S
C820 C818 1.391 . S
C820 C821 1.400 . S
C821 C815 1.491 . S
C821 C820 1.400 . S
C821 C822 1.398 . S
C822 H810 0.950 . S
C822 C821 1.398 . S
C822 C823 1.391 . S
C823 H811 0.950 . S
C823 C819 1.393 . S
C823 C822 1.391 . S
H824 C832 0.950 . S
H825 C837 0.950 . S
H826 C834 0.950 . S
H827 C836 0.950 . S
H828 C838 0.950 . S
H829 C840 0.950 . S
H830 C842 0.950 . S
H831 C843 0.950 . S
C832 H824 0.950 . S
C832 C833 1.386 . S
C832 C834 1.391 . S
C833 C832 1.386 . S
C833 C837 1.393 . S
C834 H826 0.950 . S
C834 C832 1.391 . S
C834 C835 1.400 . S
C835 C834 1.400 . S
C835 C836 1.398 . S
C835 C841 1.491 . S
C836 H827 0.950 . S
C836 C835 1.398 . S
C836 C837 1.391 . S
C837 H825 0.950 . S
C837 C833 1.393 . S
C837 C836 1.391 . S
C838 H828 0.950 . S
C838 C839 1.386 . S
C838 C840 1.391 . S
C839 C838 1.386 . S
C839 C843 1.393 . S
C840 H829 0.950 . S
C840 C838 1.391 . S
C840 C841 1.400 . S
C841 C835 1.491 . S
C841 C840 1.400 . S
C841 C842 1.398 . S
C842 H830 0.950 . S
C842 C841 1.398 . S
C842 C843 1.391 . S
C843 H831 0.950 . S
C843 C839 1.393 . S
C843 C842 1.391 . S
H844 C852 0.950 . S
H845 C857 0.950 . S
H846 C854 0.950 . S
H847 C856 0.950 . S
H848 C858 0.950 . S
H849 C860 0.950 . S
H850 C862 0.950 . S
H851 C863 0.950 . S
C852 H844 0.950 . S
C852 C853 1.386 . S
C852 C854 1.391 . S
C853 C852 1.386 . S
C853 C857 1.393 . S
C854 H846 0.950 . S
C854 C852 1.391 . S
C854 C855 1.400 . S
C855 C854 1.400 . S
C855 C856 1.398 . S
C855 C861 1.491 . S
C856 H847 0.950 . S
C856 C855 1.398 . S
C856 C857 1.391 . S
C857 H845 0.950 . S
C857 C853 1.393 . S
C857 C856 1.391 . S
C858 H848 0.950 . S
C858 C859 1.386 . S
C858 C860 1.391 1_655 S
C859 C858 1.386 . S
C859 C863 1.393 . S
C860 H849 0.950 . S
C860 C858 1.391 1_455 S
C860 C861 1.400 . S
C861 C855 1.491 . S
C861 C860 1.400 . S
C861 C862 1.398 . S
C862 H850 0.950 . S
C862 C861 1.398 . S
C862 C863 1.391 1_455 S
C863 H851 0.950 . S
C863 C859 1.393 . S
C863 C862 1.391 1_655 S
H864 C872 0.950 . S
H865 C877 0.950 . S
H866 C874 0.950 . S
H867 C876 0.950 1_556 S
H868 C878 0.950 . S
H869 C880 0.950 . S
H870 C882 0.950 1_554 S
H871 C883 0.950 . S
C872 H864 0.950 . S
C872 C873 1.386 . S
C872 C874 1.391 . S
C873 C872 1.386 . S
C873 C877 1.393 . S
C874 H866 0.950 . S
C874 C872 1.391 . S
C874 C875 1.400 . S
C875 C874 1.400 . S
C875 C876 1.398 . S
C875 C881 1.491 1_554 S
C876 H867 0.950 1_554 S
C876 C875 1.398 . S
C876 C877 1.391 . S
C877 H865 0.950 . S
C877 C873 1.393 . S
C877 C876 1.391 . S
C878 H868 0.950 . S
C878 C879 1.386 . S
C878 C880 1.391 . S
C879 C878 1.386 . S
C879 C883 1.393 . S
C880 H869 0.950 . S
C880 C878 1.391 . S
C880 C881 1.400 . S
C881 C875 1.491 1_556 S
C881 C880 1.400 . S
C881 C882 1.398 . S
C882 H870 0.950 1_556 S
C882 C881 1.398 . S
C882 C883 1.391 . S
C883 H871 0.950 . S
C883 C879 1.393 . S
C883 C882 1.391 . S
H884 C892 0.950 . S
H885 C897 0.950 . S
H886 C894 0.950 . S
H887 C896 0.950 . S
H888 C898 0.950 1_655 S
H889 C900 0.950 . S
H890 C902 0.950 . S
H891 C903 0.950 . S
C892 H884 0.950 . S
C892 C893 1.386 . S
C892 C894 1.391 . S
C893 C892 1.386 . S
C893 C897 1.393 . S
C894 H886 0.950 . S
C894 C892 1.391 . S
C894 C895 1.400 . S
C895 C894 1.400 . S
C895 C896 1.398 . S
C895 C901 1.491 1_554 S
C896 H887 0.950 . S
C896 C895 1.398 . S
C896 C897 1.391 . S
C897 H885 0.950 . S
C897 C893 1.393 . S
C897 C896 1.391 . S
C898 H888 0.950 1_455 S
C898 C899 1.386 . S
C898 C900 1.391 . S
C899 C898 1.386 . S
C899 C903 1.393 . S
C900 H889 0.950 . S
C900 C898 1.391 . S
C900 C901 1.400 . S
C901 C895 1.491 1_556 S
C901 C900 1.400 . S
C901 C902 1.398 . S
C902 H890 0.950 . S
C902 C901 1.398 . S
C902 C903 1.391 . S
C903 H891 0.950 . S
C903 C899 1.393 . S
C903 C902 1.391 . S
H904 C912 0.950 . S
H905 C917 0.950 . S
H906 C914 0.950 . S
H907 C916 0.950 . S
H908 C918 0.950 . S
H909 C920 0.950 . S
H910 C922 0.950 . S
H911 C923 0.950 1_455 S
C912 H904 0.950 . S
C912 C913 1.386 . S
C912 C914 1.391 . S
C913 C912 1.386 . S
C913 C917 1.393 . S
C914 H906 0.950 . S
C914 C912 1.391 . S
C914 C915 1.400 . S
C915 C914 1.400 . S
C915 C916 1.398 . S
C915 C921 1.491 . S
C916 H907 0.950 . S
C916 C915 1.398 . S
C916 C917 1.391 . S
C917 H905 0.950 . S
C917 C913 1.393 . S
C917 C916 1.391 . S
C918 H908 0.950 . S
C918 C919 1.386 . S
C918 C920 1.391 . S
C919 C918 1.386 . S
C919 C923 1.393 . S
C920 H909 0.950 . S
C920 C918 1.391 . S
C920 C921 1.400 . S
C921 C915 1.491 . S
C921 C920 1.400 . S
C921 C922 1.398 . S
C922 H910 0.950 . S
C922 C921 1.398 . S
C922 C923 1.391 . S
C923 H911 0.950 1_655 S
C923 C919 1.393 . S
C923 C922 1.391 . S
H924 C932 0.950 . S
H925 C937 0.950 . S
H926 C934 0.950 . S
H927 C936 0.950 . S
H928 C938 0.950 . S
H929 C940 0.950 . S
H930 C942 0.950 . S
H931 C943 0.950 . S
C932 H924 0.950 . S
C932 C933 1.386 . S
C932 C934 1.391 . S
C933 C932 1.386 . S
C933 C937 1.393 . S
C934 H926 0.950 . S
C934 C932 1.391 . S
C934 C935 1.400 . S
C935 C934 1.400 . S
C935 C936 1.398 . S
C935 C941 1.491 . S
C936 H927 0.950 . S
C936 C935 1.398 . S
C936 C937 1.391 . S
C937 H925 0.950 . S
C937 C933 1.393 . S
C937 C936 1.391 . S
C938 H928 0.950 . S
C938 C939 1.386 . S
C938 C940 1.391 . S
C939 C938 1.386 . S
C939 C943 1.393 . S
C940 H929 0.950 . S
C940 C938 1.391 . S
C940 C941 1.400 . S
C941 C935 1.491 . S
C941 C940 1.400 . S
C941 C942 1.398 . S
C942 H930 0.950 . S
C942 C941 1.398 . S
C942 C943 1.391 . S
C943 H931 0.950 . S
C943 C939 1.393 . S
C943 C942 1.391 . S
H944 C952 0.950 . S
H945 C957 0.950 . S
H946 C954 0.950 1_554 S
H947 C956 0.950 . S
H948 C958 0.950 . S
H949 C960 0.950 1_556 S
H950 C962 0.950 . S
H951 C963 0.950 . S
C952 H944 0.950 . S
C952 C953 1.386 . S
C952 C954 1.391 . S
C953 C952 1.386 . S
C953 C957 1.393 . S
C954 H946 0.950 1_556 S
C954 C952 1.391 . S
C954 C955 1.400 . S
C955 C954 1.400 . S
C955 C956 1.398 . S
C955 C961 1.491 1_556 S
C956 H947 0.950 . S
C956 C955 1.398 . S
C956 C957 1.391 . S
C957 H945 0.950 . S
C957 C953 1.393 . S
C957 C956 1.391 . S
C958 H948 0.950 . S
C958 C959 1.386 . S
C958 C960 1.391 . S
C959 C958 1.386 . S
C959 C963 1.393 . S
C960 H949 0.950 1_554 S
C960 C958 1.391 . S
C960 C961 1.400 . S
C961 C955 1.491 1_554 S
C961 C960 1.400 . S
C961 C962 1.398 . S
C962 H950 0.950 . S
C962 C961 1.398 . S
C962 C963 1.391 . S
C963 H951 0.950 . S
C963 C959 1.393 . S
C963 C962 1.391 . S
H964 C972 0.950 . S
H965 C977 0.950 . S
H966 C974 0.950 . S
H967 C976 0.950 1_554 S
H968 C978 0.950 . S
H969 C980 0.950 . S
H970 C982 0.950 1_556 S
H971 C983 0.950 . S
C972 H964 0.950 . S
C972 C973 1.386 . S
C972 C974 1.391 . S
C973 C972 1.386 . S
C973 C977 1.393 . S
C974 H966 0.950 . S
C974 C972 1.391 . S
C974 C975 1.400 . S
C975 C974 1.400 . S
C975 C976 1.398 . S
C975 C981 1.491 1_556 S
C976 H967 0.950 1_556 S
C976 C975 1.398 . S
C976 C977 1.391 . S
C977 H965 0.950 . S
C977 C973 1.393 . S
C977 C976 1.391 . S
C978 H968 0.950 . S
C978 C979 1.386 . S
C978 C980 1.391 . S
C979 C978 1.386 . S
C979 C983 1.393 . S
C980 H969 0.950 . S
C980 C978 1.391 . S
C980 C981 1.400 . S
C981 C975 1.491 1_554 S
C981 C980 1.400 . S
C981 C982 1.398 . S
C982 H970 0.950 1_554 S
C982 C981 1.398 . S
C982 C983 1.391 . S
C983 H971 0.950 . S
C983 C979 1.393 . S
C983 C982 1.391 . S
H984 C992 0.950 1_655 S
H985 C997 0.950 . S
H986 C994 0.950 . S
H987 C996 0.950 . S
H988 C998 0.950 . S
H989 C1000 0.950 . S
H990 C1002 0.950 . S
H991 C1003 0.950 . S
C992 H984 0.950 1_455 S
C992 C993 1.386 . S
C992 C994 1.391 . S
C993 C992 1.386 . S
C993 C997 1.393 . S
C994 H986 0.950 . S
C994 C992 1.391 . S
C994 C995 1.400 . S
C995 C994 1.400 . S
C995 C996 1.398 . S
C995 C1001 1.491 . S
C996 H987 0.950 . S
C996 C995 1.398 . S
C996 C997 1.391 . S
C997 H985 0.950 . S
C997 C993 1.393 . S
C997 C996 1.391 . S
C998 H988 0.950 . S
C998 C999 1.386 . S
C998 C1000 1.391 . S
C999 C998 1.386 . S
C999 C1003 1.393 . S
C1000 H989 0.950 . S
C1000 C998 1.391 . S
C1000 C1001 1.400 . S
C1001 C995 1.491 . S
C1001 C1000 1.400 . S
C1001 C1002 1.398 . S
C1002 H990 0.950 . S
C1002 C1001 1.398 . S
C1002 C1003 1.391 . S
C1003 H991 0.950 . S
C1003 C999 1.393 . S
C1003 C1002 1.391 . S
H1004 C1012 0.950 . S
H1005 C1017 0.950 . S
H1006 C1014 0.950 . S
H1007 C1016 0.950 . S
H1008 C1018 0.950 . S
H1009 C1020 0.950 . S
H1010 C1022 0.950 . S
H1011 C1023 0.950 . S
C1012 H1004 0.950 . S
C1012 C1013 1.386 . S
C1012 C1014 1.391 . S
C1013 C1012 1.386 . S
C1013 C1017 1.393 . S
C1014 H1006 0.950 . S
C1014 C1012 1.391 . S
C1014 C1015 1.400 . S
C1015 C1014 1.400 . S
C1015 C1016 1.398 . S
C1015 C1021 1.491 . S
C1016 H1007 0.950 . S
C1016 C1015 1.398 . S
C1016 C1017 1.391 . S
C1017 H1005 0.950 . S
C1017 C1013 1.393 . S
C1017 C1016 1.391 . S
C1018 H1008 0.950 . S
C1018 C1019 1.386 . S
C1018 C1020 1.391 . S
C1019 C1018 1.386 . S
C1019 C1023 1.393 . S
C1020 H1009 0.950 . S
C1020 C1018 1.391 . S
C1020 C1021 1.400 . S
C1021 C1015 1.491 . S
C1021 C1020 1.400 . S
C1021 C1022 1.398 . S
C1022 H1010 0.950 . S
C1022 C1021 1.398 . S
C1022 C1023 1.391 . S
C1023 H1011 0.950 . S
C1023 C1019 1.393 . S
C1023 C1022 1.391 . S
H1024 C1032 0.950 . S
H1025 C1037 0.950 . S
H1026 C1034 0.950 . S
H1027 C1036 0.950 1_556 S
H1028 C1038 0.950 . S
H1029 C1040 0.950 . S
H1030 C1042 0.950 1_554 S
H1031 C1043 0.950 1_455 S
C1032 H1024 0.950 . S
C1032 C1033 1.386 . S
C1032 C1034 1.391 . S
C1033 C1032 1.386 . S
C1033 C1037 1.393 . S
C1034 H1026 0.950 . S
C1034 C1032 1.391 . S
C1034 C1035 1.400 . S
C1035 C1034 1.400 . S
C1035 C1036 1.398 . S
C1035 C1041 1.491 1_554 S
C1036 H1027 0.950 1_554 S
C1036 C1035 1.398 . S
C1036 C1037 1.391 . S
C1037 H1025 0.950 . S
C1037 C1033 1.393 . S
C1037 C1036 1.391 . S
C1038 H1028 0.950 . S
C1038 C1039 1.386 . S
C1038 C1040 1.391 . S
C1039 C1038 1.386 . S
C1039 C1043 1.393 . S
C1040 H1029 0.950 . S
C1040 C1038 1.391 . S
C1040 C1041 1.400 . S
C1041 C1035 1.491 1_556 S
C1041 C1040 1.400 . S
C1041 C1042 1.398 . S
C1042 H1030 0.950 1_556 S
C1042 C1041 1.398 . S
C1042 C1043 1.391 . S
C1043 H1031 0.950 1_655 S
C1043 C1039 1.393 . S
C1043 C1042 1.391 . S
H1044 C1052 0.950 . S
H1045 C1057 0.950 . S
H1046 C1054 0.950 1_554 S
H1047 C1056 0.950 . S
H1048 C1058 0.950 . S
H1049 C1060 0.950 1_556 S
H1050 C1062 0.950 . S
H1051 C1063 0.950 . S
C1052 H1044 0.950 . S
C1052 C1053 1.386 . S
C1052 C1054 1.391 . S
C1053 C1052 1.386 . S
C1053 C1057 1.393 . S
C1054 H1046 0.950 1_556 S
C1054 C1052 1.391 . S
C1054 C1055 1.400 . S
C1055 C1054 1.400 . S
C1055 C1056 1.398 . S
C1055 C1061 1.491 1_556 S
C1056 H1047 0.950 . S
C1056 C1055 1.398 . S
C1056 C1057 1.391 . S
C1057 H1045 0.950 . S
C1057 C1053 1.393 . S
C1057 C1056 1.391 . S
C1058 H1048 0.950 . S
C1058 C1059 1.386 . S
C1058 C1060 1.391 . S
C1059 C1058 1.386 . S
C1059 C1063 1.393 . S
C1060 H1049 0.950 1_554 S
C1060 C1058 1.391 . S
C1060 C1061 1.400 . S
C1061 C1055 1.491 1_554 S
C1061 C1060 1.400 . S
C1061 C1062 1.398 . S
C1062 H1050 0.950 . S
C1062 C1061 1.398 . S
C1062 C1063 1.391 . S
C1063 H1051 0.950 . S
C1063 C1059 1.393 . S
C1063 C1062 1.391 . S
H1064 C1072 0.950 . S
H1065 C1077 0.950 . S
H1066 C1074 0.950 . S
H1067 C1076 0.950 . S
H1068 C1078 0.950 . S
H1069 C1080 0.950 . S
H1070 C1082 0.950 . S
H1071 C1083 0.950 . S
C1072 H1064 0.950 . S
C1072 C1073 1.386 . S
C1072 C1074 1.391 . S
C1073 C1072 1.386 . S
C1073 C1077 1.393 . S
C1074 H1066 0.950 . S
C1074 C1072 1.391 . S
C1074 C1075 1.400 . S
C1075 C1074 1.400 . S
C1075 C1076 1.398 . S
C1075 C1081 1.491 . S
C1076 H1067 0.950 . S
C1076 C1075 1.398 . S
C1076 C1077 1.391 . S
C1077 H1065 0.950 . S
C1077 C1073 1.393 . S
C1077 C1076 1.391 . S
C1078 H1068 0.950 . S
C1078 C1079 1.386 . S
C1078 C1080 1.391 . S
C1079 C1078 1.386 . S
C1079 C1083 1.393 . S
C1080 H1069 0.950 . S
C1080 C1078 1.391 . S
C1080 C1081 1.400 . S
C1081 C1075 1.491 . S
C1081 C1080 1.400 . S
C1081 C1082 1.398 . S
C1082 H1070 0.950 . S
C1082 C1081 1.398 . S
C1082 C1083 1.391 . S
C1083 H1071 0.950 . S
C1083 C1079 1.393 . S
C1083 C1082 1.391 . S
H1084 C1092 0.950 . S
H1085 C1097 0.950 . S
H1086 C1094 0.950 . S
H1087 C1096 0.950 . S
H1088 C1098 0.950 . S
H1089 C1100 0.950 . S
H1090 C1102 0.950 . S
H1091 C1103 0.950 . S
C1092 H1084 0.950 . S
C1092 C1093 1.386 . S
C1092 C1094 1.391 . S
C1093 C1092 1.386 . S
C1093 C1097 1.393 . S
C1094 H1086 0.950 . S
C1094 C1092 1.391 . S
C1094 C1095 1.400 . S
C1095 C1094 1.400 . S
C1095 C1096 1.398 . S
C1095 C1101 1.491 . S
C1096 H1087 0.950 . S
C1096 C1095 1.398 . S
C1096 C1097 1.391 . S
C1097 H1085 0.950 . S
C1097 C1093 1.393 . S
C1097 C1096 1.391 . S
C1098 H1088 0.950 . S
C1098 C1099 1.386 . S
C1098 C1100 1.391 . S
C1099 C1098 1.386 . S
C1099 C1103 1.393 . S
C1100 H1089 0.950 . S
C1100 C1098 1.391 . S
C1100 C1101 1.400 . S
C1101 C1095 1.491 . S
C1101 C1100 1.400 . S
C1101 C1102 1.398 . S
C1102 H1090 0.950 . S
C1102 C1101 1.398 . S
C1102 C1103 1.391 . S
C1103 H1091 0.950 . S
C1103 C1099 1.393 . S
C1103 C1102 1.391 . S
H1104 C1112 0.950 . S
H1105 C1117 0.950 1_655 S
H1106 C1114 0.950 . S
H1107 C1116 0.950 1_556 S
H1108 C1118 0.950 . S
H1109 C1120 0.950 . S
H1110 C1122 0.951 . S
H1111 C1123 0.950 . S
C1112 H1104 0.950 . S
C1112 C1113 1.386 . S
C1112 C1114 1.391 . S
C1113 C1112 1.386 . S
C1113 C1117 1.393 . S
C1114 H1106 0.950 . S
C1114 C1112 1.391 . S
C1114 C1115 1.400 . S
C1115 C1114 1.400 . S
C1115 C1116 1.398 . S
C1115 C1121 1.491 1_554 S
C1116 H1107 0.950 1_554 S
C1116 C1115 1.398 . S
C1116 C1117 1.391 . S
C1117 H1105 0.950 1_455 S
C1117 C1113 1.393 . S
C1117 C1116 1.391 . S
C1118 H1108 0.950 . S
C1118 C1119 1.386 . S
C1118 C1120 1.391 . S
C1119 C1118 1.386 . S
C1119 C1123 1.393 . S
C1120 H1109 0.950 . S
C1120 C1118 1.391 . S
C1120 C1121 1.400 . S
C1121 C1115 1.491 1_556 S
C1121 C1120 1.400 . S
C1121 C1122 1.398 . S
C1122 H1110 0.951 . S
C1122 C1121 1.398 . S
C1122 C1123 1.391 . S
C1123 H1111 0.950 . S
C1123 C1119 1.393 . S
C1123 C1122 1.391 . S
H1124 C1132 0.950 . S
H1125 C1137 0.950 . S
H1126 C1134 0.950 . S
H1127 C1136 0.950 1_554 S
H1128 C1138 0.950 . S
H1129 C1140 0.950 . S
H1130 C1142 0.950 1_556 S
H1131 C1143 0.950 . S
C1132 H1124 0.950 . S
C1132 C1133 1.386 . S
C1132 C1134 1.391 . S
C1133 C1132 1.386 . S
C1133 C1137 1.393 . S
C1134 H1126 0.950 . S
C1134 C1132 1.391 . S
C1134 C1135 1.400 . S
C1135 C1134 1.400 . S
C1135 C1136 1.398 . S
C1135 C1141 1.491 1_556 S
C1136 H1127 0.950 1_556 S
C1136 C1135 1.398 . S
C1136 C1137 1.391 . S
C1137 H1125 0.950 . S
C1137 C1133 1.393 . S
C1137 C1136 1.391 . S
C1138 H1128 0.950 . S
C1138 C1139 1.386 . S
C1138 C1140 1.391 . S
C1139 C1138 1.386 . S
C1139 C1143 1.393 . S
C1140 H1129 0.950 . S
C1140 C1138 1.391 . S
C1140 C1141 1.400 . S
C1141 C1135 1.491 1_554 S
C1141 C1140 1.400 . S
C1141 C1142 1.398 . S
C1142 H1130 0.950 1_554 S
C1142 C1141 1.398 . S
C1142 C1143 1.391 . S
C1143 H1131 0.950 . S
C1143 C1139 1.393 . S
C1143 C1142 1.391 . S
H1144 C1152 0.950 . S
H1145 C1157 0.950 . S
H1146 C1154 0.950 . S
H1147 C1156 0.950 . S
H1148 C1158 0.950 . S
H1149 C1160 0.950 . S
H1150 C1162 0.950 . S
H1151 C1163 0.950 . S
C1152 H1144 0.950 . S
C1152 C1153 1.386 . S
C1152 C1154 1.391 . S
C1153 C1152 1.386 . S
C1153 C1157 1.393 . S
C1154 H1146 0.950 . S
C1154 C1152 1.391 . S
C1154 C1155 1.400 . S
C1155 C1154 1.400 . S
C1155 C1156 1.398 . S
C1155 C1161 1.491 . S
C1156 H1147 0.950 . S
C1156 C1155 1.398 . S
C1156 C1157 1.391 . S
C1157 H1145 0.950 . S
C1157 C1153 1.393 . S
C1157 C1156 1.391 . S
C1158 H1148 0.950 . S
C1158 C1159 1.386 . S
C1158 C1160 1.391 . S
C1159 C1158 1.386 . S
C1159 C1163 1.393 . S
C1160 H1149 0.950 . S
C1160 C1158 1.391 . S
C1160 C1161 1.400 . S
C1161 C1155 1.491 . S
C1161 C1160 1.400 . S
C1161 C1162 1.398 . S
C1162 H1150 0.950 . S
C1162 C1161 1.398 . S
C1162 C1163 1.391 . S
C1163 H1151 0.950 . S
C1163 C1159 1.393 . S
C1163 C1162 1.391 . S
H1164 C1172 0.950 . S
H1165 C1177 0.950 . S
H1166 C1174 0.950 . S
H1167 C1176 0.950 . S
H1168 C1178 0.950 1_455 S
H1169 C1180 0.950 . S
H1170 C1182 0.950 . S
H1171 C1183 0.950 . S
C1172 H1164 0.950 . S
C1172 C1173 1.386 . S
C1172 C1174 1.391 . S
C1173 C1172 1.386 . S
C1173 C1177 1.393 . S
C1174 H1166 0.950 . S
C1174 C1172 1.391 . S
C1174 C1175 1.400 . S
C1175 C1174 1.400 . S
C1175 C1176 1.398 . S
C1175 C1181 1.491 . S
C1176 H1167 0.950 . S
C1176 C1175 1.398 . S
C1176 C1177 1.391 . S
C1177 H1165 0.950 . S
C1177 C1173 1.393 . S
C1177 C1176 1.391 . S
C1178 H1168 0.950 1_655 S
C1178 C1179 1.386 . S
C1178 C1180 1.391 . S
C1179 C1178 1.386 . S
C1179 C1183 1.393 . S
C1180 H1169 0.950 . S
C1180 C1178 1.391 . S
C1180 C1181 1.400 . S
C1181 C1175 1.491 . S
C1181 C1180 1.400 . S
C1181 C1182 1.398 . S
C1182 H1170 0.950 . S
C1182 C1181 1.398 . S
C1182 C1183 1.391 . S
C1183 H1171 0.950 . S
C1183 C1179 1.393 . S
C1183 C1182 1.391 . S
H1184 C1192 0.950 . S
H1185 C1197 0.950 . S
H1186 C1194 0.950 . S
H1187 C1196 0.950 . S
H1188 C1198 0.950 . S
H1189 C1200 0.950 . S
H1190 C1202 0.950 . S
H1191 C1203 0.950 . S
C1192 H1184 0.950 . S
C1192 C1193 1.386 . S
C1192 C1194 1.391 . S
C1193 C1192 1.386 . S
C1193 C1197 1.393 . S
C1194 H1186 0.950 . S
C1194 C1192 1.391 . S
C1194 C1195 1.400 . S
C1195 C1194 1.400 . S
C1195 C1196 1.398 . S
C1195 C1201 1.491 1_545 S
C1196 H1187 0.950 . S
C1196 C1195 1.398 . S
C1196 C1197 1.391 . S
C1197 H1185 0.950 . S
C1197 C1193 1.393 . S
C1197 C1196 1.391 . S
C1198 H1188 0.950 . S
C1198 C1199 1.386 . S
C1198 C1200 1.391 . S
C1199 C1198 1.386 . S
C1199 C1203 1.393 . S
C1200 H1189 0.950 . S
C1200 C1198 1.391 . S
C1200 C1201 1.400 . S
C1201 C1195 1.491 1_565 S
C1201 C1200 1.400 . S
C1201 C1202 1.398 . S
C1202 H1190 0.950 . S
C1202 C1201 1.398 . S
C1202 C1203 1.391 . S
C1203 H1191 0.950 . S
C1203 C1199 1.393 . S
C1203 C1202 1.391 . S
H1204 C1212 0.950 . S
H1205 C1217 0.950 . S
H1206 C1214 0.950 . S
H1207 C1216 0.950 . S
H1208 C1218 0.950 . S
H1209 C1220 0.950 . S
H1210 C1222 0.950 . S
H1211 C1223 0.950 . S
C1212 H1204 0.950 . S
C1212 C1213 1.386 . S
C1212 C1214 1.391 . S
C1213 C1212 1.386 . S
C1213 C1217 1.393 . S
C1214 H1206 0.950 . S
C1214 C1212 1.391 . S
C1214 C1215 1.400 . S
C1215 C1214 1.400 . S
C1215 C1216 1.398 . S
C1215 C1221 1.491 1_545 S
C1216 H1207 0.950 . S
C1216 C1215 1.398 . S
C1216 C1217 1.391 . S
C1217 H1205 0.950 . S
C1217 C1213 1.393 . S
C1217 C1216 1.391 . S
C1218 H1208 0.950 . S
C1218 C1219 1.386 . S
C1218 C1220 1.391 . S
C1219 C1218 1.386 . S
C1219 C1223 1.393 . S
C1220 H1209 0.950 . S
C1220 C1218 1.391 . S
C1220 C1221 1.400 . S
C1221 C1215 1.491 1_565 S
C1221 C1220 1.400 . S
C1221 C1222 1.398 . S
C1222 H1210 0.950 . S
C1222 C1221 1.398 . S
C1222 C1223 1.391 . S
C1223 H1211 0.950 . S
C1223 C1219 1.393 . S
C1223 C1222 1.391 . S
H1224 C1232 0.950 . S
H1225 C1237 0.950 . S
H1226 C1234 0.950 . S
H1227 C1236 0.950 . S
H1228 C1238 0.950 . S
H1229 C1240 0.950 . S
H1230 C1242 0.950 . S
H1231 C1243 0.950 . S
C1232 H1224 0.950 . S
C1232 C1233 1.386 . S
C1232 C1234 1.391 . S
C1233 C1232 1.386 . S
C1233 C1237 1.393 . S
C1234 H1226 0.950 . S
C1234 C1232 1.391 . S
C1234 C1235 1.400 . S
C1235 C1234 1.400 . S
C1235 C1236 1.398 . S
C1235 C1241 1.491 1_565 S
C1236 H1227 0.950 . S
C1236 C1235 1.398 . S
C1236 C1237 1.391 . S
C1237 H1225 0.950 . S
C1237 C1233 1.393 . S
C1237 C1236 1.391 . S
C1238 H1228 0.950 . S
C1238 C1239 1.386 . S
C1238 C1240 1.391 . S
C1239 C1238 1.386 . S
C1239 C1243 1.393 . S
C1240 H1229 0.950 . S
C1240 C1238 1.391 . S
C1240 C1241 1.400 . S
C1241 C1235 1.491 1_545 S
C1241 C1240 1.400 . S
C1241 C1242 1.398 . S
C1242 H1230 0.950 . S
C1242 C1241 1.398 . S
C1242 C1243 1.391 . S
C1243 H1231 0.950 . S
C1243 C1239 1.393 . S
C1243 C1242 1.391 . S
H1244 C1252 0.950 . S
H1245 C1257 0.950 . S
H1246 C1254 0.950 . S
H1247 C1256 0.950 . S
H1248 C1258 0.950 . S
H1249 C1260 0.950 . S
H1250 C1262 0.950 . S
H1251 C1263 0.950 . S
C1252 H1244 0.950 . S
C1252 C1253 1.386 . S
C1252 C1254 1.391 . S
C1253 C1252 1.386 . S
C1253 C1257 1.393 . S
C1254 H1246 0.950 . S
C1254 C1252 1.391 . S
C1254 C1255 1.400 . S
C1255 C1254 1.400 . S
C1255 C1256 1.398 . S
C1255 C1261 1.491 1_565 S
C1256 H1247 0.950 . S
C1256 C1255 1.398 . S
C1256 C1257 1.391 . S
C1257 H1245 0.950 . S
C1257 C1253 1.393 . S
C1257 C1256 1.391 . S
C1258 H1248 0.950 . S
C1258 C1259 1.386 . S
C1258 C1260 1.391 . S
C1259 C1258 1.386 . S
C1259 C1263 1.393 . S
C1260 H1249 0.950 . S
C1260 C1258 1.391 . S
C1260 C1261 1.400 . S
C1261 C1255 1.491 1_545 S
C1261 C1260 1.400 . S
C1261 C1262 1.398 . S
C1262 H1250 0.950 . S
C1262 C1261 1.398 . S
C1262 C1263 1.391 . S
C1263 H1251 0.950 . S
C1263 C1259 1.393 . S
C1263 C1262 1.391 . S
H1264 C1272 0.950 . S
H1265 C1277 0.950 . S
H1266 C1274 0.950 . S
H1267 C1276 0.950 . S
H1268 C1278 0.950 . S
H1269 C1280 0.950 . S
H1270 C1282 0.950 . S
H1271 C1283 0.950 . S
C1272 H1264 0.950 . S
C1272 C1273 1.386 . S
C1272 C1274 1.391 . S
C1273 C1272 1.386 . S
C1273 C1277 1.393 . S
C1274 H1266 0.950 . S
C1274 C1272 1.391 . S
C1274 C1275 1.400 . S
C1275 C1274 1.400 . S
C1275 C1276 1.398 . S
C1275 C1281 1.491 . S
C1276 H1267 0.950 . S
C1276 C1275 1.398 . S
C1276 C1277 1.391 . S
C1277 H1265 0.950 . S
C1277 C1273 1.393 . S
C1277 C1276 1.391 . S
C1278 H1268 0.950 . S
C1278 C1279 1.386 . S
C1278 C1280 1.391 . S
C1279 C1278 1.386 . S
C1279 C1283 1.393 . S
C1280 H1269 0.950 . S
C1280 C1278 1.391 . S
C1280 C1281 1.400 . S
C1281 C1275 1.491 . S
C1281 C1280 1.400 . S
C1281 C1282 1.398 . S
C1282 H1270 0.950 . S
C1282 C1281 1.398 . S
C1282 C1283 1.391 . S
C1283 H1271 0.950 . S
C1283 C1279 1.393 . S
C1283 C1282 1.391 . S
H1284 C1292 0.950 . S
H1285 C1297 0.950 . S
H1286 C1294 0.950 . S
H1287 C1296 0.950 . S
H1288 C1298 0.950 . S
H1289 C1300 0.950 . S
H1290 C1302 0.950 . S
H1291 C1303 0.950 . S
C1292 H1284 0.950 . S
C1292 C1293 1.386 . S
C1292 C1294 1.391 . S
C1293 C1292 1.386 . S
C1293 C1297 1.393 . S
C1294 H1286 0.950 . S
C1294 C1292 1.391 . S
C1294 C1295 1.400 . S
C1295 C1294 1.400 . S
C1295 C1296 1.398 . S
C1295 C1301 1.491 . S
C1296 H1287 0.950 . S
C1296 C1295 1.398 . S
C1296 C1297 1.391 . S
C1297 H1285 0.950 . S
C1297 C1293 1.393 . S
C1297 C1296 1.391 . S
C1298 H1288 0.950 . S
C1298 C1299 1.386 . S
C1298 C1300 1.391 . S
C1299 C1298 1.386 . S
C1299 C1303 1.393 . S
C1300 H1289 0.950 . S
C1300 C1298 1.391 . S
C1300 C1301 1.400 . S
C1301 C1295 1.491 . S
C1301 C1300 1.400 . S
C1301 C1302 1.398 . S
C1302 H1290 0.950 . S
C1302 C1301 1.398 . S
C1302 C1303 1.391 . S
C1303 H1291 0.950 . S
C1303 C1299 1.393 . S
C1303 C1302 1.391 . S
H1304 C1312 0.950 . S
H1305 C1317 0.950 . S
H1306 C1314 0.950 . S
H1307 C1316 0.950 . S
H1308 C1318 0.950 . S
H1309 C1320 0.950 . S
H1310 C1322 0.950 . S
H1311 C1323 0.950 . S
C1312 H1304 0.950 . S
C1312 C1313 1.386 . S
C1312 C1314 1.391 . S
C1313 C1312 1.386 . S
C1313 C1317 1.393 . S
C1314 H1306 0.950 . S
C1314 C1312 1.391 . S
C1314 C1315 1.400 . S
C1315 C1314 1.400 . S
C1315 C1316 1.398 . S
C1315 C1321 1.491 . S
C1316 H1307 0.950 . S
C1316 C1315 1.398 . S
C1316 C1317 1.391 . S
C1317 H1305 0.950 . S
C1317 C1313 1.393 . S
C1317 C1316 1.391 . S
C1318 H1308 0.950 . S
C1318 C1319 1.386 . S
C1318 C1320 1.391 . S
C1319 C1318 1.386 . S
C1319 C1323 1.393 . S
C1320 H1309 0.950 . S
C1320 C1318 1.391 . S
C1320 C1321 1.400 . S
C1321 C1315 1.491 . S
C1321 C1320 1.400 . S
C1321 C1322 1.398 . S
C1322 H1310 0.950 . S
C1322 C1321 1.398 . S
C1322 C1323 1.391 . S
C1323 H1311 0.950 . S
C1323 C1319 1.393 . S
C1323 C1322 1.391 . S
H1324 C1332 0.950 . S
H1325 C1337 0.950 . S
H1326 C1334 0.950 . S
H1327 C1336 0.950 . S
H1328 C1338 0.950 . S
H1329 C1340 0.950 . S
H1330 C1342 0.950 . S
H1331 C1343 0.950 . S
C1332 H1324 0.950 . S
C1332 C1333 1.386 . S
C1332 C1334 1.391 . S
C1333 C1332 1.386 . S
C1333 C1337 1.393 . S
C1334 H1326 0.950 . S
C1334 C1332 1.391 . S
C1334 C1335 1.400 . S
C1335 C1334 1.400 . S
C1335 C1336 1.398 . S
C1335 C1341 1.491 . S
C1336 H1327 0.950 . S
C1336 C1335 1.398 . S
C1336 C1337 1.391 . S
C1337 H1325 0.950 . S
C1337 C1333 1.393 . S
C1337 C1336 1.391 . S
C1338 H1328 0.950 . S
C1338 C1339 1.386 . S
C1338 C1340 1.391 . S
C1339 C1338 1.386 . S
C1339 C1343 1.393 . S
C1340 H1329 0.950 . S
C1340 C1338 1.391 . S
C1340 C1341 1.400 . S
C1341 C1335 1.491 . S
C1341 C1340 1.400 . S
C1341 C1342 1.398 . S
C1342 H1330 0.950 . S
C1342 C1341 1.398 . S
C1342 C1343 1.391 . S
C1343 H1331 0.950 . S
C1343 C1339 1.393 . S
C1343 C1342 1.391 . S
H1344 C1352 0.950 . S
H1345 C1357 0.950 1_455 S
H1346 C1354 0.950 . S
H1347 C1356 0.950 . S
H1348 C1358 0.950 . S
H1349 C1360 0.950 . S
H1350 C1362 0.950 . S
H1351 C1363 0.950 1_655 S
C1352 H1344 0.950 . S
C1352 C1353 1.386 . S
C1352 C1354 1.391 . S
C1353 C1352 1.386 . S
C1353 C1357 1.393 . S
C1354 H1346 0.950 . S
C1354 C1352 1.391 . S
C1354 C1355 1.400 . S
C1355 C1354 1.400 . S
C1355 C1356 1.398 1_655 S
C1355 C1361 1.491 1_655 S
C1356 H1347 0.950 . S
C1356 C1355 1.398 1_455 S
C1356 C1357 1.391 1_455 S
C1357 H1345 0.950 1_655 S
C1357 C1353 1.393 . S
C1357 C1356 1.391 1_655 S
C1358 H1348 0.950 . S
C1358 C1359 1.386 . S
C1358 C1360 1.391 . S
C1359 C1358 1.386 . S
C1359 C1363 1.393 . S
C1360 H1349 0.950 . S
C1360 C1358 1.391 . S
C1360 C1361 1.400 . S
C1361 C1355 1.491 1_455 S
C1361 C1360 1.400 . S
C1361 C1362 1.398 1_455 S
C1362 H1350 0.950 . S
C1362 C1361 1.398 1_655 S
C1362 C1363 1.391 1_655 S
C1363 H1351 0.950 1_455 S
C1363 C1359 1.393 . S
C1363 C1362 1.391 1_455 S
H1364 C1372 0.950 . S
H1365 C1377 0.950 . S
H1366 C1374 0.950 . S
H1367 C1376 0.950 . S
H1368 C1378 0.950 . S
H1369 C1380 0.950 . S
H1370 C1382 0.950 . S
H1371 C1383 0.950 . S
C1372 H1364 0.950 . S
C1372 C1373 1.386 . S
C1372 C1374 1.391 . S
C1373 C1372 1.386 . S
C1373 C1377 1.393 . S
C1374 H1366 0.950 . S
C1374 C1372 1.391 . S
C1374 C1375 1.400 . S
C1375 C1374 1.400 . S
C1375 C1376 1.398 . S
C1375 C1381 1.491 . S
C1376 H1367 0.950 . S
C1376 C1375 1.398 . S
C1376 C1377 1.391 . S
C1377 H1365 0.950 . S
C1377 C1373 1.393 . S
C1377 C1376 1.391 . S
C1378 H1368 0.950 . S
C1378 C1379 1.386 . S
C1378 C1380 1.391 . S
C1379 C1378 1.386 . S
C1379 C1383 1.393 . S
C1380 H1369 0.950 . S
C1380 C1378 1.391 . S
C1380 C1381 1.400 . S
C1381 C1375 1.491 . S
C1381 C1380 1.400 . S
C1381 C1382 1.398 . S
C1382 H1370 0.950 . S
C1382 C1381 1.398 . S
C1382 C1383 1.391 . S
C1383 H1371 0.950 . S
C1383 C1379 1.393 . S
C1383 C1382 1.391 . S
H1384 C1392 0.950 . S
H1385 C1397 0.950 . S
H1386 C1394 0.950 . S
H1387 C1396 0.950 . S
H1388 C1398 0.950 . S
H1389 C1400 0.950 . S
H1390 C1402 0.950 . S
H1391 C1403 0.950 . S
C1392 H1384 0.950 . S
C1392 C1393 1.386 . S
C1392 C1394 1.391 . S
C1393 C1392 1.386 . S
C1393 C1397 1.393 . S
C1394 H1386 0.950 . S
C1394 C1392 1.391 . S
C1394 C1395 1.400 . S
C1395 C1394 1.400 . S
C1395 C1396 1.398 . S
C1395 C1401 1.491 . S
C1396 H1387 0.950 . S
C1396 C1395 1.398 . S
C1396 C1397 1.391 . S
C1397 H1385 0.950 . S
C1397 C1393 1.393 . S
C1397 C1396 1.391 . S
C1398 H1388 0.950 . S
C1398 C1399 1.386 . S
C1398 C1400 1.391 . S
C1399 C1398 1.386 . S
C1399 C1403 1.393 . S
C1400 H1389 0.950 . S
C1400 C1398 1.391 . S
C1400 C1401 1.400 . S
C1401 C1395 1.491 . S
C1401 C1400 1.400 . S
C1401 C1402 1.398 . S
C1402 H1390 0.950 . S
C1402 C1401 1.398 . S
C1402 C1403 1.391 . S
C1403 H1391 0.950 . S
C1403 C1399 1.393 . S
C1403 C1402 1.391 . S
H1404 C1412 0.950 . S
H1405 C1417 0.950 . S
H1406 C1414 0.950 . S
H1407 C1416 0.950 . S
H1408 C1418 0.950 . S
H1409 C1420 0.950 . S
H1410 C1422 0.950 . S
H1411 C1423 0.950 . S
C1412 H1404 0.950 . S
C1412 C1413 1.386 1_455 S
C1412 C1414 1.391 . S
C1413 C1412 1.386 1_655 S
C1413 C1417 1.393 . S
C1414 H1406 0.950 . S
C1414 C1412 1.391 . S
C1414 C1415 1.400 1_455 S
C1415 C1414 1.400 1_655 S
C1415 C1416 1.398 . S
C1415 C1421 1.491 1_655 S
C1416 H1407 0.950 . S
C1416 C1415 1.398 . S
C1416 C1417 1.391 . S
C1417 H1405 0.950 . S
C1417 C1413 1.393 . S
C1417 C1416 1.391 . S
C1418 H1408 0.950 . S
C1418 C1419 1.386 1_655 S
C1418 C1420 1.391 . S
C1419 C1418 1.386 1_455 S
C1419 C1423 1.393 . S
C1420 H1409 0.950 . S
C1420 C1418 1.391 . S
C1420 C1421 1.400 1_655 S
C1421 C1415 1.491 1_455 S
C1421 C1420 1.400 1_455 S
C1421 C1422 1.398 . S
C1422 H1410 0.950 . S
C1422 C1421 1.398 . S
C1422 C1423 1.391 . S
C1423 H1411 0.950 . S
C1423 C1419 1.393 . S
C1423 C1422 1.391 . S
H1424 C1432 0.950 . S
H1425 C1437 0.950 . S
H1426 C1434 0.950 . S
H1427 C1436 0.950 . S
H1428 C1438 0.950 . S
H1429 C1440 0.950 . S
H1430 C1442 0.950 . S
H1431 C1443 0.950 . S
C1432 H1424 0.950 . S
C1432 C1433 1.386 . S
C1432 C1434 1.391 1_455 S
C1433 C1432 1.386 . S
C1433 C1437 1.393 . S
C1434 H1426 0.950 . S
C1434 C1432 1.391 1_655 S
C1434 C1435 1.400 1_655 S
C1435 C1434 1.400 1_455 S
C1435 C1436 1.398 . S
C1435 C1441 1.491 1_455 S
C1436 H1427 0.950 . S
C1436 C1435 1.398 . S
C1436 C1437 1.391 . S
C1437 H1425 0.950 . S
C1437 C1433 1.393 . S
C1437 C1436 1.391 . S
C1438 H1428 0.950 . S
C1438 C1439 1.386 . S
C1438 C1440 1.391 1_655 S
C1439 C1438 1.386 . S
C1439 C1443 1.393 . S
C1440 H1429 0.950 . S
C1440 C1438 1.391 1_455 S
C1440 C1441 1.400 1_455 S
C1441 C1435 1.491 1_655 S
C1441 C1440 1.400 1_655 S
C1441 C1442 1.398 . S
C1442 H1430 0.950 . S
C1442 C1441 1.398 . S
C1442 C1443 1.391 . S
C1443 H1431 0.950 . S
C1443 C1439 1.393 . S
C1443 C1442 1.391 . S
H1444 C1452 0.950 . S
H1445 C1457 0.950 . S
H1446 C1454 0.950 . S
H1447 C1456 0.950 . S
H1448 C1458 0.950 . S
H1449 C1460 0.950 . S
H1450 C1462 0.950 . S
H1451 C1463 0.950 . S
C1452 H1444 0.950 . S
C1452 C1453 1.386 . S
C1452 C1454 1.391 . S
C1453 C1452 1.386 . S
C1453 C1457 1.393 . S
C1454 H1446 0.950 . S
C1454 C1452 1.391 . S
C1454 C1455 1.400 . S
C1455 C1454 1.400 . S
C1455 C1456 1.398 . S
C1455 C1461 1.491 . S
C1456 H1447 0.950 . S
C1456 C1455 1.398 . S
C1456 C1457 1.391 . S
C1457 H1445 0.950 . S
C1457 C1453 1.393 . S
C1457 C1456 1.391 . S
C1458 H1448 0.950 . S
C1458 C1459 1.386 . S
C1458 C1460 1.391 . S
C1459 C1458 1.386 . S
C1459 C1463 1.393 . S
C1460 H1449 0.950 . S
C1460 C1458 1.391 . S
C1460 C1461 1.400 . S
C1461 C1455 1.491 . S
C1461 C1460 1.400 . S
C1461 C1462 1.398 . S
C1462 H1450 0.950 . S
C1462 C1461 1.398 . S
C1462 C1463 1.391 . S
C1463 H1451 0.950 . S
C1463 C1459 1.393 . S
C1463 C1462 1.391 . S
H1464 C1472 0.950 . S
H1465 C1477 0.950 . S
H1466 C1474 0.950 . S
H1467 C1476 0.950 . S
H1468 C1478 0.950 . S
H1469 C1480 0.950 . S
H1470 C1482 0.950 . S
H1471 C1483 0.950 . S
C1472 H1464 0.950 . S
C1472 C1473 1.386 . S
C1472 C1474 1.391 . S
C1473 C1472 1.386 . S
C1473 C1477 1.393 . S
C1474 H1466 0.950 . S
C1474 C1472 1.391 . S
C1474 C1475 1.400 . S
C1475 C1474 1.400 . S
C1475 C1476 1.398 . S
C1475 C1481 1.491 . S
C1476 H1467 0.950 . S
C1476 C1475 1.398 . S
C1476 C1477 1.391 . S
C1477 H1465 0.950 . S
C1477 C1473 1.393 . S
C1477 C1476 1.391 . S
C1478 H1468 0.950 . S
C1478 C1479 1.386 . S
C1478 C1480 1.391 . S
C1479 C1478 1.386 . S
C1479 C1483 1.393 . S
C1480 H1469 0.950 . S
C1480 C1478 1.391 . S
C1480 C1481 1.400 . S
C1481 C1475 1.491 . S
C1481 C1480 1.400 . S
C1481 C1482 1.398 . S
C1482 H1470 0.950 . S
C1482 C1481 1.398 . S
C1482 C1483 1.391 . S
C1483 H1471 0.950 . S
C1483 C1479 1.393 . S
C1483 C1482 1.391 . S
H1484 C1492 0.950 . S
H1485 C1497 0.948 1_655 S
H1486 C1494 0.950 . S
H1487 C1496 0.950 . S
H1488 C1498 0.950 . S
H1489 C1500 0.950 . S
H1490 C1502 0.950 . S
H1491 C1503 0.948 1_455 S
C1492 H1484 0.950 . S
C1492 C1493 1.386 . S
C1492 C1494 1.391 . S
C1493 C1492 1.386 . S
C1493 C1497 1.393 . S
C1494 H1486 0.950 . S
C1494 C1492 1.391 . S
C1494 C1495 1.400 . S
C1495 C1494 1.400 . S
C1495 C1496 1.398 1_455 S
C1495 C1501 1.491 1_455 S
C1496 H1487 0.950 . S
C1496 C1495 1.398 1_655 S
C1496 C1497 1.391 1_655 S
C1497 H1485 0.948 1_455 S
C1497 C1493 1.393 . S
C1497 C1496 1.391 1_455 S
C1498 H1488 0.950 . S
C1498 C1499 1.386 . S
C1498 C1500 1.391 . S
C1499 C1498 1.386 . S
C1499 C1503 1.393 . S
C1500 H1489 0.950 . S
C1500 C1498 1.391 . S
C1500 C1501 1.400 . S
C1501 C1495 1.491 1_655 S
C1501 C1500 1.400 . S
C1501 C1502 1.398 1_655 S
C1502 H1490 0.950 . S
C1502 C1501 1.398 1_455 S
C1502 C1503 1.391 1_455 S
C1503 H1491 0.948 1_655 S
C1503 C1499 1.393 . S
C1503 C1502 1.391 1_655 S
H1504 C1512 0.950 . S
H1505 C1517 0.950 . S
H1506 C1514 0.950 1_455 S
H1507 C1516 0.950 . S
H1508 C1518 0.950 . S
H1509 C1520 0.950 1_655 S
H1510 C1522 0.950 . S
H1511 C1523 0.950 . S
C1512 H1504 0.950 . S
C1512 C1513 1.386 . S
C1512 C1514 1.391 . S
C1513 C1512 1.386 . S
C1513 C1517 1.393 . S
C1514 H1506 0.950 1_655 S
C1514 C1512 1.391 . S
C1514 C1515 1.400 . S
C1515 C1514 1.400 . S
C1515 C1516 1.398 . S
C1515 C1521 1.491 1_655 S
C1516 H1507 0.950 . S
C1516 C1515 1.398 . S
C1516 C1517 1.391 . S
C1517 H1505 0.950 . S
C1517 C1513 1.393 . S
C1517 C1516 1.391 . S
C1518 H1508 0.950 . S
C1518 C1519 1.386 . S
C1518 C1520 1.391 . S
C1519 C1518 1.386 . S
C1519 C1523 1.393 . S
C1520 H1509 0.950 1_455 S
C1520 C1518 1.391 . S
C1520 C1521 1.400 . S
C1521 C1515 1.491 1_455 S
C1521 C1520 1.400 . S
C1521 C1522 1.398 . S
C1522 H1510 0.950 . S
C1522 C1521 1.398 . S
C1522 C1523 1.391 . S
C1523 H1511 0.950 . S
C1523 C1519 1.393 . S
C1523 C1522 1.391 . S
H1524 C1532 0.950 . S
H1525 C1537 0.950 . S
H1526 C1534 0.950 . S
H1527 C1536 0.950 . S
H1528 C1538 0.950 . S
H1529 C1540 0.950 . S
H1530 C1542 0.950 . S
H1531 C1543 0.950 . S
C1532 H1524 0.950 . S
C1532 C1533 1.386 . S
C1532 C1534 1.391 . S
C1533 C1532 1.386 . S
C1533 C1537 1.393 . S
C1534 H1526 0.950 . S
C1534 C1532 1.391 . S
C1534 C1535 1.400 . S
C1535 C1534 1.400 . S
C1535 C1536 1.398 . S
C1535 C1541 1.491 . S
C1536 H1527 0.950 . S
C1536 C1535 1.398 . S
C1536 C1537 1.391 . S
C1537 H1525 0.950 . S
C1537 C1533 1.393 . S
C1537 C1536 1.391 . S
C1538 H1528 0.950 . S
C1538 C1539 1.386 . S
C1538 C1540 1.391 . S
C1539 C1538 1.386 . S
C1539 C1543 1.393 . S
C1540 H1529 0.950 . S
C1540 C1538 1.391 . S
C1540 C1541 1.400 . S
C1541 C1535 1.491 . S
C1541 C1540 1.400 . S
C1541 C1542 1.398 . S
C1542 H1530 0.950 . S
C1542 C1541 1.398 . S
C1542 C1543 1.391 . S
C1543 H1531 0.950 . S
C1543 C1539 1.393 . S
C1543 C1542 1.391 . S
H1544 C1552 0.950 1_655 S
H1545 C1557 0.950 . S
H1546 C1554 0.950 . S
H1547 C1556 0.950 . S
H1548 C1558 0.950 1_455 S
H1549 C1560 0.950 . S
H1550 C1562 0.950 . S
H1551 C1563 0.950 . S
C1552 H1544 0.950 1_455 S
C1552 C1553 1.386 . S
C1552 C1554 1.391 1_455 S
C1553 C1552 1.386 . S
C1553 C1557 1.393 . S
C1554 H1546 0.950 . S
C1554 C1552 1.391 1_655 S
C1554 C1555 1.400 1_655 S
C1555 C1554 1.400 1_455 S
C1555 C1556 1.398 . S
C1555 C1561 1.491 1_455 S
C1556 H1547 0.950 . S
C1556 C1555 1.398 . S
C1556 C1557 1.391 . S
C1557 H1545 0.950 . S
C1557 C1553 1.393 . S
C1557 C1556 1.391 . S
C1558 H1548 0.950 1_655 S
C1558 C1559 1.386 . S
C1558 C1560 1.391 1_655 S
C1559 C1558 1.386 . S
C1559 C1563 1.393 . S
C1560 H1549 0.950 . S
C1560 C1558 1.391 1_455 S
C1560 C1561 1.400 1_455 S
C1561 C1555 1.491 1_655 S
C1561 C1560 1.400 1_655 S
C1561 C1562 1.398 . S
C1562 H1550 0.950 . S
C1562 C1561 1.398 . S
C1562 C1563 1.391 . S
C1563 H1551 0.950 . S
C1563 C1559 1.393 . S
C1563 C1562 1.391 . S
H1564 C1572 0.950 . S
H1565 C1577 0.950 . S
H1566 C1574 0.950 . S
H1567 C1576 0.950 . S
H1568 C1578 0.950 . S
H1569 C1580 0.950 . S
H1570 C1582 0.950 . S
H1571 C1583 0.950 . S
C1572 H1564 0.950 . S
C1572 C1573 1.386 . S
C1572 C1574 1.391 . S
C1573 C1572 1.386 . S
C1573 C1577 1.393 . S
C1574 H1566 0.950 . S
C1574 C1572 1.391 . S
C1574 C1575 1.400 . S
C1575 C1574 1.400 . S
C1575 C1576 1.398 . S
C1575 C1581 1.491 . S
C1576 H1567 0.950 . S
C1576 C1575 1.398 . S
C1576 C1577 1.391 . S
C1577 H1565 0.950 . S
C1577 C1573 1.393 . S
C1577 C1576 1.391 . S
C1578 H1568 0.950 . S
C1578 C1579 1.386 . S
C1578 C1580 1.391 . S
C1579 C1578 1.386 . S
C1579 C1583 1.393 . S
C1580 H1569 0.950 . S
C1580 C1578 1.391 . S
C1580 C1581 1.400 . S
C1581 C1575 1.491 . S
C1581 C1580 1.400 . S
C1581 C1582 1.398 . S
C1582 H1570 0.950 . S
C1582 C1581 1.398 . S
C1582 C1583 1.391 . S
C1583 H1571 0.950 . S
C1583 C1579 1.393 . S
C1583 C1582 1.391 . S
H1584 C1592 0.950 . S
H1585 C1597 0.950 . S
H1586 C1594 0.950 . S
H1587 C1596 0.950 . S
H1588 C1598 0.950 . S
H1589 C1600 0.950 . S
H1590 C1602 0.950 . S
H1591 C1603 0.950 . S
C1592 H1584 0.950 . S
C1592 C1593 1.386 . S
C1592 C1594 1.391 . S
C1593 C1592 1.386 . S
C1593 C1597 1.393 . S
C1594 H1586 0.950 . S
C1594 C1592 1.391 . S
C1594 C1595 1.400 . S
C1595 C1594 1.400 . S
C1595 C1596 1.398 . S
C1595 C1601 1.491 . S
C1596 H1587 0.950 . S
C1596 C1595 1.398 . S
C1596 C1597 1.391 . S
C1597 H1585 0.950 . S
C1597 C1593 1.393 . S
C1597 C1596 1.391 . S
C1598 H1588 0.950 . S
C1598 C1599 1.386 . S
C1598 C1600 1.391 . S
C1599 C1598 1.386 . S
C1599 C1603 1.393 . S
C1600 H1589 0.950 . S
C1600 C1598 1.391 . S
C1600 C1601 1.400 . S
C1601 C1595 1.491 . S
C1601 C1600 1.400 . S
C1601 C1602 1.398 . S
C1602 H1590 0.950 . S
C1602 C1601 1.398 . S
C1602 C1603 1.391 . S
C1603 H1591 0.950 . S
C1603 C1599 1.393 . S
C1603 C1602 1.391 . S
H1604 C1612 0.950 . S
H1605 C1617 0.950 . S
H1606 C1614 0.950 . S
H1607 C1616 0.950 1_455 S
H1608 C1618 0.950 . S
H1609 C1620 0.950 . S
H1610 C1622 0.950 1_655 S
H1611 C1623 0.950 . S
C1612 H1604 0.950 . S
C1612 C1613 1.386 . S
C1612 C1614 1.391 . S
C1613 C1612 1.386 . S
C1613 C1617 1.393 . S
C1614 H1606 0.950 . S
C1614 C1612 1.391 . S
C1614 C1615 1.400 . S
C1615 C1614 1.400 . S
C1615 C1616 1.398 . S
C1615 C1621 1.491 1_655 S
C1616 H1607 0.950 1_655 S
C1616 C1615 1.398 . S
C1616 C1617 1.391 . S
C1617 H1605 0.950 . S
C1617 C1613 1.393 . S
C1617 C1616 1.391 . S
C1618 H1608 0.950 . S
C1618 C1619 1.386 . S
C1618 C1620 1.391 . S
C1619 C1618 1.386 . S
C1619 C1623 1.393 . S
C1620 H1609 0.950 . S
C1620 C1618 1.391 . S
C1620 C1621 1.400 . S
C1621 C1615 1.491 1_455 S
C1621 C1620 1.400 . S
C1621 C1622 1.398 . S
C1622 H1610 0.950 1_455 S
C1622 C1621 1.398 . S
C1622 C1623 1.391 . S
C1623 H1611 0.950 . S
C1623 C1619 1.393 . S
C1623 C1622 1.391 . S
H1624 C1632 0.950 . S
H1625 C1637 0.950 . S
H1626 C1634 0.950 . S
H1627 C1636 0.950 . S
H1628 C1638 0.950 . S
H1629 C1640 0.950 . S
H1630 C1642 0.950 . S
H1631 C1643 0.950 . S
C1632 H1624 0.950 . S
C1632 C1633 1.386 . S
C1632 C1634 1.391 . S
C1633 C1632 1.386 . S
C1633 C1637 1.393 . S
C1634 H1626 0.950 . S
C1634 C1632 1.391 . S
C1634 C1635 1.400 . S
C1635 C1634 1.400 . S
C1635 C1636 1.398 . S
C1635 C1641 1.491 . S
C1636 H1627 0.950 . S
C1636 C1635 1.398 . S
C1636 C1637 1.391 . S
C1637 H1625 0.950 . S
C1637 C1633 1.393 . S
C1637 C1636 1.391 . S
C1638 H1628 0.950 . S
C1638 C1639 1.386 . S
C1638 C1640 1.391 . S
C1639 C1638 1.386 . S
C1639 C1643 1.393 . S
C1640 H1629 0.950 . S
C1640 C1638 1.391 . S
C1640 C1641 1.400 . S
C1641 C1635 1.491 . S
C1641 C1640 1.400 . S
C1641 C1642 1.398 . S
C1642 H1630 0.950 . S
C1642 C1641 1.398 . S
C1642 C1643 1.391 . S
C1643 H1631 0.950 . S
C1643 C1639 1.393 . S
C1643 C1642 1.391 . S
H1644 C1652 0.950 . S
H1645 C1657 0.950 . S
H1646 C1654 0.950 . S
H1647 C1656 0.950 . S
H1648 C1658 0.950 . S
H1649 C1660 0.950 . S
H1650 C1662 0.950 . S
H1651 C1663 0.950 . S
C1652 H1644 0.950 . S
C1652 C1653 1.386 1_455 S
C1652 C1654 1.391 . S
C1653 C1652 1.386 1_655 S
C1653 C1657 1.393 . S
C1654 H1646 0.950 . S
C1654 C1652 1.391 . S
C1654 C1655 1.400 1_455 S
C1655 C1654 1.400 1_655 S
C1655 C1656 1.398 . S
C1655 C1661 1.491 1_655 S
C1656 H1647 0.950 . S
C1656 C1655 1.398 . S
C1656 C1657 1.391 . S
C1657 H1645 0.950 . S
C1657 C1653 1.393 . S
C1657 C1656 1.391 . S
C1658 H1648 0.950 . S
C1658 C1659 1.386 1_655 S
C1658 C1660 1.391 . S
C1659 C1658 1.386 1_455 S
C1659 C1663 1.393 . S
C1660 H1649 0.950 . S
C1660 C1658 1.391 . S
C1660 C1661 1.400 1_655 S
C1661 C1655 1.491 1_455 S
C1661 C1660 1.400 1_455 S
C1661 C1662 1.398 . S
C1662 H1650 0.950 . S
C1662 C1661 1.398 . S
C1662 C1663 1.391 . S
C1663 H1651 0.950 . S
C1663 C1659 1.393 . S
C1663 C1662 1.391 . S
C553 C28 1.465 . S
C559 C6 1.455 . S
C573 C62 1.464 . S
C579 C40 1.465 . S
C593 C96 1.455 . S
C599 C74 1.466 . S
C613 C108 1.463 . S
C619 C130 1.465 . S
C633 C142 1.464 . S
C639 C164 1.459 . S
C653 C176 1.466 . S
C659 C198 1.455 . S
C673 C210 1.466 . S
C679 C232 1.455 . S
C693 C266 1.464 . S
C699 C244 1.465 . S
C713 C278 1.455 . S
C719 C300 1.466 . S
C733 C312 1.464 . S
C739 C334 1.462 . S
C753 C346 1.466 . S
C759 C368 1.462 . S
C773 C380 1.462 . S
C779 C402 1.464 . S
C793 C414 1.464 . S
C799 C436 1.464 . S
C813 C448 1.460 . S
C819 C470 1.464 . S
C833 C504 1.463 . S
C839 C482 1.464 . S
C853 C516 1.466 . S
C859 C538 1.458 . S
C873 C1 1.801 . S
C879 C171 1.815 . S
C893 C37 1.791 . S
C899 C137 1.804 1_455 S
C913 C71 1.784 . S
C919 C239 1.799 1_655 S
C933 C103 1.782 . S
C939 C205 1.797 . S
C953 C139 1.795 . S
C959 C35 1.810 . S
C973 C173 1.773 . S
C979 C3 1.788 1_655 S
C993 C105 1.796 1_455 S
C999 C207 1.783 . S
C1013 C69 1.805 . S
C1019 C241 1.792 . S
C1033 C273 1.788 . S
C1039 C445 1.802 1_655 S
C1053 C411 1.814 . S
C1059 C309 1.800 . S
C1073 C343 1.783 . S
C1079 C511 1.798 . S
C1093 C477 1.788 1_455 S
C1099 C375 1.773 . S
C1113 C307 1.800 1_455 S
C1119 C409 1.785 . S
C1133 C443 1.781 . S
C1139 C275 1.795 . S
C1153 C479 1.773 . S
C1159 C377 1.788 . S
C1173 C513 1.792 . S
C1179 C341 1.806 1_655 S
C1193 C22 1.489 . S
C1199 C49 1.487 . S
C1213 C124 1.486 . S
C1219 C83 1.488 . S
C1233 C151 1.512 . S
C1239 C185 1.510 . S
C1253 C253 1.496 . S
C1259 C219 1.499 . S
C1273 C321 1.509 . S
C1279 C294 1.511 . S
C1293 C355 1.484 . S
C1299 C396 1.484 . S
C1313 C430 1.487 . S
C1319 C464 1.488 . S
C1333 C491 1.502 . S
C1339 C525 1.500 . S
C1353 C15 1.710 . S
C1359 C328 1.710 . S
C1373 C56 1.717 . S
C1379 C287 1.717 . S
C1393 C389 1.731 . S
C1399 C90 1.732 . S
C1413 C362 1.720 . S
C1419 C117 1.721 . S
C1433 C158 1.711 . S
C1439 C457 1.711 . S
C1453 C192 1.742 . S
C1459 C423 1.742 . S
C1473 C226 1.711 . S
C1479 C532 1.711 . S
C1493 C498 1.710 . S
C1499 C260 1.710 . S
C1513 C119 1.628 . S
C1519 C17 1.628 . S
C1533 C51 1.637 . S
C1539 C85 1.637 . S
C1553 C255 1.629 . S
C1559 C153 1.629 . S
C1573 C187 1.628 . S
C1579 C221 1.628 . S
C1593 C289 1.629 . S
C1599 C391 1.629 . S
C1613 C323 1.628 . S
C1619 C357 1.628 . S
C1633 C527 1.635 . S
C1639 C425 1.635 . S
C1653 C493 1.631 . S
C1659 C459 1.631 . S
