# Generated by pormake.
# Topology snp, (6)-cn, num edge types: 1
# Building blocks:
#     Node 0, Type 0, BuildingBlock: BETFEN_clean_sbu_0, # of connection points: 6
#     Node 1, Type 0, BuildingBlock: BETFEN_clean_sbu_0, # of connection points: 6
#     Node 2, Type 0, BuildingBlock: BETFEN_clean_sbu_0, # of connection points: 6
#     Node 3, Type 0, BuildingBlock: BETFEN_clean_sbu_0, # of connection points: 6
#     Edge 4, Type (0, 0), BuildingBlock: ZUJKAS_clean_linker_0, # of connection points: 2
#     Edge 5, Type (0, 0), BuildingBlock: ZUJKAS_clean_linker_0, # of connection points: 2
#     Edge 6, Type (0, 0), BuildingBlock: ZUJKAS_clean_linker_0, # of connection points: 2
#     Edge 7, Type (0, 0), BuildingBlock: ZUJKAS_clean_linker_0, # of connection points: 2
#     Edge 8, Type (0, 0), BuildingBlock: ZUJKAS_clean_linker_0, # of connection points: 2
#     Edge 9, Type (0, 0), BuildingBlock: ZUJKAS_clean_linker_0, # of connection points: 2
#     Edge 10, Type (0, 0), BuildingBlock: ZUJKAS_clean_linker_0, # of connection points: 2
#     Edge 11, Type (0, 0), BuildingBlock: ZUJKAS_clean_linker_0, # of connection points: 2
#     Edge 12, Type (0, 0), BuildingBlock: ZUJKAS_clean_linker_0, # of connection points: 2
#     Edge 13, Type (0, 0), BuildingBlock: ZUJKAS_clean_linker_0, # of connection points: 2
#     Edge 14, Type (0, 0), BuildingBlock: ZUJKAS_clean_linker_0, # of connection points: 2
#     Edge 15, Type (0, 0), BuildingBlock: ZUJKAS_clean_linker_0, # of connection points: 2
# Relax obj value: 0.227
# Max RMSD: 0.204
# Mean RMSD: 0.204
data_MOF--net-snp--node1-BETFEN_clean_sbu_0--edge1-ZUJKAS_clean_linker_0
_symmetry_space_group_name_H-M    P1
_symmetry_Int_Tables_number       1
_symmetry_cell_setting            triclinic
loop_
_symmetry_equiv_pos_as_xyz
'x, y, z'
_cell_length_a     32.36097
_cell_length_b     32.291723
_cell_length_c     44.368668
_cell_angle_alpha  85.850954
_cell_angle_beta   85.806426
_cell_angle_gamma 95.887832
loop_
_atom_site_label
_atom_site_type_symbol
_atom_site_fract_x
_atom_site_fract_y
_atom_site_fract_z
_atom_type_partial_charge
Pr0 Pr 0.20157 0.00523 0.2034 0.0
Pr1 Pr 0.22414 0.92833 0.16761 0.0
C2 C 0.16814 0.06328 0.23558 0.0
C3 C 0.16571 0.07756 0.26688 0.0
C4 C 0.19842 0.10331 0.27749 0.0
C5 C 0.19467 0.11747 0.30671 0.0
C6 C 0.15804 0.10643 0.32605 0.0
C7 C 0.12556 0.08042 0.31538 0.0
C8 C 0.12927 0.0664 0.28625 0.0
C9 C 0.28631 -0.00493 0.19577 0.0
C10 C 0.21829 0.91712 0.24107 0.0
C11 C 0.25135 0.87767 0.12631 0.0
C12 C 0.24493 0.87228 0.09409 0.0
C13 C 0.20819 0.88253 0.08171 0.0
C14 C 0.20132 0.87531 0.05163 0.0
C15 C 0.23119 0.85795 0.03307 0.0
C16 C 0.26846 0.84881 0.04545 0.0
C17 C 0.27516 0.85579 0.07563 0.0
C18 C 0.14013 0.9265 0.18801 0.0
C19 C 0.19674 0.01295 0.12809 0.0
O20 O 0.14843 0.02662 0.23206 0.0
O21 O 0.20349 0.07115 0.21863 0.0
O22 O 0.26036 0.9902 0.17631 0.0
O23 O 0.26926 0.00767 0.22039 0.0
O24 O 0.2406 0.90755 0.21678 0.0
O25 O 0.19469 0.94822 0.23969 0.0
O26 O 0.27328 0.91197 0.1323 0.0
O27 O 0.21878 0.86732 0.14555 0.0
O28 O 0.16419 0.95806 0.17733 0.0
O29 O 0.1599 0.89345 0.18801 0.0
O30 O 0.19226 0.03217 0.15344 0.0
O31 O 0.20768 0.97457 0.12814 0.0
H32 H 0.22683 0.11289 0.26317 0.0
H33 H 0.22019 0.13781 0.31387 0.0
H34 H 0.09713 0.07057 0.32961 0.0
H35 H 0.10333 0.04685 0.27882 0.0
H36 H 0.18443 0.89552 0.09548 0.0
H37 H 0.17206 0.88241 0.04323 0.0
H38 H 0.29263 0.83628 0.03183 0.0
H39 H 0.30386 0.84796 0.08463 0.0
Pr40 Pr 0.93879 0.23062 0.66037 0.0
Pr41 Pr 0.01754 0.21144 0.69913 0.0
C42 C 0.88021 0.25974 0.62711 0.0
C43 C 0.86658 0.2521 0.59651 0.0
C44 C 0.8468 0.21306 0.59046 0.0
C45 C 0.83649 0.20543 0.56111 0.0
C46 C 0.84577 0.23655 0.53698 0.0
C47 C 0.86488 0.27585 0.5432 0.0
C48 C 0.87504 0.28353 0.5726 0.0
C49 C 0.95427 0.14716 0.6643 0.0
C50 C 0.02981 0.21925 0.62246 0.0
C51 C 0.07527 0.18124 0.73365 0.0
C52 C 0.08493 0.17689 0.76583 0.0
C53 C 0.05491 0.18159 0.78952 0.0
C54 C 0.06294 0.17278 0.8199 0.0
C55 C 0.10117 0.1589 0.82729 0.0
C56 C 0.13151 0.15543 0.80338 0.0
C57 C 0.12343 0.16425 0.77307 0.0
C58 C 0.0001 0.29418 0.69192 0.0
C59 C 0.92599 0.22053 0.73543 0.0
O60 O 0.91729 0.28 0.62795 0.0
O61 O 0.8719 0.22903 0.64841 0.0
O62 O 0.96056 0.17247 0.68438 0.0
O63 O 0.93262 0.16349 0.64396 0.0
O64 O 0.04619 0.20923 0.64832 0.0
O65 O -0.00791 0.23167 0.62167 0.0
O66 O 0.04158 0.15894 0.7271 0.0
O67 O 0.08042 0.21866 0.71943 0.0
O68 O -0.00178 0.26825 0.67217 0.0
O69 O 0.014 0.27846 0.71654 0.0
O70 O 0.91356 0.23866 0.71044 0.0
O71 O 0.96118 0.20309 0.73563 0.0
H72 H 0.83965 0.18807 0.60828 0.0
H73 H 0.82113 0.17505 0.55738 0.0
H74 H 0.87296 0.30047 0.52521 0.0
H75 H 0.89028 0.31391 0.57653 0.0
H76 H 0.02482 0.19103 0.78449 0.0
H77 H 0.03864 0.17553 0.83752 0.0
H78 H 0.16157 0.14564 0.80803 0.0
H79 H 0.14702 0.16026 0.75521 0.0
Pr80 Pr 0.78064 0.08354 0.09361 0.0
Pr81 Pr 0.79341 -0.00039 0.06171 0.0
C82 C 0.76378 0.1406 0.13288 0.0
C83 C 0.76473 0.14355 0.16595 0.0
C84 C 0.79517 0.12546 0.18193 0.0
C85 C 0.79781 0.13049 0.21279 0.0
C86 C 0.77017 0.15394 0.22846 0.0
C87 C 0.7392 0.17141 0.2125 0.0
C88 C 0.7365 0.1662 0.18156 0.0
C89 C 0.85278 0.08563 0.0552 0.0
C90 C 0.81089 0.00098 0.13456 0.0
C91 C 0.82252 0.938 0.03077 0.0
C92 C 0.83171 0.93058 0.99851 0.0
C93 C 0.81253 0.95136 0.9753 0.0
C94 C 0.82262 0.94495 0.94477 0.0
C95 C 0.85229 0.91773 0.93672 0.0
C96 C 0.87147 0.89718 0.96019 0.0
C97 C 0.8613 0.90356 0.99065 0.0
C98 C 0.71214 0.0093 0.0829 0.0
C99 C 0.76342 0.08079 1.02237 0.0
O100 O 0.73453 0.11446 0.12357 0.0
O101 O 0.80006 0.14032 0.11784 0.0
O102 O 0.83674 0.05531 0.0732 0.0
O103 O 0.8341 0.11877 0.05919 0.0
O104 O 0.80837 0.97766 0.1112 0.0
O105 O 0.80362 0.04067 0.13264 0.0
O106 O 0.84674 0.96757 0.04127 0.0
O107 O 0.78332 0.93778 0.04055 0.0
O108 O 0.74431 0.01857 0.09634 0.0
O109 O 0.72098 0.99218 0.05791 0.0
O110 O 0.74958 0.09536 0.048 0.0
O111 O 0.78653 0.04926 1.02207 0.0
H112 H 0.81761 0.10815 0.17038 0.0
H113 H 0.8224 0.11703 0.22413 0.0
H114 H 0.71705 0.18919 0.22389 0.0
H115 H 0.71277 0.18043 0.1697 0.0
H116 H 0.78982 0.97265 0.98077 0.0
H117 H 0.80683 0.96106 0.92752 0.0
H118 H 0.89501 0.87664 0.95504 0.0
H119 H 0.87689 0.88761 1.00813 0.0
Pr120 Pr -0.00614 0.8012 0.56306 0.0
Pr121 Pr 0.06769 0.77104 0.60029 0.0
C122 C 0.94083 0.839 0.52863 0.0
C123 C 0.9345 0.84908 0.4961 0.0
C124 C 0.92309 0.81766 0.47694 0.0
C125 C 0.91555 0.82794 0.44671 0.0
C126 C 0.91921 0.8699 0.43476 0.0
C127 C 0.93114 0.90121 0.45392 0.0
C128 C 0.93853 0.89093 0.48416 0.0
C129 C 0.98204 0.71975 0.5894 0.0
C130 C 0.06874 0.7567 0.52653 0.0
C131 C 0.11847 0.73525 0.63723 0.0
C132 C 0.1276 0.7436 0.66857 0.0
C133 C 0.12292 0.78303 0.67903 0.0
C134 C 0.13073 0.79117 0.70875 0.0
C135 C 0.14299 0.75994 0.729 0.0
C136 C 0.14735 0.7203 0.71844 0.0
C137 C 0.13974 0.71225 0.68853 0.0
C138 C 0.08146 0.85174 0.5739 0.0
C139 C -0.00272 0.82249 0.63614 0.0
O140 O 0.97262 0.85939 0.5397 0.0
O141 O 0.93418 0.79981 0.53932 0.0
O142 O -0.00216 0.751 0.60148 0.0
O143 O 0.96986 0.73004 0.56288 0.0
O144 O 0.08135 0.74305 0.55298 0.0
O145 O 0.03967 0.78253 0.52469 0.0
O146 O 0.08071 0.71831 0.63385 0.0
O147 O 0.13175 0.76529 0.61629 0.0
O148 O 0.06375 0.82142 0.5619 0.0
O149 O 0.09518 0.84082 0.59976 0.0
O150 O 0.98059 0.83029 0.6101 0.0
O151 O 0.02813 0.79892 0.63829 0.0
H152 H 0.91949 0.78505 0.48534 0.0
H153 H 0.90593 0.80292 0.43291 0.0
H154 H 0.935 0.93382 0.44555 0.0
H155 H 0.9472 0.91586 0.49832 0.0
H156 H 0.11321 0.80769 0.66416 0.0
H157 H 0.12759 0.82223 0.71568 0.0
H158 H 0.15605 0.6952 0.73338 0.0
H159 H 0.14308 0.68148 0.68107 0.0
H160 H 0.8806 0.0364 1.01309 0.0
H161 H 0.94259 0.00202 1.02285 0.0
H162 H 0.98389 0.10113 0.07724 0.0
H163 H 0.92105 0.13427 0.06867 0.0
H164 H 0.04235 0.0211 0.04571 0.0
H165 H 0.90121 0.99172 0.1274 0.0
H166 H 0.89665 0.00208 0.08745 0.0
H167 H 0.91491 0.0435 0.10973 0.0
C168 C 0.90433 0.0521 0.02552 0.0
C169 C 0.89541 0.0862 0.04176 0.0
C170 C 0.93992 0.03263 0.03086 0.0
C171 C 0.96655 0.04826 0.05185 0.0
C172 C 0.9631 0.08839 0.06134 0.0
H173 H 0.08565 0.98112 0.20169 0.0
H174 H 0.03429 0.00086 0.16728 0.0
C175 C 0.92715 0.10749 0.05633 0.0
C176 C 0.98395 0.01813 0.07249 0.0
H177 H 0.96061 0.96358 0.14149 0.0
C178 C 0.02455 0.00806 0.06647 0.0
C179 C 0.96001 0.00078 0.0993 0.0
C180 C 0.9157 0.00985 0.10646 0.0
C181 C 0.04277 0.98271 0.08767 0.0
C182 C 0.01932 0.96702 0.11511 0.0
C183 C 0.97813 0.97551 0.12031 0.0
C184 C 0.03913 0.94781 0.14056 0.0
C185 C 0.08759 0.97472 0.08142 0.0
C186 C 0.05525 0.90939 0.13856 0.0
C187 C 0.08393 0.89763 0.15867 0.0
C188 C 0.09693 0.92473 0.18038 0.0
C189 C 0.07589 0.9598 0.18515 0.0
C190 C 0.04704 0.97134 0.16526 0.0
H191 H 0.10257 0.99295 0.06059 0.0
H192 H 0.1057 0.98274 0.10089 0.0
H193 H 0.08907 0.94105 0.0785 0.0
H194 H 0.04865 0.89056 0.11989 0.0
H195 H 0.09993 0.87048 0.15447 0.0
H196 H 0.15597 0.89241 0.55099 0.0
H197 H 0.17057 0.96829 0.53917 0.0
H198 H 0.03889 0.97974 0.55496 0.0
H199 H 0.02495 0.90507 0.56559 0.0
H200 H 0.07864 0.04829 0.51993 0.0
H201 H 0.17285 0.01957 0.61744 0.0
H202 H 0.18794 0.00571 0.57998 0.0
H203 H 0.14782 0.97318 0.60372 0.0
C204 C 0.1303 0.91145 0.55058 0.0
C205 C 0.08939 0.89374 0.55927 0.0
C206 C 0.13859 0.95459 0.54382 0.0
C207 C 0.10612 0.97996 0.54717 0.0
C208 C 0.0647 0.96111 0.5521 0.0
H209 H 0.93693 0.08429 0.62878 0.0
H210 H 0.98862 0.05442 0.59667 0.0
C211 C 0.05649 0.91826 0.55831 0.0
C212 C 0.11382 0.02356 0.55509 0.0
H213 H 0.11326 0.0547 0.6265 0.0
C214 C 0.08797 0.05153 0.54271 0.0
C215 C 0.12825 0.03011 0.58394 0.0
C216 C 0.16112 0.0059 0.59701 0.0
C217 C 0.06673 0.07675 0.56149 0.0
C218 C 0.07292 0.07427 0.59283 0.0
C219 C 0.10664 0.0547 0.6029 0.0
C220 C 0.0418 0.08627 0.61576 0.0
C221 C 0.03517 0.10234 0.54801 0.0
C222 C 0.05424 0.10794 0.6404 0.0
C223 C 0.0244 0.12184 0.66038 0.0
C224 C 0.98223 0.11655 0.65492 0.0
C225 C 0.96954 0.09 0.63292 0.0
C226 C -0.00085 0.07421 0.61387 0.0
H227 H 0.04664 0.11582 0.52482 0.0
H228 H 0.00609 0.0818 0.54574 0.0
H229 H 0.02779 0.12793 0.56219 0.0
H230 H 0.08692 0.11628 0.64323 0.0
H231 H 0.03493 0.1411 0.6775 0.0
H232 H 0.6391 0.98788 0.05825 0.0
H233 H 0.56838 0.98626 0.08246 0.0
H234 H 0.61862 0.03062 0.16311 0.0
H235 H 0.68932 0.03285 0.13889 0.0
H236 H 0.53634 0.93911 0.13595 0.0
H237 H 0.52962 0.10888 0.14673 0.0
H238 H 0.56878 0.08926 0.12216 0.0
H239 H 0.57331 0.08752 0.16233 0.0
C240 C 0.63499 -0.00231 0.08101 0.0
C241 C 0.66955 0.01059 0.09669 0.0
C242 C 0.59467 -0.00332 0.09482 0.0
C243 C 0.58832 0.00871 0.12444 0.0
C244 C 0.62283 0.02197 0.14004 0.0
H245 H 0.34941 0.01125 0.23271 0.0
H246 H 0.42469 0.01231 0.21917 0.0
C247 C 0.66315 0.02308 0.12621 0.0
C248 C 0.54559 0.00557 0.13934 0.0
H249 H 0.47162 0.0632 0.16832 0.0
C250 C 0.52224 0.96621 0.14314 0.0
C251 C 0.5275 0.04095 0.14896 0.0
C252 C 0.55088 0.08413 0.14468 0.0
C253 C 0.4809 0.96137 0.15577 0.0
C254 C 0.46239 -0.00311 0.16449 0.0
C255 C 0.48611 0.03605 0.1617 0.0
C256 C 0.41735 -0.00533 0.17357 0.0
C257 C 0.45714 0.91835 0.15938 0.0
C258 C 0.38869 0.98479 0.15232 0.0
C259 C 0.34614 0.98441 0.15988 0.0
C260 C 0.33137 -0.00613 0.18886 0.0
C261 C 0.36003 0.00361 0.21027 0.0
C262 C 0.40288 0.00425 0.20258 0.0
H263 H 0.47849 0.89351 0.15979 0.0
H264 H 0.43604 0.91408 0.18052 0.0
H265 H 0.43784 0.91433 0.13991 0.0
H266 H 0.39933 0.97817 0.12962 0.0
H267 H 0.32486 0.97751 0.14275 0.0
H268 H 0.98286 0.33158 0.63845 0.0
H269 H 0.97746 0.40545 0.62606 0.0
H270 H 0.00088 0.43131 0.71767 0.0
H271 H 0.00534 0.35656 0.73056 0.0
H272 H 0.93493 0.47349 0.692 0.0
H273 H 0.08131 0.49245 0.61676 0.0
H274 H 0.04479 0.45007 0.60819 0.0
H275 H 0.06739 0.44805 0.64405 0.0
C276 C 0.98621 0.35281 0.65613 0.0
C277 C -0.00552 0.33845 0.68547 0.0
C278 C 0.9835 0.39503 0.64893 0.0
C279 C 0.9895 0.42374 0.67082 0.0
C280 C -0.00356 0.40947 0.70047 0.0
H281 H -0.00476 0.69518 0.64748 0.0
H282 H -0.00436 0.62357 0.66977 0.0
C283 C -0.00096 0.36696 0.70776 0.0
C284 C 0.98942 0.46867 0.66213 0.0
H285 H 0.03733 0.54719 0.61215 0.0
C286 C 0.95755 0.48989 0.67485 0.0
C287 C 0.01919 0.48978 0.63985 0.0
C288 C 0.05536 0.46907 0.62661 0.0
C289 C 0.95363 0.53142 0.66479 0.0
C290 C 0.98248 0.55189 0.64167 0.0
C291 C 0.01504 0.53105 0.62966 0.0
C292 C 0.97926 0.59482 0.62911 0.0
C293 C 0.918 0.55273 0.6781 0.0
C294 C 0.97007 0.60206 0.59889 0.0
C295 C 0.96996 0.64282 0.5861 0.0
C296 C 0.97954 0.67679 0.60329 0.0
C297 C 0.98805 0.66943 0.63371 0.0
C298 C 0.98798 0.62867 0.64653 0.0
H299 H 0.89468 0.5305 0.69227 0.0
H300 H 0.93032 0.5771 0.69249 0.0
H301 H 0.90214 0.5684 0.65979 0.0
H302 H 0.96351 0.57616 0.58513 0.0
H303 H 0.96334 0.64775 0.5626 0.0
H304 H 0.10904 0.19532 0.61107 0.0
H305 H 0.14401 0.18414 0.56175 0.0
H306 H 0.03627 0.2174 0.51765 0.0
H307 H 0.00243 0.23036 0.56597 0.0
H308 H 0.13035 0.13254 0.52262 0.0
H309 H 0.11975 0.28406 0.4614 0.0
H310 H 0.10785 0.27577 0.50185 0.0
H311 H 0.06818 0.26382 0.47619 0.0
C312 C 0.09324 0.20117 0.59076 0.0
C313 C 0.05306 0.21446 0.5927 0.0
C314 C 0.11325 0.19463 0.56248 0.0
C315 C 0.09359 0.20122 0.53547 0.0
C316 C 0.05332 0.21399 0.53762 0.0
H317 H 0.08789 0.1315 0.35498 0.0
H318 H 0.07901 0.15517 0.40583 0.0
C319 C 0.03362 0.22095 0.56562 0.0
C320 C 0.11302 0.19176 0.50525 0.0
H321 H 0.12142 0.22522 0.42981 0.0
C322 C 0.12878 0.15305 0.50242 0.0
C323 C 0.1127 0.21894 0.47866 0.0
C324 C 0.10168 0.26312 0.47981 0.0
C325 C 0.1402 0.13928 0.47381 0.0
C326 C 0.13627 0.16507 0.44719 0.0
C327 C 0.12341 0.20491 0.4501 0.0
C328 C 0.14274 0.15048 0.41612 0.0
C329 C 0.15431 0.09634 0.47218 0.0
C330 C 0.18175 0.1404 0.40455 0.0
C331 C 0.18689 0.12634 0.37539 0.0
C332 C 0.15318 0.12225 0.357 0.0
C333 C 0.11441 0.13326 0.36854 0.0
C334 C 0.10932 0.14719 0.39763 0.0
H335 H 0.15132 0.0784 0.49466 0.0
H336 H 0.13594 0.07838 0.45633 0.0
H337 H 0.18756 0.09921 0.46346 0.0
H338 H 0.20832 0.14354 0.418 0.0
H339 H 0.21718 0.11809 0.36746 0.0
H340 H 0.94192 0.1849 0.79031 0.0
H341 H 0.89776 0.17714 0.83739 0.0
H342 H 0.80584 0.24327 0.79435 0.0
H343 H 0.84992 0.25064 0.74636 0.0
H344 H 0.8672 0.23655 0.8723 0.0
H345 H 0.7385 0.13389 0.83006 0.0
H346 H 0.78885 0.14519 0.80916 0.0
H347 H 0.75327 0.18429 0.81003 0.0
C348 C 0.91241 0.19798 0.79063 0.0
C349 C 0.89941 0.21816 0.76435 0.0
C350 C 0.88718 0.1936 0.81772 0.0
C351 C 0.84831 0.20925 0.81936 0.0
C352 C 0.83545 0.23037 0.79346 0.0
H353 H 0.74566 0.16176 1.01041 0.0
H354 H 0.75382 0.20153 0.96058 0.0
C355 C 0.86078 0.23471 0.76611 0.0
C356 C 0.82165 0.20188 0.84833 0.0
H357 H 0.73691 0.1397 0.88236 0.0
C358 C 0.83815 0.21617 0.87455 0.0
C359 C 0.78377 0.17531 0.85106 0.0
C360 C 0.76494 0.15846 0.8237 0.0
C361 C 0.81978 0.2019 0.90358 0.0
C362 C 0.78319 0.17332 0.90641 0.0
C363 C 0.76482 0.16173 0.88011 0.0
C364 C 0.76877 0.14904 0.93568 0.0
C365 C 0.8418 0.21471 0.93085 0.0
C366 C 0.77157 0.1059 0.93794 0.0
C367 C 0.76645 0.08319 0.9661 0.0
C368 C 0.75848 0.10311 0.99274 0.0
C369 C 0.75199 0.14559 0.99031 0.0
C370 C 0.75703 0.16842 0.96189 0.0
H371 H 0.87288 0.23234 0.92439 0.0
H372 H 0.82268 0.23498 0.94386 0.0
H373 H 0.84604 0.18684 0.94602 0.0
H374 H 0.78036 0.09014 0.91807 0.0
H375 H 0.77108 0.05038 0.9671 0.0
H376 H 0.93654 0.8286 0.38373 0.0
H377 H 0.9207 0.84698 0.3316 0.0
H378 H 0.86545 0.95476 0.36067 0.0
H379 H 0.88028 0.93633 0.41283 0.0
H380 H 0.8422 0.85774 0.30816 0.0
H381 H 0.9504 0.00356 0.29006 0.0
H382 H 0.95368 0.96446 0.32076 0.0
H383 H 0.91535 0.00085 0.32362 0.0
C384 C 0.92073 0.85607 0.37917 0.0
C385 C 0.90999 0.88106 0.40271 0.0
C386 C 0.91188 0.86664 0.34924 0.0
C387 C 0.89245 0.90261 0.34206 0.0
C388 C 0.88129 0.92736 0.36548 0.0
H389 H 0.80372 0.03436 0.18923 0.0
H390 H 0.82448 0.00753 0.2378 0.0
C391 C 0.88995 0.91678 0.39537 0.0
C392 C 0.88317 0.91412 0.31027 0.0
H393 H 0.90118 0.99258 0.25339 0.0
C394 C 0.85538 0.88702 0.29602 0.0
C395 C 0.90046 0.95227 0.29437 0.0
C396 C 0.93194 0.98184 0.30782 0.0
C397 C 0.84304 0.89786 0.26691 0.0
C398 C 0.85962 0.93652 0.2513 0.0
C399 C 0.88829 0.96303 0.26528 0.0
C400 C 0.846 0.95143 0.22129 0.0
C401 C 0.81107 0.8686 0.2537 0.0
C402 C 0.85094 0.9289 0.19549 0.0
C403 C 0.83878 0.94424 0.16738 0.0
C404 C 0.82211 0.98281 0.16438 0.0
C405 C 0.817 0.00495 0.19037 0.0
C406 C 0.82882 0.98955 0.21834 0.0
H407 H 0.79419 0.84546 0.27128 0.0
H408 H 0.78794 0.88618 0.24243 0.0
H409 H 0.82697 0.85116 0.23646 0.0
H410 H 0.86487 0.89981 0.19694 0.0
H411 H 0.84338 0.92642 0.14787 0.0
H412 H 0.20273 0.73114 0.76393 0.0
H413 H 0.21617 0.74641 0.81569 0.0
H414 H 0.11752 0.82657 0.8175 0.0
H415 H 0.10218 0.80958 0.76658 0.0
H416 H 0.24118 0.81806 0.83837 0.0
H417 H 0.08692 0.75754 0.89586 0.0
H418 H 0.10202 0.74743 0.85737 0.0
H419 H 0.08313 0.79633 0.86547 0.0
C420 C 0.18324 0.75134 0.77549 0.0
C421 C 0.15117 0.76888 0.76085 0.0
C422 C 0.19127 0.76038 0.80509 0.0
C423 C 0.16747 0.78715 0.82087 0.0
C424 C 0.13574 0.80503 0.80624 0.0
H425 H 0.18982 0.9025 0.99159 0.0
H426 H 0.17469 0.88537 0.9404 0.0
C427 C 0.12744 0.79575 0.77678 0.0
C428 C 0.17671 0.79735 0.85217 0.0
H429 H 0.13261 0.79868 0.92461 0.0
C430 C 0.21744 0.81351 0.85722 0.0
C431 C 0.14584 0.79143 0.87696 0.0
C432 C 0.10216 0.77184 0.87376 0.0
C433 C 0.22789 0.82445 0.88606 0.0
C434 C 0.1969 0.81916 0.91058 0.0
C435 C 0.15624 0.803 0.90568 0.0
C436 C 0.20635 0.82959 0.94162 0.0
C437 C 0.27189 0.84214 0.8902 0.0
C438 C 0.22894 0.80373 0.95938 0.0
C439 C 0.23713 0.81301 0.98888 0.0
C440 C 0.22311 0.84857 1.00128 0.0
C441 C 0.20063 0.87453 0.98318 0.0
C442 C 0.19215 0.86497 0.95377 0.0
H443 H 0.2909 0.84956 0.86823 0.0
H444 H 0.27173 0.87094 0.90244 0.0
H445 H 0.28704 0.81908 0.90418 0.0
H446 H 0.23981 0.77602 0.95054 0.0
H447 H 0.25376 0.79174 1.00214 0.0
H448 H 0.86972 0.84487 0.91226 0.0
H449 H 0.89105 0.83451 0.85961 0.0
H450 H 0.87997 0.96395 0.83398 0.0
H451 H 0.8602 0.97507 0.88683 0.0
H452 H 0.8513 0.84427 0.80722 0.0
H453 H -0.00251 0.95213 0.79929 0.0
H454 H 0.9682 0.93509 0.83498 0.0
H455 H 0.95124 0.97547 0.81026 0.0
C456 C 0.87226 0.87137 0.89558 0.0
C457 C 0.86357 0.91098 0.90412 0.0
C458 C 0.88414 0.86525 0.86532 0.0
C459 C 0.88782 0.89854 0.84274 0.0
C460 C 0.8782 0.93788 0.85098 0.0
H461 H 0.92383 0.85796 0.64716 0.0
H462 H 0.89507 0.87947 0.69575 0.0
C463 C 0.86636 0.94407 0.88127 0.0
C464 C 0.90199 0.89185 0.81075 0.0
H465 H 0.97996 0.92138 0.75461 0.0
C466 C 0.87929 0.86133 0.79566 0.0
C467 C 0.93876 0.9138 0.79563 0.0
C468 C 0.96562 0.9457 0.81088 0.0
C469 C 0.89246 0.85196 0.76616 0.0
C470 C 0.92914 0.874 0.75104 0.0
C471 C 0.95161 0.90478 0.76601 0.0
C472 C 0.94673 0.86308 0.72089 0.0
C473 C 0.86787 0.81741 0.75183 0.0
C474 C 0.98582 0.84787 0.71851 0.0
C475 C 0.00228 0.8357 0.6909 0.0
C476 C 0.98027 0.83866 0.66468 0.0
C477 C 0.94163 0.85515 0.66681 0.0
C478 C 0.925 0.86718 0.69466 0.0
H479 H 0.84519 0.79821 0.76857 0.0
H480 H 0.85028 0.83124 0.73379 0.0
H481 H 0.88902 0.79663 0.74122 0.0
H482 H 0.00335 0.84456 0.73828 0.0
H483 H 0.03225 0.82349 0.69027 0.0
H484 H 0.18781 0.93727 0.29616 0.0
H485 H 0.17864 0.89438 0.34386 0.0
H486 H 0.23604 0.79621 0.30149 0.0
H487 H 0.24493 0.83928 0.25285 0.0
H488 H 0.16257 0.76698 0.33498 0.0
H489 H 0.25996 0.86505 0.4047 0.0
H490 H 0.22521 0.8958 0.38568 0.0
H491 H 0.26437 0.87225 0.36379 0.0
C492 C 0.19902 0.90677 0.29685 0.0
C493 C 0.21711 0.89176 0.27053 0.0
C494 C 0.19406 0.88234 0.32436 0.0
C495 C 0.2073 0.84229 0.32653 0.0
C496 C 0.22596 0.82721 0.30045 0.0
H497 H 0.15097 0.743 0.5163 0.0
H498 H 0.19184 0.75114 0.46692 0.0
C499 C 0.23113 0.85188 0.2727 0.0
C500 C 0.19823 0.81575 0.35563 0.0
H501 H 0.20097 0.82148 0.43199 0.0
C502 C 0.17183 0.77832 0.35617 0.0
C503 C 0.21102 0.82974 0.38335 0.0
C504 C 0.2421 0.86768 0.38432 0.0
C505 C 0.1549 0.75675 0.38374 0.0
C506 C 0.16388 0.77353 0.41147 0.0
C507 C 0.19337 0.80876 0.41087 0.0
C508 C 0.13897 0.75916 0.44067 0.0
C509 C 0.12652 0.71689 0.38275 0.0
C510 C 0.09552 0.75954 0.44242 0.0
C511 C 0.07226 0.75466 0.47044 0.0
C512 C 0.09183 0.74966 0.49754 0.0
C513 C 0.1349 0.7463 0.49583 0.0
C514 C 0.15833 0.75129 0.46761 0.0
H515 H 0.13625 0.69969 0.36309 0.0
H516 H 0.12626 0.69608 0.40383 0.0
H517 H 0.09433 0.72458 0.37989 0.0
H518 H 0.07976 0.76658 0.42226 0.0
H519 H 0.03915 0.75754 0.47096 0.0
H520 H 0.14174 0.09363 0.84905 0.0
H521 H 0.15571 0.07446 0.90127 0.0
H522 H 0.09249 0.17702 0.93142 0.0
H523 H 0.07851 0.19665 0.87905 0.0
H524 H 0.20082 0.11984 0.93958 0.0
H525 H 0.03824 0.08137 0.99054 0.0
H526 H 0.05099 0.08765 0.95005 0.0
H527 H 0.04915 0.13271 0.97143 0.0
C528 C 0.13094 0.11239 0.86667 0.0
C529 C 0.10906 0.1469 0.85956 0.0
C530 C 0.13875 0.10115 0.89667 0.0
C531 C 0.12474 0.12385 0.92054 0.0
C532 C 0.10284 0.1583 0.91363 0.0
H533 H 0.15778 0.08429 0.11674 0.0
H534 H 0.14077 0.11479 0.06731 0.0
C535 C 0.09494 0.16958 0.88355 0.0
C536 C 0.13484 0.11225 0.95228 0.0
H537 H 0.09179 0.07993 0.02404 0.0
C538 C 0.17688 0.11109 0.95799 0.0
C539 C 0.10376 0.10117 0.97657 0.0
C540 C 0.05797 0.10038 0.97193 0.0
C541 C 0.18866 0.09887 0.98695 0.0
C542 C 0.15761 0.08667 1.01103 0.0
C543 C 0.11561 0.08901 1.00563 0.0
C544 C 0.1681 0.06888 0.04126 0.0
C545 C 0.23447 0.09943 0.9915 0.0
C546 C 0.1886 0.03265 0.04326 0.0
C547 C 0.19828 0.01524 0.07132 0.0
C548 C 0.18766 0.03345 0.09837 0.0
C549 C 0.16691 0.0697 0.09643 0.0
C550 C 0.15697 0.08706 0.06818 0.0
H551 H 0.25379 0.12148 0.9744 0.0
H552 H 0.2412 0.10838 1.01448 0.0
H553 H 0.24406 0.06778 0.9889 0.0
H554 H 0.19662 0.01731 1.02305 0.0
H555 H 0.21391 0.98712 0.07173 0.0
H556 H 0.7623 0.22608 0.25658 0.0
H557 H 0.77343 0.23895 0.30921 0.0
H558 H 0.80008 0.11175 0.32666 0.0
H559 H 0.78865 0.09843 0.27417 0.0
H560 H 0.73404 0.19963 0.36408 0.0
H561 H 0.90274 0.17962 0.35413 0.0
H562 H 0.87319 0.18609 0.32146 0.0
H563 H 0.86944 0.13635 0.34303 0.0
C564 C 0.77003 0.20064 0.27166 0.0
C565 C 0.77479 0.16125 0.26098 0.0
C566 C 0.77662 0.20815 0.30173 0.0
C567 C 0.78834 0.17657 0.32176 0.0
C568 C 0.79205 0.13691 0.31144 0.0
H569 H 0.85332 0.1644 0.50878 0.0
H570 H 0.83742 0.14987 0.45735 0.0
C571 C 0.78547 0.12935 0.28139 0.0
C572 C 0.79662 0.18514 0.35341 0.0
H573 H 0.87235 0.18755 0.40327 0.0
C574 C 0.76431 0.19714 0.37264 0.0
C575 C 0.83611 0.18181 0.36459 0.0
C576 C 0.87252 0.17063 0.34471 0.0
C577 C 0.77017 0.20515 0.40288 0.0
C578 C 0.80974 0.20198 0.41404 0.0
C579 C 0.84203 0.18996 0.39477 0.0
C580 C 0.81836 0.21088 0.44561 0.0
C581 C 0.73361 0.21591 0.42278 0.0
C582 C 0.81335 0.25017 0.45618 0.0
C583 C 0.82197 0.25847 0.48578 0.0
C584 C 0.83621 0.22776 0.50544 0.0
C585 C 0.84166 0.18858 0.49459 0.0
C586 C 0.8329 0.1803 0.46504 0.0
H587 H 0.70345 0.20552 0.41376 0.0
H588 H 0.73366 0.20143 0.44625 0.0
H589 H 0.73563 0.2503 0.4237 0.0
H590 H 0.80307 0.27463 0.44145 0.0
H591 H 0.81714 0.28889 0.49331 0.0
loop_
_geom_bond_atom_site_label_1
_geom_bond_atom_site_label_2
_geom_bond_distance
_geom_bond_site_symmetry_2
_ccdc_geom_bond_type
Pr0 C2 2.880 . S
Pr0 O20 2.562 . S
Pr0 O21 2.490 . S
Pr0 O22 2.695 . S
Pr0 O23 2.512 . S
Pr0 O25 2.437 . S
Pr0 O28 2.436 . S
Pr0 O30 2.438 . S
Pr1 C11 2.880 . S
Pr1 O22 2.436 1_565 S
Pr1 O24 2.438 . S
Pr1 O26 2.562 . S
Pr1 O27 2.490 . S
Pr1 O28 2.695 1_565 S
Pr1 O29 2.512 . S
Pr1 O31 2.437 1_565 S
C2 Pr0 2.880 . S
C2 C3 1.491 . S
C2 O20 1.254 . S
C2 O21 1.225 . S
C3 C2 1.491 . S
C3 C4 1.392 . S
C3 C8 1.356 . S
C4 C3 1.392 . S
C4 C5 1.368 . S
C4 H32 0.929 . S
C5 C4 1.368 . S
C5 C6 1.386 . S
C5 H33 0.929 . S
C6 C5 1.386 . S
C6 C7 1.373 . S
C7 C6 1.373 . S
C7 C8 1.409 . S
C7 H34 0.931 . S
C8 C3 1.356 . S
C8 C7 1.409 . S
C8 H35 0.930 . S
C9 O22 1.270 . S
C9 O23 1.248 . S
C10 O24 1.267 . S
C10 O25 1.278 1_565 S
C11 Pr1 2.880 . S
C11 C12 1.491 . S
C11 O26 1.254 . S
C11 O27 1.225 . S
C12 C11 1.491 . S
C12 C13 1.392 . S
C12 C17 1.356 . S
C13 C12 1.392 . S
C13 C14 1.368 1_554 S
C13 H36 0.929 . S
C14 C13 1.368 1_556 S
C14 C15 1.386 . S
C14 H37 0.929 . S
C15 C14 1.386 . S
C15 C16 1.373 . S
C16 C15 1.373 . S
C16 C17 1.409 1_556 S
C16 H38 0.931 . S
C17 C12 1.356 . S
C17 C16 1.409 1_554 S
C17 H39 0.930 . S
C18 O28 1.270 . S
C18 O29 1.248 1_545 S
C19 O30 1.267 . S
C19 O31 1.278 . S
O20 Pr0 2.562 . S
O20 C2 1.254 . S
O21 Pr0 2.490 . S
O21 C2 1.225 . S
O22 Pr0 2.695 . S
O22 Pr1 2.436 1_545 S
O22 C9 1.270 . S
O23 Pr0 2.512 . S
O23 C9 1.248 . S
O24 Pr1 2.438 . S
O24 C10 1.267 . S
O25 Pr0 2.437 . S
O25 C10 1.278 1_545 S
O26 Pr1 2.562 . S
O26 C11 1.254 . S
O27 Pr1 2.490 . S
O27 C11 1.225 . S
O28 Pr0 2.436 . S
O28 Pr1 2.695 1_545 S
O28 C18 1.270 . S
O29 Pr1 2.512 . S
O29 C18 1.248 1_565 S
O30 Pr0 2.438 . S
O30 C19 1.267 . S
O31 Pr1 2.437 1_545 S
O31 C19 1.278 . S
H32 C4 0.929 . S
H33 C5 0.929 . S
H34 C7 0.931 . S
H35 C8 0.930 . S
H36 C13 0.929 . S
H37 C14 0.929 . S
H38 C16 0.931 . S
H39 C17 0.930 . S
Pr40 C42 2.880 . S
Pr40 O60 2.562 . S
Pr40 O61 2.490 . S
Pr40 O62 2.695 1_655 S
Pr40 O63 2.512 . S
Pr40 O65 2.437 1_655 S
Pr40 O68 2.436 1_655 S
Pr40 O70 2.438 . S
Pr41 C51 2.880 . S
Pr41 O62 2.436 . S
Pr41 O64 2.438 . S
Pr41 O66 2.562 . S
Pr41 O67 2.490 . S
Pr41 O68 2.695 . S
Pr41 O69 2.512 . S
Pr41 O71 2.437 . S
C42 Pr40 2.880 . S
C42 C43 1.491 . S
C42 O60 1.254 . S
C42 O61 1.225 . S
C43 C42 1.491 . S
C43 C44 1.392 . S
C43 C48 1.356 . S
C44 C43 1.392 . S
C44 C45 1.368 . S
C44 H72 0.929 . S
C45 C44 1.368 . S
C45 C46 1.386 . S
C45 H73 0.929 . S
C46 C45 1.386 . S
C46 C47 1.373 . S
C47 C46 1.373 . S
C47 C48 1.409 . S
C47 H74 0.931 . S
C48 C43 1.356 . S
C48 C47 1.409 . S
C48 H75 0.930 . S
C49 O62 1.270 . S
C49 O63 1.248 1_455 S
C50 O64 1.267 . S
C50 O65 1.278 . S
C51 Pr41 2.880 . S
C51 C52 1.491 . S
C51 O66 1.254 . S
C51 O67 1.225 . S
C52 C51 1.491 . S
C52 C53 1.392 . S
C52 C57 1.356 . S
C53 C52 1.392 . S
C53 C54 1.368 . S
C53 H76 0.929 . S
C54 C53 1.368 . S
C54 C55 1.386 . S
C54 H77 0.929 . S
C55 C54 1.386 . S
C55 C56 1.373 . S
C56 C55 1.373 . S
C56 C57 1.409 . S
C56 H78 0.931 . S
C57 C52 1.356 . S
C57 C56 1.409 . S
C57 H79 0.930 . S
C58 O68 1.270 . S
C58 O69 1.248 . S
C59 O70 1.267 . S
C59 O71 1.278 1_655 S
O60 Pr40 2.562 . S
O60 C42 1.254 . S
O61 Pr40 2.490 . S
O61 C42 1.225 . S
O62 Pr40 2.695 1_455 S
O62 Pr41 2.436 . S
O62 C49 1.270 . S
O63 Pr40 2.512 . S
O63 C49 1.248 1_655 S
O64 Pr41 2.438 . S
O64 C50 1.267 . S
O65 Pr40 2.437 1_455 S
O65 C50 1.278 . S
O66 Pr41 2.562 . S
O66 C51 1.254 . S
O67 Pr41 2.490 . S
O67 C51 1.225 . S
O68 Pr40 2.436 1_455 S
O68 Pr41 2.695 . S
O68 C58 1.270 . S
O69 Pr41 2.512 . S
O69 C58 1.248 . S
O70 Pr40 2.438 . S
O70 C59 1.267 . S
O71 Pr41 2.437 . S
O71 C59 1.278 1_455 S
H72 C44 0.929 . S
H73 C45 0.929 . S
H74 C47 0.931 . S
H75 C48 0.930 . S
H76 C53 0.929 . S
H77 C54 0.929 . S
H78 C56 0.931 . S
H79 C57 0.930 . S
Pr80 C82 2.880 . S
Pr80 O100 2.562 . S
Pr80 O101 2.490 . S
Pr80 O102 2.695 . S
Pr80 O103 2.512 . S
Pr80 O105 2.437 . S
Pr80 O108 2.436 . S
Pr80 O110 2.438 . S
Pr81 C91 2.880 1_554 S
Pr81 O102 2.436 1_565 S
Pr81 O104 2.438 . S
Pr81 O106 2.562 . S
Pr81 O107 2.490 . S
Pr81 O108 2.695 1_565 S
Pr81 O109 2.512 . S
Pr81 O111 2.437 1_565 S
C82 Pr80 2.880 . S
C82 C83 1.491 . S
C82 O100 1.254 . S
C82 O101 1.225 . S
C83 C82 1.491 . S
C83 C84 1.392 . S
C83 C88 1.356 . S
C84 C83 1.392 . S
C84 C85 1.368 . S
C84 H112 0.929 . S
C85 C84 1.368 . S
C85 C86 1.386 . S
C85 H113 0.929 . S
C86 C85 1.386 . S
C86 C87 1.373 . S
C87 C86 1.373 . S
C87 C88 1.409 . S
C87 H114 0.931 . S
C88 C83 1.356 . S
C88 C87 1.409 . S
C88 H115 0.930 . S
C89 O102 1.270 . S
C89 O103 1.248 . S
C90 O104 1.267 . S
C90 O105 1.278 1_565 S
C91 Pr81 2.880 1_556 S
C91 C92 1.491 . S
C91 O106 1.254 1_556 S
C91 O107 1.225 1_556 S
C92 C91 1.491 . S
C92 C93 1.392 . S
C92 C97 1.356 . S
C93 C92 1.392 . S
C93 C94 1.368 . S
C93 H116 0.929 . S
C94 C93 1.368 . S
C94 C95 1.386 . S
C94 H117 0.929 . S
C95 C94 1.386 . S
C95 C96 1.373 . S
C96 C95 1.373 . S
C96 C97 1.409 . S
C96 H118 0.931 . S
C97 C92 1.356 . S
C97 C96 1.409 . S
C97 H119 0.930 . S
C98 O108 1.270 1_565 S
C98 O109 1.248 . S
C99 O110 1.267 . S
C99 O111 1.278 . S
O100 Pr80 2.562 . S
O100 C82 1.254 . S
O101 Pr80 2.490 . S
O101 C82 1.225 . S
O102 Pr80 2.695 . S
O102 Pr81 2.436 1_545 S
O102 C89 1.270 . S
O103 Pr80 2.512 . S
O103 C89 1.248 . S
O104 Pr81 2.438 . S
O104 C90 1.267 . S
O105 Pr80 2.437 . S
O105 C90 1.278 1_545 S
O106 Pr81 2.562 . S
O106 C91 1.254 1_554 S
O107 Pr81 2.490 . S
O107 C91 1.225 1_554 S
O108 Pr80 2.436 . S
O108 Pr81 2.695 1_545 S
O108 C98 1.270 1_545 S
O109 Pr81 2.512 . S
O109 C98 1.248 . S
O110 Pr80 2.438 . S
O110 C99 1.267 . S
O111 Pr81 2.437 1_545 S
O111 C99 1.278 . S
H112 C84 0.929 . S
H113 C85 0.929 . S
H114 C87 0.931 . S
H115 C88 0.930 . S
H116 C93 0.929 . S
H117 C94 0.929 . S
H118 C96 0.931 . S
H119 C97 0.930 . S
Pr120 C122 2.880 . S
Pr120 O140 2.562 . S
Pr120 O141 2.490 . S
Pr120 O142 2.695 1_655 S
Pr120 O143 2.512 . S
Pr120 O145 2.437 1_655 S
Pr120 O148 2.436 1_655 S
Pr120 O150 2.438 . S
Pr121 C131 2.880 . S
Pr121 O142 2.436 . S
Pr121 O144 2.438 . S
Pr121 O146 2.562 . S
Pr121 O147 2.490 . S
Pr121 O148 2.695 . S
Pr121 O149 2.512 . S
Pr121 O151 2.456 . S
C122 Pr120 2.880 . S
C122 C123 1.491 . S
C122 O140 1.254 . S
C122 O141 1.225 . S
C123 C122 1.491 . S
C123 C124 1.392 . S
C123 C128 1.356 . S
C124 C123 1.392 . S
C124 C125 1.368 . S
C124 H152 0.929 . S
C125 C124 1.368 . S
C125 C126 1.386 . S
C125 H153 0.929 . S
C126 C125 1.386 . S
C126 C127 1.373 . S
C127 C126 1.373 . S
C127 C128 1.409 . S
C127 H154 0.931 . S
C128 C123 1.356 . S
C128 C127 1.409 . S
C128 H155 0.930 . S
C129 O142 1.270 1_655 S
C129 O143 1.248 . S
C130 O144 1.267 . S
C130 O145 1.278 . S
C131 Pr121 2.880 . S
C131 C132 1.491 . S
C131 O146 1.254 . S
C131 O147 1.225 . S
C132 C131 1.491 . S
C132 C133 1.392 . S
C132 C137 1.356 . S
C133 C132 1.392 . S
C133 C134 1.368 . S
C133 H156 0.929 . S
C134 C133 1.368 . S
C134 C135 1.386 . S
C134 H157 0.929 . S
C135 C134 1.386 . S
C135 C136 1.373 . S
C136 C135 1.373 . S
C136 C137 1.409 . S
C136 H158 0.931 . S
C137 C132 1.356 . S
C137 C136 1.409 . S
C137 H159 0.930 . S
C138 O148 1.270 . S
C138 O149 1.248 . S
C139 O150 1.267 . S
C139 O151 1.256 1_655 S
O140 Pr120 2.562 . S
O140 C122 1.254 . S
O141 Pr120 2.490 . S
O141 C122 1.225 . S
O142 Pr120 2.695 1_455 S
O142 Pr121 2.436 . S
O142 C129 1.270 1_455 S
O143 Pr120 2.512 . S
O143 C129 1.248 . S
O144 Pr121 2.438 . S
O144 C130 1.267 . S
O145 Pr120 2.437 1_455 S
O145 C130 1.278 . S
O146 Pr121 2.562 . S
O146 C131 1.254 . S
O147 Pr121 2.490 . S
O147 C131 1.225 . S
O148 Pr120 2.436 1_455 S
O148 Pr121 2.695 . S
O148 C138 1.270 . S
O149 Pr121 2.512 . S
O149 C138 1.248 . S
O150 Pr120 2.438 . S
O150 C139 1.267 . S
O151 Pr121 2.456 . S
O151 C139 1.256 1_455 S
H152 C124 0.929 . S
H153 C125 0.929 . S
H154 C127 0.931 . S
H155 C128 0.930 . S
H156 C133 0.929 . S
H157 C134 0.929 . S
H158 C136 0.931 . S
H159 C137 0.930 . S
H160 C168 0.929 . S
H161 C170 0.930 . S
H162 C172 0.930 . S
H163 C175 0.929 . S
H164 C178 0.930 . S
H165 C180 0.960 . S
H166 C180 0.960 . S
H167 C180 0.960 . S
C168 H160 0.929 . S
C168 C169 1.377 1_565 S
C168 C170 1.384 . S
C169 C168 1.377 1_545 S
C169 C175 1.390 . S
C170 H161 0.930 . S
C170 C168 1.384 . S
C170 C171 1.372 1_565 S
C171 C170 1.372 1_545 S
C171 C172 1.400 . S
C171 C176 1.490 . S
C172 H162 0.930 . S
C172 C171 1.400 . S
C172 C175 1.386 . S
H173 C189 0.930 . S
H174 C190 0.931 . S
C175 H163 0.929 . S
C175 C169 1.390 . S
C175 C172 1.386 . S
C176 C171 1.490 . S
C176 C178 1.395 1_545 S
C176 C179 1.403 . S
H177 C183 0.930 . S
C178 H164 0.930 . S
C178 C176 1.395 1_565 S
C178 C181 1.403 1_655 S
C179 C176 1.403 . S
C179 C180 1.524 . S
C179 C183 1.400 1_655 S
C180 H165 0.960 . S
C180 H166 0.960 . S
C180 H167 0.960 . S
C180 C179 1.524 . S
C181 C178 1.403 1_455 S
C181 C182 1.392 1_565 S
C181 C185 1.495 . S
C182 C181 1.392 1_545 S
C182 C183 1.385 . S
C182 C184 1.478 . S
C183 H177 0.930 . S
C183 C179 1.400 1_455 S
C183 C182 1.385 . S
C184 C182 1.478 . S
C184 C186 1.381 1_545 S
C184 C190 1.383 . S
C185 C181 1.495 . S
C185 H191 0.959 . S
C185 H192 0.961 . S
C185 H193 0.960 . S
C186 C184 1.381 1_565 S
C186 C187 1.394 . S
C186 H194 0.930 . S
C187 C186 1.394 . S
C187 C188 1.383 1_565 S
C187 H195 0.929 . S
C188 C187 1.383 1_545 S
C188 C189 1.377 . S
C189 H173 0.930 . S
C189 C188 1.377 . S
C189 C190 1.379 . S
C190 H174 0.931 . S
C190 C184 1.383 . S
C190 C189 1.379 . S
H191 C185 0.959 . S
H192 C185 0.961 . S
H193 C185 0.960 . S
H194 C186 0.930 . S
H195 C187 0.929 . S
H196 C204 0.929 . S
H197 C206 0.930 . S
H198 C208 0.930 . S
H199 C211 0.929 . S
H200 C214 0.930 . S
H201 C216 0.960 1_545 S
H202 C216 0.960 . S
H203 C216 0.960 . S
C204 H196 0.929 . S
C204 C205 1.377 1_655 S
C204 C206 1.384 . S
C205 C204 1.377 1_455 S
C205 C211 1.390 . S
C206 H197 0.930 . S
C206 C204 1.384 . S
C206 C207 1.372 1_655 S
C207 C206 1.372 1_455 S
C207 C208 1.400 . S
C207 C212 1.490 . S
C208 H198 0.930 . S
C208 C207 1.400 . S
C208 C211 1.386 . S
H209 C225 0.930 . S
H210 C226 0.931 . S
C211 H199 0.929 . S
C211 C205 1.390 . S
C211 C208 1.386 . S
C212 C207 1.490 . S
C212 C214 1.395 1_455 S
C212 C215 1.402 . S
H213 C219 0.930 . S
C214 H200 0.930 . S
C214 C212 1.395 1_655 S
C214 C217 1.403 1_565 S
C215 C212 1.402 . S
C215 C216 1.523 . S
C215 C219 1.402 1_565 S
C216 H201 0.960 1_565 S
C216 H202 0.960 . S
C216 H203 0.960 . S
C216 C215 1.523 . S
C217 C214 1.403 1_545 S
C217 C218 1.392 1_655 S
C217 C221 1.495 . S
C218 C217 1.392 1_455 S
C218 C219 1.385 . S
C218 C220 1.478 . S
C219 H213 0.930 . S
C219 C215 1.402 1_545 S
C219 C218 1.385 . S
C220 C218 1.478 . S
C220 C222 1.381 . S
C220 C226 1.383 . S
C221 C217 1.495 . S
C221 H227 0.959 . S
C221 H228 0.961 . S
C221 H229 0.960 . S
C222 C220 1.381 . S
C222 C223 1.394 . S
C222 H230 0.930 1_455 S
C223 C222 1.394 . S
C223 C224 1.383 . S
C223 H231 0.929 . S
C224 C223 1.383 . S
C224 C225 1.377 . S
C225 H209 0.930 . S
C225 C224 1.377 . S
C225 C226 1.379 . S
C226 H210 0.931 . S
C226 C220 1.383 . S
C226 C225 1.379 . S
H227 C221 0.959 . S
H228 C221 0.961 . S
H229 C221 0.960 . S
H230 C222 0.930 1_655 S
H231 C223 0.929 . S
H232 C240 0.929 . S
H233 C242 0.930 . S
H234 C244 0.930 1_565 S
H235 C247 0.930 1_565 S
H236 C250 0.930 . S
H237 C252 0.960 . S
H238 C252 0.960 . S
H239 C252 0.960 . S
C240 H232 0.929 . S
C240 C241 1.377 . S
C240 C242 1.384 . S
C241 C240 1.377 . S
C241 C247 1.390 . S
C242 H233 0.930 . S
C242 C240 1.384 . S
C242 C243 1.372 . S
C243 C242 1.372 . S
C243 C244 1.400 . S
C243 C248 1.490 . S
C244 H234 0.930 1_545 S
C244 C243 1.400 . S
C244 C247 1.385 . S
H245 C261 0.927 1_565 S
H246 C262 0.931 1_565 S
C247 H235 0.930 1_545 S
C247 C241 1.390 . S
C247 C244 1.385 . S
C248 C243 1.490 . S
C248 C250 1.395 1_545 S
C248 C251 1.403 . S
H249 C255 0.930 . S
C250 H236 0.930 . S
C250 C248 1.395 1_565 S
C250 C253 1.403 . S
C251 C248 1.403 . S
C251 C252 1.524 . S
C251 C255 1.400 . S
C252 H237 0.960 . S
C252 H238 0.960 . S
C252 H239 0.960 . S
C252 C251 1.524 . S
C253 C250 1.403 . S
C253 C254 1.392 1_565 S
C253 C257 1.495 . S
C254 C253 1.392 1_545 S
C254 C255 1.385 . S
C254 C256 1.478 . S
C255 H249 0.930 . S
C255 C251 1.400 . S
C255 C254 1.385 . S
C256 C254 1.478 . S
C256 C258 1.381 . S
C256 C262 1.383 . S
C257 C253 1.495 . S
C257 H263 0.959 . S
C257 H264 0.961 . S
C257 H265 0.960 . S
C258 C256 1.381 . S
C258 C259 1.394 . S
C258 H266 0.930 . S
C259 C258 1.394 . S
C259 C260 1.383 . S
C259 H267 0.929 . S
C260 C259 1.383 . S
C260 C261 1.377 . S
C261 H245 0.927 1_545 S
C261 C260 1.377 . S
C261 C262 1.379 . S
C262 H246 0.931 1_545 S
C262 C256 1.383 . S
C262 C261 1.379 . S
H263 C257 0.959 . S
H264 C257 0.961 . S
H265 C257 0.960 . S
H266 C258 0.930 . S
H267 C259 0.929 . S
H268 C276 0.929 . S
H269 C278 0.930 . S
H270 C280 0.930 . S
H271 C283 0.929 . S
H272 C286 0.930 . S
H273 C288 0.960 . S
H274 C288 0.960 . S
H275 C288 0.960 . S
C276 H268 0.929 . S
C276 C277 1.377 1_655 S
C276 C278 1.384 . S
C277 C276 1.377 1_455 S
C277 C283 1.390 . S
C278 H269 0.930 . S
C278 C276 1.384 . S
C278 C279 1.372 1_655 S
C279 C278 1.372 1_455 S
C279 C280 1.400 . S
C279 C284 1.490 . S
C280 H270 0.930 . S
C280 C279 1.400 . S
C280 C283 1.386 . S
H281 C297 0.930 . S
H282 C298 0.931 . S
C283 H271 0.929 . S
C283 C277 1.390 . S
C283 C280 1.386 . S
C284 C279 1.490 . S
C284 C286 1.395 1_455 S
C284 C287 1.403 . S
H285 C291 0.930 . S
C286 H272 0.930 . S
C286 C284 1.395 1_655 S
C286 C289 1.403 . S
C287 C284 1.403 . S
C287 C288 1.524 . S
C287 C291 1.400 . S
C288 H273 0.960 . S
C288 H274 0.960 . S
C288 H275 0.960 . S
C288 C287 1.524 . S
C289 C286 1.403 . S
C289 C290 1.392 1_655 S
C289 C293 1.495 . S
C290 C289 1.392 1_455 S
C290 C291 1.385 . S
C290 C292 1.478 . S
C291 H285 0.930 . S
C291 C287 1.400 . S
C291 C290 1.385 . S
C292 C290 1.478 . S
C292 C294 1.381 1_455 S
C292 C298 1.383 . S
C293 C289 1.495 . S
C293 H299 0.959 . S
C293 H300 0.961 . S
C293 H301 0.960 . S
C294 C292 1.381 1_655 S
C294 C295 1.394 . S
C294 H302 0.930 . S
C295 C294 1.394 . S
C295 C296 1.383 1_655 S
C295 H303 0.929 . S
C296 C295 1.383 1_455 S
C296 C297 1.377 . S
C297 H281 0.930 . S
C297 C296 1.377 . S
C297 C298 1.379 . S
C298 H282 0.931 . S
C298 C292 1.383 . S
C298 C297 1.379 . S
H299 C293 0.959 . S
H300 C293 0.961 . S
H301 C293 0.960 . S
H302 C294 0.930 . S
H303 C295 0.929 . S
H304 C312 0.929 . S
H305 C314 0.930 . S
H306 C316 0.930 . S
H307 C319 0.929 . S
H308 C322 0.930 . S
H309 C324 0.960 . S
H310 C324 0.960 . S
H311 C324 0.960 . S
C312 H304 0.929 . S
C312 C313 1.377 . S
C312 C314 1.384 . S
C313 C312 1.377 . S
C313 C319 1.390 . S
C314 H305 0.930 . S
C314 C312 1.384 . S
C314 C315 1.372 . S
C315 C314 1.372 . S
C315 C316 1.400 . S
C315 C320 1.490 . S
C316 H306 0.930 . S
C316 C315 1.400 . S
C316 C319 1.386 . S
H317 C333 0.930 . S
H318 C334 0.931 . S
C319 H307 0.929 . S
C319 C313 1.390 . S
C319 C316 1.386 . S
C320 C315 1.490 . S
C320 C322 1.395 . S
C320 C323 1.403 . S
H321 C327 0.930 . S
C322 H308 0.930 . S
C322 C320 1.395 . S
C322 C325 1.403 . S
C323 C320 1.403 . S
C323 C324 1.524 . S
C323 C327 1.400 . S
C324 H309 0.960 . S
C324 H310 0.960 . S
C324 H311 0.960 . S
C324 C323 1.524 . S
C325 C322 1.403 . S
C325 C326 1.392 . S
C325 C329 1.495 . S
C326 C325 1.392 . S
C326 C327 1.385 . S
C326 C328 1.478 . S
C327 H321 0.930 . S
C327 C323 1.400 . S
C327 C326 1.385 . S
C328 C326 1.478 . S
C328 C330 1.381 . S
C328 C334 1.383 . S
C329 C325 1.495 . S
C329 H335 0.959 . S
C329 H336 0.961 . S
C329 H337 0.960 . S
C330 C328 1.381 . S
C330 C331 1.394 . S
C330 H338 0.930 . S
C331 C330 1.394 . S
C331 C332 1.383 . S
C331 H339 0.929 . S
C332 C331 1.383 . S
C332 C333 1.377 . S
C333 H317 0.930 . S
C333 C332 1.377 . S
C333 C334 1.379 . S
C334 H318 0.931 . S
C334 C328 1.383 . S
C334 C333 1.379 . S
H335 C329 0.959 . S
H336 C329 0.961 . S
H337 C329 0.960 . S
H338 C330 0.930 . S
H339 C331 0.929 . S
H340 C348 0.929 . S
H341 C350 0.930 . S
H342 C352 0.930 . S
H343 C355 0.929 . S
H344 C358 0.930 . S
H345 C360 0.960 . S
H346 C360 0.960 . S
H347 C360 0.960 . S
C348 H340 0.929 . S
C348 C349 1.377 . S
C348 C350 1.384 . S
C349 C348 1.377 . S
C349 C355 1.390 . S
C350 H341 0.930 . S
C350 C348 1.384 . S
C350 C351 1.372 . S
C351 C350 1.372 . S
C351 C352 1.400 . S
C351 C356 1.490 . S
C352 H342 0.930 . S
C352 C351 1.400 . S
C352 C355 1.386 . S
H353 C369 0.930 . S
H354 C370 0.931 . S
C355 H343 0.929 . S
C355 C349 1.390 . S
C355 C352 1.386 . S
C356 C351 1.490 . S
C356 C358 1.395 . S
C356 C359 1.403 . S
H357 C363 0.930 . S
C358 H344 0.930 . S
C358 C356 1.395 . S
C358 C361 1.403 . S
C359 C356 1.403 . S
C359 C360 1.524 . S
C359 C363 1.400 . S
C360 H345 0.960 . S
C360 H346 0.960 . S
C360 H347 0.960 . S
C360 C359 1.524 . S
C361 C358 1.403 . S
C361 C362 1.392 . S
C361 C365 1.495 . S
C362 C361 1.392 . S
C362 C363 1.385 . S
C362 C364 1.478 . S
C363 H357 0.930 . S
C363 C359 1.400 . S
C363 C362 1.385 . S
C364 C362 1.478 . S
C364 C366 1.381 . S
C364 C370 1.383 . S
C365 C361 1.495 . S
C365 H371 0.959 . S
C365 H372 0.961 . S
C365 H373 0.960 . S
C366 C364 1.381 . S
C366 C367 1.394 . S
C366 H374 0.930 . S
C367 C366 1.394 . S
C367 C368 1.383 . S
C367 H375 0.929 . S
C368 C367 1.383 . S
C368 C369 1.377 . S
C369 H353 0.930 . S
C369 C368 1.377 . S
C369 C370 1.379 . S
C370 H354 0.931 . S
C370 C364 1.383 . S
C370 C369 1.379 . S
H371 C365 0.959 . S
H372 C365 0.961 . S
H373 C365 0.960 . S
H374 C366 0.930 . S
H375 C367 0.929 . S
H376 C384 0.929 . S
H377 C386 0.930 . S
H378 C388 0.930 . S
H379 C391 0.929 . S
H380 C394 0.930 . S
H381 C396 0.960 . S
H382 C396 0.960 . S
H383 C396 0.960 . S
C384 H376 0.929 . S
C384 C385 1.377 . S
C384 C386 1.384 . S
C385 C384 1.377 . S
C385 C391 1.390 . S
C386 H377 0.930 . S
C386 C384 1.384 . S
C386 C387 1.372 . S
C387 C386 1.372 . S
C387 C388 1.400 . S
C387 C392 1.490 . S
C388 H378 0.930 . S
C388 C387 1.400 . S
C388 C391 1.386 . S
H389 C405 0.930 . S
H390 C406 0.931 . S
C391 H379 0.929 . S
C391 C385 1.390 . S
C391 C388 1.386 . S
C392 C387 1.490 . S
C392 C394 1.395 . S
C392 C395 1.403 . S
H393 C399 0.930 . S
C394 H380 0.930 . S
C394 C392 1.395 . S
C394 C397 1.403 . S
C395 C392 1.403 . S
C395 C396 1.524 . S
C395 C399 1.400 . S
C396 H381 0.960 . S
C396 H382 0.960 . S
C396 H383 0.960 . S
C396 C395 1.524 . S
C397 C394 1.403 . S
C397 C398 1.392 . S
C397 C401 1.495 . S
C398 C397 1.392 . S
C398 C399 1.385 . S
C398 C400 1.478 . S
C399 H393 0.930 . S
C399 C395 1.400 . S
C399 C398 1.385 . S
C400 C398 1.478 . S
C400 C402 1.381 . S
C400 C406 1.383 . S
C401 C397 1.495 . S
C401 H407 0.959 . S
C401 H408 0.961 . S
C401 H409 0.960 . S
C402 C400 1.381 . S
C402 C403 1.394 . S
C402 H410 0.930 . S
C403 C402 1.394 . S
C403 C404 1.383 . S
C403 H411 0.929 . S
C404 C403 1.383 . S
C404 C405 1.377 . S
C405 H389 0.930 . S
C405 C404 1.377 . S
C405 C406 1.379 . S
C406 H390 0.931 . S
C406 C400 1.383 . S
C406 C405 1.379 . S
H407 C401 0.959 . S
H408 C401 0.961 . S
H409 C401 0.960 . S
H410 C402 0.930 . S
H411 C403 0.929 . S
H412 C420 0.929 . S
H413 C422 0.930 . S
H414 C424 0.930 . S
H415 C427 0.929 . S
H416 C430 0.930 . S
H417 C432 0.960 . S
H418 C432 0.960 . S
H419 C432 0.960 . S
C420 H412 0.929 . S
C420 C421 1.377 . S
C420 C422 1.384 . S
C421 C420 1.377 . S
C421 C427 1.390 . S
C422 H413 0.930 . S
C422 C420 1.384 . S
C422 C423 1.372 . S
C423 C422 1.372 . S
C423 C424 1.400 . S
C423 C428 1.490 . S
C424 H414 0.930 . S
C424 C423 1.400 . S
C424 C427 1.386 . S
H425 C441 0.930 . S
H426 C442 0.931 . S
C427 H415 0.929 . S
C427 C421 1.390 . S
C427 C424 1.386 . S
C428 C423 1.490 . S
C428 C430 1.395 . S
C428 C431 1.403 . S
H429 C435 0.930 . S
C430 H416 0.930 . S
C430 C428 1.395 . S
C430 C433 1.403 . S
C431 C428 1.403 . S
C431 C432 1.524 . S
C431 C435 1.400 . S
C432 H417 0.960 . S
C432 H418 0.960 . S
C432 H419 0.960 . S
C432 C431 1.524 . S
C433 C430 1.403 . S
C433 C434 1.392 . S
C433 C437 1.495 . S
C434 C433 1.392 . S
C434 C435 1.385 . S
C434 C436 1.478 . S
C435 H429 0.930 . S
C435 C431 1.400 . S
C435 C434 1.385 . S
C436 C434 1.478 . S
C436 C438 1.381 . S
C436 C442 1.383 . S
C437 C433 1.495 . S
C437 H443 0.959 . S
C437 H444 0.961 . S
C437 H445 0.960 . S
C438 C436 1.381 . S
C438 C439 1.394 . S
C438 H446 0.930 . S
C439 C438 1.394 . S
C439 C440 1.383 . S
C439 H447 0.929 . S
C440 C439 1.383 . S
C440 C441 1.377 . S
C441 H425 0.930 . S
C441 C440 1.377 . S
C441 C442 1.379 . S
C442 H426 0.931 . S
C442 C436 1.383 . S
C442 C441 1.379 . S
H443 C437 0.959 . S
H444 C437 0.961 . S
H445 C437 0.960 . S
H446 C438 0.930 . S
H447 C439 0.929 . S
H448 C456 0.929 . S
H449 C458 0.930 . S
H450 C460 0.930 . S
H451 C463 0.929 . S
H452 C466 0.930 . S
H453 C468 0.960 . S
H454 C468 0.960 . S
H455 C468 0.960 . S
C456 H448 0.929 . S
C456 C457 1.377 . S
C456 C458 1.384 . S
C457 C456 1.377 . S
C457 C463 1.390 . S
C458 H449 0.930 . S
C458 C456 1.384 . S
C458 C459 1.372 . S
C459 C458 1.372 . S
C459 C460 1.400 . S
C459 C464 1.490 . S
C460 H450 0.930 . S
C460 C459 1.400 . S
C460 C463 1.386 . S
H461 C477 0.930 . S
H462 C478 0.931 . S
C463 H451 0.929 . S
C463 C457 1.390 . S
C463 C460 1.386 . S
C464 C459 1.490 . S
C464 C466 1.395 . S
C464 C467 1.403 . S
H465 C471 0.930 . S
C466 H452 0.930 . S
C466 C464 1.395 . S
C466 C469 1.403 . S
C467 C464 1.403 . S
C467 C468 1.524 . S
C467 C471 1.400 . S
C468 H453 0.960 . S
C468 H454 0.960 . S
C468 H455 0.960 . S
C468 C467 1.524 . S
C469 C466 1.403 . S
C469 C470 1.392 . S
C469 C473 1.495 . S
C470 C469 1.392 . S
C470 C471 1.385 . S
C470 C472 1.478 . S
C471 H465 0.930 . S
C471 C467 1.400 . S
C471 C470 1.385 . S
C472 C470 1.478 . S
C472 C474 1.381 . S
C472 C478 1.383 . S
C473 C469 1.495 . S
C473 H479 0.959 . S
C473 H480 0.961 . S
C473 H481 0.960 . S
C474 C472 1.381 . S
C474 C475 1.394 . S
C474 H482 0.930 . S
C475 C474 1.394 . S
C475 C476 1.383 . S
C475 H483 0.929 . S
C476 C475 1.383 . S
C476 C477 1.377 . S
C477 H461 0.930 . S
C477 C476 1.377 . S
C477 C478 1.379 . S
C478 H462 0.931 . S
C478 C472 1.383 . S
C478 C477 1.379 . S
H479 C473 0.959 . S
H480 C473 0.961 . S
H481 C473 0.960 . S
H482 C474 0.930 . S
H483 C475 0.929 . S
H484 C492 0.929 . S
H485 C494 0.930 . S
H486 C496 0.930 . S
H487 C499 0.929 . S
H488 C502 0.930 . S
H489 C504 0.960 . S
H490 C504 0.960 . S
H491 C504 0.960 . S
C492 H484 0.929 . S
C492 C493 1.377 . S
C492 C494 1.384 . S
C493 C492 1.377 . S
C493 C499 1.390 . S
C494 H485 0.930 . S
C494 C492 1.384 . S
C494 C495 1.372 . S
C495 C494 1.372 . S
C495 C496 1.400 . S
C495 C500 1.490 . S
C496 H486 0.930 . S
C496 C495 1.400 . S
C496 C499 1.386 . S
H497 C513 0.930 . S
H498 C514 0.931 . S
C499 H487 0.929 . S
C499 C493 1.390 . S
C499 C496 1.386 . S
C500 C495 1.490 . S
C500 C502 1.395 . S
C500 C503 1.403 . S
H501 C507 0.930 . S
C502 H488 0.930 . S
C502 C500 1.395 . S
C502 C505 1.403 . S
C503 C500 1.403 . S
C503 C504 1.524 . S
C503 C507 1.400 . S
C504 H489 0.960 . S
C504 H490 0.960 . S
C504 H491 0.960 . S
C504 C503 1.524 . S
C505 C502 1.403 . S
C505 C506 1.392 . S
C505 C509 1.495 . S
C506 C505 1.392 . S
C506 C507 1.385 . S
C506 C508 1.478 . S
C507 H501 0.930 . S
C507 C503 1.400 . S
C507 C506 1.385 . S
C508 C506 1.478 . S
C508 C510 1.381 . S
C508 C514 1.383 . S
C509 C505 1.495 . S
C509 H515 0.959 . S
C509 H516 0.961 . S
C509 H517 0.960 . S
C510 C508 1.381 . S
C510 C511 1.394 . S
C510 H518 0.930 . S
C511 C510 1.394 . S
C511 C512 1.383 . S
C511 H519 0.929 . S
C512 C511 1.383 . S
C512 C513 1.377 . S
C513 H497 0.930 . S
C513 C512 1.377 . S
C513 C514 1.379 . S
C514 H498 0.931 . S
C514 C508 1.383 . S
C514 C513 1.379 . S
H515 C509 0.959 . S
H516 C509 0.961 . S
H517 C509 0.960 . S
H518 C510 0.930 . S
H519 C511 0.929 . S
H520 C528 0.929 . S
H521 C530 0.930 . S
H522 C532 0.930 . S
H523 C535 0.929 . S
H524 C538 0.930 . S
H525 C540 0.960 . S
H526 C540 0.960 . S
H527 C540 0.960 . S
C528 H520 0.929 . S
C528 C529 1.377 . S
C528 C530 1.384 . S
C529 C528 1.377 . S
C529 C535 1.390 . S
C530 H521 0.930 . S
C530 C528 1.384 . S
C530 C531 1.372 . S
C531 C530 1.372 . S
C531 C532 1.400 . S
C531 C536 1.490 . S
C532 H522 0.930 . S
C532 C531 1.400 . S
C532 C535 1.386 . S
H533 C549 0.930 . S
H534 C550 0.931 1_556 S
C535 H523 0.929 . S
C535 C529 1.390 . S
C535 C532 1.386 . S
C536 C531 1.490 . S
C536 C538 1.395 . S
C536 C539 1.403 . S
H537 C543 0.930 . S
C538 H524 0.930 . S
C538 C536 1.395 . S
C538 C541 1.403 . S
C539 C536 1.403 . S
C539 C540 1.524 . S
C539 C543 1.400 . S
C540 H525 0.960 . S
C540 H526 0.960 . S
C540 H527 0.960 . S
C540 C539 1.524 . S
C541 C538 1.403 . S
C541 C542 1.392 . S
C541 C545 1.495 . S
C542 C541 1.392 . S
C542 C543 1.385 . S
C542 C544 1.478 . S
C543 H537 0.930 . S
C543 C539 1.400 . S
C543 C542 1.385 . S
C544 C542 1.478 . S
C544 C546 1.381 1_556 S
C544 C550 1.383 1_556 S
C545 C541 1.495 . S
C545 H551 0.959 . S
C545 H552 0.961 . S
C545 H553 0.960 . S
C546 C544 1.381 1_554 S
C546 C547 1.394 . S
C546 H554 0.930 . S
C547 C546 1.394 . S
C547 C548 1.383 . S
C547 H555 0.929 . S
C548 C547 1.383 . S
C548 C549 1.377 . S
C549 H533 0.930 . S
C549 C548 1.377 . S
C549 C550 1.379 . S
C550 H534 0.931 1_554 S
C550 C544 1.383 1_554 S
C550 C549 1.379 . S
H551 C545 0.959 . S
H552 C545 0.961 . S
H553 C545 0.960 . S
H554 C546 0.930 . S
H555 C547 0.929 . S
H556 C564 0.929 . S
H557 C566 0.930 . S
H558 C568 0.930 . S
H559 C571 0.929 . S
H560 C574 0.930 . S
H561 C576 0.960 . S
H562 C576 0.960 . S
H563 C576 0.960 . S
C564 H556 0.929 . S
C564 C565 1.377 . S
C564 C566 1.384 . S
C565 C564 1.377 . S
C565 C571 1.390 . S
C566 H557 0.930 . S
C566 C564 1.384 . S
C566 C567 1.372 . S
C567 C566 1.372 . S
C567 C568 1.400 . S
C567 C572 1.490 . S
C568 H558 0.930 . S
C568 C567 1.400 . S
C568 C571 1.386 . S
H569 C585 0.930 . S
H570 C586 0.931 . S
C571 H559 0.929 . S
C571 C565 1.390 . S
C571 C568 1.386 . S
C572 C567 1.490 . S
C572 C574 1.395 . S
C572 C575 1.403 . S
H573 C579 0.930 . S
C574 H560 0.930 . S
C574 C572 1.395 . S
C574 C577 1.403 . S
C575 C572 1.403 . S
C575 C576 1.524 . S
C575 C579 1.400 . S
C576 H561 0.960 . S
C576 H562 0.960 . S
C576 H563 0.960 . S
C576 C575 1.524 . S
C577 C574 1.403 . S
C577 C578 1.392 . S
C577 C581 1.495 . S
C578 C577 1.392 . S
C578 C579 1.385 . S
C578 C580 1.478 . S
C579 H573 0.930 . S
C579 C575 1.400 . S
C579 C578 1.385 . S
C580 C578 1.478 . S
C580 C582 1.381 . S
C580 C586 1.383 . S
C581 C577 1.495 . S
C581 H587 0.959 . S
C581 H588 0.961 . S
C581 H589 0.960 . S
C582 C580 1.381 . S
C582 C583 1.394 . S
C582 H590 0.930 . S
C583 C582 1.394 . S
C583 C584 1.383 . S
C583 H591 0.929 . S
C584 C583 1.383 . S
C584 C585 1.377 . S
C585 H569 0.930 . S
C585 C584 1.377 . S
C585 C586 1.379 . S
C586 H570 0.931 . S
C586 C580 1.383 . S
C586 C585 1.379 . S
H587 C581 0.959 . S
H588 C581 0.961 . S
H589 C581 0.960 . S
H590 C582 0.930 . S
H591 C583 0.929 . S
C169 C89 1.097 . S
C188 C18 1.071 . S
C205 C138 1.113 . S
C224 C49 1.085 . S
C241 C98 0.914 1_545 S
C260 C9 0.938 . S
C277 C58 0.912 . S
C296 C129 0.891 1_455 S
C313 C50 1.524 . S
C332 C6 1.539 . S
C349 C59 2.351 . S
C368 C99 2.344 1_556 S
C385 C126 1.552 . S
C404 C90 1.530 . S
C421 C135 0.826 . S
C440 C15 0.837 . S
C457 C95 1.550 . S
C476 C139 1.541 . S
C493 C10 2.351 . S
C512 C130 2.348 . S
C529 C55 1.554 . S
C548 C19 1.518 . S
C565 C86 0.817 . S
C584 C46 0.831 . S
