# Generated by pormake.
# Topology fnc, (5)-cn, num edge types: 1
# Building blocks:
#     Node 0, Type 0, BuildingBlock: XOMCOT_clean_sbu_0, # of connection points: 5
#     Node 1, Type 0, BuildingBlock: XOMCOT_clean_sbu_0, # of connection points: 5
#     Node 2, Type 0, BuildingBlock: XOMCOT_clean_sbu_0, # of connection points: 5
#     Node 3, Type 0, BuildingBlock: XOMCOT_clean_sbu_0, # of connection points: 5
#     Node 4, Type 0, BuildingBlock: XOMCOT_clean_sbu_0, # of connection points: 5
#     Node 5, Type 0, BuildingBlock: XOMCOT_clean_sbu_0, # of connection points: 5
#     Node 6, Type 0, BuildingBlock: XOMCOT_clean_sbu_0, # of connection points: 5
#     Node 7, Type 0, BuildingBlock: XOMCOT_clean_sbu_0, # of connection points: 5
#     Node 8, Type 0, BuildingBlock: XOMCOT_clean_sbu_0, # of connection points: 5
#     Node 9, Type 0, BuildingBlock: XOMCOT_clean_sbu_0, # of connection points: 5
#     Node 10, Type 0, BuildingBlock: XOMCOT_clean_sbu_0, # of connection points: 5
#     Node 11, Type 0, BuildingBlock: XOMCOT_clean_sbu_0, # of connection points: 5
#     Node 12, Type 0, BuildingBlock: XOMCOT_clean_sbu_0, # of connection points: 5
#     Node 13, Type 0, BuildingBlock: XOMCOT_clean_sbu_0, # of connection points: 5
#     Node 14, Type 0, BuildingBlock: XOMCOT_clean_sbu_0, # of connection points: 5
#     Node 15, Type 0, BuildingBlock: XOMCOT_clean_sbu_0, # of connection points: 5
#     Node 16, Type 0, BuildingBlock: XOMCOT_clean_sbu_0, # of connection points: 5
#     Node 17, Type 0, BuildingBlock: XOMCOT_clean_sbu_0, # of connection points: 5
#     Edge 18, Type (0, 0), BuildingBlock: UVAHIK_clean_linker_0, # of connection points: 2
#     Edge 19, Type (0, 0), BuildingBlock: UVAHIK_clean_linker_0, # of connection points: 2
#     Edge 20, Type (0, 0), BuildingBlock: UVAHIK_clean_linker_0, # of connection points: 2
#     Edge 21, Type (0, 0), BuildingBlock: UVAHIK_clean_linker_0, # of connection points: 2
#     Edge 22, Type (0, 0), BuildingBlock: UVAHIK_clean_linker_0, # of connection points: 2
#     Edge 23, Type (0, 0), BuildingBlock: UVAHIK_clean_linker_0, # of connection points: 2
#     Edge 24, Type (0, 0), BuildingBlock: UVAHIK_clean_linker_0, # of connection points: 2
#     Edge 25, Type (0, 0), BuildingBlock: UVAHIK_clean_linker_0, # of connection points: 2
#     Edge 26, Type (0, 0), BuildingBlock: UVAHIK_clean_linker_0, # of connection points: 2
#     Edge 27, Type (0, 0), BuildingBlock: UVAHIK_clean_linker_0, # of connection points: 2
#     Edge 28, Type (0, 0), BuildingBlock: UVAHIK_clean_linker_0, # of connection points: 2
#     Edge 29, Type (0, 0), BuildingBlock: UVAHIK_clean_linker_0, # of connection points: 2
#     Edge 30, Type (0, 0), BuildingBlock: UVAHIK_clean_linker_0, # of connection points: 2
#     Edge 31, Type (0, 0), BuildingBlock: UVAHIK_clean_linker_0, # of connection points: 2
#     Edge 32, Type (0, 0), BuildingBlock: UVAHIK_clean_linker_0, # of connection points: 2
#     Edge 33, Type (0, 0), BuildingBlock: UVAHIK_clean_linker_0, # of connection points: 2
#     Edge 34, Type (0, 0), BuildingBlock: UVAHIK_clean_linker_0, # of connection points: 2
#     Edge 35, Type (0, 0), BuildingBlock: UVAHIK_clean_linker_0, # of connection points: 2
#     Edge 36, Type (0, 0), BuildingBlock: UVAHIK_clean_linker_0, # of connection points: 2
#     Edge 37, Type (0, 0), BuildingBlock: UVAHIK_clean_linker_0, # of connection points: 2
#     Edge 38, Type (0, 0), BuildingBlock: UVAHIK_clean_linker_0, # of connection points: 2
#     Edge 39, Type (0, 0), BuildingBlock: UVAHIK_clean_linker_0, # of connection points: 2
#     Edge 40, Type (0, 0), BuildingBlock: UVAHIK_clean_linker_0, # of connection points: 2
#     Edge 41, Type (0, 0), BuildingBlock: UVAHIK_clean_linker_0, # of connection points: 2
#     Edge 42, Type (0, 0), BuildingBlock: UVAHIK_clean_linker_0, # of connection points: 2
#     Edge 43, Type (0, 0), BuildingBlock: UVAHIK_clean_linker_0, # of connection points: 2
#     Edge 44, Type (0, 0), BuildingBlock: UVAHIK_clean_linker_0, # of connection points: 2
#     Edge 45, Type (0, 0), BuildingBlock: UVAHIK_clean_linker_0, # of connection points: 2
#     Edge 46, Type (0, 0), BuildingBlock: UVAHIK_clean_linker_0, # of connection points: 2
#     Edge 47, Type (0, 0), BuildingBlock: UVAHIK_clean_linker_0, # of connection points: 2
#     Edge 48, Type (0, 0), BuildingBlock: UVAHIK_clean_linker_0, # of connection points: 2
#     Edge 49, Type (0, 0), BuildingBlock: UVAHIK_clean_linker_0, # of connection points: 2
#     Edge 50, Type (0, 0), BuildingBlock: UVAHIK_clean_linker_0, # of connection points: 2
#     Edge 51, Type (0, 0), BuildingBlock: UVAHIK_clean_linker_0, # of connection points: 2
#     Edge 52, Type (0, 0), BuildingBlock: UVAHIK_clean_linker_0, # of connection points: 2
#     Edge 53, Type (0, 0), BuildingBlock: UVAHIK_clean_linker_0, # of connection points: 2
#     Edge 54, Type (0, 0), BuildingBlock: UVAHIK_clean_linker_0, # of connection points: 2
#     Edge 55, Type (0, 0), BuildingBlock: UVAHIK_clean_linker_0, # of connection points: 2
#     Edge 56, Type (0, 0), BuildingBlock: UVAHIK_clean_linker_0, # of connection points: 2
#     Edge 57, Type (0, 0), BuildingBlock: UVAHIK_clean_linker_0, # of connection points: 2
#     Edge 58, Type (0, 0), BuildingBlock: UVAHIK_clean_linker_0, # of connection points: 2
#     Edge 59, Type (0, 0), BuildingBlock: UVAHIK_clean_linker_0, # of connection points: 2
#     Edge 60, Type (0, 0), BuildingBlock: UVAHIK_clean_linker_0, # of connection points: 2
#     Edge 61, Type (0, 0), BuildingBlock: UVAHIK_clean_linker_0, # of connection points: 2
#     Edge 62, Type (0, 0), BuildingBlock: UVAHIK_clean_linker_0, # of connection points: 2
# Relax obj value: 0.200
# Max RMSD: 0.309
# Mean RMSD: 0.296
data_MOF--net-fnc--node1-XOMCOT_clean_sbu_0--edge1-UVAHIK_clean_linker_0
_symmetry_space_group_name_H-M    P1
_symmetry_Int_Tables_number       1
_symmetry_cell_setting            triclinic
loop_
_symmetry_equiv_pos_as_xyz
'x, y, z'
_cell_length_a     115.51744
_cell_length_b     128.29701
_cell_length_c     22.058586
_cell_angle_alpha  90.733081
_cell_angle_beta   91.019967
_cell_angle_gamma 121.84556
loop_
_atom_site_label
_atom_site_type_symbol
_atom_site_fract_x
_atom_site_fract_y
_atom_site_fract_z
_atom_type_partial_charge
Co0 Co 0.07346 0.47024 0.12731 0.0
C1 C 0.07694 0.47109 0.9929 0.0
C2 C 0.08671 0.46299 0.03811 0.0
C3 C 0.0878 0.462 0.97664 0.0
N4 N 0.08033 0.4691 0.04879 0.0
N5 N 0.0816 0.46706 0.9482 0.0
H6 H 0.07046 0.47464 0.98453 0.0
H7 H 0.08972 0.45888 0.0725 0.0
C8 C 0.10234 0.4783 0.15464 0.0
O9 O 0.10558 0.48532 0.10721 0.0
N10 N 0.06631 0.47082 0.20485 0.0
C11 C 0.05846 0.47544 0.21648 0.0
C12 C 0.05639 0.47499 0.27792 0.0
C13 C 0.06887 0.46756 0.25899 0.0
N14 N 0.06298 0.47008 0.30468 0.0
C15 C 0.07962 0.49352 0.08024 0.0
C16 C 0.09809 0.50778 0.1722 0.0
C17 C 0.09602 0.51359 0.12369 0.0
C18 C 0.08642 0.5063 0.07788 0.0
C19 C 0.09106 0.49502 0.17274 0.0
N20 N 0.08259 0.48804 0.12527 0.0
H21 H 0.07171 0.4881 0.04686 0.0
H22 H 0.09253 0.49076 0.21157 0.0
H23 H 0.05488 0.47924 0.18286 0.0
H24 H 0.07503 0.46357 0.26483 0.0
O25 O 0.05629 0.46565 0.08794 0.0
O26 O 0.06173 0.45266 0.12402 0.0
O27 O 0.08988 0.47159 0.1696 0.0
C28 C 0.05294 0.45434 0.09509 0.0
H29 H 0.09207 0.45724 0.9546 0.0
H30 H 0.0509 0.47847 0.30125 0.0
H31 H 0.10519 0.51301 0.20925 0.0
H32 H 0.08397 0.51041 0.04121 0.0
Co33 Co 0.65617 0.68042 0.03769 0.0
C34 C 0.65935 0.68201 0.17138 0.0
C35 C 0.67865 0.69082 0.12793 0.0
C36 C 0.68098 0.69202 0.18973 0.0
N37 N 0.66511 0.6845 0.11664 0.0
N38 N 0.66884 0.68648 0.21709 0.0
H39 H 0.64845 0.67718 0.17737 0.0
H40 H 0.68629 0.69436 0.09358 0.0
C41 C 0.66924 0.6683 0.97471 0.0
O42 O 0.6574 0.65965 0.95133 0.0
N43 N 0.64749 0.67671 0.95726 0.0
C44 C 0.63441 0.6728 0.94217 0.0
C45 C 0.63288 0.67228 0.88008 0.0
C46 C 0.65384 0.67912 0.90373 0.0
N47 N 0.6451 0.67621 0.85592 0.0
C48 C 0.63061 0.65932 0.06946 0.0
C49 C 0.64053 0.64454 0.09908 0.0
C50 C 0.62645 0.63959 0.09868 0.0
C51 C 0.62153 0.64723 0.0853 0.0
C52 C 0.64923 0.65668 0.08217 0.0
N53 N 0.64413 0.66365 0.06346 0.0
H54 H 0.62675 0.66525 0.06337 0.0
H55 H 0.66008 0.66048 0.08472 0.0
H56 H 0.62653 0.67105 0.97318 0.0
H57 H 0.66468 0.683 0.89987 0.0
O58 O 0.64571 0.68744 0.06265 0.0
O59 O 0.66586 0.69759 0.01969 0.0
O60 O 0.67016 0.67686 0.0086 0.0
C61 C 0.65579 0.69781 0.04385 0.0
H62 H 0.69088 0.69652 0.21259 0.0
H63 H 0.62359 0.66967 0.85476 0.0
H64 H 0.64476 0.63904 0.11124 0.0
H65 H 0.61077 0.64391 0.08772 0.0
Co66 Co 0.49525 0.0956 0.16954 0.0
C67 C 0.49244 0.09331 0.03599 0.0
C68 C 0.47344 0.08123 0.07833 0.0
C69 C 0.47133 0.07977 0.01636 0.0
N70 N 0.48667 0.08964 0.0904 0.0
N71 N 0.48328 0.08739 0.98981 0.0
H72 H 0.50312 0.10014 0.0305 0.0
H73 H 0.46581 0.07663 0.11218 0.0
C74 C 0.4856 0.07219 0.23725 0.0
O75 O 0.49785 0.07659 0.26142 0.0
N76 N 0.50359 0.1017 0.24991 0.0
C77 C 0.51607 0.11148 0.26463 0.0
C78 C 0.51735 0.11317 0.3266 0.0
C79 C 0.49727 0.09799 0.30338 0.0
N80 N 0.50553 0.10465 0.35105 0.0
C81 C 0.5224 0.10184 0.14052 0.0
C82 C 0.5158 0.07806 0.11804 0.0
C83 C 0.52955 0.08756 0.11888 0.0
C84 C 0.53276 0.09964 0.12831 0.0
C85 C 0.50581 0.0807 0.13052 0.0
N86 N 0.50927 0.09235 0.14634 0.0
H87 H 0.52494 0.11119 0.14439 0.0
H88 H 0.49527 0.07329 0.1276 0.0
H89 H 0.52362 0.11745 0.23325 0.0
H90 H 0.48669 0.09076 0.30718 0.0
O91 O 0.5033 0.1123 0.14243 0.0
O92 O 0.48321 0.10129 0.18527 0.0
O93 O 0.48326 0.07856 0.20079 0.0
C94 C 0.49219 0.1115 0.16065 0.0
H95 H 0.46167 0.0738 0.99274 0.0
H96 H 0.52631 0.12021 0.35154 0.0
H97 H 0.51276 0.06861 0.1093 0.0
H98 H 0.54317 0.10732 0.12597 0.0
Co99 Co 0.12063 0.66117 0.01399 0.0
C100 C 0.11637 0.66017 0.147 0.0
C101 C 0.10161 0.64354 0.0994 0.0
C102 C 0.09925 0.642 0.16055 0.0
N103 N 0.11229 0.65494 0.09095 0.0
N104 N 0.10855 0.65246 0.19058 0.0
H105 H 0.12499 0.66935 0.15589 0.0
H106 H 0.09621 0.63669 0.06371 0.0
C107 C 0.09539 0.65785 0.97194 0.0
O108 O 0.09327 0.64684 0.9619 0.0
N109 N 0.12878 0.66708 0.93661 0.0
C110 C 0.14217 0.67413 0.92584 0.0
C111 C 0.14376 0.67554 0.86418 0.0
C112 C 0.1224 0.6642 0.88169 0.0
N113 N 0.13131 0.66929 0.83632 0.0
C114 C 0.13914 0.65504 0.0671 0.0
C115 C 0.12978 0.63445 0.99243 0.0
C116 C 0.13885 0.63652 0.04094 0.0
C117 C 0.14385 0.64717 0.07749 0.0
C118 C 0.12536 0.64253 0.98371 0.0
N119 N 0.12981 0.65244 0.02154 0.0
H120 H 0.14244 0.66284 0.09746 0.0
H121 H 0.11777 0.64057 0.94858 0.0
H122 H 0.15024 0.67771 0.96023 0.0
H123 H 0.11148 0.6584 0.87517 0.0
O124 O 0.13554 0.67673 0.05419 0.0
O125 O 0.11724 0.67507 0.02148 0.0
O126 O 0.10695 0.66627 0.99604 0.0
C127 C 0.12897 0.68203 0.0481 0.0
H128 H 0.09158 0.63362 0.18122 0.0
H129 H 0.1534 0.68048 0.84175 0.0
H130 H 0.12541 0.62624 0.96383 0.0
H131 H 0.1509 0.64913 0.11524 0.0
Co132 Co 0.50042 0.46786 0.17127 0.0
C133 C 0.49801 0.46884 0.03628 0.0
C134 C 0.47882 0.46133 0.07892 0.0
C135 C 0.47657 0.46047 0.01717 0.0
N136 N 0.49233 0.46698 0.09138 0.0
N137 N 0.48865 0.46517 0.99035 0.0
H138 H 0.50856 0.47206 0.02931 0.0
H139 H 0.47097 0.45739 0.11227 0.0
C140 C 0.48149 0.47659 0.19398 0.0
O141 O 0.48711 0.48416 0.14907 0.0
N142 N 0.5081 0.46821 0.25022 0.0
C143 C 0.52127 0.47233 0.2637 0.0
C144 C 0.52278 0.47189 0.32552 0.0
C145 C 0.50176 0.46527 0.30363 0.0
N146 N 0.51051 0.46749 0.35063 0.0
C147 C 0.52266 0.49033 0.12548 0.0
C148 C 0.52259 0.50562 0.2147 0.0
C149 C 0.53187 0.51073 0.16801 0.0
C150 C 0.53197 0.50294 0.12337 0.0
C151 C 0.5133 0.49297 0.21444 0.0
N152 N 0.51297 0.48553 0.16854 0.0
H153 H 0.52366 0.48443 0.09385 0.0
H154 H 0.50649 0.48914 0.25183 0.0
H155 H 0.52927 0.47578 0.23105 0.0
H156 H 0.49099 0.4617 0.30798 0.0
O157 O 0.51153 0.46246 0.13477 0.0
O158 O 0.49071 0.45024 0.16906 0.0
O159 O 0.48598 0.4698 0.21029 0.0
C160 C 0.50121 0.45135 0.14192 0.0
H161 H 0.46672 0.45604 0.99385 0.0
H162 H 0.53229 0.47503 0.35015 0.0
H163 H 0.52244 0.51134 0.25084 0.0
H164 H 0.53943 0.50653 0.08812 0.0
Co165 Co 0.65667 0.03613 0.05759 0.0
C166 C 0.65934 0.03844 0.19122 0.0
C167 C 0.67879 0.04842 0.14923 0.0
C168 C 0.68088 0.04974 0.21118 0.0
N169 N 0.6653 0.04143 0.13694 0.0
N170 N 0.66866 0.04345 0.23751 0.0
H171 H 0.64844 0.03272 0.19656 0.0
H172 H 0.68657 0.05205 0.11555 0.0
C173 C 0.67021 0.0599 0.98901 0.0
O174 O 0.65861 0.05708 0.96233 0.0
N175 N 0.64822 0.03068 0.97703 0.0
C176 C 0.63513 0.02214 0.96212 0.0
C177 C 0.63374 0.02042 0.90019 0.0
C178 C 0.6547 0.03359 0.92377 0.0
N179 N 0.64605 0.02767 0.87601 0.0
C180 C 0.63093 0.03313 0.0862 0.0
C181 C 0.64033 0.05777 0.10182 0.0
C182 C 0.62625 0.04924 0.10141 0.0
C183 C 0.62162 0.03673 0.09589 0.0
C184 C 0.64926 0.05372 0.09199 0.0
N185 N 0.64441 0.04162 0.07922 0.0
H186 H 0.62724 0.02347 0.08456 0.0
H187 H 0.66007 0.06039 0.0944 0.0
H188 H 0.6271 0.01704 0.99336 0.0
H189 H 0.6656 0.03972 0.92017 0.0
O190 O 0.64629 0.01939 0.08488 0.0
O191 O 0.66659 0.02821 0.04335 0.0
O192 O 0.67072 0.05267 0.02663 0.0
C193 C 0.65653 0.01858 0.06772 0.0
H194 H 0.69069 0.05463 0.23496 0.0
H195 H 0.62434 0.01428 0.87506 0.0
H196 H 0.64443 0.0675 0.108 0.0
H197 H 0.6109 0.02978 0.09893 0.0
Co198 Co 0.74715 0.81385 0.43436 0.0
C199 C 0.74495 0.81055 0.56663 0.0
C200 C 0.73253 0.79338 0.51801 0.0
C201 C 0.73123 0.79126 0.57941 0.0
N202 N 0.7411 0.80547 0.51025 0.0
N203 N 0.73904 0.80207 0.60998 0.0
H204 H 0.75211 0.82023 0.57551 0.0
H205 H 0.72762 0.78658 0.48164 0.0
C206 C 0.72169 0.80475 0.35931 0.0
O207 O 0.72612 0.81618 0.34563 0.0
N208 N 0.75338 0.82206 0.35724 0.0
C209 C 0.76206 0.83406 0.34646 0.0
C210 C 0.76365 0.83556 0.28486 0.0
C211 C 0.75029 0.81642 0.30182 0.0
N212 N 0.75616 0.82447 0.25662 0.0
C213 C 0.75183 0.83682 0.48002 0.0
C214 C 0.72495 0.82856 0.50386 0.0
C215 C 0.73498 0.84078 0.5178 0.0
C216 C 0.74859 0.84486 0.5064 0.0
C217 C 0.72867 0.82079 0.47823 0.0
N218 N 0.74187 0.82511 0.46331 0.0
H219 H 0.76243 0.83991 0.47544 0.0
H220 H 0.72092 0.81119 0.47254 0.0
H221 H 0.76724 0.84131 0.38017 0.0
H222 H 0.74361 0.80661 0.29481 0.0
O223 O 0.76568 0.82232 0.46609 0.0
O224 O 0.7553 0.80447 0.41548 0.0
O225 O 0.72861 0.8023 0.39586 0.0
C226 C 0.76612 0.81303 0.44489 0.0
H227 H 0.72488 0.78243 0.59981 0.0
H228 H 0.77005 0.84418 0.26278 0.0
H229 H 0.71438 0.82495 0.51427 0.0
H230 H 0.7567 0.85419 0.51781 0.0
Co231 Co 0.33299 0.98793 0.42272 0.0
C232 C 0.33631 0.98909 0.55822 0.0
C233 C 0.35471 0.00191 0.51431 0.0
C234 C 0.35711 0.00358 0.57601 0.0
N235 N 0.34174 0.99264 0.50297 0.0
N236 N 0.34551 0.99553 0.60352 0.0
H237 H 0.32584 0.98217 0.56582 0.0
H238 H 0.36186 0.00729 0.47988 0.0
C239 C 0.35674 0.98475 0.41709 0.0
O240 O 0.35314 0.9792 0.4692 0.0
N241 N 0.32452 0.98369 0.34291 0.0
C242 C 0.31114 0.97632 0.32919 0.0
C243 C 0.30932 0.9757 0.26712 0.0
C244 C 0.33069 0.98752 0.28945 0.0
N245 N 0.32162 0.98276 0.24211 0.0
C246 C 0.31245 0.96585 0.47697 0.0
C247 C 0.3185 0.95008 0.41986 0.0
C248 C 0.30765 0.94523 0.45994 0.0
C249 C 0.30459 0.95334 0.48797 0.0
C250 C 0.32594 0.96266 0.40927 0.0
N251 N 0.32336 0.9705 0.44012 0.0
H252 H 0.30939 0.97173 0.49669 0.0
H253 H 0.33348 0.96595 0.37473 0.0
H254 H 0.30326 0.97168 0.36202 0.0
H255 H 0.34155 0.9938 0.28555 0.0
O256 O 0.31966 0.99163 0.44964 0.0
O257 O 0.33945 0.00494 0.40967 0.0
O258 O 0.3493 0.98807 0.39062 0.0
C259 C 0.32829 0.00285 0.43427 0.0
H260 H 0.36651 0.0105 0.59878 0.0
H261 H 0.29969 0.97031 0.24244 0.0
H262 H 0.32113 0.94423 0.39597 0.0
H263 H 0.29587 0.95005 0.51656 0.0
Co264 Co 0.15578 0.40956 0.49477 0.0
C265 C 0.1571 0.41296 0.62998 0.0
C266 C 0.14904 0.42249 0.58403 0.0
C267 C 0.14859 0.42413 0.64551 0.0
N268 N 0.15462 0.41568 0.57411 0.0
N269 N 0.15362 0.41809 0.67429 0.0
H270 H 0.16107 0.40719 0.63877 0.0
H271 H 0.14528 0.42583 0.54878 0.0
C272 C 0.17186 0.43701 0.48632 0.0
O273 O 0.17683 0.43819 0.54172 0.0
N274 N 0.15652 0.40344 0.41567 0.0
C275 C 0.15882 0.3944 0.40338 0.0
C276 C 0.15892 0.39306 0.34141 0.0
C277 C 0.15516 0.40745 0.36142 0.0
N278 N 0.15662 0.40128 0.315 0.0
C279 C 0.17427 0.40384 0.55142 0.0
C280 C 0.19683 0.4202 0.48722 0.0
C281 C 0.19776 0.41211 0.52589 0.0
C282 C 0.18639 0.40399 0.55909 0.0
C283 C 0.1846 0.41986 0.48149 0.0
N284 N 0.17353 0.4119 0.51416 0.0
H285 H 0.16527 0.39672 0.57274 0.0
H286 H 0.1839 0.42543 0.44729 0.0
H287 H 0.16049 0.38925 0.43713 0.0
H288 H 0.15306 0.41467 0.35624 0.0
O289 O 0.14387 0.39283 0.5207 0.0
O290 O 0.13713 0.40445 0.47865 0.0
O291 O 0.16401 0.42645 0.46143 0.0
C292 C 0.13388 0.39402 0.50182 0.0
H293 H 0.1444 0.42898 0.66728 0.0
H294 H 0.16084 0.3867 0.31785 0.0
H295 H 0.20531 0.42638 0.45957 0.0
H296 H 0.18658 0.39726 0.58759 0.0
Co297 Co 0.74999 0.98576 0.42243 0.0
C298 C 0.74799 0.98704 0.55525 0.0
C299 C 0.73622 0.99312 0.5086 0.0
C300 C 0.73501 0.99407 0.57021 0.0
N301 N 0.74429 0.98865 0.49945 0.0
N302 N 0.74242 0.99025 0.59956 0.0
H303 H 0.75455 0.9835 0.56304 0.0
H304 H 0.73167 0.99566 0.47304 0.0
C305 C 0.72429 0.97199 0.34644 0.0
O306 O 0.72799 0.96436 0.32885 0.0
N307 N 0.75583 0.9832 0.34424 0.0
C308 C 0.76365 0.97858 0.33128 0.0
C309 C 0.7654 0.97889 0.26958 0.0
C310 C 0.75332 0.9866 0.29017 0.0
N311 N 0.75883 0.98388 0.24366 0.0
C312 C 0.75341 0.96657 0.46476 0.0
C313 C 0.72632 0.95002 0.48809 0.0
C314 C 0.73603 0.94705 0.50307 0.0
C315 C 0.74973 0.95549 0.49137 0.0
C316 C 0.73048 0.9613 0.46224 0.0
N317 N 0.74382 0.96922 0.44828 0.0
H318 H 0.76411 0.97325 0.46023 0.0
H319 H 0.72301 0.96384 0.45643 0.0
H320 H 0.76804 0.97532 0.3635 0.0
H321 H 0.74759 0.99103 0.28514 0.0
O322 O 0.7685 0.99409 0.45421 0.0
O323 O 0.75904 0.00302 0.4067 0.0
O324 O 0.73168 0.98066 0.38489 0.0
C325 C 0.76958 0.00414 0.43561 0.0
H326 H 0.72933 -0.00243 0.59159 0.0
H327 H 0.77095 0.97553 0.24569 0.0
H328 H 0.71569 0.94388 0.49847 0.0
H329 H 0.75758 0.95362 0.50329 0.0
Co330 Co 0.1426 0.80083 0.4368 0.0
C331 C 0.14207 0.79803 0.5694 0.0
C332 C 0.13509 0.78089 0.52214 0.0
C333 C 0.13434 0.77894 0.58366 0.0
N334 N 0.13999 0.79286 0.51345 0.0
N335 N 0.13871 0.78972 0.61339 0.0
H336 H 0.14598 0.80768 0.57753 0.0
H337 H 0.13206 0.77403 0.48632 0.0
C338 C 0.15645 0.79149 0.35968 0.0
O339 O 0.16494 0.80279 0.3428 0.0
N340 N 0.14481 0.80863 0.35893 0.0
C341 C 0.14965 0.82051 0.34711 0.0
C342 C 0.14905 0.82173 0.2854 0.0
C343 C 0.14081 0.80276 0.30412 0.0
N344 N 0.1436 0.81057 0.25831 0.0
C345 C 0.16528 0.82436 0.47666 0.0
C346 C 0.18403 0.81729 0.48791 0.0
C347 C 0.18847 0.82971 0.49536 0.0
C348 C 0.17883 0.83316 0.49204 0.0
C349 C 0.17033 0.80879 0.47352 0.0
N350 N 0.1614 0.81254 0.46276 0.0
H351 H 0.15791 0.8271 0.47581 0.0
H352 H 0.16698 0.79919 0.47068 0.0
H353 H 0.15319 0.82788 0.38018 0.0
H354 H 0.13597 0.79293 0.29795 0.0
O355 O 0.13391 0.80912 0.46818 0.0
O356 O 0.12333 0.79104 0.4195 0.0
O357 O 0.14744 0.78928 0.39879 0.0
C358 C 0.12255 0.79966 0.44705 0.0
H359 H 0.13052 0.77018 0.6047 0.0
H360 H 0.15259 0.83025 0.26231 0.0
H361 H 0.19108 0.81419 0.49289 0.0
H362 H 0.18178 0.84263 0.49932 0.0
Co363 Co 0.3346 0.37488 0.408 0.0
C364 C 0.33755 0.37678 0.54166 0.0
C365 C 0.35693 0.3867 0.49896 0.0
C366 C 0.35914 0.38799 0.56086 0.0
N367 N 0.34341 0.37978 0.48715 0.0
N368 N 0.34696 0.38174 0.58761 0.0
H369 H 0.32665 0.37117 0.54741 0.0
H370 H 0.36464 0.3904 0.46494 0.0
C371 C 0.34769 0.39915 0.34424 0.0
O372 O 0.33596 0.39641 0.31946 0.0
N373 N 0.32602 0.36984 0.32743 0.0
C374 C 0.31307 0.36096 0.31226 0.0
C375 C 0.31168 0.3595 0.25024 0.0
C376 C 0.33244 0.37322 0.27406 0.0
N377 N 0.32386 0.36723 0.22613 0.0
C378 C 0.30882 0.37148 0.43825 0.0
C379 C 0.3182 0.39578 0.46612 0.0
C380 C 0.30416 0.38718 0.46479 0.0
C381 C 0.29951 0.37485 0.45232 0.0
C382 C 0.32715 0.39202 0.45064 0.0
N383 N 0.32232 0.38012 0.43283 0.0
H384 H 0.30515 0.36188 0.43276 0.0
H385 H 0.33796 0.39869 0.45344 0.0
H386 H 0.3052 0.35534 0.34326 0.0
H387 H 0.34328 0.37962 0.27051 0.0
O388 O 0.32436 0.35804 0.43341 0.0
O389 O 0.34454 0.36706 0.39044 0.0
O390 O 0.34847 0.39164 0.37889 0.0
C391 C 0.33454 0.35733 0.41451 0.0
H392 H 0.36898 0.3929 0.58432 0.0
H393 H 0.3024 0.35309 0.22507 0.0
H394 H 0.32217 0.40534 0.47772 0.0
H395 H 0.28877 0.36785 0.45395 0.0
Co396 Co 0.38026 0.1241 0.82266 0.0
C397 C 0.38371 0.1256 0.69017 0.0
C398 C 0.3987 0.12314 0.73532 0.0
C399 C 0.40051 0.12327 0.6737 0.0
N400 N 0.38822 0.12467 0.74547 0.0
N401 N 0.39104 0.12476 0.64539 0.0
H402 H 0.37515 0.12673 0.68299 0.0
H403 H 0.40438 0.12167 0.77005 0.0
C404 C 0.40527 0.13979 0.90215 0.0
O405 O 0.39998 0.14608 0.92147 0.0
N406 N 0.37204 0.12304 0.90078 0.0
C407 C 0.35975 0.12149 0.91125 0.0
C408 C 0.35752 0.12038 0.97256 0.0
C409 C 0.37665 0.12206 0.95593 0.0
N410 N 0.36823 0.12083 1.00077 0.0
C411 C 0.37356 0.1427 0.80916 0.0
C412 C 0.3998 0.1616 0.78689 0.0
C413 C 0.38954 0.16424 0.79248 0.0
C414 C 0.37619 0.15455 0.80202 0.0
C415 C 0.3967 0.14964 0.79423 0.0
N416 N 0.38389 0.14051 0.80914 0.0
H417 H 0.36319 0.13532 0.81385 0.0
H418 H 0.40471 0.14776 0.78876 0.0
H419 H 0.35251 0.12065 0.877 0.0
H420 H 0.38574 0.12175 0.96312 0.0
O421 O 0.36239 0.11447 0.78391 0.0
O422 O 0.37397 0.10699 0.82664 0.0
O423 O 0.39867 0.13086 0.86389 0.0
C424 C 0.3632 0.10496 0.796 0.0
H425 H 0.4079 0.12191 0.65139 0.0
H426 H 0.34865 0.1193 0.9944 0.0
H427 H 0.41014 0.16872 0.77683 0.0
H428 H 0.36787 0.15612 0.80494 0.0
Co429 Co 0.97967 0.33897 0.66184 0.0
C430 C 0.98256 0.33844 0.79704 0.0
C431 C 0.00169 0.34664 0.75306 0.0
C432 C 0.00414 0.3476 0.81472 0.0
N433 N 0.98812 0.34061 0.74164 0.0
N434 N 0.99209 0.34245 0.84244 0.0
H435 H 0.97195 0.3348 0.80468 0.0
H436 H 0.00934 0.35044 0.71878 0.0
C437 C -0.00306 0.32823 0.64694 0.0
O438 O 0.99206 0.32237 0.69757 0.0
N439 N 0.97164 0.33777 0.58273 0.0
C440 C 0.95852 0.33394 0.57003 0.0
C441 C 0.95668 0.33361 0.50801 0.0
C442 C 0.97765 0.33982 0.52867 0.0
N443 N 0.96871 0.33729 0.48206 0.0
C444 C 0.95591 0.31874 0.71399 0.0
C445 C 0.95523 0.30055 0.64277 0.0
C446 C 0.94572 0.2972 0.68851 0.0
C447 C 0.94594 0.30649 0.7235 0.0
C448 C 0.96501 0.3129 0.63492 0.0
N449 N 0.96585 0.32178 0.673 0.0
H450 H 0.95537 0.32577 0.73861 0.0
H451 H 0.9718 0.31528 0.59759 0.0
H452 H 0.95079 0.33135 0.60351 0.0
H453 H 0.98823 0.34274 0.52352 0.0
O454 O 0.97039 0.34656 0.69497 0.0
O455 O 0.99093 0.35648 0.65552 0.0
O456 O 0.99263 0.33479 0.62492 0.0
C457 C 0.98136 0.35698 0.68308 0.0
H458 H 0.01407 0.35196 0.8372 0.0
H459 H 0.94721 0.33086 0.48395 0.0
H460 H 0.95524 0.29371 0.61355 0.0
H461 H 0.93833 0.30435 0.75716 0.0
Co462 Co 0.8221 0.74207 0.79956 0.0
C463 C 0.81922 0.73915 0.66413 0.0
C464 C 0.79999 0.7298 0.70733 0.0
C465 C 0.79762 0.72874 0.6456 0.0
N466 N 0.81356 0.736 0.71926 0.0
N467 N 0.80973 0.73467 0.61847 0.0
H468 H 0.82996 0.74511 0.65704 0.0
H469 H 0.79228 0.72674 0.74127 0.0
C470 C 0.80196 0.7154 0.81526 0.0
O471 O 0.80686 0.71313 0.76696 0.0
N472 N 0.83026 0.74828 0.87911 0.0
C473 C 0.84361 0.75593 0.89273 0.0
C474 C 0.84527 0.75767 0.95477 0.0
C475 C 0.82396 0.74551 0.9326 0.0
N476 N 0.83291 0.75108 0.97985 0.0
C477 C 0.84374 0.74032 0.74792 0.0
C478 C 0.84179 0.72267 0.82493 0.0
C479 C 0.85106 0.72659 0.77793 0.0
C480 C 0.8522 0.73572 0.7399 0.0
C481 C 0.83349 0.72747 0.831 0.0
N482 N 0.8339 0.73561 0.79033 0.0
H483 H 0.84545 0.74794 0.72127 0.0
H484 H 0.82677 0.72467 0.86887 0.0
H485 H 0.85159 0.75974 0.85992 0.0
H486 H 0.81306 0.73951 0.93674 0.0
O487 O 0.8336 0.75821 0.76673 0.0
O488 O 0.81311 0.75104 0.80437 0.0
O489 O 0.80729 0.72641 0.83585 0.0
C490 C 0.82364 0.75987 0.77786 0.0
H491 H 0.78774 0.72452 0.62263 0.0
H492 H 0.85491 0.76307 0.97948 0.0
H493 H 0.84086 0.71588 0.85645 0.0
H494 H 0.85977 0.73949 0.70516 0.0
Co495 Co 0.43601 0.33015 0.72619 0.0
C496 C 0.43262 0.32925 0.85895 0.0
C497 C 0.41811 0.33218 0.8126 0.0
C498 C 0.4164 0.33243 0.87413 0.0
N499 N 0.42825 0.33015 0.80322 0.0
N500 N 0.42557 0.33065 0.90338 0.0
H501 H 0.44109 0.32802 0.8666 0.0
H502 H 0.41254 0.33365 0.77733 0.0
C503 C 0.41113 0.31519 0.64561 0.0
O504 O 0.41635 0.30899 0.62406 0.0
N505 N 0.44406 0.33066 0.64817 0.0
C506 C 0.45583 0.33114 0.63815 0.0
C507 C 0.45815 0.33204 0.57694 0.0
C508 C 0.43995 0.33214 0.59277 0.0
N509 N 0.44807 0.33255 0.54827 0.0
C510 C 0.4415 0.31087 0.74376 0.0
C511 C 0.41479 0.29264 0.7635 0.0
C512 C 0.4247 0.28952 0.76066 0.0
C513 C 0.43828 0.29887 0.75232 0.0
C514 C 0.41847 0.30473 0.7547 0.0
N515 N 0.43153 0.31353 0.74104 0.0
H516 H 0.45203 0.318 0.74044 0.0
H517 H 0.41073 0.30699 0.75867 0.0
H518 H 0.46275 0.33146 0.67263 0.0
H519 H 0.4312 0.33294 0.58498 0.0
O520 O 0.45394 0.3393 0.76448 0.0
O521 O 0.44311 0.34743 0.72095 0.0
O522 O 0.41769 0.32386 0.68509 0.0
C523 C 0.45374 0.34908 0.75143 0.0
H524 H 0.409 0.3339 0.89545 0.0
H525 H 0.46681 0.33262 0.55547 0.0
H526 H 0.40429 0.28582 0.77277 0.0
H527 H 0.44634 0.29694 0.75155 0.0
Co528 Co 0.82458 0.12595 0.81822 0.0
C529 C 0.82164 0.12599 0.68285 0.0
C530 C 0.80245 0.1161 0.72625 0.0
C531 C 0.80004 0.11489 0.66453 0.0
N532 N 0.81599 0.12333 0.73803 0.0
N533 N 0.81213 0.12109 0.63732 0.0
H534 H 0.83242 0.13097 0.67544 0.0
H535 H 0.79484 0.1116 0.76031 0.0
C536 C 0.80459 0.13375 0.83031 0.0
O537 O 0.80962 0.14015 0.78118 0.0
N538 N 0.83279 0.12808 0.89772 0.0
C539 C 0.84617 0.13329 0.91107 0.0
C540 C 0.8479 0.13341 0.97302 0.0
C541 C 0.82654 0.12505 0.95128 0.0
N542 N 0.83555 0.12824 0.99832 0.0
C543 C 0.84691 0.14748 0.76679 0.0
C544 C 0.84502 0.16437 0.83797 0.0
C545 C 0.85478 0.1686 0.7929 0.0
C546 C 0.85586 0.15997 0.75793 0.0
C547 C 0.83626 0.15178 0.84517 0.0
N548 N 0.83668 0.14349 0.80712 0.0
H549 H 0.84852 0.14106 0.7424 0.0
H550 H 0.82927 0.14874 0.882 0.0
H551 H 0.85412 0.13693 0.87809 0.0
H552 H 0.81562 0.12057 0.95554 0.0
O553 O 0.83585 0.12027 0.78661 0.0
O554 O 0.81537 0.10844 0.82471 0.0
O555 O 0.80992 0.12808 0.85341 0.0
C556 C 0.82581 0.10928 0.79837 0.0
H557 H 0.7902 0.10939 0.64151 0.0
H558 H 0.85757 0.13731 0.99748 0.0
H559 H 0.84408 0.17071 0.86723 0.0
H560 H 0.86375 0.16285 0.72492 0.0
Co561 Co 0.99619 0.70285 0.68656 0.0
C562 C -0.00266 0.70612 0.82145 0.0
C563 C 0.01338 0.72192 0.77883 0.0
C564 C 0.01529 0.7238 0.84068 0.0
N565 N 0.00186 0.71097 0.76642 0.0
N566 N 0.0052 0.71383 0.86748 0.0
H567 H 0.98897 0.69691 0.8282 0.0
H568 H 0.02037 0.72789 0.74528 0.0
C569 C 0.002 0.72817 0.66389 0.0
O570 O 0.99514 0.72752 0.7121 0.0
N571 N 0.99102 0.69484 0.60746 0.0
C572 C 0.98049 0.68341 0.59402 0.0
C573 C 0.97967 0.68152 0.53205 0.0
C574 C 0.99651 0.69974 0.55388 0.0
N575 N 0.98972 0.69181 0.5068 0.0
C576 C 0.96933 0.69229 0.73542 0.0
C577 C 0.96028 0.70272 0.65331 0.0
C578 C 0.95184 0.69598 0.70073 0.0
C579 C 0.95636 0.69046 0.7413 0.0
C580 C 0.97314 0.70434 0.64941 0.0
N581 N 0.97791 0.69987 0.69257 0.0
H582 H 0.97228 0.68737 0.76444 0.0
H583 H 0.97926 0.70923 0.61134 0.0
H584 H 0.97365 0.67705 0.62684 0.0
H585 H 0.00523 0.70893 0.5495 0.0
O586 O 0.99353 0.68803 0.7219 0.0
O587 O 0.01288 0.70303 0.68482 0.0
O588 O 0.00306 0.71913 0.64753 0.0
C589 C 0.00638 0.69255 0.71153 0.0
H590 H 0.02387 0.7316 0.86402 0.0
H591 H 0.97194 0.67335 0.50747 0.0
H592 H 0.95713 0.70695 0.62015 0.0
H593 H 0.94989 0.6847 0.77685 0.0
C594 C 0.08895 0.46744 0.84329 0.0
C595 C 0.07951 0.46719 0.88356 0.0
C596 C 0.08696 0.46746 0.78063 0.0
C597 C 0.0604 0.45972 0.66216 0.0
H598 H 0.09126 0.4809 0.56348 0.0
C599 C 0.05447 0.46783 0.40891 0.0
C600 C 0.06432 0.46877 0.36894 0.0
C601 C 0.05608 0.46718 0.47147 0.0
C602 C 0.08256 0.4748 0.59021 0.0
H603 H 0.06043 0.46657 0.88913 0.0
H604 H 0.05706 0.4668 0.77977 0.0
H605 H 0.09454 0.48082 0.67282 0.0
H606 H 0.08356 0.46966 0.36394 0.0
H607 H 0.08622 0.46827 0.47272 0.0
H608 H 0.04841 0.45371 0.57946 0.0
C609 C 0.06598 0.46691 0.79678 0.0
C610 C 0.08444 0.47477 0.65297 0.0
C611 C 0.068 0.46694 0.85955 0.0
C612 C 0.0757 0.46883 0.39312 0.0
C613 C 0.07732 0.46819 0.4557 0.0
C614 C 0.05851 0.45974 0.59932 0.0
C615 C 0.07545 0.46719 0.75655 0.0
C616 C 0.07339 0.46724 0.68975 0.0
C617 C 0.06759 0.46747 0.49573 0.0
C618 C 0.06958 0.46728 0.56254 0.0
H619 H 0.09797 0.46774 0.86027 0.0
H620 H 0.09438 0.46754 0.75098 0.0
H621 H 0.0517 0.45367 0.68903 0.0
H622 H 0.0455 0.46761 0.39191 0.0
H623 H 0.04844 0.46673 0.50093 0.0
C624 C 0.66099 0.68602 0.77176 0.0
C625 C 0.64805 0.67716 0.79227 0.0
C626 C 0.66365 0.68704 0.70974 0.0
C627 C 0.65137 0.66978 0.56361 0.0
H628 H 0.67027 0.70201 0.4932 0.0
C629 C 0.65422 0.67613 0.30446 0.0
C630 C 0.66659 0.68555 0.28152 0.0
C631 C 0.65217 0.67513 0.36694 0.0
C632 C 0.66514 0.69294 0.5122 0.0
H633 H 0.62789 0.6622 0.76382 0.0
H634 H 0.63247 0.66404 0.65592 0.0
H635 H 0.66668 0.70016 0.60212 0.0
H636 H 0.6864 0.70146 0.30684 0.0
H637 H 0.68296 0.69954 0.41543 0.0
H638 H 0.64986 0.66255 0.47391 0.0
C639 C 0.64058 0.67019 0.68767 0.0
C640 C 0.66308 0.69189 0.57466 0.0
C641 C 0.63791 0.66923 0.74949 0.0
C642 C 0.67681 0.69399 0.3227 0.0
C643 C 0.67477 0.69298 0.38512 0.0
C644 C 0.65348 0.67083 0.50122 0.0
C645 C 0.65345 0.67914 0.66701 0.0
C646 C 0.6561 0.6803 0.60101 0.0
C647 C 0.66244 0.68353 0.40808 0.0
C648 C 0.66032 0.68242 0.47465 0.0
H649 H 0.66899 0.69232 0.80347 0.0
H650 H 0.6737 0.69397 0.69524 0.0
H651 H 0.64613 0.66073 0.58269 0.0
H652 H 0.64617 0.66939 0.27428 0.0
H653 H 0.64248 0.66782 0.38296 0.0
C654 C 0.49593 0.10031 0.90349 0.0
C655 C 0.48559 0.08902 0.92562 0.0
C656 C 0.49792 0.10195 0.84113 0.0
C657 C 0.4805 0.0889 0.69171 0.0
H658 H 0.51717 0.1079 0.63166 0.0
C659 C 0.49256 0.09143 0.43617 0.0
C660 C 0.50254 0.10296 0.41474 0.0
C661 C 0.49018 0.08968 0.49829 0.0
C662 C 0.50686 0.10268 0.64775 0.0
H663 H 0.4695 0.0705 0.89949 0.0
H664 H 0.47304 0.0733 0.79094 0.0
H665 H 0.51381 0.10489 0.74025 0.0
H666 H 0.51746 0.12181 0.44211 0.0
H667 H 0.51337 0.11874 0.55005 0.0
H668 H 0.47358 0.08661 0.59893 0.0
C669 C 0.47942 0.08099 0.82163 0.0
C670 C 0.50493 0.10096 0.71005 0.0
C671 C 0.4774 0.07937 0.88393 0.0
C672 C 0.50989 0.11275 0.4569 0.0
C673 C 0.50755 0.11099 0.5189 0.0
C674 C 0.48243 0.09058 0.62933 0.0
C675 C 0.48967 0.09232 0.79936 0.0
C676 C 0.49172 0.09408 0.7329 0.0
C677 C 0.49775 0.09942 0.54042 0.0
C678 C 0.49564 0.09752 0.60665 0.0
H679 H 0.50229 0.10797 0.93427 0.0
H680 H 0.50577 0.11085 0.82563 0.0
H681 H 0.47018 0.08371 0.7077 0.0
H682 H 0.48683 0.08365 0.40518 0.0
H683 H 0.48265 0.08062 0.51346 0.0
C684 C 0.11578 0.65822 0.74765 0.0
C685 C 0.1283 0.66796 0.7717 0.0
C686 C 0.11305 0.6568 0.68503 0.0
C687 C 0.12466 0.67349 0.54024 0.0
H688 H 0.10578 0.64066 0.46822 0.0
C689 C 0.12273 0.66396 0.28189 0.0
C690 C 0.11023 0.65463 0.25561 0.0
C691 C 0.12443 0.66582 0.34486 0.0
C692 C 0.11093 0.64988 0.4877 0.0
H693 H 0.1476 0.68401 0.74776 0.0
H694 H 0.14304 0.68129 0.63908 0.0
H695 H 0.10966 0.64344 0.57776 0.0
H696 H 0.0896 0.64016 0.27594 0.0
H697 H 0.09267 0.64329 0.38553 0.0
H698 H 0.12615 0.6799 0.44978 0.0
C699 C 0.13522 0.67484 0.66868 0.0
C700 C 0.11313 0.65148 0.55059 0.0
C701 C 0.13793 0.6763 0.73126 0.0
C702 C 0.09945 0.64729 0.29422 0.0
C703 C 0.10119 0.64909 0.3572 0.0
C704 C 0.12253 0.67188 0.47731 0.0
C705 C 0.12277 0.66504 0.64464 0.0
C706 C 0.12008 0.66331 0.57774 0.0
C707 C 0.11371 0.65834 0.38326 0.0
C708 C 0.11569 0.66006 0.45029 0.0
H709 H 0.10812 0.65154 0.77692 0.0
H710 H 0.10327 0.64924 0.66832 0.0
H711 H 0.12982 0.68272 0.55952 0.0
H712 H 0.13135 0.66971 0.25414 0.0
H713 H 0.13426 0.67293 0.36358 0.0
C714 C 0.51613 0.46501 0.45626 0.0
C715 C 0.50767 0.46634 0.41454 0.0
C716 C 0.51379 0.46447 0.51844 0.0
C717 C 0.49706 0.473 0.63313 0.0
H718 H 0.50178 0.45102 0.735 0.0
C719 C 0.48196 0.46595 0.88426 0.0
C720 C 0.49084 0.46527 0.92609 0.0
C721 C 0.48393 0.46594 0.82194 0.0
C722 C 0.50056 0.4573 0.70728 0.0
H723 H 0.48999 0.46803 0.40601 0.0
H724 H 0.48574 0.46683 0.51415 0.0
H725 H 0.50508 0.45097 0.62608 0.0
H726 H 0.50869 0.46384 0.93485 0.0
H727 H 0.51227 0.46401 0.82615 0.0
H728 H 0.49255 0.47934 0.71428 0.0
C729 C 0.49431 0.46637 0.49878 0.0
C730 C 0.50244 0.45727 0.64481 0.0
C731 C 0.49665 0.4669 0.43658 0.0
C732 C 0.50176 0.46455 0.90404 0.0
C733 C 0.50371 0.46449 0.84163 0.0
C734 C 0.49516 0.47302 0.69554 0.0
C735 C 0.50291 0.46524 0.54055 0.0
C736 C 0.50072 0.46512 0.60695 0.0
C737 C 0.49482 0.4652 0.79982 0.0
C738 C 0.49689 0.46518 0.7334 0.0
H739 H 0.5246 0.4644 0.44094 0.0
H740 H 0.52069 0.46371 0.5493 0.0
H741 H 0.49589 0.47932 0.60555 0.0
H742 H 0.47353 0.46661 0.89974 0.0
H743 H 0.47681 0.46636 0.79102 0.0
C744 C 0.66023 0.03995 0.79103 0.0
C745 C 0.6491 0.02901 0.81238 0.0
C746 C 0.66264 0.0415 0.72888 0.0
C747 C 0.64494 0.03014 0.58006 0.0
H748 H 0.68141 0.04514 0.51825 0.0
C749 C 0.65485 0.03137 0.32361 0.0
C750 C 0.66624 0.04202 0.30164 0.0
C751 C 0.65281 0.02983 0.38598 0.0
C752 C 0.67118 0.04108 0.5348 0.0
H753 H 0.63215 0.01093 0.78499 0.0
H754 H 0.63631 0.01366 0.67695 0.0
H755 H 0.67801 0.04237 0.62709 0.0
H756 H 0.68417 0.05956 0.32793 0.0
H757 H 0.68055 0.05697 0.43652 0.0
H758 H 0.63809 0.02892 0.48804 0.0
C759 C 0.64303 0.02113 0.70817 0.0
C760 C 0.66924 0.03947 0.59719 0.0
C761 C 0.64065 0.01957 0.77019 0.0
C762 C 0.67542 0.05116 0.34342 0.0
C763 C 0.67336 0.04966 0.40571 0.0
C764 C 0.64688 0.03178 0.51774 0.0
C765 C 0.65396 0.03216 0.68672 0.0
C766 C 0.65609 0.03395 0.62049 0.0
C767 C 0.66207 0.03894 0.42784 0.0
C768 C 0.66002 0.03725 0.49427 0.0
H769 H 0.66685 0.04747 0.82211 0.0
H770 H 0.67108 0.05015 0.71374 0.0
H771 H 0.63471 0.02603 0.59668 0.0
H772 H 0.64769 0.02408 0.29271 0.0
H773 H 0.64411 0.02138 0.4014 0.0
C774 C 0.74462 0.81565 0.70102 0.0
C775 C 0.7407 0.80413 0.67509 0.0
C776 C 0.74614 0.81761 0.76403 0.0
C777 C 0.7513 0.80516 0.90614 0.0
H778 H 0.7389 0.82481 0.98239 0.0
C779 C 0.75027 0.81019 0.16797 0.0
C780 C 0.75438 0.82191 0.19184 0.0
C781 C 0.74844 0.80776 0.10522 0.0
C782 C 0.74255 0.8194 0.96183 0.0
H783 H 0.73549 0.78568 0.6958 0.0
H784 H 0.7379 0.78903 0.80543 0.0
H785 H 0.73611 0.82115 0.87296 0.0
H786 H 0.75954 0.84019 0.16759 0.0
H787 H 0.75663 0.83605 0.05887 0.0
H788 H 0.75776 0.80343 0.99515 0.0
C789 C 0.73992 0.7966 0.77698 0.0
C790 C 0.74096 0.81731 0.89895 0.0
C791 C 0.73838 0.79463 0.71398 0.0
C792 C 0.75656 0.83111 0.15118 0.0
C793 C 0.75471 0.82868 0.0886 0.0
C794 C 0.75289 0.80725 0.9691 0.0
C795 C 0.7438 0.80811 0.80292 0.0
C796 C 0.74536 0.8102 0.87015 0.0
C797 C 0.7506 0.81697 0.06469 0.0
C798 C 0.7486 0.81446 0.99778 0.0
H799 H 0.74636 0.82314 0.67274 0.0
H800 H 0.74929 0.82663 0.78223 0.0
H801 H 0.75498 0.79977 0.88553 0.0
H802 H 0.74858 0.80289 0.19764 0.0
H803 H 0.74515 0.79861 0.08851 0.0
C804 C 0.35408 -0.00255 0.70909 0.0
C805 C 0.34329 0.99446 0.66786 0.0
C806 C 0.35197 0.99646 0.7715 0.0
C807 C 0.32892 0.9956 0.8875 0.0
H808 H 0.34448 0.98096 0.98632 0.0
C809 C 0.31416 0.98277 0.13617 0.0
C810 C 0.32442 0.98466 0.17829 0.0
C811 C 0.31674 0.98433 0.07427 0.0
C812 C 0.34022 0.98523 0.95958 0.0
H813 H 0.32184 0.98828 0.66006 0.0
H814 H 0.31813 0.98643 0.7689 0.0
H815 H 0.34843 0.98295 0.87771 0.0
H816 H 0.34551 0.9897 0.18771 0.0
H817 H 0.35009 0.99271 0.08 0.0
H818 H 0.32076 -0.00206 0.96927 0.0
C819 C 0.32824 0.98958 0.75292 0.0
C820 C 0.34246 0.98635 0.89728 0.0
C821 C 0.33033 0.9905 0.69049 0.0
C822 C 0.33738 0.98827 0.15684 0.0
C823 C 0.33997 0.98985 0.09487 0.0
C824 C 0.32672 0.99453 0.94983 0.0
C825 C 0.33904 0.99254 0.79414 0.0
C826 C 0.3368 0.9915 0.86049 0.0
C827 C 0.32966 0.98785 0.05277 0.0
C828 C 0.33229 0.98928 0.98664 0.0
H829 H 0.36414 0.00043 0.69308 0.0
H830 H 0.36052 -0.00109 0.80208 0.0
H831 H 0.32459 -0.00021 0.86054 0.0
H832 H 0.30412 0.98014 0.15091 0.0
H833 H 0.30851 0.98258 0.04315 0.0
C834 C 0.15604 0.42605 0.77942 0.0
C835 C 0.15433 0.41678 0.73884 0.0
C836 C 0.15657 0.42473 0.84206 0.0
C837 C 0.16237 0.40693 0.95691 0.0
H838 H 0.14433 0.41791 0.06352 0.0
C839 C 0.15347 0.39389 0.20819 0.0
C840 C 0.15617 0.40321 0.25083 0.0
C841 C 0.15339 0.39582 0.14606 0.0
C842 C 0.14953 0.41491 0.03438 0.0
H843 H 0.15158 0.39872 0.7324 0.0
H844 H 0.15236 0.39634 0.84139 0.0
H845 H 0.14398 0.42075 0.95448 0.0
H846 H 0.16091 0.42194 0.26082 0.0
H847 H 0.16058 0.42523 0.15237 0.0
H848 H 0.16775 0.40094 0.0368 0.0
C849 C 0.15361 0.40478 0.82492 0.0
C850 C 0.14936 0.41656 0.97188 0.0
C851 C 0.15315 0.40614 0.76233 0.0
C852 C 0.15861 0.41448 0.22956 0.0
C853 C 0.15845 0.41639 0.16732 0.0
C854 C 0.16248 0.40523 0.0193 0.0
C855 C 0.15533 0.41406 0.86562 0.0
C856 C 0.15573 0.41254 0.93231 0.0
C857 C 0.15593 0.4071 0.12489 0.0
C858 C 0.15601 0.40915 0.05872 0.0
H859 H 0.15715 0.43442 0.7627 0.0
H860 H 0.15812 0.43214 0.87198 0.0
H861 H 0.16761 0.40394 0.92801 0.0
H862 H 0.15129 0.38502 0.22267 0.0
H863 H 0.15118 0.38841 0.11452 0.0
C864 C 0.7674 0.98655 0.13927 0.0
C865 C 0.75752 0.98542 0.17959 0.0
C866 C 0.76586 0.9875 0.0769 0.0
C867 C 0.73969 0.98063 0.95745 0.0
H868 H 0.77092 0.00236 0.86196 0.0
C869 C 0.73429 0.98903 0.70407 0.0
C870 C 0.74413 0.98982 0.66446 0.0
C871 C 0.73594 0.98868 0.76688 0.0
C872 C 0.76211 0.99614 0.8878 0.0
H873 H 0.73825 0.98444 0.18542 0.0
H874 H 0.73568 0.98631 0.07679 0.0
H875 H 0.7738 0.00166 0.97131 0.0
H876 H 0.76352 0.99097 0.66062 0.0
H877 H 0.76627 0.99013 0.76987 0.0
H878 H 0.72801 0.97507 0.87393 0.0
C879 C 0.74457 0.98634 0.09343 0.0
C880 C 0.76376 0.99575 0.9506 0.0
C881 C 0.74613 0.98542 0.15589 0.0
C882 C 0.75566 0.99024 0.68948 0.0
C883 C 0.75732 0.98991 0.75233 0.0
C884 C 0.73804 0.98102 0.89464 0.0
C885 C 0.75438 0.98733 0.05304 0.0
C886 C 0.75258 0.98796 0.98628 0.0
C887 C 0.74748 0.98912 0.7919 0.0
C888 C 0.74923 0.98876 0.85892 0.0
H889 H 0.77636 0.9867 0.15587 0.0
H890 H 0.77356 0.98812 0.04722 0.0
H891 H 0.73088 0.97438 0.98325 0.0
H892 H 0.72521 0.98856 0.68661 0.0
H893 H 0.72822 0.98821 0.79589 0.0
C894 C 0.14025 0.78388 0.71862 0.0
C895 C 0.13924 0.79179 0.67829 0.0
C896 C 0.14054 0.78574 0.78144 0.0
C897 C 0.14737 0.80944 0.8988 0.0
H898 H 0.12741 0.78147 1.00199 0.0
C899 C 0.14063 0.81543 0.15301 0.0
C900 C 0.14202 0.80781 0.19387 0.0
C901 C 0.13995 0.81322 0.0904 0.0
C902 C 0.13316 0.78937 0.97393 0.0
H903 H 0.13758 0.80782 0.67307 0.0
H904 H 0.13807 0.81107 0.78234 0.0
H905 H 0.12706 0.77823 0.89258 0.0
H906 H 0.14373 0.79181 0.20047 0.0
H907 H 0.14251 0.78794 0.09129 0.0
H908 H 0.15348 0.82059 0.98005 0.0
C909 C 0.13886 0.80352 0.76537 0.0
C910 C 0.13297 0.78752 0.91112 0.0
C911 C 0.13858 0.80165 0.70255 0.0
C912 C 0.14245 0.79776 0.17046 0.0
C913 C 0.14178 0.79556 0.10775 0.0
C914 C 0.14756 0.81129 0.96155 0.0
C915 C 0.13982 0.79557 0.80569 0.0
C916 C 0.14006 0.79753 0.87268 0.0
C917 C 0.14065 0.80333 0.06686 0.0
C918 C 0.14043 0.80129 0.99997 0.0
H919 H 0.141 0.77631 0.70173 0.0
H920 H 0.14152 0.77956 0.81102 0.0
H921 H 0.15314 0.81735 0.87082 0.0
H922 H 0.14005 0.82312 0.16941 0.0
H923 H 0.13881 0.81925 0.06039 0.0
C924 C 0.3538 0.38978 0.693 0.0
C925 C 0.34462 0.38048 0.65181 0.0
C926 C 0.35176 0.38847 0.75538 0.0
C927 C 0.33485 0.36509 0.87104 0.0
H928 H 0.33974 0.39224 0.97141 0.0
C929 C 0.31881 0.35911 0.12028 0.0
C930 C 0.32698 0.36865 0.16255 0.0
C931 C 0.3214 0.36063 0.05843 0.0
C932 C 0.33853 0.38462 0.94423 0.0
H933 H 0.32611 0.3625 0.6439 0.0
H934 H 0.3225 0.36022 0.75293 0.0
H935 H 0.34317 0.39477 0.86252 0.0
H936 H 0.34442 0.38727 0.1725 0.0
H937 H 0.34917 0.38981 0.06462 0.0
H938 H 0.33032 0.35495 0.95257 0.0
C939 C 0.33131 0.36851 0.73687 0.0
C940 C 0.34045 0.38606 0.88178 0.0
C941 C 0.3333 0.36987 0.67441 0.0
C942 C 0.33798 0.37969 0.14138 0.0
C943 C 0.3406 0.3812 0.07938 0.0
C944 C 0.333 0.36366 0.9335 0.0
C945 C 0.34055 0.37779 0.77805 0.0
C946 C 0.33857 0.37629 0.84445 0.0
C947 C 0.33228 0.37172 0.03708 0.0
C948 C 0.33474 0.37339 0.97088 0.0
H949 H 0.36254 0.39812 0.677 0.0
H950 H 0.35911 0.39575 0.78594 0.0
H951 H 0.33355 0.35745 0.84364 0.0
H952 H 0.31037 0.35042 0.13483 0.0
H953 H 0.31468 0.35317 0.02721 0.0
C954 C 0.37558 0.12021 0.5563 0.0
C955 C 0.38875 0.12466 0.58079 0.0
C956 C 0.37332 0.11971 0.49349 0.0
C957 C 0.39081 0.13278 0.3504 0.0
H958 H 0.35967 0.10368 0.27597 0.0
C959 C 0.3837 0.12562 0.09018 0.0
C960 C 0.37044 0.12052 0.06529 0.0
C961 C 0.38592 0.12587 0.15288 0.0
C962 C 0.36833 0.11194 0.29603 0.0
H963 H 0.40988 0.13228 0.55846 0.0
H964 H 0.40594 0.13136 0.44894 0.0
H965 H 0.36347 0.10488 0.38562 0.0
H966 H 0.34908 0.11141 0.0875 0.0
H967 H 0.35296 0.11213 0.19656 0.0
H968 H 0.39561 0.13992 0.26108 0.0
C969 C 0.39737 0.12829 0.4783 0.0
C970 C 0.37051 0.11262 0.35894 0.0
C971 C 0.39961 0.12872 0.54103 0.0
C972 C 0.35944 0.11553 0.10483 0.0
C973 C 0.36166 0.11581 0.16754 0.0
C974 C 0.3886 0.13213 0.28754 0.0
C975 C 0.38419 0.12372 0.45373 0.0
C976 C 0.38178 0.12305 0.38687 0.0
C977 C 0.37494 0.12106 0.19247 0.0
C978 C 0.37734 0.1217 0.25947 0.0
H979 H 0.36697 0.11689 0.58558 0.0
H980 H 0.36306 0.11623 0.47606 0.0
H981 H 0.39949 0.14102 0.37058 0.0
H982 H 0.39245 0.12968 0.06144 0.0
H983 H 0.39627 0.12983 0.1703 0.0
C984 C 0.96077 0.33011 0.37615 0.0
C985 C 0.97128 0.33785 0.41802 0.0
C986 C 0.96323 0.3306 0.31413 0.0
C987 C 0.98655 0.35078 0.19802 0.0
H988 H 0.97144 0.32055 0.10257 0.0
C989 C 0.00032 0.35029 0.94766 0.0
C990 C 0.98988 0.34196 0.90693 0.0
C991 C -0.00182 0.34979 0.01004 0.0
C992 C 0.97559 0.32909 0.12833 0.0
H993 H 0.99262 0.35226 0.42719 0.0
H994 H -0.00305 0.35307 0.31882 0.0
H995 H 0.96752 0.3197 0.21111 0.0
H996 H 0.96901 0.32648 0.90059 0.0
H997 H 0.96517 0.32582 0.00895 0.0
H998 H 0.9945 0.36019 0.11526 0.0
C999 C 0.98677 0.34665 0.33411 0.0
C1000 C 0.97336 0.32859 0.19063 0.0
C1001 C 0.98433 0.34611 0.39626 0.0
C1002 C 0.97724 0.33313 0.93034 0.0
C1003 C 0.97509 0.33265 0.99273 0.0
C1004 C 0.98873 0.35128 0.13565 0.0
C1005 C 0.97625 0.33889 0.29232 0.0
C1006 C 0.9788 0.33943 0.2262 0.0
C1007 C 0.98554 0.34097 0.03343 0.0
C1008 C 0.98327 0.34044 0.09995 0.0
H1009 H 0.95065 0.32354 0.39133 0.0
H1010 H 0.95488 0.32456 0.28312 0.0
H1011 H 0.99072 0.3593 0.22398 0.0
H1012 H 0.01014 0.35731 0.93149 0.0
H1013 H 0.00652 0.35626 0.04 0.0
C1014 C 0.81835 0.73928 0.06499 0.0
C1015 C 0.83005 0.74978 0.04374 0.0
C1016 C 0.81588 0.73782 0.12708 0.0
C1017 C 0.82543 0.75499 0.27454 0.0
H1018 H 0.81199 0.72287 0.34121 0.0
C1019 C 0.82361 0.74704 0.53293 0.0
C1020 C 0.81197 0.7365 0.55429 0.0
C1021 C 0.82567 0.74878 0.47064 0.0
C1022 C 0.8156 0.73187 0.32324 0.0
H1023 H 0.84812 0.76714 0.07156 0.0
H1024 H 0.84397 0.76447 0.17967 0.0
H1025 H 0.81568 0.72572 0.23273 0.0
H1026 H 0.79344 0.71951 0.52681 0.0
H1027 H 0.79695 0.7226 0.41827 0.0
H1028 H 0.82543 0.76114 0.36528 0.0
C1029 C 0.83663 0.7574 0.14827 0.0
C1030 C 0.8177 0.7335 0.26099 0.0
C1031 C 0.8391 0.75886 0.0862 0.0
C1032 C 0.80245 0.72776 0.51188 0.0
C1033 C 0.80454 0.72948 0.44966 0.0
C1034 C 0.82335 0.75335 0.33686 0.0
C1035 C 0.82504 0.74682 0.16955 0.0
C1036 C 0.82264 0.74508 0.23581 0.0
C1037 C 0.81618 0.74 0.42825 0.0
C1038 C 0.81841 0.74177 0.36197 0.0
H1039 H 0.81121 0.73204 0.03384 0.0
H1040 H 0.80676 0.72963 0.14178 0.0
H1041 H 0.82906 0.76399 0.2566 0.0
H1042 H 0.83105 0.75403 0.56423 0.0
H1043 H 0.8348 0.75694 0.4557 0.0
C1044 C 0.42337 0.33664 0.00797 0.0
C1045 C 0.42781 0.33085 0.9683 0.0
C1046 C 0.42556 0.3369 0.07069 0.0
C1047 C 0.43344 0.32151 0.19168 0.0
H1048 H 0.44297 0.35074 0.28684 0.0
C1049 C 0.45134 0.32791 0.44294 0.0
C1050 C 0.44608 0.33284 0.48354 0.0
C1051 C 0.44908 0.32777 0.38038 0.0
C1052 C 0.44018 0.34246 0.26101 0.0
H1053 H 0.43802 0.32072 0.96445 0.0
H1054 H 0.44215 0.32145 0.07347 0.0
H1055 H 0.43927 0.35032 0.17739 0.0
H1056 H 0.43445 0.34165 0.48952 0.0
H1057 H 0.43045 0.34133 0.38023 0.0
H1058 H 0.43448 0.31371 0.27532 0.0
C1059 C 0.43678 0.32565 0.05605 0.0
C1060 C 0.43804 0.34221 0.19819 0.0
C1061 C 0.43455 0.32535 0.99326 0.0
C1062 C 0.43858 0.33771 0.45976 0.0
C1063 C 0.43638 0.33763 0.39703 0.0
C1064 C 0.43564 0.32179 0.25442 0.0
C1065 C 0.43231 0.33142 0.09565 0.0
C1066 C 0.43464 0.33172 0.16263 0.0
C1067 C 0.44155 0.33259 0.35659 0.0
C1068 C 0.43905 0.33228 0.28988 0.0
H1069 H 0.4183 0.34112 0.99076 0.0
H1070 H 0.42182 0.3413 0.09966 0.0
H1071 H 0.4306 0.3132 0.16608 0.0
H1072 H 0.457 0.32394 0.45948 0.0
H1073 H 0.45333 0.32394 0.35055 0.0
C1074 C 0.82639 0.12295 0.55071 0.0
C1075 C 0.8144 0.12168 0.57304 0.0
C1076 C 0.82851 0.12344 0.48836 0.0
C1077 C 0.81024 0.11576 0.33912 0.0
H1078 H 0.84629 0.13842 0.27955 0.0
C1079 C 0.82087 0.12591 0.08421 0.0
C1080 C 0.83275 0.12686 0.06223 0.0
C1081 C 0.81842 0.12499 0.14638 0.0
C1082 C 0.83619 0.13195 0.2955 0.0
H1083 H 0.79533 0.12008 0.54733 0.0
H1084 H 0.79906 0.12103 0.43858 0.0
H1085 H 0.84248 0.13748 0.38816 0.0
H1086 H 0.85112 0.1272 0.08875 0.0
H1087 H 0.84689 0.12568 0.19688 0.0
H1088 H 0.80396 0.11031 0.24623 0.0
C1089 C 0.80672 0.12143 0.46919 0.0
C1090 C 0.83401 0.1314 0.35779 0.0
C1091 C 0.80459 0.12091 0.53154 0.0
C1092 C 0.84201 0.12672 0.10397 0.0
C1093 C 0.83958 0.12584 0.16606 0.0
C1094 C 0.81242 0.11634 0.27677 0.0
C1095 C 0.81871 0.1227 0.4468 0.0
C1096 C 0.82101 0.12329 0.38042 0.0
C1097 C 0.8278 0.12504 0.18804 0.0
C1098 C 0.82543 0.12442 0.25426 0.0
H1099 H 0.83405 0.12334 0.58131 0.0
H1100 H 0.83776 0.1242 0.47268 0.0
H1101 H 0.80015 0.10927 0.35501 0.0
H1102 H 0.81359 0.12616 0.05365 0.0
H1103 H 0.80932 0.12452 0.16194 0.0
C1104 C 0.98752 0.68427 0.40068 0.0
C1105 C 0.99205 0.69408 0.44282 0.0
C1106 C 0.98926 0.6864 0.33852 0.0
C1107 C 0.00914 0.71056 0.22781 0.0
H1108 H 0.97927 0.68894 0.11663 0.0
C1109 C 0.00889 0.72137 0.97415 0.0
C1110 C 0.00379 0.71155 0.93171 0.0
C1111 C 0.0076 0.71923 0.03641 0.0
C1112 C 0.98778 0.69498 0.14692 0.0
H1113 H 0.00201 0.71388 0.45198 0.0
H1114 H 0.00509 0.71758 0.34377 0.0
H1115 H 0.97695 0.68524 0.22508 0.0
H1116 H 0.99356 0.69175 0.92195 0.0
H1117 H 0.99133 0.68802 0.0303 0.0
H1118 H 0.01997 0.7203 0.14962 0.0
C1119 C 0.00032 0.70823 0.35893 0.0
C1120 C 0.98645 0.69286 0.20918 0.0
C1121 C -0.00143 0.7061 0.42113 0.0
C1122 C -0.00262 0.69953 0.95315 0.0
C1123 C 0.99611 0.69738 0.01542 0.0
C1124 C 0.01048 0.71267 0.16551 0.0
C1125 C 0.9956 0.6984 0.3168 0.0
C1126 C -0.0029 0.70062 0.25044 0.0
C1127 C 0.0012 0.7072 0.05788 0.0
C1128 C -0.00019 0.70492 0.12424 0.0
H1129 H 0.98267 0.67492 0.41569 0.0
H1130 H 0.98571 0.67863 0.30746 0.0
H1131 H 0.01762 0.71662 0.25819 0.0
H1132 H 0.01371 0.73073 0.95922 0.0
H1133 H 0.01144 0.727 0.0677 0.0
C1134 C 0.14255 0.61951 0.01255 0.0
C1135 C 0.14142 0.62673 0.05768 0.0
C1136 C 0.14164 0.60855 0.0273 0.0
C1137 C 0.12455 0.58498 0.13963 0.0
H1138 H 0.14044 0.56916 0.05382 0.0
C1139 C 0.106 0.53428 0.17476 0.0
C1140 C 0.10363 0.52718 0.12166 0.0
C1141 C 0.11313 0.54706 0.17283 0.0
C1142 C 0.13591 0.57347 0.07803 0.0
H1143 H 0.13977 0.6287 0.15453 0.0
H1144 H 0.13864 0.60983 0.18034 0.0
H1145 H 0.14978 0.5911 0.04167 0.0
H1146 H 0.10716 0.52793 0.02514 0.0
H1147 H 0.11928 0.55025 0.02142 0.0
H1148 H 0.1104 0.56737 0.17434 0.0
C1149 C 0.13988 0.61248 0.13334 0.0
C1150 C 0.14127 0.58602 0.07123 0.0
C1151 C 0.14071 0.62339 0.11857 0.0
C1152 C 0.10868 0.53314 0.06668 0.0
C1153 C 0.1158 0.54593 0.06473 0.0
C1154 C 0.11921 0.57248 0.14642 0.0
C1155 C 0.13966 0.60465 0.08754 0.0
C1156 C 0.13548 0.59185 0.10109 0.0
C1157 C 0.11801 0.55302 0.11772 0.0
C1158 C 0.12464 0.56653 0.11481 0.0
H1159 H 0.14336 0.62196 0.96534 0.0
H1160 H 0.14151 0.60275 0.99087 0.0
H1161 H 0.11963 0.58911 0.16229 0.0
H1162 H 0.10214 0.52997 0.21776 0.0
H1163 H 0.11476 0.55227 0.2145 0.0
C1164 C 0.54965 0.53071 0.2174 0.0
C1165 C 0.54156 0.52412 0.1661 0.0
C1166 C 0.5589 0.54337 0.21497 0.0
C1167 C 0.56511 0.57054 0.13709 0.0
H1168 H 0.60335 0.58446 0.17873 0.0
C1169 C 0.60554 0.61941 0.07188 0.0
C1170 C 0.61682 0.62651 0.11118 0.0
C1171 C 0.59637 0.60705 0.0828 0.0
C1172 C 0.59268 0.58078 0.168 0.0
H1173 H 0.53656 0.52548 0.07259 0.0
H1174 H 0.55253 0.54766 0.06871 0.0
H1175 H 0.58712 0.56256 0.19146 0.0
H1176 H 0.62739 0.62636 0.19294 0.0
H1177 H 0.6111 0.60476 0.21335 0.0
H1178 H 0.57045 0.58866 0.11464 0.0
C1179 C 0.5518 0.54303 0.11051 0.0
C1180 C 0.58342 0.56824 0.17508 0.0
C1181 C 0.54275 0.53037 0.11259 0.0
C1182 C 0.61879 0.62103 0.16176 0.0
C1183 C 0.60949 0.60867 0.17323 0.0
C1184 C 0.5743 0.58309 0.13089 0.0
C1185 C 0.55997 0.54962 0.16159 0.0
C1186 C 0.56961 0.563 0.15863 0.0
C1187 C 0.59815 0.60153 0.13385 0.0
C1188 C 0.58825 0.58834 0.14509 0.0
H1189 H 0.54895 0.52605 0.25904 0.0
H1190 H 0.56509 0.54829 0.25493 0.0
H1191 H 0.55446 0.56671 0.12494 0.0
H1192 H 0.60393 0.62339 0.03201 0.0
H1193 H 0.58798 0.60179 0.05058 0.0
C1194 C 0.60458 0.04765 0.06739 0.0
C1195 C 0.61641 0.05333 0.10489 0.0
C1196 C 0.59549 0.05168 0.06853 0.0
C1197 C 0.5931 0.07839 0.11061 0.0
H1198 H 0.55421 0.05449 0.10199 0.0
C1199 C 0.55231 0.09085 0.14876 0.0
C1200 C 0.54042 0.0848 0.11162 0.0
C1201 C 0.56201 0.08751 0.14599 0.0
C1202 C 0.56504 0.06128 0.10364 0.0
H1203 H 0.62785 0.06757 0.17375 0.0
H1204 H 0.61189 0.07459 0.17598 0.0
H1205 H 0.57014 0.04751 0.1033 0.0
H1206 H 0.52976 0.07095 0.04024 0.0
H1207 H 0.54669 0.06511 0.03547 0.0
H1208 H 0.58794 0.09216 0.11132 0.0
C1209 C 0.60978 0.06713 0.14502 0.0
C1210 C 0.57417 0.05728 0.10448 0.0
C1211 C 0.6189 0.0631 0.14383 0.0
C1212 C 0.53868 0.07562 0.07026 0.0
C1213 C 0.54837 0.07227 0.06755 0.0
C1214 C 0.58395 0.08239 0.10988 0.0
C1215 C 0.59798 0.06148 0.10725 0.0
C1216 C 0.58831 0.06578 0.10777 0.0
C1217 C 0.56003 0.07804 0.10607 0.0
C1218 C 0.56982 0.07388 0.10618 0.0
H1219 H 0.6025 0.04026 0.03602 0.0
H1220 H 0.58663 0.04727 0.03809 0.0
H1221 H 0.60393 0.08517 0.11232 0.0
H1222 H 0.55388 0.09785 0.18165 0.0
H1223 H 0.57082 0.09204 0.17667 0.0
C1224 C 0.73897 0.85728 0.59234 0.0
C1225 C 0.73133 0.84933 0.54346 0.0
C1226 C 0.73673 0.86648 0.61112 0.0
C1227 C 0.71424 0.87898 0.58773 0.0
H1228 H 0.74872 0.91013 0.59582 0.0
C1229 C 0.7215 0.92419 0.5053 0.0
C1230 C 0.73205 0.9353 0.53135 0.0
C1231 C 0.71913 0.91303 0.52645 0.0
C1232 C 0.73896 0.90154 0.59534 0.0
H1233 H 0.71482 0.8442 0.47831 0.0
H1234 H 0.71112 0.86046 0.50979 0.0
H1235 H 0.7486 0.89127 0.59862 0.0
H1236 H 0.74749 0.94354 0.60346 0.0
H1237 H 0.74322 0.92404 0.64113 0.0
H1238 H 0.7047 0.88944 0.58112 0.0
C1239 C 0.71866 0.85949 0.53457 0.0
C1240 C 0.73889 0.89067 0.59698 0.0
C1241 C 0.72082 0.85022 0.51621 0.0
C1242 C 0.73948 0.93507 0.58183 0.0
C1243 C 0.73702 0.92393 0.60336 0.0
C1244 C 0.71431 0.88991 0.58603 0.0
C1245 C 0.72691 0.86798 0.58084 0.0
C1246 C 0.72658 0.87927 0.59117 0.0
C1247 C 0.7272 0.91281 0.57434 0.0
C1248 C 0.72671 0.9013 0.58783 0.0
H1249 H 0.74695 0.8566 0.61489 0.0
H1250 H 0.74306 0.87272 0.64773 0.0
H1251 H 0.70458 0.87033 0.58411 0.0
H1252 H 0.71565 0.92415 0.46628 0.0
H1253 H 0.71157 0.90464 0.50267 0.0
C1254 C 0.20781 0.84871 0.54615 0.0
C1255 C 0.20315 0.83914 0.50264 0.0
C1256 C 0.22136 0.8585 0.54705 0.0
C1257 C 0.24738 0.87604 0.44151 0.0
H1258 H 0.2713 0.89163 0.5826 0.0
C1259 C 0.29597 0.9233 0.42157 0.0
C1260 C 0.29889 0.93178 0.46934 0.0
C1261 C 0.28655 0.9108 0.42857 0.0
C1262 C 0.26471 0.88745 0.54278 0.0
H1263 H 0.20906 0.832 0.42765 0.0
H1264 H 0.23271 0.84927 0.42853 0.0
H1265 H 0.25022 0.87168 0.59176 0.0
H1266 H 0.29488 0.93351 0.56358 0.0
H1267 H 0.27783 0.91199 0.57431 0.0
H1268 H 0.26107 0.892 0.39318 0.0
C1269 C 0.2259 0.84911 0.4622 0.0
C1270 C 0.2527 0.876 0.54808 0.0
C1271 C 0.21242 0.83923 0.46191 0.0
C1272 C 0.29263 0.92733 0.52517 0.0
C1273 C 0.283 0.91487 0.53173 0.0
C1274 C 0.25919 0.88757 0.43643 0.0
C1275 C 0.23039 0.85895 0.50385 0.0
C1276 C 0.24386 0.87029 0.49763 0.0
C1277 C 0.27957 0.90647 0.48302 0.0
C1278 C 0.26792 0.89355 0.48722 0.0
H1279 H 0.20087 0.84879 0.57823 0.0
H1280 H 0.22458 0.86604 0.5793 0.0
H1281 H 0.24061 0.8719 0.40212 0.0
H1282 H 0.30048 0.92631 0.37774 0.0
H1283 H 0.28446 0.90459 0.39048 0.0
C1284 C 0.28379 0.38765 0.43167 0.0
C1285 C 0.29425 0.39091 0.47499 0.0
C1286 C 0.27397 0.39062 0.44143 0.0
C1287 C 0.26598 0.41009 0.53632 0.0
H1288 H 0.22936 0.38671 0.47453 0.0
C1289 C 0.21636 0.41091 0.57965 0.0
C1290 C 0.20988 0.41103 0.52537 0.0
C1291 C 0.22733 0.40915 0.57823 0.0
C1292 C 0.23955 0.3933 0.49205 0.0
H1293 H 0.30287 0.39994 0.56209 0.0
H1294 H 0.28533 0.40477 0.58065 0.0
H1295 H 0.2471 0.38205 0.46437 0.0
H1296 H 0.20965 0.40937 0.42737 0.0
H1297 H 0.22858 0.40601 0.42509 0.0
H1298 H 0.25805 0.42113 0.56532 0.0
C1299 C 0.28488 0.40017 0.53838 0.0
C1300 C 0.24976 0.39071 0.48582 0.0
C1301 C 0.29488 0.39738 0.528 0.0
C1302 C 0.21458 0.40946 0.46979 0.0
C1303 C 0.22532 0.40748 0.46846 0.0
C1304 C 0.25564 0.41257 0.54353 0.0
C1305 C 0.2742 0.3967 0.49542 0.0
C1306 C 0.2632 0.39919 0.50655 0.0
C1307 C 0.23171 0.40722 0.5226 0.0
C1308 C 0.24243 0.40429 0.52031 0.0
H1309 H 0.28324 0.38282 0.39001 0.0
H1310 H 0.26619 0.38813 0.40641 0.0
H1311 H 0.27621 0.41687 0.55246 0.0
H1312 H 0.21288 0.4121 0.62299 0.0
H1313 H 0.23211 0.40893 0.62047 0.0
C1314 C 0.42898 0.27351 0.79957 0.0
C1315 C 0.4208 0.27657 0.76585 0.0
C1316 C 0.42534 0.26128 0.80329 0.0
C1317 C 0.40475 0.23124 0.72419 0.0
H1318 H 0.40851 0.21855 0.87702 0.0
C1319 C 0.38425 0.17983 0.75698 0.0
C1320 C 0.39286 0.17705 0.7891 0.0
C1321 C 0.38742 0.19193 0.75451 0.0
C1322 C 0.40752 0.222 0.83391 0.0
H1323 H 0.40245 0.26923 0.70928 0.0
H1324 H 0.39596 0.2479 0.71681 0.0
H1325 H 0.41457 0.23983 0.87236 0.0
H1326 H 0.41141 0.18472 0.84451 0.0
H1327 H 0.41705 0.20585 0.83933 0.0
H1328 H 0.39773 0.21341 0.68573 0.0
C1329 C 0.40525 0.25495 0.73987 0.0
C1330 C 0.411 0.23418 0.83124 0.0
C1331 C 0.40888 0.26715 0.73618 0.0
C1332 C 0.40466 0.1866 0.8188 0.0
C1333 C 0.40781 0.19867 0.81645 0.0
C1334 C 0.40126 0.21906 0.72687 0.0
C1335 C 0.41346 0.25189 0.77328 0.0
C1336 C 0.40968 0.23893 0.77632 0.0
C1337 C 0.39923 0.20147 0.78431 0.0
C1338 C 0.40266 0.21433 0.78172 0.0
H1339 H 0.43816 0.28054 0.8234 0.0
H1340 H 0.43193 0.25921 0.82895 0.0
H1341 H 0.40381 0.23469 0.681 0.0
H1342 H 0.37513 0.17267 0.73328 0.0
H1343 H 0.38056 0.19381 0.72979 0.0
C1344 C 0.9292 0.27568 0.65056 0.0
C1345 C 0.93561 0.2841 0.69942 0.0
C1346 C 0.92014 0.26325 0.66101 0.0
C1347 C 0.89836 0.24176 0.77707 0.0
H1348 H 0.9014 0.21793 0.68011 0.0
C1349 C 0.8698 0.19029 0.8322 0.0
C1350 C 0.86395 0.1819 0.7829 0.0
C1351 C 0.87843 0.20282 0.82239 0.0
C1352 C 0.90032 0.22446 0.7071 0.0
H1353 H 0.9375 0.28611 0.79751 0.0
H1354 H 0.92163 0.26439 0.81572 0.0
H1355 H 0.91648 0.23974 0.66197 0.0
H1356 H 0.86234 0.18006 0.68476 0.0
H1357 H 0.87738 0.20192 0.66764 0.0
H1358 H 0.88219 0.22646 0.8222 0.0
C1359 C 0.92351 0.26743 0.76938 0.0
C1360 C 0.90895 0.23695 0.69669 0.0
C1361 C 0.93258 0.27986 0.75894 0.0
C1362 C 0.86687 0.18629 0.72365 0.0
C1363 C 0.87548 0.1988 0.71385 0.0
C1364 C 0.88971 0.22926 0.78745 0.0
C1365 C 0.91728 0.25899 0.72051 0.0
C1366 C 0.90805 0.24573 0.7315 0.0
C1367 C 0.88137 0.2072 0.7631 0.0
C1368 C 0.89059 0.22048 0.7525 0.0
H1369 H 0.93114 0.27869 0.60419 0.0
H1370 H 0.91531 0.25698 0.62245 0.0
H1371 H 0.89732 0.24832 0.80413 0.0
H1372 H 0.86789 0.18716 0.87839 0.0
H1373 H 0.88298 0.20905 0.86126 0.0
C1374 C 0.86618 0.71962 0.81916 0.0
C1375 C 0.85972 0.72138 0.76927 0.0
C1376 C 0.87454 0.71492 0.81061 0.0
C1377 C 0.89491 0.71172 0.69381 0.0
H1378 H 0.89627 0.6896 0.80784 0.0
C1379 C 0.93038 0.69377 0.65801 0.0
C1380 C 0.93869 0.69519 0.70865 0.0
C1381 C 0.91905 0.69484 0.66451 0.0
C1382 C 0.896 0.69579 0.77572 0.0
H1383 H 0.85657 0.71924 0.67164 0.0
H1384 H 0.87106 0.71093 0.65667 0.0
H1385 H 0.87969 0.69574 0.82063 0.0
H1386 H 0.94124 0.69819 0.80621 0.0
H1387 H 0.92143 0.70004 0.81758 0.0
H1388 H 0.9113 0.71192 0.64937 0.0
C1389 C 0.8699 0.71341 0.70228 0.0
C1390 C 0.88655 0.69934 0.78311 0.0
C1391 C 0.8616 0.71816 0.71081 0.0
C1392 C 0.93497 0.69696 0.76641 0.0
C1393 C 0.92363 0.69802 0.77292 0.0
C1394 C 0.90429 0.70814 0.68631 0.0
C1395 C 0.87656 0.71183 0.75202 0.0
C1396 C 0.88601 0.70746 0.74258 0.0
C1397 C 0.91579 0.69733 0.72179 0.0
C1398 C 0.90503 0.70024 0.72749 0.0
H1399 H 0.86503 0.72215 0.86468 0.0
H1400 H 0.8797 0.71402 0.84978 0.0
H1401 H 0.89494 0.71816 0.66241 0.0
H1402 H 0.93283 0.69215 0.61308 0.0
H1403 H 0.91304 0.69402 0.62446 0.0
C1404 C 0.1676 0.45398 0.48581 0.0
C1405 C 0.17264 0.44749 0.45653 0.0
C1406 C 0.16408 0.46113 0.45234 0.0
C1407 C 0.1536 0.46198 0.29346 0.0
H1408 H 0.14695 0.48624 0.36246 0.0
C1409 C 0.12534 0.48099 0.16214 0.0
C1410 C 0.11312 0.47798 0.18974 0.0
C1411 C 0.13526 0.48001 0.19403 0.0
C1412 C 0.14887 0.47954 0.34265 0.0
H1413 H 0.17935 0.44425 0.37139 0.0
H1414 H 0.17443 0.4576 0.31364 0.0
H1415 H 0.16139 0.48077 0.41831 0.0
H1416 H 0.10192 0.47217 0.27298 0.0
H1417 H 0.11949 0.47073 0.32928 0.0
H1418 H 0.14118 0.46093 0.21759 0.0
C1419 C 0.1724 0.4567 0.36161 0.0
C1420 C 0.15705 0.47632 0.37466 0.0
C1421 C 0.17547 0.44922 0.39474 0.0
C1422 C 0.11121 0.47445 0.25053 0.0
C1423 C 0.12128 0.47373 0.28284 0.0
C1424 C 0.14573 0.46543 0.26101 0.0
C1425 C 0.16585 0.46213 0.38913 0.0
C1426 C 0.1592 0.46721 0.35132 0.0
C1427 C 0.13326 0.4763 0.25445 0.0
C1428 C 0.14301 0.47398 0.286 0.0
H1429 H 0.16514 0.45258 0.53336 0.0
H1430 H 0.15899 0.46502 0.4755 0.0
H1431 H 0.15463 0.45473 0.27413 0.0
H1432 H 0.12705 0.48372 0.11528 0.0
H1433 H 0.14441 0.48198 0.17131 0.0
C1434 C 0.70312 0.79681 0.27904 0.0
C1435 C 0.70937 0.79458 0.32817 0.0
C1436 C 0.69261 0.78702 0.24469 0.0
C1437 C 0.68046 0.76542 0.15455 0.0
H1438 H 0.65626 0.73369 0.22366 0.0
C1439 C 0.66855 0.72064 0.04285 0.0
C1440 C 0.65672 0.70953 0.05708 0.0
C1441 C 0.67088 0.73174 0.06646 0.0
C1442 C 0.66265 0.7425 0.20312 0.0
H1443 H 0.70896 0.78037 0.38213 0.0
H1444 H 0.69091 0.76341 0.32211 0.0
H1445 H 0.66737 0.75194 0.28913 0.0
H1446 H 0.6374 0.70139 0.10205 0.0
H1447 H 0.64135 0.72084 0.14255 0.0
H1448 H 0.67597 0.75594 0.06868 0.0
C1449 C 0.69394 0.77266 0.3102 0.0
C1450 C 0.66917 0.75296 0.24094 0.0
C1451 C 0.70441 0.78241 0.34436 0.0
C1452 C 0.64669 0.70981 0.09085 0.0
C1453 C 0.64899 0.72095 0.11431 0.0
C1454 C 0.67384 0.75497 0.11659 0.0
C1455 C 0.68814 0.77484 0.25903 0.0
C1456 C 0.67869 0.76443 0.21756 0.0
C1457 C 0.66138 0.73198 0.1046 0.0
C1458 C 0.66542 0.7433 0.14093 0.0
H1459 H 0.70667 0.80609 0.26557 0.0
H1460 H 0.68826 0.789 0.2059 0.0
H1461 H 0.68771 0.77412 0.13493 0.0
H1462 H 0.67644 0.72073 0.01664 0.0
H1463 H 0.6806 0.74001 0.05836 0.0
C1464 C 0.4622 0.05419 0.21581 0.0
C1465 C 0.4742 0.05983 0.25215 0.0
C1466 C 0.45087 0.04304 0.23183 0.0
C1467 C 0.43468 0.02542 0.36588 0.0
H1468 H 0.409 0.0018 0.24562 0.0
C1469 C 0.38027 0.98858 0.42979 0.0
C1470 C 0.37029 0.98874 0.39307 0.0
C1471 C 0.39374 0.99429 0.41116 0.0
C1472 C 0.4161 0.00827 0.27978 0.0
H1473 H 0.48392 0.05792 0.33258 0.0
H1474 H 0.46396 0.0383 0.36092 0.0
H1475 H 0.43191 0.01748 0.21582 0.0
H1476 H 0.36639 0.99419 0.30614 0.0
H1477 H 0.38983 0.00412 0.27374 0.0
H1478 H 0.41871 0.01654 0.42928 0.0
C1479 C 0.46337 0.04261 0.32008 0.0
C1480 C 0.42921 0.01725 0.26276 0.0
C1481 C 0.4748 0.0538 0.30375 0.0
C1482 C 0.37385 0.99397 0.33564 0.0
C1483 C 0.38728 -0.00041 0.31687 0.0
C1484 C 0.42159 0.01641 0.38295 0.0
C1485 C 0.45121 0.03721 0.28472 0.0
C1486 C 0.43846 0.02622 0.30512 0.0
C1487 C 0.39746 0.00015 0.35524 0.0
C1488 C 0.41201 0.00802 0.33959 0.0
H1489 H 0.46143 0.05853 0.17545 0.0
H1490 H 0.44164 0.03927 0.20403 0.0
H1491 H 0.44151 0.03225 0.39952 0.0
H1492 H 0.37785 0.98459 0.47425 0.0
H1493 H 0.40134 0.99447 0.44138 0.0
C1494 C 0.49662 0.13033 0.10703 0.0
C1495 C 0.489 0.121 0.14807 0.0
C1496 C 0.4919 0.13775 0.08642 0.0
C1497 C 0.46439 0.14463 0.10785 0.0
H1498 H 0.46371 0.14467 0.93216 0.0
C1499 C 0.4241 0.13567 0.90626 0.0
C1500 C 0.41852 0.14242 0.92742 0.0
C1501 C 0.43605 0.13737 0.93266 0.0
C1502 C 0.46385 0.14479 0.98128 0.0
H1503 H 0.47115 0.1128 0.20376 0.0
H1504 H 0.46283 0.12544 0.1674 0.0
H1505 H 0.47907 0.14016 0.9855 0.0
H1506 H 0.42146 0.15666 0.99134 0.0
H1507 H 0.44248 0.15971 0.03741 0.0
H1508 H 0.44828 0.14818 0.10329 0.0
C1509 C 0.47249 0.12723 0.15121 0.0
C1510 C 0.47282 0.14238 0.01202 0.0
C1511 C 0.4772 0.11986 0.17172 0.0
C1512 C 0.42546 0.15127 0.97421 0.0
C1513 C 0.43748 0.15299 1.00072 0.0
C1514 C 0.45531 0.14692 0.07705 0.0
C1515 C 0.47949 0.13596 0.10658 0.0
C1516 C 0.47273 0.14168 0.0756 0.0
C1517 C 0.44279 0.14592 0.98083 0.0
C1518 C 0.45448 0.14643 0.01332 0.0
H1519 H 0.50581 0.13145 0.08826 0.0
H1520 H 0.49765 0.14452 0.05273 0.0
H1521 H 0.46429 0.14445 0.15692 0.0
H1522 H 0.41905 0.12879 0.87025 0.0
H1523 H 0.43965 0.13158 0.91687 0.0
C1524 C 0.0331 0.44626 0.02166 0.0
C1525 C 0.04095 0.44404 0.06292 0.0
C1526 C 0.02375 0.43695 0.98142 0.0
C1527 C 0.00142 0.41287 0.91329 0.0
H1528 H 0.01988 0.3991 0.83032 0.0
C1529 C 0.97647 0.3686 0.75951 0.0
C1530 C 0.98417 0.36865 0.71074 0.0
C1531 C 0.98144 0.37903 0.7973 0.0
C1532 C 0.01462 0.40295 0.85252 0.0
H1533 H 0.04429 0.4301 0.0981 0.0
H1534 H 0.02803 0.41392 0.02787 0.0
H1535 H 0.0316 0.41399 0.91297 0.0
H1536 H 0.0022 0.38001 0.65879 0.0
H1537 H 0.01078 0.39819 0.7243 0.0
H1538 H 0.9843 0.40153 0.85279 0.0
C1539 C 0.02922 0.42287 0.02624 0.0
C1540 C 0.02127 0.41134 0.90041 0.0
C1541 C 0.03848 0.43212 0.06653 0.0
C1542 C 0.99613 0.37966 0.69648 0.0
C1543 C 0.00107 0.39005 0.73408 0.0
C1544 C 0.99465 0.40427 0.86558 0.0
C1545 C 0.02219 0.42533 0.98176 0.0
C1546 C 0.01473 0.41633 0.93152 0.0
C1547 C 0.99416 0.38962 0.78667 0.0
C1548 C 0.00124 0.39927 0.83469 0.0
H1549 H 0.03478 0.45537 0.01785 0.0
H1550 H 0.01846 0.43907 0.94745 0.0
H1551 H 0.99621 0.41665 0.93657 0.0
H1552 H 0.96721 0.36023 0.77159 0.0
H1553 H 0.97592 0.37844 0.83756 0.0
C1554 C 0.78033 0.69481 0.80561 0.0
C1555 C 0.78895 0.70563 0.83988 0.0
C1556 C 0.76703 0.68661 0.82371 0.0
C1557 C 0.73758 0.67893 0.84499 0.0
H1558 H 0.727 0.67224 0.01255 0.0
C1559 C 0.69356 0.67574 0.99933 0.0
C1560 C 0.68178 0.66826 0.96311 0.0
C1561 C 0.70578 0.67656 0.98676 0.0
C1562 C 0.72978 0.67398 0.96547 0.0
H1563 H 0.79079 0.71584 0.92236 0.0
H1564 H 0.76765 0.70154 0.95396 0.0
H1565 H 0.75072 0.68049 0.98682 0.0
H1566 H 0.67345 0.65538 0.88659 0.0
H1567 H 0.695 0.65688 0.86417 0.0
H1568 H 0.71685 0.67313 0.824 0.0
C1569 C 0.77112 0.69938 0.91311 0.0
C1570 C 0.74335 0.67868 0.95079 0.0
C1571 C 0.78436 0.70763 0.89477 0.0
C1572 C 0.68238 0.66125 0.91517 0.0
C1573 C 0.69471 0.66214 0.90226 0.0
C1574 C 0.72402 0.67428 0.8597 0.0
C1575 C 0.76217 0.68899 0.87675 0.0
C1576 C 0.74748 0.68164 0.89072 0.0
C1577 C 0.70658 0.66995 0.93752 0.0
C1578 C 0.72009 0.67223 0.92044 0.0
H1579 H 0.78359 0.693 0.76312 0.0
H1580 H 0.76039 0.67862 0.79512 0.0
H1581 H 0.74047 0.68121 0.79833 0.0
H1582 H 0.69344 0.68118 0.03698 0.0
H1583 H 0.71475 0.68282 0.01426 0.0
C1584 C 0.07389 0.6521 0.91486 0.0
C1585 C 0.08508 0.66063 0.95171 0.0
C1586 C 0.0645 0.65491 0.89254 0.0
C1587 C 0.04254 0.66074 0.8716 0.0
H1588 H 0.0571 0.69378 0.81541 0.0
C1589 C 0.00863 0.67854 0.78186 0.0
C1590 C 0.01376 0.68684 0.73432 0.0
C1591 C 0.01664 0.67459 0.8092 0.0
C1592 C 0.05287 0.68447 0.83031 0.0
H1593 H 0.09487 0.67858 0.9961 0.0
H1594 H 0.07834 0.68342 0.95805 0.0
H1595 H 0.07231 0.68847 0.86358 0.0
H1596 H 0.03087 0.69697 0.67558 0.0
H1597 H 0.04463 0.6898 0.7217 0.0
H1598 H 0.02316 0.65666 0.83613 0.0
C1599 C 0.077 0.67467 0.94522 0.0
C1600 C 0.06157 0.68148 0.85891 0.0
C1601 C 0.08646 0.67188 0.96724 0.0
C1602 C 0.02671 0.69065 0.71256 0.0
C1603 C 0.03464 0.68662 0.73937 0.0
C1604 C 0.03383 0.66372 0.84263 0.0
C1605 C 0.06601 0.66627 0.90689 0.0
C1606 C 0.05654 0.66956 0.87955 0.0
C1607 C 0.02987 0.67882 0.7891 0.0
C1608 C 0.03893 0.67559 0.82111 0.0
H1609 H 0.07255 0.64335 0.9019 0.0
H1610 H 0.05629 0.6483 0.86247 0.0
H1611 H 0.0383 0.65151 0.88763 0.0
H1612 H -0.00129 0.67554 0.79981 0.0
H1613 H 0.01268 0.66863 0.84761 0.0
C1614 C 0.51001 0.4423 0.06858 0.0
C1615 C 0.50042 0.44066 0.11178 0.0
C1616 C 0.5076 0.43251 0.03043 0.0
C1617 C 0.47836 0.40556 0.9609 0.0
H1618 H 0.50362 0.39633 0.90723 0.0
C1619 C 0.47286 0.36225 0.8252 0.0
C1620 C 0.46382 0.3612 0.77858 0.0
C1621 C 0.48007 0.37303 0.86077 0.0
C1622 C 0.49651 0.39887 0.92179 0.0
H1623 H 0.48144 0.4273 0.15272 0.0
H1624 H 0.4773 0.41026 0.08652 0.0
H1625 H 0.51086 0.41238 0.9867 0.0
H1626 H 0.4563 0.37098 0.72852 0.0
H1627 H 0.46897 0.3898 0.79015 0.0
H1628 H 0.46398 0.39214 0.89699 0.0
C1629 C 0.48655 0.41913 0.08143 0.0
C1630 C 0.50064 0.40802 0.96703 0.0
C1631 C 0.48896 0.42888 0.11947 0.0
C1632 C 0.46307 0.37147 0.7646 0.0
C1633 C 0.47027 0.38223 0.80002 0.0
C1634 C 0.47431 0.39656 0.91554 0.0
C1635 C 0.49556 0.42098 0.03495 0.0
C1636 C 0.49152 0.41133 0.98741 0.0
C1637 C 0.47834 0.3829 0.85016 0.0
C1638 C 0.48329 0.39308 0.89558 0.0
H1639 H 0.51894 0.45129 0.06159 0.0
H1640 H 0.51469 0.43418 0.9949 0.0
H1641 H 0.47119 0.40806 0.97499 0.0
H1642 H 0.47366 0.35448 0.83697 0.0
H1643 H 0.48621 0.3733 0.89918 0.0
C1644 C 0.78662 0.1256 0.90844 0.0
C1645 C 0.79151 0.13144 0.85308 0.0
C1646 C 0.77336 0.12166 0.9254 0.0
C1647 C 0.7401 0.1101 0.85509 0.0
H1648 H 0.72925 0.11008 0.02038 0.0
C1649 C 0.68426 0.07819 0.92411 0.0
C1650 C 0.68302 0.0715 0.97611 0.0
C1651 C 0.69691 0.08847 0.90992 0.0
C1652 C 0.7321 0.11002 0.97393 0.0
H1653 H 0.78658 0.13835 0.77369 0.0
H1654 H 0.76335 0.13132 0.80317 0.0
H1655 H 0.7532 0.1231 0.99491 0.0
H1656 H 0.69385 0.07076 0.05575 0.0
H1657 H 0.71571 0.08834 0.03074 0.0
H1658 H 0.71921 0.09647 0.8347 0.0
C1659 C 0.7698 0.1298 0.83329 0.0
C1660 C 0.7458 0.11749 0.95941 0.0
C1661 C 0.78312 0.13387 0.81663 0.0
C1662 C 0.69447 0.07561 0.01497 0.0
C1663 C 0.70701 0.08583 1.00099 0.0
C1664 C 0.72641 0.10254 0.86971 0.0
C1665 C 0.76468 0.12338 0.88708 0.0
C1666 C 0.74999 0.1173 0.90029 0.0
C1667 C 0.70849 0.09227 0.94775 0.0
C1668 C 0.72234 0.10208 0.92979 0.0
H1669 H 0.79286 0.12365 0.93761 0.0
H1670 H 0.76966 0.11665 0.96691 0.0
H1671 H 0.74305 0.10968 0.80921 0.0
H1672 H 0.6756 0.07525 0.89339 0.0
H1673 H 0.69769 0.09329 0.86878 0.0
C1674 C 0.70785 0.97897 0.34022 0.0
C1675 C 0.71202 0.97112 0.31919 0.0
C1676 C 0.69723 0.97923 0.31075 0.0
C1677 C 0.67198 0.97631 0.25252 0.0
H1678 H 0.67545 0.97885 0.07811 0.0
C1679 C 0.64812 -0.00145 0.11854 0.0
C1680 C 0.65754 0.00785 0.08121 0.0
C1681 C 0.65056 0.98963 0.13994 0.0
C1682 C 0.67427 0.97809 0.12674 0.0
H1683 H 0.70783 0.95688 0.25254 0.0
H1684 H 0.68913 0.95725 0.20115 0.0
H1685 H 0.68776 0.97151 0.13591 0.0
H1686 H 0.6763 0.01456 0.03308 0.0
H1687 H 0.68071 -0.00068 0.07102 0.0
H1688 H 0.65948 0.98392 0.24413 0.0
C1689 C 0.69422 0.96333 0.2401 0.0
C1690 C 0.68121 0.97373 0.15988 0.0
C1691 C 0.70489 0.96308 0.2697 0.0
C1692 C 0.66889 0.00755 0.06212 0.0
C1693 C 0.67134 -0.0013 0.08351 0.0
C1694 C 0.66516 0.98079 0.21949 0.0
C1695 C 0.69047 0.9716 0.25955 0.0
C1696 C 0.68065 0.97335 0.22349 0.0
C1697 C 0.66247 0.98989 0.12439 0.0
C1698 C 0.66675 0.98228 0.15653 0.0
H1699 H 0.71308 0.98526 0.37836 0.0
H1700 H 0.69481 0.98587 0.32647 0.0
H1701 H 0.67107 0.97585 0.30134 0.0
H1702 H 0.63923 -0.0015 0.13369 0.0
H1703 H 0.64341 0.98286 0.17061 0.0
C1704 C 0.1457 0.70044 0.11043 0.0
C1705 C 0.13374 0.69435 0.07392 0.0
C1706 C 0.14976 0.7117 0.13884 0.0
C1707 C 0.14522 0.73805 0.1354 0.0
H1708 H 0.15533 0.74155 0.30648 0.0
C1709 C 0.14894 0.76932 0.35317 0.0
C1710 C 0.15637 0.78113 0.32926 0.0
C1711 C 0.14777 0.75929 0.32166 0.0
C1712 C 0.15254 0.7407 0.25872 0.0
H1713 H 0.11688 0.69536 0.03688 0.0
H1714 H 0.12397 0.71506 0.08658 0.0
H1715 H 0.15006 0.723 0.24994 0.0
H1716 H 0.16862 0.79174 0.25418 0.0
H1717 H 0.16654 0.77416 0.19903 0.0
H1718 H 0.14738 0.75564 0.14463 0.0
C1719 C 0.13023 0.71116 0.09304 0.0
C1720 C 0.14965 0.73014 0.22623 0.0
C1721 C 0.12613 0.69986 0.06487 0.0
C1722 C 0.16289 0.78276 0.27391 0.0
C1723 C 0.16161 0.77269 0.24209 0.0
C1724 C 0.14821 0.74865 0.16783 0.0
C1725 C 0.14198 0.71711 0.13102 0.0
C1726 C 0.1458 0.72864 0.16439 0.0
C1727 C 0.15391 0.76084 0.26535 0.0
C1728 C 0.15174 0.75002 0.22999 0.0
H1729 H 0.15178 0.6964 0.11812 0.0
H1730 H 0.15895 0.71613 0.16727 0.0
H1731 H 0.14239 0.73718 0.08769 0.0
H1732 H 0.14381 0.76778 0.39574 0.0
H1733 H 0.14167 0.75026 0.34044 0.0
C1734 C 0.46013 0.47699 0.18362 0.0
C1735 C 0.46843 0.47413 0.21781 0.0
C1736 C 0.44674 0.47264 0.20039 0.0
C1737 C 0.42238 0.45845 0.32433 0.0
H1738 H 0.3963 0.43852 0.1957 0.0
C1739 C 0.37187 0.41493 0.37107 0.0
C1740 C 0.36033 0.41102 0.3331 0.0
C1741 C 0.38423 0.42554 0.35892 0.0
C1742 C 0.40335 0.44428 0.23189 0.0
H1743 H 0.46962 0.46529 0.29876 0.0
H1744 H 0.44634 0.45783 0.32843 0.0
H1745 H 0.42012 0.45256 0.17202 0.0
H1746 H 0.35257 0.41547 0.25384 0.0
H1747 H 0.37437 0.43418 0.23232 0.0
H1748 H 0.40572 0.44988 0.38458 0.0
C1749 C 0.45012 0.46339 0.28855 0.0
C1750 C 0.41703 0.45231 0.21831 0.0
C1751 C 0.46343 0.46759 0.27138 0.0
C1752 C 0.3613 0.41825 0.28382 0.0
C1753 C 0.37378 0.42891 0.27139 0.0
C1754 C 0.4087 0.4505 0.33784 0.0
C1755 C 0.4415 0.46552 0.25217 0.0
C1756 C 0.42676 0.45911 0.26477 0.0
C1757 C 0.38544 0.43257 0.30841 0.0
C1758 C 0.39914 0.44293 0.2922 0.0
H1759 H 0.46369 0.482 0.14202 0.0
H1760 H 0.44033 0.47447 0.17178 0.0
H1761 H 0.42964 0.46373 0.36086 0.0
H1762 H 0.37146 0.40966 0.4098 0.0
H1763 H 0.39301 0.42792 0.38785 0.0
C1764 C 0.77712 0.80076 0.44141 0.0
C1765 C 0.77739 0.8113 0.46183 0.0
C1766 C 0.78577 0.79752 0.46821 0.0
C1767 C 0.81489 0.80695 0.57561 0.0
H1768 H 0.79193 0.77368 0.63102 0.0
C1769 C 0.81232 0.77172 0.76749 0.0
C1770 C 0.82303 0.77012 0.75209 0.0
C1771 C 0.80941 0.77909 0.73276 0.0
C1772 C 0.79847 0.783 0.61598 0.0
H1773 H 0.78786 0.82737 0.52182 0.0
H1774 H 0.8029 0.82161 0.56906 0.0
H1775 H 0.78255 0.7819 0.56049 0.0
H1776 H 0.83992 0.77588 0.69194 0.0
H1777 H 0.83479 0.78888 0.63107 0.0
H1778 H 0.8308 0.80792 0.63236 0.0
C1779 C 0.79603 0.81589 0.53229 0.0
C1780 C 0.79316 0.78765 0.57492 0.0
C1781 C 0.78737 0.81915 0.50539 0.0
C1782 C 0.8316 0.77697 0.70487 0.0
C1783 C 0.82868 0.78439 0.67002 0.0
C1784 C 0.8203 0.8022 0.61638 0.0
C1785 C 0.79483 0.80474 0.51597 0.0
C1786 C 0.80124 0.7997 0.55469 0.0
C1787 C 0.81717 0.78502 0.68206 0.0
C1788 C 0.81201 0.79025 0.63766 0.0
H1789 H 0.76966 0.79461 0.40739 0.0
H1790 H 0.78482 0.78897 0.45408 0.0
H1791 H 0.82132 0.81629 0.56074 0.0
H1792 H 0.80563 0.76666 0.80402 0.0
H1793 H 0.8006 0.7796 0.7434 0.0
C1794 C 0.31686 0.0112 0.49581 0.0
C1795 C 0.32674 0.01309 0.45363 0.0
C1796 C 0.31763 0.02119 0.52609 0.0
C1797 C 0.32112 0.04535 0.5773 0.0
H1798 H 0.35815 0.06554 0.64223 0.0
C1799 C 0.34499 0.09156 0.71882 0.0
C1800 C 0.3538 0.09283 0.76709 0.0
C1801 C 0.33874 0.08097 0.6815 0.0
C1802 C 0.34776 0.05996 0.62464 0.0
H1803 H 0.34416 0.02687 0.40493 0.0
H1804 H 0.34542 0.04428 0.45741 0.0
H1805 H 0.35275 0.04953 0.56692 0.0
H1806 H 0.36185 0.08357 0.81804 0.0
H1807 H 0.35095 0.06515 0.75306 0.0
H1808 H 0.31626 0.05595 0.63607 0.0
C1809 C 0.33726 0.03509 0.46792 0.0
C1810 C 0.3447 0.05091 0.58087 0.0
C1811 C 0.33652 0.02513 0.43779 0.0
C1812 C 0.35524 0.08291 0.78081 0.0
C1813 C 0.34903 0.07238 0.74357 0.0
C1814 C 0.32426 0.05461 0.62082 0.0
C1815 C 0.32826 0.0332 0.51452 0.0
C1816 C 0.33136 0.04344 0.55698 0.0
C1817 C 0.34126 0.07156 0.69204 0.0
C1818 C 0.33757 0.06184 0.64546 0.0
H1819 H 0.30918 0.00201 0.50881 0.0
H1820 H 0.31057 0.01948 0.56186 0.0
H1821 H 0.31075 0.03969 0.55965 0.0
H1822 H 0.3437 0.09907 0.70716 0.0
H1823 H 0.33278 0.08054 0.64197 0.0
C1824 C 0.1094 0.38721 0.50141 0.0
C1825 C 0.11944 0.38426 0.50755 0.0
C1826 C 0.09569 0.37825 0.5071 0.0
C1827 C 0.07257 0.3476 0.56937 0.0
H1828 H 0.04607 0.35198 0.48238 0.0
C1829 C 0.01125 0.33056 0.55875 0.0
C1830 C 0.00909 0.32915 0.6212 0.0
C1831 C 0.02382 0.33361 0.53575 0.0
C1832 C 0.05316 0.35029 0.50623 0.0
H1833 H 0.12304 0.36958 0.52391 0.0
H1834 H 0.09886 0.35368 0.53212 0.0
H1835 H 0.06971 0.3641 0.45659 0.0
H1836 H 0.01801 0.32922 0.70845 0.0
H1837 H 0.04014 0.3353 0.66953 0.0
H1838 H 0.0559 0.33345 0.61755 0.0
C1839 C 0.10164 0.36302 0.52404 0.0
C1840 C 0.06688 0.3575 0.49214 0.0
C1841 C 0.11548 0.37209 0.51917 0.0
C1842 C 0.01941 0.33017 0.65994 0.0
C1843 C 0.03212 0.3336 0.63731 0.0
C1844 C 0.05875 0.34015 0.58253 0.0
C1845 C 0.09157 0.36601 0.51802 0.0
C1846 C 0.07684 0.35668 0.52548 0.0
C1847 C 0.03468 0.33578 0.57507 0.0
C1848 C 0.04891 0.34177 0.55301 0.0
H1849 H 0.11213 0.39655 0.49321 0.0
H1850 H 0.08834 0.38105 0.50413 0.0
H1851 H 0.07992 0.34664 0.59583 0.0
H1852 H 0.00335 0.32968 0.52795 0.0
H1853 H 0.02516 0.33474 0.48735 0.0
C1854 C 0.38851 0.31259 0.65949 0.0
C1855 C 0.39818 0.31301 0.62055 0.0
C1856 C 0.37705 0.3123 0.63595 0.0
C1857 C 0.35913 0.3114 0.48958 0.0
H1858 H 0.35133 0.33263 0.58349 0.0
C1859 C 0.32874 0.33901 0.47524 0.0
C1860 C 0.33566 0.34664 0.42678 0.0
C1861 C 0.33212 0.33065 0.49565 0.0
C1862 C 0.35313 0.32645 0.55721 0.0
H1863 H 0.40344 0.31303 0.52696 0.0
H1864 H 0.38397 0.31337 0.48548 0.0
H1865 H 0.36564 0.32605 0.62773 0.0
H1866 H 0.35053 0.35074 0.35789 0.0
H1867 H 0.35626 0.33598 0.39286 0.0
H1868 H 0.34749 0.31291 0.41701 0.0
C1869 C 0.38475 0.31272 0.53406 0.0
C1870 C 0.36134 0.3226 0.58266 0.0
C1871 C 0.39599 0.3126 0.55769 0.0
C1872 C 0.3451 0.345 0.39559 0.0
C1873 C 0.34831 0.3365 0.41532 0.0
C1874 C 0.35113 0.3155 0.46364 0.0
C1875 C 0.37532 0.31293 0.57299 0.0
C1876 C 0.36478 0.31528 0.54874 0.0
C1877 C 0.34229 0.32965 0.46714 0.0
C1878 C 0.34834 0.32329 0.49687 0.0
H1879 H 0.38999 0.31277 0.70824 0.0
H1880 H 0.36982 0.31204 0.66744 0.0
H1881 H 0.36124 0.30554 0.46245 0.0
H1882 H 0.32143 0.34011 0.50015 0.0
H1883 H 0.32734 0.32545 0.53569 0.0
C1884 C 0.8138 0.0866 0.78472 0.0
C1885 C 0.82505 0.09827 0.77266 0.0
C1886 C 0.81095 0.07646 0.74883 0.0
C1887 C 0.82275 0.06387 0.63155 0.0
H1888 H 0.7857 0.04935 0.56806 0.0
C1889 C 0.78138 0.02694 0.43962 0.0
C1890 C 0.78107 0.01628 0.45622 0.0
C1891 C 0.78993 0.03801 0.47108 0.0
C1892 C 0.79612 0.0534 0.5847 0.0
H1893 H 0.84294 0.10826 0.71782 0.0
H1894 H 0.83789 0.09043 0.65492 0.0
H1895 H 0.79446 0.06567 0.64479 0.0
H1896 H 0.79054 0.0091 0.51404 0.0
H1897 H 0.8054 0.02846 0.56933 0.0
H1898 H 0.82421 0.05132 0.57137 0.0
C1899 C 0.8313 0.08919 0.69207 0.0
C1900 C 0.80106 0.06261 0.62936 0.0
C1901 C 0.83417 0.09938 0.72806 0.0
C1902 C 0.79049 0.01717 0.50047 0.0
C1903 C 0.79905 0.02826 0.53205 0.0
C1904 C 0.8177 0.05446 0.58707 0.0
C1905 C 0.81929 0.07779 0.7003 0.0
C1906 C 0.81436 0.06787 0.65361 0.0
C1907 C 0.7983 0.0386 0.51972 0.0
C1908 C 0.80433 0.04917 0.56323 0.0
H1909 H 0.80668 0.08544 0.8192 0.0
H1910 H 0.80174 0.06769 0.75666 0.0
H1911 H 0.83307 0.06786 0.6494 0.0
H1912 H 0.77435 0.02657 0.4052 0.0
H1913 H 0.78936 0.04593 0.45997 0.0
C1914 C 0.01436 0.73981 0.5734 0.0
C1915 C 0.01013 0.73986 0.63257 0.0
C1916 C 0.02425 0.7507 0.54761 0.0
C1917 C 0.05443 0.77879 0.59917 0.0
H1918 H 0.05886 0.78411 0.42633 0.0
C1919 C 0.10777 0.80534 0.50192 0.0
C1920 C 0.10921 0.79821 0.45739 0.0
C1921 C 0.09478 0.80256 0.51795 0.0
C1922 C 0.05776 0.78286 0.47482 0.0
H1923 H 0.01204 0.75143 0.70938 0.0
H1924 H 0.02955 0.77056 0.66438 0.0
H1925 H 0.03608 0.77084 0.46568 0.0
H1926 H 0.09836 0.78325 0.39142 0.0
H1927 H 0.07584 0.77835 0.41937 0.0
H1928 H 0.07613 0.79002 0.60804 0.0
C1929 C 0.0252 0.76207 0.63807 0.0
C1930 C 0.04473 0.77529 0.49732 0.0
C1931 C 0.01515 0.75113 0.66369 0.0
C1932 C 0.09755 0.78884 0.42625 0.0
C1933 C 0.08463 0.78613 0.44187 0.0
C1934 C 0.06746 0.78634 0.57667 0.0
C1935 C 0.03022 0.76188 0.58067 0.0
C1936 C 0.04303 0.77263 0.55931 0.0
C1937 C 0.08306 0.79267 0.48926 0.0
C1938 C 0.06931 0.78789 0.5139 0.0
H1939 H 0.01054 0.73126 0.54813 0.0
H1940 H 0.02796 0.75019 0.50358 0.0
H1941 H 0.0535 0.77689 0.64713 0.0
H1942 H 0.11661 0.81265 0.52651 0.0
H1943 H 0.09389 0.80781 0.55438 0.0
loop_
_geom_bond_atom_site_label_1
_geom_bond_atom_site_label_2
_geom_bond_distance
_geom_bond_site_symmetry_2
_ccdc_geom_bond_type
Co0 N4 2.148 1_554 S
Co0 N10 2.128 . S
Co0 N20 2.194 . S
Co0 O25 2.351 . S
Co0 O26 2.155 . S
Co0 O27 2.096 . S
C1 N4 1.301 . S
C1 N5 1.328 . S
C1 H6 0.930 . S
C2 C3 1.333 . S
C2 N4 1.317 . S
C2 H7 0.930 1_556 S
C3 C2 1.333 . S
C3 N5 1.350 . S
C3 H29 0.931 . S
N4 Co0 2.148 1_556 S
N4 C1 1.301 . S
N4 C2 1.317 . S
N5 C1 1.328 . S
N5 C3 1.350 . S
H6 C1 0.930 . S
H7 C2 0.930 1_554 S
C8 O9 1.224 . S
C8 O27 1.247 . S
O9 C8 1.224 . S
N10 Co0 2.128 . S
N10 C11 1.355 . S
N10 C13 1.311 . S
C11 N10 1.355 . S
C11 C12 1.363 . S
C11 H23 0.929 . S
C12 C11 1.363 . S
C12 N14 1.375 . S
C12 H30 0.931 . S
C13 N10 1.311 . S
C13 N14 1.347 . S
C13 H24 0.929 . S
N14 C12 1.375 . S
N14 C13 1.347 . S
C15 C18 1.365 . S
C15 N20 1.328 . S
C15 H21 0.929 . S
C16 C17 1.362 . S
C16 C19 1.378 . S
C16 H31 0.929 . S
C17 C16 1.362 . S
C17 C18 1.366 . S
C18 C15 1.365 . S
C18 C17 1.366 . S
C18 H32 0.930 . S
C19 C16 1.378 . S
C19 N20 1.315 . S
C19 H22 0.930 . S
N20 Co0 2.194 . S
N20 C15 1.328 . S
N20 C19 1.315 . S
H21 C15 0.929 . S
H22 C19 0.930 . S
H23 C11 0.929 . S
H24 C13 0.929 . S
O25 Co0 2.351 . S
O25 C28 1.244 . S
O26 Co0 2.155 . S
O26 C28 1.240 . S
O27 Co0 2.096 . S
O27 C8 1.247 . S
C28 O25 1.244 . S
C28 O26 1.240 . S
H29 C3 0.931 . S
H30 C12 0.931 . S
H31 C16 0.929 . S
H32 C18 0.930 . S
Co33 N37 2.148 . S
Co33 N43 2.128 1_554 S
Co33 N53 2.194 . S
Co33 O58 2.351 . S
Co33 O59 2.155 . S
Co33 O60 2.096 . S
C34 N37 1.301 . S
C34 N38 1.328 . S
C34 H39 0.930 . S
C35 C36 1.333 . S
C35 N37 1.317 . S
C35 H40 0.930 . S
C36 C35 1.333 . S
C36 N38 1.350 . S
C36 H62 0.931 . S
N37 Co33 2.148 . S
N37 C34 1.301 . S
N37 C35 1.317 . S
N38 C34 1.328 . S
N38 C36 1.350 . S
H39 C34 0.930 . S
H40 C35 0.930 . S
C41 O42 1.224 . S
C41 O60 1.247 . S
O42 C41 1.224 . S
N43 Co33 2.128 1_556 S
N43 C44 1.355 . S
N43 C46 1.311 . S
C44 N43 1.355 . S
C44 C45 1.363 . S
C44 H56 0.920 1_556 S
C45 C44 1.363 . S
C45 N47 1.375 . S
C45 H63 0.931 . S
C46 N43 1.311 . S
C46 N47 1.347 . S
C46 H57 0.929 . S
N47 C45 1.375 . S
N47 C46 1.347 . S
C48 C51 1.365 . S
C48 N53 1.328 . S
C48 H54 0.929 . S
C49 C50 1.362 . S
C49 C52 1.378 . S
C49 H64 0.929 . S
C50 C49 1.362 . S
C50 C51 1.366 . S
C51 C48 1.365 . S
C51 C50 1.366 . S
C51 H65 0.930 . S
C52 C49 1.378 . S
C52 N53 1.315 . S
C52 H55 0.930 . S
N53 Co33 2.194 . S
N53 C48 1.328 . S
N53 C52 1.315 . S
H54 C48 0.929 . S
H55 C52 0.930 . S
H56 C44 0.920 1_554 S
H57 C46 0.929 . S
O58 Co33 2.351 . S
O58 C61 1.244 . S
O59 Co33 2.155 . S
O59 C61 1.240 . S
O60 Co33 2.096 . S
O60 C41 1.247 . S
C61 O58 1.244 . S
C61 O59 1.240 . S
H62 C36 0.931 . S
H63 C45 0.931 . S
H64 C49 0.929 . S
H65 C51 0.930 . S
Co66 N70 2.148 . S
Co66 N76 2.128 . S
Co66 N86 2.194 . S
Co66 O91 2.351 . S
Co66 O92 2.155 . S
Co66 O93 2.096 . S
C67 N70 1.301 1_556 S
C67 N71 1.328 . S
C67 H72 0.930 . S
C68 C69 1.333 1_554 S
C68 N70 1.317 . S
C68 H73 0.930 . S
C69 C68 1.333 1_556 S
C69 N71 1.350 . S
C69 H95 0.931 . S
N70 Co66 2.148 . S
N70 C67 1.301 1_554 S
N70 C68 1.317 . S
N71 C67 1.328 . S
N71 C69 1.350 . S
H72 C67 0.930 . S
H73 C68 0.930 . S
C74 O75 1.224 . S
C74 O93 1.247 . S
O75 C74 1.224 . S
N76 Co66 2.128 . S
N76 C77 1.355 . S
N76 C79 1.311 . S
C77 N76 1.355 . S
C77 C78 1.363 . S
C77 H89 0.929 . S
C78 C77 1.363 . S
C78 N80 1.375 . S
C78 H96 0.931 . S
C79 N76 1.311 . S
C79 N80 1.347 . S
C79 H90 0.929 . S
N80 C78 1.375 . S
N80 C79 1.347 . S
C81 C84 1.365 . S
C81 N86 1.328 . S
C81 H87 0.929 . S
C82 C83 1.362 . S
C82 C85 1.378 . S
C82 H97 0.929 . S
C83 C82 1.362 . S
C83 C84 1.366 . S
C84 C81 1.365 . S
C84 C83 1.366 . S
C84 H98 0.930 . S
C85 C82 1.378 . S
C85 N86 1.315 . S
C85 H88 0.930 . S
N86 Co66 2.194 . S
N86 C81 1.328 . S
N86 C85 1.315 . S
H87 C81 0.929 . S
H88 C85 0.930 . S
H89 C77 0.929 . S
H90 C79 0.929 . S
O91 Co66 2.351 . S
O91 C94 1.244 . S
O92 Co66 2.155 . S
O92 C94 1.240 . S
O93 Co66 2.096 . S
O93 C74 1.247 . S
C94 O91 1.244 . S
C94 O92 1.240 . S
H95 C69 0.931 . S
H96 C78 0.931 . S
H97 C82 0.929 . S
H98 C84 0.930 . S
Co99 N103 2.148 . S
Co99 N109 2.128 1_554 S
Co99 N119 2.194 . S
Co99 O124 2.351 . S
Co99 O125 2.155 . S
Co99 O126 2.096 . S
C100 N103 1.301 . S
C100 N104 1.328 . S
C100 H105 0.930 . S
C101 C102 1.333 . S
C101 N103 1.317 . S
C101 H106 0.930 . S
C102 C101 1.333 . S
C102 N104 1.350 . S
C102 H128 0.931 . S
N103 Co99 2.148 . S
N103 C100 1.301 . S
N103 C101 1.317 . S
N104 C100 1.328 . S
N104 C102 1.350 . S
H105 C100 0.930 . S
H106 C101 0.930 . S
C107 O108 1.224 . S
C107 O126 1.247 . S
O108 C107 1.224 . S
N109 Co99 2.128 1_556 S
N109 C110 1.355 . S
N109 C112 1.311 . S
C110 N109 1.355 . S
C110 C111 1.363 . S
C110 H122 0.929 . S
C111 C110 1.363 . S
C111 N113 1.375 . S
C111 H129 0.931 . S
C112 N109 1.311 . S
C112 N113 1.347 . S
C112 H123 0.929 . S
N113 C111 1.375 . S
N113 C112 1.347 . S
C114 C117 1.365 . S
C114 N119 1.328 . S
C114 H120 0.929 . S
C115 C116 1.362 . S
C115 C118 1.378 . S
C115 H130 0.929 . S
C116 C115 1.362 . S
C116 C117 1.366 . S
C117 C114 1.365 . S
C117 C116 1.366 . S
C117 H131 0.930 . S
C118 C115 1.378 . S
C118 N119 1.315 . S
C118 H121 0.930 . S
N119 Co99 2.194 . S
N119 C114 1.328 . S
N119 C118 1.315 . S
H120 C114 0.929 . S
H121 C118 0.930 . S
H122 C110 0.929 . S
H123 C112 0.929 . S
O124 Co99 2.351 . S
O124 C127 1.244 . S
O125 Co99 2.155 . S
O125 C127 1.240 . S
O126 Co99 2.096 . S
O126 C107 1.247 . S
C127 O124 1.244 . S
C127 O125 1.240 . S
H128 C102 0.931 . S
H129 C111 0.931 . S
H130 C115 0.929 . S
H131 C117 0.930 . S
Co132 N136 2.148 . S
Co132 N142 2.128 . S
Co132 N152 2.194 . S
Co132 O157 2.351 . S
Co132 O158 2.155 . S
Co132 O159 2.096 . S
C133 N136 1.301 1_556 S
C133 N137 1.328 . S
C133 H138 0.930 . S
C134 C135 1.333 . S
C134 N136 1.317 1_556 S
C134 H139 0.930 1_556 S
C135 C134 1.333 . S
C135 N137 1.350 . S
C135 H161 0.931 . S
N136 Co132 2.148 . S
N136 C133 1.301 1_554 S
N136 C134 1.317 1_554 S
N137 C133 1.328 . S
N137 C135 1.350 . S
H138 C133 0.930 . S
H139 C134 0.930 1_554 S
C140 O141 1.224 . S
C140 O159 1.247 . S
O141 C140 1.224 . S
N142 Co132 2.128 . S
N142 C143 1.355 . S
N142 C145 1.311 . S
C143 N142 1.355 . S
C143 C144 1.363 . S
C143 H155 0.929 . S
C144 C143 1.363 . S
C144 N146 1.375 . S
C144 H162 0.931 . S
C145 N142 1.311 . S
C145 N146 1.347 . S
C145 H156 0.929 . S
N146 C144 1.375 . S
N146 C145 1.347 . S
C147 C150 1.365 . S
C147 N152 1.328 . S
C147 H153 0.929 . S
C148 C149 1.362 . S
C148 C151 1.378 . S
C148 H163 0.929 . S
C149 C148 1.362 . S
C149 C150 1.366 . S
C150 C147 1.365 . S
C150 C149 1.366 . S
C150 H164 0.930 . S
C151 C148 1.378 . S
C151 N152 1.315 . S
C151 H154 0.930 . S
N152 Co132 2.194 . S
N152 C147 1.328 . S
N152 C151 1.315 . S
H153 C147 0.929 . S
H154 C151 0.930 . S
H155 C143 0.929 . S
H156 C145 0.929 . S
O157 Co132 2.351 . S
O157 C160 1.244 . S
O158 Co132 2.155 . S
O158 C160 1.240 . S
O159 Co132 2.096 . S
O159 C140 1.247 . S
C160 O157 1.244 . S
C160 O158 1.240 . S
H161 C135 0.931 . S
H162 C144 0.931 . S
H163 C148 0.929 . S
H164 C150 0.930 . S
Co165 N169 2.148 . S
Co165 N175 2.128 . S
Co165 N185 2.194 . S
Co165 O190 2.351 . S
Co165 O191 2.155 . S
Co165 O192 2.096 . S
C166 N169 1.301 . S
C166 N170 1.328 . S
C166 H171 0.930 . S
C167 C168 1.333 . S
C167 N169 1.317 . S
C167 H172 0.930 . S
C168 C167 1.333 . S
C168 N170 1.350 . S
C168 H194 0.931 . S
N169 Co165 2.148 . S
N169 C166 1.301 . S
N169 C167 1.317 . S
N170 C166 1.328 . S
N170 C168 1.350 . S
H171 C166 0.930 . S
H172 C167 0.930 . S
C173 O174 1.224 . S
C173 O192 1.247 . S
O174 C173 1.224 . S
N175 Co165 2.128 . S
N175 C176 1.355 1_554 S
N175 C178 1.311 1_554 S
C176 N175 1.355 1_556 S
C176 C177 1.363 . S
C176 H188 0.929 1_556 S
C177 C176 1.363 . S
C177 N179 1.375 . S
C177 H195 0.931 . S
C178 N175 1.311 1_556 S
C178 N179 1.347 . S
C178 H189 0.929 . S
N179 C177 1.375 . S
N179 C178 1.347 . S
C180 C183 1.365 . S
C180 N185 1.328 . S
C180 H186 0.929 . S
C181 C182 1.362 . S
C181 C184 1.378 . S
C181 H196 0.929 . S
C182 C181 1.362 . S
C182 C183 1.366 . S
C183 C180 1.365 . S
C183 C182 1.366 . S
C183 H197 0.930 . S
C184 C181 1.378 . S
C184 N185 1.315 . S
C184 H187 0.930 . S
N185 Co165 2.194 . S
N185 C180 1.328 . S
N185 C184 1.315 . S
H186 C180 0.929 . S
H187 C184 0.930 . S
H188 C176 0.929 1_554 S
H189 C178 0.929 . S
O190 Co165 2.351 . S
O190 C193 1.244 . S
O191 Co165 2.155 . S
O191 C193 1.240 . S
O192 Co165 2.096 . S
O192 C173 1.247 . S
C193 O190 1.244 . S
C193 O191 1.240 . S
H194 C168 0.931 . S
H195 C177 0.931 . S
H196 C181 0.929 . S
H197 C183 0.930 . S
Co198 N202 2.148 . S
Co198 N208 2.128 . S
Co198 N218 2.194 . S
Co198 O223 2.351 . S
Co198 O224 2.155 . S
Co198 O225 2.096 . S
C199 N202 1.301 . S
C199 N203 1.328 . S
C199 H204 0.930 . S
C200 C201 1.333 . S
C200 N202 1.317 . S
C200 H205 0.930 . S
C201 C200 1.333 . S
C201 N203 1.350 . S
C201 H227 0.931 . S
N202 Co198 2.148 . S
N202 C199 1.301 . S
N202 C200 1.317 . S
N203 C199 1.328 . S
N203 C201 1.350 . S
H204 C199 0.930 . S
H205 C200 0.930 . S
C206 O207 1.224 . S
C206 O225 1.247 . S
O207 C206 1.224 . S
N208 Co198 2.128 . S
N208 C209 1.355 . S
N208 C211 1.311 . S
C209 N208 1.355 . S
C209 C210 1.363 . S
C209 H221 0.929 . S
C210 C209 1.363 . S
C210 N212 1.375 . S
C210 H228 0.931 . S
C211 N208 1.311 . S
C211 N212 1.347 . S
C211 H222 0.929 . S
N212 C210 1.375 . S
N212 C211 1.347 . S
C213 C216 1.365 . S
C213 N218 1.328 . S
C213 H219 0.929 . S
C214 C215 1.362 . S
C214 C217 1.378 . S
C214 H229 0.929 . S
C215 C214 1.362 . S
C215 C216 1.366 . S
C216 C213 1.365 . S
C216 C215 1.366 . S
C216 H230 0.930 . S
C217 C214 1.378 . S
C217 N218 1.315 . S
C217 H220 0.930 . S
N218 Co198 2.194 . S
N218 C213 1.328 . S
N218 C217 1.315 . S
H219 C213 0.929 . S
H220 C217 0.930 . S
H221 C209 0.929 . S
H222 C211 0.929 . S
O223 Co198 2.351 . S
O223 C226 1.244 . S
O224 Co198 2.155 . S
O224 C226 1.240 . S
O225 Co198 2.096 . S
O225 C206 1.247 . S
C226 O223 1.244 . S
C226 O224 1.240 . S
H227 C201 0.931 . S
H228 C210 0.931 . S
H229 C214 0.929 . S
H230 C216 0.930 . S
Co231 N235 2.148 . S
Co231 N241 2.128 . S
Co231 N251 2.194 1_545 S
Co231 O256 2.351 . S
Co231 O257 2.155 . S
Co231 O258 2.096 . S
C232 N235 1.299 . S
C232 N236 1.315 1_545 S
C232 H237 0.974 1_545 S
C233 C234 1.333 . S
C233 N235 1.317 . S
C233 H238 0.930 . S
C234 C233 1.333 . S
C234 N236 1.353 1_545 S
C234 H260 0.931 . S
N235 Co231 2.148 . S
N235 C232 1.299 . S
N235 C233 1.317 . S
N236 C232 1.315 1_565 S
N236 C234 1.353 1_565 S
H237 C232 0.974 1_565 S
H238 C233 0.930 . S
C239 O240 1.224 1_545 S
C239 O258 1.247 . S
O240 C239 1.224 1_565 S
N241 Co231 2.128 . S
N241 C242 1.355 1_545 S
N241 C244 1.311 . S
C242 N241 1.355 1_565 S
C242 C243 1.371 . S
C242 H254 0.929 . S
C243 C242 1.371 . S
C243 N245 1.381 1_565 S
C243 H261 0.925 . S
C244 N241 1.311 . S
C244 N245 1.347 . S
C244 H255 0.929 . S
N245 C243 1.381 1_545 S
N245 C244 1.347 . S
C246 C249 1.365 . S
C246 N251 1.328 . S
C246 H252 0.929 . S
C247 C248 1.362 . S
C247 C250 1.378 . S
C247 H262 0.929 . S
C248 C247 1.362 . S
C248 C249 1.366 . S
C249 C246 1.365 . S
C249 C248 1.366 . S
C249 H263 0.930 . S
C250 C247 1.378 . S
C250 N251 1.315 . S
C250 H253 0.930 . S
N251 Co231 2.194 1_565 S
N251 C246 1.328 . S
N251 C250 1.315 . S
H252 C246 0.929 . S
H253 C250 0.930 . S
H254 C242 0.929 . S
H255 C244 0.929 . S
O256 Co231 2.351 . S
O256 C259 1.244 . S
O257 Co231 2.155 . S
O257 C259 1.240 . S
O258 Co231 2.096 . S
O258 C239 1.247 . S
C259 O256 1.244 . S
C259 O257 1.240 . S
H260 C234 0.931 . S
H261 C243 0.925 . S
H262 C247 0.929 . S
H263 C249 0.930 . S
Co264 N268 2.148 . S
Co264 N274 2.128 . S
Co264 N284 2.194 . S
Co264 O289 2.351 . S
Co264 O290 2.155 . S
Co264 O291 2.096 . S
C265 N268 1.301 . S
C265 N269 1.328 . S
C265 H270 0.930 . S
C266 C267 1.333 . S
C266 N268 1.317 . S
C266 H271 0.930 . S
C267 C266 1.333 . S
C267 N269 1.350 . S
C267 H293 0.931 . S
N268 Co264 2.148 . S
N268 C265 1.301 . S
N268 C266 1.317 . S
N269 C265 1.328 . S
N269 C267 1.350 . S
H270 C265 0.930 . S
H271 C266 0.930 . S
C272 O273 1.224 . S
C272 O291 1.247 . S
O273 C272 1.224 . S
N274 Co264 2.128 . S
N274 C275 1.355 . S
N274 C277 1.311 . S
C275 N274 1.355 . S
C275 C276 1.363 . S
C275 H287 0.929 . S
C276 C275 1.363 . S
C276 N278 1.375 . S
C276 H294 0.931 . S
C277 N274 1.311 . S
C277 N278 1.347 . S
C277 H288 0.929 . S
N278 C276 1.375 . S
N278 C277 1.347 . S
C279 C282 1.365 . S
C279 N284 1.328 . S
C279 H285 0.929 . S
C280 C281 1.362 . S
C280 C283 1.378 . S
C280 H295 0.929 . S
C281 C280 1.362 . S
C281 C282 1.366 . S
C282 C279 1.365 . S
C282 C281 1.366 . S
C282 H296 0.930 . S
C283 C280 1.378 . S
C283 N284 1.315 . S
C283 H286 0.930 . S
N284 Co264 2.194 . S
N284 C279 1.328 . S
N284 C283 1.315 . S
H285 C279 0.929 . S
H286 C283 0.930 . S
H287 C275 0.929 . S
H288 C277 0.929 . S
O289 Co264 2.351 . S
O289 C292 1.244 . S
O290 Co264 2.155 . S
O290 C292 1.240 . S
O291 Co264 2.096 . S
O291 C272 1.247 . S
C292 O289 1.244 . S
C292 O290 1.240 . S
H293 C267 0.931 . S
H294 C276 0.931 . S
H295 C280 0.929 . S
H296 C282 0.930 . S
Co297 N301 2.148 . S
Co297 N307 2.128 . S
Co297 N317 2.194 . S
Co297 O322 2.351 1_565 S
Co297 O323 2.155 1_565 S
Co297 O324 2.096 . S
C298 N301 1.301 . S
C298 N302 1.328 . S
C298 H303 0.930 . S
C299 C300 1.333 . S
C299 N301 1.317 . S
C299 H304 0.930 . S
C300 C299 1.333 . S
C300 N302 1.350 . S
C300 H326 0.931 . S
N301 Co297 2.148 . S
N301 C298 1.301 . S
N301 C299 1.317 . S
N302 C298 1.328 . S
N302 C300 1.350 . S
H303 C298 0.930 . S
H304 C299 0.930 . S
C305 O306 1.224 . S
C305 O324 1.247 . S
O306 C305 1.224 . S
N307 Co297 2.128 . S
N307 C308 1.355 . S
N307 C310 1.311 . S
C308 N307 1.355 . S
C308 C309 1.363 . S
C308 H320 0.929 . S
C309 C308 1.363 . S
C309 N311 1.375 . S
C309 H327 0.931 . S
C310 N307 1.311 . S
C310 N311 1.347 . S
C310 H321 0.959 . S
N311 C309 1.375 . S
N311 C310 1.347 . S
C312 C315 1.365 . S
C312 N317 1.328 . S
C312 H318 0.929 . S
C313 C314 1.362 . S
C313 C316 1.378 . S
C313 H328 0.929 . S
C314 C313 1.362 . S
C314 C315 1.366 . S
C315 C312 1.365 . S
C315 C314 1.366 . S
C315 H329 0.930 . S
C316 C313 1.378 . S
C316 N317 1.315 . S
C316 H319 0.930 . S
N317 Co297 2.194 . S
N317 C312 1.328 . S
N317 C316 1.315 . S
H318 C312 0.929 . S
H319 C316 0.930 . S
H320 C308 0.929 . S
H321 C310 0.959 . S
O322 Co297 2.351 1_545 S
O322 C325 1.244 . S
O323 Co297 2.155 1_545 S
O323 C325 1.240 . S
O324 Co297 2.096 . S
O324 C305 1.247 . S
C325 O322 1.244 . S
C325 O323 1.240 . S
H326 C300 0.931 . S
H327 C309 0.931 . S
H328 C313 0.929 . S
H329 C315 0.930 . S
Co330 N334 2.148 . S
Co330 N340 2.128 . S
Co330 N350 2.194 . S
Co330 O355 2.351 . S
Co330 O356 2.155 . S
Co330 O357 2.096 . S
C331 N334 1.301 . S
C331 N335 1.328 . S
C331 H336 0.930 . S
C332 C333 1.333 . S
C332 N334 1.317 . S
C332 H337 0.930 . S
C333 C332 1.333 . S
C333 N335 1.350 . S
C333 H359 0.931 . S
N334 Co330 2.148 . S
N334 C331 1.301 . S
N334 C332 1.317 . S
N335 C331 1.328 . S
N335 C333 1.350 . S
H336 C331 0.930 . S
H337 C332 0.930 . S
C338 O339 1.224 . S
C338 O357 1.247 . S
O339 C338 1.224 . S
N340 Co330 2.128 . S
N340 C341 1.355 . S
N340 C343 1.311 . S
C341 N340 1.355 . S
C341 C342 1.363 . S
C341 H353 0.929 . S
C342 C341 1.363 . S
C342 N344 1.375 . S
C342 H360 0.931 . S
C343 N340 1.311 . S
C343 N344 1.347 . S
C343 H354 0.929 . S
N344 C342 1.375 . S
N344 C343 1.347 . S
C345 C348 1.365 . S
C345 N350 1.328 . S
C345 H351 0.929 . S
C346 C347 1.362 . S
C346 C349 1.378 . S
C346 H361 0.929 . S
C347 C346 1.362 . S
C347 C348 1.366 . S
C348 C345 1.365 . S
C348 C347 1.366 . S
C348 H362 0.930 . S
C349 C346 1.378 . S
C349 N350 1.315 . S
C349 H352 0.930 . S
N350 Co330 2.194 . S
N350 C345 1.328 . S
N350 C349 1.315 . S
H351 C345 0.929 . S
H352 C349 0.930 . S
H353 C341 0.929 . S
H354 C343 0.929 . S
O355 Co330 2.351 . S
O355 C358 1.244 . S
O356 Co330 2.155 . S
O356 C358 1.240 . S
O357 Co330 2.096 . S
O357 C338 1.247 . S
C358 O355 1.244 . S
C358 O356 1.240 . S
H359 C333 0.931 . S
H360 C342 0.931 . S
H361 C346 0.929 . S
H362 C348 0.930 . S
Co363 N367 2.148 . S
Co363 N373 2.128 . S
Co363 N383 2.194 . S
Co363 O388 2.351 . S
Co363 O389 2.155 . S
Co363 O390 2.096 . S
C364 N367 1.301 . S
C364 N368 1.328 . S
C364 H369 0.930 . S
C365 C366 1.333 . S
C365 N367 1.317 . S
C365 H370 0.930 . S
C366 C365 1.333 . S
C366 N368 1.350 . S
C366 H392 0.931 . S
N367 Co363 2.148 . S
N367 C364 1.301 . S
N367 C365 1.317 . S
N368 C364 1.328 . S
N368 C366 1.350 . S
H369 C364 0.930 . S
H370 C365 0.930 . S
C371 O372 1.224 . S
C371 O390 1.247 . S
O372 C371 1.224 . S
N373 Co363 2.128 . S
N373 C374 1.355 . S
N373 C376 1.311 . S
C374 N373 1.355 . S
C374 C375 1.363 . S
C374 H386 0.929 . S
C375 C374 1.363 . S
C375 N377 1.375 . S
C375 H393 0.931 . S
C376 N373 1.311 . S
C376 N377 1.347 . S
C376 H387 0.929 . S
N377 C375 1.375 . S
N377 C376 1.347 . S
C378 C381 1.365 . S
C378 N383 1.328 . S
C378 H384 0.929 . S
C379 C380 1.362 . S
C379 C382 1.378 . S
C379 H394 0.929 . S
C380 C379 1.362 . S
C380 C381 1.366 . S
C381 C378 1.365 . S
C381 C380 1.366 . S
C381 H395 0.930 . S
C382 C379 1.378 . S
C382 N383 1.315 . S
C382 H385 0.930 . S
N383 Co363 2.194 . S
N383 C378 1.328 . S
N383 C382 1.315 . S
H384 C378 0.929 . S
H385 C382 0.930 . S
H386 C374 0.929 . S
H387 C376 0.929 . S
O388 Co363 2.351 . S
O388 C391 1.244 . S
O389 Co363 2.155 . S
O389 C391 1.240 . S
O390 Co363 2.096 . S
O390 C371 1.247 . S
C391 O388 1.244 . S
C391 O389 1.240 . S
H392 C366 0.931 . S
H393 C375 0.931 . S
H394 C379 0.929 . S
H395 C381 0.930 . S
Co396 N400 2.148 . S
Co396 N406 2.128 . S
Co396 N416 2.194 . S
Co396 O421 2.351 . S
Co396 O422 2.155 . S
Co396 O423 2.096 . S
C397 N400 1.301 . S
C397 N401 1.328 . S
C397 H402 0.930 . S
C398 C399 1.333 . S
C398 N400 1.317 . S
C398 H403 0.930 . S
C399 C398 1.333 . S
C399 N401 1.350 . S
C399 H425 0.931 . S
N400 Co396 2.148 . S
N400 C397 1.301 . S
N400 C398 1.317 . S
N401 C397 1.328 . S
N401 C399 1.350 . S
H402 C397 0.930 . S
H403 C398 0.930 . S
C404 O405 1.224 . S
C404 O423 1.247 . S
O405 C404 1.224 . S
N406 Co396 2.128 . S
N406 C407 1.355 . S
N406 C409 1.311 . S
C407 N406 1.355 . S
C407 C408 1.363 . S
C407 H419 0.929 . S
C408 C407 1.363 . S
C408 N410 1.375 . S
C408 H426 0.931 . S
C409 N406 1.311 . S
C409 N410 1.347 . S
C409 H420 0.929 . S
N410 C408 1.375 . S
N410 C409 1.347 . S
C411 C414 1.365 . S
C411 N416 1.328 . S
C411 H417 0.929 . S
C412 C413 1.362 . S
C412 C415 1.378 . S
C412 H427 0.929 . S
C413 C412 1.362 . S
C413 C414 1.366 . S
C414 C411 1.365 . S
C414 C413 1.366 . S
C414 H428 0.930 . S
C415 C412 1.378 . S
C415 N416 1.315 . S
C415 H418 0.930 . S
N416 Co396 2.194 . S
N416 C411 1.328 . S
N416 C415 1.315 . S
H417 C411 0.929 . S
H418 C415 0.930 . S
H419 C407 0.929 . S
H420 C409 0.929 . S
O421 Co396 2.351 . S
O421 C424 1.244 . S
O422 Co396 2.155 . S
O422 C424 1.240 . S
O423 Co396 2.096 . S
O423 C404 1.247 . S
C424 O421 1.244 . S
C424 O422 1.240 . S
H425 C399 0.931 . S
H426 C408 0.931 . S
H427 C412 0.929 . S
H428 C414 0.930 . S
Co429 N433 2.148 1_655 S
Co429 N439 2.128 . S
Co429 N449 2.194 . S
Co429 O454 2.351 . S
Co429 O455 2.155 1_655 S
Co429 O456 2.096 1_655 S
C430 N433 1.301 1_655 S
C430 N434 1.328 1_655 S
C430 H435 0.930 . S
C431 C432 1.333 . S
C431 N433 1.317 . S
C431 H436 0.930 . S
C432 C431 1.333 . S
C432 N434 1.350 . S
C432 H458 0.931 . S
N433 Co429 2.148 1_455 S
N433 C430 1.301 1_455 S
N433 C431 1.317 . S
N434 C430 1.328 1_455 S
N434 C432 1.350 . S
H435 C430 0.930 . S
H436 C431 0.930 . S
C437 O438 1.224 . S
C437 O456 1.247 . S
O438 C437 1.224 . S
N439 Co429 2.128 . S
N439 C440 1.355 . S
N439 C442 1.311 . S
C440 N439 1.355 . S
C440 C441 1.363 . S
C440 H452 0.929 . S
C441 C440 1.363 . S
C441 N443 1.375 . S
C441 H459 0.931 . S
C442 N439 1.311 . S
C442 N443 1.347 . S
C442 H453 0.929 1_655 S
N443 C441 1.375 . S
N443 C442 1.347 . S
C444 C447 1.365 . S
C444 N449 1.328 . S
C444 H450 0.929 . S
C445 C446 1.362 . S
C445 C448 1.378 . S
C445 H460 0.929 . S
C446 C445 1.362 . S
C446 C447 1.366 . S
C447 C444 1.365 . S
C447 C446 1.366 . S
C447 H461 0.930 . S
C448 C445 1.378 . S
C448 N449 1.315 . S
C448 H451 0.930 . S
N449 Co429 2.194 . S
N449 C444 1.328 . S
N449 C448 1.315 . S
H450 C444 0.929 . S
H451 C448 0.930 . S
H452 C440 0.929 . S
H453 C442 0.929 1_455 S
O454 Co429 2.351 . S
O454 C457 1.244 . S
O455 Co429 2.155 1_455 S
O455 C457 1.240 1_455 S
O456 Co429 2.096 1_455 S
O456 C437 1.247 . S
C457 O454 1.244 . S
C457 O455 1.240 1_655 S
H458 C432 0.931 . S
H459 C441 0.931 . S
H460 C445 0.929 . S
H461 C447 0.930 . S
Co462 N466 2.148 . S
Co462 N472 2.128 . S
Co462 N482 2.194 . S
Co462 O487 2.351 . S
Co462 O488 2.155 . S
Co462 O489 2.096 . S
C463 N466 1.301 . S
C463 N467 1.328 . S
C463 H468 0.930 . S
C464 C465 1.333 . S
C464 N466 1.317 . S
C464 H469 0.930 . S
C465 C464 1.333 . S
C465 N467 1.350 . S
C465 H491 0.931 . S
N466 Co462 2.148 . S
N466 C463 1.301 . S
N466 C464 1.317 . S
N467 C463 1.328 . S
N467 C465 1.350 . S
H468 C463 0.930 . S
H469 C464 0.930 . S
C470 O471 1.224 . S
C470 O489 1.247 . S
O471 C470 1.224 . S
N472 Co462 2.128 . S
N472 C473 1.355 . S
N472 C475 1.311 . S
C473 N472 1.355 . S
C473 C474 1.363 . S
C473 H485 0.929 . S
C474 C473 1.363 . S
C474 N476 1.375 . S
C474 H492 0.931 . S
C475 N472 1.311 . S
C475 N476 1.347 . S
C475 H486 0.929 . S
N476 C474 1.375 . S
N476 C475 1.347 . S
C477 C480 1.365 . S
C477 N482 1.328 . S
C477 H483 0.929 . S
C478 C479 1.362 . S
C478 C481 1.378 . S
C478 H493 0.929 . S
C479 C478 1.362 . S
C479 C480 1.366 . S
C480 C477 1.365 . S
C480 C479 1.366 . S
C480 H494 0.930 . S
C481 C478 1.378 . S
C481 N482 1.315 . S
C481 H484 0.930 . S
N482 Co462 2.194 . S
N482 C477 1.328 . S
N482 C481 1.315 . S
H483 C477 0.929 . S
H484 C481 0.930 . S
H485 C473 0.929 . S
H486 C475 0.929 . S
O487 Co462 2.351 . S
O487 C490 1.244 . S
O488 Co462 2.155 . S
O488 C490 1.240 . S
O489 Co462 2.096 . S
O489 C470 1.247 . S
C490 O487 1.244 . S
C490 O488 1.240 . S
H491 C465 0.931 . S
H492 C474 0.931 . S
H493 C478 0.929 . S
H494 C480 0.930 . S
Co495 N499 2.148 . S
Co495 N505 2.128 . S
Co495 N515 2.194 . S
Co495 O520 2.351 . S
Co495 O521 2.155 . S
Co495 O522 2.096 . S
C496 N499 1.301 . S
C496 N500 1.328 . S
C496 H501 0.930 . S
C497 C498 1.333 . S
C497 N499 1.317 . S
C497 H502 0.930 . S
C498 C497 1.333 . S
C498 N500 1.350 . S
C498 H524 0.931 . S
N499 Co495 2.148 . S
N499 C496 1.301 . S
N499 C497 1.317 . S
N500 C496 1.328 . S
N500 C498 1.350 . S
H501 C496 0.930 . S
H502 C497 0.930 . S
C503 O504 1.224 . S
C503 O522 1.247 . S
O504 C503 1.224 . S
N505 Co495 2.128 . S
N505 C506 1.355 . S
N505 C508 1.311 . S
C506 N505 1.355 . S
C506 C507 1.363 . S
C506 H518 0.929 . S
C507 C506 1.363 . S
C507 N509 1.375 . S
C507 H525 0.931 . S
C508 N505 1.311 . S
C508 N509 1.347 . S
C508 H519 0.929 . S
N509 C507 1.375 . S
N509 C508 1.347 . S
C510 C513 1.365 . S
C510 N515 1.328 . S
C510 H516 0.929 . S
C511 C512 1.362 . S
C511 C514 1.378 . S
C511 H526 0.929 . S
C512 C511 1.362 . S
C512 C513 1.366 . S
C513 C510 1.365 . S
C513 C512 1.366 . S
C513 H527 0.930 . S
C514 C511 1.378 . S
C514 N515 1.315 . S
C514 H517 0.930 . S
N515 Co495 2.194 . S
N515 C510 1.328 . S
N515 C514 1.315 . S
H516 C510 0.929 . S
H517 C514 0.930 . S
H518 C506 0.929 . S
H519 C508 0.929 . S
O520 Co495 2.351 . S
O520 C523 1.244 . S
O521 Co495 2.155 . S
O521 C523 1.240 . S
O522 Co495 2.096 . S
O522 C503 1.247 . S
C523 O520 1.244 . S
C523 O521 1.240 . S
H524 C498 0.931 . S
H525 C507 0.931 . S
H526 C511 0.929 . S
H527 C513 0.930 . S
Co528 N532 2.148 . S
Co528 N538 2.128 . S
Co528 N548 2.194 . S
Co528 O553 2.351 . S
Co528 O554 2.155 . S
Co528 O555 2.096 . S
C529 N532 1.301 . S
C529 N533 1.328 . S
C529 H534 0.930 . S
C530 C531 1.333 . S
C530 N532 1.317 . S
C530 H535 0.930 . S
C531 C530 1.333 . S
C531 N533 1.350 . S
C531 H557 0.931 . S
N532 Co528 2.148 . S
N532 C529 1.301 . S
N532 C530 1.317 . S
N533 C529 1.328 . S
N533 C531 1.350 . S
H534 C529 0.930 . S
H535 C530 0.930 . S
C536 O537 1.224 . S
C536 O555 1.247 . S
O537 C536 1.224 . S
N538 Co528 2.128 . S
N538 C539 1.355 . S
N538 C541 1.311 . S
C539 N538 1.355 . S
C539 C540 1.363 . S
C539 H551 0.929 . S
C540 C539 1.363 . S
C540 N542 1.375 . S
C540 H558 0.931 . S
C541 N538 1.311 . S
C541 N542 1.347 . S
C541 H552 0.929 . S
N542 C540 1.375 . S
N542 C541 1.347 . S
C543 C546 1.365 . S
C543 N548 1.328 . S
C543 H549 0.929 . S
C544 C545 1.362 . S
C544 C547 1.378 . S
C544 H559 0.929 . S
C545 C544 1.362 . S
C545 C546 1.366 . S
C546 C543 1.365 . S
C546 C545 1.366 . S
C546 H560 0.930 . S
C547 C544 1.378 . S
C547 N548 1.315 . S
C547 H550 0.930 . S
N548 Co528 2.194 . S
N548 C543 1.328 . S
N548 C547 1.315 . S
H549 C543 0.929 . S
H550 C547 0.930 . S
H551 C539 0.929 . S
H552 C541 0.929 . S
O553 Co528 2.351 . S
O553 C556 1.244 . S
O554 Co528 2.155 . S
O554 C556 1.240 . S
O555 Co528 2.096 . S
O555 C536 1.247 . S
C556 O553 1.244 . S
C556 O554 1.240 . S
H557 C531 0.931 . S
H558 C540 0.931 . S
H559 C544 0.929 . S
H560 C546 0.930 . S
Co561 N565 2.148 . S
Co561 N571 2.128 1_455 S
Co561 N581 2.194 1_455 S
Co561 O586 2.351 1_455 S
Co561 O587 2.155 . S
Co561 O588 2.096 . S
C562 N565 1.301 . S
C562 N566 1.328 . S
C562 H567 0.930 1_455 S
C563 C564 1.333 . S
C563 N565 1.317 . S
C563 H568 0.930 . S
C564 C563 1.333 . S
C564 N566 1.350 . S
C564 H590 0.931 . S
N565 Co561 2.148 . S
N565 C562 1.301 . S
N565 C563 1.317 . S
N566 C562 1.328 . S
N566 C564 1.350 . S
H567 C562 0.930 1_655 S
H568 C563 0.930 . S
C569 O570 1.224 . S
C569 O588 1.247 . S
O570 C569 1.224 . S
N571 Co561 2.128 1_655 S
N571 C572 1.355 . S
N571 C574 1.311 1_655 S
C572 N571 1.355 . S
C572 C573 1.363 . S
C572 H584 0.929 . S
C573 C572 1.363 . S
C573 N575 1.375 . S
C573 H591 0.931 . S
C574 N571 1.311 1_455 S
C574 N575 1.347 1_455 S
C574 H585 0.929 . S
N575 C573 1.375 . S
N575 C574 1.347 1_655 S
C576 C579 1.365 . S
C576 N581 1.328 . S
C576 H582 0.929 . S
C577 C578 1.362 . S
C577 C580 1.378 . S
C577 H592 0.929 . S
C578 C577 1.362 . S
C578 C579 1.366 . S
C579 C576 1.365 . S
C579 C578 1.366 . S
C579 H593 0.930 . S
C580 C577 1.378 . S
C580 N581 1.315 . S
C580 H583 0.930 . S
N581 Co561 2.194 1_655 S
N581 C576 1.328 . S
N581 C580 1.315 . S
H582 C576 0.929 . S
H583 C580 0.930 . S
H584 C572 0.929 . S
H585 C574 0.929 . S
O586 Co561 2.351 1_655 S
O586 C589 1.293 . S
O587 Co561 2.155 . S
O587 C589 1.213 1_455 S
O588 Co561 2.096 . S
O588 C569 1.247 . S
C589 O586 1.293 . S
C589 O587 1.213 1_655 S
H590 C564 0.931 . S
H591 C573 0.931 . S
H592 C577 0.929 . S
H593 C579 0.930 . S
C594 C595 1.349 . S
C594 C596 1.327 . S
C594 H619 0.950 . S
C595 C594 1.349 . S
C595 C611 1.349 . S
C596 C594 1.327 . S
C596 C615 1.429 . S
C596 H620 0.950 . S
C597 C614 1.574 . S
C597 C616 1.368 . S
C597 H621 0.949 . S
H598 C602 0.949 . S
C599 C600 1.349 . S
C599 C601 1.327 . S
C599 H622 0.950 . S
C600 C599 1.349 . S
C600 C612 1.349 . S
C601 C599 1.327 . S
C601 C617 1.429 . S
C601 H623 0.950 . S
C602 H598 0.949 . S
C602 C610 1.574 . S
C602 C618 1.368 . S
H603 C611 0.950 . S
H604 C609 0.950 . S
H605 C610 0.949 . S
H606 C612 0.950 . S
H607 C613 0.950 . S
H608 C614 0.949 . S
C609 H604 0.950 . S
C609 C611 1.327 . S
C609 C615 1.429 . S
C610 C602 1.574 . S
C610 H605 0.949 . S
C610 C616 1.368 . S
C611 C595 1.349 . S
C611 H603 0.950 . S
C611 C609 1.327 . S
C612 C600 1.349 . S
C612 H606 0.950 . S
C612 C613 1.327 . S
C613 H607 0.950 . S
C613 C612 1.327 . S
C613 C617 1.429 . S
C614 C597 1.574 . S
C614 H608 0.949 . S
C614 C618 1.368 . S
C615 C596 1.429 . S
C615 C609 1.429 . S
C615 C616 1.523 . S
C616 C597 1.368 . S
C616 C610 1.368 . S
C616 C615 1.523 . S
C617 C601 1.429 . S
C617 C613 1.429 . S
C617 C618 1.523 . S
C618 C602 1.368 . S
C618 C614 1.368 . S
C618 C617 1.523 . S
H619 C594 0.950 . S
H620 C596 0.950 . S
H621 C597 0.949 . S
H622 C599 0.950 . S
H623 C601 0.950 . S
C624 C625 1.349 . S
C624 C626 1.327 . S
C624 H649 0.950 . S
C625 C624 1.349 . S
C625 C641 1.349 . S
C626 C624 1.327 . S
C626 C645 1.429 . S
C626 H650 0.950 . S
C627 C644 1.574 . S
C627 C646 1.368 . S
C627 H651 0.949 . S
H628 C632 0.949 . S
C629 C630 1.349 . S
C629 C631 1.327 . S
C629 H652 0.950 . S
C630 C629 1.349 . S
C630 C642 1.349 . S
C631 C629 1.327 . S
C631 C647 1.429 . S
C631 H653 0.950 . S
C632 H628 0.949 . S
C632 C640 1.574 . S
C632 C648 1.368 . S
H633 C641 0.950 . S
H634 C639 0.950 . S
H635 C640 0.949 . S
H636 C642 0.950 . S
H637 C643 0.950 . S
H638 C644 0.949 . S
C639 H634 0.950 . S
C639 C641 1.327 . S
C639 C645 1.429 . S
C640 C632 1.574 . S
C640 H635 0.949 . S
C640 C646 1.368 . S
C641 C625 1.349 . S
C641 H633 0.950 . S
C641 C639 1.327 . S
C642 C630 1.349 . S
C642 H636 0.950 . S
C642 C643 1.327 . S
C643 H637 0.950 . S
C643 C642 1.327 . S
C643 C647 1.429 . S
C644 C627 1.574 . S
C644 H638 0.949 . S
C644 C648 1.368 . S
C645 C626 1.429 . S
C645 C639 1.429 . S
C645 C646 1.523 . S
C646 C627 1.368 . S
C646 C640 1.368 . S
C646 C645 1.523 . S
C647 C631 1.429 . S
C647 C643 1.429 . S
C647 C648 1.523 . S
C648 C632 1.368 . S
C648 C644 1.368 . S
C648 C647 1.523 . S
H649 C624 0.950 . S
H650 C626 0.950 . S
H651 C627 0.949 . S
H652 C629 0.950 . S
H653 C631 0.950 . S
C654 C655 1.349 . S
C654 C656 1.327 . S
C654 H679 0.950 . S
C655 C654 1.349 . S
C655 C671 1.349 . S
C656 C654 1.327 . S
C656 C675 1.429 . S
C656 H680 0.950 . S
C657 C674 1.574 . S
C657 C676 1.368 . S
C657 H681 0.949 . S
H658 C662 0.949 . S
C659 C660 1.349 . S
C659 C661 1.327 . S
C659 H682 0.950 . S
C660 C659 1.349 . S
C660 C672 1.349 . S
C661 C659 1.327 . S
C661 C677 1.429 . S
C661 H683 0.950 . S
C662 H658 0.949 . S
C662 C670 1.574 . S
C662 C678 1.368 . S
H663 C671 0.950 . S
H664 C669 0.950 . S
H665 C670 0.949 . S
H666 C672 0.950 . S
H667 C673 0.950 . S
H668 C674 0.949 . S
C669 H664 0.950 . S
C669 C671 1.327 . S
C669 C675 1.429 . S
C670 C662 1.574 . S
C670 H665 0.949 . S
C670 C676 1.368 . S
C671 C655 1.349 . S
C671 H663 0.950 . S
C671 C669 1.327 . S
C672 C660 1.349 . S
C672 H666 0.950 . S
C672 C673 1.327 . S
C673 H667 0.950 . S
C673 C672 1.327 . S
C673 C677 1.429 . S
C674 C657 1.574 . S
C674 H668 0.949 . S
C674 C678 1.368 . S
C675 C656 1.429 . S
C675 C669 1.429 . S
C675 C676 1.523 . S
C676 C657 1.368 . S
C676 C670 1.368 . S
C676 C675 1.523 . S
C677 C661 1.429 . S
C677 C673 1.429 . S
C677 C678 1.523 . S
C678 C662 1.368 . S
C678 C674 1.368 . S
C678 C677 1.523 . S
H679 C654 0.950 . S
H680 C656 0.950 . S
H681 C657 0.949 . S
H682 C659 0.950 . S
H683 C661 0.950 . S
C684 C685 1.349 . S
C684 C686 1.327 . S
C684 H709 0.950 . S
C685 C684 1.349 . S
C685 C701 1.349 . S
C686 C684 1.327 . S
C686 C705 1.429 . S
C686 H710 0.950 . S
C687 C704 1.574 . S
C687 C706 1.368 . S
C687 H711 0.949 . S
H688 C692 0.949 . S
C689 C690 1.349 . S
C689 C691 1.327 . S
C689 H712 0.950 . S
C690 C689 1.349 . S
C690 C702 1.349 . S
C691 C689 1.327 . S
C691 C707 1.429 . S
C691 H713 0.950 . S
C692 H688 0.949 . S
C692 C700 1.574 . S
C692 C708 1.368 . S
H693 C701 0.950 . S
H694 C699 0.950 . S
H695 C700 0.949 . S
H696 C702 0.950 . S
H697 C703 0.950 . S
H698 C704 0.949 . S
C699 H694 0.950 . S
C699 C701 1.327 . S
C699 C705 1.429 . S
C700 C692 1.574 . S
C700 H695 0.949 . S
C700 C706 1.368 . S
C701 C685 1.349 . S
C701 H693 0.950 . S
C701 C699 1.327 . S
C702 C690 1.349 . S
C702 H696 0.950 . S
C702 C703 1.327 . S
C703 H697 0.950 . S
C703 C702 1.327 . S
C703 C707 1.429 . S
C704 C687 1.574 . S
C704 H698 0.949 . S
C704 C708 1.368 . S
C705 C686 1.429 . S
C705 C699 1.429 . S
C705 C706 1.523 . S
C706 C687 1.368 . S
C706 C700 1.368 . S
C706 C705 1.523 . S
C707 C691 1.429 . S
C707 C703 1.429 . S
C707 C708 1.523 . S
C708 C692 1.368 . S
C708 C704 1.368 . S
C708 C707 1.523 . S
H709 C684 0.950 . S
H710 C686 0.950 . S
H711 C687 0.949 . S
H712 C689 0.950 . S
H713 C691 0.950 . S
C714 C715 1.349 . S
C714 C716 1.327 . S
C714 H739 0.950 . S
C715 C714 1.349 . S
C715 C731 1.349 . S
C716 C714 1.327 . S
C716 C735 1.429 . S
C716 H740 0.950 . S
C717 C734 1.574 . S
C717 C736 1.368 . S
C717 H741 0.949 . S
H718 C722 0.949 . S
C719 C720 1.349 . S
C719 C721 1.327 . S
C719 H742 0.950 . S
C720 C719 1.349 . S
C720 C732 1.349 . S
C721 C719 1.327 . S
C721 C737 1.429 . S
C721 H743 0.950 . S
C722 H718 0.949 . S
C722 C730 1.574 . S
C722 C738 1.368 . S
H723 C731 0.950 . S
H724 C729 0.950 . S
H725 C730 0.949 . S
H726 C732 0.950 . S
H727 C733 0.950 . S
H728 C734 0.949 . S
C729 H724 0.950 . S
C729 C731 1.327 . S
C729 C735 1.429 . S
C730 C722 1.574 . S
C730 H725 0.949 . S
C730 C736 1.368 . S
C731 C715 1.349 . S
C731 H723 0.950 . S
C731 C729 1.327 . S
C732 C720 1.349 . S
C732 H726 0.950 . S
C732 C733 1.327 . S
C733 H727 0.950 . S
C733 C732 1.327 . S
C733 C737 1.429 . S
C734 C717 1.574 . S
C734 H728 0.949 . S
C734 C738 1.368 . S
C735 C716 1.429 . S
C735 C729 1.429 . S
C735 C736 1.523 . S
C736 C717 1.368 . S
C736 C730 1.368 . S
C736 C735 1.523 . S
C737 C721 1.429 . S
C737 C733 1.429 . S
C737 C738 1.523 . S
C738 C722 1.368 . S
C738 C734 1.368 . S
C738 C737 1.523 . S
H739 C714 0.950 . S
H740 C716 0.950 . S
H741 C717 0.949 . S
H742 C719 0.950 . S
H743 C721 0.950 . S
C744 C745 1.349 . S
C744 C746 1.327 . S
C744 H769 0.950 . S
C745 C744 1.349 . S
C745 C761 1.349 . S
C746 C744 1.327 . S
C746 C765 1.429 . S
C746 H770 0.950 . S
C747 C764 1.574 . S
C747 C766 1.368 . S
C747 H771 0.949 . S
H748 C752 0.949 . S
C749 C750 1.349 . S
C749 C751 1.327 . S
C749 H772 0.950 . S
C750 C749 1.349 . S
C750 C762 1.349 . S
C751 C749 1.327 . S
C751 C767 1.429 . S
C751 H773 0.950 . S
C752 H748 0.949 . S
C752 C760 1.574 . S
C752 C768 1.368 . S
H753 C761 0.950 . S
H754 C759 0.950 . S
H755 C760 0.949 . S
H756 C762 0.950 . S
H757 C763 0.950 . S
H758 C764 0.949 . S
C759 H754 0.950 . S
C759 C761 1.327 . S
C759 C765 1.429 . S
C760 C752 1.574 . S
C760 H755 0.949 . S
C760 C766 1.368 . S
C761 C745 1.349 . S
C761 H753 0.950 . S
C761 C759 1.327 . S
C762 C750 1.349 . S
C762 H756 0.950 . S
C762 C763 1.327 . S
C763 H757 0.950 . S
C763 C762 1.327 . S
C763 C767 1.429 . S
C764 C747 1.574 . S
C764 H758 0.949 . S
C764 C768 1.368 . S
C765 C746 1.429 . S
C765 C759 1.429 . S
C765 C766 1.523 . S
C766 C747 1.368 . S
C766 C760 1.368 . S
C766 C765 1.523 . S
C767 C751 1.429 . S
C767 C763 1.429 . S
C767 C768 1.523 . S
C768 C752 1.368 . S
C768 C764 1.368 . S
C768 C767 1.523 . S
H769 C744 0.950 . S
H770 C746 0.950 . S
H771 C747 0.949 . S
H772 C749 0.950 . S
H773 C751 0.950 . S
C774 C775 1.349 . S
C774 C776 1.327 . S
C774 H799 0.950 . S
C775 C774 1.349 . S
C775 C791 1.349 . S
C776 C774 1.327 . S
C776 C795 1.429 . S
C776 H800 0.950 . S
C777 C794 1.574 . S
C777 C796 1.368 . S
C777 H801 0.949 . S
H778 C782 0.949 . S
C779 C780 1.349 . S
C779 C781 1.327 . S
C779 H802 0.950 . S
C780 C779 1.349 . S
C780 C792 1.349 . S
C781 C779 1.327 . S
C781 C797 1.429 . S
C781 H803 0.950 . S
C782 H778 0.949 . S
C782 C790 1.574 . S
C782 C798 1.368 . S
H783 C791 0.950 . S
H784 C789 0.950 . S
H785 C790 0.949 . S
H786 C792 0.950 . S
H787 C793 0.950 . S
H788 C794 0.949 . S
C789 H784 0.950 . S
C789 C791 1.327 . S
C789 C795 1.429 . S
C790 C782 1.574 . S
C790 H785 0.949 . S
C790 C796 1.368 . S
C791 C775 1.349 . S
C791 H783 0.950 . S
C791 C789 1.327 . S
C792 C780 1.349 . S
C792 H786 0.950 . S
C792 C793 1.327 . S
C793 H787 0.950 . S
C793 C792 1.327 . S
C793 C797 1.429 . S
C794 C777 1.574 . S
C794 H788 0.949 . S
C794 C798 1.368 . S
C795 C776 1.429 . S
C795 C789 1.429 . S
C795 C796 1.523 . S
C796 C777 1.368 . S
C796 C790 1.368 . S
C796 C795 1.523 . S
C797 C781 1.429 . S
C797 C793 1.429 . S
C797 C798 1.523 1_554 S
C798 C782 1.368 . S
C798 C794 1.368 . S
C798 C797 1.523 1_556 S
H799 C774 0.950 . S
H800 C776 0.950 . S
H801 C777 0.949 . S
H802 C779 0.950 . S
H803 C781 0.950 . S
C804 C805 1.391 . S
C804 C806 1.327 . S
C804 H829 0.950 . S
C805 C804 1.391 . S
C805 C821 1.301 1_565 S
C806 C804 1.327 . S
C806 C825 1.329 1_565 S
C806 H830 0.950 . S
C807 C824 1.574 . S
C807 C826 1.368 . S
C807 H831 0.949 . S
H808 C812 0.949 1_554 S
C809 C810 1.349 . S
C809 C811 1.327 . S
C809 H832 0.950 . S
C810 C809 1.349 . S
C810 C822 1.349 1_545 S
C811 C809 1.327 . S
C811 C827 1.429 . S
C811 H833 0.950 . S
C812 H808 0.949 1_556 S
C812 C820 1.574 . S
C812 C828 1.368 1_566 S
H813 C821 0.950 . S
H814 C819 0.950 . S
H815 C820 0.949 . S
H816 C822 0.950 . S
H817 C823 0.950 . S
H818 C824 0.949 . S
C819 H814 0.950 . S
C819 C821 1.327 . S
C819 C825 1.518 . S
C820 C812 1.574 . S
C820 H815 0.949 . S
C820 C826 1.368 1_565 S
C821 C805 1.301 1_545 S
C821 H813 0.950 . S
C821 C819 1.327 . S
C822 C810 1.349 1_565 S
C822 H816 0.950 . S
C822 C823 1.327 . S
C823 H817 0.950 . S
C823 C822 1.327 . S
C823 C827 1.429 1_565 S
C824 C807 1.574 . S
C824 H818 0.949 . S
C824 C828 1.368 1_556 S
C825 C806 1.329 1_545 S
C825 C819 1.518 . S
C825 C826 1.539 . S
C826 C807 1.368 . S
C826 C820 1.368 1_545 S
C826 C825 1.539 . S
C827 C811 1.429 . S
C827 C823 1.429 1_545 S
C827 C828 1.523 . S
C828 C812 1.368 1_544 S
C828 C824 1.368 1_554 S
C828 C827 1.523 . S
H829 C804 0.950 . S
H830 C806 0.950 . S
H831 C807 0.949 . S
H832 C809 0.950 . S
H833 C811 0.950 . S
C834 C835 1.349 . S
C834 C836 1.327 . S
C834 H859 0.950 . S
C835 C834 1.349 . S
C835 C851 1.349 . S
C836 C834 1.327 . S
C836 C855 1.429 . S
C836 H860 0.950 . S
C837 C854 1.574 . S
C837 C856 1.368 . S
C837 H861 0.949 . S
H838 C842 0.949 1_554 S
C839 C840 1.349 . S
C839 C841 1.327 . S
C839 H862 0.950 . S
C840 C839 1.349 . S
C840 C852 1.349 . S
C841 C839 1.327 . S
C841 C857 1.429 . S
C841 H863 0.950 . S
C842 H838 0.949 1_556 S
C842 C850 1.574 . S
C842 C858 1.368 . S
H843 C851 0.950 . S
H844 C849 0.950 . S
H845 C850 0.949 . S
H846 C852 0.950 . S
H847 C853 0.950 . S
H848 C854 0.949 . S
C849 H844 0.950 . S
C849 C851 1.327 . S
C849 C855 1.429 . S
C850 C842 1.574 . S
C850 H845 0.949 . S
C850 C856 1.368 . S
C851 C835 1.349 . S
C851 H843 0.950 . S
C851 C849 1.327 . S
C852 C840 1.349 . S
C852 H846 0.950 . S
C852 C853 1.327 . S
C853 H847 0.950 . S
C853 C852 1.327 . S
C853 C857 1.429 . S
C854 C837 1.574 . S
C854 H848 0.949 . S
C854 C858 1.368 . S
C855 C836 1.429 . S
C855 C849 1.429 . S
C855 C856 1.523 . S
C856 C837 1.368 . S
C856 C850 1.368 . S
C856 C855 1.523 . S
C857 C841 1.429 . S
C857 C853 1.429 . S
C857 C858 1.523 1_554 S
C858 C842 1.368 . S
C858 C854 1.368 . S
C858 C857 1.523 1_556 S
H859 C834 0.950 . S
H860 C836 0.950 . S
H861 C837 0.949 . S
H862 C839 0.950 . S
H863 C841 0.950 . S
C864 C865 1.349 1_545 S
C864 C866 1.327 . S
C864 H889 0.950 . S
C865 C864 1.349 1_565 S
C865 C881 1.349 . S
C866 C864 1.327 . S
C866 C885 1.429 1_545 S
C866 H890 0.950 . S
C867 C884 1.574 . S
C867 C886 1.368 . S
C867 H891 0.949 1_556 S
H868 C872 0.949 . S
C869 C870 1.349 . S
C869 C871 1.327 . S
C869 H892 0.950 . S
C870 C869 1.349 . S
C870 C882 1.349 . S
C871 C869 1.327 . S
C871 C887 1.429 . S
C871 H893 0.950 . S
C872 H868 0.949 . S
C872 C880 1.574 . S
C872 C888 1.368 1_545 S
H873 C881 0.950 . S
H874 C879 0.950 . S
H875 C880 0.949 . S
H876 C882 0.950 1_545 S
H877 C883 0.954 1_545 S
H878 C884 0.949 . S
C879 H874 0.950 . S
C879 C881 1.327 . S
C879 C885 1.429 . S
C880 C872 1.574 . S
C880 H875 0.949 . S
C880 C886 1.368 1_545 S
C881 C865 1.349 . S
C881 H873 0.950 . S
C881 C879 1.327 . S
C882 C870 1.349 . S
C882 H876 0.950 1_565 S
C882 C883 1.327 . S
C883 H877 0.954 1_565 S
C883 C882 1.327 . S
C883 C887 1.425 . S
C884 C867 1.574 . S
C884 H878 0.949 . S
C884 C888 1.368 . S
C885 C866 1.429 1_565 S
C885 C879 1.429 . S
C885 C886 1.523 1_554 S
C886 C867 1.368 . S
C886 C880 1.368 1_565 S
C886 C885 1.523 1_556 S
C887 C871 1.429 . S
C887 C883 1.425 . S
C887 C888 1.523 . S
C888 C872 1.368 1_565 S
C888 C884 1.368 . S
C888 C887 1.523 . S
H889 C864 0.950 . S
H890 C866 0.950 . S
H891 C867 0.949 1_554 S
H892 C869 0.950 . S
H893 C871 0.950 . S
C894 C895 1.349 . S
C894 C896 1.327 . S
C894 H919 0.950 . S
C895 C894 1.349 . S
C895 C911 1.349 . S
C896 C894 1.327 . S
C896 C915 1.429 . S
C896 H920 0.950 . S
C897 C914 1.574 . S
C897 C916 1.368 . S
C897 H921 0.949 . S
H898 C902 0.949 . S
C899 C900 1.349 . S
C899 C901 1.327 . S
C899 H922 0.950 . S
C900 C899 1.349 . S
C900 C912 1.349 . S
C901 C899 1.327 . S
C901 C917 1.429 . S
C901 H923 0.950 . S
C902 H898 0.949 . S
C902 C910 1.574 . S
C902 C918 1.368 . S
H903 C911 0.950 . S
H904 C909 0.950 . S
H905 C910 0.949 . S
H906 C912 0.950 . S
H907 C913 0.950 . S
H908 C914 0.949 . S
C909 H904 0.950 . S
C909 C911 1.327 . S
C909 C915 1.429 . S
C910 C902 1.574 . S
C910 H905 0.949 . S
C910 C916 1.368 . S
C911 C895 1.349 . S
C911 H903 0.950 . S
C911 C909 1.327 . S
C912 C900 1.349 . S
C912 H906 0.950 . S
C912 C913 1.327 . S
C913 H907 0.950 . S
C913 C912 1.327 . S
C913 C917 1.429 . S
C914 C897 1.574 . S
C914 H908 0.949 . S
C914 C918 1.368 . S
C915 C896 1.429 . S
C915 C909 1.429 . S
C915 C916 1.523 . S
C916 C897 1.368 . S
C916 C910 1.368 . S
C916 C915 1.523 . S
C917 C901 1.429 . S
C917 C913 1.429 . S
C917 C918 1.523 1_554 S
C918 C902 1.368 . S
C918 C914 1.368 . S
C918 C917 1.523 1_556 S
H919 C894 0.950 . S
H920 C896 0.950 . S
H921 C897 0.949 . S
H922 C899 0.950 . S
H923 C901 0.950 . S
C924 C925 1.349 . S
C924 C926 1.327 . S
C924 H949 0.950 . S
C925 C924 1.349 . S
C925 C941 1.349 . S
C926 C924 1.327 . S
C926 C945 1.429 . S
C926 H950 0.950 . S
C927 C944 1.574 . S
C927 C946 1.368 . S
C927 H951 0.949 . S
H928 C932 0.949 . S
C929 C930 1.349 . S
C929 C931 1.327 . S
C929 H952 0.950 . S
C930 C929 1.349 . S
C930 C942 1.349 . S
C931 C929 1.327 . S
C931 C947 1.429 . S
C931 H953 0.950 . S
C932 H928 0.949 . S
C932 C940 1.574 . S
C932 C948 1.368 . S
H933 C941 0.950 . S
H934 C939 0.950 . S
H935 C940 0.949 . S
H936 C942 0.950 . S
H937 C943 0.950 . S
H938 C944 0.949 . S
C939 H934 0.950 . S
C939 C941 1.327 . S
C939 C945 1.429 . S
C940 C932 1.574 . S
C940 H935 0.949 . S
C940 C946 1.368 . S
C941 C925 1.349 . S
C941 H933 0.950 . S
C941 C939 1.327 . S
C942 C930 1.349 . S
C942 H936 0.950 . S
C942 C943 1.327 . S
C943 H937 0.950 . S
C943 C942 1.327 . S
C943 C947 1.429 . S
C944 C927 1.574 . S
C944 H938 0.949 . S
C944 C948 1.368 . S
C945 C926 1.429 . S
C945 C939 1.429 . S
C945 C946 1.523 . S
C946 C927 1.368 . S
C946 C940 1.368 . S
C946 C945 1.523 . S
C947 C931 1.429 . S
C947 C943 1.429 . S
C947 C948 1.523 1_554 S
C948 C932 1.368 . S
C948 C944 1.368 . S
C948 C947 1.523 1_556 S
H949 C924 0.950 . S
H950 C926 0.950 . S
H951 C927 0.949 . S
H952 C929 0.950 . S
H953 C931 0.950 . S
C954 C955 1.349 . S
C954 C956 1.327 . S
C954 H979 0.950 . S
C955 C954 1.349 . S
C955 C971 1.349 . S
C956 C954 1.327 . S
C956 C975 1.429 . S
C956 H980 0.950 . S
C957 C974 1.574 . S
C957 C976 1.368 . S
C957 H981 0.949 . S
H958 C962 0.949 . S
C959 C960 1.349 . S
C959 C961 1.327 . S
C959 H982 0.950 . S
C960 C959 1.349 . S
C960 C972 1.349 . S
C961 C959 1.327 . S
C961 C977 1.429 . S
C961 H983 0.950 . S
C962 H958 0.949 . S
C962 C970 1.574 . S
C962 C978 1.368 . S
H963 C971 0.950 . S
H964 C969 0.950 . S
H965 C970 0.949 . S
H966 C972 0.950 . S
H967 C973 0.950 . S
H968 C974 0.949 . S
C969 H964 0.950 . S
C969 C971 1.327 . S
C969 C975 1.429 . S
C970 C962 1.574 . S
C970 H965 0.949 . S
C970 C976 1.368 . S
C971 C955 1.349 . S
C971 H963 0.950 . S
C971 C969 1.327 . S
C972 C960 1.349 . S
C972 H966 0.950 . S
C972 C973 1.327 . S
C973 H967 0.950 . S
C973 C972 1.327 . S
C973 C977 1.429 . S
C974 C957 1.574 . S
C974 H968 0.949 . S
C974 C978 1.368 . S
C975 C956 1.429 . S
C975 C969 1.429 . S
C975 C976 1.523 . S
C976 C957 1.368 . S
C976 C970 1.368 . S
C976 C975 1.523 . S
C977 C961 1.429 . S
C977 C973 1.429 . S
C977 C978 1.523 . S
C978 C962 1.368 . S
C978 C974 1.368 . S
C978 C977 1.523 . S
H979 C954 0.950 . S
H980 C956 0.950 . S
H981 C957 0.949 . S
H982 C959 0.950 . S
H983 C961 0.950 . S
C984 C985 1.349 . S
C984 C986 1.327 . S
C984 H1009 0.950 . S
C985 C984 1.349 . S
C985 C1001 1.349 1_655 S
C986 C984 1.327 . S
C986 C1005 1.429 . S
C986 H1010 0.950 . S
C987 C1004 1.574 . S
C987 C1006 1.368 1_455 S
C987 H1011 0.949 . S
H988 C992 0.949 . S
C989 C990 1.349 1_554 S
C989 C991 1.327 . S
C989 H1012 0.950 . S
C990 C989 1.349 1_556 S
C990 C1002 1.349 1_456 S
C991 C989 1.327 . S
C991 C1007 1.429 1_455 S
C991 H1013 0.950 . S
C992 H988 0.949 . S
C992 C1000 1.574 . S
C992 C1008 1.368 . S
H993 C1001 0.950 . S
H994 C999 0.950 . S
H995 C1000 0.949 . S
H996 C1002 0.950 . S
H997 C1003 0.950 . S
H998 C1004 0.949 . S
C999 H994 0.950 . S
C999 C1001 1.327 . S
C999 C1005 1.429 1_455 S
C1000 C992 1.574 . S
C1000 H995 0.949 . S
C1000 C1006 1.368 . S
C1001 C985 1.349 1_455 S
C1001 H993 0.950 . S
C1001 C999 1.327 . S
C1002 C990 1.349 1_654 S
C1002 H996 0.950 . S
C1002 C1003 1.327 . S
C1003 H997 0.950 . S
C1003 C1002 1.327 . S
C1003 C1007 1.429 . S
C1004 C987 1.574 . S
C1004 H998 0.949 . S
C1004 C1008 1.368 1_455 S
C1005 C986 1.429 . S
C1005 C999 1.429 1_655 S
C1005 C1006 1.523 . S
C1006 C987 1.368 1_655 S
C1006 C1000 1.368 . S
C1006 C1005 1.523 . S
C1007 C991 1.429 1_655 S
C1007 C1003 1.429 . S
C1007 C1008 1.523 . S
C1008 C992 1.368 . S
C1008 C1004 1.368 1_655 S
C1008 C1007 1.523 . S
H1009 C984 0.950 . S
H1010 C986 0.950 . S
H1011 C987 0.949 . S
H1012 C989 0.950 . S
H1013 C991 0.950 . S
C1014 C1015 1.349 . S
C1014 C1016 1.327 . S
C1014 H1039 0.950 . S
C1015 C1014 1.349 . S
C1015 C1031 1.349 . S
C1016 C1014 1.327 . S
C1016 C1035 1.429 . S
C1016 H1040 0.950 . S
C1017 C1034 1.574 . S
C1017 C1036 1.368 . S
C1017 H1041 0.949 . S
H1018 C1022 0.949 . S
C1019 C1020 1.349 . S
C1019 C1021 1.327 . S
C1019 H1042 0.950 . S
C1020 C1019 1.349 . S
C1020 C1032 1.349 . S
C1021 C1019 1.327 . S
C1021 C1037 1.429 . S
C1021 H1043 0.950 . S
C1022 H1018 0.949 . S
C1022 C1030 1.574 . S
C1022 C1038 1.368 . S
H1023 C1031 0.950 . S
H1024 C1029 0.950 . S
H1025 C1030 0.949 . S
H1026 C1032 0.950 . S
H1027 C1033 0.950 . S
H1028 C1034 0.949 . S
C1029 H1024 0.950 . S
C1029 C1031 1.327 . S
C1029 C1035 1.429 . S
C1030 C1022 1.574 . S
C1030 H1025 0.949 . S
C1030 C1036 1.368 . S
C1031 C1015 1.349 . S
C1031 H1023 0.950 . S
C1031 C1029 1.327 . S
C1032 C1020 1.349 . S
C1032 H1026 0.950 . S
C1032 C1033 1.327 . S
C1033 H1027 0.950 . S
C1033 C1032 1.327 . S
C1033 C1037 1.429 . S
C1034 C1017 1.574 . S
C1034 H1028 0.949 . S
C1034 C1038 1.368 . S
C1035 C1016 1.429 . S
C1035 C1029 1.429 . S
C1035 C1036 1.523 . S
C1036 C1017 1.368 . S
C1036 C1030 1.368 . S
C1036 C1035 1.523 . S
C1037 C1021 1.429 . S
C1037 C1033 1.429 . S
C1037 C1038 1.523 . S
C1038 C1022 1.368 . S
C1038 C1034 1.368 . S
C1038 C1037 1.523 . S
H1039 C1014 0.950 . S
H1040 C1016 0.950 . S
H1041 C1017 0.949 . S
H1042 C1019 0.950 . S
H1043 C1021 0.950 . S
C1044 C1045 1.349 . S
C1044 C1046 1.327 . S
C1044 H1069 0.950 . S
C1045 C1044 1.349 . S
C1045 C1061 1.349 . S
C1046 C1044 1.327 . S
C1046 C1065 1.429 . S
C1046 H1070 0.950 . S
C1047 C1064 1.574 . S
C1047 C1066 1.368 . S
C1047 H1071 0.949 . S
H1048 C1052 0.949 . S
C1049 C1050 1.349 . S
C1049 C1051 1.327 . S
C1049 H1072 0.950 . S
C1050 C1049 1.349 . S
C1050 C1062 1.349 . S
C1051 C1049 1.327 . S
C1051 C1067 1.429 . S
C1051 H1073 0.950 . S
C1052 H1048 0.949 . S
C1052 C1060 1.574 . S
C1052 C1068 1.368 . S
H1053 C1061 0.950 . S
H1054 C1059 0.950 . S
H1055 C1060 0.949 . S
H1056 C1062 0.950 . S
H1057 C1063 0.950 . S
H1058 C1064 0.949 . S
C1059 H1054 0.950 . S
C1059 C1061 1.327 . S
C1059 C1065 1.429 . S
C1060 C1052 1.574 . S
C1060 H1055 0.949 . S
C1060 C1066 1.368 . S
C1061 C1045 1.349 . S
C1061 H1053 0.950 . S
C1061 C1059 1.327 . S
C1062 C1050 1.349 . S
C1062 H1056 0.950 . S
C1062 C1063 1.327 . S
C1063 H1057 0.950 . S
C1063 C1062 1.327 . S
C1063 C1067 1.429 . S
C1064 C1047 1.574 . S
C1064 H1058 0.949 . S
C1064 C1068 1.368 . S
C1065 C1046 1.429 . S
C1065 C1059 1.429 . S
C1065 C1066 1.523 . S
C1066 C1047 1.368 . S
C1066 C1060 1.368 . S
C1066 C1065 1.523 . S
C1067 C1051 1.429 . S
C1067 C1063 1.429 . S
C1067 C1068 1.523 . S
C1068 C1052 1.368 . S
C1068 C1064 1.368 . S
C1068 C1067 1.523 . S
H1069 C1044 0.950 . S
H1070 C1046 0.950 . S
H1071 C1047 0.949 . S
H1072 C1049 0.950 . S
H1073 C1051 0.950 . S
C1074 C1075 1.349 . S
C1074 C1076 1.327 . S
C1074 H1099 0.950 . S
C1075 C1074 1.349 . S
C1075 C1091 1.349 . S
C1076 C1074 1.327 . S
C1076 C1095 1.429 . S
C1076 H1100 0.950 . S
C1077 C1094 1.574 . S
C1077 C1096 1.368 . S
C1077 H1101 0.949 . S
H1078 C1082 0.949 . S
C1079 C1080 1.349 . S
C1079 C1081 1.327 . S
C1079 H1102 0.950 . S
C1080 C1079 1.349 . S
C1080 C1092 1.349 . S
C1081 C1079 1.327 . S
C1081 C1097 1.429 . S
C1081 H1103 0.950 . S
C1082 H1078 0.949 . S
C1082 C1090 1.574 . S
C1082 C1098 1.368 . S
H1083 C1091 0.950 . S
H1084 C1089 0.950 . S
H1085 C1090 0.949 . S
H1086 C1092 0.950 . S
H1087 C1093 0.950 . S
H1088 C1094 0.949 . S
C1089 H1084 0.950 . S
C1089 C1091 1.327 . S
C1089 C1095 1.429 . S
C1090 C1082 1.574 . S
C1090 H1085 0.949 . S
C1090 C1096 1.368 . S
C1091 C1075 1.349 . S
C1091 H1083 0.950 . S
C1091 C1089 1.327 . S
C1092 C1080 1.349 . S
C1092 H1086 0.950 . S
C1092 C1093 1.327 . S
C1093 H1087 0.950 . S
C1093 C1092 1.327 . S
C1093 C1097 1.429 . S
C1094 C1077 1.574 . S
C1094 H1088 0.949 . S
C1094 C1098 1.368 . S
C1095 C1076 1.429 . S
C1095 C1089 1.429 . S
C1095 C1096 1.523 . S
C1096 C1077 1.368 . S
C1096 C1090 1.368 . S
C1096 C1095 1.523 . S
C1097 C1081 1.429 . S
C1097 C1093 1.429 . S
C1097 C1098 1.523 . S
C1098 C1082 1.368 . S
C1098 C1094 1.368 . S
C1098 C1097 1.523 . S
H1099 C1074 0.950 . S
H1100 C1076 0.950 . S
H1101 C1077 0.949 . S
H1102 C1079 0.950 . S
H1103 C1081 0.950 . S
C1104 C1105 1.349 . S
C1104 C1106 1.327 . S
C1104 H1129 0.950 . S
C1105 C1104 1.349 . S
C1105 C1121 1.349 1_655 S
C1106 C1104 1.327 . S
C1106 C1125 1.429 1_655 S
C1106 H1130 0.950 . S
C1107 C1124 1.574 . S
C1107 C1126 1.368 . S
C1107 H1131 0.949 . S
H1108 C1112 0.949 . S
C1109 C1110 1.349 1_554 S
C1109 C1111 1.327 . S
C1109 H1132 0.950 1_554 S
C1110 C1109 1.349 1_556 S
C1110 C1122 1.349 1_455 S
C1111 C1109 1.327 . S
C1111 C1127 1.429 . S
C1111 H1133 0.950 . S
C1112 H1108 0.949 . S
C1112 C1120 1.574 . S
C1112 C1128 1.368 1_655 S
H1113 C1121 0.950 . S
H1114 C1119 0.950 . S
H1115 C1120 0.949 . S
H1116 C1122 0.950 . S
H1117 C1123 0.950 . S
H1118 C1124 0.949 . S
C1119 H1114 0.950 . S
C1119 C1121 1.327 . S
C1119 C1125 1.428 . S
C1120 C1112 1.574 . S
C1120 H1115 0.949 . S
C1120 C1126 1.368 1_655 S
C1121 C1105 1.349 1_455 S
C1121 H1113 0.950 . S
C1121 C1119 1.327 . S
C1122 C1110 1.349 1_655 S
C1122 H1116 0.950 . S
C1122 C1123 1.327 1_556 S
C1123 H1117 0.950 . S
C1123 C1122 1.327 1_554 S
C1123 C1127 1.429 1_655 S
C1124 C1107 1.574 . S
C1124 H1118 0.949 . S
C1124 C1128 1.368 . S
C1125 C1106 1.429 1_455 S
C1125 C1119 1.428 . S
C1125 C1126 1.523 . S
C1126 C1107 1.368 . S
C1126 C1120 1.368 1_455 S
C1126 C1125 1.523 . S
C1127 C1111 1.429 . S
C1127 C1123 1.429 1_455 S
C1127 C1128 1.523 . S
C1128 C1112 1.368 1_455 S
C1128 C1124 1.368 . S
C1128 C1127 1.523 . S
H1129 C1104 0.950 . S
H1130 C1106 0.950 . S
H1131 C1107 0.949 . S
H1132 C1109 0.950 1_556 S
H1133 C1111 0.950 . S
C1134 C1135 1.349 . S
C1134 C1136 1.327 . S
C1134 H1159 0.950 1_554 S
C1135 C1134 1.349 . S
C1135 C1151 1.349 . S
C1136 C1134 1.327 . S
C1136 C1155 1.429 . S
C1136 H1160 0.950 1_554 S
C1137 C1154 1.574 . S
C1137 C1156 1.368 . S
C1137 H1161 0.949 . S
H1138 C1142 0.949 1_556 S
C1139 C1140 1.349 . S
C1139 C1141 1.327 . S
C1139 H1162 0.950 . S
C1140 C1139 1.349 . S
C1140 C1152 1.349 . S
C1141 C1139 1.327 . S
C1141 C1157 1.429 . S
C1141 H1163 0.950 . S
C1142 H1138 0.949 1_554 S
C1142 C1150 1.574 . S
C1142 C1158 1.368 . S
H1143 C1151 0.950 . S
H1144 C1149 0.950 . S
H1145 C1150 0.949 1_556 S
H1146 C1152 0.950 . S
H1147 C1153 0.950 1_556 S
H1148 C1154 0.949 . S
C1149 H1144 0.950 . S
C1149 C1151 1.327 . S
C1149 C1155 1.429 . S
C1150 C1142 1.574 . S
C1150 H1145 0.949 1_554 S
C1150 C1156 1.368 . S
C1151 C1135 1.349 . S
C1151 H1143 0.950 . S
C1151 C1149 1.327 . S
C1152 C1140 1.349 . S
C1152 H1146 0.950 . S
C1152 C1153 1.327 . S
C1153 H1147 0.950 1_554 S
C1153 C1152 1.327 . S
C1153 C1157 1.429 . S
C1154 C1137 1.574 . S
C1154 H1148 0.949 . S
C1154 C1158 1.368 . S
C1155 C1136 1.429 . S
C1155 C1149 1.429 . S
C1155 C1156 1.523 . S
C1156 C1137 1.368 . S
C1156 C1150 1.368 . S
C1156 C1155 1.523 . S
C1157 C1141 1.429 . S
C1157 C1153 1.429 . S
C1157 C1158 1.523 . S
C1158 C1142 1.368 . S
C1158 C1154 1.368 . S
C1158 C1157 1.523 . S
H1159 C1134 0.950 1_556 S
H1160 C1136 0.950 1_556 S
H1161 C1137 0.949 . S
H1162 C1139 0.950 . S
H1163 C1141 0.950 . S
C1164 C1165 1.349 . S
C1164 C1166 1.327 . S
C1164 H1189 0.950 . S
C1165 C1164 1.349 . S
C1165 C1181 1.349 . S
C1166 C1164 1.327 . S
C1166 C1185 1.429 . S
C1166 H1190 0.950 . S
C1167 C1184 1.574 . S
C1167 C1186 1.368 . S
C1167 H1191 0.949 . S
H1168 C1172 0.949 . S
C1169 C1170 1.349 . S
C1169 C1171 1.327 . S
C1169 H1192 0.950 . S
C1170 C1169 1.349 . S
C1170 C1182 1.349 . S
C1171 C1169 1.327 . S
C1171 C1187 1.429 . S
C1171 H1193 0.950 . S
C1172 H1168 0.949 . S
C1172 C1180 1.574 . S
C1172 C1188 1.368 . S
H1173 C1181 0.950 . S
H1174 C1179 0.950 . S
H1175 C1180 0.949 . S
H1176 C1182 0.950 . S
H1177 C1183 0.950 . S
H1178 C1184 0.949 . S
C1179 H1174 0.950 . S
C1179 C1181 1.327 . S
C1179 C1185 1.429 . S
C1180 C1172 1.574 . S
C1180 H1175 0.949 . S
C1180 C1186 1.368 . S
C1181 C1165 1.349 . S
C1181 H1173 0.950 . S
C1181 C1179 1.327 . S
C1182 C1170 1.349 . S
C1182 H1176 0.950 . S
C1182 C1183 1.327 . S
C1183 H1177 0.950 . S
C1183 C1182 1.327 . S
C1183 C1187 1.429 . S
C1184 C1167 1.574 . S
C1184 H1178 0.949 . S
C1184 C1188 1.368 . S
C1185 C1166 1.429 . S
C1185 C1179 1.429 . S
C1185 C1186 1.523 . S
C1186 C1167 1.368 . S
C1186 C1180 1.368 . S
C1186 C1185 1.523 . S
C1187 C1171 1.429 . S
C1187 C1183 1.429 . S
C1187 C1188 1.523 . S
C1188 C1172 1.368 . S
C1188 C1184 1.368 . S
C1188 C1187 1.523 . S
H1189 C1164 0.950 . S
H1190 C1166 0.950 . S
H1191 C1167 0.949 . S
H1192 C1169 0.950 . S
H1193 C1171 0.950 . S
C1194 C1195 1.349 . S
C1194 C1196 1.327 . S
C1194 H1219 0.950 . S
C1195 C1194 1.349 . S
C1195 C1211 1.349 . S
C1196 C1194 1.327 . S
C1196 C1215 1.429 . S
C1196 H1220 0.950 . S
C1197 C1214 1.574 . S
C1197 C1216 1.368 . S
C1197 H1221 0.949 . S
H1198 C1202 0.949 . S
C1199 C1200 1.349 . S
C1199 C1201 1.327 . S
C1199 H1222 0.950 . S
C1200 C1199 1.349 . S
C1200 C1212 1.349 . S
C1201 C1199 1.327 . S
C1201 C1217 1.429 . S
C1201 H1223 0.950 . S
C1202 H1198 0.949 . S
C1202 C1210 1.574 . S
C1202 C1218 1.368 . S
H1203 C1211 0.950 . S
H1204 C1209 0.950 . S
H1205 C1210 0.949 . S
H1206 C1212 0.950 . S
H1207 C1213 0.950 . S
H1208 C1214 0.949 . S
C1209 H1204 0.950 . S
C1209 C1211 1.327 . S
C1209 C1215 1.429 . S
C1210 C1202 1.574 . S
C1210 H1205 0.949 . S
C1210 C1216 1.368 . S
C1211 C1195 1.349 . S
C1211 H1203 0.950 . S
C1211 C1209 1.327 . S
C1212 C1200 1.349 . S
C1212 H1206 0.950 . S
C1212 C1213 1.327 . S
C1213 H1207 0.950 . S
C1213 C1212 1.327 . S
C1213 C1217 1.429 . S
C1214 C1197 1.574 . S
C1214 H1208 0.949 . S
C1214 C1218 1.368 . S
C1215 C1196 1.429 . S
C1215 C1209 1.429 . S
C1215 C1216 1.523 . S
C1216 C1197 1.368 . S
C1216 C1210 1.368 . S
C1216 C1215 1.523 . S
C1217 C1201 1.429 . S
C1217 C1213 1.429 . S
C1217 C1218 1.523 . S
C1218 C1202 1.368 . S
C1218 C1214 1.368 . S
C1218 C1217 1.523 . S
H1219 C1194 0.950 . S
H1220 C1196 0.950 . S
H1221 C1197 0.949 . S
H1222 C1199 0.950 . S
H1223 C1201 0.950 . S
C1224 C1225 1.349 . S
C1224 C1226 1.327 . S
C1224 H1249 0.950 . S
C1225 C1224 1.349 . S
C1225 C1241 1.349 . S
C1226 C1224 1.327 . S
C1226 C1245 1.429 . S
C1226 H1250 0.950 . S
C1227 C1244 1.574 . S
C1227 C1246 1.368 . S
C1227 H1251 0.949 . S
H1228 C1232 0.949 . S
C1229 C1230 1.349 . S
C1229 C1231 1.327 . S
C1229 H1252 0.950 . S
C1230 C1229 1.349 . S
C1230 C1242 1.349 . S
C1231 C1229 1.327 . S
C1231 C1247 1.429 . S
C1231 H1253 0.950 . S
C1232 H1228 0.949 . S
C1232 C1240 1.574 . S
C1232 C1248 1.368 . S
H1233 C1241 0.950 . S
H1234 C1239 0.950 . S
H1235 C1240 0.949 . S
H1236 C1242 0.950 . S
H1237 C1243 0.950 . S
H1238 C1244 0.949 . S
C1239 H1234 0.950 . S
C1239 C1241 1.327 . S
C1239 C1245 1.429 . S
C1240 C1232 1.574 . S
C1240 H1235 0.949 . S
C1240 C1246 1.368 . S
C1241 C1225 1.349 . S
C1241 H1233 0.950 . S
C1241 C1239 1.327 . S
C1242 C1230 1.349 . S
C1242 H1236 0.950 . S
C1242 C1243 1.327 . S
C1243 H1237 0.950 . S
C1243 C1242 1.327 . S
C1243 C1247 1.429 . S
C1244 C1227 1.574 . S
C1244 H1238 0.949 . S
C1244 C1248 1.368 . S
C1245 C1226 1.429 . S
C1245 C1239 1.429 . S
C1245 C1246 1.523 . S
C1246 C1227 1.368 . S
C1246 C1240 1.368 . S
C1246 C1245 1.523 . S
C1247 C1231 1.429 . S
C1247 C1243 1.429 . S
C1247 C1248 1.523 . S
C1248 C1232 1.368 . S
C1248 C1244 1.368 . S
C1248 C1247 1.523 . S
H1249 C1224 0.950 . S
H1250 C1226 0.950 . S
H1251 C1227 0.949 . S
H1252 C1229 0.950 . S
H1253 C1231 0.950 . S
C1254 C1255 1.349 . S
C1254 C1256 1.327 . S
C1254 H1279 0.950 . S
C1255 C1254 1.349 . S
C1255 C1271 1.349 . S
C1256 C1254 1.327 . S
C1256 C1275 1.429 . S
C1256 H1280 0.950 . S
C1257 C1274 1.574 . S
C1257 C1276 1.368 . S
C1257 H1281 0.949 . S
H1258 C1262 0.949 . S
C1259 C1260 1.349 . S
C1259 C1261 1.327 . S
C1259 H1282 0.950 . S
C1260 C1259 1.349 . S
C1260 C1272 1.349 . S
C1261 C1259 1.327 . S
C1261 C1277 1.429 . S
C1261 H1283 0.950 . S
C1262 H1258 0.949 . S
C1262 C1270 1.574 . S
C1262 C1278 1.368 . S
H1263 C1271 0.950 . S
H1264 C1269 0.950 . S
H1265 C1270 0.949 . S
H1266 C1272 0.950 . S
H1267 C1273 0.950 . S
H1268 C1274 0.949 . S
C1269 H1264 0.950 . S
C1269 C1271 1.327 . S
C1269 C1275 1.429 . S
C1270 C1262 1.574 . S
C1270 H1265 0.949 . S
C1270 C1276 1.368 . S
C1271 C1255 1.349 . S
C1271 H1263 0.950 . S
C1271 C1269 1.327 . S
C1272 C1260 1.349 . S
C1272 H1266 0.950 . S
C1272 C1273 1.327 . S
C1273 H1267 0.950 . S
C1273 C1272 1.327 . S
C1273 C1277 1.429 . S
C1274 C1257 1.574 . S
C1274 H1268 0.949 . S
C1274 C1278 1.368 . S
C1275 C1256 1.429 . S
C1275 C1269 1.429 . S
C1275 C1276 1.523 . S
C1276 C1257 1.368 . S
C1276 C1270 1.368 . S
C1276 C1275 1.523 . S
C1277 C1261 1.429 . S
C1277 C1273 1.429 . S
C1277 C1278 1.523 . S
C1278 C1262 1.368 . S
C1278 C1274 1.368 . S
C1278 C1277 1.523 . S
H1279 C1254 0.950 . S
H1280 C1256 0.950 . S
H1281 C1257 0.949 . S
H1282 C1259 0.950 . S
H1283 C1261 0.950 . S
C1284 C1285 1.349 . S
C1284 C1286 1.327 . S
C1284 H1309 0.950 . S
C1285 C1284 1.349 . S
C1285 C1301 1.349 . S
C1286 C1284 1.327 . S
C1286 C1305 1.429 . S
C1286 H1310 0.950 . S
C1287 C1304 1.574 . S
C1287 C1306 1.368 . S
C1287 H1311 0.949 . S
H1288 C1292 0.949 . S
C1289 C1290 1.349 . S
C1289 C1291 1.327 . S
C1289 H1312 0.950 . S
C1290 C1289 1.349 . S
C1290 C1302 1.349 . S
C1291 C1289 1.327 . S
C1291 C1307 1.429 . S
C1291 H1313 0.950 . S
C1292 H1288 0.949 . S
C1292 C1300 1.574 . S
C1292 C1308 1.368 . S
H1293 C1301 0.950 . S
H1294 C1299 0.950 . S
H1295 C1300 0.949 . S
H1296 C1302 0.950 . S
H1297 C1303 0.950 . S
H1298 C1304 0.949 . S
C1299 H1294 0.950 . S
C1299 C1301 1.327 . S
C1299 C1305 1.429 . S
C1300 C1292 1.574 . S
C1300 H1295 0.949 . S
C1300 C1306 1.368 . S
C1301 C1285 1.349 . S
C1301 H1293 0.950 . S
C1301 C1299 1.327 . S
C1302 C1290 1.349 . S
C1302 H1296 0.950 . S
C1302 C1303 1.327 . S
C1303 H1297 0.950 . S
C1303 C1302 1.327 . S
C1303 C1307 1.429 . S
C1304 C1287 1.574 . S
C1304 H1298 0.949 . S
C1304 C1308 1.368 . S
C1305 C1286 1.429 . S
C1305 C1299 1.429 . S
C1305 C1306 1.523 . S
C1306 C1287 1.368 . S
C1306 C1300 1.368 . S
C1306 C1305 1.523 . S
C1307 C1291 1.429 . S
C1307 C1303 1.429 . S
C1307 C1308 1.523 . S
C1308 C1292 1.368 . S
C1308 C1304 1.368 . S
C1308 C1307 1.523 . S
H1309 C1284 0.950 . S
H1310 C1286 0.950 . S
H1311 C1287 0.949 . S
H1312 C1289 0.950 . S
H1313 C1291 0.950 . S
C1314 C1315 1.349 . S
C1314 C1316 1.327 . S
C1314 H1339 0.950 . S
C1315 C1314 1.349 . S
C1315 C1331 1.349 . S
C1316 C1314 1.327 . S
C1316 C1335 1.429 . S
C1316 H1340 0.950 . S
C1317 C1334 1.574 . S
C1317 C1336 1.368 . S
C1317 H1341 0.949 . S
H1318 C1322 0.949 . S
C1319 C1320 1.349 . S
C1319 C1321 1.327 . S
C1319 H1342 0.950 . S
C1320 C1319 1.349 . S
C1320 C1332 1.349 . S
C1321 C1319 1.327 . S
C1321 C1337 1.429 . S
C1321 H1343 0.950 . S
C1322 H1318 0.949 . S
C1322 C1330 1.574 . S
C1322 C1338 1.368 . S
H1323 C1331 0.950 . S
H1324 C1329 0.950 . S
H1325 C1330 0.949 . S
H1326 C1332 0.950 . S
H1327 C1333 0.950 . S
H1328 C1334 0.949 . S
C1329 H1324 0.950 . S
C1329 C1331 1.327 . S
C1329 C1335 1.429 . S
C1330 C1322 1.574 . S
C1330 H1325 0.949 . S
C1330 C1336 1.368 . S
C1331 C1315 1.349 . S
C1331 H1323 0.950 . S
C1331 C1329 1.327 . S
C1332 C1320 1.349 . S
C1332 H1326 0.950 . S
C1332 C1333 1.327 . S
C1333 H1327 0.950 . S
C1333 C1332 1.327 . S
C1333 C1337 1.429 . S
C1334 C1317 1.574 . S
C1334 H1328 0.949 . S
C1334 C1338 1.368 . S
C1335 C1316 1.429 . S
C1335 C1329 1.429 . S
C1335 C1336 1.523 . S
C1336 C1317 1.368 . S
C1336 C1330 1.368 . S
C1336 C1335 1.523 . S
C1337 C1321 1.429 . S
C1337 C1333 1.429 . S
C1337 C1338 1.523 . S
C1338 C1322 1.368 . S
C1338 C1334 1.368 . S
C1338 C1337 1.523 . S
H1339 C1314 0.950 . S
H1340 C1316 0.950 . S
H1341 C1317 0.949 . S
H1342 C1319 0.950 . S
H1343 C1321 0.950 . S
C1344 C1345 1.349 . S
C1344 C1346 1.327 . S
C1344 H1369 0.950 . S
C1345 C1344 1.349 . S
C1345 C1361 1.349 . S
C1346 C1344 1.327 . S
C1346 C1365 1.429 . S
C1346 H1370 0.950 . S
C1347 C1364 1.574 . S
C1347 C1366 1.368 . S
C1347 H1371 0.949 . S
H1348 C1352 0.949 . S
C1349 C1350 1.349 . S
C1349 C1351 1.327 . S
C1349 H1372 0.950 . S
C1350 C1349 1.349 . S
C1350 C1362 1.349 . S
C1351 C1349 1.327 . S
C1351 C1367 1.429 . S
C1351 H1373 0.950 . S
C1352 H1348 0.949 . S
C1352 C1360 1.574 . S
C1352 C1368 1.368 . S
H1353 C1361 0.950 . S
H1354 C1359 0.950 . S
H1355 C1360 0.949 . S
H1356 C1362 0.950 . S
H1357 C1363 0.950 . S
H1358 C1364 0.949 . S
C1359 H1354 0.950 . S
C1359 C1361 1.327 . S
C1359 C1365 1.429 . S
C1360 C1352 1.574 . S
C1360 H1355 0.949 . S
C1360 C1366 1.368 . S
C1361 C1345 1.349 . S
C1361 H1353 0.950 . S
C1361 C1359 1.327 . S
C1362 C1350 1.349 . S
C1362 H1356 0.950 . S
C1362 C1363 1.327 . S
C1363 H1357 0.950 . S
C1363 C1362 1.327 . S
C1363 C1367 1.429 . S
C1364 C1347 1.574 . S
C1364 H1358 0.949 . S
C1364 C1368 1.368 . S
C1365 C1346 1.429 . S
C1365 C1359 1.429 . S
C1365 C1366 1.523 . S
C1366 C1347 1.368 . S
C1366 C1360 1.368 . S
C1366 C1365 1.523 . S
C1367 C1351 1.429 . S
C1367 C1363 1.429 . S
C1367 C1368 1.523 . S
C1368 C1352 1.368 . S
C1368 C1364 1.368 . S
C1368 C1367 1.523 . S
H1369 C1344 0.950 . S
H1370 C1346 0.950 . S
H1371 C1347 0.949 . S
H1372 C1349 0.950 . S
H1373 C1351 0.950 . S
C1374 C1375 1.349 . S
C1374 C1376 1.327 . S
C1374 H1399 0.950 . S
C1375 C1374 1.349 . S
C1375 C1391 1.349 . S
C1376 C1374 1.327 . S
C1376 C1395 1.429 . S
C1376 H1400 0.950 . S
C1377 C1394 1.574 . S
C1377 C1396 1.368 . S
C1377 H1401 0.949 . S
H1378 C1382 0.949 . S
C1379 C1380 1.349 . S
C1379 C1381 1.327 . S
C1379 H1402 0.950 . S
C1380 C1379 1.349 . S
C1380 C1392 1.349 . S
C1381 C1379 1.327 . S
C1381 C1397 1.429 . S
C1381 H1403 0.950 . S
C1382 H1378 0.949 . S
C1382 C1390 1.574 . S
C1382 C1398 1.368 . S
H1383 C1391 0.950 . S
H1384 C1389 0.950 . S
H1385 C1390 0.949 . S
H1386 C1392 0.950 . S
H1387 C1393 0.950 . S
H1388 C1394 0.949 . S
C1389 H1384 0.950 . S
C1389 C1391 1.327 . S
C1389 C1395 1.429 . S
C1390 C1382 1.574 . S
C1390 H1385 0.949 . S
C1390 C1396 1.368 . S
C1391 C1375 1.349 . S
C1391 H1383 0.950 . S
C1391 C1389 1.327 . S
C1392 C1380 1.349 . S
C1392 H1386 0.950 . S
C1392 C1393 1.327 . S
C1393 H1387 0.950 . S
C1393 C1392 1.327 . S
C1393 C1397 1.429 . S
C1394 C1377 1.574 . S
C1394 H1388 0.949 . S
C1394 C1398 1.368 . S
C1395 C1376 1.429 . S
C1395 C1389 1.429 . S
C1395 C1396 1.523 . S
C1396 C1377 1.368 . S
C1396 C1390 1.368 . S
C1396 C1395 1.523 . S
C1397 C1381 1.429 . S
C1397 C1393 1.429 . S
C1397 C1398 1.523 . S
C1398 C1382 1.368 . S
C1398 C1394 1.368 . S
C1398 C1397 1.523 . S
H1399 C1374 0.950 . S
H1400 C1376 0.950 . S
H1401 C1377 0.949 . S
H1402 C1379 0.950 . S
H1403 C1381 0.950 . S
C1404 C1405 1.349 . S
C1404 C1406 1.327 . S
C1404 H1429 0.950 . S
C1405 C1404 1.349 . S
C1405 C1421 1.349 . S
C1406 C1404 1.327 . S
C1406 C1425 1.429 . S
C1406 H1430 0.950 . S
C1407 C1424 1.574 . S
C1407 C1426 1.368 . S
C1407 H1431 0.949 . S
H1408 C1412 0.949 . S
C1409 C1410 1.349 . S
C1409 C1411 1.327 . S
C1409 H1432 0.950 . S
C1410 C1409 1.349 . S
C1410 C1422 1.349 . S
C1411 C1409 1.327 . S
C1411 C1427 1.429 . S
C1411 H1433 0.950 . S
C1412 H1408 0.949 . S
C1412 C1420 1.574 . S
C1412 C1428 1.368 . S
H1413 C1421 0.950 . S
H1414 C1419 0.950 . S
H1415 C1420 0.949 . S
H1416 C1422 0.950 . S
H1417 C1423 0.950 . S
H1418 C1424 0.949 . S
C1419 H1414 0.950 . S
C1419 C1421 1.327 . S
C1419 C1425 1.429 . S
C1420 C1412 1.574 . S
C1420 H1415 0.949 . S
C1420 C1426 1.368 . S
C1421 C1405 1.349 . S
C1421 H1413 0.950 . S
C1421 C1419 1.327 . S
C1422 C1410 1.349 . S
C1422 H1416 0.950 . S
C1422 C1423 1.327 . S
C1423 H1417 0.950 . S
C1423 C1422 1.327 . S
C1423 C1427 1.429 . S
C1424 C1407 1.574 . S
C1424 H1418 0.949 . S
C1424 C1428 1.368 . S
C1425 C1406 1.429 . S
C1425 C1419 1.429 . S
C1425 C1426 1.523 . S
C1426 C1407 1.368 . S
C1426 C1420 1.368 . S
C1426 C1425 1.523 . S
C1427 C1411 1.429 . S
C1427 C1423 1.429 . S
C1427 C1428 1.523 . S
C1428 C1412 1.368 . S
C1428 C1424 1.368 . S
C1428 C1427 1.523 . S
H1429 C1404 0.950 . S
H1430 C1406 0.950 . S
H1431 C1407 0.949 . S
H1432 C1409 0.950 . S
H1433 C1411 0.950 . S
C1434 C1435 1.349 . S
C1434 C1436 1.327 . S
C1434 H1459 0.950 . S
C1435 C1434 1.349 . S
C1435 C1451 1.349 . S
C1436 C1434 1.327 . S
C1436 C1455 1.429 . S
C1436 H1460 0.950 . S
C1437 C1454 1.574 . S
C1437 C1456 1.368 . S
C1437 H1461 0.949 . S
H1438 C1442 0.949 . S
C1439 C1440 1.349 . S
C1439 C1441 1.327 . S
C1439 H1462 0.950 . S
C1440 C1439 1.349 . S
C1440 C1452 1.349 . S
C1441 C1439 1.327 . S
C1441 C1457 1.429 . S
C1441 H1463 0.950 . S
C1442 H1438 0.949 . S
C1442 C1450 1.574 . S
C1442 C1458 1.368 . S
H1443 C1451 0.950 . S
H1444 C1449 0.950 . S
H1445 C1450 0.949 . S
H1446 C1452 0.950 . S
H1447 C1453 0.950 . S
H1448 C1454 0.949 . S
C1449 H1444 0.950 . S
C1449 C1451 1.327 . S
C1449 C1455 1.429 . S
C1450 C1442 1.574 . S
C1450 H1445 0.949 . S
C1450 C1456 1.368 . S
C1451 C1435 1.349 . S
C1451 H1443 0.950 . S
C1451 C1449 1.327 . S
C1452 C1440 1.349 . S
C1452 H1446 0.950 . S
C1452 C1453 1.327 . S
C1453 H1447 0.950 . S
C1453 C1452 1.327 . S
C1453 C1457 1.429 . S
C1454 C1437 1.574 . S
C1454 H1448 0.949 . S
C1454 C1458 1.368 . S
C1455 C1436 1.429 . S
C1455 C1449 1.429 . S
C1455 C1456 1.523 . S
C1456 C1437 1.368 . S
C1456 C1450 1.368 . S
C1456 C1455 1.523 . S
C1457 C1441 1.429 . S
C1457 C1453 1.429 . S
C1457 C1458 1.523 . S
C1458 C1442 1.368 . S
C1458 C1454 1.368 . S
C1458 C1457 1.523 . S
H1459 C1434 0.950 . S
H1460 C1436 0.950 . S
H1461 C1437 0.949 . S
H1462 C1439 0.950 . S
H1463 C1441 0.950 . S
C1464 C1465 1.349 . S
C1464 C1466 1.327 . S
C1464 H1489 0.950 . S
C1465 C1464 1.349 . S
C1465 C1481 1.349 . S
C1466 C1464 1.327 . S
C1466 C1485 1.429 . S
C1466 H1490 0.950 . S
C1467 C1484 1.574 . S
C1467 C1486 1.368 . S
C1467 H1491 0.949 . S
H1468 C1472 0.949 . S
C1469 C1470 1.349 . S
C1469 C1471 1.327 . S
C1469 H1492 0.950 . S
C1470 C1469 1.349 . S
C1470 C1482 1.349 . S
C1471 C1469 1.327 . S
C1471 C1487 1.429 . S
C1471 H1493 0.950 . S
C1472 H1468 0.949 . S
C1472 C1480 1.574 . S
C1472 C1488 1.368 . S
H1473 C1481 0.950 . S
H1474 C1479 0.950 . S
H1475 C1480 0.949 . S
H1476 C1482 0.950 1_565 S
H1477 C1483 0.950 . S
H1478 C1484 0.949 . S
C1479 H1474 0.950 . S
C1479 C1481 1.327 . S
C1479 C1485 1.429 . S
C1480 C1472 1.574 . S
C1480 H1475 0.949 . S
C1480 C1486 1.368 . S
C1481 C1465 1.349 . S
C1481 H1473 0.950 . S
C1481 C1479 1.327 . S
C1482 C1470 1.349 . S
C1482 H1476 0.950 1_545 S
C1482 C1483 1.327 . S
C1483 H1477 0.950 . S
C1483 C1482 1.327 . S
C1483 C1487 1.429 . S
C1484 C1467 1.574 . S
C1484 H1478 0.949 . S
C1484 C1488 1.368 . S
C1485 C1466 1.429 . S
C1485 C1479 1.429 . S
C1485 C1486 1.523 . S
C1486 C1467 1.368 . S
C1486 C1480 1.368 . S
C1486 C1485 1.523 . S
C1487 C1471 1.429 . S
C1487 C1483 1.429 . S
C1487 C1488 1.523 . S
C1488 C1472 1.368 . S
C1488 C1484 1.368 . S
C1488 C1487 1.523 . S
H1489 C1464 0.950 . S
H1490 C1466 0.950 . S
H1491 C1467 0.949 . S
H1492 C1469 0.950 . S
H1493 C1471 0.950 . S
C1494 C1495 1.349 . S
C1494 C1496 1.327 . S
C1494 H1519 0.950 . S
C1495 C1494 1.349 . S
C1495 C1511 1.349 . S
C1496 C1494 1.327 . S
C1496 C1515 1.429 . S
C1496 H1520 0.950 . S
C1497 C1514 1.574 . S
C1497 C1516 1.368 . S
C1497 H1521 0.949 . S
H1498 C1502 0.949 . S
C1499 C1500 1.349 . S
C1499 C1501 1.327 . S
C1499 H1522 0.950 . S
C1500 C1499 1.349 . S
C1500 C1512 1.349 . S
C1501 C1499 1.327 . S
C1501 C1517 1.429 . S
C1501 H1523 0.950 . S
C1502 H1498 0.949 . S
C1502 C1510 1.574 . S
C1502 C1518 1.368 . S
H1503 C1511 0.950 . S
H1504 C1509 0.950 . S
H1505 C1510 0.949 . S
H1506 C1512 0.950 . S
H1507 C1513 0.950 . S
H1508 C1514 0.949 . S
C1509 H1504 0.950 . S
C1509 C1511 1.327 . S
C1509 C1515 1.429 . S
C1510 C1502 1.574 . S
C1510 H1505 0.949 . S
C1510 C1516 1.368 . S
C1511 C1495 1.349 . S
C1511 H1503 0.950 . S
C1511 C1509 1.327 . S
C1512 C1500 1.349 . S
C1512 H1506 0.950 . S
C1512 C1513 1.327 . S
C1513 H1507 0.950 . S
C1513 C1512 1.327 . S
C1513 C1517 1.429 . S
C1514 C1497 1.574 . S
C1514 H1508 0.949 . S
C1514 C1518 1.368 . S
C1515 C1496 1.429 . S
C1515 C1509 1.429 . S
C1515 C1516 1.523 1_554 S
C1516 C1497 1.368 . S
C1516 C1510 1.368 . S
C1516 C1515 1.523 1_556 S
C1517 C1501 1.429 . S
C1517 C1513 1.429 . S
C1517 C1518 1.523 . S
C1518 C1502 1.368 . S
C1518 C1514 1.368 . S
C1518 C1517 1.523 . S
H1519 C1494 0.950 . S
H1520 C1496 0.950 . S
H1521 C1497 0.949 . S
H1522 C1499 0.950 . S
H1523 C1501 0.950 . S
C1524 C1525 1.349 1_556 S
C1524 C1526 1.327 . S
C1524 H1549 0.950 . S
C1525 C1524 1.349 1_554 S
C1525 C1541 1.349 . S
C1526 C1524 1.327 . S
C1526 C1545 1.429 . S
C1526 H1550 0.950 . S
C1527 C1544 1.574 . S
C1527 C1546 1.368 . S
C1527 H1551 0.949 1_556 S
H1528 C1532 0.949 . S
C1529 C1530 1.349 . S
C1529 C1531 1.327 . S
C1529 H1552 0.950 . S
C1530 C1529 1.349 . S
C1530 C1542 1.349 1_655 S
C1531 C1529 1.327 . S
C1531 C1547 1.429 1_655 S
C1531 H1553 0.950 . S
C1532 H1528 0.949 . S
C1532 C1540 1.574 . S
C1532 C1548 1.368 . S
H1533 C1541 0.950 . S
H1534 C1539 0.950 . S
H1535 C1540 0.949 . S
H1536 C1542 0.950 . S
H1537 C1543 0.950 . S
H1538 C1544 0.949 1_655 S
C1539 H1534 0.950 . S
C1539 C1541 1.327 . S
C1539 C1545 1.429 1_554 S
C1540 C1532 1.574 . S
C1540 H1535 0.949 . S
C1540 C1546 1.368 . S
C1541 C1525 1.349 . S
C1541 H1533 0.950 . S
C1541 C1539 1.327 . S
C1542 C1530 1.349 1_455 S
C1542 H1536 0.950 . S
C1542 C1543 1.327 . S
C1543 H1537 0.950 . S
C1543 C1542 1.327 . S
C1543 C1547 1.429 . S
C1544 C1527 1.574 . S
C1544 H1538 0.949 1_455 S
C1544 C1548 1.368 . S
C1545 C1526 1.429 . S
C1545 C1539 1.429 1_556 S
C1545 C1546 1.523 . S
C1546 C1527 1.368 . S
C1546 C1540 1.368 . S
C1546 C1545 1.523 . S
C1547 C1531 1.429 1_455 S
C1547 C1543 1.429 . S
C1547 C1548 1.523 . S
C1548 C1532 1.368 . S
C1548 C1544 1.368 . S
C1548 C1547 1.523 . S
H1549 C1524 0.950 . S
H1550 C1526 0.950 . S
H1551 C1527 0.949 1_554 S
H1552 C1529 0.950 . S
H1553 C1531 0.950 . S
C1554 C1555 1.349 . S
C1554 C1556 1.327 . S
C1554 H1579 0.950 . S
C1555 C1554 1.349 . S
C1555 C1571 1.349 . S
C1556 C1554 1.327 . S
C1556 C1575 1.429 . S
C1556 H1580 0.950 . S
C1557 C1574 1.574 . S
C1557 C1576 1.368 . S
C1557 H1581 0.949 . S
H1558 C1562 0.949 . S
C1559 C1560 1.349 1_556 S
C1559 C1561 1.327 . S
C1559 H1582 0.950 . S
C1560 C1559 1.349 1_554 S
C1560 C1572 1.349 . S
C1561 C1559 1.327 . S
C1561 C1577 1.429 . S
C1561 H1583 0.950 . S
C1562 H1558 0.949 . S
C1562 C1570 1.574 . S
C1562 C1578 1.368 . S
H1563 C1571 0.950 . S
H1564 C1569 0.950 . S
H1565 C1570 0.949 . S
H1566 C1572 0.950 . S
H1567 C1573 0.950 . S
H1568 C1574 0.949 . S
C1569 H1564 0.950 . S
C1569 C1571 1.327 . S
C1569 C1575 1.429 . S
C1570 C1562 1.574 . S
C1570 H1565 0.949 . S
C1570 C1576 1.368 . S
C1571 C1555 1.349 . S
C1571 H1563 0.950 . S
C1571 C1569 1.327 . S
C1572 C1560 1.349 . S
C1572 H1566 0.950 . S
C1572 C1573 1.327 . S
C1573 H1567 0.950 . S
C1573 C1572 1.327 . S
C1573 C1577 1.429 1_554 S
C1574 C1557 1.574 . S
C1574 H1568 0.949 . S
C1574 C1578 1.368 . S
C1575 C1556 1.429 . S
C1575 C1569 1.429 . S
C1575 C1576 1.523 . S
C1576 C1557 1.368 . S
C1576 C1570 1.368 . S
C1576 C1575 1.523 . S
C1577 C1561 1.429 . S
C1577 C1573 1.429 1_556 S
C1577 C1578 1.523 . S
C1578 C1562 1.368 . S
C1578 C1574 1.368 . S
C1578 C1577 1.523 . S
H1579 C1554 0.950 . S
H1580 C1556 0.950 . S
H1581 C1557 0.949 . S
H1582 C1559 0.950 . S
H1583 C1561 0.950 . S
C1584 C1585 1.349 1_556 S
C1584 C1586 1.327 . S
C1584 H1609 0.950 . S
C1585 C1584 1.349 1_554 S
C1585 C1601 1.349 . S
C1586 C1584 1.327 . S
C1586 C1605 1.429 . S
C1586 H1610 0.950 . S
C1587 C1604 1.574 . S
C1587 C1606 1.368 . S
C1587 H1611 0.949 . S
H1588 C1592 0.949 . S
C1589 C1590 1.353 . S
C1589 C1591 1.275 1_655 S
C1589 H1612 1.001 . S
C1590 C1589 1.353 . S
C1590 C1602 1.349 1_655 S
C1591 C1589 1.275 1_455 S
C1591 C1607 1.429 . S
C1591 H1613 0.950 . S
C1592 H1588 0.949 . S
C1592 C1600 1.574 . S
C1592 C1608 1.368 . S
H1593 C1601 0.950 . S
H1594 C1599 0.950 . S
H1595 C1600 0.949 . S
H1596 C1602 0.950 . S
H1597 C1603 0.950 . S
H1598 C1604 0.949 . S
C1599 H1594 0.950 . S
C1599 C1601 1.327 . S
C1599 C1605 1.429 1_554 S
C1600 C1592 1.574 . S
C1600 H1595 0.949 . S
C1600 C1606 1.368 . S
C1601 C1585 1.349 . S
C1601 H1593 0.950 . S
C1601 C1599 1.327 . S
C1602 C1590 1.349 1_455 S
C1602 H1596 0.950 . S
C1602 C1603 1.327 . S
C1603 H1597 0.950 . S
C1603 C1602 1.327 . S
C1603 C1607 1.429 . S
C1604 C1587 1.574 . S
C1604 H1598 0.949 . S
C1604 C1608 1.368 . S
C1605 C1586 1.429 . S
C1605 C1599 1.429 1_556 S
C1605 C1606 1.523 . S
C1606 C1587 1.368 . S
C1606 C1600 1.368 . S
C1606 C1605 1.523 . S
C1607 C1591 1.429 . S
C1607 C1603 1.429 . S
C1607 C1608 1.523 . S
C1608 C1592 1.368 . S
C1608 C1604 1.368 . S
C1608 C1607 1.523 . S
H1609 C1584 0.950 . S
H1610 C1586 0.950 . S
H1611 C1587 0.949 . S
H1612 C1589 1.001 . S
H1613 C1591 0.950 . S
C1614 C1615 1.349 . S
C1614 C1616 1.327 1_554 S
C1614 H1639 0.950 1_554 S
C1615 C1614 1.349 . S
C1615 C1631 1.349 . S
C1616 C1614 1.327 1_556 S
C1616 C1635 1.429 . S
C1616 H1640 0.950 . S
C1617 C1634 1.574 . S
C1617 C1636 1.368 . S
C1617 H1641 0.949 1_556 S
H1618 C1622 0.949 . S
C1619 C1620 1.349 . S
C1619 C1621 1.327 . S
C1619 H1642 0.950 . S
C1620 C1619 1.349 . S
C1620 C1632 1.349 . S
C1621 C1619 1.327 . S
C1621 C1637 1.429 . S
C1621 H1643 0.950 . S
C1622 H1618 0.949 . S
C1622 C1630 1.574 . S
C1622 C1638 1.368 . S
H1623 C1631 0.950 . S
H1624 C1629 0.950 . S
H1625 C1630 0.949 . S
H1626 C1632 0.950 . S
H1627 C1633 0.950 . S
H1628 C1634 0.949 . S
C1629 H1624 0.950 . S
C1629 C1631 1.327 . S
C1629 C1635 1.429 1_554 S
C1630 C1622 1.574 . S
C1630 H1625 0.949 . S
C1630 C1636 1.368 . S
C1631 C1615 1.349 . S
C1631 H1623 0.950 . S
C1631 C1629 1.327 . S
C1632 C1620 1.349 . S
C1632 H1626 0.950 . S
C1632 C1633 1.327 . S
C1633 H1627 0.950 . S
C1633 C1632 1.327 . S
C1633 C1637 1.429 . S
C1634 C1617 1.574 . S
C1634 H1628 0.949 . S
C1634 C1638 1.368 . S
C1635 C1616 1.429 . S
C1635 C1629 1.429 1_556 S
C1635 C1636 1.523 . S
C1636 C1617 1.368 . S
C1636 C1630 1.368 . S
C1636 C1635 1.523 . S
C1637 C1621 1.429 . S
C1637 C1633 1.429 . S
C1637 C1638 1.523 . S
C1638 C1622 1.368 . S
C1638 C1634 1.368 . S
C1638 C1637 1.523 . S
H1639 C1614 0.950 1_556 S
H1640 C1616 0.950 . S
H1641 C1617 0.949 1_554 S
H1642 C1619 0.950 . S
H1643 C1621 0.950 . S
C1644 C1645 1.349 . S
C1644 C1646 1.327 . S
C1644 H1669 0.950 . S
C1645 C1644 1.349 . S
C1645 C1661 1.349 . S
C1646 C1644 1.327 . S
C1646 C1665 1.429 . S
C1646 H1670 0.950 . S
C1647 C1664 1.574 . S
C1647 C1666 1.368 . S
C1647 H1671 0.949 . S
H1648 C1652 0.949 1_554 S
C1649 C1650 1.349 1_556 S
C1649 C1651 1.327 . S
C1649 H1672 0.950 . S
C1650 C1649 1.349 1_554 S
C1650 C1662 1.349 . S
C1651 C1649 1.327 . S
C1651 C1667 1.429 . S
C1651 H1673 0.950 . S
C1652 H1648 0.949 1_556 S
C1652 C1660 1.574 . S
C1652 C1668 1.368 . S
H1653 C1661 0.950 . S
H1654 C1659 0.950 . S
H1655 C1660 0.949 . S
H1656 C1662 0.950 . S
H1657 C1663 0.950 . S
H1658 C1664 0.949 . S
C1659 H1654 0.950 . S
C1659 C1661 1.327 . S
C1659 C1665 1.429 . S
C1660 C1652 1.574 . S
C1660 H1655 0.949 . S
C1660 C1666 1.368 . S
C1661 C1645 1.349 . S
C1661 H1653 0.950 . S
C1661 C1659 1.327 . S
C1662 C1650 1.349 . S
C1662 H1656 0.950 . S
C1662 C1663 1.327 . S
C1663 H1657 0.950 . S
C1663 C1662 1.327 . S
C1663 C1667 1.429 1_554 S
C1664 C1647 1.574 . S
C1664 H1658 0.949 . S
C1664 C1668 1.368 . S
C1665 C1646 1.429 . S
C1665 C1659 1.429 . S
C1665 C1666 1.523 . S
C1666 C1647 1.368 . S
C1666 C1660 1.368 . S
C1666 C1665 1.523 . S
C1667 C1651 1.429 . S
C1667 C1663 1.429 1_556 S
C1667 C1668 1.523 . S
C1668 C1652 1.368 . S
C1668 C1664 1.368 . S
C1668 C1667 1.523 . S
H1669 C1644 0.950 . S
H1670 C1646 0.950 . S
H1671 C1647 0.949 . S
H1672 C1649 0.950 . S
H1673 C1651 0.950 . S
C1674 C1675 1.309 1_545 S
C1674 C1676 1.362 . S
C1674 H1699 0.956 . S
C1675 C1674 1.309 1_565 S
C1675 C1691 1.349 . S
C1676 C1674 1.362 . S
C1676 C1695 1.429 1_545 S
C1676 H1700 0.950 . S
C1677 C1694 1.574 . S
C1677 C1696 1.368 1_565 S
C1677 H1701 0.949 . S
H1678 C1682 0.949 . S
C1679 C1680 1.349 . S
C1679 C1681 1.327 . S
C1679 H1702 0.950 . S
C1680 C1679 1.349 . S
C1680 C1692 1.349 . S
C1681 C1679 1.327 . S
C1681 C1697 1.429 . S
C1681 H1703 0.891 1_545 S
C1682 H1678 0.949 . S
C1682 C1690 1.574 . S
C1682 C1698 1.368 . S
H1683 C1691 0.950 . S
H1684 C1689 0.950 . S
H1685 C1690 0.949 . S
H1686 C1692 0.950 . S
H1687 C1693 0.950 . S
H1688 C1694 0.949 . S
C1689 H1684 0.950 . S
C1689 C1691 1.327 . S
C1689 C1695 1.429 . S
C1690 C1682 1.574 . S
C1690 H1685 0.949 . S
C1690 C1696 1.368 . S
C1691 C1675 1.349 . S
C1691 H1683 0.950 . S
C1691 C1689 1.327 . S
C1692 C1680 1.349 . S
C1692 H1686 0.950 . S
C1692 C1693 1.327 . S
C1693 H1687 0.950 . S
C1693 C1692 1.327 . S
C1693 C1697 1.429 . S
C1694 C1677 1.574 . S
C1694 H1688 0.949 . S
C1694 C1698 1.368 1_565 S
C1695 C1676 1.429 1_565 S
C1695 C1689 1.429 . S
C1695 C1696 1.523 1_565 S
C1696 C1677 1.368 1_545 S
C1696 C1690 1.368 . S
C1696 C1695 1.523 1_545 S
C1697 C1681 1.429 . S
C1697 C1693 1.429 . S
C1697 C1698 1.523 . S
C1698 C1682 1.368 . S
C1698 C1694 1.368 1_545 S
C1698 C1697 1.523 . S
H1699 C1674 0.956 . S
H1700 C1676 0.950 . S
H1701 C1677 0.949 . S
H1702 C1679 0.950 . S
H1703 C1681 0.891 1_565 S
C1704 C1705 1.349 . S
C1704 C1706 1.327 . S
C1704 H1729 0.950 . S
C1705 C1704 1.349 . S
C1705 C1721 1.349 . S
C1706 C1704 1.327 . S
C1706 C1725 1.429 . S
C1706 H1730 0.950 . S
C1707 C1724 1.574 . S
C1707 C1726 1.368 . S
C1707 H1731 0.949 . S
H1708 C1712 0.949 . S
C1709 C1710 1.349 . S
C1709 C1711 1.327 . S
C1709 H1732 0.950 . S
C1710 C1709 1.349 . S
C1710 C1722 1.349 . S
C1711 C1709 1.327 . S
C1711 C1727 1.429 . S
C1711 H1733 0.950 . S
C1712 H1708 0.949 . S
C1712 C1720 1.574 . S
C1712 C1728 1.368 . S
H1713 C1721 0.950 . S
H1714 C1719 0.950 . S
H1715 C1720 0.949 . S
H1716 C1722 0.950 . S
H1717 C1723 0.950 . S
H1718 C1724 0.949 . S
C1719 H1714 0.950 . S
C1719 C1721 1.327 . S
C1719 C1725 1.429 . S
C1720 C1712 1.574 . S
C1720 H1715 0.949 . S
C1720 C1726 1.368 . S
C1721 C1705 1.349 . S
C1721 H1713 0.950 . S
C1721 C1719 1.327 . S
C1722 C1710 1.349 . S
C1722 H1716 0.950 . S
C1722 C1723 1.327 . S
C1723 H1717 0.950 . S
C1723 C1722 1.327 . S
C1723 C1727 1.429 . S
C1724 C1707 1.574 . S
C1724 H1718 0.949 . S
C1724 C1728 1.368 . S
C1725 C1706 1.429 . S
C1725 C1719 1.429 . S
C1725 C1726 1.523 . S
C1726 C1707 1.368 . S
C1726 C1720 1.368 . S
C1726 C1725 1.523 . S
C1727 C1711 1.429 . S
C1727 C1723 1.429 . S
C1727 C1728 1.523 . S
C1728 C1712 1.368 . S
C1728 C1724 1.368 . S
C1728 C1727 1.523 . S
H1729 C1704 0.950 . S
H1730 C1706 0.950 . S
H1731 C1707 0.949 . S
H1732 C1709 0.950 . S
H1733 C1711 0.950 . S
C1734 C1735 1.349 . S
C1734 C1736 1.327 . S
C1734 H1759 0.950 . S
C1735 C1734 1.349 . S
C1735 C1751 1.349 . S
C1736 C1734 1.327 . S
C1736 C1755 1.429 . S
C1736 H1760 0.950 . S
C1737 C1754 1.574 . S
C1737 C1756 1.368 . S
C1737 H1761 0.949 . S
H1738 C1742 0.949 . S
C1739 C1740 1.349 . S
C1739 C1741 1.327 . S
C1739 H1762 0.950 . S
C1740 C1739 1.349 . S
C1740 C1752 1.349 . S
C1741 C1739 1.327 . S
C1741 C1757 1.429 . S
C1741 H1763 0.950 . S
C1742 H1738 0.949 . S
C1742 C1750 1.574 . S
C1742 C1758 1.368 . S
H1743 C1751 0.950 . S
H1744 C1749 0.950 . S
H1745 C1750 0.949 . S
H1746 C1752 0.950 . S
H1747 C1753 0.950 . S
H1748 C1754 0.949 . S
C1749 H1744 0.950 . S
C1749 C1751 1.327 . S
C1749 C1755 1.429 . S
C1750 C1742 1.574 . S
C1750 H1745 0.949 . S
C1750 C1756 1.368 . S
C1751 C1735 1.349 . S
C1751 H1743 0.950 . S
C1751 C1749 1.327 . S
C1752 C1740 1.349 . S
C1752 H1746 0.950 . S
C1752 C1753 1.327 . S
C1753 H1747 0.950 . S
C1753 C1752 1.327 . S
C1753 C1757 1.429 . S
C1754 C1737 1.574 . S
C1754 H1748 0.949 . S
C1754 C1758 1.368 . S
C1755 C1736 1.429 . S
C1755 C1749 1.429 . S
C1755 C1756 1.523 . S
C1756 C1737 1.368 . S
C1756 C1750 1.368 . S
C1756 C1755 1.523 . S
C1757 C1741 1.429 . S
C1757 C1753 1.429 . S
C1757 C1758 1.523 . S
C1758 C1742 1.368 . S
C1758 C1754 1.368 . S
C1758 C1757 1.523 . S
H1759 C1734 0.950 . S
H1760 C1736 0.950 . S
H1761 C1737 0.949 . S
H1762 C1739 0.950 . S
H1763 C1741 0.950 . S
C1764 C1765 1.349 . S
C1764 C1766 1.327 . S
C1764 H1789 0.950 . S
C1765 C1764 1.349 . S
C1765 C1781 1.349 . S
C1766 C1764 1.327 . S
C1766 C1785 1.429 . S
C1766 H1790 0.950 . S
C1767 C1784 1.574 . S
C1767 C1786 1.368 . S
C1767 H1791 0.949 . S
H1768 C1772 0.949 . S
C1769 C1770 1.349 . S
C1769 C1771 1.327 . S
C1769 H1792 0.950 . S
C1770 C1769 1.349 . S
C1770 C1782 1.349 . S
C1771 C1769 1.327 . S
C1771 C1787 1.429 . S
C1771 H1793 0.950 . S
C1772 H1768 0.949 . S
C1772 C1780 1.574 . S
C1772 C1788 1.368 . S
H1773 C1781 0.950 . S
H1774 C1779 0.950 . S
H1775 C1780 0.949 . S
H1776 C1782 0.950 . S
H1777 C1783 0.950 . S
H1778 C1784 0.949 . S
C1779 H1774 0.950 . S
C1779 C1781 1.327 . S
C1779 C1785 1.429 . S
C1780 C1772 1.574 . S
C1780 H1775 0.949 . S
C1780 C1786 1.368 . S
C1781 C1765 1.349 . S
C1781 H1773 0.950 . S
C1781 C1779 1.327 . S
C1782 C1770 1.349 . S
C1782 H1776 0.950 . S
C1782 C1783 1.327 . S
C1783 H1777 0.950 . S
C1783 C1782 1.327 . S
C1783 C1787 1.429 . S
C1784 C1767 1.574 . S
C1784 H1778 0.949 . S
C1784 C1788 1.368 . S
C1785 C1766 1.429 . S
C1785 C1779 1.429 . S
C1785 C1786 1.523 . S
C1786 C1767 1.368 . S
C1786 C1780 1.368 . S
C1786 C1785 1.523 . S
C1787 C1771 1.429 . S
C1787 C1783 1.429 . S
C1787 C1788 1.523 . S
C1788 C1772 1.368 . S
C1788 C1784 1.368 . S
C1788 C1787 1.523 . S
H1789 C1764 0.950 . S
H1790 C1766 0.950 . S
H1791 C1767 0.949 . S
H1792 C1769 0.950 . S
H1793 C1771 0.950 . S
C1794 C1795 1.349 . S
C1794 C1796 1.327 . S
C1794 H1819 0.950 . S
C1795 C1794 1.349 . S
C1795 C1811 1.349 . S
C1796 C1794 1.327 . S
C1796 C1815 1.429 . S
C1796 H1820 0.950 . S
C1797 C1814 1.574 . S
C1797 C1816 1.368 . S
C1797 H1821 0.949 . S
H1798 C1802 0.949 . S
C1799 C1800 1.349 . S
C1799 C1801 1.327 . S
C1799 H1822 0.950 . S
C1800 C1799 1.349 . S
C1800 C1812 1.349 . S
C1801 C1799 1.327 . S
C1801 C1817 1.429 . S
C1801 H1823 0.950 . S
C1802 H1798 0.949 . S
C1802 C1810 1.574 . S
C1802 C1818 1.368 . S
H1803 C1811 0.950 . S
H1804 C1809 0.950 . S
H1805 C1810 0.949 . S
H1806 C1812 0.950 . S
H1807 C1813 0.950 . S
H1808 C1814 0.949 . S
C1809 H1804 0.950 . S
C1809 C1811 1.327 . S
C1809 C1815 1.429 . S
C1810 C1802 1.574 . S
C1810 H1805 0.949 . S
C1810 C1816 1.368 . S
C1811 C1795 1.349 . S
C1811 H1803 0.950 . S
C1811 C1809 1.327 . S
C1812 C1800 1.349 . S
C1812 H1806 0.950 . S
C1812 C1813 1.327 . S
C1813 H1807 0.950 . S
C1813 C1812 1.327 . S
C1813 C1817 1.429 . S
C1814 C1797 1.574 . S
C1814 H1808 0.949 . S
C1814 C1818 1.368 . S
C1815 C1796 1.429 . S
C1815 C1809 1.429 . S
C1815 C1816 1.523 . S
C1816 C1797 1.368 . S
C1816 C1810 1.368 . S
C1816 C1815 1.523 . S
C1817 C1801 1.429 . S
C1817 C1813 1.429 . S
C1817 C1818 1.523 . S
C1818 C1802 1.368 . S
C1818 C1814 1.368 . S
C1818 C1817 1.523 . S
H1819 C1794 0.950 . S
H1820 C1796 0.950 . S
H1821 C1797 0.949 . S
H1822 C1799 0.950 . S
H1823 C1801 0.950 . S
C1824 C1825 1.349 . S
C1824 C1826 1.327 . S
C1824 H1849 0.950 . S
C1825 C1824 1.349 . S
C1825 C1841 1.349 . S
C1826 C1824 1.327 . S
C1826 C1845 1.429 . S
C1826 H1850 0.950 . S
C1827 C1844 1.574 . S
C1827 C1846 1.368 . S
C1827 H1851 0.949 . S
H1828 C1832 0.949 . S
C1829 C1830 1.349 . S
C1829 C1831 1.327 . S
C1829 H1852 0.950 . S
C1830 C1829 1.349 . S
C1830 C1842 1.349 . S
C1831 C1829 1.327 . S
C1831 C1847 1.429 . S
C1831 H1853 0.950 . S
C1832 H1828 0.949 . S
C1832 C1840 1.574 . S
C1832 C1848 1.368 . S
H1833 C1841 0.950 . S
H1834 C1839 0.950 . S
H1835 C1840 0.949 . S
H1836 C1842 0.950 . S
H1837 C1843 0.950 . S
H1838 C1844 0.949 . S
C1839 H1834 0.950 . S
C1839 C1841 1.327 . S
C1839 C1845 1.429 . S
C1840 C1832 1.574 . S
C1840 H1835 0.949 . S
C1840 C1846 1.368 . S
C1841 C1825 1.349 . S
C1841 H1833 0.950 . S
C1841 C1839 1.327 . S
C1842 C1830 1.349 . S
C1842 H1836 0.950 . S
C1842 C1843 1.327 . S
C1843 H1837 0.950 . S
C1843 C1842 1.327 . S
C1843 C1847 1.429 . S
C1844 C1827 1.574 . S
C1844 H1838 0.949 . S
C1844 C1848 1.368 . S
C1845 C1826 1.429 . S
C1845 C1839 1.429 . S
C1845 C1846 1.523 . S
C1846 C1827 1.368 . S
C1846 C1840 1.368 . S
C1846 C1845 1.523 . S
C1847 C1831 1.429 . S
C1847 C1843 1.429 . S
C1847 C1848 1.523 . S
C1848 C1832 1.368 . S
C1848 C1844 1.368 . S
C1848 C1847 1.523 . S
H1849 C1824 0.950 . S
H1850 C1826 0.950 . S
H1851 C1827 0.949 . S
H1852 C1829 0.950 . S
H1853 C1831 0.950 . S
C1854 C1855 1.349 . S
C1854 C1856 1.327 . S
C1854 H1879 0.950 . S
C1855 C1854 1.349 . S
C1855 C1871 1.349 . S
C1856 C1854 1.327 . S
C1856 C1875 1.429 . S
C1856 H1880 0.950 . S
C1857 C1874 1.574 . S
C1857 C1876 1.368 . S
C1857 H1881 0.949 . S
H1858 C1862 0.949 . S
C1859 C1860 1.349 . S
C1859 C1861 1.327 . S
C1859 H1882 0.950 . S
C1860 C1859 1.349 . S
C1860 C1872 1.349 . S
C1861 C1859 1.327 . S
C1861 C1877 1.429 . S
C1861 H1883 0.950 . S
C1862 H1858 0.949 . S
C1862 C1870 1.574 . S
C1862 C1878 1.368 . S
H1863 C1871 0.950 . S
H1864 C1869 0.950 . S
H1865 C1870 0.949 . S
H1866 C1872 0.950 . S
H1867 C1873 0.950 . S
H1868 C1874 0.949 . S
C1869 H1864 0.950 . S
C1869 C1871 1.327 . S
C1869 C1875 1.429 . S
C1870 C1862 1.574 . S
C1870 H1865 0.949 . S
C1870 C1876 1.368 . S
C1871 C1855 1.349 . S
C1871 H1863 0.950 . S
C1871 C1869 1.327 . S
C1872 C1860 1.349 . S
C1872 H1866 0.950 . S
C1872 C1873 1.327 . S
C1873 H1867 0.950 . S
C1873 C1872 1.327 . S
C1873 C1877 1.429 . S
C1874 C1857 1.574 . S
C1874 H1868 0.949 . S
C1874 C1878 1.368 . S
C1875 C1856 1.429 . S
C1875 C1869 1.429 . S
C1875 C1876 1.523 . S
C1876 C1857 1.368 . S
C1876 C1870 1.368 . S
C1876 C1875 1.523 . S
C1877 C1861 1.429 . S
C1877 C1873 1.429 . S
C1877 C1878 1.523 . S
C1878 C1862 1.368 . S
C1878 C1874 1.368 . S
C1878 C1877 1.523 . S
H1879 C1854 0.950 . S
H1880 C1856 0.950 . S
H1881 C1857 0.949 . S
H1882 C1859 0.950 . S
H1883 C1861 0.950 . S
C1884 C1885 1.349 . S
C1884 C1886 1.327 . S
C1884 H1909 0.950 . S
C1885 C1884 1.349 . S
C1885 C1901 1.349 . S
C1886 C1884 1.327 . S
C1886 C1905 1.429 . S
C1886 H1910 0.950 . S
C1887 C1904 1.574 . S
C1887 C1906 1.368 . S
C1887 H1911 0.949 . S
H1888 C1892 0.949 . S
C1889 C1890 1.349 . S
C1889 C1891 1.327 . S
C1889 H1912 0.950 . S
C1890 C1889 1.349 . S
C1890 C1902 1.349 . S
C1891 C1889 1.327 . S
C1891 C1907 1.429 . S
C1891 H1913 0.950 . S
C1892 H1888 0.949 . S
C1892 C1900 1.574 . S
C1892 C1908 1.368 . S
H1893 C1901 0.950 . S
H1894 C1899 0.950 . S
H1895 C1900 0.949 . S
H1896 C1902 0.950 . S
H1897 C1903 0.950 . S
H1898 C1904 0.949 . S
C1899 H1894 0.950 . S
C1899 C1901 1.327 . S
C1899 C1905 1.429 . S
C1900 C1892 1.574 . S
C1900 H1895 0.949 . S
C1900 C1906 1.368 . S
C1901 C1885 1.349 . S
C1901 H1893 0.950 . S
C1901 C1899 1.327 . S
C1902 C1890 1.349 . S
C1902 H1896 0.950 . S
C1902 C1903 1.327 . S
C1903 H1897 0.950 . S
C1903 C1902 1.327 . S
C1903 C1907 1.429 . S
C1904 C1887 1.574 . S
C1904 H1898 0.949 . S
C1904 C1908 1.368 . S
C1905 C1886 1.429 . S
C1905 C1899 1.429 . S
C1905 C1906 1.523 . S
C1906 C1887 1.368 . S
C1906 C1900 1.368 . S
C1906 C1905 1.523 . S
C1907 C1891 1.429 . S
C1907 C1903 1.429 . S
C1907 C1908 1.523 . S
C1908 C1892 1.368 . S
C1908 C1904 1.368 . S
C1908 C1907 1.523 . S
H1909 C1884 0.950 . S
H1910 C1886 0.950 . S
H1911 C1887 0.949 . S
H1912 C1889 0.950 . S
H1913 C1891 0.950 . S
C1914 C1915 1.349 . S
C1914 C1916 1.327 . S
C1914 H1939 0.950 . S
C1915 C1914 1.349 . S
C1915 C1931 1.349 . S
C1916 C1914 1.327 . S
C1916 C1935 1.429 . S
C1916 H1940 0.950 . S
C1917 C1934 1.574 . S
C1917 C1936 1.368 . S
C1917 H1941 0.949 . S
H1918 C1922 0.949 . S
C1919 C1920 1.349 . S
C1919 C1921 1.327 . S
C1919 H1942 0.950 . S
C1920 C1919 1.349 . S
C1920 C1932 1.349 . S
C1921 C1919 1.327 . S
C1921 C1937 1.429 . S
C1921 H1943 0.950 . S
C1922 H1918 0.949 . S
C1922 C1930 1.574 . S
C1922 C1938 1.368 . S
H1923 C1931 0.950 . S
H1924 C1929 0.950 . S
H1925 C1930 0.949 . S
H1926 C1932 0.950 . S
H1927 C1933 0.950 . S
H1928 C1934 0.949 . S
C1929 H1924 0.950 . S
C1929 C1931 1.327 . S
C1929 C1935 1.429 . S
C1930 C1922 1.574 . S
C1930 H1925 0.949 . S
C1930 C1936 1.368 . S
C1931 C1915 1.349 . S
C1931 H1923 0.950 . S
C1931 C1929 1.327 . S
C1932 C1920 1.349 . S
C1932 H1926 0.950 . S
C1932 C1933 1.327 . S
C1933 H1927 0.950 . S
C1933 C1932 1.327 . S
C1933 C1937 1.429 . S
C1934 C1917 1.574 . S
C1934 H1928 0.949 . S
C1934 C1938 1.368 . S
C1935 C1916 1.429 . S
C1935 C1929 1.429 . S
C1935 C1936 1.523 . S
C1936 C1917 1.368 . S
C1936 C1930 1.368 . S
C1936 C1935 1.523 . S
C1937 C1921 1.429 . S
C1937 C1933 1.429 . S
C1937 C1938 1.523 . S
C1938 C1922 1.368 . S
C1938 C1934 1.368 . S
C1938 C1937 1.523 . S
H1939 C1914 0.950 . S
H1940 C1916 0.950 . S
H1941 C1917 0.949 . S
H1942 C1919 0.950 . S
H1943 C1921 0.950 . S
C595 N5 1.431 . S
C600 N14 1.427 . S
C625 N47 1.439 . S
C630 N38 1.443 . S
C655 N71 1.443 . S
C660 N80 1.439 . S
C685 N113 1.430 . S
C690 N104 1.434 . S
C715 N146 1.434 . S
C720 N137 1.437 . S
C745 N179 1.441 . S
C750 N170 1.444 . S
C775 N203 1.424 . S
C780 N212 1.420 . S
C805 N236 1.436 . S
C810 N245 1.429 . S
C835 N269 1.442 . S
C840 N278 1.437 . S
C865 N311 1.420 . S
C870 N302 1.424 . S
C895 N335 1.433 . S
C900 N344 1.428 . S
C925 N368 1.442 . S
C930 N377 1.438 . S
C955 N401 1.426 . S
C960 N410 1.422 1_554 S
C985 N443 1.426 . S
C990 N434 1.429 . S
C1015 N476 1.432 1_554 S
C1020 N467 1.436 . S
C1045 N500 1.423 1_554 S
C1050 N509 1.419 . S
C1075 N533 1.434 . S
C1080 N542 1.430 1_554 S
C1105 N575 1.431 . S
C1110 N566 1.434 . S
C1135 C116 1.160 . S
C1140 C17 1.163 . S
C1165 C149 1.168 . S
C1170 C50 1.167 . S
C1195 C182 1.157 . S
C1200 C83 1.156 . S
C1225 C215 1.112 . S
C1230 C314 1.111 . S
C1255 C347 1.111 . S
C1260 C248 1.109 . S
C1285 C380 1.107 . S
C1290 C281 1.110 . S
C1315 C512 1.141 . S
C1320 C413 1.141 . S
C1345 C446 1.162 . S
C1350 C545 1.164 . S
C1375 C479 1.155 . S
C1380 C578 1.151 . S
C1405 C272 0.577 . S
C1410 C8 0.558 . S
C1435 C206 0.569 . S
C1440 C61 0.599 . S
C1465 C74 0.633 . S
C1470 C239 0.636 . S
C1495 C94 0.627 . S
C1500 C404 0.594 . S
C1525 C28 0.557 . S
C1530 C457 0.592 . S
C1555 C470 0.655 . S
C1560 C41 0.653 . S
C1585 C107 0.635 . S
C1590 C589 0.649 . S
C1615 C160 0.560 . S
C1620 C523 0.546 . S
C1645 C536 0.654 . S
C1650 C173 0.654 . S
C1675 C305 0.566 . S
C1680 C193 0.597 . S
C1705 C127 0.561 . S
C1710 C338 0.553 . S
C1735 C140 0.643 . S
C1740 C371 0.644 . S
C1765 C226 0.512 . S
C1770 C490 0.549 . S
C1795 C259 0.539 . S
C1800 C424 0.532 . S
C1825 C292 0.621 . S
C1830 C437 0.613 . S
C1855 C503 0.545 . S
C1860 C391 0.581 . S
C1885 C556 0.553 . S
C1890 C325 0.519 . S
C1915 C569 0.590 . S
C1920 C358 0.602 . S
