# Generated by pormake.
# Topology lon, (4)-cn, num edge types: 1
# Building blocks:
#     Node 0, Type 0, BuildingBlock: KUFVIS_clean_sbu_0, # of connection points: 4
#     Node 1, Type 0, BuildingBlock: KUFVIS_clean_sbu_0, # of connection points: 4
#     Node 2, Type 0, BuildingBlock: KUFVIS_clean_sbu_0, # of connection points: 4
#     Node 3, Type 0, BuildingBlock: KUFVIS_clean_sbu_0, # of connection points: 4
#     Edge 4, Type (0, 0), BuildingBlock: EZIPEK_clean_linker_0, # of connection points: 2
#     Edge 5, Type (0, 0), BuildingBlock: EZIPEK_clean_linker_0, # of connection points: 2
#     Edge 6, Type (0, 0), BuildingBlock: EZIPEK_clean_linker_0, # of connection points: 2
#     Edge 7, Type (0, 0), BuildingBlock: EZIPEK_clean_linker_0, # of connection points: 2
#     Edge 8, Type (0, 0), BuildingBlock: EZIPEK_clean_linker_0, # of connection points: 2
#     Edge 9, Type (0, 0), BuildingBlock: EZIPEK_clean_linker_0, # of connection points: 2
#     Edge 10, Type (0, 0), BuildingBlock: EZIPEK_clean_linker_0, # of connection points: 2
#     Edge 11, Type (0, 0), BuildingBlock: EZIPEK_clean_linker_0, # of connection points: 2
# Relax obj value: 0.046
# Max RMSD: 0.107
# Mean RMSD: 0.088
data_MOF--net-lon--node1-KUFVIS_clean_sbu_0--edge1-EZIPEK_clean_linker_0
_symmetry_space_group_name_H-M    P1
_symmetry_Int_Tables_number       1
_symmetry_cell_setting            triclinic
loop_
_symmetry_equiv_pos_as_xyz
'x, y, z'
_cell_length_a     17.961818
_cell_length_b     17.256824
_cell_length_c     29.556134
_cell_angle_alpha  100.55301
_cell_angle_beta   89.784206
_cell_angle_gamma 121.1857
loop_
_atom_site_label
_atom_site_type_symbol
_atom_site_fract_x
_atom_site_fract_y
_atom_site_fract_z
_atom_type_partial_charge
Mn0 Mn 0.33534 0.68238 0.09078 0.0
Mn1 Mn 0.29124 0.60057 0.97504 0.0
C2 C 0.19755 0.62606 0.05425 0.0
C3 C 0.34051 0.66201 0.16654 0.0
C4 C 0.41381 0.80453 0.02007 0.0
O5 O 0.42906 0.65191 0.07384 0.0
O6 O 0.37736 0.57591 0.99904 0.0
C7 C 0.20766 0.39792 0.96622 0.0
N8 N 0.20344 0.47131 0.95898 0.0
C9 C 0.06025 0.36975 0.9168 0.0
C10 C 0.06244 0.29323 0.92468 0.0
C11 C 0.13658 0.30742 0.94943 0.0
C12 C 0.13295 0.45833 0.93459 0.0
H13 H 0.26494 0.40832 0.98444 0.0
C14 C 0.42748 0.60036 0.03621 0.0
O15 O 0.38936 0.74216 0.15595 0.0
O16 O 0.29128 0.59251 0.13283 0.0
N17 N 0.2052 0.61915 0.94957 0.0
C18 C 0.20879 0.69984 0.94942 0.0
C19 C 0.14071 0.69799 0.92511 0.0
C20 C 0.06818 0.61281 0.90247 0.0
C21 C 0.06367 0.53029 0.90526 0.0
C22 C 0.13444 0.53665 0.92908 0.0
H23 H 0.2616 0.76471 0.96902 0.0
O24 O 0.22396 0.68358 0.09416 0.0
O25 O 0.25364 0.6071 0.03678 0.0
O26 O 0.39491 0.79633 0.06124 0.0
O27 O 0.3825 0.73485 0.98621 0.0
C28 C 0.99055 0.44205 0.88647 0.0
C29 C 0.98853 0.3617 0.89235 0.0
H30 H 1.00769 0.22332 0.91179 0.0
H31 H 0.13915 0.24875 0.95535 0.0
H32 H 0.14327 0.7619 0.92468 0.0
H33 H 1.01498 0.61141 0.88441 0.0
H34 H 0.93516 0.43579 0.86814 0.0
H35 H 0.9313 0.29418 0.87823 0.0
Mn36 Mn 0.73805 0.39341 0.58175 0.0
Mn37 Mn 0.52228 0.2771 0.59806 0.0
C38 C 0.65585 0.23153 0.56466 0.0
C39 C 0.862 0.46121 0.54101 0.0
C40 C 0.66971 0.37226 0.67642 0.0
O41 O 0.7048 0.49203 0.58197 0.0
O42 O 0.56131 0.40381 0.59066 0.0
C43 C 0.4087 0.28748 0.52328 0.0
N44 N 0.44703 0.22884 0.54147 0.0
C45 C 0.26626 0.03615 0.47286 0.0
C46 C 0.24216 0.11718 0.45885 0.0
C47 C 0.31152 0.23771 0.48368 0.0
C48 C 0.40473 0.11799 0.52884 0.0
H49 H 0.43981 0.3607 0.53744 0.0
C50 C 0.6274 0.47864 0.58335 0.0
O51 O 0.86598 0.48156 0.58558 0.0
O52 O 0.78369 0.40736 0.51922 0.0
N53 N 0.4776 0.15046 0.60531 0.0
C54 C 0.49167 0.13153 0.64633 0.0
C55 C 0.44051 0.04387 0.65633 0.0
C56 C 0.36744 0.97405 0.62679 0.0
C57 C 0.34642 0.98872 0.58513 0.0
C58 C 0.41541 0.08198 0.57126 0.0
H59 H 0.54284 0.18368 0.67271 0.0
O60 O 0.74 0.27731 0.57506 0.0
O61 O 0.6204 0.28122 0.56499 0.0
O62 O 0.73224 0.40215 0.65147 0.0
O63 O 0.58986 0.32789 0.65984 0.0
C64 C 0.25101 0.91716 0.55951 0.0
C65 C 0.19545 0.94196 0.48652 0.0
H66 H 0.18026 0.0926 0.43957 0.0
H67 H 0.29214 0.28392 0.47571 0.0
H68 H 0.45489 0.03176 0.68897 0.0
H69 H 0.32497 0.90967 0.63775 0.0
H70 H 0.21684 0.86044 0.57817 0.0
H71 H 0.13143 0.90447 0.46589 0.0
Mn72 Mn 0.38514 0.68446 0.46135 0.0
Mn73 Mn 0.2855 0.79591 0.43445 0.0
C74 C 0.46358 0.84502 0.46986 0.0
C75 C 0.44699 0.62859 0.50735 0.0
C76 C 0.33465 0.68627 0.36282 0.0
O77 O 0.25625 0.59333 0.46848 0.0
O78 O 0.19775 0.6708 0.44521 0.0
C79 C 0.15119 0.79582 0.50029 0.0
N80 N 0.25215 0.84952 0.48653 0.0
C81 C 0.26554 0.04798 0.55011 0.0
C82 C 0.15596 0.97149 0.56027 0.0
C83 C 0.1022 0.85044 0.53577 0.0
C84 C 0.3236 0.95923 0.49961 0.0
H85 H 0.10729 0.72406 0.48408 0.0
C86 C 0.19144 0.60307 0.46075 0.0
O87 O 0.42313 0.59476 0.46356 0.0
O88 O 0.42712 0.68895 0.52583 0.0
N89 N 0.36887 0.92073 0.42527 0.0
C90 C 0.40425 0.93611 0.38439 0.0
C91 C 0.44868 0.02412 0.37422 0.0
C92 C 0.45115 0.0985 0.40322 0.0
C93 C 0.41088 0.08718 0.44392 0.0
C94 C 0.37756 0.99232 0.45855 0.0
H95 H 0.39943 0.88078 0.35838 0.0
O96 O 0.50118 0.79765 0.46058 0.0
O97 O 0.37905 0.79734 0.47152 0.0
O98 O 0.36184 0.65607 0.39056 0.0
O99 O 0.30687 0.73977 0.37611 0.0
C100 C 0.38951 0.16324 0.46653 0.0
C101 C 0.29741 0.14357 0.5353 0.0
H102 H 0.11845 0.99947 0.5766 0.0
H103 H 0.03401 0.80742 0.54071 0.0
H104 H 0.47741 0.03342 0.34188 0.0
H105 H 0.47941 0.1635 0.39195 0.0
H106 H 0.41892 0.22017 0.44774 0.0
H107 H 0.27125 0.18429 0.55339 0.0
Mn108 Mn 0.66026 0.33023 0.94459 0.0
Mn109 Mn 0.68749 0.39059 0.06214 0.0
C110 C 0.57533 0.37922 0.9844 0.0
C111 C 0.68667 0.3611 0.87037 0.0
C112 C 0.60612 0.19244 1.00826 0.0
O113 O 0.78409 0.36078 0.9608 0.0
O114 O 0.7989 0.41454 0.03844 0.0
C115 C 0.81167 0.59369 0.07738 0.0
N116 N 0.73221 0.52037 0.08229 0.0
C117 C 0.68969 0.62213 0.1244 0.0
C118 C 0.77038 0.69863 0.1189 0.0
C119 C 0.83173 0.68429 0.09539 0.0
C120 C 0.67309 0.53344 0.10532 0.0
H121 H 0.85949 0.58318 0.06004 0.0
C122 C 0.82925 0.40102 1.00047 0.0
O123 O 0.65707 0.27913 0.87815 0.0
O124 O 0.70516 0.4269 0.90611 0.0
N125 N 0.58321 0.37261 0.08812 0.0
C126 C 0.509 0.29154 0.0913 0.0
C127 C 0.44251 0.29385 0.11549 0.0
C128 C 0.45318 0.37934 0.13646 0.0
C129 C 0.53041 0.46182 0.13316 0.0
C130 C 0.5948 0.45522 0.109 0.0
H131 H 0.50041 0.22547 0.07556 0.0
O132 O 0.54669 0.32687 0.94312 0.0
O133 O 0.64941 0.39625 1.00164 0.0
O134 O 0.60763 0.21082 0.96838 0.0
O135 O 0.63797 0.25474 0.04553 0.0
C136 C 0.54572 0.55027 0.15269 0.0
C137 C 0.62509 0.63042 0.14808 0.0
H138 H 0.78614 0.76863 0.13283 0.0
H139 H 0.8945 0.74292 0.09132 0.0
H140 H 0.38311 0.22987 0.11791 0.0
H141 H 0.4015 0.38087 0.15483 0.0
H142 H 0.49663 0.55719 0.17116 0.0
H143 H 0.63599 0.69811 0.16307 0.0
C144 C 0.41743 0.68926 0.24389 0.0
C145 C 0.33783 0.6526 0.21568 0.0
C146 C 0.25667 0.61103 0.28314 0.0
C147 C 0.33672 0.66136 0.31224 0.0
N148 N 0.4945 0.75408 0.32125 0.0
N149 N 0.18134 0.58847 0.20984 0.0
C150 C 0.41759 0.70097 0.29287 0.0
C151 C 0.25701 0.6146 0.23544 0.0
N152 N 0.49267 0.71152 0.22376 0.0
N153 N 0.18017 0.55983 0.30132 0.0
H154 H 0.17809 0.5928 0.17531 0.0
H155 H 0.12277 0.57044 0.22402 0.0
H156 H 0.17825 0.55602 0.33619 0.0
H157 H 0.12038 0.51421 0.28118 0.0
H158 H 0.55088 0.72963 0.24195 0.0
H159 H 0.49475 0.70315 0.18801 0.0
H160 H 0.55477 0.79461 0.30948 0.0
H161 H 0.49763 0.76239 0.35716 0.0
C162 C 0.72863 0.33977 0.74343 0.0
C163 C 0.68915 0.38414 0.72711 0.0
C164 C 0.65179 0.41794 0.8053 0.0
C165 C 0.69368 0.37625 0.82209 0.0
N166 N 0.78652 0.31338 0.80903 0.0
N167 N 0.63552 0.48694 0.74455 0.0
C168 C 0.73661 0.34212 0.79168 0.0
C169 C 0.65788 0.43006 0.75881 0.0
N170 N 0.7548 0.29138 0.71272 0.0
N171 N 0.60085 0.44007 0.83243 0.0
H172 H 0.64197 0.49891 0.71105 0.0
H173 H 0.62024 0.52961 0.76694 0.0
H174 H 0.59102 0.42927 0.86603 0.0
H175 H 0.56112 0.46081 0.82007 0.0
H176 H 0.77174 0.24635 0.72155 0.0
H177 H 0.75505 0.2918 0.67758 0.0
H178 H 0.82772 0.29814 0.78978 0.0
H179 H 0.79311 0.31261 0.84393 0.0
C180 C 0.56038 0.59396 0.02094 0.0
C181 C 0.47618 0.55347 0.03592 0.0
C182 C 0.45643 0.39955 1.01711 0.0
C183 C 0.54157 0.43937 1.00281 0.0
N184 N 0.6783 0.57562 0.99316 0.0
N185 N 0.35393 0.42584 0.06054 0.0
C186 C 0.59514 0.53719 1.00579 0.0
C187 C 0.42751 0.45864 0.03797 0.0
N188 N 0.60473 0.68578 0.01915 0.0
N189 N 0.40261 0.30538 1.00993 0.0
H190 H 0.33245 0.46866 0.07678 0.0
H191 H 0.31892 0.359 0.0667 0.0
H192 H 0.42261 0.25975 0.99628 0.0
H193 H 0.33653 0.27222 1.01492 0.0
H194 H 0.66188 0.71863 1.00341 0.0
H195 H 0.58212 0.72929 0.03246 0.0
H196 H 0.72408 0.64648 1.00014 0.0
H197 H 0.70397 0.5371 0.9771 0.0
C198 C 0.03284 0.47395 0.45738 0.0
C199 C 0.11001 0.55175 0.48289 0.0
C200 C 1.0222 0.57717 0.54028 0.0
C201 C 0.94509 0.49346 0.51797 0.0
N202 N 0.88583 0.34839 0.46137 0.0
N203 N 0.18002 0.66139 0.55529 0.0
C204 C 0.95241 0.43766 0.47803 0.0
C205 C 0.10513 0.59662 0.52697 0.0
N206 N 0.03612 0.43482 0.41351 0.0
N207 N 1.01645 0.64191 0.5719 0.0
H208 H 0.24224 0.67898 0.54623 0.0
H209 H 0.17958 0.69065 0.58935 0.0
H210 H 0.95711 0.637 0.57808 0.0
H211 H 0.0707 0.70626 0.58716 0.0
H212 H 0.98022 0.38437 0.39132 0.0
H213 H 0.09481 0.45717 0.39866 0.0
H214 H 0.89162 0.30354 0.43482 0.0
H215 H 0.8291 0.3151 0.47733 0.0
C216 C 0.59944 0.0603 0.03872 0.0
C217 C 0.56118 0.09266 1.01097 0.0
C218 C 0.44951 0.93192 0.97666 0.0
C219 C 0.47401 0.90039 1.01165 0.0
N220 N 0.57921 0.93614 0.07486 0.0
N221 N 0.4341 0.05585 0.96233 0.0
C222 C 0.55085 0.96539 0.04267 0.0
C223 C 0.48161 0.02753 0.98254 0.0
N224 N 0.68367 0.1181 0.05899 0.0
N225 N 0.40015 0.87315 0.9365 0.0
H226 H 0.45085 0.12474 0.96858 0.0
H227 H 0.37233 1.00906 0.94417 0.0
H228 H 0.38501 0.80512 0.9271 0.0
H229 H 0.38589 0.89637 0.90949 0.0
H230 H 0.71769 0.09591 0.0759 0.0
H231 H 0.72302 0.18613 0.05483 0.0
H232 H 0.62726 0.98147 0.10223 0.0
H233 H 0.55308 0.86623 0.07476 0.0
C234 C 0.62038 0.57001 0.52661 0.0
C235 C 0.60535 0.5455 0.57063 0.0
C236 C 0.49051 0.58421 0.57608 0.0
C237 C 0.50624 0.60918 0.53236 0.0
N238 N 0.60951 0.6596 0.47575 0.0
N239 N 0.5462 0.55831 0.6428 0.0
C240 C 0.57867 0.61286 0.51077 0.0
C241 C 0.54725 0.56291 0.59721 0.0
N242 N 0.66923 0.54712 0.49811 0.0
N243 N 0.41873 0.57524 0.59632 0.0
H244 H 0.58873 0.54515 0.65897 0.0
H245 H 0.51088 0.57743 0.66527 0.0
H246 H 0.37467 0.58818 0.58165 0.0
H247 H 0.39886 0.54741 0.6257 0.0
H248 H 0.67188 0.55261 0.46353 0.0
H249 H 0.70212 0.51656 0.50743 0.0
H250 H 0.66698 0.67164 0.46173 0.0
H251 H 0.58391 0.69595 0.46466 0.0
C252 C 0.0596 0.4685 0.03541 0.0
C253 C 0.10326 0.56596 0.03742 0.0
C254 C 0.97009 0.54605 1.00221 0.0
C255 C 0.92518 0.45059 1.00315 0.0
N256 N 0.92291 0.31788 1.01839 0.0
N257 N 0.09641 0.69958 0.03114 0.0
C258 C 0.96914 0.41067 1.01863 0.0
C259 C 0.05738 0.6054 0.02334 0.0
N260 N 0.104 0.43198 0.05093 0.0
N261 N 0.92906 0.57944 0.98038 0.0
H262 H 0.16156 0.74559 0.04481 0.0
H263 H 0.06286 0.73244 0.02669 0.0
H264 H 0.86513 0.53724 0.96422 0.0
H265 H 0.9604 0.6466 0.97469 0.0
H266 H 0.07971 0.36152 0.04659 0.0
H267 H 0.16698 0.4722 0.0681 0.0
H268 H 0.94719 0.28339 0.0325 0.0
H269 H 0.85788 0.27421 1.00387 0.0
C270 C 0.58616 0.06227 0.56592 0.0
C271 C 0.6108 0.13242 0.54049 0.0
C272 C 0.56693 1.01378 0.46915 0.0
C273 C 0.51812 0.9439 0.49415 0.0
N274 N 0.48315 0.90259 0.56871 0.0
N275 N 0.63177 0.17176 0.46448 0.0
C276 C 0.52843 0.9683 0.54335 0.0
C277 C 0.60332 0.10765 0.49134 0.0
N278 N 0.61974 0.08478 0.61094 0.0
N279 N 0.57892 0.99146 0.42416 0.0
H280 H 0.65757 0.24222 0.47734 0.0
H281 H 0.65757 0.24222 0.47734 0.0
H282 H 0.55452 0.9232 0.4068 0.0
H283 H 0.61611 0.04191 0.40523 0.0
H284 H 0.61109 0.03554 0.62963 0.0
H285 H 0.66219 0.15307 0.62823 0.0
H286 H 0.48667 0.9176 0.60468 0.0
H287 H 0.43617 0.83432 0.5538 0.0
loop_
_geom_bond_atom_site_label_1
_geom_bond_atom_site_label_2
_geom_bond_distance
_geom_bond_site_symmetry_2
_ccdc_geom_bond_type
Mn0 O5 2.095 . S
Mn0 O15 2.162 . S
Mn0 O16 2.297 . S
Mn0 O24 2.385 . S
Mn0 O25 2.209 . S
Mn0 O26 2.094 . S
Mn1 O6 2.121 . S
Mn1 N8 2.257 . S
Mn1 N17 2.282 . S
Mn1 O25 2.215 1_556 S
Mn1 O27 2.117 . S
C2 O24 1.234 . S
C2 O25 1.283 . S
C3 O15 1.281 . S
C3 O16 1.236 . S
C4 O26 1.240 . S
C4 O27 1.264 1_554 S
O5 Mn0 2.095 . S
O5 C14 1.250 . S
O6 Mn1 2.121 . S
O6 C14 1.258 1_556 S
C7 N8 1.326 . S
C7 C11 1.460 . S
C7 H13 0.929 . S
N8 Mn1 2.257 . S
N8 C7 1.326 . S
N8 C12 1.362 . S
C9 C10 1.258 . S
C9 C12 1.431 . S
C9 C29 1.449 1_455 S
C10 C9 1.258 . S
C10 C11 1.477 . S
C10 H30 0.931 1_455 S
C11 C7 1.460 . S
C11 C10 1.477 . S
C11 H31 0.930 . S
C12 N8 1.362 . S
C12 C9 1.431 . S
C12 C22 1.476 . S
H13 C7 0.929 . S
C14 O5 1.250 . S
C14 O6 1.258 1_554 S
O15 Mn0 2.162 . S
O15 C3 1.281 . S
O16 Mn0 2.297 . S
O16 C3 1.236 . S
N17 Mn1 2.282 . S
N17 C18 1.328 . S
N17 C22 1.318 . S
C18 N17 1.328 . S
C18 C19 1.457 . S
C18 H23 0.929 . S
C19 C18 1.457 . S
C19 C20 1.291 . S
C19 H32 0.931 . S
C20 C19 1.291 . S
C20 C21 1.373 . S
C20 H33 0.929 1_455 S
C21 C20 1.373 . S
C21 C22 1.396 . S
C21 C28 1.403 1_455 S
C22 C12 1.476 . S
C22 N17 1.318 . S
C22 C21 1.396 . S
H23 C18 0.929 . S
O24 Mn0 2.385 . S
O24 C2 1.234 . S
O25 Mn0 2.209 . S
O25 Mn1 2.215 1_554 S
O25 C2 1.283 . S
O26 Mn0 2.094 . S
O26 C4 1.240 . S
O27 Mn1 2.117 . S
O27 C4 1.264 1_556 S
C28 C21 1.403 1_655 S
C28 C29 1.399 . S
C28 H34 0.929 . S
C29 C9 1.449 1_655 S
C29 C28 1.399 . S
C29 H35 0.930 . S
H30 C10 0.931 1_655 S
H31 C11 0.930 . S
H32 C19 0.931 . S
H33 C20 0.929 1_655 S
H34 C28 0.929 . S
H35 C29 0.930 . S
Mn36 O41 2.095 . S
Mn36 O51 2.162 . S
Mn36 O52 2.297 . S
Mn36 O60 2.385 . S
Mn36 O61 2.209 . S
Mn36 O62 2.094 . S
Mn37 O42 2.121 . S
Mn37 N44 2.257 . S
Mn37 N53 2.282 . S
Mn37 O61 2.215 . S
Mn37 O63 2.117 . S
C38 O60 1.234 . S
C38 O61 1.283 . S
C39 O51 1.281 . S
C39 O52 1.236 . S
C40 O62 1.240 . S
C40 O63 1.264 . S
O41 Mn36 2.095 . S
O41 C50 1.250 . S
O42 Mn37 2.121 . S
O42 C50 1.258 . S
C43 N44 1.326 . S
C43 C47 1.460 . S
C43 H49 0.929 . S
N44 Mn37 2.257 . S
N44 C43 1.326 . S
N44 C48 1.362 . S
C45 C46 1.258 1_565 S
C45 C48 1.431 1_565 S
C45 C65 1.449 . S
C46 C45 1.258 1_545 S
C46 C47 1.477 . S
C46 H66 0.931 1_545 S
C47 C43 1.460 . S
C47 C46 1.477 . S
C47 H67 0.930 . S
C48 N44 1.362 . S
C48 C45 1.431 1_545 S
C48 C58 1.476 . S
H49 C43 0.929 . S
C50 O41 1.250 . S
C50 O42 1.258 . S
O51 Mn36 2.162 . S
O51 C39 1.281 . S
O52 Mn36 2.297 . S
O52 C39 1.236 . S
N53 Mn37 2.282 . S
N53 C54 1.328 . S
N53 C58 1.318 . S
C54 N53 1.328 . S
C54 C55 1.457 1_545 S
C54 H59 0.929 . S
C55 C54 1.457 1_565 S
C55 C56 1.291 . S
C55 H68 0.931 . S
C56 C55 1.291 . S
C56 C57 1.373 . S
C56 H69 0.929 . S
C57 C56 1.373 . S
C57 C58 1.396 1_565 S
C57 C64 1.403 . S
C58 C48 1.476 . S
C58 N53 1.318 . S
C58 C57 1.396 1_545 S
H59 C54 0.929 . S
O60 Mn36 2.385 . S
O60 C38 1.234 . S
O61 Mn36 2.209 . S
O61 Mn37 2.215 . S
O61 C38 1.283 . S
O62 Mn36 2.094 . S
O62 C40 1.240 . S
O63 Mn37 2.117 . S
O63 C40 1.264 . S
C64 C57 1.403 . S
C64 C65 1.399 . S
C64 H70 0.929 . S
C65 C45 1.449 . S
C65 C64 1.399 . S
C65 H71 0.930 . S
H66 C46 0.931 1_565 S
H67 C47 0.930 . S
H68 C55 0.931 . S
H69 C56 0.929 . S
H70 C64 0.929 . S
H71 C65 0.930 . S
Mn72 O77 2.095 . S
Mn72 O87 2.162 . S
Mn72 O88 2.297 . S
Mn72 O96 2.385 . S
Mn72 O97 2.209 . S
Mn72 O98 2.094 . S
Mn73 O78 2.121 . S
Mn73 N80 2.257 . S
Mn73 N89 2.282 . S
Mn73 O97 2.215 . S
Mn73 O99 2.117 . S
C74 O96 1.234 . S
C74 O97 1.283 . S
C75 O87 1.281 . S
C75 O88 1.236 . S
C76 O98 1.240 . S
C76 O99 1.264 . S
O77 Mn72 2.095 . S
O77 C86 1.250 . S
O78 Mn73 2.121 . S
O78 C86 1.258 . S
C79 N80 1.326 . S
C79 C83 1.460 . S
C79 H85 0.929 . S
N80 Mn73 2.257 . S
N80 C79 1.326 . S
N80 C84 1.362 . S
C81 C82 1.258 1_545 S
C81 C84 1.431 1_545 S
C81 C101 1.449 . S
C82 C81 1.258 1_565 S
C82 C83 1.477 . S
C82 H102 0.931 1_565 S
C83 C79 1.460 . S
C83 C82 1.477 . S
C83 H103 0.930 . S
C84 N80 1.362 . S
C84 C81 1.431 1_565 S
C84 C94 1.476 . S
H85 C79 0.929 . S
C86 O77 1.250 . S
C86 O78 1.258 . S
O87 Mn72 2.162 . S
O87 C75 1.281 . S
O88 Mn72 2.297 . S
O88 C75 1.236 . S
N89 Mn73 2.282 . S
N89 C90 1.328 . S
N89 C94 1.318 . S
C90 N89 1.328 . S
C90 C91 1.457 1_565 S
C90 H95 0.929 . S
C91 C90 1.457 1_545 S
C91 C92 1.291 . S
C91 H104 0.931 . S
C92 C91 1.291 . S
C92 C93 1.373 . S
C92 H105 0.929 . S
C93 C92 1.373 . S
C93 C94 1.396 1_545 S
C93 C100 1.403 . S
C94 C84 1.476 . S
C94 N89 1.318 . S
C94 C93 1.396 1_565 S
H95 C90 0.929 . S
O96 Mn72 2.385 . S
O96 C74 1.234 . S
O97 Mn72 2.209 . S
O97 Mn73 2.215 . S
O97 C74 1.283 . S
O98 Mn72 2.094 . S
O98 C76 1.240 . S
O99 Mn73 2.117 . S
O99 C76 1.264 . S
C100 C93 1.403 . S
C100 C101 1.399 . S
C100 H106 0.929 . S
C101 C81 1.449 . S
C101 C100 1.399 . S
C101 H107 0.930 . S
H102 C82 0.931 1_545 S
H103 C83 0.930 . S
H104 C91 0.931 . S
H105 C92 0.929 . S
H106 C100 0.929 . S
H107 C101 0.930 . S
Mn108 O113 2.095 . S
Mn108 O123 2.162 . S
Mn108 O124 2.297 . S
Mn108 O132 2.385 . S
Mn108 O133 2.209 . S
Mn108 O134 2.094 . S
Mn109 O114 2.121 . S
Mn109 N116 2.257 . S
Mn109 N125 2.282 . S
Mn109 O133 2.215 1_554 S
Mn109 O135 2.117 . S
C110 O132 1.234 . S
C110 O133 1.283 . S
C111 O123 1.281 . S
C111 O124 1.236 . S
C112 O134 1.240 . S
C112 O135 1.264 1_556 S
O113 Mn108 2.095 . S
O113 C122 1.250 . S
O114 Mn109 2.121 . S
O114 C122 1.258 1_554 S
C115 N116 1.326 . S
C115 C119 1.460 . S
C115 H121 0.929 . S
N116 Mn109 2.257 . S
N116 C115 1.326 . S
N116 C120 1.362 . S
C117 C118 1.258 . S
C117 C120 1.431 . S
C117 C137 1.449 . S
C118 C117 1.258 . S
C118 C119 1.477 . S
C118 H138 0.931 . S
C119 C115 1.460 . S
C119 C118 1.477 . S
C119 H139 0.930 . S
C120 N116 1.362 . S
C120 C117 1.431 . S
C120 C130 1.476 . S
H121 C115 0.929 . S
C122 O113 1.250 . S
C122 O114 1.258 1_556 S
O123 Mn108 2.162 . S
O123 C111 1.281 . S
O124 Mn108 2.297 . S
O124 C111 1.236 . S
N125 Mn109 2.282 . S
N125 C126 1.328 . S
N125 C130 1.318 . S
C126 N125 1.328 . S
C126 C127 1.457 . S
C126 H131 0.929 . S
C127 C126 1.457 . S
C127 C128 1.291 . S
C127 H140 0.931 . S
C128 C127 1.291 . S
C128 C129 1.373 . S
C128 H141 0.929 . S
C129 C128 1.373 . S
C129 C130 1.396 . S
C129 C136 1.403 . S
C130 C120 1.476 . S
C130 N125 1.318 . S
C130 C129 1.396 . S
H131 C126 0.929 . S
O132 Mn108 2.385 . S
O132 C110 1.234 . S
O133 Mn108 2.209 . S
O133 Mn109 2.215 1_556 S
O133 C110 1.283 . S
O134 Mn108 2.094 . S
O134 C112 1.240 . S
O135 Mn109 2.117 . S
O135 C112 1.264 1_554 S
C136 C129 1.403 . S
C136 C137 1.399 . S
C136 H142 0.929 . S
C137 C117 1.449 . S
C137 C136 1.399 . S
C137 H143 0.930 . S
H138 C118 0.931 . S
H139 C119 0.930 . S
H140 C127 0.931 . S
H141 C128 0.929 . S
H142 C136 0.929 . S
H143 C137 0.930 . S
C144 C145 1.363 . S
C144 C150 1.379 . S
C144 N152 1.356 . S
C145 C144 1.363 . S
C145 C151 1.363 . S
C146 C147 1.363 . S
C146 C151 1.379 . S
C146 N153 1.356 . S
C147 C146 1.363 . S
C147 C150 1.363 . S
N148 C150 1.356 . S
N148 H160 0.984 . S
N148 H161 0.985 . S
N149 C151 1.356 . S
N149 H154 0.984 . S
N149 H155 0.985 . S
C150 C144 1.379 . S
C150 C147 1.363 . S
C150 N148 1.356 . S
C151 C145 1.363 . S
C151 C146 1.379 . S
C151 N149 1.356 . S
N152 C144 1.356 . S
N152 H158 0.984 . S
N152 H159 0.984 . S
N153 C146 1.356 . S
N153 H156 0.984 . S
N153 H157 0.985 . S
H154 N149 0.984 . S
H155 N149 0.985 . S
H156 N153 0.984 . S
H157 N153 0.985 . S
H158 N152 0.984 . S
H159 N152 0.984 . S
H160 N148 0.984 . S
H161 N148 0.985 . S
C162 C163 1.363 . S
C162 C168 1.379 . S
C162 N170 1.356 . S
C163 C162 1.363 . S
C163 C169 1.363 . S
C164 C165 1.363 . S
C164 C169 1.379 . S
C164 N171 1.356 . S
C165 C164 1.363 . S
C165 C168 1.363 . S
N166 C168 1.356 . S
N166 H178 0.984 . S
N166 H179 0.985 . S
N167 C169 1.356 . S
N167 H172 0.984 . S
N167 H173 0.985 . S
C168 C162 1.379 . S
C168 C165 1.363 . S
C168 N166 1.356 . S
C169 C163 1.363 . S
C169 C164 1.379 . S
C169 N167 1.356 . S
N170 C162 1.356 . S
N170 H176 0.984 . S
N170 H177 0.984 . S
N171 C164 1.356 . S
N171 H174 0.984 . S
N171 H175 0.985 . S
H172 N167 0.984 . S
H173 N167 0.985 . S
H174 N171 0.984 . S
H175 N171 0.985 . S
H176 N170 0.984 . S
H177 N170 0.984 . S
H178 N166 0.984 . S
H179 N166 0.985 . S
C180 C181 1.363 1_556 S
C180 C186 1.379 . S
C180 N188 1.356 . S
C181 C180 1.363 1_554 S
C181 C187 1.363 . S
C182 C183 1.363 1_554 S
C182 C187 1.379 . S
C182 N189 1.356 . S
C183 C182 1.363 1_556 S
C183 C186 1.363 . S
N184 C186 1.356 . S
N184 H196 0.984 . S
N184 H197 0.985 . S
N185 C187 1.356 . S
N185 H190 0.984 . S
N185 H191 0.985 . S
C186 C180 1.379 . S
C186 C183 1.363 . S
C186 N184 1.356 . S
C187 C181 1.363 . S
C187 C182 1.379 . S
C187 N185 1.356 . S
N188 C180 1.356 . S
N188 H194 0.984 . S
N188 H195 0.984 . S
N189 C182 1.356 . S
N189 H192 0.984 1_554 S
N189 H193 0.985 . S
H190 N185 0.984 . S
H191 N185 0.985 . S
H192 N189 0.984 1_556 S
H193 N189 0.985 . S
H194 N188 0.984 . S
H195 N188 0.984 . S
H196 N184 0.984 . S
H197 N184 0.985 . S
C198 C199 1.363 . S
C198 C204 1.379 1_455 S
C198 N206 1.356 . S
C199 C198 1.363 . S
C199 C205 1.363 . S
C200 C201 1.363 1_455 S
C200 C205 1.379 . S
C200 N207 1.356 . S
C201 C200 1.363 1_655 S
C201 C204 1.363 . S
N202 C204 1.356 . S
N202 H214 0.984 . S
N202 H215 0.985 . S
N203 C205 1.356 . S
N203 H208 0.984 . S
N203 H209 0.985 . S
C204 C198 1.379 1_655 S
C204 C201 1.363 . S
C204 N202 1.356 . S
C205 C199 1.363 . S
C205 C200 1.379 . S
C205 N203 1.356 . S
N206 C198 1.356 . S
N206 H212 0.984 . S
N206 H213 0.984 . S
N207 C200 1.356 . S
N207 H210 0.984 1_455 S
N207 H211 0.985 . S
H208 N203 0.984 . S
H209 N203 0.985 . S
H210 N207 0.984 1_655 S
H211 N207 0.985 . S
H212 N206 0.984 . S
H213 N206 0.984 . S
H214 N202 0.984 . S
H215 N202 0.985 . S
C216 C217 1.363 1_554 S
C216 C222 1.379 1_545 S
C216 N224 1.356 . S
C217 C216 1.363 1_556 S
C217 C223 1.363 . S
C218 C219 1.363 1_556 S
C218 C223 1.379 1_565 S
C218 N225 1.356 . S
C219 C218 1.363 1_554 S
C219 C222 1.363 . S
N220 C222 1.356 . S
N220 H232 0.983 1_565 S
N220 H233 0.985 . S
N221 C223 1.356 . S
N221 H226 0.984 . S
N221 H227 0.983 1_545 S
C222 C216 1.379 1_565 S
C222 C219 1.363 . S
C222 N220 1.356 . S
C223 C217 1.363 . S
C223 C218 1.379 1_545 S
C223 N221 1.356 . S
N224 C216 1.356 . S
N224 H230 0.984 . S
N224 H231 0.984 . S
N225 C218 1.356 . S
N225 H228 0.984 . S
N225 H229 0.985 . S
H226 N221 0.984 . S
H227 N221 0.983 1_565 S
H228 N225 0.984 . S
H229 N225 0.985 . S
H230 N224 0.984 . S
H231 N224 0.984 . S
H232 N220 0.983 1_545 S
H233 N220 0.985 . S
C234 C235 1.363 . S
C234 C240 1.379 . S
C234 N242 1.356 . S
C235 C234 1.363 . S
C235 C241 1.363 . S
C236 C237 1.363 . S
C236 C241 1.379 . S
C236 N243 1.356 . S
C237 C236 1.363 . S
C237 C240 1.363 . S
N238 C240 1.356 . S
N238 H250 0.984 . S
N238 H251 0.985 . S
N239 C241 1.356 . S
N239 H244 0.984 . S
N239 H245 0.985 . S
C240 C234 1.379 . S
C240 C237 1.363 . S
C240 N238 1.356 . S
C241 C235 1.363 . S
C241 C236 1.379 . S
C241 N239 1.356 . S
N242 C234 1.356 . S
N242 H248 0.984 . S
N242 H249 0.984 . S
N243 C236 1.356 . S
N243 H246 0.984 . S
N243 H247 0.985 . S
H244 N239 0.984 . S
H245 N239 0.985 . S
H246 N243 0.984 . S
H247 N243 0.985 . S
H248 N242 0.984 . S
H249 N242 0.984 . S
H250 N238 0.984 . S
H251 N238 0.985 . S
C252 C253 1.363 1_655 S
C252 C258 1.379 . S
C252 N260 1.356 1_655 S
C253 C252 1.363 1_455 S
C253 C259 1.363 . S
C254 C255 1.363 . S
C254 C259 1.379 1_656 S
C254 N261 1.356 . S
C255 C254 1.363 . S
C255 C258 1.363 1_556 S
N256 C258 1.356 . S
N256 H268 0.984 . S
N256 H269 0.985 1_554 S
N257 C259 1.356 . S
N257 H262 0.984 . S
N257 H263 0.985 1_554 S
C258 C252 1.379 . S
C258 C255 1.363 1_554 S
C258 N256 1.356 . S
C259 C253 1.363 . S
C259 C254 1.379 1_454 S
C259 N257 1.356 . S
N260 C252 1.356 1_455 S
N260 H266 0.984 . S
N260 H267 0.984 . S
N261 C254 1.356 . S
N261 H264 0.984 . S
N261 H265 0.985 . S
H262 N257 0.984 . S
H263 N257 0.985 1_556 S
H264 N261 0.984 . S
H265 N261 0.985 . S
H266 N260 0.984 . S
H267 N260 0.984 . S
H268 N256 0.984 . S
H269 N256 0.985 1_556 S
C270 C271 1.363 . S
C270 C276 1.379 1_545 S
C270 N278 1.356 . S
C271 C270 1.363 . S
C271 C277 1.363 . S
C272 C273 1.363 . S
C272 C277 1.379 1_565 S
C272 N279 1.356 . S
C273 C272 1.363 . S
C273 C276 1.363 . S
N274 C276 1.356 . S
N274 H286 0.984 . S
N274 H287 0.985 . S
N275 C277 1.356 . S
N275 H280 0.984 . S
N275 H281 0.985 . S
C276 C270 1.379 1_565 S
C276 C273 1.363 . S
C276 N274 1.356 . S
C277 C271 1.363 . S
C277 C272 1.379 1_545 S
C277 N275 1.356 . S
N278 C270 1.356 . S
N278 H284 0.984 . S
N278 H285 0.984 . S
N279 C272 1.356 . S
N279 H282 0.984 . S
N279 H283 0.985 . S
H280 N275 0.984 . S
H281 N275 0.985 . S
H282 N279 0.984 . S
H283 N279 0.985 . S
H284 N278 0.984 . S
H285 N278 0.984 . S
H286 N274 0.984 . S
H287 N274 0.985 . S
C145 C3 1.517 . S
C147 C76 1.515 . S
C163 C40 1.515 . S
C165 C111 1.517 . S
C181 C14 1.410 . S
C183 C110 1.457 . S
C199 C86 1.503 . S
C201 C39 1.581 . S
C217 C112 1.616 . S
C219 C4 1.616 . S
C235 C50 1.503 . S
C237 C75 1.581 . S
C253 C2 1.457 . S
C255 C122 1.410 . S
C271 C38 1.415 . S
C273 C74 1.415 . S
