# Generated by pormake.
# Topology snk, (6)-cn, num edge types: 1
# Building blocks:
#     Node 0, Type 0, BuildingBlock: KUMBUR_clean_sbu_1, # of connection points: 6
#     Node 1, Type 0, BuildingBlock: KUMBUR_clean_sbu_1, # of connection points: 6
#     Node 2, Type 0, BuildingBlock: KUMBUR_clean_sbu_1, # of connection points: 6
#     Node 3, Type 0, BuildingBlock: KUMBUR_clean_sbu_1, # of connection points: 6
#     Node 4, Type 0, BuildingBlock: KUMBUR_clean_sbu_1, # of connection points: 6
#     Node 5, Type 0, BuildingBlock: KUMBUR_clean_sbu_1, # of connection points: 6
#     Node 6, Type 0, BuildingBlock: KUMBUR_clean_sbu_1, # of connection points: 6
#     Node 7, Type 0, BuildingBlock: KUMBUR_clean_sbu_1, # of connection points: 6
#     Edge 8, Type (0, 0), BuildingBlock: EZIPEK_clean_linker_0, # of connection points: 2
#     Edge 9, Type (0, 0), BuildingBlock: EZIPEK_clean_linker_0, # of connection points: 2
#     Edge 10, Type (0, 0), BuildingBlock: EZIPEK_clean_linker_0, # of connection points: 2
#     Edge 11, Type (0, 0), BuildingBlock: EZIPEK_clean_linker_0, # of connection points: 2
#     Edge 12, Type (0, 0), BuildingBlock: EZIPEK_clean_linker_0, # of connection points: 2
#     Edge 13, Type (0, 0), BuildingBlock: EZIPEK_clean_linker_0, # of connection points: 2
#     Edge 14, Type (0, 0), BuildingBlock: EZIPEK_clean_linker_0, # of connection points: 2
#     Edge 15, Type (0, 0), BuildingBlock: EZIPEK_clean_linker_0, # of connection points: 2
#     Edge 16, Type (0, 0), BuildingBlock: EZIPEK_clean_linker_0, # of connection points: 2
#     Edge 17, Type (0, 0), BuildingBlock: EZIPEK_clean_linker_0, # of connection points: 2
#     Edge 18, Type (0, 0), BuildingBlock: EZIPEK_clean_linker_0, # of connection points: 2
#     Edge 19, Type (0, 0), BuildingBlock: EZIPEK_clean_linker_0, # of connection points: 2
#     Edge 20, Type (0, 0), BuildingBlock: EZIPEK_clean_linker_0, # of connection points: 2
#     Edge 21, Type (0, 0), BuildingBlock: EZIPEK_clean_linker_0, # of connection points: 2
#     Edge 22, Type (0, 0), BuildingBlock: EZIPEK_clean_linker_0, # of connection points: 2
#     Edge 23, Type (0, 0), BuildingBlock: EZIPEK_clean_linker_0, # of connection points: 2
#     Edge 24, Type (0, 0), BuildingBlock: EZIPEK_clean_linker_0, # of connection points: 2
#     Edge 25, Type (0, 0), BuildingBlock: EZIPEK_clean_linker_0, # of connection points: 2
#     Edge 26, Type (0, 0), BuildingBlock: EZIPEK_clean_linker_0, # of connection points: 2
#     Edge 27, Type (0, 0), BuildingBlock: EZIPEK_clean_linker_0, # of connection points: 2
#     Edge 28, Type (0, 0), BuildingBlock: EZIPEK_clean_linker_0, # of connection points: 2
#     Edge 29, Type (0, 0), BuildingBlock: EZIPEK_clean_linker_0, # of connection points: 2
#     Edge 30, Type (0, 0), BuildingBlock: EZIPEK_clean_linker_0, # of connection points: 2
#     Edge 31, Type (0, 0), BuildingBlock: EZIPEK_clean_linker_0, # of connection points: 2
# Relax obj value: 0.014
# Max RMSD: 0.090
# Mean RMSD: 0.087
data_MOF--net-snk--node1-KUMBUR_clean_sbu_1--edge1-EZIPEK_clean_linker_0
_symmetry_space_group_name_H-M    P1
_symmetry_Int_Tables_number       1
_symmetry_cell_setting            triclinic
loop_
_symmetry_equiv_pos_as_xyz
'x, y, z'
_cell_length_a     27.163018
_cell_length_b     27.800088
_cell_length_c     20.206058
_cell_angle_alpha  90.32795
_cell_angle_beta   89.767623
_cell_angle_gamma 90.617029
loop_
_atom_site_label
_atom_site_type_symbol
_atom_site_fract_x
_atom_site_fract_y
_atom_site_fract_z
_atom_type_partial_charge
Tb0 Tb 0.00889 0.03898 0.61543 0.0
C1 C 0.95672 0.86699 0.41213 0.0
N2 N 0.9983 0.88551 0.43938 0.0
C3 C 0.03412 0.80784 0.44034 0.0
C4 C 0.95021 0.81711 0.40412 0.0
C5 C 0.03691 0.85674 0.4539 0.0
C6 C 0.99003 0.78752 0.41741 0.0
C7 C 0.88043 0.88053 0.35432 0.0
C8 C 0.92309 0.89833 0.38625 0.0
C9 C 0.87115 0.8307 0.35242 0.0
C10 C 0.90621 0.79893 0.3771 0.0
Tb11 Tb 0.00601 0.96619 0.44244 0.0
N12 N 0.93372 0.94608 0.38902 0.0
C13 C 0.84932 0.91316 0.32354 0.0
C14 C 0.90495 0.97771 0.35499 0.0
C15 C 0.86212 0.96188 0.32293 0.0
H16 H 0.07142 0.87176 0.47075 0.0
H17 H 0.8394 0.98721 0.29684 0.0
H18 H 0.92881 0.13126 0.59513 0.0
H19 H 0.1973 0.03846 0.69579 0.0
H20 H 0.91521 0.01512 0.35011 0.0
H21 H 0.81645 0.90092 0.29803 0.0
H22 H 0.11535 0.00254 0.67244 0.0
H23 H 0.06696 0.78675 0.44476 0.0
H24 H 0.83812 0.81632 0.32945 0.0
H25 H 0.89994 0.7605 0.37246 0.0
H26 H 0.93635 0.21723 0.5718 0.0
H27 H 0.98814 0.74976 0.40482 0.0
H28 H 0.21186 0.1254 0.67608 0.0
N29 N 0.00648 0.12089 0.60571 0.0
C30 C 0.05071 0.14347 0.61528 0.0
C31 C 0.96892 0.19677 0.58297 0.0
C32 C 0.05623 0.19322 0.60478 0.0
C33 C 0.96508 0.14745 0.59475 0.0
C34 C 0.0149 0.21944 0.58587 0.0
N35 N 0.0856 0.06778 0.6368 0.0
C36 C 0.12195 0.04019 0.66285 0.0
C37 C 0.13712 0.13832 0.64472 0.0
C38 C 0.09116 0.11629 0.6329 0.0
C39 C 0.17595 0.10976 0.66646 0.0
C40 C 0.16802 0.0606 0.67696 0.0
H41 H 0.01784 0.25738 0.57487 0.0
H42 H 0.10883 0.25215 0.59949 0.0
H43 H 0.17783 0.20554 0.64211 0.0
O44 O 0.01433 0.00822 0.71204 0.0
O45 O 0.07249 0.04821 0.54428 0.0
O46 O 0.02973 0.04059 0.45071 0.0
O47 O 0.9854 0.07876 0.69683 0.0
O48 O 0.03594 0.96513 0.61711 0.0
O49 O 0.06784 0.95367 0.51203 0.0
O50 O 0.0115 0.98306 0.34218 0.0
O51 O 0.96296 0.93194 0.5261 0.0
O52 O 0.9416 -0.0043 0.59381 0.0
O53 O 0.07033 0.94587 0.38938 0.0
O54 O 0.96213 0.03109 0.4443 0.0
O55 O 0.94371 0.05531 0.55209 0.0
C56 C 0.07019 0.05371 0.47973 0.0
C57 C 0.96771 0.04523 0.80173 0.0
C58 C 0.96817 0.03342 0.92176 0.0
C59 C 0.93 0.06689 0.92773 0.0
C60 C 0.92597 0.07439 0.8088 0.0
C61 C 0.90738 0.08501 0.87157 0.0
C62 C 0.98705 0.02286 0.85815 0.0
C63 C 0.06672 0.94402 0.57612 0.0
C64 C 0.99729 0.0469 0.74009 0.0
C65 C 0.10301 0.2147 0.61134 0.0
C66 C 0.14282 0.1878 0.63375 0.0
C67 C 0.93799 0.94954 0.57792 0.0
C68 C 0.06214 0.9391 0.2707 0.0
C69 C 0.05526 0.94152 0.15031 0.0
C70 C 0.07453 0.89502 0.14629 0.0
C71 C 0.08135 0.89255 0.2662 0.0
C72 C 0.04979 0.96354 0.21239 0.0
C73 C 0.08725 0.87068 0.20409 0.0
C74 C 0.93672 0.05652 0.487 0.0
C75 C 0.0544 0.96407 0.33436 0.0
H76 H 0.91654 0.07773 0.97605 0.0
H77 H 0.90952 0.09142 0.7663 0.0
H78 H 0.87634 0.10867 0.87713 0.0
H79 H 0.01885 -0.00015 0.8532 0.0
H80 H 0.078 0.87707 0.0988 0.0
H81 H 0.0911 0.87293 0.31031 0.0
H82 H 0.03433 -0.00067 0.21528 0.0
H83 H 0.10041 0.83423 0.20079 0.0
Tb84 Tb 0.20131 0.74198 0.85138 0.0
C85 C 0.40247 0.70697 0.71248 0.0
N86 N 0.37715 0.74794 0.72494 0.0
C87 C 0.45016 0.78609 0.76566 0.0
C88 C 0.45213 0.70286 0.73063 0.0
C89 C 0.40096 0.78818 0.74734 0.0
C90 C 0.47548 0.74282 0.75979 0.0
C91 C 0.40415 0.62774 0.66203 0.0
C92 C 0.37827 0.6693 0.68069 0.0
C93 C 0.45362 0.62314 0.68037 0.0
C94 C 0.47706 0.65996 0.7164 0.0
Tb95 Tb 0.29595 0.74522 0.69881 0.0
N96 N 0.32944 0.67366 0.66773 0.0
C97 C 0.37922 0.59169 0.62669 0.0
C98 C 0.3054 0.63947 0.63081 0.0
C99 C 0.32977 0.5978 0.61037 0.0
H100 H 0.38281 0.82242 0.7492 0.0
H101 H 0.31038 0.57042 0.58209 0.0
H102 H 0.1111 0.66607 0.8066 0.0
H103 H 0.19928 0.93128 0.91726 0.0
H104 H 0.2677 0.6442 0.61591 0.0
H105 H 0.39777 0.55902 0.61243 0.0
H106 H 0.23463 0.85046 0.91065 0.0
H107 H 0.46856 0.81857 0.7817 0.0
H108 H 0.47398 0.59108 0.66744 0.0
H109 H 0.51531 0.65578 0.72934 0.0
H110 H 0.02594 0.67258 0.76659 0.0
H111 H 0.51398 0.74216 0.77285 0.0
H112 H 0.11415 0.94494 0.879 0.0
N113 N 0.11937 0.7412 0.82564 0.0
C114 C 0.09649 0.78458 0.82901 0.0
C115 C 0.04553 0.70439 0.78363 0.0
C116 C 0.04757 0.78977 0.80749 0.0
C117 C 0.09403 0.70092 0.80597 0.0
C118 C 0.02242 0.74908 0.78353 0.0
N119 N 0.17247 0.81892 0.86271 0.0
C120 C 0.19851 0.85601 0.89071 0.0
C121 C 0.10184 0.87033 0.85168 0.0
C122 C 0.12385 0.82466 0.84862 0.0
C123 C 0.12979 0.90932 0.87525 0.0
C124 C 0.17798 0.90184 0.89628 0.0
H125 H 0.98502 0.75167 0.76555 0.0
H126 H 0.98854 0.84027 0.7915 0.0
H127 H 0.0355 0.91047 0.83225 0.0
O128 O 0.2126 0.75943 0.95216 0.0
O129 O 0.17859 0.77709 0.75746 0.0
O130 O 0.24604 0.8064 0.70311 0.0
O131 O 0.15772 0.70736 0.9236 0.0
O132 O 0.27384 0.77704 0.865 0.0
O133 O 0.29614 0.80908 0.76428 0.0
O134 O 0.27523 0.74114 0.59762 0.0
O135 O 0.31853 0.70141 0.78631 0.0
O136 O 0.252 0.68078 0.85393 0.0
O137 O 0.33993 0.78215 0.62918 0.0
O138 O 0.22846 0.70204 0.6879 0.0
O139 O 0.19885 0.67546 0.78934 0.0
C140 C 0.19832 0.80658 0.71351 0.0
C141 C 0.18927 0.70149 0.03431 0.0
C142 C 0.21585 0.70037 0.15086 0.0
C143 C 0.19124 0.65602 0.1585 0.0
C144 C 0.16602 0.65664 0.04381 0.0
C145 C 0.16737 0.63406 0.1052 0.0
C146 C 0.2156 0.72259 0.08785 0.0
C147 C 0.29819 0.80908 0.82948 0.0
C148 C 0.17928 0.72919 0.97293 0.0
C149 C 0.02605 0.83554 0.80815 0.0
C150 C 0.05287 0.87558 0.83108 0.0
C151 C 0.29867 0.677 0.83629 0.0
C152 C 0.32339 0.78163 0.51046 0.0
C153 C 0.30879 0.77485 0.39098 0.0
C154 C 0.34678 0.80843 0.37986 0.0
C155 C 0.36138 0.81507 0.4976 0.0
C156 C 0.29679 0.76167 0.45664 0.0
C157 C 0.37279 0.82841 0.43284 0.0
C158 C 0.20284 0.67131 0.72397 0.0
C159 C 0.31273 0.76774 0.57993 0.0
H160 H 0.19073 0.63819 0.20606 0.0
H161 H 0.1453 0.63956 1.00433 0.0
H162 H 0.14875 0.59981 0.11195 0.0
H163 H 0.23391 0.7571 0.08154 0.0
H164 H 0.35632 0.81915 0.3299 0.0
H165 H 0.38242 0.83107 0.53768 0.0
H166 H 0.26742 0.73575 0.46543 0.0
H167 H 0.40207 0.85428 0.42367 0.0
Tb168 Tb 0.50558 0.95718 0.10069 0.0
C169 C 0.5616 0.13853 0.94519 0.0
N170 N 0.5158 0.1194 0.95509 0.0
C171 C 0.48534 0.19781 0.98286 0.0
C172 C 0.57163 0.18751 0.95796 0.0
C173 C 0.4772 0.14923 0.96843 0.0
C174 C 0.53298 0.21665 0.97968 0.0
C175 C 0.64534 0.12827 0.905 0.0
C176 C 0.59811 0.1094 0.91907 0.0
C177 C 0.65593 0.17657 0.91975 0.0
C178 C 0.6193 0.20593 0.94651 0.0
Tb179 Tb 0.50843 0.03871 0.93212 0.0
N180 N 0.58699 0.0624 0.90696 0.0
C181 C 0.68016 0.09824 0.87535 0.0
C182 C 0.61992 0.03366 0.87487 0.0
C183 C 0.66711 0.0509 0.8593 0.0
H184 H 0.43989 0.13633 0.96676 0.0
H185 H 0.69322 0.02777 0.8345 0.0
H186 H 0.58597 0.8697 0.06942 0.0
H187 H 0.31802 0.95153 0.19356 0.0
H188 H 0.60951 -0.00235 0.86012 0.0
H189 H 0.71673 0.11156 0.8632 0.0
H190 H 0.39731 0.99018 0.16845 0.0
H191 H 0.45476 0.22082 0.99554 0.0
H192 H 0.69204 0.19182 0.90958 0.0
H193 H 0.62814 0.24312 0.95591 0.0
H194 H 0.58084 0.78295 0.0445 0.0
H195 H 0.53865 0.25426 0.99087 0.0
H196 H 0.30618 0.86426 0.17358 0.0
N197 N 0.50956 0.87565 0.0922 0.0
C198 C 0.46686 0.85147 0.1054 0.0
C199 C 0.54841 0.80193 0.06104 0.0
C200 C 0.46213 0.80202 0.09137 0.0
C201 C 0.551 0.85127 0.07455 0.0
C202 C 0.50341 0.77758 0.06719 0.0
N203 N 0.43131 0.92572 0.13424 0.0
C204 C 0.39324 0.95223 0.15912 0.0
C205 C 0.38103 0.85386 0.13939 0.0
C206 C 0.42653 0.87722 0.12776 0.0
C207 C 0.34163 0.88097 0.16341 0.0
C208 C 0.34805 0.93027 0.17425 0.0
H209 H 0.50099 0.73993 0.05337 0.0
H210 H 0.41035 0.74262 0.08211 0.0
H211 H 0.34068 0.78649 0.13024 0.0
O212 O 0.49543 0.9582 0.20384 0.0
O213 O 0.45282 0.9331 1.02401 0.0
O214 O 0.45317 0.98004 0.92821 0.0
O215 O 0.56787 0.94466 0.16136 0.0
O216 O 0.46252 0.02236 0.10395 0.0
O217 O 0.44723 0.05608 1.00103 0.0
O218 O 0.52185 0.0306 0.83005 0.0
O219 O 0.56892 0.04276 1.00586 0.0
O220 O 0.52963 0.03194 0.10443 0.0
O221 O 0.46484 0.07693 0.86467 0.0
O222 O 0.53362 0.96434 0.9242 0.0
O223 O 0.56632 0.94798 0.02728 0.0
C224 C 0.43682 0.94344 0.96409 0.0
C225 C 0.5615 0.94845 0.28301 0.0
C226 C 0.55217 0.96237 0.40221 0.0
C227 C 0.60191 0.95107 0.41096 0.0
C228 C 0.61123 0.93738 0.29304 0.0
C229 C 0.63119 0.93868 0.35665 0.0
C230 C 0.53199 0.96093 0.33813 0.0
C231 C 0.43955 0.05287 0.06569 0.0
C232 C 0.5418 0.9513 0.21494 0.0
C233 C 0.41584 0.77945 0.09803 0.0
C234 C 0.37582 0.8048 0.12403 0.0
C235 C 0.56427 0.05219 0.06937 0.0
C236 C 0.45468 0.04054 0.75844 0.0
C237 C 0.44812 0.01298 0.6438 0.0
C238 C 0.39687 0.00901 0.65126 0.0
C239 C 0.40327 0.03637 0.76516 0.0
C240 C 0.47682 0.02887 0.69744 0.0
C241 C 0.37463 0.02068 0.71171 0.0
C242 C 0.56446 0.94111 0.96229 0.0
C243 C 0.48609 0.05826 0.81302 0.0
H244 H 0.61806 0.95202 0.4599 0.0
H245 H 0.63494 0.92849 0.25161 0.0
H246 H 0.66965 0.93048 0.36382 0.0
H247 H 0.4937 0.97029 0.33139 0.0
H248 H 0.37422 -0.00318 0.61034 0.0
H249 H 0.3852 0.0454 0.81139 0.0
H250 H 0.51643 0.03213 0.6916 0.0
H251 H 0.33506 0.01762 0.71716 0.0
Tb252 Tb 0.21601 0.25746 0.1996 0.0
C253 C 0.40775 0.26016 0.40133 0.0
N254 N 0.38172 0.22237 0.37643 0.0
C255 C 0.45311 0.17246 0.38415 0.0
C256 C 0.45725 0.25516 0.42088 0.0
C257 C 0.40396 0.17905 0.3665 0.0
C258 C 0.47966 0.21045 0.41262 0.0
C259 C 0.41022 0.344 0.43378 0.0
C260 C 0.38432 0.30375 0.40847 0.0
C261 C 0.45927 0.3392 0.45423 0.0
C262 C 0.48258 0.29469 0.44842 0.0
Tb263 Tb 0.2993 0.23479 0.36224 0.0
N264 N 0.33623 0.30668 0.39054 0.0
C265 C 0.3859 0.3878 0.43861 0.0
C266 C 0.31216 0.34931 0.39727 0.0
C267 C 0.33666 0.39054 0.42029 0.0
H268 H 0.38298 0.14864 0.34922 0.0
H269 H 0.3173 0.42426 0.42464 0.0
H270 H 0.13925 0.35016 0.21586 0.0
H271 H 0.17941 0.06718 0.15772 0.0
H272 H 0.27426 0.35242 0.38516 0.0
H273 H 0.40484 0.41943 0.45674 0.0
H274 H 0.23046 0.13714 0.18733 0.0
H275 H 0.47009 0.13777 0.37716 0.0
H276 H 0.47951 0.36969 0.47444 0.0
H277 H 0.52051 0.29149 0.46406 0.0
H278 H 0.0539 0.36762 0.18369 0.0
H279 H 0.51755 0.20509 0.42719 0.0
H280 H 0.09235 0.0781 0.12606 0.0
N281 N 0.13468 0.27605 0.18836 0.0
C282 C 0.10558 0.23997 0.16457 0.0
C283 C 0.06798 0.33153 0.17819 0.0
C284 C 0.05691 0.24865 0.14423 0.0
C285 C 0.11612 0.32121 0.19751 0.0
C286 C 0.03865 0.29538 0.14998 0.0
N287 N 0.17269 0.18786 0.17712 0.0
C288 C 0.19268 0.14288 0.17462 0.0
C289 C 0.095 0.15526 0.13911 0.0
C290 C 0.12489 0.19423 0.15994 0.0
C291 C 0.11468 0.10903 0.13963 0.0
C292 C 0.16371 0.1028 0.15762 0.0
H293 H 1.00164 0.30367 0.13415 0.0
H294 H 0.99058 0.21647 0.10319 0.0
H295 H 0.02336 0.13427 0.10107 0.0
O296 O 0.24387 0.24679 0.10362 0.0
O297 O 0.18192 0.21276 0.27734 0.0
O298 O 0.24778 0.17864 0.32757 0.0
O299 O 0.2007 0.30886 0.12651 0.0
O300 O 0.28035 0.2119 0.18519 0.0
O301 O 0.31376 0.18263 0.28273 0.0
O302 O 0.2698 0.24162 0.45826 0.0
O303 O 0.33753 0.27594 0.28388 0.0
O304 O 0.27097 0.31002 0.23608 0.0
O305 O 0.31661 0.18236 0.43284 0.0
O306 O 0.23053 0.27551 0.37442 0.0
O307 O 0.20613 0.31163 0.27702 0.0
C308 C 0.19979 0.18228 0.32052 0.0
C309 C 0.19577 0.27762 1.01709 0.0
C310 C 0.19933 0.25978 0.89917 0.0
C311 C 0.1483 0.26612 0.89469 0.0
C312 C 0.1448 0.28493 1.01169 0.0
C313 C 0.12118 0.27862 0.95092 0.0
C314 C 0.22286 0.26524 0.96042 0.0
C315 C 0.31058 0.18375 0.21735 0.0
C316 C 0.2222 0.2844 0.08005 0.0
C317 C 0.02801 0.21048 0.11932 0.0
C318 C 0.04665 0.16368 0.11814 0.0
C319 C 0.31897 0.30395 0.23817 0.0
C320 C 0.31924 0.21091 0.54371 0.0
C321 C 0.31393 0.2264 0.66214 0.0
C322 C 0.36526 0.22315 0.66697 0.0
C323 C 0.37053 0.2063 0.54951 0.0
C324 C 0.29118 0.22064 0.60042 0.0
C325 C 0.39339 0.21298 0.61074 0.0
C326 C 0.2023 0.30536 0.34145 0.0
C327 C 0.29356 0.20455 0.48014 0.0
H328 H 0.12978 0.26241 0.8475 0.0
H329 H 0.12329 0.2963 0.05379 0.0
H330 H 0.08193 0.28433 0.94719 0.0
H331 H 0.26241 0.26074 0.96356 0.0
H332 H 0.38329 0.22764 0.71437 0.0
H333 H 0.39298 0.19708 0.5073 0.0
H334 H 0.25167 0.22381 0.59645 0.0
H335 H 0.43293 0.20969 0.61472 0.0
Tb336 Tb 0.70335 0.23984 0.35063 0.0
C337 C 0.90345 0.18899 0.22507 0.0
N338 N 0.88353 0.23372 0.22536 0.0
C339 C 0.96025 0.26778 0.26163 0.0
C340 C 0.95268 0.18196 0.24349 0.0
C341 C 0.91153 0.27315 0.24172 0.0
C342 C 0.98094 0.22211 0.26188 0.0
C343 C 0.89245 0.103 0.20941 0.0
C344 C 0.87327 0.14996 0.20968 0.0
C345 C 0.9418 0.09581 0.2271 0.0
C346 C 0.97182 0.1352 0.24421 0.0
Tb347 Tb 0.80198 0.23745 0.19918 0.0
N348 N 0.82503 0.15817 0.19568 0.0
C349 C 0.86162 0.06481 0.19051 0.0
C350 C 0.79629 0.1215 0.17178 0.0
C351 C 0.8136 0.07424 0.17041 0.0
H352 H 0.89666 0.30894 0.23926 0.0
H353 H 0.79019 0.04527 0.15249 0.0
H354 H 0.6133 0.16427 0.30213 0.0
H355 H 0.69264 0.41988 0.45268 0.0
H356 H 0.76093 0.12847 0.15075 0.0
H357 H 0.87502 0.02823 0.18909 0.0
H358 H 0.73225 0.34259 0.42936 0.0
H359 H 0.98214 0.29899 0.27544 0.0
H360 H 0.95708 0.05996 0.2277 0.0
H361 H 0.00968 0.12913 0.25843 0.0
H362 H 0.52937 0.17197 0.25765 0.0
H363 H 0.01919 0.21838 0.27427 0.0
H364 H 0.60799 0.43475 0.41337 0.0
N365 N 0.6219 0.23915 0.32215 0.0
C366 C 0.59867 0.28207 0.32775 0.0
C367 C 0.54877 0.20342 0.27628 0.0
C368 C 0.55023 0.28792 0.30475 0.0
C369 C 0.59667 0.19931 0.30076 0.0
C370 C 0.5259 0.2482 0.27671 0.0
N371 N 0.67153 0.31385 0.37457 0.0
C372 C 0.69576 0.34852 0.41047 0.0
C373 C 0.59989 0.3642 0.36853 0.0
C374 C 0.62381 0.32024 0.35688 0.0
C375 C 0.62519 0.40052 0.40302 0.0
C376 C 0.67309 0.39237 0.42484 0.0
H377 H 0.48864 0.25114 0.25845 0.0
H378 H 0.49016 0.33804 0.29449 0.0
H379 H 0.53281 0.40409 0.35325 0.0
O380 O 0.7254 0.24419 0.45089 0.0
O381 O 0.68731 0.28376 0.26174 0.0
O382 O 0.75702 0.30225 0.19854 0.0
O383 O 0.65878 0.2051 0.42229 0.0
O384 O 0.77067 0.28275 0.36256 0.0
O385 O 0.81072 0.30177 0.264 0.0
O386 O 0.79287 0.21923 0.0979 0.0
O387 O 0.82273 0.20824 0.29585 0.0
O388 O 0.753 0.17799 0.34386 0.0
O389 O 0.84805 0.27019 0.12833 0.0
O390 O 0.72665 0.20781 0.18392 0.0
O391 O 0.70157 0.17702 0.28439 0.0
C392 C 0.71037 0.30791 0.21432 0.0
C393 C 0.67876 0.20571 0.54068 0.0
C394 C 0.69858 0.21163 0.65909 0.0
C395 C 0.66038 0.17875 0.6727 0.0
C396 C 0.64077 0.17293 0.55614 0.0
C397 C 0.63183 0.15952 0.62157 0.0
C398 C 0.70804 0.22487 0.59267 0.0
C399 C 0.80467 0.3065 0.32913 0.0
C400 C 0.6879 0.21838 0.47028 0.0
C401 C 0.52736 0.33275 0.312 0.0
C402 C 0.55164 0.37037 0.34549 0.0
C403 C 0.80128 0.18081 0.3402 0.0
C404 C 0.82012 0.27649 1.01637 0.0
C405 C 0.79582 0.27964 0.89913 0.0
C406 C 0.82144 0.32355 0.89317 0.0
C407 C 0.84452 0.32102 1.00857 0.0
C408 C 0.79496 0.25622 0.96127 0.0
C409 C 0.84496 0.34427 0.94761 0.0
C410 C 0.69884 0.17828 0.2193 0.0
C411 C 0.82747 0.24854 0.07828 0.0
H412 H 0.6527 0.16793 0.72318 0.0
H413 H 0.61804 0.15727 0.51751 0.0
H414 H 0.60258 0.13404 0.63269 0.0
H415 H 0.73769 0.25005 0.58187 0.0
H416 H 0.8229 0.34204 0.84613 0.0
H417 H 0.86464 0.33741 0.04914 0.0
H418 H 0.77622 0.22179 0.96591 0.0
H419 H 0.86437 0.37824 0.94222 0.0
Tb420 Tb 0.70712 0.74993 0.6948 0.0
C421 C 0.90045 0.75549 0.89175 0.0
N422 N 0.8724 0.71824 0.86944 0.0
C423 C 0.94092 0.6649 0.88249 0.0
C424 C 0.94985 0.74883 0.91098 0.0
C425 C 0.8921 0.67322 0.86479 0.0
C426 C 0.96979 0.70279 0.90646 0.0
C427 C 0.9049 0.8379 0.92977 0.0
C428 C 0.87793 0.79903 0.90285 0.0
C429 C 0.95499 0.83265 0.94448 0.0
C430 C 0.97709 0.78776 0.93676 0.0
Tb431 Tb 0.79027 0.73425 0.85485 0.0
N432 N 0.82854 0.8018 0.89378 0.0
C433 C 0.87985 0.87974 0.94606 0.0
C434 C 0.80332 0.83981 0.91944 0.0
C435 C 0.82859 0.88034 0.94334 0.0
H436 H 0.86915 0.64287 0.85293 0.0
H437 H 0.80861 0.9116 0.96023 0.0
H438 H 0.6245 0.83667 0.72385 0.0
H439 H 0.67987 0.55979 0.64573 0.0
H440 H 0.76391 0.83916 0.92152 0.0
H441 H 0.89983 0.91035 0.96437 0.0
H442 H 0.72426 0.62934 0.69309 0.0
H443 H 0.95567 0.62891 0.87987 0.0
H444 H 0.97624 0.86233 0.96511 0.0
H445 H 0.01513 0.78343 0.95136 0.0
H446 H 0.5404 0.85256 0.68569 0.0
H447 H 0.00724 0.69606 0.92191 0.0
H448 H 0.59809 0.57086 0.59477 0.0
N449 N 0.62513 0.76479 0.68669 0.0
C450 C 0.59947 0.72942 0.65521 0.0
C451 C 0.55667 0.81783 0.67636 0.0
C452 C 0.5524 0.73775 0.62905 0.0
C453 C 0.60397 0.80822 0.69963 0.0
C454 C 0.53138 0.78301 0.63904 0.0
N455 N 0.66697 0.67898 0.67329 0.0
C456 C 0.68819 0.63462 0.67281 0.0
C457 C 0.59556 0.6467 0.61748 0.0
C458 C 0.62109 0.68485 0.64849 0.0
C459 C 0.617 0.60123 0.61689 0.0
C460 C 0.66312 0.59495 0.64573 0.0
H461 H 0.49523 0.79091 0.61971 0.0
H462 H 0.49276 0.70702 0.57102 0.0
H463 H 0.5302 0.6268 0.56196 0.0
O464 O 0.72808 0.73485 0.59648 0.0
O465 O 0.67236 0.70994 0.7787 0.0
O466 O 0.73995 0.67593 0.82222 0.0
O467 O 0.6865 0.79823 0.62047 0.0
O468 O 0.77261 0.70498 0.6798 0.0
O469 O 0.8112 0.68302 0.77733 0.0
O470 O 0.75877 0.74305 0.94977 0.0
O471 O 0.82542 0.78266 0.77689 0.0
O472 O 0.76088 0.80858 0.7126 0.0
O473 O 0.80358 0.68196 0.92724 0.0
O474 O 0.71975 0.77292 0.86284 0.0
O475 O 0.70496 0.81085 0.76438 0.0
C476 C 0.69151 0.67776 0.8189 0.0
C477 C 0.68031 0.76814 0.51044 0.0
C478 C 0.68559 0.75559 0.39158 0.0
C479 C 0.6349 0.76373 0.38603 0.0
C480 C 0.6301 0.77862 0.50397 0.0
C481 C 0.60731 0.77539 0.44222 0.0
C482 C 0.70799 0.75733 0.45384 0.0
C483 C 0.80557 0.68007 0.71256 0.0
C484 C 0.70644 0.77288 0.57363 0.0
C485 C 0.52852 0.70105 0.5929 0.0
C486 C 0.54982 0.65537 0.58777 0.0
C487 C 0.80835 0.80818 0.72595 0.0
C488 C 0.80682 0.71243 0.03706 0.0
C489 C 0.80283 0.72822 0.15562 0.0
C490 C 0.85415 0.72449 0.15961 0.0
C491 C 0.85816 0.70758 0.04222 0.0
C492 C 0.77927 0.72245 0.09431 0.0
C493 C 0.88164 0.71406 0.10299 0.0
C494 C 0.70097 0.80857 0.8291 0.0
C495 C 0.78099 0.7057 0.97346 0.0
H496 H 0.61721 0.76255 0.33807 0.0
H497 H 0.60886 0.79063 0.54589 0.0
H498 H 0.56852 0.78318 0.43768 0.0
H499 H 0.74731 0.75148 0.45784 0.0
H500 H 0.87265 0.72859 0.20675 0.0
H501 H 0.88023 0.69807 0.99988 0.0
H502 H 0.73951 0.72509 0.0915 0.0
H503 H 0.92117 0.7103 0.10634 0.0
Tb504 Tb 0.5028 0.52796 0.11221 0.0
C505 C 0.47971 0.34689 0.89266 0.0
N506 N 0.51964 0.37323 0.91144 0.0
C507 C 0.57275 0.30973 0.87524 0.0
C508 C 0.48482 0.30057 0.86461 0.0
C509 C 0.56582 0.35506 0.90405 0.0
C510 C 0.53214 0.28268 0.85446 0.0
C511 C 0.39105 0.33892 0.886 0.0
C512 C 0.43353 0.36646 0.90147 0.0
C513 C 0.39588 0.2926 0.85873 0.0
C514 C 0.44271 0.27366 0.84743 0.0
Tb515 Tb 0.50508 0.45077 0.94272 0.0
N516 N 0.43025 0.41188 0.92662 0.0
C517 C 0.3449 0.35846 0.899 0.0
C518 C 0.38474 0.43071 0.93985 0.0
C519 C 0.34175 0.4044 0.92634 0.0
H520 H 0.59773 0.3763 0.91809 0.0
H521 H 0.3061 0.41958 0.93739 0.0
H522 H 0.41467 0.60761 0.13071 0.0
H523 H 0.69899 0.5405 0.16494 0.0
H524 H 0.3803 0.46545 0.9624 0.0
H525 H 0.31158 0.33806 0.88916 0.0
H526 H 0.6213 0.49886 0.14053 0.0
H527 H 0.60947 0.29615 0.8677 0.0
H528 H 0.36363 0.27119 0.84613 0.0
H529 H 0.44596 0.23796 0.82613 0.0
H530 H 0.40645 0.68953 0.17361 0.0
H531 H 0.5377 0.24766 0.83197 0.0
H532 H 0.7003 0.6289 0.17839 0.0
N533 N 0.49272 0.60836 0.13168 0.0
C534 C 0.5338 0.63388 0.14812 0.0
C535 C 0.44266 0.67513 0.16412 0.0
C536 C 0.53105 0.68211 0.16972 0.0
C537 C 0.44747 0.62874 0.13838 0.0
C538 C 0.48463 0.70198 0.17988 0.0
N539 N 0.5782 0.56219 0.13874 0.0
C540 C 0.62075 0.53688 0.14804 0.0
C541 C 0.62192 0.63579 0.16546 0.0
C542 C 0.57822 0.61041 0.14954 0.0
C543 C 0.66594 0.61047 0.16854 0.0
C544 C 0.66525 0.56065 0.16099 0.0
H545 H 0.48082 0.73777 0.20062 0.0
H546 H 0.57305 0.74546 0.19899 0.0
H547 H 0.65324 0.70529 0.1921 0.0
O548 O 0.51642 0.51113 0.21157 0.0
O549 O 0.56545 0.542 0.04428 0.0
O550 O 0.52792 0.52655 0.94738 0.0
O551 O 0.44384 0.52928 0.18049 0.0
O552 O 0.53738 0.45732 0.11703 0.0
O553 O 0.56721 0.43572 1.01348 0.0
O554 O 0.48867 0.45996 0.84285 0.0
O555 O 0.47372 0.41048 1.02657 0.0
O556 O 0.44556 0.47777 0.07509 0.0
O557 O 0.56457 0.454 0.87457 0.0
O558 O 0.45054 0.50967 0.94505 0.0
O559 O 0.45492 0.56187 0.03651 0.0
C560 C 0.5652 0.54464 0.97975 0.0
C561 C 0.46451 0.54441 0.29308 0.0
C562 C 0.47442 0.54562 0.41229 0.0
C563 C 0.45456 0.59186 0.41546 0.0
C564 C 0.44116 0.58918 0.29734 0.0
C565 C 0.4378 0.61345 0.35788 0.0
C566 C 0.48035 0.5225 0.35115 0.0
C567 C 0.56803 0.43284 0.07966 0.0
C568 C 0.47141 0.51828 0.23025 0.0
C569 C 0.57444 0.70802 0.18392 0.0
C570 C 0.62002 0.68514 0.18024 0.0
C571 C 0.4478 0.4304 0.07422 0.0
C572 C 0.54504 0.43726 0.76007 0.0
C573 C 0.53178 0.43871 0.64135 0.0
C574 C 0.55402 0.39371 0.63493 0.0
C575 C 0.57251 0.39517 0.75188 0.0
C576 C 0.52598 0.4596 0.70401 0.0
C577 C 0.57471 0.37227 0.69022 0.0
C578 C 0.43656 0.54886 0.97797 0.0
C579 C 0.53476 0.45984 0.82466 0.0
H580 H 0.45072 0.61034 0.46254 0.0
H581 H 0.42457 0.60512 0.25492 0.0
H582 H 0.4215 0.64871 0.36032 0.0
H583 H 0.49672 0.48709 0.34905 0.0
H584 H 0.55757 0.37664 0.58682 0.0
H585 H 0.59315 0.38045 0.79175 0.0
H586 H 0.50711 0.49368 0.70887 0.0
H587 H 0.59331 0.33837 0.68486 0.0
Tb588 Tb 1.00114 0.45395 0.61736 0.0
C589 C 0.06259 0.62888 0.44916 0.0
N590 N 0.01694 0.6104 0.45995 0.0
C591 C 0.9902 0.68644 0.50202 0.0
C592 C 0.07475 0.67619 0.46813 0.0
C593 C 0.97957 0.64116 0.47609 0.0
C594 C 0.03866 0.70309 0.50082 0.0
C595 C 0.14214 0.62014 0.39668 0.0
C596 C 0.09622 0.60084 0.41607 0.0
C597 C 0.1553 0.66704 0.41677 0.0
C598 C 0.12197 0.69468 0.45374 0.0
Tb599 Tb 0.00952 0.52846 0.44421 0.0
N600 N 0.08301 0.55485 0.40131 0.0
C601 C 0.17273 0.59202 0.35666 0.0
C602 C 0.11169 0.52783 0.36023 0.0
C603 C 0.15681 0.54616 0.33692 0.0
H604 H 0.94161 0.63044 0.47207 0.0
H605 H 0.17952 0.52484 0.30421 0.0
H606 H 0.0962 0.38358 0.63565 0.0
H607 H 0.8074 0.42919 0.69045 0.0
H608 H 0.10013 0.49196 0.3459 0.0
H609 H 0.208 0.60577 0.33951 0.0
H610 H 0.87817 0.4763 0.65978 0.0
H611 H 0.96113 0.70858 0.52213 0.0
H612 H 0.19081 0.68237 0.40348 0.0
H613 H 0.13248 0.73076 0.46894 0.0
H614 H 0.11276 0.30712 0.69069 0.0
H615 H 0.04714 0.73716 0.52414 0.0
H616 H 0.81449 0.34231 0.71119 0.0
N617 N 0.01829 0.37704 0.64502 0.0
C618 C 0.97996 0.3498 0.66718 0.0
C619 C 0.07512 0.318 0.68265 0.0
C620 C 0.98774 0.30397 0.69449 0.0
C621 C 0.06546 0.36128 0.65091 0.0
C622 C 0.03612 0.289 0.70418 0.0
N623 N 0.92844 0.41653 0.65204 0.0
C624 C 0.8837 0.43822 0.66319 0.0
C625 C 0.89262 0.34131 0.68978 0.0
C626 C 0.9333 0.36931 0.66778 0.0
C627 C 0.8465 0.36264 0.69469 0.0
C628 C 0.84234 0.41155 0.6828 0.0
H629 H 0.04372 0.25504 0.7279 0.0
H630 H 0.95255 0.23951 0.73288 0.0
H631 H 0.86881 0.27166 0.72616 0.0
O632 O 0.98839 0.46624 0.71846 0.0
O633 O 0.96985 0.41778 0.52979 0.0
O634 O 0.94567 0.48094 0.4665 0.0
O635 O 0.06224 0.46733 0.67787 0.0
O636 O 0.94261 0.50445 0.60467 0.0
O637 O 0.95703 0.55621 0.51769 0.0
O638 O 0.00557 0.50086 0.34599 0.0
O639 O 0.07373 0.53519 0.51212 0.0
O640 O 0.0269 0.52767 0.60247 0.0
O641 O 0.96614 0.56528 0.37598 0.0
O642 O 0.04244 0.45654 0.44274 0.0
O643 O 0.06294 0.43468 0.55096 0.0
C644 C 0.94236 0.43487 0.48196 0.0
C645 C 0.0531 0.44919 0.79166 0.0
C646 C 0.04981 0.44655 0.91134 0.0
C647 C 0.088 0.41312 0.91169 0.0
C648 C 0.09293 0.4174 0.79233 0.0
C649 C 0.10912 0.39836 0.85204 0.0
C650 C 0.03172 0.46362 0.8514 0.0
C651 C 0.93394 0.54382 0.57227 0.0
C652 C 0.03521 0.47124 0.73093 0.0
C653 C 0.94729 0.27542 0.71376 0.0
C654 C 0.89967 0.2937 0.70993 0.0
C655 C 0.06967 0.53864 0.57682 0.0
C656 C 0.95513 0.54018 0.26259 0.0
C657 C 0.95853 0.52486 0.14443 0.0
C658 C 0.91476 0.5502 0.13598 0.0
C659 C 0.91117 0.56555 0.25381 0.0
C660 C 0.97863 0.51966 0.20766 0.0
C661 C 0.89113 0.57028 0.19069 0.0
C662 C 0.06896 0.43256 0.48594 0.0
C663 C 0.97622 0.5352 0.32885 0.0
H664 H 0.10176 0.39914 0.95792 0.0
H665 H 0.11222 0.40787 0.74745 0.0
H666 H 0.13863 0.37284 0.85213 0.0
H667 H 1.00201 0.48945 0.85158 0.0
H668 H 0.89904 0.55439 0.08718 0.0
H669 H 0.89214 0.58138 0.29568 0.0
H670 H 0.01265 0.50011 0.2137 0.0
H671 H 0.85724 0.5894 0.184 0.0
C672 C 0.09325 0.13445 0.42902 0.0
C673 C 0.10616 0.08621 0.44207 0.0
C674 C 0.17917 0.0984 0.36908 0.0
C675 C 0.16481 0.14676 0.35526 0.0
N676 N 0.09476 0.20093 0.35407 0.0
N677 N 0.15849 0.01977 0.41527 0.0
C678 C 0.11805 0.16183 0.3796 0.0
C679 C 0.14866 0.06761 0.40984 0.0
N680 N 0.05635 0.15491 0.46411 0.0
N681 N 0.22061 0.08073 0.33993 0.0
H682 H 0.13732 -0.00307 0.44461 0.0
H683 H 0.18535 0.00193 0.38809 0.0
H684 H 0.23652 0.09685 0.2986 0.0
H685 H 0.23835 0.04978 0.35537 0.0
H686 H 0.04994 0.19175 0.46532 0.0
H687 H 0.0325 0.13447 0.49253 0.0
H688 H 0.05941 0.21084 0.36805 0.0
H689 H 0.10719 0.22218 0.31556 0.0
C690 C 0.08193 0.86514 0.63411 0.0
C691 C 0.10127 0.90744 0.60501 0.0
C692 C 0.18351 0.8865 0.64847 0.0
C693 C 0.1651 0.84156 0.67465 0.0
N694 N 0.09551 0.78541 0.67227 0.0
N695 N 0.17272 0.9538 0.5739 0.0
C696 C 0.11402 0.83039 0.66206 0.0
C697 C 0.15273 0.9162 0.60831 0.0
N698 N 0.03211 0.8574 0.6351 0.0
N699 N 0.22923 0.90362 0.66489 0.0
H700 H 0.15143 0.97947 0.55061 0.0
H701 H 0.21039 0.95785 0.5653 0.0
H702 H 0.25481 0.88546 0.69255 0.0
H703 H 0.24073 0.93886 0.6559 0.0
H704 H 0.01495 0.83123 0.66413 0.0
H705 H 0.00738 0.87861 0.60956 0.0
H706 H 0.06226 0.77328 0.65231 0.0
H707 H 0.11387 0.75854 0.69622 0.0
C708 C 0.37102 0.82609 0.90504 0.0
C709 C 0.3326 0.844 0.86499 0.0
C710 C 0.35785 0.92698 0.89791 0.0
C711 C 0.39948 0.90909 0.93224 0.0
N712 N 0.44969 0.84013 0.95511 0.0
N713 N 0.29143 0.91273 0.81998 0.0
C714 C 0.40656 0.85827 0.93306 0.0
C715 C 0.32704 0.89486 0.85998 0.0
N716 N 0.375 0.77774 0.91528 0.0
N717 N 0.34572 0.97431 0.90498 0.0
H718 H 0.26435 0.8909 0.79899 0.0
H719 H 0.28975 0.94867 0.80599 0.0
H720 H 0.3654 -0.00194 0.93517 0.0
H721 H 0.31351 0.98907 0.88662 0.0
H722 H 0.39641 0.76321 0.95275 0.0
H723 H 0.35569 0.75194 0.88825 0.0
H724 H 0.46047 0.80478 0.94656 0.0
H725 H 0.47757 0.8614 0.97468 0.0
C726 C 0.40791 0.09187 0.17242 0.0
C727 C 0.40595 0.08766 0.10183 0.0
C728 C 0.34832 0.1547 0.10617 0.0
C729 C 0.34175 0.14968 0.17632 0.0
N730 N 0.35262 0.09123 0.26435 0.0
N731 N 0.35544 0.10744 1.00649 0.0
C732 C 0.3673 0.11134 0.20621 0.0
C733 C 0.37019 0.11641 0.06974 0.0
N734 N 0.44871 0.08098 0.20816 0.0
N735 N 0.33823 0.19639 0.07408 0.0
H736 H 0.36638 0.07735 0.97967 0.0
H737 H 0.32762 0.12728 0.98431 0.0
H738 H 0.3329 0.22879 0.09886 0.0
H739 H 0.34432 0.20026 1.02332 0.0
H740 H 0.44947 0.08502 0.2596 0.0
H741 H 0.48322 0.07675 0.18674 0.0
H742 H 0.37103 0.06195 0.28448 0.0
H743 H 0.31958 0.0996 0.28755 0.0
C744 C 0.89671 0.91756 0.68712 0.0
C745 C 0.90129 0.91662 0.61643 0.0
C746 C 0.84468 0.84561 0.61742 0.0
C747 C 0.84148 0.84532 0.68835 0.0
N748 N 0.85099 0.89439 0.78495 0.0
N749 N 0.86112 0.89092 0.51711 0.0
C750 C 0.86462 0.88457 0.72159 0.0
C751 C 0.87058 0.88319 0.58237 0.0
N752 N 0.92119 0.95157 0.72271 0.0
N753 N 0.82168 0.81029 0.58253 0.0
H754 H 0.87292 0.92229 0.4937 0.0
H755 H 0.83585 0.87087 0.4895 0.0
H756 H 0.79805 0.78661 0.60582 0.0
H757 H 0.82796 0.80335 0.53247 0.0
H758 H 0.92923 0.94776 0.77281 0.0
H759 H 0.92904 0.98494 0.70306 0.0
H760 H 0.86092 0.92558 0.81066 0.0
H761 H 0.82395 0.87419 0.80804 0.0
C762 C 0.91683 0.13185 0.42306 0.0
C763 C 0.90012 0.09013 0.45671 0.0
C764 C 0.82008 0.10247 0.40365 0.0
C765 C 0.83421 0.14988 0.38317 0.0
N766 N 0.8985 0.21185 0.38999 0.0
N767 N 0.83217 0.03656 0.48028 0.0
C768 C 0.88283 0.16563 0.3994 0.0
C769 C 0.85012 0.0764 0.44889 0.0
N770 N 0.96478 0.13688 0.40507 0.0
N771 N 0.78217 0.07943 0.37296 0.0
H772 H 0.85389 0.01559 0.51104 0.0
H773 H 0.79501 0.0268 0.47933 0.0
H774 H 0.7674 0.0936 0.33043 0.0
H775 H 0.7725 0.04361 0.38156 0.0
H776 H 0.97837 0.16639 0.379 0.0
H777 H 0.98876 0.10827 0.40561 0.0
H778 H 0.93215 0.22453 0.40825 0.0
H779 H 0.87738 0.23855 0.36937 0.0
C780 C 0.62324 0.16535 0.14631 0.0
C781 C 0.66259 0.14566 0.18318 0.0
C782 C 0.64092 0.06567 0.13755 0.0
C783 C 0.59961 0.08497 0.10493 0.0
N784 N 0.54125 0.14959 0.10563 0.0
N785 N 0.6931 0.07319 0.23293 0.0
C786 C 0.58782 0.13391 0.11664 0.0
C787 C 0.66709 0.09462 0.18423 0.0
N788 N 0.61774 0.21391 0.14216 0.0
N789 N 0.65432 0.0192 0.12618 0.0
H790 H 0.7053 0.09282 0.27316 0.0
H791 H 0.69489 0.03604 0.23903 0.0
H792 H 0.63457 -0.00376 0.09502 0.0
H793 H 0.68703 0.00489 0.14388 0.0
H794 H 0.59245 0.2297 0.11047 0.0
H795 H 0.63959 0.23815 0.16851 0.0
H796 H 0.5293 0.18356 0.12033 0.0
H797 H 0.51327 0.12673 0.0891 0.0
C798 C 0.68205 0.89054 0.88105 0.0
C799 C 0.66699 0.8429 0.86419 0.0
C800 C 0.58389 0.86456 0.89811 0.0
C801 C 0.60057 0.90766 0.92882 0.0
N802 N 0.67119 0.95715 0.95732 0.0
N803 N 0.60378 0.78184 0.87659 0.0
C804 C 0.65165 0.91895 0.92368 0.0
C805 C 0.61819 0.8288 0.8799 0.0
N806 N 0.72373 0.90974 0.85393 0.0
N807 N 0.53623 0.85891 0.88001 0.0
H808 H 0.62847 0.75459 0.86622 0.0
H809 H 0.56901 0.77019 0.89229 0.0
H810 H 0.51146 0.88721 0.88051 0.0
H811 H 0.52379 0.8277 0.85671 0.0
H812 H 0.73439 0.94553 0.86104 0.0
H813 H 0.74424 0.89104 0.81879 0.0
H814 H 0.70897 0.96416 0.95885 0.0
H815 H 0.64978 0.97998 0.98621 0.0
C816 C 0.58042 0.62315 0.91952 0.0
C817 C 0.59939 0.58008 0.94522 0.0
C818 C 0.67864 0.59934 0.88937 0.0
C819 C 0.65826 0.64104 0.85779 0.0
N820 N 0.58006 0.67706 0.82787 0.0
N821 N 0.66708 0.5261 0.95455 0.0
C822 C 0.60661 0.64884 0.86896 0.0
C823 C 0.64897 0.5684 0.93102 0.0
N824 N 0.53707 0.64034 0.94412 0.0
N825 N 0.72579 0.58682 0.87583 0.0
H826 H 0.64709 0.50384 0.98648 0.0
H827 H 0.70095 0.51189 0.94098 0.0
H828 H 0.74083 0.59391 0.82973 0.0
H829 H 0.74722 0.56578 0.90672 0.0
H830 H 0.52398 0.67451 0.93322 0.0
H831 H 0.51753 0.62299 0.98171 0.0
H832 H 0.54214 0.68038 0.83279 0.0
H833 H 0.59295 0.69042 0.78336 0.0
C834 C 0.66272 0.38503 0.20761 0.0
C835 C 0.68045 0.34336 0.17588 0.0
C836 C 0.62183 0.35685 0.08536 0.0
C837 C 0.60407 0.39929 0.11594 0.0
N838 N 0.59172 0.43372 0.22536 0.0
N839 N 0.68574 0.297 0.0753 0.0
C840 C 0.62042 0.40856 0.18234 0.0
C841 C 0.66302 0.33184 0.11171 0.0
N842 N 0.68677 0.40262 0.26183 0.0
N843 N 0.59343 0.33488 0.03908 0.0
H844 H 0.71505 0.27723 0.09333 0.0
H845 H 0.67863 0.29146 1.02518 0.0
H846 H 0.55784 0.3464 0.02954 0.0
H847 H 0.60167 0.30136 1.01971 0.0
H848 H 0.67917 0.43609 0.28274 0.0
H849 H 0.71797 0.38613 0.28081 0.0
H850 H 0.60291 0.44417 0.27253 0.0
H851 H 0.55367 0.43316 0.22065 0.0
C852 C 0.8728 0.42052 0.39566 0.0
C853 C 0.90378 0.40211 0.44705 0.0
C854 C 0.85831 0.32492 0.43153 0.0
C855 C 0.8382 0.33989 0.36961 0.0
N856 N 0.83113 0.40543 0.29177 0.0
N857 N 0.92754 0.3273 0.50307 0.0
C858 C 0.84806 0.38833 0.35054 0.0
C859 C 0.89721 0.35186 0.46172 0.0
N860 N 0.86161 0.46826 0.39374 0.0
N861 N 0.84091 0.28524 0.46434 0.0
H862 H 0.95316 0.34154 0.53508 0.0
H863 H 0.92798 0.28977 0.5038 0.0
H864 H 0.81791 0.25887 0.44498 0.0
H865 H 0.84945 0.27888 0.51385 0.0
H866 H 0.8376 0.4827 0.35918 0.0
H867 H 0.8676 0.49136 0.43357 0.0
H868 H 0.84244 0.43867 0.27304 0.0
H869 H 0.80815 0.38595 0.26023 0.0
C870 C 0.84422 0.64652 0.60396 0.0
C871 C 0.83669 0.64392 0.67414 0.0
C872 C 0.89996 0.58239 0.6756 0.0
C873 C 0.90024 0.57863 0.60555 0.0
N874 N 0.85752 0.59924 0.50496 0.0
N875 N 0.84345 0.5877 0.76529 0.0
C876 C 0.86736 0.60789 0.57005 0.0
C877 C 0.86037 0.6055 0.707 0.0
N878 N 0.83433 0.68713 0.56993 0.0
N879 N 0.9378 0.56596 0.71303 0.0
H880 H 0.81115 0.59949 0.78678 0.0
H881 H 0.85886 0.55754 0.78741 0.0
H882 H 0.97112 0.55538 0.69243 0.0
H883 H 0.93828 0.56999 0.76444 0.0
H884 H 0.84159 0.6908 0.51944 0.0
H885 H 0.82865 0.71899 0.59481 0.0
H886 H 0.83107 0.61853 0.47918 0.0
H887 H 0.87252 0.57035 0.47907 0.0
C888 C 0.39776 0.31946 0.17008 0.0
C889 C 0.35363 0.33698 0.19944 0.0
C890 C 0.36824 0.41408 0.14174 0.0
C891 C 0.41524 0.39879 0.11847 0.0
N892 N 0.47936 0.33973 0.13141 0.0
N893 N 0.31069 0.40846 0.23258 0.0
C894 C 0.43122 0.35216 0.13837 0.0
C895 C 0.34271 0.38643 0.19065 0.0
N896 N 0.40814 0.27155 0.17123 0.0
N897 N 0.34627 0.45373 0.11615 0.0
H898 H 0.29791 0.39116 0.27477 0.0
H899 H 0.30398 0.44532 0.23151 0.0
H900 H 0.36058 0.47313 0.07659 0.0
H901 H 0.31047 0.46349 0.12885 0.0
H902 H 0.43654 0.25647 0.14342 0.0
H903 H 0.38612 0.24616 0.19491 0.0
H904 H 0.49386 0.30804 0.1501 0.0
H905 H 0.50605 0.36396 0.11573 0.0
C906 C 0.36287 0.60721 0.97808 0.0
C907 C 0.40009 0.58164 0.94308 0.0
C908 C 0.35912 0.60711 0.84062 0.0
C909 C 0.3312 0.64235 0.87447 0.0
N910 N 0.31217 0.67836 0.98077 0.0
N911 N 0.43749 0.56767 0.83557 0.0
C912 C 0.3348 0.64326 0.9449 0.0
C913 C 0.39939 0.58467 0.87271 0.0
N914 N 0.35044 0.59402 0.04075 0.0
N915 N 0.34472 0.59154 0.77989 0.0
H916 H 0.47144 0.55903 0.85572 0.0
H917 H 0.43728 0.56808 0.78414 0.0
H918 H 0.31328 0.60471 0.75737 0.0
H919 H 0.36021 0.56144 0.75722 0.0
H920 H 0.32057 0.60879 0.06585 0.0
H921 H 0.36538 0.56385 0.06319 0.0
H922 H 0.31717 0.68226 0.03171 0.0
H923 H 0.29253 0.70592 0.9588 0.0
C924 C 0.1769 0.58434 0.68976 0.0
C925 C 0.17058 0.63517 0.68649 0.0
C926 C 0.09461 0.62002 0.62465 0.0
C927 C 0.1049 0.57073 0.61585 0.0
N928 N 0.16197 0.50663 0.63586 0.0
N929 N 0.13428 0.69685 0.61936 0.0
C930 C 0.14813 0.55295 0.64706 0.0
C931 C 0.1328 0.65181 0.64473 0.0
N932 N 0.21009 0.56598 0.73292 0.0
N933 N 0.04829 0.63707 0.61686 0.0
H934 H 0.16401 0.72043 0.62326 0.0
H935 H 0.10664 0.70955 0.58937 0.0
H936 H 0.01849 0.61524 0.60374 0.0
H937 H 0.03946 0.6722 0.63074 0.0
H938 H 0.21374 0.52924 0.74121 0.0
H939 H 0.23079 0.58794 0.76443 0.0
H940 H 0.19512 0.49277 0.65263 0.0
H941 H 0.14192 0.48339 0.60524 0.0
C942 C 0.13391 0.318 0.42675 0.0
C943 C 0.1693 0.33783 0.38188 0.0
C944 C 0.14942 0.41751 0.42781 0.0
C945 C 0.10658 0.39885 0.45833 0.0
N946 N 0.05622 0.32946 0.4828 0.0
N947 N 0.20417 0.41086 0.33466 0.0
C948 C 0.09832 0.34851 0.45673 0.0
C949 C 0.17509 0.38891 0.38072 0.0
N950 N 0.13477 0.27059 0.44334 0.0
N951 N 0.1671 0.46167 0.446 0.0
H952 H 0.22027 0.39247 0.29571 0.0
H953 H 0.20758 0.44808 0.33105 0.0
H954 H 0.14983 0.48256 0.48209 0.0
H955 H 0.20128 0.47481 0.43027 0.0
H956 H 0.11237 0.25606 0.48023 0.0
H957 H 0.1604 0.24649 0.42506 0.0
H958 H 0.04504 0.294 0.47413 0.0
H959 H 0.03137 0.35026 0.50915 0.0
C960 C 0.96044 0.98489 0.02731 0.0
C961 C 0.99035 0.01157 0.98218 0.0
C962 C 0.06367 -0.00671 0.04863 0.0
C963 C 0.03387 0.96478 0.09115 0.0
N964 N 0.95596 0.92639 0.11527 0.0
N965 N 0.06733 0.05321 0.96181 0.0
C966 C 0.9828 0.9591 0.07933 0.0
C967 C 0.04134 0.01881 0.99578 0.0
N968 N 0.91028 0.98539 1.02256 0.0
N969 N 0.11348 -0.00496 0.05803 0.0
H970 H 0.05156 0.07481 0.92578 0.0
H971 H 0.10298 0.06411 0.97371 0.0
H972 H 0.13061 0.97827 0.0977 0.0
H973 H 0.1382 0.0105 1.02468 0.0
H974 H 0.88696 0.97505 0.06113 0.0
H975 H 0.89144 -0.00425 0.98035 0.0
H976 H 0.92046 0.91528 0.1026 0.0
H977 H 0.97043 0.90694 0.15451 0.0
C978 C 0.29696 0.70985 0.3049 0.0
C979 C 0.28219 0.75444 0.33237 0.0
C980 C 0.2257 0.76618 0.23877 0.0
C981 C 0.24146 0.72191 0.21025 0.0
N982 N 0.30066 0.65792 0.20843 0.0
N983 N 0.22742 0.82173 0.33244 0.0
C984 C 0.27932 0.69539 0.24149 0.0
C985 C 0.24553 0.78199 0.30074 0.0
N986 N 0.32674 0.68044 0.34048 0.0
N987 N 0.19253 0.79377 0.20608 0.0
H988 H 0.24068 0.83379 0.37807 0.0
H989 H 0.19687 0.84074 0.31673 0.0
H990 H 0.17253 0.78162 0.16535 0.0
H991 H 0.18692 0.82991 0.217 0.0
H992 H 0.33317 0.64474 0.32754 0.0
H993 H 0.34139 0.69018 0.38632 0.0
H994 H 0.33183 0.64022 0.22501 0.0
H995 H 0.29029 0.64763 0.16079 0.0
C996 C 0.4853 0.03653 0.53429 0.0
C997 C 0.4721 -0.00013 0.57987 0.0
C998 C 0.50429 0.93833 0.50375 0.0
C999 C 0.52158 0.97534 0.46105 0.0
N1000 N 0.53308 0.0597 0.43758 0.0
N1001 N 0.471 0.91647 0.61156 0.0
C1002 C 0.51302 0.02449 0.47661 0.0
C1003 C 0.48197 0.95084 0.56542 0.0
N1004 N 0.4703 0.08271 0.54556 0.0
N1005 N 0.50887 0.89126 0.48468 0.0
H1006 H 0.4547 0.92429 0.65714 0.0
H1007 H 0.48004 0.88042 0.60671 0.0
H1008 H 0.52522 0.88097 0.44007 0.0
H1009 H 0.49365 0.86229 0.51019 0.0
H1010 H 0.47389 0.11021 0.51109 0.0
H1011 H 0.45071 0.09294 0.58777 0.0
H1012 H 0.53366 0.09601 0.45049 0.0
H1013 H 0.55232 0.05237 0.39396 0.0
C1014 C 0.24665 0.20375 0.82516 0.0
C1015 C 0.22885 0.25065 0.83865 0.0
C1016 C 0.26441 0.28076 0.73509 0.0
C1017 C 0.28378 0.23444 0.72239 0.0
N1018 N 0.29169 0.15073 0.75058 0.0
N1019 N 0.22941 0.33556 0.81549 0.0
C1020 C 0.27472 0.19559 0.76646 0.0
C1021 C 0.23971 0.28959 0.79578 0.0
N1022 N 0.23705 0.16751 0.86915 0.0
N1023 N 0.26935 0.31626 0.68884 0.0
H1024 H 0.21504 0.34364 0.86209 0.0
H1025 H 0.2402 0.36615 0.78952 0.0
H1026 H 0.2899 0.31234 0.64549 0.0
H1027 H 0.25038 0.34858 0.69106 0.0
H1028 H 0.2509 0.13292 0.86558 0.0
H1029 H 0.2153 0.17214 0.91131 0.0
H1030 H 0.28543 0.11992 0.77831 0.0
H1031 H 0.31113 0.14337 0.70715 0.0
C1032 C 0.78801 0.21844 0.80534 0.0
C1033 C 0.76994 0.25985 0.83906 0.0
C1034 C 0.71349 0.27491 0.74659 0.0
C1035 C 0.72794 0.2313 0.716 0.0
N1036 N 0.78044 0.16236 0.71224 0.0
N1037 N 0.71054 0.32346 0.8466 0.0
C1038 C 0.7657 0.20322 0.74443 0.0
C1039 C 0.73137 0.287 0.81078 0.0
N1040 N 0.82752 0.19473 0.83047 0.0
N1041 N 0.6836 0.30554 0.7133 0.0
H1042 H 0.72094 0.33186 0.89499 0.0
H1043 H 0.68008 0.3427 0.83104 0.0
H1044 H 0.66949 0.2976 0.66654 0.0
H1045 H 0.67703 0.34067 0.72876 0.0
H1046 H 0.84527 0.16672 0.80642 0.0
H1047 H 0.84471 0.20464 0.87455 0.0
H1048 H 0.80527 0.13777 0.73091 0.0
H1049 H 0.76702 0.15238 0.66577 0.0
C1050 C 0.72766 0.78872 0.29114 0.0
C1051 C 0.71616 0.74848 0.3316 0.0
C1052 C 0.76391 0.69564 0.25883 0.0
C1053 C 0.77342 0.73547 0.21671 0.0
N1054 N 0.76265 0.81878 0.18844 0.0
N1055 N 0.72705 0.66524 0.3604 0.0
C1056 C 0.75484 0.78175 0.23171 0.0
C1057 C 0.73556 0.70234 0.31739 0.0
N1058 N 0.71488 0.83393 0.31172 0.0
N1059 N 0.7801 0.65102 0.24066 0.0
H1060 H 0.70382 0.66803 0.40141 0.0
H1061 H 0.74411 0.63201 0.35771 0.0
H1062 H 0.79829 0.64465 0.19609 0.0
H1063 H 0.77267 0.61944 0.26623 0.0
H1064 H 0.72623 0.86545 0.28846 0.0
H1065 H 0.69571 0.84059 0.35557 0.0
H1066 H 0.74542 0.85194 0.19195 0.0
H1067 H 0.78466 0.81568 0.14625 0.0
C1068 C 0.46588 0.47125 0.56871 0.0
C1069 C 0.51673 0.46571 0.58234 0.0
C1070 C 0.53939 0.51573 0.48749 0.0
C1071 C 0.48872 0.52039 0.47297 0.0
N1072 N 0.40305 0.50694 0.49958 0.0
N1073 N 0.60236 0.47866 0.55399 0.0
C1074 C 0.45167 0.49958 0.51381 0.0
C1075 C 0.55364 0.48671 0.54138 0.0
N1076 N 0.43164 0.44748 0.60668 0.0
N1077 N 0.57356 0.54126 0.45165 0.0
H1078 H 0.61486 0.46184 0.5966 0.0
H1079 H 0.63082 0.48716 0.52137 0.0
H1080 H 0.56429 0.56338 0.41218 0.0
H1081 H 0.61071 0.54378 0.46348 0.0
H1082 H 0.39397 0.4472 0.59804 0.0
H1083 H 0.44102 0.42543 0.64615 0.0
H1084 H 0.37372 0.49595 0.5292 0.0
H1085 H 0.39124 0.52511 0.45768 0.0
C1086 C 0.99371 0.43731 1.00839 0.0
C1087 C 0.02918 0.46529 0.97374 0.0
C1088 C 0.01899 0.53236 0.05168 0.0
C1089 C 0.98373 0.50406 0.08646 0.0
N1090 N 0.94243 0.42823 0.1061 0.0
N1091 N 0.07578 0.53882 0.95866 0.0
C1092 C 0.97253 0.45607 0.06719 0.0
C1093 C 0.04212 0.51268 0.99458 0.0
N1094 N 0.97853 0.39388 0.983 0.0
N1095 N 0.0309 0.57747 0.0746 0.0
H1096 H 0.09537 0.52453 0.91877 0.0
H1097 H 0.08423 0.5749 0.96671 0.0
H1098 H 0.01433 0.59292 0.11612 0.0
H1099 H 0.05801 0.59966 0.0545 0.0
H1100 H 0.94916 0.37385 1.00177 0.0
H1101 H 0.99331 0.3788 0.94002 0.0
H1102 H 0.93733 0.39138 0.09944 0.0
H1103 H 0.92485 0.44127 0.14845 0.0
loop_
_geom_bond_atom_site_label_1
_geom_bond_atom_site_label_2
_geom_bond_distance
_geom_bond_site_symmetry_2
_ccdc_geom_bond_type
Tb0 N29 2.617 . S
Tb0 N35 2.572 1_655 S
Tb0 O44 2.465 1_655 S
Tb0 O45 2.387 1_655 S
Tb0 O47 2.428 . S
Tb0 O48 2.308 1_645 S
Tb0 O52 2.349 1_545 S
Tb0 O55 2.393 . S
Tb0 C64 2.802 . S
C1 N2 1.379 1_655 S
C1 C4 1.416 . S
C1 C8 1.424 . S
N2 C1 1.379 1_455 S
N2 C5 1.334 . S
N2 Tb11 2.617 . S
C3 C5 1.390 . S
C3 C6 1.339 . S
C3 H23 0.930 . S
C4 C1 1.416 . S
C4 C6 1.416 1_655 S
C4 C10 1.448 . S
C5 N2 1.334 . S
C5 C3 1.390 . S
C5 H16 0.930 . S
C6 C3 1.339 . S
C6 C4 1.416 1_455 S
C6 H27 0.930 . S
C7 C8 1.413 . S
C7 C9 1.427 . S
C7 C13 1.416 . S
C8 C1 1.424 . S
C8 C7 1.413 . S
C8 N12 1.361 . S
C9 C7 1.427 . S
C9 C10 1.328 . S
C9 H24 0.929 . S
C10 C4 1.448 . S
C10 C9 1.328 . S
C10 H25 0.930 . S
Tb11 N2 2.617 . S
Tb11 N12 2.572 1_455 S
Tb11 O46 2.349 1_565 S
Tb11 O49 2.393 . S
Tb11 O50 2.465 1_455 S
Tb11 O51 2.387 1_455 S
Tb11 O53 2.428 . S
Tb11 O54 2.308 1_465 S
Tb11 C75 2.802 . S
N12 C8 1.361 . S
N12 Tb11 2.572 1_655 S
N12 C14 1.340 . S
C13 C7 1.416 . S
C13 C15 1.332 . S
C13 H21 0.931 . S
C14 N12 1.340 . S
C14 C15 1.407 . S
C14 H20 0.930 . S
C15 C13 1.332 . S
C15 C14 1.407 . S
C15 H17 0.929 . S
H16 C5 0.930 . S
H17 C15 0.929 . S
H18 C33 0.930 . S
H19 C40 0.929 . S
H20 C14 0.930 . S
H21 C13 0.931 . S
H22 C36 0.930 . S
H23 C3 0.930 . S
H24 C9 0.929 . S
H25 C10 0.930 . S
H26 C31 0.930 . S
H27 C6 0.930 . S
H28 C39 0.931 . S
N29 Tb0 2.617 . S
N29 C30 1.379 1_655 S
N29 C33 1.334 . S
C30 N29 1.379 1_455 S
C30 C32 1.416 . S
C30 C38 1.424 . S
C31 H26 0.930 . S
C31 C33 1.390 . S
C31 C34 1.339 . S
C32 C30 1.416 . S
C32 C34 1.416 1_455 S
C32 C65 1.448 . S
C33 H18 0.930 . S
C33 N29 1.334 . S
C33 C31 1.390 . S
C34 C31 1.339 . S
C34 C32 1.416 1_655 S
C34 H41 0.930 . S
N35 Tb0 2.572 1_455 S
N35 C36 1.340 . S
N35 C38 1.361 . S
C36 H22 0.930 . S
C36 N35 1.340 . S
C36 C40 1.407 . S
C37 C38 1.413 . S
C37 C39 1.416 . S
C37 C66 1.427 . S
C38 C30 1.424 . S
C38 N35 1.361 . S
C38 C37 1.413 . S
C39 H28 0.931 . S
C39 C37 1.416 . S
C39 C40 1.332 . S
C40 H19 0.929 . S
C40 C36 1.407 . S
C40 C39 1.332 . S
H41 C34 0.930 . S
H42 C65 0.930 . S
H43 C66 0.929 . S
O44 Tb0 2.465 1_455 S
O44 C64 1.264 1_455 S
O45 Tb0 2.387 1_455 S
O45 C56 1.264 . S
O46 Tb11 2.349 1_545 S
O46 C56 1.243 . S
O47 Tb0 2.428 . S
O47 C64 1.256 . S
O48 Tb0 2.308 1_465 S
O48 C63 1.266 . S
O49 Tb11 2.393 . S
O49 C63 1.248 . S
O50 Tb11 2.465 1_655 S
O50 C75 1.264 1_655 S
O51 Tb11 2.387 1_655 S
O51 C67 1.264 . S
O52 Tb0 2.349 1_565 S
O52 C67 1.243 . S
O53 Tb11 2.428 . S
O53 C75 1.256 . S
O54 Tb11 2.308 1_645 S
O54 C74 1.266 . S
O55 Tb0 2.393 . S
O55 C74 1.248 . S
C56 O45 1.264 . S
C56 O46 1.243 . S
C57 C60 1.399 . S
C57 C62 1.383 . S
C57 C64 1.496 . S
C58 C59 1.399 . S
C58 C62 1.389 . S
C59 C58 1.399 . S
C59 C61 1.380 . S
C59 H76 0.929 . S
C60 C57 1.399 . S
C60 C61 1.392 . S
C60 H77 0.929 . S
C61 C59 1.380 . S
C61 C60 1.392 . S
C61 H78 0.929 . S
C62 C57 1.383 . S
C62 C58 1.389 . S
C62 H79 0.931 1_645 S
C63 O48 1.266 . S
C63 O49 1.248 . S
C64 Tb0 2.802 . S
C64 O44 1.264 1_655 S
C64 O47 1.256 . S
C64 C57 1.496 . S
C65 C32 1.448 . S
C65 H42 0.930 . S
C65 C66 1.328 . S
C66 C37 1.427 . S
C66 H43 0.929 . S
C66 C65 1.328 . S
C67 O51 1.264 . S
C67 O52 1.243 . S
C68 C71 1.399 . S
C68 C72 1.383 . S
C68 C75 1.496 . S
C69 C70 1.399 . S
C69 C72 1.389 . S
C70 C69 1.399 . S
C70 C73 1.380 . S
C70 H80 0.929 . S
C71 C68 1.399 . S
C71 C73 1.392 . S
C71 H81 0.929 . S
C72 C68 1.383 . S
C72 C69 1.389 . S
C72 H82 0.931 1_465 S
C73 C70 1.380 . S
C73 C71 1.392 . S
C73 H83 0.929 . S
C74 O54 1.266 . S
C74 O55 1.248 . S
C75 Tb11 2.802 . S
C75 O50 1.264 1_455 S
C75 O53 1.256 . S
C75 C68 1.496 . S
H76 C59 0.929 . S
H77 C60 0.929 . S
H78 C61 0.929 . S
H79 C62 0.931 1_465 S
H80 C70 0.929 . S
H81 C71 0.929 . S
H82 C72 0.931 1_645 S
H83 C73 0.929 . S
Tb84 N113 2.617 . S
Tb84 N119 2.572 . S
Tb84 O128 2.465 . S
Tb84 O129 2.387 . S
Tb84 O131 2.428 . S
Tb84 O132 2.308 . S
Tb84 O136 2.349 . S
Tb84 O139 2.393 . S
Tb84 C148 2.802 . S
C85 N86 1.379 . S
C85 C88 1.416 . S
C85 C92 1.424 . S
N86 C85 1.379 . S
N86 C89 1.334 . S
N86 Tb95 2.617 . S
C87 C89 1.390 . S
C87 C90 1.339 . S
C87 H107 0.930 . S
C88 C85 1.416 . S
C88 C90 1.416 . S
C88 C94 1.448 . S
C89 N86 1.334 . S
C89 C87 1.390 . S
C89 H100 0.930 . S
C90 C87 1.339 . S
C90 C88 1.416 . S
C90 H111 0.930 . S
C91 C92 1.413 . S
C91 C93 1.427 . S
C91 C97 1.416 . S
C92 C85 1.424 . S
C92 C91 1.413 . S
C92 N96 1.361 . S
C93 C91 1.427 . S
C93 C94 1.328 . S
C93 H108 0.929 . S
C94 C88 1.448 . S
C94 C93 1.328 . S
C94 H109 0.930 . S
Tb95 N86 2.617 . S
Tb95 N96 2.572 . S
Tb95 O130 2.349 . S
Tb95 O133 2.393 . S
Tb95 O134 2.465 . S
Tb95 O135 2.387 . S
Tb95 O137 2.428 . S
Tb95 O138 2.308 . S
Tb95 C159 2.802 . S
N96 C92 1.361 . S
N96 Tb95 2.572 . S
N96 C98 1.340 . S
C97 C91 1.416 . S
C97 C99 1.332 . S
C97 H105 0.931 . S
C98 N96 1.340 . S
C98 C99 1.407 . S
C98 H104 0.930 . S
C99 C97 1.332 . S
C99 C98 1.407 . S
C99 H101 0.929 . S
H100 C89 0.930 . S
H101 C99 0.929 . S
H102 C117 0.930 . S
H103 C124 0.929 . S
H104 C98 0.930 . S
H105 C97 0.931 . S
H106 C120 0.930 . S
H107 C87 0.930 . S
H108 C93 0.929 . S
H109 C94 0.930 . S
H110 C115 0.930 . S
H111 C90 0.930 . S
H112 C123 0.931 . S
N113 Tb84 2.617 . S
N113 C114 1.379 . S
N113 C117 1.334 . S
C114 N113 1.379 . S
C114 C116 1.416 . S
C114 C122 1.424 . S
C115 H110 0.930 . S
C115 C117 1.390 . S
C115 C118 1.339 . S
C116 C114 1.416 . S
C116 C118 1.416 . S
C116 C149 1.448 . S
C117 H102 0.930 . S
C117 N113 1.334 . S
C117 C115 1.390 . S
C118 C115 1.339 . S
C118 C116 1.416 . S
C118 H125 0.930 1_455 S
N119 Tb84 2.572 . S
N119 C120 1.340 . S
N119 C122 1.361 . S
C120 H106 0.930 . S
C120 N119 1.340 . S
C120 C124 1.407 . S
C121 C122 1.413 . S
C121 C123 1.416 . S
C121 C150 1.427 . S
C122 C114 1.424 . S
C122 N119 1.361 . S
C122 C121 1.413 . S
C123 H112 0.931 . S
C123 C121 1.416 . S
C123 C124 1.332 . S
C124 H103 0.929 . S
C124 C120 1.407 . S
C124 C123 1.332 . S
H125 C118 0.930 1_655 S
H126 C149 0.930 1_655 S
H127 C150 0.929 . S
O128 Tb84 2.465 . S
O128 C148 1.264 . S
O129 Tb84 2.387 . S
O129 C140 1.264 . S
O130 Tb95 2.349 . S
O130 C140 1.243 . S
O131 Tb84 2.428 . S
O131 C148 1.256 . S
O132 Tb84 2.308 . S
O132 C147 1.266 . S
O133 Tb95 2.393 . S
O133 C147 1.248 . S
O134 Tb95 2.465 . S
O134 C159 1.264 . S
O135 Tb95 2.387 . S
O135 C151 1.264 . S
O136 Tb84 2.349 . S
O136 C151 1.243 . S
O137 Tb95 2.428 . S
O137 C159 1.256 . S
O138 Tb95 2.308 . S
O138 C158 1.266 . S
O139 Tb84 2.393 . S
O139 C158 1.248 . S
C140 O129 1.264 . S
C140 O130 1.243 . S
C141 C144 1.399 . S
C141 C146 1.383 . S
C141 C148 1.496 1_554 S
C142 C143 1.399 . S
C142 C146 1.389 . S
C143 C142 1.399 . S
C143 C145 1.380 . S
C143 H160 0.929 . S
C144 C141 1.399 . S
C144 C145 1.392 . S
C144 H161 0.929 . S
C145 C143 1.380 . S
C145 C144 1.392 . S
C145 H162 0.929 . S
C146 C141 1.383 . S
C146 C142 1.389 . S
C146 H163 0.931 . S
C147 O132 1.266 . S
C147 O133 1.248 . S
C148 Tb84 2.802 . S
C148 O128 1.264 . S
C148 O131 1.256 . S
C148 C141 1.496 1_556 S
C149 C116 1.448 . S
C149 H126 0.930 1_455 S
C149 C150 1.328 . S
C150 C121 1.427 . S
C150 H127 0.929 . S
C150 C149 1.328 . S
C151 O135 1.264 . S
C151 O136 1.243 . S
C152 C155 1.399 . S
C152 C156 1.383 . S
C152 C159 1.496 . S
C153 C154 1.399 . S
C153 C156 1.389 . S
C154 C153 1.399 . S
C154 C157 1.380 . S
C154 H164 0.929 . S
C155 C152 1.399 . S
C155 C157 1.392 . S
C155 H165 0.929 . S
C156 C152 1.383 . S
C156 C153 1.389 . S
C156 H166 0.931 . S
C157 C154 1.380 . S
C157 C155 1.392 . S
C157 H167 0.929 . S
C158 O138 1.266 . S
C158 O139 1.248 . S
C159 Tb95 2.802 . S
C159 O134 1.264 . S
C159 O137 1.256 . S
C159 C152 1.496 . S
H160 C143 0.929 . S
H161 C144 0.929 . S
H162 C145 0.929 . S
H163 C146 0.931 . S
H164 C154 0.929 . S
H165 C155 0.929 . S
H166 C156 0.931 . S
H167 C157 0.929 . S
Tb168 N197 2.617 . S
Tb168 N203 2.572 . S
Tb168 O212 2.465 . S
Tb168 O213 2.387 1_554 S
Tb168 O215 2.428 . S
Tb168 O216 2.308 1_565 S
Tb168 O220 2.349 1_565 S
Tb168 O223 2.393 . S
Tb168 C232 2.802 . S
C169 N170 1.379 . S
C169 C172 1.416 . S
C169 C176 1.424 . S
N170 C169 1.379 . S
N170 C173 1.334 . S
N170 Tb179 2.617 . S
C171 C173 1.390 . S
C171 C174 1.339 . S
C171 H191 0.930 . S
C172 C169 1.416 . S
C172 C174 1.416 . S
C172 C178 1.448 . S
C173 N170 1.334 . S
C173 C171 1.390 . S
C173 H184 0.930 . S
C174 C171 1.339 . S
C174 C172 1.416 . S
C174 H195 0.930 . S
C175 C176 1.413 . S
C175 C177 1.427 . S
C175 C181 1.416 . S
C176 C169 1.424 . S
C176 C175 1.413 . S
C176 N180 1.361 . S
C177 C175 1.427 . S
C177 C178 1.328 . S
C177 H192 0.929 . S
C178 C172 1.448 . S
C178 C177 1.328 . S
C178 H193 0.930 . S
Tb179 N170 2.617 . S
Tb179 N180 2.572 . S
Tb179 O214 2.349 1_545 S
Tb179 O217 2.393 . S
Tb179 O218 2.465 . S
Tb179 O219 2.387 1_556 S
Tb179 O221 2.428 . S
Tb179 O222 2.308 1_545 S
Tb179 C243 2.802 . S
N180 C176 1.361 . S
N180 Tb179 2.572 . S
N180 C182 1.340 . S
C181 C175 1.416 . S
C181 C183 1.332 . S
C181 H189 0.931 . S
C182 N180 1.340 . S
C182 C183 1.407 . S
C182 H188 0.930 . S
C183 C181 1.332 . S
C183 C182 1.407 . S
C183 H185 0.929 . S
H184 C173 0.930 . S
H185 C183 0.929 . S
H186 C201 0.930 . S
H187 C208 0.929 . S
H188 C182 0.930 . S
H189 C181 0.931 . S
H190 C204 0.930 . S
H191 C171 0.930 . S
H192 C177 0.929 . S
H193 C178 0.930 . S
H194 C199 0.930 . S
H195 C174 0.930 . S
H196 C207 0.931 . S
N197 Tb168 2.617 . S
N197 C198 1.379 . S
N197 C201 1.334 . S
C198 N197 1.379 . S
C198 C200 1.416 . S
C198 C206 1.424 . S
C199 H194 0.930 . S
C199 C201 1.390 . S
C199 C202 1.339 . S
C200 C198 1.416 . S
C200 C202 1.416 . S
C200 C233 1.448 . S
C201 H186 0.930 . S
C201 N197 1.334 . S
C201 C199 1.390 . S
C202 C199 1.339 . S
C202 C200 1.416 . S
C202 H209 0.930 . S
N203 Tb168 2.572 . S
N203 C204 1.340 . S
N203 C206 1.361 . S
C204 H190 0.930 . S
C204 N203 1.340 . S
C204 C208 1.407 . S
C205 C206 1.413 . S
C205 C207 1.416 . S
C205 C234 1.427 . S
C206 C198 1.424 . S
C206 N203 1.361 . S
C206 C205 1.413 . S
C207 H196 0.931 . S
C207 C205 1.416 . S
C207 C208 1.332 . S
C208 H187 0.929 . S
C208 C204 1.407 . S
C208 C207 1.332 . S
H209 C202 0.930 . S
H210 C233 0.930 . S
H211 C234 0.929 . S
O212 Tb168 2.465 . S
O212 C232 1.264 . S
O213 Tb168 2.387 1_556 S
O213 C224 1.264 . S
O214 Tb179 2.349 1_565 S
O214 C224 1.243 . S
O215 Tb168 2.428 . S
O215 C232 1.256 . S
O216 Tb168 2.308 1_545 S
O216 C231 1.266 . S
O217 Tb179 2.393 . S
O217 C231 1.248 1_556 S
O218 Tb179 2.465 . S
O218 C243 1.264 . S
O219 Tb179 2.387 1_554 S
O219 C235 1.264 . S
O220 Tb168 2.349 1_545 S
O220 C235 1.243 . S
O221 Tb179 2.428 . S
O221 C243 1.256 . S
O222 Tb179 2.308 1_565 S
O222 C242 1.266 . S
O223 Tb168 2.393 . S
O223 C242 1.248 1_554 S
C224 O213 1.264 . S
C224 O214 1.243 . S
C225 C228 1.399 . S
C225 C230 1.383 . S
C225 C232 1.496 . S
C226 C227 1.399 . S
C226 C230 1.389 . S
C227 C226 1.399 . S
C227 C229 1.380 . S
C227 H244 0.929 . S
C228 C225 1.399 . S
C228 C229 1.392 . S
C228 H245 0.929 . S
C229 C227 1.380 . S
C229 C228 1.392 . S
C229 H246 0.929 . S
C230 C225 1.383 . S
C230 C226 1.389 . S
C230 H247 0.931 1_565 S
C231 O216 1.266 . S
C231 O217 1.248 1_554 S
C232 Tb168 2.802 . S
C232 O212 1.264 . S
C232 O215 1.256 . S
C232 C225 1.496 . S
C233 C200 1.448 . S
C233 H210 0.930 . S
C233 C234 1.328 . S
C234 C205 1.427 . S
C234 H211 0.929 . S
C234 C233 1.328 . S
C235 O219 1.264 . S
C235 O220 1.243 . S
C236 C239 1.399 . S
C236 C240 1.383 . S
C236 C243 1.496 . S
C237 C238 1.399 . S
C237 C240 1.389 . S
C238 C237 1.399 . S
C238 C241 1.380 . S
C238 H248 0.929 . S
C239 C236 1.399 . S
C239 C241 1.392 . S
C239 H249 0.929 . S
C240 C236 1.383 . S
C240 C237 1.389 . S
C240 H250 0.931 1_545 S
C241 C238 1.380 . S
C241 C239 1.392 . S
C241 H251 0.929 . S
C242 O222 1.266 . S
C242 O223 1.248 1_556 S
C243 Tb179 2.802 . S
C243 O218 1.264 . S
C243 O221 1.256 . S
C243 C236 1.496 . S
H244 C227 0.929 . S
H245 C228 0.929 . S
H246 C229 0.929 . S
H247 C230 0.931 1_545 S
H248 C238 0.929 . S
H249 C239 0.929 . S
H250 C240 0.931 1_565 S
H251 C241 0.929 . S
Tb252 N281 2.617 . S
Tb252 N287 2.572 . S
Tb252 O296 2.465 . S
Tb252 O297 2.387 . S
Tb252 O299 2.428 . S
Tb252 O300 2.308 . S
Tb252 O304 2.349 . S
Tb252 O307 2.393 . S
Tb252 C316 2.802 . S
C253 N254 1.379 . S
C253 C256 1.416 . S
C253 C260 1.424 . S
N254 C253 1.379 . S
N254 C257 1.334 . S
N254 Tb263 2.617 . S
C255 C257 1.390 . S
C255 C258 1.339 . S
C255 H275 0.930 . S
C256 C253 1.416 . S
C256 C258 1.416 . S
C256 C262 1.448 . S
C257 N254 1.334 . S
C257 C255 1.390 . S
C257 H268 0.930 . S
C258 C255 1.339 . S
C258 C256 1.416 . S
C258 H279 0.930 . S
C259 C260 1.413 . S
C259 C261 1.427 . S
C259 C265 1.416 . S
C260 C253 1.424 . S
C260 C259 1.413 . S
C260 N264 1.361 . S
C261 C259 1.427 . S
C261 C262 1.328 . S
C261 H276 0.929 . S
C262 C256 1.448 . S
C262 C261 1.328 . S
C262 H277 0.930 . S
Tb263 N254 2.617 . S
Tb263 N264 2.572 . S
Tb263 O298 2.349 . S
Tb263 O301 2.393 . S
Tb263 O302 2.465 . S
Tb263 O303 2.387 . S
Tb263 O305 2.428 . S
Tb263 O306 2.308 . S
Tb263 C327 2.802 . S
N264 C260 1.361 . S
N264 Tb263 2.572 . S
N264 C266 1.340 . S
C265 C259 1.416 . S
C265 C267 1.332 . S
C265 H273 0.931 . S
C266 N264 1.340 . S
C266 C267 1.407 . S
C266 H272 0.930 . S
C267 C265 1.332 . S
C267 C266 1.407 . S
C267 H269 0.929 . S
H268 C257 0.930 . S
H269 C267 0.929 . S
H270 C285 0.930 . S
H271 C292 0.929 . S
H272 C266 0.930 . S
H273 C265 0.931 . S
H274 C288 0.930 . S
H275 C255 0.930 . S
H276 C261 0.929 . S
H277 C262 0.930 . S
H278 C283 0.930 . S
H279 C258 0.930 . S
H280 C291 0.931 . S
N281 Tb252 2.617 . S
N281 C282 1.379 . S
N281 C285 1.334 . S
C282 N281 1.379 . S
C282 C284 1.416 . S
C282 C290 1.424 . S
C283 H278 0.930 . S
C283 C285 1.390 . S
C283 C286 1.339 . S
C284 C282 1.416 . S
C284 C286 1.416 . S
C284 C317 1.448 . S
C285 H270 0.930 . S
C285 N281 1.334 . S
C285 C283 1.390 . S
C286 C283 1.339 . S
C286 C284 1.416 . S
C286 H293 0.930 1_455 S
N287 Tb252 2.572 . S
N287 C288 1.340 . S
N287 C290 1.361 . S
C288 H274 0.930 . S
C288 N287 1.340 . S
C288 C292 1.407 . S
C289 C290 1.413 . S
C289 C291 1.416 . S
C289 C318 1.427 . S
C290 C282 1.424 . S
C290 N287 1.361 . S
C290 C289 1.413 . S
C291 H280 0.931 . S
C291 C289 1.416 . S
C291 C292 1.332 . S
C292 H271 0.929 . S
C292 C288 1.407 . S
C292 C291 1.332 . S
H293 C286 0.930 1_655 S
H294 C317 0.930 1_655 S
H295 C318 0.929 . S
O296 Tb252 2.465 . S
O296 C316 1.264 . S
O297 Tb252 2.387 . S
O297 C308 1.264 . S
O298 Tb263 2.349 . S
O298 C308 1.243 . S
O299 Tb252 2.428 . S
O299 C316 1.256 . S
O300 Tb252 2.308 . S
O300 C315 1.266 . S
O301 Tb263 2.393 . S
O301 C315 1.248 . S
O302 Tb263 2.465 . S
O302 C327 1.264 . S
O303 Tb263 2.387 . S
O303 C319 1.264 . S
O304 Tb252 2.349 . S
O304 C319 1.243 . S
O305 Tb263 2.428 . S
O305 C327 1.256 . S
O306 Tb263 2.308 . S
O306 C326 1.266 . S
O307 Tb252 2.393 . S
O307 C326 1.248 . S
C308 O297 1.264 . S
C308 O298 1.243 . S
C309 C312 1.399 . S
C309 C314 1.383 . S
C309 C316 1.496 1_556 S
C310 C311 1.399 . S
C310 C314 1.389 . S
C311 C310 1.399 . S
C311 C313 1.380 . S
C311 H328 0.929 . S
C312 C309 1.399 . S
C312 C313 1.392 . S
C312 H329 0.929 . S
C313 C311 1.380 . S
C313 C312 1.392 . S
C313 H330 0.929 . S
C314 C309 1.383 . S
C314 C310 1.389 . S
C314 H331 0.931 . S
C315 O300 1.266 . S
C315 O301 1.248 . S
C316 Tb252 2.802 . S
C316 O296 1.264 . S
C316 O299 1.256 . S
C316 C309 1.496 1_554 S
C317 C284 1.448 . S
C317 H294 0.930 1_455 S
C317 C318 1.328 . S
C318 C289 1.427 . S
C318 H295 0.929 . S
C318 C317 1.328 . S
C319 O303 1.264 . S
C319 O304 1.243 . S
C320 C323 1.399 . S
C320 C324 1.383 . S
C320 C327 1.496 . S
C321 C322 1.399 . S
C321 C324 1.389 . S
C322 C321 1.399 . S
C322 C325 1.380 . S
C322 H332 0.929 . S
C323 C320 1.399 . S
C323 C325 1.392 . S
C323 H333 0.929 . S
C324 C320 1.383 . S
C324 C321 1.389 . S
C324 H334 0.931 . S
C325 C322 1.380 . S
C325 C323 1.392 . S
C325 H335 0.929 . S
C326 O306 1.266 . S
C326 O307 1.248 . S
C327 Tb263 2.802 . S
C327 O302 1.264 . S
C327 O305 1.256 . S
C327 C320 1.496 . S
H328 C311 0.929 . S
H329 C312 0.929 . S
H330 C313 0.929 . S
H331 C314 0.931 . S
H332 C322 0.929 . S
H333 C323 0.929 . S
H334 C324 0.931 . S
H335 C325 0.929 . S
Tb336 N365 2.617 . S
Tb336 N371 2.572 . S
Tb336 O380 2.465 . S
Tb336 O381 2.387 . S
Tb336 O383 2.428 . S
Tb336 O384 2.308 . S
Tb336 O388 2.349 . S
Tb336 O391 2.393 . S
Tb336 C400 2.802 . S
C337 N338 1.379 . S
C337 C340 1.416 . S
C337 C344 1.424 . S
N338 C337 1.379 . S
N338 C341 1.334 . S
N338 Tb347 2.617 . S
C339 C341 1.390 . S
C339 C342 1.339 . S
C339 H359 0.930 . S
C340 C337 1.416 . S
C340 C342 1.416 . S
C340 C346 1.448 . S
C341 N338 1.334 . S
C341 C339 1.390 . S
C341 H352 0.930 . S
C342 C339 1.339 . S
C342 C340 1.416 . S
C342 H363 0.930 1_655 S
C343 C344 1.413 . S
C343 C345 1.427 . S
C343 C349 1.416 . S
C344 C337 1.424 . S
C344 C343 1.413 . S
C344 N348 1.361 . S
C345 C343 1.427 . S
C345 C346 1.328 . S
C345 H360 0.929 . S
C346 C340 1.448 . S
C346 C345 1.328 . S
C346 H361 0.930 1_655 S
Tb347 N338 2.617 . S
Tb347 N348 2.572 . S
Tb347 O382 2.349 . S
Tb347 O385 2.393 . S
Tb347 O386 2.465 . S
Tb347 O387 2.387 . S
Tb347 O389 2.428 . S
Tb347 O390 2.308 . S
Tb347 C411 2.802 . S
N348 C344 1.361 . S
N348 Tb347 2.572 . S
N348 C350 1.340 . S
C349 C343 1.416 . S
C349 C351 1.332 . S
C349 H357 0.931 . S
C350 N348 1.340 . S
C350 C351 1.407 . S
C350 H356 0.930 . S
C351 C349 1.332 . S
C351 C350 1.407 . S
C351 H353 0.929 . S
H352 C341 0.930 . S
H353 C351 0.929 . S
H354 C369 0.930 . S
H355 C376 0.929 . S
H356 C350 0.930 . S
H357 C349 0.931 . S
H358 C372 0.930 . S
H359 C339 0.930 . S
H360 C345 0.929 . S
H361 C346 0.930 1_455 S
H362 C367 0.930 . S
H363 C342 0.930 1_455 S
H364 C375 0.931 . S
N365 Tb336 2.617 . S
N365 C366 1.379 . S
N365 C369 1.334 . S
C366 N365 1.379 . S
C366 C368 1.416 . S
C366 C374 1.424 . S
C367 H362 0.930 . S
C367 C369 1.390 . S
C367 C370 1.339 . S
C368 C366 1.416 . S
C368 C370 1.416 . S
C368 C401 1.448 . S
C369 H354 0.930 . S
C369 N365 1.334 . S
C369 C367 1.390 . S
C370 C367 1.339 . S
C370 C368 1.416 . S
C370 H377 0.930 . S
N371 Tb336 2.572 . S
N371 C372 1.340 . S
N371 C374 1.361 . S
C372 H358 0.930 . S
C372 N371 1.340 . S
C372 C376 1.407 . S
C373 C374 1.413 . S
C373 C375 1.416 . S
C373 C402 1.427 . S
C374 C366 1.424 . S
C374 N371 1.361 . S
C374 C373 1.413 . S
C375 H364 0.931 . S
C375 C373 1.416 . S
C375 C376 1.332 . S
C376 H355 0.929 . S
C376 C372 1.407 . S
C376 C375 1.332 . S
H377 C370 0.930 . S
H378 C401 0.930 . S
H379 C402 0.929 . S
O380 Tb336 2.465 . S
O380 C400 1.264 . S
O381 Tb336 2.387 . S
O381 C392 1.264 . S
O382 Tb347 2.349 . S
O382 C392 1.243 . S
O383 Tb336 2.428 . S
O383 C400 1.256 . S
O384 Tb336 2.308 . S
O384 C399 1.266 . S
O385 Tb347 2.393 . S
O385 C399 1.248 . S
O386 Tb347 2.465 . S
O386 C411 1.264 . S
O387 Tb347 2.387 . S
O387 C403 1.264 . S
O388 Tb336 2.349 . S
O388 C403 1.243 . S
O389 Tb347 2.428 . S
O389 C411 1.256 . S
O390 Tb347 2.308 . S
O390 C410 1.266 . S
O391 Tb336 2.393 . S
O391 C410 1.248 . S
C392 O381 1.264 . S
C392 O382 1.243 . S
C393 C396 1.399 . S
C393 C398 1.383 . S
C393 C400 1.496 . S
C394 C395 1.399 . S
C394 C398 1.389 . S
C395 C394 1.399 . S
C395 C397 1.380 . S
C395 H412 0.929 . S
C396 C393 1.399 . S
C396 C397 1.392 . S
C396 H413 0.929 . S
C397 C395 1.380 . S
C397 C396 1.392 . S
C397 H414 0.929 . S
C398 C393 1.383 . S
C398 C394 1.389 . S
C398 H415 0.931 . S
C399 O384 1.266 . S
C399 O385 1.248 . S
C400 Tb336 2.802 . S
C400 O380 1.264 . S
C400 O383 1.256 . S
C400 C393 1.496 . S
C401 C368 1.448 . S
C401 H378 0.930 . S
C401 C402 1.328 . S
C402 C373 1.427 . S
C402 H379 0.929 . S
C402 C401 1.328 . S
C403 O387 1.264 . S
C403 O388 1.243 . S
C404 C407 1.399 . S
C404 C408 1.383 . S
C404 C411 1.496 1_556 S
C405 C406 1.399 . S
C405 C408 1.389 . S
C406 C405 1.399 . S
C406 C409 1.380 . S
C406 H416 0.929 . S
C407 C404 1.399 . S
C407 C409 1.392 . S
C407 H417 0.929 . S
C408 C404 1.383 . S
C408 C405 1.389 . S
C408 H418 0.931 . S
C409 C406 1.380 . S
C409 C407 1.392 . S
C409 H419 0.929 . S
C410 O390 1.266 . S
C410 O391 1.248 . S
C411 Tb347 2.802 . S
C411 O386 1.264 . S
C411 O389 1.256 . S
C411 C404 1.496 1_554 S
H412 C395 0.929 . S
H413 C396 0.929 . S
H414 C397 0.929 . S
H415 C398 0.931 . S
H416 C406 0.929 . S
H417 C407 0.929 . S
H418 C408 0.931 . S
H419 C409 0.929 . S
Tb420 N449 2.617 . S
Tb420 N455 2.572 . S
Tb420 O464 2.465 . S
Tb420 O465 2.387 . S
Tb420 O467 2.428 . S
Tb420 O468 2.308 . S
Tb420 O472 2.349 . S
Tb420 O475 2.393 . S
Tb420 C484 2.802 . S
C421 N422 1.379 . S
C421 C424 1.416 . S
C421 C428 1.424 . S
N422 C421 1.379 . S
N422 C425 1.334 . S
N422 Tb431 2.617 . S
C423 C425 1.390 . S
C423 C426 1.339 . S
C423 H443 0.930 . S
C424 C421 1.416 . S
C424 C426 1.416 . S
C424 C430 1.448 . S
C425 N422 1.334 . S
C425 C423 1.390 . S
C425 H436 0.930 . S
C426 C423 1.339 . S
C426 C424 1.416 . S
C426 H447 0.930 1_655 S
C427 C428 1.413 . S
C427 C429 1.427 . S
C427 C433 1.416 . S
C428 C421 1.424 . S
C428 C427 1.413 . S
C428 N432 1.361 . S
C429 C427 1.427 . S
C429 C430 1.328 . S
C429 H444 0.929 . S
C430 C424 1.448 . S
C430 C429 1.328 . S
C430 H445 0.930 1_655 S
Tb431 N422 2.617 . S
Tb431 N432 2.572 . S
Tb431 O466 2.349 . S
Tb431 O469 2.393 . S
Tb431 O470 2.465 . S
Tb431 O471 2.387 . S
Tb431 O473 2.428 . S
Tb431 O474 2.308 . S
Tb431 C495 2.802 . S
N432 C428 1.361 . S
N432 Tb431 2.572 . S
N432 C434 1.340 . S
C433 C427 1.416 . S
C433 C435 1.332 . S
C433 H441 0.931 . S
C434 N432 1.340 . S
C434 C435 1.407 . S
C434 H440 0.930 . S
C435 C433 1.332 . S
C435 C434 1.407 . S
C435 H437 0.929 . S
H436 C425 0.930 . S
H437 C435 0.929 . S
H438 C453 0.930 . S
H439 C460 0.929 . S
H440 C434 0.930 . S
H441 C433 0.931 . S
H442 C456 0.930 . S
H443 C423 0.930 . S
H444 C429 0.929 . S
H445 C430 0.930 1_455 S
H446 C451 0.930 . S
H447 C426 0.930 1_455 S
H448 C459 0.931 . S
N449 Tb420 2.617 . S
N449 C450 1.379 . S
N449 C453 1.334 . S
C450 N449 1.379 . S
C450 C452 1.416 . S
C450 C458 1.424 . S
C451 H446 0.930 . S
C451 C453 1.390 . S
C451 C454 1.339 . S
C452 C450 1.416 . S
C452 C454 1.416 . S
C452 C485 1.448 . S
C453 H438 0.930 . S
C453 N449 1.334 . S
C453 C451 1.390 . S
C454 C451 1.339 . S
C454 C452 1.416 . S
C454 H461 0.930 . S
N455 Tb420 2.572 . S
N455 C456 1.340 . S
N455 C458 1.361 . S
C456 H442 0.930 . S
C456 N455 1.340 . S
C456 C460 1.407 . S
C457 C458 1.413 . S
C457 C459 1.416 . S
C457 C486 1.427 . S
C458 C450 1.424 . S
C458 N455 1.361 . S
C458 C457 1.413 . S
C459 H448 0.931 . S
C459 C457 1.416 . S
C459 C460 1.332 . S
C460 H439 0.929 . S
C460 C456 1.407 . S
C460 C459 1.332 . S
H461 C454 0.930 . S
H462 C485 0.930 . S
H463 C486 0.929 . S
O464 Tb420 2.465 . S
O464 C484 1.264 . S
O465 Tb420 2.387 . S
O465 C476 1.264 . S
O466 Tb431 2.349 . S
O466 C476 1.243 . S
O467 Tb420 2.428 . S
O467 C484 1.256 . S
O468 Tb420 2.308 . S
O468 C483 1.266 . S
O469 Tb431 2.393 . S
O469 C483 1.248 . S
O470 Tb431 2.465 . S
O470 C495 1.264 . S
O471 Tb431 2.387 . S
O471 C487 1.264 . S
O472 Tb420 2.349 . S
O472 C487 1.243 . S
O473 Tb431 2.428 . S
O473 C495 1.256 . S
O474 Tb431 2.308 . S
O474 C494 1.266 . S
O475 Tb420 2.393 . S
O475 C494 1.248 . S
C476 O465 1.264 . S
C476 O466 1.243 . S
C477 C480 1.399 . S
C477 C482 1.383 . S
C477 C484 1.496 . S
C478 C479 1.399 . S
C478 C482 1.389 . S
C479 C478 1.399 . S
C479 C481 1.380 . S
C479 H496 0.929 . S
C480 C477 1.399 . S
C480 C481 1.392 . S
C480 H497 0.929 . S
C481 C479 1.380 . S
C481 C480 1.392 . S
C481 H498 0.929 . S
C482 C477 1.383 . S
C482 C478 1.389 . S
C482 H499 0.931 . S
C483 O468 1.266 . S
C483 O469 1.248 . S
C484 Tb420 2.802 . S
C484 O464 1.264 . S
C484 O467 1.256 . S
C484 C477 1.496 . S
C485 C452 1.448 . S
C485 H462 0.930 . S
C485 C486 1.328 . S
C486 C457 1.427 . S
C486 H463 0.929 . S
C486 C485 1.328 . S
C487 O471 1.264 . S
C487 O472 1.243 . S
C488 C491 1.399 . S
C488 C492 1.383 . S
C488 C495 1.496 1_554 S
C489 C490 1.399 . S
C489 C492 1.389 . S
C490 C489 1.399 . S
C490 C493 1.380 . S
C490 H500 0.929 . S
C491 C488 1.399 . S
C491 C493 1.392 . S
C491 H501 0.929 . S
C492 C488 1.383 . S
C492 C489 1.389 . S
C492 H502 0.931 . S
C493 C490 1.380 . S
C493 C491 1.392 . S
C493 H503 0.929 . S
C494 O474 1.266 . S
C494 O475 1.248 . S
C495 Tb431 2.802 . S
C495 O470 1.264 . S
C495 O473 1.256 . S
C495 C488 1.496 1_556 S
H496 C479 0.929 . S
H497 C480 0.929 . S
H498 C481 0.929 . S
H499 C482 0.931 . S
H500 C490 0.929 . S
H501 C491 0.929 . S
H502 C492 0.931 . S
H503 C493 0.929 . S
Tb504 N533 2.617 . S
Tb504 N539 2.572 . S
Tb504 O548 2.465 . S
Tb504 O549 2.387 1_554 S
Tb504 O551 2.428 . S
Tb504 O552 2.308 . S
Tb504 O556 2.349 . S
Tb504 O559 2.393 . S
Tb504 C568 2.802 . S
C505 N506 1.379 . S
C505 C508 1.416 . S
C505 C512 1.424 . S
N506 C505 1.379 . S
N506 C509 1.334 . S
N506 Tb515 2.617 . S
C507 C509 1.390 . S
C507 C510 1.339 . S
C507 H527 0.930 . S
C508 C505 1.416 . S
C508 C510 1.416 . S
C508 C514 1.448 . S
C509 N506 1.334 . S
C509 C507 1.390 . S
C509 H520 0.930 . S
C510 C507 1.339 . S
C510 C508 1.416 . S
C510 H531 0.930 . S
C511 C512 1.413 . S
C511 C513 1.427 . S
C511 C517 1.416 . S
C512 C505 1.424 . S
C512 C511 1.413 . S
C512 N516 1.361 . S
C513 C511 1.427 . S
C513 C514 1.328 . S
C513 H528 0.929 . S
C514 C508 1.448 . S
C514 C513 1.328 . S
C514 H529 0.930 . S
Tb515 N506 2.617 . S
Tb515 N516 2.572 . S
Tb515 O550 2.349 . S
Tb515 O553 2.393 . S
Tb515 O554 2.465 . S
Tb515 O555 2.387 1_556 S
Tb515 O557 2.428 . S
Tb515 O558 2.308 . S
Tb515 C579 2.802 . S
N516 C512 1.361 . S
N516 Tb515 2.572 . S
N516 C518 1.340 . S
C517 C511 1.416 . S
C517 C519 1.332 . S
C517 H525 0.931 . S
C518 N516 1.340 . S
C518 C519 1.407 . S
C518 H524 0.930 . S
C519 C517 1.332 . S
C519 C518 1.407 . S
C519 H521 0.929 . S
H520 C509 0.930 . S
H521 C519 0.929 . S
H522 C537 0.930 . S
H523 C544 0.929 . S
H524 C518 0.930 . S
H525 C517 0.931 . S
H526 C540 0.930 . S
H527 C507 0.930 . S
H528 C513 0.929 . S
H529 C514 0.930 . S
H530 C535 0.930 . S
H531 C510 0.930 . S
H532 C543 0.931 . S
N533 Tb504 2.617 . S
N533 C534 1.379 . S
N533 C537 1.334 . S
C534 N533 1.379 . S
C534 C536 1.416 . S
C534 C542 1.424 . S
C535 H530 0.930 . S
C535 C537 1.390 . S
C535 C538 1.339 . S
C536 C534 1.416 . S
C536 C538 1.416 . S
C536 C569 1.448 . S
C537 H522 0.930 . S
C537 N533 1.334 . S
C537 C535 1.390 . S
C538 C535 1.339 . S
C538 C536 1.416 . S
C538 H545 0.930 . S
N539 Tb504 2.572 . S
N539 C540 1.340 . S
N539 C542 1.361 . S
C540 H526 0.930 . S
C540 N539 1.340 . S
C540 C544 1.407 . S
C541 C542 1.413 . S
C541 C543 1.416 . S
C541 C570 1.427 . S
C542 C534 1.424 . S
C542 N539 1.361 . S
C542 C541 1.413 . S
C543 H532 0.931 . S
C543 C541 1.416 . S
C543 C544 1.332 . S
C544 H523 0.929 . S
C544 C540 1.407 . S
C544 C543 1.332 . S
H545 C538 0.930 . S
H546 C569 0.930 . S
H547 C570 0.929 . S
O548 Tb504 2.465 . S
O548 C568 1.264 . S
O549 Tb504 2.387 1_556 S
O549 C560 1.264 . S
O550 Tb515 2.349 . S
O550 C560 1.243 . S
O551 Tb504 2.428 . S
O551 C568 1.256 . S
O552 Tb504 2.308 . S
O552 C567 1.266 . S
O553 Tb515 2.393 . S
O553 C567 1.248 1_556 S
O554 Tb515 2.465 . S
O554 C579 1.264 . S
O555 Tb515 2.387 1_554 S
O555 C571 1.264 . S
O556 Tb504 2.349 . S
O556 C571 1.243 . S
O557 Tb515 2.428 . S
O557 C579 1.256 . S
O558 Tb515 2.308 . S
O558 C578 1.266 . S
O559 Tb504 2.393 . S
O559 C578 1.248 1_554 S
C560 O549 1.264 . S
C560 O550 1.243 . S
C561 C564 1.399 . S
C561 C566 1.383 . S
C561 C568 1.496 . S
C562 C563 1.399 . S
C562 C566 1.389 . S
C563 C562 1.399 . S
C563 C565 1.380 . S
C563 H580 0.929 . S
C564 C561 1.399 . S
C564 C565 1.392 . S
C564 H581 0.929 . S
C565 C563 1.380 . S
C565 C564 1.392 . S
C565 H582 0.929 . S
C566 C561 1.383 . S
C566 C562 1.389 . S
C566 H583 0.931 . S
C567 O552 1.266 . S
C567 O553 1.248 1_554 S
C568 Tb504 2.802 . S
C568 O548 1.264 . S
C568 O551 1.256 . S
C568 C561 1.496 . S
C569 C536 1.448 . S
C569 H546 0.930 . S
C569 C570 1.328 . S
C570 C541 1.427 . S
C570 H547 0.929 . S
C570 C569 1.328 . S
C571 O555 1.264 . S
C571 O556 1.243 . S
C572 C575 1.399 . S
C572 C576 1.383 . S
C572 C579 1.496 . S
C573 C574 1.399 . S
C573 C576 1.389 . S
C574 C573 1.399 . S
C574 C577 1.380 . S
C574 H584 0.929 . S
C575 C572 1.399 . S
C575 C577 1.392 . S
C575 H585 0.929 . S
C576 C572 1.383 . S
C576 C573 1.389 . S
C576 H586 0.931 . S
C577 C574 1.380 . S
C577 C575 1.392 . S
C577 H587 0.929 . S
C578 O558 1.266 . S
C578 O559 1.248 1_556 S
C579 Tb515 2.802 . S
C579 O554 1.264 . S
C579 O557 1.256 . S
C579 C572 1.496 . S
H580 C563 0.929 . S
H581 C564 0.929 . S
H582 C565 0.929 . S
H583 C566 0.931 . S
H584 C574 0.929 . S
H585 C575 0.929 . S
H586 C576 0.931 . S
H587 C577 0.929 . S
Tb588 N617 2.617 . S
Tb588 N623 2.572 1_455 S
Tb588 O632 2.465 1_455 S
Tb588 O633 2.387 1_455 S
Tb588 O635 2.428 . S
Tb588 O636 2.308 1_455 S
Tb588 O640 2.349 . S
Tb588 O643 2.393 . S
Tb588 C652 2.802 . S
C589 N590 1.379 1_455 S
C589 C592 1.416 . S
C589 C596 1.424 . S
N590 C589 1.379 1_655 S
N590 C593 1.334 . S
N590 Tb599 2.617 . S
C591 C593 1.390 . S
C591 C594 1.339 . S
C591 H611 0.930 . S
C592 C589 1.416 . S
C592 C594 1.416 1_455 S
C592 C598 1.448 . S
C593 N590 1.334 . S
C593 C591 1.390 . S
C593 H604 0.930 . S
C594 C591 1.339 . S
C594 C592 1.416 1_655 S
C594 H615 0.930 . S
C595 C596 1.413 . S
C595 C597 1.427 . S
C595 C601 1.416 . S
C596 C589 1.424 . S
C596 C595 1.413 . S
C596 N600 1.361 . S
C597 C595 1.427 . S
C597 C598 1.328 . S
C597 H612 0.929 . S
C598 C592 1.448 . S
C598 C597 1.328 . S
C598 H613 0.930 . S
Tb599 N590 2.617 . S
Tb599 N600 2.572 1_655 S
Tb599 O634 2.349 . S
Tb599 O637 2.393 . S
Tb599 O638 2.465 1_655 S
Tb599 O639 2.387 1_655 S
Tb599 O641 2.428 . S
Tb599 O642 2.308 1_655 S
Tb599 C663 2.802 . S
N600 C596 1.361 . S
N600 Tb599 2.572 1_455 S
N600 C602 1.340 . S
C601 C595 1.416 . S
C601 C603 1.332 . S
C601 H609 0.931 . S
C602 N600 1.340 . S
C602 C603 1.407 . S
C602 H608 0.930 . S
C603 C601 1.332 . S
C603 C602 1.407 . S
C603 H605 0.929 . S
H604 C593 0.930 . S
H605 C603 0.929 . S
H606 C621 0.930 . S
H607 C628 0.929 . S
H608 C602 0.930 . S
H609 C601 0.931 . S
H610 C624 0.930 . S
H611 C591 0.930 . S
H612 C597 0.929 . S
H613 C598 0.930 . S
H614 C619 0.930 . S
H615 C594 0.930 . S
H616 C627 0.931 . S
N617 Tb588 2.617 . S
N617 C618 1.379 1_455 S
N617 C621 1.334 . S
C618 N617 1.379 1_655 S
C618 C620 1.416 . S
C618 C626 1.424 . S
C619 H614 0.930 . S
C619 C621 1.390 . S
C619 C622 1.339 . S
C620 C618 1.416 . S
C620 C622 1.416 1_655 S
C620 C653 1.448 . S
C621 H606 0.930 . S
C621 N617 1.334 . S
C621 C619 1.390 . S
C622 C619 1.339 . S
C622 C620 1.416 1_455 S
C622 H629 0.930 . S
N623 Tb588 2.572 1_655 S
N623 C624 1.340 . S
N623 C626 1.361 . S
C624 H610 0.930 . S
C624 N623 1.340 . S
C624 C628 1.407 . S
C625 C626 1.413 . S
C625 C627 1.416 . S
C625 C654 1.427 . S
C626 C618 1.424 . S
C626 N623 1.361 . S
C626 C625 1.413 . S
C627 H616 0.931 . S
C627 C625 1.416 . S
C627 C628 1.332 . S
C628 H607 0.929 . S
C628 C624 1.407 . S
C628 C627 1.332 . S
H629 C622 0.930 . S
H630 C653 0.930 . S
H631 C654 0.929 . S
O632 Tb588 2.465 1_655 S
O632 C652 1.264 1_655 S
O633 Tb588 2.387 1_655 S
O633 C644 1.264 . S
O634 Tb599 2.349 . S
O634 C644 1.243 . S
O635 Tb588 2.428 . S
O635 C652 1.256 . S
O636 Tb588 2.308 1_655 S
O636 C651 1.266 . S
O637 Tb599 2.393 . S
O637 C651 1.248 . S
O638 Tb599 2.465 1_455 S
O638 C663 1.264 1_455 S
O639 Tb599 2.387 1_455 S
O639 C655 1.264 . S
O640 Tb588 2.349 . S
O640 C655 1.243 . S
O641 Tb599 2.428 . S
O641 C663 1.256 . S
O642 Tb599 2.308 1_455 S
O642 C662 1.266 . S
O643 Tb588 2.393 . S
O643 C662 1.248 . S
C644 O633 1.264 . S
C644 O634 1.243 . S
C645 C648 1.399 . S
C645 C650 1.383 . S
C645 C652 1.496 . S
C646 C647 1.399 . S
C646 C650 1.389 . S
C647 C646 1.399 . S
C647 C649 1.380 . S
C647 H664 0.929 . S
C648 C645 1.399 . S
C648 C649 1.392 . S
C648 H665 0.929 . S
C649 C647 1.380 . S
C649 C648 1.392 . S
C649 H666 0.929 . S
C650 C645 1.383 . S
C650 C646 1.389 . S
C650 H667 0.931 1_455 S
C651 O636 1.266 . S
C651 O637 1.248 . S
C652 Tb588 2.802 . S
C652 O632 1.264 1_455 S
C652 O635 1.256 . S
C652 C645 1.496 . S
C653 C620 1.448 . S
C653 H630 0.930 . S
C653 C654 1.328 . S
C654 C625 1.427 . S
C654 H631 0.929 . S
C654 C653 1.328 . S
C655 O639 1.264 . S
C655 O640 1.243 . S
C656 C659 1.399 . S
C656 C660 1.383 . S
C656 C663 1.496 . S
C657 C658 1.399 . S
C657 C660 1.389 . S
C658 C657 1.399 . S
C658 C661 1.380 . S
C658 H668 0.929 . S
C659 C656 1.399 . S
C659 C661 1.392 . S
C659 H669 0.929 . S
C660 C656 1.383 . S
C660 C657 1.389 . S
C660 H670 0.931 1_655 S
C661 C658 1.380 . S
C661 C659 1.392 . S
C661 H671 0.929 . S
C662 O642 1.266 . S
C662 O643 1.248 . S
C663 Tb599 2.802 . S
C663 O638 1.264 1_655 S
C663 O641 1.256 . S
C663 C656 1.496 . S
H664 C647 0.929 . S
H665 C648 0.929 . S
H666 C649 0.929 . S
H667 C650 0.931 1_655 S
H668 C658 0.929 . S
H669 C659 0.929 . S
H670 C660 0.931 1_455 S
H671 C661 0.929 . S
C672 C673 1.363 . S
C672 C678 1.379 . S
C672 N680 1.356 . S
C673 C672 1.363 . S
C673 C679 1.363 . S
C674 C675 1.363 . S
C674 C679 1.379 . S
C674 N681 1.356 . S
C675 C674 1.363 . S
C675 C678 1.363 . S
N676 C678 1.356 . S
N676 H688 0.984 . S
N676 H689 0.985 . S
N677 C679 1.356 . S
N677 H682 0.984 . S
N677 H683 0.985 1_545 S
C678 C672 1.379 . S
C678 C675 1.363 . S
C678 N676 1.356 . S
C679 C673 1.363 . S
C679 C674 1.379 . S
C679 N677 1.356 . S
N680 C672 1.356 . S
N680 H686 0.984 . S
N680 H687 0.984 . S
N681 C674 1.356 . S
N681 H684 0.984 . S
N681 H685 0.985 . S
H682 N677 0.984 . S
H683 N677 0.985 1_565 S
H684 N681 0.984 . S
H685 N681 0.985 . S
H686 N680 0.984 . S
H687 N680 0.984 . S
H688 N676 0.984 . S
H689 N676 0.985 . S
C690 C691 1.363 . S
C690 C696 1.379 . S
C690 N698 1.356 . S
C691 C690 1.363 . S
C691 C697 1.363 . S
C692 C693 1.363 . S
C692 C697 1.379 . S
C692 N699 1.356 . S
C693 C692 1.363 . S
C693 C696 1.363 . S
N694 C696 1.356 . S
N694 H706 0.984 . S
N694 H707 0.985 . S
N695 C697 1.356 . S
N695 H700 0.984 . S
N695 H701 0.985 . S
C696 C690 1.379 . S
C696 C693 1.363 . S
C696 N694 1.356 . S
C697 C691 1.363 . S
C697 C692 1.379 . S
C697 N695 1.356 . S
N698 C690 1.356 . S
N698 H704 0.984 . S
N698 H705 0.984 . S
N699 C692 1.356 . S
N699 H702 0.984 . S
N699 H703 0.985 . S
H700 N695 0.984 . S
H701 N695 0.985 . S
H702 N699 0.984 . S
H703 N699 0.985 . S
H704 N698 0.984 . S
H705 N698 0.984 . S
H706 N694 0.984 . S
H707 N694 0.985 . S
C708 C709 1.363 . S
C708 C714 1.379 . S
C708 N716 1.356 . S
C709 C708 1.363 . S
C709 C715 1.363 . S
C710 C711 1.363 . S
C710 C715 1.379 . S
C710 N717 1.356 . S
C711 C710 1.363 . S
C711 C714 1.363 . S
N712 C714 1.356 . S
N712 H724 0.984 . S
N712 H725 0.985 . S
N713 C715 1.356 . S
N713 H718 0.984 . S
N713 H719 0.985 . S
C714 C708 1.379 . S
C714 C711 1.363 . S
C714 N712 1.356 . S
C715 C709 1.363 . S
C715 C710 1.379 . S
C715 N713 1.356 . S
N716 C708 1.356 . S
N716 H722 0.984 . S
N716 H723 0.984 . S
N717 C710 1.356 . S
N717 H720 0.984 . S
N717 H721 0.985 1_565 S
H718 N713 0.984 . S
H719 N713 0.985 . S
H720 N717 0.984 . S
H721 N717 0.985 1_545 S
H722 N716 0.984 . S
H723 N716 0.984 . S
H724 N712 0.984 . S
H725 N712 0.985 . S
C726 C727 1.363 . S
C726 C732 1.379 . S
C726 N734 1.356 . S
C727 C726 1.363 . S
C727 C733 1.363 . S
C728 C729 1.363 . S
C728 C733 1.379 . S
C728 N735 1.356 . S
C729 C728 1.363 . S
C729 C732 1.363 . S
N730 C732 1.356 . S
N730 H742 0.984 . S
N730 H743 0.985 . S
N731 C733 1.356 . S
N731 H736 0.984 1_554 S
N731 H737 0.985 1_554 S
C732 C726 1.379 . S
C732 C729 1.363 . S
C732 N730 1.356 . S
C733 C727 1.363 . S
C733 C728 1.379 . S
C733 N731 1.356 . S
N734 C726 1.356 . S
N734 H740 0.984 . S
N734 H741 0.984 . S
N735 C728 1.356 . S
N735 H738 0.984 . S
N735 H739 0.985 . S
H736 N731 0.984 1_556 S
H737 N731 0.985 1_556 S
H738 N735 0.984 . S
H739 N735 0.985 . S
H740 N734 0.984 . S
H741 N734 0.984 . S
H742 N730 0.984 . S
H743 N730 0.985 . S
C744 C745 1.363 . S
C744 C750 1.379 . S
C744 N752 1.356 . S
C745 C744 1.363 . S
C745 C751 1.363 . S
C746 C747 1.363 . S
C746 C751 1.379 . S
C746 N753 1.356 . S
C747 C746 1.363 . S
C747 C750 1.363 . S
N748 C750 1.356 . S
N748 H760 0.984 . S
N748 H761 0.985 . S
N749 C751 1.356 . S
N749 H754 0.984 . S
N749 H755 0.985 . S
C750 C744 1.379 . S
C750 C747 1.363 . S
C750 N748 1.356 . S
C751 C745 1.363 . S
C751 C746 1.379 . S
C751 N749 1.356 . S
N752 C744 1.356 . S
N752 H758 0.984 . S
N752 H759 0.984 . S
N753 C746 1.356 . S
N753 H756 0.984 . S
N753 H757 0.985 . S
H754 N749 0.984 . S
H755 N749 0.985 . S
H756 N753 0.984 . S
H757 N753 0.985 . S
H758 N752 0.984 . S
H759 N752 0.984 . S
H760 N748 0.984 . S
H761 N748 0.985 . S
C762 C763 1.363 . S
C762 C768 1.379 . S
C762 N770 1.356 . S
C763 C762 1.363 . S
C763 C769 1.363 . S
C764 C765 1.363 . S
C764 C769 1.379 . S
C764 N771 1.356 . S
C765 C764 1.363 . S
C765 C768 1.363 . S
N766 C768 1.356 . S
N766 H778 0.984 . S
N766 H779 0.985 . S
N767 C769 1.356 . S
N767 H772 0.984 . S
N767 H773 0.985 1_545 S
C768 C762 1.379 . S
C768 C765 1.363 . S
C768 N766 1.356 . S
C769 C763 1.363 . S
C769 C764 1.379 . S
C769 N767 1.356 . S
N770 C762 1.356 . S
N770 H776 0.984 . S
N770 H777 0.984 . S
N771 C764 1.356 . S
N771 H774 0.984 . S
N771 H775 0.985 . S
H772 N767 0.984 . S
H773 N767 0.985 1_565 S
H774 N771 0.984 . S
H775 N771 0.985 . S
H776 N770 0.984 . S
H777 N770 0.984 . S
H778 N766 0.984 . S
H779 N766 0.985 . S
C780 C781 1.363 . S
C780 C786 1.379 . S
C780 N788 1.356 . S
C781 C780 1.363 . S
C781 C787 1.363 . S
C782 C783 1.363 . S
C782 C787 1.379 . S
C782 N789 1.356 . S
C783 C782 1.363 . S
C783 C786 1.363 . S
N784 C786 1.356 . S
N784 H796 0.976 1_554 S
N784 H797 0.985 . S
N785 C787 1.356 . S
N785 H790 0.984 . S
N785 H791 0.985 . S
C786 C780 1.379 . S
C786 C783 1.363 . S
C786 N784 1.356 . S
C787 C781 1.363 . S
C787 C782 1.379 . S
C787 N785 1.356 . S
N788 C780 1.356 . S
N788 H794 0.984 . S
N788 H795 0.984 . S
N789 C782 1.356 . S
N789 H792 0.984 . S
N789 H793 0.985 . S
H790 N785 0.984 . S
H791 N785 0.985 . S
H792 N789 0.984 . S
H793 N789 0.985 . S
H794 N788 0.984 . S
H795 N788 0.984 . S
H796 N784 0.976 1_556 S
H797 N784 0.985 . S
C798 C799 1.363 . S
C798 C804 1.379 . S
C798 N806 1.356 . S
C799 C798 1.363 . S
C799 C805 1.363 . S
C800 C801 1.363 . S
C800 C805 1.379 . S
C800 N807 1.356 . S
C801 C800 1.363 . S
C801 C804 1.363 . S
N802 C804 1.356 . S
N802 H814 0.984 1_565 S
N802 H815 0.985 . S
N803 C805 1.356 . S
N803 H808 0.984 . S
N803 H809 0.985 . S
C804 C798 1.379 . S
C804 C801 1.363 . S
C804 N802 1.356 . S
C805 C799 1.363 . S
C805 C800 1.379 . S
C805 N803 1.356 . S
N806 C798 1.356 . S
N806 H812 0.984 . S
N806 H813 0.984 . S
N807 C800 1.356 . S
N807 H810 0.984 . S
N807 H811 0.985 . S
H808 N803 0.984 . S
H809 N803 0.985 . S
H810 N807 0.984 . S
H811 N807 0.985 . S
H812 N806 0.984 . S
H813 N806 0.984 . S
H814 N802 0.984 1_545 S
H815 N802 0.985 . S
C816 C817 1.363 . S
C816 C822 1.379 . S
C816 N824 1.356 . S
C817 C816 1.363 . S
C817 C823 1.363 . S
C818 C819 1.363 . S
C818 C823 1.379 . S
C818 N825 1.356 . S
C819 C818 1.363 . S
C819 C822 1.363 . S
N820 C822 1.356 . S
N820 H832 0.984 . S
N820 H833 0.985 . S
N821 C823 1.356 . S
N821 H826 0.984 . S
N821 H827 0.985 . S
C822 C816 1.379 . S
C822 C819 1.363 . S
C822 N820 1.356 . S
C823 C817 1.363 . S
C823 C818 1.379 . S
C823 N821 1.356 . S
N824 C816 1.356 . S
N824 H830 0.984 . S
N824 H831 0.984 . S
N825 C818 1.356 . S
N825 H828 0.984 . S
N825 H829 0.985 . S
H826 N821 0.984 . S
H827 N821 0.985 . S
H828 N825 0.984 . S
H829 N825 0.985 . S
H830 N824 0.984 . S
H831 N824 0.984 . S
H832 N820 0.984 . S
H833 N820 0.985 . S
C834 C835 1.363 . S
C834 C840 1.379 . S
C834 N842 1.356 . S
C835 C834 1.363 . S
C835 C841 1.363 . S
C836 C837 1.363 . S
C836 C841 1.379 . S
C836 N843 1.356 . S
C837 C836 1.363 . S
C837 C840 1.363 . S
N838 C840 1.356 . S
N838 H850 0.984 . S
N838 H851 0.985 . S
N839 C841 1.356 . S
N839 H844 0.984 . S
N839 H845 0.985 . S
C840 C834 1.379 . S
C840 C837 1.363 . S
C840 N838 1.356 . S
C841 C835 1.363 . S
C841 C836 1.379 . S
C841 N839 1.356 . S
N842 C834 1.356 . S
N842 H848 0.984 . S
N842 H849 0.984 . S
N843 C836 1.356 . S
N843 H846 0.991 . S
N843 H847 0.985 1_554 S
H844 N839 0.984 . S
H845 N839 0.985 . S
H846 N843 0.991 . S
H847 N843 0.985 1_556 S
H848 N842 0.984 . S
H849 N842 0.984 . S
H850 N838 0.984 . S
H851 N838 0.985 . S
C852 C853 1.363 . S
C852 C858 1.379 . S
C852 N860 1.356 . S
C853 C852 1.363 . S
C853 C859 1.363 . S
C854 C855 1.363 . S
C854 C859 1.379 . S
C854 N861 1.356 . S
C855 C854 1.363 . S
C855 C858 1.363 . S
N856 C858 1.356 . S
N856 H868 0.984 . S
N856 H869 0.985 . S
N857 C859 1.356 . S
N857 H862 0.984 . S
N857 H863 0.985 . S
C858 C852 1.379 . S
C858 C855 1.363 . S
C858 N856 1.356 . S
C859 C853 1.363 . S
C859 C854 1.379 . S
C859 N857 1.356 . S
N860 C852 1.356 . S
N860 H866 0.984 . S
N860 H867 0.984 . S
N861 C854 1.356 . S
N861 H864 0.984 . S
N861 H865 0.985 . S
H862 N857 0.984 . S
H863 N857 0.985 . S
H864 N861 0.984 . S
H865 N861 0.985 . S
H866 N860 0.984 . S
H867 N860 0.984 . S
H868 N856 0.984 . S
H869 N856 0.985 . S
C870 C871 1.363 . S
C870 C876 1.379 . S
C870 N878 1.356 . S
C871 C870 1.363 . S
C871 C877 1.363 . S
C872 C873 1.363 . S
C872 C877 1.379 . S
C872 N879 1.356 . S
C873 C872 1.363 . S
C873 C876 1.363 . S
N874 C876 1.356 . S
N874 H886 0.984 . S
N874 H887 0.985 . S
N875 C877 1.356 . S
N875 H880 0.984 . S
N875 H881 0.985 . S
C876 C870 1.379 . S
C876 C873 1.363 . S
C876 N874 1.356 . S
C877 C871 1.363 . S
C877 C872 1.379 . S
C877 N875 1.356 . S
N878 C870 1.356 . S
N878 H884 0.984 . S
N878 H885 0.984 . S
N879 C872 1.356 . S
N879 H882 0.984 . S
N879 H883 0.985 . S
H880 N875 0.984 . S
H881 N875 0.985 . S
H882 N879 0.984 . S
H883 N879 0.985 . S
H884 N878 0.984 . S
H885 N878 0.984 . S
H886 N874 0.984 . S
H887 N874 0.985 . S
C888 C889 1.363 . S
C888 C894 1.379 . S
C888 N896 1.356 . S
C889 C888 1.363 . S
C889 C895 1.363 . S
C890 C891 1.363 . S
C890 C895 1.379 . S
C890 N897 1.356 . S
C891 C890 1.363 . S
C891 C894 1.363 . S
N892 C894 1.356 . S
N892 H904 0.984 . S
N892 H905 0.985 . S
N893 C895 1.356 . S
N893 H898 0.984 . S
N893 H899 0.985 . S
C894 C888 1.379 . S
C894 C891 1.363 . S
C894 N892 1.356 . S
C895 C889 1.363 . S
C895 C890 1.379 . S
C895 N893 1.356 . S
N896 C888 1.356 . S
N896 H902 0.984 . S
N896 H903 0.984 . S
N897 C890 1.356 . S
N897 H900 0.984 . S
N897 H901 0.985 . S
H898 N893 0.984 . S
H899 N893 0.985 . S
H900 N897 0.984 . S
H901 N897 0.985 . S
H902 N896 0.984 . S
H903 N896 0.984 . S
H904 N892 0.984 . S
H905 N892 0.985 . S
C906 C907 1.363 . S
C906 C912 1.379 . S
C906 N914 1.370 . S
C907 C906 1.363 . S
C907 C913 1.363 . S
C908 C909 1.363 . S
C908 C913 1.379 . S
C908 N915 1.356 . S
C909 C908 1.363 . S
C909 C912 1.363 . S
N910 C912 1.356 . S
N910 H922 0.984 . S
N910 H923 0.985 . S
N911 C913 1.356 . S
N911 H916 0.984 . S
N911 H917 0.985 . S
C912 C906 1.379 . S
C912 C909 1.363 . S
C912 N910 1.356 . S
C913 C907 1.363 . S
C913 C908 1.379 . S
C913 N911 1.356 . S
N914 C906 1.370 . S
N914 H920 0.975 1_556 S
N914 H921 0.980 1_556 S
N915 C908 1.356 . S
N915 H918 0.984 . S
N915 H919 0.985 . S
H916 N911 0.984 . S
H917 N911 0.985 . S
H918 N915 0.984 . S
H919 N915 0.985 . S
H920 N914 0.975 1_554 S
H921 N914 0.980 1_554 S
H922 N910 0.984 . S
H923 N910 0.985 . S
C924 C925 1.363 . S
C924 C930 1.379 . S
C924 N932 1.356 . S
C925 C924 1.363 . S
C925 C931 1.363 . S
C926 C927 1.363 . S
C926 C931 1.379 . S
C926 N933 1.356 . S
C927 C926 1.363 . S
C927 C930 1.363 . S
N928 C930 1.356 . S
N928 H940 0.984 . S
N928 H941 0.985 . S
N929 C931 1.356 . S
N929 H934 0.984 . S
N929 H935 0.985 . S
C930 C924 1.379 . S
C930 C927 1.363 . S
C930 N928 1.356 . S
C931 C925 1.363 . S
C931 C926 1.379 . S
C931 N929 1.356 . S
N932 C924 1.356 . S
N932 H938 0.984 . S
N932 H939 0.984 . S
N933 C926 1.356 . S
N933 H936 0.984 . S
N933 H937 0.985 . S
H934 N929 0.984 . S
H935 N929 0.985 . S
H936 N933 0.984 . S
H937 N933 0.985 . S
H938 N932 0.984 . S
H939 N932 0.984 . S
H940 N928 0.984 . S
H941 N928 0.985 . S
C942 C943 1.363 . S
C942 C948 1.379 . S
C942 N950 1.356 . S
C943 C942 1.363 . S
C943 C949 1.363 . S
C944 C945 1.363 . S
C944 C949 1.379 . S
C944 N951 1.356 . S
C945 C944 1.363 . S
C945 C948 1.363 . S
N946 C948 1.356 . S
N946 H958 0.984 . S
N946 H959 0.985 . S
N947 C949 1.356 . S
N947 H952 0.984 . S
N947 H953 0.985 . S
C948 C942 1.379 . S
C948 C945 1.363 . S
C948 N946 1.356 . S
C949 C943 1.363 . S
C949 C944 1.379 . S
C949 N947 1.356 . S
N950 C942 1.356 . S
N950 H956 0.984 . S
N950 H957 0.984 . S
N951 C944 1.356 . S
N951 H954 0.984 . S
N951 H955 0.985 . S
H952 N947 0.984 . S
H953 N947 0.985 . S
H954 N951 0.984 . S
H955 N951 0.985 . S
H956 N950 0.984 . S
H957 N950 0.984 . S
H958 N946 0.984 . S
H959 N946 0.985 . S
C960 C961 1.363 1_565 S
C960 C966 1.379 1_556 S
C960 N968 1.356 . S
C961 C960 1.363 1_545 S
C961 C967 1.363 1_655 S
C962 C963 1.363 1_545 S
C962 C967 1.379 1_554 S
C962 N969 1.356 . S
C963 C962 1.363 1_565 S
C963 C966 1.363 1_455 S
N964 C966 1.356 . S
N964 H976 0.984 . S
N964 H977 0.985 . S
N965 C967 1.356 . S
N965 H970 0.984 . S
N965 H971 0.985 . S
C966 C960 1.379 1_554 S
C966 C963 1.363 1_655 S
C966 N964 1.356 . S
C967 C961 1.363 1_455 S
C967 C962 1.379 1_556 S
C967 N965 1.356 . S
N968 C960 1.356 . S
N968 H974 0.984 . S
N968 H975 0.984 . S
N969 C962 1.356 . S
N969 H972 0.984 . S
N969 H973 0.985 . S
H970 N965 0.984 . S
H971 N965 0.985 . S
H972 N969 0.984 . S
H973 N969 0.985 . S
H974 N968 0.984 . S
H975 N968 0.984 . S
H976 N964 0.984 . S
H977 N964 0.985 . S
C978 C979 1.363 . S
C978 C984 1.379 . S
C978 N986 1.356 . S
C979 C978 1.363 . S
C979 C985 1.363 . S
C980 C981 1.363 . S
C980 C985 1.379 . S
C980 N987 1.356 . S
C981 C980 1.363 . S
C981 C984 1.363 . S
N982 C984 1.356 . S
N982 H994 0.984 . S
N982 H995 0.985 . S
N983 C985 1.356 . S
N983 H988 0.984 . S
N983 H989 0.985 . S
C984 C978 1.379 . S
C984 C981 1.363 . S
C984 N982 1.356 . S
C985 C979 1.363 . S
C985 C980 1.379 . S
C985 N983 1.356 . S
N986 C978 1.356 . S
N986 H992 0.984 . S
N986 H993 0.984 . S
N987 C980 1.356 . S
N987 H990 0.984 . S
N987 H991 0.985 . S
H988 N983 0.984 . S
H989 N983 0.985 . S
H990 N987 0.984 . S
H991 N987 0.985 . S
H992 N986 0.984 . S
H993 N986 0.984 . S
H994 N982 0.984 . S
H995 N982 0.985 . S
C996 C997 1.369 . S
C996 C1002 1.379 . S
C996 N1004 1.356 . S
C997 C996 1.369 . S
C997 C1003 1.357 1_545 S
C998 C999 1.365 . S
C998 C1003 1.379 . S
C998 N1005 1.356 . S
C999 C998 1.365 . S
C999 C1002 1.361 1_565 S
N1000 C1002 1.356 . S
N1000 H1012 0.984 . S
N1000 H1013 0.985 . S
N1001 C1003 1.356 . S
N1001 H1006 0.984 . S
N1001 H1007 0.985 . S
C1002 C996 1.379 . S
C1002 C999 1.361 1_545 S
C1002 N1000 1.356 . S
C1003 C997 1.357 1_565 S
C1003 C998 1.379 . S
C1003 N1001 1.356 . S
N1004 C996 1.356 . S
N1004 H1010 0.984 . S
N1004 H1011 0.984 . S
N1005 C998 1.356 . S
N1005 H1008 0.984 . S
N1005 H1009 0.985 . S
H1006 N1001 0.984 . S
H1007 N1001 0.985 . S
H1008 N1005 0.984 . S
H1009 N1005 0.985 . S
H1010 N1004 0.984 . S
H1011 N1004 0.984 . S
H1012 N1000 0.984 . S
H1013 N1000 0.985 . S
C1014 C1015 1.363 . S
C1014 C1020 1.379 . S
C1014 N1022 1.356 . S
C1015 C1014 1.363 . S
C1015 C1021 1.363 . S
C1016 C1017 1.363 . S
C1016 C1021 1.379 . S
C1016 N1023 1.356 . S
C1017 C1016 1.363 . S
C1017 C1020 1.363 . S
N1018 C1020 1.356 . S
N1018 H1030 0.984 . S
N1018 H1031 0.985 . S
N1019 C1021 1.356 . S
N1019 H1024 0.984 . S
N1019 H1025 0.985 . S
C1020 C1014 1.379 . S
C1020 C1017 1.363 . S
C1020 N1018 1.356 . S
C1021 C1015 1.363 . S
C1021 C1016 1.379 . S
C1021 N1019 1.356 . S
N1022 C1014 1.356 . S
N1022 H1028 0.984 . S
N1022 H1029 0.984 . S
N1023 C1016 1.356 . S
N1023 H1026 0.984 . S
N1023 H1027 0.985 . S
H1024 N1019 0.984 . S
H1025 N1019 0.985 . S
H1026 N1023 0.984 . S
H1027 N1023 0.985 . S
H1028 N1022 0.984 . S
H1029 N1022 0.984 . S
H1030 N1018 0.984 . S
H1031 N1018 0.985 . S
C1032 C1033 1.363 . S
C1032 C1038 1.379 . S
C1032 N1040 1.356 . S
C1033 C1032 1.363 . S
C1033 C1039 1.363 . S
C1034 C1035 1.363 . S
C1034 C1039 1.379 . S
C1034 N1041 1.356 . S
C1035 C1034 1.363 . S
C1035 C1038 1.363 . S
N1036 C1038 1.356 . S
N1036 H1048 0.984 . S
N1036 H1049 0.985 . S
N1037 C1039 1.356 . S
N1037 H1042 0.984 . S
N1037 H1043 0.985 . S
C1038 C1032 1.379 . S
C1038 C1035 1.363 . S
C1038 N1036 1.356 . S
C1039 C1033 1.363 . S
C1039 C1034 1.379 . S
C1039 N1037 1.356 . S
N1040 C1032 1.356 . S
N1040 H1046 0.984 . S
N1040 H1047 0.984 . S
N1041 C1034 1.356 . S
N1041 H1044 0.984 . S
N1041 H1045 0.985 . S
H1042 N1037 0.984 . S
H1043 N1037 0.985 . S
H1044 N1041 0.984 . S
H1045 N1041 0.985 . S
H1046 N1040 0.984 . S
H1047 N1040 0.984 . S
H1048 N1036 0.984 . S
H1049 N1036 0.985 . S
C1050 C1051 1.363 . S
C1050 C1056 1.379 . S
C1050 N1058 1.356 . S
C1051 C1050 1.363 . S
C1051 C1057 1.363 . S
C1052 C1053 1.363 . S
C1052 C1057 1.379 . S
C1052 N1059 1.356 . S
C1053 C1052 1.363 . S
C1053 C1056 1.363 . S
N1054 C1056 1.356 . S
N1054 H1066 0.984 . S
N1054 H1067 0.985 . S
N1055 C1057 1.356 . S
N1055 H1060 0.984 . S
N1055 H1061 0.985 . S
C1056 C1050 1.379 . S
C1056 C1053 1.363 . S
C1056 N1054 1.356 . S
C1057 C1051 1.363 . S
C1057 C1052 1.379 . S
C1057 N1055 1.356 . S
N1058 C1050 1.356 . S
N1058 H1064 0.984 . S
N1058 H1065 0.984 . S
N1059 C1052 1.356 . S
N1059 H1062 0.984 . S
N1059 H1063 0.985 . S
H1060 N1055 0.984 . S
H1061 N1055 0.985 . S
H1062 N1059 0.984 . S
H1063 N1059 0.985 . S
H1064 N1058 0.984 . S
H1065 N1058 0.984 . S
H1066 N1054 0.984 . S
H1067 N1054 0.985 . S
C1068 C1069 1.363 . S
C1068 C1074 1.379 . S
C1068 N1076 1.356 . S
C1069 C1068 1.363 . S
C1069 C1075 1.363 . S
C1070 C1071 1.363 . S
C1070 C1075 1.379 . S
C1070 N1077 1.356 . S
C1071 C1070 1.363 . S
C1071 C1074 1.363 . S
N1072 C1074 1.356 . S
N1072 H1084 0.984 . S
N1072 H1085 0.985 . S
N1073 C1075 1.356 . S
N1073 H1078 0.984 . S
N1073 H1079 0.985 . S
C1074 C1068 1.379 . S
C1074 C1071 1.363 . S
C1074 N1072 1.356 . S
C1075 C1069 1.363 . S
C1075 C1070 1.379 . S
C1075 N1073 1.356 . S
N1076 C1068 1.356 . S
N1076 H1082 0.984 . S
N1076 H1083 0.984 . S
N1077 C1070 1.356 . S
N1077 H1080 0.984 . S
N1077 H1081 0.985 . S
H1078 N1073 0.984 . S
H1079 N1073 0.985 . S
H1080 N1077 0.984 . S
H1081 N1077 0.985 . S
H1082 N1076 0.984 . S
H1083 N1076 0.984 . S
H1084 N1072 0.984 . S
H1085 N1072 0.985 . S
C1086 C1087 1.363 1_655 S
C1086 C1092 1.379 1_556 S
C1086 N1094 1.356 . S
C1087 C1086 1.363 1_455 S
C1087 C1093 1.363 . S
C1088 C1089 1.363 1_455 S
C1088 C1093 1.379 1_554 S
C1088 N1095 1.356 . S
C1089 C1088 1.363 1_655 S
C1089 C1092 1.363 . S
N1090 C1092 1.356 . S
N1090 H1102 0.984 . S
N1090 H1103 0.985 . S
N1091 C1093 1.356 . S
N1091 H1096 0.984 . S
N1091 H1097 0.985 . S
C1092 C1086 1.379 1_554 S
C1092 C1089 1.363 . S
C1092 N1090 1.356 . S
C1093 C1087 1.363 . S
C1093 C1088 1.379 1_556 S
C1093 N1091 1.356 . S
N1094 C1086 1.356 . S
N1094 H1100 0.984 . S
N1094 H1101 0.984 . S
N1095 C1088 1.356 . S
N1095 H1098 0.984 . S
N1095 H1099 0.985 . S
H1096 N1091 0.984 . S
H1097 N1091 0.985 . S
H1098 N1095 0.984 . S
H1099 N1095 0.985 . S
H1100 N1094 0.984 . S
H1101 N1094 0.984 . S
H1102 N1090 0.984 . S
H1103 N1090 0.985 . S
C673 C56 1.506 . S
C675 C308 1.504 . S
C691 C63 1.521 . S
C693 C140 1.508 . S
C709 C147 1.518 . S
C711 C224 1.509 . S
C727 C231 1.522 . S
C729 C315 1.520 . S
C745 C67 1.506 . S
C747 C487 1.508 . S
C763 C74 1.521 . S
C765 C403 1.508 . S
C781 C410 1.518 . S
C783 C235 1.507 . S
C799 C494 1.522 . S
C801 C242 1.524 . S
C817 C560 1.506 . S
C819 C476 1.507 . S
C835 C392 1.508 . S
C837 C567 1.521 . S
C853 C644 1.508 . S
C855 C399 1.519 . S
C871 C483 1.522 . S
C873 C651 1.523 . S
C889 C319 1.506 . S
C891 C571 1.505 . S
C907 C578 1.521 . S
C909 C151 1.509 . S
C925 C158 1.518 . S
C927 C655 1.507 . S
C943 C326 1.522 . S
C945 C662 1.521 . S
C961 C58 1.289 . S
C963 C69 1.289 . S
C979 C153 1.272 . S
C981 C142 1.272 . S
C997 C237 1.280 . S
C999 C226 1.278 . S
C1015 C310 1.276 . S
C1017 C321 1.276 . S
C1033 C405 1.272 . S
C1035 C394 1.272 . S
C1051 C478 1.276 . S
C1053 C489 1.276 . S
C1069 C573 1.289 . S
C1071 C562 1.289 . S
C1087 C646 1.277 . S
C1089 C657 1.277 . S
