# Generated by pormake.
# Topology atn, (4)-cn, num edge types: 1
# Building blocks:
#     Node 0, Type 0, BuildingBlock: UXUYUI_clean_sbu_0, # of connection points: 4
#     Node 1, Type 0, BuildingBlock: UXUYUI_clean_sbu_0, # of connection points: 4
#     Node 2, Type 0, BuildingBlock: UXUYUI_clean_sbu_0, # of connection points: 4
#     Node 3, Type 0, BuildingBlock: UXUYUI_clean_sbu_0, # of connection points: 4
#     Node 4, Type 0, BuildingBlock: UXUYUI_clean_sbu_0, # of connection points: 4
#     Node 5, Type 0, BuildingBlock: UXUYUI_clean_sbu_0, # of connection points: 4
#     Node 6, Type 0, BuildingBlock: UXUYUI_clean_sbu_0, # of connection points: 4
#     Node 7, Type 0, BuildingBlock: UXUYUI_clean_sbu_0, # of connection points: 4
#     Node 8, Type 0, BuildingBlock: UXUYUI_clean_sbu_0, # of connection points: 4
#     Node 9, Type 0, BuildingBlock: UXUYUI_clean_sbu_0, # of connection points: 4
#     Node 10, Type 0, BuildingBlock: UXUYUI_clean_sbu_0, # of connection points: 4
#     Node 11, Type 0, BuildingBlock: UXUYUI_clean_sbu_0, # of connection points: 4
#     Node 12, Type 0, BuildingBlock: UXUYUI_clean_sbu_0, # of connection points: 4
#     Node 13, Type 0, BuildingBlock: UXUYUI_clean_sbu_0, # of connection points: 4
#     Node 14, Type 0, BuildingBlock: UXUYUI_clean_sbu_0, # of connection points: 4
#     Node 15, Type 0, BuildingBlock: UXUYUI_clean_sbu_0, # of connection points: 4
#     Edge 16, Type (0, 0), None
#     Edge 17, Type (0, 0), None
#     Edge 18, Type (0, 0), None
#     Edge 19, Type (0, 0), None
#     Edge 20, Type (0, 0), None
#     Edge 21, Type (0, 0), None
#     Edge 22, Type (0, 0), None
#     Edge 23, Type (0, 0), None
#     Edge 24, Type (0, 0), None
#     Edge 25, Type (0, 0), None
#     Edge 26, Type (0, 0), None
#     Edge 27, Type (0, 0), None
#     Edge 28, Type (0, 0), None
#     Edge 29, Type (0, 0), None
#     Edge 30, Type (0, 0), None
#     Edge 31, Type (0, 0), None
#     Edge 32, Type (0, 0), None
#     Edge 33, Type (0, 0), None
#     Edge 34, Type (0, 0), None
#     Edge 35, Type (0, 0), None
#     Edge 36, Type (0, 0), None
#     Edge 37, Type (0, 0), None
#     Edge 38, Type (0, 0), None
#     Edge 39, Type (0, 0), None
#     Edge 40, Type (0, 0), None
#     Edge 41, Type (0, 0), None
#     Edge 42, Type (0, 0), None
#     Edge 43, Type (0, 0), None
#     Edge 44, Type (0, 0), None
#     Edge 45, Type (0, 0), None
#     Edge 46, Type (0, 0), None
#     Edge 47, Type (0, 0), None
# Relax obj value: 0.164
# Max RMSD: 0.140
# Mean RMSD: 0.140
data_MOF--net-atn--node1-UXUYUI_clean_sbu_0--edge1-none
_symmetry_space_group_name_H-M    P1
_symmetry_Int_Tables_number       1
_symmetry_cell_setting            triclinic
loop_
_symmetry_equiv_pos_as_xyz
'x, y, z'
_cell_length_a     57.410193
_cell_length_b     57.410193
_cell_length_c     23.588135
_cell_angle_alpha  89.999787
_cell_angle_beta   89.998308
_cell_angle_gamma 90.0
loop_
_atom_site_label
_atom_site_type_symbol
_atom_site_fract_x
_atom_site_fract_y
_atom_site_fract_z
_atom_type_partial_charge
Li0 Li 0.21604 0.4067 0.0041 0.0
Li1 Li 0.20008 0.37236 0.05406 0.0
Li2 Li 0.23785 0.36942 1.00062 0.0
Li3 Li 0.19982 0.37207 0.94868 0.0
C4 C 0.24589 0.39841 0.10297 0.0
N5 N 0.27831 0.41833 0.17457 0.0
C6 C 0.24028 0.40259 0.15971 0.0
C7 C 0.26803 0.40413 0.08272 0.0
C8 C 0.25689 0.41275 0.19522 0.0
C9 C 0.28417 0.41425 0.11958 0.0
C10 C 0.1623 0.40111 0.01973 0.0
C11 C 0.12072 0.39589 0.02643 0.0
N12 N 0.1192 0.41574 0.05768 0.0
C13 C 0.16031 0.42162 0.0513 0.0
C14 C 0.14234 0.38827 0.00657 0.0
C15 C 0.13837 0.42867 0.07034 0.0
C16 C 0.21223 0.45123 0.9559 0.0
N17 N 0.21826 0.43992 0.00434 0.0
C18 C 0.22549 0.47619 0.05108 0.0
C19 C 0.22475 0.45186 0.05154 0.0
C20 C 0.21921 0.48845 0.00176 0.0
C21 C 0.21254 0.47555 0.95367 0.0
H22 H 0.20688 0.44129 0.91917 0.0
H23 H 0.22911 0.44261 0.08988 0.0
C24 C 0.19096 0.33962 0.13941 0.0
N25 N 0.18535 0.3615 0.12209 0.0
C26 C 0.18194 0.33067 0.18978 0.0
C27 C 0.16205 0.36718 0.20516 0.0
C28 C 0.17136 0.37538 0.15409 0.0
C29 C 0.16738 0.34453 0.22379 0.0
H30 H 0.20281 0.32917 0.1146 0.0
H31 H 0.16786 0.39302 0.14094 0.0
C32 C 0.24564 0.39757 0.89965 0.0
N33 N 0.27938 0.41232 0.82434 0.0
C34 C 0.24653 0.38822 0.84499 0.0
C35 C 0.26171 0.41459 0.91586 0.0
C36 C 0.26378 0.39586 0.80758 0.0
C37 C 0.27868 0.42177 0.8772 0.0
C38 C 0.20085 0.32629 0.99956 0.0
C39 C 0.21452 0.30627 0.99428 0.0
C40 C 0.17664 0.32431 0.00296 0.0
C41 C 0.20366 0.28451 0.99229 0.0
C42 C 0.16645 0.30223 1.00085 0.0
N43 N 0.18006 0.28296 0.99558 0.0
C44 C 0.27189 0.34135 0.04886 0.0
C45 C 0.28047 0.35145 0.95375 0.0
C46 C 0.29083 0.3261 0.05048 0.0
N47 N 0.26688 0.35335 1.00074 0.0
C48 C 0.29967 0.33648 0.95357 0.0
C49 C 0.30476 0.32311 0.00197 0.0
H50 H 0.26051 0.34287 0.08523 0.0
H51 H 0.27598 0.36081 0.91566 0.0
C52 C 0.1699 0.37519 0.85126 0.0
N53 N 0.18502 0.36163 0.8809 0.0
C54 C 0.16056 0.36727 0.79982 0.0
C55 C 0.18196 0.33139 0.8118 0.0
C56 C 0.19126 0.3402 0.8619 0.0
C57 C 0.16668 0.34506 0.77911 0.0
H58 H 0.16548 0.39234 0.86696 0.0
H59 H 0.20378 0.32997 0.88525 0.0
O60 O 0.22981 0.38849 0.06779 0.0
O61 O 0.18357 0.39409 1.00017 0.0
O62 O 0.22882 0.39032 0.93665 0.0
O63 O 0.21122 0.34771 0.00141 0.0
H64 H 0.22322 0.39813 0.17601 0.0
H65 H 0.27276 0.40067 0.03917 0.0
H66 H 0.25277 0.41619 0.23918 0.0
H67 H 0.30137 0.4188 0.10451 0.0
H68 H 0.10513 0.38607 0.01679 0.0
H69 H 0.17556 0.43186 0.06148 0.0
H70 H 0.14351 0.37268 0.98098 0.0
H71 H 0.13658 0.4444 0.09519 0.0
H72 H 0.23101 0.48526 0.08901 0.0
H73 H 0.20713 0.48413 0.91498 0.0
H74 H 0.18641 0.31304 0.20188 0.0
H75 H 0.15132 0.3787 0.23046 0.0
H76 H 0.2341 0.37513 0.83176 0.0
H77 H 0.26101 0.42228 0.95767 0.0
H78 H 0.26477 0.38871 0.76522 0.0
H79 H 0.29127 0.4349 0.88918 0.0
H80 H 0.2333 0.30756 0.99163 0.0
H81 H 0.16589 0.33964 0.00747 0.0
H82 H 0.21401 0.26885 0.98813 0.0
H83 H 0.14772 0.30042 0.00347 0.0
H84 H 0.29375 0.31591 0.08844 0.0
H85 H 0.31003 0.33494 0.91539 0.0
H86 H 0.14915 0.37866 0.77608 0.0
H87 H 0.18688 0.31397 0.799 0.0
Li88 Li 0.59619 0.21604 0.00411 0.0
Li89 Li 0.63053 0.20008 0.05406 0.0
Li90 Li 0.63347 0.23785 1.00063 0.0
Li91 Li 0.63082 0.19982 0.94868 0.0
C92 C 0.60447 0.24589 0.10298 0.0
N93 N 0.58455 0.27831 0.17458 0.0
C94 C 0.60029 0.24028 0.15972 0.0
C95 C 0.59875 0.26803 0.08273 0.0
C96 C 0.59013 0.2569 0.19522 0.0
C97 C 0.58864 0.28417 0.11959 0.0
C98 C 0.60178 0.1623 0.01973 0.0
C99 C 0.607 0.12072 0.02643 0.0
N100 N 0.58714 0.1192 0.05768 0.0
C101 C 0.58127 0.16031 0.0513 0.0
C102 C 0.61462 0.14234 0.00657 0.0
C103 C 0.57422 0.13837 0.07034 0.0
C104 C 0.55166 0.21224 0.95591 0.0
N105 N 0.56297 0.21826 0.00434 0.0
C106 C 0.5267 0.22549 0.05109 0.0
C107 C 0.55102 0.22475 0.05155 0.0
C108 C 0.51444 0.21921 0.00177 0.0
C109 C 0.52733 0.21254 0.95367 0.0
H110 H 0.5616 0.20689 0.91917 0.0
H111 H 0.56028 0.2291 0.08989 0.0
C112 C 0.66326 0.19096 0.13941 0.0
N113 N 0.64139 0.18535 0.12209 0.0
C114 C 0.67221 0.18194 0.18978 0.0
C115 C 0.6357 0.16205 0.20516 0.0
C116 C 0.62751 0.17135 0.15409 0.0
C117 C 0.65835 0.16738 0.22379 0.0
H118 H 0.67372 0.20281 0.11461 0.0
H119 H 0.60987 0.16786 0.14094 0.0
C120 C 0.60532 0.24564 0.89966 0.0
N121 N 0.59057 0.27937 0.82434 0.0
C122 C 0.61467 0.24653 0.845 0.0
C123 C 0.5883 0.26171 0.91587 0.0
C124 C 0.60703 0.26378 0.80759 0.0
C125 C 0.58112 0.27868 0.87721 0.0
C126 C 0.6766 0.20085 0.99957 0.0
C127 C 0.69662 0.21452 0.99429 0.0
C128 C 0.67858 0.17664 0.00297 0.0
C129 C 0.71838 0.20366 0.9923 0.0
C130 C 0.70066 0.16645 1.00086 0.0
N131 N 0.71993 0.18006 0.99559 0.0
C132 C 0.66154 0.27189 0.04887 0.0
C133 C 0.65144 0.28047 0.95376 0.0
C134 C 0.67679 0.29083 0.05048 0.0
N135 N 0.64954 0.26688 1.00075 0.0
C136 C 0.66641 0.29967 0.95358 0.0
C137 C 0.67978 0.30476 0.00198 0.0
H138 H 0.66002 0.26051 0.08524 0.0
H139 H 0.64208 0.27598 0.91567 0.0
C140 C 0.62769 0.1699 0.85126 0.0
N141 N 0.64126 0.18502 0.88091 0.0
C142 C 0.63562 0.16056 0.79982 0.0
C143 C 0.6715 0.18196 0.81181 0.0
C144 C 0.66269 0.19126 0.8619 0.0
C145 C 0.65783 0.16668 0.77911 0.0
H146 H 0.61055 0.16548 0.86696 0.0
H147 H 0.67292 0.20378 0.88526 0.0
O148 O 0.6144 0.22981 0.0678 0.0
O149 O 0.6088 0.18357 1.00018 0.0
O150 O 0.61257 0.22882 0.93665 0.0
O151 O 0.65518 0.21122 0.00141 0.0
H152 H 0.60476 0.22322 0.17601 0.0
H153 H 0.60222 0.27276 0.03918 0.0
H154 H 0.58669 0.25278 0.23918 0.0
H155 H 0.58408 0.30137 0.10451 0.0
H156 H 0.61682 0.10513 0.01679 0.0
H157 H 0.57103 0.17556 0.06148 0.0
H158 H 0.63021 0.14351 0.98098 0.0
H159 H 0.55849 0.13658 0.09519 0.0
H160 H 0.51763 0.23101 0.08902 0.0
H161 H 0.51876 0.20713 0.91498 0.0
H162 H 0.68984 0.18642 0.20189 0.0
H163 H 0.62419 0.15132 0.23046 0.0
H164 H 0.62776 0.23409 0.83177 0.0
H165 H 0.58061 0.26101 0.95768 0.0
H166 H 0.61418 0.26477 0.76522 0.0
H167 H 0.56799 0.29127 0.88918 0.0
H168 H 0.69532 0.2333 0.99164 0.0
H169 H 0.66324 0.16589 0.00748 0.0
H170 H 0.73404 0.21401 0.98814 0.0
H171 H 0.70247 0.14772 0.00347 0.0
H172 H 0.68698 0.29375 0.08845 0.0
H173 H 0.66795 0.31003 0.9154 0.0
H174 H 0.62422 0.14915 0.77608 0.0
H175 H 0.68892 0.18688 0.79901 0.0
Li176 Li 0.80281 0.63053 0.05407 0.0
Li177 Li 0.78685 0.59619 0.00411 0.0
Li178 Li 0.80307 0.63082 0.94868 0.0
Li179 Li 0.76504 0.63347 1.00063 0.0
C180 C 0.84059 0.60178 0.01974 0.0
N181 N 0.88369 0.58715 0.05769 0.0
C182 C 0.84258 0.58127 0.05131 0.0
C183 C 0.86054 0.61462 0.00658 0.0
C184 C 0.86452 0.57423 0.07035 0.0
C185 C 0.88217 0.60701 0.02644 0.0
C186 C 0.757 0.60448 0.10298 0.0
C187 C 0.71872 0.58864 0.11958 0.0
N188 N 0.72458 0.58455 0.17457 0.0
C189 C 0.76261 0.6003 0.15972 0.0
C190 C 0.73486 0.59875 0.08273 0.0
C191 C 0.74599 0.59013 0.19522 0.0
C192 C 0.81193 0.66327 0.1394 0.0
N193 N 0.81753 0.64139 0.1221 0.0
C194 C 0.84083 0.6357 0.20517 0.0
C195 C 0.83153 0.6275 0.1541 0.0
C196 C 0.83551 0.65835 0.22379 0.0
C197 C 0.82096 0.67222 0.18977 0.0
H198 H 0.80009 0.67373 0.11459 0.0
H199 H 0.83501 0.60986 0.14096 0.0
C200 C 0.79065 0.55166 0.95592 0.0
N201 N 0.78462 0.56297 0.00435 0.0
C202 C 0.79034 0.52733 0.95368 0.0
C203 C 0.7774 0.5267 0.0511 0.0
C204 C 0.77814 0.55102 0.05156 0.0
C205 C 0.78368 0.51444 0.00178 0.0
H206 H 0.796 0.5616 0.91917 0.0
H207 H 0.77379 0.56028 0.08991 0.0
C208 C 0.80204 0.6766 0.99955 0.0
N209 N 0.82283 0.71993 0.99554 0.0
C210 C 0.78837 0.69662 0.99427 0.0
C211 C 0.82625 0.67858 0.00295 0.0
C212 C 0.79922 0.71838 0.99226 0.0
C213 C 0.83644 0.70066 1.00083 0.0
C214 C 0.75725 0.60532 0.89966 0.0
C215 C 0.75636 0.61467 0.84501 0.0
C216 C 0.74118 0.5883 0.91587 0.0
C217 C 0.73911 0.60703 0.80759 0.0
C218 C 0.72421 0.58112 0.8772 0.0
N219 N 0.72352 0.59057 0.82434 0.0
C220 C 0.83299 0.6277 0.85127 0.0
C221 C 0.81162 0.66269 0.8619 0.0
C222 C 0.84233 0.63562 0.79983 0.0
N223 N 0.81786 0.64126 0.88091 0.0
C224 C 0.82092 0.6715 0.8118 0.0
C225 C 0.83621 0.65782 0.77911 0.0
H226 H 0.83742 0.61055 0.86698 0.0
H227 H 0.7991 0.67291 0.88524 0.0
C228 C 0.731 0.66154 0.04887 0.0
N229 N 0.73601 0.64954 1.00076 0.0
C230 C 0.71206 0.67679 0.05049 0.0
C231 C 0.70322 0.66641 0.95358 0.0
C232 C 0.72242 0.65143 0.95377 0.0
C233 C 0.69812 0.67978 0.00198 0.0
H234 H 0.74238 0.66002 0.08524 0.0
H235 H 0.72691 0.64207 0.91567 0.0
O236 O 0.81931 0.6088 1.00018 0.0
O237 O 0.77308 0.6144 0.06781 0.0
O238 O 0.79167 0.65518 0.00142 0.0
O239 O 0.77406 0.61257 0.93666 0.0
H240 H 0.82733 0.57103 0.06149 0.0
H241 H 0.85938 0.63021 0.98099 0.0
H242 H 0.86631 0.55849 0.09521 0.0
H243 H 0.89776 0.61683 0.0168 0.0
H244 H 0.70152 0.58408 0.1045 0.0
H245 H 0.77967 0.60476 0.17602 0.0
H246 H 0.73013 0.60222 0.03918 0.0
H247 H 0.75011 0.58669 0.23918 0.0
H248 H 0.85155 0.62418 0.23048 0.0
H249 H 0.81649 0.68985 0.20187 0.0
H250 H 0.79576 0.51876 0.91499 0.0
H251 H 0.77188 0.51763 0.08904 0.0
H252 H 0.76958 0.69532 0.99162 0.0
H253 H 0.837 0.66325 0.00747 0.0
H254 H 0.78887 0.73404 0.98808 0.0
H255 H 0.85516 0.70247 0.00344 0.0
H256 H 0.7688 0.62776 0.83178 0.0
H257 H 0.74188 0.58061 0.95768 0.0
H258 H 0.73812 0.61418 0.76523 0.0
H259 H 0.71162 0.56798 0.88917 0.0
H260 H 0.85375 0.62423 0.7761 0.0
H261 H 0.816 0.68891 0.79899 0.0
H262 H 0.70914 0.68698 0.08845 0.0
H263 H 0.69286 0.66795 0.91541 0.0
Li264 Li 0.37236 0.80281 0.05406 0.0
Li265 Li 0.4067 0.78685 0.00411 0.0
Li266 Li 0.37207 0.80307 0.94868 0.0
Li267 Li 0.36942 0.76504 1.00063 0.0
C268 C 0.40111 0.84059 0.01973 0.0
N269 N 0.41574 0.88369 0.05769 0.0
C270 C 0.42162 0.84258 0.05131 0.0
C271 C 0.38826 0.86054 0.00658 0.0
C272 C 0.42866 0.86452 0.07035 0.0
C273 C 0.39588 0.88217 0.02644 0.0
C274 C 0.39841 0.757 0.10298 0.0
C275 C 0.41425 0.71872 0.11958 0.0
N276 N 0.41833 0.72458 0.17457 0.0
C277 C 0.40259 0.76261 0.15971 0.0
C278 C 0.40413 0.73486 0.08272 0.0
C279 C 0.41275 0.74599 0.19522 0.0
C280 C 0.33962 0.81193 0.1394 0.0
N281 N 0.3615 0.81753 0.12209 0.0
C282 C 0.36719 0.84083 0.20517 0.0
C283 C 0.37539 0.83153 0.1541 0.0
C284 C 0.34453 0.83551 0.22379 0.0
C285 C 0.33067 0.82096 0.18977 0.0
H286 H 0.32916 0.80009 0.11458 0.0
H287 H 0.39302 0.83501 0.14096 0.0
C288 C 0.45123 0.79065 0.95591 0.0
N289 N 0.43992 0.78462 0.00434 0.0
C290 C 0.47556 0.79034 0.95367 0.0
C291 C 0.47619 0.7774 0.05109 0.0
C292 C 0.45186 0.77814 0.05155 0.0
C293 C 0.48845 0.78368 0.00177 0.0
H294 H 0.44129 0.796 0.91917 0.0
H295 H 0.44261 0.77379 0.08989 0.0
C296 C 0.32629 0.80204 0.99955 0.0
N297 N 0.28295 0.82283 0.99554 0.0
C298 C 0.30627 0.78837 0.99426 0.0
C299 C 0.32431 0.82625 0.00295 0.0
C300 C 0.28451 0.79922 0.99225 0.0
C301 C 0.30223 0.83644 1.00082 0.0
C302 C 0.39757 0.75725 0.89966 0.0
C303 C 0.38822 0.75636 0.845 0.0
C304 C 0.41459 0.74118 0.91586 0.0
C305 C 0.39586 0.73911 0.80758 0.0
C306 C 0.42177 0.72421 0.8772 0.0
N307 N 0.41232 0.72351 0.82434 0.0
C308 C 0.37519 0.83299 0.85127 0.0
C309 C 0.3402 0.81162 0.86189 0.0
C310 C 0.36727 0.84233 0.79983 0.0
N311 N 0.36163 0.81786 0.88091 0.0
C312 C 0.33139 0.82092 0.81179 0.0
C313 C 0.34506 0.83621 0.77911 0.0
H314 H 0.39233 0.83742 0.86697 0.0
H315 H 0.32998 0.7991 0.88524 0.0
C316 C 0.34135 0.731 0.04886 0.0
N317 N 0.35335 0.73601 1.00075 0.0
C318 C 0.3261 0.71206 0.05048 0.0
C319 C 0.33648 0.70322 0.95357 0.0
C320 C 0.35145 0.72242 0.95376 0.0
C321 C 0.32311 0.69812 0.00197 0.0
H322 H 0.34287 0.74238 0.08523 0.0
H323 H 0.36081 0.72691 0.91566 0.0
O324 O 0.39409 0.81931 1.00018 0.0
O325 O 0.38849 0.77308 0.0678 0.0
O326 O 0.34771 0.79167 0.00141 0.0
O327 O 0.39032 0.77406 0.93665 0.0
H328 H 0.43186 0.82733 0.06148 0.0
H329 H 0.37267 0.85938 0.98099 0.0
H330 H 0.44439 0.86631 0.0952 0.0
H331 H 0.38606 0.89775 0.0168 0.0
H332 H 0.4188 0.70152 0.1045 0.0
H333 H 0.39813 0.77967 0.17601 0.0
H334 H 0.40067 0.73013 0.03917 0.0
H335 H 0.41619 0.75011 0.23918 0.0
H336 H 0.37871 0.85155 0.23048 0.0
H337 H 0.31304 0.81649 0.20187 0.0
H338 H 0.48413 0.79576 0.91498 0.0
H339 H 0.48525 0.77188 0.08903 0.0
H340 H 0.30757 0.76958 0.99161 0.0
H341 H 0.33964 0.837 0.00747 0.0
H342 H 0.26885 0.78887 0.98808 0.0
H343 H 0.30042 0.85516 0.00344 0.0
H344 H 0.37513 0.76879 0.83177 0.0
H345 H 0.42228 0.74188 0.95767 0.0
H346 H 0.38871 0.73812 0.76522 0.0
H347 H 0.4349 0.71162 0.88917 0.0
H348 H 0.37866 0.85375 0.7761 0.0
H349 H 0.31398 0.81599 0.79899 0.0
H350 H 0.31591 0.70914 0.08844 0.0
H351 H 0.33494 0.69286 0.91539 0.0
Li352 Li 0.19982 0.63081 0.0539 0.0
Li353 Li 0.23784 0.63346 0.00195 0.0
Li354 Li 0.20007 0.63053 0.94852 0.0
Li355 Li 0.21603 0.59619 0.99847 0.0
C356 C 0.20085 0.6766 0.00304 0.0
N357 N 0.18007 0.71994 0.00707 0.0
C358 C 0.21452 0.69661 0.00834 0.0
C359 C 0.17664 0.67858 0.99964 0.0
C360 C 0.20368 0.71838 0.01036 0.0
C361 C 0.16646 0.70066 0.00178 0.0
C362 C 0.24563 0.60533 0.10296 0.0
C363 C 0.27866 0.58113 0.12555 0.0
N364 N 0.27934 0.59062 0.17837 0.0
C365 C 0.24651 0.61472 0.15758 0.0
C366 C 0.26169 0.58829 0.08684 0.0
C367 C 0.26376 0.6071 0.19504 0.0
C368 C 0.1699 0.6277 0.15132 0.0
N369 N 0.18503 0.64126 0.12168 0.0
C370 C 0.18197 0.67149 0.1908 0.0
C371 C 0.19127 0.66268 0.1407 0.0
C372 C 0.16668 0.65782 0.22348 0.0
C373 C 0.16056 0.63562 0.20276 0.0
H374 H 0.16547 0.61055 0.13561 0.0
H375 H 0.20379 0.67291 0.11735 0.0
C376 C 0.27186 0.66156 0.95372 0.0
N377 N 0.26688 0.64953 0.00181 0.0
C378 C 0.2908 0.67681 0.95209 0.0
C379 C 0.29969 0.66638 0.04893 0.0
C380 C 0.28049 0.6514 0.04876 0.0
C381 C 0.30476 0.67978 1.00056 0.0
H382 H 0.26046 0.66007 0.91738 0.0
H383 H 0.27603 0.64201 0.08683 0.0
C384 C 0.16229 0.60178 0.98286 0.0
N385 N 0.11918 0.58717 0.94492 0.0
C386 C 0.16029 0.58128 0.95129 0.0
C387 C 0.14234 0.61463 0.99603 0.0
C388 C 0.13835 0.57424 0.93226 0.0
C389 C 0.12071 0.60702 0.97618 0.0
C390 C 0.2459 0.60446 0.89965 0.0
C391 C 0.24032 0.60029 0.84289 0.0
C392 C 0.26803 0.59873 0.91998 0.0
C393 C 0.25696 0.59012 0.80744 0.0
C394 C 0.28418 0.58861 0.88318 0.0
N395 N 0.27835 0.58453 0.82817 0.0
C396 C 0.19095 0.66327 0.86319 0.0
C397 C 0.17136 0.6275 0.84849 0.0
C398 C 0.18192 0.67222 0.81282 0.0
N399 N 0.18535 0.64139 0.8805 0.0
C400 C 0.16205 0.6357 0.79742 0.0
C401 C 0.16738 0.65835 0.7788 0.0
H402 H 0.20279 0.67373 0.88801 0.0
H403 H 0.16787 0.60986 0.86163 0.0
C404 C 0.21226 0.55166 0.04668 0.0
N405 N 0.21826 0.56297 0.99823 0.0
C406 C 0.21257 0.52733 0.04892 0.0
C407 C 0.22546 0.5267 0.95145 0.0
C408 C 0.22471 0.55102 0.95099 0.0
C409 C 0.2192 0.51444 1.00079 0.0
H410 H 0.20693 0.56159 0.08344 0.0
H411 H 0.22904 0.56028 0.91263 0.0
O412 O 0.21122 0.65518 1.00117 0.0
O413 O 0.22882 0.61256 0.06592 0.0
O414 O 0.18357 0.6088 0.00241 0.0
O415 O 0.2298 0.6144 0.93477 0.0
H416 H 0.23331 0.69532 0.01099 0.0
H417 H 0.16589 0.66325 0.99511 0.0
H418 H 0.21402 0.73404 0.01454 0.0
H419 H 0.14773 0.70248 0.99916 0.0
H420 H 0.29124 0.56798 0.11364 0.0
H421 H 0.23408 0.62783 0.17074 0.0
H422 H 0.26099 0.58057 0.04506 0.0
H423 H 0.26474 0.61428 0.23738 0.0
H424 H 0.1869 0.68891 0.2036 0.0
H425 H 0.14914 0.62423 0.22649 0.0
H426 H 0.29369 0.68703 0.91416 0.0
H427 H 0.31007 0.66789 0.08708 0.0
H428 H 0.17554 0.57103 0.94111 0.0
H429 H 0.14351 0.63022 0.02162 0.0
H430 H 0.13655 0.55851 0.9074 0.0
H431 H 0.10513 0.61685 0.98583 0.0
H432 H 0.22328 0.60476 0.82653 0.0
H433 H 0.27272 0.60219 0.96355 0.0
H434 H 0.25286 0.58669 0.76347 0.0
H435 H 0.30137 0.58404 0.89832 0.0
H436 H 0.18639 0.68985 0.80072 0.0
H437 H 0.15133 0.62418 0.77211 0.0
H438 H 0.20718 0.51876 0.08763 0.0
H439 H 0.23095 0.51763 0.91349 0.0
Li440 Li 0.36942 0.23784 0.00195 0.0
Li441 Li 0.37207 0.19982 0.05391 0.0
Li442 Li 0.4067 0.21603 0.99847 0.0
Li443 Li 0.37236 0.20007 0.94852 0.0
C444 C 0.39755 0.24563 0.10296 0.0
N445 N 0.41227 0.27934 0.17837 0.0
C446 C 0.38817 0.24652 0.15758 0.0
C447 C 0.41459 0.26169 0.08684 0.0
C448 C 0.39579 0.26376 0.19504 0.0
C449 C 0.42176 0.27866 0.12554 0.0
C450 C 0.32629 0.20085 0.00303 0.0
C451 C 0.30223 0.16645 0.00175 0.0
N452 N 0.28295 0.18007 0.00703 0.0
C453 C 0.30627 0.21452 0.00832 0.0
C454 C 0.32431 0.17664 0.99963 0.0
C455 C 0.28451 0.20367 0.01032 0.0
C456 C 0.34133 0.27186 0.95372 0.0
N457 N 0.35335 0.26688 0.00181 0.0
C458 C 0.33651 0.29969 0.04893 0.0
C459 C 0.35149 0.28049 0.04876 0.0
C460 C 0.32311 0.30476 1.00056 0.0
C461 C 0.32608 0.2908 0.95209 0.0
H462 H 0.34282 0.26045 0.91738 0.0
H463 H 0.36087 0.27603 0.08683 0.0
C464 C 0.37519 0.1699 0.15133 0.0
N465 N 0.36163 0.18502 0.12168 0.0
C466 C 0.36727 0.16056 0.20277 0.0
C467 C 0.33139 0.18196 0.19079 0.0
C468 C 0.3402 0.19127 0.14069 0.0
C469 C 0.34506 0.16668 0.22348 0.0
H470 H 0.39234 0.16548 0.13563 0.0
H471 H 0.32997 0.20378 0.11734 0.0
C472 C 0.39843 0.2459 0.89965 0.0
N473 N 0.41836 0.27835 0.82816 0.0
C474 C 0.4026 0.24032 0.84289 0.0
C475 C 0.40416 0.26802 0.91998 0.0
C476 C 0.41277 0.25695 0.80744 0.0
C477 C 0.41428 0.28418 0.88318 0.0
C478 C 0.40111 0.16229 0.98287 0.0
C479 C 0.42161 0.16029 0.95129 0.0
C480 C 0.38826 0.14234 0.99603 0.0
C481 C 0.42865 0.13835 0.93227 0.0
C482 C 0.39587 0.12071 0.97619 0.0
N483 N 0.41573 0.11918 0.94493 0.0
C484 C 0.45123 0.21226 0.04669 0.0
C485 C 0.45187 0.22472 0.951 0.0
C486 C 0.47556 0.21257 0.04892 0.0
N487 N 0.43992 0.21826 0.99823 0.0
C488 C 0.47619 0.22546 0.95146 0.0
C489 C 0.48845 0.2192 1.0008 0.0
H490 H 0.44129 0.20693 0.08345 0.0
H491 H 0.44261 0.22904 0.91264 0.0
C492 C 0.33963 0.19095 0.86318 0.0
N493 N 0.3615 0.18535 0.8805 0.0
C494 C 0.33068 0.18193 0.81281 0.0
C495 C 0.36719 0.16204 0.79743 0.0
C496 C 0.37539 0.17135 0.8485 0.0
C497 C 0.34454 0.16738 0.7788 0.0
H498 H 0.32917 0.2028 0.88799 0.0
H499 H 0.39302 0.16786 0.86165 0.0
O500 O 0.39032 0.22882 0.06592 0.0
O501 O 0.34771 0.21122 1.00117 0.0
O502 O 0.38849 0.2298 0.93477 0.0
O503 O 0.39409 0.18357 0.00241 0.0
H504 H 0.37506 0.23408 0.17075 0.0
H505 H 0.42231 0.26099 0.04506 0.0
H506 H 0.38861 0.26474 0.23738 0.0
H507 H 0.4349 0.29124 0.11364 0.0
H508 H 0.30041 0.14773 0.99913 0.0
H509 H 0.30757 0.23331 0.01097 0.0
H510 H 0.33964 0.16589 0.99511 0.0
H511 H 0.26885 0.21402 0.0145 0.0
H512 H 0.33499 0.31007 0.08708 0.0
H513 H 0.31586 0.29369 0.91416 0.0
H514 H 0.37866 0.14915 0.22651 0.0
H515 H 0.31397 0.18688 0.20359 0.0
H516 H 0.39813 0.22327 0.82653 0.0
H517 H 0.4007 0.27273 0.96355 0.0
H518 H 0.4162 0.25286 0.76347 0.0
H519 H 0.41885 0.30137 0.89831 0.0
H520 H 0.43186 0.17554 0.94111 0.0
H521 H 0.37267 0.14351 0.02163 0.0
H522 H 0.44439 0.13655 0.90741 0.0
H523 H 0.38605 0.10513 0.98583 0.0
H524 H 0.48413 0.20718 0.08763 0.0
H525 H 0.48526 0.23095 0.9135 0.0
H526 H 0.31304 0.18641 0.80071 0.0
H527 H 0.3787 0.15132 0.77213 0.0
Li528 Li 0.80307 0.37207 0.05391 0.0
Li529 Li 0.76505 0.36942 0.00196 0.0
Li530 Li 0.80282 0.37236 0.94853 0.0
Li531 Li 0.78686 0.4067 0.99848 0.0
C532 C 0.80204 0.32629 0.00303 0.0
N533 N 0.82282 0.28295 0.00702 0.0
C534 C 0.78837 0.30627 0.00831 0.0
C535 C 0.82625 0.32431 0.99962 0.0
C536 C 0.79922 0.28451 0.01031 0.0
C537 C 0.83644 0.30223 0.00174 0.0
C538 C 0.75726 0.39755 0.10297 0.0
C539 C 0.72423 0.42176 0.12555 0.0
N540 N 0.72354 0.41227 0.17837 0.0
C541 C 0.75637 0.38817 0.15759 0.0
C542 C 0.74119 0.41459 0.08684 0.0
C543 C 0.73913 0.39579 0.19505 0.0
C544 C 0.83298 0.37519 0.15134 0.0
N545 N 0.81786 0.36163 0.12169 0.0
C546 C 0.82093 0.33139 0.19079 0.0
C547 C 0.81162 0.3402 0.14069 0.0
C548 C 0.83621 0.34506 0.22348 0.0
C549 C 0.84233 0.36727 0.20277 0.0
H550 H 0.83741 0.39234 0.13564 0.0
H551 H 0.79911 0.32997 0.11734 0.0
C552 C 0.73103 0.34133 0.95373 0.0
N553 N 0.73601 0.35335 0.00182 0.0
C554 C 0.71209 0.32608 0.9521 0.0
C555 C 0.7032 0.33651 0.04894 0.0
C556 C 0.7224 0.35149 0.04877 0.0
C557 C 0.69813 0.32311 1.00057 0.0
H558 H 0.74243 0.34282 0.91739 0.0
H559 H 0.72686 0.36087 0.08684 0.0
C560 C 0.8406 0.40111 0.98287 0.0
N561 N 0.8837 0.41573 0.94494 0.0
C562 C 0.8426 0.42161 0.9513 0.0
C563 C 0.86055 0.38826 0.99604 0.0
C564 C 0.86454 0.42865 0.93227 0.0
C565 C 0.88218 0.39587 0.97619 0.0
C566 C 0.75699 0.39842 0.89966 0.0
C567 C 0.76257 0.4026 0.8429 0.0
C568 C 0.73486 0.40416 0.91998 0.0
C569 C 0.74594 0.41276 0.80745 0.0
C570 C 0.71871 0.41428 0.88318 0.0
N571 N 0.72454 0.41836 0.82816 0.0
C572 C 0.81193 0.33963 0.86318 0.0
C573 C 0.83154 0.37538 0.8485 0.0
C574 C 0.82095 0.33068 0.81281 0.0
N575 N 0.81754 0.3615 0.8805 0.0
C576 C 0.84085 0.36719 0.79743 0.0
C577 C 0.83551 0.34454 0.7788 0.0
H578 H 0.80008 0.32917 0.88799 0.0
H579 H 0.83503 0.39302 0.86166 0.0
C580 C 0.79063 0.45123 0.04669 0.0
N581 N 0.78463 0.43992 0.99824 0.0
C582 C 0.79032 0.47556 0.04893 0.0
C583 C 0.77743 0.47619 0.95147 0.0
C584 C 0.77817 0.45187 0.95101 0.0
C585 C 0.78368 0.48845 1.00081 0.0
H586 H 0.79596 0.4413 0.08345 0.0
H587 H 0.77384 0.44261 0.91265 0.0
O588 O 0.79167 0.34771 1.00118 0.0
O589 O 0.77407 0.39032 0.06593 0.0
O590 O 0.81932 0.39409 0.00242 0.0
O591 O 0.77309 0.38849 0.93478 0.0
H592 H 0.76958 0.30757 0.01097 0.0
H593 H 0.837 0.33964 0.99511 0.0
H594 H 0.78887 0.26885 0.01448 0.0
H595 H 0.85516 0.30042 0.99912 0.0
H596 H 0.71165 0.4349 0.11364 0.0
H597 H 0.7688 0.37506 0.17076 0.0
H598 H 0.74189 0.42231 0.04506 0.0
H599 H 0.73814 0.38862 0.23739 0.0
H600 H 0.81601 0.31397 0.20358 0.0
H601 H 0.85374 0.37866 0.22651 0.0
H602 H 0.7092 0.31586 0.91417 0.0
H603 H 0.69281 0.33499 0.08709 0.0
H604 H 0.82734 0.43186 0.94112 0.0
H605 H 0.85938 0.37267 0.02163 0.0
H606 H 0.86633 0.44439 0.90742 0.0
H607 H 0.89776 0.38605 0.98584 0.0
H608 H 0.77962 0.39813 0.82654 0.0
H609 H 0.73016 0.4007 0.96355 0.0
H610 H 0.75003 0.4162 0.76347 0.0
H611 H 0.70152 0.41884 0.89831 0.0
H612 H 0.81648 0.31305 0.8007 0.0
H613 H 0.85157 0.3787 0.77213 0.0
H614 H 0.79571 0.48413 0.08764 0.0
H615 H 0.77193 0.48526 0.91351 0.0
Li616 Li 0.63081 0.80307 0.05391 0.0
Li617 Li 0.63346 0.76505 0.00195 0.0
Li618 Li 0.63053 0.80282 0.94853 0.0
Li619 Li 0.59619 0.78686 0.99848 0.0
C620 C 0.6766 0.80204 0.00304 0.0
N621 N 0.71994 0.82282 0.00706 0.0
C622 C 0.69661 0.78837 0.00834 0.0
C623 C 0.67858 0.82625 0.99964 0.0
C624 C 0.71838 0.79921 0.01035 0.0
C625 C 0.70066 0.83643 0.00177 0.0
C626 C 0.60533 0.75726 0.10297 0.0
C627 C 0.58113 0.72423 0.12555 0.0
N628 N 0.59061 0.72354 0.17837 0.0
C629 C 0.61471 0.75637 0.15759 0.0
C630 C 0.58829 0.7412 0.08684 0.0
C631 C 0.60709 0.73913 0.19505 0.0
C632 C 0.6277 0.83299 0.15133 0.0
N633 N 0.64126 0.81786 0.12169 0.0
C634 C 0.67149 0.82092 0.1908 0.0
C635 C 0.66268 0.81162 0.1407 0.0
C636 C 0.65782 0.83621 0.22348 0.0
C637 C 0.63562 0.84233 0.20276 0.0
H638 H 0.61055 0.83742 0.13562 0.0
H639 H 0.67291 0.7991 0.11735 0.0
C640 C 0.66156 0.73103 0.95373 0.0
N641 N 0.64953 0.73601 0.00182 0.0
C642 C 0.67681 0.71209 0.9521 0.0
C643 C 0.66638 0.7032 0.04895 0.0
C644 C 0.6514 0.7224 0.04877 0.0
C645 C 0.67978 0.69813 1.00058 0.0
H646 H 0.66006 0.74243 0.91739 0.0
H647 H 0.64202 0.72686 0.08684 0.0
C648 C 0.60178 0.8406 0.98287 0.0
N649 N 0.58717 0.8837 0.94493 0.0
C650 C 0.58128 0.8426 0.95129 0.0
C651 C 0.61463 0.86055 0.99603 0.0
C652 C 0.57424 0.86454 0.93226 0.0
C653 C 0.60702 0.88218 0.97618 0.0
C654 C 0.60447 0.75699 0.89965 0.0
C655 C 0.60029 0.76257 0.8429 0.0
C656 C 0.59873 0.73486 0.91998 0.0
C657 C 0.59013 0.74593 0.80745 0.0
C658 C 0.58861 0.71871 0.88318 0.0
N659 N 0.58453 0.72454 0.82817 0.0
C660 C 0.66327 0.81194 0.86319 0.0
C661 C 0.6275 0.83153 0.84849 0.0
C662 C 0.67222 0.82096 0.81282 0.0
N663 N 0.64139 0.81754 0.8805 0.0
C664 C 0.6357 0.84084 0.79742 0.0
C665 C 0.65835 0.83551 0.7788 0.0
H666 H 0.67373 0.8001 0.88801 0.0
H667 H 0.60986 0.83502 0.86164 0.0
C668 C 0.55166 0.79063 0.04669 0.0
N669 N 0.56297 0.78463 0.99824 0.0
C670 C 0.52733 0.79032 0.04892 0.0
C671 C 0.5267 0.77743 0.95146 0.0
C672 C 0.55102 0.77817 0.951 0.0
C673 C 0.51444 0.78368 1.0008 0.0
H674 H 0.56159 0.79596 0.08345 0.0
H675 H 0.56028 0.77385 0.91265 0.0
O676 O 0.65518 0.79167 1.00118 0.0
O677 O 0.61256 0.77407 0.06593 0.0
O678 O 0.6088 0.81932 0.00242 0.0
O679 O 0.6144 0.77309 0.93478 0.0
H680 H 0.69532 0.76958 0.01099 0.0
H681 H 0.66325 0.837 0.99511 0.0
H682 H 0.73404 0.78887 0.01453 0.0
H683 H 0.70248 0.85516 0.99915 0.0
H684 H 0.56798 0.71165 0.11364 0.0
H685 H 0.62782 0.76881 0.17075 0.0
H686 H 0.58058 0.74189 0.04506 0.0
H687 H 0.61427 0.73815 0.23738 0.0
H688 H 0.68891 0.81599 0.2036 0.0
H689 H 0.62423 0.85375 0.2265 0.0
H690 H 0.68703 0.70919 0.91417 0.0
H691 H 0.66789 0.69282 0.08709 0.0
H692 H 0.57103 0.82735 0.94111 0.0
H693 H 0.63022 0.85938 0.02162 0.0
H694 H 0.55851 0.86634 0.90741 0.0
H695 H 0.61684 0.89776 0.98583 0.0
H696 H 0.60477 0.77962 0.82654 0.0
H697 H 0.60219 0.73016 0.96355 0.0
H698 H 0.58669 0.75003 0.76347 0.0
H699 H 0.58404 0.70152 0.89832 0.0
H700 H 0.68985 0.81649 0.80072 0.0
H701 H 0.62418 0.85156 0.77211 0.0
H702 H 0.51876 0.79571 0.08763 0.0
H703 H 0.51763 0.77193 0.9135 0.0
Li704 Li 0.71603 0.9067 0.50411 0.0
Li705 Li 0.70007 0.87236 0.55406 0.0
Li706 Li 0.73784 0.86942 0.50063 0.0
Li707 Li 0.69982 0.87207 0.44868 0.0
C708 C 0.7459 0.89842 0.60294 0.0
N709 N 0.77834 0.91836 0.67444 0.0
C710 C 0.74031 0.9026 0.65969 0.0
C711 C 0.76803 0.90416 0.58262 0.0
C712 C 0.75694 0.91276 0.69515 0.0
C713 C 0.78418 0.91428 0.61943 0.0
C714 C 0.66229 0.90111 0.51972 0.0
C715 C 0.62071 0.89587 0.5264 0.0
N716 N 0.61918 0.91573 0.55765 0.0
C717 C 0.66029 0.92161 0.55129 0.0
C718 C 0.64234 0.88826 0.50655 0.0
C719 C 0.63835 0.92865 0.57032 0.0
C720 C 0.71226 0.95123 0.45589 0.0
N721 N 0.71826 0.93992 0.50434 0.0
C722 C 0.72546 0.97619 0.55112 0.0
C723 C 0.72472 0.95187 0.55157 0.0
C724 C 0.7192 0.98845 0.50178 0.0
C725 C 0.71257 0.97556 0.45366 0.0
H726 H 0.70693 0.9413 0.41914 0.0
H727 H 0.72905 0.94261 0.58993 0.0
C728 C 0.69096 0.83963 0.63941 0.0
N729 N 0.68535 0.8615 0.62209 0.0
C730 C 0.68194 0.83068 0.68978 0.0
C731 C 0.66204 0.86719 0.70516 0.0
C732 C 0.67135 0.87539 0.65409 0.0
C733 C 0.66738 0.84454 0.72379 0.0
H734 H 0.7028 0.82917 0.6146 0.0
H735 H 0.66786 0.89302 0.64094 0.0
C736 C 0.74563 0.89756 0.39962 0.0
N737 N 0.77935 0.91228 0.32423 0.0
C738 C 0.74652 0.88818 0.345 0.0
C739 C 0.7617 0.91459 0.41576 0.0
C740 C 0.76376 0.8958 0.30754 0.0
C741 C 0.77866 0.92176 0.37706 0.0
C742 C 0.70085 0.82629 0.49956 0.0
C743 C 0.71452 0.80627 0.49428 0.0
C744 C 0.67664 0.82431 0.50297 0.0
C745 C 0.70367 0.78451 0.49228 0.0
C746 C 0.66645 0.80223 0.50085 0.0
N747 N 0.68007 0.78295 0.49557 0.0
C748 C 0.77187 0.84133 0.54886 0.0
C749 C 0.78049 0.85148 0.4538 0.0
C750 C 0.7908 0.82608 0.55049 0.0
N751 N 0.76688 0.85335 0.50076 0.0
C752 C 0.79968 0.8365 0.45363 0.0
C753 C 0.80476 0.82311 0.50201 0.0
H754 H 0.76047 0.84284 0.58521 0.0
H755 H 0.77602 0.86086 0.41572 0.0
C756 C 0.6699 0.87519 0.35125 0.0
N757 N 0.68502 0.86163 0.3809 0.0
C758 C 0.66056 0.86727 0.29982 0.0
C759 C 0.68196 0.83139 0.3118 0.0
C760 C 0.69126 0.8402 0.3619 0.0
C761 C 0.66668 0.84506 0.2791 0.0
H762 H 0.66548 0.89234 0.36695 0.0
H763 H 0.70378 0.82997 0.38525 0.0
O764 O 0.7298 0.88849 0.5678 0.0
O765 O 0.68357 0.89409 0.50017 0.0
O766 O 0.72882 0.89032 0.43666 0.0
O767 O 0.71122 0.84771 0.50141 0.0
H768 H 0.72326 0.89813 0.67604 0.0
H769 H 0.77273 0.90069 0.53906 0.0
H770 H 0.75284 0.9162 0.73912 0.0
H771 H 0.80137 0.91884 0.60431 0.0
H772 H 0.60513 0.88605 0.51676 0.0
H773 H 0.67554 0.93186 0.56147 0.0
H774 H 0.64351 0.87267 0.48096 0.0
H775 H 0.63655 0.94439 0.59517 0.0
H776 H 0.73096 0.98526 0.58907 0.0
H777 H 0.70717 0.98413 0.41495 0.0
H778 H 0.68641 0.81305 0.70189 0.0
H779 H 0.65132 0.8787 0.73046 0.0
H780 H 0.73408 0.87507 0.33182 0.0
H781 H 0.761 0.92231 0.45754 0.0
H782 H 0.76475 0.88863 0.2652 0.0
H783 H 0.79125 0.9349 0.38898 0.0
H784 H 0.73331 0.80757 0.49162 0.0
H785 H 0.66589 0.83964 0.50748 0.0
H786 H 0.71402 0.76885 0.48811 0.0
H787 H 0.64773 0.80041 0.50347 0.0
H788 H 0.79371 0.81588 0.58843 0.0
H789 H 0.81006 0.83498 0.41547 0.0
H790 H 0.64915 0.87866 0.27608 0.0
H791 H 0.68688 0.81397 0.299 0.0
Li792 Li 0.09619 0.71603 0.50411 0.0
Li793 Li 0.13053 0.70007 0.55406 0.0
Li794 Li 0.13346 0.73784 0.50064 0.0
Li795 Li 0.13081 0.69982 0.44868 0.0
C796 C 0.10446 0.7459 0.60294 0.0
N797 N 0.08453 0.77834 0.67445 0.0
C798 C 0.10029 0.74031 0.6597 0.0
C799 C 0.09873 0.76803 0.58263 0.0
C800 C 0.09012 0.75695 0.69515 0.0
C801 C 0.08861 0.78418 0.61943 0.0
C802 C 0.10178 0.66229 0.51972 0.0
C803 C 0.10702 0.62071 0.5264 0.0
N804 N 0.08716 0.61918 0.55765 0.0
C805 C 0.08127 0.66029 0.55129 0.0
C806 C 0.11463 0.64234 0.50656 0.0
C807 C 0.07423 0.63835 0.57032 0.0
C808 C 0.05166 0.71226 0.4559 0.0
N809 N 0.06297 0.71826 0.50435 0.0
C810 C 0.0267 0.72546 0.55113 0.0
C811 C 0.05102 0.72472 0.55158 0.0
C812 C 0.01444 0.7192 0.50179 0.0
C813 C 0.02733 0.71257 0.45367 0.0
H814 H 0.06159 0.70693 0.41914 0.0
H815 H 0.06028 0.72905 0.58994 0.0
C816 C 0.16326 0.69096 0.63941 0.0
N817 N 0.14138 0.68535 0.62209 0.0
C818 C 0.17221 0.68194 0.68978 0.0
C819 C 0.1357 0.66204 0.70516 0.0
C820 C 0.1275 0.67135 0.65409 0.0
C821 C 0.15835 0.66738 0.72379 0.0
H822 H 0.17372 0.7028 0.6146 0.0
H823 H 0.10987 0.66785 0.64094 0.0
C824 C 0.10533 0.74563 0.39963 0.0
N825 N 0.09061 0.77935 0.32423 0.0
C826 C 0.11471 0.74652 0.345 0.0
C827 C 0.0883 0.7617 0.41576 0.0
C828 C 0.10709 0.76376 0.30755 0.0
C829 C 0.08113 0.77866 0.37706 0.0
C830 C 0.1766 0.70085 0.49956 0.0
C831 C 0.19661 0.71452 0.49428 0.0
C832 C 0.17858 0.67664 0.50297 0.0
C833 C 0.21838 0.70367 0.49228 0.0
C834 C 0.20066 0.66645 0.50085 0.0
N835 N 0.21994 0.68007 0.49557 0.0
C836 C 0.16156 0.77187 0.54887 0.0
C837 C 0.15141 0.78049 0.45381 0.0
C838 C 0.17681 0.7908 0.55049 0.0
N839 N 0.14953 0.76688 0.50077 0.0
C840 C 0.16639 0.79968 0.45364 0.0
C841 C 0.17978 0.80476 0.50202 0.0
H842 H 0.16005 0.76047 0.58521 0.0
H843 H 0.14203 0.77602 0.41574 0.0
C844 C 0.12769 0.66991 0.35126 0.0
N845 N 0.14126 0.68502 0.38091 0.0
C846 C 0.13562 0.66056 0.29982 0.0
C847 C 0.1715 0.68196 0.3118 0.0
C848 C 0.16269 0.69126 0.3619 0.0
C849 C 0.15782 0.66668 0.27911 0.0
H850 H 0.11055 0.66548 0.36696 0.0
H851 H 0.17292 0.70378 0.38526 0.0
O852 O 0.11439 0.7298 0.56781 0.0
O853 O 0.1088 0.68357 0.50018 0.0
O854 O 0.11256 0.72882 0.43666 0.0
O855 O 0.15517 0.71122 0.50142 0.0
H856 H 0.10476 0.72326 0.67605 0.0
H857 H 0.10219 0.77273 0.53906 0.0
H858 H 0.08668 0.75285 0.73913 0.0
H859 H 0.08404 0.80137 0.6043 0.0
H860 H 0.11684 0.60513 0.51676 0.0
H861 H 0.07103 0.67554 0.56147 0.0
H862 H 0.13022 0.64351 0.48097 0.0
H863 H 0.0585 0.63655 0.59517 0.0
H864 H 0.01763 0.73096 0.58908 0.0
H865 H 0.01876 0.70718 0.41496 0.0
H866 H 0.18984 0.68641 0.70189 0.0
H867 H 0.12418 0.65132 0.73046 0.0
H868 H 0.12782 0.73408 0.33183 0.0
H869 H 0.08058 0.761 0.45755 0.0
H870 H 0.11427 0.76474 0.26521 0.0
H871 H 0.06799 0.79125 0.38898 0.0
H872 H 0.19532 0.73331 0.49163 0.0
H873 H 0.16325 0.66589 0.50748 0.0
H874 H 0.23404 0.71402 0.48811 0.0
H875 H 0.20247 0.64773 0.50347 0.0
H876 H 0.18701 0.7937 0.58844 0.0
H877 H 0.16791 0.81006 0.41549 0.0
H878 H 0.12422 0.64915 0.27608 0.0
H879 H 0.18892 0.68688 0.299 0.0
Li880 Li 0.30282 0.13053 0.55407 0.0
Li881 Li 0.28686 0.09619 0.50412 0.0
Li882 Li 0.30307 0.13081 0.44868 0.0
Li883 Li 0.26505 0.13346 0.50064 0.0
C884 C 0.3406 0.10178 0.51973 0.0
N885 N 0.3837 0.08717 0.55766 0.0
C886 C 0.3426 0.08128 0.5513 0.0
C887 C 0.36055 0.11463 0.50656 0.0
C888 C 0.36454 0.07424 0.57033 0.0
C889 C 0.38217 0.10702 0.52641 0.0
C890 C 0.25699 0.10446 0.60295 0.0
C891 C 0.21871 0.08861 0.61943 0.0
N892 N 0.22454 0.08453 0.67444 0.0
C893 C 0.26257 0.10029 0.6597 0.0
C894 C 0.23486 0.09873 0.58263 0.0
C895 C 0.24594 0.09012 0.69515 0.0
C896 C 0.31194 0.16327 0.6394 0.0
N897 N 0.31754 0.14139 0.62209 0.0
C898 C 0.34084 0.1357 0.70517 0.0
C899 C 0.33153 0.1275 0.6541 0.0
C900 C 0.33551 0.15835 0.72379 0.0
C901 C 0.32096 0.17222 0.68977 0.0
H902 H 0.3001 0.17373 0.61459 0.0
H903 H 0.33502 0.10986 0.64096 0.0
C904 C 0.29063 0.05166 0.4559 0.0
N905 N 0.28463 0.06297 0.50436 0.0
C906 C 0.29032 0.02733 0.45367 0.0
C907 C 0.27743 0.0267 0.55114 0.0
C908 C 0.27817 0.05102 0.55159 0.0
C909 C 0.28368 0.01444 0.5018 0.0
H910 H 0.29595 0.06159 0.41914 0.0
H911 H 0.27385 0.06028 0.58995 0.0
C912 C 0.30204 0.1766 0.49955 0.0
N913 N 0.32282 0.21994 0.49553 0.0
C914 C 0.28836 0.19661 0.49426 0.0
C915 C 0.32624 0.17858 0.50295 0.0
C916 C 0.29921 0.21838 0.49224 0.0
C917 C 0.33643 0.20066 0.50082 0.0
C918 C 0.25726 0.10533 0.39963 0.0
C919 C 0.25637 0.11471 0.34501 0.0
C920 C 0.24119 0.08829 0.41577 0.0
C921 C 0.23913 0.10709 0.30755 0.0
C922 C 0.22423 0.08113 0.37706 0.0
N923 N 0.22354 0.09061 0.32424 0.0
C924 C 0.33299 0.1277 0.35127 0.0
C925 C 0.31162 0.16269 0.36189 0.0
C926 C 0.34233 0.13562 0.29982 0.0
N927 N 0.31786 0.14126 0.38091 0.0
C928 C 0.32092 0.1715 0.3118 0.0
C929 C 0.3362 0.15782 0.27911 0.0
H930 H 0.33742 0.11055 0.36697 0.0
H931 H 0.2991 0.17291 0.38524 0.0
C932 C 0.23102 0.16156 0.54887 0.0
N933 N 0.23601 0.14953 0.50078 0.0
C934 C 0.21208 0.1768 0.5505 0.0
C935 C 0.20321 0.16639 0.45364 0.0
C936 C 0.2224 0.15141 0.45382 0.0
C937 C 0.19813 0.17977 0.50202 0.0
H938 H 0.24242 0.16005 0.58522 0.0
H939 H 0.22687 0.14203 0.41574 0.0
O940 O 0.31932 0.1088 0.50018 0.0
O941 O 0.27309 0.1144 0.56782 0.0
O942 O 0.29167 0.15518 0.50142 0.0
O943 O 0.27407 0.11256 0.43667 0.0
H944 H 0.32735 0.07103 0.56148 0.0
H945 H 0.35938 0.13022 0.48097 0.0
H946 H 0.36634 0.05851 0.59518 0.0
H947 H 0.39776 0.11685 0.51676 0.0
H948 H 0.20152 0.08404 0.6043 0.0
H949 H 0.27962 0.10476 0.67605 0.0
H950 H 0.23016 0.10219 0.53906 0.0
H951 H 0.25004 0.08668 0.73913 0.0
H952 H 0.35156 0.12418 0.73048 0.0
H953 H 0.31649 0.18985 0.70187 0.0
H954 H 0.29571 0.01876 0.41496 0.0
H955 H 0.27193 0.01763 0.58909 0.0
H956 H 0.26958 0.19532 0.49161 0.0
H957 H 0.337 0.16325 0.50748 0.0
H958 H 0.28886 0.23404 0.48807 0.0
H959 H 0.35515 0.20248 0.50344 0.0
H960 H 0.26881 0.12782 0.33184 0.0
H961 H 0.24189 0.08058 0.45755 0.0
H962 H 0.23815 0.11426 0.26521 0.0
H963 H 0.21164 0.06799 0.38898 0.0
H964 H 0.35375 0.12423 0.27609 0.0
H965 H 0.316 0.18891 0.29899 0.0
H966 H 0.20918 0.18701 0.58844 0.0
H967 H 0.19283 0.16791 0.41549 0.0
Li968 Li 0.87236 0.30282 0.55406 0.0
Li969 Li 0.9067 0.28686 0.50411 0.0
Li970 Li 0.87207 0.30307 0.44868 0.0
Li971 Li 0.86942 0.26505 0.50063 0.0
C972 C 0.90111 0.3406 0.51972 0.0
N973 N 0.91572 0.3837 0.55767 0.0
C974 C 0.92161 0.3426 0.5513 0.0
C975 C 0.88825 0.36055 0.50656 0.0
C976 C 0.92865 0.36454 0.57033 0.0
C977 C 0.89587 0.38217 0.52641 0.0
C978 C 0.89842 0.25699 0.60294 0.0
C979 C 0.91428 0.21871 0.61943 0.0
N980 N 0.91836 0.22454 0.67444 0.0
C981 C 0.9026 0.26257 0.6597 0.0
C982 C 0.90416 0.23486 0.58262 0.0
C983 C 0.91276 0.24594 0.69515 0.0
C984 C 0.83962 0.31194 0.6394 0.0
N985 N 0.8615 0.31754 0.62209 0.0
C986 C 0.86719 0.34084 0.70517 0.0
C987 C 0.87539 0.33153 0.6541 0.0
C988 C 0.84454 0.33551 0.72379 0.0
C989 C 0.83067 0.32096 0.68977 0.0
H990 H 0.82916 0.3001 0.61458 0.0
H991 H 0.89303 0.33501 0.64096 0.0
C992 C 0.95123 0.29063 0.4559 0.0
N993 N 0.93992 0.28463 0.50435 0.0
C994 C 0.97556 0.29032 0.45367 0.0
C995 C 0.97619 0.27743 0.55113 0.0
C996 C 0.95186 0.27817 0.55159 0.0
C997 C 0.98845 0.28368 0.50179 0.0
H998 H 0.9413 0.29596 0.41914 0.0
H999 H 0.94261 0.27385 0.58994 0.0
C1000 C 0.82629 0.30204 0.49955 0.0
N1001 N 0.78295 0.32282 0.49552 0.0
C1002 C 0.80628 0.28836 0.49425 0.0
C1003 C 0.8243 0.32624 0.50295 0.0
C1004 C 0.78451 0.29921 0.49223 0.0
C1005 C 0.80223 0.33643 0.50082 0.0
C1006 C 0.89756 0.25726 0.39963 0.0
C1007 C 0.88818 0.25637 0.345 0.0
C1008 C 0.91459 0.24119 0.41576 0.0
C1009 C 0.8958 0.23913 0.30754 0.0
C1010 C 0.92176 0.22423 0.37706 0.0
N1011 N 0.91228 0.22354 0.32423 0.0
C1012 C 0.87519 0.33299 0.35127 0.0
C1013 C 0.8402 0.31161 0.36189 0.0
C1014 C 0.86727 0.34233 0.29983 0.0
N1015 N 0.86163 0.31786 0.3809 0.0
C1016 C 0.83139 0.32092 0.31179 0.0
C1017 C 0.84507 0.3362 0.2791 0.0
H1018 H 0.89233 0.33742 0.36697 0.0
H1019 H 0.82998 0.2991 0.38524 0.0
C1020 C 0.84133 0.23102 0.54886 0.0
N1021 N 0.85335 0.23601 0.50077 0.0
C1022 C 0.82608 0.21208 0.55049 0.0
C1023 C 0.8365 0.20321 0.45363 0.0
C1024 C 0.85148 0.2224 0.45381 0.0
C1025 C 0.82311 0.19813 0.50201 0.0
H1026 H 0.84284 0.24242 0.58521 0.0
H1027 H 0.86086 0.22687 0.41573 0.0
O1028 O 0.89409 0.31932 0.50017 0.0
O1029 O 0.88849 0.27309 0.56781 0.0
O1030 O 0.84771 0.29167 0.50141 0.0
O1031 O 0.89033 0.27407 0.43666 0.0
H1032 H 0.93186 0.32735 0.56148 0.0
H1033 H 0.87266 0.35938 0.48097 0.0
H1034 H 0.94438 0.36634 0.59518 0.0
H1035 H 0.88604 0.39776 0.51677 0.0
H1036 H 0.91884 0.20152 0.6043 0.0
H1037 H 0.89813 0.27962 0.67605 0.0
H1038 H 0.90069 0.23016 0.53905 0.0
H1039 H 0.9162 0.25004 0.73912 0.0
H1040 H 0.87871 0.35155 0.73048 0.0
H1041 H 0.81304 0.31649 0.70187 0.0
H1042 H 0.98413 0.29571 0.41496 0.0
H1043 H 0.98526 0.27193 0.58909 0.0
H1044 H 0.80757 0.26958 0.4916 0.0
H1045 H 0.83963 0.337 0.50748 0.0
H1046 H 0.76885 0.28886 0.48805 0.0
H1047 H 0.80041 0.35515 0.50343 0.0
H1048 H 0.87507 0.26881 0.33183 0.0
H1049 H 0.92231 0.24189 0.45754 0.0
H1050 H 0.88863 0.23815 0.26521 0.0
H1051 H 0.9349 0.21164 0.38897 0.0
H1052 H 0.87866 0.35375 0.27609 0.0
H1053 H 0.81398 0.31599 0.29899 0.0
H1054 H 0.81588 0.20918 0.58843 0.0
H1055 H 0.83498 0.19283 0.41548 0.0
Li1056 Li 0.73785 0.13347 0.50196 0.0
Li1057 Li 0.69982 0.13082 0.55391 0.0
Li1058 Li 0.71603 0.09619 0.49848 0.0
Li1059 Li 0.70007 0.13053 0.44852 0.0
C1060 C 0.74564 0.10532 0.60293 0.0
N1061 N 0.77937 0.09057 0.67826 0.0
C1062 C 0.74653 0.11467 0.65758 0.0
C1063 C 0.76171 0.0883 0.58673 0.0
C1064 C 0.76378 0.10704 0.695 0.0
C1065 C 0.77868 0.08112 0.6254 0.0
C1066 C 0.70085 0.1766 0.50304 0.0
C1067 C 0.66645 0.20066 0.50177 0.0
N1068 N 0.68006 0.21993 0.50706 0.0
C1069 C 0.71452 0.19662 0.50833 0.0
C1070 C 0.67664 0.17858 0.49964 0.0
C1071 C 0.70367 0.21838 0.51034 0.0
C1072 C 0.77188 0.16155 0.45372 0.0
N1073 N 0.76688 0.14954 0.50183 0.0
C1074 C 0.79967 0.1664 0.54899 0.0
C1075 C 0.78047 0.15143 0.54881 0.0
C1076 C 0.80476 0.17978 0.5006 0.0
C1077 C 0.79082 0.1768 0.4521 0.0
H1078 H 0.76049 0.16003 0.41736 0.0
H1079 H 0.77599 0.14206 0.5869 0.0
C1080 C 0.6699 0.1277 0.65132 0.0
N1081 N 0.68502 0.14126 0.62168 0.0
C1082 C 0.66056 0.13562 0.70276 0.0
C1083 C 0.68197 0.17149 0.6908 0.0
C1084 C 0.69127 0.16269 0.6407 0.0
C1085 C 0.66668 0.15782 0.72348 0.0
H1086 H 0.66547 0.11055 0.63561 0.0
H1087 H 0.70379 0.17291 0.61735 0.0
C1088 C 0.74589 0.10448 0.39961 0.0
N1089 N 0.77832 0.08455 0.32803 0.0
C1090 C 0.74029 0.1003 0.34287 0.0
C1091 C 0.76803 0.09875 0.41988 0.0
C1092 C 0.75691 0.09014 0.30738 0.0
C1093 C 0.78417 0.08864 0.38303 0.0
C1094 C 0.66229 0.10178 0.48285 0.0
C1095 C 0.66031 0.08127 0.45128 0.0
C1096 C 0.64234 0.11462 0.49601 0.0
C1097 C 0.63836 0.07423 0.43224 0.0
C1098 C 0.62072 0.10701 0.47616 0.0
N1099 N 0.6192 0.08715 0.4449 0.0
C1100 C 0.71224 0.05166 0.54667 0.0
C1101 C 0.72475 0.05102 0.45103 0.0
C1102 C 0.71255 0.02733 0.54891 0.0
N1103 N 0.71826 0.06297 0.49824 0.0
C1104 C 0.72549 0.0267 0.45149 0.0
C1105 C 0.71921 0.01444 0.50081 0.0
H1106 H 0.70689 0.0616 0.58341 0.0
H1107 H 0.7291 0.06028 0.41268 0.0
C1108 C 0.69095 0.16327 0.36319 0.0
N1109 N 0.68535 0.14139 0.3805 0.0
C1110 C 0.68193 0.17222 0.31282 0.0
C1111 C 0.66205 0.1357 0.29742 0.0
C1112 C 0.67136 0.1275 0.34849 0.0
C1113 C 0.66738 0.15836 0.2788 0.0
H1114 H 0.70279 0.17373 0.388 0.0
H1115 H 0.66787 0.10986 0.36163 0.0
O1116 O 0.72882 0.11257 0.56593 0.0
O1117 O 0.71122 0.15518 0.50117 0.0
O1118 O 0.7298 0.1144 0.43478 0.0
O1119 O 0.68357 0.1088 0.50241 0.0
H1120 H 0.73409 0.12777 0.6708 0.0
H1121 H 0.761 0.0806 0.54493 0.0
H1122 H 0.76476 0.11419 0.73736 0.0
H1123 H 0.79126 0.06798 0.61344 0.0
H1124 H 0.64772 0.20247 0.49916 0.0
H1125 H 0.7333 0.19532 0.51098 0.0
H1126 H 0.66589 0.16325 0.49512 0.0
H1127 H 0.71401 0.23404 0.51452 0.0
H1128 H 0.81004 0.16793 0.58716 0.0
H1129 H 0.79373 0.18699 0.41415 0.0
H1130 H 0.64914 0.12423 0.72649 0.0
H1131 H 0.6869 0.18891 0.70361 0.0
H1132 H 0.72323 0.10476 0.32656 0.0
H1133 H 0.77275 0.10222 0.46343 0.0
H1134 H 0.75279 0.0867 0.26341 0.0
H1135 H 0.80137 0.08408 0.39811 0.0
H1136 H 0.67556 0.07103 0.4411 0.0
H1137 H 0.64351 0.13021 0.52161 0.0
H1138 H 0.63658 0.05849 0.40738 0.0
H1139 H 0.60513 0.11683 0.4858 0.0
H1140 H 0.70713 0.01876 0.5876 0.0
H1141 H 0.73101 0.01763 0.41355 0.0
H1142 H 0.6864 0.18985 0.30072 0.0
H1143 H 0.65134 0.12418 0.27211 0.0
Li1144 Li 0.86942 0.73784 0.50196 0.0
Li1145 Li 0.87207 0.69982 0.55391 0.0
Li1146 Li 0.9067 0.71603 0.49848 0.0
Li1147 Li 0.87236 0.70007 0.44852 0.0
C1148 C 0.89756 0.74564 0.60293 0.0
N1149 N 0.91231 0.77937 0.67826 0.0
C1150 C 0.88821 0.74653 0.65758 0.0
C1151 C 0.91459 0.76171 0.58673 0.0
C1152 C 0.89585 0.76378 0.69501 0.0
C1153 C 0.92177 0.77868 0.6254 0.0
C1154 C 0.82629 0.70084 0.50303 0.0
C1155 C 0.80223 0.66645 0.50174 0.0
N1156 N 0.78296 0.68005 0.50701 0.0
C1157 C 0.80627 0.71451 0.5083 0.0
C1158 C 0.82431 0.67664 0.49962 0.0
C1159 C 0.78451 0.70366 0.5103 0.0
C1160 C 0.84134 0.77188 0.45372 0.0
N1161 N 0.85335 0.76688 0.50183 0.0
C1162 C 0.83648 0.79967 0.54899 0.0
C1163 C 0.85146 0.78047 0.54881 0.0
C1164 C 0.82311 0.80476 0.5006 0.0
C1165 C 0.82609 0.79082 0.4521 0.0
H1166 H 0.84286 0.76049 0.41736 0.0
H1167 H 0.86083 0.776 0.5869 0.0
C1168 C 0.87519 0.6699 0.65133 0.0
N1169 N 0.86163 0.68502 0.62168 0.0
C1170 C 0.86727 0.66056 0.70277 0.0
C1171 C 0.83139 0.68196 0.69079 0.0
C1172 C 0.8402 0.69126 0.64069 0.0
C1173 C 0.84506 0.66668 0.72348 0.0
H1174 H 0.89234 0.66548 0.63563 0.0
H1175 H 0.82997 0.70378 0.61733 0.0
C1176 C 0.89841 0.74589 0.39961 0.0
N1177 N 0.91834 0.77831 0.32803 0.0
C1178 C 0.90259 0.74028 0.34287 0.0
C1179 C 0.90414 0.76803 0.41987 0.0
C1180 C 0.91275 0.75691 0.30738 0.0
C1181 C 0.91425 0.78417 0.38302 0.0
C1182 C 0.90111 0.66229 0.48286 0.0
C1183 C 0.92162 0.66031 0.45128 0.0
C1184 C 0.88827 0.64234 0.49602 0.0
C1185 C 0.92867 0.63836 0.43225 0.0
C1186 C 0.89589 0.62072 0.47617 0.0
N1187 N 0.91574 0.6192 0.44491 0.0
C1188 C 0.95123 0.71224 0.54668 0.0
C1189 C 0.95186 0.72475 0.45103 0.0
C1190 C 0.97555 0.71254 0.54891 0.0
N1191 N 0.93992 0.71826 0.49824 0.0
C1192 C 0.97619 0.72549 0.4515 0.0
C1193 C 0.98845 0.71921 0.50081 0.0
H1194 H 0.94129 0.70689 0.58342 0.0
H1195 H 0.94261 0.7291 0.41269 0.0
C1196 C 0.83963 0.69096 0.36318 0.0
N1197 N 0.8615 0.68535 0.3805 0.0
C1198 C 0.83067 0.68194 0.31281 0.0
C1199 C 0.86718 0.66205 0.29743 0.0
C1200 C 0.87538 0.67135 0.3485 0.0
C1201 C 0.84453 0.66738 0.2788 0.0
H1202 H 0.82917 0.70281 0.38799 0.0
H1203 H 0.89302 0.66786 0.36165 0.0
O1204 O 0.89032 0.72882 0.56593 0.0
O1205 O 0.84771 0.71122 0.50118 0.0
O1206 O 0.88849 0.7298 0.43478 0.0
O1207 O 0.89409 0.68357 0.50241 0.0
H1208 H 0.87511 0.73409 0.67081 0.0
H1209 H 0.92228 0.761 0.54493 0.0
H1210 H 0.88869 0.76477 0.73736 0.0
H1211 H 0.9349 0.79127 0.61344 0.0
H1212 H 0.80042 0.64772 0.49912 0.0
H1213 H 0.80756 0.7333 0.51095 0.0
H1214 H 0.83964 0.66589 0.49511 0.0
H1215 H 0.76885 0.714 0.51447 0.0
H1216 H 0.83495 0.81004 0.58716 0.0
H1217 H 0.8159 0.79373 0.41415 0.0
H1218 H 0.87866 0.64915 0.72651 0.0
H1219 H 0.81397 0.68688 0.70359 0.0
H1220 H 0.89813 0.72323 0.32657 0.0
H1221 H 0.90067 0.77275 0.46343 0.0
H1222 H 0.91619 0.75279 0.26341 0.0
H1223 H 0.91881 0.80137 0.39811 0.0
H1224 H 0.93186 0.67556 0.44111 0.0
H1225 H 0.87268 0.64351 0.52161 0.0
H1226 H 0.9444 0.63658 0.40739 0.0
H1227 H 0.88607 0.60513 0.48581 0.0
H1228 H 0.98413 0.70713 0.5876 0.0
H1229 H 0.98526 0.73101 0.41356 0.0
H1230 H 0.81304 0.68641 0.3007 0.0
H1231 H 0.8787 0.65132 0.27213 0.0
Li1232 Li 0.26504 0.86942 0.50197 0.0
Li1233 Li 0.30307 0.87207 0.55391 0.0
Li1234 Li 0.28685 0.9067 0.49849 0.0
Li1235 Li 0.30281 0.87236 0.44853 0.0
C1236 C 0.25725 0.89757 0.60294 0.0
N1237 N 0.22351 0.91232 0.67826 0.0
C1238 C 0.25636 0.88822 0.65759 0.0
C1239 C 0.24118 0.91459 0.58674 0.0
C1240 C 0.2391 0.89585 0.69501 0.0
C1241 C 0.22421 0.92177 0.6254 0.0
C1242 C 0.30204 0.82629 0.50303 0.0
C1243 C 0.33644 0.80223 0.50173 0.0
N1244 N 0.32283 0.78296 0.50701 0.0
C1245 C 0.28837 0.80627 0.5083 0.0
C1246 C 0.32625 0.82431 0.49962 0.0
C1247 C 0.29923 0.78451 0.51029 0.0
C1248 C 0.23101 0.84134 0.45373 0.0
N1249 N 0.23601 0.85335 0.50184 0.0
C1250 C 0.20322 0.83648 0.54901 0.0
C1251 C 0.22241 0.85146 0.54882 0.0
C1252 C 0.19813 0.82311 0.50061 0.0
C1253 C 0.21207 0.82609 0.45211 0.0
H1254 H 0.24239 0.84286 0.41737 0.0
H1255 H 0.22689 0.86083 0.58691 0.0
C1256 C 0.33298 0.87519 0.65133 0.0
N1257 N 0.31786 0.86163 0.62169 0.0
C1258 C 0.34233 0.86727 0.70277 0.0
C1259 C 0.32093 0.83139 0.69079 0.0
C1260 C 0.31162 0.8402 0.64069 0.0
C1261 C 0.33621 0.84506 0.72348 0.0
H1262 H 0.33741 0.89234 0.63563 0.0
H1263 H 0.29911 0.82997 0.61734 0.0
C1264 C 0.257 0.89841 0.39962 0.0
N1265 N 0.22458 0.91833 0.32803 0.0
C1266 C 0.26261 0.90259 0.34288 0.0
C1267 C 0.23486 0.90413 0.41988 0.0
C1268 C 0.24599 0.91275 0.30738 0.0
C1269 C 0.21872 0.91425 0.38302 0.0
C1270 C 0.34059 0.90111 0.48286 0.0
C1271 C 0.34258 0.92162 0.45129 0.0
C1272 C 0.36055 0.88827 0.49602 0.0
C1273 C 0.36452 0.92867 0.43225 0.0
C1274 C 0.38217 0.89589 0.47617 0.0
N1275 N 0.38369 0.91574 0.44491 0.0
C1276 C 0.29065 0.95123 0.54668 0.0
C1277 C 0.27814 0.95186 0.45105 0.0
C1278 C 0.29035 0.97555 0.54892 0.0
N1279 N 0.28462 0.93992 0.49825 0.0
C1280 C 0.2774 0.97619 0.45151 0.0
C1281 C 0.28368 0.98845 0.50082 0.0
H1282 H 0.296 0.94129 0.58342 0.0
H1283 H 0.27378 0.94261 0.4127 0.0
C1284 C 0.31193 0.83963 0.36318 0.0
N1285 N 0.31754 0.8615 0.3805 0.0
C1286 C 0.32095 0.83067 0.31281 0.0
C1287 C 0.34084 0.86718 0.29743 0.0
C1288 C 0.33154 0.87538 0.3485 0.0
C1289 C 0.33551 0.84453 0.2788 0.0
H1290 H 0.30008 0.82917 0.38799 0.0
H1291 H 0.33503 0.89302 0.36165 0.0
O1292 O 0.27406 0.89032 0.56594 0.0
O1293 O 0.29167 0.84771 0.50118 0.0
O1294 O 0.27308 0.88849 0.43479 0.0
O1295 O 0.31931 0.89409 0.50242 0.0
H1296 H 0.26879 0.87512 0.67082 0.0
H1297 H 0.24188 0.92228 0.54493 0.0
H1298 H 0.23812 0.8887 0.73737 0.0
H1299 H 0.21162 0.9349 0.61344 0.0
H1300 H 0.35517 0.80042 0.49912 0.0
H1301 H 0.26959 0.80756 0.51095 0.0
H1302 H 0.337 0.83965 0.49511 0.0
H1303 H 0.28888 0.76885 0.51446 0.0
H1304 H 0.19285 0.83495 0.58717 0.0
H1305 H 0.20915 0.8159 0.41416 0.0
H1306 H 0.35374 0.87867 0.72651 0.0
H1307 H 0.31601 0.81397 0.70359 0.0
H1308 H 0.27967 0.89813 0.32658 0.0
H1309 H 0.23013 0.90067 0.46343 0.0
H1310 H 0.2501 0.91619 0.26342 0.0
H1311 H 0.20152 0.9188 0.39811 0.0
H1312 H 0.32733 0.93186 0.44111 0.0
H1313 H 0.35938 0.87268 0.52161 0.0
H1314 H 0.36631 0.9444 0.4074 0.0
H1315 H 0.39776 0.88607 0.48581 0.0
H1316 H 0.29576 0.98413 0.58761 0.0
H1317 H 0.27188 0.98526 0.41357 0.0
H1318 H 0.31647 0.81304 0.3007 0.0
H1319 H 0.35157 0.8787 0.27213 0.0
Li1320 Li 0.13081 0.30307 0.55391 0.0
Li1321 Li 0.13347 0.26504 0.50196 0.0
Li1322 Li 0.13053 0.30281 0.44853 0.0
Li1323 Li 0.09619 0.28685 0.49848 0.0
C1324 C 0.1766 0.30204 0.50304 0.0
N1325 N 0.21993 0.32283 0.50704 0.0
C1326 C 0.19662 0.28837 0.50832 0.0
C1327 C 0.17858 0.32625 0.49964 0.0
C1328 C 0.21838 0.29922 0.51033 0.0
C1329 C 0.20066 0.33644 0.50176 0.0
C1330 C 0.10532 0.25725 0.60294 0.0
C1331 C 0.08112 0.22421 0.6254 0.0
N1332 N 0.09057 0.22352 0.67826 0.0
C1333 C 0.11467 0.25636 0.65759 0.0
C1334 C 0.0883 0.24118 0.58674 0.0
C1335 C 0.10703 0.23911 0.69501 0.0
C1336 C 0.1277 0.33299 0.65133 0.0
N1337 N 0.14126 0.31786 0.62169 0.0
C1338 C 0.1715 0.32092 0.6908 0.0
C1339 C 0.16269 0.31162 0.6407 0.0
C1340 C 0.15782 0.3362 0.72348 0.0
C1341 C 0.13562 0.34233 0.70277 0.0
H1342 H 0.11055 0.33742 0.63562 0.0
H1343 H 0.17291 0.2991 0.61735 0.0
C1344 C 0.16155 0.23101 0.45373 0.0
N1345 N 0.14954 0.23601 0.50184 0.0
C1346 C 0.1768 0.21207 0.45211 0.0
C1347 C 0.1664 0.20322 0.54901 0.0
C1348 C 0.15143 0.22241 0.54882 0.0
C1349 C 0.17978 0.19813 0.50061 0.0
H1350 H 0.16003 0.24239 0.41737 0.0
H1351 H 0.14206 0.22689 0.58691 0.0
C1352 C 0.10178 0.34059 0.48286 0.0
N1353 N 0.08715 0.38369 0.44491 0.0
C1354 C 0.08127 0.34258 0.45128 0.0
C1355 C 0.11462 0.36055 0.49602 0.0
C1356 C 0.07423 0.36452 0.43225 0.0
C1357 C 0.107 0.38217 0.47616 0.0
C1358 C 0.10448 0.25699 0.39962 0.0
C1359 C 0.1003 0.2626 0.34288 0.0
C1360 C 0.09875 0.23486 0.41988 0.0
C1361 C 0.09014 0.24598 0.30738 0.0
C1362 C 0.08864 0.21872 0.38303 0.0
N1363 N 0.08456 0.22457 0.32803 0.0
C1364 C 0.16327 0.31193 0.36319 0.0
C1365 C 0.1275 0.33153 0.34849 0.0
C1366 C 0.17222 0.32096 0.31282 0.0
N1367 N 0.14139 0.31754 0.3805 0.0
C1368 C 0.1357 0.34083 0.29742 0.0
C1369 C 0.15835 0.33551 0.2788 0.0
H1370 H 0.17373 0.30009 0.388 0.0
H1371 H 0.10987 0.33502 0.36164 0.0
C1372 C 0.05166 0.29065 0.54668 0.0
N1373 N 0.06297 0.28462 0.49825 0.0
C1374 C 0.02733 0.29034 0.54892 0.0
C1375 C 0.0267 0.2774 0.4515 0.0
C1376 C 0.05103 0.27814 0.45104 0.0
C1377 C 0.01444 0.28368 0.50082 0.0
H1378 H 0.0616 0.296 0.58342 0.0
H1379 H 0.06028 0.27379 0.4127 0.0
O1380 O 0.15518 0.29167 0.50118 0.0
O1381 O 0.11257 0.27406 0.56594 0.0
O1382 O 0.1088 0.31931 0.50242 0.0
O1383 O 0.1144 0.27308 0.43479 0.0
H1384 H 0.19532 0.26959 0.51098 0.0
H1385 H 0.16325 0.337 0.49512 0.0
H1386 H 0.23404 0.28888 0.5145 0.0
H1387 H 0.20247 0.35516 0.49914 0.0
H1388 H 0.06798 0.21162 0.61344 0.0
H1389 H 0.12777 0.26879 0.67081 0.0
H1390 H 0.0806 0.24188 0.54493 0.0
H1391 H 0.11419 0.23812 0.73737 0.0
H1392 H 0.18891 0.316 0.7036 0.0
H1393 H 0.12423 0.35375 0.7265 0.0
H1394 H 0.18699 0.20915 0.41416 0.0
H1395 H 0.16793 0.19285 0.58717 0.0
H1396 H 0.07103 0.32733 0.44111 0.0
H1397 H 0.13021 0.35938 0.52161 0.0
H1398 H 0.05849 0.36631 0.40739 0.0
H1399 H 0.11682 0.39776 0.4858 0.0
H1400 H 0.10476 0.27966 0.32657 0.0
H1401 H 0.10222 0.23014 0.46343 0.0
H1402 H 0.0867 0.2501 0.26342 0.0
H1403 H 0.08408 0.20152 0.39811 0.0
H1404 H 0.18985 0.31649 0.30072 0.0
H1405 H 0.12418 0.35155 0.27212 0.0
H1406 H 0.01876 0.29576 0.58761 0.0
H1407 H 0.01763 0.27188 0.41356 0.0
loop_
_geom_bond_atom_site_label_1
_geom_bond_atom_site_label_2
_geom_bond_distance
_geom_bond_site_symmetry_2
_ccdc_geom_bond_type
Li0 N17 1.990 . S
Li0 O60 1.956 . S
Li0 O61 1.970 1_554 S
Li0 O62 1.961 1_554 S
Li1 N25 1.990 . S
Li1 O60 1.970 . S
Li1 O61 1.956 1_554 S
Li1 O63 1.961 . S
Li2 N47 1.990 . S
Li2 O60 1.961 1_556 S
Li2 O62 1.956 . S
Li2 O63 1.970 1_556 S
Li3 N53 1.990 . S
Li3 O61 1.961 . S
Li3 O62 1.970 . S
Li3 O63 1.956 1_556 S
C4 C6 1.348 . S
C4 C7 1.356 . S
C4 O60 1.325 . S
N5 C8 1.314 . S
N5 C9 1.279 . S
C6 C4 1.348 . S
C6 C8 1.353 . S
C6 H64 0.929 . S
C7 C4 1.356 . S
C7 C9 1.358 . S
C7 H65 0.930 . S
C8 N5 1.314 . S
C8 C6 1.353 . S
C8 H66 0.930 . S
C9 N5 1.279 . S
C9 C7 1.358 . S
C9 H67 0.930 . S
C10 C13 1.348 1_556 S
C10 C14 1.356 . S
C10 O61 1.325 . S
C11 N12 1.279 1_556 S
C11 C14 1.358 . S
C11 H68 0.930 . S
N12 C11 1.279 1_554 S
N12 C15 1.314 . S
C13 C10 1.348 1_554 S
C13 C15 1.353 . S
C13 H69 0.929 . S
C14 C10 1.356 . S
C14 C11 1.358 . S
C14 H70 0.930 . S
C15 N12 1.314 . S
C15 C13 1.353 . S
C15 H71 0.930 . S
C16 N17 1.314 1_556 S
C16 C21 1.353 . S
C16 H22 0.930 . S
N17 Li0 1.990 . S
N17 C16 1.314 1_554 S
N17 C19 1.279 . S
C18 C19 1.358 . S
C18 C20 1.359 . S
C18 H72 0.930 . S
C19 N17 1.279 . S
C19 C18 1.358 . S
C19 H23 0.930 . S
C20 C18 1.359 . S
C20 C21 1.345 1_554 S
C21 C16 1.353 . S
C21 C20 1.345 1_556 S
C21 H73 0.929 . S
H22 C16 0.930 . S
H23 C19 0.930 . S
C24 N25 1.314 . S
C24 C26 1.353 . S
C24 H30 0.930 . S
N25 Li1 1.990 . S
N25 C24 1.314 . S
N25 C28 1.279 . S
C26 C24 1.353 . S
C26 C29 1.348 . S
C26 H74 0.929 . S
C27 C28 1.358 . S
C27 C29 1.356 . S
C27 H75 0.930 . S
C28 N25 1.279 . S
C28 C27 1.358 . S
C28 H31 0.930 . S
C29 C26 1.348 . S
C29 C27 1.356 . S
H30 C24 0.930 . S
H31 C28 0.930 . S
C32 C34 1.348 . S
C32 C35 1.356 . S
C32 O62 1.325 . S
N33 C36 1.314 . S
N33 C37 1.279 . S
C34 C32 1.348 . S
C34 C36 1.353 . S
C34 H76 0.929 . S
C35 C32 1.356 . S
C35 C37 1.358 . S
C35 H77 0.930 . S
C36 N33 1.314 . S
C36 C34 1.353 . S
C36 H78 0.930 . S
C37 N33 1.279 . S
C37 C35 1.358 . S
C37 H79 0.930 . S
C38 C39 1.347 1_554 S
C38 C40 1.357 . S
C38 O63 1.325 . S
C39 C38 1.347 1_556 S
C39 C41 1.353 . S
C39 H80 0.929 . S
C40 C38 1.357 . S
C40 C42 1.358 . S
C40 H81 0.930 . S
C41 C39 1.353 . S
C41 N43 1.314 . S
C41 H82 0.930 . S
C42 C40 1.358 . S
C42 N43 1.279 1_554 S
C42 H83 0.930 . S
N43 C41 1.314 . S
N43 C42 1.279 1_556 S
C44 C46 1.353 . S
C44 N47 1.314 1_554 S
C44 H50 0.930 . S
C45 N47 1.279 . S
C45 C48 1.358 . S
C45 H51 0.930 . S
C46 C44 1.353 . S
C46 C49 1.349 1_554 S
C46 H84 0.929 . S
N47 Li2 1.990 . S
N47 C44 1.314 1_556 S
N47 C45 1.279 . S
C48 C45 1.358 . S
C48 C49 1.355 . S
C48 H85 0.930 . S
C49 C46 1.349 1_556 S
C49 C48 1.355 . S
H50 C44 0.930 . S
H51 C45 0.930 . S
C52 N53 1.314 . S
C52 C54 1.353 . S
C52 H58 0.930 . S
N53 Li3 1.990 . S
N53 C52 1.314 . S
N53 C56 1.279 . S
C54 C52 1.353 . S
C54 C57 1.348 . S
C54 H86 0.929 . S
C55 C56 1.358 . S
C55 C57 1.356 . S
C55 H87 0.930 . S
C56 N53 1.279 . S
C56 C55 1.358 . S
C56 H59 0.930 . S
C57 C54 1.348 . S
C57 C55 1.356 . S
H58 C52 0.930 . S
H59 C56 0.930 . S
O60 Li0 1.956 . S
O60 Li1 1.970 . S
O60 Li2 1.961 1_554 S
O60 C4 1.325 . S
O61 Li0 1.970 1_556 S
O61 Li1 1.956 1_556 S
O61 Li3 1.961 . S
O61 C10 1.325 . S
O62 Li0 1.961 1_556 S
O62 Li2 1.956 . S
O62 Li3 1.970 . S
O62 C32 1.325 . S
O63 Li1 1.961 . S
O63 Li2 1.970 1_554 S
O63 Li3 1.956 1_554 S
O63 C38 1.325 . S
H64 C6 0.929 . S
H65 C7 0.930 . S
H66 C8 0.930 . S
H67 C9 0.930 . S
H68 C11 0.930 . S
H69 C13 0.929 . S
H70 C14 0.930 . S
H71 C15 0.930 . S
H72 C18 0.930 . S
H73 C21 0.929 . S
H74 C26 0.929 . S
H75 C27 0.930 . S
H76 C34 0.929 . S
H77 C35 0.930 . S
H78 C36 0.930 . S
H79 C37 0.930 . S
H80 C39 0.929 . S
H81 C40 0.930 . S
H82 C41 0.930 . S
H83 C42 0.930 . S
H84 C46 0.929 . S
H85 C48 0.930 . S
H86 C54 0.929 . S
H87 C55 0.930 . S
Li88 N105 1.990 . S
Li88 O148 1.956 . S
Li88 O149 1.970 1_554 S
Li88 O150 1.961 1_554 S
Li89 N113 1.990 . S
Li89 O148 1.970 . S
Li89 O149 1.956 1_554 S
Li89 O151 1.961 . S
Li90 N135 1.990 . S
Li90 O148 1.961 1_556 S
Li90 O150 1.956 . S
Li90 O151 1.970 1_556 S
Li91 N141 1.990 . S
Li91 O149 1.961 . S
Li91 O150 1.970 . S
Li91 O151 1.956 1_556 S
C92 C94 1.348 . S
C92 C95 1.356 . S
C92 O148 1.325 . S
N93 C96 1.314 . S
N93 C97 1.279 . S
C94 C92 1.348 . S
C94 C96 1.353 . S
C94 H152 0.929 . S
C95 C92 1.356 . S
C95 C97 1.358 . S
C95 H153 0.930 . S
C96 N93 1.314 . S
C96 C94 1.353 . S
C96 H154 0.930 . S
C97 N93 1.279 . S
C97 C95 1.358 . S
C97 H155 0.930 . S
C98 C101 1.348 1_556 S
C98 C102 1.356 . S
C98 O149 1.325 . S
C99 N100 1.279 1_556 S
C99 C102 1.358 . S
C99 H156 0.930 . S
N100 C99 1.279 1_554 S
N100 C103 1.314 . S
C101 C98 1.348 1_554 S
C101 C103 1.353 . S
C101 H157 0.929 . S
C102 C98 1.356 . S
C102 C99 1.358 . S
C102 H158 0.930 . S
C103 N100 1.314 . S
C103 C101 1.353 . S
C103 H159 0.930 . S
C104 N105 1.314 1_556 S
C104 C109 1.353 . S
C104 H110 0.930 . S
N105 Li88 1.990 . S
N105 C104 1.314 1_554 S
N105 C107 1.279 . S
C106 C107 1.358 . S
C106 C108 1.359 . S
C106 H160 0.930 . S
C107 N105 1.279 . S
C107 C106 1.358 . S
C107 H111 0.930 . S
C108 C106 1.359 . S
C108 C109 1.345 1_554 S
C109 C104 1.353 . S
C109 C108 1.345 1_556 S
C109 H161 0.929 . S
H110 C104 0.930 . S
H111 C107 0.930 . S
C112 N113 1.314 . S
C112 C114 1.353 . S
C112 H118 0.930 . S
N113 Li89 1.990 . S
N113 C112 1.314 . S
N113 C116 1.279 . S
C114 C112 1.353 . S
C114 C117 1.348 . S
C114 H162 0.929 . S
C115 C116 1.358 . S
C115 C117 1.356 . S
C115 H163 0.930 . S
C116 N113 1.279 . S
C116 C115 1.358 . S
C116 H119 0.930 . S
C117 C114 1.348 . S
C117 C115 1.356 . S
H118 C112 0.930 . S
H119 C116 0.930 . S
C120 C122 1.348 . S
C120 C123 1.356 . S
C120 O150 1.325 . S
N121 C124 1.314 . S
N121 C125 1.279 . S
C122 C120 1.348 . S
C122 C124 1.353 . S
C122 H164 0.929 . S
C123 C120 1.356 . S
C123 C125 1.358 . S
C123 H165 0.930 . S
C124 N121 1.314 . S
C124 C122 1.353 . S
C124 H166 0.930 . S
C125 N121 1.279 . S
C125 C123 1.358 . S
C125 H167 0.930 . S
C126 C127 1.347 1_554 S
C126 C128 1.357 . S
C126 O151 1.325 . S
C127 C126 1.347 1_556 S
C127 C129 1.353 . S
C127 H168 0.929 . S
C128 C126 1.357 . S
C128 C130 1.358 . S
C128 H169 0.930 . S
C129 C127 1.353 . S
C129 N131 1.314 . S
C129 H170 0.930 . S
C130 C128 1.358 . S
C130 N131 1.279 1_554 S
C130 H171 0.930 . S
N131 C129 1.314 . S
N131 C130 1.279 1_556 S
C132 C134 1.353 . S
C132 N135 1.314 1_554 S
C132 H138 0.930 . S
C133 N135 1.279 . S
C133 C136 1.358 . S
C133 H139 0.930 . S
C134 C132 1.353 . S
C134 C137 1.349 1_554 S
C134 H172 0.929 . S
N135 Li90 1.990 . S
N135 C132 1.314 1_556 S
N135 C133 1.279 . S
C136 C133 1.358 . S
C136 C137 1.355 . S
C136 H173 0.930 . S
C137 C134 1.349 1_556 S
C137 C136 1.355 . S
H138 C132 0.930 . S
H139 C133 0.930 . S
C140 N141 1.314 . S
C140 C142 1.353 . S
C140 H146 0.930 . S
N141 Li91 1.990 . S
N141 C140 1.314 . S
N141 C144 1.279 . S
C142 C140 1.353 . S
C142 C145 1.348 . S
C142 H174 0.929 . S
C143 C144 1.358 . S
C143 C145 1.356 . S
C143 H175 0.930 . S
C144 N141 1.279 . S
C144 C143 1.358 . S
C144 H147 0.930 . S
C145 C142 1.348 . S
C145 C143 1.356 . S
H146 C140 0.930 . S
H147 C144 0.930 . S
O148 Li88 1.956 . S
O148 Li89 1.970 . S
O148 Li90 1.961 1_554 S
O148 C92 1.325 . S
O149 Li88 1.970 1_556 S
O149 Li89 1.956 1_556 S
O149 Li91 1.961 . S
O149 C98 1.325 . S
O150 Li88 1.961 1_556 S
O150 Li90 1.956 . S
O150 Li91 1.970 . S
O150 C120 1.325 . S
O151 Li89 1.961 . S
O151 Li90 1.970 1_554 S
O151 Li91 1.956 1_554 S
O151 C126 1.325 . S
H152 C94 0.929 . S
H153 C95 0.930 . S
H154 C96 0.930 . S
H155 C97 0.930 . S
H156 C99 0.930 . S
H157 C101 0.929 . S
H158 C102 0.930 . S
H159 C103 0.930 . S
H160 C106 0.930 . S
H161 C109 0.929 . S
H162 C114 0.929 . S
H163 C115 0.930 . S
H164 C122 0.929 . S
H165 C123 0.930 . S
H166 C124 0.930 . S
H167 C125 0.930 . S
H168 C127 0.929 . S
H169 C128 0.930 . S
H170 C129 0.930 . S
H171 C130 0.930 . S
H172 C134 0.929 . S
H173 C136 0.930 . S
H174 C142 0.929 . S
H175 C143 0.930 . S
Li176 N193 1.990 . S
Li176 O236 1.956 1_554 S
Li176 O237 1.970 . S
Li176 O238 1.961 . S
Li177 N201 1.990 . S
Li177 O236 1.970 1_554 S
Li177 O237 1.956 . S
Li177 O239 1.961 1_554 S
Li178 N223 1.990 . S
Li178 O236 1.961 . S
Li178 O238 1.956 1_556 S
Li178 O239 1.970 . S
Li179 N229 1.990 . S
Li179 O237 1.961 1_556 S
Li179 O238 1.970 1_556 S
Li179 O239 1.956 . S
C180 C182 1.348 1_556 S
C180 C183 1.356 . S
C180 O236 1.325 . S
N181 C184 1.314 . S
N181 C185 1.279 1_554 S
C182 C180 1.348 1_554 S
C182 C184 1.353 . S
C182 H240 0.929 . S
C183 C180 1.356 . S
C183 C185 1.358 . S
C183 H241 0.930 . S
C184 N181 1.314 . S
C184 C182 1.353 . S
C184 H242 0.930 . S
C185 N181 1.279 1_556 S
C185 C183 1.358 . S
C185 H243 0.930 . S
C186 C189 1.348 . S
C186 C190 1.356 . S
C186 O237 1.325 . S
C187 N188 1.279 . S
C187 C190 1.358 . S
C187 H244 0.930 . S
N188 C187 1.279 . S
N188 C191 1.314 . S
C189 C186 1.348 . S
C189 C191 1.353 . S
C189 H245 0.929 . S
C190 C186 1.356 . S
C190 C187 1.358 . S
C190 H246 0.930 . S
C191 N188 1.314 . S
C191 C189 1.353 . S
C191 H247 0.930 . S
C192 N193 1.314 . S
C192 C197 1.353 . S
C192 H198 0.930 . S
N193 Li176 1.990 . S
N193 C192 1.314 . S
N193 C195 1.279 . S
C194 C195 1.358 . S
C194 C196 1.356 . S
C194 H248 0.930 . S
C195 N193 1.279 . S
C195 C194 1.358 . S
C195 H199 0.930 . S
C196 C194 1.356 . S
C196 C197 1.348 . S
C197 C192 1.353 . S
C197 C196 1.348 . S
C197 H249 0.929 . S
H198 C192 0.930 . S
H199 C195 0.930 . S
C200 N201 1.314 1_556 S
C200 C202 1.353 . S
C200 H206 0.930 . S
N201 Li177 1.990 . S
N201 C200 1.314 1_554 S
N201 C204 1.279 . S
C202 C200 1.353 . S
C202 C205 1.345 1_556 S
C202 H250 0.929 . S
C203 C204 1.358 . S
C203 C205 1.359 . S
C203 H251 0.930 . S
C204 N201 1.279 . S
C204 C203 1.358 . S
C204 H207 0.930 . S
C205 C202 1.345 1_554 S
C205 C203 1.359 . S
H206 C200 0.930 . S
H207 C204 0.930 . S
C208 C210 1.347 1_554 S
C208 C211 1.357 . S
C208 O238 1.325 . S
N209 C212 1.314 . S
N209 C213 1.279 1_556 S
C210 C208 1.347 1_556 S
C210 C212 1.353 . S
C210 H252 0.929 . S
C211 C208 1.357 . S
C211 C213 1.358 . S
C211 H253 0.930 . S
C212 N209 1.314 . S
C212 C210 1.353 . S
C212 H254 0.930 . S
C213 N209 1.279 1_554 S
C213 C211 1.358 . S
C213 H255 0.930 . S
C214 C215 1.348 . S
C214 C216 1.356 . S
C214 O239 1.325 . S
C215 C214 1.348 . S
C215 C217 1.353 . S
C215 H256 0.929 . S
C216 C214 1.356 . S
C216 C218 1.358 . S
C216 H257 0.930 . S
C217 C215 1.353 . S
C217 N219 1.314 . S
C217 H258 0.930 . S
C218 C216 1.358 . S
C218 N219 1.279 . S
C218 H259 0.930 . S
N219 C217 1.314 . S
N219 C218 1.279 . S
C220 C222 1.353 . S
C220 N223 1.314 . S
C220 H226 0.930 . S
C221 N223 1.279 . S
C221 C224 1.358 . S
C221 H227 0.930 . S
C222 C220 1.353 . S
C222 C225 1.348 . S
C222 H260 0.929 . S
N223 Li178 1.990 . S
N223 C220 1.314 . S
N223 C221 1.279 . S
C224 C221 1.358 . S
C224 C225 1.356 . S
C224 H261 0.930 . S
C225 C222 1.348 . S
C225 C224 1.356 . S
H226 C220 0.930 . S
H227 C221 0.930 . S
C228 N229 1.314 1_554 S
C228 C230 1.353 . S
C228 H234 0.930 . S
N229 Li179 1.990 . S
N229 C228 1.314 1_556 S
N229 C232 1.279 . S
C230 C228 1.353 . S
C230 C233 1.349 1_554 S
C230 H262 0.929 . S
C231 C232 1.358 . S
C231 C233 1.355 . S
C231 H263 0.930 . S
C232 N229 1.279 . S
C232 C231 1.358 . S
C232 H235 0.930 . S
C233 C230 1.349 1_556 S
C233 C231 1.355 . S
H234 C228 0.930 . S
H235 C232 0.930 . S
O236 Li176 1.956 1_556 S
O236 Li177 1.970 1_556 S
O236 Li178 1.961 . S
O236 C180 1.325 . S
O237 Li176 1.970 . S
O237 Li177 1.956 . S
O237 Li179 1.961 1_554 S
O237 C186 1.325 . S
O238 Li176 1.961 . S
O238 Li178 1.956 1_554 S
O238 Li179 1.970 1_554 S
O238 C208 1.325 . S
O239 Li177 1.961 1_556 S
O239 Li178 1.970 . S
O239 Li179 1.956 . S
O239 C214 1.325 . S
H240 C182 0.929 . S
H241 C183 0.930 . S
H242 C184 0.930 . S
H243 C185 0.930 . S
H244 C187 0.930 . S
H245 C189 0.929 . S
H246 C190 0.930 . S
H247 C191 0.930 . S
H248 C194 0.930 . S
H249 C197 0.929 . S
H250 C202 0.929 . S
H251 C203 0.930 . S
H252 C210 0.929 . S
H253 C211 0.930 . S
H254 C212 0.930 . S
H255 C213 0.930 . S
H256 C215 0.929 . S
H257 C216 0.930 . S
H258 C217 0.930 . S
H259 C218 0.930 . S
H260 C222 0.929 . S
H261 C224 0.930 . S
H262 C230 0.929 . S
H263 C231 0.930 . S
Li264 N281 1.990 . S
Li264 O324 1.956 1_554 S
Li264 O325 1.970 . S
Li264 O326 1.961 . S
Li265 N289 1.990 . S
Li265 O324 1.970 1_554 S
Li265 O325 1.956 . S
Li265 O327 1.961 1_554 S
Li266 N311 1.990 . S
Li266 O324 1.961 . S
Li266 O326 1.956 1_556 S
Li266 O327 1.970 . S
Li267 N317 1.990 . S
Li267 O325 1.961 1_556 S
Li267 O326 1.970 1_556 S
Li267 O327 1.956 . S
C268 C270 1.348 1_556 S
C268 C271 1.356 . S
C268 O324 1.325 . S
N269 C272 1.314 . S
N269 C273 1.279 1_554 S
C270 C268 1.348 1_554 S
C270 C272 1.353 . S
C270 H328 0.929 . S
C271 C268 1.356 . S
C271 C273 1.358 . S
C271 H329 0.930 . S
C272 N269 1.314 . S
C272 C270 1.353 . S
C272 H330 0.930 . S
C273 N269 1.279 1_556 S
C273 C271 1.358 . S
C273 H331 0.930 . S
C274 C277 1.348 . S
C274 C278 1.356 . S
C274 O325 1.325 . S
C275 N276 1.279 . S
C275 C278 1.358 . S
C275 H332 0.930 . S
N276 C275 1.279 . S
N276 C279 1.314 . S
C277 C274 1.348 . S
C277 C279 1.353 . S
C277 H333 0.929 . S
C278 C274 1.356 . S
C278 C275 1.358 . S
C278 H334 0.930 . S
C279 N276 1.314 . S
C279 C277 1.353 . S
C279 H335 0.930 . S
C280 N281 1.314 . S
C280 C285 1.353 . S
C280 H286 0.930 . S
N281 Li264 1.990 . S
N281 C280 1.314 . S
N281 C283 1.279 . S
C282 C283 1.358 . S
C282 C284 1.356 . S
C282 H336 0.930 . S
C283 N281 1.279 . S
C283 C282 1.358 . S
C283 H287 0.930 . S
C284 C282 1.356 . S
C284 C285 1.348 . S
C285 C280 1.353 . S
C285 C284 1.348 . S
C285 H337 0.929 . S
H286 C280 0.930 . S
H287 C283 0.930 . S
C288 N289 1.314 1_556 S
C288 C290 1.353 . S
C288 H294 0.930 . S
N289 Li265 1.990 . S
N289 C288 1.314 1_554 S
N289 C292 1.279 . S
C290 C288 1.353 . S
C290 C293 1.345 1_556 S
C290 H338 0.929 . S
C291 C292 1.358 . S
C291 C293 1.359 . S
C291 H339 0.930 . S
C292 N289 1.279 . S
C292 C291 1.358 . S
C292 H295 0.930 . S
C293 C290 1.345 1_554 S
C293 C291 1.359 . S
H294 C288 0.930 . S
H295 C292 0.930 . S
C296 C298 1.347 1_554 S
C296 C299 1.357 . S
C296 O326 1.325 . S
N297 C300 1.314 . S
N297 C301 1.279 1_556 S
C298 C296 1.347 1_556 S
C298 C300 1.353 . S
C298 H340 0.929 . S
C299 C296 1.357 . S
C299 C301 1.358 . S
C299 H341 0.930 . S
C300 N297 1.314 . S
C300 C298 1.353 . S
C300 H342 0.930 . S
C301 N297 1.279 1_554 S
C301 C299 1.358 . S
C301 H343 0.930 . S
C302 C303 1.348 . S
C302 C304 1.356 . S
C302 O327 1.325 . S
C303 C302 1.348 . S
C303 C305 1.353 . S
C303 H344 0.929 . S
C304 C302 1.356 . S
C304 C306 1.358 . S
C304 H345 0.930 . S
C305 C303 1.353 . S
C305 N307 1.314 . S
C305 H346 0.930 . S
C306 C304 1.358 . S
C306 N307 1.279 . S
C306 H347 0.930 . S
N307 C305 1.314 . S
N307 C306 1.279 . S
C308 C310 1.353 . S
C308 N311 1.314 . S
C308 H314 0.930 . S
C309 N311 1.279 . S
C309 C312 1.358 . S
C309 H315 0.930 . S
C310 C308 1.353 . S
C310 C313 1.348 . S
C310 H348 0.929 . S
N311 Li266 1.990 . S
N311 C308 1.314 . S
N311 C309 1.279 . S
C312 C309 1.358 . S
C312 C313 1.356 . S
C312 H349 0.930 . S
C313 C310 1.348 . S
C313 C312 1.356 . S
H314 C308 0.930 . S
H315 C309 0.930 . S
C316 N317 1.314 1_554 S
C316 C318 1.353 . S
C316 H322 0.930 . S
N317 Li267 1.990 . S
N317 C316 1.314 1_556 S
N317 C320 1.279 . S
C318 C316 1.353 . S
C318 C321 1.349 1_554 S
C318 H350 0.929 . S
C319 C320 1.358 . S
C319 C321 1.355 . S
C319 H351 0.930 . S
C320 N317 1.279 . S
C320 C319 1.358 . S
C320 H323 0.930 . S
C321 C318 1.349 1_556 S
C321 C319 1.355 . S
H322 C316 0.930 . S
H323 C320 0.930 . S
O324 Li264 1.956 1_556 S
O324 Li265 1.970 1_556 S
O324 Li266 1.961 . S
O324 C268 1.325 . S
O325 Li264 1.970 . S
O325 Li265 1.956 . S
O325 Li267 1.961 1_554 S
O325 C274 1.325 . S
O326 Li264 1.961 . S
O326 Li266 1.956 1_554 S
O326 Li267 1.970 1_554 S
O326 C296 1.325 . S
O327 Li265 1.961 1_556 S
O327 Li266 1.970 . S
O327 Li267 1.956 . S
O327 C302 1.325 . S
H328 C270 0.929 . S
H329 C271 0.930 . S
H330 C272 0.930 . S
H331 C273 0.930 . S
H332 C275 0.930 . S
H333 C277 0.929 . S
H334 C278 0.930 . S
H335 C279 0.930 . S
H336 C282 0.930 . S
H337 C285 0.929 . S
H338 C290 0.929 . S
H339 C291 0.930 . S
H340 C298 0.929 . S
H341 C299 0.930 . S
H342 C300 0.930 . S
H343 C301 0.930 . S
H344 C303 0.929 . S
H345 C304 0.930 . S
H346 C305 0.930 . S
H347 C306 0.930 . S
H348 C310 0.929 . S
H349 C312 0.930 . S
H350 C318 0.929 . S
H351 C319 0.930 . S
Li352 N369 1.990 . S
Li352 O412 1.956 1_554 S
Li352 O413 1.970 . S
Li352 O414 1.961 . S
Li353 N377 1.990 . S
Li353 O412 1.970 1_554 S
Li353 O413 1.956 . S
Li353 O415 1.961 1_554 S
Li354 N399 1.990 . S
Li354 O412 1.961 . S
Li354 O414 1.956 1_556 S
Li354 O415 1.970 . S
Li355 N405 1.990 . S
Li355 O413 1.961 1_556 S
Li355 O414 1.970 1_556 S
Li355 O415 1.956 . S
C356 C358 1.348 1_556 S
C356 C359 1.356 . S
C356 O412 1.325 . S
N357 C360 1.314 . S
N357 C361 1.279 1_554 S
C358 C356 1.348 1_554 S
C358 C360 1.353 . S
C358 H416 0.929 . S
C359 C356 1.356 . S
C359 C361 1.358 . S
C359 H417 0.930 . S
C360 N357 1.314 . S
C360 C358 1.353 . S
C360 H418 0.930 . S
C361 N357 1.279 1_556 S
C361 C359 1.358 . S
C361 H419 0.930 . S
C362 C365 1.348 . S
C362 C366 1.356 . S
C362 O413 1.325 . S
C363 N364 1.279 . S
C363 C366 1.358 . S
C363 H420 0.930 . S
N364 C363 1.279 . S
N364 C367 1.314 . S
C365 C362 1.348 . S
C365 C367 1.353 . S
C365 H421 0.929 . S
C366 C362 1.356 . S
C366 C363 1.358 . S
C366 H422 0.930 . S
C367 N364 1.314 . S
C367 C365 1.353 . S
C367 H423 0.930 . S
C368 N369 1.314 . S
C368 C373 1.353 . S
C368 H374 0.930 . S
N369 Li352 1.990 . S
N369 C368 1.314 . S
N369 C371 1.279 . S
C370 C371 1.358 . S
C370 C372 1.356 . S
C370 H424 0.930 . S
C371 N369 1.279 . S
C371 C370 1.358 . S
C371 H375 0.930 . S
C372 C370 1.356 . S
C372 C373 1.348 . S
C373 C368 1.353 . S
C373 C372 1.348 . S
C373 H425 0.929 . S
H374 C368 0.930 . S
H375 C371 0.930 . S
C376 N377 1.314 1_556 S
C376 C378 1.353 . S
C376 H382 0.930 . S
N377 Li353 1.990 . S
N377 C376 1.314 1_554 S
N377 C380 1.279 . S
C378 C376 1.353 . S
C378 C381 1.345 1_556 S
C378 H426 0.929 . S
C379 C380 1.358 . S
C379 C381 1.359 . S
C379 H427 0.930 . S
C380 N377 1.279 . S
C380 C379 1.358 . S
C380 H383 0.930 . S
C381 C378 1.345 1_554 S
C381 C379 1.359 . S
H382 C376 0.930 . S
H383 C380 0.930 . S
C384 C386 1.346 1_554 S
C384 C387 1.357 . S
C384 O414 1.325 . S
N385 C388 1.314 . S
N385 C389 1.279 1_556 S
C386 C384 1.346 1_556 S
C386 C388 1.353 . S
C386 H428 0.929 . S
C387 C384 1.357 . S
C387 C389 1.358 . S
C387 H429 0.930 . S
C388 N385 1.314 . S
C388 C386 1.353 . S
C388 H430 0.930 . S
C389 N385 1.279 1_554 S
C389 C387 1.358 . S
C389 H431 0.930 . S
C390 C391 1.348 . S
C390 C392 1.356 . S
C390 O415 1.325 . S
C391 C390 1.348 . S
C391 C393 1.353 . S
C391 H432 0.929 . S
C392 C390 1.356 . S
C392 C394 1.358 . S
C392 H433 0.930 . S
C393 C391 1.353 . S
C393 N395 1.314 . S
C393 H434 0.930 . S
C394 C392 1.358 . S
C394 N395 1.279 . S
C394 H435 0.930 . S
N395 C393 1.314 . S
N395 C394 1.279 . S
C396 C398 1.353 . S
C396 N399 1.314 . S
C396 H402 0.930 . S
C397 N399 1.279 . S
C397 C400 1.358 . S
C397 H403 0.930 . S
C398 C396 1.353 . S
C398 C401 1.348 . S
C398 H436 0.929 . S
N399 Li354 1.990 . S
N399 C396 1.314 . S
N399 C397 1.279 . S
C400 C397 1.358 . S
C400 C401 1.356 . S
C400 H437 0.930 . S
C401 C398 1.348 . S
C401 C400 1.356 . S
H402 C396 0.930 . S
H403 C397 0.930 . S
C404 N405 1.314 1_554 S
C404 C406 1.353 . S
C404 H410 0.930 . S
N405 Li355 1.990 . S
N405 C404 1.314 1_556 S
N405 C408 1.279 . S
C406 C404 1.353 . S
C406 C409 1.349 1_554 S
C406 H438 0.929 . S
C407 C408 1.358 . S
C407 C409 1.355 . S
C407 H439 0.930 . S
C408 N405 1.279 . S
C408 C407 1.358 . S
C408 H411 0.930 . S
C409 C406 1.349 1_556 S
C409 C407 1.355 . S
H410 C404 0.930 . S
H411 C408 0.930 . S
O412 Li352 1.956 1_556 S
O412 Li353 1.970 1_556 S
O412 Li354 1.961 . S
O412 C356 1.325 . S
O413 Li352 1.970 . S
O413 Li353 1.956 . S
O413 Li355 1.961 1_554 S
O413 C362 1.325 . S
O414 Li352 1.961 . S
O414 Li354 1.956 1_554 S
O414 Li355 1.970 1_554 S
O414 C384 1.325 . S
O415 Li353 1.961 1_556 S
O415 Li354 1.970 . S
O415 Li355 1.956 . S
O415 C390 1.325 . S
H416 C358 0.929 . S
H417 C359 0.930 . S
H418 C360 0.930 . S
H419 C361 0.930 . S
H420 C363 0.930 . S
H421 C365 0.929 . S
H422 C366 0.930 . S
H423 C367 0.930 . S
H424 C370 0.930 . S
H425 C373 0.929 . S
H426 C378 0.929 . S
H427 C379 0.930 . S
H428 C386 0.929 . S
H429 C387 0.930 . S
H430 C388 0.930 . S
H431 C389 0.930 . S
H432 C391 0.929 . S
H433 C392 0.930 . S
H434 C393 0.930 . S
H435 C394 0.930 . S
H436 C398 0.929 . S
H437 C400 0.930 . S
H438 C406 0.929 . S
H439 C407 0.930 . S
Li440 N457 1.990 . S
Li440 O500 1.956 . S
Li440 O501 1.970 1_554 S
Li440 O502 1.961 1_554 S
Li441 N465 1.990 . S
Li441 O500 1.970 . S
Li441 O501 1.956 1_554 S
Li441 O503 1.961 . S
Li442 N487 1.990 . S
Li442 O500 1.961 1_556 S
Li442 O502 1.956 . S
Li442 O503 1.970 1_556 S
Li443 N493 1.990 . S
Li443 O501 1.961 . S
Li443 O502 1.970 . S
Li443 O503 1.956 1_556 S
C444 C446 1.348 . S
C444 C447 1.356 . S
C444 O500 1.325 . S
N445 C448 1.314 . S
N445 C449 1.279 . S
C446 C444 1.348 . S
C446 C448 1.353 . S
C446 H504 0.929 . S
C447 C444 1.356 . S
C447 C449 1.358 . S
C447 H505 0.930 . S
C448 N445 1.314 . S
C448 C446 1.353 . S
C448 H506 0.930 . S
C449 N445 1.279 . S
C449 C447 1.358 . S
C449 H507 0.930 . S
C450 C453 1.348 1_556 S
C450 C454 1.356 . S
C450 O501 1.325 . S
C451 N452 1.279 1_556 S
C451 C454 1.358 . S
C451 H508 0.930 . S
N452 C451 1.279 1_554 S
N452 C455 1.314 . S
C453 C450 1.348 1_554 S
C453 C455 1.353 . S
C453 H509 0.929 . S
C454 C450 1.356 . S
C454 C451 1.358 . S
C454 H510 0.930 . S
C455 N452 1.314 . S
C455 C453 1.353 . S
C455 H511 0.930 . S
C456 N457 1.314 1_556 S
C456 C461 1.353 . S
C456 H462 0.930 . S
N457 Li440 1.990 . S
N457 C456 1.314 1_554 S
N457 C459 1.279 . S
C458 C459 1.358 . S
C458 C460 1.359 . S
C458 H512 0.930 . S
C459 N457 1.279 . S
C459 C458 1.358 . S
C459 H463 0.930 . S
C460 C458 1.359 . S
C460 C461 1.345 1_554 S
C461 C456 1.353 . S
C461 C460 1.345 1_556 S
C461 H513 0.929 . S
H462 C456 0.930 . S
H463 C459 0.930 . S
C464 N465 1.314 . S
C464 C466 1.353 . S
C464 H470 0.930 . S
N465 Li441 1.990 . S
N465 C464 1.314 . S
N465 C468 1.279 . S
C466 C464 1.353 . S
C466 C469 1.348 . S
C466 H514 0.929 . S
C467 C468 1.358 . S
C467 C469 1.356 . S
C467 H515 0.930 . S
C468 N465 1.279 . S
C468 C467 1.358 . S
C468 H471 0.930 . S
C469 C466 1.348 . S
C469 C467 1.356 . S
H470 C464 0.930 . S
H471 C468 0.930 . S
C472 C474 1.348 . S
C472 C475 1.356 . S
C472 O502 1.325 . S
N473 C476 1.314 . S
N473 C477 1.279 . S
C474 C472 1.348 . S
C474 C476 1.353 . S
C474 H516 0.929 . S
C475 C472 1.356 . S
C475 C477 1.358 . S
C475 H517 0.930 . S
C476 N473 1.314 . S
C476 C474 1.353 . S
C476 H518 0.930 . S
C477 N473 1.279 . S
C477 C475 1.358 . S
C477 H519 0.930 . S
C478 C479 1.346 1_554 S
C478 C480 1.357 . S
C478 O503 1.325 . S
C479 C478 1.346 1_556 S
C479 C481 1.353 . S
C479 H520 0.929 . S
C480 C478 1.357 . S
C480 C482 1.358 . S
C480 H521 0.930 . S
C481 C479 1.353 . S
C481 N483 1.314 . S
C481 H522 0.930 . S
C482 C480 1.358 . S
C482 N483 1.279 1_554 S
C482 H523 0.930 . S
N483 C481 1.314 . S
N483 C482 1.279 1_556 S
C484 C486 1.353 . S
C484 N487 1.314 1_554 S
C484 H490 0.930 . S
C485 N487 1.279 . S
C485 C488 1.358 . S
C485 H491 0.930 . S
C486 C484 1.353 . S
C486 C489 1.349 1_554 S
C486 H524 0.929 . S
N487 Li442 1.990 . S
N487 C484 1.314 1_556 S
N487 C485 1.279 . S
C488 C485 1.358 . S
C488 C489 1.355 . S
C488 H525 0.930 . S
C489 C486 1.349 1_556 S
C489 C488 1.355 . S
H490 C484 0.930 . S
H491 C485 0.930 . S
C492 N493 1.314 . S
C492 C494 1.353 . S
C492 H498 0.930 . S
N493 Li443 1.990 . S
N493 C492 1.314 . S
N493 C496 1.279 . S
C494 C492 1.353 . S
C494 C497 1.348 . S
C494 H526 0.929 . S
C495 C496 1.358 . S
C495 C497 1.356 . S
C495 H527 0.930 . S
C496 N493 1.279 . S
C496 C495 1.358 . S
C496 H499 0.930 . S
C497 C494 1.348 . S
C497 C495 1.356 . S
H498 C492 0.930 . S
H499 C496 0.930 . S
O500 Li440 1.956 . S
O500 Li441 1.970 . S
O500 Li442 1.961 1_554 S
O500 C444 1.325 . S
O501 Li440 1.970 1_556 S
O501 Li441 1.956 1_556 S
O501 Li443 1.961 . S
O501 C450 1.325 . S
O502 Li440 1.961 1_556 S
O502 Li442 1.956 . S
O502 Li443 1.970 . S
O502 C472 1.325 . S
O503 Li441 1.961 . S
O503 Li442 1.970 1_554 S
O503 Li443 1.956 1_554 S
O503 C478 1.325 . S
H504 C446 0.929 . S
H505 C447 0.930 . S
H506 C448 0.930 . S
H507 C449 0.930 . S
H508 C451 0.930 . S
H509 C453 0.929 . S
H510 C454 0.930 . S
H511 C455 0.930 . S
H512 C458 0.930 . S
H513 C461 0.929 . S
H514 C466 0.929 . S
H515 C467 0.930 . S
H516 C474 0.929 . S
H517 C475 0.930 . S
H518 C476 0.930 . S
H519 C477 0.930 . S
H520 C479 0.929 . S
H521 C480 0.930 . S
H522 C481 0.930 . S
H523 C482 0.930 . S
H524 C486 0.929 . S
H525 C488 0.930 . S
H526 C494 0.929 . S
H527 C495 0.930 . S
Li528 N545 1.990 . S
Li528 O588 1.956 1_554 S
Li528 O589 1.970 . S
Li528 O590 1.961 . S
Li529 N553 1.990 . S
Li529 O588 1.970 1_554 S
Li529 O589 1.956 . S
Li529 O591 1.961 1_554 S
Li530 N575 1.990 . S
Li530 O588 1.961 . S
Li530 O590 1.956 1_556 S
Li530 O591 1.970 . S
Li531 N581 1.990 . S
Li531 O589 1.961 1_556 S
Li531 O590 1.970 1_556 S
Li531 O591 1.956 . S
C532 C534 1.348 1_556 S
C532 C535 1.356 . S
C532 O588 1.325 . S
N533 C536 1.314 . S
N533 C537 1.279 1_554 S
C534 C532 1.348 1_554 S
C534 C536 1.353 . S
C534 H592 0.929 . S
C535 C532 1.356 . S
C535 C537 1.358 . S
C535 H593 0.930 . S
C536 N533 1.314 . S
C536 C534 1.353 . S
C536 H594 0.930 . S
C537 N533 1.279 1_556 S
C537 C535 1.358 . S
C537 H595 0.930 . S
C538 C541 1.348 . S
C538 C542 1.356 . S
C538 O589 1.325 . S
C539 N540 1.279 . S
C539 C542 1.358 . S
C539 H596 0.930 . S
N540 C539 1.279 . S
N540 C543 1.314 . S
C541 C538 1.348 . S
C541 C543 1.353 . S
C541 H597 0.929 . S
C542 C538 1.356 . S
C542 C539 1.358 . S
C542 H598 0.930 . S
C543 N540 1.314 . S
C543 C541 1.353 . S
C543 H599 0.930 . S
C544 N545 1.314 . S
C544 C549 1.353 . S
C544 H550 0.930 . S
N545 Li528 1.990 . S
N545 C544 1.314 . S
N545 C547 1.279 . S
C546 C547 1.358 . S
C546 C548 1.356 . S
C546 H600 0.930 . S
C547 N545 1.279 . S
C547 C546 1.358 . S
C547 H551 0.930 . S
C548 C546 1.356 . S
C548 C549 1.348 . S
C549 C544 1.353 . S
C549 C548 1.348 . S
C549 H601 0.929 . S
H550 C544 0.930 . S
H551 C547 0.930 . S
C552 N553 1.314 1_556 S
C552 C554 1.353 . S
C552 H558 0.930 . S
N553 Li529 1.990 . S
N553 C552 1.314 1_554 S
N553 C556 1.279 . S
C554 C552 1.353 . S
C554 C557 1.345 1_556 S
C554 H602 0.929 . S
C555 C556 1.358 . S
C555 C557 1.359 . S
C555 H603 0.930 . S
C556 N553 1.279 . S
C556 C555 1.358 . S
C556 H559 0.930 . S
C557 C554 1.345 1_554 S
C557 C555 1.359 . S
H558 C552 0.930 . S
H559 C556 0.930 . S
C560 C562 1.346 1_554 S
C560 C563 1.357 . S
C560 O590 1.325 . S
N561 C564 1.314 . S
N561 C565 1.279 1_556 S
C562 C560 1.346 1_556 S
C562 C564 1.353 . S
C562 H604 0.929 . S
C563 C560 1.357 . S
C563 C565 1.358 . S
C563 H605 0.930 . S
C564 N561 1.314 . S
C564 C562 1.353 . S
C564 H606 0.930 . S
C565 N561 1.279 1_554 S
C565 C563 1.358 . S
C565 H607 0.930 . S
C566 C567 1.348 . S
C566 C568 1.356 . S
C566 O591 1.325 . S
C567 C566 1.348 . S
C567 C569 1.353 . S
C567 H608 0.929 . S
C568 C566 1.356 . S
C568 C570 1.358 . S
C568 H609 0.930 . S
C569 C567 1.353 . S
C569 N571 1.314 . S
C569 H610 0.930 . S
C570 C568 1.358 . S
C570 N571 1.279 . S
C570 H611 0.930 . S
N571 C569 1.314 . S
N571 C570 1.279 . S
C572 C574 1.353 . S
C572 N575 1.314 . S
C572 H578 0.930 . S
C573 N575 1.279 . S
C573 C576 1.358 . S
C573 H579 0.930 . S
C574 C572 1.353 . S
C574 C577 1.348 . S
C574 H612 0.929 . S
N575 Li530 1.990 . S
N575 C572 1.314 . S
N575 C573 1.279 . S
C576 C573 1.358 . S
C576 C577 1.356 . S
C576 H613 0.930 . S
C577 C574 1.348 . S
C577 C576 1.356 . S
H578 C572 0.930 . S
H579 C573 0.930 . S
C580 N581 1.314 1_554 S
C580 C582 1.353 . S
C580 H586 0.930 . S
N581 Li531 1.990 . S
N581 C580 1.314 1_556 S
N581 C584 1.279 . S
C582 C580 1.353 . S
C582 C585 1.349 1_554 S
C582 H614 0.929 . S
C583 C584 1.358 . S
C583 C585 1.355 . S
C583 H615 0.930 . S
C584 N581 1.279 . S
C584 C583 1.358 . S
C584 H587 0.930 . S
C585 C582 1.349 1_556 S
C585 C583 1.355 . S
H586 C580 0.930 . S
H587 C584 0.930 . S
O588 Li528 1.956 1_556 S
O588 Li529 1.970 1_556 S
O588 Li530 1.961 . S
O588 C532 1.325 . S
O589 Li528 1.970 . S
O589 Li529 1.956 . S
O589 Li531 1.961 1_554 S
O589 C538 1.325 . S
O590 Li528 1.961 . S
O590 Li530 1.956 1_554 S
O590 Li531 1.970 1_554 S
O590 C560 1.325 . S
O591 Li529 1.961 1_556 S
O591 Li530 1.970 . S
O591 Li531 1.956 . S
O591 C566 1.325 . S
H592 C534 0.929 . S
H593 C535 0.930 . S
H594 C536 0.930 . S
H595 C537 0.930 . S
H596 C539 0.930 . S
H597 C541 0.929 . S
H598 C542 0.930 . S
H599 C543 0.930 . S
H600 C546 0.930 . S
H601 C549 0.929 . S
H602 C554 0.929 . S
H603 C555 0.930 . S
H604 C562 0.929 . S
H605 C563 0.930 . S
H606 C564 0.930 . S
H607 C565 0.930 . S
H608 C567 0.929 . S
H609 C568 0.930 . S
H610 C569 0.930 . S
H611 C570 0.930 . S
H612 C574 0.929 . S
H613 C576 0.930 . S
H614 C582 0.929 . S
H615 C583 0.930 . S
Li616 N633 1.990 . S
Li616 O676 1.956 1_554 S
Li616 O677 1.970 . S
Li616 O678 1.961 . S
Li617 N641 1.990 . S
Li617 O676 1.970 1_554 S
Li617 O677 1.956 . S
Li617 O679 1.961 1_554 S
Li618 N663 1.990 . S
Li618 O676 1.961 . S
Li618 O678 1.956 1_556 S
Li618 O679 1.970 . S
Li619 N669 1.990 . S
Li619 O677 1.961 1_556 S
Li619 O678 1.970 1_556 S
Li619 O679 1.956 . S
C620 C622 1.348 1_556 S
C620 C623 1.356 . S
C620 O676 1.325 . S
N621 C624 1.314 . S
N621 C625 1.279 1_554 S
C622 C620 1.348 1_554 S
C622 C624 1.353 . S
C622 H680 0.929 . S
C623 C620 1.356 . S
C623 C625 1.358 . S
C623 H681 0.930 . S
C624 N621 1.314 . S
C624 C622 1.353 . S
C624 H682 0.930 . S
C625 N621 1.279 1_556 S
C625 C623 1.358 . S
C625 H683 0.930 . S
C626 C629 1.348 . S
C626 C630 1.356 . S
C626 O677 1.325 . S
C627 N628 1.279 . S
C627 C630 1.358 . S
C627 H684 0.930 . S
N628 C627 1.279 . S
N628 C631 1.314 . S
C629 C626 1.348 . S
C629 C631 1.353 . S
C629 H685 0.929 . S
C630 C626 1.356 . S
C630 C627 1.358 . S
C630 H686 0.930 . S
C631 N628 1.314 . S
C631 C629 1.353 . S
C631 H687 0.930 . S
C632 N633 1.314 . S
C632 C637 1.353 . S
C632 H638 0.930 . S
N633 Li616 1.990 . S
N633 C632 1.314 . S
N633 C635 1.279 . S
C634 C635 1.358 . S
C634 C636 1.356 . S
C634 H688 0.930 . S
C635 N633 1.279 . S
C635 C634 1.358 . S
C635 H639 0.930 . S
C636 C634 1.356 . S
C636 C637 1.348 . S
C637 C632 1.353 . S
C637 C636 1.348 . S
C637 H689 0.929 . S
H638 C632 0.930 . S
H639 C635 0.930 . S
C640 N641 1.314 1_556 S
C640 C642 1.353 . S
C640 H646 0.930 . S
N641 Li617 1.990 . S
N641 C640 1.314 1_554 S
N641 C644 1.279 . S
C642 C640 1.353 . S
C642 C645 1.345 1_556 S
C642 H690 0.929 . S
C643 C644 1.358 . S
C643 C645 1.359 . S
C643 H691 0.930 . S
C644 N641 1.279 . S
C644 C643 1.358 . S
C644 H647 0.930 . S
C645 C642 1.345 1_554 S
C645 C643 1.359 . S
H646 C640 0.930 . S
H647 C644 0.930 . S
C648 C650 1.346 1_554 S
C648 C651 1.357 . S
C648 O678 1.325 . S
N649 C652 1.314 . S
N649 C653 1.279 1_556 S
C650 C648 1.346 1_556 S
C650 C652 1.353 . S
C650 H692 0.929 . S
C651 C648 1.357 . S
C651 C653 1.358 . S
C651 H693 0.930 . S
C652 N649 1.314 . S
C652 C650 1.353 . S
C652 H694 0.930 . S
C653 N649 1.279 1_554 S
C653 C651 1.358 . S
C653 H695 0.930 . S
C654 C655 1.348 . S
C654 C656 1.356 . S
C654 O679 1.325 . S
C655 C654 1.348 . S
C655 C657 1.353 . S
C655 H696 0.929 . S
C656 C654 1.356 . S
C656 C658 1.358 . S
C656 H697 0.930 . S
C657 C655 1.353 . S
C657 N659 1.314 . S
C657 H698 0.930 . S
C658 C656 1.358 . S
C658 N659 1.279 . S
C658 H699 0.930 . S
N659 C657 1.314 . S
N659 C658 1.279 . S
C660 C662 1.353 . S
C660 N663 1.314 . S
C660 H666 0.930 . S
C661 N663 1.279 . S
C661 C664 1.358 . S
C661 H667 0.930 . S
C662 C660 1.353 . S
C662 C665 1.348 . S
C662 H700 0.929 . S
N663 Li618 1.990 . S
N663 C660 1.314 . S
N663 C661 1.279 . S
C664 C661 1.358 . S
C664 C665 1.356 . S
C664 H701 0.930 . S
C665 C662 1.348 . S
C665 C664 1.356 . S
H666 C660 0.930 . S
H667 C661 0.930 . S
C668 N669 1.314 1_554 S
C668 C670 1.353 . S
C668 H674 0.930 . S
N669 Li619 1.990 . S
N669 C668 1.314 1_556 S
N669 C672 1.279 . S
C670 C668 1.353 . S
C670 C673 1.349 1_554 S
C670 H702 0.929 . S
C671 C672 1.358 . S
C671 C673 1.355 . S
C671 H703 0.930 . S
C672 N669 1.279 . S
C672 C671 1.358 . S
C672 H675 0.930 . S
C673 C670 1.349 1_556 S
C673 C671 1.355 . S
H674 C668 0.930 . S
H675 C672 0.930 . S
O676 Li616 1.956 1_556 S
O676 Li617 1.970 1_556 S
O676 Li618 1.961 . S
O676 C620 1.325 . S
O677 Li616 1.970 . S
O677 Li617 1.956 . S
O677 Li619 1.961 1_554 S
O677 C626 1.325 . S
O678 Li616 1.961 . S
O678 Li618 1.956 1_554 S
O678 Li619 1.970 1_554 S
O678 C648 1.325 . S
O679 Li617 1.961 1_556 S
O679 Li618 1.970 . S
O679 Li619 1.956 . S
O679 C654 1.325 . S
H680 C622 0.929 . S
H681 C623 0.930 . S
H682 C624 0.930 . S
H683 C625 0.930 . S
H684 C627 0.930 . S
H685 C629 0.929 . S
H686 C630 0.930 . S
H687 C631 0.930 . S
H688 C634 0.930 . S
H689 C637 0.929 . S
H690 C642 0.929 . S
H691 C643 0.930 . S
H692 C650 0.929 . S
H693 C651 0.930 . S
H694 C652 0.930 . S
H695 C653 0.930 . S
H696 C655 0.929 . S
H697 C656 0.930 . S
H698 C657 0.930 . S
H699 C658 0.930 . S
H700 C662 0.929 . S
H701 C664 0.930 . S
H702 C670 0.929 . S
H703 C671 0.930 . S
Li704 N721 1.990 . S
Li704 O764 1.956 . S
Li704 O765 1.970 . S
Li704 O766 1.961 . S
Li705 N729 1.990 . S
Li705 O764 1.970 . S
Li705 O765 1.956 . S
Li705 O767 1.961 . S
Li706 N751 1.990 . S
Li706 O764 1.961 . S
Li706 O766 1.956 . S
Li706 O767 1.970 . S
Li707 N757 1.990 . S
Li707 O765 1.961 . S
Li707 O766 1.970 . S
Li707 O767 1.956 . S
C708 C710 1.348 . S
C708 C711 1.356 . S
C708 O764 1.325 . S
N709 C712 1.314 . S
N709 C713 1.279 . S
C710 C708 1.348 . S
C710 C712 1.353 . S
C710 H768 0.929 . S
C711 C708 1.356 . S
C711 C713 1.358 . S
C711 H769 0.930 . S
C712 N709 1.314 . S
C712 C710 1.353 . S
C712 H770 0.930 . S
C713 N709 1.279 . S
C713 C711 1.358 . S
C713 H771 0.930 . S
C714 C717 1.348 . S
C714 C718 1.356 . S
C714 O765 1.325 . S
C715 N716 1.279 . S
C715 C718 1.358 . S
C715 H772 0.930 . S
N716 C715 1.279 . S
N716 C719 1.314 . S
C717 C714 1.348 . S
C717 C719 1.353 . S
C717 H773 0.929 . S
C718 C714 1.356 . S
C718 C715 1.358 . S
C718 H774 0.930 . S
C719 N716 1.314 . S
C719 C717 1.353 . S
C719 H775 0.930 . S
C720 N721 1.314 . S
C720 C725 1.353 . S
C720 H726 0.930 . S
N721 Li704 1.990 . S
N721 C720 1.314 . S
N721 C723 1.279 . S
C722 C723 1.358 . S
C722 C724 1.356 . S
C722 H776 0.930 . S
C723 N721 1.279 . S
C723 C722 1.358 . S
C723 H727 0.930 . S
C724 C722 1.356 . S
C724 C725 1.348 . S
C725 C720 1.353 . S
C725 C724 1.348 . S
C725 H777 0.929 . S
H726 C720 0.930 . S
H727 C723 0.930 . S
C728 N729 1.314 . S
C728 C730 1.353 . S
C728 H734 0.930 . S
N729 Li705 1.990 . S
N729 C728 1.314 . S
N729 C732 1.279 . S
C730 C728 1.353 . S
C730 C733 1.348 . S
C730 H778 0.929 . S
C731 C732 1.358 . S
C731 C733 1.356 . S
C731 H779 0.930 . S
C732 N729 1.279 . S
C732 C731 1.358 . S
C732 H735 0.930 . S
C733 C730 1.348 . S
C733 C731 1.356 . S
H734 C728 0.930 . S
H735 C732 0.930 . S
C736 C738 1.348 . S
C736 C739 1.356 . S
C736 O766 1.325 . S
N737 C740 1.314 . S
N737 C741 1.279 . S
C738 C736 1.348 . S
C738 C740 1.353 . S
C738 H780 0.929 . S
C739 C736 1.356 . S
C739 C741 1.358 . S
C739 H781 0.930 . S
C740 N737 1.314 . S
C740 C738 1.353 . S
C740 H782 0.930 . S
C741 N737 1.279 . S
C741 C739 1.358 . S
C741 H783 0.930 . S
C742 C743 1.348 . S
C742 C744 1.356 . S
C742 O767 1.325 . S
C743 C742 1.348 . S
C743 C745 1.353 . S
C743 H784 0.929 . S
C744 C742 1.356 . S
C744 C746 1.358 . S
C744 H785 0.930 . S
C745 C743 1.353 . S
C745 N747 1.314 . S
C745 H786 0.930 . S
C746 C744 1.358 . S
C746 N747 1.279 . S
C746 H787 0.930 . S
N747 C745 1.314 . S
N747 C746 1.279 . S
C748 C750 1.353 . S
C748 N751 1.314 . S
C748 H754 0.930 . S
C749 N751 1.279 . S
C749 C752 1.358 . S
C749 H755 0.930 . S
C750 C748 1.353 . S
C750 C753 1.348 . S
C750 H788 0.929 . S
N751 Li706 1.990 . S
N751 C748 1.314 . S
N751 C749 1.279 . S
C752 C749 1.358 . S
C752 C753 1.356 . S
C752 H789 0.930 . S
C753 C750 1.348 . S
C753 C752 1.356 . S
H754 C748 0.930 . S
H755 C749 0.930 . S
C756 N757 1.314 . S
C756 C758 1.353 . S
C756 H762 0.930 . S
N757 Li707 1.990 . S
N757 C756 1.314 . S
N757 C760 1.279 . S
C758 C756 1.353 . S
C758 C761 1.348 . S
C758 H790 0.929 . S
C759 C760 1.358 . S
C759 C761 1.356 . S
C759 H791 0.930 . S
C760 N757 1.279 . S
C760 C759 1.358 . S
C760 H763 0.930 . S
C761 C758 1.348 . S
C761 C759 1.356 . S
H762 C756 0.930 . S
H763 C760 0.930 . S
O764 Li704 1.956 . S
O764 Li705 1.970 . S
O764 Li706 1.961 . S
O764 C708 1.325 . S
O765 Li704 1.970 . S
O765 Li705 1.956 . S
O765 Li707 1.961 . S
O765 C714 1.325 . S
O766 Li704 1.961 . S
O766 Li706 1.956 . S
O766 Li707 1.970 . S
O766 C736 1.325 . S
O767 Li705 1.961 . S
O767 Li706 1.970 . S
O767 Li707 1.956 . S
O767 C742 1.325 . S
H768 C710 0.929 . S
H769 C711 0.930 . S
H770 C712 0.930 . S
H771 C713 0.930 . S
H772 C715 0.930 . S
H773 C717 0.929 . S
H774 C718 0.930 . S
H775 C719 0.930 . S
H776 C722 0.930 . S
H777 C725 0.929 . S
H778 C730 0.929 . S
H779 C731 0.930 . S
H780 C738 0.929 . S
H781 C739 0.930 . S
H782 C740 0.930 . S
H783 C741 0.930 . S
H784 C743 0.929 . S
H785 C744 0.930 . S
H786 C745 0.930 . S
H787 C746 0.930 . S
H788 C750 0.929 . S
H789 C752 0.930 . S
H790 C758 0.929 . S
H791 C759 0.930 . S
Li792 N809 1.990 . S
Li792 O852 1.956 . S
Li792 O853 1.970 . S
Li792 O854 1.961 . S
Li793 N817 1.990 . S
Li793 O852 1.970 . S
Li793 O853 1.956 . S
Li793 O855 1.961 . S
Li794 N839 1.990 . S
Li794 O852 1.961 . S
Li794 O854 1.956 . S
Li794 O855 1.970 . S
Li795 N845 1.990 . S
Li795 O853 1.961 . S
Li795 O854 1.970 . S
Li795 O855 1.956 . S
C796 C798 1.348 . S
C796 C799 1.356 . S
C796 O852 1.325 . S
N797 C800 1.314 . S
N797 C801 1.279 . S
C798 C796 1.348 . S
C798 C800 1.353 . S
C798 H856 0.929 . S
C799 C796 1.356 . S
C799 C801 1.358 . S
C799 H857 0.930 . S
C800 N797 1.314 . S
C800 C798 1.353 . S
C800 H858 0.930 . S
C801 N797 1.279 . S
C801 C799 1.358 . S
C801 H859 0.930 . S
C802 C805 1.348 . S
C802 C806 1.356 . S
C802 O853 1.325 . S
C803 N804 1.279 . S
C803 C806 1.358 . S
C803 H860 0.930 . S
N804 C803 1.279 . S
N804 C807 1.314 . S
C805 C802 1.348 . S
C805 C807 1.353 . S
C805 H861 0.929 . S
C806 C802 1.356 . S
C806 C803 1.358 . S
C806 H862 0.930 . S
C807 N804 1.314 . S
C807 C805 1.353 . S
C807 H863 0.930 . S
C808 N809 1.314 . S
C808 C813 1.353 . S
C808 H814 0.930 . S
N809 Li792 1.990 . S
N809 C808 1.314 . S
N809 C811 1.279 . S
C810 C811 1.358 . S
C810 C812 1.356 . S
C810 H864 0.930 . S
C811 N809 1.279 . S
C811 C810 1.358 . S
C811 H815 0.930 . S
C812 C810 1.356 . S
C812 C813 1.348 . S
C813 C808 1.353 . S
C813 C812 1.348 . S
C813 H865 0.929 . S
H814 C808 0.930 . S
H815 C811 0.930 . S
C816 N817 1.314 . S
C816 C818 1.353 . S
C816 H822 0.930 . S
N817 Li793 1.990 . S
N817 C816 1.314 . S
N817 C820 1.279 . S
C818 C816 1.353 . S
C818 C821 1.348 . S
C818 H866 0.929 . S
C819 C820 1.358 . S
C819 C821 1.356 . S
C819 H867 0.930 . S
C820 N817 1.279 . S
C820 C819 1.358 . S
C820 H823 0.930 . S
C821 C818 1.348 . S
C821 C819 1.356 . S
H822 C816 0.930 . S
H823 C820 0.930 . S
C824 C826 1.348 . S
C824 C827 1.356 . S
C824 O854 1.325 . S
N825 C828 1.314 . S
N825 C829 1.279 . S
C826 C824 1.348 . S
C826 C828 1.353 . S
C826 H868 0.929 . S
C827 C824 1.356 . S
C827 C829 1.358 . S
C827 H869 0.930 . S
C828 N825 1.314 . S
C828 C826 1.353 . S
C828 H870 0.930 . S
C829 N825 1.279 . S
C829 C827 1.358 . S
C829 H871 0.930 . S
C830 C831 1.348 . S
C830 C832 1.356 . S
C830 O855 1.325 . S
C831 C830 1.348 . S
C831 C833 1.353 . S
C831 H872 0.929 . S
C832 C830 1.356 . S
C832 C834 1.358 . S
C832 H873 0.930 . S
C833 C831 1.353 . S
C833 N835 1.314 . S
C833 H874 0.930 . S
C834 C832 1.358 . S
C834 N835 1.279 . S
C834 H875 0.930 . S
N835 C833 1.314 . S
N835 C834 1.279 . S
C836 C838 1.353 . S
C836 N839 1.314 . S
C836 H842 0.930 . S
C837 N839 1.279 . S
C837 C840 1.358 . S
C837 H843 0.930 . S
C838 C836 1.353 . S
C838 C841 1.348 . S
C838 H876 0.929 . S
N839 Li794 1.990 . S
N839 C836 1.314 . S
N839 C837 1.279 . S
C840 C837 1.358 . S
C840 C841 1.356 . S
C840 H877 0.930 . S
C841 C838 1.348 . S
C841 C840 1.356 . S
H842 C836 0.930 . S
H843 C837 0.930 . S
C844 N845 1.314 . S
C844 C846 1.353 . S
C844 H850 0.930 . S
N845 Li795 1.990 . S
N845 C844 1.314 . S
N845 C848 1.279 . S
C846 C844 1.353 . S
C846 C849 1.348 . S
C846 H878 0.929 . S
C847 C848 1.358 . S
C847 C849 1.356 . S
C847 H879 0.930 . S
C848 N845 1.279 . S
C848 C847 1.358 . S
C848 H851 0.930 . S
C849 C846 1.348 . S
C849 C847 1.356 . S
H850 C844 0.930 . S
H851 C848 0.930 . S
O852 Li792 1.956 . S
O852 Li793 1.970 . S
O852 Li794 1.961 . S
O852 C796 1.325 . S
O853 Li792 1.970 . S
O853 Li793 1.956 . S
O853 Li795 1.961 . S
O853 C802 1.325 . S
O854 Li792 1.961 . S
O854 Li794 1.956 . S
O854 Li795 1.970 . S
O854 C824 1.325 . S
O855 Li793 1.961 . S
O855 Li794 1.970 . S
O855 Li795 1.956 . S
O855 C830 1.325 . S
H856 C798 0.929 . S
H857 C799 0.930 . S
H858 C800 0.930 . S
H859 C801 0.930 . S
H860 C803 0.930 . S
H861 C805 0.929 . S
H862 C806 0.930 . S
H863 C807 0.930 . S
H864 C810 0.930 . S
H865 C813 0.929 . S
H866 C818 0.929 . S
H867 C819 0.930 . S
H868 C826 0.929 . S
H869 C827 0.930 . S
H870 C828 0.930 . S
H871 C829 0.930 . S
H872 C831 0.929 . S
H873 C832 0.930 . S
H874 C833 0.930 . S
H875 C834 0.930 . S
H876 C838 0.929 . S
H877 C840 0.930 . S
H878 C846 0.929 . S
H879 C847 0.930 . S
Li880 N897 1.990 . S
Li880 O940 1.956 . S
Li880 O941 1.970 . S
Li880 O942 1.961 . S
Li881 N905 1.990 . S
Li881 O940 1.970 . S
Li881 O941 1.956 . S
Li881 O943 1.961 . S
Li882 N927 1.990 . S
Li882 O940 1.961 . S
Li882 O942 1.956 . S
Li882 O943 1.970 . S
Li883 N933 1.990 . S
Li883 O941 1.961 . S
Li883 O942 1.970 . S
Li883 O943 1.956 . S
C884 C886 1.348 . S
C884 C887 1.356 . S
C884 O940 1.325 . S
N885 C888 1.314 . S
N885 C889 1.279 . S
C886 C884 1.348 . S
C886 C888 1.353 . S
C886 H944 0.929 . S
C887 C884 1.356 . S
C887 C889 1.358 . S
C887 H945 0.930 . S
C888 N885 1.314 . S
C888 C886 1.353 . S
C888 H946 0.930 . S
C889 N885 1.279 . S
C889 C887 1.358 . S
C889 H947 0.930 . S
C890 C893 1.348 . S
C890 C894 1.356 . S
C890 O941 1.325 . S
C891 N892 1.279 . S
C891 C894 1.358 . S
C891 H948 0.930 . S
N892 C891 1.279 . S
N892 C895 1.314 . S
C893 C890 1.348 . S
C893 C895 1.353 . S
C893 H949 0.929 . S
C894 C890 1.356 . S
C894 C891 1.358 . S
C894 H950 0.930 . S
C895 N892 1.314 . S
C895 C893 1.353 . S
C895 H951 0.930 . S
C896 N897 1.314 . S
C896 C901 1.353 . S
C896 H902 0.930 . S
N897 Li880 1.990 . S
N897 C896 1.314 . S
N897 C899 1.279 . S
C898 C899 1.358 . S
C898 C900 1.356 . S
C898 H952 0.930 . S
C899 N897 1.279 . S
C899 C898 1.358 . S
C899 H903 0.930 . S
C900 C898 1.356 . S
C900 C901 1.348 . S
C901 C896 1.353 . S
C901 C900 1.348 . S
C901 H953 0.929 . S
H902 C896 0.930 . S
H903 C899 0.930 . S
C904 N905 1.314 . S
C904 C906 1.353 . S
C904 H910 0.930 . S
N905 Li881 1.990 . S
N905 C904 1.314 . S
N905 C908 1.279 . S
C906 C904 1.353 . S
C906 C909 1.348 . S
C906 H954 0.929 . S
C907 C908 1.358 . S
C907 C909 1.356 . S
C907 H955 0.930 . S
C908 N905 1.279 . S
C908 C907 1.358 . S
C908 H911 0.930 . S
C909 C906 1.348 . S
C909 C907 1.356 . S
H910 C904 0.930 . S
H911 C908 0.930 . S
C912 C914 1.348 . S
C912 C915 1.356 . S
C912 O942 1.325 . S
N913 C916 1.314 . S
N913 C917 1.279 . S
C914 C912 1.348 . S
C914 C916 1.353 . S
C914 H956 0.929 . S
C915 C912 1.356 . S
C915 C917 1.358 . S
C915 H957 0.930 . S
C916 N913 1.314 . S
C916 C914 1.353 . S
C916 H958 0.930 . S
C917 N913 1.279 . S
C917 C915 1.358 . S
C917 H959 0.930 . S
C918 C919 1.348 . S
C918 C920 1.356 . S
C918 O943 1.325 . S
C919 C918 1.348 . S
C919 C921 1.353 . S
C919 H960 0.929 . S
C920 C918 1.356 . S
C920 C922 1.358 . S
C920 H961 0.930 . S
C921 C919 1.353 . S
C921 N923 1.314 . S
C921 H962 0.930 . S
C922 C920 1.358 . S
C922 N923 1.279 . S
C922 H963 0.930 . S
N923 C921 1.314 . S
N923 C922 1.279 . S
C924 C926 1.353 . S
C924 N927 1.314 . S
C924 H930 0.930 . S
C925 N927 1.279 . S
C925 C928 1.358 . S
C925 H931 0.930 . S
C926 C924 1.353 . S
C926 C929 1.348 . S
C926 H964 0.929 . S
N927 Li882 1.990 . S
N927 C924 1.314 . S
N927 C925 1.279 . S
C928 C925 1.358 . S
C928 C929 1.356 . S
C928 H965 0.930 . S
C929 C926 1.348 . S
C929 C928 1.356 . S
H930 C924 0.930 . S
H931 C925 0.930 . S
C932 N933 1.314 . S
C932 C934 1.353 . S
C932 H938 0.930 . S
N933 Li883 1.990 . S
N933 C932 1.314 . S
N933 C936 1.279 . S
C934 C932 1.353 . S
C934 C937 1.348 . S
C934 H966 0.929 . S
C935 C936 1.358 . S
C935 C937 1.356 . S
C935 H967 0.930 . S
C936 N933 1.279 . S
C936 C935 1.358 . S
C936 H939 0.930 . S
C937 C934 1.348 . S
C937 C935 1.356 . S
H938 C932 0.930 . S
H939 C936 0.930 . S
O940 Li880 1.956 . S
O940 Li881 1.970 . S
O940 Li882 1.961 . S
O940 C884 1.325 . S
O941 Li880 1.970 . S
O941 Li881 1.956 . S
O941 Li883 1.961 . S
O941 C890 1.325 . S
O942 Li880 1.961 . S
O942 Li882 1.956 . S
O942 Li883 1.970 . S
O942 C912 1.325 . S
O943 Li881 1.961 . S
O943 Li882 1.970 . S
O943 Li883 1.956 . S
O943 C918 1.325 . S
H944 C886 0.929 . S
H945 C887 0.930 . S
H946 C888 0.930 . S
H947 C889 0.930 . S
H948 C891 0.930 . S
H949 C893 0.929 . S
H950 C894 0.930 . S
H951 C895 0.930 . S
H952 C898 0.930 . S
H953 C901 0.929 . S
H954 C906 0.929 . S
H955 C907 0.930 . S
H956 C914 0.929 . S
H957 C915 0.930 . S
H958 C916 0.930 . S
H959 C917 0.930 . S
H960 C919 0.929 . S
H961 C920 0.930 . S
H962 C921 0.930 . S
H963 C922 0.930 . S
H964 C926 0.929 . S
H965 C928 0.930 . S
H966 C934 0.929 . S
H967 C935 0.930 . S
Li968 N985 1.990 . S
Li968 O1028 1.956 . S
Li968 O1029 1.970 . S
Li968 O1030 1.961 . S
Li969 N993 1.990 . S
Li969 O1028 1.970 . S
Li969 O1029 1.956 . S
Li969 O1031 1.961 . S
Li970 N1015 1.990 . S
Li970 O1028 1.961 . S
Li970 O1030 1.956 . S
Li970 O1031 1.970 . S
Li971 N1021 1.990 . S
Li971 O1029 1.961 . S
Li971 O1030 1.970 . S
Li971 O1031 1.956 . S
C972 C974 1.348 . S
C972 C975 1.356 . S
C972 O1028 1.325 . S
N973 C976 1.314 . S
N973 C977 1.279 . S
C974 C972 1.348 . S
C974 C976 1.353 . S
C974 H1032 0.929 . S
C975 C972 1.356 . S
C975 C977 1.358 . S
C975 H1033 0.930 . S
C976 N973 1.314 . S
C976 C974 1.353 . S
C976 H1034 0.930 . S
C977 N973 1.279 . S
C977 C975 1.358 . S
C977 H1035 0.930 . S
C978 C981 1.348 . S
C978 C982 1.356 . S
C978 O1029 1.325 . S
C979 N980 1.279 . S
C979 C982 1.358 . S
C979 H1036 0.930 . S
N980 C979 1.279 . S
N980 C983 1.314 . S
C981 C978 1.348 . S
C981 C983 1.353 . S
C981 H1037 0.929 . S
C982 C978 1.356 . S
C982 C979 1.358 . S
C982 H1038 0.930 . S
C983 N980 1.314 . S
C983 C981 1.353 . S
C983 H1039 0.930 . S
C984 N985 1.314 . S
C984 C989 1.353 . S
C984 H990 0.930 . S
N985 Li968 1.990 . S
N985 C984 1.314 . S
N985 C987 1.279 . S
C986 C987 1.358 . S
C986 C988 1.356 . S
C986 H1040 0.930 . S
C987 N985 1.279 . S
C987 C986 1.358 . S
C987 H991 0.930 . S
C988 C986 1.356 . S
C988 C989 1.348 . S
C989 C984 1.353 . S
C989 C988 1.348 . S
C989 H1041 0.929 . S
H990 C984 0.930 . S
H991 C987 0.930 . S
C992 N993 1.314 . S
C992 C994 1.353 . S
C992 H998 0.930 . S
N993 Li969 1.990 . S
N993 C992 1.314 . S
N993 C996 1.279 . S
C994 C992 1.353 . S
C994 C997 1.348 . S
C994 H1042 0.929 . S
C995 C996 1.358 . S
C995 C997 1.356 . S
C995 H1043 0.930 . S
C996 N993 1.279 . S
C996 C995 1.358 . S
C996 H999 0.930 . S
C997 C994 1.348 . S
C997 C995 1.356 . S
H998 C992 0.930 . S
H999 C996 0.930 . S
C1000 C1002 1.348 . S
C1000 C1003 1.356 . S
C1000 O1030 1.325 . S
N1001 C1004 1.314 . S
N1001 C1005 1.279 . S
C1002 C1000 1.348 . S
C1002 C1004 1.353 . S
C1002 H1044 0.929 . S
C1003 C1000 1.356 . S
C1003 C1005 1.358 . S
C1003 H1045 0.930 . S
C1004 N1001 1.314 . S
C1004 C1002 1.353 . S
C1004 H1046 0.930 . S
C1005 N1001 1.279 . S
C1005 C1003 1.358 . S
C1005 H1047 0.930 . S
C1006 C1007 1.348 . S
C1006 C1008 1.356 . S
C1006 O1031 1.325 . S
C1007 C1006 1.348 . S
C1007 C1009 1.353 . S
C1007 H1048 0.929 . S
C1008 C1006 1.356 . S
C1008 C1010 1.358 . S
C1008 H1049 0.930 . S
C1009 C1007 1.353 . S
C1009 N1011 1.314 . S
C1009 H1050 0.930 . S
C1010 C1008 1.358 . S
C1010 N1011 1.279 . S
C1010 H1051 0.930 . S
N1011 C1009 1.314 . S
N1011 C1010 1.279 . S
C1012 C1014 1.353 . S
C1012 N1015 1.314 . S
C1012 H1018 0.930 . S
C1013 N1015 1.279 . S
C1013 C1016 1.358 . S
C1013 H1019 0.930 . S
C1014 C1012 1.353 . S
C1014 C1017 1.348 . S
C1014 H1052 0.929 . S
N1015 Li970 1.990 . S
N1015 C1012 1.314 . S
N1015 C1013 1.279 . S
C1016 C1013 1.358 . S
C1016 C1017 1.356 . S
C1016 H1053 0.930 . S
C1017 C1014 1.348 . S
C1017 C1016 1.356 . S
H1018 C1012 0.930 . S
H1019 C1013 0.930 . S
C1020 N1021 1.314 . S
C1020 C1022 1.353 . S
C1020 H1026 0.930 . S
N1021 Li971 1.990 . S
N1021 C1020 1.314 . S
N1021 C1024 1.279 . S
C1022 C1020 1.353 . S
C1022 C1025 1.348 . S
C1022 H1054 0.929 . S
C1023 C1024 1.358 . S
C1023 C1025 1.356 . S
C1023 H1055 0.930 . S
C1024 N1021 1.279 . S
C1024 C1023 1.358 . S
C1024 H1027 0.930 . S
C1025 C1022 1.348 . S
C1025 C1023 1.356 . S
H1026 C1020 0.930 . S
H1027 C1024 0.930 . S
O1028 Li968 1.956 . S
O1028 Li969 1.970 . S
O1028 Li970 1.961 . S
O1028 C972 1.325 . S
O1029 Li968 1.970 . S
O1029 Li969 1.956 . S
O1029 Li971 1.961 . S
O1029 C978 1.325 . S
O1030 Li968 1.961 . S
O1030 Li970 1.956 . S
O1030 Li971 1.970 . S
O1030 C1000 1.325 . S
O1031 Li969 1.961 . S
O1031 Li970 1.970 . S
O1031 Li971 1.956 . S
O1031 C1006 1.325 . S
H1032 C974 0.929 . S
H1033 C975 0.930 . S
H1034 C976 0.930 . S
H1035 C977 0.930 . S
H1036 C979 0.930 . S
H1037 C981 0.929 . S
H1038 C982 0.930 . S
H1039 C983 0.930 . S
H1040 C986 0.930 . S
H1041 C989 0.929 . S
H1042 C994 0.929 . S
H1043 C995 0.930 . S
H1044 C1002 0.929 . S
H1045 C1003 0.930 . S
H1046 C1004 0.930 . S
H1047 C1005 0.930 . S
H1048 C1007 0.929 . S
H1049 C1008 0.930 . S
H1050 C1009 0.930 . S
H1051 C1010 0.930 . S
H1052 C1014 0.929 . S
H1053 C1016 0.930 . S
H1054 C1022 0.929 . S
H1055 C1023 0.930 . S
Li1056 N1073 1.990 . S
Li1056 O1116 1.956 . S
Li1056 O1117 1.970 . S
Li1056 O1118 1.961 . S
Li1057 N1081 1.990 . S
Li1057 O1116 1.970 . S
Li1057 O1117 1.956 . S
Li1057 O1119 1.961 . S
Li1058 N1103 1.990 . S
Li1058 O1116 1.961 . S
Li1058 O1118 1.956 . S
Li1058 O1119 1.970 . S
Li1059 N1109 1.990 . S
Li1059 O1117 1.961 . S
Li1059 O1118 1.970 . S
Li1059 O1119 1.956 . S
C1060 C1062 1.348 . S
C1060 C1063 1.356 . S
C1060 O1116 1.325 . S
N1061 C1064 1.314 . S
N1061 C1065 1.279 . S
C1062 C1060 1.348 . S
C1062 C1064 1.353 . S
C1062 H1120 0.929 . S
C1063 C1060 1.356 . S
C1063 C1065 1.358 . S
C1063 H1121 0.930 . S
C1064 N1061 1.314 . S
C1064 C1062 1.353 . S
C1064 H1122 0.930 . S
C1065 N1061 1.279 . S
C1065 C1063 1.358 . S
C1065 H1123 0.930 . S
C1066 C1069 1.348 . S
C1066 C1070 1.356 . S
C1066 O1117 1.325 . S
C1067 N1068 1.279 . S
C1067 C1070 1.358 . S
C1067 H1124 0.930 . S
N1068 C1067 1.279 . S
N1068 C1071 1.314 . S
C1069 C1066 1.348 . S
C1069 C1071 1.353 . S
C1069 H1125 0.929 . S
C1070 C1066 1.356 . S
C1070 C1067 1.358 . S
C1070 H1126 0.930 . S
C1071 N1068 1.314 . S
C1071 C1069 1.353 . S
C1071 H1127 0.930 . S
C1072 N1073 1.314 . S
C1072 C1077 1.353 . S
C1072 H1078 0.930 . S
N1073 Li1056 1.990 . S
N1073 C1072 1.314 . S
N1073 C1075 1.279 . S
C1074 C1075 1.358 . S
C1074 C1076 1.356 . S
C1074 H1128 0.930 . S
C1075 N1073 1.279 . S
C1075 C1074 1.358 . S
C1075 H1079 0.930 . S
C1076 C1074 1.356 . S
C1076 C1077 1.348 . S
C1077 C1072 1.353 . S
C1077 C1076 1.348 . S
C1077 H1129 0.929 . S
H1078 C1072 0.930 . S
H1079 C1075 0.930 . S
C1080 N1081 1.314 . S
C1080 C1082 1.353 . S
C1080 H1086 0.930 . S
N1081 Li1057 1.990 . S
N1081 C1080 1.314 . S
N1081 C1084 1.279 . S
C1082 C1080 1.353 . S
C1082 C1085 1.348 . S
C1082 H1130 0.929 . S
C1083 C1084 1.358 . S
C1083 C1085 1.356 . S
C1083 H1131 0.930 . S
C1084 N1081 1.279 . S
C1084 C1083 1.358 . S
C1084 H1087 0.930 . S
C1085 C1082 1.348 . S
C1085 C1083 1.356 . S
H1086 C1080 0.930 . S
H1087 C1084 0.930 . S
C1088 C1090 1.348 . S
C1088 C1091 1.356 . S
C1088 O1118 1.325 . S
N1089 C1092 1.314 . S
N1089 C1093 1.279 . S
C1090 C1088 1.348 . S
C1090 C1092 1.353 . S
C1090 H1132 0.929 . S
C1091 C1088 1.356 . S
C1091 C1093 1.358 . S
C1091 H1133 0.930 . S
C1092 N1089 1.314 . S
C1092 C1090 1.353 . S
C1092 H1134 0.930 . S
C1093 N1089 1.279 . S
C1093 C1091 1.358 . S
C1093 H1135 0.930 . S
C1094 C1095 1.348 . S
C1094 C1096 1.356 . S
C1094 O1119 1.325 . S
C1095 C1094 1.348 . S
C1095 C1097 1.353 . S
C1095 H1136 0.929 . S
C1096 C1094 1.356 . S
C1096 C1098 1.358 . S
C1096 H1137 0.930 . S
C1097 C1095 1.353 . S
C1097 N1099 1.314 . S
C1097 H1138 0.930 . S
C1098 C1096 1.358 . S
C1098 N1099 1.279 . S
C1098 H1139 0.930 . S
N1099 C1097 1.314 . S
N1099 C1098 1.279 . S
C1100 C1102 1.353 . S
C1100 N1103 1.314 . S
C1100 H1106 0.930 . S
C1101 N1103 1.279 . S
C1101 C1104 1.358 . S
C1101 H1107 0.930 . S
C1102 C1100 1.353 . S
C1102 C1105 1.348 . S
C1102 H1140 0.929 . S
N1103 Li1058 1.990 . S
N1103 C1100 1.314 . S
N1103 C1101 1.279 . S
C1104 C1101 1.358 . S
C1104 C1105 1.356 . S
C1104 H1141 0.930 . S
C1105 C1102 1.348 . S
C1105 C1104 1.356 . S
H1106 C1100 0.930 . S
H1107 C1101 0.930 . S
C1108 N1109 1.314 . S
C1108 C1110 1.353 . S
C1108 H1114 0.930 . S
N1109 Li1059 1.990 . S
N1109 C1108 1.314 . S
N1109 C1112 1.279 . S
C1110 C1108 1.353 . S
C1110 C1113 1.348 . S
C1110 H1142 0.929 . S
C1111 C1112 1.358 . S
C1111 C1113 1.356 . S
C1111 H1143 0.930 . S
C1112 N1109 1.279 . S
C1112 C1111 1.358 . S
C1112 H1115 0.930 . S
C1113 C1110 1.348 . S
C1113 C1111 1.356 . S
H1114 C1108 0.930 . S
H1115 C1112 0.930 . S
O1116 Li1056 1.956 . S
O1116 Li1057 1.970 . S
O1116 Li1058 1.961 . S
O1116 C1060 1.325 . S
O1117 Li1056 1.970 . S
O1117 Li1057 1.956 . S
O1117 Li1059 1.961 . S
O1117 C1066 1.325 . S
O1118 Li1056 1.961 . S
O1118 Li1058 1.956 . S
O1118 Li1059 1.970 . S
O1118 C1088 1.325 . S
O1119 Li1057 1.961 . S
O1119 Li1058 1.970 . S
O1119 Li1059 1.956 . S
O1119 C1094 1.325 . S
H1120 C1062 0.929 . S
H1121 C1063 0.930 . S
H1122 C1064 0.930 . S
H1123 C1065 0.930 . S
H1124 C1067 0.930 . S
H1125 C1069 0.929 . S
H1126 C1070 0.930 . S
H1127 C1071 0.930 . S
H1128 C1074 0.930 . S
H1129 C1077 0.929 . S
H1130 C1082 0.929 . S
H1131 C1083 0.930 . S
H1132 C1090 0.929 . S
H1133 C1091 0.930 . S
H1134 C1092 0.930 . S
H1135 C1093 0.930 . S
H1136 C1095 0.929 . S
H1137 C1096 0.930 . S
H1138 C1097 0.930 . S
H1139 C1098 0.930 . S
H1140 C1102 0.929 . S
H1141 C1104 0.930 . S
H1142 C1110 0.929 . S
H1143 C1111 0.930 . S
Li1144 N1161 1.990 . S
Li1144 O1204 1.956 . S
Li1144 O1205 1.970 . S
Li1144 O1206 1.961 . S
Li1145 N1169 1.990 . S
Li1145 O1204 1.970 . S
Li1145 O1205 1.956 . S
Li1145 O1207 1.961 . S
Li1146 N1191 1.990 . S
Li1146 O1204 1.961 . S
Li1146 O1206 1.956 . S
Li1146 O1207 1.970 . S
Li1147 N1197 1.990 . S
Li1147 O1205 1.961 . S
Li1147 O1206 1.970 . S
Li1147 O1207 1.956 . S
C1148 C1150 1.348 . S
C1148 C1151 1.356 . S
C1148 O1204 1.325 . S
N1149 C1152 1.314 . S
N1149 C1153 1.279 . S
C1150 C1148 1.348 . S
C1150 C1152 1.353 . S
C1150 H1208 0.929 . S
C1151 C1148 1.356 . S
C1151 C1153 1.358 . S
C1151 H1209 0.930 . S
C1152 N1149 1.314 . S
C1152 C1150 1.353 . S
C1152 H1210 0.930 . S
C1153 N1149 1.279 . S
C1153 C1151 1.358 . S
C1153 H1211 0.930 . S
C1154 C1157 1.348 . S
C1154 C1158 1.356 . S
C1154 O1205 1.325 . S
C1155 N1156 1.279 . S
C1155 C1158 1.358 . S
C1155 H1212 0.930 . S
N1156 C1155 1.279 . S
N1156 C1159 1.314 . S
C1157 C1154 1.348 . S
C1157 C1159 1.353 . S
C1157 H1213 0.929 . S
C1158 C1154 1.356 . S
C1158 C1155 1.358 . S
C1158 H1214 0.930 . S
C1159 N1156 1.314 . S
C1159 C1157 1.353 . S
C1159 H1215 0.930 . S
C1160 N1161 1.314 . S
C1160 C1165 1.353 . S
C1160 H1166 0.930 . S
N1161 Li1144 1.990 . S
N1161 C1160 1.314 . S
N1161 C1163 1.279 . S
C1162 C1163 1.358 . S
C1162 C1164 1.356 . S
C1162 H1216 0.930 . S
C1163 N1161 1.279 . S
C1163 C1162 1.358 . S
C1163 H1167 0.930 . S
C1164 C1162 1.356 . S
C1164 C1165 1.348 . S
C1165 C1160 1.353 . S
C1165 C1164 1.348 . S
C1165 H1217 0.929 . S
H1166 C1160 0.930 . S
H1167 C1163 0.930 . S
C1168 N1169 1.314 . S
C1168 C1170 1.353 . S
C1168 H1174 0.930 . S
N1169 Li1145 1.990 . S
N1169 C1168 1.314 . S
N1169 C1172 1.279 . S
C1170 C1168 1.353 . S
C1170 C1173 1.348 . S
C1170 H1218 0.929 . S
C1171 C1172 1.358 . S
C1171 C1173 1.356 . S
C1171 H1219 0.930 . S
C1172 N1169 1.279 . S
C1172 C1171 1.358 . S
C1172 H1175 0.930 . S
C1173 C1170 1.348 . S
C1173 C1171 1.356 . S
H1174 C1168 0.930 . S
H1175 C1172 0.930 . S
C1176 C1178 1.348 . S
C1176 C1179 1.356 . S
C1176 O1206 1.325 . S
N1177 C1180 1.314 . S
N1177 C1181 1.279 . S
C1178 C1176 1.348 . S
C1178 C1180 1.353 . S
C1178 H1220 0.929 . S
C1179 C1176 1.356 . S
C1179 C1181 1.358 . S
C1179 H1221 0.930 . S
C1180 N1177 1.314 . S
C1180 C1178 1.353 . S
C1180 H1222 0.930 . S
C1181 N1177 1.279 . S
C1181 C1179 1.358 . S
C1181 H1223 0.930 . S
C1182 C1183 1.348 . S
C1182 C1184 1.356 . S
C1182 O1207 1.325 . S
C1183 C1182 1.348 . S
C1183 C1185 1.353 . S
C1183 H1224 0.929 . S
C1184 C1182 1.356 . S
C1184 C1186 1.358 . S
C1184 H1225 0.930 . S
C1185 C1183 1.353 . S
C1185 N1187 1.314 . S
C1185 H1226 0.930 . S
C1186 C1184 1.358 . S
C1186 N1187 1.279 . S
C1186 H1227 0.930 . S
N1187 C1185 1.314 . S
N1187 C1186 1.279 . S
C1188 C1190 1.353 . S
C1188 N1191 1.314 . S
C1188 H1194 0.930 . S
C1189 N1191 1.279 . S
C1189 C1192 1.358 . S
C1189 H1195 0.930 . S
C1190 C1188 1.353 . S
C1190 C1193 1.348 . S
C1190 H1228 0.929 . S
N1191 Li1146 1.990 . S
N1191 C1188 1.314 . S
N1191 C1189 1.279 . S
C1192 C1189 1.358 . S
C1192 C1193 1.356 . S
C1192 H1229 0.930 . S
C1193 C1190 1.348 . S
C1193 C1192 1.356 . S
H1194 C1188 0.930 . S
H1195 C1189 0.930 . S
C1196 N1197 1.314 . S
C1196 C1198 1.353 . S
C1196 H1202 0.930 . S
N1197 Li1147 1.990 . S
N1197 C1196 1.314 . S
N1197 C1200 1.279 . S
C1198 C1196 1.353 . S
C1198 C1201 1.348 . S
C1198 H1230 0.929 . S
C1199 C1200 1.358 . S
C1199 C1201 1.356 . S
C1199 H1231 0.930 . S
C1200 N1197 1.279 . S
C1200 C1199 1.358 . S
C1200 H1203 0.930 . S
C1201 C1198 1.348 . S
C1201 C1199 1.356 . S
H1202 C1196 0.930 . S
H1203 C1200 0.930 . S
O1204 Li1144 1.956 . S
O1204 Li1145 1.970 . S
O1204 Li1146 1.961 . S
O1204 C1148 1.325 . S
O1205 Li1144 1.970 . S
O1205 Li1145 1.956 . S
O1205 Li1147 1.961 . S
O1205 C1154 1.325 . S
O1206 Li1144 1.961 . S
O1206 Li1146 1.956 . S
O1206 Li1147 1.970 . S
O1206 C1176 1.325 . S
O1207 Li1145 1.961 . S
O1207 Li1146 1.970 . S
O1207 Li1147 1.956 . S
O1207 C1182 1.325 . S
H1208 C1150 0.929 . S
H1209 C1151 0.930 . S
H1210 C1152 0.930 . S
H1211 C1153 0.930 . S
H1212 C1155 0.930 . S
H1213 C1157 0.929 . S
H1214 C1158 0.930 . S
H1215 C1159 0.930 . S
H1216 C1162 0.930 . S
H1217 C1165 0.929 . S
H1218 C1170 0.929 . S
H1219 C1171 0.930 . S
H1220 C1178 0.929 . S
H1221 C1179 0.930 . S
H1222 C1180 0.930 . S
H1223 C1181 0.930 . S
H1224 C1183 0.929 . S
H1225 C1184 0.930 . S
H1226 C1185 0.930 . S
H1227 C1186 0.930 . S
H1228 C1190 0.929 . S
H1229 C1192 0.930 . S
H1230 C1198 0.929 . S
H1231 C1199 0.930 . S
Li1232 N1249 1.990 . S
Li1232 O1292 1.956 . S
Li1232 O1293 1.970 . S
Li1232 O1294 1.961 . S
Li1233 N1257 1.990 . S
Li1233 O1292 1.970 . S
Li1233 O1293 1.956 . S
Li1233 O1295 1.961 . S
Li1234 N1279 1.990 . S
Li1234 O1292 1.961 . S
Li1234 O1294 1.956 . S
Li1234 O1295 1.970 . S
Li1235 N1285 1.990 . S
Li1235 O1293 1.961 . S
Li1235 O1294 1.970 . S
Li1235 O1295 1.956 . S
C1236 C1238 1.348 . S
C1236 C1239 1.356 . S
C1236 O1292 1.325 . S
N1237 C1240 1.314 . S
N1237 C1241 1.279 . S
C1238 C1236 1.348 . S
C1238 C1240 1.353 . S
C1238 H1296 0.929 . S
C1239 C1236 1.356 . S
C1239 C1241 1.358 . S
C1239 H1297 0.930 . S
C1240 N1237 1.314 . S
C1240 C1238 1.353 . S
C1240 H1298 0.930 . S
C1241 N1237 1.279 . S
C1241 C1239 1.358 . S
C1241 H1299 0.930 . S
C1242 C1245 1.348 . S
C1242 C1246 1.356 . S
C1242 O1293 1.325 . S
C1243 N1244 1.279 . S
C1243 C1246 1.358 . S
C1243 H1300 0.930 . S
N1244 C1243 1.279 . S
N1244 C1247 1.314 . S
C1245 C1242 1.348 . S
C1245 C1247 1.353 . S
C1245 H1301 0.929 . S
C1246 C1242 1.356 . S
C1246 C1243 1.358 . S
C1246 H1302 0.930 . S
C1247 N1244 1.314 . S
C1247 C1245 1.353 . S
C1247 H1303 0.930 . S
C1248 N1249 1.314 . S
C1248 C1253 1.353 . S
C1248 H1254 0.930 . S
N1249 Li1232 1.990 . S
N1249 C1248 1.314 . S
N1249 C1251 1.279 . S
C1250 C1251 1.358 . S
C1250 C1252 1.356 . S
C1250 H1304 0.930 . S
C1251 N1249 1.279 . S
C1251 C1250 1.358 . S
C1251 H1255 0.930 . S
C1252 C1250 1.356 . S
C1252 C1253 1.348 . S
C1253 C1248 1.353 . S
C1253 C1252 1.348 . S
C1253 H1305 0.929 . S
H1254 C1248 0.930 . S
H1255 C1251 0.930 . S
C1256 N1257 1.314 . S
C1256 C1258 1.353 . S
C1256 H1262 0.930 . S
N1257 Li1233 1.990 . S
N1257 C1256 1.314 . S
N1257 C1260 1.279 . S
C1258 C1256 1.353 . S
C1258 C1261 1.348 . S
C1258 H1306 0.929 . S
C1259 C1260 1.358 . S
C1259 C1261 1.356 . S
C1259 H1307 0.930 . S
C1260 N1257 1.279 . S
C1260 C1259 1.358 . S
C1260 H1263 0.930 . S
C1261 C1258 1.348 . S
C1261 C1259 1.356 . S
H1262 C1256 0.930 . S
H1263 C1260 0.930 . S
C1264 C1266 1.348 . S
C1264 C1267 1.356 . S
C1264 O1294 1.325 . S
N1265 C1268 1.314 . S
N1265 C1269 1.279 . S
C1266 C1264 1.348 . S
C1266 C1268 1.353 . S
C1266 H1308 0.929 . S
C1267 C1264 1.356 . S
C1267 C1269 1.358 . S
C1267 H1309 0.930 . S
C1268 N1265 1.314 . S
C1268 C1266 1.353 . S
C1268 H1310 0.930 . S
C1269 N1265 1.279 . S
C1269 C1267 1.358 . S
C1269 H1311 0.930 . S
C1270 C1271 1.348 . S
C1270 C1272 1.356 . S
C1270 O1295 1.325 . S
C1271 C1270 1.348 . S
C1271 C1273 1.353 . S
C1271 H1312 0.929 . S
C1272 C1270 1.356 . S
C1272 C1274 1.358 . S
C1272 H1313 0.930 . S
C1273 C1271 1.353 . S
C1273 N1275 1.314 . S
C1273 H1314 0.930 . S
C1274 C1272 1.358 . S
C1274 N1275 1.279 . S
C1274 H1315 0.930 . S
N1275 C1273 1.314 . S
N1275 C1274 1.279 . S
C1276 C1278 1.353 . S
C1276 N1279 1.314 . S
C1276 H1282 0.930 . S
C1277 N1279 1.279 . S
C1277 C1280 1.358 . S
C1277 H1283 0.930 . S
C1278 C1276 1.353 . S
C1278 C1281 1.348 . S
C1278 H1316 0.929 . S
N1279 Li1234 1.990 . S
N1279 C1276 1.314 . S
N1279 C1277 1.279 . S
C1280 C1277 1.358 . S
C1280 C1281 1.356 . S
C1280 H1317 0.930 . S
C1281 C1278 1.348 . S
C1281 C1280 1.356 . S
H1282 C1276 0.930 . S
H1283 C1277 0.930 . S
C1284 N1285 1.314 . S
C1284 C1286 1.353 . S
C1284 H1290 0.930 . S
N1285 Li1235 1.990 . S
N1285 C1284 1.314 . S
N1285 C1288 1.279 . S
C1286 C1284 1.353 . S
C1286 C1289 1.348 . S
C1286 H1318 0.929 . S
C1287 C1288 1.358 . S
C1287 C1289 1.356 . S
C1287 H1319 0.930 . S
C1288 N1285 1.279 . S
C1288 C1287 1.358 . S
C1288 H1291 0.930 . S
C1289 C1286 1.348 . S
C1289 C1287 1.356 . S
H1290 C1284 0.930 . S
H1291 C1288 0.930 . S
O1292 Li1232 1.956 . S
O1292 Li1233 1.970 . S
O1292 Li1234 1.961 . S
O1292 C1236 1.325 . S
O1293 Li1232 1.970 . S
O1293 Li1233 1.956 . S
O1293 Li1235 1.961 . S
O1293 C1242 1.325 . S
O1294 Li1232 1.961 . S
O1294 Li1234 1.956 . S
O1294 Li1235 1.970 . S
O1294 C1264 1.325 . S
O1295 Li1233 1.961 . S
O1295 Li1234 1.970 . S
O1295 Li1235 1.956 . S
O1295 C1270 1.325 . S
H1296 C1238 0.929 . S
H1297 C1239 0.930 . S
H1298 C1240 0.930 . S
H1299 C1241 0.930 . S
H1300 C1243 0.930 . S
H1301 C1245 0.929 . S
H1302 C1246 0.930 . S
H1303 C1247 0.930 . S
H1304 C1250 0.930 . S
H1305 C1253 0.929 . S
H1306 C1258 0.929 . S
H1307 C1259 0.930 . S
H1308 C1266 0.929 . S
H1309 C1267 0.930 . S
H1310 C1268 0.930 . S
H1311 C1269 0.930 . S
H1312 C1271 0.929 . S
H1313 C1272 0.930 . S
H1314 C1273 0.930 . S
H1315 C1274 0.930 . S
H1316 C1278 0.929 . S
H1317 C1280 0.930 . S
H1318 C1286 0.929 . S
H1319 C1287 0.930 . S
Li1320 N1337 1.990 . S
Li1320 O1380 1.956 . S
Li1320 O1381 1.970 . S
Li1320 O1382 1.961 . S
Li1321 N1345 1.990 . S
Li1321 O1380 1.970 . S
Li1321 O1381 1.956 . S
Li1321 O1383 1.961 . S
Li1322 N1367 1.990 . S
Li1322 O1380 1.961 . S
Li1322 O1382 1.956 . S
Li1322 O1383 1.970 . S
Li1323 N1373 1.990 . S
Li1323 O1381 1.961 . S
Li1323 O1382 1.970 . S
Li1323 O1383 1.956 . S
C1324 C1326 1.348 . S
C1324 C1327 1.356 . S
C1324 O1380 1.325 . S
N1325 C1328 1.314 . S
N1325 C1329 1.279 . S
C1326 C1324 1.348 . S
C1326 C1328 1.353 . S
C1326 H1384 0.929 . S
C1327 C1324 1.356 . S
C1327 C1329 1.358 . S
C1327 H1385 0.930 . S
C1328 N1325 1.314 . S
C1328 C1326 1.353 . S
C1328 H1386 0.930 . S
C1329 N1325 1.279 . S
C1329 C1327 1.358 . S
C1329 H1387 0.930 . S
C1330 C1333 1.348 . S
C1330 C1334 1.356 . S
C1330 O1381 1.325 . S
C1331 N1332 1.279 . S
C1331 C1334 1.358 . S
C1331 H1388 0.930 . S
N1332 C1331 1.279 . S
N1332 C1335 1.314 . S
C1333 C1330 1.348 . S
C1333 C1335 1.353 . S
C1333 H1389 0.929 . S
C1334 C1330 1.356 . S
C1334 C1331 1.358 . S
C1334 H1390 0.930 . S
C1335 N1332 1.314 . S
C1335 C1333 1.353 . S
C1335 H1391 0.930 . S
C1336 N1337 1.314 . S
C1336 C1341 1.353 . S
C1336 H1342 0.930 . S
N1337 Li1320 1.990 . S
N1337 C1336 1.314 . S
N1337 C1339 1.279 . S
C1338 C1339 1.358 . S
C1338 C1340 1.356 . S
C1338 H1392 0.930 . S
C1339 N1337 1.279 . S
C1339 C1338 1.358 . S
C1339 H1343 0.930 . S
C1340 C1338 1.356 . S
C1340 C1341 1.348 . S
C1341 C1336 1.353 . S
C1341 C1340 1.348 . S
C1341 H1393 0.929 . S
H1342 C1336 0.930 . S
H1343 C1339 0.930 . S
C1344 N1345 1.314 . S
C1344 C1346 1.353 . S
C1344 H1350 0.930 . S
N1345 Li1321 1.990 . S
N1345 C1344 1.314 . S
N1345 C1348 1.279 . S
C1346 C1344 1.353 . S
C1346 C1349 1.348 . S
C1346 H1394 0.929 . S
C1347 C1348 1.358 . S
C1347 C1349 1.356 . S
C1347 H1395 0.930 . S
C1348 N1345 1.279 . S
C1348 C1347 1.358 . S
C1348 H1351 0.930 . S
C1349 C1346 1.348 . S
C1349 C1347 1.356 . S
H1350 C1344 0.930 . S
H1351 C1348 0.930 . S
C1352 C1354 1.348 . S
C1352 C1355 1.356 . S
C1352 O1382 1.325 . S
N1353 C1356 1.314 . S
N1353 C1357 1.279 . S
C1354 C1352 1.348 . S
C1354 C1356 1.353 . S
C1354 H1396 0.929 . S
C1355 C1352 1.356 . S
C1355 C1357 1.358 . S
C1355 H1397 0.930 . S
C1356 N1353 1.314 . S
C1356 C1354 1.353 . S
C1356 H1398 0.930 . S
C1357 N1353 1.279 . S
C1357 C1355 1.358 . S
C1357 H1399 0.930 . S
C1358 C1359 1.348 . S
C1358 C1360 1.356 . S
C1358 O1383 1.325 . S
C1359 C1358 1.348 . S
C1359 C1361 1.353 . S
C1359 H1400 0.929 . S
C1360 C1358 1.356 . S
C1360 C1362 1.358 . S
C1360 H1401 0.930 . S
C1361 C1359 1.353 . S
C1361 N1363 1.314 . S
C1361 H1402 0.930 . S
C1362 C1360 1.358 . S
C1362 N1363 1.279 . S
C1362 H1403 0.930 . S
N1363 C1361 1.314 . S
N1363 C1362 1.279 . S
C1364 C1366 1.353 . S
C1364 N1367 1.314 . S
C1364 H1370 0.930 . S
C1365 N1367 1.279 . S
C1365 C1368 1.358 . S
C1365 H1371 0.930 . S
C1366 C1364 1.353 . S
C1366 C1369 1.348 . S
C1366 H1404 0.929 . S
N1367 Li1322 1.990 . S
N1367 C1364 1.314 . S
N1367 C1365 1.279 . S
C1368 C1365 1.358 . S
C1368 C1369 1.356 . S
C1368 H1405 0.930 . S
C1369 C1366 1.348 . S
C1369 C1368 1.356 . S
H1370 C1364 0.930 . S
H1371 C1365 0.930 . S
C1372 N1373 1.314 . S
C1372 C1374 1.353 . S
C1372 H1378 0.930 . S
N1373 Li1323 1.990 . S
N1373 C1372 1.314 . S
N1373 C1376 1.279 . S
C1374 C1372 1.353 . S
C1374 C1377 1.348 . S
C1374 H1406 0.929 . S
C1375 C1376 1.358 . S
C1375 C1377 1.356 . S
C1375 H1407 0.930 . S
C1376 N1373 1.279 . S
C1376 C1375 1.358 . S
C1376 H1379 0.930 . S
C1377 C1374 1.348 . S
C1377 C1375 1.356 . S
H1378 C1372 0.930 . S
H1379 C1376 0.930 . S
O1380 Li1320 1.956 . S
O1380 Li1321 1.970 . S
O1380 Li1322 1.961 . S
O1380 C1324 1.325 . S
O1381 Li1320 1.970 . S
O1381 Li1321 1.956 . S
O1381 Li1323 1.961 . S
O1381 C1330 1.325 . S
O1382 Li1320 1.961 . S
O1382 Li1322 1.956 . S
O1382 Li1323 1.970 . S
O1382 C1352 1.325 . S
O1383 Li1321 1.961 . S
O1383 Li1322 1.970 . S
O1383 Li1323 1.956 . S
O1383 C1358 1.325 . S
H1384 C1326 0.929 . S
H1385 C1327 0.930 . S
H1386 C1328 0.930 . S
H1387 C1329 0.930 . S
H1388 C1331 0.930 . S
H1389 C1333 0.929 . S
H1390 C1334 0.930 . S
H1391 C1335 0.930 . S
H1392 C1338 0.930 . S
H1393 C1341 0.929 . S
H1394 C1346 0.929 . S
H1395 C1347 0.930 . S
H1396 C1354 0.929 . S
H1397 C1355 0.930 . S
H1398 C1356 0.930 . S
H1399 C1357 0.930 . S
H1400 C1359 0.929 . S
H1401 C1360 0.930 . S
H1402 C1361 0.930 . S
H1403 C1362 0.930 . S
H1404 C1366 0.929 . S
H1405 C1368 0.930 . S
H1406 C1374 0.929 . S
H1407 C1375 0.930 . S
C409 C20 0.722 1_556 S
C489 C108 0.722 1_556 S
C585 C205 0.722 1_556 S
C673 C293 0.722 1_556 S
C1105 C724 0.722 1_545 S
C1193 C812 0.722 1_655 S
C909 C1281 0.722 1_545 S
C1377 C997 0.722 1_455 S
C49 C460 1.380 1_556 S
C557 C137 1.380 1_554 S
C233 C645 1.380 1_556 S
C381 C321 1.380 1_554 S
C1164 C753 1.380 . S
C1252 C841 1.380 . S
C937 C1349 1.380 . S
C1025 C1076 1.380 . S
C1369 C29 1.603 . S
C1113 C117 1.603 . S
C1201 C196 1.603 . S
C1289 C284 1.603 . S
C821 C401 1.607 . S
C900 C497 1.607 . S
C577 C988 1.607 . S
C665 C733 1.607 . S
C1173 C225 1.605 . S
C1261 C313 1.605 . S
C1340 C57 1.605 . S
C145 C1085 1.605 . S
C1017 C548 1.601 . S
C636 C761 1.601 . S
C849 C372 1.601 . S
C929 C469 1.601 . S
