# Generated by pormake.
# Topology wgb, (5)-cn, num edge types: 1
# Building blocks:
#     Node 0, Type 0, BuildingBlock: XOMCOT_clean_sbu_1, # of connection points: 5
#     Node 1, Type 0, BuildingBlock: XOMCOT_clean_sbu_1, # of connection points: 5
#     Node 2, Type 0, BuildingBlock: XOMCOT_clean_sbu_1, # of connection points: 5
#     Node 3, Type 0, BuildingBlock: XOMCOT_clean_sbu_1, # of connection points: 5
#     Node 4, Type 0, BuildingBlock: XOMCOT_clean_sbu_1, # of connection points: 5
#     Node 5, Type 0, BuildingBlock: XOMCOT_clean_sbu_1, # of connection points: 5
#     Node 6, Type 0, BuildingBlock: XOMCOT_clean_sbu_1, # of connection points: 5
#     Node 7, Type 0, BuildingBlock: XOMCOT_clean_sbu_1, # of connection points: 5
#     Node 8, Type 0, BuildingBlock: XOMCOT_clean_sbu_1, # of connection points: 5
#     Node 9, Type 0, BuildingBlock: XOMCOT_clean_sbu_1, # of connection points: 5
#     Node 10, Type 0, BuildingBlock: XOMCOT_clean_sbu_1, # of connection points: 5
#     Node 11, Type 0, BuildingBlock: XOMCOT_clean_sbu_1, # of connection points: 5
#     Node 12, Type 0, BuildingBlock: XOMCOT_clean_sbu_1, # of connection points: 5
#     Node 13, Type 0, BuildingBlock: XOMCOT_clean_sbu_1, # of connection points: 5
#     Node 14, Type 0, BuildingBlock: XOMCOT_clean_sbu_1, # of connection points: 5
#     Node 15, Type 0, BuildingBlock: XOMCOT_clean_sbu_1, # of connection points: 5
#     Edge 16, Type (0, 0), BuildingBlock: EZIPEK_clean_linker_0, # of connection points: 2
#     Edge 17, Type (0, 0), BuildingBlock: EZIPEK_clean_linker_0, # of connection points: 2
#     Edge 18, Type (0, 0), BuildingBlock: EZIPEK_clean_linker_0, # of connection points: 2
#     Edge 19, Type (0, 0), BuildingBlock: EZIPEK_clean_linker_0, # of connection points: 2
#     Edge 20, Type (0, 0), BuildingBlock: EZIPEK_clean_linker_0, # of connection points: 2
#     Edge 21, Type (0, 0), BuildingBlock: EZIPEK_clean_linker_0, # of connection points: 2
#     Edge 22, Type (0, 0), BuildingBlock: EZIPEK_clean_linker_0, # of connection points: 2
#     Edge 23, Type (0, 0), BuildingBlock: EZIPEK_clean_linker_0, # of connection points: 2
#     Edge 24, Type (0, 0), BuildingBlock: EZIPEK_clean_linker_0, # of connection points: 2
#     Edge 25, Type (0, 0), BuildingBlock: EZIPEK_clean_linker_0, # of connection points: 2
#     Edge 26, Type (0, 0), BuildingBlock: EZIPEK_clean_linker_0, # of connection points: 2
#     Edge 27, Type (0, 0), BuildingBlock: EZIPEK_clean_linker_0, # of connection points: 2
#     Edge 28, Type (0, 0), BuildingBlock: EZIPEK_clean_linker_0, # of connection points: 2
#     Edge 29, Type (0, 0), BuildingBlock: EZIPEK_clean_linker_0, # of connection points: 2
#     Edge 30, Type (0, 0), BuildingBlock: EZIPEK_clean_linker_0, # of connection points: 2
#     Edge 31, Type (0, 0), BuildingBlock: EZIPEK_clean_linker_0, # of connection points: 2
#     Edge 32, Type (0, 0), BuildingBlock: EZIPEK_clean_linker_0, # of connection points: 2
#     Edge 33, Type (0, 0), BuildingBlock: EZIPEK_clean_linker_0, # of connection points: 2
#     Edge 34, Type (0, 0), BuildingBlock: EZIPEK_clean_linker_0, # of connection points: 2
#     Edge 35, Type (0, 0), BuildingBlock: EZIPEK_clean_linker_0, # of connection points: 2
#     Edge 36, Type (0, 0), BuildingBlock: EZIPEK_clean_linker_0, # of connection points: 2
#     Edge 37, Type (0, 0), BuildingBlock: EZIPEK_clean_linker_0, # of connection points: 2
#     Edge 38, Type (0, 0), BuildingBlock: EZIPEK_clean_linker_0, # of connection points: 2
#     Edge 39, Type (0, 0), BuildingBlock: EZIPEK_clean_linker_0, # of connection points: 2
#     Edge 40, Type (0, 0), BuildingBlock: EZIPEK_clean_linker_0, # of connection points: 2
#     Edge 41, Type (0, 0), BuildingBlock: EZIPEK_clean_linker_0, # of connection points: 2
#     Edge 42, Type (0, 0), BuildingBlock: EZIPEK_clean_linker_0, # of connection points: 2
#     Edge 43, Type (0, 0), BuildingBlock: EZIPEK_clean_linker_0, # of connection points: 2
#     Edge 44, Type (0, 0), BuildingBlock: EZIPEK_clean_linker_0, # of connection points: 2
#     Edge 45, Type (0, 0), BuildingBlock: EZIPEK_clean_linker_0, # of connection points: 2
#     Edge 46, Type (0, 0), BuildingBlock: EZIPEK_clean_linker_0, # of connection points: 2
#     Edge 47, Type (0, 0), BuildingBlock: EZIPEK_clean_linker_0, # of connection points: 2
#     Edge 48, Type (0, 0), BuildingBlock: EZIPEK_clean_linker_0, # of connection points: 2
#     Edge 49, Type (0, 0), BuildingBlock: EZIPEK_clean_linker_0, # of connection points: 2
#     Edge 50, Type (0, 0), BuildingBlock: EZIPEK_clean_linker_0, # of connection points: 2
#     Edge 51, Type (0, 0), BuildingBlock: EZIPEK_clean_linker_0, # of connection points: 2
#     Edge 52, Type (0, 0), BuildingBlock: EZIPEK_clean_linker_0, # of connection points: 2
#     Edge 53, Type (0, 0), BuildingBlock: EZIPEK_clean_linker_0, # of connection points: 2
#     Edge 54, Type (0, 0), BuildingBlock: EZIPEK_clean_linker_0, # of connection points: 2
#     Edge 55, Type (0, 0), BuildingBlock: EZIPEK_clean_linker_0, # of connection points: 2
# Relax obj value: 0.102
# Max RMSD: 0.128
# Mean RMSD: 0.128
data_MOF--net-wgb--node1-XOMCOT_clean_sbu_1--edge1-EZIPEK_clean_linker_0
_symmetry_space_group_name_H-M    P1
_symmetry_Int_Tables_number       1
_symmetry_cell_setting            triclinic
loop_
_symmetry_equiv_pos_as_xyz
'x, y, z'
_cell_length_a     44.589741
_cell_length_b     44.569371
_cell_length_c     20.45815
_cell_angle_alpha  89.812097
_cell_angle_beta   90.1093
_cell_angle_gamma 90.219065
loop_
_atom_site_label
_atom_site_type_symbol
_atom_site_fract_x
_atom_site_fract_y
_atom_site_fract_z
_atom_type_partial_charge
C0 C 0.37875 0.06442 0.12136 0.0
C1 C 0.38516 0.03435 0.11987 0.0
N2 N 0.37585 0.02209 0.1764 0.0
N3 N 0.36524 0.07121 0.17838 0.0
C4 C 0.36391 0.04485 0.21145 0.0
H5 H 0.38261 0.08029 0.08216 0.0
Co6 Co 0.35038 0.11004 0.19071 0.0
C7 C 0.29621 0.09509 0.27553 0.0
O8 O 0.27746 0.10153 0.22803 0.0
N9 N 0.33716 0.15044 0.19989 0.0
C10 C 0.31272 0.19331 0.21735 0.0
C11 C 0.31285 0.16292 0.22844 0.0
C12 C 0.35165 0.17423 0.17261 0.0
N13 N 0.33699 0.20034 0.18181 0.0
O14 O 0.38285 0.11836 0.24963 0.0
H15 H 0.29568 0.15142 0.25525 0.0
H16 H 0.37195 0.17232 0.14413 0.0
O17 O 0.32469 0.09687 0.26595 0.0
C18 C 0.40722 0.12518 0.22052 0.0
O19 O 0.40772 0.12585 0.15637 0.0
N20 N 0.32054 0.10182 0.12826 0.0
C21 C 0.28756 0.08648 0.01799 0.0
C22 C 0.28902 0.06675 0.07106 0.0
C23 C 0.30569 0.07489 0.12594 0.0
C24 C 0.31979 0.12075 0.07588 0.0
C25 C 0.3028 0.11389 0.02093 0.0
H26 H 0.30738 0.05917 0.16596 0.0
H27 H 0.33386 0.14038 0.07456 0.0
H28 H 0.35333 0.04209 0.25867 0.0
H29 H 0.3952 0.02219 0.07981 0.0
H30 H 0.2958 0.20905 0.23312 0.0
H31 H 0.27799 0.04507 0.06939 0.0
H32 H 0.30278 0.12918 0.97962 0.0
C33 C 0.05846 0.64579 0.8963 0.0
C34 C 0.02861 0.63857 0.89057 0.0
N35 N 0.01956 0.64623 0.83011 0.0
N36 N 0.06822 0.65819 0.83993 0.0
C37 C 0.04395 0.65806 0.80005 0.0
H38 H 0.07225 0.64259 0.93928 0.0
Co39 Co 0.10769 0.67193 0.8321 0.0
C40 C 0.09346 0.72614 0.74201 0.0
O41 O 0.09464 0.74638 0.78828 0.0
N42 N 0.14822 0.68499 0.82665 0.0
C43 C 0.18941 0.71349 0.82303 0.0
C44 C 0.15896 0.71282 0.81382 0.0
C45 C 0.17292 0.66923 0.84451 0.0
N46 N 0.1981 0.68616 0.84272 0.0
O47 O 0.11622 0.63973 0.77334 0.0
H48 H 0.14582 0.73214 0.80177 0.0
H49 H 0.17238 0.64626 0.86164 0.0
O50 O 0.09721 0.69817 0.7554 0.0
C51 C 0.12215 0.61538 0.80361 0.0
O52 O 0.12168 0.61517 0.86782 0.0
N53 N 0.09975 0.70086 0.89548 0.0
C54 C 0.091 0.73643 0.00498 0.0
C55 C 0.07137 0.73843 0.9515 0.0
C56 C 0.07529 0.71918 0.89835 0.0
C57 C 0.11774 0.69747 0.94888 0.0
C58 C 0.11378 0.71498 0.00406 0.0
H59 H 0.05883 0.71906 0.85947 0.0
H60 H 0.13487 0.68041 0.94945 0.0
H61 H 0.04398 0.66668 0.75053 0.0
H62 H 0.01454 0.62849 0.92778 0.0
H63 H 0.20398 0.73287 0.81824 0.0
H64 H 0.05292 0.75417 0.95157 0.0
H65 H 0.12865 0.71204 0.04553 0.0
C66 C 0.63155 0.95522 0.11608 0.0
C67 C 0.6226 0.98424 0.12607 0.0
N68 N 0.6332 0.99295 0.18448 0.0
N69 N 0.64746 0.94556 0.16826 0.0
C70 C 0.6481 0.96918 0.20954 0.0
H71 H 0.62765 0.94222 0.07231 0.0
Co72 Co 0.66531 0.90774 0.16875 0.0
C73 C 0.72003 0.92404 0.25238 0.0
O74 O 0.73822 0.92542 0.20225 0.0
N75 N 0.68231 0.86889 0.16719 0.0
C76 C 0.71371 0.83081 0.15147 0.0
C77 C 0.71153 0.86101 0.16284 0.0
C78 C 0.66722 0.84277 0.15832 0.0
N79 N 0.68585 0.81945 0.14805 0.0
O80 O 0.63474 0.89362 0.22808 0.0
H81 H 0.73024 0.87624 0.16255 0.0
H82 H 0.64311 0.84108 0.15503 0.0
O83 O 0.69195 0.9183 0.24452 0.0
C84 C 0.60979 0.88994 0.19832 0.0
O85 O 0.60939 0.89413 0.13473 0.0
N86 N 0.69244 0.92155 0.10495 0.0
C87 C 0.72255 0.94209 0.99469 0.0
C88 C 0.72027 0.96038 0.04982 0.0
C89 C 0.70491 0.9497 0.10462 0.0
C90 C 0.69313 0.90443 0.04984 0.0
C91 C 0.70877 0.91389 0.9949 0.0
H92 H 0.70266 0.96423 0.14646 0.0
H93 H 0.68072 0.88361 0.04749 0.0
H94 H 0.66001 0.9694 0.25569 0.0
H95 H 0.61025 0.9983 0.09227 0.0
H96 H 0.73411 0.81836 0.14268 0.0
H97 H 0.72999 0.98269 0.05015 0.0
H98 H 0.70934 0.89967 0.95205 0.0
C99 C 0.96046 0.38868 0.86239 0.0
C100 C 0.9893 0.39748 0.84935 0.0
N101 N 1.00022 0.37988 0.80177 0.0
N102 N 0.95237 0.36638 0.82148 0.0
C103 C 0.97732 0.36119 0.78556 0.0
H104 H 0.94654 0.39766 0.90071 0.0
Co105 Co 0.91386 0.34892 0.8234 0.0
C106 C 0.9282 0.2929 0.74264 0.0
O107 O 0.92981 0.27519 0.79379 0.0
N108 N 0.87445 0.33232 0.82649 0.0
C109 C 0.83587 0.30108 0.84211 0.0
C110 C 0.86617 0.30315 0.83153 0.0
C111 C 0.84836 0.3475 0.83397 0.0
N112 N 0.82475 0.32897 0.84412 0.0
O113 O 0.90016 0.37886 0.76155 0.0
H114 H 0.88113 0.28436 0.83293 0.0
H115 H 0.84678 0.37163 0.83601 0.0
O116 O 0.9236 0.32121 0.74952 0.0
C117 C 0.89474 0.40384 0.78951 0.0
O118 O 0.8969 0.40461 0.85351 0.0
N119 N 0.92707 0.32243 0.8895 0.0
C120 C 0.94448 0.2903 5e-05 0.0
C121 C 0.96358 0.29233 0.94601 0.0
C122 C 0.95447 0.30867 0.89106 0.0
C123 C 0.90951 0.32247 0.94404 0.0
C124 C 0.91731 0.30581 0.99895 0.0
H125 H 0.96937 0.30996 0.84967 0.0
H126 H 0.88935 0.33581 0.94555 0.0
H127 H 0.97891 0.3437 0.74917 0.0
H128 H 1.00168 0.415 0.87428 0.0
H129 H 0.82317 0.28074 0.85116 0.0
H130 H 0.98517 0.28127 0.94626 0.0
H131 H 0.90249 0.30553 0.04087 0.0
C132 C 0.39176 0.4549 0.12252 0.0
C133 C 0.39757 0.48506 0.12061 0.0
N134 N 0.37969 0.49808 0.07525 0.0
N135 N 0.37152 0.44798 0.07627 0.0
C136 C 0.36567 0.47439 0.04613 0.0
H137 H 0.40137 0.43902 0.15657 0.0
Co138 Co 0.35489 0.40945 0.07183 0.0
C139 C 0.29909 0.4256 0.99071 0.0
O140 O 0.28093 0.42397 0.04098 0.0
N141 N 0.33956 0.36952 0.06998 0.0
C142 C 0.31058 0.32859 0.06751 0.0
C143 C 0.31193 0.35883 0.05505 0.0
C144 C 0.35448 0.34495 0.09189 0.0
N145 N 0.33727 0.31996 0.0911 0.0
O146 O 0.3852 0.39859 0.00929 0.0
H147 H 0.29324 0.37172 0.03802 0.0
H148 H 0.37701 0.34552 0.11128 0.0
O149 O 0.32742 0.42121 0.99815 0.0
C150 C 0.41026 0.39085 0.03441 0.0
O151 O 0.41291 0.38948 0.09823 0.0
N152 N 0.32747 0.42026 0.13786 0.0
C153 C 0.29728 0.43756 0.25052 0.0
C154 C 0.29854 0.45677 0.19654 0.0
C155 C 0.31369 0.44765 0.14052 0.0
C156 C 0.32731 0.40196 0.19143 0.0
C157 C 0.3117 0.4098 0.2476 0.0
H158 H 0.31442 0.46285 0.09952 0.0
H159 H 0.34042 0.38172 0.19211 0.0
H160 H 0.35092 0.47595 0.00437 0.0
H161 H 0.41439 0.49594 0.15026 0.0
H162 H 0.29123 0.31411 0.06142 0.0
H163 H 0.28804 0.47864 0.19788 0.0
H164 H 0.31179 0.39478 0.28936 0.0
C165 C 0.45891 0.64967 0.84452 0.0
C166 C 0.48821 0.64043 0.84894 0.0
N167 N 0.49586 0.64019 0.91242 0.0
N168 N 0.44834 0.65584 0.90486 0.0
C169 C 0.47127 0.649 0.94553 0.0
H170 H 0.44617 0.65223 0.79982 0.0
Co171 Co 0.40909 0.66933 0.91899 0.0
C172 C 0.44185 0.7103 0.02158 0.0
O173 O 0.47008 0.70671 0.00546 0.0
N174 N 0.36944 0.68196 0.93118 0.0
C175 C 0.3291 0.7099 0.94938 0.0
C176 C 0.35977 0.70832 0.95569 0.0
C177 C 0.34424 0.66788 0.91045 0.0
N178 N 0.31948 0.68456 0.92058 0.0
O179 O 0.40227 0.63717 0.97941 0.0
H180 H 0.37407 0.72599 0.97427 0.0
H181 H 0.34423 0.64673 0.88485 0.0
O182 O 0.42094 0.69661 0.99053 0.0
C183 C 0.39982 0.61109 0.95428 0.0
O184 O 0.4041 0.60792 0.89116 0.0
N185 N 0.41479 0.69941 0.85616 0.0
C186 C 0.42422 0.73567 0.74743 0.0
C187 C 0.44381 0.7371 0.80081 0.0
C188 C 0.43856 0.71882 0.85515 0.0
C189 C 0.39586 0.69757 0.80397 0.0
C190 C 0.39971 0.71603 0.74975 0.0
H191 H 0.45481 0.71879 0.89386 0.0
H192 H 0.37846 0.68068 0.80297 0.0
H193 H 0.47022 0.6507 0.99818 0.0
H194 H 0.50301 0.63501 0.80883 0.0
H195 H 0.31501 0.72867 0.9625 0.0
H196 H 0.46344 0.7515 0.79955 0.0
H197 H 0.38455 0.71394 0.70854 0.0
C198 C 0.64627 0.56266 0.13229 0.0
C199 C 0.63857 0.53279 0.13168 0.0
N200 N 0.64397 0.52218 0.07144 0.0
N201 N 0.65688 0.57071 0.07301 0.0
C202 C 0.6551 0.54552 0.03659 0.0
H203 H 0.64439 0.57769 0.17347 0.0
Co204 Co 0.66922 0.6098 0.05498 0.0
C205 C 0.72427 0.60104 0.97316 0.0
O206 O 0.73929 0.6177 0.01492 0.0
N207 N 0.67965 0.65053 0.03866 0.0
C208 C 0.69552 0.69449 0.99866 0.0
C209 C 0.6946 0.66403 0.98895 0.0
C210 C 0.66979 0.67387 0.07501 0.0
N211 N 0.68007 0.70055 0.05316 0.0
O212 O 0.63663 0.614 0.9948 0.0
H213 H 0.70377 0.65311 0.94678 0.0
H214 H 0.65492 0.67158 0.11642 0.0
O215 O 0.6963 0.59562 0.98333 0.0
C216 C 0.61218 0.6209 0.02312 0.0
O217 O 0.61206 0.62463 0.08676 0.0
N218 N 0.69969 0.60539 0.11893 0.0
C219 C 0.73577 0.59426 0.22764 0.0
C220 C 0.73638 0.57487 0.17407 0.0
C221 C 0.71792 0.58072 0.12026 0.0
C222 C 0.69838 0.62374 0.17207 0.0
C223 C 0.71676 0.61906 0.22608 0.0
H224 H 0.71711 0.56454 0.08111 0.0
H225 H 0.68168 0.64087 0.17546 0.0
H226 H 0.66163 0.54427 0.98575 0.0
H227 H 0.62953 0.51983 0.17197 0.0
H228 H 0.70637 0.71103 0.96775 0.0
H229 H 0.75017 0.55492 0.17487 0.0
H230 H 0.715 0.63382 0.26789 0.0
C231 C 0.56341 0.36674 0.85423 0.0
C232 C 0.53353 0.37362 0.85904 0.0
N233 N 0.52549 0.37035 0.92172 0.0
N234 N 0.57425 0.35844 0.91346 0.0
C235 C 0.55048 0.36171 0.95408 0.0
H236 H 0.5763 0.36884 0.81 0.0
Co237 Co 0.61486 0.3491 0.93192 0.0
C238 C 0.58217 0.30076 0.01358 0.0
O239 O 0.55813 0.29926 0.97657 0.0
N240 N 0.65522 0.34092 0.94871 0.0
C241 C 0.69797 0.32369 0.99017 0.0
C242 C 0.6675 0.32579 -0.00062 0.0
C243 C 0.67872 0.34833 0.91011 0.0
N244 N 0.7049 0.33778 0.93394 0.0
O245 O 0.61593 0.38013 0.99593 0.0
H246 H 0.65528 0.31654 0.04037 0.0
H247 H 0.6767 0.36079 0.86485 0.0
O248 O 0.60345 0.31902 0.99915 0.0
C249 C 0.62354 0.40479 0.96876 0.0
O250 O 0.62854 0.40518 0.90551 0.0
N251 N 0.6155 0.3209 0.86464 0.0
C252 C 0.61661 0.28807 0.74972 0.0
C253 C 0.61185 0.27359 0.80975 0.0
C254 C 0.6118 0.2905 0.86728 0.0
C255 C 0.62268 0.33461 0.80713 0.0
C256 C 0.62278 0.31877 0.74882 0.0
H257 H 0.60927 0.279 0.91313 0.0
H258 H 0.62749 0.35841 0.80647 0.0
H259 H 0.5515 0.35823 0.00641 0.0
H260 H 0.51892 0.38104 0.81993 0.0
H261 H 0.71386 0.31251 0.02196 0.0
H262 H 0.60809 0.24958 0.81193 0.0
H263 H 0.62733 0.33042 0.70331 0.0
C264 C 0.89421 0.56525 0.63072 0.0
C265 C 0.90306 0.53617 0.64214 0.0
N266 N 0.88261 0.5229 0.68113 0.0
N267 N 0.8687 0.57084 0.66373 0.0
C268 C 0.86216 0.54448 0.69379 0.0
H269 H 0.90605 0.58152 0.60108 0.0
Co270 Co 0.85143 0.60933 0.66722 0.0
C271 C 0.79779 0.57964 0.74342 0.0
O272 O 0.78954 0.55946 0.70057 0.0
N273 N 0.83516 0.64861 0.67178 0.0
C274 C 0.80304 0.68661 0.68034 0.0
C275 C 0.80665 0.65613 0.68703 0.0
C276 C 0.84839 0.67511 0.65585 0.0
N277 N 0.82925 0.69839 0.66057 0.0
O278 O 0.87877 0.61913 0.73706 0.0
H279 H 0.78904 0.64046 0.69952 0.0
H280 H 0.87098 0.67722 0.63738 0.0
O281 O 0.82043 0.59687 0.73268 0.0
C282 C 0.90371 0.62955 0.71608 0.0
O283 O 0.90706 0.63407 0.65309 0.0
N284 N 0.82698 0.60034 0.59259 0.0
C285 C 0.79773 0.5906 0.47343 0.0
C286 C 0.80082 0.56725 0.51862 0.0
C287 C 0.8159 0.57249 0.57749 0.0
C288 C 0.82599 0.6224 0.54595 0.0
C289 C 0.81072 0.61836 0.48726 0.0
H290 H 0.81981 0.55349 0.6086 0.0
H291 H 0.83818 0.64305 0.55214 0.0
H292 H 0.84303 0.54101 0.72506 0.0
H293 H 0.92305 0.52555 0.62332 0.0
H294 H 0.78246 0.69906 0.68689 0.0
H295 H 0.79219 0.54505 0.50787 0.0
H296 H 0.80992 0.63652 0.45195 0.0
C297 C 0.56329 0.14571 0.39338 0.0
C298 C 0.53315 0.13931 0.38921 0.0
N299 N 0.52353 0.14781 0.32971 0.0
N300 N 0.57261 0.15814 0.33667 0.0
C301 C 0.5478 0.15912 0.29859 0.0
H302 H 0.57776 0.14053 0.4343 0.0
Co303 Co 0.61254 0.16716 0.31786 0.0
C304 C 0.61038 0.2231 0.23516 0.0
O305 O 0.63297 0.23398 0.26913 0.0
N306 N 0.65351 0.17508 0.29893 0.0
C307 C 0.69561 0.18367 0.24293 0.0
C308 C 0.66506 0.18008 0.23874 0.0
C309 C 0.67799 0.17408 0.33831 0.0
N310 N 0.70363 0.17986 0.30569 0.0
O311 O 0.61317 0.13542 0.25563 0.0
H312 H 0.65222 0.18054 0.19404 0.0
H313 H 0.67764 0.16869 0.38967 0.0
O314 O 0.59958 0.19718 0.25024 0.0
C315 C 0.62163 0.11187 0.28615 0.0
O316 O 0.6281 0.11382 0.34867 0.0
N317 N 0.61225 0.1952 0.38522 0.0
C318 C 0.61163 0.22742 0.50104 0.0
C319 C 0.59625 0.23818 0.44595 0.0
C320 C 0.59605 0.22107 0.38866 0.0
C321 C 0.62535 0.18369 0.43995 0.0
C322 C 0.62586 0.19965 0.49805 0.0
H323 H 0.58186 0.22785 0.34864 0.0
H324 H 0.63445 0.16127 0.43915 0.0
H325 H 0.54772 0.16663 0.24823 0.0
H326 H 0.51951 0.12834 0.42601 0.0
H327 H 0.7109 0.188 0.20291 0.0
H328 H 0.58383 0.25899 0.44799 0.0
H329 H 0.63676 0.19016 0.5407 0.0
C330 C 0.14863 0.46657 0.61183 0.0
C331 C 0.14018 0.49547 0.62472 0.0
N332 N 0.14721 0.5014 0.68719 0.0
N333 N 0.16081 0.45419 0.66605 0.0
C334 C 0.15966 0.47608 0.7116 0.0
H335 H 0.14626 0.45516 0.56551 0.0
Co336 Co 0.17497 0.41475 0.66547 0.0
C337 C 0.23124 0.42475 0.749 0.0
O338 O 0.24917 0.42269 0.69862 0.0
N339 N 0.18826 0.37441 0.66281 0.0
C340 C 0.21558 0.33333 0.64647 0.0
C341 C 0.21639 0.36384 0.65409 0.0
C342 C 0.17067 0.34958 0.65921 0.0
N343 N 0.18687 0.32448 0.64964 0.0
O344 O 0.14318 0.40273 0.72404 0.0
H345 H 0.23624 0.37727 0.64814 0.0
H346 H 0.14645 0.3499 0.66021 0.0
O347 O 0.2026 0.42265 0.74175 0.0
C348 C 0.11762 0.40235 0.69564 0.0
O349 O 0.1164 0.41111 0.63434 0.0
N350 N 0.20316 0.42624 0.60205 0.0
C351 C 0.23608 0.44275 0.49258 0.0
C352 C 0.236 0.46118 0.54788 0.0
C353 C 0.21911 0.45256 0.60237 0.0
C354 C 0.20147 0.40949 0.54651 0.0
C355 C 0.21847 0.41678 0.49209 0.0
H356 H 0.21843 0.46717 0.64443 0.0
H357 H 0.18636 0.3905 0.5438 0.0
H358 H 0.16759 0.47358 0.76133 0.0
H359 H 0.12987 0.5111 0.59092 0.0
H360 H 0.2344 0.31886 0.63592 0.0
H361 H 0.24862 0.48199 0.5486 0.0
H362 H 0.21726 0.40265 0.44913 0.0
C363 C 0.44635 0.89396 0.33701 0.0
C364 C 0.47582 0.9018 0.32698 0.0
N365 N 0.48935 0.87923 0.2952 0.0
N366 N 0.4408 0.86696 0.30979 0.0
C367 C 0.46767 0.85835 0.28565 0.0
H368 H 0.42999 0.90734 0.36241 0.0
Co369 Co 0.40258 0.84886 0.31008 0.0
C370 C 0.42015 0.79012 0.24012 0.0
O371 O 0.42143 0.77434 0.29423 0.0
N372 N 0.36346 0.83121 0.31153 0.0
C373 C 0.32645 0.7991 0.33532 0.0
C374 C 0.35675 0.80232 0.32621 0.0
C375 C 0.33639 0.84497 0.31164 0.0
N376 N 0.31367 0.826 0.3266 0.0
O377 O 0.39076 0.87595 0.24066 0.0
H378 H 0.37288 0.7852 0.33741 0.0
H379 H 0.33339 0.86881 0.30738 0.0
O380 O 0.41432 0.81836 0.2424 0.0
C381 C 0.38102 0.90103 0.26192 0.0
O382 O 0.37644 0.90407 0.32494 0.0
N383 N 0.41408 0.82582 0.38329 0.0
C384 C 0.42671 0.79871 0.50279 0.0
C385 C 0.44737 0.7972 0.45149 0.0
C386 C 0.44065 0.81107 0.39194 0.0
C387 C 0.39537 0.82986 0.43522 0.0
C388 C 0.40068 0.81566 0.49462 0.0
H389 H 0.45668 0.80941 0.35286 0.0
H390 H 0.37593 0.84411 0.43047 0.0
H391 H 0.47156 0.83708 0.26215 0.0
H392 H 0.48657 0.92246 0.34215 0.0
H393 H 0.31493 0.77907 0.35203 0.0
H394 H 0.46815 0.78494 0.45711 0.0
H395 H 0.38471 0.81808 0.53409 0.0
C396 C 0.87039 0.96042 0.63762 0.0
C397 C 0.8782 0.98998 0.62992 0.0
N398 N 0.87056 0.99849 0.5691 0.0
N399 N 0.85765 0.95009 0.58209 0.0
C400 C 0.8582 0.97391 0.54063 0.0
H401 H 0.87277 0.94739 0.68202 0.0
Co402 Co 0.84117 0.9111 0.58026 0.0
C403 C 0.7867 0.92546 0.49448 0.0
O404 O 0.76804 0.92578 0.54384 0.0
N405 N 0.82567 0.87133 0.58067 0.0
C406 C 0.79559 0.83139 0.5893 0.0
C407 C 0.79676 0.86194 0.58113 0.0
C408 C 0.84162 0.84576 0.58937 0.0
N409 N 0.82378 0.82132 0.59483 0.0
O410 O 0.87257 0.89836 0.52211 0.0
H411 H 0.77742 0.8762 0.57977 0.0
H412 H 0.86572 0.84511 0.59452 0.0
O413 O 0.81491 0.92095 0.50348 0.0
C414 C 0.89797 0.89603 0.5506 0.0
O415 O 0.89943 0.90277 0.61299 0.0
N416 N 0.81284 0.92325 0.64289 0.0
C417 C 0.78154 0.94239 0.75228 0.0
C418 C 0.78361 0.96089 0.69717 0.0
C419 C 0.79952 0.95089 0.64281 0.0
C420 C 0.81197 0.90575 0.69768 0.0
C421 C 0.79579 0.91453 0.75222 0.0
H422 H 0.80168 0.96559 0.60104 0.0
H423 H 0.82482 0.88528 0.70034 0.0
H424 H 0.84882 0.97363 0.49181 0.0
H425 H 0.88817 1.00443 0.66653 0.0
H426 H 0.77558 0.8177 0.59364 0.0
H427 H 0.77343 0.98292 0.69665 0.0
H428 H 0.7953 0.90015 0.79503 0.0
C429 C 0.95511 0.1225 0.39923 0.0
C430 C 0.98401 0.114 0.41327 0.0
N431 N 0.99736 0.13641 0.44631 0.0
N432 N 0.94971 0.14975 0.42523 0.0
C433 C 0.97618 0.15784 0.45251 0.0
H434 H 0.93904 0.10945 0.37179 0.0
Co435 Co 0.91238 0.16883 0.41825 0.0
C436 C 0.9272 0.22651 0.49745 0.0
O437 O 0.92996 0.24378 0.44583 0.0
N438 N 0.87412 0.18737 0.40901 0.0
C439 C 0.83879 0.2202 0.37963 0.0
C440 C 0.86871 0.21629 0.39249 0.0
C441 C 0.84674 0.17419 0.40509 0.0
N442 N 0.82503 0.19364 0.38738 0.0
O443 O 0.89661 0.14096 0.48353 0.0
H444 H 0.88562 0.23311 0.38387 0.0
H445 H 0.84289 0.15049 0.40948 0.0
O446 O 0.92194 0.1982 0.49088 0.0
C447 C 0.88659 0.11597 0.46165 0.0
O448 O 0.88412 0.11239 0.39817 0.0
N449 N 0.92781 0.19274 0.34993 0.0
C450 C 0.94555 0.22287 0.2371 0.0
C451 C 0.96341 0.22397 0.2934 0.0
C452 C 0.95413 0.20861 0.34956 0.0
C453 C 0.91208 0.18904 0.29325 0.0
C454 C 0.91997 0.20465 0.2369 0.0
H455 H 0.96787 0.21014 0.39271 0.0
H456 H 0.89277 0.1743 0.29211 0.0
H457 H 0.98021 0.1791 0.47586 0.0
H458 H 0.99452 0.09305 0.39985 0.0
H459 H 0.82818 0.24053 0.36218 0.0
H460 H 0.98385 0.23717 0.29433 0.0
H461 H 0.90617 0.20255 0.1935 0.0
C462 C 0.14237 0.06382 0.65376 0.0
C463 C 0.13352 0.03456 0.64691 0.0
N464 N 0.14075 0.02581 0.5863 0.0
N465 N 0.15532 0.07352 0.59784 0.0
C466 C 0.1538 0.04977 0.55699 0.0
H467 H 0.14015 0.0772 0.6975 0.0
Co468 Co 0.17123 0.11232 0.59363 0.0
C469 C 0.22854 0.09958 0.51639 0.0
O470 O 0.24542 0.10307 0.56828 0.0
N471 N 0.18602 0.1523 0.59231 0.0
C472 C 0.21404 0.19307 0.60985 0.0
C473 C 0.21406 0.16242 0.60544 0.0
C474 C 0.16928 0.17763 0.58996 0.0
N475 N 0.1859 0.20253 0.60029 0.0
O476 O 0.14083 0.12319 0.53091 0.0
H477 H 0.23304 0.14871 0.61759 0.0
H478 H 0.14517 0.17788 0.58499 0.0
O479 O 0.19975 0.10158 0.52058 0.0
C480 C 0.11513 0.12522 0.55798 0.0
O481 O 0.11349 0.12062 0.62134 0.0
N482 N 0.19811 0.10161 0.6602 0.0
C483 C 0.22825 0.08492 0.77317 0.0
C484 C 0.22831 0.06601 0.71876 0.0
C485 C 0.21289 0.07476 0.66248 0.0
C486 C 0.1963 0.11907 0.71462 0.0
C487 C 0.21197 0.11163 0.77096 0.0
H488 H 0.21231 0.05977 0.62107 0.0
H489 H 0.18211 0.13869 0.71482 0.0
H490 H 0.16235 0.04982 0.50757 0.0
H491 H 0.12303 0.02054 0.68372 0.0
H492 H 0.23281 0.20723 0.62346 0.0
H493 H 0.23997 0.04474 0.72004 0.0
H494 H 0.21075 0.1262 0.81317 0.0
C495 C 0.05771 0.89393 0.40099 0.0
C496 C 0.0279 0.9001 0.40971 0.0
N497 N 0.01569 0.87792 0.44579 0.0
N498 N 0.06471 0.86835 0.43273 0.0
C499 C 0.03848 0.85868 0.45849 0.0
H500 H 0.07365 0.90787 0.37511 0.0
Co501 Co 0.10453 0.85637 0.43728 0.0
C502 C 0.10683 0.79686 0.50597 0.0
O503 O 0.1241 0.78743 0.45831 0.0
N504 N 0.14562 0.8462 0.44058 0.0
C505 C 0.19068 0.83735 0.48345 0.0
C506 C 0.16082 0.84135 0.49679 0.0
C507 C 0.16716 0.84631 0.39382 0.0
N508 N 0.19464 0.8405 0.41869 0.0
O509 O 0.11104 0.88464 0.50622 0.0
H510 H 0.15088 0.84142 0.54497 0.0
H511 H 0.16329 0.85157 0.34296 0.0
O512 O 0.09559 0.82348 0.50275 0.0
C513 C 0.12237 0.90878 0.48323 0.0
O514 O 0.12962 0.90997 0.42109 0.0
N515 N 0.09777 0.83197 0.36504 0.0
C516 C 0.08978 0.80456 0.24462 0.0
C517 C 0.07947 0.79062 0.30189 0.0
C518 C 0.08239 0.80547 0.36154 0.0
C519 C 0.10562 0.84678 0.3093 0.0
C520 C 0.10167 0.83359 0.2484 0.0
H521 H 0.0722 0.79561 0.4042 0.0
H522 H 0.11504 0.86913 0.3124 0.0
H523 H 0.03625 0.8388 0.48824 0.0
H524 H 0.01616 0.91978 0.39221 0.0
H525 H 0.20837 0.83348 0.51878 0.0
H526 H 0.06903 0.76865 0.30034 0.0
H527 H 0.10879 0.8455 0.20481 0.0
C528 C 0.28674 0.11652 0.38678 0.0
C529 C 0.28314 0.09238 0.34245 0.0
C530 C 0.24365 0.07129 0.4139 0.0
C531 C 0.24442 0.09776 0.45226 0.0
N532 N 0.26213 0.1486 0.4646 0.0
N533 N 0.25699 0.04714 0.31165 0.0
C534 C 0.26475 0.12116 0.4357 0.0
C535 C 0.26116 0.06986 0.35543 0.0
N536 N 0.31111 0.1351 0.38285 0.0
N537 N 0.22718 0.04718 0.43453 0.0
H538 H 0.2709 0.04419 0.27119 0.0
H539 H 0.23911 0.03208 0.31399 0.0
H540 H 0.21433 0.04757 0.47702 0.0
H541 H 0.22805 0.02619 0.41242 0.0
H542 H 0.31599 0.1513 0.41796 0.0
H543 H 0.32834 0.13225 0.3493 0.0
H544 H 0.27435 0.16741 0.44989 0.0
H545 H 0.24507 0.15343 0.49744 0.0
C546 C 0.07281 0.77163 0.59025 0.0
C547 C 0.10193 0.77645 0.56376 0.0
C548 C 0.12134 0.73772 0.63883 0.0
C549 C 0.09388 0.7376 0.67342 0.0
N550 N 0.04327 0.75555 0.68374 0.0
N551 N 0.15537 0.76712 0.57341 0.0
C552 C 0.06954 0.75495 0.64958 0.0
C553 C 0.12657 0.76011 0.59052 0.0
N554 N 0.04814 0.78139 0.55701 0.0
N555 N 0.1427 0.71666 0.65213 0.0
H556 H 0.16094 0.7843 0.54121 0.0
H557 H 0.17404 0.75815 0.59704 0.0
H558 H 0.13949 0.69933 0.68559 0.0
H559 H 0.16204 0.71421 0.62416 0.0
H560 H 0.02625 0.77649 0.57131 0.0
H561 H 0.04962 0.79115 0.51087 0.0
H562 H 0.02598 0.77048 0.67325 0.0
H563 H 0.03946 0.74197 0.7246 0.0
C564 C 0.76134 0.95349 0.40295 0.0
C565 C 0.77319 0.92622 0.42795 0.0
C566 C 0.74381 0.89793 0.34733 0.0
C567 C 0.73405 0.92515 0.3184 0.0
N568 N 0.7357 0.97911 0.31382 0.0
N569 N 0.78095 0.87314 0.41486 0.0
C570 C 0.74349 0.95307 0.34485 0.0
C571 C 0.76605 0.89864 0.39721 0.0
N572 N 0.76686 0.97971 0.43536 0.0
N573 N 0.73126 0.87137 0.32819 0.0
H574 H 0.79819 0.87315 0.44923 0.0
H575 H 0.77866 0.85281 0.39036 0.0
H576 H 0.71395 0.87027 0.29405 0.0
H577 H 0.73548 0.85096 0.35131 0.0
H578 H 0.75622 0.99987 0.4244 0.0
H579 H 0.78129 0.98097 0.47551 0.0
H580 H 0.74452 1.00002 0.32598 0.0
H581 H 0.72133 0.97956 0.27349 0.0
C582 C 0.95231 0.25808 0.66238 0.0
C583 C 0.92878 0.27838 0.67691 0.0
C584 C 0.90366 0.26401 0.57443 0.0
C585 C 0.92591 0.24172 0.56287 0.0
N586 N 0.96759 0.21331 0.60485 0.0
N587 N 0.87896 0.2964 0.65222 0.0
C588 C 0.94907 0.23746 0.60964 0.0
C589 C 0.9037 0.28039 0.6342 0.0
N590 N 0.97827 0.25914 0.69797 0.0
N591 N 0.88212 0.26952 0.52844 0.0
H592 H 0.87777 0.30897 0.69485 0.0
H593 H 0.85856 0.29536 0.62747 0.0
H594 H 0.8789 0.25602 0.48774 0.0
H595 H 0.86828 0.28829 0.52926 0.0
H596 H 0.99739 0.24703 0.68586 0.0
H597 H 0.98175 0.27455 0.73555 0.0
H598 H 0.98323 0.20749 0.64054 0.0
H599 H 0.96479 0.1971 0.56905 0.0
C600 C 0.2673 0.45292 0.90761 0.0
C601 C 0.2849 0.42744 0.92461 0.0
C602 C 0.26111 0.39914 0.8358 0.0
C603 C 0.24571 0.42521 0.81478 0.0
N604 N 0.23698 0.47821 0.82521 0.0
N605 N 0.30346 0.37854 0.89428 0.0
C606 C 0.24954 0.45252 0.84927 0.0
C607 C 0.28342 0.4013 0.88528 0.0
N608 N 0.26752 0.47747 0.94743 0.0
N609 N 0.25354 0.37192 0.81003 0.0
H610 H 0.3208 0.37944 0.92827 0.0
H611 H 0.30506 0.36025 0.86293 0.0
H612 H 0.23606 0.36944 0.77665 0.0
H613 H 0.26188 0.35162 0.82753 0.0
H614 H 0.25274 0.49536 0.94225 0.0
H615 H 0.28174 0.47931 0.9878 0.0
H616 H 0.24154 0.49947 0.84376 0.0
H617 H 0.22327 0.47839 0.78384 0.0
C618 C 0.40605 0.74537 0.1723 0.0
C619 C 0.42173 0.77316 0.1768 0.0
C620 C 0.445 0.76231 0.07041 0.0
C621 C 0.43397 0.73233 0.07355 0.0
N622 N 0.4068 0.69422 0.13348 0.0
N623 N 0.45698 0.80805 0.12852 0.0
C624 C 0.41508 0.7236 0.12589 0.0
C625 C 0.44125 0.7818 0.12508 0.0
N626 N 0.38161 0.74016 0.21087 0.0
N627 N 0.4579 0.77269 0.01412 0.0
H628 H 0.45321 0.82407 0.1642 0.0
H629 H 0.47469 0.81332 0.09735 0.0
H630 H 0.46012 0.75959 0.97234 0.0
H631 H 0.46354 0.79513 0.00645 0.0
H632 H 0.36772 0.72146 0.20562 0.0
H633 H 0.37305 0.75639 0.24207 0.0
H634 H 0.39565 0.68626 0.17481 0.0
H635 H 0.41362 0.67722 0.10201 0.0
C636 C 0.76933 0.57814 0.91972 0.0
C637 C 0.74032 0.59101 0.91265 0.0
C638 C 0.74815 0.59373 0.79339 0.0
C639 C 0.77837 0.58424 0.80192 0.0
N640 N 0.81867 0.56945 0.87354 0.0
N641 N 0.70243 0.61251 0.84194 0.0
C642 C 0.78923 0.5771 0.86525 0.0
C643 C 0.7296 0.59876 0.84916 0.0
N644 N 0.77736 0.56568 0.97832 0.0
N645 N 0.73709 0.59815 0.73167 0.0
H646 H 0.68696 0.61486 0.87946 0.0
H647 H 0.69554 0.62305 0.79902 0.0
H648 H 0.75039 0.59788 0.68983 0.0
H649 H 0.71437 0.60062 0.72128 0.0
H650 H 0.79685 0.55331 0.98549 0.0
H651 H 0.76296 0.56496 0.01837 0.0
H652 H 0.82894 0.56751 0.9191 0.0
H653 H 0.83358 0.56703 0.83474 0.0
C654 C 0.59429 0.22941 0.11594 0.0
C655 C 0.59811 0.24166 0.17969 0.0
C656 C 0.58988 0.29247 0.13451 0.0
C657 C 0.5855 0.28019 0.07124 0.0
N658 N 0.57712 0.2362 0.00447 0.0
N659 N 0.59129 0.28401 0.2514 0.0
C660 C 0.58543 0.24845 0.06299 0.0
C661 C 0.59355 0.27297 0.18935 0.0
N662 N 0.60105 0.20001 0.10433 0.0
N663 N 0.59052 0.32292 0.14255 0.0
H664 H 0.59287 0.27059 0.29292 0.0
H665 H 0.58472 0.30586 0.26196 0.0
H666 H 0.58498 0.33807 0.10555 0.0
H667 H 0.59803 0.33329 0.18512 0.0
H668 H 0.60313 0.19107 0.05761 0.0
H669 H 0.60676 0.18471 0.14062 0.0
H670 H 0.57265 0.21343 0.99839 0.0
H671 H 0.57237 0.24875 0.96283 0.0
C672 C 0.34728 0.28362 0.18077 0.0
C673 C 0.34442 0.29004 0.11311 0.0
C674 C 0.34079 0.23633 0.08924 0.0
C675 C 0.34399 0.22985 0.15681 0.0
N676 N 0.35792 0.2462 0.26422 0.0
N677 N 0.34655 0.27309 0.00219 0.0
C678 C 0.34993 0.25326 0.20162 0.0
C679 C 0.34405 0.26644 0.06712 0.0
N680 N 0.34542 0.30628 0.22525 0.0
N681 N 0.33247 0.21418 0.04698 0.0
H682 H 0.34912 0.2951 0.98542 0.0
H683 H 0.34899 0.25685 0.96611 0.0
H684 H 0.32884 0.19214 0.06193 0.0
H685 H 0.32674 0.21813 0.99834 0.0
H686 H 0.3441 0.30269 0.27549 0.0
H687 H 0.34292 0.32866 0.21168 0.0
H688 H 0.36503 0.26206 0.29822 0.0
H689 H 0.36012 0.22401 0.27996 0.0
C690 C 0.2359 0.67671 0.9292 0.0
C691 C 0.2282 0.67849 0.86206 0.0
C692 C 0.28136 0.68078 0.83254 0.0
C693 C 0.28913 0.67867 0.89964 0.0
N694 N 0.27487 0.66778 0.01014 0.0
N695 N 0.24266 0.675 0.74967 0.0
C696 C 0.26662 0.67424 0.94739 0.0
C697 C 0.25078 0.67793 0.8137 0.0
N698 N 0.21405 0.67931 0.97545 0.0
N699 N 0.30289 0.68763 0.78749 0.0
H700 H 0.22025 0.67291 0.73537 0.0
H701 H 0.25797 0.67189 0.71195 0.0
H702 H 0.32531 0.69082 0.8 0.0
H703 H 0.29821 0.69252 0.73874 0.0
H704 H 0.21848 0.68148 0.0252 0.0
H705 H 0.19141 0.68133 0.96361 0.0
H706 H 0.2597 0.66176 0.04657 0.0
H707 H 0.29732 0.66587 0.02406 0.0
C708 C 0.6882 0.76533 0.16997 0.0
C709 C 0.67861 0.78915 0.1293 0.0
C710 C 0.6624 0.75281 0.04678 0.0
C711 C 0.67665 0.72966 0.08259 0.0
N712 N 0.70648 0.71432 0.17518 0.0
N713 N 0.65959 0.80614 0.02519 0.0
C714 C 0.6901 0.73588 0.14398 0.0
C715 C 0.66606 0.78309 0.06693 0.0
N716 N 0.69568 0.77114 0.23341 0.0
N717 N 0.64534 0.74565 0.99357 0.0
H718 H 0.66279 0.82859 0.03733 0.0
H719 H 0.65342 0.80295 0.97657 0.0
H720 H 0.64227 0.72353 0.97834 0.0
H721 H 0.63209 0.76116 0.96871 0.0
H722 H 0.70041 0.75442 0.26755 0.0
H723 H 0.69426 0.79265 0.25321 0.0
H724 H 0.71928 0.71846 0.21685 0.0
H725 H 0.70955 0.69289 0.15624 0.0
C726 C 0.78794 0.35 0.92242 0.0
C727 C 0.79433 0.3364 0.86145 0.0
C728 C 0.7409 0.32536 0.84572 0.0
C729 C 0.73441 0.34 0.90546 0.0
N730 N 0.75036 0.37275 0.99185 0.0
N731 N 0.77682 0.3177 0.75834 0.0
C732 C 0.75757 0.35452 0.94082 0.0
C733 C 0.77064 0.32633 0.82081 0.0
N734 N 0.81071 0.35671 0.9647 0.0
N735 N 0.7192 0.30887 0.81507 0.0
H736 H 0.79849 0.31856 0.73919 0.0
H737 H 0.76029 0.31256 0.72406 0.0
H738 H 0.69744 0.30676 0.83302 0.0
H739 H 0.72345 0.29518 0.77502 0.0
H740 H 0.80715 0.36372 0.01257 0.0
H741 H 0.83318 0.35276 0.9541 0.0
H742 H 0.76598 0.3862 0.01599 0.0
H743 H 0.7282 0.3766 0.00565 0.0
C744 C 0.82913 0.76904 0.55902 0.0
C745 C 0.83191 0.79071 0.60902 0.0
C746 C 0.841 0.75076 0.6894 0.0
C747 C 0.83403 0.72915 0.64118 0.0
N748 N 0.82053 0.7168 0.5308 0.0
N749 N 0.8393 0.8031 0.72214 0.0
C750 C 0.82827 0.73803 0.5758 0.0
C751 C 0.83806 0.78184 0.67428 0.0
N752 N 0.82718 0.77846 0.49559 0.0
N753 N 0.85015 0.74126 0.74971 0.0
H754 H 0.83734 0.82597 0.71223 0.0
H755 H 0.84059 0.79814 0.77179 0.0
H756 H 0.85193 0.71854 0.76154 0.0
H757 H 0.85807 0.75557 0.786 0.0
H758 H 0.82744 0.76406 0.45565 0.0
H759 H 0.82771 0.80116 0.48287 0.0
H760 H 0.81304 0.72174 0.4838 0.0
H761 H 0.82005 0.69396 0.54193 0.0
C762 C 0.77119 0.2029 0.40528 0.0
C763 C 0.79409 0.18734 0.37175 0.0
C764 C 0.75596 0.16189 0.30566 0.0
C765 C 0.7337 0.181 0.33171 0.0
N766 N 0.72087 0.22301 0.40005 0.0
N767 N 0.80864 0.15589 0.2815 0.0
C768 C 0.74142 0.20229 0.38037 0.0
C769 C 0.78662 0.16764 0.31986 0.0
N770 N 0.77797 0.21795 0.46142 0.0
N771 N 0.74766 0.13789 0.26843 0.0
H772 H 0.83129 0.1609 0.28795 0.0
H773 H 0.80418 0.14369 0.2392 0.0
H774 H 0.72523 0.13253 0.25942 0.0
H775 H 0.76275 0.12165 0.25271 0.0
H776 H 0.76179 0.22755 0.49138 0.0
H777 H 0.79956 0.21818 0.48125 0.0
H778 H 0.72613 0.24083 0.43091 0.0
H779 H 0.69927 0.22416 0.38072 0.0
C780 C 0.17356 0.27409 0.68926 0.0
C781 C 0.17651 0.29453 0.63669 0.0
C782 C 0.17617 0.25323 0.55812 0.0
C783 C 0.17599 0.23275 0.61099 0.0
N784 N 0.16773 0.22216 0.72447 0.0
N785 N 0.17388 0.3053 0.52204 0.0
C786 C 0.17205 0.24281 0.67594 0.0
C787 C 0.17521 0.28454 0.57117 0.0
N788 N 0.17408 0.28478 0.75172 0.0
N789 N 0.17904 0.24246 0.49605 0.0
H790 H 0.1734 0.3283 0.53142 0.0
H791 H 0.17126 0.3 0.47289 0.0
H792 H 0.17907 0.2195 0.4861 0.0
H793 H 0.1821 0.25588 0.4549 0.0
H794 H 0.17484 0.27129 0.79326 0.0
H795 H 0.17453 0.30772 0.76182 0.0
H796 H 0.16299 0.22759 0.77275 0.0
H797 H 0.16693 0.19917 0.7151 0.0
C798 C 0.25931 0.8175 0.31098 0.0
C799 C 0.28298 0.83318 0.3425 0.0
C800 C 0.24606 0.86013 0.40778 0.0
C801 C 0.22324 0.84049 0.38567 0.0
N802 N 0.20856 0.79818 0.31978 0.0
N803 N 0.29882 0.86545 0.43097 0.0
C804 C 0.22983 0.81872 0.33748 0.0
C805 C 0.27641 0.85374 0.39321 0.0
N806 N 0.26512 0.80166 0.2555 0.0
N807 N 0.23855 0.88504 0.44247 0.0
H808 H 0.32123 0.8595 0.42585 0.0
H809 H 0.29473 0.87841 0.4723 0.0
H810 H 0.21624 0.89075 0.45075 0.0
H811 H 0.25404 0.90152 0.45571 0.0
H812 H 0.24841 0.79179 0.22705 0.0
H813 H 0.28645 0.80102 0.23463 0.0
H814 H 0.21303 0.77993 0.2897 0.0
H815 H 0.187 0.79797 0.33934 0.0
C816 C 0.24057 0.07659 0.95344 0.0
C817 C 0.27229 0.07796 0.95664 0.0
C818 C 0.27568 0.07785 0.83757 0.0
C819 C 0.24394 0.07683 0.83431 0.0
N820 N 0.19698 0.06531 0.8869 0.0
N821 N 0.31986 0.0696 0.90414 0.0
C822 C 0.22667 0.07268 0.89174 0.0
C823 C 0.28979 0.07497 0.89929 0.0
N824 N 0.2237 0.08098 0.00826 0.0
N825 N 0.29227 0.08362 0.7828 0.0
H826 H 0.33069 0.06701 0.94908 0.0
H827 H 0.33329 0.06466 0.86399 0.0
H828 H 0.28287 0.08621 0.73647 0.0
H829 H 0.31521 0.08809 0.78412 0.0
H830 H 0.20051 0.08364 0.00712 0.0
H831 H 0.23301 0.0842 0.0545 0.0
H832 H 0.18381 0.05953 0.92706 0.0
H833 H 0.18639 0.06201 0.84191 0.0
C834 C 0.11598 0.78504 0.14508 0.0
C835 C 0.08905 0.78863 0.18102 0.0
C836 C 0.06253 0.7573 0.10155 0.0
C837 C 0.08871 0.7567 0.06216 0.0
N838 N 0.1373 0.77818 0.03794 0.0
N839 N 0.03495 0.78488 0.18321 0.0
C840 C 0.11444 0.77332 0.08113 0.0
C841 C 0.0617 0.77686 0.15611 0.0
N842 N 0.14322 0.79115 0.17291 0.0
N843 N 0.03914 0.73822 0.08947 0.0
H844 H 0.03336 0.80016 0.22153 0.0
H845 H 0.01433 0.77886 0.16295 0.0
H846 H 0.03928 0.72249 0.0519 0.0
H847 H 0.02091 0.73598 0.12094 0.0
H848 H 0.16347 0.78624 0.14997 0.0
H849 H 0.14574 0.79775 0.22147 0.0
H850 H 0.15543 0.79224 0.04827 0.0
H851 H 0.13642 0.77092 0.98952 0.0
C852 C 0.72042 0.95584 0.87706 0.0
C853 C 0.73784 0.95228 0.93452 0.0
C854 C 0.78358 0.95614 0.86979 0.0
C855 C 0.76617 0.95222 0.81243 0.0
N856 N 0.7177 0.94797 0.76028 0.0
N857 N 0.78632 0.94865 0.98678 0.0
C858 C 0.73443 0.95268 0.81536 0.0
C859 C 0.76958 0.95304 0.93157 0.0
N860 N 0.69046 0.9617 0.88196 0.0
N861 N 0.81352 0.96233 0.86476 0.0
H862 H 0.77695 0.94635 0.03314 0.0
H863 H 0.80943 0.94536 0.98608 0.0
H864 H 0.82417 0.96487 0.81965 0.0
H865 H 0.82696 0.96786 0.90467 0.0
H866 H 0.67698 0.96696 0.84192 0.0
H867 H 0.67983 0.96425 0.92703 0.0
H868 H 0.69459 0.94449 0.76105 0.0
H869 H 0.72709 0.94554 0.714 0.0
C870 C 0.95762 0.22544 0.11801 0.0
C871 C 0.95291 0.24067 0.17784 0.0
C872 C 0.955 0.28859 0.11967 0.0
C873 C 0.95271 0.27308 0.05953 0.0
N874 N 0.94946 0.22605 0.0012 0.0
N875 N 0.94393 0.28726 0.23505 0.0
C876 C 0.9539 0.24127 0.0583 0.0
C877 C 0.95126 0.27247 0.1789 0.0
N878 N 0.96546 0.19584 0.11848 0.0
N879 N 0.96044 0.31878 0.11991 0.0
H880 H 0.93993 0.27646 0.27942 0.0
H881 H 0.93919 0.31013 0.23625 0.0
H882 H 0.96366 0.33106 0.07693 0.0
H883 H 0.96486 0.33082 0.16245 0.0
H884 H 0.97167 0.18424 0.07652 0.0
H885 H 0.96876 0.18384 0.1618 0.0
H886 H 0.94671 0.20284 0.99923 0.0
H887 H 0.94607 0.23665 0.95634 0.0
C888 C 0.2846 0.44752 0.43103 0.0
C889 C 0.25299 0.4506 0.43278 0.0
C890 C 0.25055 0.4499 0.31357 0.0
C891 C 0.28216 0.4466 0.31168 0.0
N892 N 0.32979 0.45242 0.36628 0.0
N893 N 0.2075 0.46488 0.37758 0.0
C894 C 0.29938 0.44892 0.36982 0.0
C895 C 0.23658 0.45547 0.37441 0.0
N896 N 0.30029 0.44128 0.48685 0.0
N897 N 0.23363 0.44559 0.25858 0.0
H898 H 0.1969 0.4693 0.42198 0.0
H899 H 0.19512 0.4712 0.33657 0.0
H900 H 0.2428 0.4406 0.2131 0.0
H901 H 0.2103 0.44446 0.25919 0.0
H902 H 0.32285 0.43527 0.48687 0.0
H903 H 0.29037 0.44006 0.53285 0.0
H904 H 0.3432 0.4568 0.40693 0.0
H905 H 0.34114 0.45402 0.32183 0.0
C906 C 0.43304 0.79934 0.62432 0.0
C907 C 0.43177 0.78268 0.56538 0.0
C908 C 0.4355 0.73615 0.62809 0.0
C909 C 0.43041 0.75248 0.68635 0.0
N910 N 0.4213 0.79989 0.73965 0.0
N911 N 0.42751 0.73454 0.51152 0.0
C912 C 0.4287 0.78424 0.68471 0.0
C913 C 0.43221 0.75086 0.56711 0.0
N914 N 0.4386 0.82949 0.62246 0.0
N915 N 0.44364 0.70665 0.63113 0.0
H916 H 0.42381 0.74423 0.46581 0.0
H917 H 0.42444 0.71135 0.5119 0.0
H918 H 0.44697 0.69537 0.67533 0.0
H919 H 0.45019 0.69446 0.59021 0.0
H920 H 0.44237 0.84227 0.66425 0.0
H921 H 0.44254 0.84106 0.57885 0.0
H922 H 0.41658 0.82276 0.73917 0.0
H923 H 0.41736 0.78966 0.78474 0.0
C924 C 0.73647 0.58001 0.34572 0.0
C925 C 0.75268 0.58759 0.28837 0.0
C926 C 0.79935 0.58791 0.3513 0.0
C927 C 0.78241 0.58599 0.40984 0.0
N928 N 0.7343 0.58295 0.46365 0.0
N929 N 0.79939 0.60096 0.23629 0.0
C930 C 0.75081 0.58239 0.40742 0.0
C931 C 0.78418 0.59179 0.2908 0.0
N932 N 0.70741 0.57035 0.34096 0.0
N933 N 0.82989 0.58569 0.35365 0.0
H934 H 0.7891 0.60393 0.19093 0.0
H935 H 0.82177 0.60774 0.23711 0.0
H936 H 0.84162 0.58237 0.39726 0.0
H937 H 0.84327 0.58416 0.31212 0.0
H938 H 0.69534 0.56185 0.38048 0.0
H939 H 0.69639 0.568 0.29621 0.0
H940 H 0.71097 0.58391 0.46406 0.0
H941 H 0.74385 0.58491 0.50999 0.0
C942 C 0.64185 0.26731 0.65065 0.0
C943 C 0.61521 0.2715 0.68718 0.0
C944 C 0.58608 0.24569 0.60264 0.0
C945 C 0.61221 0.24422 0.56333 0.0
N946 N 0.66382 0.25815 0.54442 0.0
N947 N 0.56115 0.26969 0.69343 0.0
C948 C 0.6398 0.25638 0.58576 0.0
C949 C 0.58705 0.26209 0.66197 0.0
N950 N 0.66913 0.27296 0.67875 0.0
N951 N 0.5607 0.23048 0.58466 0.0
H952 H 0.56084 0.28168 0.73711 0.0
H953 H 0.53991 0.26634 0.67342 0.0
H954 H 0.55906 0.2181 0.54162 0.0
H955 H 0.54214 0.22801 0.61505 0.0
H956 H 0.68945 0.26748 0.65692 0.0
H957 H 0.67143 0.28058 0.72665 0.0
H958 H 0.68359 0.26949 0.55588 0.0
H959 H 0.66303 0.25065 0.49617 0.0
C960 C 0.40484 0.97617 0.19972 0.0
C961 C 0.37675 0.99052 0.19204 0.0
C962 C 0.35097 0.9427 0.21242 0.0
C963 C 0.37913 0.92846 0.22065 0.0
N964 N 0.43228 0.92932 0.20061 0.0
N965 N 0.32367 0.98633 0.17357 0.0
C966 C 0.40592 0.94447 0.20709 0.0
C967 C 0.3499 0.97343 0.19328 0.0
N968 N 0.43037 0.99311 0.20281 0.0
N969 N 0.32527 0.92676 0.2233 0.0
H970 H 0.32258 1.00846 0.15727 0.0
H971 H 0.30366 0.97454 0.16777 0.0
H972 H 0.32542 0.90356 0.22969 0.0
H973 H 0.30414 0.93648 0.22694 0.0
H974 H 0.4513 0.98437 0.21488 0.0
H975 H 0.43012 0.01645 0.19912 0.0
H976 H 0.45229 0.93945 0.18619 0.0
H977 H 0.43329 0.90598 0.20221 0.0
C978 C 0.94173 0.66358 0.76792 0.0
C979 C 0.93024 0.6341 0.7589 0.0
C980 C 0.97829 0.61298 0.79438 0.0
C981 C 0.98961 0.64234 0.8046 0.0
N982 N 0.98087 0.69526 0.81411 0.0
N983 N 0.93485 0.58094 0.7778 0.0
C984 C 0.97093 0.66761 0.79509 0.0
C985 C 0.94764 0.60884 0.77708 0.0
N986 N 0.92478 0.68766 0.74962 0.0
N987 N 0.99737 0.58915 0.79831 0.0
H988 H 0.91236 0.57729 0.76652 0.0
H989 H 0.94555 0.5619 0.79579 0.0
H990 H 0.02004 0.59169 0.80946 0.0
H991 H 0.99151 0.56738 0.78497 0.0
H992 H 0.93298 0.70954 0.74709 0.0
H993 H 0.90249 0.68549 0.7348 0.0
H994 H 0.96749 0.71435 0.81441 0.0
H995 H 1.00206 0.6987 0.83448 0.0
C996 C 0.64986 0.04569 0.18676 0.0
C997 C 0.63086 0.02266 0.21087 0.0
C998 C 0.60319 0.05907 0.27649 0.0
C999 C 0.62311 0.08203 0.25478 0.0
N1000 N 0.66755 0.09706 0.19607 0.0
N1001 N 0.59115 1.00576 0.28074 0.0
C1002 C 0.64691 0.07538 0.21122 0.0
C1003 C 0.60799 0.02893 0.25644 0.0
N1004 N 0.67061 0.03894 0.14004 0.0
N1005 N 0.57934 0.06636 0.31523 0.0
H1006 H 0.59373 0.98368 0.26501 0.0
H1007 H 0.57584 1.00783 0.31872 0.0
H1008 H 0.57537 0.08814 0.33133 0.0
H1009 H 0.56232 0.05151 0.3282 0.0
H1010 H 0.68295 0.05496 0.11445 0.0
H1011 H 0.67452 0.01704 0.12445 0.0
H1012 H 0.68733 0.09301 0.17077 0.0
H1013 H 0.66582 0.11909 0.21231 0.0
C1014 C 0.06634 0.37926 0.6867 0.0
C1015 C 0.08933 0.39139 0.72738 0.0
C1016 C 0.05518 0.38487 0.81999 0.0
C1017 C 0.03058 0.3809 0.77653 0.0
N1018 N 0.01338 0.38115 0.66426 0.0
N1019 N 0.10257 0.41009 0.8353 0.0
C1020 C 0.03624 0.37977 0.70855 0.0
C1021 C 0.08314 0.39522 0.79507 0.0
N1022 N 0.0731 0.36647 0.62804 0.0
N1023 N 0.05216 0.37803 0.88467 0.0
H1024 H 0.12238 0.42009 0.81951 0.0
H1025 H 0.09718 0.41532 0.88351 0.0
H1026 H 0.03274 0.36812 0.90338 0.0
H1027 H 0.07015 0.37862 0.91729 0.0
H1028 H 0.05693 0.35588 0.59918 0.0
H1029 H 0.09512 0.36281 0.61298 0.0
H1030 H 0.01721 0.38252 0.61404 0.0
H1031 H 0.99117 0.38481 0.6775 0.0
C1032 C 0.3654 0.56691 0.97401 0.0
C1033 C 0.39047 0.58467 0.99403 0.0
C1034 C 0.39684 0.55154 0.08849 0.0
C1035 C 0.37787 0.53001 0.05853 0.0
N1036 N 0.32987 0.52831 0.00578 0.0
N1037 N 0.43088 0.59287 0.07148 0.0
C1038 C 0.35787 0.54059 0.01004 0.0
C1039 C 0.4062 0.57699 0.05212 0.0
N1040 N 0.34869 0.57503 0.92084 0.0
N1041 N 0.40209 0.55019 0.15406 0.0
H1042 H 0.43923 0.61128 0.04583 0.0
H1043 H 0.44451 0.58593 0.11011 0.0
H1044 H 0.39015 0.53544 0.1841 0.0
H1045 H 0.41397 0.56672 0.17927 0.0
H1046 H 0.33298 0.56083 0.89912 0.0
H1047 H 0.35126 0.59547 0.89677 0.0
H1048 H 0.3131 0.53639 0.97501 0.0
H1049 H 0.32211 0.51307 0.04076 0.0
C1050 C 0.56568 0.60079 0.96975 0.0
C1051 C 0.58399 0.62577 0.98627 0.0
C1052 C 0.54476 0.66016 0.94824 0.0
C1053 C 0.5255 0.63531 0.93801 0.0
N1054 N 0.51569 0.58246 0.94265 0.0
N1055 N 0.59102 0.67926 0.99515 0.0
C1056 C 0.53551 0.60569 0.94944 0.0
C1057 C 0.57356 0.65551 0.97637 0.0
N1058 N 0.57725 0.57248 0.97318 0.0
N1059 N 0.53558 0.68811 0.92937 0.0
H1060 H 0.6129 0.67672 0.01226 0.0
H1061 H 0.58351 0.70133 0.9967 0.0
H1062 H 0.51443 0.69211 0.9094 0.0
H1063 H 0.54945 0.70693 0.9291 0.0
H1064 H 0.5661 0.55342 0.95658 0.0
H1065 H 0.59917 0.56826 0.9883 0.0
H1066 H 0.52033 0.56042 0.95611 0.0
H1067 H 0.49359 0.5857 0.92736 0.0
C1068 C 0.66376 0.47301 0.03781 0.0
C1069 C 0.63895 0.49186 0.04983 0.0
C1070 C 0.6044 0.45022 0.02674 0.0
C1071 C 0.62905 0.4326 0.00643 0.0
N1072 N 0.6823 0.42679 0.99077 0.0
N1073 N 0.58572 0.50006 0.05082 0.0
C1074 C 0.65882 0.44386 0.0117 0.0
C1075 C 0.60924 0.48081 0.04359 0.0
N1076 N 0.69194 0.48276 0.05356 0.0
N1077 N 0.57643 0.43768 0.02985 0.0
H1078 H 0.58866 0.52262 0.0626 0.0
H1079 H 0.56357 0.49442 0.04019 0.0
H1080 H 0.57224 0.4154 0.01746 0.0
H1081 H 0.55794 0.44842 0.04995 0.0
H1082 H 0.71089 0.46923 0.05206 0.0
H1083 H 0.69605 0.50392 0.07339 0.0
H1084 H 0.70408 0.4349 0.98553 0.0
H1085 H 0.6797 0.40457 0.97599 0.0
C1086 C 0.45636 0.41049 0.97959 0.0
C1087 C 0.43739 0.38575 0.99431 0.0
C1088 C 0.47597 0.35097 0.95537 0.0
C1089 C 0.49595 0.37546 0.94754 0.0
N1090 N 0.5067 0.42812 0.95389 0.0
N1091 N 0.42844 0.33247 0.99743 0.0
C1092 C 0.48647 0.40518 0.95977 0.0
C1093 C 0.44696 0.35595 0.98216 0.0
N1094 N 0.44537 0.439 0.98397 0.0
N1095 N 0.48466 0.32313 0.9353 0.0
H1096 H 0.40629 0.33551 0.01213 0.0
H1097 H 0.4351 0.31012 0.99747 0.0
H1098 H 0.50587 0.31903 0.91595 0.0
H1099 H 0.47045 0.30457 0.93361 0.0
H1100 H 0.45707 0.45809 0.96927 0.0
H1101 H 0.4233 0.44346 0.99741 0.0
H1102 H 0.50254 0.45008 0.96826 0.0
H1103 H 0.52865 0.42472 0.93811 0.0
C1104 C 0.87191 0.45515 0.78947 0.0
C1105 C 0.88711 0.43239 0.75394 0.0
C1106 C 0.89075 0.46816 0.66271 0.0
C1107 C 0.88297 0.49218 0.70491 0.0
N1108 N 0.87383 0.50759 0.81638 0.0
N1109 N 0.91587 0.42051 0.65612 0.0
C1110 C 0.87556 0.48548 0.77061 0.0
C1111 C 0.89781 0.43958 0.69002 0.0
N1112 N 0.85343 0.44801 0.84034 0.0
N1113 N 0.8904 0.47217 0.5966 0.0
H1114 H 0.92342 0.40004 0.67393 0.0
H1115 H 0.92601 0.42669 0.61217 0.0
H1116 H 0.88287 0.49194 0.57481 0.0
H1117 H 0.8938 0.45459 0.56394 0.0
H1118 H 0.84082 0.46414 0.86475 0.0
H1119 H 0.84765 0.42592 0.85177 0.0
H1120 H 0.87022 0.50296 0.86579 0.0
H1121 H 0.88 0.52973 0.80679 0.0
C1122 C 0.48883 0.11589 0.26641 0.0
C1123 C 0.49409 0.14223 0.30318 0.0
C1124 C 0.4412 0.15656 0.29134 0.0
C1125 C 0.43579 0.1296 0.25641 0.0
N1126 N 0.45247 0.08083 0.22192 0.0
N1127 N 0.47566 0.18588 0.35815 0.0
C1128 C 0.45908 0.10844 0.24722 0.0
C1129 C 0.47027 0.162 0.31808 0.0
N1130 N 0.51249 0.09832 0.24893 0.0
N1131 N 0.41893 0.17741 0.29651 0.0
H1132 H 0.49706 0.191 0.37569 0.0
H1133 H 0.45891 0.19959 0.37682 0.0
H1134 H 0.39721 0.1737 0.27928 0.0
H1135 H 0.4222 0.19893 0.31483 0.0
H1136 H 0.51087 0.08046 0.21646 0.0
H1137 H 0.53442 0.10305 0.2632 0.0
H1138 H 0.46774 0.06327 0.21952 0.0
H1139 H 0.43075 0.07448 0.2088 0.0
C1140 C 0.11596 0.53316 0.75748 0.0
C1141 C 0.14207 0.52956 0.71931 0.0
C1142 C 0.15465 0.58291 0.73253 0.0
C1143 C 0.12782 0.5868 0.76884 0.0
N1144 N 0.08067 0.56727 0.80805 0.0
N1145 N 0.18531 0.55007 0.66556 0.0
C1146 C 0.10789 0.56229 0.7794 0.0
C1147 C 0.16115 0.55425 0.70547 0.0
N1148 N 0.09898 0.50852 0.77259 0.0
N1149 N 0.17438 0.60629 0.72605 0.0
H1150 H 0.19155 0.52893 0.6487 0.0
H1151 H 0.19845 0.56741 0.6469 0.0
H1152 H 0.16974 0.62787 0.74239 0.0
H1153 H 0.19589 0.60425 0.70702 0.0
H1154 H 0.08129 0.50865 0.80567 0.0
H1155 H 0.1038 0.48716 0.75486 0.0
H1156 H 0.06384 0.55116 0.81216 0.0
H1157 H 0.07382 0.58845 0.82332 0.0
C1158 C 0.57272 0.89359 0.29403 0.0
C1159 C 0.5809 0.88209 0.23164 0.0
C1160 C 0.52825 0.86948 0.21093 0.0
C1161 C 0.52047 0.87823 0.27509 0.0
N1162 N 0.53801 0.88856 0.38433 0.0
N1163 N 0.5671 0.84789 0.14469 0.0
C1164 C 0.54359 0.88706 0.3189 0.0
C1165 C 0.55889 0.86625 0.19478 0.0
N1166 N 0.59138 0.91219 0.32819 0.0
N1167 N 0.50683 0.86635 0.16372 0.0
H1168 H 0.58947 0.84313 0.13435 0.0
H1169 H 0.55167 0.83459 0.11948 0.0
H1170 H 0.48443 0.87191 0.17121 0.0
H1171 H 0.51212 0.86208 0.115 0.0
H1172 H 0.5846 0.92314 0.3706 0.0
H1173 H 0.61227 0.91926 0.31165 0.0
H1174 H 0.55481 0.89272 0.4187 0.0
H1175 H 0.51753 0.88197 0.40442 0.0
C1176 C 0.85228 0.07676 0.50977 0.0
C1177 C 0.88157 0.08915 0.50409 0.0
C1178 C 0.90312 0.0408 0.53656 0.0
C1179 C 0.87395 0.02855 0.54352 0.0
N1180 N 0.82078 0.03639 0.55118 0.0
N1181 N 0.93398 0.08562 0.53134 0.0
C1182 C 0.84846 0.04697 0.53406 0.0
C1183 C 0.90674 0.07199 0.52373 0.0
N1184 N 0.8281 0.09361 0.49206 0.0
N1185 N 0.92737 0.02223 0.53997 0.0
H1186 H 0.93679 0.10872 0.52634 0.0
H1187 H 0.95279 0.07479 0.5501 0.0
H1188 H 0.92524 0.99915 0.54759 0.0
H1189 H 0.94914 0.02911 0.52906 0.0
H1190 H 0.80657 0.0849 0.48612 0.0
H1191 H 0.82991 0.11648 0.48247 0.0
H1192 H 0.80153 0.04952 0.55162 0.0
H1193 H 0.81745 0.01493 0.57013 0.0
C1194 C 0.08033 0.12142 0.45838 0.0
C1195 C 0.08694 0.13275 0.52185 0.0
C1196 C 0.034 0.14545 0.53582 0.0
C1197 C 0.02786 0.13689 0.47061 0.0
N1198 N 0.04799 0.12646 0.3638 0.0
N1199 N 0.07125 0.16655 0.60768 0.0
C1200 C 0.05195 0.12796 0.42983 0.0
C1201 C 0.06418 0.14843 0.55619 0.0
N1202 N 0.09983 0.10301 0.42654 0.0
N1203 N 0.01135 0.14878 0.57991 0.0
H1204 H 0.09335 0.17118 0.62122 0.0
H1205 H 0.05534 0.17985 0.63101 0.0
H1206 H 0.98907 0.14366 0.56912 0.0
H1207 H 0.01531 0.15288 0.62935 0.0
H1208 H 0.09422 0.0922 0.38307 0.0
H1209 H 0.12018 0.09598 0.44601 0.0
H1210 H 0.06557 0.12229 0.33158 0.0
H1211 H 0.02809 0.13301 0.34112 0.0
C1212 C 0.15597 0.94594 0.53808 0.0
C1213 C 0.12646 0.93618 0.52292 0.0
C1214 C 0.10704 0.98635 0.5456 0.0
C1215 C 0.13641 0.99604 0.56131 0.0
N1216 N 0.18796 0.98474 0.58445 0.0
N1217 N 0.07321 0.94441 0.52747 0.0
C1218 C 0.1607 0.9757 0.56092 0.0
C1219 C 0.10171 0.95558 0.53163 0.0
N1220 N 0.1794 0.92667 0.53003 0.0
N1221 N 0.0845 1.00697 0.54226 0.0
H1222 H 0.06885 0.92168 0.52027 0.0
H1223 H 0.0541 0.95682 0.53791 0.0
H1224 H 0.08807 0.02971 0.55172 0.0
H1225 H 0.06303 1.00215 0.52511 0.0
H1226 H 0.20184 0.93308 0.53251 0.0
H1227 H 0.17613 0.90406 0.51913 0.0
H1228 H 0.20605 0.97042 0.59153 0.0
H1229 H 0.19194 1.00649 0.60102 0.0
C1230 C 0.97843 0.87202 0.53581 0.0
C1231 C 0.98503 0.87719 0.46904 0.0
C1232 C 0.93298 0.89313 0.45119 0.0
C1233 C 0.92593 0.88566 0.51719 0.0
N1234 N 0.94024 0.85546 0.61087 0.0
N1235 N 0.96553 0.8822 0.35969 0.0
C1236 C 0.94807 0.8709 0.55571 0.0
C1237 C 0.96123 0.88425 0.42551 0.0
N1238 N 1.00071 0.87045 0.5815 0.0
N1239 N 0.91417 0.91021 0.41387 0.0
H1240 H 0.9855 0.87423 0.3398 0.0
H1241 H 0.9482 0.88491 0.32591 0.0
H1242 H 0.89403 0.91896 0.43048 0.0
H1243 H 0.92023 0.9183 0.36785 0.0
H1244 H 0.99626 0.86894 0.63144 0.0
H1245 H 0.02316 0.8746 0.57085 0.0
H1246 H 0.95566 0.84287 0.63771 0.0
H1247 H 0.91796 0.85207 0.62451 0.0
loop_
_geom_bond_atom_site_label_1
_geom_bond_atom_site_label_2
_geom_bond_distance
_geom_bond_site_symmetry_2
_ccdc_geom_bond_type
C0 C1 1.351 . S
C0 N3 1.368 . S
C0 H5 0.931 . S
C1 C0 1.351 . S
C1 N2 1.373 . S
C1 H29 0.930 1_545 S
N2 C1 1.373 . S
N2 C4 1.340 . S
N3 C0 1.368 . S
N3 C4 1.321 . S
N3 Co6 2.135 . S
C4 N2 1.340 . S
C4 N3 1.321 . S
C4 H28 0.930 . S
H5 C0 0.931 . S
Co6 N3 2.135 . S
Co6 N9 2.121 . S
Co6 O14 2.055 . S
Co6 O17 2.039 . S
Co6 N20 2.140 . S
C7 O8 1.227 . S
C7 O17 1.265 . S
O8 C7 1.227 . S
N9 Co6 2.121 . S
N9 C11 1.375 . S
N9 C12 1.313 . S
C10 C11 1.338 . S
C10 N13 1.377 . S
C10 H30 0.930 . S
C11 N9 1.375 . S
C11 C10 1.338 . S
C11 H15 0.931 . S
C12 N9 1.313 . S
C12 N13 1.344 . S
C12 H16 0.930 . S
N13 C10 1.377 . S
N13 C12 1.344 . S
O14 Co6 2.055 . S
O14 C18 1.253 . S
H15 C11 0.931 . S
H16 C12 0.930 . S
O17 Co6 2.039 . S
O17 C7 1.265 . S
C18 O14 1.253 . S
C18 O19 1.227 . S
O19 C18 1.227 . S
N20 Co6 2.140 . S
N20 C23 1.346 . S
N20 C24 1.345 . S
C21 C22 1.387 1_556 S
C21 C25 1.391 . S
C22 C21 1.387 1_554 S
C22 C23 1.369 . S
C22 H31 0.929 . S
C23 N20 1.346 . S
C23 C22 1.369 . S
C23 H26 0.928 . S
C24 N20 1.345 . S
C24 C25 1.371 1_554 S
C24 H27 0.931 . S
C25 C21 1.391 . S
C25 C24 1.371 1_556 S
C25 H32 0.930 . S
H26 C23 0.928 . S
H27 C24 0.931 . S
H28 C4 0.930 . S
H29 C1 0.930 1_565 S
H30 C10 0.930 . S
H31 C22 0.929 . S
H32 C25 0.930 . S
C33 C34 1.351 . S
C33 N36 1.368 . S
C33 H38 0.931 . S
C34 C33 1.351 . S
C34 N35 1.373 . S
C34 H62 0.930 1_455 S
N35 C34 1.373 . S
N35 C37 1.340 . S
N36 C33 1.368 . S
N36 C37 1.321 . S
N36 Co39 2.135 . S
C37 N35 1.340 . S
C37 N36 1.321 . S
C37 H61 0.930 . S
H38 C33 0.931 . S
Co39 N36 2.135 . S
Co39 N42 2.121 . S
Co39 O47 2.055 . S
Co39 O50 2.039 . S
Co39 N53 2.140 . S
C40 O41 1.227 . S
C40 O50 1.265 . S
O41 C40 1.227 . S
N42 Co39 2.121 . S
N42 C44 1.375 . S
N42 C45 1.313 . S
C43 C44 1.338 . S
C43 N46 1.377 . S
C43 H63 0.930 . S
C44 N42 1.375 . S
C44 C43 1.338 . S
C44 H48 0.931 . S
C45 N42 1.313 . S
C45 N46 1.344 . S
C45 H49 0.930 . S
N46 C43 1.377 . S
N46 C45 1.344 . S
O47 Co39 2.055 . S
O47 C51 1.253 . S
H48 C44 0.931 . S
H49 C45 0.930 . S
O50 Co39 2.039 . S
O50 C40 1.265 . S
C51 O47 1.253 . S
C51 O52 1.227 . S
O52 C51 1.227 . S
N53 Co39 2.140 . S
N53 C56 1.346 . S
N53 C57 1.345 . S
C54 C55 1.387 1_554 S
C54 C58 1.391 . S
C55 C54 1.387 1_556 S
C55 C56 1.369 . S
C55 H64 0.929 . S
C56 N53 1.346 . S
C56 C55 1.369 . S
C56 H59 0.928 . S
C57 N53 1.345 . S
C57 C58 1.371 1_556 S
C57 H60 0.931 . S
C58 C54 1.391 . S
C58 C57 1.371 1_554 S
C58 H65 0.930 . S
H59 C56 0.928 . S
H60 C57 0.931 . S
H61 C37 0.930 . S
H62 C34 0.930 1_655 S
H63 C43 0.930 . S
H64 C55 0.929 . S
H65 C58 0.930 . S
C66 C67 1.351 . S
C66 N69 1.368 . S
C66 H71 0.931 . S
C67 C66 1.351 . S
C67 N68 1.373 . S
C67 H95 0.930 1_565 S
N68 C67 1.373 . S
N68 C70 1.340 . S
N69 C66 1.368 . S
N69 C70 1.321 . S
N69 Co72 2.135 . S
C70 N68 1.340 . S
C70 N69 1.321 . S
C70 H94 0.930 . S
H71 C66 0.931 . S
Co72 N69 2.135 . S
Co72 N75 2.121 . S
Co72 O80 2.055 . S
Co72 O83 2.039 . S
Co72 N86 2.140 . S
C73 O74 1.227 . S
C73 O83 1.265 . S
O74 C73 1.227 . S
N75 Co72 2.121 . S
N75 C77 1.375 . S
N75 C78 1.313 . S
C76 C77 1.338 . S
C76 N79 1.377 . S
C76 H96 0.930 . S
C77 N75 1.375 . S
C77 C76 1.338 . S
C77 H81 0.931 . S
C78 N75 1.313 . S
C78 N79 1.344 . S
C78 H82 0.930 . S
N79 C76 1.377 . S
N79 C78 1.344 . S
O80 Co72 2.055 . S
O80 C84 1.253 . S
H81 C77 0.931 . S
H82 C78 0.930 . S
O83 Co72 2.039 . S
O83 C73 1.265 . S
C84 O80 1.253 . S
C84 O85 1.227 . S
O85 C84 1.227 . S
N86 Co72 2.140 . S
N86 C89 1.346 . S
N86 C90 1.345 . S
C87 C88 1.387 1_556 S
C87 C91 1.391 . S
C88 C87 1.387 1_554 S
C88 C89 1.369 . S
C88 H97 0.929 . S
C89 N86 1.346 . S
C89 C88 1.369 . S
C89 H92 0.928 . S
C90 N86 1.345 . S
C90 C91 1.371 1_554 S
C90 H93 0.931 . S
C91 C87 1.391 . S
C91 C90 1.371 1_556 S
C91 H98 0.930 . S
H92 C89 0.928 . S
H93 C90 0.931 . S
H94 C70 0.930 . S
H95 C67 0.930 1_545 S
H96 C76 0.930 . S
H97 C88 0.929 . S
H98 C91 0.930 . S
C99 C100 1.351 . S
C99 N102 1.368 . S
C99 H104 0.931 . S
C100 C99 1.351 . S
C100 N101 1.373 . S
C100 H128 0.930 1_655 S
N101 C100 1.373 . S
N101 C103 1.340 . S
N102 C99 1.368 . S
N102 C103 1.321 . S
N102 Co105 2.135 . S
C103 N101 1.340 . S
C103 N102 1.321 . S
C103 H127 0.930 . S
H104 C99 0.931 . S
Co105 N102 2.135 . S
Co105 N108 2.121 . S
Co105 O113 2.055 . S
Co105 O116 2.039 . S
Co105 N119 2.140 . S
C106 O107 1.227 . S
C106 O116 1.265 . S
O107 C106 1.227 . S
N108 Co105 2.121 . S
N108 C110 1.375 . S
N108 C111 1.313 . S
C109 C110 1.338 . S
C109 N112 1.377 . S
C109 H129 0.930 . S
C110 N108 1.375 . S
C110 C109 1.338 . S
C110 H114 0.931 . S
C111 N108 1.313 . S
C111 N112 1.344 . S
C111 H115 0.930 . S
N112 C109 1.377 . S
N112 C111 1.344 . S
O113 Co105 2.055 . S
O113 C117 1.253 . S
H114 C110 0.931 . S
H115 C111 0.930 . S
O116 Co105 2.039 . S
O116 C106 1.265 . S
C117 O113 1.253 . S
C117 O118 1.227 . S
O118 C117 1.227 . S
N119 Co105 2.140 . S
N119 C122 1.346 . S
N119 C123 1.345 . S
C120 C121 1.387 1_554 S
C120 C124 1.391 . S
C121 C120 1.387 1_556 S
C121 C122 1.369 . S
C121 H130 0.929 . S
C122 N119 1.346 . S
C122 C121 1.369 . S
C122 H125 0.928 . S
C123 N119 1.345 . S
C123 C124 1.371 1_556 S
C123 H126 0.931 . S
C124 C120 1.391 . S
C124 C123 1.371 1_554 S
C124 H131 0.930 . S
H125 C122 0.928 . S
H126 C123 0.931 . S
H127 C103 0.930 . S
H128 C100 0.930 1_455 S
H129 C109 0.930 . S
H130 C121 0.929 . S
H131 C124 0.930 . S
C132 C133 1.351 . S
C132 N135 1.368 . S
C132 H137 0.931 . S
C133 C132 1.351 . S
C133 N134 1.373 . S
C133 H161 0.930 . S
N134 C133 1.373 . S
N134 C136 1.340 . S
N135 C132 1.368 . S
N135 C136 1.321 . S
N135 Co138 2.135 . S
C136 N134 1.340 . S
C136 N135 1.321 . S
C136 H160 0.930 1_554 S
H137 C132 0.931 . S
Co138 N135 2.135 . S
Co138 N141 2.121 . S
Co138 O146 2.055 . S
Co138 O149 2.039 1_554 S
Co138 N152 2.140 . S
C139 O140 1.227 1_556 S
C139 O149 1.265 . S
O140 C139 1.227 1_554 S
N141 Co138 2.121 . S
N141 C143 1.375 . S
N141 C144 1.313 . S
C142 C143 1.338 . S
C142 N145 1.377 . S
C142 H162 0.930 . S
C143 N141 1.375 . S
C143 C142 1.338 . S
C143 H147 0.931 . S
C144 N141 1.313 . S
C144 N145 1.344 . S
C144 H148 0.930 . S
N145 C142 1.377 . S
N145 C144 1.344 . S
O146 Co138 2.055 . S
O146 C150 1.253 . S
H147 C143 0.931 . S
H148 C144 0.930 . S
O149 Co138 2.039 1_556 S
O149 C139 1.265 . S
C150 O146 1.253 . S
C150 O151 1.227 . S
O151 C150 1.227 . S
N152 Co138 2.140 . S
N152 C155 1.346 . S
N152 C156 1.345 . S
C153 C154 1.387 . S
C153 C157 1.391 . S
C154 C153 1.387 . S
C154 C155 1.369 . S
C154 H163 0.929 . S
C155 N152 1.346 . S
C155 C154 1.369 . S
C155 H158 0.928 . S
C156 N152 1.345 . S
C156 C157 1.371 . S
C156 H159 0.931 . S
C157 C153 1.391 . S
C157 C156 1.371 . S
C157 H164 0.930 . S
H158 C155 0.928 . S
H159 C156 0.931 . S
H160 C136 0.930 1_556 S
H161 C133 0.930 . S
H162 C142 0.930 . S
H163 C154 0.929 . S
H164 C157 0.930 . S
C165 C166 1.351 . S
C165 N168 1.368 . S
C165 H170 0.931 . S
C166 C165 1.351 . S
C166 N167 1.373 . S
C166 H194 0.930 . S
N167 C166 1.373 . S
N167 C169 1.340 . S
N168 C165 1.368 . S
N168 C169 1.321 . S
N168 Co171 2.135 . S
C169 N167 1.340 . S
C169 N168 1.321 . S
C169 H193 0.930 1_556 S
H170 C165 0.931 . S
Co171 N168 2.135 . S
Co171 N174 2.121 . S
Co171 O179 2.055 . S
Co171 O182 2.039 1_556 S
Co171 N185 2.140 . S
C172 O173 1.227 1_554 S
C172 O182 1.265 . S
O173 C172 1.227 1_556 S
N174 Co171 2.121 . S
N174 C176 1.375 . S
N174 C177 1.313 . S
C175 C176 1.338 . S
C175 N178 1.377 . S
C175 H195 0.930 . S
C176 N174 1.375 . S
C176 C175 1.338 . S
C176 H180 0.931 . S
C177 N174 1.313 . S
C177 N178 1.344 . S
C177 H181 0.930 . S
N178 C175 1.377 . S
N178 C177 1.344 . S
O179 Co171 2.055 . S
O179 C183 1.253 . S
H180 C176 0.931 . S
H181 C177 0.930 . S
O182 Co171 2.039 1_554 S
O182 C172 1.265 . S
C183 O179 1.253 . S
C183 O184 1.227 . S
O184 C183 1.227 . S
N185 Co171 2.140 . S
N185 C188 1.346 . S
N185 C189 1.345 . S
C186 C187 1.387 . S
C186 C190 1.391 . S
C187 C186 1.387 . S
C187 C188 1.369 . S
C187 H196 0.929 . S
C188 N185 1.346 . S
C188 C187 1.369 . S
C188 H191 0.928 . S
C189 N185 1.345 . S
C189 C190 1.371 . S
C189 H192 0.931 . S
C190 C186 1.391 . S
C190 C189 1.371 . S
C190 H197 0.930 . S
H191 C188 0.928 . S
H192 C189 0.931 . S
H193 C169 0.930 1_554 S
H194 C166 0.930 . S
H195 C175 0.930 . S
H196 C187 0.929 . S
H197 C190 0.930 . S
C198 C199 1.351 . S
C198 N201 1.368 . S
C198 H203 0.931 . S
C199 C198 1.351 . S
C199 N200 1.373 . S
C199 H227 0.930 . S
N200 C199 1.373 . S
N200 C202 1.340 . S
N201 C198 1.368 . S
N201 C202 1.321 . S
N201 Co204 2.135 . S
C202 N200 1.340 . S
C202 N201 1.321 . S
C202 H226 0.930 1_554 S
H203 C198 0.931 . S
Co204 N201 2.135 . S
Co204 N207 2.121 . S
Co204 O212 2.055 . S
Co204 O215 2.039 1_554 S
Co204 N218 2.140 . S
C205 O206 1.227 1_556 S
C205 O215 1.265 . S
O206 C205 1.227 1_554 S
N207 Co204 2.121 . S
N207 C209 1.375 . S
N207 C210 1.313 . S
C208 C209 1.338 . S
C208 N211 1.377 . S
C208 H228 0.930 . S
C209 N207 1.375 . S
C209 C208 1.338 . S
C209 H213 0.931 . S
C210 N207 1.313 . S
C210 N211 1.344 . S
C210 H214 0.930 . S
N211 C208 1.377 . S
N211 C210 1.344 . S
O212 Co204 2.055 . S
O212 C216 1.253 . S
H213 C209 0.931 . S
H214 C210 0.930 . S
O215 Co204 2.039 1_556 S
O215 C205 1.265 . S
C216 O212 1.253 . S
C216 O217 1.227 . S
O217 C216 1.227 . S
N218 Co204 2.140 . S
N218 C221 1.346 . S
N218 C222 1.345 . S
C219 C220 1.387 . S
C219 C223 1.391 . S
C220 C219 1.387 . S
C220 C221 1.369 . S
C220 H229 0.929 . S
C221 N218 1.346 . S
C221 C220 1.369 . S
C221 H224 0.928 . S
C222 N218 1.345 . S
C222 C223 1.371 . S
C222 H225 0.931 . S
C223 C219 1.391 . S
C223 C222 1.371 . S
C223 H230 0.930 . S
H224 C221 0.928 . S
H225 C222 0.931 . S
H226 C202 0.930 1_556 S
H227 C199 0.930 . S
H228 C208 0.930 . S
H229 C220 0.929 . S
H230 C223 0.930 . S
C231 C232 1.351 . S
C231 N234 1.368 . S
C231 H236 0.931 . S
C232 C231 1.351 . S
C232 N233 1.373 . S
C232 H260 0.930 . S
N233 C232 1.373 . S
N233 C235 1.340 . S
N234 C231 1.368 . S
N234 C235 1.321 . S
N234 Co237 2.135 . S
C235 N233 1.340 . S
C235 N234 1.321 . S
C235 H259 0.930 1_556 S
H236 C231 0.931 . S
Co237 N234 2.135 . S
Co237 N240 2.121 . S
Co237 O245 2.055 . S
Co237 O248 2.039 1_556 S
Co237 N251 2.140 . S
C238 O239 1.227 1_554 S
C238 O248 1.265 . S
O239 C238 1.227 1_556 S
N240 Co237 2.121 . S
N240 C242 1.375 . S
N240 C243 1.313 . S
C241 C242 1.338 . S
C241 N244 1.377 . S
C241 H261 0.930 . S
C242 N240 1.375 . S
C242 C241 1.338 . S
C242 H246 0.931 . S
C243 N240 1.313 . S
C243 N244 1.344 . S
C243 H247 0.930 . S
N244 C241 1.377 . S
N244 C243 1.344 . S
O245 Co237 2.055 . S
O245 C249 1.253 . S
H246 C242 0.931 . S
H247 C243 0.930 . S
O248 Co237 2.039 1_554 S
O248 C238 1.265 . S
C249 O245 1.253 . S
C249 O250 1.227 . S
O250 C249 1.227 . S
N251 Co237 2.140 . S
N251 C254 1.346 . S
N251 C255 1.345 . S
C252 C253 1.387 . S
C252 C256 1.391 . S
C253 C252 1.387 . S
C253 C254 1.369 . S
C253 H262 0.929 . S
C254 N251 1.346 . S
C254 C253 1.369 . S
C254 H257 0.928 . S
C255 N251 1.345 . S
C255 C256 1.371 . S
C255 H258 0.931 . S
C256 C252 1.391 . S
C256 C255 1.371 . S
C256 H263 0.930 . S
H257 C254 0.928 . S
H258 C255 0.931 . S
H259 C235 0.930 1_554 S
H260 C232 0.930 . S
H261 C241 0.930 . S
H262 C253 0.929 . S
H263 C256 0.930 . S
C264 C265 1.351 . S
C264 N267 1.368 . S
C264 H269 0.931 . S
C265 C264 1.351 . S
C265 N266 1.373 . S
C265 H293 0.930 . S
N266 C265 1.373 . S
N266 C268 1.340 . S
N267 C264 1.368 . S
N267 C268 1.321 . S
N267 Co270 2.135 . S
C268 N266 1.340 . S
C268 N267 1.321 . S
C268 H292 0.930 . S
H269 C264 0.931 . S
Co270 N267 2.135 . S
Co270 N273 2.121 . S
Co270 O278 2.055 . S
Co270 O281 2.039 . S
Co270 N284 2.140 . S
C271 O272 1.227 . S
C271 O281 1.265 . S
O272 C271 1.227 . S
N273 Co270 2.121 . S
N273 C275 1.375 . S
N273 C276 1.313 . S
C274 C275 1.338 . S
C274 N277 1.377 . S
C274 H294 0.930 . S
C275 N273 1.375 . S
C275 C274 1.338 . S
C275 H279 0.931 . S
C276 N273 1.313 . S
C276 N277 1.344 . S
C276 H280 0.930 . S
N277 C274 1.377 . S
N277 C276 1.344 . S
O278 Co270 2.055 . S
O278 C282 1.253 . S
H279 C275 0.931 . S
H280 C276 0.930 . S
O281 Co270 2.039 . S
O281 C271 1.265 . S
C282 O278 1.253 . S
C282 O283 1.227 . S
O283 C282 1.227 . S
N284 Co270 2.140 . S
N284 C287 1.346 . S
N284 C288 1.345 . S
C285 C286 1.387 . S
C285 C289 1.391 . S
C286 C285 1.387 . S
C286 C287 1.369 . S
C286 H295 0.929 . S
C287 N284 1.346 . S
C287 C286 1.369 . S
C287 H290 0.928 . S
C288 N284 1.345 . S
C288 C289 1.371 . S
C288 H291 0.931 . S
C289 C285 1.391 . S
C289 C288 1.371 . S
C289 H296 0.930 . S
H290 C287 0.928 . S
H291 C288 0.931 . S
H292 C268 0.930 . S
H293 C265 0.930 . S
H294 C274 0.930 . S
H295 C286 0.929 . S
H296 C289 0.930 . S
C297 C298 1.351 . S
C297 N300 1.368 . S
C297 H302 0.931 . S
C298 C297 1.351 . S
C298 N299 1.373 . S
C298 H326 0.930 . S
N299 C298 1.373 . S
N299 C301 1.340 . S
N300 C297 1.368 . S
N300 C301 1.321 . S
N300 Co303 2.135 . S
C301 N299 1.340 . S
C301 N300 1.321 . S
C301 H325 0.930 . S
H302 C297 0.931 . S
Co303 N300 2.135 . S
Co303 N306 2.121 . S
Co303 O311 2.055 . S
Co303 O314 2.039 . S
Co303 N317 2.140 . S
C304 O305 1.227 . S
C304 O314 1.265 . S
O305 C304 1.227 . S
N306 Co303 2.121 . S
N306 C308 1.375 . S
N306 C309 1.313 . S
C307 C308 1.338 . S
C307 N310 1.377 . S
C307 H327 0.930 . S
C308 N306 1.375 . S
C308 C307 1.338 . S
C308 H312 0.931 . S
C309 N306 1.313 . S
C309 N310 1.344 . S
C309 H313 0.930 . S
N310 C307 1.377 . S
N310 C309 1.344 . S
O311 Co303 2.055 . S
O311 C315 1.253 . S
H312 C308 0.931 . S
H313 C309 0.930 . S
O314 Co303 2.039 . S
O314 C304 1.265 . S
C315 O311 1.253 . S
C315 O316 1.227 . S
O316 C315 1.227 . S
N317 Co303 2.140 . S
N317 C320 1.346 . S
N317 C321 1.345 . S
C318 C319 1.387 . S
C318 C322 1.391 . S
C319 C318 1.387 . S
C319 C320 1.369 . S
C319 H328 0.929 . S
C320 N317 1.346 . S
C320 C319 1.369 . S
C320 H323 0.928 . S
C321 N317 1.345 . S
C321 C322 1.371 . S
C321 H324 0.931 . S
C322 C318 1.391 . S
C322 C321 1.371 . S
C322 H329 0.930 . S
H323 C320 0.928 . S
H324 C321 0.931 . S
H325 C301 0.930 . S
H326 C298 0.930 . S
H327 C307 0.930 . S
H328 C319 0.929 . S
H329 C322 0.930 . S
C330 C331 1.351 . S
C330 N333 1.368 . S
C330 H335 0.931 . S
C331 C330 1.351 . S
C331 N332 1.373 . S
C331 H359 0.930 . S
N332 C331 1.373 . S
N332 C334 1.340 . S
N333 C330 1.368 . S
N333 C334 1.321 . S
N333 Co336 2.135 . S
C334 N332 1.340 . S
C334 N333 1.321 . S
C334 H358 0.930 . S
H335 C330 0.931 . S
Co336 N333 2.135 . S
Co336 N339 2.121 . S
Co336 O344 2.055 . S
Co336 O347 2.039 . S
Co336 N350 2.140 . S
C337 O338 1.227 . S
C337 O347 1.265 . S
O338 C337 1.227 . S
N339 Co336 2.121 . S
N339 C341 1.375 . S
N339 C342 1.313 . S
C340 C341 1.338 . S
C340 N343 1.377 . S
C340 H360 0.930 . S
C341 N339 1.375 . S
C341 C340 1.338 . S
C341 H345 0.931 . S
C342 N339 1.313 . S
C342 N343 1.344 . S
C342 H346 0.930 . S
N343 C340 1.377 . S
N343 C342 1.344 . S
O344 Co336 2.055 . S
O344 C348 1.253 . S
H345 C341 0.931 . S
H346 C342 0.930 . S
O347 Co336 2.039 . S
O347 C337 1.265 . S
C348 O344 1.253 . S
C348 O349 1.227 . S
O349 C348 1.227 . S
N350 Co336 2.140 . S
N350 C353 1.346 . S
N350 C354 1.345 . S
C351 C352 1.387 . S
C351 C355 1.391 . S
C352 C351 1.387 . S
C352 C353 1.369 . S
C352 H361 0.929 . S
C353 N350 1.346 . S
C353 C352 1.369 . S
C353 H356 0.928 . S
C354 N350 1.345 . S
C354 C355 1.371 . S
C354 H357 0.931 . S
C355 C351 1.391 . S
C355 C354 1.371 . S
C355 H362 0.930 . S
H356 C353 0.928 . S
H357 C354 0.931 . S
H358 C334 0.930 . S
H359 C331 0.930 . S
H360 C340 0.930 . S
H361 C352 0.929 . S
H362 C355 0.930 . S
C363 C364 1.351 . S
C363 N366 1.368 . S
C363 H368 0.931 . S
C364 C363 1.351 . S
C364 N365 1.373 . S
C364 H392 0.930 . S
N365 C364 1.373 . S
N365 C367 1.340 . S
N366 C363 1.368 . S
N366 C367 1.321 . S
N366 Co369 2.135 . S
C367 N365 1.340 . S
C367 N366 1.321 . S
C367 H391 0.930 . S
H368 C363 0.931 . S
Co369 N366 2.135 . S
Co369 N372 2.121 . S
Co369 O377 2.055 . S
Co369 O380 2.039 . S
Co369 N383 2.140 . S
C370 O371 1.227 . S
C370 O380 1.265 . S
O371 C370 1.227 . S
N372 Co369 2.121 . S
N372 C374 1.375 . S
N372 C375 1.313 . S
C373 C374 1.338 . S
C373 N376 1.377 . S
C373 H393 0.930 . S
C374 N372 1.375 . S
C374 C373 1.338 . S
C374 H378 0.931 . S
C375 N372 1.313 . S
C375 N376 1.344 . S
C375 H379 0.930 . S
N376 C373 1.377 . S
N376 C375 1.344 . S
O377 Co369 2.055 . S
O377 C381 1.253 . S
H378 C374 0.931 . S
H379 C375 0.930 . S
O380 Co369 2.039 . S
O380 C370 1.265 . S
C381 O377 1.253 . S
C381 O382 1.227 . S
O382 C381 1.227 . S
N383 Co369 2.140 . S
N383 C386 1.346 . S
N383 C387 1.345 . S
C384 C385 1.387 . S
C384 C388 1.391 . S
C385 C384 1.387 . S
C385 C386 1.369 . S
C385 H394 0.929 . S
C386 N383 1.346 . S
C386 C385 1.369 . S
C386 H389 0.928 . S
C387 N383 1.345 . S
C387 C388 1.371 . S
C387 H390 0.931 . S
C388 C384 1.391 . S
C388 C387 1.371 . S
C388 H395 0.930 . S
H389 C386 0.928 . S
H390 C387 0.931 . S
H391 C367 0.930 . S
H392 C364 0.930 . S
H393 C373 0.930 . S
H394 C385 0.929 . S
H395 C388 0.930 . S
C396 C397 1.351 . S
C396 N399 1.368 . S
C396 H401 0.931 . S
C397 C396 1.351 . S
C397 N398 1.373 . S
C397 H425 0.930 1_565 S
N398 C397 1.373 . S
N398 C400 1.340 . S
N399 C396 1.368 . S
N399 C400 1.321 . S
N399 Co402 2.135 . S
C400 N398 1.340 . S
C400 N399 1.321 . S
C400 H424 0.930 . S
H401 C396 0.931 . S
Co402 N399 2.135 . S
Co402 N405 2.121 . S
Co402 O410 2.055 . S
Co402 O413 2.039 . S
Co402 N416 2.140 . S
C403 O404 1.227 . S
C403 O413 1.265 . S
O404 C403 1.227 . S
N405 Co402 2.121 . S
N405 C407 1.375 . S
N405 C408 1.313 . S
C406 C407 1.338 . S
C406 N409 1.377 . S
C406 H426 0.930 . S
C407 N405 1.375 . S
C407 C406 1.338 . S
C407 H411 0.931 . S
C408 N405 1.313 . S
C408 N409 1.344 . S
C408 H412 0.930 . S
N409 C406 1.377 . S
N409 C408 1.344 . S
O410 Co402 2.055 . S
O410 C414 1.253 . S
H411 C407 0.931 . S
H412 C408 0.930 . S
O413 Co402 2.039 . S
O413 C403 1.265 . S
C414 O410 1.253 . S
C414 O415 1.227 . S
O415 C414 1.227 . S
N416 Co402 2.140 . S
N416 C419 1.346 . S
N416 C420 1.345 . S
C417 C418 1.387 . S
C417 C421 1.391 . S
C418 C417 1.387 . S
C418 C419 1.369 . S
C418 H427 0.929 . S
C419 N416 1.346 . S
C419 C418 1.369 . S
C419 H422 0.928 . S
C420 N416 1.345 . S
C420 C421 1.371 . S
C420 H423 0.931 . S
C421 C417 1.391 . S
C421 C420 1.371 . S
C421 H428 0.930 . S
H422 C419 0.928 . S
H423 C420 0.931 . S
H424 C400 0.930 . S
H425 C397 0.930 1_545 S
H426 C406 0.930 . S
H427 C418 0.929 . S
H428 C421 0.930 . S
C429 C430 1.351 . S
C429 N432 1.368 . S
C429 H434 0.931 . S
C430 C429 1.351 . S
C430 N431 1.373 . S
C430 H458 0.930 1_655 S
N431 C430 1.373 . S
N431 C433 1.340 . S
N432 C429 1.368 . S
N432 C433 1.321 . S
N432 Co435 2.135 . S
C433 N431 1.340 . S
C433 N432 1.321 . S
C433 H457 0.930 . S
H434 C429 0.931 . S
Co435 N432 2.135 . S
Co435 N438 2.121 . S
Co435 O443 2.055 . S
Co435 O446 2.039 . S
Co435 N449 2.140 . S
C436 O437 1.227 . S
C436 O446 1.265 . S
O437 C436 1.227 . S
N438 Co435 2.121 . S
N438 C440 1.375 . S
N438 C441 1.313 . S
C439 C440 1.338 . S
C439 N442 1.377 . S
C439 H459 0.930 . S
C440 N438 1.375 . S
C440 C439 1.338 . S
C440 H444 0.931 . S
C441 N438 1.313 . S
C441 N442 1.344 . S
C441 H445 0.930 . S
N442 C439 1.377 . S
N442 C441 1.344 . S
O443 Co435 2.055 . S
O443 C447 1.253 . S
H444 C440 0.931 . S
H445 C441 0.930 . S
O446 Co435 2.039 . S
O446 C436 1.265 . S
C447 O443 1.253 . S
C447 O448 1.227 . S
O448 C447 1.227 . S
N449 Co435 2.140 . S
N449 C452 1.346 . S
N449 C453 1.345 . S
C450 C451 1.387 . S
C450 C454 1.391 . S
C451 C450 1.387 . S
C451 C452 1.369 . S
C451 H460 0.929 . S
C452 N449 1.346 . S
C452 C451 1.369 . S
C452 H455 0.928 . S
C453 N449 1.345 . S
C453 C454 1.371 . S
C453 H456 0.931 . S
C454 C450 1.391 . S
C454 C453 1.371 . S
C454 H461 0.930 . S
H455 C452 0.928 . S
H456 C453 0.931 . S
H457 C433 0.930 . S
H458 C430 0.930 1_455 S
H459 C439 0.930 . S
H460 C451 0.929 . S
H461 C454 0.930 . S
C462 C463 1.351 . S
C462 N465 1.368 . S
C462 H467 0.931 . S
C463 C462 1.351 . S
C463 N464 1.373 . S
C463 H491 0.930 1_545 S
N464 C463 1.373 . S
N464 C466 1.340 . S
N465 C462 1.368 . S
N465 C466 1.321 . S
N465 Co468 2.135 . S
C466 N464 1.340 . S
C466 N465 1.321 . S
C466 H490 0.930 . S
H467 C462 0.931 . S
Co468 N465 2.135 . S
Co468 N471 2.121 . S
Co468 O476 2.055 . S
Co468 O479 2.039 . S
Co468 N482 2.140 . S
C469 O470 1.227 . S
C469 O479 1.265 . S
O470 C469 1.227 . S
N471 Co468 2.121 . S
N471 C473 1.375 . S
N471 C474 1.313 . S
C472 C473 1.338 . S
C472 N475 1.377 . S
C472 H492 0.930 . S
C473 N471 1.375 . S
C473 C472 1.338 . S
C473 H477 0.931 . S
C474 N471 1.313 . S
C474 N475 1.344 . S
C474 H478 0.930 . S
N475 C472 1.377 . S
N475 C474 1.344 . S
O476 Co468 2.055 . S
O476 C480 1.253 . S
H477 C473 0.931 . S
H478 C474 0.930 . S
O479 Co468 2.039 . S
O479 C469 1.265 . S
C480 O476 1.253 . S
C480 O481 1.227 . S
O481 C480 1.227 . S
N482 Co468 2.140 . S
N482 C485 1.346 . S
N482 C486 1.345 . S
C483 C484 1.387 . S
C483 C487 1.391 . S
C484 C483 1.387 . S
C484 C485 1.369 . S
C484 H493 0.929 . S
C485 N482 1.346 . S
C485 C484 1.369 . S
C485 H488 0.928 . S
C486 N482 1.345 . S
C486 C487 1.371 . S
C486 H489 0.931 . S
C487 C483 1.391 . S
C487 C486 1.371 . S
C487 H494 0.930 . S
H488 C485 0.928 . S
H489 C486 0.931 . S
H490 C466 0.930 . S
H491 C463 0.930 1_565 S
H492 C472 0.930 . S
H493 C484 0.929 . S
H494 C487 0.930 . S
C495 C496 1.351 . S
C495 N498 1.368 . S
C495 H500 0.931 . S
C496 C495 1.351 . S
C496 N497 1.373 . S
C496 H524 0.930 1_455 S
N497 C496 1.373 . S
N497 C499 1.340 . S
N498 C495 1.368 . S
N498 C499 1.321 . S
N498 Co501 2.135 . S
C499 N497 1.340 . S
C499 N498 1.321 . S
C499 H523 0.930 . S
H500 C495 0.931 . S
Co501 N498 2.135 . S
Co501 N504 2.121 . S
Co501 O509 2.055 . S
Co501 O512 2.039 . S
Co501 N515 2.140 . S
C502 O503 1.227 . S
C502 O512 1.265 . S
O503 C502 1.227 . S
N504 Co501 2.121 . S
N504 C506 1.375 . S
N504 C507 1.313 . S
C505 C506 1.338 . S
C505 N508 1.377 . S
C505 H525 0.930 . S
C506 N504 1.375 . S
C506 C505 1.338 . S
C506 H510 0.931 . S
C507 N504 1.313 . S
C507 N508 1.344 . S
C507 H511 0.930 . S
N508 C505 1.377 . S
N508 C507 1.344 . S
O509 Co501 2.055 . S
O509 C513 1.253 . S
H510 C506 0.931 . S
H511 C507 0.930 . S
O512 Co501 2.039 . S
O512 C502 1.265 . S
C513 O509 1.253 . S
C513 O514 1.227 . S
O514 C513 1.227 . S
N515 Co501 2.140 . S
N515 C518 1.346 . S
N515 C519 1.345 . S
C516 C517 1.387 . S
C516 C520 1.391 . S
C517 C516 1.387 . S
C517 C518 1.369 . S
C517 H526 0.929 . S
C518 N515 1.346 . S
C518 C517 1.369 . S
C518 H521 0.928 . S
C519 N515 1.345 . S
C519 C520 1.371 . S
C519 H522 0.931 . S
C520 C516 1.391 . S
C520 C519 1.371 . S
C520 H527 0.930 . S
H521 C518 0.928 . S
H522 C519 0.931 . S
H523 C499 0.930 . S
H524 C496 0.930 1_655 S
H525 C505 0.930 . S
H526 C517 0.929 . S
H527 C520 0.930 . S
C528 C529 1.363 . S
C528 C534 1.379 . S
C528 N536 1.356 . S
C529 C528 1.363 . S
C529 C535 1.363 . S
C530 C531 1.363 . S
C530 C535 1.379 . S
C530 N537 1.356 . S
C531 C530 1.363 . S
C531 C534 1.363 . S
N532 C534 1.356 . S
N532 H544 0.984 . S
N532 H545 0.985 . S
N533 C535 1.356 . S
N533 H538 0.984 . S
N533 H539 0.985 . S
C534 C528 1.379 . S
C534 C531 1.363 . S
C534 N532 1.356 . S
C535 C529 1.363 . S
C535 C530 1.379 . S
C535 N533 1.356 . S
N536 C528 1.356 . S
N536 H542 0.984 . S
N536 H543 0.984 . S
N537 C530 1.356 . S
N537 H540 0.984 . S
N537 H541 0.985 . S
H538 N533 0.984 . S
H539 N533 0.985 . S
H540 N537 0.984 . S
H541 N537 0.985 . S
H542 N536 0.984 . S
H543 N536 0.984 . S
H544 N532 0.984 . S
H545 N532 0.985 . S
C546 C547 1.363 . S
C546 C552 1.379 . S
C546 N554 1.356 . S
C547 C546 1.363 . S
C547 C553 1.363 . S
C548 C549 1.363 . S
C548 C553 1.379 . S
C548 N555 1.356 . S
C549 C548 1.363 . S
C549 C552 1.363 . S
N550 C552 1.356 . S
N550 H562 0.984 . S
N550 H563 0.985 . S
N551 C553 1.356 . S
N551 H556 0.984 . S
N551 H557 0.985 . S
C552 C546 1.379 . S
C552 C549 1.363 . S
C552 N550 1.356 . S
C553 C547 1.363 . S
C553 C548 1.379 . S
C553 N551 1.356 . S
N554 C546 1.356 . S
N554 H560 0.984 . S
N554 H561 0.984 . S
N555 C548 1.356 . S
N555 H558 0.984 . S
N555 H559 0.985 . S
H556 N551 0.984 . S
H557 N551 0.985 . S
H558 N555 0.984 . S
H559 N555 0.985 . S
H560 N554 0.984 . S
H561 N554 0.984 . S
H562 N550 0.984 . S
H563 N550 0.985 . S
C564 C565 1.363 . S
C564 C570 1.379 . S
C564 N572 1.356 . S
C565 C564 1.363 . S
C565 C571 1.363 . S
C566 C567 1.363 . S
C566 C571 1.379 . S
C566 N573 1.356 . S
C567 C566 1.363 . S
C567 C570 1.363 . S
N568 C570 1.356 . S
N568 H580 0.984 . S
N568 H581 0.985 . S
N569 C571 1.356 . S
N569 H574 0.984 . S
N569 H575 0.985 . S
C570 C564 1.379 . S
C570 C567 1.363 . S
C570 N568 1.356 . S
C571 C565 1.363 . S
C571 C566 1.379 . S
C571 N569 1.356 . S
N572 C564 1.356 . S
N572 H578 0.984 . S
N572 H579 0.984 . S
N573 C566 1.356 . S
N573 H576 0.984 . S
N573 H577 0.985 . S
H574 N569 0.984 . S
H575 N569 0.985 . S
H576 N573 0.984 . S
H577 N573 0.985 . S
H578 N572 0.984 . S
H579 N572 0.984 . S
H580 N568 0.984 . S
H581 N568 0.985 . S
C582 C583 1.363 . S
C582 C588 1.379 . S
C582 N590 1.356 . S
C583 C582 1.363 . S
C583 C589 1.363 . S
C584 C585 1.363 . S
C584 C589 1.379 . S
C584 N591 1.356 . S
C585 C584 1.363 . S
C585 C588 1.363 . S
N586 C588 1.356 . S
N586 H598 0.984 . S
N586 H599 0.985 . S
N587 C589 1.356 . S
N587 H592 0.984 . S
N587 H593 0.985 . S
C588 C582 1.379 . S
C588 C585 1.363 . S
C588 N586 1.356 . S
C589 C583 1.363 . S
C589 C584 1.379 . S
C589 N587 1.356 . S
N590 C582 1.356 . S
N590 H596 0.984 . S
N590 H597 0.984 . S
N591 C584 1.356 . S
N591 H594 0.984 . S
N591 H595 0.985 . S
H592 N587 0.984 . S
H593 N587 0.985 . S
H594 N591 0.984 . S
H595 N591 0.985 . S
H596 N590 0.984 . S
H597 N590 0.984 . S
H598 N586 0.984 . S
H599 N586 0.985 . S
C600 C601 1.363 . S
C600 C606 1.379 . S
C600 N608 1.356 . S
C601 C600 1.363 . S
C601 C607 1.363 . S
C602 C603 1.363 . S
C602 C607 1.379 . S
C602 N609 1.356 . S
C603 C602 1.363 . S
C603 C606 1.363 . S
N604 C606 1.356 . S
N604 H616 0.984 . S
N604 H617 0.985 . S
N605 C607 1.356 . S
N605 H610 0.984 . S
N605 H611 0.985 . S
C606 C600 1.379 . S
C606 C603 1.363 . S
C606 N604 1.356 . S
C607 C601 1.363 . S
C607 C602 1.379 . S
C607 N605 1.356 . S
N608 C600 1.356 . S
N608 H614 0.984 . S
N608 H615 0.984 1_556 S
N609 C602 1.356 . S
N609 H612 0.984 . S
N609 H613 0.985 . S
H610 N605 0.984 . S
H611 N605 0.985 . S
H612 N609 0.984 . S
H613 N609 0.985 . S
H614 N608 0.984 . S
H615 N608 0.984 1_554 S
H616 N604 0.984 . S
H617 N604 0.985 . S
C618 C619 1.363 . S
C618 C624 1.379 . S
C618 N626 1.356 . S
C619 C618 1.363 . S
C619 C625 1.363 . S
C620 C621 1.363 . S
C620 C625 1.379 . S
C620 N627 1.374 . S
C621 C620 1.363 . S
C621 C624 1.363 . S
N622 C624 1.356 . S
N622 H634 0.984 . S
N622 H635 0.985 . S
N623 C625 1.356 . S
N623 H628 0.984 . S
N623 H629 0.985 . S
C624 C618 1.379 . S
C624 C621 1.363 . S
C624 N622 1.356 . S
C625 C619 1.363 . S
C625 C620 1.379 . S
C625 N623 1.356 . S
N626 C618 1.356 . S
N626 H632 0.984 . S
N626 H633 0.984 . S
N627 C620 1.374 . S
N627 H630 0.975 1_554 S
N627 H631 0.977 1_554 S
H628 N623 0.984 . S
H629 N623 0.985 . S
H630 N627 0.975 1_556 S
H631 N627 0.977 1_556 S
H632 N626 0.984 . S
H633 N626 0.984 . S
H634 N622 0.984 . S
H635 N622 0.985 . S
C636 C637 1.363 . S
C636 C642 1.379 . S
C636 N644 1.356 . S
C637 C636 1.363 . S
C637 C643 1.363 . S
C638 C639 1.363 . S
C638 C643 1.379 . S
C638 N645 1.356 . S
C639 C638 1.363 . S
C639 C642 1.363 . S
N640 C642 1.356 . S
N640 H652 0.984 . S
N640 H653 0.985 . S
N641 C643 1.356 . S
N641 H646 0.984 . S
N641 H647 0.985 . S
C642 C636 1.379 . S
C642 C639 1.363 . S
C642 N640 1.356 . S
C643 C637 1.363 . S
C643 C638 1.379 . S
C643 N641 1.356 . S
N644 C636 1.356 . S
N644 H650 0.984 . S
N644 H651 0.984 1_556 S
N645 C638 1.356 . S
N645 H648 0.984 . S
N645 H649 0.985 . S
H646 N641 0.984 . S
H647 N641 0.985 . S
H648 N645 0.984 . S
H649 N645 0.985 . S
H650 N644 0.984 . S
H651 N644 0.984 1_554 S
H652 N640 0.984 . S
H653 N640 0.985 . S
C654 C655 1.363 . S
C654 C660 1.379 . S
C654 N662 1.356 . S
C655 C654 1.363 . S
C655 C661 1.363 . S
C656 C657 1.363 . S
C656 C661 1.379 . S
C656 N663 1.356 . S
C657 C656 1.363 . S
C657 C660 1.363 . S
N658 C660 1.356 . S
N658 H670 0.984 1_554 S
N658 H671 0.985 1_554 S
N659 C661 1.356 . S
N659 H664 0.984 . S
N659 H665 0.985 . S
C660 C654 1.379 . S
C660 C657 1.363 . S
C660 N658 1.356 . S
C661 C655 1.363 . S
C661 C656 1.379 . S
C661 N659 1.356 . S
N662 C654 1.356 . S
N662 H668 0.984 . S
N662 H669 0.984 . S
N663 C656 1.356 . S
N663 H666 0.984 . S
N663 H667 0.985 . S
H664 N659 0.984 . S
H665 N659 0.985 . S
H666 N663 0.984 . S
H667 N663 0.985 . S
H668 N662 0.984 . S
H669 N662 0.984 . S
H670 N658 0.984 1_556 S
H671 N658 0.985 1_556 S
C672 C673 1.363 . S
C672 C678 1.379 . S
C672 N680 1.356 . S
C673 C672 1.363 . S
C673 C679 1.363 . S
C674 C675 1.363 . S
C674 C679 1.379 . S
C674 N681 1.356 . S
C675 C674 1.363 . S
C675 C678 1.363 . S
N676 C678 1.356 . S
N676 H688 0.984 . S
N676 H689 0.985 . S
N677 C679 1.356 . S
N677 H682 0.984 . S
N677 H683 0.985 1_554 S
C678 C672 1.379 . S
C678 C675 1.363 . S
C678 N676 1.356 . S
C679 C673 1.363 . S
C679 C674 1.379 . S
C679 N677 1.356 . S
N680 C672 1.356 . S
N680 H686 0.984 . S
N680 H687 0.984 . S
N681 C674 1.356 . S
N681 H684 0.984 . S
N681 H685 0.985 . S
H682 N677 0.984 . S
H683 N677 0.985 1_556 S
H684 N681 0.984 . S
H685 N681 0.985 . S
H686 N680 0.984 . S
H687 N680 0.984 . S
H688 N676 0.984 . S
H689 N676 0.985 . S
C690 C691 1.363 . S
C690 C696 1.379 . S
C690 N698 1.356 . S
C691 C690 1.363 . S
C691 C697 1.363 . S
C692 C693 1.363 . S
C692 C697 1.379 . S
C692 N699 1.356 . S
C693 C692 1.363 . S
C693 C696 1.363 . S
N694 C696 1.356 . S
N694 H706 0.984 . S
N694 H707 0.985 . S
N695 C697 1.356 . S
N695 H700 0.984 . S
N695 H701 0.985 . S
C696 C690 1.379 . S
C696 C693 1.363 . S
C696 N694 1.356 . S
C697 C691 1.363 . S
C697 C692 1.379 . S
C697 N695 1.356 . S
N698 C690 1.356 . S
N698 H704 0.984 . S
N698 H705 0.984 . S
N699 C692 1.356 . S
N699 H702 0.984 . S
N699 H703 0.985 . S
H700 N695 0.984 . S
H701 N695 0.985 . S
H702 N699 0.984 . S
H703 N699 0.985 . S
H704 N698 0.984 . S
H705 N698 0.984 . S
H706 N694 0.984 . S
H707 N694 0.985 . S
C708 C709 1.363 . S
C708 C714 1.379 . S
C708 N716 1.356 . S
C709 C708 1.363 . S
C709 C715 1.363 . S
C710 C711 1.363 . S
C710 C715 1.379 . S
C710 N717 1.356 . S
C711 C710 1.363 . S
C711 C714 1.363 . S
N712 C714 1.356 . S
N712 H724 0.984 . S
N712 H725 0.985 . S
N713 C715 1.356 . S
N713 H718 0.984 . S
N713 H719 0.985 . S
C714 C708 1.379 . S
C714 C711 1.363 . S
C714 N712 1.356 . S
C715 C709 1.363 . S
C715 C710 1.379 . S
C715 N713 1.356 . S
N716 C708 1.356 . S
N716 H722 0.984 . S
N716 H723 0.984 . S
N717 C710 1.356 . S
N717 H720 0.984 . S
N717 H721 0.985 1_554 S
H718 N713 0.984 . S
H719 N713 0.985 . S
H720 N717 0.984 . S
H721 N717 0.985 1_556 S
H722 N716 0.984 . S
H723 N716 0.984 . S
H724 N712 0.984 . S
H725 N712 0.985 . S
C726 C727 1.363 . S
C726 C732 1.379 . S
C726 N734 1.356 . S
C727 C726 1.363 . S
C727 C733 1.363 . S
C728 C729 1.363 . S
C728 C733 1.379 . S
C728 N735 1.356 . S
C729 C728 1.363 . S
C729 C732 1.363 . S
N730 C732 1.356 . S
N730 H742 0.984 . S
N730 H743 0.985 . S
N731 C733 1.356 . S
N731 H736 0.984 . S
N731 H737 0.985 . S
C732 C726 1.379 . S
C732 C729 1.363 . S
C732 N730 1.356 . S
C733 C727 1.363 . S
C733 C728 1.379 . S
C733 N731 1.356 . S
N734 C726 1.356 . S
N734 H740 0.984 . S
N734 H741 0.984 . S
N735 C728 1.356 . S
N735 H738 0.984 . S
N735 H739 0.985 . S
H736 N731 0.984 . S
H737 N731 0.985 . S
H738 N735 0.984 . S
H739 N735 0.985 . S
H740 N734 0.984 . S
H741 N734 0.984 . S
H742 N730 0.984 . S
H743 N730 0.985 . S
C744 C745 1.363 . S
C744 C750 1.379 . S
C744 N752 1.356 . S
C745 C744 1.363 . S
C745 C751 1.363 . S
C746 C747 1.363 . S
C746 C751 1.379 . S
C746 N753 1.356 . S
C747 C746 1.363 . S
C747 C750 1.363 . S
N748 C750 1.356 . S
N748 H760 0.984 . S
N748 H761 0.985 . S
N749 C751 1.356 . S
N749 H754 0.984 . S
N749 H755 0.985 . S
C750 C744 1.379 . S
C750 C747 1.363 . S
C750 N748 1.356 . S
C751 C745 1.363 . S
C751 C746 1.379 . S
C751 N749 1.356 . S
N752 C744 1.356 . S
N752 H758 0.984 . S
N752 H759 0.984 . S
N753 C746 1.356 . S
N753 H756 0.984 . S
N753 H757 0.985 . S
H754 N749 0.984 . S
H755 N749 0.985 . S
H756 N753 0.984 . S
H757 N753 0.985 . S
H758 N752 0.984 . S
H759 N752 0.984 . S
H760 N748 0.984 . S
H761 N748 0.985 . S
C762 C763 1.363 . S
C762 C768 1.379 . S
C762 N770 1.356 . S
C763 C762 1.363 . S
C763 C769 1.363 . S
C764 C765 1.363 . S
C764 C769 1.379 . S
C764 N771 1.356 . S
C765 C764 1.363 . S
C765 C768 1.363 . S
N766 C768 1.356 . S
N766 H778 0.984 . S
N766 H779 0.985 . S
N767 C769 1.356 . S
N767 H772 0.984 . S
N767 H773 0.985 . S
C768 C762 1.379 . S
C768 C765 1.363 . S
C768 N766 1.356 . S
C769 C763 1.363 . S
C769 C764 1.379 . S
C769 N767 1.356 . S
N770 C762 1.356 . S
N770 H776 0.984 . S
N770 H777 0.984 . S
N771 C764 1.356 . S
N771 H774 0.984 . S
N771 H775 0.985 . S
H772 N767 0.984 . S
H773 N767 0.985 . S
H774 N771 0.984 . S
H775 N771 0.985 . S
H776 N770 0.984 . S
H777 N770 0.984 . S
H778 N766 0.984 . S
H779 N766 0.985 . S
C780 C781 1.363 . S
C780 C786 1.379 . S
C780 N788 1.356 . S
C781 C780 1.363 . S
C781 C787 1.363 . S
C782 C783 1.363 . S
C782 C787 1.379 . S
C782 N789 1.356 . S
C783 C782 1.363 . S
C783 C786 1.363 . S
N784 C786 1.356 . S
N784 H796 0.984 . S
N784 H797 0.985 . S
N785 C787 1.356 . S
N785 H790 0.984 . S
N785 H791 0.985 . S
C786 C780 1.379 . S
C786 C783 1.363 . S
C786 N784 1.356 . S
C787 C781 1.363 . S
C787 C782 1.379 . S
C787 N785 1.356 . S
N788 C780 1.356 . S
N788 H794 0.984 . S
N788 H795 0.984 . S
N789 C782 1.356 . S
N789 H792 0.984 . S
N789 H793 0.985 . S
H790 N785 0.984 . S
H791 N785 0.985 . S
H792 N789 0.984 . S
H793 N789 0.985 . S
H794 N788 0.984 . S
H795 N788 0.984 . S
H796 N784 0.984 . S
H797 N784 0.985 . S
C798 C799 1.363 . S
C798 C804 1.379 . S
C798 N806 1.356 . S
C799 C798 1.363 . S
C799 C805 1.363 . S
C800 C801 1.363 . S
C800 C805 1.379 . S
C800 N807 1.356 . S
C801 C800 1.363 . S
C801 C804 1.363 . S
N802 C804 1.356 . S
N802 H814 0.984 . S
N802 H815 0.985 . S
N803 C805 1.356 . S
N803 H808 0.984 . S
N803 H809 0.985 . S
C804 C798 1.379 . S
C804 C801 1.363 . S
C804 N802 1.356 . S
C805 C799 1.363 . S
C805 C800 1.379 . S
C805 N803 1.356 . S
N806 C798 1.356 . S
N806 H812 0.984 . S
N806 H813 0.984 . S
N807 C800 1.356 . S
N807 H810 0.984 . S
N807 H811 0.985 . S
H808 N803 0.984 . S
H809 N803 0.985 . S
H810 N807 0.984 . S
H811 N807 0.985 . S
H812 N806 0.984 . S
H813 N806 0.984 . S
H814 N802 0.984 . S
H815 N802 0.985 . S
C816 C817 1.363 . S
C816 C822 1.379 . S
C816 N824 1.356 . S
C817 C816 1.363 . S
C817 C823 1.363 . S
C818 C819 1.363 . S
C818 C823 1.379 . S
C818 N825 1.356 . S
C819 C818 1.363 . S
C819 C822 1.363 . S
N820 C822 1.356 . S
N820 H832 0.984 . S
N820 H833 0.985 . S
N821 C823 1.356 . S
N821 H826 0.984 . S
N821 H827 0.985 . S
C822 C816 1.379 . S
C822 C819 1.363 . S
C822 N820 1.356 . S
C823 C817 1.363 . S
C823 C818 1.379 . S
C823 N821 1.356 . S
N824 C816 1.356 . S
N824 H830 0.984 . S
N824 H831 0.991 . S
N825 C818 1.356 . S
N825 H828 0.984 . S
N825 H829 0.985 . S
H826 N821 0.984 . S
H827 N821 0.985 . S
H828 N825 0.984 . S
H829 N825 0.985 . S
H830 N824 0.984 . S
H831 N824 0.991 . S
H832 N820 0.984 . S
H833 N820 0.985 . S
C834 C835 1.363 . S
C834 C840 1.379 . S
C834 N842 1.356 . S
C835 C834 1.363 . S
C835 C841 1.363 . S
C836 C837 1.363 . S
C836 C841 1.379 . S
C836 N843 1.356 . S
C837 C836 1.363 . S
C837 C840 1.363 . S
N838 C840 1.356 . S
N838 H850 0.984 . S
N838 H851 0.985 . S
N839 C841 1.356 . S
N839 H844 0.984 . S
N839 H845 0.985 . S
C840 C834 1.379 . S
C840 C837 1.363 . S
C840 N838 1.356 . S
C841 C835 1.363 . S
C841 C836 1.379 . S
C841 N839 1.356 . S
N842 C834 1.356 . S
N842 H848 0.984 . S
N842 H849 0.984 . S
N843 C836 1.356 . S
N843 H846 0.984 . S
N843 H847 0.985 . S
H844 N839 0.984 . S
H845 N839 0.985 . S
H846 N843 0.984 . S
H847 N843 0.985 . S
H848 N842 0.984 . S
H849 N842 0.984 . S
H850 N838 0.984 . S
H851 N838 0.985 . S
C852 C853 1.363 . S
C852 C858 1.379 . S
C852 N860 1.356 . S
C853 C852 1.363 . S
C853 C859 1.363 . S
C854 C855 1.363 . S
C854 C859 1.379 . S
C854 N861 1.356 . S
C855 C854 1.363 . S
C855 C858 1.363 . S
N856 C858 1.356 . S
N856 H868 0.984 . S
N856 H869 0.985 . S
N857 C859 1.356 . S
N857 H862 0.992 . S
N857 H863 0.985 . S
C858 C852 1.379 . S
C858 C855 1.363 . S
C858 N856 1.356 . S
C859 C853 1.363 . S
C859 C854 1.379 . S
C859 N857 1.356 . S
N860 C852 1.356 . S
N860 H866 0.984 . S
N860 H867 0.984 . S
N861 C854 1.356 . S
N861 H864 0.984 . S
N861 H865 0.985 . S
H862 N857 0.992 . S
H863 N857 0.985 . S
H864 N861 0.984 . S
H865 N861 0.985 . S
H866 N860 0.984 . S
H867 N860 0.984 . S
H868 N856 0.984 . S
H869 N856 0.985 . S
C870 C871 1.363 . S
C870 C876 1.379 . S
C870 N878 1.356 . S
C871 C870 1.363 . S
C871 C877 1.363 . S
C872 C873 1.363 . S
C872 C877 1.379 . S
C872 N879 1.356 . S
C873 C872 1.363 . S
C873 C876 1.363 . S
N874 C876 1.356 1_556 S
N874 H886 0.984 . S
N874 H887 0.985 . S
N875 C877 1.356 . S
N875 H880 0.984 . S
N875 H881 0.985 . S
C876 C870 1.379 . S
C876 C873 1.363 . S
C876 N874 1.356 1_554 S
C877 C871 1.363 . S
C877 C872 1.379 . S
C877 N875 1.356 . S
N878 C870 1.356 . S
N878 H884 0.984 . S
N878 H885 0.984 . S
N879 C872 1.356 . S
N879 H882 0.984 . S
N879 H883 0.985 . S
H880 N875 0.984 . S
H881 N875 0.985 . S
H882 N879 0.984 . S
H883 N879 0.985 . S
H884 N878 0.984 . S
H885 N878 0.984 . S
H886 N874 0.984 . S
H887 N874 0.985 . S
C888 C889 1.363 . S
C888 C894 1.379 . S
C888 N896 1.356 . S
C889 C888 1.363 . S
C889 C895 1.363 . S
C890 C891 1.363 . S
C890 C895 1.379 . S
C890 N897 1.356 . S
C891 C890 1.363 . S
C891 C894 1.363 . S
N892 C894 1.356 . S
N892 H904 0.984 . S
N892 H905 0.985 . S
N893 C895 1.356 . S
N893 H898 0.984 . S
N893 H899 0.985 . S
C894 C888 1.379 . S
C894 C891 1.363 . S
C894 N892 1.356 . S
C895 C889 1.363 . S
C895 C890 1.379 . S
C895 N893 1.356 . S
N896 C888 1.356 . S
N896 H902 0.984 . S
N896 H903 0.984 . S
N897 C890 1.356 . S
N897 H900 0.984 . S
N897 H901 0.985 . S
H898 N893 0.984 . S
H899 N893 0.985 . S
H900 N897 0.984 . S
H901 N897 0.985 . S
H902 N896 0.984 . S
H903 N896 0.984 . S
H904 N892 0.984 . S
H905 N892 0.985 . S
C906 C907 1.363 . S
C906 C912 1.379 . S
C906 N914 1.356 . S
C907 C906 1.363 . S
C907 C913 1.363 . S
C908 C909 1.363 . S
C908 C913 1.379 . S
C908 N915 1.356 . S
C909 C908 1.363 . S
C909 C912 1.363 . S
N910 C912 1.356 . S
N910 H922 0.984 . S
N910 H923 0.985 . S
N911 C913 1.356 . S
N911 H916 0.984 . S
N911 H917 0.985 . S
C912 C906 1.379 . S
C912 C909 1.363 . S
C912 N910 1.356 . S
C913 C907 1.363 . S
C913 C908 1.379 . S
C913 N911 1.356 . S
N914 C906 1.356 . S
N914 H920 0.984 . S
N914 H921 0.984 . S
N915 C908 1.356 . S
N915 H918 0.984 . S
N915 H919 0.985 . S
H916 N911 0.984 . S
H917 N911 0.985 . S
H918 N915 0.984 . S
H919 N915 0.985 . S
H920 N914 0.984 . S
H921 N914 0.984 . S
H922 N910 0.984 . S
H923 N910 0.985 . S
C924 C925 1.363 . S
C924 C930 1.379 . S
C924 N932 1.356 . S
C925 C924 1.363 . S
C925 C931 1.363 . S
C926 C927 1.363 . S
C926 C931 1.379 . S
C926 N933 1.356 . S
C927 C926 1.363 . S
C927 C930 1.363 . S
N928 C930 1.356 . S
N928 H940 0.984 . S
N928 H941 0.985 . S
N929 C931 1.356 . S
N929 H934 0.984 . S
N929 H935 0.985 . S
C930 C924 1.379 . S
C930 C927 1.363 . S
C930 N928 1.356 . S
C931 C925 1.363 . S
C931 C926 1.379 . S
C931 N929 1.356 . S
N932 C924 1.356 . S
N932 H938 0.984 . S
N932 H939 0.984 . S
N933 C926 1.356 . S
N933 H936 0.984 . S
N933 H937 0.985 . S
H934 N929 0.984 . S
H935 N929 0.985 . S
H936 N933 0.984 . S
H937 N933 0.985 . S
H938 N932 0.984 . S
H939 N932 0.984 . S
H940 N928 0.984 . S
H941 N928 0.985 . S
C942 C943 1.363 . S
C942 C948 1.379 . S
C942 N950 1.356 . S
C943 C942 1.363 . S
C943 C949 1.363 . S
C944 C945 1.363 . S
C944 C949 1.379 . S
C944 N951 1.356 . S
C945 C944 1.363 . S
C945 C948 1.363 . S
N946 C948 1.356 . S
N946 H958 0.984 . S
N946 H959 0.985 . S
N947 C949 1.356 . S
N947 H952 0.984 . S
N947 H953 0.985 . S
C948 C942 1.379 . S
C948 C945 1.363 . S
C948 N946 1.356 . S
C949 C943 1.363 . S
C949 C944 1.379 . S
C949 N947 1.356 . S
N950 C942 1.356 . S
N950 H956 0.984 . S
N950 H957 0.984 . S
N951 C944 1.356 . S
N951 H954 0.984 . S
N951 H955 0.985 . S
H952 N947 0.984 . S
H953 N947 0.985 . S
H954 N951 0.984 . S
H955 N951 0.985 . S
H956 N950 0.984 . S
H957 N950 0.984 . S
H958 N946 0.984 . S
H959 N946 0.985 . S
C960 C961 1.363 . S
C960 C966 1.379 . S
C960 N968 1.356 1_565 S
C961 C960 1.363 . S
C961 C967 1.363 . S
C962 C963 1.363 . S
C962 C967 1.379 . S
C962 N969 1.356 . S
C963 C962 1.363 . S
C963 C966 1.363 . S
N964 C966 1.356 . S
N964 H976 0.984 . S
N964 H977 0.985 . S
N965 C967 1.356 . S
N965 H970 0.984 . S
N965 H971 0.985 . S
C966 C960 1.379 . S
C966 C963 1.363 . S
C966 N964 1.356 . S
C967 C961 1.363 . S
C967 C962 1.379 . S
C967 N965 1.356 . S
N968 C960 1.356 1_545 S
N968 H974 0.984 . S
N968 H975 0.984 . S
N969 C962 1.356 . S
N969 H972 0.984 . S
N969 H973 0.985 . S
H970 N965 0.984 . S
H971 N965 0.985 . S
H972 N969 0.984 . S
H973 N969 0.985 . S
H974 N968 0.984 . S
H975 N968 0.984 . S
H976 N964 0.984 . S
H977 N964 0.985 . S
C978 C979 1.363 . S
C978 C984 1.379 . S
C978 N986 1.356 . S
C979 C978 1.363 . S
C979 C985 1.363 . S
C980 C981 1.363 . S
C980 C985 1.379 . S
C980 N987 1.356 1_655 S
C981 C980 1.363 . S
C981 C984 1.363 . S
N982 C984 1.356 . S
N982 H994 0.984 . S
N982 H995 0.985 . S
N983 C985 1.356 . S
N983 H988 0.984 . S
N983 H989 0.985 . S
C984 C978 1.379 . S
C984 C981 1.363 . S
C984 N982 1.356 . S
C985 C979 1.363 . S
C985 C980 1.379 . S
C985 N983 1.356 . S
N986 C978 1.356 . S
N986 H992 0.984 . S
N986 H993 0.984 . S
N987 C980 1.356 1_455 S
N987 H990 0.984 . S
N987 H991 0.985 . S
H988 N983 0.984 . S
H989 N983 0.985 . S
H990 N987 0.984 . S
H991 N987 0.985 . S
H992 N986 0.984 . S
H993 N986 0.984 . S
H994 N982 0.984 . S
H995 N982 0.985 . S
C996 C997 1.363 . S
C996 C1002 1.379 . S
C996 N1004 1.356 . S
C997 C996 1.363 . S
C997 C1003 1.363 . S
C998 C999 1.363 . S
C998 C1003 1.379 . S
C998 N1005 1.356 . S
C999 C998 1.363 . S
C999 C1002 1.363 . S
N1000 C1002 1.356 . S
N1000 H1012 0.984 . S
N1000 H1013 0.985 . S
N1001 C1003 1.356 1_565 S
N1001 H1006 0.984 . S
N1001 H1007 0.985 . S
C1002 C996 1.379 . S
C1002 C999 1.363 . S
C1002 N1000 1.356 . S
C1003 C997 1.363 . S
C1003 C998 1.379 . S
C1003 N1001 1.356 1_545 S
N1004 C996 1.356 . S
N1004 H1010 0.984 . S
N1004 H1011 0.984 . S
N1005 C998 1.356 . S
N1005 H1008 0.984 . S
N1005 H1009 0.985 . S
H1006 N1001 0.984 . S
H1007 N1001 0.985 . S
H1008 N1005 0.984 . S
H1009 N1005 0.985 . S
H1010 N1004 0.984 . S
H1011 N1004 0.984 . S
H1012 N1000 0.984 . S
H1013 N1000 0.985 . S
C1014 C1015 1.363 . S
C1014 C1020 1.379 . S
C1014 N1022 1.356 . S
C1015 C1014 1.363 . S
C1015 C1021 1.363 . S
C1016 C1017 1.363 . S
C1016 C1021 1.379 . S
C1016 N1023 1.356 . S
C1017 C1016 1.363 . S
C1017 C1020 1.363 . S
N1018 C1020 1.356 . S
N1018 H1030 0.984 . S
N1018 H1031 0.985 1_455 S
N1019 C1021 1.356 . S
N1019 H1024 0.984 . S
N1019 H1025 0.985 . S
C1020 C1014 1.379 . S
C1020 C1017 1.363 . S
C1020 N1018 1.356 . S
C1021 C1015 1.363 . S
C1021 C1016 1.379 . S
C1021 N1019 1.356 . S
N1022 C1014 1.356 . S
N1022 H1028 0.984 . S
N1022 H1029 0.984 . S
N1023 C1016 1.356 . S
N1023 H1026 0.984 . S
N1023 H1027 0.985 . S
H1024 N1019 0.984 . S
H1025 N1019 0.985 . S
H1026 N1023 0.984 . S
H1027 N1023 0.985 . S
H1028 N1022 0.984 . S
H1029 N1022 0.984 . S
H1030 N1018 0.984 . S
H1031 N1018 0.985 1_655 S
C1032 C1033 1.363 . S
C1032 C1038 1.379 . S
C1032 N1040 1.356 . S
C1033 C1032 1.363 . S
C1033 C1039 1.363 1_556 S
C1034 C1035 1.363 . S
C1034 C1039 1.379 . S
C1034 N1041 1.356 . S
C1035 C1034 1.363 . S
C1035 C1038 1.363 1_554 S
N1036 C1038 1.356 . S
N1036 H1048 0.984 . S
N1036 H1049 0.985 . S
N1037 C1039 1.356 . S
N1037 H1042 0.984 1_554 S
N1037 H1043 0.985 . S
C1038 C1032 1.379 . S
C1038 C1035 1.363 1_556 S
C1038 N1036 1.356 . S
C1039 C1033 1.363 1_554 S
C1039 C1034 1.379 . S
C1039 N1037 1.356 . S
N1040 C1032 1.356 . S
N1040 H1046 0.984 . S
N1040 H1047 0.984 . S
N1041 C1034 1.356 . S
N1041 H1044 0.984 . S
N1041 H1045 0.985 . S
H1042 N1037 0.984 1_556 S
H1043 N1037 0.985 . S
H1044 N1041 0.984 . S
H1045 N1041 0.985 . S
H1046 N1040 0.984 . S
H1047 N1040 0.984 . S
H1048 N1036 0.984 . S
H1049 N1036 0.985 . S
C1050 C1051 1.363 . S
C1050 C1056 1.379 . S
C1050 N1058 1.356 . S
C1051 C1050 1.363 . S
C1051 C1057 1.363 1_554 S
C1052 C1053 1.363 . S
C1052 C1057 1.379 . S
C1052 N1059 1.356 . S
C1053 C1052 1.363 . S
C1053 C1056 1.363 1_556 S
N1054 C1056 1.356 . S
N1054 H1066 0.984 . S
N1054 H1067 0.985 . S
N1055 C1057 1.356 . S
N1055 H1060 0.974 1_556 S
N1055 H1061 0.985 . S
C1056 C1050 1.379 . S
C1056 C1053 1.363 1_554 S
C1056 N1054 1.356 . S
C1057 C1051 1.363 1_556 S
C1057 C1052 1.379 . S
C1057 N1055 1.356 . S
N1058 C1050 1.356 . S
N1058 H1064 0.984 . S
N1058 H1065 0.984 . S
N1059 C1052 1.356 . S
N1059 H1062 0.984 . S
N1059 H1063 0.985 . S
H1060 N1055 0.974 1_554 S
H1061 N1055 0.985 . S
H1062 N1059 0.984 . S
H1063 N1059 0.985 . S
H1064 N1058 0.984 . S
H1065 N1058 0.984 . S
H1066 N1054 0.984 . S
H1067 N1054 0.985 . S
C1068 C1069 1.363 1_556 S
C1068 C1074 1.379 . S
C1068 N1076 1.356 . S
C1069 C1068 1.363 1_554 S
C1069 C1075 1.363 . S
C1070 C1071 1.363 . S
C1070 C1075 1.379 1_556 S
C1070 N1077 1.356 . S
C1071 C1070 1.363 . S
C1071 C1074 1.363 . S
N1072 C1074 1.356 . S
N1072 H1084 0.984 . S
N1072 H1085 0.985 . S
N1073 C1075 1.356 . S
N1073 H1078 0.984 . S
N1073 H1079 0.985 . S
C1074 C1068 1.379 . S
C1074 C1071 1.363 . S
C1074 N1072 1.356 . S
C1075 C1069 1.363 . S
C1075 C1070 1.379 1_554 S
C1075 N1073 1.356 . S
N1076 C1068 1.356 . S
N1076 H1082 0.984 . S
N1076 H1083 0.984 . S
N1077 C1070 1.356 . S
N1077 H1080 0.984 . S
N1077 H1081 0.985 1_556 S
H1078 N1073 0.984 . S
H1079 N1073 0.985 . S
H1080 N1077 0.984 . S
H1081 N1077 0.985 1_554 S
H1082 N1076 0.984 . S
H1083 N1076 0.984 . S
H1084 N1072 0.984 . S
H1085 N1072 0.985 . S
C1086 C1087 1.363 . S
C1086 C1092 1.379 . S
C1086 N1094 1.356 . S
C1087 C1086 1.363 . S
C1087 C1093 1.363 . S
C1088 C1089 1.365 . S
C1088 C1093 1.372 1_556 S
C1088 N1095 1.363 . S
C1089 C1088 1.365 . S
C1089 C1092 1.363 1_556 S
N1090 C1092 1.356 1_556 S
N1090 H1102 0.984 1_556 S
N1090 H1103 0.985 . S
N1091 C1093 1.356 . S
N1091 H1096 0.984 . S
N1091 H1097 0.985 . S
C1092 C1086 1.379 . S
C1092 C1089 1.363 1_554 S
C1092 N1090 1.356 1_554 S
C1093 C1087 1.363 . S
C1093 C1088 1.372 1_554 S
C1093 N1091 1.356 . S
N1094 C1086 1.356 . S
N1094 H1100 0.984 . S
N1094 H1101 0.984 . S
N1095 C1088 1.363 . S
N1095 H1098 0.984 . S
N1095 H1099 0.985 . S
H1096 N1091 0.984 . S
H1097 N1091 0.985 . S
H1098 N1095 0.984 . S
H1099 N1095 0.985 . S
H1100 N1094 0.984 . S
H1101 N1094 0.984 . S
H1102 N1090 0.984 1_554 S
H1103 N1090 0.985 . S
C1104 C1105 1.363 . S
C1104 C1110 1.379 . S
C1104 N1112 1.356 . S
C1105 C1104 1.363 . S
C1105 C1111 1.363 . S
C1106 C1107 1.363 . S
C1106 C1111 1.379 . S
C1106 N1113 1.356 . S
C1107 C1106 1.363 . S
C1107 C1110 1.363 . S
N1108 C1110 1.356 . S
N1108 H1120 0.984 . S
N1108 H1121 0.985 . S
N1109 C1111 1.356 . S
N1109 H1114 0.984 . S
N1109 H1115 0.985 . S
C1110 C1104 1.379 . S
C1110 C1107 1.363 . S
C1110 N1108 1.356 . S
C1111 C1105 1.363 . S
C1111 C1106 1.379 . S
C1111 N1109 1.356 . S
N1112 C1104 1.356 . S
N1112 H1118 0.984 . S
N1112 H1119 0.984 . S
N1113 C1106 1.356 . S
N1113 H1116 0.984 . S
N1113 H1117 0.985 . S
H1114 N1109 0.984 . S
H1115 N1109 0.985 . S
H1116 N1113 0.984 . S
H1117 N1113 0.985 . S
H1118 N1112 0.984 . S
H1119 N1112 0.984 . S
H1120 N1108 0.984 . S
H1121 N1108 0.985 . S
C1122 C1123 1.363 . S
C1122 C1128 1.379 . S
C1122 N1130 1.356 . S
C1123 C1122 1.363 . S
C1123 C1129 1.363 . S
C1124 C1125 1.363 . S
C1124 C1129 1.379 . S
C1124 N1131 1.356 . S
C1125 C1124 1.363 . S
C1125 C1128 1.363 . S
N1126 C1128 1.356 . S
N1126 H1138 0.984 . S
N1126 H1139 0.985 . S
N1127 C1129 1.356 . S
N1127 H1132 0.984 . S
N1127 H1133 0.985 . S
C1128 C1122 1.379 . S
C1128 C1125 1.363 . S
C1128 N1126 1.356 . S
C1129 C1123 1.363 . S
C1129 C1124 1.379 . S
C1129 N1127 1.356 . S
N1130 C1122 1.356 . S
N1130 H1136 0.984 . S
N1130 H1137 0.984 . S
N1131 C1124 1.356 . S
N1131 H1134 0.984 . S
N1131 H1135 0.985 . S
H1132 N1127 0.984 . S
H1133 N1127 0.985 . S
H1134 N1131 0.984 . S
H1135 N1131 0.985 . S
H1136 N1130 0.984 . S
H1137 N1130 0.984 . S
H1138 N1126 0.984 . S
H1139 N1126 0.985 . S
C1140 C1141 1.363 . S
C1140 C1146 1.379 . S
C1140 N1148 1.356 . S
C1141 C1140 1.363 . S
C1141 C1147 1.363 . S
C1142 C1143 1.363 . S
C1142 C1147 1.379 . S
C1142 N1149 1.356 . S
C1143 C1142 1.363 . S
C1143 C1146 1.363 . S
N1144 C1146 1.356 . S
N1144 H1156 0.984 . S
N1144 H1157 0.985 . S
N1145 C1147 1.356 . S
N1145 H1150 0.984 . S
N1145 H1151 0.985 . S
C1146 C1140 1.379 . S
C1146 C1143 1.363 . S
C1146 N1144 1.356 . S
C1147 C1141 1.363 . S
C1147 C1142 1.379 . S
C1147 N1145 1.356 . S
N1148 C1140 1.356 . S
N1148 H1154 0.984 . S
N1148 H1155 0.984 . S
N1149 C1142 1.356 . S
N1149 H1152 0.984 . S
N1149 H1153 0.985 . S
H1150 N1145 0.984 . S
H1151 N1145 0.985 . S
H1152 N1149 0.984 . S
H1153 N1149 0.985 . S
H1154 N1148 0.984 . S
H1155 N1148 0.984 . S
H1156 N1144 0.984 . S
H1157 N1144 0.985 . S
C1158 C1159 1.363 . S
C1158 C1164 1.379 . S
C1158 N1166 1.356 . S
C1159 C1158 1.363 . S
C1159 C1165 1.363 . S
C1160 C1161 1.363 . S
C1160 C1165 1.379 . S
C1160 N1167 1.356 . S
C1161 C1160 1.363 . S
C1161 C1164 1.363 . S
N1162 C1164 1.356 . S
N1162 H1174 0.984 . S
N1162 H1175 0.985 . S
N1163 C1165 1.356 . S
N1163 H1168 0.984 . S
N1163 H1169 0.985 . S
C1164 C1158 1.379 . S
C1164 C1161 1.363 . S
C1164 N1162 1.356 . S
C1165 C1159 1.363 . S
C1165 C1160 1.379 . S
C1165 N1163 1.356 . S
N1166 C1158 1.356 . S
N1166 H1172 0.984 . S
N1166 H1173 0.984 . S
N1167 C1160 1.356 . S
N1167 H1170 0.984 . S
N1167 H1171 0.985 . S
H1168 N1163 0.984 . S
H1169 N1163 0.985 . S
H1170 N1167 0.984 . S
H1171 N1167 0.985 . S
H1172 N1166 0.984 . S
H1173 N1166 0.984 . S
H1174 N1162 0.984 . S
H1175 N1162 0.985 . S
C1176 C1177 1.363 . S
C1176 C1182 1.379 . S
C1176 N1184 1.356 . S
C1177 C1176 1.363 . S
C1177 C1183 1.363 . S
C1178 C1179 1.363 . S
C1178 C1183 1.379 . S
C1178 N1185 1.356 . S
C1179 C1178 1.363 . S
C1179 C1182 1.363 . S
N1180 C1182 1.356 . S
N1180 H1192 0.984 . S
N1180 H1193 0.985 . S
N1181 C1183 1.356 . S
N1181 H1186 0.984 . S
N1181 H1187 0.985 . S
C1182 C1176 1.379 . S
C1182 C1179 1.363 . S
C1182 N1180 1.356 . S
C1183 C1177 1.363 . S
C1183 C1178 1.379 . S
C1183 N1181 1.356 . S
N1184 C1176 1.356 . S
N1184 H1190 0.984 . S
N1184 H1191 0.984 . S
N1185 C1178 1.356 . S
N1185 H1188 0.984 1_545 S
N1185 H1189 0.985 . S
H1186 N1181 0.984 . S
H1187 N1181 0.985 . S
H1188 N1185 0.984 1_565 S
H1189 N1185 0.985 . S
H1190 N1184 0.984 . S
H1191 N1184 0.984 . S
H1192 N1180 0.984 . S
H1193 N1180 0.985 . S
C1194 C1195 1.363 . S
C1194 C1200 1.379 . S
C1194 N1202 1.356 . S
C1195 C1194 1.363 . S
C1195 C1201 1.363 . S
C1196 C1197 1.363 . S
C1196 C1201 1.379 . S
C1196 N1203 1.356 . S
C1197 C1196 1.363 . S
C1197 C1200 1.363 . S
N1198 C1200 1.356 . S
N1198 H1210 0.984 . S
N1198 H1211 0.985 . S
N1199 C1201 1.356 . S
N1199 H1204 0.984 . S
N1199 H1205 0.985 . S
C1200 C1194 1.379 . S
C1200 C1197 1.363 . S
C1200 N1198 1.356 . S
C1201 C1195 1.363 . S
C1201 C1196 1.379 . S
C1201 N1199 1.356 . S
N1202 C1194 1.356 . S
N1202 H1208 0.984 . S
N1202 H1209 0.984 . S
N1203 C1196 1.356 . S
N1203 H1206 0.982 1_455 S
N1203 H1207 0.985 . S
H1204 N1199 0.984 . S
H1205 N1199 0.985 . S
H1206 N1203 0.982 1_655 S
H1207 N1203 0.985 . S
H1208 N1202 0.984 . S
H1209 N1202 0.984 . S
H1210 N1198 0.984 . S
H1211 N1198 0.985 . S
C1212 C1213 1.363 . S
C1212 C1218 1.379 . S
C1212 N1220 1.356 . S
C1213 C1212 1.363 . S
C1213 C1219 1.363 . S
C1214 C1215 1.363 . S
C1214 C1219 1.379 . S
C1214 N1221 1.356 1_565 S
C1215 C1214 1.363 . S
C1215 C1218 1.363 . S
N1216 C1218 1.356 . S
N1216 H1228 0.984 . S
N1216 H1229 0.985 . S
N1217 C1219 1.356 . S
N1217 H1222 0.984 . S
N1217 H1223 0.985 . S
C1218 C1212 1.379 . S
C1218 C1215 1.363 . S
C1218 N1216 1.356 . S
C1219 C1213 1.363 . S
C1219 C1214 1.379 . S
C1219 N1217 1.356 . S
N1220 C1212 1.356 . S
N1220 H1226 0.984 . S
N1220 H1227 0.984 . S
N1221 C1214 1.356 1_545 S
N1221 H1224 0.984 . S
N1221 H1225 0.985 . S
H1222 N1217 0.984 . S
H1223 N1217 0.985 . S
H1224 N1221 0.984 . S
H1225 N1221 0.985 . S
H1226 N1220 0.984 . S
H1227 N1220 0.984 . S
H1228 N1216 0.984 . S
H1229 N1216 0.985 . S
C1230 C1231 1.363 . S
C1230 C1236 1.379 . S
C1230 N1238 1.356 . S
C1231 C1230 1.363 . S
C1231 C1237 1.363 . S
C1232 C1233 1.363 . S
C1232 C1237 1.379 . S
C1232 N1239 1.356 . S
C1233 C1232 1.363 . S
C1233 C1236 1.363 . S
N1234 C1236 1.356 . S
N1234 H1246 0.984 . S
N1234 H1247 0.985 . S
N1235 C1237 1.356 . S
N1235 H1240 0.984 . S
N1235 H1241 0.985 . S
C1236 C1230 1.379 . S
C1236 C1233 1.363 . S
C1236 N1234 1.356 . S
C1237 C1231 1.363 . S
C1237 C1232 1.379 . S
C1237 N1235 1.356 . S
N1238 C1230 1.356 . S
N1238 H1244 0.984 . S
N1238 H1245 0.984 1_655 S
N1239 C1232 1.356 . S
N1239 H1242 0.984 . S
N1239 H1243 0.985 . S
H1240 N1235 0.984 . S
H1241 N1235 0.985 . S
H1242 N1239 0.984 . S
H1243 N1239 0.985 . S
H1244 N1238 0.984 . S
H1245 N1238 0.984 1_455 S
H1246 N1234 0.984 . S
H1247 N1234 0.985 . S
C529 C7 1.165 . S
C531 C469 1.165 . S
C547 C502 1.165 . S
C549 C40 1.165 . S
C565 C403 1.165 . S
C567 C73 1.165 . S
C583 C106 1.165 . S
C585 C436 1.165 . S
C601 C139 1.165 . S
C603 C337 1.165 . S
C619 C370 1.165 . S
C621 C172 1.165 . S
C637 C205 1.165 . S
C639 C271 1.165 . S
C655 C304 1.165 . S
C657 C238 1.165 . S
C673 N145 1.482 . S
C675 N13 1.482 . S
C691 N46 1.482 . S
C693 N178 1.482 . S
C709 N79 1.482 . S
C711 N211 1.482 . S
C727 N112 1.482 . S
C729 N244 1.482 . S
C745 N409 1.482 . S
C747 N277 1.482 . S
C763 N442 1.482 . S
C765 N310 1.482 . S
C781 N343 1.482 . S
C783 N475 1.482 . S
C799 N376 1.482 . S
C801 N508 1.482 . S
C817 C21 1.510 . S
C819 C483 1.510 . S
C835 C516 1.510 . S
C837 C54 1.510 . S
C853 C87 1.510 . S
C855 C417 1.510 . S
C871 C450 1.510 . S
C873 C120 1.510 . S
C889 C351 1.510 . S
C891 C153 1.510 . S
C907 C384 1.510 . S
C909 C186 1.510 . S
C925 C219 1.510 . S
C927 C285 1.510 . S
C943 C252 1.510 . S
C945 C318 1.510 . S
C961 N2 1.481 1_565 S
C963 C381 1.585 . S
C979 C282 1.585 . S
C981 N35 1.481 1_655 S
C997 N68 1.481 1_545 S
C999 C315 1.585 . S
C1015 C348 1.585 . S
C1017 N101 1.481 1_455 S
C1033 C183 1.585 . S
C1035 N134 1.481 . S
C1051 C216 1.585 . S
C1053 N167 1.481 . S
C1069 N200 1.481 . S
C1071 C249 1.585 . S
C1087 C150 1.585 . S
C1089 N233 1.481 . S
C1105 C117 1.585 . S
C1107 N266 1.481 . S
C1123 N299 1.481 . S
C1125 C18 1.585 . S
C1141 N332 1.481 . S
C1143 C51 1.585 . S
C1159 C84 1.585 . S
C1161 N365 1.481 . S
C1177 C447 1.585 . S
C1179 N398 1.481 1_545 S
C1195 C480 1.585 . S
C1197 N431 1.481 1_455 S
C1213 C513 1.585 . S
C1215 N464 1.481 1_565 S
C1231 N497 1.481 1_655 S
C1233 C414 1.585 . S
