# Generated by pormake.
# Topology sod, (4)-cn, num edge types: 1
# Building blocks:
#     Node 0, Type 0, BuildingBlock: CEKHIL_clean_sbu_0, # of connection points: 4
#     Node 1, Type 0, BuildingBlock: CEKHIL_clean_sbu_0, # of connection points: 4
#     Node 2, Type 0, BuildingBlock: CEKHIL_clean_sbu_0, # of connection points: 4
#     Node 3, Type 0, BuildingBlock: CEKHIL_clean_sbu_0, # of connection points: 4
#     Node 4, Type 0, BuildingBlock: CEKHIL_clean_sbu_0, # of connection points: 4
#     Node 5, Type 0, BuildingBlock: CEKHIL_clean_sbu_0, # of connection points: 4
#     Node 6, Type 0, BuildingBlock: CEKHIL_clean_sbu_0, # of connection points: 4
#     Node 7, Type 0, BuildingBlock: CEKHIL_clean_sbu_0, # of connection points: 4
#     Node 8, Type 0, BuildingBlock: CEKHIL_clean_sbu_0, # of connection points: 4
#     Node 9, Type 0, BuildingBlock: CEKHIL_clean_sbu_0, # of connection points: 4
#     Node 10, Type 0, BuildingBlock: CEKHIL_clean_sbu_0, # of connection points: 4
#     Node 11, Type 0, BuildingBlock: CEKHIL_clean_sbu_0, # of connection points: 4
#     Edge 12, Type (0, 0), BuildingBlock: EZIPEK_clean_linker_0, # of connection points: 2
#     Edge 13, Type (0, 0), BuildingBlock: EZIPEK_clean_linker_0, # of connection points: 2
#     Edge 14, Type (0, 0), BuildingBlock: EZIPEK_clean_linker_0, # of connection points: 2
#     Edge 15, Type (0, 0), BuildingBlock: EZIPEK_clean_linker_0, # of connection points: 2
#     Edge 16, Type (0, 0), BuildingBlock: EZIPEK_clean_linker_0, # of connection points: 2
#     Edge 17, Type (0, 0), BuildingBlock: EZIPEK_clean_linker_0, # of connection points: 2
#     Edge 18, Type (0, 0), BuildingBlock: EZIPEK_clean_linker_0, # of connection points: 2
#     Edge 19, Type (0, 0), BuildingBlock: EZIPEK_clean_linker_0, # of connection points: 2
#     Edge 20, Type (0, 0), BuildingBlock: EZIPEK_clean_linker_0, # of connection points: 2
#     Edge 21, Type (0, 0), BuildingBlock: EZIPEK_clean_linker_0, # of connection points: 2
#     Edge 22, Type (0, 0), BuildingBlock: EZIPEK_clean_linker_0, # of connection points: 2
#     Edge 23, Type (0, 0), BuildingBlock: EZIPEK_clean_linker_0, # of connection points: 2
#     Edge 24, Type (0, 0), BuildingBlock: EZIPEK_clean_linker_0, # of connection points: 2
#     Edge 25, Type (0, 0), BuildingBlock: EZIPEK_clean_linker_0, # of connection points: 2
#     Edge 26, Type (0, 0), BuildingBlock: EZIPEK_clean_linker_0, # of connection points: 2
#     Edge 27, Type (0, 0), BuildingBlock: EZIPEK_clean_linker_0, # of connection points: 2
#     Edge 28, Type (0, 0), BuildingBlock: EZIPEK_clean_linker_0, # of connection points: 2
#     Edge 29, Type (0, 0), BuildingBlock: EZIPEK_clean_linker_0, # of connection points: 2
#     Edge 30, Type (0, 0), BuildingBlock: EZIPEK_clean_linker_0, # of connection points: 2
#     Edge 31, Type (0, 0), BuildingBlock: EZIPEK_clean_linker_0, # of connection points: 2
#     Edge 32, Type (0, 0), BuildingBlock: EZIPEK_clean_linker_0, # of connection points: 2
#     Edge 33, Type (0, 0), BuildingBlock: EZIPEK_clean_linker_0, # of connection points: 2
#     Edge 34, Type (0, 0), BuildingBlock: EZIPEK_clean_linker_0, # of connection points: 2
#     Edge 35, Type (0, 0), BuildingBlock: EZIPEK_clean_linker_0, # of connection points: 2
# Relax obj value: 0.140
# Max RMSD: 0.179
# Mean RMSD: 0.169
data_MOF--net-sod--node1-CEKHIL_clean_sbu_0--edge1-EZIPEK_clean_linker_0
_symmetry_space_group_name_H-M    P1
_symmetry_Int_Tables_number       1
_symmetry_cell_setting            triclinic
loop_
_symmetry_equiv_pos_as_xyz
'x, y, z'
_cell_length_a     30.403298
_cell_length_b     30.586415
_cell_length_c     30.574677
_cell_angle_alpha  92.073122
_cell_angle_beta   90.099143
_cell_angle_gamma 91.110147
loop_
_atom_site_label
_atom_site_type_symbol
_atom_site_fract_x
_atom_site_fract_y
_atom_site_fract_z
_atom_type_partial_charge
Co0 Co 0.01262 0.26684 0.51175 0.0
O1 O 0.9768 0.31346 0.49 0.0
O2 O 0.04456 0.29927 0.46918 0.0
C3 C 0.96075 0.21186 0.50768 0.0
O4 O 0.06097 0.22318 0.52171 0.0
Co5 Co 0.99763 0.21846 0.59598 0.0
O6 O 0.05376 0.18772 0.58417 0.0
C7 C 0.01215 0.31266 0.59821 0.0
C8 C 0.01051 0.32373 0.46586 0.0
C9 C 0.07408 0.1952 0.54885 0.0
O10 O 0.03289 0.30833 0.5616 0.0
O11 O 0.98825 0.28154 0.6126 0.0
O12 O 0.98283 0.22282 0.47314 0.0
O13 O 0.96875 0.23583 0.54249 0.0
Co14 Co 0.75852 0.01489 0.51532 0.0
O15 O 0.80436 0.99007 0.47714 0.0
O16 O 0.78831 0.96906 0.54374 0.0
C17 C 0.70392 0.01909 0.46463 0.0
O18 O 0.71606 0.0239 0.56591 0.0
Co19 Co 0.7101 0.10144 0.51462 0.0
O20 O 0.67782 0.0854 0.56839 0.0
C21 C 0.8063 0.09995 0.52322 0.0
C22 C 0.8126 0.9646 0.50949 0.0
C23 C 0.68726 0.04872 0.58373 0.0
O24 O 0.80301 0.06068 0.53722 0.0
O25 O 0.77307 0.12055 0.50961 0.0
O26 O 0.7123 0.98188 0.48225 0.0
O27 O 0.72896 0.05168 0.47692 0.0
Co28 Co 0.99478 0.77943 0.53476 0.0
O29 O 0.96277 0.73087 0.56065 0.0
O30 O 0.03056 0.75171 0.57739 0.0
C31 C 0.94029 0.82993 0.53776 0.0
O32 O 0.04096 0.82537 0.51894 0.0
Co33 Co 0.97007 0.82638 0.45007 0.0
O34 O 0.01827 0.86897 0.46655 0.0
C35 C 0.99593 0.73333 0.44769 0.0
C36 C 0.99828 0.72434 0.58334 0.0
C37 C 0.04645 0.85883 0.49521 0.0
O38 O 0.01456 0.73816 0.48558 0.0
O39 O 0.97115 0.76248 0.43215 0.0
O40 O 0.96389 0.82321 0.57247 0.0
O41 O 0.94846 0.80468 0.50453 0.0
Co42 Co 0.2723 0.02996 0.50704 0.0
O43 O 0.22695 0.05861 0.47459 0.0
O44 O 0.24406 0.07286 0.54427 0.0
C45 C 0.32672 0.03154 0.45705 0.0
O46 O 0.31789 0.01154 0.55158 0.0
Co47 Co 0.31022 0.94019 0.47965 0.0
O48 O 0.35059 0.94915 0.5304 0.0
C49 C 0.21756 0.94714 0.50359 0.0
C50 C 0.21925 0.08058 0.51099 0.0
C51 C 0.34744 0.98246 0.55633 0.0
O52 O 0.22686 0.98398 0.52356 0.0
O53 O 0.24558 0.92619 0.4803 0.0
O54 O 0.31802 0.06645 0.48086 0.0
O55 O 0.29909 0.99918 0.46041 0.0
Co56 Co 0.53096 0.04211 0.26909 0.0
O57 O 0.56233 0.06914 0.22107 0.0
O58 O 0.49324 0.08096 0.23867 0.0
C59 C 0.58507 0.05034 0.3205 0.0
O60 O 0.48662 0.0264 0.31631 0.0
Co61 Co 0.55907 0.96003 0.3185 0.0
O62 O 0.50833 0.97176 0.35794 0.0
C63 C 0.53203 0.95299 0.22614 0.0
C64 C 0.52621 0.08988 0.21348 0.0
C65 C 0.48142 1.00164 0.34908 0.0
O66 O 0.51215 0.98992 0.22976 0.0
O67 O 0.55903 0.94066 0.25519 0.0
O68 O 0.5608 0.08344 0.31119 0.0
O69 O 0.57812 0.01569 0.29638 0.0
Co70 Co 0.0224 0.50323 0.27787 0.0
O71 O 0.05497 0.4837 0.32802 0.0
O72 O 0.98821 0.46102 0.30892 0.0
C73 C 0.07715 0.49857 0.22726 0.0
O74 O 0.97707 0.5121 0.23003 0.0
Co75 Co 0.04553 0.58535 0.22458 0.0
O76 O 1.00043 0.56148 0.1824 0.0
C77 C 0.01722 0.59325 0.31716 0.0
C78 C 0.02096 0.45859 0.33584 0.0
C79 C 0.97334 0.53166 0.19378 0.0
O80 O 0.99988 0.55435 0.315 0.0
O81 O 0.04205 0.60792 0.28696 0.0
O82 O 0.05531 0.46353 0.23798 0.0
O83 O 0.06766 0.53331 0.24982 0.0
Co84 Co 0.52311 1.00275 0.77611 0.0
O85 O 0.5529 0.9851 0.8285 0.0
O86 O 0.48803 0.95996 0.80548 0.0
C87 C 0.58224 0.99883 0.73054 0.0
O88 O 0.48139 0.00942 0.72457 0.0
Co89 Co 0.54778 0.08511 0.7242 0.0
O90 O 0.50417 0.06222 0.68016 0.0
C91 C 0.51435 0.09212 0.81489 0.0
C92 C 0.51924 0.959 0.83438 0.0
C93 C 0.47805 0.03081 0.68934 0.0
O94 O 0.49686 0.0534 0.81099 0.0
O95 O 0.54102 0.10713 0.78644 0.0
O96 O 0.55964 0.96369 0.7394 0.0
O97 O 0.56967 0.0337 0.75125 0.0
Co98 Co 0.02703 0.54345 0.76993 0.0
O99 O 0.05702 0.56686 0.71912 0.0
O100 O 0.99092 0.58498 0.74146 0.0
C101 C 0.08418 0.54878 0.81855 0.0
O102 O 0.98344 0.531 0.81894 0.0
Co103 Co 0.05139 0.46095 0.82055 0.0
O104 O 1.00247 0.47585 0.86114 0.0
C105 C 0.02316 0.45478 0.72796 0.0
C106 C 0.02211 0.59011 0.71324 0.0
C107 C 0.97695 0.50675 0.8519 0.0
O108 O 1.00422 0.4922 0.73168 0.0
O109 O 0.04908 0.44113 0.75735 0.0
O110 O 0.06139 0.58315 0.8101 0.0
O111 O 0.07359 0.51422 0.79559 0.0
Co112 Co 0.25671 0.50968 0.01334 0.0
O113 O 0.30379 0.48368 0.97762 0.0
O114 O 0.28537 0.46485 0.04429 0.0
C115 C 0.20408 0.51239 0.96024 0.0
O116 O 0.21262 0.52009 0.0622 0.0
Co117 Co 0.20685 0.5956 0.00671 0.0
O118 O 0.16982 0.57809 0.05701 0.0
C119 C 0.3026 0.59602 0.02278 0.0
C120 C 0.31082 0.45924 0.01103 0.0
C121 C 0.18088 0.54368 0.076 0.0
O122 O 0.30004 0.55639 0.03598 0.0
O123 O 0.26995 0.61565 0.00659 0.0
O124 O 0.21168 0.47565 0.97909 0.0
O125 O 0.22871 0.5451 0.97268 0.0
Co126 Co 0.49427 0.27561 0.03457 0.0
O127 O 0.46173 0.22871 0.06268 0.0
O128 O 0.53148 0.24708 0.07528 0.0
C129 C 0.44116 0.32714 0.03959 0.0
O130 O 0.54088 0.32021 0.01698 0.0
Co131 Co 0.46802 0.32354 0.95095 0.0
O132 O 0.51811 0.3646 0.96532 0.0
C133 C 0.49153 0.22992 0.9471 0.0
C134 C 0.4982 0.22178 0.08365 0.0
C135 C 0.54658 0.35365 0.99334 0.0
O136 O 0.51089 0.23371 0.98471 0.0
O137 O 0.46718 0.25982 0.93236 0.0
O138 O 0.46603 0.32021 0.07336 0.0
O139 O 0.44762 0.3019 0.00598 0.0
Co140 Co 0.76418 0.53221 0.00655 0.0
O141 O 0.72086 0.55837 0.96927 0.0
O142 O 0.7308 0.57411 0.04007 0.0
C143 C 0.82253 0.53579 0.96042 0.0
O144 O 0.80399 0.51589 0.05676 0.0
Co145 Co 0.81138 0.44573 0.98554 0.0
O146 O 0.85284 0.46712 0.03259 0.0
C147 C 0.71599 0.44539 1.00299 0.0
C148 C 0.70877 0.58007 0.00456 0.0
C149 C 0.84025 0.49573 0.06098 0.0
O150 O 0.71973 0.48457 0.01952 0.0
O151 O 0.74797 0.42519 0.98467 0.0
O152 O 0.81136 0.57013 0.98398 0.0
O153 O 0.79645 0.50219 0.96287 0.0
Co154 Co 0.50479 0.76792 0.00927 0.0
O155 O 0.47178 0.81755 0.99033 0.0
O156 O 0.53715 0.79848 0.9657 0.0
C157 C 0.44856 0.7181 0.0075 0.0
O158 O 0.54963 0.72017 0.01701 0.0
Co159 Co 0.487 0.71689 0.09356 0.0
O160 O 0.53462 0.6774 0.07347 0.0
C161 C 0.51331 0.81044 0.09716 0.0
C162 C 0.50484 0.82543 0.96451 0.0
C163 C 0.55774 0.6872 0.04041 0.0
O164 O 0.53051 0.80629 0.05872 0.0
O165 O 0.48924 0.78027 0.11338 0.0
O166 O 0.46885 0.72771 0.97148 0.0
O167 O 0.46112 0.74051 0.0418 0.0
C168 C 0.05298 0.38284 0.42764 0.0
C169 C 0.01182 0.36206 0.43659 0.0
C170 C 0.97713 0.41536 0.39041 0.0
C171 C 0.01879 0.42792 0.37305 0.0
N172 N 0.09701 0.41267 0.37026 0.0
N173 N 0.93459 0.35446 0.41662 0.0
C174 C 0.05709 0.40879 0.39029 0.0
C175 C 0.97365 0.37715 0.41537 0.0
N176 N 0.0879 0.37937 0.45535 0.0
N177 N 0.94107 0.44048 0.38478 0.0
H178 H 0.93081 0.32427 0.43089 0.0
H179 H 0.90727 0.36325 0.39846 0.0
H180 H 0.94291 0.4712 0.3711 0.0
H181 H 0.91088 0.43354 0.39941 0.0
H182 H 0.11751 0.39645 0.45097 0.0
H183 H 0.08521 0.36483 0.48558 0.0
H184 H 0.12458 0.39618 0.38084 0.0
H185 H 0.10156 0.42697 0.34022 0.0
C186 C 0.63371 0.05122 0.43669 0.0
C187 C 0.671 0.0246 0.4289 0.0
C188 C 0.65706 0.0263 0.34989 0.0
C189 C 0.61715 0.04885 0.35771 0.0
N190 N 0.56762 0.08426 0.40895 0.0
N191 N 0.71552 0.98254 0.37844 0.0
C192 C 0.60578 0.06236 0.4012 0.0
C193 C 0.68172 0.01075 0.38559 0.0
N194 N 0.62465 0.06505 0.47855 0.0
N195 N 0.67275 0.02201 0.30807 0.0
H196 H 0.73519 0.97138 0.40351 0.0
H197 H 0.72177 0.96723 0.34817 0.0
H198 H 0.65709 0.03548 0.28145 0.0
H199 H 0.70357 0.00974 0.30028 0.0
H200 H 0.60234 0.08916 0.48725 0.0
H201 H 0.64045 0.05212 0.50511 0.0
H202 H 0.55556 0.09243 0.43989 0.0
H203 H 0.54603 0.09295 0.38455 0.0
C204 C 1.00079 0.66936 0.34125 0.0
C205 C 0.0065 0.62555 0.35321 0.0
C206 C 1.00311 0.65081 0.43061 0.0
C207 C 1.00507 0.69507 0.41747 0.0
N208 N 0.02222 0.74382 0.359 0.0
N209 N 0.02019 0.57538 0.41096 0.0
C210 C 0.00907 0.70348 0.37237 0.0
C211 C 0.00957 0.61624 0.39846 0.0
N212 N 0.98667 0.67858 0.30021 0.0
N213 N 0.99356 0.64141 0.47288 0.0
H214 H 0.02556 0.54944 0.38877 0.0
H215 H 0.02717 0.5683 0.4433 0.0
H216 H 0.98781 0.66538 0.49711 0.0
H217 H 0.98758 0.60963 0.4829 0.0
H218 H 0.97942 0.71027 0.29135 0.0
H219 H 0.97713 0.65417 0.27718 0.0
H220 H 0.02828 0.75012 0.32623 0.0
H221 H 0.0324 0.76898 0.38092 0.0
C222 C 0.36153 0.01269 0.38448 0.0
C223 C 0.36662 0.02747 0.42887 0.0
C224 C 0.44715 0.02428 0.42138 0.0
C225 C 0.442 0.00856 0.37731 0.0
N226 N 0.3949 0.98142 0.3186 0.0
N227 N 0.41428 0.05604 0.48701 0.0
C228 C 0.3993 1.00135 0.35922 0.0
C229 C 0.4094 0.03606 0.44649 0.0
N230 N 0.32062 0.01217 0.36569 0.0
N231 N 0.48807 0.02584 0.44008 0.0
H232 H 0.38857 0.0611 0.50884 0.0
H233 H 0.44389 0.06955 0.49869 0.0
H234 H 0.51644 0.01694 0.42333 0.0
H235 H 0.49403 0.03264 0.47316 0.0
H236 H 0.31477 1.0062 0.33246 0.0
H237 H 0.29247 0.02202 0.3825 0.0
H238 H 0.36499 0.97055 0.3052 0.0
H239 H 0.4217 0.97213 0.29939 0.0
C240 C 0.9738 0.63051 0.66101 0.0
C241 C 0.01678 0.62116 0.67646 0.0
C242 C 0.04604 0.66974 0.62095 0.0
C243 C 1.00347 0.68686 0.61353 0.0
N244 N 0.9272 0.68783 0.6369 0.0
N245 N 0.09418 0.6425 0.67593 0.0
C246 C 0.96729 0.66849 0.6364 0.0
C247 C 0.05316 0.64366 0.65783 0.0
N248 N 0.93925 0.60243 0.66792 0.0
N249 N 0.07945 0.67637 0.59201 0.0
H250 H 0.10088 0.6275 0.70514 0.0
H251 H 0.12042 0.66146 0.66469 0.0
H252 H 0.07472 0.69063 0.56195 0.0
H253 H 0.11004 0.66193 0.59514 0.0
H254 H 0.90812 0.60695 0.65462 0.0
H255 H 0.94313 0.57183 0.68121 0.0
H256 H 0.9013 0.67677 0.65619 0.0
H257 H 0.92135 0.7177 0.62296 0.0
C258 C 0.4581 0.99648 0.61619 0.0
C259 C 0.44435 0.01598 0.65649 0.0
C260 C 0.3672 1.00341 0.63466 0.0
C261 C 0.38096 0.99006 0.59183 0.0
N262 N 0.44107 0.97902 0.54051 0.0
N263 N 0.38596 0.04179 0.70328 0.0
C264 C 0.42681 0.98752 0.5823 0.0
C265 C 0.39889 0.02032 0.66562 0.0
N266 N 0.50113 0.98546 0.6106 0.0
N267 N 0.32408 0.99822 0.64633 0.0
H268 H 0.40821 0.05425 0.72681 0.0
H269 H 0.35353 0.05033 0.70959 0.0
H270 H 0.30038 0.98405 0.62527 0.0
H271 H 0.31271 1.00352 0.67815 0.0
H272 H 0.51219 0.96596 0.5844 0.0
H273 H 0.52518 0.99231 0.63428 0.0
H274 H 0.47389 0.98205 0.53124 0.0
H275 H 0.42044 0.97294 0.51379 0.0
C276 C 0.01568 0.39598 0.61451 0.0
C277 C 0.01798 0.35201 0.62842 0.0
C278 C 0.00737 0.37834 0.70376 0.0
C279 C 0.01288 0.42227 0.69163 0.0
N280 N 0.02802 0.47296 0.63449 0.0
N281 N 0.03237 0.30542 0.68895 0.0
C282 C 0.01851 0.43134 0.64662 0.0
C283 C 0.01878 0.34446 0.67388 0.0
N284 N 0.0093 0.40421 0.57143 0.0
N285 N 0.9914 0.36886 0.74412 0.0
H286 H 0.04527 0.28093 0.66834 0.0
H287 H 0.03615 0.29996 0.72222 0.0
H288 H 0.98063 0.39312 0.76629 0.0
H289 H 0.98427 0.33691 0.7531 0.0
H290 H 1.00314 0.43535 0.5604 0.0
H291 H 0.00651 0.3796 0.54715 0.0
H292 H 0.03709 0.48047 0.60273 0.0
H293 H 0.02975 0.49951 0.65677 0.0
C294 C 0.61364 0.97867 0.65539 0.0
C295 C 0.61729 1.0021 0.69618 0.0
C296 C 0.67418 0.05045 0.66489 0.0
C297 C 0.66367 0.03256 0.62266 0.0
N298 N 0.62296 0.98011 0.57677 0.0
N299 N 0.65916 0.05242 0.74304 0.0
C300 C 0.63362 0.9965 0.61771 0.0
C301 C 0.65032 0.03559 0.70184 0.0
N302 N 0.59294 0.93863 0.65269 0.0
N303 N 0.7078 0.0807 0.66954 0.0
H304 H 0.64731 0.03762 0.77103 0.0
H305 H 0.6784 0.08027 0.74997 0.0
H306 H 0.72579 0.09207 0.6431 0.0
H307 H 0.71965 0.09335 0.69937 0.0
H308 H 0.59233 0.91863 0.6244 0.0
H309 H 0.58153 0.92248 0.67987 0.0
H310 H 0.5971 0.95791 0.57058 0.0
H311 H 0.63784 0.991 0.5484 0.0
C312 C 0.42044 0.40683 0.03585 0.0
C313 C 0.40742 0.36195 0.03694 0.0
C314 C 0.33202 0.3809 0.01563 0.0
C315 C 0.34544 0.42547 0.01299 0.0
N316 N 0.40222 0.48126 0.01754 0.0
N317 N 0.35168 0.30542 0.02639 0.0
C318 C 0.38973 0.43848 0.02207 0.0
C319 C 0.36336 0.34888 0.02644 0.0
N320 N 0.4621 0.41913 0.0485 0.0
N321 N 0.28874 0.36947 0.00873 0.0
H322 H 0.37213 0.28158 0.03839 0.0
H323 H 0.32238 0.29243 0.01345 0.0
H324 H 0.26572 0.39122 0.99726 0.0
H325 H 0.27495 0.33911 0.01557 0.0
H326 H 0.47364 0.45128 0.05169 0.0
H327 H 0.48489 0.39681 0.05873 0.0
H328 H 0.43445 0.4931 0.01976 0.0
H329 H 0.3802 0.50517 0.00899 0.0
C330 C 0.37719 0.6136 0.99147 0.0
C331 C 0.34476 0.62124 0.02415 0.0
C332 C 0.37649 0.69413 0.03943 0.0
C333 C 0.41217 0.68484 0.01064 0.0
N334 N 0.45023 0.63124 0.96525 0.0
N335 N 0.31959 0.66467 0.08586 0.0
C336 C 0.41376 0.64322 0.9884 0.0
C337 C 0.34678 0.66005 0.05055 0.0
N338 N 0.37187 0.57956 0.96167 0.0
N339 N 0.36871 0.7362 0.05357 0.0
H340 H 0.29746 0.64001 0.09472 0.0
H341 H 0.32233 0.69081 0.1086 0.0
H342 H 0.38652 0.7631 0.04253 0.0
H343 H 0.34098 0.74499 0.07157 0.0
H344 H 0.39179 0.57534 0.9342 0.0
H345 H 0.3454 0.55748 0.96253 0.0
H346 H 0.45462 0.59958 0.95246 0.0
H347 H 0.47801 0.65135 0.96238 0.0
C348 C 0.61418 0.38542 0.95794 0.0
C349 C 0.58961 0.37808 0.99657 0.0
C350 C 0.6498 0.41277 0.04051 0.0
C351 C 0.67179 0.42377 1.00147 0.0
N352 N 0.66964 0.42975 0.92302 0.0
N353 N 0.58206 0.38971 0.07498 0.0
C354 C 0.65236 0.41286 0.9602 0.0
C355 C 0.60687 0.39313 0.03801 0.0
N356 N 0.60287 0.36397 0.91941 0.0
N357 N 0.67067 0.41939 0.07992 0.0
H358 H 0.55148 0.37397 0.07548 0.0
H359 H 0.59043 0.40516 0.10483 0.0
H360 H 0.70193 0.43383 0.083 0.0
H361 H 0.65866 0.40742 0.10912 0.0
H362 H 0.62244 0.36474 0.89148 0.0
H363 H 0.57686 0.34133 0.91653 0.0
H364 H 0.65404 0.42655 0.89266 0.0
H365 H 0.69709 0.45077 0.92322 0.0
C366 C 0.67543 0.65374 0.01422 0.0
C367 C 0.66953 0.6081 0.00619 0.0
C368 C 0.58972 0.61509 0.01568 0.0
C369 C 0.59618 0.65991 0.02842 0.0
N370 N 0.64558 0.72107 0.04492 0.0
N371 N 0.62202 0.54403 1.00206 0.0
C372 C 0.63914 0.67917 0.02865 0.0
C373 C 0.62687 0.58846 0.0072 0.0
N374 N 0.7158 0.67274 0.00741 0.0
N375 N 0.54799 0.5982 0.01058 0.0
H376 H 0.64792 0.52363 0.99353 0.0
H377 H 0.5929 0.52698 0.00846 0.0
H378 H 0.52 0.61603 0.01808 0.0
H379 H 0.54087 0.56754 0.9961 0.0
H380 H 0.72159 0.70642 0.00837 0.0
H381 H 0.7429 0.65483 0.99677 0.0
H382 H 0.67651 0.73545 0.05033 0.0
H383 H 0.6201 0.74053 0.0567 0.0
C384 C 0.46944 0.87983 0.91444 0.0
C385 C 0.50723 0.86376 0.93553 0.0
C386 C 0.55383 0.90908 0.88923 0.0
C387 C 0.51602 0.92885 0.87174 0.0
N388 N 0.43853 0.94314 0.88202 0.0
N389 N 0.58389 0.87793 0.95383 0.0
C390 C 0.47397 0.91747 0.88881 0.0
C391 C 0.54899 0.88309 0.92645 0.0
N392 N 0.42972 0.85837 0.91635 0.0
N393 N 0.5939 0.91232 0.86936 0.0
H394 H 0.58088 0.86268 0.98368 0.0
H395 H 0.61405 0.89405 0.94962 0.0
H396 H 0.59886 0.92699 0.83956 0.0
H397 H 0.62111 0.89522 0.87982 0.0
H398 H 0.4026 0.86754 0.89813 0.0
H399 H 0.42504 0.82872 0.93148 0.0
H400 H 0.40807 0.93737 0.89657 0.0
H401 H 0.44113 0.97317 0.86704 0.0
C402 C 0.13203 0.53987 0.93292 0.0
C403 C 0.17177 0.51774 0.92399 0.0
C404 C 0.15711 0.52222 0.84505 0.0
C405 C 0.1179 0.54578 0.85424 0.0
N406 N 0.07585 0.58778 0.90742 0.0
N407 N 0.22569 0.49304 0.87168 0.0
C408 C 0.10781 0.55808 0.89826 0.0
C409 C 0.18522 0.51023 0.88 0.0
N410 N 0.11627 0.54179 0.97465 0.0
N411 N 0.16773 0.51167 0.80257 0.0
H412 H 0.24609 0.482 0.89626 0.0
H413 H 0.24018 0.49161 0.84087 0.0
H414 H 0.15176 0.52488 0.776 0.0
H415 H 0.19169 0.48927 0.7935 0.0
H416 H 0.08531 0.55343 0.98301 0.0
H417 H 0.13224 0.52684 0.99999 0.0
H418 H 0.07081 0.60151 0.93865 0.0
H419 H 0.05687 0.60194 0.88368 0.0
C420 C 0.49714 0.16778 0.83946 0.0
C421 C 0.50199 0.12371 0.85092 0.0
C422 C 0.49633 0.14773 0.92847 0.0
C423 C 0.49971 0.19214 0.91615 0.0
N424 N 0.51872 0.24182 0.85897 0.0
N425 N 0.51258 0.0723 0.90827 0.0
C426 C 0.50483 0.20135 0.87134 0.0
C427 C 0.50325 0.11358 0.89605 0.0
N428 N 0.48469 0.17772 0.7981 0.0
N429 N 0.4849 0.1379 0.97017 0.0
H430 H 0.51795 0.04653 0.8859 0.0
H431 H 0.51834 0.0646 0.94069 0.0
H432 H 0.47811 0.16175 0.99427 0.0
H433 H 0.47818 0.10606 0.9796 0.0
H434 H 0.478 0.2096 0.78943 0.0
H435 H 0.47596 0.15367 0.77439 0.0
H436 H 0.52571 0.24863 0.8265 0.0
H437 H 0.52856 0.26657 0.8815 0.0
C438 C 0.94317 0.53073 0.92397 0.0
C439 C 0.93767 0.51521 0.87991 0.0
C440 C 0.85748 0.52234 0.887 0.0
C441 C 0.86262 0.53395 0.93214 0.0
N442 N 0.91026 0.54789 0.99439 0.0
N443 N 0.88965 0.49064 0.82082 0.0
C444 C 0.90549 0.53824 0.95072 0.0
C445 C 0.89481 0.50975 0.8617 0.0
N446 N 0.98456 0.53944 0.93995 0.0
N447 N 0.81692 0.52487 0.86793 0.0
H448 H 0.91606 0.48056 0.80146 0.0
H449 H 0.85925 0.48122 0.80748 0.0
H450 H 0.78909 0.5349 0.88522 0.0
H451 H 0.81149 0.52127 0.83436 0.0
H452 H 0.99107 0.55634 0.96948 0.0
H453 H 0.01289 0.53187 0.92243 0.0
H454 H 0.93956 0.54497 0.0116 0.0
H455 H 0.88411 0.55719 0.01406 0.0
C456 C 0.53839 0.11812 0.13642 0.0
C457 C 0.52228 0.1244 0.17992 0.0
C458 C 0.48489 0.19104 0.15772 0.0
C459 C 0.50311 0.18622 0.11527 0.0
N460 N 0.55262 0.14899 0.06566 0.0
N461 N 0.49203 0.1747 0.23419 0.0
C462 C 0.5315 0.1509 0.10513 0.0
C463 C 0.4986 0.16298 0.19113 0.0
N464 N 0.55899 0.08036 0.12416 0.0
N465 N 0.45485 0.22284 0.16646 0.0
H466 H 0.505 0.15742 0.25985 0.0
H467 H 0.47869 0.20441 0.24456 0.0
H468 H 0.44521 0.24509 0.14341 0.0
H469 H 0.4368 0.2248 0.19538 0.0
H470 H 0.56516 0.07104 0.09169 0.0
H471 H 0.56812 0.05692 0.14593 0.0
H472 H 0.57819 0.12776 0.05843 0.0
H473 H 0.54654 0.17054 0.04081 0.0
C474 C 0.92331 0.47775 0.15116 0.0
C475 C 0.93427 0.52145 0.16533 0.0
C476 C 0.87874 0.54907 0.11549 0.0
C477 C 0.86825 0.50527 0.10064 0.0
N478 N 0.86891 0.42875 0.11683 0.0
N479 N 0.91079 0.59608 0.17307 0.0
C480 C 0.88705 0.46984 0.12229 0.0
C481 C 0.90838 0.55631 0.15117 0.0
N482 N 0.94814 0.4437 0.16384 0.0
N483 N 0.86235 0.58416 0.09479 0.0
H484 H 0.93076 0.60206 0.20051 0.0
H485 H 0.88932 0.6214 0.16734 0.0
H486 H 0.8394 0.58195 0.0696 0.0
H487 H 0.87419 0.61604 0.1006 0.0
H488 H 0.94529 0.41231 0.14957 0.0
H489 H 0.97341 0.44702 0.18668 0.0
H490 H 0.87843 0.40237 0.13502 0.0
H491 H 0.84074 0.4222 0.09798 0.0
C492 C 0.52887 0.84187 0.17153 0.0
C493 C 0.52247 0.84961 0.12663 0.0
C494 C 0.52061 0.92874 0.14532 0.0
C495 C 0.52135 0.91945 0.19062 0.0
N496 N 0.50824 0.86479 0.24448 0.0
N497 N 0.5046 0.90129 0.07144 0.0
C498 C 0.51976 0.87522 0.20291 0.0
C499 C 0.51637 0.89336 0.11346 0.0
N500 N 0.54461 0.80282 0.1844 0.0
N501 N 0.52473 0.9708 0.13244 0.0
H502 H 0.50106 0.87674 0.04725 0.0
H503 H 0.49505 0.9319 0.06142 0.0
H504 H 0.52514 0.99742 0.15449 0.0
H505 H 0.52999 0.97898 0.10005 0.0
H506 H 0.55258 0.79717 0.21689 0.0
H507 H 0.55465 0.77839 0.16207 0.0
H508 H 0.50373 0.83254 0.25379 0.0
H509 H 0.4979 0.88825 0.26771 0.0
C510 C 0.12649 0.4927 0.11126 0.0
C511 C 0.15625 0.52905 0.11503 0.0
C512 C 0.14441 0.53201 0.19429 0.0
C513 C 0.10819 0.50201 0.18937 0.0
N514 N 0.06324 0.45528 0.14074 0.0
N515 N 0.19271 0.58481 0.1603 0.0
C516 C 0.09902 0.48234 0.14731 0.0
C517 C 0.16489 0.54922 0.15662 0.0
N518 N 0.12506 0.46718 0.07363 0.0
N519 N 0.16049 0.54262 0.23517 0.0
H520 H 0.20983 0.59719 0.13377 0.0
H521 H 0.19636 0.60386 0.18907 0.0
H522 H 0.14821 0.52835 0.26326 0.0
H523 H 0.18908 0.56131 0.24077 0.0
H524 H 0.10742 0.43767 0.07076 0.0
H525 H 0.14503 0.47292 0.04674 0.0
H526 H 0.05133 0.44604 0.10972 0.0
H527 H 0.04409 0.4435 0.16584 0.0
C528 C 0.88943 0.94373 0.52953 0.0
C529 C 0.84834 0.93199 0.50982 0.0
C530 C 0.86516 0.85422 0.51631 0.0
C531 C 0.90765 0.86568 0.53327 0.0
N532 N 0.96269 0.92179 0.54962 0.0
N533 N 0.79998 0.87681 0.47756 0.0
C534 C 0.92043 0.91061 0.53829 0.0
C535 C 0.83726 0.88739 0.50097 0.0
N536 N 0.89837 0.98661 0.54097 0.0
N537 N 0.85065 0.81163 0.51676 0.0
H538 H 0.77909 0.9005 0.46595 0.0
H539 H 0.79196 0.84517 0.46614 0.0
H540 H 0.86938 0.78672 0.52931 0.0
H541 H 0.81862 0.80158 0.50888 0.0
H542 H 0.9249 0.99689 0.5606 0.0
H543 H 0.87781 0.0119 0.53255 0.0
H544 H 0.97567 0.95348 0.54844 0.0
H545 H 0.98576 0.89876 0.55744 0.0
C546 C 0.89251 0.17425 0.4743 0.0
C547 C 0.92538 0.17692 0.50738 0.0
C548 C 0.8816 0.12575 0.55101 0.0
C549 C 0.85011 0.12152 0.51697 0.0
N550 N 0.83538 0.12893 0.43988 0.0
N551 N 0.95774 0.14123 0.56821 0.0
C552 C 0.85878 0.14162 0.47652 0.0
C553 C 0.92184 0.1485 0.54315 0.0
N554 N 0.89132 0.2042 0.44225 0.0
N555 N 0.8729 0.10972 0.59125 0.0
H556 H 0.98845 0.15306 0.55933 0.0
H557 H 0.95814 0.11847 0.59276 0.0
H558 H 0.8436 0.09344 0.5987 0.0
H559 H 0.89334 0.11607 0.61824 0.0
H560 H 0.86517 0.20574 0.42028 0.0
H561 H 0.9136 0.23029 0.4402 0.0
H562 H 0.84299 0.14006 0.40891 0.0
H563 H 0.81207 0.10342 0.4396 0.0
C564 C 0.10748 0.89738 0.54017 0.0
C565 C 0.08917 0.88401 0.49862 0.0
C566 C 0.15027 0.92171 0.46254 0.0
C567 C 0.17157 0.92952 0.50342 0.0
N568 N 0.17288 0.92044 0.58132 0.0
N569 N 0.10106 0.87381 0.42061 0.0
C570 C 0.15072 0.91649 0.54241 0.0
C571 C 0.11257 0.89376 0.45983 0.0
N572 N 0.08349 0.89281 0.57752 0.0
N573 N 0.16571 0.94157 0.42613 0.0
H574 H 0.07617 0.85002 0.41722 0.0
H575 H 0.11988 0.87679 0.39237 0.0
H576 H 0.19259 0.96334 0.42697 0.0
H577 H 0.14886 0.9402 0.39637 0.0
H578 H 0.09302 0.90672 0.60774 0.0
H579 H 0.0524 0.87813 0.57802 0.0
H580 H 0.16159 0.90677 0.61001 0.0
H581 H 0.20432 0.93451 0.58426 0.0
C582 C 0.15529 0.18137 0.54673 0.0
C583 C 0.11173 0.16751 0.53611 0.0
C584 C 0.13851 0.09717 0.50703 0.0
C585 C 0.18244 0.11163 0.51582 0.0
N586 N 0.23335 0.17069 0.535 0.0
N587 N 0.06279 0.11748 0.49613 0.0
C588 C 0.19104 0.15473 0.5331 0.0
C589 C 0.10364 0.12706 0.51304 0.0
N590 N 0.1624 0.21959 0.57046 0.0
N591 N 0.12957 0.05428 0.49554 0.0
H592 H 0.03648 0.13869 0.49952 0.0
H593 H 0.05614 0.09059 0.47511 0.0
H594 H 0.15375 0.03082 0.49156 0.0
H595 H 0.0978 0.04096 0.49381 0.0
H596 H 0.19289 0.22921 0.58349 0.0
H597 H 0.13704 0.24051 0.57964 0.0
H598 H 0.24158 0.20312 0.54335 0.0
H599 H 0.26015 0.15253 0.52411 0.0
loop_
_geom_bond_atom_site_label_1
_geom_bond_atom_site_label_2
_geom_bond_distance
_geom_bond_site_symmetry_2
_ccdc_geom_bond_type
Co0 O1 2.216 1_455 S
Co0 O2 2.091 . S
Co0 O4 2.004 . S
Co0 O10 2.021 . S
Co0 O12 2.137 1_455 S
Co0 O13 2.244 1_455 S
O1 Co0 2.216 1_655 S
O1 C8 1.247 . S
O2 Co0 2.091 . S
O2 C8 1.261 1_455 S
C3 O12 1.247 . S
C3 O13 1.272 . S
O4 Co0 2.004 . S
O4 C9 1.259 . S
Co5 O6 2.061 1_655 S
Co5 O11 2.052 . S
Co5 O13 2.135 . S
O6 Co5 2.061 1_455 S
O6 C9 1.235 . S
C7 O10 1.238 . S
C7 O11 1.241 1_455 S
C8 O1 1.247 . S
C8 O2 1.261 1_655 S
C9 O4 1.259 . S
C9 O6 1.235 . S
O10 Co0 2.021 . S
O10 C7 1.238 . S
O11 Co5 2.052 . S
O11 C7 1.241 1_655 S
O12 Co0 2.137 1_655 S
O12 C3 1.247 . S
O13 Co0 2.244 1_655 S
O13 C3 1.272 . S
O13 Co5 2.135 . S
Co14 O15 2.216 . S
Co14 O16 2.091 . S
Co14 O18 2.004 1_565 S
Co14 O24 2.021 1_565 S
Co14 O26 2.137 . S
Co14 O27 2.244 1_565 S
O15 Co14 2.216 . S
O15 C22 1.247 . S
O16 Co14 2.091 . S
O16 C22 1.261 . S
C17 O26 1.247 . S
C17 O27 1.272 1_565 S
O18 Co14 2.004 1_545 S
O18 C23 1.259 . S
Co19 O20 2.061 . S
Co19 O25 2.052 . S
Co19 O27 2.135 . S
O20 Co19 2.061 . S
O20 C23 1.235 . S
C21 O24 1.238 . S
C21 O25 1.241 . S
C22 O15 1.247 . S
C22 O16 1.261 . S
C23 O18 1.259 . S
C23 O20 1.235 . S
O24 Co14 2.021 1_545 S
O24 C21 1.238 . S
O25 Co19 2.052 . S
O25 C21 1.241 . S
O26 Co14 2.137 . S
O26 C17 1.247 . S
O27 Co14 2.244 1_545 S
O27 C17 1.272 1_545 S
O27 Co19 2.135 . S
Co28 O29 2.216 1_455 S
Co28 O30 2.091 . S
Co28 O32 2.004 . S
Co28 O38 2.021 . S
Co28 O40 2.137 1_455 S
Co28 O41 2.244 1_455 S
O29 Co28 2.216 1_655 S
O29 C36 1.247 . S
O30 Co28 2.091 . S
O30 C36 1.261 1_455 S
C31 O40 1.247 . S
C31 O41 1.272 . S
O32 Co28 2.004 . S
O32 C37 1.259 . S
Co33 O34 2.061 1_655 S
Co33 O39 2.052 1_655 S
Co33 O41 2.135 . S
O34 Co33 2.061 1_455 S
O34 C37 1.235 . S
C35 O38 1.238 . S
C35 O39 1.241 . S
C36 O29 1.247 . S
C36 O30 1.261 1_655 S
C37 O32 1.259 . S
C37 O34 1.235 . S
O38 Co28 2.021 . S
O38 C35 1.238 . S
O39 Co33 2.052 1_455 S
O39 C35 1.241 . S
O40 Co28 2.137 1_655 S
O40 C31 1.247 . S
O41 Co28 2.244 1_655 S
O41 C31 1.272 . S
O41 Co33 2.135 . S
Co42 O43 2.216 . S
Co42 O44 2.091 . S
Co42 O46 2.004 . S
Co42 O52 2.021 1_545 S
Co42 O54 2.137 . S
Co42 O55 2.244 1_545 S
O43 Co42 2.216 . S
O43 C50 1.247 . S
O44 Co42 2.091 . S
O44 C50 1.261 . S
C45 O54 1.247 . S
C45 O55 1.272 1_545 S
O46 Co42 2.004 . S
O46 C51 1.251 1_545 S
Co47 O48 2.061 . S
Co47 O53 2.052 . S
Co47 O55 2.135 . S
O48 Co47 2.061 . S
O48 C51 1.243 . S
C49 O52 1.238 . S
C49 O53 1.241 . S
C50 O43 1.247 . S
C50 O44 1.261 . S
C51 O46 1.251 1_565 S
C51 O48 1.243 . S
O52 Co42 2.021 1_565 S
O52 C49 1.238 . S
O53 Co47 2.052 . S
O53 C49 1.241 . S
O54 Co42 2.137 . S
O54 C45 1.247 . S
O55 Co42 2.244 1_565 S
O55 C45 1.272 1_565 S
O55 Co47 2.135 . S
Co56 O57 2.216 . S
Co56 O58 2.091 . S
Co56 O60 2.004 . S
Co56 O66 2.021 1_545 S
Co56 O68 2.137 . S
Co56 O69 2.244 1_545 S
O57 Co56 2.216 . S
O57 C64 1.247 . S
O58 Co56 2.091 . S
O58 C64 1.261 . S
C59 O68 1.247 . S
C59 O69 1.272 1_545 S
O60 Co56 2.004 . S
O60 C65 1.259 1_545 S
Co61 O62 2.061 . S
Co61 O67 2.052 . S
Co61 O69 2.135 . S
O62 Co61 2.061 . S
O62 C65 1.235 . S
C63 O66 1.238 . S
C63 O67 1.241 . S
C64 O57 1.247 . S
C64 O58 1.261 . S
C65 O60 1.259 1_565 S
C65 O62 1.235 . S
O66 Co56 2.021 1_565 S
O66 C63 1.238 . S
O67 Co61 2.052 . S
O67 C63 1.241 . S
O68 Co56 2.137 . S
O68 C59 1.247 . S
O69 Co56 2.244 1_565 S
O69 C59 1.272 1_565 S
O69 Co61 2.135 . S
Co70 O71 2.216 . S
Co70 O72 2.091 1_455 S
Co70 O74 2.004 1_455 S
Co70 O80 2.021 1_455 S
Co70 O82 2.137 . S
Co70 O83 2.244 . S
O71 Co70 2.216 . S
O71 C78 1.247 . S
O72 Co70 2.091 1_655 S
O72 C78 1.261 1_655 S
C73 O82 1.247 . S
C73 O83 1.272 . S
O74 Co70 2.004 1_655 S
O74 C79 1.259 . S
Co75 O76 2.061 1_455 S
Co75 O81 2.052 . S
Co75 O83 2.135 . S
O76 Co75 2.061 1_655 S
O76 C79 1.235 . S
C77 O80 1.237 1_455 S
C77 O81 1.242 . S
C78 O71 1.247 . S
C78 O72 1.261 1_455 S
C79 O74 1.259 . S
C79 O76 1.235 . S
O80 Co70 2.021 1_655 S
O80 C77 1.237 1_655 S
O81 Co75 2.052 . S
O81 C77 1.242 . S
O82 Co70 2.137 . S
O82 C73 1.247 . S
O83 Co70 2.244 . S
O83 C73 1.272 . S
O83 Co75 2.135 . S
Co84 O85 2.216 1_545 S
Co84 O86 2.091 1_545 S
Co84 O88 2.004 . S
Co84 O94 2.021 . S
Co84 O96 2.137 1_545 S
Co84 O97 2.244 . S
O85 Co84 2.216 1_565 S
O85 C92 1.247 . S
O86 Co84 2.091 1_565 S
O86 C92 1.261 . S
C87 O96 1.247 1_545 S
C87 O97 1.272 . S
O88 Co84 2.004 . S
O88 C93 1.259 . S
Co89 O90 2.061 . S
Co89 O95 2.052 . S
Co89 O97 2.135 . S
O90 Co89 2.061 . S
O90 C93 1.235 . S
C91 O94 1.238 . S
C91 O95 1.241 . S
C92 O85 1.247 . S
C92 O86 1.261 . S
C93 O88 1.259 . S
C93 O90 1.235 . S
O94 Co84 2.021 . S
O94 C91 1.238 . S
O95 Co89 2.052 . S
O95 C91 1.241 . S
O96 Co84 2.137 1_565 S
O96 C87 1.247 1_565 S
O97 Co84 2.244 . S
O97 C87 1.272 . S
O97 Co89 2.135 . S
Co98 O99 2.216 . S
Co98 O100 2.091 1_455 S
Co98 O102 2.004 1_455 S
Co98 O108 2.021 1_455 S
Co98 O110 2.137 . S
Co98 O111 2.244 . S
O99 Co98 2.216 . S
O99 C106 1.247 . S
O100 Co98 2.091 1_655 S
O100 C106 1.261 1_655 S
C101 O110 1.247 . S
C101 O111 1.272 . S
O102 Co98 2.004 1_655 S
O102 C107 1.259 . S
Co103 O104 2.061 1_455 S
Co103 O109 2.052 . S
Co103 O111 2.135 . S
O104 Co103 2.061 1_655 S
O104 C107 1.235 . S
C105 O108 1.238 . S
C105 O109 1.241 1_655 S
C106 O99 1.247 . S
C106 O100 1.261 1_455 S
C107 O102 1.259 . S
C107 O104 1.235 . S
O108 Co98 2.021 1_655 S
O108 C105 1.238 . S
O109 Co103 2.052 . S
O109 C105 1.241 1_455 S
O110 Co98 2.137 . S
O110 C101 1.247 . S
O111 Co98 2.244 . S
O111 C101 1.272 . S
O111 Co103 2.135 . S
Co112 O113 2.216 1_554 S
Co112 O114 2.091 . S
Co112 O116 2.004 . S
Co112 O122 2.021 . S
Co112 O124 2.137 1_554 S
Co112 O125 2.244 1_554 S
O113 Co112 2.216 1_556 S
O113 C120 1.247 . S
O114 Co112 2.091 . S
O114 C120 1.261 1_554 S
C115 O124 1.247 . S
C115 O125 1.272 . S
O116 Co112 2.004 . S
O116 C121 1.259 . S
Co117 O118 2.061 1_556 S
Co117 O123 2.052 1_556 S
Co117 O125 2.135 . S
O118 Co117 2.061 1_554 S
O118 C121 1.235 . S
C119 O122 1.238 . S
C119 O123 1.241 . S
C120 O113 1.247 . S
C120 O114 1.261 1_556 S
C121 O116 1.259 . S
C121 O118 1.235 . S
O122 Co112 2.021 . S
O122 C119 1.238 . S
O123 Co117 2.052 1_554 S
O123 C119 1.241 . S
O124 Co112 2.137 1_556 S
O124 C115 1.247 . S
O125 Co112 2.244 1_556 S
O125 C115 1.272 . S
O125 Co117 2.135 . S
Co126 O127 2.216 . S
Co126 O128 2.091 . S
Co126 O130 2.004 . S
Co126 O136 2.021 1_554 S
Co126 O138 2.137 . S
Co126 O139 2.244 1_554 S
O127 Co126 2.216 . S
O127 C134 1.247 . S
O128 Co126 2.091 . S
O128 C134 1.261 . S
C129 O138 1.247 . S
C129 O139 1.272 1_554 S
O130 Co126 2.004 . S
O130 C135 1.259 1_554 S
Co131 O132 2.061 . S
Co131 O137 2.052 . S
Co131 O139 2.135 . S
O132 Co131 2.061 . S
O132 C135 1.235 . S
C133 O136 1.238 . S
C133 O137 1.241 . S
C134 O127 1.247 . S
C134 O128 1.261 . S
C135 O130 1.259 1_556 S
C135 O132 1.235 . S
O136 Co126 2.021 1_556 S
O136 C133 1.238 . S
O137 Co131 2.052 . S
O137 C133 1.241 . S
O138 Co126 2.137 . S
O138 C129 1.247 . S
O139 Co126 2.244 1_556 S
O139 C129 1.272 1_556 S
O139 Co131 2.135 . S
Co140 O141 2.216 1_554 S
Co140 O142 2.091 . S
Co140 O144 2.004 . S
Co140 O150 2.021 . S
Co140 O152 2.137 1_554 S
Co140 O153 2.244 1_554 S
O141 Co140 2.216 1_556 S
O141 C148 1.247 1_556 S
O142 Co140 2.091 . S
O142 C148 1.261 . S
C143 O152 1.247 . S
C143 O153 1.272 . S
O144 Co140 2.004 . S
O144 C149 1.259 . S
Co145 O146 2.061 1_556 S
Co145 O151 2.052 1_556 S
Co145 O153 2.135 . S
O146 Co145 2.061 1_554 S
O146 C149 1.235 . S
C147 O150 1.238 . S
C147 O151 1.241 . S
C148 O141 1.247 1_554 S
C148 O142 1.261 . S
C149 O144 1.259 . S
C149 O146 1.235 . S
O150 Co140 2.021 . S
O150 C147 1.238 . S
O151 Co145 2.052 1_554 S
O151 C147 1.241 . S
O152 Co140 2.137 1_556 S
O152 C143 1.247 . S
O153 Co140 2.244 1_556 S
O153 C143 1.272 . S
O153 Co145 2.135 . S
Co154 O155 2.207 1_554 S
Co154 O156 2.070 1_554 S
Co154 O158 2.007 . S
Co154 O164 2.039 . S
Co154 O166 2.126 1_554 S
Co154 O167 2.258 . S
O155 Co154 2.207 1_556 S
O155 C162 1.247 . S
O156 Co154 2.070 1_556 S
O156 C162 1.261 . S
C157 O166 1.247 1_554 S
C157 O167 1.272 . S
O158 Co154 2.007 . S
O158 C163 1.259 . S
Co159 O160 2.061 . S
Co159 O165 2.052 . S
Co159 O167 2.135 . S
O160 Co159 2.061 . S
O160 C163 1.235 . S
C161 O164 1.238 . S
C161 O165 1.241 . S
C162 O155 1.247 . S
C162 O156 1.261 . S
C163 O158 1.259 . S
C163 O160 1.235 . S
O164 Co154 2.039 . S
O164 C161 1.238 . S
O165 Co159 2.052 . S
O165 C161 1.241 . S
O166 Co154 2.126 1_556 S
O166 C157 1.247 1_556 S
O167 Co154 2.258 . S
O167 C157 1.272 . S
O167 Co159 2.135 . S
C168 C169 1.363 1_455 S
C168 C174 1.379 . S
C168 N176 1.356 . S
C169 C168 1.363 1_655 S
C169 C175 1.363 . S
C170 C171 1.363 1_655 S
C170 C175 1.379 . S
C170 N177 1.356 . S
C171 C170 1.363 1_455 S
C171 C174 1.363 . S
N172 C174 1.356 . S
N172 H184 0.984 . S
N172 H185 0.985 . S
N173 C175 1.356 . S
N173 H178 0.984 . S
N173 H179 0.985 . S
C174 C168 1.379 . S
C174 C171 1.363 . S
C174 N172 1.356 . S
C175 C169 1.363 . S
C175 C170 1.379 . S
C175 N173 1.356 . S
N176 C168 1.356 . S
N176 H182 0.984 . S
N176 H183 0.984 . S
N177 C170 1.356 . S
N177 H180 0.984 . S
N177 H181 0.985 . S
H178 N173 0.984 . S
H179 N173 0.985 . S
H180 N177 0.984 . S
H181 N177 0.985 . S
H182 N176 0.984 . S
H183 N176 0.984 . S
H184 N172 0.984 . S
H185 N172 0.985 . S
C186 C187 1.363 . S
C186 C192 1.379 . S
C186 N194 1.356 . S
C187 C186 1.363 . S
C187 C193 1.363 1_545 S
C188 C189 1.363 1_565 S
C188 C193 1.379 . S
C188 N195 1.356 . S
C189 C188 1.363 1_545 S
C189 C192 1.363 . S
N190 C192 1.356 . S
N190 H202 0.984 . S
N190 H203 0.985 . S
N191 C193 1.356 . S
N191 H196 0.984 . S
N191 H197 0.985 . S
C192 C186 1.379 . S
C192 C189 1.363 . S
C192 N190 1.356 . S
C193 C187 1.363 1_565 S
C193 C188 1.379 . S
C193 N191 1.356 . S
N194 C186 1.356 . S
N194 H200 0.984 . S
N194 H201 0.984 . S
N195 C188 1.356 . S
N195 H198 0.984 1_565 S
N195 H199 0.985 . S
H196 N191 0.984 . S
H197 N191 0.985 . S
H198 N195 0.984 1_545 S
H199 N195 0.985 . S
H200 N194 0.984 . S
H201 N194 0.984 . S
H202 N190 0.984 . S
H203 N190 0.985 . S
C204 C205 1.363 . S
C204 C210 1.379 . S
C204 N212 1.356 . S
C205 C204 1.363 . S
C205 C211 1.363 1_455 S
C206 C207 1.363 1_655 S
C206 C211 1.379 . S
C206 N213 1.356 . S
C207 C206 1.363 1_455 S
C207 C210 1.363 . S
N208 C210 1.356 . S
N208 H220 0.984 . S
N208 H221 0.985 . S
N209 C211 1.356 . S
N209 H214 0.984 . S
N209 H215 0.985 . S
C210 C204 1.379 . S
C210 C207 1.363 . S
C210 N208 1.356 . S
C211 C205 1.363 1_655 S
C211 C206 1.379 . S
C211 N209 1.356 . S
N212 C204 1.356 . S
N212 H218 0.984 . S
N212 H219 0.984 . S
N213 C206 1.356 . S
N213 H216 0.984 . S
N213 H217 0.985 . S
H214 N209 0.984 . S
H215 N209 0.985 . S
H216 N213 0.984 . S
H217 N213 0.985 . S
H218 N212 0.984 . S
H219 N212 0.984 . S
H220 N208 0.984 . S
H221 N208 0.985 . S
C222 C223 1.363 . S
C222 C228 1.379 1_545 S
C222 N230 1.356 1_545 S
C223 C222 1.363 . S
C223 C229 1.363 . S
C224 C225 1.363 . S
C224 C229 1.379 . S
C224 N231 1.356 . S
C225 C224 1.363 . S
C225 C228 1.363 1_545 S
N226 C228 1.356 . S
N226 H238 0.984 . S
N226 H239 0.985 . S
N227 C229 1.356 . S
N227 H232 0.984 . S
N227 H233 0.985 . S
C228 C222 1.379 1_565 S
C228 C225 1.363 1_565 S
C228 N226 1.356 . S
C229 C223 1.363 . S
C229 C224 1.379 . S
C229 N227 1.356 . S
N230 C222 1.356 1_565 S
N230 H236 0.984 . S
N230 H237 0.984 1_565 S
N231 C224 1.356 . S
N231 H234 0.984 . S
N231 H235 0.985 . S
H232 N227 0.984 . S
H233 N227 0.985 . S
H234 N231 0.984 . S
H235 N231 0.985 . S
H236 N230 0.984 . S
H237 N230 0.984 1_545 S
H238 N226 0.984 . S
H239 N226 0.985 . S
C240 C241 1.363 1_655 S
C240 C246 1.379 . S
C240 N248 1.356 . S
C241 C240 1.363 1_455 S
C241 C247 1.363 . S
C242 C243 1.381 . S
C242 C247 1.379 . S
C242 N249 1.356 . S
C243 C242 1.381 . S
C243 C246 1.351 1_455 S
N244 C246 1.356 . S
N244 H256 0.984 . S
N244 H257 0.985 . S
N245 C247 1.356 . S
N245 H250 0.984 . S
N245 H251 0.985 . S
C246 C240 1.379 . S
C246 C243 1.351 1_655 S
C246 N244 1.356 . S
C247 C241 1.363 . S
C247 C242 1.379 . S
C247 N245 1.356 . S
N248 C240 1.356 . S
N248 H254 0.984 . S
N248 H255 0.984 . S
N249 C242 1.356 . S
N249 H252 0.984 . S
N249 H253 0.985 . S
H250 N245 0.984 . S
H251 N245 0.985 . S
H252 N249 0.984 . S
H253 N249 0.985 . S
H254 N248 0.984 . S
H255 N248 0.984 . S
H256 N244 0.984 . S
H257 N244 0.985 . S
C258 C259 1.363 1_565 S
C258 C264 1.379 . S
C258 N266 1.356 . S
C259 C258 1.363 1_545 S
C259 C265 1.363 . S
C260 C261 1.363 . S
C260 C265 1.379 . S
C260 N267 1.356 . S
C261 C260 1.363 . S
C261 C264 1.363 1_545 S
N262 C264 1.356 . S
N262 H274 0.984 . S
N262 H275 0.985 . S
N263 C265 1.356 . S
N263 H268 0.984 . S
N263 H269 0.985 . S
C264 C258 1.379 . S
C264 C261 1.363 1_565 S
C264 N262 1.356 . S
C265 C259 1.363 . S
C265 C260 1.379 . S
C265 N263 1.356 . S
N266 C258 1.356 . S
N266 H272 0.984 . S
N266 H273 0.984 . S
N267 C260 1.356 . S
N267 H270 0.984 . S
N267 H271 0.985 . S
H268 N263 0.984 . S
H269 N263 0.985 . S
H270 N267 0.984 . S
H271 N267 0.985 . S
H272 N266 0.984 . S
H273 N266 0.984 . S
H274 N262 0.984 . S
H275 N262 0.985 . S
C276 C277 1.363 . S
C276 C282 1.379 . S
C276 N284 1.356 . S
C277 C276 1.363 . S
C277 C283 1.363 1_455 S
C278 C279 1.363 . S
C278 C283 1.379 . S
C278 N285 1.356 . S
C279 C278 1.363 . S
C279 C282 1.363 1_655 S
N280 C282 1.356 . S
N280 H292 0.984 . S
N280 H293 0.985 . S
N281 C283 1.356 . S
N281 H286 0.984 1_655 S
N281 H287 0.985 . S
C282 C276 1.379 . S
C282 C279 1.363 1_455 S
C282 N280 1.356 . S
C283 C277 1.363 1_655 S
C283 C278 1.379 . S
C283 N281 1.356 . S
N284 C276 1.356 . S
N284 H290 0.984 . S
N284 H291 0.984 . S
N285 C278 1.356 . S
N285 H288 0.984 . S
N285 H289 0.985 . S
H286 N281 0.984 1_455 S
H287 N281 0.985 . S
H288 N285 0.984 . S
H289 N285 0.985 . S
H290 N284 0.984 . S
H291 N284 0.984 . S
H292 N280 0.984 . S
H293 N280 0.985 . S
C294 C295 1.363 . S
C294 C300 1.379 . S
C294 N302 1.356 . S
C295 C294 1.363 . S
C295 C301 1.363 . S
C296 C297 1.363 . S
C296 C301 1.379 . S
C296 N303 1.356 . S
C297 C296 1.363 . S
C297 C300 1.363 . S
N298 C300 1.356 . S
N298 H310 0.984 . S
N298 H311 0.985 . S
N299 C301 1.358 . S
N299 H304 0.984 1_545 S
N299 H305 0.982 1_545 S
C300 C294 1.379 . S
C300 C297 1.363 . S
C300 N298 1.356 . S
C301 C295 1.363 . S
C301 C296 1.379 . S
C301 N299 1.358 . S
N302 C294 1.356 . S
N302 H308 0.984 . S
N302 H309 0.984 . S
N303 C296 1.356 . S
N303 H306 0.984 . S
N303 H307 0.985 . S
H304 N299 0.984 1_565 S
H305 N299 0.982 1_565 S
H306 N303 0.984 . S
H307 N303 0.985 . S
H308 N302 0.984 . S
H309 N302 0.984 . S
H310 N298 0.984 . S
H311 N298 0.985 . S
C312 C313 1.363 1_556 S
C312 C318 1.379 . S
C312 N320 1.356 . S
C313 C312 1.363 1_554 S
C313 C319 1.363 . S
C314 C315 1.353 1_554 S
C314 C319 1.379 . S
C314 N321 1.356 . S
C315 C314 1.353 1_556 S
C315 C318 1.370 . S
N316 C318 1.356 . S
N316 H328 0.984 . S
N316 H329 0.985 . S
N317 C319 1.356 . S
N317 H322 0.984 . S
N317 H323 0.985 . S
C318 C312 1.379 . S
C318 C315 1.370 . S
C318 N316 1.356 . S
C319 C313 1.363 . S
C319 C314 1.379 . S
C319 N317 1.356 . S
N320 C312 1.356 . S
N320 H326 0.984 . S
N320 H327 0.984 . S
N321 C314 1.356 . S
N321 H324 0.984 . S
N321 H325 0.985 . S
H322 N317 0.984 . S
H323 N317 0.985 . S
H324 N321 0.984 . S
H325 N321 0.985 . S
H326 N320 0.984 . S
H327 N320 0.984 . S
H328 N316 0.984 . S
H329 N316 0.985 . S
C330 C331 1.363 . S
C330 C336 1.379 . S
C330 N338 1.356 . S
C331 C330 1.363 . S
C331 C337 1.363 . S
C332 C333 1.363 . S
C332 C337 1.379 . S
C332 N339 1.356 1_554 S
C333 C332 1.363 . S
C333 C336 1.363 . S
N334 C336 1.356 . S
N334 H346 0.984 . S
N334 H347 0.985 . S
N335 C337 1.356 . S
N335 H340 0.984 . S
N335 H341 0.985 . S
C336 C330 1.379 . S
C336 C333 1.363 . S
C336 N334 1.356 . S
C337 C331 1.363 . S
C337 C332 1.379 . S
C337 N335 1.356 . S
N338 C330 1.356 . S
N338 H344 0.984 . S
N338 H345 0.984 . S
N339 C332 1.356 1_556 S
N339 H342 0.984 . S
N339 H343 0.985 . S
H340 N335 0.984 . S
H341 N335 0.985 . S
H342 N339 0.984 . S
H343 N339 0.985 . S
H344 N338 0.984 . S
H345 N338 0.984 . S
H346 N334 0.984 . S
H347 N334 0.985 . S
C348 C349 1.367 . S
C348 C354 1.379 . S
C348 N356 1.356 . S
C349 C348 1.367 . S
C349 C355 1.358 1_556 S
C350 C351 1.363 . S
C350 C355 1.379 . S
C350 N357 1.356 . S
C351 C350 1.363 . S
C351 C354 1.363 1_554 S
N352 C354 1.356 . S
N352 H364 0.984 . S
N352 H365 0.985 . S
N353 C355 1.356 . S
N353 H358 0.984 . S
N353 H359 0.985 . S
C354 C348 1.379 . S
C354 C351 1.363 1_556 S
C354 N352 1.356 . S
C355 C349 1.358 1_554 S
C355 C350 1.379 . S
C355 N353 1.356 . S
N356 C348 1.356 . S
N356 H362 0.984 . S
N356 H363 0.984 . S
N357 C350 1.356 . S
N357 H360 0.984 . S
N357 H361 0.985 . S
H358 N353 0.984 . S
H359 N353 0.985 . S
H360 N357 0.984 . S
H361 N357 0.985 . S
H362 N356 0.984 . S
H363 N356 0.984 . S
H364 N352 0.984 . S
H365 N352 0.985 . S
C366 C367 1.363 1_556 S
C366 C372 1.379 1_556 S
C366 N374 1.356 . S
C367 C366 1.363 1_554 S
C367 C373 1.363 . S
C368 C369 1.363 . S
C368 C373 1.379 . S
C368 N375 1.356 . S
C369 C368 1.363 . S
C369 C372 1.363 . S
N370 C372 1.356 1_556 S
N370 H382 0.984 . S
N370 H383 0.985 1_556 S
N371 C373 1.356 . S
N371 H376 0.984 . S
N371 H377 0.985 . S
C372 C366 1.379 1_554 S
C372 C369 1.363 . S
C372 N370 1.356 1_554 S
C373 C367 1.363 . S
C373 C368 1.379 . S
C373 N371 1.356 . S
N374 C366 1.356 . S
N374 H380 0.984 . S
N374 H381 0.984 . S
N375 C368 1.356 . S
N375 H378 0.984 . S
N375 H379 0.985 . S
H376 N371 0.984 . S
H377 N371 0.985 . S
H378 N375 0.984 . S
H379 N375 0.985 . S
H380 N374 0.984 . S
H381 N374 0.984 . S
H382 N370 0.984 . S
H383 N370 0.985 1_554 S
C384 C385 1.363 . S
C384 C390 1.379 . S
C384 N392 1.356 . S
C385 C384 1.363 . S
C385 C391 1.363 . S
C386 C387 1.363 . S
C386 C391 1.379 . S
C386 N393 1.356 . S
C387 C386 1.363 . S
C387 C390 1.363 . S
N388 C390 1.356 . S
N388 H400 0.984 . S
N388 H401 0.985 . S
N389 C391 1.356 . S
N389 H394 0.984 . S
N389 H395 0.985 . S
C390 C384 1.379 . S
C390 C387 1.363 . S
C390 N388 1.356 . S
C391 C385 1.363 . S
C391 C386 1.379 . S
C391 N389 1.356 . S
N392 C384 1.356 . S
N392 H398 0.984 . S
N392 H399 0.984 . S
N393 C386 1.356 . S
N393 H396 0.984 . S
N393 H397 0.985 . S
H394 N389 0.984 . S
H395 N389 0.985 . S
H396 N393 0.984 . S
H397 N393 0.985 . S
H398 N392 0.984 . S
H399 N392 0.984 . S
H400 N388 0.984 . S
H401 N388 0.985 . S
C402 C403 1.363 . S
C402 C408 1.379 . S
C402 N410 1.356 . S
C403 C402 1.363 . S
C403 C409 1.363 . S
C404 C405 1.363 . S
C404 C409 1.379 . S
C404 N411 1.356 . S
C405 C404 1.363 . S
C405 C408 1.363 . S
N406 C408 1.356 . S
N406 H418 0.984 . S
N406 H419 0.985 . S
N407 C409 1.356 . S
N407 H412 0.984 . S
N407 H413 0.985 . S
C408 C402 1.379 . S
C408 C405 1.363 . S
C408 N406 1.356 . S
C409 C403 1.363 . S
C409 C404 1.379 . S
C409 N407 1.356 . S
N410 C402 1.356 . S
N410 H416 0.984 . S
N410 H417 0.984 . S
N411 C404 1.356 . S
N411 H414 0.984 . S
N411 H415 0.985 . S
H412 N407 0.984 . S
H413 N407 0.985 . S
H414 N411 0.984 . S
H415 N411 0.985 . S
H416 N410 0.984 . S
H417 N410 0.984 . S
H418 N406 0.984 . S
H419 N406 0.985 . S
C420 C421 1.363 . S
C420 C426 1.379 . S
C420 N428 1.356 . S
C421 C420 1.363 . S
C421 C427 1.363 . S
C422 C423 1.363 . S
C422 C427 1.379 . S
C422 N429 1.356 . S
C423 C422 1.363 . S
C423 C426 1.363 . S
N424 C426 1.356 . S
N424 H436 0.984 . S
N424 H437 0.985 . S
N425 C427 1.356 . S
N425 H430 0.984 . S
N425 H431 0.985 . S
C426 C420 1.379 . S
C426 C423 1.363 . S
C426 N424 1.356 . S
C427 C421 1.363 . S
C427 C422 1.379 . S
C427 N425 1.356 . S
N428 C420 1.356 . S
N428 H434 0.984 . S
N428 H435 0.984 . S
N429 C422 1.356 . S
N429 H432 0.984 . S
N429 H433 0.985 . S
H430 N425 0.984 . S
H431 N425 0.985 . S
H432 N429 0.984 . S
H433 N429 0.985 . S
H434 N428 0.984 . S
H435 N428 0.984 . S
H436 N424 0.984 . S
H437 N424 0.985 . S
C438 C439 1.363 . S
C438 C444 1.379 . S
C438 N446 1.356 . S
C439 C438 1.363 . S
C439 C445 1.363 . S
C440 C441 1.363 . S
C440 C445 1.379 . S
C440 N447 1.356 . S
C441 C440 1.363 . S
C441 C444 1.363 . S
N442 C444 1.356 . S
N442 H454 0.984 . S
N442 H455 0.985 . S
N443 C445 1.356 . S
N443 H448 0.984 . S
N443 H449 0.985 . S
C444 C438 1.379 . S
C444 C441 1.363 . S
C444 N442 1.356 . S
C445 C439 1.363 . S
C445 C440 1.379 . S
C445 N443 1.356 . S
N446 C438 1.356 . S
N446 H452 0.984 . S
N446 H453 0.984 . S
N447 C440 1.356 . S
N447 H450 0.984 . S
N447 H451 0.985 . S
H448 N443 0.984 . S
H449 N443 0.985 . S
H450 N447 0.984 . S
H451 N447 0.985 . S
H452 N446 0.984 . S
H453 N446 0.984 . S
H454 N442 0.984 . S
H455 N442 0.985 . S
C456 C457 1.363 . S
C456 C462 1.379 . S
C456 N464 1.356 . S
C457 C456 1.363 . S
C457 C463 1.363 . S
C458 C459 1.363 . S
C458 C463 1.379 . S
C458 N465 1.356 . S
C459 C458 1.363 . S
C459 C462 1.363 . S
N460 C462 1.356 . S
N460 H472 0.984 . S
N460 H473 0.985 . S
N461 C463 1.356 . S
N461 H466 0.984 . S
N461 H467 0.985 . S
C462 C456 1.379 . S
C462 C459 1.363 . S
C462 N460 1.356 . S
C463 C457 1.363 . S
C463 C458 1.379 . S
C463 N461 1.356 . S
N464 C456 1.356 . S
N464 H470 0.984 . S
N464 H471 0.984 . S
N465 C458 1.356 . S
N465 H468 0.984 . S
N465 H469 0.985 . S
H466 N461 0.984 . S
H467 N461 0.985 . S
H468 N465 0.984 . S
H469 N465 0.985 . S
H470 N464 0.984 . S
H471 N464 0.984 . S
H472 N460 0.984 . S
H473 N460 0.985 . S
C474 C475 1.363 . S
C474 C480 1.379 . S
C474 N482 1.356 . S
C475 C474 1.363 . S
C475 C481 1.363 . S
C476 C477 1.363 . S
C476 C481 1.379 . S
C476 N483 1.356 . S
C477 C476 1.363 . S
C477 C480 1.363 . S
N478 C480 1.356 . S
N478 H490 0.984 . S
N478 H491 0.985 . S
N479 C481 1.356 . S
N479 H484 0.984 . S
N479 H485 0.985 . S
C480 C474 1.379 . S
C480 C477 1.363 . S
C480 N478 1.356 . S
C481 C475 1.363 . S
C481 C476 1.379 . S
C481 N479 1.356 . S
N482 C474 1.356 . S
N482 H488 0.984 . S
N482 H489 0.984 . S
N483 C476 1.356 . S
N483 H486 0.984 . S
N483 H487 0.985 . S
H484 N479 0.984 . S
H485 N479 0.985 . S
H486 N483 0.984 . S
H487 N483 0.985 . S
H488 N482 0.984 . S
H489 N482 0.984 . S
H490 N478 0.984 . S
H491 N478 0.985 . S
C492 C493 1.363 . S
C492 C498 1.379 . S
C492 N500 1.356 . S
C493 C492 1.363 . S
C493 C499 1.363 . S
C494 C495 1.363 . S
C494 C499 1.379 . S
C494 N501 1.356 . S
C495 C494 1.363 . S
C495 C498 1.363 . S
N496 C498 1.356 . S
N496 H508 0.984 . S
N496 H509 0.985 . S
N497 C499 1.356 . S
N497 H502 0.984 . S
N497 H503 0.985 . S
C498 C492 1.379 . S
C498 C495 1.363 . S
C498 N496 1.356 . S
C499 C493 1.363 . S
C499 C494 1.379 . S
C499 N497 1.356 . S
N500 C492 1.356 . S
N500 H506 0.984 . S
N500 H507 0.984 . S
N501 C494 1.356 . S
N501 H504 0.984 . S
N501 H505 0.985 . S
H502 N497 0.984 . S
H503 N497 0.985 . S
H504 N501 0.984 . S
H505 N501 0.985 . S
H506 N500 0.984 . S
H507 N500 0.984 . S
H508 N496 0.984 . S
H509 N496 0.985 . S
C510 C511 1.363 . S
C510 C516 1.379 . S
C510 N518 1.356 . S
C511 C510 1.363 . S
C511 C517 1.363 . S
C512 C513 1.363 . S
C512 C517 1.379 . S
C512 N519 1.356 . S
C513 C512 1.363 . S
C513 C516 1.363 . S
N514 C516 1.356 . S
N514 H526 0.984 . S
N514 H527 0.985 . S
N515 C517 1.356 . S
N515 H520 0.984 . S
N515 H521 0.985 . S
C516 C510 1.379 . S
C516 C513 1.363 . S
C516 N514 1.356 . S
C517 C511 1.363 . S
C517 C512 1.379 . S
C517 N515 1.356 . S
N518 C510 1.356 . S
N518 H524 0.984 . S
N518 H525 0.984 . S
N519 C512 1.356 . S
N519 H522 0.984 . S
N519 H523 0.985 . S
H520 N515 0.984 . S
H521 N515 0.985 . S
H522 N519 0.984 . S
H523 N519 0.985 . S
H524 N518 0.984 . S
H525 N518 0.984 . S
H526 N514 0.984 . S
H527 N514 0.985 . S
C528 C529 1.363 . S
C528 C534 1.379 . S
C528 N536 1.356 . S
C529 C528 1.363 . S
C529 C535 1.363 . S
C530 C531 1.363 . S
C530 C535 1.379 . S
C530 N537 1.356 . S
C531 C530 1.363 . S
C531 C534 1.363 . S
N532 C534 1.356 . S
N532 H544 0.984 . S
N532 H545 0.985 . S
N533 C535 1.356 . S
N533 H538 0.984 . S
N533 H539 0.985 . S
C534 C528 1.379 . S
C534 C531 1.363 . S
C534 N532 1.356 . S
C535 C529 1.363 . S
C535 C530 1.379 . S
C535 N533 1.356 . S
N536 C528 1.356 . S
N536 H542 0.984 . S
N536 H543 0.984 . S
N537 C530 1.356 . S
N537 H540 0.984 . S
N537 H541 0.985 . S
H538 N533 0.984 . S
H539 N533 0.985 . S
H540 N537 0.984 . S
H541 N537 0.985 . S
H542 N536 0.984 . S
H543 N536 0.984 . S
H544 N532 0.984 . S
H545 N532 0.985 . S
C546 C547 1.363 . S
C546 C552 1.379 . S
C546 N554 1.356 . S
C547 C546 1.363 . S
C547 C553 1.363 . S
C548 C549 1.363 . S
C548 C553 1.379 . S
C548 N555 1.356 . S
C549 C548 1.363 . S
C549 C552 1.363 . S
N550 C552 1.356 . S
N550 H562 0.984 . S
N550 H563 0.985 . S
N551 C553 1.356 . S
N551 H556 0.984 . S
N551 H557 0.985 . S
C552 C546 1.379 . S
C552 C549 1.363 . S
C552 N550 1.356 . S
C553 C547 1.363 . S
C553 C548 1.379 . S
C553 N551 1.356 . S
N554 C546 1.356 . S
N554 H560 0.984 . S
N554 H561 0.984 . S
N555 C548 1.356 . S
N555 H558 0.984 . S
N555 H559 0.985 . S
H556 N551 0.984 . S
H557 N551 0.985 . S
H558 N555 0.984 . S
H559 N555 0.985 . S
H560 N554 0.984 . S
H561 N554 0.984 . S
H562 N550 0.984 . S
H563 N550 0.985 . S
C564 C565 1.363 . S
C564 C570 1.379 . S
C564 N572 1.356 . S
C565 C564 1.363 . S
C565 C571 1.363 . S
C566 C567 1.363 . S
C566 C571 1.379 . S
C566 N573 1.356 . S
C567 C566 1.363 . S
C567 C570 1.363 . S
N568 C570 1.356 . S
N568 H580 0.984 . S
N568 H581 0.985 . S
N569 C571 1.356 . S
N569 H574 0.984 . S
N569 H575 0.985 . S
C570 C564 1.379 . S
C570 C567 1.363 . S
C570 N568 1.356 . S
C571 C565 1.363 . S
C571 C566 1.379 . S
C571 N569 1.356 . S
N572 C564 1.356 . S
N572 H578 0.984 . S
N572 H579 0.984 . S
N573 C566 1.356 . S
N573 H576 0.984 . S
N573 H577 0.985 . S
H574 N569 0.984 . S
H575 N569 0.985 . S
H576 N573 0.984 . S
H577 N573 0.985 . S
H578 N572 0.984 . S
H579 N572 0.984 . S
H580 N568 0.984 . S
H581 N568 0.985 . S
C582 C583 1.363 . S
C582 C588 1.379 . S
C582 N590 1.356 . S
C583 C582 1.363 . S
C583 C589 1.363 . S
C584 C585 1.363 . S
C584 C589 1.379 . S
C584 N591 1.356 . S
C585 C584 1.363 . S
C585 C588 1.363 . S
N586 C588 1.356 . S
N586 H598 0.984 . S
N586 H599 0.985 . S
N587 C589 1.356 . S
N587 H592 0.984 . S
N587 H593 0.985 . S
C588 C582 1.379 . S
C588 C585 1.363 . S
C588 N586 1.356 . S
C589 C583 1.363 . S
C589 C584 1.379 . S
C589 N587 1.356 . S
N590 C582 1.356 . S
N590 H596 0.984 . S
N590 H597 0.984 . S
N591 C584 1.356 . S
N591 H594 0.984 . S
N591 H595 0.985 . S
H592 N587 0.984 . S
H593 N587 0.985 . S
H594 N591 0.984 . S
H595 N591 0.985 . S
H596 N590 0.984 . S
H597 N590 0.984 . S
H598 N586 0.984 . S
H599 N586 0.985 . S
C169 C8 1.517 . S
C171 C78 1.519 . S
C187 C17 1.586 1_545 S
C189 C59 1.588 . S
C205 C77 1.426 . S
C207 C35 1.424 . S
C223 C45 1.499 . S
C225 C65 1.499 1_545 S
C241 C106 1.549 . S
C243 C36 1.551 1_455 S
C259 C93 1.439 . S
C261 C51 1.440 1_545 S
C277 C7 1.460 . S
C279 C105 1.459 . S
C295 C87 1.532 . S
C297 C23 1.531 . S
C313 C129 1.581 . S
C315 C120 1.561 . S
C331 C119 1.501 . S
C333 C157 1.539 . S
C349 C135 1.449 . S
C351 C147 1.417 . S
C367 C148 1.472 . S
C369 C163 1.490 . S
C385 C162 1.517 . S
C387 C92 1.519 . S
C403 C115 1.586 . S
C405 C101 1.588 . S
C421 C91 1.426 . S
C423 C133 1.424 . S
C439 C107 1.499 . S
C441 C143 1.499 . S
C457 C64 1.550 . S
C459 C134 1.552 . S
C475 C79 1.439 . S
C477 C149 1.441 . S
C493 C161 1.460 . S
C495 C63 1.459 . S
C511 C121 1.531 . S
C513 C73 1.532 . S
C529 C22 1.560 . S
C531 C31 1.581 . S
C547 C3 1.539 . S
C549 C21 1.501 . S
C565 C37 1.448 . S
C567 C49 1.418 . S
C583 C9 1.490 . S
C585 C50 1.472 . S
