# Generated by pormake.
# Topology uol, (4)-cn, num edge types: 1
# Building blocks:
#     Node 0, Type 0, BuildingBlock: QUQFOY_clean_sbu_1, # of connection points: 4
#     Node 1, Type 0, BuildingBlock: QUQFOY_clean_sbu_1, # of connection points: 4
#     Node 2, Type 0, BuildingBlock: QUQFOY_clean_sbu_1, # of connection points: 4
#     Node 3, Type 0, BuildingBlock: QUQFOY_clean_sbu_1, # of connection points: 4
#     Node 4, Type 0, BuildingBlock: QUQFOY_clean_sbu_1, # of connection points: 4
#     Node 5, Type 0, BuildingBlock: QUQFOY_clean_sbu_1, # of connection points: 4
#     Node 6, Type 0, BuildingBlock: QUQFOY_clean_sbu_1, # of connection points: 4
#     Node 7, Type 0, BuildingBlock: QUQFOY_clean_sbu_1, # of connection points: 4
#     Node 8, Type 0, BuildingBlock: QUQFOY_clean_sbu_1, # of connection points: 4
#     Node 9, Type 0, BuildingBlock: QUQFOY_clean_sbu_1, # of connection points: 4
#     Node 10, Type 0, BuildingBlock: QUQFOY_clean_sbu_1, # of connection points: 4
#     Node 11, Type 0, BuildingBlock: QUQFOY_clean_sbu_1, # of connection points: 4
#     Edge 12, Type (0, 0), BuildingBlock: CIFDUS_clean_linker_0, # of connection points: 2
#     Edge 13, Type (0, 0), BuildingBlock: CIFDUS_clean_linker_0, # of connection points: 2
#     Edge 14, Type (0, 0), BuildingBlock: CIFDUS_clean_linker_0, # of connection points: 2
#     Edge 15, Type (0, 0), BuildingBlock: CIFDUS_clean_linker_0, # of connection points: 2
#     Edge 16, Type (0, 0), BuildingBlock: CIFDUS_clean_linker_0, # of connection points: 2
#     Edge 17, Type (0, 0), BuildingBlock: CIFDUS_clean_linker_0, # of connection points: 2
#     Edge 18, Type (0, 0), BuildingBlock: CIFDUS_clean_linker_0, # of connection points: 2
#     Edge 19, Type (0, 0), BuildingBlock: CIFDUS_clean_linker_0, # of connection points: 2
#     Edge 20, Type (0, 0), BuildingBlock: CIFDUS_clean_linker_0, # of connection points: 2
#     Edge 21, Type (0, 0), BuildingBlock: CIFDUS_clean_linker_0, # of connection points: 2
#     Edge 22, Type (0, 0), BuildingBlock: CIFDUS_clean_linker_0, # of connection points: 2
#     Edge 23, Type (0, 0), BuildingBlock: CIFDUS_clean_linker_0, # of connection points: 2
#     Edge 24, Type (0, 0), BuildingBlock: CIFDUS_clean_linker_0, # of connection points: 2
#     Edge 25, Type (0, 0), BuildingBlock: CIFDUS_clean_linker_0, # of connection points: 2
#     Edge 26, Type (0, 0), BuildingBlock: CIFDUS_clean_linker_0, # of connection points: 2
#     Edge 27, Type (0, 0), BuildingBlock: CIFDUS_clean_linker_0, # of connection points: 2
#     Edge 28, Type (0, 0), BuildingBlock: CIFDUS_clean_linker_0, # of connection points: 2
#     Edge 29, Type (0, 0), BuildingBlock: CIFDUS_clean_linker_0, # of connection points: 2
#     Edge 30, Type (0, 0), BuildingBlock: CIFDUS_clean_linker_0, # of connection points: 2
#     Edge 31, Type (0, 0), BuildingBlock: CIFDUS_clean_linker_0, # of connection points: 2
#     Edge 32, Type (0, 0), BuildingBlock: CIFDUS_clean_linker_0, # of connection points: 2
#     Edge 33, Type (0, 0), BuildingBlock: CIFDUS_clean_linker_0, # of connection points: 2
#     Edge 34, Type (0, 0), BuildingBlock: CIFDUS_clean_linker_0, # of connection points: 2
#     Edge 35, Type (0, 0), BuildingBlock: CIFDUS_clean_linker_0, # of connection points: 2
# Relax obj value: 0.039
# Max RMSD: 0.149
# Mean RMSD: 0.149
data_MOF--net-uol--node1-QUQFOY_clean_sbu_1--edge1-CIFDUS_clean_linker_0
_symmetry_space_group_name_H-M    P1
_symmetry_Int_Tables_number       1
_symmetry_cell_setting            triclinic
loop_
_symmetry_equiv_pos_as_xyz
'x, y, z'
_cell_length_a     28.988623
_cell_length_b     28.817057
_cell_length_c     62.569553
_cell_angle_alpha  89.91723
_cell_angle_beta   89.966618
_cell_angle_gamma 119.80252
loop_
_atom_site_label
_atom_site_type_symbol
_atom_site_fract_x
_atom_site_fract_y
_atom_site_fract_z
_atom_type_partial_charge
O0 O 0.21019 0.3547 0.07662 0.0
Cd1 Cd 0.21058 0.38903 0.1058 0.0
Cd2 Cd 0.12342 0.29101 0.11252 0.0
O3 O 0.13228 0.28106 0.07998 0.0
O4 O 0.24669 0.46847 0.10202 0.0
O5 O 0.16116 0.41856 0.10962 0.0
C6 C 0.20129 0.46526 0.10556 0.0
C7 C 0.04357 0.26711 0.13052 0.0
C8 C 0.17338 0.31117 0.06881 0.0
C9 C 0.22107 0.32379 0.14015 0.0
O10 O 0.17643 0.28726 0.13331 0.0
O11 O 0.24248 0.37045 0.13206 0.0
O12 O 0.05388 0.23129 0.12334 0.0
O13 O 0.07622 0.3164 0.12557 0.0
O14 O 0.85433 0.2042 0.24208 0.0
Cd15 Cd 0.82177 0.20489 0.27163 0.0
Cd16 Cd 0.83697 0.12019 0.27798 0.0
O17 O 0.84836 0.12502 0.24505 0.0
O18 O 0.77757 0.24001 0.26814 0.0
O19 O 0.74363 0.15442 0.27632 0.0
C20 C 0.73623 0.19423 0.27217 0.0
C21 C 0.79444 0.0412 0.2984 0.0
C22 C 0.85931 0.16642 0.23394 0.0
C23 C 0.90401 0.22172 0.30324 0.0
O24 O 0.89778 0.17811 0.29569 0.0
O25 O 0.87383 0.23948 0.29717 0.0
O26 O 0.83836 0.05512 0.28844 0.0
O27 O 0.77159 0.06926 0.29498 0.0
O28 O 0.65047 0.86151 0.4174 0.0
Cd29 Cd 0.62308 0.81948 0.44603 0.0
Cd30 Cd 0.72824 0.85249 0.44776 0.0
O31 O 0.72849 0.86596 0.41511 0.0
O32 O 0.5443 0.78733 0.44412 0.0
O33 O 0.58348 0.73845 0.4451 0.0
C34 C 0.54017 0.74072 0.4438 0.0
C35 C 0.75463 0.79837 0.46577 0.0
C36 C 0.69241 0.87316 0.4068 0.0
C37 C 0.68849 0.90006 0.47907 0.0
O38 O 0.72837 0.90939 0.46766 0.0
O39 O 0.64292 0.86057 0.47493 0.0
O40 O 0.78924 0.84388 0.45772 0.0
O41 O 0.70496 0.78137 0.46175 0.0
O42 O 0.83582 0.67808 0.57522 0.0
Cd43 Cd 0.84031 0.64742 0.60488 0.0
Cd44 Cd 0.92751 0.74723 0.60795 0.0
O45 O 0.9154 0.75039 0.57539 0.0
O46 O 0.80333 0.56742 0.60343 0.0
O47 O 0.89005 0.61782 0.60823 0.0
C48 C 0.84902 0.57066 0.60611 0.0
C49 C 1.00859 0.78369 0.62615 0.0
C50 C 0.87192 0.71958 0.56579 0.0
C51 C 0.83448 0.71888 0.63735 0.0
O52 O 0.87585 0.75447 0.628 0.0
O53 O 0.81356 0.67022 0.63166 0.0
O54 O 0.99438 0.81368 0.61615 0.0
O55 O 0.98004 0.73258 0.62342 0.0
O56 O 0.16879 0.81306 0.74862 0.0
Cd57 Cd 0.20294 0.82405 0.77842 0.0
Cd58 Cd 0.1773 0.90196 0.77884 0.0
O59 O 0.16701 0.88846 0.74585 0.0
O60 O 0.24372 0.78538 0.77702 0.0
O61 O 0.28208 0.87305 0.781 0.0
C62 C 0.28669 0.83098 0.77865 0.0
C63 C 0.2226 0.98351 0.79706 0.0
C64 C 0.16031 0.84511 0.73755 0.0
C65 C 0.11878 0.8085 0.80883 0.0
O66 O 0.11893 0.84663 0.79855 0.0
O67 O 0.15292 0.7944 0.80461 0.0
O68 O 0.17848 0.96961 0.78723 0.0
O69 O 0.24413 0.9539 0.79443 0.0
O70 O 0.37647 0.1671 0.91342 0.0
Cd71 Cd 0.40332 0.20291 0.94294 0.0
Cd72 Cd 0.30146 0.1806 0.94509 0.0
O73 O 0.2994 0.16515 0.91231 0.0
O74 O 0.48255 0.2477 0.94088 0.0
O75 O 0.42986 0.28186 0.94564 0.0
C76 C 0.47732 0.28939 0.94301 0.0
C77 C 0.27544 0.23463 0.96343 0.0
C78 C 0.33441 0.15719 0.90333 0.0
C79 C 0.3359 0.12084 0.97476 0.0
O80 O 0.2981 0.12288 0.96536 0.0
O81 O 0.38384 0.15291 0.96944 0.0
O82 O 0.24058 0.1895 0.95528 0.0
O83 O 0.32491 0.25169 0.95904 0.0
O84 O 0.64886 0.78773 0.79268 0.0
Cd85 Cd 0.62332 0.79796 0.76315 0.0
Cd86 Cd 0.72215 0.88033 0.76277 0.0
O87 O 0.72112 0.86666 0.79572 0.0
O88 O 0.54443 0.75385 0.76428 0.0
O89 O 0.58692 0.84203 0.76159 0.0
C90 C 0.54254 0.79757 0.76333 0.0
C91 C 0.74483 0.9599 0.74445 0.0
C92 C 0.68784 0.82152 0.8038 0.0
C93 C 0.69608 0.78964 0.73252 0.0
O94 O 0.73181 0.82858 0.74307 0.0
O95 O 0.64731 0.77286 0.7365 0.0
O96 O 0.78074 0.95246 0.75346 0.0
O97 O 0.69559 0.92455 0.74785 0.0
O98 O 0.865 0.67241 0.96545 0.0
Cd99 Cd 0.83399 0.6449 0.93523 0.0
Cd100 Cd 0.83927 0.741 0.93453 0.0
O101 O 0.84774 0.73874 0.96746 0.0
O102 O 0.80436 0.56585 0.93568 0.0
O103 O 0.7541 0.60325 0.93221 0.0
C104 C 0.75756 0.56035 0.93385 0.0
C105 C 0.78844 0.7689 0.91511 0.0
C106 C 0.86372 0.70923 0.97621 0.0
C107 C 0.91275 0.72548 0.90566 0.0
O108 O 0.90469 0.75793 0.91652 0.0
O109 O 0.8848 0.67546 0.90904 0.0
O110 O 0.82862 0.80218 0.92636 0.0
O111 O 0.77305 0.71857 0.91709 0.0
O112 O 0.21517 0.85967 0.13024 0.0
Cd113 Cd 0.21417 0.82994 0.09993 0.0
Cd114 Cd 0.12139 0.8301 0.09827 0.0
O115 O 0.13154 0.84104 0.13113 0.0
O116 O 0.26174 0.79822 0.10043 0.0
O117 O 0.17461 0.74981 0.09623 0.0
C118 C 0.21999 0.75183 0.09807 0.0
C119 C 0.04311 0.77301 0.07991 0.0
C120 C 0.17616 0.85767 0.14043 0.0
C121 C 0.21061 0.90707 0.06967 0.0
O122 O 0.1676 0.8951 0.07935 0.0
O123 O 0.23561 0.88244 0.07412 0.0
O124 O 0.04844 0.81456 0.08987 0.0
O125 O 0.07996 0.7606 0.0824 0.0
O126 O 0.35377 0.20104 0.2984 0.0
Cd127 Cd 0.38372 0.20243 0.268 0.0
Cd128 Cd 0.29214 0.10985 0.26531 0.0
O129 O 0.28912 0.11694 0.29825 0.0
O130 O 0.46248 0.25097 0.26899 0.0
O131 O 0.42507 0.16371 0.26395 0.0
C132 C 0.46779 0.20949 0.26621 0.0
C133 C 0.27622 0.0341 0.24583 0.0
C134 C 0.31644 0.16106 0.3081 0.0
C135 C 0.30412 0.20082 0.2378 0.0
O136 O 0.27296 0.15712 0.24716 0.0
O137 O 0.35344 0.22526 0.24228 0.0
O138 O 0.23816 0.03644 0.25555 0.0
O139 O 0.32421 0.07252 0.24907 0.0
O140 O 0.15401 0.3539 0.45902 0.0
Cd141 Cd 0.19094 0.38073 0.42967 0.0
Cd142 Cd 0.17864 0.28163 0.42973 0.0
O143 O 0.15993 0.28068 0.46208 0.0
O144 O 0.23348 0.4607 0.43075 0.0
O145 O 0.26976 0.40916 0.42823 0.0
C146 C 0.27579 0.45654 0.42985 0.0
C147 C 0.23771 0.25971 0.41326 0.0
C148 C 0.14742 0.31377 0.46998 0.0
C149 C 0.11639 0.30657 0.39749 0.0
O150 O 0.12152 0.27166 0.40799 0.0
O151 O 0.14366 0.35578 0.4024 0.0
O152 O 0.19363 0.22308 0.42147 0.0
O153 O 0.25101 0.30899 0.41677 0.0
O154 O 0.82047 0.16024 0.63383 0.0
Cd155 Cd 0.82474 0.1989 0.6048 0.0
Cd156 Cd 0.8967 0.16373 0.59774 0.0
O157 O 0.89316 0.15414 0.63059 0.0
O158 O 0.78103 0.23434 0.60918 0.0
O159 O 0.8672 0.28006 0.60279 0.0
C160 C 0.82326 0.28002 0.60632 0.0
C161 C 0.97396 0.20355 0.57663 0.0
C162 C 0.85395 0.14852 0.64177 0.0
C163 C 0.79851 0.11378 0.57193 0.0
O164 O 0.83331 0.10607 0.58094 0.0
O165 O 0.79311 0.15341 0.5772 0.0
O166 O 0.95808 0.15815 0.58599 0.0
O167 O 0.94851 0.22875 0.58082 0.0
H168 H 0.14021 0.64806 0.1023 0.0
H169 H 0.3101 0.74519 0.09429 0.0
H170 H 0.31914 0.66552 0.0958 0.0
H171 H 0.27939 0.56849 0.09991 0.0
H172 H 0.10992 0.4708 0.1089 0.0
H173 H 0.10027 0.55029 0.1066 0.0
C174 C 0.17915 0.65172 0.10075 0.0
C175 C 0.22438 0.70263 0.09812 0.0
C176 C 0.18424 0.60562 0.10194 0.0
C177 C 0.2746 0.70663 0.09634 0.0
C178 C 0.27985 0.66103 0.09722 0.0
C179 C 0.24029 0.56448 0.10138 0.0
C180 C 0.19547 0.51363 0.10458 0.0
C181 C 0.23504 0.61037 0.10014 0.0
C182 C 0.14516 0.50939 0.10648 0.0
C183 C 0.13957 0.55487 0.10512 0.0
H184 H 0.7099 0.272 0.2673 0.0
H185 H 0.64048 0.10154 0.27563 0.0
H186 H 0.55137 0.09075 0.27379 0.0
H187 H 0.4929 0.12999 0.26995 0.0
H188 H 0.56339 0.30091 0.26269 0.0
H189 H 0.65204 0.31108 0.26384 0.0
C190 C 0.67533 0.23243 0.26873 0.0
C191 C 0.68203 0.18767 0.27159 0.0
C192 C 0.62422 0.22655 0.26777 0.0
C193 C 0.63662 0.13675 0.27347 0.0
C194 C 0.58557 0.13052 0.27237 0.0
C195 C 0.52767 0.16941 0.2685 0.0
C196 C 0.52137 0.21459 0.26617 0.0
C197 C 0.57884 0.17514 0.2695 0.0
C198 C 0.56694 0.26543 0.26452 0.0
C199 C 0.61775 0.27133 0.26519 0.0
H200 H 0.51732 0.63707 0.43838 0.0
H201 H 0.44364 0.73495 0.4442 0.0
H202 H 0.35613 0.65635 0.43999 0.0
H203 H 0.30003 0.55992 0.43475 0.0
H204 H 0.3724 0.46098 0.42875 0.0
H205 H 0.46057 0.53971 0.4328 0.0
C206 C 0.4821 0.64114 0.43878 0.0
C207 C 0.48723 0.69197 0.44165 0.0
C208 C 0.43152 0.59556 0.43622 0.0
C209 C 0.44108 0.69646 0.44203 0.0
C210 C 0.39086 0.65146 0.4396 0.0
C211 C 0.33505 0.5555 0.43424 0.0
C212 C 0.32947 0.50453 0.43143 0.0
C213 C 0.38558 0.60086 0.43665 0.0
C214 C 0.37543 0.4997 0.43086 0.0
C215 C 0.42593 0.54474 0.43322 0.0
H216 H 0.76908 0.46721 0.60716 0.0
H217 H 0.94008 0.56375 0.60604 0.0
H218 H 0.94769 0.48286 0.60592 0.0
H219 H 0.90539 0.384 0.60577 0.0
H220 H 0.73417 0.28882 0.60779 0.0
H221 H 0.72724 0.36961 0.60791 0.0
C222 C 0.80809 0.47069 0.6069 0.0
C223 C 0.85391 0.52163 0.60653 0.0
C224 C 0.81218 0.42404 0.60697 0.0
C225 C 0.90408 0.52514 0.60633 0.0
C226 C 0.90848 0.47882 0.60623 0.0
C227 C 0.8666 0.38098 0.60625 0.0
C228 C 0.8204 0.33018 0.60673 0.0
C229 C 0.86276 0.42795 0.60649 0.0
C230 C 0.77047 0.32718 0.60745 0.0
C231 C 0.76638 0.37346 0.60749 0.0
H232 H 0.52486 0.88149 0.76939 0.0
H233 H 0.44394 0.71006 0.76138 0.0
H234 H 0.35837 0.70553 0.76587 0.0
H235 H 0.3063 0.74946 0.77232 0.0
H236 H 0.38551 0.92062 0.78063 0.0
H237 H 0.47188 0.92592 0.77596 0.0
C238 C 0.48847 0.84322 0.76849 0.0
C239 C 0.4909 0.7962 0.765 0.0
C240 C 0.43908 0.84074 0.77131 0.0
C241 C 0.44335 0.74689 0.76405 0.0
C242 C 0.3943 0.74419 0.76665 0.0
C243 C 0.3424 0.788 0.7732 0.0
C244 C 0.33937 0.83455 0.77687 0.0
C245 C 0.39171 0.79076 0.7704 0.0
C246 C 0.38666 0.88411 0.77789 0.0
C247 C 0.43607 0.88719 0.77515 0.0
H248 H 0.58084 0.31651 0.93781 0.0
H249 H 0.47937 0.38537 0.94541 0.0
H250 H 0.55658 0.47522 0.94255 0.0
H251 H 0.65345 0.53449 0.93803 0.0
H252 H 0.75413 0.46446 0.93104 0.0
H253 H 0.67678 0.37511 0.93337 0.0
C254 C 0.57551 0.35111 0.93889 0.0
C255 C 0.52428 0.34405 0.94186 0.0
C256 C 0.62005 0.40263 0.93723 0.0
C257 C 0.5183 0.38951 0.94318 0.0
C258 C 0.56247 0.44098 0.9415 0.0
C259 C 0.65839 0.49966 0.93689 0.0
C260 C 0.70963 0.50632 0.93432 0.0
C261 C 0.61359 0.44807 0.93849 0.0
C262 C 0.71528 0.46067 0.93303 0.0
C263 C 0.67102 0.40944 0.93439 0.0
H264 H 0.35614 0.29118 0.21251 0.0
H265 H 0.2013 0.15443 0.22506 0.0
H266 H 0.16318 0.18094 0.19639 0.0
H267 H 0.1729 0.24035 0.16721 0.0
H268 H 0.32528 0.37895 0.15397 0.0
H269 H 0.365 0.3544 0.18345 0.0
C270 C 0.31405 0.26744 0.20904 0.0
C271 C 0.28192 0.22063 0.22098 0.0
C272 C 0.29182 0.283 0.19233 0.0
C273 C 0.22732 0.19049 0.21622 0.0
C274 C 0.20526 0.20553 0.19975 0.0
C275 C 0.21492 0.26531 0.17066 0.0
C276 C 0.24617 0.31109 0.15822 0.0
C277 C 0.23713 0.25127 0.1876 0.0
C278 C 0.30032 0.34335 0.16324 0.0
C279 C 0.32303 0.32927 0.18009 0.0
H280 H 0.96994 0.18966 0.31913 0.0
H281 H 0.9305 0.31507 0.3252 0.0
H282 H 0.99522 0.355 0.35436 0.0
H283 H 0.06057 0.35116 0.37935 0.0
H284 H 0.09374 0.22132 0.37299 0.0
H285 H 0.03399 0.18651 0.34269 0.0
C286 C 0.97539 0.22593 0.32667 0.0
C287 C 0.94514 0.24916 0.31996 0.0
C288 C 1.01157 0.24781 0.34351 0.0
C289 C 0.9532 0.29625 0.33002 0.0
C290 C 0.99014 0.31902 0.34674 0.0
C291 C 0.05479 0.31548 0.3712 0.0
C292 C 0.08123 0.28862 0.37856 0.0
C293 C 0.0192 0.29474 0.35381 0.0
C294 C 0.07334 0.24235 0.36788 0.0
C295 C 0.03929 0.22242 0.35048 0.0
H296 H 0.75378 1.00639 0.56949 0.0
H297 H 0.77789 0.14455 0.53368 0.0
H298 H 0.74293 0.08976 0.50145 0.0
H299 H 0.71386 1.00381 0.48276 0.0
H300 H 0.68413 0.86481 0.51928 0.0
H301 H 0.71244 0.91825 0.55204 0.0
C302 C 0.75037 0.02414 0.55469 0.0
C303 C 0.76859 0.07928 0.55381 0.0
C304 C 0.72959 0.99228 0.53639 0.0
C305 C 0.76375 0.10203 0.53469 0.0
C306 C 0.74417 0.07082 0.51625 0.0
C307 C 0.71269 0.98532 0.49801 0.0
C308 C 0.69723 0.93081 0.49881 0.0
C309 C 0.7282 0.01615 0.51679 0.0
C310 C 0.69571 0.90679 0.5185 0.0
C311 C 0.71211 0.93734 0.53715 0.0
H312 H 0.73317 0.67159 0.65428 0.0
H313 H 0.8928 0.80349 0.66272 0.0
H314 H 0.86434 0.83488 0.69317 0.0
H315 H 0.79496 0.82747 0.71676 0.0
H316 H 0.63356 0.69945 0.7086 0.0
H317 H 0.66182 0.66407 0.67879 0.0
C318 C 0.76154 0.70702 0.66288 0.0
C319 C 0.81492 0.73532 0.65609 0.0
C320 C 0.74469 0.72574 0.6804 0.0
C321 C 0.85131 0.78129 0.66736 0.0
C322 C 0.83519 0.79929 0.68487 0.0
C323 C 0.76578 0.7916 0.70861 0.0
C324 C 0.71224 0.76616 0.71497 0.0
C325 C 0.78204 0.77218 0.6914 0.0
C326 C 0.6751 0.7199 0.70403 0.0
C327 C 0.69125 0.69966 0.68698 0.0
H328 H 0.96012 0.67698 0.88401 0.0
H329 H 0.95304 0.8231 0.8874 0.0
H330 H 0.01453 0.86017 0.85768 0.0
H331 H 0.06993 0.85205 0.83065 0.0
H332 H 0.08303 0.70959 0.82732 0.0
H333 H 0.01972 0.67023 0.85704 0.0
C334 C 0.97221 0.71691 0.87823 0.0
C335 C 0.95191 0.7471 0.88799 0.0
C336 C 1.00852 0.73868 0.86111 0.0
C337 C 0.96819 0.79897 0.88037 0.0
C338 C 1.00327 0.82029 0.86328 0.0
C339 C 0.05876 0.81219 0.8363 0.0
C340 C 0.08062 0.78352 0.82665 0.0
C341 C 0.02351 0.79053 0.85351 0.0
C342 C 0.06654 0.73239 0.83446 0.0
C343 C 0.03037 0.70992 0.85144 0.0
H344 H 0.30733 0.95752 0.04879 0.0
H345 H 0.15384 0.94804 0.05149 0.0
H346 H 0.17934 0.01227 0.02262 0.0
H347 H 0.24357 0.07042 0.99642 0.0
H348 H 0.39885 0.08493 0.99331 0.0
H349 H 0.37433 0.01971 0.02251 0.0
C350 C 0.27961 0.96965 0.04306 0.0
C351 C 0.2287 0.94776 0.05239 0.0
C352 C 0.2947 1.00745 0.02635 0.0
C353 C 0.19336 0.96419 0.04479 0.0
C354 C 0.20778 1.00093 0.02818 0.0
C355 C 0.27219 0.05929 1.002 0.0
C356 C 0.32279 0.08215 0.99253 0.0
C357 C 0.25812 0.02261 0.01881 0.0
C358 C 0.35953 0.06781 1.00029 0.0
C359 C 0.34548 0.03049 0.01697 0.0
H360 H 0.25907 0.36197 0.04214 0.0
H361 H 0.10401 0.22093 0.04671 0.0
H362 H 0.11953 0.18804 1.01304 0.0
H363 H 0.18024 0.19523 0.98403 0.0
H364 H 0.33674 0.33434 0.98044 0.0
H365 H 0.31714 0.37226 1.01172 0.0
C366 C 0.22831 0.32429 0.0357 0.0
C367 C 0.18052 0.29387 0.04717 0.0
C368 C 0.23781 0.30514 0.01644 0.0
C369 C 0.14126 0.24519 0.0384 0.0
C370 C 0.15014 0.22626 0.0191 0.0
C371 C 0.20971 0.23437 0.98979 0.0
C372 C 0.25999 0.26183 0.97982 0.0
C373 C 0.19869 0.25534 1.0082 0.0
C374 C 0.29776 0.31227 0.98773 0.0
C375 C 0.28666 0.33389 1.00572 0.0
H376 H 0.89853 0.25428 0.20793 0.0
H377 H 0.87454 0.09406 0.21107 0.0
H378 H 0.92398 0.10914 0.17777 0.0
H379 H 0.98184 0.17067 0.14982 0.0
H380 H 1.00926 0.33214 0.14758 0.0
H381 H 0.95011 0.31336 0.17819 0.0
C382 C 0.90338 0.22229 0.20121 0.0
C383 C 0.88305 0.17318 0.21222 0.0
C384 C 0.93278 0.23155 0.18219 0.0
C385 C 0.88986 0.13235 0.20312 0.0
C386 C 0.91829 0.14098 0.18404 0.0
C387 C 0.97411 0.20151 0.15573 0.0
C388 C 1.00028 0.25288 0.14639 0.0
C389 C 0.94107 0.19085 0.17373 0.0
C390 C 0.98983 0.2923 0.15441 0.0
C391 C 0.95616 0.28165 0.17202 0.0
H392 H 0.70657 1.00573 0.32394 0.0
H393 H 0.84114 0.984 0.31168 0.0
H394 H 0.82042 0.92815 0.34351 0.0
H395 H 0.76875 0.89179 0.37672 0.0
H396 H 0.63337 0.91251 0.38857 0.0
H397 H 0.6497 0.96187 0.35519 0.0
C398 C 0.73082 0.988 0.32799 0.0
C399 C 0.77557 0.99952 0.31541 0.0
C400 C 0.71895 0.95608 0.34651 0.0
C401 C 0.80645 0.97602 0.321 0.0
C402 C 0.79483 0.94423 0.33933 0.0
C403 C 0.74255 0.90669 0.37192 0.0
C404 C 0.70023 0.89876 0.38538 0.0
C405 C 0.75198 0.93506 0.35253 0.0
C406 C 0.66641 0.91801 0.37869 0.0
C407 C 0.67573 0.94644 0.35955 0.0
H408 H 0.77932 0.67104 0.54287 0.0
H409 H 0.94 0.80385 0.54056 0.0
H410 H 0.91933 0.83646 0.50798 0.0
H411 H 0.85354 0.83243 0.48216 0.0
H412 H 0.692 0.70164 0.4852 0.0
H413 H 0.71538 0.66292 0.51519 0.0
C414 C 0.81013 0.7067 0.53511 0.0
C415 C 0.86113 0.73506 0.54439 0.0
C416 C 0.79773 0.72586 0.51648 0.0
C417 C 0.90036 0.78121 0.53396 0.0
C418 C 0.88853 0.80003 0.51529 0.0
C419 C 0.82359 0.79492 0.4891 0.0
C420 C 0.77094 0.77019 0.48141 0.0
C421 C 0.83704 0.77343 0.50669 0.0
C422 C 0.73278 0.72168 0.49074 0.0
C423 C 0.74608 0.69959 0.50799 0.0
H424 H 0.14701 0.90509 0.70642 0.0
H425 H 0.12551 0.74809 0.71887 0.0
H426 H 0.08264 0.71694 0.68439 0.0
H427 H 0.04324 0.73115 0.65213 0.0
H428 H 0.06508 0.8879 0.63908 0.0
H429 H 0.11644 0.92207 0.67189 0.0
C430 C 0.1334 0.86424 0.7015 0.0
C431 C 0.13901 0.829 0.71548 0.0
C432 C 0.10872 0.84627 0.68142 0.0
C433 C 0.1216 0.77628 0.70863 0.0
C434 C 0.09692 0.75821 0.68884 0.0
C435 C 0.06021 0.77308 0.65618 0.0
C436 C 0.04978 0.80662 0.64316 0.0
C437 C 0.08922 0.79246 0.67528 0.0
C438 C 0.07229 0.86094 0.64875 0.0
C439 C 0.1014 0.88054 0.66766 0.0
H440 H 0.25451 0.13667 0.8746 0.0
H441 H 0.3934 0.12016 0.88343 0.0
H442 H 0.37431 0.06976 0.85035 0.0
H443 H 0.31398 0.023 0.82048 0.0
H444 H 0.17589 0.04031 0.81097 0.0
H445 H 0.19941 0.09806 0.84228 0.0
C446 C 0.28093 0.12258 0.86917 0.0
C447 C 0.325 0.1319 0.88178 0.0
C448 C 0.26987 0.09346 0.84991 0.0
C449 C 0.35899 0.11359 0.87426 0.0
C450 C 0.3481 0.08453 0.85528 0.0
C451 C 0.28954 0.0402 0.82499 0.0
C452 C 0.243 0.02682 0.81338 0.0
C453 C 0.30306 0.07321 0.84319 0.0
C454 C 0.21198 0.04975 0.81953 0.0
C455 C 0.22519 0.0826 0.83758 0.0
H456 H 0.75597 0.8845 0.83556 0.0
H457 H 0.6366 0.72179 0.82125 0.0
H458 H 0.65288 0.69192 0.85531 0.0
H459 H 0.70611 0.71007 0.88791 0.0
H460 H 0.82441 0.8725 0.90294 0.0
H461 H 0.80267 0.90405 0.87032 0.0
C462 C 0.73322 0.84262 0.83998 0.0
C463 C 0.69556 0.80556 0.82561 0.0
C464 C 0.74247 0.82538 0.85985 0.0
C465 C 0.66606 0.75144 0.83182 0.0
C466 C 0.67533 0.73411 0.85137 0.0
C467 C 0.72642 0.75251 0.8843 0.0
C468 C 0.7671 0.78864 0.89788 0.0
C469 C 0.7141 0.77049 0.86535 0.0
C470 C 0.79287 0.84357 0.89286 0.0
C471 C 0.78076 0.86173 0.87407 0.0
H472 H 0.90793 0.65916 0.99819 0.0
H473 H 0.8697 0.78557 1.00402 0.0
H474 H 0.91597 0.81169 0.03828 0.0
H475 H 0.97536 0.80491 0.06458 0.0
H476 H 0.01733 0.68145 0.05775 0.0
H477 H 0.96079 0.64745 0.02614 0.0
C478 C 0.90902 0.69201 1.00705 0.0
C479 C 0.88566 0.72064 0.99832 0.0
C480 C 0.93658 0.7075 0.02659 0.0
C481 C 0.88748 0.76294 1.01018 0.0
C482 C 0.91407 0.778 0.02981 0.0
C483 C 0.9713 0.76984 0.05647 0.0
C484 C 1.00085 0.74593 0.06355 0.0
C485 C 0.93991 0.75145 0.0379 0.0
C486 C 0.9952 0.70072 0.0527 0.0
C487 C 0.96307 0.68142 0.03452 0.0
H488 H 0.2685 0.90572 0.16332 0.0
H489 H 0.10221 0.85869 0.16746 0.0
H490 H 0.1176 0.90342 0.20197 0.0
H491 H 0.17966 0.96356 0.22912 0.0
H492 H 0.34663 0.01435 0.22409 0.0
H493 H 0.32933 0.95976 0.19203 0.0
C494 C 0.23539 0.90457 0.17186 0.0
C495 C 0.18428 0.87914 0.1626 0.0
C496 C 0.24468 0.93125 0.19158 0.0
C497 C 0.142 0.87813 0.17404 0.0
C498 C 0.15079 0.90381 0.19382 0.0
C499 C 0.21219 0.96188 0.2213 0.0
C500 C 0.26447 0.99327 0.22902 0.0
C501 C 0.20217 0.93159 0.20249 0.0
C502 C 0.30605 0.99072 0.21853 0.0
C503 C 0.29621 0.9597 0.2001 0.0
H504 H 0.36419 0.25012 0.33332 0.0
H505 H 0.23496 0.08691 0.33289 0.0
H506 H 0.20349 0.10113 0.36712 0.0
H507 H 0.20668 0.16259 0.3951 0.0
H508 H 0.33388 0.32667 0.39475 0.0
H509 H 0.37248 0.30904 0.36323 0.0
C510 C 0.32954 0.21734 0.34081 0.0
C511 C 0.30173 0.16763 0.33029 0.0
C512 C 0.31111 0.22599 0.36042 0.0
C513 C 0.25709 0.1257 0.34044 0.0
C514 C 0.23894 0.13382 0.36005 0.0
C515 C 0.24355 0.19423 0.38846 0.0
C516 C 0.26713 0.24602 0.3973 0.0
C517 C 0.2648 0.18418 0.36992 0.0
C518 C 0.31474 0.28649 0.38832 0.0
C519 C 0.3367 0.27651 0.37017 0.0
H520 H 0.12504 0.2328 0.49869 0.0
H521 H 0.11065 0.37365 0.48953 0.0
H522 H 0.06 0.35479 0.52252 0.0
H523 H 0.0133 0.29469 0.55261 0.0
H524 H 0.02745 0.15396 0.56212 0.0
H525 H 0.08485 0.17684 0.53076 0.0
C526 C 0.11134 0.2597 0.50401 0.0
C527 C 0.12143 0.30431 0.49137 0.0
C528 C 0.08186 0.24862 0.52316 0.0
C529 C 0.10345 0.33879 0.49872 0.0
C530 C 0.07428 0.32805 0.51766 0.0
C531 C 0.02961 0.26945 0.54805 0.0
C532 C 0.01565 0.22249 0.55973 0.0
C533 C 0.06233 0.28255 0.52981 0.0
C534 C 0.03734 0.19036 0.5535 0.0
C535 C 0.07006 0.20326 0.53544 0.0
H536 H 0.84215 0.02339 0.72651 0.0
H537 H 0.68045 0.99238 0.72543 0.0
H538 H 0.70139 0.05237 0.69477 0.0
H539 H 0.76324 0.10647 0.66602 0.0
H540 H 0.92344 0.13289 0.6661 0.0
H541 H 0.90551 0.08232 0.69933 0.0
C542 C 0.81167 0.03052 0.71987 0.0
C543 C 0.75971 1.00325 0.72835 0.0
C544 C 0.8236 0.0639 0.70181 0.0
C545 C 0.72075 0.01274 0.71931 0.0
C546 C 0.73266 0.04691 0.70167 0.0
C547 C 0.79454 0.10192 0.67346 0.0
C548 C 0.84464 0.12343 0.66339 0.0
C549 C 0.78359 0.07163 0.69243 0.0
C550 C 0.88447 0.11669 0.67332 0.0
C551 C 0.87422 0.08764 0.69237 0.0
loop_
_geom_bond_atom_site_label_1
_geom_bond_atom_site_label_2
_geom_bond_distance
_geom_bond_site_symmetry_2
_ccdc_geom_bond_type
O0 Cd1 2.223 . S
O0 C8 1.315 . S
Cd1 O0 2.223 . S
Cd1 O4 2.297 . S
Cd1 O5 2.439 . S
Cd1 O11 2.240 . S
Cd2 O3 2.240 . S
Cd2 O10 2.223 . S
Cd2 O12 2.297 . S
Cd2 O13 2.439 . S
O3 Cd2 2.240 . S
O3 C8 1.279 . S
O4 Cd1 2.297 . S
O4 C6 1.247 . S
O5 Cd1 2.439 . S
O5 C6 1.208 . S
C6 O4 1.247 . S
C6 O5 1.208 . S
C7 O12 1.247 . S
C7 O13 1.208 . S
C8 O0 1.315 . S
C8 O3 1.279 . S
C9 O10 1.315 . S
C9 O11 1.279 . S
O10 Cd2 2.223 . S
O10 C9 1.315 . S
O11 Cd1 2.240 . S
O11 C9 1.279 . S
O12 Cd2 2.297 . S
O12 C7 1.247 . S
O13 Cd2 2.439 . S
O13 C7 1.208 . S
O14 Cd15 2.223 . S
O14 C22 1.315 . S
Cd15 O14 2.223 . S
Cd15 O18 2.297 . S
Cd15 O19 2.439 . S
Cd15 O25 2.240 . S
Cd16 O17 2.240 . S
Cd16 O24 2.223 . S
Cd16 O26 2.297 . S
Cd16 O27 2.439 . S
O17 Cd16 2.240 . S
O17 C22 1.279 . S
O18 Cd15 2.297 . S
O18 C20 1.247 . S
O19 Cd15 2.439 . S
O19 C20 1.208 . S
C20 O18 1.247 . S
C20 O19 1.208 . S
C21 O26 1.247 . S
C21 O27 1.208 . S
C22 O14 1.315 . S
C22 O17 1.279 . S
C23 O24 1.315 . S
C23 O25 1.279 . S
O24 Cd16 2.223 . S
O24 C23 1.315 . S
O25 Cd15 2.240 . S
O25 C23 1.279 . S
O26 Cd16 2.297 . S
O26 C21 1.247 . S
O27 Cd16 2.439 . S
O27 C21 1.208 . S
O28 Cd29 2.223 . S
O28 C36 1.315 . S
Cd29 O28 2.223 . S
Cd29 O32 2.297 . S
Cd29 O33 2.439 . S
Cd29 O39 2.240 . S
Cd30 O31 2.240 . S
Cd30 O38 2.223 . S
Cd30 O40 2.297 . S
Cd30 O41 2.439 . S
O31 Cd30 2.240 . S
O31 C36 1.279 . S
O32 Cd29 2.297 . S
O32 C34 1.247 . S
O33 Cd29 2.439 . S
O33 C34 1.208 . S
C34 O32 1.247 . S
C34 O33 1.208 . S
C35 O40 1.247 . S
C35 O41 1.208 . S
C36 O28 1.315 . S
C36 O31 1.279 . S
C37 O38 1.315 . S
C37 O39 1.279 . S
O38 Cd30 2.223 . S
O38 C37 1.315 . S
O39 Cd29 2.240 . S
O39 C37 1.279 . S
O40 Cd30 2.297 . S
O40 C35 1.247 . S
O41 Cd30 2.439 . S
O41 C35 1.208 . S
O42 Cd43 2.223 . S
O42 C50 1.315 . S
Cd43 O42 2.223 . S
Cd43 O46 2.297 . S
Cd43 O47 2.439 . S
Cd43 O53 2.240 . S
Cd44 O45 2.240 . S
Cd44 O52 2.223 . S
Cd44 O54 2.297 . S
Cd44 O55 2.439 . S
O45 Cd44 2.240 . S
O45 C50 1.279 . S
O46 Cd43 2.297 . S
O46 C48 1.247 . S
O47 Cd43 2.439 . S
O47 C48 1.208 . S
C48 O46 1.247 . S
C48 O47 1.208 . S
C49 O54 1.247 . S
C49 O55 1.208 . S
C50 O42 1.315 . S
C50 O45 1.279 . S
C51 O52 1.315 . S
C51 O53 1.279 . S
O52 Cd44 2.223 . S
O52 C51 1.315 . S
O53 Cd43 2.240 . S
O53 C51 1.279 . S
O54 Cd44 2.297 . S
O54 C49 1.247 . S
O55 Cd44 2.439 . S
O55 C49 1.208 . S
O56 Cd57 2.223 . S
O56 C64 1.315 . S
Cd57 O56 2.223 . S
Cd57 O60 2.297 . S
Cd57 O61 2.439 . S
Cd57 O67 2.240 . S
Cd58 O59 2.240 . S
Cd58 O66 2.223 . S
Cd58 O68 2.297 . S
Cd58 O69 2.439 . S
O59 Cd58 2.240 . S
O59 C64 1.279 . S
O60 Cd57 2.297 . S
O60 C62 1.247 . S
O61 Cd57 2.439 . S
O61 C62 1.208 . S
C62 O60 1.247 . S
C62 O61 1.208 . S
C63 O68 1.247 . S
C63 O69 1.208 . S
C64 O56 1.315 . S
C64 O59 1.279 . S
C65 O66 1.315 . S
C65 O67 1.279 . S
O66 Cd58 2.223 . S
O66 C65 1.315 . S
O67 Cd57 2.240 . S
O67 C65 1.279 . S
O68 Cd58 2.297 . S
O68 C63 1.247 . S
O69 Cd58 2.439 . S
O69 C63 1.208 . S
O70 Cd71 2.223 . S
O70 C78 1.315 . S
Cd71 O70 2.223 . S
Cd71 O74 2.297 . S
Cd71 O75 2.439 . S
Cd71 O81 2.240 . S
Cd72 O73 2.240 . S
Cd72 O80 2.223 . S
Cd72 O82 2.297 . S
Cd72 O83 2.439 . S
O73 Cd72 2.240 . S
O73 C78 1.279 . S
O74 Cd71 2.297 . S
O74 C76 1.247 . S
O75 Cd71 2.439 . S
O75 C76 1.208 . S
C76 O74 1.247 . S
C76 O75 1.208 . S
C77 O82 1.247 1_554 S
C77 O83 1.208 1_554 S
C78 O70 1.315 . S
C78 O73 1.279 . S
C79 O80 1.315 . S
C79 O81 1.279 . S
O80 Cd72 2.223 . S
O80 C79 1.315 . S
O81 Cd71 2.240 . S
O81 C79 1.279 . S
O82 Cd72 2.297 . S
O82 C77 1.247 1_556 S
O83 Cd72 2.439 . S
O83 C77 1.208 1_556 S
O84 Cd85 2.223 . S
O84 C92 1.315 . S
Cd85 O84 2.223 . S
Cd85 O88 2.297 . S
Cd85 O89 2.439 . S
Cd85 O95 2.240 . S
Cd86 O87 2.240 . S
Cd86 O94 2.223 . S
Cd86 O96 2.297 . S
Cd86 O97 2.439 . S
O87 Cd86 2.240 . S
O87 C92 1.279 . S
O88 Cd85 2.297 . S
O88 C90 1.247 . S
O89 Cd85 2.439 . S
O89 C90 1.208 . S
C90 O88 1.247 . S
C90 O89 1.208 . S
C91 O96 1.247 . S
C91 O97 1.208 . S
C92 O84 1.315 . S
C92 O87 1.279 . S
C93 O94 1.315 . S
C93 O95 1.279 . S
O94 Cd86 2.223 . S
O94 C93 1.315 . S
O95 Cd85 2.240 . S
O95 C93 1.279 . S
O96 Cd86 2.297 . S
O96 C91 1.247 . S
O97 Cd86 2.439 . S
O97 C91 1.208 . S
O98 Cd99 2.223 . S
O98 C106 1.315 . S
Cd99 O98 2.223 . S
Cd99 O102 2.297 . S
Cd99 O103 2.439 . S
Cd99 O109 2.240 . S
Cd100 O101 2.240 . S
Cd100 O108 2.223 . S
Cd100 O110 2.297 . S
Cd100 O111 2.439 . S
O101 Cd100 2.240 . S
O101 C106 1.279 . S
O102 Cd99 2.297 . S
O102 C104 1.247 . S
O103 Cd99 2.439 . S
O103 C104 1.208 . S
C104 O102 1.247 . S
C104 O103 1.208 . S
C105 O110 1.247 . S
C105 O111 1.208 . S
C106 O98 1.315 . S
C106 O101 1.279 . S
C107 O108 1.315 . S
C107 O109 1.279 . S
O108 Cd100 2.223 . S
O108 C107 1.315 . S
O109 Cd99 2.240 . S
O109 C107 1.279 . S
O110 Cd100 2.297 . S
O110 C105 1.247 . S
O111 Cd100 2.439 . S
O111 C105 1.208 . S
O112 Cd113 2.223 . S
O112 C120 1.315 . S
Cd113 O112 2.223 . S
Cd113 O116 2.297 . S
Cd113 O117 2.439 . S
Cd113 O123 2.240 . S
Cd114 O115 2.240 . S
Cd114 O122 2.223 . S
Cd114 O124 2.297 . S
Cd114 O125 2.439 . S
O115 Cd114 2.240 . S
O115 C120 1.279 . S
O116 Cd113 2.297 . S
O116 C118 1.247 . S
O117 Cd113 2.439 . S
O117 C118 1.208 . S
C118 O116 1.247 . S
C118 O117 1.208 . S
C119 O124 1.247 . S
C119 O125 1.208 . S
C120 O112 1.315 . S
C120 O115 1.279 . S
C121 O122 1.315 . S
C121 O123 1.279 . S
O122 Cd114 2.223 . S
O122 C121 1.315 . S
O123 Cd113 2.240 . S
O123 C121 1.279 . S
O124 Cd114 2.297 . S
O124 C119 1.247 . S
O125 Cd114 2.439 . S
O125 C119 1.208 . S
O126 Cd127 2.223 . S
O126 C134 1.315 . S
Cd127 O126 2.223 . S
Cd127 O130 2.297 . S
Cd127 O131 2.439 . S
Cd127 O137 2.240 . S
Cd128 O129 2.240 . S
Cd128 O136 2.223 . S
Cd128 O138 2.297 . S
Cd128 O139 2.439 . S
O129 Cd128 2.240 . S
O129 C134 1.279 . S
O130 Cd127 2.297 . S
O130 C132 1.247 . S
O131 Cd127 2.439 . S
O131 C132 1.208 . S
C132 O130 1.247 . S
C132 O131 1.208 . S
C133 O138 1.247 . S
C133 O139 1.208 . S
C134 O126 1.315 . S
C134 O129 1.279 . S
C135 O136 1.315 . S
C135 O137 1.279 . S
O136 Cd128 2.223 . S
O136 C135 1.315 . S
O137 Cd127 2.240 . S
O137 C135 1.279 . S
O138 Cd128 2.297 . S
O138 C133 1.247 . S
O139 Cd128 2.439 . S
O139 C133 1.208 . S
O140 Cd141 2.223 . S
O140 C148 1.315 . S
Cd141 O140 2.223 . S
Cd141 O144 2.297 . S
Cd141 O145 2.439 . S
Cd141 O151 2.240 . S
Cd142 O143 2.240 . S
Cd142 O150 2.223 . S
Cd142 O152 2.297 . S
Cd142 O153 2.439 . S
O143 Cd142 2.240 . S
O143 C148 1.279 . S
O144 Cd141 2.297 . S
O144 C146 1.247 . S
O145 Cd141 2.439 . S
O145 C146 1.208 . S
C146 O144 1.247 . S
C146 O145 1.208 . S
C147 O152 1.247 . S
C147 O153 1.208 . S
C148 O140 1.315 . S
C148 O143 1.279 . S
C149 O150 1.315 . S
C149 O151 1.279 . S
O150 Cd142 2.223 . S
O150 C149 1.315 . S
O151 Cd141 2.240 . S
O151 C149 1.279 . S
O152 Cd142 2.297 . S
O152 C147 1.247 . S
O153 Cd142 2.439 . S
O153 C147 1.208 . S
O154 Cd155 2.223 . S
O154 C162 1.315 . S
Cd155 O154 2.223 . S
Cd155 O158 2.297 . S
Cd155 O159 2.439 . S
Cd155 O165 2.240 . S
Cd156 O157 2.240 . S
Cd156 O164 2.223 . S
Cd156 O166 2.297 . S
Cd156 O167 2.439 . S
O157 Cd156 2.240 . S
O157 C162 1.279 . S
O158 Cd155 2.297 . S
O158 C160 1.247 . S
O159 Cd155 2.439 . S
O159 C160 1.208 . S
C160 O158 1.247 . S
C160 O159 1.208 . S
C161 O166 1.247 . S
C161 O167 1.208 . S
C162 O154 1.315 . S
C162 O157 1.279 . S
C163 O164 1.315 . S
C163 O165 1.279 . S
O164 Cd156 2.223 . S
O164 C163 1.315 . S
O165 Cd155 2.240 . S
O165 C163 1.279 . S
O166 Cd156 2.297 . S
O166 C161 1.247 . S
O167 Cd156 2.439 . S
O167 C161 1.208 . S
H168 C174 0.930 . S
H169 C177 0.930 . S
H170 C178 0.930 . S
H171 C179 0.930 . S
H172 C182 0.930 . S
H173 C183 0.930 . S
C174 H168 0.930 . S
C174 C175 1.355 . S
C174 C176 1.415 . S
C175 C174 1.355 . S
C175 C177 1.419 . S
C176 C174 1.415 . S
C176 C181 1.425 . S
C176 C183 1.409 . S
C177 H169 0.930 . S
C177 C175 1.419 . S
C177 C178 1.362 . S
C178 H170 0.930 . S
C178 C177 1.362 . S
C178 C181 1.409 . S
C179 H171 0.930 . S
C179 C180 1.355 . S
C179 C181 1.415 . S
C180 C179 1.355 . S
C180 C182 1.419 . S
C181 C176 1.425 . S
C181 C178 1.409 . S
C181 C179 1.415 . S
C182 H172 0.930 . S
C182 C180 1.419 . S
C182 C183 1.362 . S
C183 H173 0.930 . S
C183 C176 1.409 . S
C183 C182 1.362 . S
H184 C190 0.930 . S
H185 C193 0.930 . S
H186 C194 0.930 . S
H187 C195 0.930 . S
H188 C198 0.930 . S
H189 C199 0.930 . S
C190 H184 0.930 . S
C190 C191 1.355 . S
C190 C192 1.415 . S
C191 C190 1.355 . S
C191 C193 1.419 . S
C192 C190 1.415 . S
C192 C197 1.425 . S
C192 C199 1.409 . S
C193 H185 0.930 . S
C193 C191 1.419 . S
C193 C194 1.362 . S
C194 H186 0.930 . S
C194 C193 1.362 . S
C194 C197 1.409 . S
C195 H187 0.930 . S
C195 C196 1.355 . S
C195 C197 1.415 . S
C196 C195 1.355 . S
C196 C198 1.419 . S
C197 C192 1.425 . S
C197 C194 1.409 . S
C197 C195 1.415 . S
C198 H188 0.930 . S
C198 C196 1.419 . S
C198 C199 1.362 . S
C199 H189 0.930 . S
C199 C192 1.409 . S
C199 C198 1.362 . S
H200 C206 0.930 . S
H201 C209 0.930 . S
H202 C210 0.930 . S
H203 C211 0.930 . S
H204 C214 0.930 . S
H205 C215 0.930 . S
C206 H200 0.930 . S
C206 C207 1.355 . S
C206 C208 1.415 . S
C207 C206 1.355 . S
C207 C209 1.419 . S
C208 C206 1.415 . S
C208 C213 1.425 . S
C208 C215 1.409 . S
C209 H201 0.930 . S
C209 C207 1.419 . S
C209 C210 1.362 . S
C210 H202 0.930 . S
C210 C209 1.362 . S
C210 C213 1.409 . S
C211 H203 0.930 . S
C211 C212 1.355 . S
C211 C213 1.415 . S
C212 C211 1.355 . S
C212 C214 1.419 . S
C213 C208 1.425 . S
C213 C210 1.409 . S
C213 C211 1.415 . S
C214 H204 0.930 . S
C214 C212 1.419 . S
C214 C215 1.362 . S
C215 H205 0.930 . S
C215 C208 1.409 . S
C215 C214 1.362 . S
H216 C222 0.930 . S
H217 C225 0.930 . S
H218 C226 0.930 . S
H219 C227 0.930 . S
H220 C230 0.930 . S
H221 C231 0.930 . S
C222 H216 0.930 . S
C222 C223 1.355 . S
C222 C224 1.415 . S
C223 C222 1.355 . S
C223 C225 1.419 . S
C224 C222 1.415 . S
C224 C229 1.425 . S
C224 C231 1.409 . S
C225 H217 0.930 . S
C225 C223 1.419 . S
C225 C226 1.362 . S
C226 H218 0.930 . S
C226 C225 1.362 . S
C226 C229 1.409 . S
C227 H219 0.930 . S
C227 C228 1.355 . S
C227 C229 1.415 . S
C228 C227 1.355 . S
C228 C230 1.419 . S
C229 C224 1.425 . S
C229 C226 1.409 . S
C229 C227 1.415 . S
C230 H220 0.930 . S
C230 C228 1.419 . S
C230 C231 1.362 . S
C231 H221 0.930 . S
C231 C224 1.409 . S
C231 C230 1.362 . S
H232 C238 0.930 . S
H233 C241 0.930 . S
H234 C242 0.930 . S
H235 C243 0.930 . S
H236 C246 0.930 . S
H237 C247 0.930 . S
C238 H232 0.930 . S
C238 C239 1.355 . S
C238 C240 1.415 . S
C239 C238 1.355 . S
C239 C241 1.419 . S
C240 C238 1.415 . S
C240 C245 1.425 . S
C240 C247 1.409 . S
C241 H233 0.930 . S
C241 C239 1.419 . S
C241 C242 1.362 . S
C242 H234 0.930 . S
C242 C241 1.362 . S
C242 C245 1.409 . S
C243 H235 0.930 . S
C243 C244 1.355 . S
C243 C245 1.415 . S
C244 C243 1.355 . S
C244 C246 1.419 . S
C245 C240 1.425 . S
C245 C242 1.409 . S
C245 C243 1.415 . S
C246 H236 0.930 . S
C246 C244 1.419 . S
C246 C247 1.362 . S
C247 H237 0.930 . S
C247 C240 1.409 . S
C247 C246 1.362 . S
H248 C254 0.930 . S
H249 C257 0.930 . S
H250 C258 0.930 . S
H251 C259 0.930 . S
H252 C262 0.930 . S
H253 C263 0.930 . S
C254 H248 0.930 . S
C254 C255 1.355 . S
C254 C256 1.415 . S
C255 C254 1.355 . S
C255 C257 1.419 . S
C256 C254 1.415 . S
C256 C261 1.425 . S
C256 C263 1.409 . S
C257 H249 0.930 . S
C257 C255 1.419 . S
C257 C258 1.362 . S
C258 H250 0.930 . S
C258 C257 1.362 . S
C258 C261 1.409 . S
C259 H251 0.930 . S
C259 C260 1.355 . S
C259 C261 1.415 . S
C260 C259 1.355 . S
C260 C262 1.419 . S
C261 C256 1.425 . S
C261 C258 1.409 . S
C261 C259 1.415 . S
C262 H252 0.930 . S
C262 C260 1.419 . S
C262 C263 1.362 . S
C263 H253 0.930 . S
C263 C256 1.409 . S
C263 C262 1.362 . S
H264 C270 0.930 . S
H265 C273 0.930 . S
H266 C274 0.930 . S
H267 C275 0.930 . S
H268 C278 0.930 . S
H269 C279 0.930 . S
C270 H264 0.930 . S
C270 C271 1.355 . S
C270 C272 1.415 . S
C271 C270 1.355 . S
C271 C273 1.419 . S
C272 C270 1.415 . S
C272 C277 1.425 . S
C272 C279 1.409 . S
C273 H265 0.930 . S
C273 C271 1.419 . S
C273 C274 1.362 . S
C274 H266 0.930 . S
C274 C273 1.362 . S
C274 C277 1.409 . S
C275 H267 0.930 . S
C275 C276 1.355 . S
C275 C277 1.415 . S
C276 C275 1.355 . S
C276 C278 1.419 . S
C277 C272 1.425 . S
C277 C274 1.409 . S
C277 C275 1.415 . S
C278 H268 0.930 . S
C278 C276 1.419 . S
C278 C279 1.362 . S
C279 H269 0.930 . S
C279 C272 1.409 . S
C279 C278 1.362 . S
H280 C286 0.930 . S
H281 C289 0.930 . S
H282 C290 0.930 . S
H283 C291 0.930 . S
H284 C294 0.930 . S
H285 C295 0.930 . S
C286 H280 0.930 . S
C286 C287 1.355 . S
C286 C288 1.424 . S
C287 C286 1.355 . S
C287 C289 1.419 . S
C288 C286 1.424 . S
C288 C293 1.431 1_655 S
C288 C295 1.398 1_655 S
C289 H281 0.930 . S
C289 C287 1.419 . S
C289 C290 1.362 . S
C290 H282 0.930 . S
C290 C289 1.362 . S
C290 C293 1.397 1_655 S
C291 H283 0.930 . S
C291 C292 1.355 . S
C291 C293 1.424 . S
C292 C291 1.355 . S
C292 C294 1.419 . S
C293 C288 1.431 1_455 S
C293 C290 1.397 1_455 S
C293 C291 1.424 . S
C294 H284 0.930 . S
C294 C292 1.419 . S
C294 C295 1.362 . S
C295 H285 0.930 . S
C295 C288 1.398 1_455 S
C295 C294 1.362 . S
H296 C302 0.930 . S
H297 C305 0.930 . S
H298 C306 0.930 . S
H299 C307 0.930 . S
H300 C310 0.930 . S
H301 C311 0.930 . S
C302 H296 0.930 . S
C302 C303 1.355 . S
C302 C304 1.412 1_545 S
C303 C302 1.355 . S
C303 C305 1.419 . S
C304 C302 1.412 1_565 S
C304 C309 1.425 1_565 S
C304 C311 1.412 . S
C305 H297 0.930 . S
C305 C303 1.419 . S
C305 C306 1.362 . S
C306 H298 0.930 . S
C306 C305 1.362 . S
C306 C309 1.411 . S
C307 H299 0.930 . S
C307 C308 1.355 . S
C307 C309 1.413 1_565 S
C308 C307 1.355 . S
C308 C310 1.419 . S
C309 C304 1.425 1_545 S
C309 C306 1.411 . S
C309 C307 1.413 1_545 S
C310 H300 0.930 . S
C310 C308 1.419 . S
C310 C311 1.362 . S
C311 H301 0.930 . S
C311 C304 1.412 . S
C311 C310 1.362 . S
H312 C318 0.930 . S
H313 C321 0.930 . S
H314 C322 0.930 . S
H315 C323 0.930 . S
H316 C326 0.930 . S
H317 C327 0.930 . S
C318 H312 0.930 . S
C318 C319 1.355 . S
C318 C320 1.415 . S
C319 C318 1.355 . S
C319 C321 1.419 . S
C320 C318 1.415 . S
C320 C325 1.425 . S
C320 C327 1.409 . S
C321 H313 0.930 . S
C321 C319 1.419 . S
C321 C322 1.362 . S
C322 H314 0.930 . S
C322 C321 1.362 . S
C322 C325 1.409 . S
C323 H315 0.930 . S
C323 C324 1.355 . S
C323 C325 1.415 . S
C324 C323 1.355 . S
C324 C326 1.419 . S
C325 C320 1.425 . S
C325 C322 1.409 . S
C325 C323 1.415 . S
C326 H316 0.930 . S
C326 C324 1.419 . S
C326 C327 1.362 . S
C327 H317 0.930 . S
C327 C320 1.409 . S
C327 C326 1.362 . S
H328 C334 0.930 . S
H329 C337 0.930 . S
H330 C338 0.930 1_455 S
H331 C339 0.930 . S
H332 C342 0.930 . S
H333 C343 0.930 1_655 S
C334 H328 0.930 . S
C334 C335 1.355 . S
C334 C336 1.415 . S
C335 C334 1.355 . S
C335 C337 1.419 . S
C336 C334 1.415 . S
C336 C341 1.425 1_655 S
C336 C343 1.409 1_655 S
C337 H329 0.930 . S
C337 C335 1.419 . S
C337 C338 1.362 . S
C338 H330 0.930 1_655 S
C338 C337 1.362 . S
C338 C341 1.409 1_655 S
C339 H331 0.930 . S
C339 C340 1.355 . S
C339 C341 1.415 . S
C340 C339 1.355 . S
C340 C342 1.419 . S
C341 C336 1.425 1_455 S
C341 C338 1.409 1_455 S
C341 C339 1.415 . S
C342 H332 0.930 . S
C342 C340 1.419 . S
C342 C343 1.362 . S
C343 H333 0.930 1_455 S
C343 C336 1.409 1_455 S
C343 C342 1.362 . S
H344 C350 0.930 . S
H345 C353 0.930 . S
H346 C354 0.930 1_556 S
H347 C355 0.930 . S
H348 C358 0.930 . S
H349 C359 0.930 . S
C350 H344 0.930 . S
C350 C351 1.355 . S
C350 C352 1.415 . S
C351 C350 1.355 . S
C351 C353 1.419 . S
C352 C350 1.415 . S
C352 C357 1.425 1_565 S
C352 C359 1.409 1_565 S
C353 H345 0.930 . S
C353 C351 1.419 . S
C353 C354 1.362 . S
C354 H346 0.930 1_554 S
C354 C353 1.362 . S
C354 C357 1.409 1_565 S
C355 H347 0.930 . S
C355 C356 1.355 . S
C355 C357 1.415 1_556 S
C356 C355 1.355 . S
C356 C358 1.425 . S
C357 C352 1.425 1_545 S
C357 C354 1.409 1_545 S
C357 C355 1.415 1_554 S
C358 H348 0.930 . S
C358 C356 1.425 . S
C358 C359 1.356 1_556 S
C359 H349 0.930 . S
C359 C352 1.409 1_545 S
C359 C358 1.356 1_554 S
H360 C366 0.930 . S
H361 C369 0.930 . S
H362 C370 0.930 . S
H363 C371 0.930 . S
H364 C374 0.930 . S
H365 C375 0.930 . S
C366 H360 0.930 . S
C366 C367 1.355 . S
C366 C368 1.415 . S
C367 C366 1.355 . S
C367 C369 1.419 . S
C368 C366 1.415 . S
C368 C373 1.425 . S
C368 C375 1.409 . S
C369 H361 0.930 . S
C369 C367 1.419 . S
C369 C370 1.362 . S
C370 H362 0.930 . S
C370 C369 1.362 . S
C370 C373 1.409 . S
C371 H363 0.930 . S
C371 C372 1.355 . S
C371 C373 1.415 . S
C372 C371 1.355 . S
C372 C374 1.419 . S
C373 C368 1.425 . S
C373 C370 1.409 . S
C373 C371 1.415 . S
C374 H364 0.930 . S
C374 C372 1.419 . S
C374 C375 1.362 . S
C375 H365 0.930 . S
C375 C368 1.409 . S
C375 C374 1.362 . S
H376 C382 0.930 . S
H377 C385 0.930 . S
H378 C386 0.930 . S
H379 C387 0.930 . S
H380 C390 0.930 . S
H381 C391 0.930 1_455 S
C382 H376 0.930 . S
C382 C383 1.355 . S
C382 C384 1.415 . S
C383 C382 1.355 . S
C383 C385 1.419 . S
C384 C382 1.415 . S
C384 C389 1.425 . S
C384 C391 1.409 . S
C385 H377 0.930 . S
C385 C383 1.419 . S
C385 C386 1.362 . S
C386 H378 0.930 . S
C386 C385 1.362 . S
C386 C389 1.409 . S
C387 H379 0.930 . S
C387 C388 1.355 . S
C387 C389 1.415 . S
C388 C387 1.355 . S
C388 C390 1.419 1_655 S
C389 C384 1.425 . S
C389 C386 1.409 . S
C389 C387 1.415 . S
C390 H380 0.930 . S
C390 C388 1.419 1_455 S
C390 C391 1.362 1_455 S
C391 H381 0.930 1_655 S
C391 C384 1.409 . S
C391 C390 1.362 1_655 S
H392 C398 0.930 1_545 S
H393 C401 0.930 . S
H394 C402 0.930 . S
H395 C403 0.930 . S
H396 C406 0.930 . S
H397 C407 0.930 . S
C398 H392 0.930 1_565 S
C398 C399 1.355 . S
C398 C400 1.415 . S
C399 C398 1.355 . S
C399 C401 1.419 . S
C400 C398 1.415 . S
C400 C405 1.425 . S
C400 C407 1.409 . S
C401 H393 0.930 . S
C401 C399 1.419 . S
C401 C402 1.362 . S
C402 H394 0.930 . S
C402 C401 1.362 . S
C402 C405 1.409 . S
C403 H395 0.930 . S
C403 C404 1.355 . S
C403 C405 1.415 . S
C404 C403 1.355 . S
C404 C406 1.419 . S
C405 C400 1.425 . S
C405 C402 1.409 . S
C405 C403 1.415 . S
C406 H396 0.930 . S
C406 C404 1.419 . S
C406 C407 1.362 . S
C407 H397 0.930 . S
C407 C400 1.409 . S
C407 C406 1.362 . S
H408 C414 0.930 . S
H409 C417 0.930 . S
H410 C418 0.930 . S
H411 C419 0.930 . S
H412 C422 0.930 . S
H413 C423 0.930 . S
C414 H408 0.930 . S
C414 C415 1.355 . S
C414 C416 1.415 . S
C415 C414 1.355 . S
C415 C417 1.419 . S
C416 C414 1.415 . S
C416 C421 1.425 . S
C416 C423 1.409 . S
C417 H409 0.930 . S
C417 C415 1.419 . S
C417 C418 1.362 . S
C418 H410 0.930 . S
C418 C417 1.362 . S
C418 C421 1.409 . S
C419 H411 0.930 . S
C419 C420 1.355 . S
C419 C421 1.415 . S
C420 C419 1.355 . S
C420 C422 1.419 . S
C421 C416 1.425 . S
C421 C418 1.409 . S
C421 C419 1.415 . S
C422 H412 0.930 . S
C422 C420 1.419 . S
C422 C423 1.362 . S
C423 H413 0.930 . S
C423 C416 1.409 . S
C423 C422 1.362 . S
H424 C430 0.930 . S
H425 C433 0.930 . S
H426 C434 0.930 . S
H427 C435 0.930 . S
H428 C438 0.930 1_655 S
H429 C439 0.930 . S
C430 H424 0.930 . S
C430 C431 1.355 . S
C430 C432 1.415 . S
C431 C430 1.355 . S
C431 C433 1.419 . S
C432 C430 1.415 . S
C432 C437 1.425 . S
C432 C439 1.409 . S
C433 H425 0.930 . S
C433 C431 1.419 . S
C433 C434 1.362 . S
C434 H426 0.930 . S
C434 C433 1.362 . S
C434 C437 1.409 . S
C435 H427 0.930 . S
C435 C436 1.355 . S
C435 C437 1.415 . S
C436 C435 1.355 . S
C436 C438 1.419 . S
C437 C432 1.425 . S
C437 C434 1.409 . S
C437 C435 1.415 . S
C438 H428 0.930 1_455 S
C438 C436 1.419 . S
C438 C439 1.362 . S
C439 H429 0.930 . S
C439 C432 1.409 . S
C439 C438 1.362 . S
H440 C446 0.930 . S
H441 C449 0.930 . S
H442 C450 0.930 . S
H443 C451 0.930 . S
H444 C454 0.930 . S
H445 C455 0.930 . S
C446 H440 0.930 . S
C446 C447 1.355 . S
C446 C448 1.415 . S
C447 C446 1.355 . S
C447 C449 1.419 . S
C448 C446 1.415 . S
C448 C453 1.425 . S
C448 C455 1.409 . S
C449 H441 0.930 . S
C449 C447 1.419 . S
C449 C450 1.362 . S
C450 H442 0.930 . S
C450 C449 1.362 . S
C450 C453 1.409 . S
C451 H443 0.930 . S
C451 C452 1.355 . S
C451 C453 1.415 . S
C452 C451 1.355 . S
C452 C454 1.419 . S
C453 C448 1.425 . S
C453 C450 1.409 . S
C453 C451 1.415 . S
C454 H444 0.930 . S
C454 C452 1.419 . S
C454 C455 1.362 . S
C455 H445 0.930 . S
C455 C448 1.409 . S
C455 C454 1.362 . S
H456 C462 0.930 . S
H457 C465 0.930 . S
H458 C466 0.930 . S
H459 C467 0.930 . S
H460 C470 0.930 . S
H461 C471 0.930 . S
C462 H456 0.930 . S
C462 C463 1.355 . S
C462 C464 1.415 . S
C463 C462 1.355 . S
C463 C465 1.419 . S
C464 C462 1.415 . S
C464 C469 1.425 . S
C464 C471 1.409 . S
C465 H457 0.930 . S
C465 C463 1.419 . S
C465 C466 1.362 . S
C466 H458 0.930 . S
C466 C465 1.362 . S
C466 C469 1.409 . S
C467 H459 0.930 . S
C467 C468 1.355 . S
C467 C469 1.415 . S
C468 C467 1.355 . S
C468 C470 1.419 . S
C469 C464 1.425 . S
C469 C466 1.409 . S
C469 C467 1.415 . S
C470 H460 0.930 . S
C470 C468 1.419 . S
C470 C471 1.362 . S
C471 H461 0.930 . S
C471 C464 1.409 . S
C471 C470 1.362 . S
H472 C478 0.930 . S
H473 C481 0.930 . S
H474 C482 0.930 . S
H475 C483 0.941 . S
H476 C486 0.930 . S
H477 C487 0.930 1_455 S
C478 H472 0.930 . S
C478 C479 1.355 . S
C478 C480 1.415 . S
C479 C478 1.355 . S
C479 C481 1.419 . S
C480 C478 1.415 . S
C480 C485 1.425 . S
C480 C487 1.409 . S
C481 H473 0.930 . S
C481 C479 1.419 . S
C481 C482 1.362 . S
C482 H474 0.930 . S
C482 C481 1.362 . S
C482 C485 1.409 . S
C483 H475 0.941 . S
C483 C484 1.355 . S
C483 C485 1.415 . S
C484 C483 1.355 . S
C484 C486 1.419 1_655 S
C485 C480 1.425 . S
C485 C482 1.409 . S
C485 C483 1.415 . S
C486 H476 0.930 . S
C486 C484 1.419 1_455 S
C486 C487 1.362 1_455 S
C487 H477 0.930 1_655 S
C487 C480 1.409 . S
C487 C486 1.362 1_655 S
H488 C494 0.930 . S
H489 C497 0.930 . S
H490 C498 0.930 . S
H491 C499 0.930 1_545 S
H492 C502 0.930 . S
H493 C503 0.930 . S
C494 H488 0.930 . S
C494 C495 1.355 . S
C494 C496 1.415 . S
C495 C494 1.355 . S
C495 C497 1.419 . S
C496 C494 1.415 . S
C496 C501 1.425 . S
C496 C503 1.409 . S
C497 H489 0.930 . S
C497 C495 1.419 . S
C497 C498 1.362 . S
C498 H490 0.930 . S
C498 C497 1.362 . S
C498 C501 1.409 . S
C499 H491 0.930 1_565 S
C499 C500 1.355 . S
C499 C501 1.415 . S
C500 C499 1.355 . S
C500 C502 1.419 . S
C501 C496 1.425 . S
C501 C498 1.409 . S
C501 C499 1.415 . S
C502 H492 0.930 . S
C502 C500 1.419 . S
C502 C503 1.362 . S
C503 H493 0.930 . S
C503 C496 1.409 . S
C503 C502 1.362 . S
H504 C510 0.930 . S
H505 C513 0.930 . S
H506 C514 0.930 . S
H507 C515 0.930 . S
H508 C518 0.930 . S
H509 C519 0.930 . S
C510 H504 0.930 . S
C510 C511 1.355 . S
C510 C512 1.415 . S
C511 C510 1.355 . S
C511 C513 1.419 . S
C512 C510 1.415 . S
C512 C517 1.425 . S
C512 C519 1.409 . S
C513 H505 0.930 . S
C513 C511 1.419 . S
C513 C514 1.362 . S
C514 H506 0.930 . S
C514 C513 1.362 . S
C514 C517 1.409 . S
C515 H507 0.930 . S
C515 C516 1.355 . S
C515 C517 1.415 . S
C516 C515 1.355 . S
C516 C518 1.419 . S
C517 C512 1.425 . S
C517 C514 1.409 . S
C517 C515 1.415 . S
C518 H508 0.930 . S
C518 C516 1.419 . S
C518 C519 1.362 . S
C519 H509 0.930 . S
C519 C512 1.409 . S
C519 C518 1.362 . S
H520 C526 0.930 . S
H521 C529 0.930 . S
H522 C530 0.930 . S
H523 C531 0.930 . S
H524 C534 0.930 . S
H525 C535 0.930 . S
C526 H520 0.930 . S
C526 C527 1.355 . S
C526 C528 1.415 . S
C527 C526 1.355 . S
C527 C529 1.419 . S
C528 C526 1.415 . S
C528 C533 1.425 . S
C528 C535 1.409 . S
C529 H521 0.930 . S
C529 C527 1.419 . S
C529 C530 1.362 . S
C530 H522 0.930 . S
C530 C529 1.362 . S
C530 C533 1.409 . S
C531 H523 0.930 . S
C531 C532 1.355 . S
C531 C533 1.415 . S
C532 C531 1.355 . S
C532 C534 1.419 . S
C533 C528 1.425 . S
C533 C530 1.409 . S
C533 C531 1.415 . S
C534 H524 0.930 . S
C534 C532 1.419 . S
C534 C535 1.362 . S
C535 H525 0.930 . S
C535 C528 1.409 . S
C535 C534 1.362 . S
H536 C542 0.930 . S
H537 C545 0.930 1_565 S
H538 C546 0.930 . S
H539 C547 0.930 . S
H540 C550 0.930 . S
H541 C551 0.930 . S
C542 H536 0.930 . S
C542 C543 1.355 . S
C542 C544 1.415 . S
C543 C542 1.355 . S
C543 C545 1.419 . S
C544 C542 1.415 . S
C544 C549 1.425 . S
C544 C551 1.409 . S
C545 H537 0.930 1_545 S
C545 C543 1.419 . S
C545 C546 1.362 . S
C546 H538 0.930 . S
C546 C545 1.362 . S
C546 C549 1.409 . S
C547 H539 0.930 . S
C547 C548 1.355 . S
C547 C549 1.415 . S
C548 C547 1.355 . S
C548 C550 1.419 . S
C549 C544 1.425 . S
C549 C546 1.409 . S
C549 C547 1.415 . S
C550 H540 0.930 . S
C550 C548 1.419 . S
C550 C551 1.362 . S
C551 H541 0.930 . S
C551 C544 1.409 . S
C551 C550 1.362 . S
C175 C118 1.357 . S
C180 C6 1.394 . S
C191 C20 1.378 . S
C196 C132 1.353 . S
C207 C34 1.353 . S
C212 C146 1.378 . S
C223 C48 1.392 . S
C228 C160 1.364 . S
C239 C90 1.371 . S
C244 C62 1.358 . S
C255 C76 1.388 . S
C260 C104 1.349 . S
C271 C135 1.033 . S
C276 C9 1.084 . S
C287 C23 1.081 . S
C292 C149 1.068 . S
C303 C163 1.070 . S
C308 C37 1.079 . S
C319 C51 1.021 . S
C324 C93 1.100 . S
C335 C107 1.030 . S
C340 C65 1.088 . S
C351 C121 1.015 . S
C356 C79 1.114 . S
C367 C8 1.452 . S
C372 C77 1.461 . S
C383 C22 1.411 . S
C388 C7 1.427 1_655 S
C399 C21 1.421 1_565 S
C404 C36 1.399 . S
C415 C50 1.447 . S
C420 C35 1.457 . S
C431 C64 1.393 . S
C436 C49 1.414 1_455 S
C447 C78 1.397 . S
C452 C63 1.419 1_545 S
C463 C92 1.411 . S
C468 C105 1.432 . S
C479 C106 1.430 . S
C484 C119 1.442 1_656 S
C495 C120 1.459 . S
C500 C133 1.472 1_565 S
C511 C134 1.457 . S
C516 C147 1.466 . S
C527 C148 1.405 . S
C532 C161 1.427 1_455 S
C543 C91 1.473 1_545 S
C548 C162 1.464 . S
