# Generated by pormake.
# Topology ske, (6)-cn, num edge types: 1
# Building blocks:
#     Node 0, Type 0, BuildingBlock: BETGAK_clean_sbu_0, # of connection points: 6
#     Node 1, Type 0, BuildingBlock: BETGAK_clean_sbu_0, # of connection points: 6
#     Node 2, Type 0, BuildingBlock: BETGAK_clean_sbu_0, # of connection points: 6
#     Node 3, Type 0, BuildingBlock: BETGAK_clean_sbu_0, # of connection points: 6
#     Node 4, Type 0, BuildingBlock: BETGAK_clean_sbu_0, # of connection points: 6
#     Node 5, Type 0, BuildingBlock: BETGAK_clean_sbu_0, # of connection points: 6
#     Node 6, Type 0, BuildingBlock: BETGAK_clean_sbu_0, # of connection points: 6
#     Node 7, Type 0, BuildingBlock: BETGAK_clean_sbu_0, # of connection points: 6
#     Edge 8, Type (0, 0), BuildingBlock: EYOCIG_clean_linker_4, # of connection points: 2
#     Edge 9, Type (0, 0), BuildingBlock: EYOCIG_clean_linker_4, # of connection points: 2
#     Edge 10, Type (0, 0), BuildingBlock: EYOCIG_clean_linker_4, # of connection points: 2
#     Edge 11, Type (0, 0), BuildingBlock: EYOCIG_clean_linker_4, # of connection points: 2
#     Edge 12, Type (0, 0), BuildingBlock: EYOCIG_clean_linker_4, # of connection points: 2
#     Edge 13, Type (0, 0), BuildingBlock: EYOCIG_clean_linker_4, # of connection points: 2
#     Edge 14, Type (0, 0), BuildingBlock: EYOCIG_clean_linker_4, # of connection points: 2
#     Edge 15, Type (0, 0), BuildingBlock: EYOCIG_clean_linker_4, # of connection points: 2
#     Edge 16, Type (0, 0), BuildingBlock: EYOCIG_clean_linker_4, # of connection points: 2
#     Edge 17, Type (0, 0), BuildingBlock: EYOCIG_clean_linker_4, # of connection points: 2
#     Edge 18, Type (0, 0), BuildingBlock: EYOCIG_clean_linker_4, # of connection points: 2
#     Edge 19, Type (0, 0), BuildingBlock: EYOCIG_clean_linker_4, # of connection points: 2
#     Edge 20, Type (0, 0), BuildingBlock: EYOCIG_clean_linker_4, # of connection points: 2
#     Edge 21, Type (0, 0), BuildingBlock: EYOCIG_clean_linker_4, # of connection points: 2
#     Edge 22, Type (0, 0), BuildingBlock: EYOCIG_clean_linker_4, # of connection points: 2
#     Edge 23, Type (0, 0), BuildingBlock: EYOCIG_clean_linker_4, # of connection points: 2
#     Edge 24, Type (0, 0), BuildingBlock: EYOCIG_clean_linker_4, # of connection points: 2
#     Edge 25, Type (0, 0), BuildingBlock: EYOCIG_clean_linker_4, # of connection points: 2
#     Edge 26, Type (0, 0), BuildingBlock: EYOCIG_clean_linker_4, # of connection points: 2
#     Edge 27, Type (0, 0), BuildingBlock: EYOCIG_clean_linker_4, # of connection points: 2
#     Edge 28, Type (0, 0), BuildingBlock: EYOCIG_clean_linker_4, # of connection points: 2
#     Edge 29, Type (0, 0), BuildingBlock: EYOCIG_clean_linker_4, # of connection points: 2
#     Edge 30, Type (0, 0), BuildingBlock: EYOCIG_clean_linker_4, # of connection points: 2
#     Edge 31, Type (0, 0), BuildingBlock: EYOCIG_clean_linker_4, # of connection points: 2
# Relax obj value: 0.198
# Max RMSD: 0.207
# Mean RMSD: 0.200
data_MOF--net-ske--node1-BETGAK_clean_sbu_0--edge1-EYOCIG_clean_linker_4
_symmetry_space_group_name_H-M    P1
_symmetry_Int_Tables_number       1
_symmetry_cell_setting            triclinic
loop_
_symmetry_equiv_pos_as_xyz
'x, y, z'
_cell_length_a     88.198116
_cell_length_b     22.842287
_cell_length_c     12.19034
_cell_angle_alpha  89.901329
_cell_angle_beta   89.995926
_cell_angle_gamma 84.708389
loop_
_atom_site_label
_atom_site_type_symbol
_atom_site_fract_x
_atom_site_fract_y
_atom_site_fract_z
_atom_type_partial_charge
La0 La 0.18529 0.25878 0.47726 0.0
La1 La 0.15212 0.27088 0.46531 0.0
C2 C 0.21304 0.272 0.511 0.0
C3 C 0.22653 0.26469 0.58362 0.0
C4 C 0.23678 0.21381 0.5763 0.0
C5 C 0.25135 0.21286 0.62184 0.0
C6 C 0.25585 0.26263 0.67514 0.0
C7 C 0.24544 0.31218 0.68839 0.0
C8 C 0.23087 0.31324 0.6429 0.0
C9 C 0.17342 0.15516 0.4724 0.0
C10 C 0.16639 0.26523 0.69847 0.0
C11 C 0.1244 0.25858 0.42497 0.0
C12 C 0.11065 0.26668 0.35315 0.0
C13 C 0.10067 0.31837 0.36113 0.0
C14 C 0.08558 0.31949 0.32443 0.0
C15 C 0.08017 0.26919 0.27848 0.0
C16 C 0.09042 0.21938 0.26063 0.0
C17 C 0.10554 0.21813 0.29763 0.0
C18 C 0.16365 0.37225 0.49316 0.0
C19 C 0.1715 0.26693 0.24448 0.0
O20 O 0.20822 0.22536 0.46576 0.0
O21 O 0.20188 0.31146 0.53581 0.0
O22 O 0.18596 0.16667 0.42604 0.0
O23 O 0.1681 0.2008 0.52248 0.0
O24 O 0.17947 0.27222 0.65018 0.0
O25 O 0.15416 0.25448 0.64167 0.0
O26 O 0.12922 0.30462 0.47246 0.0
O27 O 0.13556 0.21868 0.40159 0.0
O28 O 0.15088 0.35897 0.53292 0.0
O29 O 0.16918 0.33106 0.43088 0.0
O30 O 0.15832 0.26131 0.29196 0.0
O31 O 0.18383 0.27411 0.30159 0.0
H32 H 0.2339 0.17597 0.52993 0.0
H33 H 0.25932 0.17425 0.61101 0.0
H34 H 0.2488 0.35102 0.7294 0.0
H35 H 0.22335 0.35338 0.64854 0.0
H36 H 0.10412 0.35662 0.40345 0.0
H37 H 0.07787 0.35852 0.33847 0.0
H38 H 0.0865 0.18012 0.22468 0.0
H39 H 0.11286 0.17757 0.29029 0.0
La40 La 0.89897 0.27355 0.47668 0.0
La41 La 0.93216 0.26142 0.46457 0.0
C42 C 0.87122 0.26028 0.51076 0.0
C43 C 0.85771 0.26778 0.58324 0.0
C44 C 0.8475 0.31877 0.57563 0.0
C45 C 0.83292 0.31989 0.62115 0.0
C46 C 0.82836 0.27017 0.67471 0.0
C47 C 0.83873 0.22051 0.68821 0.0
C48 C 0.85332 0.21929 0.64277 0.0
C49 C 0.91084 0.3772 0.47197 0.0
C50 C 0.91793 0.26696 0.6978 0.0
C51 C 0.95984 0.27475 0.42415 0.0
C52 C 0.97363 0.2671 0.35274 0.0
C53 C 0.98367 0.2156 0.36083 0.0
C54 C 0.99877 0.21486 0.32425 0.0
C55 C 1.0041 0.26538 0.27833 0.0
C56 C 0.9938 0.31505 0.26049 0.0
C57 C 0.97868 0.31592 0.29736 0.0
C58 C 0.9206 0.15973 0.49135 0.0
C59 C 0.91279 0.26584 0.24382 0.0
O60 O 0.87603 0.30676 0.46452 0.0
O61 O 0.8824 0.22098 0.53634 0.0
O62 O 0.89829 0.36583 0.42576 0.0
O63 O 0.91617 0.33137 0.52179 0.0
O64 O 0.90485 0.25996 0.64965 0.0
O65 O 0.93015 0.27772 0.64083 0.0
O66 O 0.95514 0.22861 0.47247 0.0
O67 O 0.94858 0.31409 0.39983 0.0
O68 O 0.93342 0.17272 0.53083 0.0
O69 O 0.91507 0.20139 0.42986 0.0
O70 O 0.92597 0.27144 0.29128 0.0
O71 O 0.90047 0.25845 0.30097 0.0
H72 H 0.85041 0.35658 0.5291 0.0
H73 H 0.82498 0.3586 0.61012 0.0
H74 H 0.83534 0.18171 0.72944 0.0
H75 H 0.86081 0.17908 0.64866 0.0
H76 H 0.98027 0.17717 0.40307 0.0
H77 H 1.00652 0.17594 0.33829 0.0
H78 H 0.99767 0.35448 0.22459 0.0
H79 H 0.9713 0.35636 0.28998 0.0
La80 La 0.15144 0.77313 0.62058 0.0
La81 La 0.18639 0.7593 0.60523 0.0
C82 C 0.12382 0.76016 0.65989 0.0
C83 C 0.11012 0.76737 0.73146 0.0
C84 C 0.10009 0.81892 0.72388 0.0
C85 C 0.085 0.81944 0.75996 0.0
C86 C 0.0797 0.76869 0.80493 0.0
C87 C 0.08998 0.71892 0.82227 0.0
C88 C 0.10509 0.71825 0.7858 0.0
C89 C 0.16396 0.87207 0.58562 0.0
C90 C 0.17127 0.76749 0.84048 0.0
C91 C 0.21354 0.781 0.57869 0.0
C92 C 0.22693 0.76983 0.50608 0.0
C93 C 0.23675 0.71769 0.51366 0.0
C94 C 0.25119 0.71444 0.46498 0.0
C95 C 0.25589 0.763 0.40829 0.0
C96 C 0.24577 0.81319 0.39364 0.0
C97 C 0.23138 0.81651 0.442 0.0
C98 C 0.17588 0.65405 0.58103 0.0
C99 C 0.16657 0.76237 0.38909 0.0
O100 O 0.1286 0.80695 0.61435 0.0
O101 O 0.13498 0.71995 0.6822 0.0
O102 O 0.1508 0.86055 0.54948 0.0
O103 O 0.16941 0.83022 0.64724 0.0
O104 O 0.15767 0.77251 0.7941 0.0
O105 O 0.18413 0.76394 0.78388 0.0
O106 O 0.20952 0.73785 0.64029 0.0
O107 O 0.20182 0.81422 0.53983 0.0
O108 O 0.19006 0.6634 0.57849 0.0
O109 O 0.16845 0.70312 0.59688 0.0
O110 O 0.1795 0.77402 0.43511 0.0
O111 O 0.15444 0.751 0.44687 0.0
H112 H 0.10349 0.85752 0.6822 0.0
H113 H 0.07725 0.85837 0.7462 0.0
H114 H 0.08609 0.67932 0.85735 0.0
H115 H 0.11247 0.67778 0.79252 0.0
H116 H 0.23366 0.6808 0.56209 0.0
H117 H 0.25893 0.67523 0.47633 0.0
H118 H 0.24925 0.85102 0.34978 0.0
H119 H 0.22409 0.85721 0.435 0.0
La120 La 0.932 0.76101 0.61645 0.0
La121 La 0.89882 0.77362 0.60459 0.0
C122 C 0.95967 0.77408 0.65628 0.0
C123 C 0.9734 0.7664 0.72801 0.0
C124 C 0.98344 0.71486 0.72035 0.0
C125 C 0.99851 0.7141 0.75712 0.0
C126 C 1.00381 0.76462 0.8028 0.0
C127 C 0.99353 0.81434 0.82015 0.0
C128 C 0.97843 0.81523 0.78309 0.0
C129 C 0.9204 0.65955 0.59023 0.0
C130 C 0.91267 0.76561 0.83738 0.0
C131 C 0.87109 0.76017 0.57098 0.0
C132 C 0.85758 0.76748 0.49869 0.0
C133 C 0.8473 0.81826 0.50638 0.0
C134 C 0.83272 0.81911 0.46114 0.0
C135 C 0.82822 0.76932 0.40781 0.0
C136 C 0.83866 0.71987 0.39422 0.0
C137 C 0.85325 0.71892 0.43938 0.0
C138 C 0.91087 0.87706 0.60849 0.0
C139 C 0.91775 0.76661 0.38332 0.0
O140 O 0.95493 0.72783 0.60895 0.0
O141 O 0.94845 0.81369 0.6799 0.0
O142 O 0.93324 0.67241 0.55076 0.0
O143 O 0.91485 0.70121 0.65138 0.0
O144 O 0.92587 0.77083 0.78982 0.0
O145 O 0.90032 0.75866 0.78039 0.0
O146 O 0.87587 0.8067 0.61695 0.0
O147 O 0.88229 0.72101 0.5453 0.0
O148 O 0.89828 0.86601 0.6547 0.0
O149 O 0.91605 0.83112 0.55878 0.0
O150 O 0.90464 0.76007 0.43162 0.0
O151 O 0.93 0.77704 0.44007 0.0
H152 H 0.98004 0.67645 0.67827 0.0
H153 H 1.00626 0.67518 0.74341 0.0
H154 H 0.9974 0.85376 0.8558 0.0
H155 H 0.97107 0.8557 0.79004 0.0
H156 H 0.85018 0.85609 0.55278 0.0
H157 H 0.82473 0.85764 0.4722 0.0
H158 H 0.83531 0.68103 0.35317 0.0
H159 H 0.86079 0.67886 0.43348 0.0
La160 La 0.68578 0.75966 0.04292 0.0
La161 La 0.6523 0.77054 1.03163 0.0
C162 C 0.71338 0.77359 0.08029 0.0
C163 C 0.72649 0.76592 0.1566 0.0
C164 C 0.73669 0.71478 0.1514 0.0
C165 C 0.75112 0.71359 0.19934 0.0
C166 C 0.75553 0.76332 0.25326 0.0
C167 C 0.7451 0.81293 0.26537 0.0
C168 C 0.73066 0.81425 0.21738 0.0
C169 C 0.67411 0.65778 1.02737 0.0
C170 C 0.66663 0.76399 0.26427 0.0
C171 C 0.62453 0.75816 0.9952 0.0
C172 C 0.61058 0.76618 0.92608 0.0
C173 C 0.60061 0.81781 0.93566 0.0
C174 C 0.58547 0.81889 0.90062 0.0
C175 C 0.58004 0.76862 0.85496 0.0
C176 C 0.59021 0.71876 0.83628 0.0
C177 C 0.60538 0.71754 0.87156 0.0
C178 C 0.6642 0.87208 0.04839 0.0
C179 C 0.67167 0.7654 0.81052 0.0
O180 O 0.70873 0.72682 1.03422 0.0
O181 O 0.70213 0.81332 0.10221 0.0
O182 O 0.68684 0.66953 0.98444 0.0
O183 O 0.66868 0.70106 0.08357 0.0
O184 O 0.6797 0.77132 0.21609 0.0
O185 O 0.65437 0.75397 0.20757 0.0
O186 O 0.62944 0.80418 0.04218 0.0
O187 O 0.63564 0.71854 0.96936 0.0
O188 O 0.6515 0.86049 0.09185 0.0
O189 O 0.66939 0.82895 0.9911 0.0
O190 O 0.65856 0.7585 0.85856 0.0
O191 O 0.68392 0.77529 0.86715 0.0
H192 H 0.73394 0.67698 0.10442 0.0
H193 H 0.75909 0.6749 0.18952 0.0
H194 H 0.74837 0.8517 0.30707 0.0
H195 H 0.72316 0.85447 0.22195 0.0
H196 H 0.60415 0.85601 0.97768 0.0
H197 H 0.57777 0.85786 0.91543 0.0
H198 H 0.58621 0.67953 0.80079 0.0
H199 H 0.61268 0.67699 0.86351 0.0
La200 La 0.39835 0.77326 0.04366 0.0
La201 La 0.43236 0.7617 1.03363 0.0
C202 C 0.37072 0.75934 0.08064 0.0
C203 C 0.35759 0.76667 0.15701 0.0
C204 C 0.34731 0.81764 0.15192 0.0
C205 C 0.3329 0.81843 0.2 0.0
C206 C 0.32858 0.76847 0.25398 0.0
C207 C 0.33907 0.71905 0.26595 0.0
C208 C 0.35349 0.71814 0.21785 0.0
C209 C 0.41023 0.87463 1.02686 0.0
C210 C 0.4175 0.76897 0.26519 0.0
C211 C 0.4601 0.77615 0.99627 0.0
C212 C 0.47379 0.76731 0.92455 0.0
C213 C 0.48371 0.71545 0.93221 0.0
C214 C 0.49889 0.71494 0.89822 0.0
C215 C 0.5043 0.76567 0.85394 0.0
C216 C 0.49412 0.81549 0.83542 0.0
C217 C 0.47895 0.81624 0.87024 0.0
C218 C 0.41999 0.66079 0.0495 0.0
C219 C 0.41264 0.76723 0.81191 0.0
O220 O 0.37539 0.80629 1.03501 0.0
O221 O 0.38196 0.71942 0.10212 0.0
O222 O 0.39735 0.86344 0.98582 0.0
O223 O 0.41569 0.83108 0.08292 0.0
O224 O 0.40443 0.76191 0.21674 0.0
O225 O 0.42986 0.77866 0.20917 0.0
O226 O 0.45563 0.73162 0.05127 0.0
O227 O 0.44867 0.8131 0.96569 0.0
O228 O 0.43298 0.67072 0.09061 0.0
O229 O 0.41499 0.70469 0.99342 0.0
O230 O 0.42585 0.77308 0.86008 0.0
O231 O 0.4003 0.75797 0.86816 0.0
H232 H 0.35001 0.85561 0.10493 0.0
H233 H 0.32487 0.85698 0.19024 0.0
H234 H 0.33586 0.68009 0.3076 0.0
H235 H 0.36104 0.67803 0.22239 0.0
H236 H 0.48014 0.67683 0.97284 0.0
H237 H 0.50663 0.67604 0.91283 0.0
H238 H 0.4981 0.85505 0.80086 0.0
H239 H 0.47165 0.85688 0.86317 0.0
La240 La 0.65225 0.27057 0.0506 0.0
La241 La 0.68577 0.25979 1.03902 0.0
C242 C 0.62447 0.25817 0.08739 0.0
C243 C 0.61054 0.26601 0.15686 0.0
C244 C 0.60055 0.31759 0.14738 0.0
C245 C 0.58541 0.31858 0.1828 0.0
C246 C 0.57999 0.26824 0.22876 0.0
C247 C 0.59021 0.21843 0.24739 0.0
C248 C 0.60537 0.21731 0.21173 0.0
C249 C 0.66408 0.37214 1.03362 0.0
C250 C 0.67166 0.26545 0.27156 0.0
C251 C 0.71336 0.274 1.00157 0.0
C252 C 0.72653 0.2667 0.92562 0.0
C253 C 0.73679 0.21573 0.93111 0.0
C254 C 0.75123 0.21488 0.88349 0.0
C255 C 0.7556 0.26479 0.8296 0.0
C256 C 0.74512 0.31425 0.81727 0.0
C257 C 0.73067 0.31522 0.86494 0.0
C258 C 0.67405 0.15788 0.05492 0.0
C259 C 0.66656 0.26441 0.81782 0.0
O260 O 0.62939 0.30436 1.04072 0.0
O261 O 0.63558 0.21835 0.1126 0.0
O262 O 0.65136 0.36059 0.9905 0.0
O263 O 0.66938 0.32894 0.09066 0.0
O264 O 0.65855 0.25846 0.22366 0.0
O265 O 0.6839 0.27538 0.21476 0.0
O266 O 0.70874 0.22709 0.04765 0.0
O267 O 0.70209 0.31364 0.97946 0.0
O268 O 0.68679 0.16952 0.09774 0.0
O269 O 0.66868 0.2013 0.99858 0.0
O270 O 0.67964 0.27162 0.86587 0.0
O271 O 0.6543 0.25437 0.87461 0.0
H272 H 0.60405 0.35586 0.10514 0.0
H273 H 0.5777 0.35754 0.168 0.0
H274 H 0.58625 0.17913 0.28314 0.0
H275 H 0.6127 0.1768 0.21978 0.0
H276 H 0.73406 0.17779 0.97804 0.0
H277 H 0.75923 0.17629 0.89347 0.0
H278 H 0.74836 0.35315 0.77559 0.0
H279 H 0.72312 0.35533 0.86016 0.0
La280 La 0.43165 0.26285 0.05116 0.0
La281 La 0.39823 0.27279 1.04 0.0
C282 C 0.45946 0.27511 0.08775 0.0
C283 C 0.47344 0.26723 0.15682 0.0
C284 C 0.48344 0.2157 0.14714 0.0
C285 C 0.49859 0.21466 0.18236 0.0
C286 C 0.50402 0.2649 0.22831 0.0
C287 C 0.4938 0.31467 0.24699 0.0
C288 C 0.47863 0.31585 0.21152 0.0
C289 C 0.41999 0.16086 1.03358 0.0
C290 C 0.41234 0.26678 0.2723 0.0
C291 C 0.37065 0.25871 1.00233 0.0
C292 C 0.35758 0.26626 0.92569 0.0
C293 C 0.34735 0.31732 0.93076 0.0
C294 C 0.33293 0.31832 0.88286 0.0
C295 C 0.32856 0.26849 0.82908 0.0
C296 C 0.33903 0.219 0.81691 0.0
C297 C 0.35346 0.21787 0.86488 0.0
C298 C 0.40965 0.3752 0.05731 0.0
C299 C 0.4174 0.26919 0.8186 0.0
O300 O 0.45451 0.22895 0.04155 0.0
O301 O 0.44836 0.31496 0.1128 0.0
O302 O 0.43261 0.17306 0.98987 0.0
O303 O 0.41468 0.20369 0.09119 0.0
O304 O 0.4254 0.27457 0.22426 0.0
O305 O 0.40014 0.25637 0.21555 0.0
O306 O 0.37528 0.30557 0.04812 0.0
O307 O 0.38191 0.21893 0.98093 0.0
O308 O 0.39706 0.36244 0.10099 0.0
O309 O 0.41513 0.33237 0.99993 0.0
O310 O 0.40435 0.26149 0.86678 0.0
O311 O 0.42963 0.27951 0.8753 0.0
H312 H 0.47993 0.1775 0.10497 0.0
H313 H 0.50629 0.17572 0.16749 0.0
H314 H 0.49777 0.3539 0.28272 0.0
H315 H 0.4713 0.35634 0.21969 0.0
H316 H 0.35007 0.35517 0.97771 0.0
H317 H 0.32493 0.35692 0.89269 0.0
H318 H 0.33578 0.18017 0.77526 0.0
H319 H 0.36099 0.17772 0.86036 0.0
C320 C 0.28452 0.26506 0.73661 0.0
C321 C 0.27143 0.26433 0.70885 0.0
C322 C 0.29994 0.26595 0.76655 0.0
C323 C 0.31301 0.26657 0.79468 0.0
C324 C 0.78424 0.26736 0.76664 0.0
C325 C 0.77116 0.26674 0.79495 0.0
C326 C 0.79966 0.26813 0.73643 0.0
C327 C 0.81276 0.26869 0.70856 0.0
C328 C 0.29999 0.76511 0.31683 0.0
C329 C 0.31305 0.76618 0.2885 0.0
C330 C 0.28457 0.76391 0.34614 0.0
C331 C 0.27149 0.76358 0.3744 0.0
C332 C 0.78414 0.7657 0.31643 0.0
C333 C 0.77108 0.76505 0.28794 0.0
C334 C 0.79955 0.76672 0.34661 0.0
C335 C 0.81264 0.76754 0.37425 0.0
C336 C 0.17014 0.98306 0.56011 0.0
C337 C 0.16876 0.9313 0.57847 0.0
C338 C 0.1705 0.0441 0.53298 0.0
C339 C 0.17127 0.09553 0.50833 0.0
C340 C 0.91381 0.48792 0.53401 0.0
C341 C 0.91298 0.43669 0.5085 0.0
C342 C 0.91427 0.54866 0.56274 0.0
C343 C 0.91568 0.60024 0.58222 0.0
C344 C 0.91405 0.98774 0.54633 0.0
C345 C 0.91314 0.93649 0.5718 0.0
C346 C 0.91455 0.04857 0.51794 0.0
C347 C 0.91595 0.10026 0.49892 0.0
C348 C 0.16927 0.54502 0.54259 0.0
C349 C 0.17053 0.59669 0.56144 0.0
C350 C 0.16911 0.48379 0.51796 0.0
C351 C 0.16802 0.43194 0.49961 0.0
C352 C 0.66959 0.54571 0.04894 0.0
C353 C 0.67073 0.59796 0.04389 0.0
C354 C 0.66909 0.48389 0.05033 0.0
C355 C 0.66776 0.43174 0.04769 0.0
C356 C 0.41462 0.98687 0.04838 0.0
C357 C 0.4136 0.93449 0.04351 0.0
C358 C 0.41506 0.0488 0.04961 0.0
C359 C 0.41639 0.10101 0.04713 0.0
C360 C 0.41351 0.48804 1.03569 0.0
C361 C 0.41263 0.43556 1.0408 0.0
C362 C 0.414 0.54996 1.03391 0.0
C363 C 0.41567 0.60192 1.03579 0.0
C364 C 0.66958 0.0458 1.03268 0.0
C365 C 0.67068 0.09807 1.03798 0.0
C366 C 0.66914 0.98394 1.03117 0.0
C367 C 0.66785 0.93173 1.03392 0.0
C368 C 0.17051 0.26663 1.0284 0.0
C369 C 0.17195 0.26726 0.12676 0.0
C370 C 0.16787 0.26552 0.91418 0.0
C371 C 0.1662 0.26471 0.81606 0.0
C372 C 0.91382 0.26618 1.02775 0.0
C373 C 0.91236 0.26553 0.1261 0.0
C374 C 0.91647 0.26715 0.91352 0.0
C375 C 0.91813 0.26774 0.81538 0.0
C376 C 0.16773 0.7635 0.17235 0.0
C377 C 0.16616 0.76204 0.27091 0.0
C378 C 0.17029 0.76539 0.05747 0.0
C379 C 0.17172 0.76609 0.95876 0.0
C380 C 0.91369 0.76579 0.05342 0.0
C381 C 0.91225 0.76525 0.95508 0.0
C382 C 0.91631 0.76666 0.16765 0.0
C383 C 0.91795 0.76727 0.26578 0.0
C384 C 0.66798 0.76385 0.48023 0.0
C385 C 0.6664 0.76326 0.38198 0.0
C386 C 0.67056 0.76491 0.59455 0.0
C387 C 0.67201 0.76574 0.69287 0.0
C388 C 0.41355 0.76806 0.59566 0.0
C389 C 0.41224 0.76717 0.69415 0.0
C390 C 0.41603 0.76906 0.48116 0.0
C391 C 0.41763 0.76962 0.3829 0.0
C392 C 0.67052 0.26529 0.48754 0.0
C393 C 0.672 0.26598 0.38921 0.0
C394 C 0.66792 0.26432 0.60185 0.0
C395 C 0.66632 0.26372 0.7001 0.0
C396 C 0.41349 0.26709 0.48828 0.0
C397 C 0.41201 0.26627 0.38997 0.0
C398 C 0.41608 0.2685 0.60259 0.0
C399 C 0.41765 0.2695 0.70084 0.0
C400 C 0.05022 0.26722 0.25104 0.0
C401 C 0.0639 0.26674 0.26256 0.0
C402 C 1.03405 0.26776 0.25097 0.0
C403 C 1.02036 0.26812 0.26241 0.0
C404 C 1.03368 0.76689 0.83089 0.0
C405 C 1.02003 0.76731 0.8191 0.0
C406 C 0.04982 0.76627 0.83138 0.0
C407 C 0.06348 0.76587 0.82037 0.0
C408 C 0.55021 0.76679 0.82854 0.0
C409 C 0.56384 0.76628 0.83963 0.0
C410 C 0.53412 0.76761 0.8284 0.0
C411 C 0.52048 0.7682 0.83903 0.0
C412 C 0.53393 0.26681 0.25532 0.0
C413 C 0.52027 0.26727 0.24396 0.0
C414 C 0.55008 0.26624 0.25546 0.0
C415 C 0.56375 0.2658 0.24426 0.0
loop_
_geom_bond_atom_site_label_1
_geom_bond_atom_site_label_2
_geom_bond_distance
_geom_bond_site_symmetry_2
_ccdc_geom_bond_type
La0 C2 2.928 . S
La0 O20 2.521 . S
La0 O21 2.628 . S
La0 O22 2.554 . S
La0 O23 2.757 . S
La0 O24 2.470 . S
La0 O29 2.482 . S
La0 O31 2.503 . S
La1 C11 2.928 . S
La1 O23 2.482 . S
La1 O25 2.503 . S
La1 O26 2.521 . S
La1 O27 2.628 . S
La1 O28 2.554 . S
La1 O29 2.757 . S
La1 O30 2.470 . S
C2 La0 2.928 . S
C2 C3 1.503 . S
C2 O20 1.261 . S
C2 O21 1.243 . S
C3 C2 1.503 . S
C3 C4 1.394 . S
C3 C8 1.373 . S
C4 C3 1.394 . S
C4 C5 1.380 . S
C4 H32 0.930 . S
C5 C4 1.380 . S
C5 C6 1.376 . S
C5 H33 0.930 . S
C6 C5 1.376 . S
C6 C7 1.370 . S
C7 C6 1.370 . S
C7 C8 1.396 . S
C7 H34 0.929 . S
C8 C3 1.373 . S
C8 C7 1.396 . S
C8 H35 0.929 . S
C9 O22 1.240 . S
C9 O23 1.289 . S
C10 O24 1.258 . S
C10 O25 1.256 . S
C11 La1 2.928 . S
C11 C12 1.503 . S
C11 O26 1.261 . S
C11 O27 1.243 . S
C12 C11 1.503 . S
C12 C13 1.394 . S
C12 C17 1.373 . S
C13 C12 1.394 . S
C13 C14 1.380 . S
C13 H36 0.930 . S
C14 C13 1.380 . S
C14 C15 1.376 . S
C14 H37 0.930 . S
C15 C14 1.376 . S
C15 C16 1.370 . S
C16 C15 1.370 . S
C16 C17 1.396 . S
C16 H38 0.929 . S
C17 C12 1.373 . S
C17 C16 1.396 . S
C17 H39 0.929 . S
C18 O28 1.240 . S
C18 O29 1.289 . S
C19 O30 1.258 . S
C19 O31 1.256 . S
O20 La0 2.521 . S
O20 C2 1.261 . S
O21 La0 2.628 . S
O21 C2 1.243 . S
O22 La0 2.554 . S
O22 C9 1.240 . S
O23 La0 2.757 . S
O23 La1 2.482 . S
O23 C9 1.289 . S
O24 La0 2.470 . S
O24 C10 1.258 . S
O25 La1 2.503 . S
O25 C10 1.256 . S
O26 La1 2.521 . S
O26 C11 1.261 . S
O27 La1 2.628 . S
O27 C11 1.243 . S
O28 La1 2.554 . S
O28 C18 1.240 . S
O29 La0 2.482 . S
O29 La1 2.757 . S
O29 C18 1.289 . S
O30 La1 2.470 . S
O30 C19 1.258 . S
O31 La0 2.503 . S
O31 C19 1.256 . S
H32 C4 0.930 . S
H33 C5 0.930 . S
H34 C7 0.929 . S
H35 C8 0.929 . S
H36 C13 0.930 . S
H37 C14 0.930 . S
H38 C16 0.929 . S
H39 C17 0.929 . S
La40 C42 2.928 . S
La40 O60 2.521 . S
La40 O61 2.628 . S
La40 O62 2.554 . S
La40 O63 2.757 . S
La40 O64 2.470 . S
La40 O69 2.482 . S
La40 O71 2.503 . S
La41 C51 2.928 . S
La41 O63 2.482 . S
La41 O65 2.503 . S
La41 O66 2.521 . S
La41 O67 2.628 . S
La41 O68 2.554 . S
La41 O69 2.757 . S
La41 O70 2.470 . S
C42 La40 2.928 . S
C42 C43 1.503 . S
C42 O60 1.261 . S
C42 O61 1.243 . S
C43 C42 1.503 . S
C43 C44 1.394 . S
C43 C48 1.373 . S
C44 C43 1.394 . S
C44 C45 1.380 . S
C44 H72 0.930 . S
C45 C44 1.380 . S
C45 C46 1.376 . S
C45 H73 0.930 . S
C46 C45 1.376 . S
C46 C47 1.370 . S
C47 C46 1.370 . S
C47 C48 1.396 . S
C47 H74 0.929 . S
C48 C43 1.373 . S
C48 C47 1.396 . S
C48 H75 0.929 . S
C49 O62 1.240 . S
C49 O63 1.289 . S
C50 O64 1.258 . S
C50 O65 1.256 . S
C51 La41 2.928 . S
C51 C52 1.503 . S
C51 O66 1.261 . S
C51 O67 1.243 . S
C52 C51 1.503 . S
C52 C53 1.394 . S
C52 C57 1.373 . S
C53 C52 1.394 . S
C53 C54 1.380 . S
C53 H76 0.930 . S
C54 C53 1.380 . S
C54 C55 1.376 . S
C54 H77 0.930 . S
C55 C54 1.376 . S
C55 C56 1.370 . S
C56 C55 1.370 . S
C56 C57 1.396 . S
C56 H78 0.929 . S
C57 C52 1.373 . S
C57 C56 1.396 . S
C57 H79 0.929 . S
C58 O68 1.240 . S
C58 O69 1.289 . S
C59 O70 1.258 . S
C59 O71 1.256 . S
O60 La40 2.521 . S
O60 C42 1.261 . S
O61 La40 2.628 . S
O61 C42 1.243 . S
O62 La40 2.554 . S
O62 C49 1.240 . S
O63 La40 2.757 . S
O63 La41 2.482 . S
O63 C49 1.289 . S
O64 La40 2.470 . S
O64 C50 1.258 . S
O65 La41 2.503 . S
O65 C50 1.256 . S
O66 La41 2.521 . S
O66 C51 1.261 . S
O67 La41 2.628 . S
O67 C51 1.243 . S
O68 La41 2.554 . S
O68 C58 1.240 . S
O69 La40 2.482 . S
O69 La41 2.757 . S
O69 C58 1.289 . S
O70 La41 2.470 . S
O70 C59 1.258 . S
O71 La40 2.503 . S
O71 C59 1.256 . S
H72 C44 0.930 . S
H73 C45 0.930 . S
H74 C47 0.929 . S
H75 C48 0.929 . S
H76 C53 0.930 . S
H77 C54 0.930 . S
H78 C56 0.929 . S
H79 C57 0.929 . S
La80 C82 2.928 . S
La80 O100 2.521 . S
La80 O101 2.628 . S
La80 O102 2.554 . S
La80 O103 2.757 . S
La80 O104 2.470 . S
La80 O109 2.482 . S
La80 O111 2.503 . S
La81 C91 2.928 . S
La81 O103 2.482 . S
La81 O105 2.503 . S
La81 O106 2.521 . S
La81 O107 2.628 . S
La81 O108 2.554 . S
La81 O109 2.757 . S
La81 O110 2.470 . S
C82 La80 2.928 . S
C82 C83 1.503 . S
C82 O100 1.261 . S
C82 O101 1.243 . S
C83 C82 1.503 . S
C83 C84 1.394 . S
C83 C88 1.373 . S
C84 C83 1.394 . S
C84 C85 1.380 . S
C84 H112 0.930 . S
C85 C84 1.380 . S
C85 C86 1.376 . S
C85 H113 0.930 . S
C86 C85 1.376 . S
C86 C87 1.370 . S
C87 C86 1.370 . S
C87 C88 1.396 . S
C87 H114 0.929 . S
C88 C83 1.373 . S
C88 C87 1.396 . S
C88 H115 0.929 . S
C89 O102 1.240 . S
C89 O103 1.289 . S
C90 O104 1.258 . S
C90 O105 1.256 . S
C91 La81 2.928 . S
C91 C92 1.503 . S
C91 O106 1.261 . S
C91 O107 1.243 . S
C92 C91 1.503 . S
C92 C93 1.394 . S
C92 C97 1.373 . S
C93 C92 1.394 . S
C93 C94 1.380 . S
C93 H116 0.930 . S
C94 C93 1.380 . S
C94 C95 1.376 . S
C94 H117 0.930 . S
C95 C94 1.376 . S
C95 C96 1.370 . S
C96 C95 1.370 . S
C96 C97 1.396 . S
C96 H118 0.929 . S
C97 C92 1.373 . S
C97 C96 1.396 . S
C97 H119 0.929 . S
C98 O108 1.240 . S
C98 O109 1.289 . S
C99 O110 1.258 . S
C99 O111 1.256 . S
O100 La80 2.521 . S
O100 C82 1.261 . S
O101 La80 2.628 . S
O101 C82 1.243 . S
O102 La80 2.554 . S
O102 C89 1.240 . S
O103 La80 2.757 . S
O103 La81 2.482 . S
O103 C89 1.289 . S
O104 La80 2.470 . S
O104 C90 1.258 . S
O105 La81 2.503 . S
O105 C90 1.256 . S
O106 La81 2.521 . S
O106 C91 1.261 . S
O107 La81 2.628 . S
O107 C91 1.243 . S
O108 La81 2.554 . S
O108 C98 1.240 . S
O109 La80 2.482 . S
O109 La81 2.757 . S
O109 C98 1.289 . S
O110 La81 2.470 . S
O110 C99 1.258 . S
O111 La80 2.503 . S
O111 C99 1.256 . S
H112 C84 0.930 . S
H113 C85 0.930 . S
H114 C87 0.929 . S
H115 C88 0.929 . S
H116 C93 0.930 . S
H117 C94 0.930 . S
H118 C96 0.929 . S
H119 C97 0.929 . S
La120 C122 2.928 . S
La120 O140 2.521 . S
La120 O141 2.628 . S
La120 O142 2.554 . S
La120 O143 2.757 . S
La120 O144 2.470 . S
La120 O149 2.482 . S
La120 O151 2.503 . S
La121 C131 2.928 . S
La121 O143 2.482 . S
La121 O145 2.503 . S
La121 O146 2.521 . S
La121 O147 2.628 . S
La121 O148 2.554 . S
La121 O149 2.757 . S
La121 O150 2.470 . S
C122 La120 2.928 . S
C122 C123 1.503 . S
C122 O140 1.261 . S
C122 O141 1.243 . S
C123 C122 1.503 . S
C123 C124 1.394 . S
C123 C128 1.373 . S
C124 C123 1.394 . S
C124 C125 1.380 . S
C124 H152 0.930 . S
C125 C124 1.380 . S
C125 C126 1.376 . S
C125 H153 0.930 . S
C126 C125 1.376 . S
C126 C127 1.370 . S
C127 C126 1.370 . S
C127 C128 1.396 . S
C127 H154 0.929 . S
C128 C123 1.373 . S
C128 C127 1.396 . S
C128 H155 0.929 . S
C129 O142 1.240 . S
C129 O143 1.289 . S
C130 O144 1.258 . S
C130 O145 1.256 . S
C131 La121 2.928 . S
C131 C132 1.503 . S
C131 O146 1.261 . S
C131 O147 1.243 . S
C132 C131 1.503 . S
C132 C133 1.394 . S
C132 C137 1.373 . S
C133 C132 1.394 . S
C133 C134 1.380 . S
C133 H156 0.930 . S
C134 C133 1.380 . S
C134 C135 1.376 . S
C134 H157 0.930 . S
C135 C134 1.376 . S
C135 C136 1.370 . S
C136 C135 1.370 . S
C136 C137 1.396 . S
C136 H158 0.929 . S
C137 C132 1.373 . S
C137 C136 1.396 . S
C137 H159 0.929 . S
C138 O148 1.240 . S
C138 O149 1.289 . S
C139 O150 1.258 . S
C139 O151 1.256 . S
O140 La120 2.521 . S
O140 C122 1.261 . S
O141 La120 2.628 . S
O141 C122 1.243 . S
O142 La120 2.554 . S
O142 C129 1.240 . S
O143 La120 2.757 . S
O143 La121 2.482 . S
O143 C129 1.289 . S
O144 La120 2.470 . S
O144 C130 1.258 . S
O145 La121 2.503 . S
O145 C130 1.256 . S
O146 La121 2.521 . S
O146 C131 1.261 . S
O147 La121 2.628 . S
O147 C131 1.243 . S
O148 La121 2.554 . S
O148 C138 1.240 . S
O149 La120 2.482 . S
O149 La121 2.757 . S
O149 C138 1.289 . S
O150 La121 2.470 . S
O150 C139 1.258 . S
O151 La120 2.503 . S
O151 C139 1.256 . S
H152 C124 0.930 . S
H153 C125 0.930 . S
H154 C127 0.929 . S
H155 C128 0.929 . S
H156 C133 0.930 . S
H157 C134 0.930 . S
H158 C136 0.929 . S
H159 C137 0.929 . S
La160 C162 2.928 1_556 S
La160 O180 2.521 1_556 S
La160 O181 2.628 1_556 S
La160 O182 2.554 . S
La160 O183 2.757 . S
La160 O184 2.470 1_556 S
La160 O189 2.482 1_556 S
La160 O191 2.503 . S
La161 C171 2.928 1_554 S
La161 O183 2.482 1_554 S
La161 O185 2.503 . S
La161 O186 2.521 1_554 S
La161 O187 2.628 1_554 S
La161 O188 2.554 . S
La161 O189 2.757 . S
La161 O190 2.470 1_554 S
C162 La160 2.928 1_554 S
C162 C163 1.503 . S
C162 O180 1.261 . S
C162 O181 1.243 . S
C163 C162 1.503 . S
C163 C164 1.394 . S
C163 C168 1.373 . S
C164 C163 1.394 . S
C164 C165 1.380 . S
C164 H192 0.930 . S
C165 C164 1.380 . S
C165 C166 1.376 . S
C165 H193 0.930 . S
C166 C165 1.376 . S
C166 C167 1.370 . S
C167 C166 1.370 . S
C167 C168 1.396 . S
C167 H194 0.929 . S
C168 C163 1.373 . S
C168 C167 1.396 . S
C168 H195 0.929 . S
C169 O182 1.240 . S
C169 O183 1.289 . S
C170 O184 1.258 . S
C170 O185 1.256 . S
C171 La161 2.928 1_556 S
C171 C172 1.503 . S
C171 O186 1.261 . S
C171 O187 1.243 . S
C172 C171 1.503 . S
C172 C173 1.394 . S
C172 C177 1.373 . S
C173 C172 1.394 . S
C173 C174 1.380 . S
C173 H196 0.930 . S
C174 C173 1.380 . S
C174 C175 1.376 . S
C174 H197 0.930 . S
C175 C174 1.376 . S
C175 C176 1.370 . S
C176 C175 1.370 . S
C176 C177 1.396 . S
C176 H198 0.929 . S
C177 C172 1.373 . S
C177 C176 1.396 . S
C177 H199 0.929 . S
C178 O188 1.240 . S
C178 O189 1.289 . S
C179 O190 1.258 . S
C179 O191 1.256 . S
O180 La160 2.521 1_554 S
O180 C162 1.261 . S
O181 La160 2.628 1_554 S
O181 C162 1.243 . S
O182 La160 2.554 . S
O182 C169 1.240 . S
O183 La160 2.757 . S
O183 La161 2.482 1_556 S
O183 C169 1.289 . S
O184 La160 2.470 1_554 S
O184 C170 1.258 . S
O185 La161 2.503 . S
O185 C170 1.256 . S
O186 La161 2.521 1_556 S
O186 C171 1.261 . S
O187 La161 2.628 1_556 S
O187 C171 1.243 . S
O188 La161 2.554 . S
O188 C178 1.240 . S
O189 La160 2.482 1_554 S
O189 La161 2.757 . S
O189 C178 1.289 . S
O190 La161 2.470 1_556 S
O190 C179 1.258 . S
O191 La160 2.503 . S
O191 C179 1.256 . S
H192 C164 0.930 . S
H193 C165 0.930 . S
H194 C167 0.929 . S
H195 C168 0.929 . S
H196 C173 0.930 . S
H197 C174 0.930 . S
H198 C176 0.929 . S
H199 C177 0.929 . S
La200 C202 2.928 1_556 S
La200 O220 2.521 1_556 S
La200 O221 2.628 1_556 S
La200 O222 2.554 . S
La200 O223 2.757 . S
La200 O224 2.470 1_556 S
La200 O229 2.482 1_556 S
La200 O231 2.503 . S
La201 C211 2.928 1_554 S
La201 O223 2.482 1_554 S
La201 O225 2.503 . S
La201 O226 2.521 1_554 S
La201 O227 2.628 1_554 S
La201 O228 2.554 . S
La201 O229 2.757 . S
La201 O230 2.470 1_554 S
C202 La200 2.928 1_554 S
C202 C203 1.503 . S
C202 O220 1.261 . S
C202 O221 1.243 . S
C203 C202 1.503 . S
C203 C204 1.394 . S
C203 C208 1.373 . S
C204 C203 1.394 . S
C204 C205 1.380 . S
C204 H232 0.930 . S
C205 C204 1.380 . S
C205 C206 1.376 . S
C205 H233 0.930 . S
C206 C205 1.376 . S
C206 C207 1.370 . S
C207 C206 1.370 . S
C207 C208 1.396 . S
C207 H234 0.929 . S
C208 C203 1.373 . S
C208 C207 1.396 . S
C208 H235 0.929 . S
C209 O222 1.240 . S
C209 O223 1.289 . S
C210 O224 1.258 . S
C210 O225 1.256 . S
C211 La201 2.928 1_556 S
C211 C212 1.503 . S
C211 O226 1.261 . S
C211 O227 1.243 . S
C212 C211 1.503 . S
C212 C213 1.394 . S
C212 C217 1.373 . S
C213 C212 1.394 . S
C213 C214 1.380 . S
C213 H236 0.930 . S
C214 C213 1.380 . S
C214 C215 1.376 . S
C214 H237 0.930 . S
C215 C214 1.376 . S
C215 C216 1.370 . S
C216 C215 1.370 . S
C216 C217 1.396 . S
C216 H238 0.929 . S
C217 C212 1.373 . S
C217 C216 1.396 . S
C217 H239 0.929 . S
C218 O228 1.240 . S
C218 O229 1.289 . S
C219 O230 1.258 . S
C219 O231 1.256 . S
O220 La200 2.521 1_554 S
O220 C202 1.261 . S
O221 La200 2.628 1_554 S
O221 C202 1.243 . S
O222 La200 2.554 . S
O222 C209 1.240 . S
O223 La200 2.757 . S
O223 La201 2.482 1_556 S
O223 C209 1.289 . S
O224 La200 2.470 1_554 S
O224 C210 1.258 . S
O225 La201 2.503 . S
O225 C210 1.256 . S
O226 La201 2.521 1_556 S
O226 C211 1.261 . S
O227 La201 2.628 1_556 S
O227 C211 1.243 . S
O228 La201 2.554 . S
O228 C218 1.240 . S
O229 La200 2.482 1_554 S
O229 La201 2.757 . S
O229 C218 1.289 . S
O230 La201 2.470 1_556 S
O230 C219 1.258 . S
O231 La200 2.503 . S
O231 C219 1.256 . S
H232 C204 0.930 . S
H233 C205 0.930 . S
H234 C207 0.929 . S
H235 C208 0.929 . S
H236 C213 0.930 . S
H237 C214 0.930 . S
H238 C216 0.929 . S
H239 C217 0.929 . S
La240 C242 2.928 1_556 S
La240 O260 2.521 1_556 S
La240 O261 2.628 1_556 S
La240 O262 2.554 . S
La240 O263 2.757 . S
La240 O264 2.470 1_556 S
La240 O269 2.482 1_556 S
La240 O271 2.503 . S
La241 C251 2.928 1_554 S
La241 O263 2.482 1_554 S
La241 O265 2.503 . S
La241 O266 2.521 1_554 S
La241 O267 2.628 1_554 S
La241 O268 2.554 . S
La241 O269 2.757 . S
La241 O270 2.470 1_554 S
C242 La240 2.928 1_554 S
C242 C243 1.503 . S
C242 O260 1.261 . S
C242 O261 1.243 . S
C243 C242 1.503 . S
C243 C244 1.394 . S
C243 C248 1.373 . S
C244 C243 1.394 . S
C244 C245 1.380 . S
C244 H272 0.930 . S
C245 C244 1.380 . S
C245 C246 1.376 . S
C245 H273 0.930 . S
C246 C245 1.376 . S
C246 C247 1.370 . S
C247 C246 1.370 . S
C247 C248 1.396 . S
C247 H274 0.929 . S
C248 C243 1.373 . S
C248 C247 1.396 . S
C248 H275 0.929 . S
C249 O262 1.240 . S
C249 O263 1.289 . S
C250 O264 1.258 . S
C250 O265 1.256 . S
C251 La241 2.928 1_556 S
C251 C252 1.503 . S
C251 O266 1.261 . S
C251 O267 1.243 . S
C252 C251 1.503 . S
C252 C253 1.394 . S
C252 C257 1.373 . S
C253 C252 1.394 . S
C253 C254 1.380 . S
C253 H276 0.930 . S
C254 C253 1.380 . S
C254 C255 1.376 . S
C254 H277 0.930 . S
C255 C254 1.376 . S
C255 C256 1.370 . S
C256 C255 1.370 . S
C256 C257 1.396 . S
C256 H278 0.929 . S
C257 C252 1.373 . S
C257 C256 1.396 . S
C257 H279 0.929 . S
C258 O268 1.240 . S
C258 O269 1.289 . S
C259 O270 1.258 . S
C259 O271 1.256 . S
O260 La240 2.521 1_554 S
O260 C242 1.261 . S
O261 La240 2.628 1_554 S
O261 C242 1.243 . S
O262 La240 2.554 . S
O262 C249 1.240 . S
O263 La240 2.757 . S
O263 La241 2.482 1_556 S
O263 C249 1.289 . S
O264 La240 2.470 1_554 S
O264 C250 1.258 . S
O265 La241 2.503 . S
O265 C250 1.256 . S
O266 La241 2.521 1_556 S
O266 C251 1.261 . S
O267 La241 2.628 1_556 S
O267 C251 1.243 . S
O268 La241 2.554 . S
O268 C258 1.240 . S
O269 La240 2.482 1_554 S
O269 La241 2.757 . S
O269 C258 1.289 . S
O270 La241 2.470 1_556 S
O270 C259 1.258 . S
O271 La240 2.503 . S
O271 C259 1.256 . S
H272 C244 0.930 . S
H273 C245 0.930 . S
H274 C247 0.929 . S
H275 C248 0.929 . S
H276 C253 0.930 . S
H277 C254 0.930 . S
H278 C256 0.929 . S
H279 C257 0.929 . S
La280 C282 2.928 1_556 S
La280 O300 2.521 1_556 S
La280 O301 2.628 1_556 S
La280 O302 2.554 . S
La280 O303 2.757 . S
La280 O304 2.470 1_556 S
La280 O309 2.482 1_556 S
La280 O311 2.503 . S
La281 C291 2.928 1_554 S
La281 O303 2.482 1_554 S
La281 O305 2.503 . S
La281 O306 2.521 1_554 S
La281 O307 2.628 1_554 S
La281 O308 2.554 . S
La281 O309 2.757 . S
La281 O310 2.470 1_554 S
C282 La280 2.928 1_554 S
C282 C283 1.503 . S
C282 O300 1.261 . S
C282 O301 1.243 . S
C283 C282 1.503 . S
C283 C284 1.394 . S
C283 C288 1.373 . S
C284 C283 1.394 . S
C284 C285 1.380 . S
C284 H312 0.930 . S
C285 C284 1.380 . S
C285 C286 1.376 . S
C285 H313 0.930 . S
C286 C285 1.376 . S
C286 C287 1.370 . S
C287 C286 1.370 . S
C287 C288 1.396 . S
C287 H314 0.929 . S
C288 C283 1.373 . S
C288 C287 1.396 . S
C288 H315 0.929 . S
C289 O302 1.240 . S
C289 O303 1.289 . S
C290 O304 1.258 . S
C290 O305 1.256 . S
C291 La281 2.928 1_556 S
C291 C292 1.503 . S
C291 O306 1.261 . S
C291 O307 1.243 . S
C292 C291 1.503 . S
C292 C293 1.394 . S
C292 C297 1.373 . S
C293 C292 1.394 . S
C293 C294 1.380 . S
C293 H316 0.930 . S
C294 C293 1.380 . S
C294 C295 1.376 . S
C294 H317 0.930 . S
C295 C294 1.376 . S
C295 C296 1.370 . S
C296 C295 1.370 . S
C296 C297 1.396 . S
C296 H318 0.929 . S
C297 C292 1.373 . S
C297 C296 1.396 . S
C297 H319 0.929 . S
C298 O308 1.240 . S
C298 O309 1.289 . S
C299 O310 1.258 . S
C299 O311 1.256 . S
O300 La280 2.521 1_554 S
O300 C282 1.261 . S
O301 La280 2.628 1_554 S
O301 C282 1.243 . S
O302 La280 2.554 . S
O302 C289 1.240 . S
O303 La280 2.757 . S
O303 La281 2.482 1_556 S
O303 C289 1.289 . S
O304 La280 2.470 1_554 S
O304 C290 1.258 . S
O305 La281 2.503 . S
O305 C290 1.256 . S
O306 La281 2.521 1_556 S
O306 C291 1.261 . S
O307 La281 2.628 1_556 S
O307 C291 1.243 . S
O308 La281 2.554 . S
O308 C298 1.240 . S
O309 La280 2.482 1_554 S
O309 La281 2.757 . S
O309 C298 1.289 . S
O310 La281 2.470 1_556 S
O310 C299 1.258 . S
O311 La280 2.503 . S
O311 C299 1.256 . S
H312 C284 0.930 . S
H313 C285 0.930 . S
H314 C287 0.929 . S
H315 C288 0.929 . S
H316 C293 0.930 . S
H317 C294 0.930 . S
H318 C296 0.929 . S
H319 C297 0.929 . S
C320 C321 1.170 . S
C320 C322 1.380 . S
C321 C320 1.170 . S
C322 C320 1.380 . S
C322 C323 1.170 . S
C323 C322 1.170 . S
C324 C325 1.170 . S
C324 C326 1.380 . S
C325 C324 1.170 . S
C326 C324 1.380 . S
C326 C327 1.170 . S
C327 C326 1.170 . S
C328 C329 1.170 . S
C328 C330 1.380 . S
C329 C328 1.170 . S
C330 C328 1.380 . S
C330 C331 1.170 . S
C331 C330 1.170 . S
C332 C333 1.170 . S
C332 C334 1.380 . S
C333 C332 1.170 . S
C334 C332 1.380 . S
C334 C335 1.170 . S
C335 C334 1.170 . S
C336 C337 1.170 . S
C336 C338 1.380 1_565 S
C337 C336 1.170 . S
C338 C336 1.380 1_545 S
C338 C339 1.170 . S
C339 C338 1.170 . S
C340 C341 1.170 . S
C340 C342 1.380 . S
C341 C340 1.170 . S
C342 C340 1.380 . S
C342 C343 1.170 . S
C343 C342 1.170 . S
C344 C345 1.170 . S
C344 C346 1.380 1_565 S
C345 C344 1.170 . S
C346 C344 1.380 1_545 S
C346 C347 1.170 . S
C347 C346 1.170 . S
C348 C349 1.170 . S
C348 C350 1.380 . S
C349 C348 1.170 . S
C350 C348 1.380 . S
C350 C351 1.170 . S
C351 C350 1.170 . S
C352 C353 1.170 . S
C352 C354 1.380 . S
C353 C352 1.170 . S
C354 C352 1.380 . S
C354 C355 1.170 1_554 S
C355 C354 1.170 1_556 S
C356 C357 1.170 1_554 S
C356 C358 1.380 1_565 S
C357 C356 1.170 1_556 S
C358 C356 1.380 1_545 S
C358 C359 1.170 1_554 S
C359 C358 1.170 1_556 S
C360 C361 1.170 . S
C360 C362 1.380 . S
C361 C360 1.170 . S
C362 C360 1.380 . S
C362 C363 1.170 . S
C363 C362 1.170 . S
C364 C365 1.170 1_556 S
C364 C366 1.380 1_545 S
C365 C364 1.170 1_554 S
C366 C364 1.380 1_565 S
C366 C367 1.170 . S
C367 C366 1.170 . S
C368 C369 1.170 1_556 S
C368 C370 1.380 . S
C369 C368 1.170 1_554 S
C370 C368 1.380 . S
C370 C371 1.170 . S
C371 C370 1.170 . S
C372 C373 1.170 1_556 S
C372 C374 1.380 . S
C373 C372 1.170 1_554 S
C374 C372 1.380 . S
C374 C375 1.170 . S
C375 C374 1.170 . S
C376 C377 1.170 . S
C376 C378 1.380 . S
C377 C376 1.170 . S
C378 C376 1.380 . S
C378 C379 1.170 1_554 S
C379 C378 1.170 1_556 S
C380 C381 1.170 1_554 S
C380 C382 1.380 . S
C381 C380 1.170 1_556 S
C382 C380 1.380 . S
C382 C383 1.170 . S
C383 C382 1.170 . S
C384 C385 1.170 . S
C384 C386 1.380 . S
C385 C384 1.170 . S
C386 C384 1.380 . S
C386 C387 1.170 . S
C387 C386 1.170 . S
C388 C389 1.170 . S
C388 C390 1.380 . S
C389 C388 1.170 . S
C390 C388 1.380 . S
C390 C391 1.170 . S
C391 C390 1.170 . S
C392 C393 1.170 . S
C392 C394 1.380 . S
C393 C392 1.170 . S
C394 C392 1.380 . S
C394 C395 1.170 . S
C395 C394 1.170 . S
C396 C397 1.170 . S
C396 C398 1.380 . S
C397 C396 1.170 . S
C398 C396 1.380 . S
C398 C399 1.170 . S
C399 C398 1.170 . S
C400 C401 1.170 . S
C400 C402 1.380 1_455 S
C401 C400 1.170 . S
C402 C400 1.380 1_655 S
C402 C403 1.170 . S
C403 C402 1.170 . S
C404 C405 1.170 . S
C404 C406 1.380 1_655 S
C405 C404 1.170 . S
C406 C404 1.380 1_455 S
C406 C407 1.170 . S
C407 C406 1.170 . S
C408 C409 1.170 . S
C408 C410 1.380 . S
C409 C408 1.170 . S
C410 C408 1.380 . S
C410 C411 1.170 . S
C411 C410 1.170 . S
C412 C413 1.170 . S
C412 C414 1.380 . S
C413 C412 1.170 . S
C414 C412 1.380 . S
C414 C415 1.170 . S
C415 C414 1.170 . S
C321 C6 1.678 . S
C323 C295 1.679 . S
C325 C255 1.680 . S
C327 C46 1.677 . S
C329 C206 1.693 . S
C331 C95 1.676 . S
C333 C166 1.690 . S
C335 C135 1.671 . S
C337 C89 1.597 . S
C339 C9 1.617 . S
C341 C49 1.594 . S
C343 C129 1.598 . S
C345 C138 1.618 . S
C347 C58 1.571 . S
C349 C98 1.610 . S
C351 C18 1.595 . S
C353 C169 1.442 1_554 S
C355 C249 1.446 . S
C357 C209 1.428 . S
C359 C289 1.454 . S
C361 C298 1.444 . S
C363 C218 1.431 . S
C365 C258 1.428 . S
C367 C178 1.439 1_556 S
C369 C19 2.028 . S
C371 C10 2.057 . S
C373 C59 2.046 . S
C375 C50 2.026 . S
C377 C99 2.031 . S
C379 C90 2.056 . S
C381 C130 2.032 . S
C383 C139 2.056 . S
C385 C170 2.027 . S
C387 C179 2.057 . S
C389 C219 2.037 . S
C391 C210 2.052 . S
C393 C250 2.057 . S
C395 C259 2.024 . S
C397 C290 2.023 . S
C399 C299 2.056 . S
C401 C15 2.255 . S
C403 C55 2.250 . S
C405 C126 2.239 . S
C407 C86 2.238 . S
C409 C175 2.242 . S
C411 C215 2.240 . S
C413 C286 2.260 . S
C415 C246 2.260 . S
