# Generated by pormake.
# Topology ske, (6)-cn, num edge types: 1
# Building blocks:
#     Node 0, Type 0, BuildingBlock: MIDCAF_clean_sbu_0, # of connection points: 6
#     Node 1, Type 0, BuildingBlock: MIDCAF_clean_sbu_0, # of connection points: 6
#     Node 2, Type 0, BuildingBlock: MIDCAF_clean_sbu_0, # of connection points: 6
#     Node 3, Type 0, BuildingBlock: MIDCAF_clean_sbu_0, # of connection points: 6
#     Node 4, Type 0, BuildingBlock: MIDCAF_clean_sbu_0, # of connection points: 6
#     Node 5, Type 0, BuildingBlock: MIDCAF_clean_sbu_0, # of connection points: 6
#     Node 6, Type 0, BuildingBlock: MIDCAF_clean_sbu_0, # of connection points: 6
#     Node 7, Type 0, BuildingBlock: MIDCAF_clean_sbu_0, # of connection points: 6
#     Edge 8, Type (0, 0), BuildingBlock: XUDNAN_clean_linker_2, # of connection points: 2
#     Edge 9, Type (0, 0), BuildingBlock: XUDNAN_clean_linker_2, # of connection points: 2
#     Edge 10, Type (0, 0), BuildingBlock: XUDNAN_clean_linker_2, # of connection points: 2
#     Edge 11, Type (0, 0), BuildingBlock: XUDNAN_clean_linker_2, # of connection points: 2
#     Edge 12, Type (0, 0), BuildingBlock: XUDNAN_clean_linker_2, # of connection points: 2
#     Edge 13, Type (0, 0), BuildingBlock: XUDNAN_clean_linker_2, # of connection points: 2
#     Edge 14, Type (0, 0), BuildingBlock: XUDNAN_clean_linker_2, # of connection points: 2
#     Edge 15, Type (0, 0), BuildingBlock: XUDNAN_clean_linker_2, # of connection points: 2
#     Edge 16, Type (0, 0), BuildingBlock: XUDNAN_clean_linker_2, # of connection points: 2
#     Edge 17, Type (0, 0), BuildingBlock: XUDNAN_clean_linker_2, # of connection points: 2
#     Edge 18, Type (0, 0), BuildingBlock: XUDNAN_clean_linker_2, # of connection points: 2
#     Edge 19, Type (0, 0), BuildingBlock: XUDNAN_clean_linker_2, # of connection points: 2
#     Edge 20, Type (0, 0), BuildingBlock: XUDNAN_clean_linker_2, # of connection points: 2
#     Edge 21, Type (0, 0), BuildingBlock: XUDNAN_clean_linker_2, # of connection points: 2
#     Edge 22, Type (0, 0), BuildingBlock: XUDNAN_clean_linker_2, # of connection points: 2
#     Edge 23, Type (0, 0), BuildingBlock: XUDNAN_clean_linker_2, # of connection points: 2
#     Edge 24, Type (0, 0), BuildingBlock: XUDNAN_clean_linker_2, # of connection points: 2
#     Edge 25, Type (0, 0), BuildingBlock: XUDNAN_clean_linker_2, # of connection points: 2
#     Edge 26, Type (0, 0), BuildingBlock: XUDNAN_clean_linker_2, # of connection points: 2
#     Edge 27, Type (0, 0), BuildingBlock: XUDNAN_clean_linker_2, # of connection points: 2
#     Edge 28, Type (0, 0), BuildingBlock: XUDNAN_clean_linker_2, # of connection points: 2
#     Edge 29, Type (0, 0), BuildingBlock: XUDNAN_clean_linker_2, # of connection points: 2
#     Edge 30, Type (0, 0), BuildingBlock: XUDNAN_clean_linker_2, # of connection points: 2
#     Edge 31, Type (0, 0), BuildingBlock: XUDNAN_clean_linker_2, # of connection points: 2
# Relax obj value: 0.101
# Max RMSD: 0.160
# Mean RMSD: 0.160
data_MOF--net-ske--node1-MIDCAF_clean_sbu_0--edge1-XUDNAN_clean_linker_2
_symmetry_space_group_name_H-M    P1
_symmetry_Int_Tables_number       1
_symmetry_cell_setting            triclinic
loop_
_symmetry_equiv_pos_as_xyz
'x, y, z'
_cell_length_a     60.59013
_cell_length_b     30.434498
_cell_length_c     15.431684
_cell_angle_alpha  90.130393
_cell_angle_beta   89.916977
_cell_angle_gamma 89.998014
loop_
_atom_site_label
_atom_site_type_symbol
_atom_site_fract_x
_atom_site_fract_y
_atom_site_fract_z
_atom_type_partial_charge
Zn0 Zn 0.15089 0.18576 0.43989 0.0
Zn1 Zn 0.11302 0.28853 0.6036 0.0
Zn2 Zn 0.13131 0.24191 0.52342 0.0
C3 C 0.07968 0.25456 0.52332 0.0
C4 C 0.13817 0.34204 0.51424 0.0
O5 O 0.16 0.22201 0.60535 0.0
O6 O 0.17456 0.17128 0.52013 0.0
C7 C 0.10995 0.14891 0.4603 0.0
O8 O 0.095 0.22494 0.52194 0.0
O9 O 0.08477 0.29332 0.5439 0.0
O10 O 0.13332 0.33878 0.5933 0.0
O11 O 0.1354 0.30846 0.46421 0.0
O12 O 0.12805 0.14085 0.4233 0.0
O13 O 0.10722 0.18577 0.50095 0.0
O14 O 0.14223 0.27528 0.40183 0.0
O15 O 0.15997 0.22022 0.33946 0.0
C16 C 0.15361 0.2596 0.33821 0.0
O17 O 0.14503 0.24677 0.65965 0.0
O18 O 0.11246 0.25944 0.71655 0.0
C19 C 0.17522 0.19356 0.58894 0.0
C20 C 0.13267 0.25149 0.72741 0.0
Zn21 Zn 0.84981 0.31717 0.50323 0.0
Zn22 Zn 0.8842 0.19701 0.62278 0.0
Zn23 Zn 0.8706 0.25442 0.55446 0.0
C24 C 0.91896 0.2352 0.53833 0.0
C25 C 0.86176 0.15604 0.51241 0.0
O26 O 0.84132 0.26407 0.64135 0.0
O27 O 0.82284 0.31598 0.57294 0.0
C28 C 0.89055 0.35257 0.53947 0.0
O29 O 0.90647 0.26874 0.55337 0.0
O30 O 0.91138 0.19717 0.55165 0.0
O31 O 0.85906 0.15664 0.59323 0.0
O32 O 0.86856 0.19181 0.4761 0.0
O33 O 0.87089 0.36429 0.52649 0.0
O34 O 0.89525 0.31121 0.54636 0.0
O35 O 0.85936 0.23159 0.42761 0.0
O36 O 0.84708 0.29573 0.38288 0.0
C37 C 0.85129 0.25584 0.3675 0.0
O38 O 0.85715 0.24271 0.6897 0.0
O39 O 0.8867 0.21121 0.74532 0.0
C40 C 0.82386 0.28805 0.63291 0.0
C41 C 0.86771 0.22731 0.75572 0.0
Zn42 Zn 0.11034 0.70031 0.35157 0.0
Zn43 Zn 0.15623 0.81355 0.4869 0.0
Zn44 Zn 0.1329 0.75273 0.42326 0.0
C45 C 0.15458 0.74814 0.61383 0.0
C46 C 0.11597 0.85288 0.4668 0.0
O47 O 0.14646 0.73754 0.28738 0.0
O48 O 0.12649 0.68015 0.25007 0.0
C49 C 0.124 0.65581 0.49331 0.0
O50 O 0.14471 0.72717 0.55212 0.0
O51 O 0.16112 0.78694 0.60116 0.0
O52 O 0.13554 0.86263 0.48655 0.0
O53 O 0.11121 0.81315 0.44337 0.0
O54 O 0.10804 0.65533 0.4411 0.0
O55 O 0.13602 0.69068 0.49931 0.0
O56 O 0.0975 0.77605 0.42037 0.0
O57 O 0.08305 0.73047 0.32498 0.0
C58 C 0.08075 0.76238 0.3761 0.0
O59 O 0.16101 0.76448 0.33463 0.0
O60 O 0.1809 0.81419 0.40408 0.0
C61 C 0.14183 0.70651 0.23273 0.0
C62 C 0.17855 0.78829 0.3409 0.0
Zn63 Zn 0.89725 0.79652 0.3904 0.0
Zn64 Zn 0.84957 0.69797 0.53382 0.0
Zn65 Zn 0.87413 0.75355 0.46655 0.0
C66 C 0.85433 0.76586 0.65723 0.0
C67 C 0.88771 0.65155 0.51649 0.0
O68 O 0.8606 0.77031 0.3307 0.0
O69 O 0.8797 0.83043 0.30716 0.0
C70 C 0.89303 0.84438 0.53024 0.0
O71 O 0.86478 0.78458 0.59434 0.0
O72 O 0.84613 0.7282 0.64573 0.0
O73 O 0.86791 0.6453 0.53817 0.0
O74 O 0.89377 0.68999 0.48968 0.0
O75 O 0.90946 0.83159 0.48686 0.0
O76 O 0.87613 0.81872 0.53463 0.0
O77 O 0.90835 0.72525 0.45716 0.0
O78 O 0.91848 0.7563 0.33533 0.0
C79 C 0.92308 0.73142 0.39781 0.0
O80 O 0.84526 0.74494 0.38019 0.0
O81 O 0.82456 0.69807 0.4532 0.0
C82 C 0.86493 0.80414 0.28261 0.0
C83 C 0.82725 0.72282 0.38869 0.0
Zn84 Zn 0.61167 0.80395 0.12922 0.0
Zn85 Zn 0.65817 0.68922 -0.00631 0.0
Zn86 Zn 0.63467 0.75152 0.05383 0.0
C87 C 0.65672 0.75421 0.86436 0.0
C88 C 0.61742 0.65162 0.01219 0.0
O89 O 0.64833 0.76646 0.18945 0.0
O90 O 0.62667 0.81981 0.2356 0.0
C91 C 0.62676 0.84814 0.98496 0.0
O92 O 0.64687 0.77595 0.92517 0.0
O93 O 0.66295 0.71529 0.87823 0.0
O94 O 0.63708 0.6407 -0.00375 0.0
O95 O 0.61282 0.69179 0.03288 0.0
O96 O 0.61223 0.85057 0.04323 0.0
O97 O 0.63785 0.81233 0.97514 0.0
O98 O 0.59916 0.72831 0.05599 0.0
O99 O 0.58335 0.77596 0.1441 0.0
C100 C 0.58175 0.74303 0.09511 0.0
O101 O 0.66308 0.74051 0.14157 0.0
O102 O 0.68298 0.68943 0.07577 0.0
C103 C 0.64298 0.7951 0.24806 0.0
C104 C 0.68067 0.71671 0.13671 0.0
Zn105 Zn 0.35059 0.81324 0.96402 0.0
Zn106 Zn 0.39375 0.70749 0.1033 0.0
Zn107 Zn 0.37372 0.75476 0.03048 0.0
C108 C 0.42438 0.74692 0.01463 0.0
C109 C 0.36806 0.65472 0.01398 0.0
O110 O 0.34475 0.76543 0.11616 0.0
O111 O 0.32556 0.8152 0.04418 0.0
C112 C 0.39104 0.85332 0.98592 0.0
O113 O 0.40906 0.77583 0.02626 0.0
O114 O 0.42027 0.70714 0.02972 0.0
O115 O 0.37389 0.65696 0.09209 0.0
O116 O 0.36997 0.6891 0.96565 0.0
O117 O 0.37154 0.86248 0.96414 0.0
O118 O 0.39601 0.81387 0.00999 0.0
O119 O 0.36318 0.72404 0.90845 0.0
O120 O 0.34537 0.7812 0.85449 0.0
C121 C 0.35222 0.74222 0.84687 0.0
O122 O 0.36193 0.7466 0.16737 0.0
O123 O 0.39496 0.73378 0.22016 0.0
C124 C 0.32716 0.78881 0.10664 0.0
C125 C 0.37475 0.74141 0.23335 0.0
Zn126 Zn 0.60534 0.21288 0.84793 0.0
Zn127 Zn 0.64925 0.31874 0.98413 0.0
Zn128 Zn 0.62571 0.26025 0.9212 0.0
C129 C 0.64764 0.24946 0.10426 0.0
C130 C 0.60886 0.35901 0.96373 0.0
O131 O 0.63754 0.25176 0.78417 0.0
O132 O 0.60477 0.23745 0.73021 0.0
C133 C 0.6308 0.16059 0.94087 0.0
O134 O 0.6366 0.23065 0.04347 0.0
O135 O 0.6544 0.28841 0.09535 0.0
O136 O 0.62861 0.36834 0.98145 0.0
O137 O 0.60353 0.31922 0.94307 0.0
O138 O 0.62464 0.16179 0.86306 0.0
O139 O 0.62937 0.19564 0.98769 0.0
O140 O 0.5902 0.28163 0.92667 0.0
O141 O 0.57815 0.21358 0.91681 0.0
C142 C 0.57448 0.25325 0.93472 0.0
O143 O 0.655 0.26962 0.83496 0.0
O144 O 0.67452 0.31949 0.90565 0.0
C145 C 0.62492 0.24578 0.71776 0.0
C146 C 0.67283 0.29242 0.84417 0.0
Zn147 Zn 0.38515 0.29539 0.85721 0.0
Zn148 Zn 0.3429 0.18402 0.00157 0.0
Zn149 Zn 0.36335 0.2439 0.93067 0.0
C150 C 0.34047 0.24995 0.12235 0.0
C151 C 0.38372 0.14793 0.9849 0.0
O152 O 0.34858 0.25712 0.79565 0.0
O153 O 0.36771 0.31572 0.75958 0.0
C154 C 0.3718 0.34051 -0.00054 0.0
O155 O 0.35076 0.27021 0.06061 0.0
O156 O 0.33437 0.21085 0.11074 0.0
O157 O 0.36491 0.13789 0.01338 0.0
O158 O 0.3869 0.18643 0.95179 0.0
O159 O 0.38795 0.33986 0.94804 0.0
O160 O 0.35926 0.30639 0.00496 0.0
O161 O 0.39968 0.22458 0.92717 0.0
O162 O 0.41292 0.26784 0.82556 0.0
C163 C 0.41614 0.23829 0.88096 0.0
O164 O 0.33619 0.22513 0.83989 0.0
O165 O 0.31974 0.17339 0.91671 0.0
C166 C 0.35253 0.28896 0.74218 0.0
C167 C 0.32065 0.19655 0.84928 0.0
H168 H 0.20326 0.25721 0.65222 0.0
H169 H 0.1924 0.11651 0.63947 0.0
H170 H 0.2305 0.10348 0.68842 0.0
H171 H 0.25837 0.25686 0.5763 0.0
H172 H 0.26852 0.2987 0.64876 0.0
H173 H 0.23987 0.29844 0.61736 0.0
H174 H 0.22761 0.29588 0.77843 0.0
H175 H 0.2562 0.29793 0.81015 0.0
H176 H 0.23874 0.25406 0.84836 0.0
H177 H 0.26985 0.10476 0.72442 0.0
H178 H 0.3067 0.11972 0.78445 0.0
H179 H 0.29317 0.2596 0.78073 0.0
C180 C 0.20871 0.2238 0.66336 0.0
C181 C 0.19485 0.18775 0.64363 0.0
C182 C 0.20271 0.14443 0.65572 0.0
C183 C 0.22439 0.13674 0.68221 0.0
C184 C 0.23802 0.17276 0.69665 0.0
C185 C 0.23043 0.21546 0.69056 0.0
C186 C 0.24871 0.24792 0.71215 0.0
C187 C 0.25417 0.27721 0.63396 0.0
C188 C 0.24245 0.27557 0.79204 0.0
C189 C 0.26761 0.21662 0.73151 0.0
C190 C 0.26105 0.17351 0.71988 0.0
C191 C 0.27519 0.13832 0.7343 0.0
C192 C 0.29617 0.14715 0.76735 0.0
C193 C 0.30275 0.19071 0.7862 0.0
C194 C 0.28868 0.2261 0.76478 0.0
H195 H 0.70296 0.35037 0.78223 0.0
H196 H 0.68921 0.21124 0.80596 0.0
H197 H 0.7279 0.19432 0.76503 0.0
H198 H 0.74071 0.34063 0.59512 0.0
H199 H 0.7578 0.38494 0.63403 0.0
H200 H 0.72875 0.38437 0.65864 0.0
H201 H 0.73824 0.39049 0.82211 0.0
H202 H 0.76732 0.38934 0.79816 0.0
H203 H 0.75564 0.34947 0.87124 0.0
H204 H 0.76961 0.1939 0.73696 0.0
H205 H 0.80814 0.20905 0.69114 0.0
H206 H 0.7934 0.34832 0.68255 0.0
C207 C 0.70793 0.31632 0.7759 0.0
C208 C 0.69315 0.28205 0.7959 0.0
C209 C 0.70025 0.23787 0.78886 0.0
C210 C 0.72225 0.22804 0.76702 0.0
C211 C 0.73675 0.26281 0.75181 0.0
C212 C 0.72966 0.306 0.75338 0.0
C213 C 0.74829 0.33749 0.734 0.0
C214 C 0.74361 0.36336 0.65047 0.0
C215 C 0.75261 0.36851 0.81099 0.0
C216 C 0.76709 0.30541 0.72197 0.0
C217 C 0.76029 0.2625 0.73386 0.0
C218 C 0.77503 0.22737 0.72671 0.0
C219 C 0.79694 0.23628 0.70197 0.0
C220 C 0.80365 0.27981 0.68358 0.0
C221 C 0.78869 0.31473 0.69662 0.0
H222 H 0.29792 0.84819 0.17096 0.0
H223 H 0.31012 0.70852 0.14449 0.0
H224 H 0.27157 0.69308 0.1888 0.0
H225 H 0.26187 0.83958 0.36223 0.0
H226 H 0.24475 0.8845 0.32675 0.0
H227 H 0.27351 0.88302 0.29739 0.0
H228 H 0.26234 0.88962 0.13564 0.0
H229 H 0.23353 0.88942 0.16445 0.0
H230 H 0.24406 0.84927 0.08898 0.0
H231 H 0.23047 0.69397 0.22191 0.0
H232 H 0.19285 0.70972 0.27635 0.0
H233 H 0.20846 0.84864 0.28624 0.0
C234 C 0.29262 0.81434 0.17721 0.0
C235 C 0.30693 0.77947 0.15573 0.0
C236 C 0.29944 0.73557 0.16272 0.0
C237 C 0.27752 0.72658 0.18642 0.0
C238 C 0.26349 0.7619 0.20343 0.0
C239 C 0.27096 0.80483 0.20178 0.0
C240 C 0.25279 0.83688 0.22469 0.0
C241 C 0.25857 0.86248 0.30771 0.0
C242 C 0.24791 0.86813 0.1489 0.0
C243 C 0.23389 0.80536 0.23931 0.0
C244 C 0.2402 0.76231 0.2249 0.0
C245 C 0.2254 0.72752 0.23401 0.0
C246 C 0.20397 0.73682 0.26363 0.0
C247 C 0.19782 0.78039 0.28491 0.0
C248 C 0.21275 0.81508 0.26975 0.0
H249 H 0.71038 0.65811 0.20014 0.0
H250 H 0.6953 0.79718 0.18895 0.0
H251 H 0.73292 0.81448 0.2414 0.0
H252 H 0.74425 0.66524 0.39923 0.0
H253 H 0.76259 0.62251 0.36202 0.0
H254 H 0.7341 0.62237 0.32903 0.0
H255 H 0.74678 0.62012 0.16842 0.0
H256 H 0.7753 0.62195 0.20081 0.0
H257 H 0.7646 0.66285 0.12779 0.0
H258 H 0.77406 0.81598 0.27649 0.0
H259 H 0.81187 0.80166 0.33075 0.0
H260 H 0.79867 0.66175 0.32736 0.0
C261 C 0.71481 0.69214 0.21134 0.0
C262 C 0.70003 0.72634 0.19092 0.0
C263 C 0.70634 0.77052 0.20558 0.0
C264 C 0.72776 0.78064 0.234 0.0
C265 C 0.7424 0.7461 0.24887 0.0
C266 C 0.7359 0.70272 0.24118 0.0
C267 C 0.75448 0.6716 0.26333 0.0
C268 C 0.7485 0.64381 0.34317 0.0
C269 C 0.76064 0.64242 0.18542 0.0
C270 C 0.77262 0.70416 0.28329 0.0
C271 C 0.76553 0.74699 0.27289 0.0
C272 C 0.77968 0.78259 0.28589 0.0
C273 C 0.80121 0.77417 0.31531 0.0
C274 C 0.80807 0.73064 0.33265 0.0
C275 C 0.79381 0.6953 0.31388 0.0
H276 H 0.10991 0.91074 0.59645 0.0
H277 H 0.08826 0.88006 0.33662 0.0
H278 H 0.07384 0.95588 0.3213 0.0
H279 H 0.06473 0.99793 0.64924 0.0
H280 H 0.08484 0.0299 0.70785 0.0
H281 H 0.08646 0.97071 0.70806 0.0
H282 H 0.12672 0.97516 0.65224 0.0
H283 H 0.12521 0.03387 0.65136 0.0
H284 H 0.13248 0.00471 0.55357 0.0
H285 H 0.07269 0.03869 0.31916 0.0
H286 H 0.08388 0.11653 0.33177 0.0
H287 H 0.10482 0.09429 0.59523 0.0
C288 C 0.10087 0.91932 0.53841 0.0
C289 C 0.09979 0.8894 0.46834 0.0
C290 C 0.08868 0.90203 0.39191 0.0
C291 C 0.08059 0.94526 0.38266 0.0
C292 C 0.08335 0.9751 0.45112 0.0
C293 C 0.09277 0.96216 0.52859 0.0
C294 C 0.09726 1.00133 0.58705 0.0
C295 C 0.08243 0.99987 0.66783 0.0
C296 C 0.12186 0.0039 0.61237 0.0
C297 C 0.09066 0.03882 0.52799 0.0
C298 C 0.08212 0.02313 0.4506 0.0
C299 C 0.07843 0.05133 0.38074 0.0
C300 C 0.08463 0.09575 0.3886 0.0
C301 C 0.09428 0.11184 0.46586 0.0
C302 C 0.09628 0.08339 0.53745 0.0
H303 H 0.89425 0.41136 0.66812 0.0
H304 H 0.91961 0.37904 0.41447 0.0
H305 H 0.93057 0.45664 0.39314 0.0
H306 H 0.86747 0.49827 0.61026 0.0
H307 H 0.87181 0.53183 0.70514 0.0
H308 H 0.87344 0.47327 0.71346 0.0
H309 H 0.91294 0.47884 0.7761 0.0
H310 H 0.91134 0.53792 0.76952 0.0
H311 H 0.93382 0.50908 0.71807 0.0
H312 H 0.929 0.54083 0.38431 0.0
H313 H 0.91569 0.61801 0.39099 0.0
H314 H 0.89078 0.5949 0.64953 0.0
C315 C 0.90369 0.42008 0.61103 0.0
C316 C 0.90686 0.38877 0.54444 0.0
C317 C 0.91791 0.40193 0.46792 0.0
C318 C 0.92391 0.44629 0.45491 0.0
C319 C 0.91894 0.47719 0.51942 0.0
C320 C 0.90949 0.46422 0.5971 0.0
C321 C 0.90217 0.50367 0.65008 0.0
C322 C 0.87727 0.50161 0.67079 0.0
C323 C 0.91589 0.50761 0.73337 0.0
C324 C 0.90746 0.54074 0.588 0.0
C325 C 0.9177 0.52529 0.51379 0.0
C326 C 0.92163 0.5533 0.44334 0.0
C327 C 0.91417 0.59733 0.44772 0.0
C328 C 0.90259 0.61271 0.52145 0.0
C329 C 0.90012 0.58435 0.5933 0.0
H330 H 0.85576 0.8967 0.55958 0.0
H331 H 0.92704 0.90229 0.53039 0.0
H332 H 0.92473 0.98086 0.49705 0.0
H333 H 0.84072 0.97213 0.39932 0.0
H334 H 0.8196 1.00032 0.46021 0.0
H335 H 0.82603 0.94383 0.48417 0.0
H336 H 0.83408 0.96334 0.64458 0.0
H337 H 0.82662 0.01942 0.62189 0.0
H338 H 0.85311 0.00717 0.6691 0.0
H339 H 0.91456 0.05539 0.44291 0.0
H340 H 0.89942 0.1304 0.43362 0.0
H341 H 0.83584 0.08218 0.52044 0.0
C342 C 0.87094 0.91474 0.54939 0.0
C343 C 0.89155 0.89268 0.54563 0.0
C344 C 0.91098 0.91794 0.5323 0.0
C345 C 0.90986 0.96264 0.51198 0.0
C346 C 0.88925 0.98251 0.5087 0.0
C347 C 0.87026 0.96027 0.53211 0.0
C348 C 0.85054 0.99121 0.53081 0.0
C349 C 0.8332 0.97593 0.46469 0.0
C350 C 0.8405 0.99556 0.62202 0.0
C351 C 0.86149 0.0338 0.50184 0.0
C352 C 0.88368 0.02737 0.48622 0.0
C353 C 0.89726 0.06113 0.45642 0.0
C354 C 0.8884 0.10357 0.4495 0.0
C355 C 0.86644 0.11217 0.47566 0.0
C356 C 0.85256 0.0764 0.49829 0.0
H357 H 0.09818 0.58505 0.52323 0.0
H358 H 0.16645 0.62744 0.5237 0.0
H359 H 0.17848 0.54958 0.51839 0.0
H360 H 0.10502 0.48061 0.64297 0.0
H361 H 0.08482 0.45395 0.57524 0.0
H362 H 0.0827 0.51194 0.59682 0.0
H363 H 0.08197 0.52575 0.43106 0.0
H364 H 0.08532 0.46805 0.40898 0.0
H365 H 0.1047 0.50706 0.36507 0.0
H366 H 0.18243 0.46524 0.50041 0.0
H367 H 0.17763 0.38423 0.49175 0.0
H368 H 0.10683 0.40117 0.48299 0.0
C369 C 0.1157 0.57799 0.526 0.0
C370 C 0.13137 0.61235 0.52507 0.0
C371 C 0.15413 0.60169 0.52661 0.0
C372 C 0.16109 0.55753 0.52193 0.0
C373 C 0.14506 0.52466 0.51517 0.0
C374 C 0.12282 0.53456 0.51883 0.0
C375 C 0.10868 0.49432 0.5041 0.0
C376 C 0.09448 0.48462 0.58457 0.0
C377 C 0.09433 0.49913 0.42246 0.0
C378 C 0.12636 0.45996 0.4911 0.0
C379 C 0.14729 0.47773 0.49811 0.0
C380 C 0.1661 0.45123 0.49366 0.0
C381 C 0.1633 0.40536 0.48688 0.0
C382 C 0.14191 0.38684 0.48269 0.0
C383 C 0.12337 0.41473 0.48171 0.0
H384 H 0.61013 0.60158 0.8723 0.0
H385 H 0.58972 0.61966 0.13821 0.0
H386 H 0.57418 0.54429 0.13914 0.0
H387 H 0.56387 0.51889 0.8052 0.0
H388 H 0.58362 0.48939 0.73976 0.0
H389 H 0.58565 0.54828 0.75065 0.0
H390 H 0.62602 0.54009 0.80311 0.0
H391 H 0.6241 0.48169 0.79291 0.0
H392 H 0.63181 0.50571 0.8954 0.0
H393 H 0.57161 0.46187 0.1246 0.0
H394 H 0.58233 0.38467 0.09704 0.0
H395 H 0.60391 0.41958 0.83966 0.0
C396 C 0.60107 0.5905 0.92875 0.0
C397 C 0.60062 0.61659 0.00447 0.0
C398 C 0.58959 0.60068 0.07875 0.0
C399 C 0.58086 0.5577 0.07976 0.0
C400 C 0.58299 0.53143 0.0055 0.0
C401 C 0.59243 0.54782 0.93048 0.0
C402 C 0.59653 0.51163 0.86468 0.0
C403 C 0.58151 0.51739 0.78538 0.0
C404 C 0.62105 0.50968 0.83763 0.0
C405 C 0.5898 0.47166 0.91675 0.0
C406 C 0.58133 0.48366 -0.00316 0.0
C407 C 0.57735 0.45219 0.06091 0.0
C408 C 0.58325 0.40816 0.04451 0.0
C409 C 0.59311 0.39596 0.9649 0.0
C410 C 0.59533 0.42776 0.89916 0.0
H411 H 0.39727 0.90929 0.11816 0.0
H412 H 0.41605 0.88422 0.85286 0.0
H413 H 0.42691 0.96203 0.836 0.0
H414 H 0.36946 0.9971 0.08028 0.0
H415 H 0.37614 0.02833 0.17614 0.0
H416 H 0.3781 0.96971 0.17807 0.0
H417 H 0.41899 0.97472 0.22553 0.0
H418 H 0.41711 0.03387 0.22467 0.0
H419 H 0.43823 0.00653 0.16229 0.0
H420 H 0.4251 0.0449 0.83526 0.0
H421 H 0.41026 0.12043 0.85062 0.0
H422 H 0.3923 0.09244 0.11595 0.0
C423 C 0.40531 0.91963 0.0589 0.0
C424 C 0.40674 0.89041 0.98805 0.0
C425 C 0.41578 0.90561 0.90907 0.0
C426 C 0.4218 0.95001 0.89884 0.0
C427 C 0.41872 0.97894 0.96833 0.0
C428 C 0.41105 0.964 0.0477 0.0
C429 C 0.40501 0.00209 0.10666 0.0
C430 C 0.38076 0.99911 0.13688 0.0
C431 C 0.42078 0.00444 0.18439 0.0
C432 C 0.40865 0.04057 0.04605 0.0
C433 C 0.41729 0.02695 0.96743 0.0
C434 C 0.41904 0.05608 0.89752 0.0
C435 C 0.41075 0.09919 0.90682 0.0
C436 C 0.40048 0.11243 0.98493 0.0
C437 C 0.40062 0.08342 0.05634 0.0
H438 H 0.39914 0.40736 0.03932 0.0
H439 H 0.32985 0.37384 0.02013 0.0
H440 H 0.32051 0.45309 0.01074 0.0
H441 H 0.39337 0.51396 0.15514 0.0
H442 H 0.41576 0.537 0.09309 0.0
H443 H 0.41543 0.47915 0.117 0.0
H444 H 0.41912 0.46327 0.95241 0.0
H445 H 0.41813 0.52096 0.92755 0.0
H446 H 0.39846 0.48394 0.87907 0.0
H447 H 0.31982 0.53797 0.98921 0.0
H448 H 0.32764 0.61806 0.97966 0.0
H449 H 0.39762 0.59113 -0.0077 0.0
C450 C 0.38189 0.41672 0.03724 0.0
C451 C 0.36521 0.38446 0.03147 0.0
C452 C 0.34287 0.398 0.02671 0.0
C453 C 0.33748 0.44296 0.01961 0.0
C454 C 0.35464 0.47367 0.01712 0.0
C455 C 0.37637 0.46092 0.0276 0.0
C456 C 0.39209 0.49898 0.01602 0.0
C457 C 0.4049 0.50781 0.10032 0.0
C458 C 0.40787 0.49129 0.9392 0.0
C459 C 0.37594 0.53539 -0.00339 0.0
C460 C 0.35436 0.52061 -0.00199 0.0
C461 C 0.33668 0.54961 0.98696 0.0
C462 C 0.34123 0.59494 0.97958 0.0
C463 C 0.36325 0.61039 0.9815 0.0
C464 C 0.3807 0.57992 0.98659 0.0
H465 H 0.60119 0.09765 0.96634 0.0
H466 H 0.67121 0.12442 0.97667 0.0
H467 H 0.67893 0.04414 0.97303 0.0
H468 H 0.6006 0.99383 0.08912 0.0
H469 H 0.57964 0.97146 0.01894 0.0
H470 H 0.58086 0.02974 0.03808 0.0
H471 H 0.58272 0.0415 0.87168 0.0
H472 H 0.58286 0.98316 0.8524 0.0
H473 H 0.60487 0.01683 0.81045 0.0
H474 H 0.6781 0.95908 0.95885 0.0
H475 H 0.66862 0.87976 0.95825 0.0
H476 H 0.59939 0.91296 0.93658 0.0
C477 C 0.6181 0.08645 0.97255 0.0
C478 C 0.6356 0.11682 0.97535 0.0
C479 C 0.6576 0.10137 0.97836 0.0
C480 C 0.66208 0.05593 0.97438 0.0
C481 C 0.64434 0.02686 0.96569 0.0
C482 C 0.62278 0.04173 0.96616 0.0
C483 C 0.60655 0.00496 0.95051 0.0
C484 C 0.59101 0.99967 0.02882 0.0
C485 C 0.59349 0.01208 0.86626 0.0
C486 C 0.62222 0.96667 0.94188 0.0
C487 C 0.64399 0.97957 0.95068 0.0
C488 C 0.66112 0.9488 0.95107 0.0
C489 C 0.65566 0.90378 0.94884 0.0
C490 C 0.6333 0.89032 0.94587 0.0
C491 C 0.61664 0.92234 0.93678 0.0
H492 H 0.1208 0.28569 0.23368 0.0
H493 H 0.1918 0.27672 0.25302 0.0
H494 H 0.19496 0.27976 0.09347 0.0
H495 H 0.1161 0.21198 0.07849 0.0
H496 H 0.09376 0.23643 0.01851 0.0
H497 H 0.09682 0.24822 0.13191 0.0
H498 H 0.09868 0.33182 0.10194 0.0
H499 H 0.09456 0.32063 0.98836 0.0
H500 H 0.11801 0.35253 0.02307 0.0
H501 H 0.18966 0.26809 0.93116 0.0
H502 H 0.17625 0.25203 0.7825 0.0
H503 H 0.10877 0.26179 0.87488 0.0
C504 C 0.13702 0.28773 0.20434 0.0
C505 C 0.15608 0.28252 0.25523 0.0
C506 C 0.17708 0.28228 0.2148 0.0
C507 C 0.17898 0.28337 0.12415 0.0
C508 C 0.1597 0.28454 0.07509 0.0
C509 C 0.13911 0.28769 0.11397 0.0
C510 C 0.12084 0.28184 0.04835 0.0
C511 C 0.10603 0.24227 0.07071 0.0
C512 C 0.10723 0.32423 0.03991 0.0
C513 C 0.13429 0.27316 0.96756 0.0
C514 C 0.15666 0.27548 0.98331 0.0
C515 C 0.17213 0.26686 0.91801 0.0
C516 C 0.16442 0.25709 0.83398 0.0
C517 C 0.14151 0.25531 0.81671 0.0
C518 C 0.12643 0.26283 0.88528 0.0
H519 H 0.8405 0.30438 0.22624 0.0
H520 H 0.85507 0.17081 0.30634 0.0
H521 H 0.85284 0.14675 0.15342 0.0
H522 H 0.80392 0.27703 0.03658 0.0
H523 H 0.81532 0.32152 0.97395 0.0
H524 H 0.81311 0.32643 0.09014 0.0
H525 H 0.85497 0.34334 0.09982 0.0
H526 H 0.85729 0.33861 0.98422 0.0
H527 H 0.87443 0.3052 0.05309 0.0
H528 H 0.85514 0.13981 -0.00613 0.0
H529 H 0.8644 0.15071 0.83993 0.0
H530 H 0.84881 0.28913 0.86212 0.0
C531 C 0.84258 0.26974 0.21228 0.0
C532 C 0.84782 0.23935 0.27842 0.0
C533 C 0.85094 0.1946 0.2569 0.0
C534 C 0.84952 0.18065 0.17029 0.0
C535 C 0.84486 0.21182 0.10651 0.0
C536 C 0.84141 0.25548 0.12657 0.0
C537 C 0.83989 0.28362 0.04584 0.0
C538 C 0.81667 0.3033 0.03607 0.0
C539 C 0.85771 0.31978 0.04578 0.0
C540 C 0.84428 0.24936 0.9769 0.0
C541 C 0.84646 0.20796 0.01331 0.0
C542 C 0.85297 0.17177 0.96448 0.0
C543 C 0.85824 0.17831 0.87732 0.0
C544 C 0.85706 0.22067 0.83998 0.0
C545 C 0.84921 0.25634 0.88917 0.0
H546 H 0.158 0.77212 0.12645 0.0
H547 H 0.14743 0.63147 0.14084 0.0
H548 H 0.15368 0.62486 0.98382 0.0
H549 H 0.12959 0.78963 0.94208 0.0
H550 H 0.14762 0.83 0.8943 0.0
H551 H 0.14702 0.82319 0.0099 0.0
H552 H 0.18916 0.80892 0.01196 0.0
H553 H 0.19002 0.81666 0.89617 0.0
H554 H 0.2007 0.76684 0.94314 0.0
H555 H 0.15286 0.63544 0.82208 0.0
H556 H 0.15041 0.66201 0.67069 0.0
H557 H 0.16341 0.79461 0.7608 0.0
C558 C 0.15808 0.73977 0.0971 0.0
C559 C 0.15226 0.70236 0.146 0.0
C560 C 0.15189 0.66064 0.1047 0.0
C561 C 0.15538 0.65649 0.01531 0.0
C562 C 0.15965 0.69427 0.96766 0.0
C563 C 0.16164 0.73499 0.00735 0.0
C564 C 0.16455 0.77079 0.94018 0.0
C565 C 0.14609 0.80541 0.94706 0.0
C566 C 0.18747 0.79205 0.94834 0.0
C567 C 0.16264 0.74414 0.85717 0.0
C568 C 0.15997 0.70001 0.87413 0.0
C569 C 0.15561 0.66979 0.80778 0.0
C570 C 0.15411 0.68511 0.72186 0.0
C571 C 0.15707 0.73016 0.70301 0.0
C572 C 0.16159 0.7597 0.77213 0.0
H573 H 0.84398 0.72105 0.80403 0.0
H574 H 0.86246 0.85125 0.71552 0.0
H575 H 0.86122 0.87765 0.86817 0.0
H576 H 0.80765 0.75366 0.98387 0.0
H577 H 0.81717 0.70956 0.05201 0.0
H578 H 0.8167 0.70266 0.93595 0.0
H579 H 0.85831 0.68292 0.93653 0.0
H580 H 0.85883 0.68922 0.05236 0.0
H581 H 0.87769 0.72027 0.98596 0.0
H582 H 0.85982 0.88796 0.0324 0.0
H583 H 0.86367 0.88015 0.19038 0.0
H584 H 0.84788 0.74154 0.17047 0.0
C585 C 0.84735 0.75549 0.81582 0.0
C586 C 0.85299 0.78431 0.74691 0.0
C587 C 0.8579 0.82866 0.76661 0.0
C588 C 0.8571 0.84389 0.85318 0.0
C589 C 0.85149 0.8143 0.91922 0.0
C590 C 0.8469 0.77088 0.90122 0.0
C591 C 0.84356 0.74437 0.98357 0.0
C592 C 0.81986 0.72651 0.98914 0.0
C593 C 0.86062 0.70702 0.98996 0.0
C594 C 0.84752 0.77934 0.05175 0.0
C595 C 0.85154 0.81968 0.01324 0.0
C596 C 0.8566 0.85657 0.06273 0.0
C597 C 0.85867 0.85174 0.15282 0.0
C598 C 0.85607 0.81016 0.19331 0.0
C599 C 0.84957 0.77387 0.14207 0.0
H600 H 0.6591 0.72894 0.35236 0.0
H601 H 0.65017 0.86997 0.3378 0.0
H602 H 0.65739 0.8766 0.49417 0.0
H603 H 0.63115 0.71333 0.53753 0.0
H604 H 0.64866 0.67204 0.58505 0.0
H605 H 0.64799 0.67864 0.46943 0.0
H606 H 0.69031 0.69056 0.46577 0.0
H607 H 0.69123 0.68297 0.5816 0.0
H608 H 0.70255 0.73208 0.53391 0.0
H609 H 0.65699 0.86643 0.65547 0.0
H610 H 0.65418 0.84033 0.80704 0.0
H611 H 0.66484 0.70673 0.71785 0.0
C612 C 0.65983 0.76132 0.38146 0.0
C613 C 0.65421 0.79893 0.33294 0.0
C614 C 0.65456 0.84072 0.3738 0.0
C615 C 0.6586 0.84486 0.46277 0.0
C616 C 0.66261 0.80695 0.51032 0.0
C617 C 0.66388 0.76604 0.47084 0.0
C618 C 0.66637 0.73019 0.53814 0.0
C619 C 0.64741 0.69661 0.53214 0.0
C620 C 0.68896 0.70762 0.52934 0.0
C621 C 0.66497 0.75707 0.62102 0.0
C622 C 0.66301 0.80133 0.60382 0.0
C623 C 0.65918 0.83194 0.66997 0.0
C624 C 0.65743 0.81688 0.75595 0.0
C625 C 0.65957 0.77168 0.77504 0.0
C626 C 0.66362 0.74172 0.70619 0.0
H627 H 0.385 0.71339 0.74271 0.0
H628 H 0.31429 0.73164 0.75721 0.0
H629 H 0.31171 0.72597 0.59791 0.0
H630 H 0.39297 0.78231 0.57984 0.0
H631 H 0.41449 0.75299 0.52339 0.0
H632 H 0.41067 0.74488 0.63769 0.0
H633 H 0.4059 0.66109 0.61536 0.0
H634 H 0.41057 0.66852 0.50092 0.0
H635 H 0.38596 0.6411 0.53813 0.0
H636 H 0.31775 0.73434 0.43828 0.0
H637 H 0.33167 0.7469 0.28997 0.0
H638 H 0.39864 0.72703 0.3804 0.0
C639 C 0.36888 0.71317 0.7124 0.0
C640 C 0.34976 0.72158 0.7616 0.0
C641 C 0.329 0.72391 0.72012 0.0
C642 C 0.32742 0.72111 0.62974 0.0
C643 C 0.3468 0.71614 0.58211 0.0
C644 C 0.36713 0.71125 0.62201 0.0
C645 C 0.38571 0.71261 0.55641 0.0
C646 C 0.40189 0.75045 0.57552 0.0
C647 C 0.39774 0.66818 0.55246 0.0
C648 C 0.37276 0.721 0.47437 0.0
C649 C 0.35035 0.72236 0.49013 0.0
C650 C 0.33526 0.73239 0.42487 0.0
C651 C 0.3433 0.74 0.34084 0.0
C652 C 0.36618 0.73798 0.32302 0.0
C653 C 0.381 0.7287 0.39133 0.0
H654 H 0.61543 0.21783 0.20817 0.0
H655 H 0.68567 0.24249 0.19446 0.0
H656 H 0.68837 0.23629 0.35357 0.0
H657 H 0.60588 0.28513 0.37302 0.0
H658 H 0.58506 0.25358 0.42852 0.0
H659 H 0.58907 0.24641 0.31402 0.0
H660 H 0.59577 0.16303 0.33407 0.0
H661 H 0.59095 0.16947 0.44871 0.0
H662 H 0.61616 0.14451 0.41071 0.0
H663 H 0.68215 0.24345 0.51319 0.0
H664 H 0.66792 0.2547 0.66152 0.0
H665 H 0.6015 0.22887 0.57058 0.0
C666 C 0.63153 0.21899 0.23855 0.0
C667 C 0.65045 0.22938 0.1897 0.0
C668 C 0.67114 0.23337 0.23129 0.0
C669 C 0.67278 0.23022 0.32156 0.0
C670 C 0.65354 0.22319 0.36895 0.0
C671 C 0.63334 0.21672 0.32886 0.0
C672 C 0.61475 0.21605 0.39446 0.0
C673 C 0.59771 0.25246 0.37637 0.0
C674 C 0.60376 0.17055 0.39716 0.0
C675 C 0.62751 0.22521 0.47672 0.0
C676 C 0.64986 0.22861 0.46107 0.0
C677 C 0.6647 0.23985 0.52654 0.0
C678 C 0.65648 0.24666 0.61061 0.0
C679 C 0.63367 0.24264 0.62829 0.0
C680 C 0.61909 0.23205 0.55981 0.0
H681 H 0.33041 0.20393 0.26802 0.0
H682 H 0.34477 0.33635 0.18075 0.0
H683 H 0.34216 0.3624 0.33309 0.0
H684 H 0.29308 0.23222 0.45161 0.0
H685 H 0.30424 0.18911 0.51829 0.0
H686 H 0.30323 0.18242 0.40219 0.0
H687 H 0.34533 0.16722 0.39874 0.0
H688 H 0.34639 0.17337 0.51446 0.0
H689 H 0.36394 0.2066 0.44663 0.0
H690 H 0.34083 0.37222 0.49609 0.0
H691 H 0.34685 0.36454 0.65284 0.0
H692 H 0.33589 0.22409 0.63371 0.0
C693 C 0.33245 0.23877 0.27994 0.0
C694 C 0.33746 0.26831 0.21142 0.0
C695 C 0.34069 0.31321 0.23138 0.0
C696 C 0.33909 0.32822 0.31782 0.0
C697 C 0.33433 0.2979 0.38351 0.0
C698 C 0.33124 0.25398 0.36535 0.0
C699 C 0.32918 0.22689 0.44769 0.0
C700 C 0.30606 0.20645 0.45535 0.0
C701 C 0.34729 0.19146 0.45211 0.0
C702 C 0.33253 0.26211 0.51587 0.0
C703 C 0.33471 0.30303 0.47742 0.0
C704 C 0.33902 0.3404 0.52645 0.0
C705 C 0.34236 0.33562 0.61579 0.0
C706 C 0.34188 0.29362 0.65584 0.0
C707 C 0.33595 0.25664 0.60557 0.0
H708 H 0.04477 0.30618 0.56724 0.0
H709 H 0.0609 0.18195 0.44374 0.0
H710 H 0.02102 0.16876 0.41834 0.0
H711 H 0.99812 0.26927 0.67965 0.0
H712 H 0.98282 0.31969 0.66757 0.0
H713 H 0.0125 0.3208 0.66809 0.0
H714 H 0.01229 0.36032 0.51955 0.0
H715 H 0.98255 0.35894 0.51817 0.0
H716 H 0.998 0.33567 0.42935 0.0
H717 H 0.97963 0.16841 0.41187 0.0
H718 H 0.93982 0.17535 0.43881 0.0
H719 H 0.95048 0.29952 0.57106 0.0
C720 C 0.04004 0.27634 0.53372 0.0
C721 C 0.05604 0.24509 0.5068 0.0
C722 C 0.04901 0.20622 0.46489 0.0
C723 C 0.02641 0.19875 0.44963 0.0
C724 C 0.01116 0.23048 0.47681 0.0
C725 C 0.0177 0.26833 0.51865 0.0
C726 C 0.99805 0.29573 0.5475 0.0
C727 C 0.99786 0.30169 0.64657 0.0
C728 C 0.99771 0.34031 0.50085 0.0
C729 C 0.97923 0.2668 0.51744 0.0
C730 C 0.98724 0.22982 0.4752 0.0
C731 C 0.97323 0.19726 0.44446 0.0
C732 C 0.95061 0.20162 0.4602 0.0
C733 C 0.94205 0.238 0.50728 0.0
C734 C 0.9565 0.27177 0.53384 0.0
H735 H 0.95573 0.72605 0.27776 0.0
H736 H 0.94389 0.72345 0.5548 0.0
H737 H 0.98336 0.73989 0.58083 0.0
H738 H 0.01225 0.67979 0.28239 0.0
H739 H 0.02073 0.71474 0.19427 0.0
H740 H 0.99251 0.69667 0.20174 0.0
H741 H 0.98017 0.77825 0.19584 0.0
H742 H 0.0084 0.79663 0.19341 0.0
H743 H 0.99002 0.81618 0.27694 0.0
H744 H 0.02388 0.76502 0.57434 0.0
H745 H 0.06309 0.77828 0.53636 0.0
H746 H 0.04673 0.76816 0.26397 0.0
C747 C 0.96159 0.72715 0.34402 0.0
C748 C 0.94675 0.72327 0.4142 0.0
C749 C 0.95502 0.72556 0.49997 0.0
C750 C 0.97734 0.73576 0.51532 0.0
C751 C 0.9911 0.7432 0.4442 0.0
C752 C 0.98362 0.73765 0.3603 0.0
C753 C 0.00134 0.74831 0.29464 0.0
C754 C 0.00706 0.70745 0.24009 0.0
C755 C 0.99456 0.78715 0.23684 0.0
C756 C 0.02003 0.76095 0.3544 0.0
C757 C 0.01387 0.75829 0.44051 0.0
C758 C 0.02884 0.76713 0.50709 0.0
C759 C 0.051 0.77559 0.48498 0.0
C760 C 0.05784 0.77469 0.39723 0.0
C761 C 0.04186 0.76981 0.3315 0.0
H762 H 0.54489 0.75343 0.19224 0.0
H763 H 0.56746 0.70533 0.94268 0.0
H764 H 0.52894 0.70747 0.88855 0.0
H765 H 0.49061 0.69837 0.19393 0.0
H766 H 0.47792 0.74487 0.24664 0.0
H767 H 0.50654 0.73256 0.26603 0.0
H768 H 0.51642 0.81202 0.21962 0.0
H769 H 0.48796 0.82384 0.19579 0.0
H770 H 0.50872 0.83093 0.11323 0.0
H771 H 0.48788 0.72116 0.85975 0.0
H772 H 0.44743 0.73275 0.86676 0.0
H773 H 0.45334 0.77786 0.13166 0.0
C774 C 0.54168 0.74188 0.127 0.0
C775 C 0.55916 0.72909 0.07166 0.0
C776 C 0.55429 0.7146 0.98658 0.0
C777 C 0.53251 0.71645 0.95496 0.0
C778 C 0.51595 0.73276 0.00944 0.0
C779 C 0.52028 0.7442 0.09436 0.0
C780 C 0.50001 0.76224 0.13939 0.0
C781 C 0.49337 0.73274 0.21598 0.0
C782 C 0.5035 0.81009 0.1687 0.0
C783 C 0.48345 0.75958 0.06649 0.0
C784 C 0.49291 0.74256 -0.00812 0.0
C785 C 0.48042 0.73491 0.91753 0.0
C786 C 0.45755 0.74238 0.92143 0.0
C787 C 0.44754 0.75794 -0.00147 0.0
C788 C 0.46079 0.76806 0.07071 0.0
H789 H 0.452 0.24999 0.77781 0.0
H790 H 0.43293 0.20781 0.03552 0.0
H791 H 0.47186 0.21479 0.08319 0.0
H792 H 0.50672 0.1979 0.7731 0.0
H793 H 0.51834 0.24311 0.71311 0.0
H794 H 0.48966 0.22924 0.70026 0.0
H795 H 0.47948 0.30963 0.73969 0.0
H796 H 0.50808 0.32314 0.75677 0.0
H797 H 0.48826 0.33211 0.84219 0.0
H798 H 0.513 0.23188 0.10371 0.0
H799 H 0.55323 0.24434 0.08821 0.0
H800 H 0.54398 0.27971 0.81949 0.0
C801 C 0.45606 0.2409 0.84373 0.0
C802 C 0.4394 0.22823 0.90293 0.0
C803 C 0.44543 0.21698 0.98869 0.0
C804 C 0.46745 0.22157 0.01662 0.0
C805 C 0.48314 0.23732 0.95787 0.0
C806 C 0.47774 0.24577 0.87262 0.0
C807 C 0.49733 0.26304 0.82212 0.0
C808 C 0.50338 0.23143 0.7478 0.0
C809 C 0.49301 0.30975 0.78822 0.0
C810 C 0.51474 0.26325 0.89216 0.0
C811 C 0.50628 0.24855 0.97026 0.0
C812 C 0.51967 0.24384 0.04311 0.0
C813 C 0.54243 0.25182 0.03431 0.0
C814 C 0.55147 0.26479 0.95371 0.0
C815 C 0.53731 0.27197 0.88283 0.0
loop_
_geom_bond_atom_site_label_1
_geom_bond_atom_site_label_2
_geom_bond_distance
_geom_bond_site_symmetry_2
_ccdc_geom_bond_type
Zn0 O6 1.920 . S
Zn0 O12 1.898 . S
Zn0 O15 1.905 . S
Zn1 O9 1.905 . S
Zn1 O10 1.898 . S
Zn1 O18 1.920 . S
Zn2 O5 2.080 . S
Zn2 O8 2.114 . S
Zn2 O11 2.120 . S
Zn2 O13 2.120 . S
Zn2 O14 2.114 . S
Zn2 O17 2.080 . S
C3 O8 1.166 . S
C3 O9 1.182 . S
C4 O10 1.167 . S
C4 O11 1.299 . S
O5 Zn2 2.080 . S
O5 C19 1.305 . S
O6 Zn0 1.920 . S
O6 C19 1.234 . S
C7 O12 1.167 . S
C7 O13 1.299 . S
O8 Zn2 2.114 . S
O8 C3 1.166 . S
O9 Zn1 1.905 . S
O9 C3 1.182 . S
O10 Zn1 1.898 . S
O10 C4 1.167 . S
O11 Zn2 2.120 . S
O11 C4 1.299 . S
O12 Zn0 1.898 . S
O12 C7 1.167 . S
O13 Zn2 2.120 . S
O13 C7 1.299 . S
O14 Zn2 2.114 . S
O14 C16 1.166 . S
O15 Zn0 1.905 . S
O15 C16 1.182 . S
C16 O14 1.166 . S
C16 O15 1.182 . S
O17 Zn2 2.080 . S
O17 C20 1.305 . S
O18 Zn1 1.920 . S
O18 C20 1.234 . S
C19 O5 1.305 . S
C19 O6 1.234 . S
C20 O17 1.305 . S
C20 O18 1.234 . S
Zn21 O27 1.920 . S
Zn21 O33 1.898 . S
Zn21 O36 1.905 . S
Zn22 O30 1.905 . S
Zn22 O31 1.898 . S
Zn22 O39 1.920 . S
Zn23 O26 2.080 . S
Zn23 O29 2.114 . S
Zn23 O32 2.120 . S
Zn23 O34 2.120 . S
Zn23 O35 2.114 . S
Zn23 O38 2.080 . S
C24 O29 1.166 . S
C24 O30 1.182 . S
C25 O31 1.167 . S
C25 O32 1.299 . S
O26 Zn23 2.080 . S
O26 C40 1.305 . S
O27 Zn21 1.920 . S
O27 C40 1.234 . S
C28 O33 1.167 . S
C28 O34 1.299 . S
O29 Zn23 2.114 . S
O29 C24 1.166 . S
O30 Zn22 1.905 . S
O30 C24 1.182 . S
O31 Zn22 1.898 . S
O31 C25 1.167 . S
O32 Zn23 2.120 . S
O32 C25 1.299 . S
O33 Zn21 1.898 . S
O33 C28 1.167 . S
O34 Zn23 2.120 . S
O34 C28 1.299 . S
O35 Zn23 2.114 . S
O35 C37 1.166 . S
O36 Zn21 1.905 . S
O36 C37 1.182 . S
C37 O35 1.166 . S
C37 O36 1.182 . S
O38 Zn23 2.080 . S
O38 C41 1.305 . S
O39 Zn22 1.920 . S
O39 C41 1.234 . S
C40 O26 1.305 . S
C40 O27 1.234 . S
C41 O38 1.305 . S
C41 O39 1.234 . S
Zn42 O48 1.920 . S
Zn42 O54 1.898 . S
Zn42 O57 1.905 . S
Zn43 O51 1.905 . S
Zn43 O52 1.898 . S
Zn43 O60 1.920 . S
Zn44 O47 2.080 . S
Zn44 O50 2.114 . S
Zn44 O53 2.120 . S
Zn44 O55 2.120 . S
Zn44 O56 2.114 . S
Zn44 O59 2.080 . S
C45 O50 1.166 . S
C45 O51 1.182 . S
C46 O52 1.167 . S
C46 O53 1.299 . S
O47 Zn44 2.080 . S
O47 C61 1.305 . S
O48 Zn42 1.920 . S
O48 C61 1.234 . S
C49 O54 1.167 . S
C49 O55 1.299 . S
O50 Zn44 2.114 . S
O50 C45 1.166 . S
O51 Zn43 1.905 . S
O51 C45 1.182 . S
O52 Zn43 1.898 . S
O52 C46 1.167 . S
O53 Zn44 2.120 . S
O53 C46 1.299 . S
O54 Zn42 1.898 . S
O54 C49 1.167 . S
O55 Zn44 2.120 . S
O55 C49 1.299 . S
O56 Zn44 2.114 . S
O56 C58 1.166 . S
O57 Zn42 1.905 . S
O57 C58 1.182 . S
C58 O56 1.166 . S
C58 O57 1.182 . S
O59 Zn44 2.080 . S
O59 C62 1.305 . S
O60 Zn43 1.920 . S
O60 C62 1.234 . S
C61 O47 1.305 . S
C61 O48 1.234 . S
C62 O59 1.305 . S
C62 O60 1.234 . S
Zn63 O69 1.920 . S
Zn63 O75 1.898 . S
Zn63 O78 1.905 . S
Zn64 O72 1.905 . S
Zn64 O73 1.898 . S
Zn64 O81 1.920 . S
Zn65 O68 2.080 . S
Zn65 O71 2.114 . S
Zn65 O74 2.120 . S
Zn65 O76 2.120 . S
Zn65 O77 2.114 . S
Zn65 O80 2.080 . S
C66 O71 1.166 . S
C66 O72 1.182 . S
C67 O73 1.167 . S
C67 O74 1.299 . S
O68 Zn65 2.080 . S
O68 C82 1.305 . S
O69 Zn63 1.920 . S
O69 C82 1.234 . S
C70 O75 1.167 . S
C70 O76 1.299 . S
O71 Zn65 2.114 . S
O71 C66 1.166 . S
O72 Zn64 1.905 . S
O72 C66 1.182 . S
O73 Zn64 1.898 . S
O73 C67 1.167 . S
O74 Zn65 2.120 . S
O74 C67 1.299 . S
O75 Zn63 1.898 . S
O75 C70 1.167 . S
O76 Zn65 2.120 . S
O76 C70 1.299 . S
O77 Zn65 2.114 . S
O77 C79 1.166 . S
O78 Zn63 1.905 . S
O78 C79 1.182 . S
C79 O77 1.166 . S
C79 O78 1.182 . S
O80 Zn65 2.080 . S
O80 C83 1.305 . S
O81 Zn64 1.920 . S
O81 C83 1.234 . S
C82 O68 1.305 . S
C82 O69 1.234 . S
C83 O80 1.305 . S
C83 O81 1.234 . S
Zn84 O90 1.920 . S
Zn84 O96 1.898 . S
Zn84 O99 1.905 . S
Zn85 O93 1.905 . S
Zn85 O94 1.898 1_556 S
Zn85 O102 1.920 1_556 S
Zn86 O89 2.080 . S
Zn86 O92 2.114 1_554 S
Zn86 O95 2.120 . S
Zn86 O97 2.120 . S
Zn86 O98 2.114 . S
Zn86 O101 2.080 . S
C87 O92 1.166 . S
C87 O93 1.182 . S
C88 O94 1.167 . S
C88 O95 1.299 . S
O89 Zn86 2.080 . S
O89 C103 1.305 . S
O90 Zn84 1.920 . S
O90 C103 1.234 . S
C91 O96 1.167 . S
C91 O97 1.299 . S
O92 Zn86 2.114 1_556 S
O92 C87 1.166 . S
O93 Zn85 1.905 . S
O93 C87 1.182 . S
O94 Zn85 1.898 1_554 S
O94 C88 1.167 . S
O95 Zn86 2.120 . S
O95 C88 1.299 . S
O96 Zn84 1.898 . S
O96 C91 1.167 . S
O97 Zn86 2.120 . S
O97 C91 1.299 . S
O98 Zn86 2.114 . S
O98 C100 1.166 . S
O99 Zn84 1.905 . S
O99 C100 1.182 . S
C100 O98 1.166 . S
C100 O99 1.182 . S
O101 Zn86 2.080 . S
O101 C104 1.305 . S
O102 Zn85 1.920 1_554 S
O102 C104 1.234 . S
C103 O89 1.305 . S
C103 O90 1.234 . S
C104 O101 1.305 . S
C104 O102 1.234 . S
Zn105 O111 1.920 1_556 S
Zn105 O117 1.898 1_556 S
Zn105 O120 1.905 . S
Zn106 O114 1.905 . S
Zn106 O115 1.898 . S
Zn106 O123 1.920 . S
Zn107 O110 2.080 . S
Zn107 O113 2.114 . S
Zn107 O116 2.120 . S
Zn107 O118 2.120 . S
Zn107 O119 2.114 1_554 S
Zn107 O122 2.080 . S
C108 O113 1.166 . S
C108 O114 1.182 . S
C109 O115 1.167 . S
C109 O116 1.299 . S
O110 Zn107 2.080 . S
O110 C124 1.305 . S
O111 Zn105 1.920 1_554 S
O111 C124 1.234 . S
C112 O117 1.167 . S
C112 O118 1.299 . S
O113 Zn107 2.114 . S
O113 C108 1.166 . S
O114 Zn106 1.905 . S
O114 C108 1.182 . S
O115 Zn106 1.898 . S
O115 C109 1.167 . S
O116 Zn107 2.120 . S
O116 C109 1.299 . S
O117 Zn105 1.898 1_554 S
O117 C112 1.167 . S
O118 Zn107 2.120 . S
O118 C112 1.299 . S
O119 Zn107 2.114 1_556 S
O119 C121 1.166 . S
O120 Zn105 1.905 . S
O120 C121 1.182 . S
C121 O119 1.166 . S
C121 O120 1.182 . S
O122 Zn107 2.080 . S
O122 C125 1.305 . S
O123 Zn106 1.920 . S
O123 C125 1.234 . S
C124 O110 1.305 . S
C124 O111 1.234 . S
C125 O122 1.305 . S
C125 O123 1.234 . S
Zn126 O132 1.920 . S
Zn126 O138 1.898 . S
Zn126 O141 1.905 . S
Zn127 O135 1.905 . S
Zn127 O136 1.898 1_554 S
Zn127 O144 1.920 1_554 S
Zn128 O131 2.080 . S
Zn128 O134 2.114 1_556 S
Zn128 O137 2.120 . S
Zn128 O139 2.120 . S
Zn128 O140 2.114 . S
Zn128 O143 2.080 . S
C129 O134 1.166 . S
C129 O135 1.182 . S
C130 O136 1.167 . S
C130 O137 1.299 . S
O131 Zn128 2.080 . S
O131 C145 1.305 . S
O132 Zn126 1.920 . S
O132 C145 1.234 . S
C133 O138 1.167 . S
C133 O139 1.299 . S
O134 Zn128 2.114 1_554 S
O134 C129 1.166 . S
O135 Zn127 1.905 . S
O135 C129 1.182 . S
O136 Zn127 1.898 1_556 S
O136 C130 1.167 . S
O137 Zn128 2.120 . S
O137 C130 1.299 . S
O138 Zn126 1.898 . S
O138 C133 1.167 . S
O139 Zn128 2.120 . S
O139 C133 1.299 . S
O140 Zn128 2.114 . S
O140 C142 1.166 . S
O141 Zn126 1.905 . S
O141 C142 1.182 . S
C142 O140 1.166 . S
C142 O141 1.182 . S
O143 Zn128 2.080 . S
O143 C146 1.305 . S
O144 Zn127 1.920 1_556 S
O144 C146 1.234 . S
C145 O131 1.305 . S
C145 O132 1.234 . S
C146 O143 1.305 . S
C146 O144 1.234 . S
Zn147 O153 1.920 . S
Zn147 O159 1.898 . S
Zn147 O162 1.905 . S
Zn148 O156 1.905 . S
Zn148 O157 1.898 1_554 S
Zn148 O165 1.920 1_554 S
Zn149 O152 2.080 . S
Zn149 O155 2.114 1_556 S
Zn149 O158 2.120 . S
Zn149 O160 2.120 . S
Zn149 O161 2.114 . S
Zn149 O164 2.080 . S
C150 O155 1.166 . S
C150 O156 1.182 . S
C151 O157 1.167 . S
C151 O158 1.299 . S
O152 Zn149 2.080 . S
O152 C166 1.305 . S
O153 Zn147 1.920 . S
O153 C166 1.234 . S
C154 O159 1.167 . S
C154 O160 1.299 . S
O155 Zn149 2.114 1_554 S
O155 C150 1.166 . S
O156 Zn148 1.905 . S
O156 C150 1.182 . S
O157 Zn148 1.898 1_556 S
O157 C151 1.167 . S
O158 Zn149 2.120 . S
O158 C151 1.299 . S
O159 Zn147 1.898 . S
O159 C154 1.167 . S
O160 Zn149 2.120 . S
O160 C154 1.299 . S
O161 Zn149 2.114 . S
O161 C163 1.166 . S
O162 Zn147 1.905 . S
O162 C163 1.182 . S
C163 O161 1.166 . S
C163 O162 1.182 . S
O164 Zn149 2.080 . S
O164 C167 1.305 . S
O165 Zn148 1.920 1_556 S
O165 C167 1.234 . S
C166 O152 1.305 . S
C166 O153 1.234 . S
C167 O164 1.305 . S
C167 O165 1.234 . S
H168 C180 0.930 . S
H169 C182 0.930 . S
H170 C183 0.930 . S
H171 C187 0.959 . S
H172 C187 0.959 . S
H173 C187 0.961 . S
H174 C188 0.960 . S
H175 C188 0.961 . S
H176 C188 0.959 . S
H177 C191 0.929 . S
H178 C192 0.931 . S
H179 C194 0.930 . S
C180 H168 0.930 . S
C180 C181 1.399 . S
C180 C185 1.399 . S
C181 C180 1.399 . S
C181 C182 1.376 . S
C182 H169 0.930 . S
C182 C181 1.376 . S
C182 C183 1.388 . S
C183 H170 0.930 . S
C183 C182 1.388 . S
C183 C184 1.390 . S
C184 C183 1.390 . S
C184 C185 1.394 . S
C184 C190 1.465 . S
C185 C180 1.399 . S
C185 C184 1.394 . S
C185 C186 1.516 . S
C186 C185 1.516 . S
C186 C187 1.502 . S
C186 C188 1.561 . S
C186 C189 1.526 . S
C187 H171 0.959 . S
C187 H172 0.959 . S
C187 H173 0.961 . S
C187 C186 1.502 . S
C188 H174 0.960 . S
C188 H175 0.961 . S
C188 H176 0.959 . S
C188 C186 1.561 . S
C189 C186 1.526 . S
C189 C190 1.396 . S
C189 C194 1.390 . S
C190 C184 1.465 . S
C190 C189 1.396 . S
C190 C191 1.399 . S
C191 H177 0.929 . S
C191 C190 1.399 . S
C191 C192 1.385 . S
C192 H178 0.931 . S
C192 C191 1.385 . S
C192 C193 1.389 . S
C193 C192 1.389 . S
C193 C194 1.387 . S
C194 H179 0.930 . S
C194 C189 1.390 . S
C194 C193 1.387 . S
H195 C207 0.930 . S
H196 C209 0.930 . S
H197 C210 0.930 . S
H198 C214 0.959 . S
H199 C214 0.959 . S
H200 C214 0.961 . S
H201 C215 0.960 . S
H202 C215 0.961 . S
H203 C215 0.959 . S
H204 C218 0.929 . S
H205 C219 0.931 . S
H206 C221 0.930 . S
C207 H195 0.930 . S
C207 C208 1.399 . S
C207 C212 1.399 . S
C208 C207 1.399 . S
C208 C209 1.376 . S
C209 H196 0.930 . S
C209 C208 1.376 . S
C209 C210 1.388 . S
C210 H197 0.930 . S
C210 C209 1.388 . S
C210 C211 1.390 . S
C211 C210 1.390 . S
C211 C212 1.394 . S
C211 C217 1.465 . S
C212 C207 1.399 . S
C212 C211 1.394 . S
C212 C213 1.516 . S
C213 C212 1.516 . S
C213 C214 1.502 . S
C213 C215 1.561 . S
C213 C216 1.526 . S
C214 H198 0.959 . S
C214 H199 0.959 . S
C214 H200 0.961 . S
C214 C213 1.502 . S
C215 H201 0.960 . S
C215 H202 0.961 . S
C215 H203 0.959 . S
C215 C213 1.561 . S
C216 C213 1.526 . S
C216 C217 1.396 . S
C216 C221 1.390 . S
C217 C211 1.465 . S
C217 C216 1.396 . S
C217 C218 1.399 . S
C218 H204 0.929 . S
C218 C217 1.399 . S
C218 C219 1.385 . S
C219 H205 0.931 . S
C219 C218 1.385 . S
C219 C220 1.389 . S
C220 C219 1.389 . S
C220 C221 1.387 . S
C221 H206 0.930 . S
C221 C216 1.390 . S
C221 C220 1.387 . S
H222 C234 0.930 . S
H223 C236 0.930 . S
H224 C237 0.930 . S
H225 C241 0.959 . S
H226 C241 0.959 . S
H227 C241 0.961 . S
H228 C242 0.960 . S
H229 C242 0.961 . S
H230 C242 0.959 . S
H231 C245 0.929 . S
H232 C246 0.931 . S
H233 C248 0.930 . S
C234 H222 0.930 . S
C234 C235 1.399 . S
C234 C239 1.399 . S
C235 C234 1.399 . S
C235 C236 1.376 . S
C236 H223 0.930 . S
C236 C235 1.376 . S
C236 C237 1.388 . S
C237 H224 0.930 . S
C237 C236 1.388 . S
C237 C238 1.390 . S
C238 C237 1.390 . S
C238 C239 1.394 . S
C238 C244 1.465 . S
C239 C234 1.399 . S
C239 C238 1.394 . S
C239 C240 1.516 . S
C240 C239 1.516 . S
C240 C241 1.502 . S
C240 C242 1.561 . S
C240 C243 1.526 . S
C241 H225 0.959 . S
C241 H226 0.959 . S
C241 H227 0.961 . S
C241 C240 1.502 . S
C242 H228 0.960 . S
C242 H229 0.961 . S
C242 H230 0.959 . S
C242 C240 1.561 . S
C243 C240 1.526 . S
C243 C244 1.396 . S
C243 C248 1.390 . S
C244 C238 1.465 . S
C244 C243 1.396 . S
C244 C245 1.399 . S
C245 H231 0.929 . S
C245 C244 1.399 . S
C245 C246 1.385 . S
C246 H232 0.931 . S
C246 C245 1.385 . S
C246 C247 1.389 . S
C247 C246 1.389 . S
C247 C248 1.387 . S
C248 H233 0.930 . S
C248 C243 1.390 . S
C248 C247 1.387 . S
H249 C261 0.930 . S
H250 C263 0.930 . S
H251 C264 0.930 . S
H252 C268 0.959 . S
H253 C268 0.959 . S
H254 C268 0.961 . S
H255 C269 0.960 . S
H256 C269 0.961 . S
H257 C269 0.959 . S
H258 C272 0.929 . S
H259 C273 0.931 . S
H260 C275 0.930 . S
C261 H249 0.930 . S
C261 C262 1.399 . S
C261 C266 1.399 . S
C262 C261 1.399 . S
C262 C263 1.376 . S
C263 H250 0.930 . S
C263 C262 1.376 . S
C263 C264 1.388 . S
C264 H251 0.930 . S
C264 C263 1.388 . S
C264 C265 1.390 . S
C265 C264 1.390 . S
C265 C266 1.394 . S
C265 C271 1.465 . S
C266 C261 1.399 . S
C266 C265 1.394 . S
C266 C267 1.516 . S
C267 C266 1.516 . S
C267 C268 1.502 . S
C267 C269 1.561 . S
C267 C270 1.526 . S
C268 H252 0.959 . S
C268 H253 0.959 . S
C268 H254 0.961 . S
C268 C267 1.502 . S
C269 H255 0.960 . S
C269 H256 0.961 . S
C269 H257 0.959 . S
C269 C267 1.561 . S
C270 C267 1.526 . S
C270 C271 1.396 . S
C270 C275 1.390 . S
C271 C265 1.465 . S
C271 C270 1.396 . S
C271 C272 1.399 . S
C272 H258 0.929 . S
C272 C271 1.399 . S
C272 C273 1.385 . S
C273 H259 0.931 . S
C273 C272 1.385 . S
C273 C274 1.389 . S
C274 C273 1.389 . S
C274 C275 1.387 . S
C275 H260 0.930 . S
C275 C270 1.390 . S
C275 C274 1.387 . S
H276 C288 0.930 . S
H277 C290 0.930 . S
H278 C291 0.930 . S
H279 C295 0.959 . S
H280 C295 0.959 1_545 S
H281 C295 0.961 . S
H282 C296 0.960 . S
H283 C296 0.961 . S
H284 C296 0.959 . S
H285 C299 0.929 . S
H286 C300 0.931 . S
H287 C302 0.930 . S
C288 H276 0.930 . S
C288 C289 1.399 . S
C288 C293 1.399 . S
C289 C288 1.399 . S
C289 C290 1.376 . S
C290 H277 0.930 . S
C290 C289 1.376 . S
C290 C291 1.388 . S
C291 H278 0.930 . S
C291 C290 1.388 . S
C291 C292 1.390 . S
C292 C291 1.390 . S
C292 C293 1.394 . S
C292 C298 1.465 1_565 S
C293 C288 1.399 . S
C293 C292 1.394 . S
C293 C294 1.516 . S
C294 C293 1.516 . S
C294 C295 1.502 . S
C294 C296 1.561 . S
C294 C297 1.526 1_565 S
C295 H279 0.959 . S
C295 H280 0.959 1_565 S
C295 H281 0.961 . S
C295 C294 1.502 . S
C296 H282 0.960 . S
C296 H283 0.961 . S
C296 H284 0.959 . S
C296 C294 1.561 . S
C297 C294 1.526 1_545 S
C297 C298 1.396 . S
C297 C302 1.390 . S
C298 C292 1.465 1_545 S
C298 C297 1.396 . S
C298 C299 1.399 . S
C299 H285 0.929 . S
C299 C298 1.399 . S
C299 C300 1.385 . S
C300 H286 0.931 . S
C300 C299 1.385 . S
C300 C301 1.389 . S
C301 C300 1.389 . S
C301 C302 1.387 . S
C302 H287 0.930 . S
C302 C297 1.390 . S
C302 C301 1.387 . S
H303 C315 0.930 . S
H304 C317 0.930 . S
H305 C318 0.930 . S
H306 C322 0.959 . S
H307 C322 0.959 . S
H308 C322 0.961 . S
H309 C323 0.960 . S
H310 C323 0.961 . S
H311 C323 0.959 . S
H312 C326 0.929 . S
H313 C327 0.931 . S
H314 C329 0.930 . S
C315 H303 0.930 . S
C315 C316 1.399 . S
C315 C320 1.399 . S
C316 C315 1.399 . S
C316 C317 1.376 . S
C317 H304 0.930 . S
C317 C316 1.376 . S
C317 C318 1.388 . S
C318 H305 0.930 . S
C318 C317 1.388 . S
C318 C319 1.390 . S
C319 C318 1.390 . S
C319 C320 1.394 . S
C319 C325 1.465 . S
C320 C315 1.399 . S
C320 C319 1.394 . S
C320 C321 1.516 . S
C321 C320 1.516 . S
C321 C322 1.502 . S
C321 C323 1.561 . S
C321 C324 1.526 . S
C322 H306 0.959 . S
C322 H307 0.959 . S
C322 H308 0.961 . S
C322 C321 1.502 . S
C323 H309 0.960 . S
C323 H310 0.961 . S
C323 H311 0.959 . S
C323 C321 1.561 . S
C324 C321 1.526 . S
C324 C325 1.396 . S
C324 C329 1.390 . S
C325 C319 1.465 . S
C325 C324 1.396 . S
C325 C326 1.399 . S
C326 H312 0.929 . S
C326 C325 1.399 . S
C326 C327 1.385 . S
C327 H313 0.931 . S
C327 C326 1.385 . S
C327 C328 1.389 . S
C328 C327 1.389 . S
C328 C329 1.387 . S
C329 H314 0.930 . S
C329 C324 1.390 . S
C329 C328 1.387 . S
H330 C342 0.930 . S
H331 C344 0.930 . S
H332 C345 0.930 . S
H333 C349 0.959 . S
H334 C349 0.948 1_545 S
H335 C349 0.961 . S
H336 C350 0.960 . S
H337 C350 0.977 . S
H338 C350 0.959 . S
H339 C353 0.929 . S
H340 C354 0.931 . S
H341 C356 0.930 . S
C342 H330 0.930 . S
C342 C343 1.399 . S
C342 C347 1.399 . S
C343 C342 1.399 . S
C343 C344 1.376 . S
C344 H331 0.930 . S
C344 C343 1.376 . S
C344 C345 1.388 . S
C345 H332 0.930 . S
C345 C344 1.388 . S
C345 C346 1.390 . S
C346 C345 1.390 . S
C346 C347 1.394 . S
C346 C352 1.465 1_565 S
C347 C342 1.399 . S
C347 C346 1.394 . S
C347 C348 1.516 . S
C348 C347 1.516 . S
C348 C349 1.502 . S
C348 C350 1.561 . S
C348 C351 1.526 1_565 S
C349 H333 0.959 . S
C349 H334 0.948 1_565 S
C349 H335 0.961 . S
C349 C348 1.502 . S
C350 H336 0.960 . S
C350 H337 0.977 . S
C350 H338 0.959 . S
C350 C348 1.561 . S
C351 C348 1.526 1_545 S
C351 C352 1.396 . S
C351 C356 1.390 . S
C352 C346 1.465 1_545 S
C352 C351 1.396 . S
C352 C353 1.399 . S
C353 H339 0.929 . S
C353 C352 1.399 . S
C353 C354 1.385 . S
C354 H340 0.931 . S
C354 C353 1.385 . S
C354 C355 1.389 . S
C355 C354 1.389 . S
C355 C356 1.387 . S
C356 H341 0.930 . S
C356 C351 1.390 . S
C356 C355 1.387 . S
H357 C369 0.930 . S
H358 C371 0.930 . S
H359 C372 0.930 . S
H360 C376 0.959 . S
H361 C376 0.959 . S
H362 C376 0.961 . S
H363 C377 0.960 . S
H364 C377 0.961 . S
H365 C377 0.959 . S
H366 C380 0.929 . S
H367 C381 0.931 . S
H368 C383 0.930 . S
C369 H357 0.930 . S
C369 C370 1.399 . S
C369 C374 1.399 . S
C370 C369 1.399 . S
C370 C371 1.376 . S
C371 H358 0.930 . S
C371 C370 1.376 . S
C371 C372 1.388 . S
C372 H359 0.930 . S
C372 C371 1.388 . S
C372 C373 1.390 . S
C373 C372 1.390 . S
C373 C374 1.394 . S
C373 C379 1.465 . S
C374 C369 1.399 . S
C374 C373 1.394 . S
C374 C375 1.516 . S
C375 C374 1.516 . S
C375 C376 1.502 . S
C375 C377 1.561 . S
C375 C378 1.526 . S
C376 H360 0.959 . S
C376 H361 0.959 . S
C376 H362 0.961 . S
C376 C375 1.502 . S
C377 H363 0.960 . S
C377 H364 0.961 . S
C377 H365 0.959 . S
C377 C375 1.561 . S
C378 C375 1.526 . S
C378 C379 1.396 . S
C378 C383 1.390 . S
C379 C373 1.465 . S
C379 C378 1.396 . S
C379 C380 1.399 . S
C380 H366 0.929 . S
C380 C379 1.399 . S
C380 C381 1.385 . S
C381 H367 0.931 . S
C381 C380 1.385 . S
C381 C382 1.389 . S
C382 C381 1.389 . S
C382 C383 1.387 . S
C383 H368 0.930 . S
C383 C378 1.390 . S
C383 C382 1.387 . S
H384 C396 0.930 . S
H385 C398 0.930 . S
H386 C399 0.930 . S
H387 C403 0.959 . S
H388 C403 0.959 . S
H389 C403 0.961 . S
H390 C404 0.960 . S
H391 C404 0.961 . S
H392 C404 0.959 . S
H393 C407 0.929 . S
H394 C408 0.931 . S
H395 C410 0.930 . S
C396 H384 0.930 . S
C396 C397 1.399 1_556 S
C396 C401 1.399 . S
C397 C396 1.399 1_554 S
C397 C398 1.376 . S
C398 H385 0.930 . S
C398 C397 1.376 . S
C398 C399 1.388 . S
C399 H386 0.930 . S
C399 C398 1.388 . S
C399 C400 1.390 . S
C400 C399 1.390 . S
C400 C401 1.394 1_554 S
C400 C406 1.465 . S
C401 C396 1.399 . S
C401 C400 1.394 1_556 S
C401 C402 1.516 . S
C402 C401 1.516 . S
C402 C403 1.502 . S
C402 C404 1.561 . S
C402 C405 1.526 . S
C403 H387 0.959 . S
C403 H388 0.959 . S
C403 H389 0.961 . S
C403 C402 1.502 . S
C404 H390 0.960 . S
C404 H391 0.961 . S
C404 H392 0.959 . S
C404 C402 1.561 . S
C405 C402 1.526 . S
C405 C406 1.396 1_556 S
C405 C410 1.390 . S
C406 C400 1.465 . S
C406 C405 1.396 1_554 S
C406 C407 1.399 . S
C407 H393 0.929 . S
C407 C406 1.399 . S
C407 C408 1.385 . S
C408 H394 0.931 . S
C408 C407 1.385 . S
C408 C409 1.389 1_554 S
C409 C408 1.389 1_556 S
C409 C410 1.387 . S
C410 H395 0.930 . S
C410 C405 1.390 . S
C410 C409 1.387 . S
H411 C423 0.930 . S
H412 C425 0.930 . S
H413 C426 0.930 . S
H414 C430 0.959 1_566 S
H415 C430 0.959 . S
H416 C430 0.961 1_565 S
H417 C431 0.960 1_565 S
H418 C431 0.961 . S
H419 C431 0.959 . S
H420 C434 0.929 . S
H421 C435 0.931 . S
H422 C437 0.930 1_554 S
C423 H411 0.930 . S
C423 C424 1.399 . S
C423 C428 1.399 . S
C424 C423 1.399 . S
C424 C425 1.376 . S
C425 H412 0.930 . S
C425 C424 1.376 . S
C425 C426 1.388 1_554 S
C426 H413 0.930 . S
C426 C425 1.388 1_556 S
C426 C427 1.390 1_556 S
C427 C426 1.390 1_554 S
C427 C428 1.394 . S
C427 C433 1.465 1_564 S
C428 C423 1.399 . S
C428 C427 1.394 . S
C428 C429 1.516 1_565 S
C429 C428 1.516 1_545 S
C429 C430 1.502 . S
C429 C431 1.561 . S
C429 C432 1.526 . S
C430 H414 0.959 1_544 S
C430 H415 0.959 . S
C430 H416 0.961 1_545 S
C430 C429 1.502 . S
C431 H417 0.960 1_545 S
C431 H418 0.961 . S
C431 H419 0.959 . S
C431 C429 1.561 . S
C432 C429 1.526 . S
C432 C433 1.396 1_554 S
C432 C437 1.390 1_554 S
C433 C427 1.465 1_546 S
C433 C432 1.396 1_556 S
C433 C434 1.399 . S
C434 H420 0.929 . S
C434 C433 1.399 . S
C434 C435 1.385 . S
C435 H421 0.931 . S
C435 C434 1.385 . S
C435 C436 1.389 . S
C436 C435 1.389 . S
C436 C437 1.387 . S
C437 H422 0.930 1_556 S
C437 C432 1.390 1_556 S
C437 C436 1.387 . S
H438 C450 0.930 . S
H439 C452 0.930 . S
H440 C453 0.930 . S
H441 C457 0.959 . S
H442 C457 0.959 . S
H443 C457 0.961 . S
H444 C458 0.960 . S
H445 C458 0.961 . S
H446 C458 0.959 . S
H447 C461 0.929 . S
H448 C462 0.931 . S
H449 C464 0.930 . S
C450 H438 0.930 . S
C450 C451 1.399 1_554 S
C450 C455 1.399 . S
C451 C450 1.399 1_556 S
C451 C452 1.376 . S
C452 H439 0.930 . S
C452 C451 1.376 . S
C452 C453 1.388 . S
C453 H440 0.930 . S
C453 C452 1.388 . S
C453 C454 1.390 . S
C454 C453 1.390 . S
C454 C455 1.394 1_556 S
C454 C460 1.465 . S
C455 C450 1.399 . S
C455 C454 1.394 1_554 S
C455 C456 1.516 . S
C456 C455 1.516 . S
C456 C457 1.502 . S
C456 C458 1.561 . S
C456 C459 1.526 . S
C457 H441 0.959 . S
C457 H442 0.959 . S
C457 H443 0.961 . S
C457 C456 1.502 . S
C458 H444 0.960 . S
C458 H445 0.961 . S
C458 H446 0.959 . S
C458 C456 1.561 . S
C459 C456 1.526 . S
C459 C460 1.396 1_554 S
C459 C464 1.390 . S
C460 C454 1.465 . S
C460 C459 1.396 1_556 S
C460 C461 1.399 . S
C461 H447 0.929 . S
C461 C460 1.399 . S
C461 C462 1.385 . S
C462 H448 0.931 . S
C462 C461 1.385 . S
C462 C463 1.389 1_556 S
C463 C462 1.389 1_554 S
C463 C464 1.387 . S
C464 H449 0.930 . S
C464 C459 1.390 . S
C464 C463 1.387 . S
H465 C477 0.930 . S
H466 C479 0.930 1_554 S
H467 C480 0.930 . S
H468 C484 0.959 1_554 S
H469 C484 0.959 . S
H470 C484 0.961 1_545 S
H471 C485 0.960 1_545 S
H472 C485 0.961 . S
H473 C485 0.959 . S
H474 C488 0.929 . S
H475 C489 0.931 . S
H476 C491 0.930 1_556 S
C477 H465 0.930 . S
C477 C478 1.399 . S
C477 C482 1.399 . S
C478 C477 1.399 . S
C478 C479 1.376 . S
C479 H466 0.930 1_556 S
C479 C478 1.376 . S
C479 C480 1.388 1_556 S
C480 H467 0.930 . S
C480 C479 1.388 1_554 S
C480 C481 1.390 . S
C481 C480 1.390 . S
C481 C482 1.394 1_554 S
C481 C487 1.465 1_545 S
C482 C477 1.399 . S
C482 C481 1.394 1_556 S
C482 C483 1.516 1_545 S
C483 C482 1.516 1_565 S
C483 C484 1.502 . S
C483 C485 1.561 . S
C483 C486 1.526 . S
C484 H468 0.959 1_556 S
C484 H469 0.959 . S
C484 H470 0.961 1_565 S
C484 C483 1.502 . S
C485 H471 0.960 1_565 S
C485 H472 0.961 . S
C485 H473 0.959 . S
C485 C483 1.561 . S
C486 C483 1.526 . S
C486 C487 1.396 1_556 S
C486 C491 1.390 1_556 S
C487 C481 1.465 1_565 S
C487 C486 1.396 1_554 S
C487 C488 1.399 . S
C488 H474 0.929 . S
C488 C487 1.399 . S
C488 C489 1.385 . S
C489 H475 0.931 . S
C489 C488 1.385 . S
C489 C490 1.389 . S
C490 C489 1.389 . S
C490 C491 1.387 . S
C491 H476 0.930 1_554 S
C491 C486 1.390 1_554 S
C491 C490 1.387 . S
H492 C504 0.930 . S
H493 C506 0.930 . S
H494 C507 0.930 . S
H495 C511 0.959 . S
H496 C511 0.959 . S
H497 C511 0.961 . S
H498 C512 0.960 . S
H499 C512 0.961 . S
H500 C512 0.959 . S
H501 C515 0.929 . S
H502 C516 0.931 . S
H503 C518 0.930 . S
C504 H492 0.930 . S
C504 C505 1.399 . S
C504 C509 1.399 . S
C505 C504 1.399 . S
C505 C506 1.376 . S
C506 H493 0.930 . S
C506 C505 1.376 . S
C506 C507 1.388 . S
C507 H494 0.930 . S
C507 C506 1.388 . S
C507 C508 1.390 . S
C508 C507 1.390 . S
C508 C509 1.394 . S
C508 C514 1.465 . S
C509 C504 1.399 . S
C509 C508 1.394 . S
C509 C510 1.516 . S
C510 C509 1.516 . S
C510 C511 1.502 . S
C510 C512 1.561 . S
C510 C513 1.526 . S
C511 H495 0.959 . S
C511 H496 0.959 . S
C511 H497 0.961 . S
C511 C510 1.502 . S
C512 H498 0.960 . S
C512 H499 0.961 . S
C512 H500 0.959 . S
C512 C510 1.561 . S
C513 C510 1.526 . S
C513 C514 1.396 . S
C513 C518 1.390 1_554 S
C514 C508 1.465 . S
C514 C513 1.396 . S
C514 C515 1.399 . S
C515 H501 0.929 . S
C515 C514 1.399 . S
C515 C516 1.385 1_554 S
C516 H502 0.931 . S
C516 C515 1.385 1_556 S
C516 C517 1.389 . S
C517 C516 1.389 . S
C517 C518 1.387 . S
C518 H503 0.930 . S
C518 C513 1.390 1_556 S
C518 C517 1.387 . S
H519 C531 0.930 . S
H520 C533 0.930 . S
H521 C534 0.930 . S
H522 C538 0.959 . S
H523 C538 0.959 . S
H524 C538 0.961 . S
H525 C539 0.960 . S
H526 C539 0.961 . S
H527 C539 0.959 . S
H528 C542 0.929 . S
H529 C543 0.931 . S
H530 C545 0.930 . S
C531 H519 0.930 . S
C531 C532 1.399 . S
C531 C536 1.399 . S
C532 C531 1.399 . S
C532 C533 1.376 . S
C533 H520 0.930 . S
C533 C532 1.376 . S
C533 C534 1.388 . S
C534 H521 0.930 . S
C534 C533 1.388 . S
C534 C535 1.390 . S
C535 C534 1.390 . S
C535 C536 1.394 . S
C535 C541 1.465 . S
C536 C531 1.399 . S
C536 C535 1.394 . S
C536 C537 1.516 . S
C537 C536 1.516 . S
C537 C538 1.502 . S
C537 C539 1.561 . S
C537 C540 1.526 . S
C538 H522 0.959 . S
C538 H523 0.959 . S
C538 H524 0.961 . S
C538 C537 1.502 . S
C539 H525 0.960 . S
C539 H526 0.961 . S
C539 H527 0.959 . S
C539 C537 1.561 . S
C540 C537 1.526 . S
C540 C541 1.396 . S
C540 C545 1.390 1_554 S
C541 C535 1.465 . S
C541 C540 1.396 . S
C541 C542 1.399 . S
C542 H528 0.929 . S
C542 C541 1.399 . S
C542 C543 1.385 1_554 S
C543 H529 0.931 . S
C543 C542 1.385 1_556 S
C543 C544 1.389 . S
C544 C543 1.389 . S
C544 C545 1.387 . S
C545 H530 0.930 . S
C545 C540 1.390 1_556 S
C545 C544 1.387 . S
H546 C558 0.930 . S
H547 C560 0.930 . S
H548 C561 0.931 . S
H549 C565 0.959 . S
H550 C565 0.959 . S
H551 C565 0.961 . S
H552 C566 0.960 . S
H553 C566 0.961 . S
H554 C566 0.959 . S
H555 C569 0.929 . S
H556 C570 0.931 . S
H557 C572 0.930 . S
C558 H546 0.930 . S
C558 C559 1.399 . S
C558 C563 1.399 1_554 S
C559 C558 1.399 . S
C559 C560 1.376 . S
C560 H547 0.930 . S
C560 C559 1.376 . S
C560 C561 1.385 1_554 S
C561 H548 0.931 . S
C561 C560 1.385 1_556 S
C561 C562 1.393 . S
C562 C561 1.393 . S
C562 C563 1.394 . S
C562 C568 1.465 . S
C563 C558 1.399 1_556 S
C563 C562 1.394 . S
C563 C564 1.516 . S
C564 C563 1.516 . S
C564 C565 1.502 . S
C564 C566 1.561 . S
C564 C567 1.526 . S
C565 H549 0.959 . S
C565 H550 0.959 . S
C565 H551 0.961 . S
C565 C564 1.502 . S
C566 H552 0.960 . S
C566 H553 0.961 . S
C566 H554 0.959 . S
C566 C564 1.561 . S
C567 C564 1.526 . S
C567 C568 1.396 . S
C567 C572 1.390 . S
C568 C562 1.465 . S
C568 C567 1.396 . S
C568 C569 1.399 . S
C569 H555 0.929 . S
C569 C568 1.399 . S
C569 C570 1.385 . S
C570 H556 0.931 . S
C570 C569 1.385 . S
C570 C571 1.389 . S
C571 C570 1.389 . S
C571 C572 1.387 . S
C572 H557 0.930 . S
C572 C567 1.390 . S
C572 C571 1.387 . S
H573 C585 0.930 . S
H574 C587 0.930 . S
H575 C588 0.930 . S
H576 C592 0.959 . S
H577 C592 0.959 . S
H578 C592 0.961 . S
H579 C593 0.960 . S
H580 C593 0.961 . S
H581 C593 0.959 . S
H582 C596 0.929 . S
H583 C597 0.931 . S
H584 C599 0.930 . S
C585 H573 0.930 . S
C585 C586 1.399 . S
C585 C590 1.399 . S
C586 C585 1.399 . S
C586 C587 1.376 . S
C587 H574 0.930 . S
C587 C586 1.376 . S
C587 C588 1.388 . S
C588 H575 0.930 . S
C588 C587 1.388 . S
C588 C589 1.390 . S
C589 C588 1.390 . S
C589 C590 1.394 . S
C589 C595 1.465 . S
C590 C585 1.399 . S
C590 C589 1.394 . S
C590 C591 1.516 . S
C591 C590 1.516 . S
C591 C592 1.502 . S
C591 C593 1.561 . S
C591 C594 1.526 . S
C592 H576 0.959 . S
C592 H577 0.959 . S
C592 H578 0.961 . S
C592 C591 1.502 . S
C593 H579 0.960 . S
C593 H580 0.961 . S
C593 H581 0.959 . S
C593 C591 1.561 . S
C594 C591 1.526 . S
C594 C595 1.396 . S
C594 C599 1.390 1_556 S
C595 C589 1.465 . S
C595 C594 1.396 . S
C595 C596 1.399 . S
C596 H582 0.929 . S
C596 C595 1.399 . S
C596 C597 1.385 1_556 S
C597 H583 0.931 . S
C597 C596 1.385 1_554 S
C597 C598 1.389 . S
C598 C597 1.389 . S
C598 C599 1.387 . S
C599 H584 0.930 . S
C599 C594 1.390 1_554 S
C599 C598 1.387 . S
H600 C612 0.930 . S
H601 C614 0.930 . S
H602 C615 0.930 . S
H603 C619 0.959 . S
H604 C619 0.959 . S
H605 C619 0.961 . S
H606 C620 0.960 . S
H607 C620 0.961 . S
H608 C620 0.959 . S
H609 C623 0.929 . S
H610 C624 0.931 . S
H611 C626 0.930 . S
C612 H600 0.930 . S
C612 C613 1.399 . S
C612 C617 1.399 . S
C613 C612 1.399 . S
C613 C614 1.376 . S
C614 H601 0.930 . S
C614 C613 1.376 . S
C614 C615 1.388 . S
C615 H602 0.930 . S
C615 C614 1.388 . S
C615 C616 1.390 . S
C616 C615 1.390 . S
C616 C617 1.394 . S
C616 C622 1.465 . S
C617 C612 1.399 . S
C617 C616 1.394 . S
C617 C618 1.516 . S
C618 C617 1.516 . S
C618 C619 1.502 . S
C618 C620 1.561 . S
C618 C621 1.526 . S
C619 H603 0.959 . S
C619 H604 0.959 . S
C619 H605 0.961 . S
C619 C618 1.502 . S
C620 H606 0.960 . S
C620 H607 0.961 . S
C620 H608 0.959 . S
C620 C618 1.561 . S
C621 C618 1.526 . S
C621 C622 1.396 . S
C621 C626 1.390 . S
C622 C616 1.465 . S
C622 C621 1.396 . S
C622 C623 1.399 . S
C623 H609 0.929 . S
C623 C622 1.399 . S
C623 C624 1.385 . S
C624 H610 0.931 . S
C624 C623 1.385 . S
C624 C625 1.389 . S
C625 C624 1.389 . S
C625 C626 1.387 . S
C626 H611 0.930 . S
C626 C621 1.390 . S
C626 C625 1.387 . S
H627 C639 0.930 . S
H628 C641 0.930 . S
H629 C642 0.930 . S
H630 C646 0.959 . S
H631 C646 0.959 . S
H632 C646 0.961 . S
H633 C647 0.960 . S
H634 C647 0.961 . S
H635 C647 0.959 . S
H636 C650 0.929 . S
H637 C651 0.931 . S
H638 C653 0.930 . S
C639 H627 0.930 . S
C639 C640 1.399 . S
C639 C644 1.399 . S
C640 C639 1.399 . S
C640 C641 1.376 . S
C641 H628 0.930 . S
C641 C640 1.376 . S
C641 C642 1.388 . S
C642 H629 0.930 . S
C642 C641 1.388 . S
C642 C643 1.390 . S
C643 C642 1.390 . S
C643 C644 1.394 . S
C643 C649 1.465 . S
C644 C639 1.399 . S
C644 C643 1.394 . S
C644 C645 1.516 . S
C645 C644 1.516 . S
C645 C646 1.502 . S
C645 C647 1.561 . S
C645 C648 1.526 . S
C646 H630 0.959 . S
C646 H631 0.959 . S
C646 H632 0.961 . S
C646 C645 1.502 . S
C647 H633 0.960 . S
C647 H634 0.961 . S
C647 H635 0.959 . S
C647 C645 1.561 . S
C648 C645 1.526 . S
C648 C649 1.396 . S
C648 C653 1.390 . S
C649 C643 1.465 . S
C649 C648 1.396 . S
C649 C650 1.399 . S
C650 H636 0.929 . S
C650 C649 1.399 . S
C650 C651 1.385 . S
C651 H637 0.931 . S
C651 C650 1.385 . S
C651 C652 1.389 . S
C652 C651 1.389 . S
C652 C653 1.387 . S
C653 H638 0.930 . S
C653 C648 1.390 . S
C653 C652 1.387 . S
H654 C666 0.930 . S
H655 C668 0.930 . S
H656 C669 0.930 . S
H657 C673 0.959 . S
H658 C673 0.959 . S
H659 C673 0.961 . S
H660 C674 0.960 . S
H661 C674 0.961 . S
H662 C674 0.959 . S
H663 C677 0.929 . S
H664 C678 0.931 . S
H665 C680 0.930 . S
C666 H654 0.930 . S
C666 C667 1.399 . S
C666 C671 1.399 . S
C667 C666 1.399 . S
C667 C668 1.376 . S
C668 H655 0.930 . S
C668 C667 1.376 . S
C668 C669 1.388 . S
C669 H656 0.930 . S
C669 C668 1.388 . S
C669 C670 1.390 . S
C670 C669 1.390 . S
C670 C671 1.394 . S
C670 C676 1.465 . S
C671 C666 1.399 . S
C671 C670 1.394 . S
C671 C672 1.516 . S
C672 C671 1.516 . S
C672 C673 1.502 . S
C672 C674 1.561 . S
C672 C675 1.526 . S
C673 H657 0.959 . S
C673 H658 0.959 . S
C673 H659 0.961 . S
C673 C672 1.502 . S
C674 H660 0.960 . S
C674 H661 0.961 . S
C674 H662 0.959 . S
C674 C672 1.561 . S
C675 C672 1.526 . S
C675 C676 1.396 . S
C675 C680 1.390 . S
C676 C670 1.465 . S
C676 C675 1.396 . S
C676 C677 1.399 . S
C677 H663 0.929 . S
C677 C676 1.399 . S
C677 C678 1.385 . S
C678 H664 0.931 . S
C678 C677 1.385 . S
C678 C679 1.389 . S
C679 C678 1.389 . S
C679 C680 1.387 . S
C680 H665 0.930 . S
C680 C675 1.390 . S
C680 C679 1.387 . S
H681 C693 0.930 . S
H682 C695 0.930 . S
H683 C696 0.930 . S
H684 C700 0.959 . S
H685 C700 0.959 . S
H686 C700 0.961 . S
H687 C701 0.960 . S
H688 C701 0.961 . S
H689 C701 0.959 . S
H690 C704 0.929 . S
H691 C705 0.931 . S
H692 C707 0.930 . S
C693 H681 0.930 . S
C693 C694 1.399 . S
C693 C698 1.399 . S
C694 C693 1.399 . S
C694 C695 1.376 . S
C695 H682 0.930 . S
C695 C694 1.376 . S
C695 C696 1.388 . S
C696 H683 0.930 . S
C696 C695 1.388 . S
C696 C697 1.390 . S
C697 C696 1.390 . S
C697 C698 1.394 . S
C697 C703 1.465 . S
C698 C693 1.399 . S
C698 C697 1.394 . S
C698 C699 1.516 . S
C699 C698 1.516 . S
C699 C700 1.502 . S
C699 C701 1.561 . S
C699 C702 1.526 . S
C700 H684 0.959 . S
C700 H685 0.959 . S
C700 H686 0.961 . S
C700 C699 1.502 . S
C701 H687 0.960 . S
C701 H688 0.961 . S
C701 H689 0.959 . S
C701 C699 1.561 . S
C702 C699 1.526 . S
C702 C703 1.396 . S
C702 C707 1.390 . S
C703 C697 1.465 . S
C703 C702 1.396 . S
C703 C704 1.399 . S
C704 H690 0.929 . S
C704 C703 1.399 . S
C704 C705 1.385 . S
C705 H691 0.931 . S
C705 C704 1.385 . S
C705 C706 1.389 . S
C706 C705 1.389 . S
C706 C707 1.387 . S
C707 H692 0.930 . S
C707 C702 1.390 . S
C707 C706 1.387 . S
H708 C720 0.930 . S
H709 C722 0.930 . S
H710 C723 0.930 . S
H711 C727 0.959 . S
H712 C727 0.959 1_655 S
H713 C727 0.961 . S
H714 C728 0.939 1_455 S
H715 C728 0.980 . S
H716 C728 0.963 . S
H717 C731 0.929 . S
H718 C732 0.931 . S
H719 C734 0.930 . S
C720 H708 0.930 . S
C720 C721 1.399 . S
C720 C725 1.399 . S
C721 C720 1.399 . S
C721 C722 1.376 . S
C722 H709 0.930 . S
C722 C721 1.376 . S
C722 C723 1.388 . S
C723 H710 0.930 . S
C723 C722 1.388 . S
C723 C724 1.390 . S
C724 C723 1.390 . S
C724 C725 1.394 . S
C724 C730 1.465 1_455 S
C725 C720 1.399 . S
C725 C724 1.394 . S
C725 C726 1.537 . S
C726 C725 1.537 . S
C726 C727 1.503 . S
C726 C728 1.560 1_455 S
C726 C729 1.504 1_455 S
C727 H711 0.959 . S
C727 H712 0.959 1_455 S
C727 H713 0.961 . S
C727 C726 1.503 . S
C728 H714 0.939 1_655 S
C728 H715 0.980 . S
C728 H716 0.963 . S
C728 C726 1.560 1_655 S
C729 C726 1.504 1_655 S
C729 C730 1.396 . S
C729 C734 1.390 . S
C730 C724 1.465 1_655 S
C730 C729 1.396 . S
C730 C731 1.399 . S
C731 H717 0.929 . S
C731 C730 1.399 . S
C731 C732 1.385 . S
C732 H718 0.931 . S
C732 C731 1.385 . S
C732 C733 1.389 . S
C733 C732 1.389 . S
C733 C734 1.387 . S
C734 H719 0.930 . S
C734 C729 1.390 . S
C734 C733 1.387 . S
H735 C747 0.930 . S
H736 C749 0.930 . S
H737 C750 0.930 . S
H738 C754 0.959 . S
H739 C754 0.959 . S
H740 C754 0.961 1_655 S
H741 C755 0.926 1_655 S
H742 C755 0.994 . S
H743 C755 0.960 . S
H744 C758 0.929 . S
H745 C759 0.931 . S
H746 C761 0.930 . S
C747 H735 0.930 . S
C747 C748 1.399 . S
C747 C752 1.399 . S
C748 C747 1.399 . S
C748 C749 1.376 . S
C749 H736 0.930 . S
C749 C748 1.376 . S
C749 C750 1.388 . S
C750 H737 0.930 . S
C750 C749 1.388 . S
C750 C751 1.390 . S
C751 C750 1.390 . S
C751 C752 1.394 . S
C751 C757 1.465 1_655 S
C752 C747 1.399 . S
C752 C751 1.394 . S
C752 C753 1.516 1_655 S
C753 C752 1.516 1_455 S
C753 C754 1.502 . S
C753 C755 1.562 . S
C753 C756 1.526 . S
C754 H738 0.959 . S
C754 H739 0.959 . S
C754 H740 0.961 1_455 S
C754 C753 1.502 . S
C755 H741 0.926 1_455 S
C755 H742 0.994 . S
C755 H743 0.960 . S
C755 C753 1.562 . S
C756 C753 1.526 . S
C756 C757 1.396 . S
C756 C761 1.390 . S
C757 C751 1.465 1_455 S
C757 C756 1.396 . S
C757 C758 1.399 . S
C758 H744 0.929 . S
C758 C757 1.399 . S
C758 C759 1.385 . S
C759 H745 0.931 . S
C759 C758 1.385 . S
C759 C760 1.389 . S
C760 C759 1.389 . S
C760 C761 1.387 . S
C761 H746 0.930 . S
C761 C756 1.390 . S
C761 C760 1.387 . S
H762 C774 0.930 . S
H763 C776 0.930 . S
H764 C777 0.930 1_556 S
H765 C781 0.959 . S
H766 C781 0.959 . S
H767 C781 0.961 . S
H768 C782 0.960 . S
H769 C782 0.961 . S
H770 C782 0.959 . S
H771 C785 0.929 1_556 S
H772 C786 0.931 1_556 S
H773 C788 0.930 . S
C774 H762 0.930 . S
C774 C775 1.399 . S
C774 C779 1.399 . S
C775 C774 1.399 . S
C775 C776 1.376 . S
C776 H763 0.930 . S
C776 C775 1.376 . S
C776 C777 1.388 . S
C777 H764 0.930 1_554 S
C777 C776 1.388 . S
C777 C778 1.390 . S
C778 C777 1.390 . S
C778 C779 1.394 . S
C778 C784 1.465 . S
C779 C774 1.399 . S
C779 C778 1.394 . S
C779 C780 1.516 . S
C780 C779 1.516 . S
C780 C781 1.502 . S
C780 C782 1.561 . S
C780 C783 1.526 . S
C781 H765 0.959 . S
C781 H766 0.959 . S
C781 H767 0.961 . S
C781 C780 1.502 . S
C782 H768 0.960 . S
C782 H769 0.961 . S
C782 H770 0.959 . S
C782 C780 1.561 . S
C783 C780 1.526 . S
C783 C784 1.396 . S
C783 C788 1.390 . S
C784 C778 1.465 . S
C784 C783 1.396 . S
C784 C785 1.399 . S
C785 H771 0.929 1_554 S
C785 C784 1.399 . S
C785 C786 1.385 . S
C786 H772 0.931 1_554 S
C786 C785 1.385 . S
C786 C787 1.389 . S
C787 C786 1.389 . S
C787 C788 1.387 . S
C788 H773 0.930 . S
C788 C783 1.390 . S
C788 C787 1.387 . S
H789 C801 0.930 . S
H790 C803 0.930 . S
H791 C804 0.930 . S
H792 C808 0.959 . S
H793 C808 0.959 . S
H794 C808 0.961 . S
H795 C809 0.960 . S
H796 C809 0.961 . S
H797 C809 0.959 . S
H798 C812 0.929 . S
H799 C813 0.931 . S
H800 C815 0.930 . S
C801 H789 0.930 . S
C801 C802 1.399 . S
C801 C806 1.399 . S
C802 C801 1.399 . S
C802 C803 1.376 . S
C803 H790 0.930 . S
C803 C802 1.376 . S
C803 C804 1.388 . S
C804 H791 0.930 . S
C804 C803 1.388 . S
C804 C805 1.390 . S
C805 C804 1.390 . S
C805 C806 1.394 . S
C805 C811 1.465 . S
C806 C801 1.399 . S
C806 C805 1.394 . S
C806 C807 1.516 . S
C807 C806 1.516 . S
C807 C808 1.502 . S
C807 C809 1.561 . S
C807 C810 1.526 . S
C808 H792 0.959 . S
C808 H793 0.959 . S
C808 H794 0.961 . S
C808 C807 1.502 . S
C809 H795 0.960 . S
C809 H796 0.961 . S
C809 H797 0.959 . S
C809 C807 1.561 . S
C810 C807 1.526 . S
C810 C811 1.396 . S
C810 C815 1.390 . S
C811 C805 1.465 . S
C811 C810 1.396 . S
C811 C812 1.399 . S
C812 H798 0.929 . S
C812 C811 1.399 . S
C812 C813 1.385 . S
C813 H799 0.931 . S
C813 C812 1.385 . S
C813 C814 1.389 . S
C814 C813 1.389 . S
C814 C815 1.387 . S
C815 H800 0.930 . S
C815 C810 1.390 . S
C815 C814 1.387 . S
C181 C19 1.389 . S
C193 C167 1.344 . S
C208 C146 1.368 . S
C220 C40 1.430 . S
C235 C124 1.410 . S
C247 C62 1.400 . S
C262 C104 1.426 . S
C274 C83 1.335 . S
C289 C46 1.546 . S
C301 C7 1.515 . S
C316 C28 1.611 . S
C328 C67 1.624 . S
C343 C70 1.125 . S
C355 C25 1.225 . S
C370 C49 1.248 . S
C382 C4 1.160 . S
C397 C88 1.551 . S
C409 C130 1.518 . S
C424 C112 1.618 . S
C436 C151 1.623 . S
C451 C154 1.125 . S
C463 C109 1.226 . S
C478 C133 1.230 . S
C490 C91 1.198 . S
C505 C16 1.188 . S
C517 C20 1.310 . S
C532 C37 1.308 . S
C544 C41 1.218 . S
C559 C61 1.284 . S
C571 C45 1.291 . S
C586 C66 1.297 . S
C598 C82 1.207 . S
C613 C103 1.287 . S
C625 C87 1.289 . S
C640 C121 1.202 . S
C652 C125 1.320 . S
C667 C129 1.191 . S
C679 C145 1.313 . S
C694 C150 1.307 . S
C706 C166 1.216 . S
C721 C3 1.349 . S
C733 C24 1.257 . S
C748 C79 1.266 . S
C760 C58 1.383 . S
C775 C100 1.279 . S
C787 C108 1.379 . S
C802 C163 1.264 . S
C814 C142 1.384 . S
