# Generated by pormake.
# Topology lcs, (4)-cn, num edge types: 1
# Building blocks:
#     Node 0, Type 0, BuildingBlock: UXUYUI_clean_sbu_0, # of connection points: 4
#     Node 1, Type 0, BuildingBlock: UXUYUI_clean_sbu_0, # of connection points: 4
#     Node 2, Type 0, BuildingBlock: UXUYUI_clean_sbu_0, # of connection points: 4
#     Node 3, Type 0, BuildingBlock: UXUYUI_clean_sbu_0, # of connection points: 4
#     Node 4, Type 0, BuildingBlock: UXUYUI_clean_sbu_0, # of connection points: 4
#     Node 5, Type 0, BuildingBlock: UXUYUI_clean_sbu_0, # of connection points: 4
#     Node 6, Type 0, BuildingBlock: UXUYUI_clean_sbu_0, # of connection points: 4
#     Node 7, Type 0, BuildingBlock: UXUYUI_clean_sbu_0, # of connection points: 4
#     Node 8, Type 0, BuildingBlock: UXUYUI_clean_sbu_0, # of connection points: 4
#     Node 9, Type 0, BuildingBlock: UXUYUI_clean_sbu_0, # of connection points: 4
#     Node 10, Type 0, BuildingBlock: UXUYUI_clean_sbu_0, # of connection points: 4
#     Node 11, Type 0, BuildingBlock: UXUYUI_clean_sbu_0, # of connection points: 4
#     Node 12, Type 0, BuildingBlock: UXUYUI_clean_sbu_0, # of connection points: 4
#     Node 13, Type 0, BuildingBlock: UXUYUI_clean_sbu_0, # of connection points: 4
#     Node 14, Type 0, BuildingBlock: UXUYUI_clean_sbu_0, # of connection points: 4
#     Node 15, Type 0, BuildingBlock: UXUYUI_clean_sbu_0, # of connection points: 4
#     Node 16, Type 0, BuildingBlock: UXUYUI_clean_sbu_0, # of connection points: 4
#     Node 17, Type 0, BuildingBlock: UXUYUI_clean_sbu_0, # of connection points: 4
#     Node 18, Type 0, BuildingBlock: UXUYUI_clean_sbu_0, # of connection points: 4
#     Node 19, Type 0, BuildingBlock: UXUYUI_clean_sbu_0, # of connection points: 4
#     Node 20, Type 0, BuildingBlock: UXUYUI_clean_sbu_0, # of connection points: 4
#     Node 21, Type 0, BuildingBlock: UXUYUI_clean_sbu_0, # of connection points: 4
#     Node 22, Type 0, BuildingBlock: UXUYUI_clean_sbu_0, # of connection points: 4
#     Node 23, Type 0, BuildingBlock: UXUYUI_clean_sbu_0, # of connection points: 4
#     Edge 24, Type (0, 0), BuildingBlock: OJICUG_clean_linker_0, # of connection points: 2
#     Edge 25, Type (0, 0), BuildingBlock: OJICUG_clean_linker_0, # of connection points: 2
#     Edge 26, Type (0, 0), BuildingBlock: OJICUG_clean_linker_0, # of connection points: 2
#     Edge 27, Type (0, 0), BuildingBlock: OJICUG_clean_linker_0, # of connection points: 2
#     Edge 28, Type (0, 0), BuildingBlock: OJICUG_clean_linker_0, # of connection points: 2
#     Edge 29, Type (0, 0), BuildingBlock: OJICUG_clean_linker_0, # of connection points: 2
#     Edge 30, Type (0, 0), BuildingBlock: OJICUG_clean_linker_0, # of connection points: 2
#     Edge 31, Type (0, 0), BuildingBlock: OJICUG_clean_linker_0, # of connection points: 2
#     Edge 32, Type (0, 0), BuildingBlock: OJICUG_clean_linker_0, # of connection points: 2
#     Edge 33, Type (0, 0), BuildingBlock: OJICUG_clean_linker_0, # of connection points: 2
#     Edge 34, Type (0, 0), BuildingBlock: OJICUG_clean_linker_0, # of connection points: 2
#     Edge 35, Type (0, 0), BuildingBlock: OJICUG_clean_linker_0, # of connection points: 2
#     Edge 36, Type (0, 0), BuildingBlock: OJICUG_clean_linker_0, # of connection points: 2
#     Edge 37, Type (0, 0), BuildingBlock: OJICUG_clean_linker_0, # of connection points: 2
#     Edge 38, Type (0, 0), BuildingBlock: OJICUG_clean_linker_0, # of connection points: 2
#     Edge 39, Type (0, 0), BuildingBlock: OJICUG_clean_linker_0, # of connection points: 2
#     Edge 40, Type (0, 0), BuildingBlock: OJICUG_clean_linker_0, # of connection points: 2
#     Edge 41, Type (0, 0), BuildingBlock: OJICUG_clean_linker_0, # of connection points: 2
#     Edge 42, Type (0, 0), BuildingBlock: OJICUG_clean_linker_0, # of connection points: 2
#     Edge 43, Type (0, 0), BuildingBlock: OJICUG_clean_linker_0, # of connection points: 2
#     Edge 44, Type (0, 0), BuildingBlock: OJICUG_clean_linker_0, # of connection points: 2
#     Edge 45, Type (0, 0), BuildingBlock: OJICUG_clean_linker_0, # of connection points: 2
#     Edge 46, Type (0, 0), BuildingBlock: OJICUG_clean_linker_0, # of connection points: 2
#     Edge 47, Type (0, 0), BuildingBlock: OJICUG_clean_linker_0, # of connection points: 2
#     Edge 48, Type (0, 0), BuildingBlock: OJICUG_clean_linker_0, # of connection points: 2
#     Edge 49, Type (0, 0), BuildingBlock: OJICUG_clean_linker_0, # of connection points: 2
#     Edge 50, Type (0, 0), BuildingBlock: OJICUG_clean_linker_0, # of connection points: 2
#     Edge 51, Type (0, 0), BuildingBlock: OJICUG_clean_linker_0, # of connection points: 2
#     Edge 52, Type (0, 0), BuildingBlock: OJICUG_clean_linker_0, # of connection points: 2
#     Edge 53, Type (0, 0), BuildingBlock: OJICUG_clean_linker_0, # of connection points: 2
#     Edge 54, Type (0, 0), BuildingBlock: OJICUG_clean_linker_0, # of connection points: 2
#     Edge 55, Type (0, 0), BuildingBlock: OJICUG_clean_linker_0, # of connection points: 2
#     Edge 56, Type (0, 0), BuildingBlock: OJICUG_clean_linker_0, # of connection points: 2
#     Edge 57, Type (0, 0), BuildingBlock: OJICUG_clean_linker_0, # of connection points: 2
#     Edge 58, Type (0, 0), BuildingBlock: OJICUG_clean_linker_0, # of connection points: 2
#     Edge 59, Type (0, 0), BuildingBlock: OJICUG_clean_linker_0, # of connection points: 2
#     Edge 60, Type (0, 0), BuildingBlock: OJICUG_clean_linker_0, # of connection points: 2
#     Edge 61, Type (0, 0), BuildingBlock: OJICUG_clean_linker_0, # of connection points: 2
#     Edge 62, Type (0, 0), BuildingBlock: OJICUG_clean_linker_0, # of connection points: 2
#     Edge 63, Type (0, 0), BuildingBlock: OJICUG_clean_linker_0, # of connection points: 2
#     Edge 64, Type (0, 0), BuildingBlock: OJICUG_clean_linker_0, # of connection points: 2
#     Edge 65, Type (0, 0), BuildingBlock: OJICUG_clean_linker_0, # of connection points: 2
#     Edge 66, Type (0, 0), BuildingBlock: OJICUG_clean_linker_0, # of connection points: 2
#     Edge 67, Type (0, 0), BuildingBlock: OJICUG_clean_linker_0, # of connection points: 2
#     Edge 68, Type (0, 0), BuildingBlock: OJICUG_clean_linker_0, # of connection points: 2
#     Edge 69, Type (0, 0), BuildingBlock: OJICUG_clean_linker_0, # of connection points: 2
#     Edge 70, Type (0, 0), BuildingBlock: OJICUG_clean_linker_0, # of connection points: 2
#     Edge 71, Type (0, 0), BuildingBlock: OJICUG_clean_linker_0, # of connection points: 2
# Relax obj value: 0.148
# Max RMSD: 0.190
# Mean RMSD: 0.190
data_MOF--net-lcs--node1-UXUYUI_clean_sbu_0--edge1-OJICUG_clean_linker_0
_symmetry_space_group_name_H-M    P1
_symmetry_Int_Tables_number       1
_symmetry_cell_setting            triclinic
loop_
_symmetry_equiv_pos_as_xyz
'x, y, z'
_cell_length_a     58.866613
_cell_length_b     58.861885
_cell_length_c     58.865919
_cell_angle_alpha  90.004921
_cell_angle_beta   90.003856
_cell_angle_gamma 90.010866
loop_
_atom_site_label
_atom_site_type_symbol
_atom_site_fract_x
_atom_site_fract_y
_atom_site_fract_z
_atom_type_partial_charge
Li0 Li 0.00334 0.27165 0.36135 0.0
Li1 Li 0.01566 0.24697 0.39242 0.0
Li2 Li 0.99022 0.23295 0.36277 0.0
Li3 Li 0.97682 0.2602 0.39122 0.0
C4 C 0.03072 0.2275 0.34591 0.0
N5 N 0.04668 0.19271 0.31877 0.0
C6 C 0.04293 0.20954 0.35551 0.0
C7 C 0.02671 0.22783 0.32252 0.0
C8 C 0.05085 0.1921 0.34149 0.0
C9 C 0.03488 0.21005 0.30909 0.0
C10 C 0.02012 0.28813 0.40839 0.0
C11 C 0.03529 0.29396 0.44599 0.0
N12 N 0.05309 0.30555 0.43689 0.0
C13 C 0.03851 0.30016 0.3994 0.0
C14 C 0.01842 0.28506 0.43187 0.0
C15 C 0.05501 0.30883 0.41409 0.0
C16 C 0.003 0.31738 0.34835 0.0
N17 N 0.01246 0.29692 0.34337 0.0
C18 C 0.03754 0.31422 0.31655 0.0
C19 C 0.0293 0.29494 0.32771 0.0
C20 C 0.0284 0.33571 0.32164 0.0
C21 C 0.0106 0.33704 0.3375 0.0
H22 H 0.98995 0.3185 0.36122 0.0
H23 H 0.03687 0.27853 0.32447 0.0
C24 C 0.0388 0.22358 0.42774 0.0
N25 N 0.04115 0.23873 0.41049 0.0
C26 C 0.05795 0.21533 0.43907 0.0
C27 C 0.0815 0.23888 0.41504 0.0
C28 C 0.06191 0.24659 0.40412 0.0
C29 C 0.0797 0.22269 0.43247 0.0
H30 H 0.02215 0.21728 0.43218 0.0
H31 H 0.0633 0.2582 0.38995 0.0
C32 C 0.96308 0.27557 0.34283 0.0
N33 N 0.94722 0.30773 0.31255 0.0
C34 C 0.9489 0.29307 0.35036 0.0
C35 C 0.96906 0.27433 0.31989 0.0
C36 C 0.94108 0.30918 0.33478 0.0
C37 C 0.96092 0.29079 0.30486 0.0
C38 C 0.97253 0.22033 0.41113 0.0
C39 C 0.95545 0.20559 0.40369 0.0
C40 C 0.97318 0.22703 0.4339 0.0
C41 C 0.93921 0.19788 0.41919 0.0
C42 C 0.9566 0.21898 0.44885 0.0
N43 N 0.9401 0.2047 0.44125 0.0
C44 C 0.98963 0.18614 0.35495 0.0
C45 C 0.96823 0.20708 0.32803 0.0
C46 C 0.9829 0.16569 0.34506 0.0
N47 N 0.9821 0.20624 0.34647 0.0
C48 C 0.96109 0.187 0.31755 0.0
C49 C 0.96817 0.16592 0.32628 0.0
H50 H 0.00048 0.18601 0.36979 0.0
H51 H 0.96225 0.22329 0.32184 0.0
C52 C 0.95249 0.28843 0.42171 0.0
N53 N 0.95093 0.26993 0.40798 0.0
C54 C 0.93314 0.29697 0.43248 0.0
C55 C 0.91108 0.26693 0.41521 0.0
C56 C 0.93077 0.25921 0.40446 0.0
C57 C 0.9121 0.28622 0.42917 0.0
H58 H 0.96865 0.29691 0.42382 0.0
H59 H 0.92988 0.245 0.39287 0.0
O60 O 0.02236 0.24446 0.35941 0.0
O61 O 0.00402 0.27912 0.39427 0.0
O62 O 0.97123 0.25986 0.35787 0.0
O63 O 0.98842 0.2283 0.39617 0.0
H64 H 0.04604 0.20891 0.3736 0.0
H65 H 0.01719 0.24154 0.31484 0.0
H66 H 0.06024 0.17804 0.34869 0.0
H67 H 0.0318 0.21002 0.29097 0.0
H68 H 0.03425 0.29162 0.46419 0.0
H69 H 0.04018 0.30259 0.38126 0.0
H70 H 0.0043 0.27578 0.43909 0.0
H71 H 0.06939 0.31808 0.40737 0.0
H72 H 0.05152 0.31239 0.30474 0.0
H73 H 0.00282 0.35315 0.34179 0.0
H74 H 0.05579 0.20297 0.45252 0.0
H75 H 0.09793 0.24473 0.40916 0.0
H76 H 0.94414 0.29434 0.36805 0.0
H77 H 0.9801 0.26096 0.31381 0.0
H78 H 0.93018 0.32288 0.34038 0.0
H79 H 0.96554 0.29013 0.28708 0.0
H80 H 0.95456 0.20035 0.38611 0.0
H81 H 0.98621 0.2385 0.43991 0.0
H82 H 0.92584 0.18655 0.41365 0.0
H83 H 0.95682 0.22413 0.46649 0.0
H84 H 0.98897 0.14985 0.35218 0.0
H85 H 0.94951 0.18795 0.30328 0.0
H86 H 0.93456 0.31191 0.44312 0.0
H87 H 0.89509 0.25842 0.41195 0.0
Li88 Li 0.01133 0.77071 0.6399 0.0
Li89 Li 0.98276 0.76039 0.61 0.0
Li90 Li 0.99274 0.73223 0.63923 0.0
Li91 Li 0.01907 0.74225 0.61035 0.0
C92 C 0.96174 0.75807 0.65828 0.0
N93 N 0.9282 0.74533 0.6885 0.0
C94 C 0.93984 0.75331 0.65045 0.0
C95 C 0.9666 0.75641 0.68146 0.0
C96 C 0.92311 0.7469 0.66601 0.0
C97 C 0.9494 0.74991 0.69647 0.0
C98 C 0.00934 0.79269 0.59235 0.0
C99 C 0.0051 0.80797 0.55459 0.0
N100 N 1.0002 0.82866 0.56364 0.0
C101 C 0.00445 0.81413 0.60129 0.0
C102 C 0.00984 0.78958 0.56882 0.0
C103 C 0.99981 0.83209 0.58649 0.0
C104 C 0.04425 0.80294 0.65177 0.0
N105 N 0.02305 0.79548 0.657 0.0
C106 C 0.018 0.82607 0.68326 0.0
C107 C 0.00989 0.80653 0.67242 0.0
C108 C 0.03983 0.83434 0.67807 0.0
C109 C 0.05308 0.82229 0.66226 0.0
H110 H 0.0541 0.79415 0.639 0.0
H111 H 0.99286 0.80057 0.67583 0.0
C112 C 0.94741 0.76028 0.5768 0.0
N113 N 0.95801 0.77268 0.59315 0.0
C114 C 0.928 0.76874 0.56605 0.0
C115 C 0.93093 0.80264 0.58903 0.0
C116 C 0.95018 0.79348 0.59939 0.0
C117 C 0.91934 0.79011 0.57231 0.0
H118 H 0.95356 0.74352 0.57259 0.0
H119 H 0.95862 0.80274 0.61282 0.0
C120 C 0.04421 0.72718 0.64456 0.0
N121 N 0.08336 0.70127 0.64394 0.0
C122 C 0.04285 0.70347 0.64491 0.0
C123 C 0.06549 0.73771 0.64402 0.0
C124 C 0.06284 0.69067 0.6446 0.0
C125 C 0.08508 0.72431 0.64364 0.0
C126 C 0.99121 0.71216 0.58952 0.0
C127 C 0.99014 0.68894 0.59445 0.0
C128 C 0.99478 0.71926 0.56715 0.0
C129 C 0.9929 0.67321 0.5769 0.0
C130 C 0.99748 0.70299 0.55009 0.0
N131 N 0.9965 0.6805 0.55527 0.0
C132 C 0.96095 0.69848 0.6494 0.0
C133 C 0.99055 0.70109 0.67658 0.0
C134 C 0.95149 0.68001 0.66083 0.0
N135 N 0.98026 0.70839 0.65724 0.0
C136 C 0.98174 0.68251 0.6885 0.0
C137 C 0.96205 0.67159 0.68051 0.0
H138 H 0.95314 0.70469 0.63397 0.0
H139 H 0.00581 0.70944 0.68252 0.0
C140 C 0.05922 0.74648 0.58428 0.0
N141 N 0.04396 0.73112 0.59235 0.0
C142 C 0.07921 0.73914 0.57372 0.0
C143 C 0.067 0.70036 0.57926 0.0
C144 C 0.04744 0.70843 0.58987 0.0
C145 C 0.08349 0.71575 0.57144 0.0
H146 H 0.05631 0.76443 0.58686 0.0
H147 H 0.03555 0.69646 0.59699 0.0
O148 O 0.97853 0.76367 0.64325 0.0
O149 O 0.01363 0.77481 0.60654 0.0
O150 O 0.02482 0.73999 0.64436 0.0
O151 O 0.98852 0.7278 0.60648 0.0
H152 H 0.93587 0.75432 0.63253 0.0
H153 H 0.98356 0.75977 0.68773 0.0
H154 H 0.9061 0.74308 0.6602 0.0
H155 H 0.95294 0.74842 0.71444 0.0
H156 H 0.00534 0.8058 0.53634 0.0
H157 H 0.00396 0.81683 0.61946 0.0
H158 H 0.0139 0.77317 0.56164 0.0
H159 H 0.99584 0.84875 0.59317 0.0
H160 H 0.00702 0.83497 0.69502 0.0
H161 H 0.07007 0.82781 0.65788 0.0
H162 H 0.91943 0.75829 0.55357 0.0
H163 H 0.92506 0.81927 0.59425 0.0
H164 H 0.02654 0.69501 0.64491 0.0
H165 H 0.06687 0.75601 0.64367 0.0
H166 H 0.06202 0.67232 0.64469 0.0
H167 H 0.10165 0.73224 0.64306 0.0
H168 H 0.9875 0.68313 0.61168 0.0
H169 H 0.99553 0.73714 0.56305 0.0
H170 H 0.99224 0.65519 0.58049 0.0
H171 H 0.00036 0.70826 0.53272 0.0
H172 H 0.93643 0.67199 0.65394 0.0
H173 H 0.99025 0.67673 0.70375 0.0
H174 H 0.09154 0.75164 0.56825 0.0
H175 H 0.06935 0.68219 0.57764 0.0
Li176 Li 0.50887 0.76817 0.86071 0.0
Li177 Li 0.52057 0.74251 0.89071 0.0
Li178 Li 0.49449 0.72833 0.86112 0.0
Li179 Li 0.48182 0.75469 0.89 0.0
C180 C 0.53325 0.73598 0.83566 0.0
N181 N 0.54701 0.7286 0.7914 0.0
C182 C 0.55406 0.72546 0.83125 0.0
C183 C 0.51942 0.74275 0.81757 0.0
C184 C 0.56072 0.72189 0.80875 0.0
C185 C 0.52668 0.73886 0.79532 0.0
C186 C 0.52342 0.78245 0.90975 0.0
C187 C 0.53313 0.78943 0.94893 0.0
N188 N 0.55337 0.79833 0.9422 0.0
C189 C 0.5442 0.79188 0.90321 0.0
C190 C 0.51773 0.78138 0.93277 0.0
C191 C 0.55915 0.79974 0.91988 0.0
C192 C 0.50456 0.81096 0.83898 0.0
N193 N 0.51893 0.79339 0.84321 0.0
C194 C 0.5498 0.81356 0.82624 0.0
C195 C 0.54114 0.79427 0.83695 0.0
C196 C 0.53548 0.83219 0.82201 0.0
C197 C 0.51248 0.83058 0.82819 0.0
H198 H 0.48714 0.81004 0.84469 0.0
H199 H 0.55233 0.78026 0.84093 0.0
C200 C 0.54567 0.72193 0.92721 0.0
N201 N 0.54683 0.73437 0.90779 0.0
C202 C 0.56557 0.71453 0.93786 0.0
C203 C 0.5874 0.73328 0.90858 0.0
C204 C 0.56712 0.74026 0.8985 0.0
C205 C 0.58681 0.71988 0.92832 0.0
H206 H 0.52935 0.71712 0.93405 0.0
H207 H 0.56752 0.75003 0.88294 0.0
C208 C 0.45431 0.75602 0.85199 0.0
N209 N 0.40807 0.75457 0.84395 0.0
C210 C 0.44191 0.7364 0.85698 0.0
C211 C 0.44317 0.77492 0.84292 0.0
C212 C 0.41856 0.73599 0.85279 0.0
C213 C 0.41979 0.77385 0.83897 0.0
C214 C 0.48026 0.71349 0.91074 0.0
C215 C 0.4657 0.6955 0.90538 0.0
C216 C 0.48123 0.72155 0.93306 0.0
C217 C 0.45218 0.68602 0.92243 0.0
C218 C 0.46742 0.71163 0.94961 0.0
N219 N 0.45329 0.69423 0.944 0.0
C220 C 0.49514 0.68214 0.8511 0.0
C221 C 0.47414 0.70367 0.82434 0.0
C222 C 0.48875 0.66193 0.8405 0.0
N223 N 0.4873 0.70237 0.84327 0.0
C224 C 0.46722 0.68384 0.81325 0.0
C225 C 0.47411 0.66255 0.82164 0.0
H226 H 0.50581 0.6817 0.86606 0.0
H227 H 0.4684 0.72003 0.81829 0.0
C228 C 0.45568 0.78677 0.91368 0.0
N229 N 0.4558 0.76466 0.907 0.0
C230 C 0.43655 0.79601 0.92426 0.0
C231 C 0.41807 0.75949 0.92126 0.0
C232 C 0.43749 0.751 0.91063 0.0
C233 C 0.41732 0.78236 0.92799 0.0
H234 H 0.47029 0.79738 0.91032 0.0
H235 H 0.4376 0.73366 0.90474 0.0
O236 O 0.52654 0.73951 0.85762 0.0
O237 O 0.50877 0.77424 0.89371 0.0
O238 O 0.47718 0.75683 0.85615 0.0
O239 O 0.4936 0.72301 0.89426 0.0
H240 H 0.56494 0.72012 0.84508 0.0
H241 H 0.50327 0.75094 0.82063 0.0
H242 H 0.57679 0.71378 0.80508 0.0
H243 H 0.51615 0.744 0.78116 0.0
H244 H 0.52899 0.78862 0.96681 0.0
H245 H 0.54885 0.79287 0.88546 0.0
H246 H 0.50156 0.77447 0.93809 0.0
H247 H 0.57538 0.8069 0.91507 0.0
H248 H 0.5676 0.81402 0.82161 0.0
H249 H 0.50095 0.84468 0.82556 0.0
H250 H 0.56429 0.70397 0.95287 0.0
H251 H 0.60336 0.73806 0.90079 0.0
H252 H 0.45017 0.72172 0.86426 0.0
H253 H 0.45246 0.79025 0.83893 0.0
H254 H 0.40877 0.72092 0.85666 0.0
H255 H 0.41096 0.78836 0.83195 0.0
H256 H 0.46471 0.68901 0.88823 0.0
H257 H 0.49239 0.73542 0.9375 0.0
H258 H 0.44077 0.67216 0.91849 0.0
H259 H 0.46792 0.71779 0.96692 0.0
H260 H 0.4949 0.64597 0.84727 0.0
H261 H 0.45584 0.68518 0.79886 0.0
H262 H 0.43676 0.8137 0.92934 0.0
H263 H 0.40351 0.74846 0.92345 0.0
Li264 Li 0.50869 0.26814 0.13659 0.0
Li265 Li 0.48201 0.25722 0.10676 0.0
Li266 Li 0.4933 0.22875 0.13656 0.0
Li267 Li 0.51949 0.23994 0.106 0.0
C268 C 0.46656 0.26457 0.16004 0.0
N269 N 0.44604 0.2775 0.20024 0.0
C270 C 0.44919 0.28076 0.15992 0.0
C271 C 0.47321 0.25468 0.18057 0.0
C272 C 0.43911 0.28716 0.18043 0.0
C273 C 0.46271 0.26151 0.20072 0.0
C274 C 0.50834 0.28901 0.08723 0.0
C275 C 0.50416 0.30026 0.04807 0.0
N276 N 0.50038 0.32203 0.05485 0.0
C277 C 0.50468 0.31153 0.09381 0.0
C278 C 0.50832 0.28334 0.06419 0.0
C279 C 0.50058 0.32796 0.07718 0.0
C280 C 0.54235 0.29477 0.15743 0.0
N281 N 0.51958 0.29318 0.15395 0.0
C282 C 0.51364 0.3293 0.17158 0.0
C283 C 0.50521 0.30992 0.16077 0.0
C284 C 0.53714 0.33158 0.17513 0.0
C285 C 0.55153 0.31388 0.1681 0.0
H286 H 0.55344 0.28139 0.15146 0.0
H287 H 0.4873 0.30867 0.15708 0.0
C288 C 0.44502 0.25558 0.07525 0.0
N289 N 0.457 0.26882 0.08991 0.0
C290 C 0.42544 0.26405 0.06477 0.0
C291 C 0.43126 0.29968 0.08434 0.0
C292 C 0.45056 0.29049 0.09452 0.0
C293 C 0.41813 0.28631 0.06954 0.0
H294 H 0.45026 0.23825 0.07222 0.0
H295 H 0.46016 0.30049 0.10656 0.0
C296 C 0.53813 0.23093 0.1569 0.0
N297 N 0.56431 0.21514 0.19254 0.0
C298 C 0.55437 0.214 0.15322 0.0
C299 C 0.53553 0.24013 0.17864 0.0
C300 C 0.56734 0.20615 0.17148 0.0
C301 C 0.54884 0.23185 0.19645 0.0
C302 C 0.49173 0.20786 0.08733 0.0
C303 C 0.49233 0.18507 0.09396 0.0
C304 C 0.49346 0.21347 0.06433 0.0
C305 C 0.49508 0.16825 0.07744 0.0
C306 C 0.4962 0.19615 0.04833 0.0
N307 N 0.49696 0.17409 0.05516 0.0
C308 C 0.46035 0.20173 0.15815 0.0
C309 C 0.49769 0.18698 0.16076 0.0
C310 C 0.45163 0.18274 0.16941 0.0
N311 N 0.483 0.20349 0.15407 0.0
C312 C 0.48974 0.16776 0.17218 0.0
C313 C 0.46638 0.16532 0.1765 0.0
H314 H 0.44899 0.2149 0.15223 0.0
H315 H 0.5155 0.1884 0.15678 0.0
C316 C 0.55835 0.24396 0.0777 0.0
N317 N 0.5444 0.22904 0.08848 0.0
C318 C 0.57826 0.2363 0.06722 0.0
C319 C 0.56861 0.19804 0.07853 0.0
C320 C 0.54908 0.20645 0.08895 0.0
C321 C 0.58383 0.21307 0.0679 0.0
H322 H 0.55446 0.26191 0.07797 0.0
H323 H 0.5381 0.19502 0.09819 0.0
O324 O 0.47654 0.25809 0.14006 0.0
O325 O 0.51216 0.27265 0.10328 0.0
O326 O 0.52543 0.23893 0.13914 0.0
O327 O 0.48917 0.22456 0.10328 0.0
H328 H 0.44361 0.2884 0.14417 0.0
H329 H 0.48613 0.24168 0.18094 0.0
H330 H 0.42576 0.29979 0.1806 0.0
H331 H 0.46774 0.25401 0.21673 0.0
H332 H 0.50399 0.29609 0.03018 0.0
H333 H 0.50479 0.31623 0.11157 0.0
H334 H 0.51154 0.26609 0.05881 0.0
H335 H 0.49755 0.34542 0.08203 0.0
H336 H 0.50199 0.34271 0.17634 0.0
H337 H 0.56973 0.31486 0.17064 0.0
H338 H 0.41571 0.25302 0.05372 0.0
H339 H 0.42654 0.31701 0.08829 0.0
H340 H 0.55683 0.20686 0.13649 0.0
H341 H 0.52359 0.25372 0.18172 0.0
H342 H 0.57984 0.19292 0.16889 0.0
H343 H 0.54695 0.23878 0.21336 0.0
H344 H 0.49085 0.18042 0.11167 0.0
H345 H 0.49269 0.23098 0.0589 0.0
H346 H 0.49572 0.15054 0.08233 0.0
H347 H 0.49767 0.20025 0.03048 0.0
H348 H 0.43346 0.18147 0.17196 0.0
H349 H 0.50179 0.15491 0.17746 0.0
H350 H 0.58958 0.24857 0.05951 0.0
H351 H 0.57195 0.17996 0.07924 0.0
Li352 Li 0.00838 0.7308 0.14168 0.0
Li353 Li 0.01894 0.75763 0.11184 0.0
Li354 Li 0.99146 0.76846 0.1432 0.0
Li355 Li 0.9795 0.74249 0.11269 0.0
C356 C 0.04067 0.75632 0.16086 0.0
N357 N 0.07389 0.74704 0.19267 0.0
C358 C 0.06281 0.75136 0.15388 0.0
C359 C 0.0355 0.75691 0.18401 0.0
C360 C 0.07935 0.74661 0.17023 0.0
C361 C 0.05251 0.75208 0.19984 0.0
C362 C 0.01433 0.7166 0.08762 0.0
C363 C 0.0103 0.71551 0.04686 0.0
N364 N 0.0257 0.69831 0.0459 0.0
C365 C 0.02993 0.69875 0.08626 0.0
C366 C 0.00429 0.72492 0.0678 0.0
C367 C 0.03553 0.6898 0.065 0.0
C368 C 0.00728 0.69452 0.17398 0.0
N369 N 0.02001 0.70558 0.1582 0.0
C370 C 0.05013 0.67875 0.16255 0.0
C371 C 0.04106 0.69813 0.1524 0.0
C372 C 0.03727 0.66663 0.17861 0.0
C373 C 0.01565 0.67493 0.18451 0.0
H374 H 0.9904 0.70052 0.17795 0.0
H375 H 0.05066 0.70704 0.13953 0.0
C376 C 0.04526 0.79117 0.09029 0.0
N377 N 0.04372 0.76845 0.09407 0.0
C378 C 0.06437 0.80026 0.07956 0.0
C379 C 0.07987 0.76236 0.07656 0.0
C380 C 0.06048 0.75402 0.0874 0.0
C381 C 0.08216 0.78583 0.07281 0.0
H382 H 0.03187 0.80231 0.09615 0.0
H383 H 0.05924 0.73614 0.09131 0.0
C384 C 0.9596 0.74062 0.16236 0.0
N385 N 0.92658 0.74551 0.19535 0.0
C386 C 0.93663 0.74073 0.15633 0.0
C387 C 0.96576 0.7427 0.18519 0.0
C388 C 0.92019 0.74328 0.17325 0.0
C389 C 0.94882 0.74525 0.20161 0.0
C390 C 0.98013 0.78777 0.09355 0.0
C391 C 0.96237 0.80256 0.09899 0.0
C392 C 0.98845 0.78715 0.07131 0.0
C393 C 0.95284 0.81607 0.08196 0.0
C394 C 0.97848 0.80093 0.05477 0.0
N395 N 0.96101 0.81496 0.06038 0.0
C396 C 0.99769 0.80735 0.17053 0.0
C397 C 0.95914 0.79784 0.16386 0.0
C398 C 0.99123 0.82701 0.18217 0.0
N399 N 0.98168 0.79333 0.16154 0.0
C400 C 0.95193 0.81712 0.17562 0.0
C401 C 0.96807 0.83216 0.18467 0.0
H402 H 0.01551 0.80358 0.16811 0.0
H403 H 0.94674 0.78693 0.15589 0.0
C404 C 0.95288 0.70951 0.09089 0.0
N405 N 0.95389 0.73207 0.09571 0.0
C406 C 0.93366 0.70032 0.08043 0.0
C407 C 0.9169 0.73778 0.07989 0.0
C408 C 0.93643 0.74623 0.09042 0.0
C409 C 0.91522 0.71448 0.07501 0.0
H410 H 0.96684 0.69854 0.09562 0.0
H411 H 0.93723 0.76391 0.09511 0.0
O412 O 0.02418 0.76073 0.1451 0.0
O413 O 0.00872 0.72557 0.10832 0.0
O414 O 0.97592 0.73826 0.146 0.0
O415 O 0.98983 0.77462 0.1101 0.0
H416 H 0.06712 0.75095 0.13603 0.0
H417 H 0.01856 0.76114 0.1897 0.0
H418 H 0.09651 0.74256 0.16506 0.0
H419 H 0.04872 0.75238 0.21782 0.0
H420 H 0.00266 0.72182 0.03139 0.0
H421 H 0.03772 0.69195 0.10145 0.0
H422 H 0.99178 0.73831 0.06857 0.0
H423 H 0.04768 0.67608 0.06369 0.0
H424 H 0.06699 0.67321 0.15768 0.0
H425 H 0.005 0.66598 0.19654 0.0
H426 H 0.06534 0.81843 0.07685 0.0
H427 H 0.09333 0.75067 0.07203 0.0
H428 H 0.93154 0.73896 0.13877 0.0
H429 H 0.98342 0.74238 0.19017 0.0
H430 H 0.90236 0.74352 0.16882 0.0
H431 H 0.95335 0.747 0.21933 0.0
H432 H 0.95586 0.80347 0.11613 0.0
H433 H 0.00262 0.77634 0.06689 0.0
H434 H 0.93896 0.82744 0.08591 0.0
H435 H 0.98472 0.80056 0.03749 0.0
H436 H 0.00419 0.83821 0.18892 0.0
H437 H 0.93392 0.82071 0.17677 0.0
H438 H 0.93318 0.68229 0.0768 0.0
H439 H 0.90293 0.74924 0.0764 0.0
Li440 Li 0.4927 0.76923 0.35866 0.0
Li441 Li 0.52066 0.75951 0.3873 0.0
Li442 Li 0.50863 0.73001 0.36062 0.0
Li443 Li 0.48335 0.7441 0.38916 0.0
C444 C 0.5316 0.75968 0.33173 0.0
N445 N 0.54522 0.76055 0.28683 0.0
C446 C 0.55293 0.76833 0.32591 0.0
C447 C 0.51722 0.75139 0.31474 0.0
C448 C 0.55949 0.76866 0.30311 0.0
C449 C 0.52442 0.75199 0.29213 0.0
C450 C 0.49628 0.79908 0.39433 0.0
C451 C 0.48825 0.83517 0.41197 0.0
N452 N 0.50505 0.84491 0.39945 0.0
C453 C 0.51347 0.80946 0.38162 0.0
C454 C 0.48355 0.81203 0.4096 0.0
C455 C 0.51764 0.83264 0.38447 0.0
C456 C 0.46086 0.80221 0.34829 0.0
N457 N 0.48108 0.79389 0.34085 0.0
C458 C 0.48398 0.82381 0.31346 0.0
C459 C 0.49273 0.80429 0.32379 0.0
C460 C 0.46333 0.83297 0.32113 0.0
C461 C 0.45165 0.82181 0.33866 0.0
H462 H 0.45226 0.794 0.36229 0.0
H463 H 0.50915 0.79804 0.31864 0.0
C464 C 0.56714 0.76237 0.39544 0.0
N465 N 0.54679 0.76973 0.40343 0.0
C466 C 0.58732 0.76948 0.40567 0.0
C467 C 0.56521 0.79151 0.43234 0.0
C468 C 0.54543 0.78375 0.42174 0.0
C469 C 0.58659 0.78452 0.42423 0.0
H470 H 0.56766 0.75101 0.381 0.0
H471 H 0.52903 0.78915 0.42796 0.0
C472 C 0.45668 0.72837 0.35683 0.0
N473 N 0.41573 0.70567 0.36031 0.0
C474 C 0.45627 0.70521 0.3621 0.0
C475 C 0.43628 0.73992 0.3531 0.0
C476 C 0.43539 0.69406 0.36384 0.0
C477 C 0.41575 0.72816 0.355 0.0
C478 C 0.51639 0.72323 0.41632 0.0
C479 C 0.5284 0.70376 0.42261 0.0
C480 C 0.50892 0.73835 0.43306 0.0
C481 C 0.53272 0.69968 0.44559 0.0
C482 C 0.51359 0.73368 0.45584 0.0
N483 N 0.52529 0.7146 0.46159 0.0
C484 C 0.54027 0.69664 0.35017 0.0
C485 C 0.50625 0.69312 0.32892 0.0
C486 C 0.549 0.67698 0.34023 0.0
N487 N 0.51919 0.70413 0.34457 0.0
C488 C 0.51425 0.67324 0.31867 0.0
C489 C 0.53583 0.66475 0.32448 0.0
H490 H 0.55019 0.70587 0.3626 0.0
H491 H 0.48958 0.69956 0.32469 0.0
C492 C 0.44041 0.74885 0.41017 0.0
N493 N 0.45863 0.73482 0.40804 0.0
C494 C 0.42055 0.74114 0.42065 0.0
C495 C 0.43901 0.7051 0.42747 0.0
C496 C 0.45843 0.71345 0.41678 0.0
C497 C 0.4195 0.71878 0.42901 0.0
H498 H 0.44096 0.76565 0.40273 0.0
H499 H 0.47298 0.70249 0.4145 0.0
O500 O 0.52516 0.75901 0.35404 0.0
O501 O 0.49154 0.77646 0.39171 0.0
O502 O 0.47692 0.73973 0.35573 0.0
O503 O 0.51226 0.72745 0.39384 0.0
H504 H 0.56427 0.77473 0.3389 0.0
H505 H 0.50066 0.74465 0.31888 0.0
H506 H 0.57593 0.77534 0.29835 0.0
H507 H 0.51347 0.74566 0.2788 0.0
H508 H 0.47852 0.8454 0.42373 0.0
H509 H 0.5235 0.79979 0.36966 0.0
H510 H 0.47013 0.80425 0.41949 0.0
H511 H 0.53088 0.84088 0.37474 0.0
H512 H 0.49368 0.83215 0.30023 0.0
H513 H 0.43565 0.82829 0.34502 0.0
H514 H 0.6033 0.76321 0.39908 0.0
H515 H 0.5637 0.80326 0.4464 0.0
H516 H 0.47189 0.69607 0.36531 0.0
H517 H 0.43628 0.75781 0.34892 0.0
H518 H 0.43481 0.6762 0.36815 0.0
H519 H 0.39983 0.73692 0.35229 0.0
H520 H 0.53435 0.69193 0.40983 0.0
H521 H 0.49962 0.75353 0.42856 0.0
H522 H 0.542 0.68466 0.4507 0.0
H523 H 0.50791 0.74523 0.46897 0.0
H524 H 0.56591 0.67143 0.34489 0.0
H525 H 0.5034 0.66435 0.30677 0.0
H526 H 0.40586 0.75219 0.42122 0.0
H527 H 0.4391 0.68788 0.43395 0.0
Li528 Li 0.5066 0.23036 0.639 0.0
Li529 Li 0.51611 0.25722 0.60898 0.0
Li530 Li 0.49007 0.26914 0.64055 0.0
Li531 Li 0.47749 0.24327 0.61027 0.0
C532 C 0.53538 0.2623 0.6613 0.0
N533 N 0.56117 0.26751 0.70022 0.0
C534 C 0.5591 0.26254 0.66001 0.0
C535 C 0.52482 0.26518 0.68237 0.0
C536 C 0.57183 0.26505 0.67988 0.0
C537 C 0.53813 0.26767 0.70185 0.0
C538 C 0.51953 0.21753 0.58863 0.0
C539 C 0.53003 0.21595 0.54907 0.0
N540 N 0.54832 0.20294 0.55456 0.0
C541 C 0.5383 0.20397 0.59387 0.0
C542 C 0.51523 0.22341 0.56604 0.0
C543 C 0.5527 0.19682 0.5764 0.0
C544 C 0.5031 0.18816 0.66188 0.0
N545 N 0.51772 0.20491 0.65561 0.0
C546 C 0.5493 0.18361 0.6696 0.0
C547 C 0.54042 0.20302 0.6593 0.0
C548 C 0.53467 0.1659 0.67608 0.0
C549 C 0.51123 0.16847 0.67238 0.0
H550 H 0.48517 0.18985 0.65823 0.0
H551 H 0.55176 0.21623 0.65353 0.0
C552 C 0.53821 0.28458 0.57575 0.0
N553 N 0.54086 0.26717 0.59068 0.0
C554 C 0.55699 0.29333 0.56414 0.0
C555 C 0.58073 0.26575 0.58315 0.0
C556 C 0.56152 0.25754 0.59435 0.0
C557 C 0.57871 0.28415 0.56808 0.0
H558 H 0.52163 0.29209 0.57332 0.0
H559 H 0.56317 0.24389 0.60651 0.0
C560 C 0.46123 0.23589 0.66261 0.0
N561 N 0.43472 0.22852 0.70068 0.0
C562 C 0.43754 0.23612 0.66092 0.0
C563 C 0.47141 0.23151 0.68361 0.0
C564 C 0.42444 0.23248 0.68038 0.0
C565 C 0.45773 0.22792 0.70267 0.0
C566 C 0.47208 0.2854 0.59359 0.0
C567 C 0.45565 0.29988 0.60278 0.0
C568 C 0.47226 0.28119 0.57023 0.0
C569 C 0.43943 0.30962 0.58845 0.0
C570 C 0.45573 0.29123 0.55647 0.0
N571 N 0.43979 0.30511 0.56579 0.0
C572 C 0.49579 0.31249 0.65885 0.0
C573 C 0.46108 0.29527 0.6698 0.0
C574 C 0.48975 0.33263 0.66985 0.0
N575 N 0.4814 0.29443 0.65884 0.0
C576 C 0.45441 0.31502 0.68112 0.0
C577 C 0.46867 0.33417 0.68093 0.0
H578 H 0.51175 0.3114 0.64981 0.0
H579 H 0.44965 0.28099 0.6691 0.0
C580 C 0.45227 0.21557 0.57979 0.0
N581 N 0.45124 0.23402 0.59363 0.0
C582 C 0.43266 0.20758 0.56899 0.0
C583 C 0.41144 0.23799 0.5866 0.0
C584 C 0.4314 0.24531 0.59708 0.0
C585 C 0.4118 0.21867 0.57258 0.0
H586 H 0.46818 0.20666 0.57762 0.0
H587 H 0.43094 0.25972 0.60844 0.0
O588 O 0.52268 0.25999 0.64194 0.0
O589 O 0.50547 0.22503 0.60554 0.0
O590 O 0.47428 0.23933 0.64365 0.0
O591 O 0.48799 0.27556 0.60738 0.0
H592 H 0.56762 0.26069 0.64385 0.0
H593 H 0.50654 0.26576 0.68369 0.0
H594 H 0.59019 0.26508 0.67912 0.0
H595 H 0.53013 0.26984 0.71825 0.0
H596 H 0.52697 0.22048 0.53152 0.0
H597 H 0.54182 0.19914 0.61123 0.0
H598 H 0.50065 0.23366 0.56168 0.0
H599 H 0.56738 0.18645 0.58023 0.0
H600 H 0.56747 0.18236 0.67221 0.0
H601 H 0.49941 0.15509 0.6768 0.0
H602 H 0.55457 0.30735 0.55249 0.0
H603 H 0.59712 0.25834 0.58701 0.0
H604 H 0.42931 0.23919 0.64481 0.0
H605 H 0.48966 0.23054 0.68518 0.0
H606 H 0.40609 0.23277 0.67932 0.0
H607 H 0.46541 0.22456 0.71902 0.0
H608 H 0.45529 0.30344 0.62079 0.0
H609 H 0.48498 0.27024 0.5628 0.0
H610 H 0.42653 0.32075 0.59535 0.0
H611 H 0.4556 0.288 0.53838 0.0
H612 H 0.50131 0.34694 0.66941 0.0
H613 H 0.43785 0.3156 0.6891 0.0
H614 H 0.43371 0.19243 0.55861 0.0
H615 H 0.39584 0.24724 0.58967 0.0
Li616 Li 0.99458 0.27108 0.85561 0.0
Li617 Li 0.02043 0.25902 0.8843 0.0
Li618 Li 0.01026 0.23379 0.85333 0.0
Li619 Li 0.9814 0.24339 0.88219 0.0
C620 C 0.04043 0.28143 0.8484 0.0
N621 N 0.06805 0.31898 0.84282 0.0
C622 C 0.03497 0.30197 0.85901 0.0
C623 C 0.05994 0.28 0.83497 0.0
C624 C 0.04914 0.32076 0.85598 0.0
C625 C 0.07368 0.29917 0.83234 0.0
C626 C 0.98716 0.27962 0.91118 0.0
C627 C 0.98989 0.26895 0.95066 0.0
N628 N 0.97971 0.28881 0.95662 0.0
C629 C 0.97674 0.29992 0.9177 0.0
C630 C 0.99382 0.26398 0.92779 0.0
C631 C 0.97312 0.30426 0.94075 0.0
C632 C 0.96655 0.30851 0.84899 0.0
N633 N 0.98412 0.29714 0.83929 0.0
C634 C 0.98626 0.3245 0.80933 0.0
C635 C 0.99393 0.30454 0.81972 0.0
C636 C 0.96846 0.33692 0.81931 0.0
C637 C 0.95844 0.32853 0.83927 0.0
H638 H 0.95895 0.30207 0.86442 0.0
H639 H 0.00788 0.29514 0.81235 0.0
C640 C 0.06415 0.25527 0.90354 0.0
N641 N 0.04523 0.26849 0.90293 0.0
C642 C 0.08375 0.2629 0.91457 0.0
C643 C 0.064 0.29761 0.92409 0.0
C644 C 0.04475 0.28923 0.9131 0.0
C645 C 0.08393 0.28453 0.92464 0.0
H646 H 0.0643 0.23919 0.89468 0.0
H647 H 0.02975 0.29972 0.9119 0.0
C648 C 0.96835 0.2486 0.82865 0.0
N649 N 0.94927 0.26342 0.7884 0.0
C650 C 0.94551 0.25504 0.82793 0.0
C651 C 0.98147 0.24965 0.80888 0.0
C652 C 0.93619 0.26252 0.80742 0.0
C653 C 0.97151 0.25718 0.7887 0.0
C654 C 0.01266 0.2039 0.88762 0.0
C655 C 0.99544 0.1902 0.87866 0.0
C656 C 0.03221 0.19384 0.89657 0.0
C657 C 0.99815 0.16663 0.87868 0.0
C658 C 0.03426 0.17019 0.89629 0.0
N659 N 0.01735 0.15719 0.8874 0.0
C660 C 0.044 0.20344 0.83954 0.0
C661 C 0.00835 0.19664 0.82204 0.0
C662 C 0.0529 0.18364 0.83002 0.0
N663 N 0.02201 0.20931 0.83571 0.0
C664 C 0.0167 0.17689 0.81181 0.0
C665 C 0.0391 0.16998 0.81617 0.0
H666 H 0.05433 0.21369 0.85078 0.0
H667 H 0.99075 0.20138 0.81975 0.0
C668 C 0.93547 0.24273 0.89508 0.0
N669 N 0.95597 0.23299 0.89927 0.0
C670 C 0.91599 0.23486 0.90611 0.0
C671 C 0.93928 0.20777 0.92634 0.0
C672 C 0.9583 0.21621 0.91496 0.0
C673 C 0.91769 0.21685 0.92169 0.0
H674 H 0.93423 0.25646 0.88297 0.0
H675 H 0.97489 0.20921 0.91851 0.0
O676 O 0.02703 0.26265 0.85128 0.0
O677 O 0.99067 0.27523 0.88861 0.0
O678 O 0.97803 0.24186 0.84867 0.0
O679 O 0.0107 0.22705 0.88688 0.0
H680 H 0.01998 0.30344 0.86952 0.0
H681 H 0.06443 0.26419 0.8267 0.0
H682 H 0.04513 0.33674 0.86411 0.0
H683 H 0.08885 0.2983 0.822 0.0
H684 H 0.99495 0.257 0.96368 0.0
H685 H 0.97153 0.31223 0.90507 0.0
H686 H 0.00197 0.24821 0.9232 0.0
H687 H 0.96507 0.31992 0.94603 0.0
H688 H 0.99451 0.33042 0.794 0.0
H689 H 0.9444 0.33731 0.84729 0.0
H690 H 0.09889 0.25245 0.91433 0.0
H691 H 0.06345 0.31436 0.93171 0.0
H692 H 0.9351 0.25437 0.84303 0.0
H693 H 0.99927 0.24506 0.80921 0.0
H694 H 0.91855 0.26762 0.80664 0.0
H695 H 0.9815 0.25819 0.77331 0.0
H696 H 0.9803 0.19773 0.87143 0.0
H697 H 0.04569 0.20415 0.90358 0.0
H698 H 0.98503 0.15584 0.87166 0.0
H699 H 0.04934 0.16217 0.90308 0.0
H700 H 0.07029 0.17887 0.83369 0.0
H701 H 0.00551 0.16663 0.80141 0.0
H702 H 0.89971 0.24235 0.90197 0.0
H703 H 0.94144 0.19422 0.9386 0.0
Li704 Li 0.38976 0.02082 0.24713 0.0
Li705 Li 0.36037 0.00998 0.27347 0.0
Li706 Li 0.38962 0.98255 0.2601 0.0
Li707 Li 0.36017 0.99487 0.23339 0.0
C708 C 0.40934 0.02374 0.28879 0.0
N709 N 0.4415 0.0516 0.30863 0.0
C710 C 0.40275 0.04024 0.30456 0.0
C711 C 0.4323 0.02127 0.28329 0.0
C712 C 0.41927 0.05418 0.31437 0.0
C713 C 0.44829 0.03558 0.29344 0.0
C714 C 0.35612 0.04982 0.24118 0.0
C715 C 0.35901 0.08211 0.21606 0.0
N716 N 0.35786 0.09627 0.23428 0.0
C717 C 0.35514 0.06473 0.25965 0.0
C718 C 0.35815 0.0586 0.2192 0.0
C719 C 0.35594 0.08814 0.25581 0.0
C720 C 0.41632 0.04504 0.21541 0.0
N721 N 0.40812 0.04597 0.23698 0.0
C722 C 0.4215 0.08414 0.24106 0.0
C723 C 0.41066 0.06499 0.24986 0.0
C724 C 0.42957 0.08394 0.21861 0.0
C725 C 0.42715 0.06389 0.20584 0.0
H726 H 0.41364 0.02995 0.20529 0.0
H727 H 0.40343 0.06578 0.26665 0.0
C728 C 0.3498 0.01191 0.31983 0.0
N729 N 0.34213 0.01794 0.29892 0.0
C730 C 0.33841 0.01919 0.33931 0.0
C731 C 0.31077 0.03781 0.3153 0.0
C732 C 0.32267 0.03008 0.29628 0.0
C733 C 0.31889 0.03276 0.33719 0.0
H734 H 0.36527 0.0021 0.32136 0.0
H735 H 0.3168 0.03439 0.27941 0.0
C736 C 0.40897 0.97892 0.21965 0.0
N737 N 0.44093 0.9489 0.20292 0.0
C738 C 0.40212 0.96001 0.20703 0.0
C739 C 0.43208 0.98276 0.22347 0.0
C740 C 0.41853 0.94498 0.1988 0.0
C741 C 0.44797 0.96733 0.21495 0.0
C742 C 0.33461 0.97111 0.26688 0.0
C743 C 0.33063 0.95136 0.27943 0.0
C744 C 0.31627 0.98401 0.25909 0.0
C745 C 0.30827 0.94481 0.28396 0.0
C746 C 0.29417 0.9769 0.26398 0.0
N747 N 0.29066 0.9576 0.27621 0.0
C748 C 0.42184 0.95762 0.28608 0.0
C749 C 0.40063 0.93602 0.25952 0.0
C750 C 0.43253 0.93799 0.29406 0.0
N751 N 0.40619 0.95627 0.26916 0.0
C752 C 0.41109 0.91601 0.26679 0.0
C753 C 0.42705 0.91681 0.2845 0.0
H754 H 0.42559 0.97383 0.29381 0.0
H755 H 0.38763 0.93537 0.24655 0.0
C756 C 0.33861 0.99765 0.19006 0.0
N757 N 0.34254 0.98412 0.20834 0.0
C758 C 0.32796 0.9889 0.17072 0.0
C759 C 0.3251 0.95258 0.1896 0.0
C760 C 0.33588 0.962 0.2085 0.0
C761 C 0.32136 0.96595 0.17017 0.0
H762 H 0.34441 0.01502 0.19015 0.0
H763 H 0.33958 0.95144 0.22306 0.0
O764 O 0.39343 0.00982 0.27912 0.0
O765 O 0.35576 0.0268 0.24466 0.0
O766 O 0.39315 0.99366 0.22813 0.0
O767 O 0.35641 0.97782 0.26249 0.0
H768 H 0.38507 0.0425 0.30895 0.0
H769 H 0.43772 0.00846 0.27131 0.0
H770 H 0.4144 0.06712 0.32648 0.0
H771 H 0.46611 0.03391 0.28925 0.0
H772 H 0.36072 0.0891 0.19915 0.0
H773 H 0.35434 0.05836 0.27684 0.0
H774 H 0.35954 0.04742 0.20472 0.0
H775 H 0.35529 0.09983 0.26997 0.0
H776 H 0.42315 0.09908 0.25166 0.0
H777 H 0.43274 0.06301 0.18834 0.0
H778 H 0.34535 0.01503 0.35583 0.0
H779 H 0.29559 0.04792 0.31292 0.0
H780 H 0.38431 0.95685 0.20381 0.0
H781 H 0.43767 0.99752 0.23285 0.0
H782 H 0.41346 0.93017 0.18915 0.0
H783 H 0.46591 0.97004 0.21786 0.0
H784 H 0.34468 0.94123 0.2856 0.0
H785 H 0.31904 0.99938 0.24939 0.0
H786 H 0.30492 0.92955 0.29365 0.0
H787 H 0.27981 0.98672 0.25807 0.0
H788 H 0.44479 0.93933 0.30772 0.0
H789 H 0.40611 0.89998 0.25923 0.0
H790 H 0.32575 0.99978 0.15605 0.0
H791 H 0.32008 0.93489 0.19009 0.0
Li792 Li 0.22455 0.14024 0.49395 0.0
Li793 Li 0.23718 0.11112 0.51965 0.0
Li794 Li 0.26461 0.14072 0.50947 0.0
Li795 Li 0.25309 0.11132 0.48263 0.0
C796 C 0.22194 0.14592 0.54484 0.0
N797 N 0.19577 0.14721 0.58383 0.0
C798 C 0.19824 0.1465 0.54334 0.0
C799 C 0.2323 0.14603 0.5662 0.0
C800 C 0.18532 0.14717 0.56323 0.0
C801 C 0.21879 0.14664 0.5857 0.0
C802 C 0.2053 0.09033 0.4948 0.0
C803 C 0.19662 0.05139 0.50417 0.0
N804 N 0.1741 0.05656 0.50434 0.0
C805 C 0.18207 0.09526 0.49504 0.0
C806 C 0.21265 0.06821 0.49934 0.0
C807 C 0.16657 0.07795 0.4999 0.0
C808 C 0.1887 0.14954 0.46459 0.0
N809 N 0.20005 0.1581 0.48275 0.0
C810 C 0.17456 0.18967 0.48475 0.0
C811 C 0.19371 0.17801 0.49263 0.0
C812 C 0.16192 0.18067 0.4666 0.0
C813 C 0.16944 0.16052 0.45626 0.0
H814 H 0.19435 0.13384 0.45689 0.0
H815 H 0.20318 0.18452 0.50697 0.0
C816 C 0.2439 0.0831 0.55831 0.0
N817 N 0.22769 0.09298 0.54514 0.0
C818 C 0.2378 0.07123 0.57797 0.0
C819 C 0.19846 0.07979 0.57005 0.0
C820 C 0.20531 0.09149 0.55066 0.0
C821 C 0.21478 0.06956 0.58411 0.0
H822 H 0.26162 0.08478 0.55375 0.0
H823 H 0.19271 0.09985 0.54033 0.0
C824 C 0.25487 0.16651 0.46956 0.0
N825 N 0.25533 0.21058 0.45343 0.0
C826 C 0.25833 0.17071 0.44646 0.0
C827 C 0.2515 0.18471 0.48445 0.0
C828 C 0.25855 0.19312 0.43864 0.0
C829 C 0.25183 0.20687 0.47597 0.0
C830 C 0.28659 0.09377 0.50491 0.0
C831 C 0.30636 0.10304 0.49558 0.0
C832 C 0.28416 0.0702 0.50629 0.0
C833 C 0.32332 0.08851 0.48756 0.0
C834 C 0.30151 0.05624 0.49809 0.0
N835 N 0.32055 0.06561 0.48895 0.0
C836 C 0.29627 0.15505 0.54175 0.0
C837 C 0.3029 0.17091 0.50538 0.0
C838 C 0.31557 0.16576 0.5504 0.0
N839 N 0.29016 0.15798 0.51969 0.0
C840 C 0.32237 0.18197 0.51332 0.0
C841 C 0.32895 0.17946 0.53614 0.0
H842 H 0.2865 0.14384 0.55247 0.0
H843 H 0.2983 0.1723 0.48767 0.0
C844 C 0.25681 0.07378 0.45154 0.0
N845 N 0.26438 0.09489 0.45708 0.0
C846 C 0.26515 0.06277 0.43221 0.0
C847 C 0.28884 0.09546 0.4247 0.0
C848 C 0.28016 0.10575 0.4442 0.0
C849 C 0.28123 0.07374 0.41839 0.0
H850 H 0.24415 0.06556 0.46192 0.0
H851 H 0.28597 0.12249 0.44908 0.0
O852 O 0.23488 0.145 0.52552 0.0
O853 O 0.22073 0.10706 0.49006 0.0
O854 O 0.25419 0.14464 0.47739 0.0
O855 O 0.26951 0.10771 0.51219 0.0
H856 H 0.18984 0.14582 0.52703 0.0
H857 H 0.25056 0.14549 0.56777 0.0
H858 H 0.16697 0.14746 0.56229 0.0
H859 H 0.22661 0.14663 0.60234 0.0
H860 H 0.20209 0.03424 0.50787 0.0
H861 H 0.17605 0.1123 0.49179 0.0
H862 H 0.23054 0.06416 0.49955 0.0
H863 H 0.14855 0.08154 0.50023 0.0
H864 H 0.16932 0.20514 0.49322 0.0
H865 H 0.16046 0.15325 0.44195 0.0
H866 H 0.25094 0.06352 0.58827 0.0
H867 H 0.18058 0.07937 0.57434 0.0
H868 H 0.26076 0.15678 0.43469 0.0
H869 H 0.24868 0.18178 0.50237 0.0
H870 H 0.26124 0.19662 0.4208 0.0
H871 H 0.24928 0.22111 0.48729 0.0
H872 H 0.30845 0.12125 0.49424 0.0
H873 H 0.26901 0.06276 0.51357 0.0
H874 H 0.33864 0.09544 0.48015 0.0
H875 H 0.29982 0.03796 0.49896 0.0
H876 H 0.32031 0.16281 0.56793 0.0
H877 H 0.33217 0.19233 0.5017 0.0
H878 H 0.2587 0.0461 0.42784 0.0
H879 H 0.30148 0.10438 0.41474 0.0
Li880 Li 0.144 0.00679 0.73391 0.0
Li881 Li 0.11364 0.01952 0.75934 0.0
Li882 Li 0.14282 0.99303 0.77436 0.0
Li883 Li 0.11432 0.98067 0.74757 0.0
C884 C 0.16857 0.03184 0.76684 0.0
N885 N 0.21243 0.04581 0.77593 0.0
C886 C 0.17247 0.05269 0.77747 0.0
C887 C 0.18696 0.01804 0.76087 0.0
C888 C 0.19478 0.05947 0.7819 0.0
C889 C 0.20901 0.02542 0.76561 0.0
C890 C 0.09626 0.02199 0.71763 0.0
C891 C 0.05796 0.03459 0.71044 0.0
N892 N 0.06619 0.05176 0.69734 0.0
C893 C 0.10434 0.03961 0.70391 0.0
C894 C 0.07289 0.01931 0.72077 0.0
C895 C 0.08886 0.05454 0.69387 0.0
C896 C 0.16138 0.00217 0.68977 0.0
N897 N 0.16171 0.01587 0.70834 0.0
C898 C 0.18289 0.04398 0.68804 0.0
C899 C 0.17218 0.03647 0.70784 0.0
C900 C 0.18259 0.0303 0.66847 0.0
C901 C 0.1719 0.00898 0.66964 0.0
H902 H 0.15221 0.9863 0.69034 0.0
H903 H 0.17147 0.0475 0.72249 0.0
C904 C 0.08162 0.04472 0.78508 0.0
N905 N 0.09634 0.0457 0.76732 0.0
C906 C 0.07069 0.0644 0.79265 0.0
C907 C 0.0898 0.08558 0.7631 0.0
C908 C 0.10065 0.06558 0.75636 0.0
C909 C 0.07489 0.08518 0.7817 0.0
H910 H 0.07888 0.02882 0.79383 0.0
H911 H 0.11303 0.06604 0.74282 0.0
C912 C 0.15035 0.95223 0.7448 0.0
N913 N 0.15424 0.9055 0.74181 0.0
C914 C 0.14844 0.93878 0.76428 0.0
C915 C 0.15425 0.94186 0.72379 0.0
C916 C 0.15048 0.91521 0.76243 0.0
C917 C 0.15615 0.91823 0.72263 0.0
C918 C 0.09348 0.97874 0.78822 0.0
C919 C 0.09958 0.96266 0.80461 0.0
C920 C 0.07078 0.98071 0.78157 0.0
C921 C 0.08286 0.94855 0.81381 0.0
C922 C 0.05457 0.96625 0.79114 0.0
N923 N 0.0609 0.9506 0.80691 0.0
C924 C 0.15178 0.99387 0.82083 0.0
C925 C 0.17916 0.97308 0.79987 0.0
C926 C 0.16204 0.9876 0.84126 0.0
N927 N 0.1601 0.98609 0.80076 0.0
C928 C 0.18988 0.96625 0.81993 0.0
C929 C 0.18102 0.97311 0.84105 0.0
H930 H 0.13673 0.0044 0.82095 0.0
H931 H 0.18553 0.96731 0.78363 0.0
C932 C 0.0882 0.9561 0.71599 0.0
N933 N 0.09669 0.95503 0.73744 0.0
C934 C 0.07735 0.93729 0.70639 0.0
C935 C 0.08388 0.9166 0.74119 0.0
C936 C 0.09446 0.93586 0.75016 0.0
C937 C 0.07541 0.91701 0.71887 0.0
H938 H 0.09036 0.9714 0.70607 0.0
H939 H 0.10159 0.93512 0.76701 0.0
O940 O 0.1468 0.02494 0.76256 0.0
O941 O 0.11114 0.00731 0.72777 0.0
O942 O 0.14829 0.97536 0.74627 0.0
O943 O 0.10959 0.99273 0.77904 0.0
H944 H 0.15838 0.06352 0.78223 0.0
H945 H 0.18427 0.00184 0.75263 0.0
H946 H 0.19807 0.07559 0.7901 0.0
H947 H 0.2234 0.01493 0.76107 0.0
H948 H 0.03982 0.03278 0.71281 0.0
H949 H 0.12237 0.04188 0.70122 0.0
H950 H 0.06635 0.00555 0.73102 0.0
H951 H 0.09488 0.06835 0.68335 0.0
H952 H 0.19044 0.06076 0.6878 0.0
H953 H 0.17128 0.99783 0.65501 0.0
H954 H 0.05931 0.06345 0.80707 0.0
H955 H 0.09376 0.10135 0.75449 0.0
H956 H 0.14491 0.94638 0.7806 0.0
H957 H 0.15579 0.9519 0.70852 0.0
H958 H 0.14889 0.90463 0.77737 0.0
H959 H 0.15914 0.91001 0.70647 0.0
H960 H 0.11704 0.96095 0.81004 0.0
H961 H 0.06575 0.99325 0.76915 0.0
H962 H 0.08735 0.93594 0.82639 0.0
H963 H 0.03696 0.96751 0.78605 0.0
H964 H 0.1549 0.99373 0.85706 0.0
H965 H 0.20436 0.95496 0.81888 0.0
H966 H 0.07081 0.93857 0.68924 0.0
H967 H 0.08314 0.90131 0.75138 0.0
Li968 Li 0.27115 0.85823 0.9949 0.0
Li969 Li 0.26039 0.88816 0.02197 0.0
Li970 Li 0.23156 0.8588 0.00965 0.0
Li971 Li 0.244 0.88904 0.98441 0.0
C972 C 0.26713 0.8366 0.03967 0.0
N973 N 0.28021 0.80018 0.06632 0.0
C974 C 0.28452 0.83909 0.05565 0.0
C975 C 0.25614 0.81564 0.03756 0.0
C976 C 0.29097 0.82046 0.06887 0.0
C977 C 0.26306 0.79742 0.05109 0.0
C978 C 0.29408 0.90596 0.99684 0.0
C979 C 0.30802 0.94342 0.00586 0.0
N980 N 0.32956 0.93509 0.00663 0.0
C981 C 0.31637 0.8978 0.99756 0.0
C982 C 0.28986 0.92898 0.00085 0.0
C983 C 0.33407 0.91279 0.00259 0.0
C984 C 0.29972 0.84167 0.96106 0.0
N985 N 0.29609 0.84074 0.98384 0.0
C986 C 0.32997 0.81894 0.98906 0.0
C987 C 0.31064 0.82955 0.99786 0.0
C988 C 0.33446 0.8201 0.96564 0.0
C989 C 0.31887 0.83141 0.95155 0.0
H990 H 0.28795 0.85087 0.95036 0.0
H991 H 0.30771 0.8294 0.01593 0.0
C992 C 0.25673 0.91778 0.06001 0.0
N993 N 0.27128 0.90495 0.04748 0.0
C994 C 0.26431 0.92869 0.07973 0.0
C995 C 0.30175 0.91327 0.07298 0.0
C996 C 0.29344 0.90264 0.05352 0.0
C997 C 0.28706 0.92625 0.08661 0.0
H998 H 0.2391 0.9191 0.055 0.0
H999 H 0.30461 0.89213 0.04345 0.0
C1000 C 0.23675 0.83559 0.96761 0.0
N1001 N 0.22642 0.79449 0.94735 0.0
C1002 C 0.22208 0.83481 0.94894 0.0
C1003 C 0.24644 0.81549 0.97571 0.0
C1004 C 0.21698 0.81386 0.93901 0.0
C1005 C 0.24094 0.79489 0.96531 0.0
C1006 C 0.21183 0.90797 0.00869 0.0
C1007 C 0.18982 0.90112 0.00298 0.0
C1008 C 0.21741 0.93104 0.00847 0.0
C1009 C 0.1738 0.91752 0.99682 0.0
C1010 C 0.20092 0.94691 0.00219 0.0
N1011 N 0.17965 0.93987 0.99652 0.0
C1012 C 0.20272 0.84056 0.04263 0.0
C1013 C 0.1901 0.83369 0.00502 0.0
C1014 C 0.18311 0.83056 0.05146 0.0
N1015 N 0.20579 0.84201 0.0198 0.0
C1016 C 0.17025 0.82349 0.01312 0.0
C1017 C 0.16641 0.82211 0.03664 0.0
H1018 H 0.21534 0.84761 0.05397 0.0
H1019 H 0.19257 0.83567 0.98696 0.0
C1020 C 0.24566 0.92508 0.95161 0.0
N1021 N 0.23343 0.90735 0.95994 0.0
C1022 C 0.23756 0.93749 0.93302 0.0
C1023 C 0.20452 0.91312 0.93208 0.0
C1024 C 0.21323 0.90126 0.95062 0.0
C1025 C 0.21674 0.93149 0.92294 0.0
H1026 H 0.26177 0.92946 0.95923 0.0
H1027 H 0.20395 0.88699 0.95753 0.0
O1028 O 0.26043 0.85479 0.02678 0.0
O1029 O 0.27651 0.8915 0.99212 0.0
O1030 O 0.24193 0.85601 0.97748 0.0
O1031 O 0.22789 0.89213 0.01425 0.0
H1032 H 0.2931 0.85516 0.05775 0.0
H1033 H 0.24225 0.81344 0.02576 0.0
H1034 H 0.30452 0.82214 0.08117 0.0
H1035 H 0.25472 0.78112 0.04956 0.0
H1036 H 0.30499 0.96124 0.00914 0.0
H1037 H 0.31997 0.88006 0.99442 0.0
H1038 H 0.27274 0.93558 0.00029 0.0
H1039 H 0.35138 0.90669 0.00332 0.0
H1040 H 0.34168 0.81065 0.00056 0.0
H1041 H 0.32154 0.8325 0.93338 0.0
H1042 H 0.25232 0.93832 0.08982 0.0
H1043 H 0.31948 0.91118 0.07739 0.0
H1044 H 0.21464 0.8502 0.94222 0.0
H1045 H 0.25828 0.81579 0.98968 0.0
H1046 H 0.20554 0.81301 0.92465 0.0
H1047 H 0.2483 0.77921 0.97146 0.0
H1048 H 0.18522 0.88334 0.00307 0.0
H1049 H 0.23431 0.93662 0.013 0.0
H1050 H 0.15675 0.91246 0.99221 0.0
H1051 H 0.20503 0.96482 0.00182 0.0
H1052 H 0.18096 0.82965 0.06971 0.0
H1053 H 0.15767 0.81752 0.00109 0.0
H1054 H 0.24746 0.95163 0.92666 0.0
H1055 H 0.18862 0.90759 0.92467 0.0
Li1056 Li 0.24225 0.39062 0.01815 0.0
Li1057 Li 0.26908 0.3607 0.00724 0.0
Li1058 Li 0.25664 0.39106 0.97929 0.0
Li1059 Li 0.23044 0.36067 0.99024 0.0
C1060 C 0.28374 0.40916 0.02295 0.0
N1061 N 0.30224 0.43937 0.05375 0.0
C1062 C 0.29399 0.40118 0.04282 0.0
C1063 C 0.28322 0.43248 0.01857 0.0
C1064 C 0.30315 0.41673 0.05823 0.0
C1065 C 0.29258 0.44749 0.0344 0.0
C1066 C 0.23678 0.33702 0.03408 0.0
C1067 C 0.23606 0.29605 0.03395 0.0
N1068 N 0.23224 0.29615 0.05674 0.0
C1069 C 0.23267 0.33672 0.05747 0.0
C1070 C 0.23835 0.31653 0.0222 0.0
C1071 C 0.23049 0.31589 0.06863 0.0
C1072 C 0.21635 0.42414 0.04192 0.0
N1073 N 0.23252 0.40778 0.04389 0.0
C1074 C 0.23338 0.41249 0.08424 0.0
C1075 C 0.24114 0.4019 0.06449 0.0
C1076 C 0.21638 0.42918 0.08282 0.0
C1077 C 0.20805 0.43517 0.06124 0.0
H1078 H 0.20943 0.42826 0.02544 0.0
H1079 H 0.25362 0.38848 0.06564 0.0
C1080 C 0.31264 0.34129 0.00338 0.0
N1081 N 0.29446 0.34339 0.01746 0.0
C1082 C 0.33252 0.3307 0.01094 0.0
C1083 C 0.31439 0.32426 0.0472 0.0
C1084 C 0.29497 0.33507 0.03899 0.0
C1085 C 0.33369 0.32229 0.03327 0.0
H1086 H 0.3119 0.3484 0.98645 0.0
H1087 H 0.28061 0.33747 0.05011 0.0
C1088 C 0.21543 0.41162 0.97772 0.0
N1089 N 0.19767 0.44733 0.95296 0.0
C1090 C 0.19749 0.40791 0.96261 0.0
C1091 C 0.22415 0.43354 0.98042 0.0
C1092 C 0.18879 0.42618 0.9502 0.0
C1093 C 0.215 0.45135 0.9677 0.0
C1094 C 0.26195 0.34068 0.95916 0.0
C1095 C 0.25691 0.34483 0.93633 0.0
C1096 C 0.2695 0.31914 0.96572 0.0
C1097 C 0.25879 0.32718 0.92058 0.0
C1098 C 0.2712 0.30193 0.94947 0.0
N1099 N 0.26581 0.30626 0.92742 0.0
C1100 C 0.2872 0.41852 0.95419 0.0
C1101 C 0.25304 0.40937 0.93497 0.0
C1102 C 0.29552 0.42961 0.9349 0.0
N1103 N 0.26637 0.40856 0.95381 0.0
C1104 C 0.26062 0.42035 0.91537 0.0
C1105 C 0.28228 0.43038 0.91501 0.0
H1106 H 0.29762 0.41729 0.96927 0.0
H1107 H 0.23672 0.40097 0.93493 0.0
C1108 C 0.19133 0.33171 0.99314 0.0
N1109 N 0.20547 0.34325 0.97895 0.0
C1110 C 0.17209 0.32072 0.98458 0.0
C1111 C 0.18201 0.33413 0.94707 0.0
C1112 C 0.20115 0.34461 0.95631 0.0
C1113 C 0.1671 0.32214 0.9613 0.0
H1114 H 0.19452 0.3316 0.01121 0.0
H1115 H 0.2121 0.35463 0.94554 0.0
O1116 O 0.27449 0.39419 0.00776 0.0
O1117 O 0.23927 0.35729 0.02297 0.0
O1118 O 0.22441 0.39388 0.98976 0.0
O1119 O 0.26047 0.35787 0.97479 0.0
H1120 H 0.29464 0.38319 0.04644 0.0
H1121 H 0.27581 0.43894 0.00306 0.0
H1122 H 0.31096 0.41079 0.07377 0.0
H1123 H 0.29222 0.4656 0.03126 0.0
H1124 H 0.23721 0.28008 0.02494 0.0
H1125 H 0.23123 0.35241 0.06693 0.0
H1126 H 0.2409 0.31648 0.00406 0.0
H1127 H 0.2274 0.31541 0.08673 0.0
H1128 H 0.24001 0.40703 0.1005 0.0
H1129 H 0.19506 0.44805 0.05933 0.0
H1130 H 0.34705 0.32988 0.9997 0.0
H1131 H 0.31437 0.31783 0.06443 0.0
H1132 H 0.19035 0.39113 0.96048 0.0
H1133 H 0.23786 0.43672 0.99219 0.0
H1134 H 0.17497 0.42353 0.93838 0.0
H1135 H 0.22168 0.46838 0.96955 0.0
H1136 H 0.25147 0.36146 0.93082 0.0
H1137 H 0.27422 0.31573 0.98314 0.0
H1138 H 0.25473 0.33013 0.9029 0.0
H1139 H 0.27691 0.28516 0.95436 0.0
H1140 H 0.31245 0.43678 0.93534 0.0
H1141 H 0.24969 0.42073 0.90058 0.0
H1142 H 0.16076 0.31199 0.99616 0.0
H1143 H 0.17874 0.33566 0.92903 0.0
Li1144 Li 0.73481 0.14159 0.00724 0.0
Li1145 Li 0.76122 0.11107 0.0182 0.0
Li1146 Li 0.77228 0.14038 0.98993 0.0
Li1147 Li 0.74543 0.11089 0.97886 0.0
C1148 C 0.76416 0.16194 0.03745 0.0
N1149 N 0.76165 0.19756 0.06792 0.0
C1150 C 0.76801 0.15816 0.06057 0.0
C1151 C 0.75915 0.18385 0.02982 0.0
C1152 C 0.76664 0.17639 0.07571 0.0
C1153 C 0.75792 0.20163 0.04548 0.0
C1154 C 0.71497 0.09318 0.01867 0.0
C1155 C 0.69615 0.05676 0.01968 0.0
N1156 N 0.68567 0.06283 0.03935 0.0
C1157 C 0.70375 0.09916 0.03872 0.0
C1158 C 0.71092 0.0719 0.00891 0.0
C1159 C 0.68913 0.08354 0.049 0.0
C1160 C 0.69382 0.16598 0.00275 0.0
N1161 N 0.70976 0.1591 0.01797 0.0
C1162 C 0.68739 0.17305 0.04882 0.0
C1163 C 0.70699 0.16258 0.04062 0.0
C1164 C 0.67018 0.17963 0.03362 0.0
C1165 C 0.67379 0.17635 0.01023 0.0
H1166 H 0.6963 0.16267 0.98484 0.0
H1167 H 0.7196 0.15648 0.05246 0.0
C1168 C 0.79191 0.08341 0.04342 0.0
N1169 N 0.77136 0.09394 0.04392 0.0
C1170 C 0.80041 0.07275 0.06283 0.0
C1171 C 0.76668 0.08427 0.08313 0.0
C1172 C 0.75874 0.09453 0.06326 0.0
C1173 C 0.78792 0.07337 0.08318 0.0
H1174 H 0.80208 0.0838 0.02816 0.0
H1175 H 0.74298 0.10388 0.06357 0.0
C1176 C 0.74733 0.15903 0.95731 0.0
N1177 N 0.75832 0.18883 0.92277 0.0
C1178 C 0.75535 0.15078 0.93654 0.0
C1179 C 0.74459 0.1824 0.96041 0.0
C1180 C 0.76091 0.16613 0.91932 0.0
C1181 C 0.75032 0.1972 0.94276 0.0
C1182 C 0.78528 0.08534 0.98431 0.0
C1183 C 0.80522 0.08192 0.97188 0.0
C1184 C 0.77318 0.06662 0.99245 0.0
C1185 C 0.81261 0.05976 0.96763 0.0
C1186 C 0.78112 0.04474 0.98787 0.0
N1187 N 0.80049 0.04178 0.97564 0.0
C1188 C 0.80596 0.17591 0.98828 0.0
C1189 C 0.8071 0.14822 0.95909 0.0
C1190 C 0.82525 0.18658 0.97942 0.0
N1191 N 0.79737 0.15705 0.97806 0.0
C1192 C 0.82638 0.15827 0.9497 0.0
C1193 C 0.83587 0.17759 0.96001 0.0
H1194 H 0.79818 0.18243 0.00354 0.0
H1195 H 0.79994 0.13318 0.95135 0.0
C1196 C 0.71115 0.09391 0.95075 0.0
N1197 N 0.73401 0.09378 0.95393 0.0
C1198 C 0.70166 0.08369 0.93156 0.0
C1199 C 0.73941 0.07302 0.91943 0.0
C1200 C 0.74818 0.08362 0.93877 0.0
C1201 C 0.71589 0.07324 0.91549 0.0
H1202 H 0.70033 0.10242 0.96294 0.0
H1203 H 0.76634 0.08438 0.94123 0.0
O1204 O 0.76508 0.14421 0.02246 0.0
O1205 O 0.72908 0.1084 0.00814 0.0
O1206 O 0.74217 0.14429 0.97449 0.0
O1207 O 0.7777 0.10694 0.98837 0.0
H1208 H 0.77202 0.14133 0.06677 0.0
H1209 H 0.75611 0.18704 0.012 0.0
H1210 H 0.76953 0.1737 0.09366 0.0
H1211 H 0.75397 0.21865 0.03981 0.0
H1212 H 0.69296 0.04021 0.01235 0.0
H1213 H 0.70642 0.11561 0.04639 0.0
H1214 H 0.71897 0.06712 0.9931 0.0
H1215 H 0.68049 0.08791 0.06462 0.0
H1216 H 0.68558 0.17552 0.06695 0.0
H1217 H 0.66092 0.18085 0.99789 0.0
H1218 H 0.81678 0.06441 0.06194 0.0
H1219 H 0.75667 0.08571 0.0985 0.0
H1220 H 0.75752 0.13273 0.93386 0.0
H1221 H 0.73802 0.18904 0.97623 0.0
H1222 H 0.76731 0.15999 0.90322 0.0
H1223 H 0.74837 0.21534 0.94495 0.0
H1224 H 0.81488 0.09621 0.96554 0.0
H1225 H 0.75804 0.06899 0.00247 0.0
H1226 H 0.82797 0.05686 0.95798 0.0
H1227 H 0.77191 0.03011 0.99411 0.0
H1228 H 0.83215 0.2013 0.98804 0.0
H1229 H 0.8338 0.15096 0.93454 0.0
H1230 H 0.68342 0.0841 0.92923 0.0
H1231 H 0.75098 0.06547 0.90728 0.0
Li1232 Li 0.14004 0.50671 0.26859 0.0
Li1233 Li 0.11098 0.47994 0.25839 0.0
Li1234 Li 0.13914 0.49102 0.2307 0.0
Li1235 Li 0.11037 0.51762 0.24219 0.0
C1236 C 0.16663 0.46832 0.26105 0.0
N1237 N 0.21184 0.45598 0.26376 0.0
C1238 C 0.17261 0.44615 0.26703 0.0
C1239 C 0.18366 0.48424 0.25646 0.0
C1240 C 0.19556 0.44023 0.26832 0.0
C1241 C 0.20641 0.47767 0.25792 0.0
C1242 C 0.10295 0.5061 0.29725 0.0
C1243 C 0.08552 0.51792 0.33238 0.0
N1244 N 0.09527 0.49994 0.34314 0.0
C1245 C 0.11281 0.48775 0.30865 0.0
C1246 C 0.08921 0.52132 0.30918 0.0
C1247 C 0.10872 0.48492 0.33185 0.0
C1248 C 0.15811 0.54096 0.29595 0.0
N1249 N 0.15767 0.51804 0.2933 0.0
C1250 C 0.17798 0.51288 0.3281 0.0
C1251 C 0.16747 0.50395 0.30877 0.0
C1252 C 0.17821 0.5365 0.33161 0.0
C1253 C 0.16836 0.55061 0.31505 0.0
H1254 H 0.14994 0.55172 0.28349 0.0
H1255 H 0.16647 0.48575 0.30653 0.0
C1256 C 0.10143 0.43376 0.2633 0.0
N1257 N 0.09334 0.45475 0.26847 0.0
C1258 C 0.09004 0.41435 0.27077 0.0
C1259 C 0.06197 0.43852 0.2885 0.0
C1260 C 0.07385 0.45748 0.28057 0.0
C1261 C 0.07014 0.41659 0.28376 0.0
H1262 H 0.11695 0.43214 0.25359 0.0
H1263 H 0.06765 0.47436 0.2843 0.0
C1264 C 0.14765 0.53673 0.22102 0.0
N1265 N 0.15558 0.56423 0.18382 0.0
C1266 C 0.13759 0.53171 0.2001 0.0
C1267 C 0.16172 0.55574 0.22303 0.0
C1268 C 0.14181 0.54582 0.1815 0.0
C1269 C 0.16554 0.56943 0.20402 0.0
C1270 C 0.08343 0.48496 0.221 0.0
C1271 C 0.07734 0.47315 0.20133 0.0
C1272 C 0.06648 0.49332 0.23539 0.0
C1273 C 0.05436 0.46987 0.19638 0.0
C1274 C 0.04369 0.48968 0.22985 0.0
N1275 N 0.03816 0.47812 0.21063 0.0
C1276 C 0.14659 0.46241 0.19395 0.0
C1277 C 0.17588 0.4897 0.19834 0.0
C1278 C 0.15669 0.45412 0.17418 0.0
N1279 N 0.1561 0.48004 0.20539 0.0
C1280 C 0.18661 0.4819 0.17862 0.0
C1281 C 0.17683 0.46407 0.16609 0.0
H1282 H 0.13095 0.45496 0.20007 0.0
H1283 H 0.18308 0.50375 0.20774 0.0
C1284 C 0.09247 0.56176 0.24548 0.0
N1285 N 0.09287 0.54294 0.2321 0.0
C1286 C 0.0822 0.58173 0.23775 0.0
C1287 C 0.07244 0.56234 0.20289 0.0
C1288 C 0.08299 0.54283 0.21123 0.0
C1289 C 0.0723 0.5823 0.21601 0.0
H1290 H 0.10082 0.56145 0.26185 0.0
H1291 H 0.08388 0.52781 0.20071 0.0
O1292 O 0.14419 0.47422 0.25969 0.0
O1293 O 0.10685 0.50944 0.27458 0.0
O1294 O 0.14362 0.52337 0.23961 0.0
O1295 O 0.10591 0.48816 0.22604 0.0
H1296 H 0.15962 0.43363 0.27066 0.0
H1297 H 0.17944 0.50151 0.25189 0.0
H1298 H 0.20042 0.42312 0.27293 0.0
H1299 H 0.21975 0.48981 0.25441 0.0
H1300 H 0.07492 0.52957 0.34184 0.0
H1301 H 0.12353 0.4758 0.29973 0.0
H1302 H 0.08151 0.53565 0.30059 0.0
H1303 H 0.11625 0.4708 0.34088 0.0
H1304 H 0.1851 0.50137 0.34056 0.0
H1305 H 0.16837 0.56891 0.31694 0.0
H1306 H 0.09706 0.39778 0.26693 0.0
H1307 H 0.04655 0.441 0.29823 0.0
H1308 H 0.12662 0.5171 0.1982 0.0
H1309 H 0.16959 0.55987 0.23914 0.0
H1310 H 0.13412 0.54214 0.16522 0.0
H1311 H 0.17639 0.5842 0.20533 0.0
H1312 H 0.09024 0.46661 0.18998 0.0
H1313 H 0.07078 0.5026 0.25063 0.0
H1314 H 0.04941 0.46075 0.1812 0.0
H1315 H 0.03041 0.49605 0.24084 0.0
H1316 H 0.14878 0.44007 0.16532 0.0
H1317 H 0.20204 0.49015 0.17293 0.0
H1318 H 0.08279 0.59676 0.24833 0.0
H1319 H 0.06478 0.56186 0.18618 0.0
Li1320 Li 0.7431 0.88955 0.51845 0.0
Li1321 Li 0.77001 0.86108 0.50696 0.0
Li1322 Li 0.75902 0.89094 0.48075 0.0
Li1323 Li 0.73238 0.86153 0.49044 0.0
C1324 C 0.78862 0.89829 0.52864 0.0
N1325 N 0.81568 0.90595 0.56622 0.0
C1326 C 0.7835 0.88787 0.54937 0.0
C1327 C 0.80749 0.91258 0.52703 0.0
C1328 C 0.79739 0.89196 0.56817 0.0
C1329 C 0.82097 0.91625 0.54623 0.0
C1330 C 0.73739 0.83371 0.52763 0.0
C1331 C 0.74205 0.7941 0.51819 0.0
N1332 N 0.7309 0.78828 0.53757 0.0
C1333 C 0.72599 0.82734 0.54745 0.0
C1334 C 0.74551 0.81696 0.51286 0.0
C1335 C 0.72288 0.80429 0.55218 0.0
C1336 C 0.71395 0.89676 0.55484 0.0
N1337 N 0.7318 0.90626 0.54374 0.0
C1338 C 0.73343 0.93655 0.57077 0.0
C1339 C 0.74144 0.92594 0.55108 0.0
C1340 C 0.71534 0.92679 0.58295 0.0
C1341 C 0.7054 0.90678 0.57453 0.0
H1342 H 0.70653 0.88119 0.54849 0.0
H1343 H 0.75565 0.93316 0.54193 0.0
C1344 C 0.81455 0.84418 0.50421 0.0
N1345 N 0.79546 0.84379 0.51717 0.0
C1346 C 0.83465 0.83435 0.51218 0.0
C1347 C 0.81484 0.82341 0.54644 0.0
C1348 C 0.7952 0.83352 0.53786 0.0
C1349 C 0.83507 0.8241 0.53376 0.0
H1350 H 0.81436 0.85284 0.488 0.0
H1351 H 0.77997 0.83383 0.54809 0.0
C1352 C 0.72031 0.91705 0.48818 0.0
N1353 N 0.70739 0.96211 0.48576 0.0
C1354 C 0.69806 0.92277 0.4822 0.0
C1355 C 0.736 0.93425 0.49291 0.0
C1356 C 0.69186 0.94565 0.48107 0.0
C1357 C 0.72913 0.95692 0.4916 0.0
C1358 C 0.75941 0.85404 0.45171 0.0
C1359 C 0.74094 0.86329 0.44 0.0
C1360 C 0.77547 0.84112 0.43997 0.0
C1361 C 0.73882 0.85939 0.4167 0.0
C1362 C 0.77276 0.8376 0.41665 0.0
N1363 N 0.75464 0.84674 0.4056 0.0
C1364 C 0.79301 0.91107 0.45428 0.0
C1365 C 0.75583 0.91748 0.44022 0.0
C1366 C 0.80245 0.92156 0.43521 0.0
N1367 N 0.77012 0.90899 0.45627 0.0
C1368 C 0.76454 0.92801 0.42082 0.0
C1369 C 0.78818 0.92981 0.4179 0.0
H1370 H 0.80395 0.90397 0.46723 0.0
H1371 H 0.73769 0.91531 0.44204 0.0
C1372 C 0.68633 0.85172 0.48624 0.0
N1373 N 0.70719 0.84402 0.48004 0.0
C1374 C 0.66675 0.84089 0.4784 0.0
C1375 C 0.69047 0.81419 0.45812 0.0
C1376 C 0.70963 0.82538 0.4666 0.0
C1377 C 0.66869 0.82208 0.46386 0.0
H1378 H 0.68495 0.86655 0.49701 0.0
H1379 H 0.72641 0.81941 0.46213 0.0
O1380 O 0.77549 0.89439 0.50986 0.0
O1381 O 0.74041 0.85625 0.52282 0.0
O1382 O 0.72649 0.89468 0.4894 0.0
O1383 O 0.76208 0.85782 0.47449 0.0
H1384 H 0.76899 0.87674 0.55097 0.0
H1385 H 0.8117 0.92072 0.51108 0.0
H1386 H 0.79364 0.884 0.5843 0.0
H1387 H 0.83564 0.92727 0.54522 0.0
H1388 H 0.74825 0.78097 0.50691 0.0
H1389 H 0.71962 0.84009 0.55907 0.0
H1390 H 0.75445 0.82149 0.49748 0.0
H1391 H 0.71408 0.79912 0.56746 0.0
H1392 H 0.74171 0.95187 0.57671 0.0
H1393 H 0.69114 0.89889 0.58308 0.0
H1394 H 0.84988 0.83557 0.50194 0.0
H1395 H 0.81425 0.81546 0.56301 0.0
H1396 H 0.68572 0.90965 0.47848 0.0
H1397 H 0.7533 0.93021 0.49751 0.0
H1398 H 0.67469 0.95033 0.47647 0.0
H1399 H 0.74109 0.9704 0.49523 0.0
H1400 H 0.72836 0.87339 0.44879 0.0
H1401 H 0.78991 0.83391 0.44879 0.0
H1402 H 0.72461 0.86646 0.40743 0.0
H1403 H 0.78507 0.82763 0.40734 0.0
H1404 H 0.82075 0.92287 0.43389 0.0
H1405 H 0.75288 0.93382 0.40783 0.0
H1406 H 0.65026 0.8476 0.48307 0.0
H1407 H 0.69266 0.79959 0.44714 0.0
Li1408 Li 0.89309 0.01936 0.25909 0.0
Li1409 Li 0.86379 0.99215 0.26932 0.0
Li1410 Li 0.89392 0.98266 0.24182 0.0
Li1411 Li 0.86448 0.0089 0.23016 0.0
C1412 C 0.91199 0.99469 0.29098 0.0
N1413 N 0.94292 0.00644 0.32425 0.0
C1414 C 0.90441 0.00242 0.31211 0.0
C1415 C 0.93527 0.99263 0.28687 0.0
C1416 C 0.92032 0.00837 0.32868 0.0
C1417 C 0.95065 0.99873 0.30389 0.0
C1418 C 0.83752 0.03115 0.26183 0.0
C1419 C 0.79751 0.02314 0.25816 0.0
N1420 N 0.7927 0.0447 0.26498 0.0
C1421 C 0.8322 0.05321 0.26878 0.0
C1422 C 0.82006 0.01596 0.25647 0.0
C1423 C 0.80943 0.05974 0.27027 0.0
C1424 C 0.92829 0.05302 0.26094 0.0
N1425 N 0.90943 0.04453 0.27121 0.0
C1426 C 0.91083 0.07362 0.2995 0.0
C1427 C 0.90055 0.05445 0.29008 0.0
C1428 C 0.9303 0.08286 0.28924 0.0
C1429 C 0.93907 0.07227 0.26973 0.0
H1430 H 0.93479 0.0451 0.24574 0.0
H1431 H 0.88528 0.04758 0.29764 0.0
C1432 C 0.84518 0.95863 0.29783 0.0
N1433 N 0.84636 0.98141 0.2944 0.0
C1434 C 0.83472 0.94995 0.31727 0.0
C1435 C 0.82691 0.98838 0.3294 0.0
C1436 C 0.83746 0.99631 0.30966 0.0
C1437 C 0.82568 0.96489 0.33357 0.0
H1438 H 0.85301 0.94721 0.28581 0.0
H1439 H 0.83926 0.01438 0.30693 0.0
C1440 C 0.91433 0.01055 0.21069 0.0
N1441 N 0.94812 0.00596 0.17843 0.0
C1442 C 0.90906 0.0121 0.18758 0.0
C1443 C 0.9368 0.0068 0.21738 0.0
C1444 C 0.92638 0.00971 0.17153 0.0
C1445 C 0.95363 0.00448 0.20082 0.0
C1446 C 0.85906 0.95921 0.22385 0.0
C1447 C 0.86363 0.96308 0.20088 0.0
C1448 C 0.85385 0.93724 0.2312 0.0
C1449 C 0.86286 0.94493 0.18561 0.0
C1450 C 0.85328 0.91951 0.21542 0.0
N1451 N 0.85776 0.92369 0.19314 0.0
C1452 C 0.91701 0.94146 0.24824 0.0
C1453 C 0.91758 0.95384 0.20995 0.0
C1454 C 0.9279 0.92121 0.24225 0.0
N1455 N 0.91197 0.95723 0.23212 0.0
C1456 C 0.92875 0.93404 0.20328 0.0
C1457 C 0.93379 0.9173 0.21948 0.0
H1458 H 0.91198 0.94433 0.26567 0.0
H1459 H 0.91268 0.96603 0.19721 0.0
C1460 C 0.85374 0.04125 0.19755 0.0
N1461 N 0.84697 0.02078 0.20576 0.0
C1462 C 0.84338 0.05045 0.17834 0.0
C1463 C 0.8186 0.01773 0.17685 0.0
C1464 C 0.82938 0.00922 0.19625 0.0
C1465 C 0.82588 0.03843 0.16737 0.0
H1466 H 0.86764 0.05014 0.20566 0.0
H1467 H 0.82415 0.99309 0.20331 0.0
O1468 O 0.8967 0.98925 0.27438 0.0
O1469 O 0.85976 0.02461 0.26025 0.0
O1470 O 0.89758 0.01288 0.22662 0.0
O1471 O 0.8602 0.97674 0.23911 0.0
H1472 H 0.88644 0.00408 0.31556 0.0
H1473 H 0.94139 0.98634 0.27073 0.0
H1474 H 0.91471 0.01457 0.34505 0.0
H1475 H 0.96873 0.99732 0.30091 0.0
H1476 H 0.78382 0.01158 0.25407 0.0
H1477 H 0.84555 0.06515 0.27298 0.0
H1478 H 0.82381 0.99881 0.25109 0.0
H1479 H 0.80506 0.07676 0.27564 0.0
H1480 H 0.90327 0.08145 0.31433 0.0
H1481 H 0.95411 0.07877 0.26136 0.0
H1482 H 0.834 0.93172 0.31962 0.0
H1483 H 0.82059 0.00056 0.34165 0.0
H1484 H 0.89178 0.01496 0.18206 0.0
H1485 H 0.94116 0.00551 0.23516 0.0
H1486 H 0.92254 0.01079 0.15359 0.0
H1487 H 0.97107 0.00146 0.20576 0.0
H1488 H 0.86818 0.97985 0.19493 0.0
H1489 H 0.85031 0.93384 0.24888 0.0
H1490 H 0.86648 0.9477 0.16781 0.0
H1491 H 0.8493 0.90243 0.22089 0.0
H1492 H 0.93147 0.90867 0.25523 0.0
H1493 H 0.93257 0.93145 0.18547 0.0
H1494 H 0.8492 0.06672 0.17203 0.0
H1495 H 0.80527 0.00781 0.16897 0.0
Li1496 Li 0.23265 0.64364 0.50701 0.0
Li1497 Li 0.25883 0.61281 0.51755 0.0
Li1498 Li 0.27033 0.6431 0.48967 0.0
Li1499 Li 0.24354 0.61352 0.47818 0.0
C1500 C 0.26145 0.66251 0.53857 0.0
N1501 N 0.2582 0.6959 0.5714 0.0
C1502 C 0.26222 0.65673 0.56159 0.0
C1503 C 0.25934 0.68529 0.53226 0.0
C1504 C 0.26047 0.67385 0.57793 0.0
C1505 C 0.25763 0.70192 0.5491 0.0
C1506 C 0.21432 0.5929 0.51621 0.0
C1507 C 0.20323 0.55344 0.51633 0.0
N1508 N 0.18878 0.55766 0.53386 0.0
C1509 C 0.1991 0.5969 0.53399 0.0
C1510 C 0.21619 0.57104 0.50711 0.0
C1511 C 0.18645 0.57884 0.54278 0.0
C1512 C 0.19301 0.67097 0.50386 0.0
N1513 N 0.20788 0.66102 0.51846 0.0
C1514 C 0.1851 0.67187 0.55024 0.0
C1515 C 0.20433 0.66138 0.54126 0.0
C1516 C 0.16897 0.68169 0.53561 0.0
C1517 C 0.17334 0.68147 0.51211 0.0
H1518 H 0.19601 0.67005 0.48576 0.0
H1519 H 0.21601 0.65277 0.55248 0.0
C1520 C 0.29065 0.58773 0.54349 0.0
N1521 N 0.26876 0.59506 0.54279 0.0
C1522 C 0.29894 0.57656 0.56273 0.0
C1523 C 0.26201 0.58066 0.58017 0.0
C1524 C 0.25446 0.59176 0.56062 0.0
C1525 C 0.28461 0.57309 0.58153 0.0
H1526 H 0.30186 0.59113 0.52934 0.0
H1527 H 0.23742 0.59846 0.56003 0.0
C1528 C 0.24357 0.66345 0.45831 0.0
N1529 N 0.25057 0.69671 0.42595 0.0
C1530 C 0.24844 0.65742 0.43587 0.0
C1531 C 0.24185 0.68637 0.46421 0.0
C1532 C 0.25205 0.67449 0.41978 0.0
C1533 C 0.24555 0.70295 0.44763 0.0
C1534 C 0.28514 0.58985 0.48077 0.0
C1535 C 0.30231 0.59024 0.46437 0.0
C1536 C 0.27805 0.56908 0.48981 0.0
C1537 C 0.31176 0.56977 0.45694 0.0
C1538 C 0.28792 0.54898 0.48197 0.0
N1539 N 0.30441 0.54974 0.4658 0.0
C1540 C 0.30732 0.67446 0.49249 0.0
C1541 C 0.30223 0.65627 0.45695 0.0
C1542 C 0.32698 0.68523 0.48459 0.0
N1543 N 0.29548 0.66024 0.47866 0.0
C1544 C 0.32167 0.66673 0.44834 0.0
C1545 C 0.33457 0.68117 0.46231 0.0
H1546 H 0.30194 0.67691 0.50986 0.0
H1547 H 0.29281 0.64451 0.44647 0.0
C1548 C 0.21007 0.59178 0.45178 0.0
N1549 N 0.23265 0.59647 0.45285 0.0
C1550 C 0.20096 0.58101 0.43269 0.0
C1551 C 0.23852 0.58001 0.41616 0.0
C1552 C 0.24689 0.59085 0.43555 0.0
C1553 C 0.21521 0.57516 0.41444 0.0
H1554 H 0.19905 0.5968 0.4656 0.0
H1555 H 0.26461 0.59548 0.43642 0.0
O1556 O 0.26292 0.64594 0.52234 0.0
O1557 O 0.22668 0.61046 0.50727 0.0
O1558 O 0.24014 0.64697 0.47433 0.0
O1559 O 0.27571 0.60975 0.4882 0.0
H1560 H 0.26404 0.63921 0.56679 0.0
H1561 H 0.25907 0.69008 0.51454 0.0
H1562 H 0.26091 0.66961 0.59581 0.0
H1563 H 0.25589 0.71961 0.54445 0.0
H1564 H 0.20457 0.53643 0.50948 0.0
H1565 H 0.19719 0.61374 0.54106 0.0
H1566 H 0.2273 0.56772 0.49287 0.0
H1567 H 0.17476 0.58168 0.55667 0.0
H1568 H 0.1827 0.67187 0.56848 0.0
H1569 H 0.16129 0.68851 0.50013 0.0
H1570 H 0.31659 0.57142 0.56315 0.0
H1571 H 0.25032 0.57829 0.59418 0.0
H1572 H 0.24965 0.63976 0.43098 0.0
H1573 H 0.23756 0.69132 0.48136 0.0
H1574 H 0.25603 0.67007 0.4024 0.0
H1575 H 0.24437 0.72076 0.45198 0.0
H1576 H 0.30821 0.60616 0.45736 0.0
H1577 H 0.26528 0.56849 0.50297 0.0
H1578 H 0.32495 0.56982 0.44414 0.0
H1579 H 0.28255 0.53279 0.48881 0.0
H1580 H 0.33656 0.69595 0.49608 0.0
H1581 H 0.32667 0.66329 0.43097 0.0
H1582 H 0.18291 0.57746 0.43216 0.0
H1583 H 0.25004 0.57621 0.40234 0.0
Li1584 Li 0.39079 0.51967 0.75655 0.0
Li1585 Li 0.36048 0.49412 0.76843 0.0
Li1586 Li 0.39083 0.48192 0.74056 0.0
Li1587 Li 0.36088 0.50835 0.72864 0.0
C1588 C 0.40896 0.49573 0.78971 0.0
N1589 N 0.43962 0.50802 0.82306 0.0
C1590 C 0.40127 0.50167 0.81138 0.0
C1591 C 0.43224 0.49575 0.78509 0.0
C1592 C 0.41704 0.5079 0.82799 0.0
C1593 C 0.44747 0.50211 0.80215 0.0
C1594 C 0.33706 0.53588 0.76246 0.0
C1595 C 0.29637 0.53771 0.75799 0.0
N1596 N 0.29572 0.55588 0.77224 0.0
C1597 C 0.33602 0.55475 0.77685 0.0
C1598 C 0.31711 0.52743 0.75278 0.0
C1599 C 0.31495 0.56455 0.78168 0.0
C1600 C 0.42645 0.55283 0.75544 0.0
N1601 N 0.40858 0.54438 0.76738 0.0
C1602 C 0.41382 0.57217 0.79646 0.0
C1603 C 0.40212 0.55364 0.7875 0.0
C1604 C 0.43237 0.58136 0.78458 0.0
C1605 C 0.43868 0.57142 0.76379 0.0
H1606 H 0.4311 0.54528 0.73938 0.0
H1607 H 0.38774 0.54665 0.79654 0.0
C1608 C 0.34096 0.46132 0.79677 0.0
N1609 N 0.3429 0.48411 0.79372 0.0
C1610 C 0.32998 0.45268 0.81594 0.0
C1611 C 0.32312 0.49115 0.8285 0.0
C1612 C 0.33427 0.49905 0.80909 0.0
C1613 C 0.32101 0.46766 0.83224 0.0
H1614 H 0.3484 0.44983 0.7845 0.0
H1615 H 0.33656 0.51707 0.80664 0.0
C1616 C 0.40975 0.50725 0.70747 0.0
N1617 N 0.44102 0.49805 0.67369 0.0
C1618 C 0.40295 0.50674 0.68472 0.0
C1619 C 0.4325 0.50335 0.71301 0.0
C1620 C 0.41901 0.502 0.6679 0.0
C1621 C 0.44804 0.49864 0.6957 0.0
C1622 C 0.33986 0.46356 0.73202 0.0
C1623 C 0.34336 0.44771 0.71469 0.0
C1624 C 0.31841 0.46532 0.74207 0.0
C1625 C 0.32521 0.43433 0.70728 0.0
C1626 C 0.30069 0.45162 0.73421 0.0
N1627 N 0.30442 0.43656 0.7171 0.0
C1628 C 0.42034 0.44412 0.74579 0.0
C1629 C 0.40756 0.45073 0.70819 0.0
C1630 C 0.43209 0.4247 0.73878 0.0
N1631 N 0.40834 0.4566 0.73051 0.0
C1632 C 0.4192 0.43163 0.70041 0.0
C1633 C 0.43152 0.41821 0.71581 0.0
H1634 H 0.42046 0.44902 0.7635 0.0
H1635 H 0.39749 0.46062 0.69647 0.0
C1636 C 0.33977 0.54112 0.70112 0.0
N1637 N 0.34364 0.51844 0.7031 0.0
C1638 C 0.32893 0.5498 0.68189 0.0
C1639 C 0.32619 0.51163 0.66704 0.0
C1640 C 0.33709 0.50369 0.68658 0.0
C1641 C 0.32215 0.53502 0.6644 0.0
H1642 H 0.3456 0.55253 0.7143 0.0
H1643 H 0.3409 0.48585 0.68819 0.0
O1644 O 0.39375 0.49005 0.77309 0.0
O1645 O 0.3576 0.52611 0.75759 0.0
O1646 O 0.39421 0.51164 0.72418 0.0
O1647 O 0.35758 0.47657 0.7397 0.0
H1648 H 0.38332 0.50171 0.81526 0.0
H1649 H 0.43848 0.49097 0.76849 0.0
H1650 H 0.41133 0.5127 0.84478 0.0
H1651 H 0.46553 0.50233 0.79876 0.0
H1652 H 0.28081 0.5313 0.75061 0.0
H1653 H 0.3513 0.56173 0.78429 0.0
H1654 H 0.31764 0.51332 0.7411 0.0
H1655 H 0.31389 0.57907 0.7929 0.0
H1656 H 0.40807 0.57949 0.81233 0.0
H1657 H 0.45295 0.57786 0.75414 0.0
H1658 H 0.32915 0.43445 0.81827 0.0
H1659 H 0.31636 0.50334 0.84051 0.0
H1660 H 0.38546 0.50988 0.68009 0.0
H1661 H 0.43807 0.50379 0.73049 0.0
H1662 H 0.41396 0.50144 0.65024 0.0
H1663 H 0.46567 0.49544 0.69977 0.0
H1664 H 0.35986 0.44586 0.70688 0.0
H1665 H 0.31545 0.47694 0.75597 0.0
H1666 H 0.32766 0.42214 0.69374 0.0
H1667 H 0.28401 0.45289 0.7418 0.0
H1668 H 0.44146 0.41484 0.75117 0.0
H1669 H 0.41795 0.42701 0.68265 0.0
H1670 H 0.32656 0.56799 0.68044 0.0
H1671 H 0.32116 0.49959 0.65408 0.0
Li1672 Li 0.64003 0.00711 0.76899 0.0
Li1673 Li 0.61008 0.98023 0.75782 0.0
Li1674 Li 0.64023 0.9922 0.73007 0.0
Li1675 Li 0.60993 0.01852 0.74036 0.0
C1676 C 0.66078 0.96514 0.7708 0.0
N1677 N 0.6958 0.94579 0.79537 0.0
C1678 C 0.65632 0.94756 0.78614 0.0
C1679 C 0.68308 0.97266 0.76775 0.0
C1680 C 0.67425 0.93805 0.79845 0.0
C1681 C 0.70054 0.96273 0.78038 0.0
C1682 C 0.58995 0.01107 0.78907 0.0
C1683 C 0.55077 0.01673 0.79971 0.0
N1684 N 0.55636 0.01312 0.82184 0.0
C1685 C 0.59535 0.00778 0.81196 0.0
C1686 C 0.56752 0.0159 0.78292 0.0
C1687 C 0.57812 0.00873 0.82825 0.0
C1688 C 0.66413 0.03976 0.79433 0.0
N1689 N 0.65708 0.01777 0.79442 0.0
C1690 C 0.67114 0.01267 0.8322 0.0
C1691 C 0.66034 0.00421 0.81285 0.0
C1692 C 0.67828 0.03543 0.83274 0.0
C1693 C 0.67483 0.04899 0.8134 0.0
H1694 H 0.66097 0.05028 0.77961 0.0
H1695 H 0.65385 0.98706 0.81288 0.0
C1696 C 0.58303 0.94014 0.75427 0.0
N1697 N 0.59289 0.95505 0.76892 0.0
C1698 C 0.57231 0.92059 0.76247 0.0
C1699 C 0.5823 0.93201 0.80062 0.0
C1700 C 0.59268 0.95135 0.7917 0.0
C1701 C 0.57215 0.91618 0.78593 0.0
H1702 H 0.58406 0.94304 0.73617 0.0
H1703 H 0.60141 0.96293 0.80292 0.0
C1704 C 0.66031 0.0335 0.72726 0.0
N1705 N 0.69476 0.05164 0.70102 0.0
C1706 C 0.65528 0.04415 0.70665 0.0
C1707 C 0.68281 0.03248 0.73474 0.0
C1708 C 0.67295 0.05309 0.69356 0.0
C1709 C 0.7 0.04165 0.72119 0.0
C1710 C 0.58696 0.9875 0.71319 0.0
C1711 C 0.58713 0.98669 0.68946 0.0
C1712 C 0.56626 0.98714 0.72477 0.0
C1713 C 0.56652 0.98596 0.6777 0.0
C1714 C 0.54601 0.98637 0.71242 0.0
N1715 N 0.54656 0.98584 0.68933 0.0
C1716 C 0.67327 0.96537 0.70673 0.0
C1717 C 0.65308 0.99185 0.68415 0.0
C1718 C 0.68452 0.95704 0.68756 0.0
N1719 N 0.65784 0.98242 0.70468 0.0
C1720 C 0.66388 0.98403 0.66454 0.0
C1721 C 0.67965 0.96617 0.66602 0.0
H1722 H 0.67643 0.95778 0.72312 0.0
H1723 H 0.64036 0.00502 0.6829 0.0
C1724 C 0.58475 0.05941 0.74402 0.0
N1725 N 0.59249 0.04337 0.7293 0.0
C1726 C 0.5739 0.0789 0.73586 0.0
C1727 C 0.57921 0.06496 0.6976 0.0
C1728 C 0.58982 0.04573 0.70649 0.0
C1729 C 0.57135 0.08201 0.71233 0.0
H1730 H 0.5876 0.05738 0.76205 0.0
H1731 H 0.59666 0.03305 0.69513 0.0
O1732 O 0.64338 0.97485 0.75882 0.0
O1733 O 0.60668 0.01042 0.77292 0.0
O1734 O 0.64324 0.02451 0.74024 0.0
O1735 O 0.60699 0.98847 0.72498 0.0
H1736 H 0.63922 0.94134 0.78855 0.0
H1737 H 0.68687 0.98594 0.75569 0.0
H1738 H 0.67102 0.92452 0.81046 0.0
H1739 H 0.71787 0.96845 0.77824 0.0
H1740 H 0.53334 0.02037 0.79516 0.0
H1741 H 0.61263 0.00433 0.81709 0.0
H1742 H 0.56309 0.01923 0.76542 0.0
H1743 H 0.58205 0.006 0.84599 0.0
H1744 H 0.67309 0.00177 0.84689 0.0
H1745 H 0.68017 0.06659 0.8131 0.0
H1746 H 0.56503 0.90862 0.75054 0.0
H1747 H 0.58252 0.92931 0.81882 0.0
H1748 H 0.63795 0.04533 0.7007 0.0
H1749 H 0.68697 0.02488 0.75092 0.0
H1750 H 0.66931 0.06119 0.67747 0.0
H1751 H 0.71751 0.04089 0.72674 0.0
H1752 H 0.60298 0.98672 0.68019 0.0
H1753 H 0.56584 0.98715 0.7431 0.0
H1754 H 0.5664 0.98546 0.65933 0.0
H1755 H 0.52987 0.98611 0.7212 0.0
H1756 H 0.69668 0.94338 0.68956 0.0
H1757 H 0.65926 0.99132 0.64829 0.0
H1758 H 0.56838 0.09178 0.74778 0.0
H1759 H 0.57747 0.06662 0.67936 0.0
Li1760 Li 0.75788 0.61002 0.98177 0.0
Li1761 Li 0.76866 0.63854 0.00896 0.0
Li1762 Li 0.74228 0.60881 0.01958 0.0
Li1763 Li 0.73055 0.63817 0.99377 0.0
C1764 C 0.79715 0.60135 0.00703 0.0
N1765 N 0.84289 0.59369 0.9998 0.0
C1766 C 0.80825 0.61167 0.98873 0.0
C1767 C 0.80932 0.58716 0.02165 0.0
C1768 C 0.83137 0.60758 0.98536 0.0
C1769 C 0.83244 0.58349 0.0177 0.0
C1770 C 0.76073 0.66576 0.97104 0.0
C1771 C 0.75787 0.70547 0.98075 0.0
N1772 N 0.76345 0.71106 0.95904 0.0
C1773 C 0.76643 0.6719 0.94883 0.0
C1774 C 0.75641 0.68267 0.98716 0.0
C1775 C 0.76772 0.69489 0.9431 0.0
C1776 C 0.7608 0.60178 0.93546 0.0
N1777 N 0.76733 0.59317 0.95583 0.0
C1778 C 0.7879 0.56336 0.93746 0.0
C1779 C 0.78029 0.57409 0.95723 0.0
C1780 C 0.78193 0.57223 0.91608 0.0
C1781 C 0.76786 0.59152 0.9153 0.0
H1782 H 0.75029 0.61685 0.93491 0.0
H1783 H 0.78511 0.56747 0.97367 0.0
C1784 C 0.79657 0.65641 0.04296 0.0
N1785 N 0.79355 0.65602 0.02008 0.0
C1786 C 0.81574 0.6668 0.05231 0.0
C1787 C 0.8281 0.67661 0.01441 0.0
C1788 C 0.80873 0.66597 0.00577 0.0
C1789 C 0.83197 0.67684 0.03796 0.0
H1790 H 0.78432 0.64815 0.05389 0.0
H1791 H 0.80619 0.66503 0.98761 0.0
C1792 C 0.72034 0.58267 0.98685 0.0
N1793 N 0.70945 0.53761 0.97943 0.0
C1794 C 0.70018 0.57694 0.97569 0.0
C1795 C 0.73496 0.56548 0.99425 0.0
C1796 C 0.69498 0.55406 0.9721 0.0
C1797 C 0.72916 0.5428 0.99033 0.0
C1798 C 0.72158 0.64577 0.03983 0.0
C1799 C 0.70037 0.63644 0.03459 0.0
C1800 C 0.72412 0.65884 0.05948 0.0
C1801 C 0.68204 0.64035 0.04913 0.0
C1802 C 0.70536 0.66238 0.07359 0.0
N1803 N 0.68489 0.65313 0.06817 0.0
C1804 C 0.74643 0.5889 0.06285 0.0
C1805 C 0.71104 0.58203 0.0449 0.0
C1806 C 0.73884 0.57834 0.08273 0.0
N1807 N 0.73241 0.59077 0.04459 0.0
C1808 C 0.70276 0.57138 0.06438 0.0
C1809 C 0.71656 0.56981 0.0838 0.0
H1810 H 0.76323 0.59632 0.06221 0.0
H1811 H 0.70009 0.584 0.03029 0.0
C1812 C 0.69486 0.64718 0.96444 0.0
N1813 N 0.7056 0.6557 0.983 0.0
C1814 C 0.67601 0.65828 0.95537 0.0
C1815 C 0.67964 0.68691 0.98461 0.0
C1816 C 0.69852 0.67525 0.99309 0.0
C1817 C 0.6681 0.67841 0.96549 0.0
H1818 H 0.70091 0.63161 0.95678 0.0
H1819 H 0.70745 0.68173 0.00778 0.0
O1820 O 0.77457 0.60523 0.01092 0.0
O1821 O 0.7593 0.64328 0.97675 0.0
O1822 O 0.7256 0.60505 0.99033 0.0
O1823 O 0.73992 0.64198 0.02608 0.0
H1824 H 0.79914 0.62271 0.97723 0.0
H1825 H 0.80098 0.5791 0.03592 0.0
H1826 H 0.84016 0.61545 0.97128 0.0
H1827 H 0.84207 0.57254 0.02889 0.0
H1828 H 0.75457 0.71872 0.99305 0.0
H1829 H 0.76981 0.659 0.93616 0.0
H1830 H 0.75203 0.67831 0.00444 0.0
H1831 H 0.77211 0.69989 0.92597 0.0
H1832 H 0.79887 0.54867 0.93895 0.0
H1833 H 0.7624 0.59871 0.89927 0.0
H1834 H 0.81792 0.66679 0.07058 0.0
H1835 H 0.84032 0.68386 0.00271 0.0
H1836 H 0.68868 0.59005 0.96987 0.0
H1837 H 0.7506 0.56951 0.00297 0.0
H1838 H 0.67943 0.54938 0.96349 0.0
H1839 H 0.74031 0.52934 0.99596 0.0
H1840 H 0.69807 0.62623 0.0195 0.0
H1841 H 0.74045 0.66613 0.0638 0.0
H1842 H 0.66555 0.63321 0.04529 0.0
H1843 H 0.70709 0.67245 0.08886 0.0
H1844 H 0.74995 0.57772 0.09737 0.0
H1845 H 0.68558 0.56481 0.06437 0.0
H1846 H 0.66748 0.65094 0.94082 0.0
H1847 H 0.67426 0.70249 0.99278 0.0
Li1848 Li 0.88941 0.52228 0.7436 0.0
Li1849 Li 0.86034 0.50886 0.76997 0.0
Li1850 Li 0.89103 0.48379 0.75733 0.0
Li1851 Li 0.86058 0.49486 0.73147 0.0
C1852 C 0.90707 0.52853 0.78363 0.0
N1853 N 0.93429 0.56383 0.79834 0.0
C1854 C 0.89768 0.54648 0.79602 0.0
C1855 C 0.93032 0.52847 0.77881 0.0
C1856 C 0.91173 0.56417 0.8033 0.0
C1857 C 0.94379 0.5465 0.78636 0.0
C1858 C 0.84127 0.53435 0.72604 0.0
C1859 C 0.80357 0.53587 0.71007 0.0
N1860 N 0.81168 0.54839 0.69242 0.0
C1861 C 0.84923 0.54726 0.70777 0.0
C1862 C 0.81825 0.52865 0.72726 0.0
C1863 C 0.83399 0.55419 0.69095 0.0
C1864 C 0.92386 0.54804 0.72073 0.0
N1865 N 0.90554 0.54894 0.73475 0.0
C1866 C 0.90685 0.58952 0.73518 0.0
C1867 C 0.89705 0.5691 0.74215 0.0
C1868 C 0.92553 0.58922 0.72034 0.0
C1869 C 0.93424 0.5681 0.71335 0.0
H1870 H 0.93007 0.5318 0.71485 0.0
H1871 H 0.88233 0.56928 0.75315 0.0
C1872 C 0.84852 0.50935 0.81632 0.0
N1873 N 0.84267 0.51766 0.79558 0.0
C1874 C 0.83729 0.51684 0.83582 0.0
C1875 C 0.8143 0.5414 0.81226 0.0
C1876 C 0.82586 0.53329 0.79319 0.0
C1877 C 0.82015 0.53334 0.83396 0.0
H1878 H 0.86235 0.49736 0.81776 0.0
H1879 H 0.82184 0.53993 0.77656 0.0
C1880 C 0.90858 0.47903 0.71694 0.0
N1881 N 0.93841 0.44623 0.70154 0.0
C1882 C 0.90062 0.46083 0.70392 0.0
C1883 C 0.93172 0.48061 0.72202 0.0
C1884 C 0.91597 0.44441 0.69631 0.0
C1885 C 0.94652 0.46383 0.71413 0.0
C1886 C 0.84437 0.46789 0.77571 0.0
C1887 C 0.85365 0.45515 0.79348 0.0
C1888 C 0.82101 0.47211 0.77524 0.0
C1889 C 0.83937 0.44693 0.81056 0.0
C1890 C 0.80731 0.46363 0.79266 0.0
N1891 N 0.81669 0.45132 0.80982 0.0
C1892 C 0.92646 0.46095 0.78142 0.0
C1893 C 0.90337 0.43788 0.75782 0.0
C1894 C 0.93823 0.44184 0.78918 0.0
N1895 N 0.90931 0.45859 0.76615 0.0
C1896 C 0.91474 0.41836 0.76502 0.0
C1897 C 0.93222 0.42014 0.78116 0.0
H1898 H 0.93061 0.47757 0.78801 0.0
H1899 H 0.88933 0.43648 0.74606 0.0
C1900 C 0.84804 0.4931 0.68531 0.0
N1901 N 0.84303 0.48474 0.70624 0.0
C1902 C 0.83671 0.48495 0.66613 0.0
C1903 C 0.81534 0.45964 0.6904 0.0
C1904 C 0.82699 0.46839 0.70913 0.0
C1905 C 0.8203 0.46778 0.66852 0.0
H1906 H 0.86126 0.50573 0.68347 0.0
H1907 H 0.8236 0.46177 0.72591 0.0
O1908 O 0.89352 0.51133 0.77588 0.0
O1909 O 0.85598 0.527 0.74246 0.0
O1910 O 0.89377 0.49502 0.72496 0.0
O1911 O 0.85811 0.47645 0.75904 0.0
H1912 H 0.8797 0.5469 0.79976 0.0
H1913 H 0.93783 0.5148 0.76911 0.0
H1914 H 0.90467 0.57822 0.81281 0.0
H1915 H 0.96178 0.54675 0.78263 0.0
H1916 H 0.78574 0.53148 0.71074 0.0
H1917 H 0.86702 0.55165 0.70642 0.0
H1918 H 0.81183 0.51855 0.7412 0.0
H1919 H 0.83993 0.5641 0.67666 0.0
H1920 H 0.89973 0.60539 0.74119 0.0
H1921 H 0.94842 0.56708 0.70168 0.0
H1922 H 0.84258 0.51046 0.85225 0.0
H1923 H 0.80112 0.55405 0.81009 0.0
H1924 H 0.88276 0.45924 0.69995 0.0
H1925 H 0.93814 0.49449 0.73222 0.0
H1926 H 0.91004 0.43018 0.68631 0.0
H1927 H 0.96445 0.46476 0.71806 0.0
H1928 H 0.8717 0.45186 0.79424 0.0
H1929 H 0.81357 0.48206 0.7617 0.0
H1930 H 0.84632 0.43713 0.82447 0.0
H1931 H 0.78922 0.46688 0.79258 0.0
H1932 H 0.95169 0.44398 0.80154 0.0
H1933 H 0.90926 0.40198 0.75868 0.0
H1934 H 0.84132 0.49144 0.64955 0.0
H1935 H 0.80272 0.4465 0.693 0.0
Li1936 Li 0.76562 0.36141 0.49504 0.0
Li1937 Li 0.7554 0.38994 0.52229 0.0
Li1938 Li 0.72712 0.36306 0.50943 0.0
Li1939 Li 0.7405 0.39225 0.48425 0.0
C1940 C 0.7556 0.33395 0.53244 0.0
N1941 N 0.75597 0.28841 0.54379 0.0
C1942 C 0.76071 0.32723 0.55462 0.0
C1943 C 0.75067 0.3175 0.51602 0.0
C1944 C 0.76082 0.30412 0.56003 0.0
C1945 C 0.75094 0.29457 0.5221 0.0
C1946 C 0.79532 0.39747 0.49802 0.0
C1947 C 0.83133 0.41476 0.48894 0.0
N1948 N 0.84113 0.40327 0.50643 0.0
C1949 C 0.80575 0.38581 0.5159 0.0
C1950 C 0.80819 0.41204 0.48441 0.0
C1951 C 0.82893 0.38898 0.51987 0.0
C1952 C 0.7957 0.34707 0.4617 0.0
N1953 N 0.79032 0.34365 0.48388 0.0
C1954 C 0.82277 0.31971 0.48883 0.0
C1955 C 0.80338 0.3303 0.49751 0.0
C1956 C 0.82902 0.32341 0.46612 0.0
C1957 C 0.81514 0.33715 0.45244 0.0
H1958 H 0.78522 0.35812 0.45141 0.0
H1959 H 0.79925 0.32844 0.51529 0.0
C1960 C 0.75943 0.39777 0.56885 0.0
N1961 N 0.7654 0.40639 0.5483 0.0
C1962 C 0.76696 0.40811 0.58882 0.0
C1963 C 0.78635 0.43629 0.5661 0.0
C1964 C 0.77833 0.42546 0.54656 0.0
C1965 C 0.78087 0.4275 0.58764 0.0
H1966 H 0.74895 0.38269 0.56969 0.0
H1967 H 0.78277 0.43205 0.53 0.0
C1968 C 0.71929 0.35628 0.46283 0.0
N1969 N 0.68359 0.35061 0.43289 0.0
C1970 C 0.69822 0.36625 0.46735 0.0
C1971 C 0.72222 0.34345 0.44308 0.0
C1972 C 0.68038 0.36318 0.452 0.0
C1973 C 0.70395 0.34076 0.42815 0.0
C1974 C 0.71907 0.41883 0.51706 0.0
C1975 C 0.69935 0.42518 0.52863 0.0
C1976 C 0.7342 0.43556 0.50958 0.0
C1977 C 0.69507 0.44819 0.53256 0.0
C1978 C 0.72932 0.45839 0.51386 0.0
N1979 N 0.71003 0.46418 0.52516 0.0
C1980 C 0.68964 0.35515 0.53703 0.0
C1981 C 0.69367 0.32736 0.50817 0.0
C1982 C 0.66967 0.34492 0.54467 0.0
N1983 N 0.70104 0.34641 0.51898 0.0
C1984 C 0.67372 0.31657 0.51524 0.0
C1985 C 0.66131 0.32548 0.5336 0.0
H1986 H 0.69602 0.37021 0.5454 0.0
H1987 H 0.70306 0.32074 0.49384 0.0
C1988 C 0.74544 0.41113 0.44064 0.0
N1989 N 0.7316 0.41059 0.45911 0.0
C1990 C 0.73813 0.42139 0.42051 0.0
C1991 C 0.70278 0.43094 0.43908 0.0
C1992 C 0.71074 0.42049 0.4588 0.0
C1993 C 0.71631 0.43103 0.41941 0.0
H1994 H 0.76178 0.40274 0.44129 0.0
H1995 H 0.69985 0.41947 0.47353 0.0
O1996 O 0.75528 0.35656 0.52705 0.0
O1997 O 0.77271 0.39448 0.49351 0.0
O1998 O 0.73718 0.35932 0.47735 0.0
O1999 O 0.72346 0.39632 0.51325 0.0
H2000 H 0.76455 0.33976 0.56753 0.0
H2001 H 0.74678 0.32231 0.49874 0.0
H2002 H 0.76474 0.29868 0.57713 0.0
H2003 H 0.74718 0.28167 0.50956 0.0
H2004 H 0.84151 0.42599 0.47854 0.0
H2005 H 0.79611 0.37442 0.52659 0.0
H2006 H 0.80037 0.42112 0.47046 0.0
H2007 H 0.83721 0.38006 0.53364 0.0
H2008 H 0.83326 0.30949 0.49997 0.0
H2009 H 0.8194 0.34034 0.43482 0.0
H2010 H 0.76194 0.40096 0.605 0.0
H2011 H 0.79721 0.45103 0.56431 0.0
H2012 H 0.69565 0.37634 0.48249 0.0
H2013 H 0.73847 0.33571 0.4393 0.0
H2014 H 0.664 0.37083 0.45528 0.0
H2015 H 0.70598 0.33088 0.41279 0.0
H2016 H 0.68746 0.41244 0.53451 0.0
H2017 H 0.74951 0.43105 0.50053 0.0
H2018 H 0.67987 0.45334 0.5415 0.0
H2019 H 0.74088 0.4715 0.50818 0.0
H2020 H 0.66095 0.35213 0.55917 0.0
H2021 H 0.66784 0.30172 0.50611 0.0
H2022 H 0.74901 0.42083 0.40569 0.0
H2023 H 0.68596 0.43839 0.43909 0.0
Li2024 Li 0.6413 0.50725 0.23209 0.0
Li2025 Li 0.61084 0.51763 0.25825 0.0
Li2026 Li 0.64137 0.48992 0.26946 0.0
Li2027 Li 0.61153 0.47832 0.24279 0.0
C2028 C 0.66075 0.53849 0.25886 0.0
N2029 N 0.69445 0.57032 0.25143 0.0
C2030 C 0.65533 0.56158 0.25775 0.0
C2031 C 0.68335 0.53163 0.25653 0.0
C2032 C 0.67259 0.57741 0.25389 0.0
C2033 C 0.70013 0.54796 0.25268 0.0
C2034 C 0.58928 0.51594 0.21519 0.0
C2035 C 0.54938 0.51377 0.20599 0.0
N2036 N 0.55154 0.53251 0.19265 0.0
C2037 C 0.59115 0.53494 0.20108 0.0
C2038 C 0.56828 0.50506 0.2174 0.0
C2039 C 0.57186 0.54317 0.18997 0.0
C2040 C 0.67177 0.50454 0.1946 0.0
N2041 N 0.65867 0.5187 0.20731 0.0
C2042 C 0.66664 0.54972 0.18238 0.0
C2043 C 0.65613 0.54095 0.20171 0.0
C2044 C 0.67979 0.53541 0.16853 0.0
C2045 C 0.68264 0.51262 0.17507 0.0
H2046 H 0.6732 0.48683 0.19922 0.0
H2047 H 0.64541 0.55178 0.21194 0.0
C2048 C 0.58465 0.54219 0.29026 0.0
N2049 N 0.59297 0.54261 0.26873 0.0
C2050 C 0.57354 0.56115 0.29921 0.0
C2051 C 0.58001 0.58081 0.26377 0.0
C2052 C 0.59078 0.56137 0.25544 0.0
C2053 C 0.57143 0.58099 0.28607 0.0
H2054 H 0.58717 0.52734 0.30076 0.0
H2055 H 0.59836 0.56166 0.23875 0.0
C2056 C 0.66029 0.45752 0.24339 0.0
N2057 N 0.69111 0.42312 0.25185 0.0
C2058 C 0.65269 0.43539 0.24741 0.0
C2059 C 0.68359 0.46207 0.24332 0.0
C2060 C 0.66852 0.41825 0.25175 0.0
C2061 C 0.6989 0.44448 0.24773 0.0
C2062 C 0.58864 0.48055 0.28526 0.0
C2063 C 0.58995 0.46484 0.30303 0.0
C2064 C 0.56743 0.48867 0.27837 0.0
C2065 C 0.56996 0.45715 0.31326 0.0
C2066 C 0.54783 0.4806 0.28904 0.0
N2067 N 0.54949 0.4651 0.3061 0.0
C2068 C 0.67309 0.49294 0.30607 0.0
C2069 C 0.65478 0.45738 0.30149 0.0
C2070 C 0.6839 0.48526 0.32578 0.0
N2071 N 0.65873 0.47902 0.2945 0.0
C2072 C 0.66522 0.44901 0.32103 0.0
C2073 C 0.6797 0.46313 0.33371 0.0
H2074 H 0.67557 0.51024 0.30044 0.0
H2075 H 0.64297 0.44681 0.29223 0.0
C2076 C 0.59273 0.45097 0.20875 0.0
N2077 N 0.59466 0.45295 0.23168 0.0
C2078 C 0.58246 0.43184 0.1992 0.0
C2079 C 0.57607 0.41721 0.23702 0.0
C2080 C 0.58655 0.4366 0.24584 0.0
C2081 C 0.57418 0.41451 0.21338 0.0
H2082 H 0.59958 0.46411 0.19788 0.0
H2083 H 0.58894 0.43812 0.26394 0.0
O2084 O 0.64403 0.5227 0.2623 0.0
O2085 O 0.60809 0.50752 0.22602 0.0
O2086 O 0.64502 0.47456 0.2393 0.0
O2087 O 0.60808 0.48817 0.275 0.0
H2088 H 0.63798 0.56723 0.25974 0.0
H2089 H 0.68787 0.51389 0.25769 0.0
H2090 H 0.66862 0.59532 0.25286 0.0
H2091 H 0.71767 0.54286 0.25073 0.0
H2092 H 0.53302 0.50556 0.20765 0.0
H2093 H 0.60729 0.54338 0.19882 0.0
H2094 H 0.56655 0.48992 0.22762 0.0
H2095 H 0.57306 0.55799 0.17917 0.0
H2096 H 0.66422 0.56746 0.17816 0.0
H2097 H 0.69242 0.50095 0.16475 0.0
H2098 H 0.56702 0.56034 0.31638 0.0
H2099 H 0.57929 0.59581 0.25316 0.0
H2100 H 0.63475 0.4315 0.24742 0.0
H2101 H 0.68982 0.47898 0.23979 0.0
H2102 H 0.66285 0.40109 0.25507 0.0
H2103 H 0.71697 0.4478 0.24782 0.0
H2104 H 0.6062 0.45856 0.30881 0.0
H2105 H 0.56611 0.50137 0.26522 0.0
H2106 H 0.57073 0.44489 0.32693 0.0
H2107 H 0.53131 0.48675 0.28384 0.0
H2108 H 0.69471 0.49681 0.33518 0.0
H2109 H 0.66169 0.43175 0.32634 0.0
H2110 H 0.58118 0.43054 0.18089 0.0
H2111 H 0.57029 0.4041 0.24856 0.0
C2112 C 0.05571 0.37657 0.27965 0.0
C2113 C 0.05851 0.39618 0.293 0.0
H2114 H 0.04358 0.3423 0.27798 0.0
C2115 C 0.05077 0.39594 0.31557 0.0
H2116 H 0.06126 0.37632 0.26211 0.0
C2117 C 0.04079 0.37645 0.32471 0.0
C2118 C 0.03817 0.35671 0.31147 0.0
H2119 H 0.05301 0.41064 0.32642 0.0
H2120 H 0.0357 0.37669 0.34239 0.0
C2121 C 0.04561 0.35707 0.28876 0.0
C2122 C 0.88198 0.81038 0.57585 0.0
C2123 C 0.89786 0.79887 0.56222 0.0
H2124 H 0.85008 0.82758 0.57758 0.0
C2125 C 0.89287 0.79557 0.53908 0.0
H2126 H 0.88506 0.81294 0.5938 0.0
C2127 C 0.8725 0.80364 0.52982 0.0
C2128 C 0.85665 0.81517 0.54348 0.0
H2129 H 0.90479 0.78694 0.52804 0.0
H2130 H 0.8691 0.80066 0.51198 0.0
C2131 C 0.8617 0.81847 0.5666 0.0
C2132 C 0.44869 0.60349 0.81715 0.0
C2133 C 0.44459 0.6015 0.79371 0.0
H2134 H 0.46083 0.62425 0.84429 0.0
C2135 C 0.45138 0.61932 0.7793 0.0
H2136 H 0.44397 0.58997 0.8287 0.0
C2137 C 0.46144 0.63893 0.78823 0.0
C2138 C 0.46495 0.64115 0.81176 0.0
H2139 H 0.44833 0.61841 0.76118 0.0
H2140 H 0.4663 0.65241 0.7767 0.0
C2141 C 0.45867 0.62307 0.82606 0.0
C2142 C 0.61539 0.21371 0.03885 0.0
C2143 C 0.6059 0.20465 0.05883 0.0
H2144 H 0.6432 0.21323 0.01536 0.0
C2145 C 0.61786 0.18754 0.07045 0.0
H2146 H 0.60658 0.22679 0.02938 0.0
C2147 C 0.63859 0.17954 0.06224 0.0
C2148 C 0.64815 0.18857 0.0423 0.0
H2149 H 0.61135 0.18042 0.08611 0.0
H2150 H 0.64697 0.16601 0.07146 0.0
C2151 C 0.63628 0.20576 0.03068 0.0
C2152 C 0.06653 0.6094 0.18362 0.0
C2153 C 0.06294 0.60381 0.20656 0.0
H2154 H 0.061 0.6332 0.15682 0.0
C2155 C 0.05075 0.61908 0.22032 0.0
H2156 H 0.07614 0.59825 0.17258 0.0
C2157 C 0.04239 0.63945 0.21133 0.0
C2158 C 0.04606 0.64502 0.18838 0.0
H2159 H 0.04752 0.61523 0.23802 0.0
H2160 H 0.03329 0.65095 0.22244 0.0
C2161 C 0.05815 0.62967 0.17465 0.0
C2162 C 0.60934 0.79753 0.45815 0.0
C2163 C 0.60797 0.79328 0.43465 0.0
H2164 H 0.62962 0.80982 0.48581 0.0
C2165 C 0.62709 0.79795 0.42106 0.0
H2166 H 0.59516 0.79377 0.46925 0.0
C2167 C 0.64693 0.80677 0.43065 0.0
C2168 C 0.64808 0.81141 0.45402 0.0
H2169 H 0.6266 0.79535 0.40286 0.0
H2170 H 0.66117 0.81061 0.41965 0.0
C2171 C 0.62911 0.80662 0.46769 0.0
C2172 C 0.46385 0.37644 0.67896 0.0
C2173 C 0.46089 0.35598 0.69093 0.0
H2174 H 0.45706 0.41214 0.67754 0.0
C2175 C 0.44937 0.35641 0.71185 0.0
H2176 H 0.47246 0.37665 0.6627 0.0
C2177 C 0.4405 0.37676 0.72032 0.0
C2178 C 0.44279 0.39706 0.70795 0.0
H2179 H 0.44699 0.34095 0.72154 0.0
H2180 H 0.43116 0.37644 0.73617 0.0
C2181 C 0.45484 0.39673 0.68735 0.0
C2182 C 0.87923 0.22103 0.93993 0.0
C2183 C 0.89701 0.20701 0.93232 0.0
H2184 H 0.84594 0.22277 0.9546 0.0
C2185 C 0.89466 0.18333 0.93431 0.0
H2186 H 0.8806 0.23934 0.93881 0.0
C2187 C 0.87491 0.17388 0.94343 0.0
C2188 C 0.85702 0.18785 0.95081 0.0
H2189 H 0.90792 0.17203 0.92838 0.0
H2190 H 0.8737 0.15556 0.94475 0.0
C2191 C 0.85947 0.21155 0.94916 0.0
C2192 C 0.29241 0.07558 0.37733 0.0
C2193 C 0.28989 0.06282 0.39736 0.0
H2194 H 0.30349 0.07612 0.34274 0.0
C2195 C 0.29608 0.03975 0.39719 0.0
H2196 H 0.28753 0.09332 0.37684 0.0
C2197 C 0.30511 0.02983 0.37757 0.0
C2198 C 0.30796 0.04272 0.35765 0.0
H2199 H 0.29445 0.02951 0.41239 0.0
H2200 H 0.30995 0.01208 0.378 0.0
C2201 C 0.30129 0.06565 0.35771 0.0
C2202 C 0.18016 0.03515 0.62617 0.0
C2203 C 0.19195 0.03889 0.64662 0.0
H2204 H 0.17832 0.04151 0.59045 0.0
C2205 C 0.21207 0.05179 0.64609 0.0
H2206 H 0.16448 0.02554 0.62595 0.0
C2207 C 0.21987 0.0612 0.6257 0.0
C2208 C 0.20769 0.05798 0.6054 0.0
H2209 H 0.22168 0.0548 0.66148 0.0
H2210 H 0.23504 0.0716 0.626 0.0
C2211 C 0.18795 0.04455 0.60583 0.0
C2212 C 0.21404 0.96048 0.86527 0.0
C2213 C 0.19055 0.96405 0.86266 0.0
H2214 H 0.24073 0.94733 0.8862 0.0
C2215 C 0.17597 0.95789 0.88057 0.0
H2216 H 0.22579 0.96525 0.85195 0.0
C2217 C 0.18456 0.94798 0.90032 0.0
C2218 C 0.20795 0.94377 0.90267 0.0
H2219 H 0.15777 0.96009 0.87911 0.0
H2220 H 0.17279 0.94337 0.91369 0.0
C2221 C 0.22264 0.95045 0.88504 0.0
C2222 C 0.31036 0.92426 0.12224 0.0
C2223 C 0.29535 0.93644 0.10821 0.0
H2224 H 0.33049 0.92404 0.15242 0.0
C2225 C 0.28847 0.95829 0.115 0.0
H2226 H 0.31574 0.90725 0.11774 0.0
C2227 C 0.29667 0.96782 0.1352 0.0
C2228 C 0.31188 0.95569 0.14908 0.0
H2229 H 0.27703 0.96819 0.10453 0.0
H2230 H 0.29103 0.98467 0.13996 0.0
C2231 C 0.31855 0.93377 0.14235 0.0
C2232 C 0.3694 0.29897 0.02892 0.0
C2233 C 0.3552 0.31265 0.04244 0.0
H2234 H 0.40046 0.28011 0.0267 0.0
C2235 C 0.3619 0.31747 0.06485 0.0
H2236 H 0.36468 0.29477 0.01164 0.0
C2237 C 0.38218 0.30883 0.07355 0.0
C2238 C 0.39647 0.29528 0.06004 0.0
H2239 H 0.35163 0.32823 0.07568 0.0
H2240 H 0.38654 0.31267 0.09101 0.0
C2241 C 0.3898 0.29037 0.03763 0.0
C2242 C 0.94255 0.85412 0.21083 0.0
C2243 C 0.96067 0.85378 0.19529 0.0
H2244 H 0.92 0.87452 0.23086 0.0
C2245 C 0.97079 0.87443 0.18885 0.0
H2246 H 0.93452 0.83844 0.21616 0.0
C2247 C 0.96242 0.89504 0.19715 0.0
C2248 C 0.94396 0.89541 0.21227 0.0
H2249 H 0.98465 0.8747 0.17675 0.0
H2250 H 0.97019 0.91074 0.1915 0.0
C2251 C 0.93437 0.87473 0.21936 0.0
C2252 C 0.13689 0.71019 0.53529 0.0
C2253 C 0.14723 0.69084 0.54479 0.0
H2254 H 0.10859 0.73309 0.53597 0.0
C2255 C 0.13639 0.67989 0.56306 0.0
H2256 H 0.14483 0.71917 0.52134 0.0
C2257 C 0.11591 0.68809 0.57168 0.0
C2258 C 0.10544 0.70731 0.56211 0.0
H2259 H 0.14356 0.66473 0.5706 0.0
H2260 H 0.10837 0.67938 0.58603 0.0
C2261 C 0.11623 0.71832 0.54384 0.0
C2262 C 0.96748 0.63369 0.69945 0.0
C2263 C 0.95287 0.6511 0.69208 0.0
H2264 H 0.97034 0.60053 0.71424 0.0
C2265 C 0.92933 0.64834 0.69489 0.0
H2266 H 0.98569 0.63523 0.69735 0.0
C2267 C 0.92055 0.62845 0.70442 0.0
C2268 C 0.93509 0.6108 0.71133 0.0
H2269 H 0.91764 0.66152 0.68958 0.0
H2270 H 0.90229 0.62668 0.70582 0.0
C2271 C 0.95868 0.61372 0.7089 0.0
C2272 C 0.12139 0.17855 0.45382 0.0
C2273 C 0.14065 0.19177 0.45878 0.0
H2274 H 0.08719 0.17791 0.44164 0.0
C2275 C 0.13944 0.21545 0.45593 0.0
H2276 H 0.12168 0.16029 0.45613 0.0
C2277 C 0.11955 0.2256 0.44775 0.0
C2278 C 0.10041 0.2123 0.44247 0.0
H2279 H 0.15403 0.22607 0.45954 0.0
H2280 H 0.11917 0.24386 0.44549 0.0
C2281 C 0.10152 0.18868 0.4458 0.0
C2282 C 0.54496 0.38332 0.21297 0.0
C2283 C 0.56449 0.39336 0.20358 0.0
H2284 H 0.52104 0.35589 0.21144 0.0
C2285 C 0.57501 0.38282 0.1849 0.0
H2286 H 0.53639 0.3911 0.22728 0.0
C2287 C 0.56622 0.36273 0.17584 0.0
C2288 C 0.54665 0.35271 0.18516 0.0
H2289 H 0.59024 0.38996 0.17745 0.0
H2290 H 0.57461 0.35519 0.1613 0.0
C2291 C 0.53607 0.36326 0.2038 0.0
C2292 C 0.36364 0.78897 0.96324 0.0
C2293 C 0.35568 0.81032 0.95608 0.0
H2294 H 0.3894 0.76344 0.96008 0.0
C2295 C 0.36831 0.82249 0.93987 0.0
H2296 H 0.35423 0.77914 0.97561 0.0
C2297 C 0.3884 0.81351 0.93097 0.0
C2298 C 0.39629 0.7921 0.93799 0.0
H2299 H 0.3628 0.83911 0.93421 0.0
H2300 H 0.39757 0.82321 0.91831 0.0
C2301 C 0.38368 0.77992 0.95422 0.0
C2302 C 0.94847 0.38086 0.77646 0.0
C2303 C 0.94301 0.39934 0.7906 0.0
H2304 H 0.96076 0.34663 0.77442 0.0
C2305 C 0.94686 0.3974 0.81408 0.0
H2306 H 0.94587 0.38189 0.75827 0.0
C2307 C 0.95544 0.37729 0.82328 0.0
C2308 C 0.96043 0.35863 0.80923 0.0
H2309 H 0.94263 0.41121 0.82548 0.0
H2310 H 0.95806 0.37631 0.84147 0.0
C2311 C 0.95716 0.36074 0.78567 0.0
C2312 C 0.35036 0.19984 0.56691 0.0
C2313 C 0.34995 0.19044 0.54496 0.0
H2314 H 0.37009 0.21581 0.59287 0.0
C2315 C 0.36992 0.19102 0.53185 0.0
H2316 H 0.33523 0.19992 0.57738 0.0
C2317 C 0.38991 0.20042 0.54064 0.0
C2318 C 0.39038 0.20951 0.56273 0.0
H2319 H 0.37027 0.18373 0.51496 0.0
H2320 H 0.405 0.20055 0.53012 0.0
C2321 C 0.37031 0.20923 0.57569 0.0
C2322 C 0.55724 0.62798 0.32799 0.0
C2323 C 0.54444 0.64308 0.31461 0.0
H2324 H 0.57605 0.59703 0.32951 0.0
C2325 C 0.54005 0.63728 0.29184 0.0
H2326 H 0.56065 0.63163 0.34569 0.0
C2327 C 0.54847 0.61703 0.28265 0.0
C2328 C 0.56156 0.60211 0.29597 0.0
H2329 H 0.53041 0.64856 0.28096 0.0
H2330 H 0.54467 0.61307 0.26509 0.0
C2331 C 0.56577 0.60786 0.31878 0.0
C2332 C 0.11323 0.81501 0.07238 0.0
C2333 C 0.10347 0.79529 0.06308 0.0
H2334 H 0.14055 0.83893 0.07129 0.0
C2335 C 0.11455 0.78445 0.04489 0.0
H2336 H 0.10531 0.82362 0.08658 0.0
C2337 C 0.13492 0.79315 0.03623 0.0
C2338 C 0.14474 0.81277 0.04569 0.0
H2339 H 0.1074 0.76931 0.03726 0.0
H2340 H 0.14314 0.78433 0.02233 0.0
C2341 C 0.13361 0.82362 0.06381 0.0
C2342 C 0.70491 0.96078 0.60677 0.0
C2343 C 0.70704 0.93709 0.60449 0.0
H2344 H 0.69492 0.98857 0.62803 0.0
C2345 C 0.7009 0.92318 0.62292 0.0
H2346 H 0.70937 0.97198 0.59288 0.0
C2347 C 0.69242 0.93265 0.64294 0.0
C2348 C 0.6899 0.9563 0.64512 0.0
H2349 H 0.70265 0.9049 0.62189 0.0
H2350 H 0.68732 0.92134 0.65653 0.0
C2351 C 0.69642 0.97027 0.62685 0.0
C2352 C 0.79669 0.96615 0.36508 0.0
C2353 C 0.81596 0.95604 0.35519 0.0
H2354 H 0.77301 0.96609 0.39271 0.0
C2355 C 0.82613 0.93749 0.3663 0.0
H2356 H 0.78833 0.98036 0.35693 0.0
C2357 C 0.81719 0.92915 0.38663 0.0
C2358 C 0.79791 0.93919 0.39651 0.0
H2359 H 0.84119 0.92949 0.3594 0.0
H2360 H 0.82526 0.91457 0.39441 0.0
C2361 C 0.78777 0.95782 0.38549 0.0
C2362 C 0.82085 0.0661 0.10932 0.0
C2363 C 0.79755 0.06386 0.10457 0.0
H2364 H 0.84803 0.05953 0.13241 0.0
C2365 C 0.78357 0.05302 0.12066 0.0
H2366 H 0.83211 0.07464 0.09756 0.0
C2367 C 0.79267 0.04476 0.14102 0.0
C2368 C 0.81597 0.04711 0.14577 0.0
H2369 H 0.76558 0.05081 0.11749 0.0
H2370 H 0.78137 0.03681 0.15316 0.0
C2371 C 0.82994 0.05775 0.12957 0.0
C2372 C 0.68101 0.06648 0.86175 0.0
C2373 C 0.68829 0.0452 0.85373 0.0
H2374 H 0.68399 0.09194 0.88755 0.0
C2375 C 0.70472 0.03315 0.86618 0.0
H2376 H 0.66819 0.07604 0.85267 0.0
C2377 C 0.71375 0.04225 0.8862 0.0
C2378 C 0.70632 0.06345 0.89431 0.0
H2379 H 0.71073 0.01677 0.86035 0.0
H2380 H 0.72635 0.03258 0.89549 0.0
C2381 C 0.68986 0.07545 0.88186 0.0
C2382 C 0.61134 0.70897 0.96168 0.0
C2383 C 0.60813 0.71041 0.93805 0.0
H2384 H 0.63276 0.69775 0.9889 0.0
C2385 C 0.62519 0.70198 0.9236 0.0
H2386 H 0.59862 0.71548 0.97327 0.0
C2387 C 0.64478 0.69203 0.93253 0.0
C2388 C 0.64782 0.69021 0.95614 0.0
H2389 H 0.62319 0.70255 0.90532 0.0
H2390 H 0.65752 0.68565 0.9209 0.0
C2391 C 0.631 0.69903 0.97063 0.0
C2392 C 0.06654 0.11187 0.8137 0.0
C2393 C 0.06492 0.10658 0.79049 0.0
H2394 H 0.0598 0.13621 0.83992 0.0
C2395 C 0.05445 0.12217 0.77574 0.0
H2396 H 0.07471 0.10025 0.82541 0.0
C2397 C 0.04574 0.14267 0.78409 0.0
C2398 C 0.04778 0.14811 0.80724 0.0
H2399 H 0.05294 0.11845 0.75778 0.0
H2400 H 0.03778 0.15445 0.77241 0.0
C2401 C 0.05821 0.1325 0.82196 0.0
C2402 C 0.87565 0.28167 0.45082 0.0
C2403 C 0.8911 0.29573 0.43925 0.0
H2404 H 0.84391 0.27951 0.46864 0.0
C2405 C 0.88606 0.31892 0.43676 0.0
H2406 H 0.87919 0.26374 0.45301 0.0
C2407 C 0.86583 0.32783 0.44538 0.0
C2408 C 0.85039 0.3138 0.45697 0.0
H2409 H 0.89758 0.33009 0.42774 0.0
H2410 H 0.86232 0.34576 0.44315 0.0
C2411 C 0.85557 0.29067 0.4598 0.0
C2412 C 0.5418 0.88606 0.78694 0.0
C2413 C 0.56258 0.89466 0.795 0.0
H2414 H 0.5169 0.85953 0.78914 0.0
C2415 C 0.5744 0.88244 0.81175 0.0
H2416 H 0.53226 0.89516 0.77411 0.0
C2417 C 0.56565 0.86214 0.82032 0.0
C2418 C 0.54482 0.85357 0.81241 0.0
H2419 H 0.59059 0.88845 0.81811 0.0
H2420 H 0.57509 0.8533 0.83342 0.0
C2421 C 0.53294 0.86577 0.79565 0.0
C2422 C 0.95724 0.1414 0.29301 0.0
C2423 C 0.95939 0.1443 0.31662 0.0
H2424 H 0.94639 0.11974 0.26585 0.0
C2425 C 0.9525 0.12658 0.33108 0.0
H2426 H 0.96256 0.15466 0.28142 0.0
C2427 C 0.94338 0.10656 0.32218 0.0
C2428 C 0.94097 0.10374 0.2986 0.0
H2429 H 0.95368 0.12836 0.34935 0.0
H2430 H 0.93817 0.09327 0.33379 0.0
C2431 C 0.9482 0.1213 0.28409 0.0
C2432 C 0.54231 0.11339 0.71287 0.0
C2433 C 0.56169 0.10341 0.7031 0.0
H2434 H 0.51854 0.14099 0.71201 0.0
C2435 C 0.5721 0.11421 0.68453 0.0
H2436 H 0.53386 0.1054 0.72713 0.0
C2437 C 0.56337 0.1345 0.6759 0.0
C2438 C 0.54396 0.14446 0.68559 0.0
H2439 H 0.58722 0.10712 0.6768 0.0
H2440 H 0.5717 0.14225 0.66144 0.0
C2441 C 0.53346 0.13365 0.70412 0.0
C2442 C 0.13899 0.29016 0.95783 0.0
C2443 C 0.14583 0.31229 0.95204 0.0
H2444 H 0.11402 0.26391 0.95357 0.0
C2445 C 0.13209 0.32521 0.93741 0.0
H2446 H 0.14932 0.27981 0.96901 0.0
C2447 C 0.11193 0.31622 0.92876 0.0
C2448 C 0.10514 0.29403 0.93437 0.0
H2449 H 0.13681 0.3424 0.93285 0.0
H2450 H 0.10179 0.32654 0.91739 0.0
C2451 C 0.11891 0.28103 0.94892 0.0
C2452 C 0.39141 0.68694 0.43244 0.0
C2453 C 0.39786 0.70927 0.43797 0.0
H2454 H 0.36679 0.66055 0.43601 0.0
C2455 C 0.38327 0.7224 0.4516 0.0
H2456 H 0.40202 0.67646 0.42168 0.0
C2457 C 0.36274 0.71336 0.45953 0.0
C2458 C 0.35632 0.69102 0.45395 0.0
H2459 H 0.38778 0.73961 0.45627 0.0
H2460 H 0.35178 0.72397 0.46981 0.0
C2461 C 0.37098 0.67793 0.44038 0.0
C2462 C 0.80286 0.52898 0.87278 0.0
C2463 C 0.80942 0.54303 0.85463 0.0
H2464 H 0.78853 0.52704 0.90616 0.0
C2465 C 0.80646 0.56662 0.85666 0.0
H2466 H 0.80474 0.51071 0.87162 0.0
C2467 C 0.79743 0.576 0.87648 0.0
C2468 C 0.79094 0.56201 0.89475 0.0
H2469 H 0.81174 0.57794 0.84314 0.0
H2470 H 0.79607 0.59431 0.87766 0.0
C2471 C 0.79364 0.53835 0.8926 0.0
C2472 C 0.67638 0.55823 0.13276 0.0
C2473 C 0.68943 0.54402 0.14683 0.0
H2474 H 0.67473 0.57757 0.1021 0.0
C2475 C 0.7115 0.53806 0.13988 0.0
H2476 H 0.65921 0.56289 0.13744 0.0
C2477 C 0.72036 0.54633 0.11941 0.0
C2478 C 0.70726 0.56057 0.10538 0.0
H2479 H 0.72202 0.52724 0.1504 0.0
H2480 H 0.73739 0.54144 0.11447 0.0
C2481 C 0.68517 0.56639 0.11232 0.0
C2482 C 0.68454 0.43487 0.39137 0.0
C2483 C 0.70707 0.43975 0.39758 0.0
H2484 H 0.65825 0.43859 0.36664 0.0
C2485 C 0.72066 0.45245 0.38258 0.0
H2486 H 0.6737 0.42484 0.40234 0.0
C2487 C 0.71184 0.46013 0.36185 0.0
C2488 C 0.68932 0.45512 0.35565 0.0
H2489 H 0.73805 0.45658 0.38692 0.0
H2490 H 0.72275 0.46973 0.35057 0.0
C2491 C 0.67577 0.44247 0.37071 0.0
C2492 C 0.80193 0.47144 0.63012 0.0
C2493 C 0.80929 0.45766 0.64818 0.0
H2494 H 0.78673 0.47284 0.59711 0.0
C2495 C 0.80677 0.43399 0.64639 0.0
H2496 H 0.80342 0.48975 0.63112 0.0
C2497 C 0.79739 0.42429 0.62687 0.0
C2498 C 0.79018 0.43801 0.60869 0.0
H2499 H 0.81264 0.42289 0.65983 0.0
H2500 H 0.79634 0.40595 0.62584 0.0
C2501 C 0.79242 0.46173 0.61062 0.0
C2502 C 0.45784 0.10343 0.19307 0.0
C2503 C 0.43948 0.10481 0.20828 0.0
H2504 H 0.48046 0.12122 0.17091 0.0
C2505 C 0.43028 0.12632 0.21321 0.0
H2506 H 0.46548 0.08719 0.18903 0.0
C2507 C 0.43916 0.14591 0.20315 0.0
C2508 C 0.45737 0.14452 0.18776 0.0
H2509 H 0.41591 0.12805 0.22456 0.0
H2510 H 0.43174 0.16217 0.20751 0.0
C2511 C 0.46664 0.12302 0.1829 0.0
C2512 C 0.06156 0.87105 0.67568 0.0
C2513 C 0.04852 0.8557 0.68854 0.0
H2514 H 0.08047 0.90203 0.67511 0.0
C2515 C 0.04392 0.86097 0.7114 0.0
H2516 H 0.06515 0.8678 0.65793 0.0
C2517 C 0.05235 0.88095 0.72117 0.0
C2518 C 0.06563 0.89615 0.70835 0.0
H2519 H 0.03409 0.84949 0.72188 0.0
H2520 H 0.04839 0.8845 0.73878 0.0
C2521 C 0.07006 0.89094 0.68546 0.0
C2522 C 0.45383 0.85819 0.288 0.0
C2523 C 0.45443 0.85455 0.31159 0.0
H2524 H 0.44463 0.88076 0.2609 0.0
C2525 C 0.44645 0.87171 0.32615 0.0
H2526 H 0.4598 0.84522 0.27639 0.0
C2527 C 0.43794 0.89202 0.31733 0.0
C2528 C 0.437 0.89556 0.29374 0.0
H2529 H 0.44694 0.86948 0.34441 0.0
H2530 H 0.43167 0.9048 0.32899 0.0
C2531 C 0.44504 0.87844 0.27915 0.0
C2532 C 0.86208 0.70718 0.03901 0.0
C2533 C 0.85322 0.68666 0.04745 0.0
H2534 H 0.88866 0.732 0.04098 0.0
C2535 C 0.865 0.67533 0.06485 0.0
H2536 H 0.85334 0.71639 0.0257 0.0
C2537 C 0.88515 0.68429 0.07363 0.0
C2538 C 0.894 0.70483 0.06527 0.0
H2539 H 0.8588 0.65935 0.07153 0.0
H2540 H 0.89364 0.67524 0.08722 0.0
C2541 C 0.88221 0.71621 0.04788 0.0
C2542 C 0.61757 0.281 0.55042 0.0
C2543 C 0.5993 0.29456 0.55774 0.0
H2544 H 0.65148 0.28004 0.53726 0.0
C2545 C 0.60132 0.31832 0.55619 0.0
H2546 H 0.6165 0.26264 0.55115 0.0
C2547 C 0.62125 0.32826 0.54802 0.0
C2548 C 0.63973 0.31473 0.54122 0.0
H2549 H 0.58773 0.32932 0.56191 0.0
H2550 H 0.6222 0.34661 0.54712 0.0
C2551 C 0.63754 0.29096 0.54224 0.0
C2552 C 0.2204 0.44493 0.12241 0.0
C2553 C 0.20652 0.43927 0.10379 0.0
H2554 H 0.22196 0.45711 0.1567 0.0
C2555 C 0.18293 0.44247 0.10565 0.0
H2556 H 0.23866 0.44285 0.12146 0.0
C2557 C 0.17341 0.45075 0.12574 0.0
C2558 C 0.18722 0.45604 0.1445 0.0
H2559 H 0.17171 0.43806 0.09176 0.0
H2560 H 0.15517 0.45298 0.12658 0.0
C2561 C 0.21086 0.45329 0.14253 0.0
C2562 C 0.31414 0.46931 0.87443 0.0
C2563 C 0.31024 0.45876 0.85334 0.0
H2564 H 0.3082 0.4689 0.91031 0.0
C2565 C 0.29652 0.43922 0.85266 0.0
H2566 H 0.32483 0.48424 0.87564 0.0
C2567 C 0.28727 0.43023 0.87259 0.0
C2568 C 0.29141 0.44059 0.89373 0.0
H2569 H 0.29293 0.4308 0.8367 0.0
H2570 H 0.27726 0.41484 0.87144 0.0
C2571 C 0.30484 0.46034 0.89438 0.0
C2572 C 0.30884 0.54436 0.60191 0.0
C2573 C 0.29347 0.56263 0.60277 0.0
H2574 H 0.33004 0.52147 0.62056 0.0
C2575 C 0.28711 0.57128 0.62412 0.0
H2576 H 0.31394 0.53714 0.58578 0.0
C2577 C 0.29611 0.5621 0.64409 0.0
C2578 C 0.31174 0.54407 0.64322 0.0
H2579 H 0.27553 0.58551 0.62544 0.0
H2580 H 0.29084 0.56919 0.66022 0.0
C2581 C 0.31786 0.53519 0.62189 0.0
C2582 C 0.20825 0.53804 0.36202 0.0
C2583 C 0.18783 0.54633 0.3528 0.0
H2584 H 0.23285 0.54053 0.38875 0.0
C2585 C 0.17641 0.56397 0.36416 0.0
H2586 H 0.21752 0.52455 0.35361 0.0
C2587 C 0.18521 0.57315 0.38421 0.0
C2588 C 0.20568 0.56496 0.39338 0.0
H2589 H 0.16049 0.57055 0.35769 0.0
H2590 H 0.17611 0.5869 0.39235 0.0
C2591 C 0.21712 0.54731 0.38204 0.0
loop_
_geom_bond_atom_site_label_1
_geom_bond_atom_site_label_2
_geom_bond_distance
_geom_bond_site_symmetry_2
_ccdc_geom_bond_type
Li0 N17 1.990 . S
Li0 O60 1.956 . S
Li0 O61 1.970 . S
Li0 O62 1.961 1_455 S
Li1 N25 1.990 . S
Li1 O60 1.970 . S
Li1 O61 1.956 . S
Li1 O63 1.961 1_455 S
Li2 N47 1.990 . S
Li2 O60 1.961 1_655 S
Li2 O62 1.956 . S
Li2 O63 1.970 . S
Li3 N53 1.990 . S
Li3 O61 1.961 1_655 S
Li3 O62 1.970 . S
Li3 O63 1.956 . S
C4 C6 1.348 . S
C4 C7 1.356 . S
C4 O60 1.325 . S
N5 C8 1.314 . S
N5 C9 1.279 . S
C6 C4 1.348 . S
C6 C8 1.353 . S
C6 H64 0.929 . S
C7 C4 1.356 . S
C7 C9 1.358 . S
C7 H65 0.930 . S
C8 N5 1.314 . S
C8 C6 1.353 . S
C8 H66 0.930 . S
C9 N5 1.279 . S
C9 C7 1.358 . S
C9 H67 0.930 . S
C10 C13 1.348 . S
C10 C14 1.356 . S
C10 O61 1.325 . S
C11 N12 1.279 . S
C11 C14 1.358 . S
C11 H68 0.930 . S
N12 C11 1.279 . S
N12 C15 1.314 . S
C13 C10 1.348 . S
C13 C15 1.353 . S
C13 H69 0.929 . S
C14 C10 1.356 . S
C14 C11 1.358 . S
C14 H70 0.930 . S
C15 N12 1.314 . S
C15 C13 1.353 . S
C15 H71 0.930 . S
C16 N17 1.314 . S
C16 C21 1.353 . S
C16 H22 0.930 1_455 S
N17 Li0 1.990 . S
N17 C16 1.314 . S
N17 C19 1.279 . S
C18 C19 1.358 . S
C18 C20 1.356 . S
C18 H72 0.930 . S
C19 N17 1.279 . S
C19 C18 1.358 . S
C19 H23 0.930 . S
C20 C18 1.356 . S
C20 C21 1.348 . S
C21 C16 1.353 . S
C21 C20 1.348 . S
C21 H73 0.929 . S
H22 C16 0.930 1_655 S
H23 C19 0.930 . S
C24 N25 1.314 . S
C24 C26 1.353 . S
C24 H30 0.930 . S
N25 Li1 1.990 . S
N25 C24 1.314 . S
N25 C28 1.279 . S
C26 C24 1.353 . S
C26 C29 1.348 . S
C26 H74 0.929 . S
C27 C28 1.358 . S
C27 C29 1.356 . S
C27 H75 0.930 . S
C28 N25 1.279 . S
C28 C27 1.358 . S
C28 H31 0.930 . S
C29 C26 1.348 . S
C29 C27 1.356 . S
H30 C24 0.930 . S
H31 C28 0.930 . S
C32 C34 1.348 . S
C32 C35 1.356 . S
C32 O62 1.325 . S
N33 C36 1.314 . S
N33 C37 1.279 . S
C34 C32 1.348 . S
C34 C36 1.353 . S
C34 H76 0.929 . S
C35 C32 1.356 . S
C35 C37 1.358 . S
C35 H77 0.930 . S
C36 N33 1.314 . S
C36 C34 1.353 . S
C36 H78 0.930 . S
C37 N33 1.279 . S
C37 C35 1.358 . S
C37 H79 0.930 . S
C38 C39 1.348 . S
C38 C40 1.356 . S
C38 O63 1.325 . S
C39 C38 1.348 . S
C39 C41 1.353 . S
C39 H80 0.929 . S
C40 C38 1.356 . S
C40 C42 1.358 . S
C40 H81 0.930 . S
C41 C39 1.353 . S
C41 N43 1.314 . S
C41 H82 0.930 . S
C42 C40 1.358 . S
C42 N43 1.279 . S
C42 H83 0.930 . S
N43 C41 1.314 . S
N43 C42 1.279 . S
C44 C46 1.353 . S
C44 N47 1.314 . S
C44 H50 0.930 1_655 S
C45 N47 1.279 . S
C45 C48 1.358 . S
C45 H51 0.930 . S
C46 C44 1.353 . S
C46 C49 1.348 . S
C46 H84 0.929 . S
N47 Li2 1.990 . S
N47 C44 1.314 . S
N47 C45 1.279 . S
C48 C45 1.358 . S
C48 C49 1.356 . S
C48 H85 0.930 . S
C49 C46 1.348 . S
C49 C48 1.356 . S
H50 C44 0.930 1_455 S
H51 C45 0.930 . S
C52 N53 1.314 . S
C52 C54 1.353 . S
C52 H58 0.930 . S
N53 Li3 1.990 . S
N53 C52 1.314 . S
N53 C56 1.279 . S
C54 C52 1.353 . S
C54 C57 1.348 . S
C54 H86 0.929 . S
C55 C56 1.358 . S
C55 C57 1.356 . S
C55 H87 0.930 . S
C56 N53 1.279 . S
C56 C55 1.358 . S
C56 H59 0.930 . S
C57 C54 1.348 . S
C57 C55 1.356 . S
H58 C52 0.930 . S
H59 C56 0.930 . S
O60 Li0 1.956 . S
O60 Li1 1.970 . S
O60 Li2 1.961 1_455 S
O60 C4 1.325 . S
O61 Li0 1.970 . S
O61 Li1 1.956 . S
O61 Li3 1.961 1_455 S
O61 C10 1.325 . S
O62 Li0 1.961 1_655 S
O62 Li2 1.956 . S
O62 Li3 1.970 . S
O62 C32 1.325 . S
O63 Li1 1.961 1_655 S
O63 Li2 1.970 . S
O63 Li3 1.956 . S
O63 C38 1.325 . S
H64 C6 0.929 . S
H65 C7 0.930 . S
H66 C8 0.930 . S
H67 C9 0.930 . S
H68 C11 0.930 . S
H69 C13 0.929 . S
H70 C14 0.930 . S
H71 C15 0.930 . S
H72 C18 0.930 . S
H73 C21 0.929 . S
H74 C26 0.929 . S
H75 C27 0.930 . S
H76 C34 0.929 . S
H77 C35 0.930 . S
H78 C36 0.930 . S
H79 C37 0.930 . S
H80 C39 0.929 . S
H81 C40 0.930 . S
H82 C41 0.930 . S
H83 C42 0.930 . S
H84 C46 0.929 . S
H85 C48 0.930 . S
H86 C54 0.929 . S
H87 C55 0.930 . S
Li88 N105 1.990 . S
Li88 O148 1.956 1_455 S
Li88 O149 1.970 . S
Li88 O150 1.961 . S
Li89 N113 1.990 . S
Li89 O148 1.970 . S
Li89 O149 1.956 1_655 S
Li89 O151 1.961 . S
Li90 N135 1.990 . S
Li90 O148 1.961 . S
Li90 O150 1.956 1_655 S
Li90 O151 1.970 . S
Li91 N141 1.990 . S
Li91 O149 1.961 . S
Li91 O150 1.970 . S
Li91 O151 1.956 1_455 S
C92 C94 1.348 . S
C92 C95 1.356 . S
C92 O148 1.325 . S
N93 C96 1.314 . S
N93 C97 1.279 . S
C94 C92 1.348 . S
C94 C96 1.353 . S
C94 H152 0.929 . S
C95 C92 1.356 . S
C95 C97 1.358 . S
C95 H153 0.930 . S
C96 N93 1.314 . S
C96 C94 1.353 . S
C96 H154 0.930 . S
C97 N93 1.279 . S
C97 C95 1.358 . S
C97 H155 0.930 . S
C98 C101 1.348 . S
C98 C102 1.356 . S
C98 O149 1.325 . S
C99 N100 1.279 . S
C99 C102 1.358 . S
C99 H156 0.930 . S
N100 C99 1.279 . S
N100 C103 1.314 . S
C101 C98 1.348 . S
C101 C103 1.353 . S
C101 H157 0.929 . S
C102 C98 1.356 . S
C102 C99 1.358 . S
C102 H158 0.930 . S
C103 N100 1.314 . S
C103 C101 1.353 . S
C103 H159 0.930 . S
C104 N105 1.314 . S
C104 C109 1.353 . S
C104 H110 0.930 . S
N105 Li88 1.990 . S
N105 C104 1.314 . S
N105 C107 1.279 . S
C106 C107 1.358 . S
C106 C108 1.356 . S
C106 H160 0.930 . S
C107 N105 1.279 . S
C107 C106 1.358 . S
C107 H111 0.930 1_455 S
C108 C106 1.356 . S
C108 C109 1.348 . S
C109 C104 1.353 . S
C109 C108 1.348 . S
C109 H161 0.929 . S
H110 C104 0.930 . S
H111 C107 0.930 1_655 S
C112 N113 1.314 . S
C112 C114 1.353 . S
C112 H118 0.930 . S
N113 Li89 1.990 . S
N113 C112 1.314 . S
N113 C116 1.279 . S
C114 C112 1.353 . S
C114 C117 1.348 . S
C114 H162 0.929 . S
C115 C116 1.358 . S
C115 C117 1.356 . S
C115 H163 0.930 . S
C116 N113 1.279 . S
C116 C115 1.358 . S
C116 H119 0.930 . S
C117 C114 1.348 . S
C117 C115 1.356 . S
H118 C112 0.930 . S
H119 C116 0.930 . S
C120 C122 1.348 . S
C120 C123 1.356 . S
C120 O150 1.325 . S
N121 C124 1.314 . S
N121 C125 1.279 . S
C122 C120 1.348 . S
C122 C124 1.353 . S
C122 H164 0.929 . S
C123 C120 1.356 . S
C123 C125 1.358 . S
C123 H165 0.930 . S
C124 N121 1.314 . S
C124 C122 1.353 . S
C124 H166 0.930 . S
C125 N121 1.279 . S
C125 C123 1.358 . S
C125 H167 0.930 . S
C126 C127 1.348 . S
C126 C128 1.356 . S
C126 O151 1.325 . S
C127 C126 1.348 . S
C127 C129 1.353 . S
C127 H168 0.929 . S
C128 C126 1.356 . S
C128 C130 1.358 . S
C128 H169 0.930 . S
C129 C127 1.353 . S
C129 N131 1.314 . S
C129 H170 0.930 . S
C130 C128 1.358 . S
C130 N131 1.279 . S
C130 H171 0.930 . S
N131 C129 1.314 . S
N131 C130 1.279 . S
C132 C134 1.353 . S
C132 N135 1.314 . S
C132 H138 0.930 . S
C133 N135 1.279 . S
C133 C136 1.358 . S
C133 H139 0.930 1_655 S
C134 C132 1.353 . S
C134 C137 1.348 . S
C134 H172 0.929 . S
N135 Li90 1.990 . S
N135 C132 1.314 . S
N135 C133 1.279 . S
C136 C133 1.358 . S
C136 C137 1.356 . S
C136 H173 0.930 . S
C137 C134 1.348 . S
C137 C136 1.356 . S
H138 C132 0.930 . S
H139 C133 0.930 1_455 S
C140 N141 1.314 . S
C140 C142 1.353 . S
C140 H146 0.930 . S
N141 Li91 1.990 . S
N141 C140 1.314 . S
N141 C144 1.279 . S
C142 C140 1.353 . S
C142 C145 1.348 . S
C142 H174 0.929 . S
C143 C144 1.358 . S
C143 C145 1.356 . S
C143 H175 0.930 . S
C144 N141 1.279 . S
C144 C143 1.358 . S
C144 H147 0.930 . S
C145 C142 1.348 . S
C145 C143 1.356 . S
H146 C140 0.930 . S
H147 C144 0.930 . S
O148 Li88 1.956 1_655 S
O148 Li89 1.970 . S
O148 Li90 1.961 . S
O148 C92 1.325 . S
O149 Li88 1.970 . S
O149 Li89 1.956 1_455 S
O149 Li91 1.961 . S
O149 C98 1.325 . S
O150 Li88 1.961 . S
O150 Li90 1.956 1_455 S
O150 Li91 1.970 . S
O150 C120 1.325 . S
O151 Li89 1.961 . S
O151 Li90 1.970 . S
O151 Li91 1.956 1_655 S
O151 C126 1.325 . S
H152 C94 0.929 . S
H153 C95 0.930 . S
H154 C96 0.930 . S
H155 C97 0.930 . S
H156 C99 0.930 . S
H157 C101 0.929 . S
H158 C102 0.930 . S
H159 C103 0.930 . S
H160 C106 0.930 . S
H161 C109 0.929 . S
H162 C114 0.929 . S
H163 C115 0.930 . S
H164 C122 0.929 . S
H165 C123 0.930 . S
H166 C124 0.930 . S
H167 C125 0.930 . S
H168 C127 0.929 . S
H169 C128 0.930 . S
H170 C129 0.930 . S
H171 C130 0.930 . S
H172 C134 0.929 . S
H173 C136 0.930 . S
H174 C142 0.929 . S
H175 C143 0.930 . S
Li176 N193 1.990 . S
Li176 O236 1.956 . S
Li176 O237 1.970 . S
Li176 O238 1.961 . S
Li177 N201 1.990 . S
Li177 O236 1.970 . S
Li177 O237 1.956 . S
Li177 O239 1.961 . S
Li178 N223 1.990 . S
Li178 O236 1.961 . S
Li178 O238 1.956 . S
Li178 O239 1.970 . S
Li179 N229 1.990 . S
Li179 O237 1.961 . S
Li179 O238 1.970 . S
Li179 O239 1.956 . S
C180 C182 1.348 . S
C180 C183 1.356 . S
C180 O236 1.325 . S
N181 C184 1.314 . S
N181 C185 1.279 . S
C182 C180 1.348 . S
C182 C184 1.353 . S
C182 H240 0.929 . S
C183 C180 1.356 . S
C183 C185 1.358 . S
C183 H241 0.930 . S
C184 N181 1.314 . S
C184 C182 1.353 . S
C184 H242 0.930 . S
C185 N181 1.279 . S
C185 C183 1.358 . S
C185 H243 0.930 . S
C186 C189 1.348 . S
C186 C190 1.356 . S
C186 O237 1.325 . S
C187 N188 1.279 . S
C187 C190 1.358 . S
C187 H244 0.930 . S
N188 C187 1.279 . S
N188 C191 1.314 . S
C189 C186 1.348 . S
C189 C191 1.353 . S
C189 H245 0.929 . S
C190 C186 1.356 . S
C190 C187 1.358 . S
C190 H246 0.930 . S
C191 N188 1.314 . S
C191 C189 1.353 . S
C191 H247 0.930 . S
C192 N193 1.314 . S
C192 C197 1.353 . S
C192 H198 0.930 . S
N193 Li176 1.990 . S
N193 C192 1.314 . S
N193 C195 1.279 . S
C194 C195 1.358 . S
C194 C196 1.356 . S
C194 H248 0.930 . S
C195 N193 1.279 . S
C195 C194 1.358 . S
C195 H199 0.930 . S
C196 C194 1.356 . S
C196 C197 1.348 . S
C197 C192 1.353 . S
C197 C196 1.348 . S
C197 H249 0.929 . S
H198 C192 0.930 . S
H199 C195 0.930 . S
C200 N201 1.314 . S
C200 C202 1.353 . S
C200 H206 0.930 . S
N201 Li177 1.990 . S
N201 C200 1.314 . S
N201 C204 1.279 . S
C202 C200 1.353 . S
C202 C205 1.348 . S
C202 H250 0.929 . S
C203 C204 1.358 . S
C203 C205 1.356 . S
C203 H251 0.930 . S
C204 N201 1.279 . S
C204 C203 1.358 . S
C204 H207 0.930 . S
C205 C202 1.348 . S
C205 C203 1.356 . S
H206 C200 0.930 . S
H207 C204 0.930 . S
C208 C210 1.348 . S
C208 C211 1.356 . S
C208 O238 1.325 . S
N209 C212 1.314 . S
N209 C213 1.279 . S
C210 C208 1.348 . S
C210 C212 1.353 . S
C210 H252 0.929 . S
C211 C208 1.356 . S
C211 C213 1.358 . S
C211 H253 0.930 . S
C212 N209 1.314 . S
C212 C210 1.353 . S
C212 H254 0.930 . S
C213 N209 1.279 . S
C213 C211 1.358 . S
C213 H255 0.930 . S
C214 C215 1.348 . S
C214 C216 1.356 . S
C214 O239 1.325 . S
C215 C214 1.348 . S
C215 C217 1.353 . S
C215 H256 0.929 . S
C216 C214 1.356 . S
C216 C218 1.358 . S
C216 H257 0.930 . S
C217 C215 1.353 . S
C217 N219 1.314 . S
C217 H258 0.930 . S
C218 C216 1.358 . S
C218 N219 1.279 . S
C218 H259 0.930 . S
N219 C217 1.314 . S
N219 C218 1.279 . S
C220 C222 1.353 . S
C220 N223 1.314 . S
C220 H226 0.930 . S
C221 N223 1.279 . S
C221 C224 1.358 . S
C221 H227 0.930 . S
C222 C220 1.353 . S
C222 C225 1.348 . S
C222 H260 0.929 . S
N223 Li178 1.990 . S
N223 C220 1.314 . S
N223 C221 1.279 . S
C224 C221 1.358 . S
C224 C225 1.356 . S
C224 H261 0.930 . S
C225 C222 1.348 . S
C225 C224 1.356 . S
H226 C220 0.930 . S
H227 C221 0.930 . S
C228 N229 1.314 . S
C228 C230 1.353 . S
C228 H234 0.930 . S
N229 Li179 1.990 . S
N229 C228 1.314 . S
N229 C232 1.279 . S
C230 C228 1.353 . S
C230 C233 1.348 . S
C230 H262 0.929 . S
C231 C232 1.358 . S
C231 C233 1.356 . S
C231 H263 0.930 . S
C232 N229 1.279 . S
C232 C231 1.358 . S
C232 H235 0.930 . S
C233 C230 1.348 . S
C233 C231 1.356 . S
H234 C228 0.930 . S
H235 C232 0.930 . S
O236 Li176 1.956 . S
O236 Li177 1.970 . S
O236 Li178 1.961 . S
O236 C180 1.325 . S
O237 Li176 1.970 . S
O237 Li177 1.956 . S
O237 Li179 1.961 . S
O237 C186 1.325 . S
O238 Li176 1.961 . S
O238 Li178 1.956 . S
O238 Li179 1.970 . S
O238 C208 1.325 . S
O239 Li177 1.961 . S
O239 Li178 1.970 . S
O239 Li179 1.956 . S
O239 C214 1.325 . S
H240 C182 0.929 . S
H241 C183 0.930 . S
H242 C184 0.930 . S
H243 C185 0.930 . S
H244 C187 0.930 . S
H245 C189 0.929 . S
H246 C190 0.930 . S
H247 C191 0.930 . S
H248 C194 0.930 . S
H249 C197 0.929 . S
H250 C202 0.929 . S
H251 C203 0.930 . S
H252 C210 0.929 . S
H253 C211 0.930 . S
H254 C212 0.930 . S
H255 C213 0.930 . S
H256 C215 0.929 . S
H257 C216 0.930 . S
H258 C217 0.930 . S
H259 C218 0.930 . S
H260 C222 0.929 . S
H261 C224 0.930 . S
H262 C230 0.929 . S
H263 C231 0.930 . S
Li264 N281 1.990 . S
Li264 O324 1.956 . S
Li264 O325 1.970 . S
Li264 O326 1.961 . S
Li265 N289 1.990 . S
Li265 O324 1.970 . S
Li265 O325 1.956 . S
Li265 O327 1.961 . S
Li266 N311 1.990 . S
Li266 O324 1.961 . S
Li266 O326 1.956 . S
Li266 O327 1.970 . S
Li267 N317 1.990 . S
Li267 O325 1.961 . S
Li267 O326 1.970 . S
Li267 O327 1.956 . S
C268 C270 1.348 . S
C268 C271 1.356 . S
C268 O324 1.325 . S
N269 C272 1.314 . S
N269 C273 1.279 . S
C270 C268 1.348 . S
C270 C272 1.353 . S
C270 H328 0.929 . S
C271 C268 1.356 . S
C271 C273 1.358 . S
C271 H329 0.930 . S
C272 N269 1.314 . S
C272 C270 1.353 . S
C272 H330 0.930 . S
C273 N269 1.279 . S
C273 C271 1.358 . S
C273 H331 0.930 . S
C274 C277 1.348 . S
C274 C278 1.356 . S
C274 O325 1.325 . S
C275 N276 1.279 . S
C275 C278 1.358 . S
C275 H332 0.930 . S
N276 C275 1.279 . S
N276 C279 1.314 . S
C277 C274 1.348 . S
C277 C279 1.353 . S
C277 H333 0.929 . S
C278 C274 1.356 . S
C278 C275 1.358 . S
C278 H334 0.930 . S
C279 N276 1.314 . S
C279 C277 1.353 . S
C279 H335 0.930 . S
C280 N281 1.314 . S
C280 C285 1.353 . S
C280 H286 0.930 . S
N281 Li264 1.990 . S
N281 C280 1.314 . S
N281 C283 1.279 . S
C282 C283 1.358 . S
C282 C284 1.356 . S
C282 H336 0.930 . S
C283 N281 1.279 . S
C283 C282 1.358 . S
C283 H287 0.930 . S
C284 C282 1.356 . S
C284 C285 1.348 . S
C285 C280 1.353 . S
C285 C284 1.348 . S
C285 H337 0.929 . S
H286 C280 0.930 . S
H287 C283 0.930 . S
C288 N289 1.314 . S
C288 C290 1.353 . S
C288 H294 0.930 . S
N289 Li265 1.990 . S
N289 C288 1.314 . S
N289 C292 1.279 . S
C290 C288 1.353 . S
C290 C293 1.348 . S
C290 H338 0.929 . S
C291 C292 1.358 . S
C291 C293 1.356 . S
C291 H339 0.930 . S
C292 N289 1.279 . S
C292 C291 1.358 . S
C292 H295 0.930 . S
C293 C290 1.348 . S
C293 C291 1.356 . S
H294 C288 0.930 . S
H295 C292 0.930 . S
C296 C298 1.348 . S
C296 C299 1.356 . S
C296 O326 1.325 . S
N297 C300 1.314 . S
N297 C301 1.279 . S
C298 C296 1.348 . S
C298 C300 1.353 . S
C298 H340 0.929 . S
C299 C296 1.356 . S
C299 C301 1.358 . S
C299 H341 0.930 . S
C300 N297 1.314 . S
C300 C298 1.353 . S
C300 H342 0.930 . S
C301 N297 1.279 . S
C301 C299 1.358 . S
C301 H343 0.930 . S
C302 C303 1.348 . S
C302 C304 1.356 . S
C302 O327 1.325 . S
C303 C302 1.348 . S
C303 C305 1.353 . S
C303 H344 0.929 . S
C304 C302 1.356 . S
C304 C306 1.358 . S
C304 H345 0.930 . S
C305 C303 1.353 . S
C305 N307 1.314 . S
C305 H346 0.930 . S
C306 C304 1.358 . S
C306 N307 1.279 . S
C306 H347 0.930 . S
N307 C305 1.314 . S
N307 C306 1.279 . S
C308 C310 1.353 . S
C308 N311 1.314 . S
C308 H314 0.930 . S
C309 N311 1.279 . S
C309 C312 1.358 . S
C309 H315 0.930 . S
C310 C308 1.353 . S
C310 C313 1.348 . S
C310 H348 0.929 . S
N311 Li266 1.990 . S
N311 C308 1.314 . S
N311 C309 1.279 . S
C312 C309 1.358 . S
C312 C313 1.356 . S
C312 H349 0.930 . S
C313 C310 1.348 . S
C313 C312 1.356 . S
H314 C308 0.930 . S
H315 C309 0.930 . S
C316 N317 1.314 . S
C316 C318 1.353 . S
C316 H322 0.930 . S
N317 Li267 1.990 . S
N317 C316 1.314 . S
N317 C320 1.279 . S
C318 C316 1.353 . S
C318 C321 1.348 . S
C318 H350 0.929 . S
C319 C320 1.358 . S
C319 C321 1.356 . S
C319 H351 0.930 . S
C320 N317 1.279 . S
C320 C319 1.358 . S
C320 H323 0.930 . S
C321 C318 1.348 . S
C321 C319 1.356 . S
H322 C316 0.930 . S
H323 C320 0.930 . S
O324 Li264 1.956 . S
O324 Li265 1.970 . S
O324 Li266 1.961 . S
O324 C268 1.325 . S
O325 Li264 1.970 . S
O325 Li265 1.956 . S
O325 Li267 1.961 . S
O325 C274 1.325 . S
O326 Li264 1.961 . S
O326 Li266 1.956 . S
O326 Li267 1.970 . S
O326 C296 1.325 . S
O327 Li265 1.961 . S
O327 Li266 1.970 . S
O327 Li267 1.956 . S
O327 C302 1.325 . S
H328 C270 0.929 . S
H329 C271 0.930 . S
H330 C272 0.930 . S
H331 C273 0.930 . S
H332 C275 0.930 . S
H333 C277 0.929 . S
H334 C278 0.930 . S
H335 C279 0.930 . S
H336 C282 0.930 . S
H337 C285 0.929 . S
H338 C290 0.929 . S
H339 C291 0.930 . S
H340 C298 0.929 . S
H341 C299 0.930 . S
H342 C300 0.930 . S
H343 C301 0.930 . S
H344 C303 0.929 . S
H345 C304 0.930 . S
H346 C305 0.930 . S
H347 C306 0.930 . S
H348 C310 0.929 . S
H349 C312 0.930 . S
H350 C318 0.929 . S
H351 C319 0.930 . S
Li352 N369 1.990 . S
Li352 O412 1.956 . S
Li352 O413 1.970 . S
Li352 O414 1.961 1_455 S
Li353 N377 1.990 . S
Li353 O412 1.970 . S
Li353 O413 1.956 . S
Li353 O415 1.961 1_455 S
Li354 N399 1.990 . S
Li354 O412 1.961 1_655 S
Li354 O414 1.956 . S
Li354 O415 1.970 . S
Li355 N405 1.990 . S
Li355 O413 1.961 1_655 S
Li355 O414 1.970 . S
Li355 O415 1.956 . S
C356 C358 1.348 . S
C356 C359 1.356 . S
C356 O412 1.325 . S
N357 C360 1.314 . S
N357 C361 1.279 . S
C358 C356 1.348 . S
C358 C360 1.353 . S
C358 H416 0.929 . S
C359 C356 1.356 . S
C359 C361 1.358 . S
C359 H417 0.930 . S
C360 N357 1.314 . S
C360 C358 1.353 . S
C360 H418 0.930 . S
C361 N357 1.279 . S
C361 C359 1.358 . S
C361 H419 0.930 . S
C362 C365 1.348 . S
C362 C366 1.356 . S
C362 O413 1.325 . S
C363 N364 1.279 . S
C363 C366 1.358 . S
C363 H420 0.930 . S
N364 C363 1.279 . S
N364 C367 1.314 . S
C365 C362 1.348 . S
C365 C367 1.353 . S
C365 H421 0.929 . S
C366 C362 1.356 . S
C366 C363 1.358 . S
C366 H422 0.930 . S
C367 N364 1.314 . S
C367 C365 1.353 . S
C367 H423 0.930 . S
C368 N369 1.314 . S
C368 C373 1.353 . S
C368 H374 0.930 1_455 S
N369 Li352 1.990 . S
N369 C368 1.314 . S
N369 C371 1.279 . S
C370 C371 1.358 . S
C370 C372 1.356 . S
C370 H424 0.930 . S
C371 N369 1.279 . S
C371 C370 1.358 . S
C371 H375 0.930 . S
C372 C370 1.356 . S
C372 C373 1.348 . S
C373 C368 1.353 . S
C373 C372 1.348 . S
C373 H425 0.929 . S
H374 C368 0.930 1_655 S
H375 C371 0.930 . S
C376 N377 1.314 . S
C376 C378 1.353 . S
C376 H382 0.930 . S
N377 Li353 1.990 . S
N377 C376 1.314 . S
N377 C380 1.279 . S
C378 C376 1.353 . S
C378 C381 1.348 . S
C378 H426 0.929 . S
C379 C380 1.358 . S
C379 C381 1.356 . S
C379 H427 0.930 . S
C380 N377 1.279 . S
C380 C379 1.358 . S
C380 H383 0.930 . S
C381 C378 1.348 . S
C381 C379 1.356 . S
H382 C376 0.930 . S
H383 C380 0.930 . S
C384 C386 1.348 . S
C384 C387 1.356 . S
C384 O414 1.325 . S
N385 C388 1.314 . S
N385 C389 1.279 . S
C386 C384 1.348 . S
C386 C388 1.353 . S
C386 H428 0.929 . S
C387 C384 1.356 . S
C387 C389 1.358 . S
C387 H429 0.930 . S
C388 N385 1.314 . S
C388 C386 1.353 . S
C388 H430 0.930 . S
C389 N385 1.279 . S
C389 C387 1.358 . S
C389 H431 0.930 . S
C390 C391 1.348 . S
C390 C392 1.356 . S
C390 O415 1.325 . S
C391 C390 1.348 . S
C391 C393 1.353 . S
C391 H432 0.929 . S
C392 C390 1.356 . S
C392 C394 1.358 . S
C392 H433 0.930 . S
C393 C391 1.353 . S
C393 N395 1.314 . S
C393 H434 0.930 . S
C394 C392 1.358 . S
C394 N395 1.279 . S
C394 H435 0.930 . S
N395 C393 1.314 . S
N395 C394 1.279 . S
C396 C398 1.353 . S
C396 N399 1.314 . S
C396 H402 0.930 1_655 S
C397 N399 1.279 . S
C397 C400 1.358 . S
C397 H403 0.930 . S
C398 C396 1.353 . S
C398 C401 1.348 . S
C398 H436 0.929 . S
N399 Li354 1.990 . S
N399 C396 1.314 . S
N399 C397 1.279 . S
C400 C397 1.358 . S
C400 C401 1.356 . S
C400 H437 0.930 . S
C401 C398 1.348 . S
C401 C400 1.356 . S
H402 C396 0.930 1_455 S
H403 C397 0.930 . S
C404 N405 1.314 . S
C404 C406 1.353 . S
C404 H410 0.930 . S
N405 Li355 1.990 . S
N405 C404 1.314 . S
N405 C408 1.279 . S
C406 C404 1.353 . S
C406 C409 1.348 . S
C406 H438 0.929 . S
C407 C408 1.358 . S
C407 C409 1.356 . S
C407 H439 0.930 . S
C408 N405 1.279 . S
C408 C407 1.358 . S
C408 H411 0.930 . S
C409 C406 1.348 . S
C409 C407 1.356 . S
H410 C404 0.930 . S
H411 C408 0.930 . S
O412 Li352 1.956 . S
O412 Li353 1.970 . S
O412 Li354 1.961 1_455 S
O412 C356 1.325 . S
O413 Li352 1.970 . S
O413 Li353 1.956 . S
O413 Li355 1.961 1_455 S
O413 C362 1.325 . S
O414 Li352 1.961 1_655 S
O414 Li354 1.956 . S
O414 Li355 1.970 . S
O414 C384 1.325 . S
O415 Li353 1.961 1_655 S
O415 Li354 1.970 . S
O415 Li355 1.956 . S
O415 C390 1.325 . S
H416 C358 0.929 . S
H417 C359 0.930 . S
H418 C360 0.930 . S
H419 C361 0.930 . S
H420 C363 0.930 . S
H421 C365 0.929 . S
H422 C366 0.930 . S
H423 C367 0.930 . S
H424 C370 0.930 . S
H425 C373 0.929 . S
H426 C378 0.929 . S
H427 C379 0.930 . S
H428 C386 0.929 . S
H429 C387 0.930 . S
H430 C388 0.930 . S
H431 C389 0.930 . S
H432 C391 0.929 . S
H433 C392 0.930 . S
H434 C393 0.930 . S
H435 C394 0.930 . S
H436 C398 0.929 . S
H437 C400 0.930 . S
H438 C406 0.929 . S
H439 C407 0.930 . S
Li440 N457 1.990 . S
Li440 O500 1.956 . S
Li440 O501 1.970 . S
Li440 O502 1.961 . S
Li441 N465 1.990 . S
Li441 O500 1.970 . S
Li441 O501 1.956 . S
Li441 O503 1.961 . S
Li442 N487 1.990 . S
Li442 O500 1.961 . S
Li442 O502 1.956 . S
Li442 O503 1.970 . S
Li443 N493 1.990 . S
Li443 O501 1.961 . S
Li443 O502 1.970 . S
Li443 O503 1.956 . S
C444 C446 1.348 . S
C444 C447 1.356 . S
C444 O500 1.325 . S
N445 C448 1.314 . S
N445 C449 1.279 . S
C446 C444 1.348 . S
C446 C448 1.353 . S
C446 H504 0.929 . S
C447 C444 1.356 . S
C447 C449 1.358 . S
C447 H505 0.930 . S
C448 N445 1.314 . S
C448 C446 1.353 . S
C448 H506 0.930 . S
C449 N445 1.279 . S
C449 C447 1.358 . S
C449 H507 0.930 . S
C450 C453 1.348 . S
C450 C454 1.356 . S
C450 O501 1.325 . S
C451 N452 1.279 . S
C451 C454 1.358 . S
C451 H508 0.930 . S
N452 C451 1.279 . S
N452 C455 1.314 . S
C453 C450 1.348 . S
C453 C455 1.353 . S
C453 H509 0.929 . S
C454 C450 1.356 . S
C454 C451 1.358 . S
C454 H510 0.930 . S
C455 N452 1.314 . S
C455 C453 1.353 . S
C455 H511 0.930 . S
C456 N457 1.314 . S
C456 C461 1.353 . S
C456 H462 0.930 . S
N457 Li440 1.990 . S
N457 C456 1.314 . S
N457 C459 1.279 . S
C458 C459 1.358 . S
C458 C460 1.356 . S
C458 H512 0.930 . S
C459 N457 1.279 . S
C459 C458 1.358 . S
C459 H463 0.930 . S
C460 C458 1.356 . S
C460 C461 1.348 . S
C461 C456 1.353 . S
C461 C460 1.348 . S
C461 H513 0.929 . S
H462 C456 0.930 . S
H463 C459 0.930 . S
C464 N465 1.314 . S
C464 C466 1.353 . S
C464 H470 0.930 . S
N465 Li441 1.990 . S
N465 C464 1.314 . S
N465 C468 1.279 . S
C466 C464 1.353 . S
C466 C469 1.348 . S
C466 H514 0.929 . S
C467 C468 1.358 . S
C467 C469 1.356 . S
C467 H515 0.930 . S
C468 N465 1.279 . S
C468 C467 1.358 . S
C468 H471 0.930 . S
C469 C466 1.348 . S
C469 C467 1.356 . S
H470 C464 0.930 . S
H471 C468 0.930 . S
C472 C474 1.348 . S
C472 C475 1.356 . S
C472 O502 1.325 . S
N473 C476 1.314 . S
N473 C477 1.279 . S
C474 C472 1.348 . S
C474 C476 1.353 . S
C474 H516 0.929 . S
C475 C472 1.356 . S
C475 C477 1.358 . S
C475 H517 0.930 . S
C476 N473 1.314 . S
C476 C474 1.353 . S
C476 H518 0.930 . S
C477 N473 1.279 . S
C477 C475 1.358 . S
C477 H519 0.930 . S
C478 C479 1.348 . S
C478 C480 1.356 . S
C478 O503 1.325 . S
C479 C478 1.348 . S
C479 C481 1.353 . S
C479 H520 0.929 . S
C480 C478 1.356 . S
C480 C482 1.358 . S
C480 H521 0.930 . S
C481 C479 1.353 . S
C481 N483 1.314 . S
C481 H522 0.930 . S
C482 C480 1.358 . S
C482 N483 1.279 . S
C482 H523 0.930 . S
N483 C481 1.314 . S
N483 C482 1.279 . S
C484 C486 1.353 . S
C484 N487 1.314 . S
C484 H490 0.930 . S
C485 N487 1.279 . S
C485 C488 1.358 . S
C485 H491 0.930 . S
C486 C484 1.353 . S
C486 C489 1.348 . S
C486 H524 0.929 . S
N487 Li442 1.990 . S
N487 C484 1.314 . S
N487 C485 1.279 . S
C488 C485 1.358 . S
C488 C489 1.356 . S
C488 H525 0.930 . S
C489 C486 1.348 . S
C489 C488 1.356 . S
H490 C484 0.930 . S
H491 C485 0.930 . S
C492 N493 1.314 . S
C492 C494 1.353 . S
C492 H498 0.930 . S
N493 Li443 1.990 . S
N493 C492 1.314 . S
N493 C496 1.279 . S
C494 C492 1.353 . S
C494 C497 1.348 . S
C494 H526 0.929 . S
C495 C496 1.358 . S
C495 C497 1.356 . S
C495 H527 0.930 . S
C496 N493 1.279 . S
C496 C495 1.358 . S
C496 H499 0.930 . S
C497 C494 1.348 . S
C497 C495 1.356 . S
H498 C492 0.930 . S
H499 C496 0.930 . S
O500 Li440 1.956 . S
O500 Li441 1.970 . S
O500 Li442 1.961 . S
O500 C444 1.325 . S
O501 Li440 1.970 . S
O501 Li441 1.956 . S
O501 Li443 1.961 . S
O501 C450 1.325 . S
O502 Li440 1.961 . S
O502 Li442 1.956 . S
O502 Li443 1.970 . S
O502 C472 1.325 . S
O503 Li441 1.961 . S
O503 Li442 1.970 . S
O503 Li443 1.956 . S
O503 C478 1.325 . S
H504 C446 0.929 . S
H505 C447 0.930 . S
H506 C448 0.930 . S
H507 C449 0.930 . S
H508 C451 0.930 . S
H509 C453 0.929 . S
H510 C454 0.930 . S
H511 C455 0.930 . S
H512 C458 0.930 . S
H513 C461 0.929 . S
H514 C466 0.929 . S
H515 C467 0.930 . S
H516 C474 0.929 . S
H517 C475 0.930 . S
H518 C476 0.930 . S
H519 C477 0.930 . S
H520 C479 0.929 . S
H521 C480 0.930 . S
H522 C481 0.930 . S
H523 C482 0.930 . S
H524 C486 0.929 . S
H525 C488 0.930 . S
H526 C494 0.929 . S
H527 C495 0.930 . S
Li528 N545 1.990 . S
Li528 O588 1.956 . S
Li528 O589 1.970 . S
Li528 O590 1.961 . S
Li529 N553 1.990 . S
Li529 O588 1.970 . S
Li529 O589 1.956 . S
Li529 O591 1.961 . S
Li530 N575 1.990 . S
Li530 O588 1.961 . S
Li530 O590 1.956 . S
Li530 O591 1.970 . S
Li531 N581 1.990 . S
Li531 O589 1.961 . S
Li531 O590 1.970 . S
Li531 O591 1.956 . S
C532 C534 1.348 . S
C532 C535 1.356 . S
C532 O588 1.325 . S
N533 C536 1.314 . S
N533 C537 1.279 . S
C534 C532 1.348 . S
C534 C536 1.353 . S
C534 H592 0.929 . S
C535 C532 1.356 . S
C535 C537 1.358 . S
C535 H593 0.930 . S
C536 N533 1.314 . S
C536 C534 1.353 . S
C536 H594 0.930 . S
C537 N533 1.279 . S
C537 C535 1.358 . S
C537 H595 0.930 . S
C538 C541 1.348 . S
C538 C542 1.356 . S
C538 O589 1.325 . S
C539 N540 1.279 . S
C539 C542 1.358 . S
C539 H596 0.930 . S
N540 C539 1.279 . S
N540 C543 1.314 . S
C541 C538 1.348 . S
C541 C543 1.353 . S
C541 H597 0.929 . S
C542 C538 1.356 . S
C542 C539 1.358 . S
C542 H598 0.930 . S
C543 N540 1.314 . S
C543 C541 1.353 . S
C543 H599 0.930 . S
C544 N545 1.314 . S
C544 C549 1.353 . S
C544 H550 0.930 . S
N545 Li528 1.990 . S
N545 C544 1.314 . S
N545 C547 1.279 . S
C546 C547 1.358 . S
C546 C548 1.356 . S
C546 H600 0.930 . S
C547 N545 1.279 . S
C547 C546 1.358 . S
C547 H551 0.930 . S
C548 C546 1.356 . S
C548 C549 1.348 . S
C549 C544 1.353 . S
C549 C548 1.348 . S
C549 H601 0.929 . S
H550 C544 0.930 . S
H551 C547 0.930 . S
C552 N553 1.314 . S
C552 C554 1.353 . S
C552 H558 0.930 . S
N553 Li529 1.990 . S
N553 C552 1.314 . S
N553 C556 1.279 . S
C554 C552 1.353 . S
C554 C557 1.348 . S
C554 H602 0.929 . S
C555 C556 1.358 . S
C555 C557 1.356 . S
C555 H603 0.930 . S
C556 N553 1.279 . S
C556 C555 1.358 . S
C556 H559 0.930 . S
C557 C554 1.348 . S
C557 C555 1.356 . S
H558 C552 0.930 . S
H559 C556 0.930 . S
C560 C562 1.348 . S
C560 C563 1.356 . S
C560 O590 1.325 . S
N561 C564 1.314 . S
N561 C565 1.279 . S
C562 C560 1.348 . S
C562 C564 1.353 . S
C562 H604 0.929 . S
C563 C560 1.356 . S
C563 C565 1.358 . S
C563 H605 0.930 . S
C564 N561 1.314 . S
C564 C562 1.353 . S
C564 H606 0.930 . S
C565 N561 1.279 . S
C565 C563 1.358 . S
C565 H607 0.930 . S
C566 C567 1.348 . S
C566 C568 1.356 . S
C566 O591 1.325 . S
C567 C566 1.348 . S
C567 C569 1.353 . S
C567 H608 0.929 . S
C568 C566 1.356 . S
C568 C570 1.358 . S
C568 H609 0.930 . S
C569 C567 1.353 . S
C569 N571 1.314 . S
C569 H610 0.930 . S
C570 C568 1.358 . S
C570 N571 1.279 . S
C570 H611 0.930 . S
N571 C569 1.314 . S
N571 C570 1.279 . S
C572 C574 1.353 . S
C572 N575 1.314 . S
C572 H578 0.930 . S
C573 N575 1.279 . S
C573 C576 1.358 . S
C573 H579 0.930 . S
C574 C572 1.353 . S
C574 C577 1.348 . S
C574 H612 0.929 . S
N575 Li530 1.990 . S
N575 C572 1.314 . S
N575 C573 1.279 . S
C576 C573 1.358 . S
C576 C577 1.356 . S
C576 H613 0.930 . S
C577 C574 1.348 . S
C577 C576 1.356 . S
H578 C572 0.930 . S
H579 C573 0.930 . S
C580 N581 1.314 . S
C580 C582 1.353 . S
C580 H586 0.930 . S
N581 Li531 1.990 . S
N581 C580 1.314 . S
N581 C584 1.279 . S
C582 C580 1.353 . S
C582 C585 1.348 . S
C582 H614 0.929 . S
C583 C584 1.358 . S
C583 C585 1.356 . S
C583 H615 0.930 . S
C584 N581 1.279 . S
C584 C583 1.358 . S
C584 H587 0.930 . S
C585 C582 1.348 . S
C585 C583 1.356 . S
H586 C580 0.930 . S
H587 C584 0.930 . S
O588 Li528 1.956 . S
O588 Li529 1.970 . S
O588 Li530 1.961 . S
O588 C532 1.325 . S
O589 Li528 1.970 . S
O589 Li529 1.956 . S
O589 Li531 1.961 . S
O589 C538 1.325 . S
O590 Li528 1.961 . S
O590 Li530 1.956 . S
O590 Li531 1.970 . S
O590 C560 1.325 . S
O591 Li529 1.961 . S
O591 Li530 1.970 . S
O591 Li531 1.956 . S
O591 C566 1.325 . S
H592 C534 0.929 . S
H593 C535 0.930 . S
H594 C536 0.930 . S
H595 C537 0.930 . S
H596 C539 0.930 . S
H597 C541 0.929 . S
H598 C542 0.930 . S
H599 C543 0.930 . S
H600 C546 0.930 . S
H601 C549 0.929 . S
H602 C554 0.929 . S
H603 C555 0.930 . S
H604 C562 0.929 . S
H605 C563 0.930 . S
H606 C564 0.930 . S
H607 C565 0.930 . S
H608 C567 0.929 . S
H609 C568 0.930 . S
H610 C569 0.930 . S
H611 C570 0.930 . S
H612 C574 0.929 . S
H613 C576 0.930 . S
H614 C582 0.929 . S
H615 C583 0.930 . S
Li616 N633 1.990 . S
Li616 O676 1.956 1_655 S
Li616 O677 1.970 . S
Li616 O678 1.961 . S
Li617 N641 1.990 . S
Li617 O676 1.970 . S
Li617 O677 1.956 1_455 S
Li617 O679 1.961 . S
Li618 N663 1.990 . S
Li618 O676 1.961 . S
Li618 O678 1.956 1_455 S
Li618 O679 1.970 . S
Li619 N669 1.990 . S
Li619 O677 1.961 . S
Li619 O678 1.970 . S
Li619 O679 1.956 1_655 S
C620 C622 1.348 . S
C620 C623 1.356 . S
C620 O676 1.325 . S
N621 C624 1.314 . S
N621 C625 1.279 . S
C622 C620 1.348 . S
C622 C624 1.353 . S
C622 H680 0.929 . S
C623 C620 1.356 . S
C623 C625 1.358 . S
C623 H681 0.930 . S
C624 N621 1.314 . S
C624 C622 1.353 . S
C624 H682 0.930 . S
C625 N621 1.279 . S
C625 C623 1.358 . S
C625 H683 0.930 . S
C626 C629 1.348 . S
C626 C630 1.356 . S
C626 O677 1.325 . S
C627 N628 1.279 . S
C627 C630 1.358 . S
C627 H684 0.930 . S
N628 C627 1.279 . S
N628 C631 1.314 . S
C629 C626 1.348 . S
C629 C631 1.353 . S
C629 H685 0.929 . S
C630 C626 1.356 . S
C630 C627 1.358 . S
C630 H686 0.930 . S
C631 N628 1.314 . S
C631 C629 1.353 . S
C631 H687 0.930 . S
C632 N633 1.314 . S
C632 C637 1.353 . S
C632 H638 0.930 . S
N633 Li616 1.990 . S
N633 C632 1.314 . S
N633 C635 1.279 . S
C634 C635 1.358 . S
C634 C636 1.356 . S
C634 H688 0.930 . S
C635 N633 1.279 . S
C635 C634 1.358 . S
C635 H639 0.930 1_655 S
C636 C634 1.356 . S
C636 C637 1.348 . S
C637 C632 1.353 . S
C637 C636 1.348 . S
C637 H689 0.929 . S
H638 C632 0.930 . S
H639 C635 0.930 1_455 S
C640 N641 1.314 . S
C640 C642 1.353 . S
C640 H646 0.930 . S
N641 Li617 1.990 . S
N641 C640 1.314 . S
N641 C644 1.279 . S
C642 C640 1.353 . S
C642 C645 1.348 . S
C642 H690 0.929 . S
C643 C644 1.358 . S
C643 C645 1.356 . S
C643 H691 0.930 . S
C644 N641 1.279 . S
C644 C643 1.358 . S
C644 H647 0.930 . S
C645 C642 1.348 . S
C645 C643 1.356 . S
H646 C640 0.930 . S
H647 C644 0.930 . S
C648 C650 1.348 . S
C648 C651 1.356 . S
C648 O678 1.325 . S
N649 C652 1.314 . S
N649 C653 1.279 . S
C650 C648 1.348 . S
C650 C652 1.353 . S
C650 H692 0.929 . S
C651 C648 1.356 . S
C651 C653 1.358 . S
C651 H693 0.930 . S
C652 N649 1.314 . S
C652 C650 1.353 . S
C652 H694 0.930 . S
C653 N649 1.279 . S
C653 C651 1.358 . S
C653 H695 0.930 . S
C654 C655 1.348 . S
C654 C656 1.356 . S
C654 O679 1.325 . S
C655 C654 1.348 . S
C655 C657 1.353 . S
C655 H696 0.929 . S
C656 C654 1.356 . S
C656 C658 1.358 . S
C656 H697 0.930 . S
C657 C655 1.353 . S
C657 N659 1.314 . S
C657 H698 0.930 . S
C658 C656 1.358 . S
C658 N659 1.279 . S
C658 H699 0.930 . S
N659 C657 1.314 . S
N659 C658 1.279 . S
C660 C662 1.353 . S
C660 N663 1.314 . S
C660 H666 0.930 . S
C661 N663 1.279 . S
C661 C664 1.358 . S
C661 H667 0.930 1_455 S
C662 C660 1.353 . S
C662 C665 1.348 . S
C662 H700 0.929 . S
N663 Li618 1.990 . S
N663 C660 1.314 . S
N663 C661 1.279 . S
C664 C661 1.358 . S
C664 C665 1.356 . S
C664 H701 0.930 . S
C665 C662 1.348 . S
C665 C664 1.356 . S
H666 C660 0.930 . S
H667 C661 0.930 1_655 S
C668 N669 1.314 . S
C668 C670 1.353 . S
C668 H674 0.930 . S
N669 Li619 1.990 . S
N669 C668 1.314 . S
N669 C672 1.279 . S
C670 C668 1.353 . S
C670 C673 1.348 . S
C670 H702 0.929 . S
C671 C672 1.358 . S
C671 C673 1.356 . S
C671 H703 0.930 . S
C672 N669 1.279 . S
C672 C671 1.358 . S
C672 H675 0.930 . S
C673 C670 1.348 . S
C673 C671 1.356 . S
H674 C668 0.930 . S
H675 C672 0.930 . S
O676 Li616 1.956 1_455 S
O676 Li617 1.970 . S
O676 Li618 1.961 . S
O676 C620 1.325 . S
O677 Li616 1.970 . S
O677 Li617 1.956 1_655 S
O677 Li619 1.961 . S
O677 C626 1.325 . S
O678 Li616 1.961 . S
O678 Li618 1.956 1_655 S
O678 Li619 1.970 . S
O678 C648 1.325 . S
O679 Li617 1.961 . S
O679 Li618 1.970 . S
O679 Li619 1.956 1_455 S
O679 C654 1.325 . S
H680 C622 0.929 . S
H681 C623 0.930 . S
H682 C624 0.930 . S
H683 C625 0.930 . S
H684 C627 0.930 . S
H685 C629 0.929 . S
H686 C630 0.930 . S
H687 C631 0.930 . S
H688 C634 0.930 . S
H689 C637 0.929 . S
H690 C642 0.929 . S
H691 C643 0.930 . S
H692 C650 0.929 . S
H693 C651 0.930 . S
H694 C652 0.930 . S
H695 C653 0.930 . S
H696 C655 0.929 . S
H697 C656 0.930 . S
H698 C657 0.930 . S
H699 C658 0.930 . S
H700 C662 0.929 . S
H701 C664 0.930 . S
H702 C670 0.929 . S
H703 C671 0.930 . S
Li704 N721 1.990 . S
Li704 O764 1.956 . S
Li704 O765 1.970 . S
Li704 O766 1.961 1_545 S
Li705 N729 1.990 . S
Li705 O764 1.970 . S
Li705 O765 1.956 . S
Li705 O767 1.961 1_545 S
Li706 N751 1.990 . S
Li706 O764 1.961 1_565 S
Li706 O766 1.956 . S
Li706 O767 1.970 . S
Li707 N757 1.990 . S
Li707 O765 1.961 1_565 S
Li707 O766 1.970 . S
Li707 O767 1.956 . S
C708 C710 1.348 . S
C708 C711 1.356 . S
C708 O764 1.325 . S
N709 C712 1.314 . S
N709 C713 1.279 . S
C710 C708 1.348 . S
C710 C712 1.353 . S
C710 H768 0.929 . S
C711 C708 1.356 . S
C711 C713 1.358 . S
C711 H769 0.930 . S
C712 N709 1.314 . S
C712 C710 1.353 . S
C712 H770 0.930 . S
C713 N709 1.279 . S
C713 C711 1.358 . S
C713 H771 0.930 . S
C714 C717 1.348 . S
C714 C718 1.356 . S
C714 O765 1.325 . S
C715 N716 1.279 . S
C715 C718 1.358 . S
C715 H772 0.930 . S
N716 C715 1.279 . S
N716 C719 1.314 . S
C717 C714 1.348 . S
C717 C719 1.353 . S
C717 H773 0.929 . S
C718 C714 1.356 . S
C718 C715 1.358 . S
C718 H774 0.930 . S
C719 N716 1.314 . S
C719 C717 1.353 . S
C719 H775 0.930 . S
C720 N721 1.314 . S
C720 C725 1.353 . S
C720 H726 0.930 . S
N721 Li704 1.990 . S
N721 C720 1.314 . S
N721 C723 1.279 . S
C722 C723 1.358 . S
C722 C724 1.356 . S
C722 H776 0.930 . S
C723 N721 1.279 . S
C723 C722 1.358 . S
C723 H727 0.930 . S
C724 C722 1.356 . S
C724 C725 1.348 . S
C725 C720 1.353 . S
C725 C724 1.348 . S
C725 H777 0.929 . S
H726 C720 0.930 . S
H727 C723 0.930 . S
C728 N729 1.314 . S
C728 C730 1.353 . S
C728 H734 0.930 1_545 S
N729 Li705 1.990 . S
N729 C728 1.314 . S
N729 C732 1.279 . S
C730 C728 1.353 . S
C730 C733 1.348 . S
C730 H778 0.929 . S
C731 C732 1.358 . S
C731 C733 1.356 . S
C731 H779 0.930 . S
C732 N729 1.279 . S
C732 C731 1.358 . S
C732 H735 0.930 . S
C733 C730 1.348 . S
C733 C731 1.356 . S
H734 C728 0.930 1_565 S
H735 C732 0.930 . S
C736 C738 1.348 . S
C736 C739 1.356 . S
C736 O766 1.325 . S
N737 C740 1.314 . S
N737 C741 1.279 . S
C738 C736 1.348 . S
C738 C740 1.353 . S
C738 H780 0.929 . S
C739 C736 1.356 . S
C739 C741 1.358 . S
C739 H781 0.930 . S
C740 N737 1.314 . S
C740 C738 1.353 . S
C740 H782 0.930 . S
C741 N737 1.279 . S
C741 C739 1.358 . S
C741 H783 0.930 . S
C742 C743 1.348 . S
C742 C744 1.356 . S
C742 O767 1.325 . S
C743 C742 1.348 . S
C743 C745 1.353 . S
C743 H784 0.929 . S
C744 C742 1.356 . S
C744 C746 1.358 . S
C744 H785 0.930 . S
C745 C743 1.353 . S
C745 N747 1.314 . S
C745 H786 0.930 . S
C746 C744 1.358 . S
C746 N747 1.279 . S
C746 H787 0.930 . S
N747 C745 1.314 . S
N747 C746 1.279 . S
C748 C750 1.353 . S
C748 N751 1.314 . S
C748 H754 0.930 . S
C749 N751 1.279 . S
C749 C752 1.358 . S
C749 H755 0.930 . S
C750 C748 1.353 . S
C750 C753 1.348 . S
C750 H788 0.929 . S
N751 Li706 1.990 . S
N751 C748 1.314 . S
N751 C749 1.279 . S
C752 C749 1.358 . S
C752 C753 1.356 . S
C752 H789 0.930 . S
C753 C750 1.348 . S
C753 C752 1.356 . S
H754 C748 0.930 . S
H755 C749 0.930 . S
C756 N757 1.314 . S
C756 C758 1.353 . S
C756 H762 0.930 1_565 S
N757 Li707 1.990 . S
N757 C756 1.314 . S
N757 C760 1.279 . S
C758 C756 1.353 . S
C758 C761 1.348 . S
C758 H790 0.929 . S
C759 C760 1.358 . S
C759 C761 1.356 . S
C759 H791 0.930 . S
C760 N757 1.279 . S
C760 C759 1.358 . S
C760 H763 0.930 . S
C761 C758 1.348 . S
C761 C759 1.356 . S
H762 C756 0.930 1_545 S
H763 C760 0.930 . S
O764 Li704 1.956 . S
O764 Li705 1.970 . S
O764 Li706 1.961 1_545 S
O764 C708 1.325 . S
O765 Li704 1.970 . S
O765 Li705 1.956 . S
O765 Li707 1.961 1_545 S
O765 C714 1.325 . S
O766 Li704 1.961 1_565 S
O766 Li706 1.956 . S
O766 Li707 1.970 . S
O766 C736 1.325 . S
O767 Li705 1.961 1_565 S
O767 Li706 1.970 . S
O767 Li707 1.956 . S
O767 C742 1.325 . S
H768 C710 0.929 . S
H769 C711 0.930 . S
H770 C712 0.930 . S
H771 C713 0.930 . S
H772 C715 0.930 . S
H773 C717 0.929 . S
H774 C718 0.930 . S
H775 C719 0.930 . S
H776 C722 0.930 . S
H777 C725 0.929 . S
H778 C730 0.929 . S
H779 C731 0.930 . S
H780 C738 0.929 . S
H781 C739 0.930 . S
H782 C740 0.930 . S
H783 C741 0.930 . S
H784 C743 0.929 . S
H785 C744 0.930 . S
H786 C745 0.930 . S
H787 C746 0.930 . S
H788 C750 0.929 . S
H789 C752 0.930 . S
H790 C758 0.929 . S
H791 C759 0.930 . S
Li792 N809 1.990 . S
Li792 O852 1.956 . S
Li792 O853 1.970 . S
Li792 O854 1.961 . S
Li793 N817 1.990 . S
Li793 O852 1.970 . S
Li793 O853 1.956 . S
Li793 O855 1.961 . S
Li794 N839 1.990 . S
Li794 O852 1.961 . S
Li794 O854 1.956 . S
Li794 O855 1.970 . S
Li795 N845 1.990 . S
Li795 O853 1.961 . S
Li795 O854 1.970 . S
Li795 O855 1.956 . S
C796 C798 1.348 . S
C796 C799 1.356 . S
C796 O852 1.325 . S
N797 C800 1.314 . S
N797 C801 1.279 . S
C798 C796 1.348 . S
C798 C800 1.353 . S
C798 H856 0.929 . S
C799 C796 1.356 . S
C799 C801 1.358 . S
C799 H857 0.930 . S
C800 N797 1.314 . S
C800 C798 1.353 . S
C800 H858 0.930 . S
C801 N797 1.279 . S
C801 C799 1.358 . S
C801 H859 0.930 . S
C802 C805 1.348 . S
C802 C806 1.356 . S
C802 O853 1.325 . S
C803 N804 1.279 . S
C803 C806 1.358 . S
C803 H860 0.930 . S
N804 C803 1.279 . S
N804 C807 1.314 . S
C805 C802 1.348 . S
C805 C807 1.353 . S
C805 H861 0.929 . S
C806 C802 1.356 . S
C806 C803 1.358 . S
C806 H862 0.930 . S
C807 N804 1.314 . S
C807 C805 1.353 . S
C807 H863 0.930 . S
C808 N809 1.314 . S
C808 C813 1.353 . S
C808 H814 0.930 . S
N809 Li792 1.990 . S
N809 C808 1.314 . S
N809 C811 1.279 . S
C810 C811 1.358 . S
C810 C812 1.356 . S
C810 H864 0.930 . S
C811 N809 1.279 . S
C811 C810 1.358 . S
C811 H815 0.930 . S
C812 C810 1.356 . S
C812 C813 1.348 . S
C813 C808 1.353 . S
C813 C812 1.348 . S
C813 H865 0.929 . S
H814 C808 0.930 . S
H815 C811 0.930 . S
C816 N817 1.314 . S
C816 C818 1.353 . S
C816 H822 0.930 . S
N817 Li793 1.990 . S
N817 C816 1.314 . S
N817 C820 1.279 . S
C818 C816 1.353 . S
C818 C821 1.348 . S
C818 H866 0.929 . S
C819 C820 1.358 . S
C819 C821 1.356 . S
C819 H867 0.930 . S
C820 N817 1.279 . S
C820 C819 1.358 . S
C820 H823 0.930 . S
C821 C818 1.348 . S
C821 C819 1.356 . S
H822 C816 0.930 . S
H823 C820 0.930 . S
C824 C826 1.348 . S
C824 C827 1.356 . S
C824 O854 1.325 . S
N825 C828 1.314 . S
N825 C829 1.279 . S
C826 C824 1.348 . S
C826 C828 1.353 . S
C826 H868 0.929 . S
C827 C824 1.356 . S
C827 C829 1.358 . S
C827 H869 0.930 . S
C828 N825 1.314 . S
C828 C826 1.353 . S
C828 H870 0.930 . S
C829 N825 1.279 . S
C829 C827 1.358 . S
C829 H871 0.930 . S
C830 C831 1.348 . S
C830 C832 1.356 . S
C830 O855 1.325 . S
C831 C830 1.348 . S
C831 C833 1.353 . S
C831 H872 0.929 . S
C832 C830 1.356 . S
C832 C834 1.358 . S
C832 H873 0.930 . S
C833 C831 1.353 . S
C833 N835 1.314 . S
C833 H874 0.930 . S
C834 C832 1.358 . S
C834 N835 1.279 . S
C834 H875 0.930 . S
N835 C833 1.314 . S
N835 C834 1.279 . S
C836 C838 1.353 . S
C836 N839 1.314 . S
C836 H842 0.930 . S
C837 N839 1.279 . S
C837 C840 1.358 . S
C837 H843 0.930 . S
C838 C836 1.353 . S
C838 C841 1.348 . S
C838 H876 0.929 . S
N839 Li794 1.990 . S
N839 C836 1.314 . S
N839 C837 1.279 . S
C840 C837 1.358 . S
C840 C841 1.356 . S
C840 H877 0.930 . S
C841 C838 1.348 . S
C841 C840 1.356 . S
H842 C836 0.930 . S
H843 C837 0.930 . S
C844 N845 1.314 . S
C844 C846 1.353 . S
C844 H850 0.930 . S
N845 Li795 1.990 . S
N845 C844 1.314 . S
N845 C848 1.279 . S
C846 C844 1.353 . S
C846 C849 1.348 . S
C846 H878 0.929 . S
C847 C848 1.358 . S
C847 C849 1.356 . S
C847 H879 0.930 . S
C848 N845 1.279 . S
C848 C847 1.358 . S
C848 H851 0.930 . S
C849 C846 1.348 . S
C849 C847 1.356 . S
H850 C844 0.930 . S
H851 C848 0.930 . S
O852 Li792 1.956 . S
O852 Li793 1.970 . S
O852 Li794 1.961 . S
O852 C796 1.325 . S
O853 Li792 1.970 . S
O853 Li793 1.956 . S
O853 Li795 1.961 . S
O853 C802 1.325 . S
O854 Li792 1.961 . S
O854 Li794 1.956 . S
O854 Li795 1.970 . S
O854 C824 1.325 . S
O855 Li793 1.961 . S
O855 Li794 1.970 . S
O855 Li795 1.956 . S
O855 C830 1.325 . S
H856 C798 0.929 . S
H857 C799 0.930 . S
H858 C800 0.930 . S
H859 C801 0.930 . S
H860 C803 0.930 . S
H861 C805 0.929 . S
H862 C806 0.930 . S
H863 C807 0.930 . S
H864 C810 0.930 . S
H865 C813 0.929 . S
H866 C818 0.929 . S
H867 C819 0.930 . S
H868 C826 0.929 . S
H869 C827 0.930 . S
H870 C828 0.930 . S
H871 C829 0.930 . S
H872 C831 0.929 . S
H873 C832 0.930 . S
H874 C833 0.930 . S
H875 C834 0.930 . S
H876 C838 0.929 . S
H877 C840 0.930 . S
H878 C846 0.929 . S
H879 C847 0.930 . S
Li880 N897 1.990 . S
Li880 O940 1.956 . S
Li880 O941 1.970 . S
Li880 O942 1.961 1_545 S
Li881 N905 1.990 . S
Li881 O940 1.970 . S
Li881 O941 1.956 . S
Li881 O943 1.961 1_545 S
Li882 N927 1.990 . S
Li882 O940 1.961 1_565 S
Li882 O942 1.956 . S
Li882 O943 1.970 . S
Li883 N933 1.990 . S
Li883 O941 1.961 1_565 S
Li883 O942 1.970 . S
Li883 O943 1.956 . S
C884 C886 1.348 . S
C884 C887 1.356 . S
C884 O940 1.325 . S
N885 C888 1.314 . S
N885 C889 1.279 . S
C886 C884 1.348 . S
C886 C888 1.353 . S
C886 H944 0.929 . S
C887 C884 1.356 . S
C887 C889 1.358 . S
C887 H945 0.930 . S
C888 N885 1.314 . S
C888 C886 1.353 . S
C888 H946 0.930 . S
C889 N885 1.279 . S
C889 C887 1.358 . S
C889 H947 0.930 . S
C890 C893 1.348 . S
C890 C894 1.356 . S
C890 O941 1.325 . S
C891 N892 1.279 . S
C891 C894 1.358 . S
C891 H948 0.930 . S
N892 C891 1.279 . S
N892 C895 1.314 . S
C893 C890 1.348 . S
C893 C895 1.353 . S
C893 H949 0.929 . S
C894 C890 1.356 . S
C894 C891 1.358 . S
C894 H950 0.930 . S
C895 N892 1.314 . S
C895 C893 1.353 . S
C895 H951 0.930 . S
C896 N897 1.314 . S
C896 C901 1.353 . S
C896 H902 0.930 1_545 S
N897 Li880 1.990 . S
N897 C896 1.314 . S
N897 C899 1.279 . S
C898 C899 1.358 . S
C898 C900 1.356 . S
C898 H952 0.930 . S
C899 N897 1.279 . S
C899 C898 1.358 . S
C899 H903 0.930 . S
C900 C898 1.356 . S
C900 C901 1.348 . S
C901 C896 1.353 . S
C901 C900 1.348 . S
C901 H953 0.929 . S
H902 C896 0.930 1_565 S
H903 C899 0.930 . S
C904 N905 1.314 . S
C904 C906 1.353 . S
C904 H910 0.930 . S
N905 Li881 1.990 . S
N905 C904 1.314 . S
N905 C908 1.279 . S
C906 C904 1.353 . S
C906 C909 1.348 . S
C906 H954 0.929 . S
C907 C908 1.358 . S
C907 C909 1.356 . S
C907 H955 0.930 . S
C908 N905 1.279 . S
C908 C907 1.358 . S
C908 H911 0.930 . S
C909 C906 1.348 . S
C909 C907 1.356 . S
H910 C904 0.930 . S
H911 C908 0.930 . S
C912 C914 1.348 . S
C912 C915 1.356 . S
C912 O942 1.325 . S
N913 C916 1.314 . S
N913 C917 1.279 . S
C914 C912 1.348 . S
C914 C916 1.353 . S
C914 H956 0.929 . S
C915 C912 1.356 . S
C915 C917 1.358 . S
C915 H957 0.930 . S
C916 N913 1.314 . S
C916 C914 1.353 . S
C916 H958 0.930 . S
C917 N913 1.279 . S
C917 C915 1.358 . S
C917 H959 0.930 . S
C918 C919 1.348 . S
C918 C920 1.356 . S
C918 O943 1.325 . S
C919 C918 1.348 . S
C919 C921 1.353 . S
C919 H960 0.929 . S
C920 C918 1.356 . S
C920 C922 1.358 . S
C920 H961 0.930 . S
C921 C919 1.353 . S
C921 N923 1.314 . S
C921 H962 0.930 . S
C922 C920 1.358 . S
C922 N923 1.279 . S
C922 H963 0.930 . S
N923 C921 1.314 . S
N923 C922 1.279 . S
C924 C926 1.353 . S
C924 N927 1.314 . S
C924 H930 0.930 1_565 S
C925 N927 1.279 . S
C925 C928 1.358 . S
C925 H931 0.930 . S
C926 C924 1.353 . S
C926 C929 1.348 . S
C926 H964 0.929 . S
N927 Li882 1.990 . S
N927 C924 1.314 . S
N927 C925 1.279 . S
C928 C925 1.358 . S
C928 C929 1.356 . S
C928 H965 0.930 . S
C929 C926 1.348 . S
C929 C928 1.356 . S
H930 C924 0.930 1_545 S
H931 C925 0.930 . S
C932 N933 1.314 . S
C932 C934 1.353 . S
C932 H938 0.930 . S
N933 Li883 1.990 . S
N933 C932 1.314 . S
N933 C936 1.279 . S
C934 C932 1.353 . S
C934 C937 1.348 . S
C934 H966 0.929 . S
C935 C936 1.358 . S
C935 C937 1.356 . S
C935 H967 0.930 . S
C936 N933 1.279 . S
C936 C935 1.358 . S
C936 H939 0.930 . S
C937 C934 1.348 . S
C937 C935 1.356 . S
H938 C932 0.930 . S
H939 C936 0.930 . S
O940 Li880 1.956 . S
O940 Li881 1.970 . S
O940 Li882 1.961 1_545 S
O940 C884 1.325 . S
O941 Li880 1.970 . S
O941 Li881 1.956 . S
O941 Li883 1.961 1_545 S
O941 C890 1.325 . S
O942 Li880 1.961 1_565 S
O942 Li882 1.956 . S
O942 Li883 1.970 . S
O942 C912 1.325 . S
O943 Li881 1.961 1_565 S
O943 Li882 1.970 . S
O943 Li883 1.956 . S
O943 C918 1.325 . S
H944 C886 0.929 . S
H945 C887 0.930 . S
H946 C888 0.930 . S
H947 C889 0.930 . S
H948 C891 0.930 . S
H949 C893 0.929 . S
H950 C894 0.930 . S
H951 C895 0.930 . S
H952 C898 0.930 . S
H953 C901 0.929 . S
H954 C906 0.929 . S
H955 C907 0.930 . S
H956 C914 0.929 . S
H957 C915 0.930 . S
H958 C916 0.930 . S
H959 C917 0.930 . S
H960 C919 0.929 . S
H961 C920 0.930 . S
H962 C921 0.930 . S
H963 C922 0.930 . S
H964 C926 0.929 . S
H965 C928 0.930 . S
H966 C934 0.929 . S
H967 C935 0.930 . S
Li968 N985 1.990 . S
Li968 O1028 1.956 1_556 S
Li968 O1029 1.970 . S
Li968 O1030 1.961 . S
Li969 N993 1.990 . S
Li969 O1028 1.970 . S
Li969 O1029 1.956 1_554 S
Li969 O1031 1.961 . S
Li970 N1015 1.990 . S
Li970 O1028 1.961 . S
Li970 O1030 1.956 1_554 S
Li970 O1031 1.970 . S
Li971 N1021 1.990 . S
Li971 O1029 1.961 . S
Li971 O1030 1.970 . S
Li971 O1031 1.956 1_556 S
C972 C974 1.348 . S
C972 C975 1.356 . S
C972 O1028 1.325 . S
N973 C976 1.314 . S
N973 C977 1.279 . S
C974 C972 1.348 . S
C974 C976 1.353 . S
C974 H1032 0.929 . S
C975 C972 1.356 . S
C975 C977 1.358 . S
C975 H1033 0.930 . S
C976 N973 1.314 . S
C976 C974 1.353 . S
C976 H1034 0.930 . S
C977 N973 1.279 . S
C977 C975 1.358 . S
C977 H1035 0.930 . S
C978 C981 1.348 . S
C978 C982 1.356 . S
C978 O1029 1.325 . S
C979 N980 1.279 . S
C979 C982 1.358 . S
C979 H1036 0.930 . S
N980 C979 1.279 . S
N980 C983 1.314 . S
C981 C978 1.348 . S
C981 C983 1.353 . S
C981 H1037 0.929 . S
C982 C978 1.356 . S
C982 C979 1.358 . S
C982 H1038 0.930 . S
C983 N980 1.314 . S
C983 C981 1.353 . S
C983 H1039 0.930 . S
C984 N985 1.314 . S
C984 C989 1.353 . S
C984 H990 0.930 . S
N985 Li968 1.990 . S
N985 C984 1.314 . S
N985 C987 1.279 . S
C986 C987 1.358 . S
C986 C988 1.356 . S
C986 H1040 0.930 . S
C987 N985 1.279 . S
C987 C986 1.358 . S
C987 H991 0.930 1_556 S
C988 C986 1.356 . S
C988 C989 1.348 . S
C989 C984 1.353 . S
C989 C988 1.348 . S
C989 H1041 0.929 . S
H990 C984 0.930 . S
H991 C987 0.930 1_554 S
C992 N993 1.314 . S
C992 C994 1.353 . S
C992 H998 0.930 . S
N993 Li969 1.990 . S
N993 C992 1.314 . S
N993 C996 1.279 . S
C994 C992 1.353 . S
C994 C997 1.348 . S
C994 H1042 0.929 . S
C995 C996 1.358 . S
C995 C997 1.356 . S
C995 H1043 0.930 . S
C996 N993 1.279 . S
C996 C995 1.358 . S
C996 H999 0.930 . S
C997 C994 1.348 . S
C997 C995 1.356 . S
H998 C992 0.930 . S
H999 C996 0.930 . S
C1000 C1002 1.348 . S
C1000 C1003 1.356 . S
C1000 O1030 1.325 . S
N1001 C1004 1.314 . S
N1001 C1005 1.279 . S
C1002 C1000 1.348 . S
C1002 C1004 1.353 . S
C1002 H1044 0.929 . S
C1003 C1000 1.356 . S
C1003 C1005 1.358 . S
C1003 H1045 0.930 . S
C1004 N1001 1.314 . S
C1004 C1002 1.353 . S
C1004 H1046 0.930 . S
C1005 N1001 1.279 . S
C1005 C1003 1.358 . S
C1005 H1047 0.930 . S
C1006 C1007 1.348 . S
C1006 C1008 1.356 . S
C1006 O1031 1.325 . S
C1007 C1006 1.348 . S
C1007 C1009 1.353 . S
C1007 H1048 0.929 . S
C1008 C1006 1.356 . S
C1008 C1010 1.358 . S
C1008 H1049 0.930 . S
C1009 C1007 1.353 . S
C1009 N1011 1.314 . S
C1009 H1050 0.930 . S
C1010 C1008 1.358 . S
C1010 N1011 1.279 . S
C1010 H1051 0.930 . S
N1011 C1009 1.314 . S
N1011 C1010 1.279 . S
C1012 C1014 1.353 . S
C1012 N1015 1.314 . S
C1012 H1018 0.930 . S
C1013 N1015 1.279 . S
C1013 C1016 1.358 . S
C1013 H1019 0.930 1_554 S
C1014 C1012 1.353 . S
C1014 C1017 1.348 . S
C1014 H1052 0.929 . S
N1015 Li970 1.990 . S
N1015 C1012 1.314 . S
N1015 C1013 1.279 . S
C1016 C1013 1.358 . S
C1016 C1017 1.356 . S
C1016 H1053 0.930 . S
C1017 C1014 1.348 . S
C1017 C1016 1.356 . S
H1018 C1012 0.930 . S
H1019 C1013 0.930 1_556 S
C1020 N1021 1.314 . S
C1020 C1022 1.353 . S
C1020 H1026 0.930 . S
N1021 Li971 1.990 . S
N1021 C1020 1.314 . S
N1021 C1024 1.279 . S
C1022 C1020 1.353 . S
C1022 C1025 1.348 . S
C1022 H1054 0.929 . S
C1023 C1024 1.358 . S
C1023 C1025 1.356 . S
C1023 H1055 0.930 . S
C1024 N1021 1.279 . S
C1024 C1023 1.358 . S
C1024 H1027 0.930 . S
C1025 C1022 1.348 . S
C1025 C1023 1.356 . S
H1026 C1020 0.930 . S
H1027 C1024 0.930 . S
O1028 Li968 1.956 1_554 S
O1028 Li969 1.970 . S
O1028 Li970 1.961 . S
O1028 C972 1.325 . S
O1029 Li968 1.970 . S
O1029 Li969 1.956 1_556 S
O1029 Li971 1.961 . S
O1029 C978 1.325 . S
O1030 Li968 1.961 . S
O1030 Li970 1.956 1_556 S
O1030 Li971 1.970 . S
O1030 C1000 1.325 . S
O1031 Li969 1.961 . S
O1031 Li970 1.970 . S
O1031 Li971 1.956 1_554 S
O1031 C1006 1.325 . S
H1032 C974 0.929 . S
H1033 C975 0.930 . S
H1034 C976 0.930 . S
H1035 C977 0.930 . S
H1036 C979 0.930 . S
H1037 C981 0.929 . S
H1038 C982 0.930 . S
H1039 C983 0.930 . S
H1040 C986 0.930 . S
H1041 C989 0.929 . S
H1042 C994 0.929 . S
H1043 C995 0.930 . S
H1044 C1002 0.929 . S
H1045 C1003 0.930 . S
H1046 C1004 0.930 . S
H1047 C1005 0.930 . S
H1048 C1007 0.929 . S
H1049 C1008 0.930 . S
H1050 C1009 0.930 . S
H1051 C1010 0.930 . S
H1052 C1014 0.929 . S
H1053 C1016 0.930 . S
H1054 C1022 0.929 . S
H1055 C1023 0.930 . S
Li1056 N1073 1.990 . S
Li1056 O1116 1.956 . S
Li1056 O1117 1.970 . S
Li1056 O1118 1.961 1_554 S
Li1057 N1081 1.990 . S
Li1057 O1116 1.970 . S
Li1057 O1117 1.956 . S
Li1057 O1119 1.961 1_554 S
Li1058 N1103 1.990 . S
Li1058 O1116 1.961 1_556 S
Li1058 O1118 1.956 . S
Li1058 O1119 1.970 . S
Li1059 N1109 1.990 . S
Li1059 O1117 1.961 1_556 S
Li1059 O1118 1.970 . S
Li1059 O1119 1.956 . S
C1060 C1062 1.348 . S
C1060 C1063 1.356 . S
C1060 O1116 1.325 . S
N1061 C1064 1.314 . S
N1061 C1065 1.279 . S
C1062 C1060 1.348 . S
C1062 C1064 1.353 . S
C1062 H1120 0.929 . S
C1063 C1060 1.356 . S
C1063 C1065 1.358 . S
C1063 H1121 0.930 . S
C1064 N1061 1.314 . S
C1064 C1062 1.353 . S
C1064 H1122 0.930 . S
C1065 N1061 1.279 . S
C1065 C1063 1.358 . S
C1065 H1123 0.930 . S
C1066 C1069 1.348 . S
C1066 C1070 1.356 . S
C1066 O1117 1.325 . S
C1067 N1068 1.279 . S
C1067 C1070 1.358 . S
C1067 H1124 0.930 . S
N1068 C1067 1.279 . S
N1068 C1071 1.314 . S
C1069 C1066 1.348 . S
C1069 C1071 1.353 . S
C1069 H1125 0.929 . S
C1070 C1066 1.356 . S
C1070 C1067 1.358 . S
C1070 H1126 0.930 . S
C1071 N1068 1.314 . S
C1071 C1069 1.353 . S
C1071 H1127 0.930 . S
C1072 N1073 1.314 . S
C1072 C1077 1.353 . S
C1072 H1078 0.930 . S
N1073 Li1056 1.990 . S
N1073 C1072 1.314 . S
N1073 C1075 1.279 . S
C1074 C1075 1.358 . S
C1074 C1076 1.356 . S
C1074 H1128 0.930 . S
C1075 N1073 1.279 . S
C1075 C1074 1.358 . S
C1075 H1079 0.930 . S
C1076 C1074 1.356 . S
C1076 C1077 1.348 . S
C1077 C1072 1.353 . S
C1077 C1076 1.348 . S
C1077 H1129 0.929 . S
H1078 C1072 0.930 . S
H1079 C1075 0.930 . S
C1080 N1081 1.314 . S
C1080 C1082 1.353 . S
C1080 H1086 0.930 1_554 S
N1081 Li1057 1.990 . S
N1081 C1080 1.314 . S
N1081 C1084 1.279 . S
C1082 C1080 1.353 . S
C1082 C1085 1.348 . S
C1082 H1130 0.929 . S
C1083 C1084 1.358 . S
C1083 C1085 1.356 . S
C1083 H1131 0.930 . S
C1084 N1081 1.279 . S
C1084 C1083 1.358 . S
C1084 H1087 0.930 . S
C1085 C1082 1.348 . S
C1085 C1083 1.356 . S
H1086 C1080 0.930 1_556 S
H1087 C1084 0.930 . S
C1088 C1090 1.348 . S
C1088 C1091 1.356 . S
C1088 O1118 1.325 . S
N1089 C1092 1.314 . S
N1089 C1093 1.279 . S
C1090 C1088 1.348 . S
C1090 C1092 1.353 . S
C1090 H1132 0.929 . S
C1091 C1088 1.356 . S
C1091 C1093 1.358 . S
C1091 H1133 0.930 . S
C1092 N1089 1.314 . S
C1092 C1090 1.353 . S
C1092 H1134 0.930 . S
C1093 N1089 1.279 . S
C1093 C1091 1.358 . S
C1093 H1135 0.930 . S
C1094 C1095 1.348 . S
C1094 C1096 1.356 . S
C1094 O1119 1.325 . S
C1095 C1094 1.348 . S
C1095 C1097 1.353 . S
C1095 H1136 0.929 . S
C1096 C1094 1.356 . S
C1096 C1098 1.358 . S
C1096 H1137 0.930 . S
C1097 C1095 1.353 . S
C1097 N1099 1.314 . S
C1097 H1138 0.930 . S
C1098 C1096 1.358 . S
C1098 N1099 1.279 . S
C1098 H1139 0.930 . S
N1099 C1097 1.314 . S
N1099 C1098 1.279 . S
C1100 C1102 1.353 . S
C1100 N1103 1.314 . S
C1100 H1106 0.930 . S
C1101 N1103 1.279 . S
C1101 C1104 1.358 . S
C1101 H1107 0.930 . S
C1102 C1100 1.353 . S
C1102 C1105 1.348 . S
C1102 H1140 0.929 . S
N1103 Li1058 1.990 . S
N1103 C1100 1.314 . S
N1103 C1101 1.279 . S
C1104 C1101 1.358 . S
C1104 C1105 1.356 . S
C1104 H1141 0.930 . S
C1105 C1102 1.348 . S
C1105 C1104 1.356 . S
H1106 C1100 0.930 . S
H1107 C1101 0.930 . S
C1108 N1109 1.314 . S
C1108 C1110 1.353 . S
C1108 H1114 0.930 1_556 S
N1109 Li1059 1.990 . S
N1109 C1108 1.314 . S
N1109 C1112 1.279 . S
C1110 C1108 1.353 . S
C1110 C1113 1.348 . S
C1110 H1142 0.929 . S
C1111 C1112 1.358 . S
C1111 C1113 1.356 . S
C1111 H1143 0.930 . S
C1112 N1109 1.279 . S
C1112 C1111 1.358 . S
C1112 H1115 0.930 . S
C1113 C1110 1.348 . S
C1113 C1111 1.356 . S
H1114 C1108 0.930 1_554 S
H1115 C1112 0.930 . S
O1116 Li1056 1.956 . S
O1116 Li1057 1.970 . S
O1116 Li1058 1.961 1_554 S
O1116 C1060 1.325 . S
O1117 Li1056 1.970 . S
O1117 Li1057 1.956 . S
O1117 Li1059 1.961 1_554 S
O1117 C1066 1.325 . S
O1118 Li1056 1.961 1_556 S
O1118 Li1058 1.956 . S
O1118 Li1059 1.970 . S
O1118 C1088 1.325 . S
O1119 Li1057 1.961 1_556 S
O1119 Li1058 1.970 . S
O1119 Li1059 1.956 . S
O1119 C1094 1.325 . S
H1120 C1062 0.929 . S
H1121 C1063 0.930 . S
H1122 C1064 0.930 . S
H1123 C1065 0.930 . S
H1124 C1067 0.930 . S
H1125 C1069 0.929 . S
H1126 C1070 0.930 . S
H1127 C1071 0.930 . S
H1128 C1074 0.930 . S
H1129 C1077 0.929 . S
H1130 C1082 0.929 . S
H1131 C1083 0.930 . S
H1132 C1090 0.929 . S
H1133 C1091 0.930 . S
H1134 C1092 0.930 . S
H1135 C1093 0.930 . S
H1136 C1095 0.929 . S
H1137 C1096 0.930 . S
H1138 C1097 0.930 . S
H1139 C1098 0.930 . S
H1140 C1102 0.929 . S
H1141 C1104 0.930 . S
H1142 C1110 0.929 . S
H1143 C1111 0.930 . S
Li1144 N1161 1.990 . S
Li1144 O1204 1.956 . S
Li1144 O1205 1.970 . S
Li1144 O1206 1.961 1_554 S
Li1145 N1169 1.990 . S
Li1145 O1204 1.970 . S
Li1145 O1205 1.956 . S
Li1145 O1207 1.961 1_554 S
Li1146 N1191 1.990 . S
Li1146 O1204 1.961 1_556 S
Li1146 O1206 1.956 . S
Li1146 O1207 1.970 . S
Li1147 N1197 1.990 . S
Li1147 O1205 1.961 1_556 S
Li1147 O1206 1.970 . S
Li1147 O1207 1.956 . S
C1148 C1150 1.348 . S
C1148 C1151 1.356 . S
C1148 O1204 1.325 . S
N1149 C1152 1.314 . S
N1149 C1153 1.279 . S
C1150 C1148 1.348 . S
C1150 C1152 1.353 . S
C1150 H1208 0.929 . S
C1151 C1148 1.356 . S
C1151 C1153 1.358 . S
C1151 H1209 0.930 . S
C1152 N1149 1.314 . S
C1152 C1150 1.353 . S
C1152 H1210 0.930 . S
C1153 N1149 1.279 . S
C1153 C1151 1.358 . S
C1153 H1211 0.930 . S
C1154 C1157 1.348 . S
C1154 C1158 1.356 . S
C1154 O1205 1.325 . S
C1155 N1156 1.279 . S
C1155 C1158 1.358 . S
C1155 H1212 0.930 . S
N1156 C1155 1.279 . S
N1156 C1159 1.314 . S
C1157 C1154 1.348 . S
C1157 C1159 1.353 . S
C1157 H1213 0.929 . S
C1158 C1154 1.356 . S
C1158 C1155 1.358 . S
C1158 H1214 0.930 . S
C1159 N1156 1.314 . S
C1159 C1157 1.353 . S
C1159 H1215 0.930 . S
C1160 N1161 1.314 . S
C1160 C1165 1.353 . S
C1160 H1166 0.930 1_554 S
N1161 Li1144 1.990 . S
N1161 C1160 1.314 . S
N1161 C1163 1.279 . S
C1162 C1163 1.358 . S
C1162 C1164 1.356 . S
C1162 H1216 0.930 . S
C1163 N1161 1.279 . S
C1163 C1162 1.358 . S
C1163 H1167 0.930 . S
C1164 C1162 1.356 . S
C1164 C1165 1.348 . S
C1165 C1160 1.353 . S
C1165 C1164 1.348 . S
C1165 H1217 0.929 . S
H1166 C1160 0.930 1_556 S
H1167 C1163 0.930 . S
C1168 N1169 1.314 . S
C1168 C1170 1.353 . S
C1168 H1174 0.930 . S
N1169 Li1145 1.990 . S
N1169 C1168 1.314 . S
N1169 C1172 1.279 . S
C1170 C1168 1.353 . S
C1170 C1173 1.348 . S
C1170 H1218 0.929 . S
C1171 C1172 1.358 . S
C1171 C1173 1.356 . S
C1171 H1219 0.930 . S
C1172 N1169 1.279 . S
C1172 C1171 1.358 . S
C1172 H1175 0.930 . S
C1173 C1170 1.348 . S
C1173 C1171 1.356 . S
H1174 C1168 0.930 . S
H1175 C1172 0.930 . S
C1176 C1178 1.348 . S
C1176 C1179 1.356 . S
C1176 O1206 1.325 . S
N1177 C1180 1.314 . S
N1177 C1181 1.279 . S
C1178 C1176 1.348 . S
C1178 C1180 1.353 . S
C1178 H1220 0.929 . S
C1179 C1176 1.356 . S
C1179 C1181 1.358 . S
C1179 H1221 0.930 . S
C1180 N1177 1.314 . S
C1180 C1178 1.353 . S
C1180 H1222 0.930 . S
C1181 N1177 1.279 . S
C1181 C1179 1.358 . S
C1181 H1223 0.930 . S
C1182 C1183 1.348 . S
C1182 C1184 1.356 . S
C1182 O1207 1.325 . S
C1183 C1182 1.348 . S
C1183 C1185 1.353 . S
C1183 H1224 0.929 . S
C1184 C1182 1.356 . S
C1184 C1186 1.358 . S
C1184 H1225 0.930 . S
C1185 C1183 1.353 . S
C1185 N1187 1.314 . S
C1185 H1226 0.930 . S
C1186 C1184 1.358 . S
C1186 N1187 1.279 . S
C1186 H1227 0.930 . S
N1187 C1185 1.314 . S
N1187 C1186 1.279 . S
C1188 C1190 1.353 . S
C1188 N1191 1.314 . S
C1188 H1194 0.930 1_556 S
C1189 N1191 1.279 . S
C1189 C1192 1.358 . S
C1189 H1195 0.930 . S
C1190 C1188 1.353 . S
C1190 C1193 1.348 . S
C1190 H1228 0.929 . S
N1191 Li1146 1.990 . S
N1191 C1188 1.314 . S
N1191 C1189 1.279 . S
C1192 C1189 1.358 . S
C1192 C1193 1.356 . S
C1192 H1229 0.930 . S
C1193 C1190 1.348 . S
C1193 C1192 1.356 . S
H1194 C1188 0.930 1_554 S
H1195 C1189 0.930 . S
C1196 N1197 1.314 . S
C1196 C1198 1.353 . S
C1196 H1202 0.930 . S
N1197 Li1147 1.990 . S
N1197 C1196 1.314 . S
N1197 C1200 1.279 . S
C1198 C1196 1.353 . S
C1198 C1201 1.348 . S
C1198 H1230 0.929 . S
C1199 C1200 1.358 . S
C1199 C1201 1.356 . S
C1199 H1231 0.930 . S
C1200 N1197 1.279 . S
C1200 C1199 1.358 . S
C1200 H1203 0.930 . S
C1201 C1198 1.348 . S
C1201 C1199 1.356 . S
H1202 C1196 0.930 . S
H1203 C1200 0.930 . S
O1204 Li1144 1.956 . S
O1204 Li1145 1.970 . S
O1204 Li1146 1.961 1_554 S
O1204 C1148 1.325 . S
O1205 Li1144 1.970 . S
O1205 Li1145 1.956 . S
O1205 Li1147 1.961 1_554 S
O1205 C1154 1.325 . S
O1206 Li1144 1.961 1_556 S
O1206 Li1146 1.956 . S
O1206 Li1147 1.970 . S
O1206 C1176 1.325 . S
O1207 Li1145 1.961 1_556 S
O1207 Li1146 1.970 . S
O1207 Li1147 1.956 . S
O1207 C1182 1.325 . S
H1208 C1150 0.929 . S
H1209 C1151 0.930 . S
H1210 C1152 0.930 . S
H1211 C1153 0.930 . S
H1212 C1155 0.930 . S
H1213 C1157 0.929 . S
H1214 C1158 0.930 . S
H1215 C1159 0.930 . S
H1216 C1162 0.930 . S
H1217 C1165 0.929 . S
H1218 C1170 0.929 . S
H1219 C1171 0.930 . S
H1220 C1178 0.929 . S
H1221 C1179 0.930 . S
H1222 C1180 0.930 . S
H1223 C1181 0.930 . S
H1224 C1183 0.929 . S
H1225 C1184 0.930 . S
H1226 C1185 0.930 . S
H1227 C1186 0.930 . S
H1228 C1190 0.929 . S
H1229 C1192 0.930 . S
H1230 C1198 0.929 . S
H1231 C1199 0.930 . S
Li1232 N1249 1.990 . S
Li1232 O1292 1.956 . S
Li1232 O1293 1.970 . S
Li1232 O1294 1.961 . S
Li1233 N1257 1.990 . S
Li1233 O1292 1.970 . S
Li1233 O1293 1.956 . S
Li1233 O1295 1.961 . S
Li1234 N1279 1.990 . S
Li1234 O1292 1.961 . S
Li1234 O1294 1.956 . S
Li1234 O1295 1.970 . S
Li1235 N1285 1.990 . S
Li1235 O1293 1.961 . S
Li1235 O1294 1.970 . S
Li1235 O1295 1.956 . S
C1236 C1238 1.348 . S
C1236 C1239 1.356 . S
C1236 O1292 1.325 . S
N1237 C1240 1.314 . S
N1237 C1241 1.279 . S
C1238 C1236 1.348 . S
C1238 C1240 1.353 . S
C1238 H1296 0.929 . S
C1239 C1236 1.356 . S
C1239 C1241 1.358 . S
C1239 H1297 0.930 . S
C1240 N1237 1.314 . S
C1240 C1238 1.353 . S
C1240 H1298 0.930 . S
C1241 N1237 1.279 . S
C1241 C1239 1.358 . S
C1241 H1299 0.930 . S
C1242 C1245 1.348 . S
C1242 C1246 1.356 . S
C1242 O1293 1.325 . S
C1243 N1244 1.279 . S
C1243 C1246 1.358 . S
C1243 H1300 0.930 . S
N1244 C1243 1.279 . S
N1244 C1247 1.314 . S
C1245 C1242 1.348 . S
C1245 C1247 1.353 . S
C1245 H1301 0.929 . S
C1246 C1242 1.356 . S
C1246 C1243 1.358 . S
C1246 H1302 0.930 . S
C1247 N1244 1.314 . S
C1247 C1245 1.353 . S
C1247 H1303 0.930 . S
C1248 N1249 1.314 . S
C1248 C1253 1.353 . S
C1248 H1254 0.930 . S
N1249 Li1232 1.990 . S
N1249 C1248 1.314 . S
N1249 C1251 1.279 . S
C1250 C1251 1.358 . S
C1250 C1252 1.356 . S
C1250 H1304 0.930 . S
C1251 N1249 1.279 . S
C1251 C1250 1.358 . S
C1251 H1255 0.930 . S
C1252 C1250 1.356 . S
C1252 C1253 1.348 . S
C1253 C1248 1.353 . S
C1253 C1252 1.348 . S
C1253 H1305 0.929 . S
H1254 C1248 0.930 . S
H1255 C1251 0.930 . S
C1256 N1257 1.314 . S
C1256 C1258 1.353 . S
C1256 H1262 0.930 . S
N1257 Li1233 1.990 . S
N1257 C1256 1.314 . S
N1257 C1260 1.279 . S
C1258 C1256 1.353 . S
C1258 C1261 1.348 . S
C1258 H1306 0.929 . S
C1259 C1260 1.358 . S
C1259 C1261 1.356 . S
C1259 H1307 0.930 . S
C1260 N1257 1.279 . S
C1260 C1259 1.358 . S
C1260 H1263 0.930 . S
C1261 C1258 1.348 . S
C1261 C1259 1.356 . S
H1262 C1256 0.930 . S
H1263 C1260 0.930 . S
C1264 C1266 1.348 . S
C1264 C1267 1.356 . S
C1264 O1294 1.325 . S
N1265 C1268 1.314 . S
N1265 C1269 1.279 . S
C1266 C1264 1.348 . S
C1266 C1268 1.353 . S
C1266 H1308 0.929 . S
C1267 C1264 1.356 . S
C1267 C1269 1.358 . S
C1267 H1309 0.930 . S
C1268 N1265 1.314 . S
C1268 C1266 1.353 . S
C1268 H1310 0.930 . S
C1269 N1265 1.279 . S
C1269 C1267 1.358 . S
C1269 H1311 0.930 . S
C1270 C1271 1.348 . S
C1270 C1272 1.356 . S
C1270 O1295 1.325 . S
C1271 C1270 1.348 . S
C1271 C1273 1.353 . S
C1271 H1312 0.929 . S
C1272 C1270 1.356 . S
C1272 C1274 1.358 . S
C1272 H1313 0.930 . S
C1273 C1271 1.353 . S
C1273 N1275 1.314 . S
C1273 H1314 0.930 . S
C1274 C1272 1.358 . S
C1274 N1275 1.279 . S
C1274 H1315 0.930 . S
N1275 C1273 1.314 . S
N1275 C1274 1.279 . S
C1276 C1278 1.353 . S
C1276 N1279 1.314 . S
C1276 H1282 0.930 . S
C1277 N1279 1.279 . S
C1277 C1280 1.358 . S
C1277 H1283 0.930 . S
C1278 C1276 1.353 . S
C1278 C1281 1.348 . S
C1278 H1316 0.929 . S
N1279 Li1234 1.990 . S
N1279 C1276 1.314 . S
N1279 C1277 1.279 . S
C1280 C1277 1.358 . S
C1280 C1281 1.356 . S
C1280 H1317 0.930 . S
C1281 C1278 1.348 . S
C1281 C1280 1.356 . S
H1282 C1276 0.930 . S
H1283 C1277 0.930 . S
C1284 N1285 1.314 . S
C1284 C1286 1.353 . S
C1284 H1290 0.930 . S
N1285 Li1235 1.990 . S
N1285 C1284 1.314 . S
N1285 C1288 1.279 . S
C1286 C1284 1.353 . S
C1286 C1289 1.348 . S
C1286 H1318 0.929 . S
C1287 C1288 1.358 . S
C1287 C1289 1.356 . S
C1287 H1319 0.930 . S
C1288 N1285 1.279 . S
C1288 C1287 1.358 . S
C1288 H1291 0.930 . S
C1289 C1286 1.348 . S
C1289 C1287 1.356 . S
H1290 C1284 0.930 . S
H1291 C1288 0.930 . S
O1292 Li1232 1.956 . S
O1292 Li1233 1.970 . S
O1292 Li1234 1.961 . S
O1292 C1236 1.325 . S
O1293 Li1232 1.970 . S
O1293 Li1233 1.956 . S
O1293 Li1235 1.961 . S
O1293 C1242 1.325 . S
O1294 Li1232 1.961 . S
O1294 Li1234 1.956 . S
O1294 Li1235 1.970 . S
O1294 C1264 1.325 . S
O1295 Li1233 1.961 . S
O1295 Li1234 1.970 . S
O1295 Li1235 1.956 . S
O1295 C1270 1.325 . S
H1296 C1238 0.929 . S
H1297 C1239 0.930 . S
H1298 C1240 0.930 . S
H1299 C1241 0.930 . S
H1300 C1243 0.930 . S
H1301 C1245 0.929 . S
H1302 C1246 0.930 . S
H1303 C1247 0.930 . S
H1304 C1250 0.930 . S
H1305 C1253 0.929 . S
H1306 C1258 0.929 . S
H1307 C1259 0.930 . S
H1308 C1266 0.929 . S
H1309 C1267 0.930 . S
H1310 C1268 0.930 . S
H1311 C1269 0.930 . S
H1312 C1271 0.929 . S
H1313 C1272 0.930 . S
H1314 C1273 0.930 . S
H1315 C1274 0.930 . S
H1316 C1278 0.929 . S
H1317 C1280 0.930 . S
H1318 C1286 0.929 . S
H1319 C1287 0.930 . S
Li1320 N1337 1.990 . S
Li1320 O1380 1.956 . S
Li1320 O1381 1.970 . S
Li1320 O1382 1.961 . S
Li1321 N1345 1.990 . S
Li1321 O1380 1.970 . S
Li1321 O1381 1.956 . S
Li1321 O1383 1.961 . S
Li1322 N1367 1.990 . S
Li1322 O1380 1.961 . S
Li1322 O1382 1.956 . S
Li1322 O1383 1.970 . S
Li1323 N1373 1.990 . S
Li1323 O1381 1.961 . S
Li1323 O1382 1.970 . S
Li1323 O1383 1.956 . S
C1324 C1326 1.348 . S
C1324 C1327 1.356 . S
C1324 O1380 1.325 . S
N1325 C1328 1.314 . S
N1325 C1329 1.279 . S
C1326 C1324 1.348 . S
C1326 C1328 1.353 . S
C1326 H1384 0.929 . S
C1327 C1324 1.356 . S
C1327 C1329 1.358 . S
C1327 H1385 0.930 . S
C1328 N1325 1.314 . S
C1328 C1326 1.353 . S
C1328 H1386 0.930 . S
C1329 N1325 1.279 . S
C1329 C1327 1.358 . S
C1329 H1387 0.930 . S
C1330 C1333 1.348 . S
C1330 C1334 1.356 . S
C1330 O1381 1.325 . S
C1331 N1332 1.279 . S
C1331 C1334 1.358 . S
C1331 H1388 0.930 . S
N1332 C1331 1.279 . S
N1332 C1335 1.314 . S
C1333 C1330 1.348 . S
C1333 C1335 1.353 . S
C1333 H1389 0.929 . S
C1334 C1330 1.356 . S
C1334 C1331 1.358 . S
C1334 H1390 0.930 . S
C1335 N1332 1.314 . S
C1335 C1333 1.353 . S
C1335 H1391 0.930 . S
C1336 N1337 1.314 . S
C1336 C1341 1.353 . S
C1336 H1342 0.930 . S
N1337 Li1320 1.990 . S
N1337 C1336 1.314 . S
N1337 C1339 1.279 . S
C1338 C1339 1.358 . S
C1338 C1340 1.356 . S
C1338 H1392 0.930 . S
C1339 N1337 1.279 . S
C1339 C1338 1.358 . S
C1339 H1343 0.930 . S
C1340 C1338 1.356 . S
C1340 C1341 1.348 . S
C1341 C1336 1.353 . S
C1341 C1340 1.348 . S
C1341 H1393 0.929 . S
H1342 C1336 0.930 . S
H1343 C1339 0.930 . S
C1344 N1345 1.314 . S
C1344 C1346 1.353 . S
C1344 H1350 0.930 . S
N1345 Li1321 1.990 . S
N1345 C1344 1.314 . S
N1345 C1348 1.279 . S
C1346 C1344 1.353 . S
C1346 C1349 1.348 . S
C1346 H1394 0.929 . S
C1347 C1348 1.358 . S
C1347 C1349 1.356 . S
C1347 H1395 0.930 . S
C1348 N1345 1.279 . S
C1348 C1347 1.358 . S
C1348 H1351 0.930 . S
C1349 C1346 1.348 . S
C1349 C1347 1.356 . S
H1350 C1344 0.930 . S
H1351 C1348 0.930 . S
C1352 C1354 1.348 . S
C1352 C1355 1.356 . S
C1352 O1382 1.325 . S
N1353 C1356 1.314 . S
N1353 C1357 1.279 . S
C1354 C1352 1.348 . S
C1354 C1356 1.353 . S
C1354 H1396 0.929 . S
C1355 C1352 1.356 . S
C1355 C1357 1.358 . S
C1355 H1397 0.930 . S
C1356 N1353 1.314 . S
C1356 C1354 1.353 . S
C1356 H1398 0.930 . S
C1357 N1353 1.279 . S
C1357 C1355 1.358 . S
C1357 H1399 0.930 . S
C1358 C1359 1.348 . S
C1358 C1360 1.356 . S
C1358 O1383 1.325 . S
C1359 C1358 1.348 . S
C1359 C1361 1.353 . S
C1359 H1400 0.929 . S
C1360 C1358 1.356 . S
C1360 C1362 1.358 . S
C1360 H1401 0.930 . S
C1361 C1359 1.353 . S
C1361 N1363 1.314 . S
C1361 H1402 0.930 . S
C1362 C1360 1.358 . S
C1362 N1363 1.279 . S
C1362 H1403 0.930 . S
N1363 C1361 1.314 . S
N1363 C1362 1.279 . S
C1364 C1366 1.353 . S
C1364 N1367 1.314 . S
C1364 H1370 0.930 . S
C1365 N1367 1.279 . S
C1365 C1368 1.358 . S
C1365 H1371 0.930 . S
C1366 C1364 1.353 . S
C1366 C1369 1.348 . S
C1366 H1404 0.929 . S
N1367 Li1322 1.990 . S
N1367 C1364 1.314 . S
N1367 C1365 1.279 . S
C1368 C1365 1.358 . S
C1368 C1369 1.356 . S
C1368 H1405 0.930 . S
C1369 C1366 1.348 . S
C1369 C1368 1.356 . S
H1370 C1364 0.930 . S
H1371 C1365 0.930 . S
C1372 N1373 1.314 . S
C1372 C1374 1.353 . S
C1372 H1378 0.930 . S
N1373 Li1323 1.990 . S
N1373 C1372 1.314 . S
N1373 C1376 1.279 . S
C1374 C1372 1.353 . S
C1374 C1377 1.348 . S
C1374 H1406 0.929 . S
C1375 C1376 1.358 . S
C1375 C1377 1.356 . S
C1375 H1407 0.930 . S
C1376 N1373 1.279 . S
C1376 C1375 1.358 . S
C1376 H1379 0.930 . S
C1377 C1374 1.348 . S
C1377 C1375 1.356 . S
H1378 C1372 0.930 . S
H1379 C1376 0.930 . S
O1380 Li1320 1.956 . S
O1380 Li1321 1.970 . S
O1380 Li1322 1.961 . S
O1380 C1324 1.325 . S
O1381 Li1320 1.970 . S
O1381 Li1321 1.956 . S
O1381 Li1323 1.961 . S
O1381 C1330 1.325 . S
O1382 Li1320 1.961 . S
O1382 Li1322 1.956 . S
O1382 Li1323 1.970 . S
O1382 C1352 1.325 . S
O1383 Li1321 1.961 . S
O1383 Li1322 1.970 . S
O1383 Li1323 1.956 . S
O1383 C1358 1.325 . S
H1384 C1326 0.929 . S
H1385 C1327 0.930 . S
H1386 C1328 0.930 . S
H1387 C1329 0.930 . S
H1388 C1331 0.930 . S
H1389 C1333 0.929 . S
H1390 C1334 0.930 . S
H1391 C1335 0.930 . S
H1392 C1338 0.930 . S
H1393 C1341 0.929 . S
H1394 C1346 0.929 . S
H1395 C1347 0.930 . S
H1396 C1354 0.929 . S
H1397 C1355 0.930 . S
H1398 C1356 0.930 . S
H1399 C1357 0.930 . S
H1400 C1359 0.929 . S
H1401 C1360 0.930 . S
H1402 C1361 0.930 . S
H1403 C1362 0.930 . S
H1404 C1366 0.929 . S
H1405 C1368 0.930 . S
H1406 C1374 0.929 . S
H1407 C1375 0.930 . S
Li1408 N1425 1.990 . S
Li1408 O1468 1.956 1_545 S
Li1408 O1469 1.970 . S
Li1408 O1470 1.961 . S
Li1409 N1433 1.990 . S
Li1409 O1468 1.970 . S
Li1409 O1469 1.956 1_565 S
Li1409 O1471 1.961 . S
Li1410 N1455 1.990 . S
Li1410 O1468 1.961 . S
Li1410 O1470 1.956 1_565 S
Li1410 O1471 1.970 . S
Li1411 N1461 1.990 . S
Li1411 O1469 1.961 . S
Li1411 O1470 1.970 . S
Li1411 O1471 1.956 1_545 S
C1412 C1414 1.348 . S
C1412 C1415 1.356 . S
C1412 O1468 1.325 . S
N1413 C1416 1.314 . S
N1413 C1417 1.279 . S
C1414 C1412 1.348 . S
C1414 C1416 1.353 . S
C1414 H1472 0.929 . S
C1415 C1412 1.356 . S
C1415 C1417 1.358 . S
C1415 H1473 0.930 . S
C1416 N1413 1.314 . S
C1416 C1414 1.353 . S
C1416 H1474 0.930 . S
C1417 N1413 1.279 . S
C1417 C1415 1.358 . S
C1417 H1475 0.930 . S
C1418 C1421 1.348 . S
C1418 C1422 1.356 . S
C1418 O1469 1.325 . S
C1419 N1420 1.279 . S
C1419 C1422 1.358 . S
C1419 H1476 0.930 . S
N1420 C1419 1.279 . S
N1420 C1423 1.314 . S
C1421 C1418 1.348 . S
C1421 C1423 1.353 . S
C1421 H1477 0.929 . S
C1422 C1418 1.356 . S
C1422 C1419 1.358 . S
C1422 H1478 0.930 . S
C1423 N1420 1.314 . S
C1423 C1421 1.353 . S
C1423 H1479 0.930 . S
C1424 N1425 1.314 . S
C1424 C1429 1.353 . S
C1424 H1430 0.930 . S
N1425 Li1408 1.990 . S
N1425 C1424 1.314 . S
N1425 C1427 1.279 . S
C1426 C1427 1.358 . S
C1426 C1428 1.356 . S
C1426 H1480 0.930 . S
C1427 N1425 1.279 . S
C1427 C1426 1.358 . S
C1427 H1431 0.930 . S
C1428 C1426 1.356 . S
C1428 C1429 1.348 . S
C1429 C1424 1.353 . S
C1429 C1428 1.348 . S
C1429 H1481 0.929 . S
H1430 C1424 0.930 . S
H1431 C1427 0.930 . S
C1432 N1433 1.314 . S
C1432 C1434 1.353 . S
C1432 H1438 0.930 . S
N1433 Li1409 1.990 . S
N1433 C1432 1.314 . S
N1433 C1436 1.279 . S
C1434 C1432 1.353 . S
C1434 C1437 1.348 . S
C1434 H1482 0.929 . S
C1435 C1436 1.358 . S
C1435 C1437 1.356 . S
C1435 H1483 0.930 . S
C1436 N1433 1.279 . S
C1436 C1435 1.358 . S
C1436 H1439 0.930 1_565 S
C1437 C1434 1.348 . S
C1437 C1435 1.356 . S
H1438 C1432 0.930 . S
H1439 C1436 0.930 1_545 S
C1440 C1442 1.348 . S
C1440 C1443 1.356 . S
C1440 O1470 1.325 . S
N1441 C1444 1.314 . S
N1441 C1445 1.279 . S
C1442 C1440 1.348 . S
C1442 C1444 1.353 . S
C1442 H1484 0.929 . S
C1443 C1440 1.356 . S
C1443 C1445 1.358 . S
C1443 H1485 0.930 . S
C1444 N1441 1.314 . S
C1444 C1442 1.353 . S
C1444 H1486 0.930 . S
C1445 N1441 1.279 . S
C1445 C1443 1.358 . S
C1445 H1487 0.930 . S
C1446 C1447 1.348 . S
C1446 C1448 1.356 . S
C1446 O1471 1.325 . S
C1447 C1446 1.348 . S
C1447 C1449 1.353 . S
C1447 H1488 0.929 . S
C1448 C1446 1.356 . S
C1448 C1450 1.358 . S
C1448 H1489 0.930 . S
C1449 C1447 1.353 . S
C1449 N1451 1.314 . S
C1449 H1490 0.930 . S
C1450 C1448 1.358 . S
C1450 N1451 1.279 . S
C1450 H1491 0.930 . S
N1451 C1449 1.314 . S
N1451 C1450 1.279 . S
C1452 C1454 1.353 . S
C1452 N1455 1.314 . S
C1452 H1458 0.930 . S
C1453 N1455 1.279 . S
C1453 C1456 1.358 . S
C1453 H1459 0.930 . S
C1454 C1452 1.353 . S
C1454 C1457 1.348 . S
C1454 H1492 0.929 . S
N1455 Li1410 1.990 . S
N1455 C1452 1.314 . S
N1455 C1453 1.279 . S
C1456 C1453 1.358 . S
C1456 C1457 1.356 . S
C1456 H1493 0.930 . S
C1457 C1454 1.348 . S
C1457 C1456 1.356 . S
H1458 C1452 0.930 . S
H1459 C1453 0.930 . S
C1460 N1461 1.314 . S
C1460 C1462 1.353 . S
C1460 H1466 0.930 . S
N1461 Li1411 1.990 . S
N1461 C1460 1.314 . S
N1461 C1464 1.279 . S
C1462 C1460 1.353 . S
C1462 C1465 1.348 . S
C1462 H1494 0.929 . S
C1463 C1464 1.358 . S
C1463 C1465 1.356 . S
C1463 H1495 0.930 . S
C1464 N1461 1.279 . S
C1464 C1463 1.358 . S
C1464 H1467 0.930 1_545 S
C1465 C1462 1.348 . S
C1465 C1463 1.356 . S
H1466 C1460 0.930 . S
H1467 C1464 0.930 1_565 S
O1468 Li1408 1.956 1_565 S
O1468 Li1409 1.970 . S
O1468 Li1410 1.961 . S
O1468 C1412 1.325 . S
O1469 Li1408 1.970 . S
O1469 Li1409 1.956 1_545 S
O1469 Li1411 1.961 . S
O1469 C1418 1.325 . S
O1470 Li1408 1.961 . S
O1470 Li1410 1.956 1_545 S
O1470 Li1411 1.970 . S
O1470 C1440 1.325 . S
O1471 Li1409 1.961 . S
O1471 Li1410 1.970 . S
O1471 Li1411 1.956 1_565 S
O1471 C1446 1.325 . S
H1472 C1414 0.929 . S
H1473 C1415 0.930 . S
H1474 C1416 0.930 . S
H1475 C1417 0.930 . S
H1476 C1419 0.930 . S
H1477 C1421 0.929 . S
H1478 C1422 0.930 . S
H1479 C1423 0.930 . S
H1480 C1426 0.930 . S
H1481 C1429 0.929 . S
H1482 C1434 0.929 . S
H1483 C1435 0.930 . S
H1484 C1442 0.929 . S
H1485 C1443 0.930 . S
H1486 C1444 0.930 . S
H1487 C1445 0.930 . S
H1488 C1447 0.929 . S
H1489 C1448 0.930 . S
H1490 C1449 0.930 . S
H1491 C1450 0.930 . S
H1492 C1454 0.929 . S
H1493 C1456 0.930 . S
H1494 C1462 0.929 . S
H1495 C1463 0.930 . S
Li1496 N1513 1.990 . S
Li1496 O1556 1.956 . S
Li1496 O1557 1.970 . S
Li1496 O1558 1.961 . S
Li1497 N1521 1.990 . S
Li1497 O1556 1.970 . S
Li1497 O1557 1.956 . S
Li1497 O1559 1.961 . S
Li1498 N1543 1.990 . S
Li1498 O1556 1.961 . S
Li1498 O1558 1.956 . S
Li1498 O1559 1.970 . S
Li1499 N1549 1.990 . S
Li1499 O1557 1.961 . S
Li1499 O1558 1.970 . S
Li1499 O1559 1.956 . S
C1500 C1502 1.348 . S
C1500 C1503 1.356 . S
C1500 O1556 1.325 . S
N1501 C1504 1.314 . S
N1501 C1505 1.279 . S
C1502 C1500 1.348 . S
C1502 C1504 1.353 . S
C1502 H1560 0.929 . S
C1503 C1500 1.356 . S
C1503 C1505 1.358 . S
C1503 H1561 0.930 . S
C1504 N1501 1.314 . S
C1504 C1502 1.353 . S
C1504 H1562 0.930 . S
C1505 N1501 1.279 . S
C1505 C1503 1.358 . S
C1505 H1563 0.930 . S
C1506 C1509 1.348 . S
C1506 C1510 1.356 . S
C1506 O1557 1.325 . S
C1507 N1508 1.279 . S
C1507 C1510 1.358 . S
C1507 H1564 0.930 . S
N1508 C1507 1.279 . S
N1508 C1511 1.314 . S
C1509 C1506 1.348 . S
C1509 C1511 1.353 . S
C1509 H1565 0.929 . S
C1510 C1506 1.356 . S
C1510 C1507 1.358 . S
C1510 H1566 0.930 . S
C1511 N1508 1.314 . S
C1511 C1509 1.353 . S
C1511 H1567 0.930 . S
C1512 N1513 1.314 . S
C1512 C1517 1.353 . S
C1512 H1518 0.930 . S
N1513 Li1496 1.990 . S
N1513 C1512 1.314 . S
N1513 C1515 1.279 . S
C1514 C1515 1.358 . S
C1514 C1516 1.356 . S
C1514 H1568 0.930 . S
C1515 N1513 1.279 . S
C1515 C1514 1.358 . S
C1515 H1519 0.930 . S
C1516 C1514 1.356 . S
C1516 C1517 1.348 . S
C1517 C1512 1.353 . S
C1517 C1516 1.348 . S
C1517 H1569 0.929 . S
H1518 C1512 0.930 . S
H1519 C1515 0.930 . S
C1520 N1521 1.314 . S
C1520 C1522 1.353 . S
C1520 H1526 0.930 . S
N1521 Li1497 1.990 . S
N1521 C1520 1.314 . S
N1521 C1524 1.279 . S
C1522 C1520 1.353 . S
C1522 C1525 1.348 . S
C1522 H1570 0.929 . S
C1523 C1524 1.358 . S
C1523 C1525 1.356 . S
C1523 H1571 0.930 . S
C1524 N1521 1.279 . S
C1524 C1523 1.358 . S
C1524 H1527 0.930 . S
C1525 C1522 1.348 . S
C1525 C1523 1.356 . S
H1526 C1520 0.930 . S
H1527 C1524 0.930 . S
C1528 C1530 1.348 . S
C1528 C1531 1.356 . S
C1528 O1558 1.325 . S
N1529 C1532 1.314 . S
N1529 C1533 1.279 . S
C1530 C1528 1.348 . S
C1530 C1532 1.353 . S
C1530 H1572 0.929 . S
C1531 C1528 1.356 . S
C1531 C1533 1.358 . S
C1531 H1573 0.930 . S
C1532 N1529 1.314 . S
C1532 C1530 1.353 . S
C1532 H1574 0.930 . S
C1533 N1529 1.279 . S
C1533 C1531 1.358 . S
C1533 H1575 0.930 . S
C1534 C1535 1.348 . S
C1534 C1536 1.356 . S
C1534 O1559 1.325 . S
C1535 C1534 1.348 . S
C1535 C1537 1.353 . S
C1535 H1576 0.929 . S
C1536 C1534 1.356 . S
C1536 C1538 1.358 . S
C1536 H1577 0.930 . S
C1537 C1535 1.353 . S
C1537 N1539 1.314 . S
C1537 H1578 0.930 . S
C1538 C1536 1.358 . S
C1538 N1539 1.279 . S
C1538 H1579 0.930 . S
N1539 C1537 1.314 . S
N1539 C1538 1.279 . S
C1540 C1542 1.353 . S
C1540 N1543 1.314 . S
C1540 H1546 0.930 . S
C1541 N1543 1.279 . S
C1541 C1544 1.358 . S
C1541 H1547 0.930 . S
C1542 C1540 1.353 . S
C1542 C1545 1.348 . S
C1542 H1580 0.929 . S
N1543 Li1498 1.990 . S
N1543 C1540 1.314 . S
N1543 C1541 1.279 . S
C1544 C1541 1.358 . S
C1544 C1545 1.356 . S
C1544 H1581 0.930 . S
C1545 C1542 1.348 . S
C1545 C1544 1.356 . S
H1546 C1540 0.930 . S
H1547 C1541 0.930 . S
C1548 N1549 1.314 . S
C1548 C1550 1.353 . S
C1548 H1554 0.930 . S
N1549 Li1499 1.990 . S
N1549 C1548 1.314 . S
N1549 C1552 1.279 . S
C1550 C1548 1.353 . S
C1550 C1553 1.348 . S
C1550 H1582 0.929 . S
C1551 C1552 1.358 . S
C1551 C1553 1.356 . S
C1551 H1583 0.930 . S
C1552 N1549 1.279 . S
C1552 C1551 1.358 . S
C1552 H1555 0.930 . S
C1553 C1550 1.348 . S
C1553 C1551 1.356 . S
H1554 C1548 0.930 . S
H1555 C1552 0.930 . S
O1556 Li1496 1.956 . S
O1556 Li1497 1.970 . S
O1556 Li1498 1.961 . S
O1556 C1500 1.325 . S
O1557 Li1496 1.970 . S
O1557 Li1497 1.956 . S
O1557 Li1499 1.961 . S
O1557 C1506 1.325 . S
O1558 Li1496 1.961 . S
O1558 Li1498 1.956 . S
O1558 Li1499 1.970 . S
O1558 C1528 1.325 . S
O1559 Li1497 1.961 . S
O1559 Li1498 1.970 . S
O1559 Li1499 1.956 . S
O1559 C1534 1.325 . S
H1560 C1502 0.929 . S
H1561 C1503 0.930 . S
H1562 C1504 0.930 . S
H1563 C1505 0.930 . S
H1564 C1507 0.930 . S
H1565 C1509 0.929 . S
H1566 C1510 0.930 . S
H1567 C1511 0.930 . S
H1568 C1514 0.930 . S
H1569 C1517 0.929 . S
H1570 C1522 0.929 . S
H1571 C1523 0.930 . S
H1572 C1530 0.929 . S
H1573 C1531 0.930 . S
H1574 C1532 0.930 . S
H1575 C1533 0.930 . S
H1576 C1535 0.929 . S
H1577 C1536 0.930 . S
H1578 C1537 0.930 . S
H1579 C1538 0.930 . S
H1580 C1542 0.929 . S
H1581 C1544 0.930 . S
H1582 C1550 0.929 . S
H1583 C1551 0.930 . S
Li1584 N1601 1.990 . S
Li1584 O1644 1.956 . S
Li1584 O1645 1.970 . S
Li1584 O1646 1.961 . S
Li1585 N1609 1.990 . S
Li1585 O1644 1.970 . S
Li1585 O1645 1.956 . S
Li1585 O1647 1.961 . S
Li1586 N1631 1.990 . S
Li1586 O1644 1.961 . S
Li1586 O1646 1.956 . S
Li1586 O1647 1.970 . S
Li1587 N1637 1.990 . S
Li1587 O1645 1.961 . S
Li1587 O1646 1.970 . S
Li1587 O1647 1.956 . S
C1588 C1590 1.348 . S
C1588 C1591 1.356 . S
C1588 O1644 1.325 . S
N1589 C1592 1.314 . S
N1589 C1593 1.279 . S
C1590 C1588 1.348 . S
C1590 C1592 1.353 . S
C1590 H1648 0.929 . S
C1591 C1588 1.356 . S
C1591 C1593 1.358 . S
C1591 H1649 0.930 . S
C1592 N1589 1.314 . S
C1592 C1590 1.353 . S
C1592 H1650 0.930 . S
C1593 N1589 1.279 . S
C1593 C1591 1.358 . S
C1593 H1651 0.930 . S
C1594 C1597 1.348 . S
C1594 C1598 1.356 . S
C1594 O1645 1.325 . S
C1595 N1596 1.279 . S
C1595 C1598 1.358 . S
C1595 H1652 0.930 . S
N1596 C1595 1.279 . S
N1596 C1599 1.314 . S
C1597 C1594 1.348 . S
C1597 C1599 1.353 . S
C1597 H1653 0.929 . S
C1598 C1594 1.356 . S
C1598 C1595 1.358 . S
C1598 H1654 0.930 . S
C1599 N1596 1.314 . S
C1599 C1597 1.353 . S
C1599 H1655 0.930 . S
C1600 N1601 1.314 . S
C1600 C1605 1.353 . S
C1600 H1606 0.930 . S
N1601 Li1584 1.990 . S
N1601 C1600 1.314 . S
N1601 C1603 1.279 . S
C1602 C1603 1.358 . S
C1602 C1604 1.356 . S
C1602 H1656 0.930 . S
C1603 N1601 1.279 . S
C1603 C1602 1.358 . S
C1603 H1607 0.930 . S
C1604 C1602 1.356 . S
C1604 C1605 1.348 . S
C1605 C1600 1.353 . S
C1605 C1604 1.348 . S
C1605 H1657 0.929 . S
H1606 C1600 0.930 . S
H1607 C1603 0.930 . S
C1608 N1609 1.314 . S
C1608 C1610 1.353 . S
C1608 H1614 0.930 . S
N1609 Li1585 1.990 . S
N1609 C1608 1.314 . S
N1609 C1612 1.279 . S
C1610 C1608 1.353 . S
C1610 C1613 1.348 . S
C1610 H1658 0.929 . S
C1611 C1612 1.358 . S
C1611 C1613 1.356 . S
C1611 H1659 0.930 . S
C1612 N1609 1.279 . S
C1612 C1611 1.358 . S
C1612 H1615 0.930 . S
C1613 C1610 1.348 . S
C1613 C1611 1.356 . S
H1614 C1608 0.930 . S
H1615 C1612 0.930 . S
C1616 C1618 1.348 . S
C1616 C1619 1.356 . S
C1616 O1646 1.325 . S
N1617 C1620 1.314 . S
N1617 C1621 1.279 . S
C1618 C1616 1.348 . S
C1618 C1620 1.353 . S
C1618 H1660 0.929 . S
C1619 C1616 1.356 . S
C1619 C1621 1.358 . S
C1619 H1661 0.930 . S
C1620 N1617 1.314 . S
C1620 C1618 1.353 . S
C1620 H1662 0.930 . S
C1621 N1617 1.279 . S
C1621 C1619 1.358 . S
C1621 H1663 0.930 . S
C1622 C1623 1.348 . S
C1622 C1624 1.356 . S
C1622 O1647 1.325 . S
C1623 C1622 1.348 . S
C1623 C1625 1.353 . S
C1623 H1664 0.929 . S
C1624 C1622 1.356 . S
C1624 C1626 1.358 . S
C1624 H1665 0.930 . S
C1625 C1623 1.353 . S
C1625 N1627 1.314 . S
C1625 H1666 0.930 . S
C1626 C1624 1.358 . S
C1626 N1627 1.279 . S
C1626 H1667 0.930 . S
N1627 C1625 1.314 . S
N1627 C1626 1.279 . S
C1628 C1630 1.353 . S
C1628 N1631 1.314 . S
C1628 H1634 0.930 . S
C1629 N1631 1.279 . S
C1629 C1632 1.358 . S
C1629 H1635 0.930 . S
C1630 C1628 1.353 . S
C1630 C1633 1.348 . S
C1630 H1668 0.929 . S
N1631 Li1586 1.990 . S
N1631 C1628 1.314 . S
N1631 C1629 1.279 . S
C1632 C1629 1.358 . S
C1632 C1633 1.356 . S
C1632 H1669 0.930 . S
C1633 C1630 1.348 . S
C1633 C1632 1.356 . S
H1634 C1628 0.930 . S
H1635 C1629 0.930 . S
C1636 N1637 1.314 . S
C1636 C1638 1.353 . S
C1636 H1642 0.930 . S
N1637 Li1587 1.990 . S
N1637 C1636 1.314 . S
N1637 C1640 1.279 . S
C1638 C1636 1.353 . S
C1638 C1641 1.348 . S
C1638 H1670 0.929 . S
C1639 C1640 1.358 . S
C1639 C1641 1.356 . S
C1639 H1671 0.930 . S
C1640 N1637 1.279 . S
C1640 C1639 1.358 . S
C1640 H1643 0.930 . S
C1641 C1638 1.348 . S
C1641 C1639 1.356 . S
H1642 C1636 0.930 . S
H1643 C1640 0.930 . S
O1644 Li1584 1.956 . S
O1644 Li1585 1.970 . S
O1644 Li1586 1.961 . S
O1644 C1588 1.325 . S
O1645 Li1584 1.970 . S
O1645 Li1585 1.956 . S
O1645 Li1587 1.961 . S
O1645 C1594 1.325 . S
O1646 Li1584 1.961 . S
O1646 Li1586 1.956 . S
O1646 Li1587 1.970 . S
O1646 C1616 1.325 . S
O1647 Li1585 1.961 . S
O1647 Li1586 1.970 . S
O1647 Li1587 1.956 . S
O1647 C1622 1.325 . S
H1648 C1590 0.929 . S
H1649 C1591 0.930 . S
H1650 C1592 0.930 . S
H1651 C1593 0.930 . S
H1652 C1595 0.930 . S
H1653 C1597 0.929 . S
H1654 C1598 0.930 . S
H1655 C1599 0.930 . S
H1656 C1602 0.930 . S
H1657 C1605 0.929 . S
H1658 C1610 0.929 . S
H1659 C1611 0.930 . S
H1660 C1618 0.929 . S
H1661 C1619 0.930 . S
H1662 C1620 0.930 . S
H1663 C1621 0.930 . S
H1664 C1623 0.929 . S
H1665 C1624 0.930 . S
H1666 C1625 0.930 . S
H1667 C1626 0.930 . S
H1668 C1630 0.929 . S
H1669 C1632 0.930 . S
H1670 C1638 0.929 . S
H1671 C1639 0.930 . S
Li1672 N1689 1.990 . S
Li1672 O1732 1.956 1_545 S
Li1672 O1733 1.970 . S
Li1672 O1734 1.961 . S
Li1673 N1697 1.990 . S
Li1673 O1732 1.970 . S
Li1673 O1733 1.956 1_565 S
Li1673 O1735 1.961 . S
Li1674 N1719 1.990 . S
Li1674 O1732 1.961 . S
Li1674 O1734 1.956 1_565 S
Li1674 O1735 1.970 . S
Li1675 N1725 1.990 . S
Li1675 O1733 1.961 . S
Li1675 O1734 1.970 . S
Li1675 O1735 1.956 1_545 S
C1676 C1678 1.348 . S
C1676 C1679 1.356 . S
C1676 O1732 1.325 . S
N1677 C1680 1.314 . S
N1677 C1681 1.279 . S
C1678 C1676 1.348 . S
C1678 C1680 1.353 . S
C1678 H1736 0.929 . S
C1679 C1676 1.356 . S
C1679 C1681 1.358 . S
C1679 H1737 0.930 . S
C1680 N1677 1.314 . S
C1680 C1678 1.353 . S
C1680 H1738 0.930 . S
C1681 N1677 1.279 . S
C1681 C1679 1.358 . S
C1681 H1739 0.930 . S
C1682 C1685 1.348 . S
C1682 C1686 1.356 . S
C1682 O1733 1.325 . S
C1683 N1684 1.279 . S
C1683 C1686 1.358 . S
C1683 H1740 0.930 . S
N1684 C1683 1.279 . S
N1684 C1687 1.314 . S
C1685 C1682 1.348 . S
C1685 C1687 1.353 . S
C1685 H1741 0.929 . S
C1686 C1682 1.356 . S
C1686 C1683 1.358 . S
C1686 H1742 0.930 . S
C1687 N1684 1.314 . S
C1687 C1685 1.353 . S
C1687 H1743 0.930 . S
C1688 N1689 1.314 . S
C1688 C1693 1.353 . S
C1688 H1694 0.930 . S
N1689 Li1672 1.990 . S
N1689 C1688 1.314 . S
N1689 C1691 1.279 . S
C1690 C1691 1.358 . S
C1690 C1692 1.356 . S
C1690 H1744 0.930 . S
C1691 N1689 1.279 . S
C1691 C1690 1.358 . S
C1691 H1695 0.930 1_545 S
C1692 C1690 1.356 . S
C1692 C1693 1.348 . S
C1693 C1688 1.353 . S
C1693 C1692 1.348 . S
C1693 H1745 0.929 . S
H1694 C1688 0.930 . S
H1695 C1691 0.930 1_565 S
C1696 N1697 1.314 . S
C1696 C1698 1.353 . S
C1696 H1702 0.930 . S
N1697 Li1673 1.990 . S
N1697 C1696 1.314 . S
N1697 C1700 1.279 . S
C1698 C1696 1.353 . S
C1698 C1701 1.348 . S
C1698 H1746 0.929 . S
C1699 C1700 1.358 . S
C1699 C1701 1.356 . S
C1699 H1747 0.930 . S
C1700 N1697 1.279 . S
C1700 C1699 1.358 . S
C1700 H1703 0.930 . S
C1701 C1698 1.348 . S
C1701 C1699 1.356 . S
H1702 C1696 0.930 . S
H1703 C1700 0.930 . S
C1704 C1706 1.348 . S
C1704 C1707 1.356 . S
C1704 O1734 1.325 . S
N1705 C1708 1.314 . S
N1705 C1709 1.279 . S
C1706 C1704 1.348 . S
C1706 C1708 1.353 . S
C1706 H1748 0.929 . S
C1707 C1704 1.356 . S
C1707 C1709 1.358 . S
C1707 H1749 0.930 . S
C1708 N1705 1.314 . S
C1708 C1706 1.353 . S
C1708 H1750 0.930 . S
C1709 N1705 1.279 . S
C1709 C1707 1.358 . S
C1709 H1751 0.930 . S
C1710 C1711 1.348 . S
C1710 C1712 1.356 . S
C1710 O1735 1.325 . S
C1711 C1710 1.348 . S
C1711 C1713 1.353 . S
C1711 H1752 0.929 . S
C1712 C1710 1.356 . S
C1712 C1714 1.358 . S
C1712 H1753 0.930 . S
C1713 C1711 1.353 . S
C1713 N1715 1.314 . S
C1713 H1754 0.930 . S
C1714 C1712 1.358 . S
C1714 N1715 1.279 . S
C1714 H1755 0.930 . S
N1715 C1713 1.314 . S
N1715 C1714 1.279 . S
C1716 C1718 1.353 . S
C1716 N1719 1.314 . S
C1716 H1722 0.930 . S
C1717 N1719 1.279 . S
C1717 C1720 1.358 . S
C1717 H1723 0.930 1_565 S
C1718 C1716 1.353 . S
C1718 C1721 1.348 . S
C1718 H1756 0.929 . S
N1719 Li1674 1.990 . S
N1719 C1716 1.314 . S
N1719 C1717 1.279 . S
C1720 C1717 1.358 . S
C1720 C1721 1.356 . S
C1720 H1757 0.930 . S
C1721 C1718 1.348 . S
C1721 C1720 1.356 . S
H1722 C1716 0.930 . S
H1723 C1717 0.930 1_545 S
C1724 N1725 1.314 . S
C1724 C1726 1.353 . S
C1724 H1730 0.930 . S
N1725 Li1675 1.990 . S
N1725 C1724 1.314 . S
N1725 C1728 1.279 . S
C1726 C1724 1.353 . S
C1726 C1729 1.348 . S
C1726 H1758 0.929 . S
C1727 C1728 1.358 . S
C1727 C1729 1.356 . S
C1727 H1759 0.930 . S
C1728 N1725 1.279 . S
C1728 C1727 1.358 . S
C1728 H1731 0.930 . S
C1729 C1726 1.348 . S
C1729 C1727 1.356 . S
H1730 C1724 0.930 . S
H1731 C1728 0.930 . S
O1732 Li1672 1.956 1_565 S
O1732 Li1673 1.970 . S
O1732 Li1674 1.961 . S
O1732 C1676 1.325 . S
O1733 Li1672 1.970 . S
O1733 Li1673 1.956 1_545 S
O1733 Li1675 1.961 . S
O1733 C1682 1.325 . S
O1734 Li1672 1.961 . S
O1734 Li1674 1.956 1_545 S
O1734 Li1675 1.970 . S
O1734 C1704 1.325 . S
O1735 Li1673 1.961 . S
O1735 Li1674 1.970 . S
O1735 Li1675 1.956 1_565 S
O1735 C1710 1.325 . S
H1736 C1678 0.929 . S
H1737 C1679 0.930 . S
H1738 C1680 0.930 . S
H1739 C1681 0.930 . S
H1740 C1683 0.930 . S
H1741 C1685 0.929 . S
H1742 C1686 0.930 . S
H1743 C1687 0.930 . S
H1744 C1690 0.930 . S
H1745 C1693 0.929 . S
H1746 C1698 0.929 . S
H1747 C1699 0.930 . S
H1748 C1706 0.929 . S
H1749 C1707 0.930 . S
H1750 C1708 0.930 . S
H1751 C1709 0.930 . S
H1752 C1711 0.929 . S
H1753 C1712 0.930 . S
H1754 C1713 0.930 . S
H1755 C1714 0.930 . S
H1756 C1718 0.929 . S
H1757 C1720 0.930 . S
H1758 C1726 0.929 . S
H1759 C1727 0.930 . S
Li1760 N1777 1.990 . S
Li1760 O1820 1.956 1_556 S
Li1760 O1821 1.970 . S
Li1760 O1822 1.961 . S
Li1761 N1785 1.990 . S
Li1761 O1820 1.970 . S
Li1761 O1821 1.956 1_554 S
Li1761 O1823 1.961 . S
Li1762 N1807 1.990 . S
Li1762 O1820 1.961 . S
Li1762 O1822 1.956 1_554 S
Li1762 O1823 1.970 . S
Li1763 N1813 1.990 . S
Li1763 O1821 1.961 . S
Li1763 O1822 1.970 . S
Li1763 O1823 1.956 1_556 S
C1764 C1766 1.348 . S
C1764 C1767 1.356 . S
C1764 O1820 1.325 . S
N1765 C1768 1.314 . S
N1765 C1769 1.279 . S
C1766 C1764 1.348 . S
C1766 C1768 1.353 . S
C1766 H1824 0.929 . S
C1767 C1764 1.356 . S
C1767 C1769 1.358 . S
C1767 H1825 0.930 . S
C1768 N1765 1.314 . S
C1768 C1766 1.353 . S
C1768 H1826 0.930 . S
C1769 N1765 1.279 . S
C1769 C1767 1.358 . S
C1769 H1827 0.930 . S
C1770 C1773 1.348 . S
C1770 C1774 1.356 . S
C1770 O1821 1.325 . S
C1771 N1772 1.279 . S
C1771 C1774 1.358 . S
C1771 H1828 0.930 . S
N1772 C1771 1.279 . S
N1772 C1775 1.314 . S
C1773 C1770 1.348 . S
C1773 C1775 1.353 . S
C1773 H1829 0.929 . S
C1774 C1770 1.356 . S
C1774 C1771 1.358 . S
C1774 H1830 0.930 . S
C1775 N1772 1.314 . S
C1775 C1773 1.353 . S
C1775 H1831 0.930 . S
C1776 N1777 1.314 . S
C1776 C1781 1.353 . S
C1776 H1782 0.930 . S
N1777 Li1760 1.990 . S
N1777 C1776 1.314 . S
N1777 C1779 1.279 . S
C1778 C1779 1.358 . S
C1778 C1780 1.356 . S
C1778 H1832 0.930 . S
C1779 N1777 1.279 . S
C1779 C1778 1.358 . S
C1779 H1783 0.930 . S
C1780 C1778 1.356 . S
C1780 C1781 1.348 . S
C1781 C1776 1.353 . S
C1781 C1780 1.348 . S
C1781 H1833 0.929 . S
H1782 C1776 0.930 . S
H1783 C1779 0.930 . S
C1784 N1785 1.314 . S
C1784 C1786 1.353 . S
C1784 H1790 0.930 . S
N1785 Li1761 1.990 . S
N1785 C1784 1.314 . S
N1785 C1788 1.279 . S
C1786 C1784 1.353 . S
C1786 C1789 1.348 . S
C1786 H1834 0.929 . S
C1787 C1788 1.358 . S
C1787 C1789 1.356 . S
C1787 H1835 0.930 . S
C1788 N1785 1.279 . S
C1788 C1787 1.358 . S
C1788 H1791 0.930 1_554 S
C1789 C1786 1.348 . S
C1789 C1787 1.356 . S
H1790 C1784 0.930 . S
H1791 C1788 0.930 1_556 S
C1792 C1794 1.348 . S
C1792 C1795 1.356 . S
C1792 O1822 1.325 . S
N1793 C1796 1.314 . S
N1793 C1797 1.279 . S
C1794 C1792 1.348 . S
C1794 C1796 1.353 . S
C1794 H1836 0.929 . S
C1795 C1792 1.356 . S
C1795 C1797 1.358 . S
C1795 H1837 0.930 . S
C1796 N1793 1.314 . S
C1796 C1794 1.353 . S
C1796 H1838 0.930 . S
C1797 N1793 1.279 . S
C1797 C1795 1.358 . S
C1797 H1839 0.930 . S
C1798 C1799 1.348 . S
C1798 C1800 1.356 . S
C1798 O1823 1.325 . S
C1799 C1798 1.348 . S
C1799 C1801 1.353 . S
C1799 H1840 0.929 . S
C1800 C1798 1.356 . S
C1800 C1802 1.358 . S
C1800 H1841 0.930 . S
C1801 C1799 1.353 . S
C1801 N1803 1.314 . S
C1801 H1842 0.930 . S
C1802 C1800 1.358 . S
C1802 N1803 1.279 . S
C1802 H1843 0.930 . S
N1803 C1801 1.314 . S
N1803 C1802 1.279 . S
C1804 C1806 1.353 . S
C1804 N1807 1.314 . S
C1804 H1810 0.930 . S
C1805 N1807 1.279 . S
C1805 C1808 1.358 . S
C1805 H1811 0.930 . S
C1806 C1804 1.353 . S
C1806 C1809 1.348 . S
C1806 H1844 0.929 . S
N1807 Li1762 1.990 . S
N1807 C1804 1.314 . S
N1807 C1805 1.279 . S
C1808 C1805 1.358 . S
C1808 C1809 1.356 . S
C1808 H1845 0.930 . S
C1809 C1806 1.348 . S
C1809 C1808 1.356 . S
H1810 C1804 0.930 . S
H1811 C1805 0.930 . S
C1812 N1813 1.314 . S
C1812 C1814 1.353 . S
C1812 H1818 0.930 . S
N1813 Li1763 1.990 . S
N1813 C1812 1.314 . S
N1813 C1816 1.279 . S
C1814 C1812 1.353 . S
C1814 C1817 1.348 . S
C1814 H1846 0.929 . S
C1815 C1816 1.358 . S
C1815 C1817 1.356 . S
C1815 H1847 0.930 . S
C1816 N1813 1.279 . S
C1816 C1815 1.358 . S
C1816 H1819 0.930 1_556 S
C1817 C1814 1.348 . S
C1817 C1815 1.356 . S
H1818 C1812 0.930 . S
H1819 C1816 0.930 1_554 S
O1820 Li1760 1.956 1_554 S
O1820 Li1761 1.970 . S
O1820 Li1762 1.961 . S
O1820 C1764 1.325 . S
O1821 Li1760 1.970 . S
O1821 Li1761 1.956 1_556 S
O1821 Li1763 1.961 . S
O1821 C1770 1.325 . S
O1822 Li1760 1.961 . S
O1822 Li1762 1.956 1_556 S
O1822 Li1763 1.970 . S
O1822 C1792 1.325 . S
O1823 Li1761 1.961 . S
O1823 Li1762 1.970 . S
O1823 Li1763 1.956 1_554 S
O1823 C1798 1.325 . S
H1824 C1766 0.929 . S
H1825 C1767 0.930 . S
H1826 C1768 0.930 . S
H1827 C1769 0.930 . S
H1828 C1771 0.930 . S
H1829 C1773 0.929 . S
H1830 C1774 0.930 . S
H1831 C1775 0.930 . S
H1832 C1778 0.930 . S
H1833 C1781 0.929 . S
H1834 C1786 0.929 . S
H1835 C1787 0.930 . S
H1836 C1794 0.929 . S
H1837 C1795 0.930 . S
H1838 C1796 0.930 . S
H1839 C1797 0.930 . S
H1840 C1799 0.929 . S
H1841 C1800 0.930 . S
H1842 C1801 0.930 . S
H1843 C1802 0.930 . S
H1844 C1806 0.929 . S
H1845 C1808 0.930 . S
H1846 C1814 0.929 . S
H1847 C1815 0.930 . S
Li1848 N1865 1.990 . S
Li1848 O1908 1.956 . S
Li1848 O1909 1.970 . S
Li1848 O1910 1.961 . S
Li1849 N1873 1.990 . S
Li1849 O1908 1.970 . S
Li1849 O1909 1.956 . S
Li1849 O1911 1.961 . S
Li1850 N1895 1.990 . S
Li1850 O1908 1.961 . S
Li1850 O1910 1.956 . S
Li1850 O1911 1.970 . S
Li1851 N1901 1.990 . S
Li1851 O1909 1.961 . S
Li1851 O1910 1.970 . S
Li1851 O1911 1.956 . S
C1852 C1854 1.348 . S
C1852 C1855 1.356 . S
C1852 O1908 1.325 . S
N1853 C1856 1.314 . S
N1853 C1857 1.279 . S
C1854 C1852 1.348 . S
C1854 C1856 1.353 . S
C1854 H1912 0.929 . S
C1855 C1852 1.356 . S
C1855 C1857 1.358 . S
C1855 H1913 0.930 . S
C1856 N1853 1.314 . S
C1856 C1854 1.353 . S
C1856 H1914 0.930 . S
C1857 N1853 1.279 . S
C1857 C1855 1.358 . S
C1857 H1915 0.930 . S
C1858 C1861 1.348 . S
C1858 C1862 1.356 . S
C1858 O1909 1.325 . S
C1859 N1860 1.279 . S
C1859 C1862 1.358 . S
C1859 H1916 0.930 . S
N1860 C1859 1.279 . S
N1860 C1863 1.314 . S
C1861 C1858 1.348 . S
C1861 C1863 1.353 . S
C1861 H1917 0.929 . S
C1862 C1858 1.356 . S
C1862 C1859 1.358 . S
C1862 H1918 0.930 . S
C1863 N1860 1.314 . S
C1863 C1861 1.353 . S
C1863 H1919 0.930 . S
C1864 N1865 1.314 . S
C1864 C1869 1.353 . S
C1864 H1870 0.930 . S
N1865 Li1848 1.990 . S
N1865 C1864 1.314 . S
N1865 C1867 1.279 . S
C1866 C1867 1.358 . S
C1866 C1868 1.356 . S
C1866 H1920 0.930 . S
C1867 N1865 1.279 . S
C1867 C1866 1.358 . S
C1867 H1871 0.930 . S
C1868 C1866 1.356 . S
C1868 C1869 1.348 . S
C1869 C1864 1.353 . S
C1869 C1868 1.348 . S
C1869 H1921 0.929 . S
H1870 C1864 0.930 . S
H1871 C1867 0.930 . S
C1872 N1873 1.314 . S
C1872 C1874 1.353 . S
C1872 H1878 0.930 . S
N1873 Li1849 1.990 . S
N1873 C1872 1.314 . S
N1873 C1876 1.279 . S
C1874 C1872 1.353 . S
C1874 C1877 1.348 . S
C1874 H1922 0.929 . S
C1875 C1876 1.358 . S
C1875 C1877 1.356 . S
C1875 H1923 0.930 . S
C1876 N1873 1.279 . S
C1876 C1875 1.358 . S
C1876 H1879 0.930 . S
C1877 C1874 1.348 . S
C1877 C1875 1.356 . S
H1878 C1872 0.930 . S
H1879 C1876 0.930 . S
C1880 C1882 1.348 . S
C1880 C1883 1.356 . S
C1880 O1910 1.325 . S
N1881 C1884 1.314 . S
N1881 C1885 1.279 . S
C1882 C1880 1.348 . S
C1882 C1884 1.353 . S
C1882 H1924 0.929 . S
C1883 C1880 1.356 . S
C1883 C1885 1.358 . S
C1883 H1925 0.930 . S
C1884 N1881 1.314 . S
C1884 C1882 1.353 . S
C1884 H1926 0.930 . S
C1885 N1881 1.279 . S
C1885 C1883 1.358 . S
C1885 H1927 0.930 . S
C1886 C1887 1.348 . S
C1886 C1888 1.356 . S
C1886 O1911 1.325 . S
C1887 C1886 1.348 . S
C1887 C1889 1.353 . S
C1887 H1928 0.929 . S
C1888 C1886 1.356 . S
C1888 C1890 1.358 . S
C1888 H1929 0.930 . S
C1889 C1887 1.353 . S
C1889 N1891 1.314 . S
C1889 H1930 0.930 . S
C1890 C1888 1.358 . S
C1890 N1891 1.279 . S
C1890 H1931 0.930 . S
N1891 C1889 1.314 . S
N1891 C1890 1.279 . S
C1892 C1894 1.353 . S
C1892 N1895 1.314 . S
C1892 H1898 0.930 . S
C1893 N1895 1.279 . S
C1893 C1896 1.358 . S
C1893 H1899 0.930 . S
C1894 C1892 1.353 . S
C1894 C1897 1.348 . S
C1894 H1932 0.929 . S
N1895 Li1850 1.990 . S
N1895 C1892 1.314 . S
N1895 C1893 1.279 . S
C1896 C1893 1.358 . S
C1896 C1897 1.356 . S
C1896 H1933 0.930 . S
C1897 C1894 1.348 . S
C1897 C1896 1.356 . S
H1898 C1892 0.930 . S
H1899 C1893 0.930 . S
C1900 N1901 1.314 . S
C1900 C1902 1.353 . S
C1900 H1906 0.930 . S
N1901 Li1851 1.990 . S
N1901 C1900 1.314 . S
N1901 C1904 1.279 . S
C1902 C1900 1.353 . S
C1902 C1905 1.348 . S
C1902 H1934 0.929 . S
C1903 C1904 1.358 . S
C1903 C1905 1.356 . S
C1903 H1935 0.930 . S
C1904 N1901 1.279 . S
C1904 C1903 1.358 . S
C1904 H1907 0.930 . S
C1905 C1902 1.348 . S
C1905 C1903 1.356 . S
H1906 C1900 0.930 . S
H1907 C1904 0.930 . S
O1908 Li1848 1.956 . S
O1908 Li1849 1.970 . S
O1908 Li1850 1.961 . S
O1908 C1852 1.325 . S
O1909 Li1848 1.970 . S
O1909 Li1849 1.956 . S
O1909 Li1851 1.961 . S
O1909 C1858 1.325 . S
O1910 Li1848 1.961 . S
O1910 Li1850 1.956 . S
O1910 Li1851 1.970 . S
O1910 C1880 1.325 . S
O1911 Li1849 1.961 . S
O1911 Li1850 1.970 . S
O1911 Li1851 1.956 . S
O1911 C1886 1.325 . S
H1912 C1854 0.929 . S
H1913 C1855 0.930 . S
H1914 C1856 0.930 . S
H1915 C1857 0.930 . S
H1916 C1859 0.930 . S
H1917 C1861 0.929 . S
H1918 C1862 0.930 . S
H1919 C1863 0.930 . S
H1920 C1866 0.930 . S
H1921 C1869 0.929 . S
H1922 C1874 0.929 . S
H1923 C1875 0.930 . S
H1924 C1882 0.929 . S
H1925 C1883 0.930 . S
H1926 C1884 0.930 . S
H1927 C1885 0.930 . S
H1928 C1887 0.929 . S
H1929 C1888 0.930 . S
H1930 C1889 0.930 . S
H1931 C1890 0.930 . S
H1932 C1894 0.929 . S
H1933 C1896 0.930 . S
H1934 C1902 0.929 . S
H1935 C1903 0.930 . S
Li1936 N1953 1.990 . S
Li1936 O1996 1.956 . S
Li1936 O1997 1.970 . S
Li1936 O1998 1.961 . S
Li1937 N1961 1.990 . S
Li1937 O1996 1.970 . S
Li1937 O1997 1.956 . S
Li1937 O1999 1.961 . S
Li1938 N1983 1.990 . S
Li1938 O1996 1.961 . S
Li1938 O1998 1.956 . S
Li1938 O1999 1.970 . S
Li1939 N1989 1.990 . S
Li1939 O1997 1.961 . S
Li1939 O1998 1.970 . S
Li1939 O1999 1.956 . S
C1940 C1942 1.348 . S
C1940 C1943 1.356 . S
C1940 O1996 1.325 . S
N1941 C1944 1.314 . S
N1941 C1945 1.279 . S
C1942 C1940 1.348 . S
C1942 C1944 1.353 . S
C1942 H2000 0.929 . S
C1943 C1940 1.356 . S
C1943 C1945 1.358 . S
C1943 H2001 0.930 . S
C1944 N1941 1.314 . S
C1944 C1942 1.353 . S
C1944 H2002 0.930 . S
C1945 N1941 1.279 . S
C1945 C1943 1.358 . S
C1945 H2003 0.930 . S
C1946 C1949 1.348 . S
C1946 C1950 1.356 . S
C1946 O1997 1.325 . S
C1947 N1948 1.279 . S
C1947 C1950 1.358 . S
C1947 H2004 0.930 . S
N1948 C1947 1.279 . S
N1948 C1951 1.314 . S
C1949 C1946 1.348 . S
C1949 C1951 1.353 . S
C1949 H2005 0.929 . S
C1950 C1946 1.356 . S
C1950 C1947 1.358 . S
C1950 H2006 0.930 . S
C1951 N1948 1.314 . S
C1951 C1949 1.353 . S
C1951 H2007 0.930 . S
C1952 N1953 1.314 . S
C1952 C1957 1.353 . S
C1952 H1958 0.930 . S
N1953 Li1936 1.990 . S
N1953 C1952 1.314 . S
N1953 C1955 1.279 . S
C1954 C1955 1.358 . S
C1954 C1956 1.356 . S
C1954 H2008 0.930 . S
C1955 N1953 1.279 . S
C1955 C1954 1.358 . S
C1955 H1959 0.930 . S
C1956 C1954 1.356 . S
C1956 C1957 1.348 . S
C1957 C1952 1.353 . S
C1957 C1956 1.348 . S
C1957 H2009 0.929 . S
H1958 C1952 0.930 . S
H1959 C1955 0.930 . S
C1960 N1961 1.314 . S
C1960 C1962 1.353 . S
C1960 H1966 0.930 . S
N1961 Li1937 1.990 . S
N1961 C1960 1.314 . S
N1961 C1964 1.279 . S
C1962 C1960 1.353 . S
C1962 C1965 1.348 . S
C1962 H2010 0.929 . S
C1963 C1964 1.358 . S
C1963 C1965 1.356 . S
C1963 H2011 0.930 . S
C1964 N1961 1.279 . S
C1964 C1963 1.358 . S
C1964 H1967 0.930 . S
C1965 C1962 1.348 . S
C1965 C1963 1.356 . S
H1966 C1960 0.930 . S
H1967 C1964 0.930 . S
C1968 C1970 1.348 . S
C1968 C1971 1.356 . S
C1968 O1998 1.325 . S
N1969 C1972 1.314 . S
N1969 C1973 1.279 . S
C1970 C1968 1.348 . S
C1970 C1972 1.353 . S
C1970 H2012 0.929 . S
C1971 C1968 1.356 . S
C1971 C1973 1.358 . S
C1971 H2013 0.930 . S
C1972 N1969 1.314 . S
C1972 C1970 1.353 . S
C1972 H2014 0.930 . S
C1973 N1969 1.279 . S
C1973 C1971 1.358 . S
C1973 H2015 0.930 . S
C1974 C1975 1.348 . S
C1974 C1976 1.356 . S
C1974 O1999 1.325 . S
C1975 C1974 1.348 . S
C1975 C1977 1.353 . S
C1975 H2016 0.929 . S
C1976 C1974 1.356 . S
C1976 C1978 1.358 . S
C1976 H2017 0.930 . S
C1977 C1975 1.353 . S
C1977 N1979 1.314 . S
C1977 H2018 0.930 . S
C1978 C1976 1.358 . S
C1978 N1979 1.279 . S
C1978 H2019 0.930 . S
N1979 C1977 1.314 . S
N1979 C1978 1.279 . S
C1980 C1982 1.353 . S
C1980 N1983 1.314 . S
C1980 H1986 0.930 . S
C1981 N1983 1.279 . S
C1981 C1984 1.358 . S
C1981 H1987 0.930 . S
C1982 C1980 1.353 . S
C1982 C1985 1.348 . S
C1982 H2020 0.929 . S
N1983 Li1938 1.990 . S
N1983 C1980 1.314 . S
N1983 C1981 1.279 . S
C1984 C1981 1.358 . S
C1984 C1985 1.356 . S
C1984 H2021 0.930 . S
C1985 C1982 1.348 . S
C1985 C1984 1.356 . S
H1986 C1980 0.930 . S
H1987 C1981 0.930 . S
C1988 N1989 1.314 . S
C1988 C1990 1.353 . S
C1988 H1994 0.930 . S
N1989 Li1939 1.990 . S
N1989 C1988 1.314 . S
N1989 C1992 1.279 . S
C1990 C1988 1.353 . S
C1990 C1993 1.348 . S
C1990 H2022 0.929 . S
C1991 C1992 1.358 . S
C1991 C1993 1.356 . S
C1991 H2023 0.930 . S
C1992 N1989 1.279 . S
C1992 C1991 1.358 . S
C1992 H1995 0.930 . S
C1993 C1990 1.348 . S
C1993 C1991 1.356 . S
H1994 C1988 0.930 . S
H1995 C1992 0.930 . S
O1996 Li1936 1.956 . S
O1996 Li1937 1.970 . S
O1996 Li1938 1.961 . S
O1996 C1940 1.325 . S
O1997 Li1936 1.970 . S
O1997 Li1937 1.956 . S
O1997 Li1939 1.961 . S
O1997 C1946 1.325 . S
O1998 Li1936 1.961 . S
O1998 Li1938 1.956 . S
O1998 Li1939 1.970 . S
O1998 C1968 1.325 . S
O1999 Li1937 1.961 . S
O1999 Li1938 1.970 . S
O1999 Li1939 1.956 . S
O1999 C1974 1.325 . S
H2000 C1942 0.929 . S
H2001 C1943 0.930 . S
H2002 C1944 0.930 . S
H2003 C1945 0.930 . S
H2004 C1947 0.930 . S
H2005 C1949 0.929 . S
H2006 C1950 0.930 . S
H2007 C1951 0.930 . S
H2008 C1954 0.930 . S
H2009 C1957 0.929 . S
H2010 C1962 0.929 . S
H2011 C1963 0.930 . S
H2012 C1970 0.929 . S
H2013 C1971 0.930 . S
H2014 C1972 0.930 . S
H2015 C1973 0.930 . S
H2016 C1975 0.929 . S
H2017 C1976 0.930 . S
H2018 C1977 0.930 . S
H2019 C1978 0.930 . S
H2020 C1982 0.929 . S
H2021 C1984 0.930 . S
H2022 C1990 0.929 . S
H2023 C1991 0.930 . S
Li2024 N2041 1.990 . S
Li2024 O2084 1.956 . S
Li2024 O2085 1.970 . S
Li2024 O2086 1.961 . S
Li2025 N2049 1.990 . S
Li2025 O2084 1.970 . S
Li2025 O2085 1.956 . S
Li2025 O2087 1.961 . S
Li2026 N2071 1.990 . S
Li2026 O2084 1.961 . S
Li2026 O2086 1.956 . S
Li2026 O2087 1.970 . S
Li2027 N2077 1.990 . S
Li2027 O2085 1.961 . S
Li2027 O2086 1.970 . S
Li2027 O2087 1.956 . S
C2028 C2030 1.348 . S
C2028 C2031 1.356 . S
C2028 O2084 1.325 . S
N2029 C2032 1.314 . S
N2029 C2033 1.279 . S
C2030 C2028 1.348 . S
C2030 C2032 1.353 . S
C2030 H2088 0.929 . S
C2031 C2028 1.356 . S
C2031 C2033 1.358 . S
C2031 H2089 0.930 . S
C2032 N2029 1.314 . S
C2032 C2030 1.353 . S
C2032 H2090 0.930 . S
C2033 N2029 1.279 . S
C2033 C2031 1.358 . S
C2033 H2091 0.930 . S
C2034 C2037 1.348 . S
C2034 C2038 1.356 . S
C2034 O2085 1.325 . S
C2035 N2036 1.279 . S
C2035 C2038 1.358 . S
C2035 H2092 0.930 . S
N2036 C2035 1.279 . S
N2036 C2039 1.314 . S
C2037 C2034 1.348 . S
C2037 C2039 1.353 . S
C2037 H2093 0.929 . S
C2038 C2034 1.356 . S
C2038 C2035 1.358 . S
C2038 H2094 0.930 . S
C2039 N2036 1.314 . S
C2039 C2037 1.353 . S
C2039 H2095 0.930 . S
C2040 N2041 1.314 . S
C2040 C2045 1.353 . S
C2040 H2046 0.930 . S
N2041 Li2024 1.990 . S
N2041 C2040 1.314 . S
N2041 C2043 1.279 . S
C2042 C2043 1.358 . S
C2042 C2044 1.356 . S
C2042 H2096 0.930 . S
C2043 N2041 1.279 . S
C2043 C2042 1.358 . S
C2043 H2047 0.930 . S
C2044 C2042 1.356 . S
C2044 C2045 1.348 . S
C2045 C2040 1.353 . S
C2045 C2044 1.348 . S
C2045 H2097 0.929 . S
H2046 C2040 0.930 . S
H2047 C2043 0.930 . S
C2048 N2049 1.314 . S
C2048 C2050 1.353 . S
C2048 H2054 0.930 . S
N2049 Li2025 1.990 . S
N2049 C2048 1.314 . S
N2049 C2052 1.279 . S
C2050 C2048 1.353 . S
C2050 C2053 1.348 . S
C2050 H2098 0.929 . S
C2051 C2052 1.358 . S
C2051 C2053 1.356 . S
C2051 H2099 0.930 . S
C2052 N2049 1.279 . S
C2052 C2051 1.358 . S
C2052 H2055 0.930 . S
C2053 C2050 1.348 . S
C2053 C2051 1.356 . S
H2054 C2048 0.930 . S
H2055 C2052 0.930 . S
C2056 C2058 1.348 . S
C2056 C2059 1.356 . S
C2056 O2086 1.325 . S
N2057 C2060 1.314 . S
N2057 C2061 1.279 . S
C2058 C2056 1.348 . S
C2058 C2060 1.353 . S
C2058 H2100 0.929 . S
C2059 C2056 1.356 . S
C2059 C2061 1.358 . S
C2059 H2101 0.930 . S
C2060 N2057 1.314 . S
C2060 C2058 1.353 . S
C2060 H2102 0.930 . S
C2061 N2057 1.279 . S
C2061 C2059 1.358 . S
C2061 H2103 0.930 . S
C2062 C2063 1.348 . S
C2062 C2064 1.356 . S
C2062 O2087 1.325 . S
C2063 C2062 1.348 . S
C2063 C2065 1.353 . S
C2063 H2104 0.929 . S
C2064 C2062 1.356 . S
C2064 C2066 1.358 . S
C2064 H2105 0.930 . S
C2065 C2063 1.353 . S
C2065 N2067 1.314 . S
C2065 H2106 0.930 . S
C2066 C2064 1.358 . S
C2066 N2067 1.279 . S
C2066 H2107 0.930 . S
N2067 C2065 1.314 . S
N2067 C2066 1.279 . S
C2068 C2070 1.353 . S
C2068 N2071 1.314 . S
C2068 H2074 0.930 . S
C2069 N2071 1.279 . S
C2069 C2072 1.358 . S
C2069 H2075 0.930 . S
C2070 C2068 1.353 . S
C2070 C2073 1.348 . S
C2070 H2108 0.929 . S
N2071 Li2026 1.990 . S
N2071 C2068 1.314 . S
N2071 C2069 1.279 . S
C2072 C2069 1.358 . S
C2072 C2073 1.356 . S
C2072 H2109 0.930 . S
C2073 C2070 1.348 . S
C2073 C2072 1.356 . S
H2074 C2068 0.930 . S
H2075 C2069 0.930 . S
C2076 N2077 1.314 . S
C2076 C2078 1.353 . S
C2076 H2082 0.930 . S
N2077 Li2027 1.990 . S
N2077 C2076 1.314 . S
N2077 C2080 1.279 . S
C2078 C2076 1.353 . S
C2078 C2081 1.348 . S
C2078 H2110 0.929 . S
C2079 C2080 1.358 . S
C2079 C2081 1.356 . S
C2079 H2111 0.930 . S
C2080 N2077 1.279 . S
C2080 C2079 1.358 . S
C2080 H2083 0.930 . S
C2081 C2078 1.348 . S
C2081 C2079 1.356 . S
H2082 C2076 0.930 . S
H2083 C2080 0.930 . S
O2084 Li2024 1.956 . S
O2084 Li2025 1.970 . S
O2084 Li2026 1.961 . S
O2084 C2028 1.325 . S
O2085 Li2024 1.970 . S
O2085 Li2025 1.956 . S
O2085 Li2027 1.961 . S
O2085 C2034 1.325 . S
O2086 Li2024 1.961 . S
O2086 Li2026 1.956 . S
O2086 Li2027 1.970 . S
O2086 C2056 1.325 . S
O2087 Li2025 1.961 . S
O2087 Li2026 1.970 . S
O2087 Li2027 1.956 . S
O2087 C2062 1.325 . S
H2088 C2030 0.929 . S
H2089 C2031 0.930 . S
H2090 C2032 0.930 . S
H2091 C2033 0.930 . S
H2092 C2035 0.930 . S
H2093 C2037 0.929 . S
H2094 C2038 0.930 . S
H2095 C2039 0.930 . S
H2096 C2042 0.930 . S
H2097 C2045 0.929 . S
H2098 C2050 0.929 . S
H2099 C2051 0.930 . S
H2100 C2058 0.929 . S
H2101 C2059 0.930 . S
H2102 C2060 0.930 . S
H2103 C2061 0.930 . S
H2104 C2063 0.929 . S
H2105 C2064 0.930 . S
H2106 C2065 0.930 . S
H2107 C2066 0.930 . S
H2108 C2070 0.929 . S
H2109 C2072 0.930 . S
H2110 C2078 0.929 . S
H2111 C2079 0.930 . S
C2112 C2113 1.387 . S
C2112 H2116 0.950 . S
C2112 C2121 1.390 . S
C2113 C2112 1.387 . S
C2113 C2115 1.387 . S
H2114 C2121 0.950 . S
C2115 C2113 1.387 . S
C2115 C2117 1.390 . S
C2115 H2119 0.950 . S
H2116 C2112 0.950 . S
C2117 C2115 1.390 . S
C2117 C2118 1.387 . S
C2117 H2120 0.950 . S
C2118 C2117 1.387 . S
C2118 C2121 1.387 . S
H2119 C2115 0.950 . S
H2120 C2117 0.950 . S
C2121 C2112 1.390 . S
C2121 H2114 0.950 . S
C2121 C2118 1.387 . S
C2122 C2123 1.387 . S
C2122 H2126 0.950 . S
C2122 C2131 1.390 . S
C2123 C2122 1.387 . S
C2123 C2125 1.387 . S
H2124 C2131 0.950 . S
C2125 C2123 1.387 . S
C2125 C2127 1.390 . S
C2125 H2129 0.950 . S
H2126 C2122 0.950 . S
C2127 C2125 1.390 . S
C2127 C2128 1.387 . S
C2127 H2130 0.950 . S
C2128 C2127 1.387 . S
C2128 C2131 1.387 . S
H2129 C2125 0.950 . S
H2130 C2127 0.950 . S
C2131 C2122 1.390 . S
C2131 H2124 0.950 . S
C2131 C2128 1.387 . S
C2132 C2133 1.387 . S
C2132 H2136 0.950 . S
C2132 C2141 1.390 . S
C2133 C2132 1.387 . S
C2133 C2135 1.387 . S
H2134 C2141 0.950 . S
C2135 C2133 1.387 . S
C2135 C2137 1.390 . S
C2135 H2139 0.950 . S
H2136 C2132 0.950 . S
C2137 C2135 1.390 . S
C2137 C2138 1.387 . S
C2137 H2140 0.950 . S
C2138 C2137 1.387 . S
C2138 C2141 1.387 . S
H2139 C2135 0.950 . S
H2140 C2137 0.950 . S
C2141 C2132 1.390 . S
C2141 H2134 0.950 . S
C2141 C2138 1.387 . S
C2142 C2143 1.387 . S
C2142 H2146 0.950 . S
C2142 C2151 1.390 . S
C2143 C2142 1.387 . S
C2143 C2145 1.387 . S
H2144 C2151 0.950 . S
C2145 C2143 1.387 . S
C2145 C2147 1.390 . S
C2145 H2149 0.950 . S
H2146 C2142 0.950 . S
C2147 C2145 1.390 . S
C2147 C2148 1.387 . S
C2147 H2150 0.950 . S
C2148 C2147 1.387 . S
C2148 C2151 1.387 . S
H2149 C2145 0.950 . S
H2150 C2147 0.950 . S
C2151 C2142 1.390 . S
C2151 H2144 0.950 . S
C2151 C2148 1.387 . S
C2152 C2153 1.387 . S
C2152 H2156 0.950 . S
C2152 C2161 1.390 . S
C2153 C2152 1.387 . S
C2153 C2155 1.387 . S
H2154 C2161 0.950 . S
C2155 C2153 1.387 . S
C2155 C2157 1.390 . S
C2155 H2159 0.950 . S
H2156 C2152 0.950 . S
C2157 C2155 1.390 . S
C2157 C2158 1.387 . S
C2157 H2160 0.950 . S
C2158 C2157 1.387 . S
C2158 C2161 1.387 . S
H2159 C2155 0.950 . S
H2160 C2157 0.950 . S
C2161 C2152 1.390 . S
C2161 H2154 0.950 . S
C2161 C2158 1.387 . S
C2162 C2163 1.387 . S
C2162 H2166 0.950 . S
C2162 C2171 1.390 . S
C2163 C2162 1.387 . S
C2163 C2165 1.387 . S
H2164 C2171 0.950 . S
C2165 C2163 1.387 . S
C2165 C2167 1.390 . S
C2165 H2169 0.950 . S
H2166 C2162 0.950 . S
C2167 C2165 1.390 . S
C2167 C2168 1.387 . S
C2167 H2170 0.950 . S
C2168 C2167 1.387 . S
C2168 C2171 1.387 . S
H2169 C2165 0.950 . S
H2170 C2167 0.950 . S
C2171 C2162 1.390 . S
C2171 H2164 0.950 . S
C2171 C2168 1.387 . S
C2172 C2173 1.387 . S
C2172 H2176 0.950 . S
C2172 C2181 1.390 . S
C2173 C2172 1.387 . S
C2173 C2175 1.387 . S
H2174 C2181 0.950 . S
C2175 C2173 1.387 . S
C2175 C2177 1.390 . S
C2175 H2179 0.950 . S
H2176 C2172 0.950 . S
C2177 C2175 1.390 . S
C2177 C2178 1.387 . S
C2177 H2180 0.950 . S
C2178 C2177 1.387 . S
C2178 C2181 1.387 . S
H2179 C2175 0.950 . S
H2180 C2177 0.950 . S
C2181 C2172 1.390 . S
C2181 H2174 0.950 . S
C2181 C2178 1.387 . S
C2182 C2183 1.387 . S
C2182 H2186 0.950 . S
C2182 C2191 1.390 . S
C2183 C2182 1.387 . S
C2183 C2185 1.387 . S
H2184 C2191 0.950 . S
C2185 C2183 1.387 . S
C2185 C2187 1.390 . S
C2185 H2189 0.950 . S
H2186 C2182 0.950 . S
C2187 C2185 1.390 . S
C2187 C2188 1.387 . S
C2187 H2190 0.950 . S
C2188 C2187 1.387 . S
C2188 C2191 1.387 . S
H2189 C2185 0.950 . S
H2190 C2187 0.950 . S
C2191 C2182 1.390 . S
C2191 H2184 0.950 . S
C2191 C2188 1.387 . S
C2192 C2193 1.387 . S
C2192 H2196 0.950 . S
C2192 C2201 1.390 . S
C2193 C2192 1.387 . S
C2193 C2195 1.387 . S
H2194 C2201 0.950 . S
C2195 C2193 1.387 . S
C2195 C2197 1.390 . S
C2195 H2199 0.950 . S
H2196 C2192 0.950 . S
C2197 C2195 1.390 . S
C2197 C2198 1.387 . S
C2197 H2200 0.950 . S
C2198 C2197 1.387 . S
C2198 C2201 1.387 . S
H2199 C2195 0.950 . S
H2200 C2197 0.950 . S
C2201 C2192 1.390 . S
C2201 H2194 0.950 . S
C2201 C2198 1.387 . S
C2202 C2203 1.387 . S
C2202 H2206 0.950 . S
C2202 C2211 1.390 . S
C2203 C2202 1.387 . S
C2203 C2205 1.387 . S
H2204 C2211 0.950 . S
C2205 C2203 1.387 . S
C2205 C2207 1.390 . S
C2205 H2209 0.950 . S
H2206 C2202 0.950 . S
C2207 C2205 1.390 . S
C2207 C2208 1.387 . S
C2207 H2210 0.950 . S
C2208 C2207 1.387 . S
C2208 C2211 1.387 . S
H2209 C2205 0.950 . S
H2210 C2207 0.950 . S
C2211 C2202 1.390 . S
C2211 H2204 0.950 . S
C2211 C2208 1.387 . S
C2212 C2213 1.387 . S
C2212 H2216 0.950 . S
C2212 C2221 1.390 . S
C2213 C2212 1.387 . S
C2213 C2215 1.387 . S
H2214 C2221 0.950 . S
C2215 C2213 1.387 . S
C2215 C2217 1.390 . S
C2215 H2219 0.950 . S
H2216 C2212 0.950 . S
C2217 C2215 1.390 . S
C2217 C2218 1.387 . S
C2217 H2220 0.950 . S
C2218 C2217 1.387 . S
C2218 C2221 1.387 . S
H2219 C2215 0.950 . S
H2220 C2217 0.950 . S
C2221 C2212 1.390 . S
C2221 H2214 0.950 . S
C2221 C2218 1.387 . S
C2222 C2223 1.387 . S
C2222 H2226 0.950 . S
C2222 C2231 1.390 . S
C2223 C2222 1.387 . S
C2223 C2225 1.387 . S
H2224 C2231 0.950 . S
C2225 C2223 1.387 . S
C2225 C2227 1.390 . S
C2225 H2229 0.950 . S
H2226 C2222 0.950 . S
C2227 C2225 1.390 . S
C2227 C2228 1.387 . S
C2227 H2230 0.950 . S
C2228 C2227 1.387 . S
C2228 C2231 1.387 . S
H2229 C2225 0.950 . S
H2230 C2227 0.950 . S
C2231 C2222 1.390 . S
C2231 H2224 0.950 . S
C2231 C2228 1.387 . S
C2232 C2233 1.387 . S
C2232 H2236 0.950 . S
C2232 C2241 1.390 . S
C2233 C2232 1.387 . S
C2233 C2235 1.387 . S
H2234 C2241 0.950 . S
C2235 C2233 1.387 . S
C2235 C2237 1.390 . S
C2235 H2239 0.950 . S
H2236 C2232 0.950 . S
C2237 C2235 1.390 . S
C2237 C2238 1.387 . S
C2237 H2240 0.950 . S
C2238 C2237 1.387 . S
C2238 C2241 1.387 . S
H2239 C2235 0.950 . S
H2240 C2237 0.950 . S
C2241 C2232 1.390 . S
C2241 H2234 0.950 . S
C2241 C2238 1.387 . S
C2242 C2243 1.387 . S
C2242 H2246 0.950 . S
C2242 C2251 1.390 . S
C2243 C2242 1.387 . S
C2243 C2245 1.387 . S
H2244 C2251 0.950 . S
C2245 C2243 1.387 . S
C2245 C2247 1.390 . S
C2245 H2249 0.950 . S
H2246 C2242 0.950 . S
C2247 C2245 1.390 . S
C2247 C2248 1.387 . S
C2247 H2250 0.950 . S
C2248 C2247 1.387 . S
C2248 C2251 1.387 . S
H2249 C2245 0.950 . S
H2250 C2247 0.950 . S
C2251 C2242 1.390 . S
C2251 H2244 0.950 . S
C2251 C2248 1.387 . S
C2252 C2253 1.387 . S
C2252 H2256 0.950 . S
C2252 C2261 1.390 . S
C2253 C2252 1.387 . S
C2253 C2255 1.387 . S
H2254 C2261 0.950 . S
C2255 C2253 1.387 . S
C2255 C2257 1.390 . S
C2255 H2259 0.950 . S
H2256 C2252 0.950 . S
C2257 C2255 1.390 . S
C2257 C2258 1.387 . S
C2257 H2260 0.950 . S
C2258 C2257 1.387 . S
C2258 C2261 1.387 . S
H2259 C2255 0.950 . S
H2260 C2257 0.950 . S
C2261 C2252 1.390 . S
C2261 H2254 0.950 . S
C2261 C2258 1.387 . S
C2262 C2263 1.387 . S
C2262 H2266 0.950 . S
C2262 C2271 1.390 . S
C2263 C2262 1.387 . S
C2263 C2265 1.387 . S
H2264 C2271 0.950 . S
C2265 C2263 1.387 . S
C2265 C2267 1.390 . S
C2265 H2269 0.950 . S
H2266 C2262 0.950 . S
C2267 C2265 1.390 . S
C2267 C2268 1.387 . S
C2267 H2270 0.950 . S
C2268 C2267 1.387 . S
C2268 C2271 1.387 . S
H2269 C2265 0.950 . S
H2270 C2267 0.950 . S
C2271 C2262 1.390 . S
C2271 H2264 0.950 . S
C2271 C2268 1.387 . S
C2272 C2273 1.387 . S
C2272 H2276 0.950 . S
C2272 C2281 1.390 . S
C2273 C2272 1.387 . S
C2273 C2275 1.387 . S
H2274 C2281 0.950 . S
C2275 C2273 1.387 . S
C2275 C2277 1.390 . S
C2275 H2279 0.950 . S
H2276 C2272 0.950 . S
C2277 C2275 1.390 . S
C2277 C2278 1.387 . S
C2277 H2280 0.950 . S
C2278 C2277 1.387 . S
C2278 C2281 1.387 . S
H2279 C2275 0.950 . S
H2280 C2277 0.950 . S
C2281 C2272 1.390 . S
C2281 H2274 0.950 . S
C2281 C2278 1.387 . S
C2282 C2283 1.387 . S
C2282 H2286 0.950 . S
C2282 C2291 1.390 . S
C2283 C2282 1.387 . S
C2283 C2285 1.387 . S
H2284 C2291 0.950 . S
C2285 C2283 1.387 . S
C2285 C2287 1.390 . S
C2285 H2289 0.950 . S
H2286 C2282 0.950 . S
C2287 C2285 1.390 . S
C2287 C2288 1.387 . S
C2287 H2290 0.950 . S
C2288 C2287 1.387 . S
C2288 C2291 1.387 . S
H2289 C2285 0.950 . S
H2290 C2287 0.950 . S
C2291 C2282 1.390 . S
C2291 H2284 0.950 . S
C2291 C2288 1.387 . S
C2292 C2293 1.387 . S
C2292 H2296 0.950 . S
C2292 C2301 1.390 . S
C2293 C2292 1.387 . S
C2293 C2295 1.387 . S
H2294 C2301 0.950 . S
C2295 C2293 1.387 . S
C2295 C2297 1.390 . S
C2295 H2299 0.950 . S
H2296 C2292 0.950 . S
C2297 C2295 1.390 . S
C2297 C2298 1.387 . S
C2297 H2300 0.950 . S
C2298 C2297 1.387 . S
C2298 C2301 1.387 . S
H2299 C2295 0.950 . S
H2300 C2297 0.950 . S
C2301 C2292 1.390 . S
C2301 H2294 0.950 . S
C2301 C2298 1.387 . S
C2302 C2303 1.387 . S
C2302 H2306 0.950 . S
C2302 C2311 1.390 . S
C2303 C2302 1.387 . S
C2303 C2305 1.387 . S
H2304 C2311 0.950 . S
C2305 C2303 1.387 . S
C2305 C2307 1.390 . S
C2305 H2309 0.950 . S
H2306 C2302 0.950 . S
C2307 C2305 1.390 . S
C2307 C2308 1.387 . S
C2307 H2310 0.950 . S
C2308 C2307 1.387 . S
C2308 C2311 1.387 . S
H2309 C2305 0.950 . S
H2310 C2307 0.950 . S
C2311 C2302 1.390 . S
C2311 H2304 0.950 . S
C2311 C2308 1.387 . S
C2312 C2313 1.387 . S
C2312 H2316 0.950 . S
C2312 C2321 1.390 . S
C2313 C2312 1.387 . S
C2313 C2315 1.387 . S
H2314 C2321 0.950 . S
C2315 C2313 1.387 . S
C2315 C2317 1.390 . S
C2315 H2319 0.950 . S
H2316 C2312 0.950 . S
C2317 C2315 1.390 . S
C2317 C2318 1.387 . S
C2317 H2320 0.950 . S
C2318 C2317 1.387 . S
C2318 C2321 1.387 . S
H2319 C2315 0.950 . S
H2320 C2317 0.950 . S
C2321 C2312 1.390 . S
C2321 H2314 0.950 . S
C2321 C2318 1.387 . S
C2322 C2323 1.387 . S
C2322 H2326 0.950 . S
C2322 C2331 1.390 . S
C2323 C2322 1.387 . S
C2323 C2325 1.387 . S
H2324 C2331 0.950 . S
C2325 C2323 1.387 . S
C2325 C2327 1.390 . S
C2325 H2329 0.950 . S
H2326 C2322 0.950 . S
C2327 C2325 1.390 . S
C2327 C2328 1.387 . S
C2327 H2330 0.950 . S
C2328 C2327 1.387 . S
C2328 C2331 1.387 . S
H2329 C2325 0.950 . S
H2330 C2327 0.950 . S
C2331 C2322 1.390 . S
C2331 H2324 0.950 . S
C2331 C2328 1.387 . S
C2332 C2333 1.387 . S
C2332 H2336 0.950 . S
C2332 C2341 1.390 . S
C2333 C2332 1.387 . S
C2333 C2335 1.387 . S
H2334 C2341 0.950 . S
C2335 C2333 1.387 . S
C2335 C2337 1.390 . S
C2335 H2339 0.950 . S
H2336 C2332 0.950 . S
C2337 C2335 1.390 . S
C2337 C2338 1.387 . S
C2337 H2340 0.950 . S
C2338 C2337 1.387 . S
C2338 C2341 1.387 . S
H2339 C2335 0.950 . S
H2340 C2337 0.950 . S
C2341 C2332 1.390 . S
C2341 H2334 0.950 . S
C2341 C2338 1.387 . S
C2342 C2343 1.387 . S
C2342 H2346 0.950 . S
C2342 C2351 1.390 . S
C2343 C2342 1.387 . S
C2343 C2345 1.387 . S
H2344 C2351 0.950 . S
C2345 C2343 1.387 . S
C2345 C2347 1.390 . S
C2345 H2349 0.950 . S
H2346 C2342 0.950 . S
C2347 C2345 1.390 . S
C2347 C2348 1.387 . S
C2347 H2350 0.950 . S
C2348 C2347 1.387 . S
C2348 C2351 1.387 . S
H2349 C2345 0.950 . S
H2350 C2347 0.950 . S
C2351 C2342 1.390 . S
C2351 H2344 0.950 . S
C2351 C2348 1.387 . S
C2352 C2353 1.387 . S
C2352 H2356 0.950 . S
C2352 C2361 1.390 . S
C2353 C2352 1.387 . S
C2353 C2355 1.387 . S
H2354 C2361 0.950 . S
C2355 C2353 1.387 . S
C2355 C2357 1.390 . S
C2355 H2359 0.950 . S
H2356 C2352 0.950 . S
C2357 C2355 1.390 . S
C2357 C2358 1.387 . S
C2357 H2360 0.950 . S
C2358 C2357 1.387 . S
C2358 C2361 1.387 . S
H2359 C2355 0.950 . S
H2360 C2357 0.950 . S
C2361 C2352 1.390 . S
C2361 H2354 0.950 . S
C2361 C2358 1.387 . S
C2362 C2363 1.387 . S
C2362 H2366 0.950 . S
C2362 C2371 1.390 . S
C2363 C2362 1.387 . S
C2363 C2365 1.387 . S
H2364 C2371 0.950 . S
C2365 C2363 1.387 . S
C2365 C2367 1.390 . S
C2365 H2369 0.950 . S
H2366 C2362 0.950 . S
C2367 C2365 1.390 . S
C2367 C2368 1.387 . S
C2367 H2370 0.950 . S
C2368 C2367 1.387 . S
C2368 C2371 1.387 . S
H2369 C2365 0.950 . S
H2370 C2367 0.950 . S
C2371 C2362 1.390 . S
C2371 H2364 0.950 . S
C2371 C2368 1.387 . S
C2372 C2373 1.387 . S
C2372 H2376 0.950 . S
C2372 C2381 1.390 . S
C2373 C2372 1.387 . S
C2373 C2375 1.387 . S
H2374 C2381 0.950 . S
C2375 C2373 1.387 . S
C2375 C2377 1.390 . S
C2375 H2379 0.950 . S
H2376 C2372 0.950 . S
C2377 C2375 1.390 . S
C2377 C2378 1.387 . S
C2377 H2380 0.950 . S
C2378 C2377 1.387 . S
C2378 C2381 1.387 . S
H2379 C2375 0.950 . S
H2380 C2377 0.950 . S
C2381 C2372 1.390 . S
C2381 H2374 0.950 . S
C2381 C2378 1.387 . S
C2382 C2383 1.387 . S
C2382 H2386 0.950 . S
C2382 C2391 1.390 . S
C2383 C2382 1.387 . S
C2383 C2385 1.387 . S
H2384 C2391 0.950 . S
C2385 C2383 1.387 . S
C2385 C2387 1.390 . S
C2385 H2389 0.950 . S
H2386 C2382 0.950 . S
C2387 C2385 1.390 . S
C2387 C2388 1.387 . S
C2387 H2390 0.950 . S
C2388 C2387 1.387 . S
C2388 C2391 1.387 . S
H2389 C2385 0.950 . S
H2390 C2387 0.950 . S
C2391 C2382 1.390 . S
C2391 H2384 0.950 . S
C2391 C2388 1.387 . S
C2392 C2393 1.387 . S
C2392 H2396 0.950 . S
C2392 C2401 1.390 . S
C2393 C2392 1.387 . S
C2393 C2395 1.387 . S
H2394 C2401 0.950 . S
C2395 C2393 1.387 . S
C2395 C2397 1.390 . S
C2395 H2399 0.950 . S
H2396 C2392 0.950 . S
C2397 C2395 1.390 . S
C2397 C2398 1.387 . S
C2397 H2400 0.950 . S
C2398 C2397 1.387 . S
C2398 C2401 1.387 . S
H2399 C2395 0.950 . S
H2400 C2397 0.950 . S
C2401 C2392 1.390 . S
C2401 H2394 0.950 . S
C2401 C2398 1.387 . S
C2402 C2403 1.387 . S
C2402 H2406 0.950 . S
C2402 C2411 1.390 . S
C2403 C2402 1.387 . S
C2403 C2405 1.387 . S
H2404 C2411 0.950 . S
C2405 C2403 1.387 . S
C2405 C2407 1.390 . S
C2405 H2409 0.950 . S
H2406 C2402 0.950 . S
C2407 C2405 1.390 . S
C2407 C2408 1.387 . S
C2407 H2410 0.950 . S
C2408 C2407 1.387 . S
C2408 C2411 1.387 . S
H2409 C2405 0.950 . S
H2410 C2407 0.950 . S
C2411 C2402 1.390 . S
C2411 H2404 0.950 . S
C2411 C2408 1.387 . S
C2412 C2413 1.387 . S
C2412 H2416 0.950 . S
C2412 C2421 1.390 . S
C2413 C2412 1.387 . S
C2413 C2415 1.387 . S
H2414 C2421 0.950 . S
C2415 C2413 1.387 . S
C2415 C2417 1.390 . S
C2415 H2419 0.950 . S
H2416 C2412 0.950 . S
C2417 C2415 1.390 . S
C2417 C2418 1.387 . S
C2417 H2420 0.950 . S
C2418 C2417 1.387 . S
C2418 C2421 1.387 . S
H2419 C2415 0.950 . S
H2420 C2417 0.950 . S
C2421 C2412 1.390 . S
C2421 H2414 0.950 . S
C2421 C2418 1.387 . S
C2422 C2423 1.387 . S
C2422 H2426 0.950 . S
C2422 C2431 1.390 . S
C2423 C2422 1.387 . S
C2423 C2425 1.387 . S
H2424 C2431 0.950 . S
C2425 C2423 1.387 . S
C2425 C2427 1.390 . S
C2425 H2429 0.950 . S
H2426 C2422 0.950 . S
C2427 C2425 1.390 . S
C2427 C2428 1.387 . S
C2427 H2430 0.950 . S
C2428 C2427 1.387 . S
C2428 C2431 1.387 . S
H2429 C2425 0.950 . S
H2430 C2427 0.950 . S
C2431 C2422 1.390 . S
C2431 H2424 0.950 . S
C2431 C2428 1.387 . S
C2432 C2433 1.387 . S
C2432 H2436 0.950 . S
C2432 C2441 1.390 . S
C2433 C2432 1.387 . S
C2433 C2435 1.387 . S
H2434 C2441 0.950 . S
C2435 C2433 1.387 . S
C2435 C2437 1.390 . S
C2435 H2439 0.950 . S
H2436 C2432 0.950 . S
C2437 C2435 1.390 . S
C2437 C2438 1.387 . S
C2437 H2440 0.950 . S
C2438 C2437 1.387 . S
C2438 C2441 1.387 . S
H2439 C2435 0.950 . S
H2440 C2437 0.950 . S
C2441 C2432 1.390 . S
C2441 H2434 0.950 . S
C2441 C2438 1.387 . S
C2442 C2443 1.387 . S
C2442 H2446 0.950 . S
C2442 C2451 1.390 . S
C2443 C2442 1.387 . S
C2443 C2445 1.387 . S
H2444 C2451 0.950 . S
C2445 C2443 1.387 . S
C2445 C2447 1.390 . S
C2445 H2449 0.950 . S
H2446 C2442 0.950 . S
C2447 C2445 1.390 . S
C2447 C2448 1.387 . S
C2447 H2450 0.950 . S
C2448 C2447 1.387 . S
C2448 C2451 1.387 . S
H2449 C2445 0.950 . S
H2450 C2447 0.950 . S
C2451 C2442 1.390 . S
C2451 H2444 0.950 . S
C2451 C2448 1.387 . S
C2452 C2453 1.387 . S
C2452 H2456 0.950 . S
C2452 C2461 1.390 . S
C2453 C2452 1.387 . S
C2453 C2455 1.387 . S
H2454 C2461 0.950 . S
C2455 C2453 1.387 . S
C2455 C2457 1.390 . S
C2455 H2459 0.950 . S
H2456 C2452 0.950 . S
C2457 C2455 1.390 . S
C2457 C2458 1.387 . S
C2457 H2460 0.950 . S
C2458 C2457 1.387 . S
C2458 C2461 1.387 . S
H2459 C2455 0.950 . S
H2460 C2457 0.950 . S
C2461 C2452 1.390 . S
C2461 H2454 0.950 . S
C2461 C2458 1.387 . S
C2462 C2463 1.387 . S
C2462 H2466 0.950 . S
C2462 C2471 1.390 . S
C2463 C2462 1.387 . S
C2463 C2465 1.387 . S
H2464 C2471 0.950 . S
C2465 C2463 1.387 . S
C2465 C2467 1.390 . S
C2465 H2469 0.950 . S
H2466 C2462 0.950 . S
C2467 C2465 1.390 . S
C2467 C2468 1.387 . S
C2467 H2470 0.950 . S
C2468 C2467 1.387 . S
C2468 C2471 1.387 . S
H2469 C2465 0.950 . S
H2470 C2467 0.950 . S
C2471 C2462 1.390 . S
C2471 H2464 0.950 . S
C2471 C2468 1.387 . S
C2472 C2473 1.387 . S
C2472 H2476 0.950 . S
C2472 C2481 1.390 . S
C2473 C2472 1.387 . S
C2473 C2475 1.387 . S
H2474 C2481 0.950 . S
C2475 C2473 1.387 . S
C2475 C2477 1.390 . S
C2475 H2479 0.950 . S
H2476 C2472 0.950 . S
C2477 C2475 1.390 . S
C2477 C2478 1.387 . S
C2477 H2480 0.950 . S
C2478 C2477 1.387 . S
C2478 C2481 1.387 . S
H2479 C2475 0.950 . S
H2480 C2477 0.950 . S
C2481 C2472 1.390 . S
C2481 H2474 0.950 . S
C2481 C2478 1.387 . S
C2482 C2483 1.387 . S
C2482 H2486 0.950 . S
C2482 C2491 1.390 . S
C2483 C2482 1.387 . S
C2483 C2485 1.387 . S
H2484 C2491 0.950 . S
C2485 C2483 1.387 . S
C2485 C2487 1.390 . S
C2485 H2489 0.950 . S
H2486 C2482 0.950 . S
C2487 C2485 1.390 . S
C2487 C2488 1.387 . S
C2487 H2490 0.950 . S
C2488 C2487 1.387 . S
C2488 C2491 1.387 . S
H2489 C2485 0.950 . S
H2490 C2487 0.950 . S
C2491 C2482 1.390 . S
C2491 H2484 0.950 . S
C2491 C2488 1.387 . S
C2492 C2493 1.387 . S
C2492 H2496 0.950 . S
C2492 C2501 1.390 . S
C2493 C2492 1.387 . S
C2493 C2495 1.387 . S
H2494 C2501 0.950 . S
C2495 C2493 1.387 . S
C2495 C2497 1.390 . S
C2495 H2499 0.950 . S
H2496 C2492 0.950 . S
C2497 C2495 1.390 . S
C2497 C2498 1.387 . S
C2497 H2500 0.950 . S
C2498 C2497 1.387 . S
C2498 C2501 1.387 . S
H2499 C2495 0.950 . S
H2500 C2497 0.950 . S
C2501 C2492 1.390 . S
C2501 H2494 0.950 . S
C2501 C2498 1.387 . S
C2502 C2503 1.387 . S
C2502 H2506 0.950 . S
C2502 C2511 1.390 . S
C2503 C2502 1.387 . S
C2503 C2505 1.387 . S
H2504 C2511 0.950 . S
C2505 C2503 1.387 . S
C2505 C2507 1.390 . S
C2505 H2509 0.950 . S
H2506 C2502 0.950 . S
C2507 C2505 1.390 . S
C2507 C2508 1.387 . S
C2507 H2510 0.950 . S
C2508 C2507 1.387 . S
C2508 C2511 1.387 . S
H2509 C2505 0.950 . S
H2510 C2507 0.950 . S
C2511 C2502 1.390 . S
C2511 H2504 0.950 . S
C2511 C2508 1.387 . S
C2512 C2513 1.387 . S
C2512 H2516 0.950 . S
C2512 C2521 1.390 . S
C2513 C2512 1.387 . S
C2513 C2515 1.387 . S
H2514 C2521 0.950 . S
C2515 C2513 1.387 . S
C2515 C2517 1.390 . S
C2515 H2519 0.950 . S
H2516 C2512 0.950 . S
C2517 C2515 1.390 . S
C2517 C2518 1.387 . S
C2517 H2520 0.950 . S
C2518 C2517 1.387 . S
C2518 C2521 1.387 . S
H2519 C2515 0.950 . S
H2520 C2517 0.950 . S
C2521 C2512 1.390 . S
C2521 H2514 0.950 . S
C2521 C2518 1.387 . S
C2522 C2523 1.387 . S
C2522 H2526 0.950 . S
C2522 C2531 1.390 . S
C2523 C2522 1.387 . S
C2523 C2525 1.387 . S
H2524 C2531 0.950 . S
C2525 C2523 1.387 . S
C2525 C2527 1.390 . S
C2525 H2529 0.950 . S
H2526 C2522 0.950 . S
C2527 C2525 1.390 . S
C2527 C2528 1.387 . S
C2527 H2530 0.950 . S
C2528 C2527 1.387 . S
C2528 C2531 1.387 . S
H2529 C2525 0.950 . S
H2530 C2527 0.950 . S
C2531 C2522 1.390 . S
C2531 H2524 0.950 . S
C2531 C2528 1.387 . S
C2532 C2533 1.387 . S
C2532 H2536 0.950 . S
C2532 C2541 1.390 . S
C2533 C2532 1.387 . S
C2533 C2535 1.387 . S
H2534 C2541 0.950 . S
C2535 C2533 1.387 . S
C2535 C2537 1.390 . S
C2535 H2539 0.950 . S
H2536 C2532 0.950 . S
C2537 C2535 1.390 . S
C2537 C2538 1.387 . S
C2537 H2540 0.950 . S
C2538 C2537 1.387 . S
C2538 C2541 1.387 . S
H2539 C2535 0.950 . S
H2540 C2537 0.950 . S
C2541 C2532 1.390 . S
C2541 H2534 0.950 . S
C2541 C2538 1.387 . S
C2542 C2543 1.387 . S
C2542 H2546 0.950 . S
C2542 C2551 1.390 . S
C2543 C2542 1.387 . S
C2543 C2545 1.387 . S
H2544 C2551 0.950 . S
C2545 C2543 1.387 . S
C2545 C2547 1.390 . S
C2545 H2549 0.950 . S
H2546 C2542 0.950 . S
C2547 C2545 1.390 . S
C2547 C2548 1.387 . S
C2547 H2550 0.950 . S
C2548 C2547 1.387 . S
C2548 C2551 1.387 . S
H2549 C2545 0.950 . S
H2550 C2547 0.950 . S
C2551 C2542 1.390 . S
C2551 H2544 0.950 . S
C2551 C2548 1.387 . S
C2552 C2553 1.387 . S
C2552 H2556 0.950 . S
C2552 C2561 1.390 . S
C2553 C2552 1.387 . S
C2553 C2555 1.387 . S
H2554 C2561 0.950 . S
C2555 C2553 1.387 . S
C2555 C2557 1.390 . S
C2555 H2559 0.950 . S
H2556 C2552 0.950 . S
C2557 C2555 1.390 . S
C2557 C2558 1.387 . S
C2557 H2560 0.950 . S
C2558 C2557 1.387 . S
C2558 C2561 1.387 . S
H2559 C2555 0.950 . S
H2560 C2557 0.950 . S
C2561 C2552 1.390 . S
C2561 H2554 0.950 . S
C2561 C2558 1.387 . S
C2562 C2563 1.387 . S
C2562 H2566 0.950 . S
C2562 C2571 1.390 . S
C2563 C2562 1.387 . S
C2563 C2565 1.387 . S
H2564 C2571 0.950 . S
C2565 C2563 1.387 . S
C2565 C2567 1.390 . S
C2565 H2569 0.950 . S
H2566 C2562 0.950 . S
C2567 C2565 1.390 . S
C2567 C2568 1.387 . S
C2567 H2570 0.950 . S
C2568 C2567 1.387 . S
C2568 C2571 1.387 . S
H2569 C2565 0.950 . S
H2570 C2567 0.950 . S
C2571 C2562 1.390 . S
C2571 H2564 0.950 . S
C2571 C2568 1.387 . S
C2572 C2573 1.387 . S
C2572 H2576 0.950 . S
C2572 C2581 1.390 . S
C2573 C2572 1.387 . S
C2573 C2575 1.387 . S
H2574 C2581 0.950 . S
C2575 C2573 1.387 . S
C2575 C2577 1.390 . S
C2575 H2579 0.950 . S
H2576 C2572 0.950 . S
C2577 C2575 1.390 . S
C2577 C2578 1.387 . S
C2577 H2580 0.950 . S
C2578 C2577 1.387 . S
C2578 C2581 1.387 . S
H2579 C2575 0.950 . S
H2580 C2577 0.950 . S
C2581 C2572 1.390 . S
C2581 H2574 0.950 . S
C2581 C2578 1.387 . S
C2582 C2583 1.387 . S
C2582 H2586 0.950 . S
C2582 C2591 1.390 . S
C2583 C2582 1.387 . S
C2583 C2585 1.387 . S
H2584 C2591 0.950 . S
C2585 C2583 1.387 . S
C2585 C2587 1.390 . S
C2585 H2589 0.950 . S
H2586 C2582 0.950 . S
C2587 C2585 1.390 . S
C2587 C2588 1.387 . S
C2587 H2590 0.950 . S
C2588 C2587 1.387 . S
C2588 C2591 1.387 . S
H2589 C2585 0.950 . S
H2590 C2587 0.950 . S
C2591 C2582 1.390 . S
C2591 H2584 0.950 . S
C2591 C2588 1.387 . S
C2113 C1261 1.450 . S
C2118 C20 1.448 . S
C2123 C117 1.447 . S
C2128 C1349 1.452 . S
C2133 C1604 1.448 . S
C2138 C225 1.449 . S
C2143 C321 1.450 . S
C2148 C1164 1.449 . S
C2153 C1289 1.447 . S
C2158 C372 1.446 . S
C2163 C469 1.450 . S
C2168 C1377 1.450 . S
C2173 C577 1.449 . S
C2178 C1633 1.448 . S
C2183 C673 1.450 . S
C2188 C1193 1.457 . S
C2193 C849 1.447 . S
C2198 C733 1.446 . S
C2203 C900 1.449 . S
C2208 C821 1.446 . S
C2213 C929 1.449 . S
C2218 C1025 1.456 . S
C2223 C997 1.448 . S
C2228 C761 1.444 . S
C2233 C1085 1.450 . S
C2238 C293 1.448 . S
C2243 C401 1.449 . S
C2248 C1457 1.457 . S
C2253 C1516 1.450 . S
C2258 C145 1.445 . S
C2263 C137 1.453 . S
C2268 C1868 1.456 . S
C2273 C812 1.454 . S
C2278 C29 1.450 . S
C2283 C2081 1.452 . S
C2288 C284 1.451 . S
C2293 C988 1.451 . S
C2298 C233 1.453 . S
C2303 C1897 1.451 . S
C2308 C636 1.453 . S
C2313 C841 1.453 . S
C2318 C585 1.452 . S
C2323 C489 1.454 . S
C2328 C2053 1.454 . S
C2333 C381 1.454 . S
C2338 C1017 1.448 . S
C2343 C1340 1.452 . S
C2348 C1721 1.453 . S
C2353 C1437 1.451 . S
C2358 C1369 1.454 . S
C2363 C1173 1.454 . S
C2368 C1465 1.448 . S
C2373 C1692 1.454 . S
C2378 C1201 1.457 . S
C2383 C205 1.453 . S
C2388 C1817 1.454 . S
C2393 C909 1.454 . S
C2398 C665 1.447 . S
C2403 C57 1.451 . S
C2408 C1956 1.456 . S
C2413 C1701 1.450 . S
C2418 C196 1.455 . S
C2423 C49 1.449 . S
C2428 C1428 1.446 . S
C2433 C1729 1.450 . S
C2438 C548 1.445 . S
C2443 C1113 1.450 . S
C2448 C645 1.447 . S
C2453 C497 1.448 . S
C2458 C1545 1.447 . S
C2463 C1877 1.450 . S
C2468 C1780 1.454 . S
C2473 C2044 1.447 . S
C2478 C1809 1.442 . S
C2483 C1993 1.447 . S
C2488 C2073 1.448 . S
C2493 C1905 1.450 . S
C2498 C1965 1.450 . S
C2503 C724 1.454 . S
C2508 C313 1.448 . S
C2513 C108 1.454 . S
C2518 C937 1.457 . S
C2523 C460 1.451 . S
C2528 C753 1.456 . S
C2533 C1789 1.452 . S
C2538 C409 1.454 . S
C2543 C557 1.451 . S
C2548 C1985 1.451 . S
C2553 C1076 1.452 . S
C2558 C1281 1.447 . S
C2563 C1613 1.452 . S
C2568 C1105 1.457 . S
C2573 C1525 1.453 . S
C2578 C1641 1.453 . S
C2583 C1252 1.451 . S
C2588 C1553 1.451 . S
