# Generated by pormake.
# Topology sxb, (6)-cn, num edge types: 1
# Building blocks:
#     Node 0, Type 0, BuildingBlock: KUMJIN_clean_sbu_1, # of connection points: 6
#     Node 1, Type 0, BuildingBlock: KUMJIN_clean_sbu_1, # of connection points: 6
#     Node 2, Type 0, BuildingBlock: KUMJIN_clean_sbu_1, # of connection points: 6
#     Node 3, Type 0, BuildingBlock: KUMJIN_clean_sbu_1, # of connection points: 6
#     Edge 4, Type (0, 0), BuildingBlock: XIVTED_clean_linker_0, # of connection points: 2
#     Edge 5, Type (0, 0), BuildingBlock: XIVTED_clean_linker_0, # of connection points: 2
#     Edge 6, Type (0, 0), BuildingBlock: XIVTED_clean_linker_0, # of connection points: 2
#     Edge 7, Type (0, 0), BuildingBlock: XIVTED_clean_linker_0, # of connection points: 2
#     Edge 8, Type (0, 0), BuildingBlock: XIVTED_clean_linker_0, # of connection points: 2
#     Edge 9, Type (0, 0), BuildingBlock: XIVTED_clean_linker_0, # of connection points: 2
#     Edge 10, Type (0, 0), BuildingBlock: XIVTED_clean_linker_0, # of connection points: 2
#     Edge 11, Type (0, 0), BuildingBlock: XIVTED_clean_linker_0, # of connection points: 2
#     Edge 12, Type (0, 0), BuildingBlock: XIVTED_clean_linker_0, # of connection points: 2
#     Edge 13, Type (0, 0), BuildingBlock: XIVTED_clean_linker_0, # of connection points: 2
#     Edge 14, Type (0, 0), BuildingBlock: XIVTED_clean_linker_0, # of connection points: 2
#     Edge 15, Type (0, 0), BuildingBlock: XIVTED_clean_linker_0, # of connection points: 2
# Relax obj value: 0.014
# Max RMSD: 0.057
# Mean RMSD: 0.057
data_MOF--net-sxb--node1-KUMJIN_clean_sbu_1--edge1-XIVTED_clean_linker_0
_symmetry_space_group_name_H-M    P1
_symmetry_Int_Tables_number       1
_symmetry_cell_setting            triclinic
loop_
_symmetry_equiv_pos_as_xyz
'x, y, z'
_cell_length_a     15.19273
_cell_length_b     47.460378
_cell_length_c     30.105142
_cell_angle_alpha  114.85005
_cell_angle_beta   90.121877
_cell_angle_gamma 90.198696
loop_
_atom_site_label
_atom_site_type_symbol
_atom_site_fract_x
_atom_site_fract_y
_atom_site_fract_z
_atom_type_partial_charge
Eu0 Eu 0.03454 0.96188 0.96071 0.0
C1 C 0.19389 0.09465 0.08658 0.0
N2 N 0.11618 0.08272 0.09338 0.0
C3 C 0.13892 0.10587 0.1802 0.0
C4 C 0.24786 0.11252 0.12684 0.0
C5 C 0.0874 0.0884 0.13924 0.0
C6 C 0.2196 0.11793 0.17399 0.0
C7 C 0.30069 0.10067 0.03111 0.0
C8 C 0.22026 0.08865 0.03907 0.0
C9 C 0.3544 0.1185 0.0712 0.0
C10 C 0.32813 0.12438 0.11887 0.0
Eu11 Eu 0.03396 0.05464 0.02196 0.0
N12 N 0.16815 0.0706 0.00067 0.0
C13 C 0.3247 0.09446 0.98302 0.0
C14 C 0.18909 0.06582 0.95407 0.0
C15 C 0.26823 0.07721 0.9444 0.0
H16 H 1.0237 0.08016 0.14443 0.0
H17 H 0.28501 0.07305 0.90724 0.0
H18 H 0.04792 0.93829 0.83845 0.0
H19 H 0.77854 0.9423 0.07162 0.0
H20 H 0.14425 0.05401 0.92439 0.0
H21 H 0.38592 0.10332 0.9754 0.0
H22 H 0.92048 0.9618 0.05656 0.0
H23 H 0.11598 0.11029 0.21654 0.0
H24 H 0.41648 0.12787 0.06572 0.0
H25 H 0.37041 0.13817 0.14937 0.0
H26 H 0.95647 0.90944 0.76541 0.0
H27 H 0.25925 0.13155 0.20584 0.0
H28 H 0.67942 0.91263 0.00217 0.0
N29 N 0.95407 0.93473 0.88822 0.0
C30 C 0.87581 0.92262 0.89389 0.0
C31 C 0.93283 0.91315 0.80133 0.0
C32 C 0.82228 0.9055 0.85301 0.0
C33 C 0.98392 0.92987 0.84286 0.0
C34 C 0.85157 0.90098 0.80641 0.0
N35 N 0.89949 0.94544 0.98004 0.0
C36 C 0.87675 0.94992 0.02627 0.0
C37 C 0.76696 0.91581 0.94775 0.0
C38 C 0.8482 0.92784 0.94092 0.0
C39 C 0.74136 0.9215 -0.00458 0.0
C40 C 0.79685 0.9384 0.03477 0.0
H41 H 0.81223 0.88798 0.77412 0.0
H42 H 0.69931 0.88035 0.82884 0.0
H43 H 0.65105 0.88931 0.91161 0.0
O44 O 0.08909 0.93196 -0.00714 0.0
O45 O 0.9068 0.98672 0.95873 0.0
O46 O 0.90552 0.03263 0.02832 0.0
O47 O 0.08216 0.91563 0.91416 0.0
O48 O 0.06345 0.98763 0.04216 0.0
O49 O 0.98238 0.03282 0.0706 0.0
O50 O 0.98186 0.08468 0.98954 0.0
O51 O 0.16111 0.02998 0.02538 0.0
O52 O 0.16311 0.9843 0.95545 0.0
O53 O 0.98359 0.10058 0.06825 0.0
O54 O 1.00245 0.02837 0.94068 0.0
O55 O 0.08822 0.98444 0.91384 0.0
C56 C 0.86453 0.00979 -0.00712 0.0
C57 C 0.19139 0.89359 0.94535 0.0
C58 C 0.27523 0.85114 0.95048 0.0
C59 C 0.34726 0.85941 0.92892 0.0
C60 C 0.26423 0.90167 0.92461 0.0
C61 C 0.34184 0.88463 0.91655 0.0
C62 C 0.19744 0.86872 0.95883 0.0
C63 C 1.02192 0.01033 0.07741 0.0
C64 C 0.1067 0.90942 0.95049 0.0
C65 C 0.74129 0.89356 0.85984 0.0
C66 C 0.71378 0.89866 0.90701 0.0
C67 C 0.2038 1.00696 0.99138 0.0
C68 C 0.87703 0.12235 0.03509 0.0
C69 C 0.79435 0.16474 0.02967 0.0
C70 C 0.71899 0.15478 0.04622 0.0
C71 C 0.80126 0.11257 0.05121 0.0
C72 C 0.87323 0.14821 0.02398 0.0
C73 C 0.72252 0.12877 0.05668 0.0
C74 C 0.04524 1.00583 0.90593 0.0
C75 C 0.9618 0.10697 0.0317 0.0
H76 H 0.40754 0.84612 0.92076 0.0
H77 H 0.26047 0.92074 0.91389 0.0
H78 H 0.39765 0.89068 0.89996 0.0
H79 H 0.14105 0.86313 0.97566 0.0
H80 H 0.65712 0.16691 0.05059 0.0
H81 H 0.8034 0.09272 0.06007 0.0
H82 H 0.93238 0.1559 0.01215 0.0
H83 H 0.66415 0.12124 0.0693 0.0
Eu84 Eu 0.04349 0.05575 0.5265 0.0
C85 C 0.1969 0.92327 0.3933 0.0
N86 N 0.11904 0.9354 0.38748 0.0
C87 C 0.13908 0.91357 0.30062 0.0
C88 C 0.24961 0.90595 0.35247 0.0
C89 C 0.08898 0.93058 0.34213 0.0
C90 C 0.21981 0.90124 0.30579 0.0
C91 C 0.30623 0.91686 0.44741 0.0
C92 C 0.22509 0.92877 0.44041 0.0
C93 C 0.35857 0.89949 0.40673 0.0
C94 C 0.3304 0.89406 0.35946 0.0
Eu95 Eu 0.03924 0.96266 0.45958 0.0
N96 N 0.17451 0.94655 0.47942 0.0
C97 C 0.3326 0.92288 0.49516 0.0
C98 C 0.198 0.95129 0.52575 0.0
C99 C 0.27788 0.93995 0.53443 0.0
H100 H 1.02546 0.93926 0.33785 0.0
H101 H 0.29672 0.94409 0.57136 0.0
H102 H 0.03385 0.07338 0.64688 0.0
H103 H 0.81558 0.08334 0.40972 0.0
H104 H 0.15494 0.9632 0.55602 0.0
H105 H 0.39451 0.91414 0.50204 0.0
H106 H 0.95204 0.0634 0.42946 0.0
H107 H 0.11513 0.90979 0.26465 0.0
H108 H 0.42119 0.89021 0.41147 0.0
H109 H 0.37175 0.8807 0.32851 0.0
H110 H 0.93218 0.09927 0.7158 0.0
H111 H 0.25846 0.88805 0.27353 0.0
H112 H 0.70489 0.10883 0.47421 0.0
N113 N 0.95137 0.07982 0.59481 0.0
C114 C 0.8767 0.09279 0.58691 0.0
C115 C 0.91547 0.0974 0.67969 0.0
C116 C 0.81728 0.10814 0.62541 0.0
C117 C 0.97231 0.08233 0.64043 0.0
C118 C 0.83745 0.11026 0.67214 0.0
N119 N 0.91585 0.07432 0.50296 0.0
C120 C 0.90277 0.07289 0.45725 0.0
C121 C 0.78022 0.10247 0.53043 0.0
C122 C 0.85827 0.08987 0.53975 0.0
C123 C 0.76411 0.09947 0.48284 0.0
C124 C 0.82613 0.08491 0.44625 0.0
H125 H 0.79345 0.12189 0.70265 0.0
H126 H 0.69294 0.13241 0.64515 0.0
H127 H 0.66059 0.1275 0.56216 0.0
O128 O 0.10549 0.09138 0.50626 0.0
O129 O 0.91499 0.03071 0.52766 0.0
O130 O 0.91166 0.98604 0.4559 0.0
O131 O 0.09872 0.09755 0.58233 0.0
O132 O 0.07116 0.03216 0.44453 0.0
O133 O 0.98846 0.98685 0.41424 0.0
O134 O 0.99354 0.93032 0.48907 0.0
O135 O 0.16663 0.98746 0.45622 0.0
O136 O 0.16937 0.03115 0.52865 0.0
O137 O 0.98088 0.9181 0.41152 0.0
O138 O 1.00646 0.98654 0.54058 0.0
O139 O 0.09339 0.03037 0.57018 0.0
C140 C 0.87162 1.00857 0.49204 0.0
C141 C 0.1698 0.1393 0.57055 0.0
C142 C 0.22962 0.18427 0.56063 0.0
C143 C 0.25872 0.19657 0.60955 0.0
C144 C 0.20015 0.15227 0.61926 0.0
C145 C 0.24402 0.18067 0.6385 0.0
C146 C 0.1842 0.15553 0.54119 0.0
C147 C 1.02895 0.00967 0.40858 0.0
C148 C 0.12322 0.10907 0.5521 0.0
C149 C 0.73944 0.12059 0.61605 0.0
C150 C 0.72096 0.11775 0.56873 0.0
C151 C 0.2098 0.01005 0.49103 0.0
C152 C 0.87975 0.8955 0.44678 0.0
C153 C 0.79536 0.8548 0.45718 0.0
C154 C 0.71816 0.86661 0.44544 0.0
C155 C 0.80214 0.90711 0.43571 0.0
C156 C 0.87614 0.86958 0.4578 0.0
C157 C 0.7217 0.89265 0.43501 0.0
C158 C 0.0479 0.00887 0.57662 0.0
C159 C 0.96544 0.90983 0.44689 0.0
H160 H 0.29212 0.21883 0.62574 0.0
H161 H 0.19013 0.14045 0.64279 0.0
H162 H 0.26664 0.19043 0.67612 0.0
H163 H 0.16108 0.14584 0.50361 0.0
H164 H 0.65503 0.85552 0.44366 0.0
H165 H 0.80393 0.92717 0.42736 0.0
H166 H 0.9364 0.86118 0.46728 0.0
H167 H 0.6619 0.90151 0.42607 0.0
Eu168 Eu 0.5252 0.46212 0.9647 0.0
C169 C 0.68062 0.59684 0.07382 0.0
N170 N 0.61465 0.58111 0.08421 0.0
C171 C 0.66419 0.59999 0.16741 0.0
C172 C 0.74303 0.614 0.10991 0.0
C173 C 0.60365 0.5834 0.13058 0.0
C174 C 0.73463 0.61514 0.15695 0.0
C175 C 0.75434 0.61157 0.01512 0.0
C176 C 0.68619 0.59558 0.02675 0.0
C177 C 0.81687 0.62846 0.05095 0.0
C178 C 0.81126 0.62966 0.09815 0.0
Eu179 Eu 0.51406 0.55554 0.02008 0.0
N180 N 0.6258 0.57855 -0.00773 0.0
C181 C 0.75815 0.60987 0.9676 0.0
C182 C 0.62748 0.57769 0.94644 0.0
C183 C 0.69427 0.59296 0.93321 0.0
H184 H 0.54727 0.57318 0.13987 0.0
H185 H 0.69574 0.59202 0.89667 0.0
H186 H 0.53055 0.44095 0.84104 0.0
H187 H 0.29922 0.42338 0.06729 0.0
H188 H 0.57613 0.5661 0.92039 0.0
H189 H 0.8097 0.62173 0.95721 0.0
H190 H 0.43409 0.44818 0.05347 0.0
H191 H 0.65575 0.60144 0.20401 0.0
H192 H 0.86989 0.64073 0.04253 0.0
H193 H 0.85987 0.6429 0.12539 0.0
H194 H 0.42883 0.41959 0.77128 0.0
H195 H 0.78122 0.62811 0.18567 0.0
H196 H 0.18716 0.40177 0.00156 0.0
N197 N 0.43689 0.4398 0.89305 0.0
C198 C 0.35819 0.42796 0.89891 0.0
C199 C 0.40748 0.42232 0.80715 0.0
C200 C 0.29953 0.41395 0.85915 0.0
C201 C 0.46428 0.4353 0.84732 0.0
C202 C 0.3241 0.4121 0.81324 0.0
N203 N 0.39618 0.44126 0.98168 0.0
C204 C 0.38488 0.43883 0.02492 0.0
C205 C 0.26054 0.41381 0.95029 0.0
C206 C 0.33837 0.42795 0.94402 0.0
C207 C 0.24605 0.41254 -0.0046 0.0
C208 C 0.30908 0.42475 0.03266 0.0
H209 H 0.28079 0.40157 0.78184 0.0
H210 H 0.17383 0.39055 0.83586 0.0
H211 H 0.13991 0.39034 0.91556 0.0
O212 O 0.59229 0.43518 -0.00183 0.0
O213 O 0.39767 0.48751 -0.00159 0.0
O214 O 0.39916 0.52716 0.97499 0.0
O215 O 0.56557 0.41443 0.92046 0.0
O216 O 0.56544 0.49118 0.04335 0.0
O217 O 0.47237 0.53311 0.07015 0.0
O218 O 0.472 0.59821 0.01495 0.0
O219 O 0.64954 0.53398 0.0201 0.0
O220 O 0.65289 0.48429 0.957 0.0
O221 O 0.42249 0.58699 0.07401 0.0
O222 O 0.48662 0.52858 0.93911 0.0
O223 O 0.57053 0.48398 0.91399 0.0
C224 C 0.35541 0.50732 0.98632 0.0
C225 C 0.6826 0.39362 0.94852 0.0
C226 C 0.76491 0.35008 0.95024 0.0
C227 C 0.83773 0.359 0.9302 0.0
C228 C 0.75558 0.40228 0.92868 0.0
C229 C 0.83296 0.38498 0.91964 0.0
C230 C 0.68746 0.3677 0.95938 0.0
C231 C 0.51538 0.51132 0.07719 0.0
C232 C 0.59958 0.41055 0.95716 0.0
C233 C 0.21987 0.40118 0.86592 0.0
C234 C 0.2006 0.40099 0.91129 0.0
C235 C 0.69217 0.50961 0.98844 0.0
C236 C 0.37087 0.63535 0.07278 0.0
C237 C 0.31694 0.68191 0.06607 0.0
C238 C 0.26726 0.6891 0.10876 0.0
C239 C 0.32084 0.64315 0.11544 0.0
C240 C 0.3695 0.65505 0.0484 0.0
C241 C 0.26961 0.6699 0.1333 0.0
C242 C 0.53283 0.50635 0.90592 0.0
C243 C 0.42275 0.60645 0.05366 0.0
H244 H 0.8987 0.34612 0.92321 0.0
H245 H 0.75246 0.42221 0.92 0.0
H246 H 0.8894 0.39167 0.90434 0.0
H247 H 0.63007 0.36092 0.97402 0.0
H248 H 0.22724 0.70984 0.12354 0.0
H249 H 0.321 0.62851 0.13501 0.0
H250 H 0.40763 0.64926 0.01534 0.0
H251 H 0.23135 0.67576 0.16625 0.0
Eu252 Eu 0.52639 0.55482 0.51844 0.0
C253 C 0.68872 0.42212 0.41121 0.0
N254 N 0.62294 0.43737 0.39986 0.0
C255 C 0.67707 0.4198 0.31791 0.0
C256 C 0.75336 0.40591 0.37636 0.0
C257 C 0.61435 0.43549 0.35356 0.0
C258 C 0.74731 0.40516 0.32944 0.0
C259 C 0.75995 0.40761 0.47082 0.0
C260 C 0.69189 0.42302 0.45811 0.0
C261 C 0.82473 0.39165 0.43624 0.0
C262 C 0.82144 0.39081 0.38919 0.0
Eu263 Eu 0.51783 0.46116 0.46158 0.0
N264 N 0.62904 0.43904 0.49129 0.0
C265 C 0.76127 0.40885 0.51811 0.0
C266 C 0.62818 0.43931 0.53676 0.0
C267 C 0.6949 0.42466 0.55111 0.0
H268 H 0.55826 0.44536 0.34346 0.0
H269 H 0.69436 0.42517 0.58739 0.0
H270 H 0.53368 0.576 0.64193 0.0
H271 H 0.29847 0.59261 0.4155 0.0
H272 H 0.57488 0.4499 0.56162 0.0
H273 H 0.81266 0.39742 0.52932 0.0
H274 H 0.43332 0.56805 0.42935 0.0
H275 H 0.67051 0.41865 0.28137 0.0
H276 H 0.87766 0.37981 0.4455 0.0
H277 H 0.87175 0.37828 0.3629 0.0
H278 H 0.43368 0.59774 0.71199 0.0
H279 H 0.79563 0.3929 0.30164 0.0
H280 H 0.18792 0.61445 0.48144 0.0
N281 N 0.43932 0.57719 0.59012 0.0
C282 C 0.36062 0.58892 0.5843 0.0
C283 C 0.41166 0.59489 0.67612 0.0
C284 C 0.30295 0.60309 0.62419 0.0
C285 C 0.46748 0.58173 0.63581 0.0
C286 C 0.32843 0.60516 0.67015 0.0
N287 N 0.39683 0.57522 0.50135 0.0
C288 C 0.38471 0.57743 0.45798 0.0
C289 C 0.26208 0.60268 0.53281 0.0
C290 C 0.33984 0.58862 0.53907 0.0
C291 C 0.24675 0.60373 0.48759 0.0
C292 C 0.30892 0.59139 0.45022 0.0
H293 H 0.28592 0.61583 0.70165 0.0
H294 H 0.1781 0.62659 0.64764 0.0
H295 H 0.14257 0.62633 0.56773 0.0
O296 O 0.5909 0.58194 0.48447 0.0
O297 O 0.39891 0.5288 0.48439 0.0
O298 O 0.40136 0.48822 0.50591 0.0
O299 O 0.56978 0.60243 0.56258 0.0
O300 O 0.56715 0.52619 0.44013 0.0
O301 O 0.47495 0.48378 0.41191 0.0
O302 O 0.47662 0.41733 0.46403 0.0
O303 O 0.6516 0.48414 0.462 0.0
O304 O 0.65398 0.53302 0.52696 0.0
O305 O 0.43037 0.42923 0.40508 0.0
O306 O 0.48891 0.48742 0.54248 0.0
O307 O 0.57118 0.53275 0.56892 0.0
C308 C 0.35732 0.50855 0.49595 0.0
C309 C 0.68495 0.62303 0.53244 0.0
C310 C 0.76875 0.66551 0.52738 0.0
C311 C 0.84361 0.65558 0.54439 0.0
C312 C 0.75989 0.61346 0.54943 0.0
C313 C 0.83902 0.62971 0.55525 0.0
C314 C 0.68949 0.64891 0.52143 0.0
C315 C 0.51724 0.50611 0.40573 0.0
C316 C 0.60112 0.60643 0.52546 0.0
C317 C 0.22335 0.61581 0.61746 0.0
C318 C 0.20316 0.61572 0.57197 0.0
C319 C 0.69385 0.50819 0.4951 0.0
C320 C 0.38083 0.37949 0.40186 0.0
C321 C 0.32119 0.33226 0.40481 0.0
C322 C 0.28758 0.32333 0.35721 0.0
C323 C 0.34592 0.36998 0.35453 0.0
C324 C 0.36893 0.36039 0.42688 0.0
C325 C 0.29995 0.34204 0.3324 0.0
C326 C 0.53358 0.51008 0.57645 0.0
C327 C 0.4306 0.40901 0.42397 0.0
H328 H 0.90542 0.66805 0.54997 0.0
H329 H 0.75708 0.59354 0.55815 0.0
H330 H 0.89693 0.62233 0.56842 0.0
H331 H 0.63133 0.65585 0.50765 0.0
H332 H 0.2524 0.30157 0.33878 0.0
H333 H 0.35477 0.38402 0.3343 0.0
H334 H 0.3953 0.36759 0.46352 0.0
H335 H 0.27393 0.33481 0.29573 0.0
H336 H 0.45425 0.70622 0.03398 0.0
H337 H 0.14413 0.80985 0.94729 0.0
H338 H 0.17083 0.70531 0.04117 0.0
H339 H 0.41942 0.83031 0.98351 0.0
H340 H 0.15508 0.76645 0.9702 0.0
H341 H 0.44522 0.7457 0.00142 0.0
C342 C 0.39019 0.71404 0.02808 0.0
C343 C 0.31317 0.70282 0.04081 0.0
C344 C 0.21311 0.7804 0.97289 0.0
C345 C 0.30234 0.74787 0.00393 0.0
C346 C 0.20685 0.80545 0.96024 0.0
C347 C 0.28091 0.82413 0.96357 0.0
C348 C 0.2942 0.77358 0.98845 0.0
C349 C 0.36076 0.81645 0.97947 0.0
C350 C 0.38507 0.7367 0.0099 0.0
C351 C 0.23181 0.71375 0.03255 0.0
N352 N 0.36526 0.7918 0.99123 0.0
N353 N 0.22851 0.73573 0.0148 0.0
H354 H 0.83928 0.29358 0.89516 0.0
H355 H 0.7162 0.22062 0.08353 0.0
H356 H 0.69989 0.34345 0.03039 0.0
H357 H 0.86538 0.1721 0.9515 0.0
H358 H 0.70828 0.2657 0.06428 0.0
H359 H 0.84804 0.24863 0.91465 0.0
C360 C 0.81105 0.29516 0.92912 0.0
C361 C 0.7694 0.32243 0.96133 0.0
C362 C 0.7427 0.2452 0.03947 0.0
C363 C 0.77834 0.2709 0.98368 0.0
C364 C 0.74685 0.21941 0.05032 0.0
C365 C 0.7909 0.19249 0.01888 0.0
C366 C 0.78264 0.24407 -0.00328 0.0
C367 C 0.83109 0.19243 0.97689 0.0
C368 C 0.81566 0.26942 0.94012 0.0
C369 C 0.73213 0.32287 0.00429 0.0
N370 N 0.8257 0.21778 0.96694 0.0
N371 N 0.73766 0.29753 0.01424 0.0
H372 H 0.38359 0.21159 0.55321 0.0
H373 H 0.16908 0.30233 0.40826 0.0
H374 H 0.11424 0.19883 0.50285 0.0
H375 H 0.43819 0.31526 0.45927 0.0
H376 H 0.148 0.26436 0.44231 0.0
H377 H 0.40602 0.24821 0.51664 0.0
C378 C 0.32928 0.21634 0.53403 0.0
C379 C 0.24663 0.20238 0.5315 0.0
C380 C 0.21167 0.27548 0.44616 0.0
C381 C 0.27176 0.24453 0.48964 0.0
C382 C 0.22386 0.29718 0.42667 0.0
C383 C 0.30592 0.31175 0.43031 0.0
C384 C 0.282 0.26819 0.46965 0.0
C385 C 0.3738 0.30467 0.45562 0.0
C386 C 0.34211 0.23732 0.51325 0.0
C387 C 0.17904 0.209 0.50557 0.0
N388 N 0.36046 0.28325 0.47406 0.0
N389 N 0.19289 0.22982 0.48598 0.0
H390 H 0.66852 0.8397 0.50843 0.0
H391 H 0.90122 0.68227 0.48144 0.0
H392 H 0.91362 0.80673 0.43205 0.0
H393 H 0.64615 0.71165 0.54728 0.0
H394 H 0.9089 0.7284 0.46497 0.0
H395 H 0.66093 0.79352 0.52452 0.0
C396 C 0.72057 0.8227 0.49476 0.0
C397 C 0.7915 0.82714 0.46849 0.0
C398 C 0.85119 0.72475 0.48297 0.0
C399 C 0.78386 0.77427 0.48762 0.0
C400 C 0.84699 0.69849 0.49266 0.0
C401 C 0.7732 0.69312 0.51606 0.0
C402 C 0.78115 0.74591 0.49682 0.0
C403 C 0.70408 0.71467 0.52882 0.0
C404 C 0.7164 0.79638 0.50425 0.0
C405 C 0.85804 0.80456 0.45284 0.0
N406 N 0.70989 0.74013 0.51917 0.0
N407 N 0.85251 0.77913 0.4626 0.0
H408 H 0.31276 0.04339 0.06639 0.0
H409 H 0.75537 0.97426 0.91741 0.0
H410 H 0.31716 0.97164 0.91877 0.0
H411 H 0.75146 0.0446 0.06613 0.0
H412 H 0.59501 0.97287 0.91734 0.0
H413 H 0.47315 0.04496 0.06644 0.0
C414 C 0.34733 0.02803 0.03388 0.0
C415 C 0.30118 1.00751 -0.00761 0.0
C416 C 0.62914 0.98869 0.94997 0.0
C417 C 0.48536 1.0086 -0.00736 0.0
C418 C 0.72089 0.98935 0.95017 0.0
C419 C 0.76716 0.00941 -0.00803 0.0
C420 C 0.58298 1.00856 -0.0083 0.0
C421 C 0.71865 0.02889 0.03296 0.0
C422 C 0.4391 0.02879 0.03407 0.0
C423 C 0.34983 0.98772 0.9517 0.0
N424 N 0.62922 0.028 0.03177 0.0
N425 N 0.43923 0.98874 0.95287 0.0
H426 H 0.31871 0.97496 0.41547 0.0
H427 H 0.7623 0.04221 0.56822 0.0
H428 H 0.32377 0.04486 0.56455 0.0
H429 H 0.75806 0.97547 0.41711 0.0
H430 H 0.60185 0.04336 0.56764 0.0
H431 H 0.47926 0.97382 0.41594 0.0
C432 C 0.35344 0.98998 0.44841 0.0
C433 C 0.30736 0.0098 0.4902 0.0
C434 C 0.63593 0.02843 0.53459 0.0
C435 C 0.49181 0.00916 0.4906 0.0
C436 C 0.72778 0.02798 0.53477 0.0
C437 C 0.77406 0.00901 0.49252 0.0
C438 C 0.58961 0.00943 0.49197 0.0
C439 C 0.72533 0.99039 0.45064 0.0
C440 C 0.44531 0.98946 0.44854 0.0
C441 C 0.35629 0.02918 0.53146 0.0
N442 N 0.63586 0.99104 0.45145 0.0
N443 N 0.44573 0.02836 0.53061 0.0
H444 H 0.80197 0.54975 0.97178 0.0
H445 H 0.24374 0.47946 0.02729 0.0
H446 H 0.80356 0.4693 0.00299 0.0
H447 H 0.24294 0.53857 0.951 0.0
H448 H 0.08317 0.47886 0.0261 0.0
H449 H 0.96332 0.55036 0.97284 0.0
C450 C 0.83644 0.53269 0.97996 0.0
C451 C 0.78959 0.51011 0.9888 0.0
C452 C 0.11799 0.49184 0.00936 0.0
C453 C 0.97428 0.50973 0.98834 0.0
C454 C 0.20996 0.49189 0.00953 0.0
C455 C 0.25744 0.50819 0.98779 0.0
C456 C 0.07242 0.50905 0.98858 0.0
C457 C 0.20939 0.52534 0.96772 0.0
C458 C 0.92853 0.53263 0.97968 0.0
C459 C 0.83744 0.48729 -0.00357 0.0
N460 N 0.11966 0.52538 0.96871 0.0
N461 N 0.92715 0.48779 -0.00364 0.0
H462 H 0.2473 0.47751 0.5328 0.0
H463 H 0.80287 0.54765 0.47659 0.0
H464 H 0.24302 0.53662 0.45651 0.0
H465 H 0.80572 0.47029 0.5156 0.0
H466 H 0.96471 0.54801 0.47711 0.0
H467 H 0.08593 0.4773 0.53278 0.0
C468 C 0.21264 0.49065 0.51634 0.0
C469 C 0.25927 0.50778 0.49566 0.0
C470 C 0.93 0.53068 0.48499 0.0
C471 C 0.07413 0.50785 0.49589 0.0
C472 C 0.8378 0.53058 0.48491 0.0
C473 C 0.79123 0.50835 0.49483 0.0
C474 C 0.97594 0.50855 0.49565 0.0
C475 C 0.83926 0.48691 0.50581 0.0
C476 C 0.12041 0.49054 0.51638 0.0
C477 C 0.21035 0.52409 0.47449 0.0
N478 N 0.92891 0.48752 0.50598 0.0
N479 N 0.12079 0.52392 0.47545 0.0
H480 H 0.1353 0.0428 0.37468 0.0
H481 H 0.12845 0.97763 0.11156 0.0
H482 H 0.91548 0.97878 0.33229 0.0
H483 H 0.91279 0.04268 0.1548 0.0
H484 H 0.12728 0.97801 0.19321 0.0
H485 H 0.13047 0.04348 0.29364 0.0
C486 C 0.08596 0.02898 0.3485 0.0
C487 C 1.02622 0.01045 0.36004 0.0
C488 C 0.08045 0.99209 0.18442 0.0
C489 C 1.02027 0.0116 0.26837 0.0
C490 C 0.08081 0.99195 0.13809 0.0
C491 C 1.02111 0.01041 0.12653 0.0
C492 C 1.0196 0.01054 0.2191 0.0
C493 C 0.96067 0.02844 0.16243 0.0
C494 C 0.0834 0.02947 0.30256 0.0
C495 C 0.96347 0.99306 0.32465 0.0
N496 N 0.96135 0.02807 0.20738 0.0
N497 N 0.96212 0.994 0.28013 0.0
H498 H 0.18214 0.99065 0.84191 0.0
H499 H 0.91239 0.99146 0.61843 0.0
H500 H 0.91067 0.01941 0.8587 0.0
H501 H 0.17953 0.02575 0.64483 0.0
H502 H 0.9112 0.9904 0.69928 0.0
H503 H 0.18363 0.99189 0.76102 0.0
C504 C 0.12281 0.99695 0.82826 0.0
C505 C 0.04625 1.00508 0.85667 0.0
C506 C 0.96989 0.99816 0.68723 0.0
C507 C 0.04715 1.00602 0.76484 0.0
C508 C 0.97078 0.99864 0.64127 0.0
C509 C 0.04617 0.00869 0.6253 0.0
C510 C 0.04573 1.00696 0.71659 0.0
C511 C 0.12005 0.018 0.65618 0.0
C512 C 0.1239 0.99785 0.78254 0.0
C513 C 0.97108 0.01326 0.83782 0.0
N514 N 0.11843 0.01658 0.70032 0.0
N515 N 0.97307 0.01325 0.79272 0.0
H516 H 0.64771 0.52592 0.36394 0.0
H517 H 0.3743 0.52211 0.13812 0.0
H518 H 0.38396 0.48835 0.33792 0.0
H519 H 0.65031 0.49934 0.12595 0.0
H520 H 0.37204 0.52033 0.21876 0.0
H521 H 0.64567 0.52718 0.28346 0.0
C522 C 0.58923 0.51806 0.34131 0.0
C523 C 0.51594 0.50691 0.35733 0.0
C524 C 0.43285 0.51572 0.19825 0.0
C525 C 0.51287 0.50878 0.26596 0.0
C526 C 0.43432 0.51691 0.15264 0.0
C527 C 0.51258 0.51079 0.12567 0.0
C528 C 0.51078 0.5093 0.21729 0.0
C529 C 0.5886 0.50396 0.14563 0.0
C530 C 0.58834 0.51866 0.29545 0.0
C531 C 0.44196 0.49689 0.32657 0.0
N532 N 0.5861 0.50374 0.19056 0.0
N533 N 0.44189 0.49832 0.28235 0.0
H534 H 0.66879 0.5289 0.64329 0.0
H535 H 0.39419 0.51377 0.8556 0.0
H536 H 0.40397 0.49244 0.6212 0.0
H537 H 0.67349 0.49669 0.84454 0.0
H538 H 0.39598 0.51497 0.7751 0.0
H539 H 0.67178 0.52667 0.72369 0.0
C540 C 0.61126 0.52069 0.6556 0.0
C541 C 0.53607 0.51079 0.62584 0.0
C542 C 0.45683 0.51085 0.79019 0.0
C543 C 0.5388 0.50842 0.71694 0.0
C544 C 0.45586 0.51022 0.83599 0.0
C545 C 0.53375 0.50501 0.85625 0.0
C546 C 0.53671 0.50708 0.76508 0.0
C547 C 0.61205 0.50046 0.8296 0.0
C548 C 0.61328 0.51918 0.70104 0.0
C549 C 0.46335 0.50011 0.64304 0.0
N550 N 0.61188 0.50197 0.78539 0.0
N551 N 0.46625 0.49944 0.68762 0.0
loop_
_geom_bond_atom_site_label_1
_geom_bond_atom_site_label_2
_geom_bond_distance
_geom_bond_site_symmetry_2
_ccdc_geom_bond_type
Eu0 N29 2.600 . S
Eu0 N35 2.562 . S
Eu0 O44 2.462 1_655 S
Eu0 O45 2.373 . S
Eu0 O47 2.432 1_655 S
Eu0 O48 2.291 1_556 S
Eu0 O52 2.335 1_655 S
Eu0 O55 2.372 1_655 S
Eu0 C64 2.787 1_655 S
C1 N2 1.365 . S
C1 C4 1.405 . S
C1 C8 1.448 . S
N2 C1 1.365 . S
N2 C5 1.319 . S
N2 Eu11 2.600 . S
C3 C5 1.397 . S
C3 C6 1.367 . S
C3 H23 0.931 . S
C4 C1 1.405 . S
C4 C6 1.403 . S
C4 C10 1.439 . S
C5 N2 1.319 . S
C5 C3 1.397 . S
C5 H16 0.930 . S
C6 C3 1.367 . S
C6 C4 1.403 . S
C6 H27 0.929 . S
C7 C8 1.430 . S
C7 C9 1.387 . S
C7 C13 1.404 . S
C8 C1 1.448 . S
C8 C7 1.430 . S
C8 N12 1.351 . S
C9 C7 1.387 . S
C9 C10 1.374 . S
C9 H24 0.931 . S
C10 C4 1.439 . S
C10 C9 1.374 . S
C10 H25 0.931 . S
Eu11 N2 2.600 . S
Eu11 N12 2.562 . S
Eu11 O46 2.335 1_455 S
Eu11 O49 2.372 1_455 S
Eu11 O50 2.462 1_455 S
Eu11 O51 2.373 . S
Eu11 O53 2.432 1_455 S
Eu11 O54 2.291 1_554 S
Eu11 C75 2.787 1_455 S
N12 C8 1.351 . S
N12 Eu11 2.562 . S
N12 C14 1.325 1_554 S
C13 C7 1.404 . S
C13 C15 1.366 1_554 S
C13 H21 0.930 1_554 S
C14 N12 1.325 1_556 S
C14 C15 1.416 . S
C14 H20 0.929 . S
C15 C13 1.366 1_556 S
C15 C14 1.416 . S
C15 H17 0.930 . S
H16 C5 0.930 . S
H17 C15 0.930 . S
H18 C33 0.930 . S
H19 C40 0.930 . S
H20 C14 0.929 . S
H21 C13 0.930 1_556 S
H22 C36 0.929 . S
H23 C3 0.931 . S
H24 C9 0.931 . S
H25 C10 0.931 . S
H26 C31 0.931 . S
H27 C6 0.929 . S
H28 C39 0.930 1_554 S
N29 Eu0 2.600 . S
N29 C30 1.365 . S
N29 C33 1.319 . S
C30 N29 1.365 . S
C30 C32 1.405 . S
C30 C38 1.448 . S
C31 H26 0.931 . S
C31 C33 1.397 . S
C31 C34 1.367 . S
C32 C30 1.405 . S
C32 C34 1.403 . S
C32 C65 1.439 . S
C33 H18 0.930 . S
C33 N29 1.319 . S
C33 C31 1.397 . S
C34 C31 1.367 . S
C34 C32 1.403 . S
C34 H41 0.929 . S
N35 Eu0 2.562 . S
N35 C36 1.325 1_556 S
N35 C38 1.351 . S
C36 H22 0.929 . S
C36 N35 1.325 1_554 S
C36 C40 1.416 . S
C37 C38 1.430 . S
C37 C39 1.404 . S
C37 C66 1.387 . S
C38 C30 1.448 . S
C38 N35 1.351 . S
C38 C37 1.430 . S
C39 H28 0.930 1_556 S
C39 C37 1.404 . S
C39 C40 1.366 1_556 S
C40 H19 0.930 . S
C40 C36 1.416 . S
C40 C39 1.366 1_554 S
H41 C34 0.929 . S
H42 C65 0.931 . S
H43 C66 0.931 . S
O44 Eu0 2.462 1_455 S
O44 C64 1.252 . S
O45 Eu0 2.373 . S
O45 C56 1.249 1_565 S
O46 Eu11 2.335 1_655 S
O46 C56 1.264 1_554 S
O47 Eu0 2.432 1_455 S
O47 C64 1.268 . S
O48 Eu0 2.291 1_554 S
O48 C63 1.255 1_565 S
O49 Eu11 2.372 1_655 S
O49 C63 1.257 . S
O50 Eu11 2.462 1_655 S
O50 C75 1.252 . S
O51 Eu11 2.373 . S
O51 C67 1.249 1_545 S
O52 Eu0 2.335 1_455 S
O52 C67 1.264 1_556 S
O53 Eu11 2.432 1_655 S
O53 C75 1.268 . S
O54 Eu11 2.291 1_556 S
O54 C74 1.255 1_545 S
O55 Eu0 2.372 1_455 S
O55 C74 1.257 . S
C56 O45 1.249 1_545 S
C56 O46 1.264 1_556 S
C57 C60 1.382 . S
C57 C62 1.390 . S
C57 C64 1.506 . S
C58 C59 1.398 . S
C58 C62 1.392 . S
C59 C58 1.398 . S
C59 C61 1.372 . S
C59 H76 0.931 . S
C60 C57 1.382 . S
C60 C61 1.390 . S
C60 H77 0.931 . S
C61 C59 1.372 . S
C61 C60 1.390 . S
C61 H78 0.929 . S
C62 C57 1.390 . S
C62 C58 1.392 . S
C62 H79 0.930 1_556 S
C63 O48 1.255 1_545 S
C63 O49 1.257 . S
C64 Eu0 2.787 1_455 S
C64 O44 1.252 . S
C64 O47 1.268 . S
C64 C57 1.506 . S
C65 C32 1.439 . S
C65 H42 0.931 . S
C65 C66 1.374 . S
C66 C37 1.387 . S
C66 H43 0.931 . S
C66 C65 1.374 . S
C67 O51 1.249 1_565 S
C67 O52 1.264 1_554 S
C68 C71 1.382 . S
C68 C72 1.390 . S
C68 C75 1.506 . S
C69 C70 1.398 . S
C69 C72 1.392 . S
C70 C69 1.398 . S
C70 C73 1.372 . S
C70 H80 0.931 . S
C71 C68 1.382 . S
C71 C73 1.390 . S
C71 H81 0.931 . S
C72 C68 1.390 . S
C72 C69 1.392 . S
C72 H82 0.930 1_554 S
C73 C70 1.372 . S
C73 C71 1.390 . S
C73 H83 0.929 . S
C74 O54 1.255 1_565 S
C74 O55 1.257 . S
C75 Eu11 2.787 1_655 S
C75 O50 1.252 . S
C75 O53 1.268 . S
C75 C68 1.506 . S
H76 C59 0.931 . S
H77 C60 0.931 . S
H78 C61 0.929 . S
H79 C62 0.930 1_554 S
H80 C70 0.931 . S
H81 C71 0.931 . S
H82 C72 0.930 1_556 S
H83 C73 0.929 . S
Eu84 N113 2.600 . S
Eu84 N119 2.562 . S
Eu84 O128 2.462 1_655 S
Eu84 O129 2.373 . S
Eu84 O131 2.432 1_655 S
Eu84 O132 2.291 . S
Eu84 O136 2.335 1_655 S
Eu84 O139 2.372 1_655 S
Eu84 C148 2.787 1_655 S
C85 N86 1.365 . S
C85 C88 1.405 . S
C85 C92 1.448 . S
N86 C85 1.365 . S
N86 C89 1.319 . S
N86 Eu95 2.600 . S
C87 C89 1.397 . S
C87 C90 1.367 . S
C87 H107 0.931 . S
C88 C85 1.405 . S
C88 C90 1.403 . S
C88 C94 1.439 . S
C89 N86 1.319 . S
C89 C87 1.397 . S
C89 H100 0.930 . S
C90 C87 1.367 . S
C90 C88 1.403 . S
C90 H111 0.929 . S
C91 C92 1.430 . S
C91 C93 1.387 . S
C91 C97 1.404 . S
C92 C85 1.448 . S
C92 C91 1.430 . S
C92 N96 1.351 . S
C93 C91 1.387 . S
C93 C94 1.374 . S
C93 H108 0.931 . S
C94 C88 1.439 . S
C94 C93 1.374 . S
C94 H109 0.931 . S
Eu95 N86 2.600 . S
Eu95 N96 2.562 . S
Eu95 O130 2.335 1_455 S
Eu95 O133 2.372 1_455 S
Eu95 O134 2.462 1_455 S
Eu95 O135 2.373 . S
Eu95 O137 2.432 1_455 S
Eu95 O138 2.291 . S
Eu95 C159 2.787 1_455 S
N96 C92 1.351 . S
N96 Eu95 2.562 . S
N96 C98 1.325 . S
C97 C91 1.404 . S
C97 C99 1.366 . S
C97 H105 0.930 . S
C98 N96 1.325 . S
C98 C99 1.416 . S
C98 H104 0.929 . S
C99 C97 1.366 . S
C99 C98 1.416 . S
C99 H101 0.930 . S
H100 C89 0.930 . S
H101 C99 0.930 . S
H102 C117 0.930 . S
H103 C124 0.930 . S
H104 C98 0.929 . S
H105 C97 0.930 . S
H106 C120 0.929 . S
H107 C87 0.931 . S
H108 C93 0.931 . S
H109 C94 0.931 . S
H110 C115 0.931 . S
H111 C90 0.929 . S
H112 C123 0.930 . S
N113 Eu84 2.600 . S
N113 C114 1.365 . S
N113 C117 1.319 . S
C114 N113 1.365 . S
C114 C116 1.405 . S
C114 C122 1.448 . S
C115 H110 0.931 . S
C115 C117 1.397 . S
C115 C118 1.367 . S
C116 C114 1.405 . S
C116 C118 1.403 . S
C116 C149 1.439 . S
C117 H102 0.930 . S
C117 N113 1.319 . S
C117 C115 1.397 . S
C118 C115 1.367 . S
C118 C116 1.403 . S
C118 H125 0.929 . S
N119 Eu84 2.562 . S
N119 C120 1.325 . S
N119 C122 1.351 . S
C120 H106 0.929 . S
C120 N119 1.325 . S
C120 C124 1.416 . S
C121 C122 1.430 . S
C121 C123 1.404 . S
C121 C150 1.387 . S
C122 C114 1.448 . S
C122 N119 1.351 . S
C122 C121 1.430 . S
C123 H112 0.930 . S
C123 C121 1.404 . S
C123 C124 1.366 . S
C124 H103 0.930 . S
C124 C120 1.416 . S
C124 C123 1.366 . S
H125 C118 0.929 . S
H126 C149 0.931 . S
H127 C150 0.931 . S
O128 Eu84 2.462 1_455 S
O128 C148 1.252 . S
O129 Eu84 2.373 . S
O129 C140 1.249 1_545 S
O130 Eu95 2.335 1_655 S
O130 C140 1.264 . S
O131 Eu84 2.432 1_455 S
O131 C148 1.268 . S
O132 Eu84 2.291 . S
O132 C147 1.255 1_545 S
O133 Eu95 2.372 1_655 S
O133 C147 1.257 . S
O134 Eu95 2.462 1_655 S
O134 C159 1.252 . S
O135 Eu95 2.373 . S
O135 C151 1.249 1_565 S
O136 Eu84 2.335 1_455 S
O136 C151 1.264 . S
O137 Eu95 2.432 1_655 S
O137 C159 1.268 . S
O138 Eu95 2.291 . S
O138 C158 1.255 1_565 S
O139 Eu84 2.372 1_455 S
O139 C158 1.257 . S
C140 O129 1.249 1_565 S
C140 O130 1.264 . S
C141 C144 1.382 . S
C141 C146 1.390 . S
C141 C148 1.506 . S
C142 C143 1.398 . S
C142 C146 1.392 . S
C143 C142 1.398 . S
C143 C145 1.372 . S
C143 H160 0.931 . S
C144 C141 1.382 . S
C144 C145 1.390 . S
C144 H161 0.931 . S
C145 C143 1.372 . S
C145 C144 1.390 . S
C145 H162 0.929 . S
C146 C141 1.390 . S
C146 C142 1.392 . S
C146 H163 0.930 . S
C147 O132 1.255 1_565 S
C147 O133 1.257 . S
C148 Eu84 2.787 1_455 S
C148 O128 1.252 . S
C148 O131 1.268 . S
C148 C141 1.506 . S
C149 C116 1.439 . S
C149 H126 0.931 . S
C149 C150 1.374 . S
C150 C121 1.387 . S
C150 H127 0.931 . S
C150 C149 1.374 . S
C151 O135 1.249 1_545 S
C151 O136 1.264 . S
C152 C155 1.382 . S
C152 C156 1.390 . S
C152 C159 1.506 . S
C153 C154 1.398 . S
C153 C156 1.392 . S
C154 C153 1.398 . S
C154 C157 1.372 . S
C154 H164 0.931 . S
C155 C152 1.382 . S
C155 C157 1.390 . S
C155 H165 0.931 . S
C156 C152 1.390 . S
C156 C153 1.392 . S
C156 H166 0.930 . S
C157 C154 1.372 . S
C157 C155 1.390 . S
C157 H167 0.929 . S
C158 O138 1.255 1_545 S
C158 O139 1.257 . S
C159 Eu95 2.787 1_655 S
C159 O134 1.252 . S
C159 O137 1.268 . S
C159 C152 1.506 . S
H160 C143 0.931 . S
H161 C144 0.931 . S
H162 C145 0.929 . S
H163 C146 0.930 . S
H164 C154 0.931 . S
H165 C155 0.931 . S
H166 C156 0.930 . S
H167 C157 0.929 . S
Eu168 N197 2.600 . S
Eu168 N203 2.562 . S
Eu168 O212 2.462 . S
Eu168 O213 2.373 . S
Eu168 O215 2.432 . S
Eu168 O216 2.291 1_556 S
Eu168 O220 2.335 . S
Eu168 O223 2.372 . S
Eu168 C232 2.787 . S
C169 N170 1.365 . S
C169 C172 1.405 . S
C169 C176 1.448 . S
N170 C169 1.365 . S
N170 C173 1.319 . S
N170 Eu179 2.600 . S
C171 C173 1.397 . S
C171 C174 1.367 . S
C171 H191 0.931 . S
C172 C169 1.405 . S
C172 C174 1.403 . S
C172 C178 1.439 . S
C173 N170 1.319 . S
C173 C171 1.397 . S
C173 H184 0.930 . S
C174 C171 1.367 . S
C174 C172 1.403 . S
C174 H195 0.929 . S
C175 C176 1.430 . S
C175 C177 1.387 . S
C175 C181 1.404 . S
C176 C169 1.448 . S
C176 C175 1.430 . S
C176 N180 1.351 . S
C177 C175 1.387 . S
C177 C178 1.374 . S
C177 H192 0.931 . S
C178 C172 1.439 . S
C178 C177 1.374 . S
C178 H193 0.931 . S
Eu179 N170 2.600 . S
Eu179 N180 2.562 . S
Eu179 O214 2.335 . S
Eu179 O217 2.372 . S
Eu179 O218 2.462 . S
Eu179 O219 2.373 . S
Eu179 O221 2.432 . S
Eu179 O222 2.291 1_554 S
Eu179 C243 2.787 . S
N180 C176 1.351 . S
N180 Eu179 2.562 . S
N180 C182 1.325 1_554 S
C181 C175 1.404 . S
C181 C183 1.366 1_554 S
C181 H189 0.930 1_554 S
C182 N180 1.325 1_556 S
C182 C183 1.416 . S
C182 H188 0.929 . S
C183 C181 1.366 1_556 S
C183 C182 1.416 . S
C183 H185 0.930 . S
H184 C173 0.930 . S
H185 C183 0.930 . S
H186 C201 0.930 . S
H187 C208 0.930 . S
H188 C182 0.929 . S
H189 C181 0.930 1_556 S
H190 C204 0.929 . S
H191 C171 0.931 . S
H192 C177 0.931 . S
H193 C178 0.931 . S
H194 C199 0.931 . S
H195 C174 0.929 . S
H196 C207 0.930 1_554 S
N197 Eu168 2.600 . S
N197 C198 1.365 . S
N197 C201 1.319 . S
C198 N197 1.365 . S
C198 C200 1.405 . S
C198 C206 1.448 . S
C199 H194 0.931 . S
C199 C201 1.397 . S
C199 C202 1.367 . S
C200 C198 1.405 . S
C200 C202 1.403 . S
C200 C233 1.439 . S
C201 H186 0.930 . S
C201 N197 1.319 . S
C201 C199 1.397 . S
C202 C199 1.367 . S
C202 C200 1.403 . S
C202 H209 0.929 . S
N203 Eu168 2.562 . S
N203 C204 1.325 1_556 S
N203 C206 1.351 . S
C204 H190 0.929 . S
C204 N203 1.325 1_554 S
C204 C208 1.416 . S
C205 C206 1.430 . S
C205 C207 1.404 . S
C205 C234 1.387 . S
C206 C198 1.448 . S
C206 N203 1.351 . S
C206 C205 1.430 . S
C207 H196 0.930 1_556 S
C207 C205 1.404 . S
C207 C208 1.366 1_556 S
C208 H187 0.930 . S
C208 C204 1.416 . S
C208 C207 1.366 1_554 S
H209 C202 0.929 . S
H210 C233 0.931 . S
H211 C234 0.931 . S
O212 Eu168 2.462 . S
O212 C232 1.252 . S
O213 Eu168 2.373 . S
O213 C224 1.249 . S
O214 Eu179 2.335 . S
O214 C224 1.264 1_554 S
O215 Eu168 2.432 . S
O215 C232 1.268 . S
O216 Eu168 2.291 1_554 S
O216 C231 1.255 . S
O217 Eu179 2.372 . S
O217 C231 1.257 . S
O218 Eu179 2.462 . S
O218 C243 1.252 . S
O219 Eu179 2.373 . S
O219 C235 1.249 . S
O220 Eu168 2.335 . S
O220 C235 1.264 1_556 S
O221 Eu179 2.432 . S
O221 C243 1.268 . S
O222 Eu179 2.291 1_556 S
O222 C242 1.255 . S
O223 Eu168 2.372 . S
O223 C242 1.257 . S
C224 O213 1.249 . S
C224 O214 1.264 1_556 S
C225 C228 1.382 . S
C225 C230 1.390 . S
C225 C232 1.506 . S
C226 C227 1.398 . S
C226 C230 1.392 . S
C227 C226 1.398 . S
C227 C229 1.372 . S
C227 H244 0.931 . S
C228 C225 1.382 . S
C228 C229 1.390 . S
C228 H245 0.931 . S
C229 C227 1.372 . S
C229 C228 1.390 . S
C229 H246 0.929 . S
C230 C225 1.390 . S
C230 C226 1.392 . S
C230 H247 0.930 1_556 S
C231 O216 1.255 . S
C231 O217 1.257 . S
C232 Eu168 2.787 . S
C232 O212 1.252 . S
C232 O215 1.268 . S
C232 C225 1.506 . S
C233 C200 1.439 . S
C233 H210 0.931 . S
C233 C234 1.374 . S
C234 C205 1.387 . S
C234 H211 0.931 . S
C234 C233 1.374 . S
C235 O219 1.249 . S
C235 O220 1.264 1_554 S
C236 C239 1.382 . S
C236 C240 1.390 . S
C236 C243 1.506 . S
C237 C238 1.398 . S
C237 C240 1.392 . S
C238 C237 1.398 . S
C238 C241 1.372 . S
C238 H248 0.931 . S
C239 C236 1.382 . S
C239 C241 1.390 . S
C239 H249 0.931 . S
C240 C236 1.390 . S
C240 C237 1.392 . S
C240 H250 0.930 1_554 S
C241 C238 1.372 . S
C241 C239 1.390 . S
C241 H251 0.929 . S
C242 O222 1.255 . S
C242 O223 1.257 . S
C243 Eu179 2.787 . S
C243 O218 1.252 . S
C243 O221 1.268 . S
C243 C236 1.506 . S
H244 C227 0.931 . S
H245 C228 0.931 . S
H246 C229 0.929 . S
H247 C230 0.930 1_554 S
H248 C238 0.931 . S
H249 C239 0.931 . S
H250 C240 0.930 1_556 S
H251 C241 0.929 . S
Eu252 N281 2.600 . S
Eu252 N287 2.562 . S
Eu252 O296 2.462 . S
Eu252 O297 2.373 . S
Eu252 O299 2.432 . S
Eu252 O300 2.291 . S
Eu252 O304 2.335 . S
Eu252 O307 2.372 . S
Eu252 C316 2.787 . S
C253 N254 1.365 . S
C253 C256 1.405 . S
C253 C260 1.448 . S
N254 C253 1.365 . S
N254 C257 1.319 . S
N254 Eu263 2.600 . S
C255 C257 1.397 . S
C255 C258 1.367 . S
C255 H275 0.931 . S
C256 C253 1.405 . S
C256 C258 1.403 . S
C256 C262 1.439 . S
C257 N254 1.319 . S
C257 C255 1.397 . S
C257 H268 0.930 . S
C258 C255 1.367 . S
C258 C256 1.403 . S
C258 H279 0.929 . S
C259 C260 1.430 . S
C259 C261 1.387 . S
C259 C265 1.404 . S
C260 C253 1.448 . S
C260 C259 1.430 . S
C260 N264 1.351 . S
C261 C259 1.387 . S
C261 C262 1.374 . S
C261 H276 0.931 . S
C262 C256 1.439 . S
C262 C261 1.374 . S
C262 H277 0.931 . S
Eu263 N254 2.600 . S
Eu263 N264 2.562 . S
Eu263 O298 2.335 . S
Eu263 O301 2.372 . S
Eu263 O302 2.462 . S
Eu263 O303 2.373 . S
Eu263 O305 2.432 . S
Eu263 O306 2.291 . S
Eu263 C327 2.787 . S
N264 C260 1.351 . S
N264 Eu263 2.562 . S
N264 C266 1.325 . S
C265 C259 1.404 . S
C265 C267 1.366 . S
C265 H273 0.930 . S
C266 N264 1.325 . S
C266 C267 1.416 . S
C266 H272 0.929 . S
C267 C265 1.366 . S
C267 C266 1.416 . S
C267 H269 0.930 . S
H268 C257 0.930 . S
H269 C267 0.930 . S
H270 C285 0.930 . S
H271 C292 0.930 . S
H272 C266 0.929 . S
H273 C265 0.930 . S
H274 C288 0.929 . S
H275 C255 0.931 . S
H276 C261 0.931 . S
H277 C262 0.931 . S
H278 C283 0.931 . S
H279 C258 0.929 . S
H280 C291 0.930 . S
N281 Eu252 2.600 . S
N281 C282 1.365 . S
N281 C285 1.319 . S
C282 N281 1.365 . S
C282 C284 1.405 . S
C282 C290 1.448 . S
C283 H278 0.931 . S
C283 C285 1.397 . S
C283 C286 1.367 . S
C284 C282 1.405 . S
C284 C286 1.403 . S
C284 C317 1.439 . S
C285 H270 0.930 . S
C285 N281 1.319 . S
C285 C283 1.397 . S
C286 C283 1.367 . S
C286 C284 1.403 . S
C286 H293 0.929 . S
N287 Eu252 2.562 . S
N287 C288 1.325 . S
N287 C290 1.351 . S
C288 H274 0.929 . S
C288 N287 1.325 . S
C288 C292 1.416 . S
C289 C290 1.430 . S
C289 C291 1.404 . S
C289 C318 1.387 . S
C290 C282 1.448 . S
C290 N287 1.351 . S
C290 C289 1.430 . S
C291 H280 0.930 . S
C291 C289 1.404 . S
C291 C292 1.366 . S
C292 H271 0.930 . S
C292 C288 1.416 . S
C292 C291 1.366 . S
H293 C286 0.929 . S
H294 C317 0.931 . S
H295 C318 0.931 . S
O296 Eu252 2.462 . S
O296 C316 1.252 . S
O297 Eu252 2.373 . S
O297 C308 1.249 . S
O298 Eu263 2.335 . S
O298 C308 1.264 . S
O299 Eu252 2.432 . S
O299 C316 1.268 . S
O300 Eu252 2.291 . S
O300 C315 1.255 . S
O301 Eu263 2.372 . S
O301 C315 1.257 . S
O302 Eu263 2.462 . S
O302 C327 1.252 . S
O303 Eu263 2.373 . S
O303 C319 1.249 . S
O304 Eu252 2.335 . S
O304 C319 1.264 . S
O305 Eu263 2.432 . S
O305 C327 1.268 . S
O306 Eu263 2.291 . S
O306 C326 1.255 . S
O307 Eu252 2.372 . S
O307 C326 1.257 . S
C308 O297 1.249 . S
C308 O298 1.264 . S
C309 C312 1.382 . S
C309 C314 1.390 . S
C309 C316 1.506 . S
C310 C311 1.398 . S
C310 C314 1.392 . S
C311 C310 1.398 . S
C311 C313 1.372 . S
C311 H328 0.931 . S
C312 C309 1.382 . S
C312 C313 1.390 . S
C312 H329 0.931 . S
C313 C311 1.372 . S
C313 C312 1.390 . S
C313 H330 0.929 . S
C314 C309 1.390 . S
C314 C310 1.392 . S
C314 H331 0.930 . S
C315 O300 1.255 . S
C315 O301 1.257 . S
C316 Eu252 2.787 . S
C316 O296 1.252 . S
C316 O299 1.268 . S
C316 C309 1.506 . S
C317 C284 1.439 . S
C317 H294 0.931 . S
C317 C318 1.374 . S
C318 C289 1.387 . S
C318 H295 0.931 . S
C318 C317 1.374 . S
C319 O303 1.249 . S
C319 O304 1.264 . S
C320 C323 1.382 . S
C320 C324 1.390 . S
C320 C327 1.506 . S
C321 C322 1.398 . S
C321 C324 1.392 . S
C322 C321 1.398 . S
C322 C325 1.372 . S
C322 H332 0.931 . S
C323 C320 1.382 . S
C323 C325 1.390 . S
C323 H333 0.931 . S
C324 C320 1.390 . S
C324 C321 1.392 . S
C324 H334 0.930 . S
C325 C322 1.372 . S
C325 C323 1.390 . S
C325 H335 0.929 . S
C326 O306 1.255 . S
C326 O307 1.257 . S
C327 Eu263 2.787 . S
C327 O302 1.252 . S
C327 O305 1.268 . S
C327 C320 1.506 . S
H328 C311 0.931 . S
H329 C312 0.931 . S
H330 C313 0.929 . S
H331 C314 0.930 . S
H332 C322 0.931 . S
H333 C323 0.931 . S
H334 C324 0.930 . S
H335 C325 0.929 . S
H336 C342 0.930 . S
H337 C346 0.930 . S
H338 C351 0.929 . S
H339 C349 0.929 . S
H340 C344 0.929 . S
H341 C350 0.929 . S
C342 H336 0.930 . S
C342 C343 1.363 1_554 S
C342 C350 1.378 . S
C343 C342 1.363 1_556 S
C343 C351 1.447 . S
C344 H340 0.929 . S
C344 C346 1.378 . S
C344 C348 1.351 1_556 S
C345 C348 1.451 . S
C345 C350 1.365 . S
C345 N353 1.423 1_554 S
C346 H337 0.930 . S
C346 C344 1.378 . S
C346 C347 1.367 1_556 S
C347 C346 1.367 1_554 S
C347 C349 1.433 . S
C348 C344 1.351 1_554 S
C348 C345 1.451 . S
C348 N352 1.427 . S
C349 H339 0.929 . S
C349 C347 1.433 . S
C349 N352 1.384 . S
C350 H341 0.929 . S
C350 C342 1.378 . S
C350 C345 1.365 . S
C351 H338 0.929 . S
C351 C343 1.447 . S
C351 N353 1.384 . S
N352 C348 1.427 . S
N352 C349 1.384 . S
N353 C345 1.423 1_556 S
N353 C351 1.384 . S
H354 C360 0.930 . S
H355 C364 0.930 . S
H356 C369 0.929 . S
H357 C367 0.929 . S
H358 C362 0.929 . S
H359 C368 0.929 . S
C360 H354 0.930 . S
C360 C361 1.367 1_556 S
C360 C368 1.378 . S
C361 C360 1.367 1_554 S
C361 C369 1.433 . S
C362 H358 0.929 . S
C362 C364 1.378 . S
C362 C366 1.350 . S
C363 C366 1.456 1_556 S
C363 C368 1.364 . S
C363 N371 1.419 1_556 S
C364 H355 0.930 . S
C364 C362 1.378 . S
C364 C365 1.361 1_554 S
C365 C364 1.361 1_556 S
C365 C367 1.443 . S
C366 C362 1.350 . S
C366 C363 1.456 1_554 S
C366 N370 1.427 1_554 S
C367 H357 0.929 . S
C367 C365 1.443 . S
C367 N370 1.384 . S
C368 H359 0.929 . S
C368 C360 1.378 . S
C368 C363 1.364 . S
C369 H356 0.929 . S
C369 C361 1.433 . S
C369 N371 1.384 . S
N370 C366 1.427 1_556 S
N370 C367 1.384 . S
N371 C363 1.419 1_554 S
N371 C369 1.384 . S
H372 C378 0.930 . S
H373 C382 0.930 . S
H374 C387 0.929 . S
H375 C385 0.929 . S
H376 C380 0.929 . S
H377 C386 0.929 . S
C378 H372 0.930 . S
C378 C379 1.367 . S
C378 C386 1.378 . S
C379 C378 1.367 . S
C379 C387 1.433 . S
C380 H376 0.929 . S
C380 C382 1.378 . S
C380 C384 1.350 . S
C381 C384 1.463 . S
C381 C386 1.350 . S
C381 N389 1.427 . S
C382 H373 0.930 . S
C382 C380 1.378 . S
C382 C383 1.367 . S
C383 C382 1.367 . S
C383 C385 1.433 . S
C384 C380 1.350 . S
C384 C381 1.463 . S
C384 N388 1.427 . S
C385 H375 0.929 . S
C385 C383 1.433 . S
C385 N388 1.384 . S
C386 H377 0.929 . S
C386 C378 1.378 . S
C386 C381 1.350 . S
C387 H374 0.929 . S
C387 C379 1.433 . S
C387 N389 1.384 . S
N388 C384 1.427 . S
N388 C385 1.384 . S
N389 C381 1.427 . S
N389 C387 1.384 . S
H390 C396 0.930 . S
H391 C400 0.930 . S
H392 C405 0.929 . S
H393 C403 0.929 . S
H394 C398 0.929 . S
H395 C404 0.929 . S
C396 H390 0.930 . S
C396 C397 1.367 . S
C396 C404 1.378 . S
C397 C396 1.367 . S
C397 C405 1.433 . S
C398 H394 0.929 . S
C398 C400 1.378 . S
C398 C402 1.350 . S
C399 C402 1.463 . S
C399 C404 1.350 . S
C399 N407 1.427 . S
C400 H391 0.930 . S
C400 C398 1.378 . S
C400 C401 1.367 . S
C401 C400 1.367 . S
C401 C403 1.433 . S
C402 C398 1.350 . S
C402 C399 1.463 . S
C402 N406 1.427 . S
C403 H393 0.929 . S
C403 C401 1.433 . S
C403 N406 1.384 . S
C404 H395 0.929 . S
C404 C396 1.378 . S
C404 C399 1.350 . S
C405 H392 0.929 . S
C405 C397 1.433 . S
C405 N407 1.384 . S
N406 C402 1.427 . S
N406 C403 1.384 . S
N407 C399 1.427 . S
N407 C405 1.384 . S
H408 C414 0.930 . S
H409 C418 0.930 . S
H410 C423 0.929 . S
H411 C421 0.929 . S
H412 C416 0.929 . S
H413 C422 0.929 . S
C414 H408 0.930 . S
C414 C415 1.366 1_545 S
C414 C422 1.378 . S
C415 C414 1.366 1_565 S
C415 C423 1.434 1_554 S
C416 H412 0.929 . S
C416 C418 1.378 . S
C416 C420 1.335 1_566 S
C417 C420 1.462 . S
C417 C422 1.374 . S
C417 N425 1.402 1_544 S
C418 H409 0.930 . S
C418 C416 1.378 . S
C418 C419 1.369 1_566 S
C419 C418 1.369 1_544 S
C419 C421 1.431 . S
C420 C416 1.335 1_544 S
C420 C417 1.462 . S
C420 N424 1.443 . S
C421 H411 0.929 . S
C421 C419 1.431 . S
C421 N424 1.384 . S
C422 H413 0.929 . S
C422 C414 1.378 . S
C422 C417 1.374 . S
C423 H410 0.929 . S
C423 C415 1.434 1_556 S
C423 N425 1.384 . S
N424 C420 1.443 . S
N424 C421 1.384 . S
N425 C417 1.402 1_566 S
N425 C423 1.384 . S
H426 C432 0.930 . S
H427 C436 0.930 . S
H428 C441 0.929 . S
H429 C439 0.929 . S
H430 C434 0.929 . S
H431 C440 0.929 . S
C432 H426 0.930 . S
C432 C433 1.367 1_565 S
C432 C440 1.378 . S
C433 C432 1.367 1_545 S
C433 C441 1.433 . S
C434 H430 0.929 . S
C434 C436 1.378 . S
C434 C438 1.351 . S
C435 C438 1.462 . S
C435 C440 1.350 1_545 S
C435 N443 1.427 . S
C436 H427 0.930 . S
C436 C434 1.378 . S
C436 C437 1.367 1_545 S
C437 C436 1.367 1_565 S
C437 C439 1.433 . S
C438 C434 1.351 . S
C438 C435 1.462 . S
C438 N442 1.427 1_545 S
C439 H429 0.929 . S
C439 C437 1.433 . S
C439 N442 1.384 . S
C440 H431 0.929 . S
C440 C432 1.378 . S
C440 C435 1.350 1_565 S
C441 H428 0.929 . S
C441 C433 1.433 . S
C441 N443 1.384 . S
N442 C438 1.427 1_565 S
N442 C439 1.384 . S
N443 C435 1.427 . S
N443 C441 1.384 . S
H444 C450 0.930 . S
H445 C454 0.930 . S
H446 C459 0.929 . S
H447 C457 0.929 . S
H448 C452 0.929 . S
H449 C458 0.929 . S
C450 H444 0.930 . S
C450 C451 1.386 . S
C450 C458 1.378 . S
C451 C450 1.386 . S
C451 C459 1.414 1_556 S
C452 H448 0.929 . S
C452 C454 1.378 . S
C452 C456 1.350 . S
C453 C456 1.462 1_656 S
C453 C458 1.367 . S
C453 N461 1.410 1_556 S
C454 H445 0.930 . S
C454 C452 1.378 . S
C454 C455 1.367 . S
C455 C454 1.367 . S
C455 C457 1.433 1_554 S
C456 C452 1.350 . S
C456 C453 1.462 1_454 S
C456 N460 1.427 1_554 S
C457 H447 0.929 . S
C457 C455 1.433 1_556 S
C457 N460 1.384 . S
C458 H449 0.929 . S
C458 C450 1.378 . S
C458 C453 1.367 . S
C459 H446 0.929 . S
C459 C451 1.414 1_554 S
C459 N461 1.384 . S
N460 C456 1.427 1_556 S
N460 C457 1.384 . S
N461 C453 1.410 1_554 S
N461 C459 1.384 . S
H462 C468 0.930 . S
H463 C472 0.930 . S
H464 C477 0.929 . S
H465 C475 0.929 . S
H466 C470 0.929 . S
H467 C476 0.929 . S
C468 H462 0.930 . S
C468 C469 1.367 . S
C468 C476 1.378 . S
C469 C468 1.367 . S
C469 C477 1.433 . S
C470 H466 0.929 . S
C470 C472 1.378 . S
C470 C474 1.350 . S
C471 C474 1.463 1_455 S
C471 C476 1.350 . S
C471 N479 1.427 . S
C472 H463 0.930 . S
C472 C470 1.378 . S
C472 C473 1.367 . S
C473 C472 1.367 . S
C473 C475 1.433 . S
C474 C470 1.350 . S
C474 C471 1.463 1_655 S
C474 N478 1.427 . S
C475 H465 0.929 . S
C475 C473 1.433 . S
C475 N478 1.384 . S
C476 H467 0.929 . S
C476 C468 1.378 . S
C476 C471 1.350 . S
C477 H464 0.929 . S
C477 C469 1.433 . S
C477 N479 1.384 . S
N478 C474 1.427 . S
N478 C475 1.384 . S
N479 C471 1.427 . S
N479 C477 1.384 . S
H480 C486 0.930 . S
H481 C490 0.930 . S
H482 C495 0.929 . S
H483 C493 0.929 . S
H484 C488 0.929 . S
H485 C494 0.929 . S
C486 H480 0.930 . S
C486 C487 1.366 1_455 S
C486 C494 1.378 . S
C487 C486 1.366 1_655 S
C487 C495 1.434 1_545 S
C488 H484 0.929 . S
C488 C490 1.378 . S
C488 C492 1.358 . S
C489 C492 1.468 1_545 S
C489 C494 1.349 1_655 S
C489 N497 1.428 1_545 S
C490 H481 0.930 . S
C490 C488 1.378 . S
C490 C491 1.385 . S
C491 C490 1.385 . S
C491 C493 1.422 1_665 S
C492 C488 1.358 . S
C492 C489 1.468 1_565 S
C492 N496 1.413 1_665 S
C493 H483 0.929 . S
C493 C491 1.422 1_445 S
C493 N496 1.384 . S
C494 H485 0.929 . S
C494 C486 1.378 . S
C494 C489 1.349 1_455 S
C495 H482 0.929 . S
C495 C487 1.434 1_565 S
C495 N497 1.384 . S
N496 C492 1.413 1_445 S
N496 C493 1.384 . S
N497 C489 1.428 1_565 S
N497 C495 1.384 . S
H498 C504 0.930 . S
H499 C508 0.930 . S
H500 C513 0.929 . S
H501 C511 0.929 . S
H502 C506 0.929 . S
H503 C512 0.929 . S
C504 H498 0.930 . S
C504 C505 1.367 . S
C504 C512 1.378 . S
C505 C504 1.367 . S
C505 C513 1.433 1_445 S
C506 H502 0.929 . S
C506 C508 1.378 . S
C506 C510 1.355 . S
C507 C510 1.466 1_445 S
C507 C512 1.350 . S
C507 N515 1.427 1_445 S
C508 H499 0.930 . S
C508 C506 1.378 . S
C508 C509 1.379 1_655 S
C509 C508 1.379 1_455 S
C509 C511 1.427 1_565 S
C510 C506 1.355 . S
C510 C507 1.466 1_665 S
C510 N514 1.418 1_665 S
C511 H501 0.929 . S
C511 C509 1.427 1_545 S
C511 N514 1.384 . S
C512 H503 0.929 . S
C512 C504 1.378 . S
C512 C507 1.350 . S
C513 H500 0.929 . S
C513 C505 1.433 1_665 S
C513 N515 1.384 . S
N514 C510 1.418 1_445 S
N514 C511 1.384 . S
N515 C507 1.427 1_665 S
N515 C513 1.384 . S
H516 C522 0.930 . S
H517 C526 0.930 . S
H518 C531 0.929 . S
H519 C529 0.929 . S
H520 C524 0.929 . S
H521 C530 0.929 . S
C522 H516 0.930 . S
C522 C523 1.367 . S
C522 C530 1.378 . S
C523 C522 1.367 . S
C523 C531 1.433 . S
C524 H520 0.929 . S
C524 C526 1.378 . S
C524 C528 1.350 . S
C525 C528 1.463 . S
C525 C530 1.350 . S
C525 N533 1.427 . S
C526 H517 0.930 . S
C526 C524 1.378 . S
C526 C527 1.367 . S
C527 C526 1.367 . S
C527 C529 1.433 . S
C528 C524 1.350 . S
C528 C525 1.463 . S
C528 N532 1.427 . S
C529 H519 0.929 . S
C529 C527 1.433 . S
C529 N532 1.384 . S
C530 H521 0.929 . S
C530 C522 1.378 . S
C530 C525 1.350 . S
C531 H518 0.929 . S
C531 C523 1.433 . S
C531 N533 1.384 . S
N532 C528 1.427 . S
N532 C529 1.384 . S
N533 C525 1.427 . S
N533 C531 1.384 . S
H534 C540 0.930 . S
H535 C544 0.930 . S
H536 C549 0.929 . S
H537 C547 0.929 . S
H538 C542 0.929 . S
H539 C548 0.929 . S
C540 H534 0.930 . S
C540 C541 1.367 . S
C540 C548 1.378 . S
C541 C540 1.367 . S
C541 C549 1.433 . S
C542 H538 0.929 . S
C542 C544 1.378 . S
C542 C546 1.350 . S
C543 C546 1.463 . S
C543 C548 1.350 . S
C543 N551 1.427 . S
C544 H535 0.930 . S
C544 C542 1.378 . S
C544 C545 1.367 . S
C545 C544 1.367 . S
C545 C547 1.433 . S
C546 C542 1.350 . S
C546 C543 1.463 . S
C546 N550 1.427 . S
C547 H537 0.929 . S
C547 C545 1.433 . S
C547 N550 1.384 . S
C548 H539 0.929 . S
C548 C540 1.378 . S
C548 C543 1.350 . S
C549 H536 0.929 . S
C549 C541 1.433 . S
C549 N551 1.384 . S
N550 C546 1.427 . S
N550 C547 1.384 . S
N551 C543 1.427 . S
N551 C549 1.384 . S
C343 C237 1.382 1_556 S
C347 C58 1.399 1_554 S
C361 C226 1.396 1_554 S
C365 C69 1.389 1_556 S
C379 C142 1.398 . S
C383 C321 1.398 . S
C397 C153 1.418 . S
C401 C310 1.418 . S
C415 C67 1.961 . S
C419 C56 1.960 1_554 S
C433 C151 1.961 . S
C437 C140 1.961 . S
C451 C235 1.961 1_556 S
C455 C224 1.963 1_554 S
C469 C308 1.962 . S
C473 C319 1.962 . S
C487 C147 1.485 1_545 S
C491 C63 1.475 1_565 S
C505 C74 1.481 1_545 S
C509 C158 1.477 1_565 S
C523 C315 1.485 . S
C527 C231 1.480 . S
C541 C326 1.476 . S
C545 C242 1.481 . S
