# Generated by pormake.
# Topology pcl, (4)-cn, num edge types: 1
# Building blocks:
#     Node 0, Type 0, BuildingBlock: TATPOV_clean_sbu_0, # of connection points: 4
#     Node 1, Type 0, BuildingBlock: TATPOV_clean_sbu_0, # of connection points: 4
#     Node 2, Type 0, BuildingBlock: TATPOV_clean_sbu_0, # of connection points: 4
#     Node 3, Type 0, BuildingBlock: TATPOV_clean_sbu_0, # of connection points: 4
#     Node 4, Type 0, BuildingBlock: TATPOV_clean_sbu_0, # of connection points: 4
#     Node 5, Type 0, BuildingBlock: TATPOV_clean_sbu_0, # of connection points: 4
#     Node 6, Type 0, BuildingBlock: TATPOV_clean_sbu_0, # of connection points: 4
#     Node 7, Type 0, BuildingBlock: TATPOV_clean_sbu_0, # of connection points: 4
#     Node 8, Type 0, BuildingBlock: TATPOV_clean_sbu_0, # of connection points: 4
#     Node 9, Type 0, BuildingBlock: TATPOV_clean_sbu_0, # of connection points: 4
#     Node 10, Type 0, BuildingBlock: TATPOV_clean_sbu_0, # of connection points: 4
#     Node 11, Type 0, BuildingBlock: TATPOV_clean_sbu_0, # of connection points: 4
#     Node 12, Type 0, BuildingBlock: TATPOV_clean_sbu_0, # of connection points: 4
#     Node 13, Type 0, BuildingBlock: TATPOV_clean_sbu_0, # of connection points: 4
#     Node 14, Type 0, BuildingBlock: TATPOV_clean_sbu_0, # of connection points: 4
#     Node 15, Type 0, BuildingBlock: TATPOV_clean_sbu_0, # of connection points: 4
#     Edge 16, Type (0, 0), BuildingBlock: XUDNAN_clean_linker_2, # of connection points: 2
#     Edge 17, Type (0, 0), BuildingBlock: XUDNAN_clean_linker_2, # of connection points: 2
#     Edge 18, Type (0, 0), BuildingBlock: XUDNAN_clean_linker_2, # of connection points: 2
#     Edge 19, Type (0, 0), BuildingBlock: XUDNAN_clean_linker_2, # of connection points: 2
#     Edge 20, Type (0, 0), BuildingBlock: XUDNAN_clean_linker_2, # of connection points: 2
#     Edge 21, Type (0, 0), BuildingBlock: XUDNAN_clean_linker_2, # of connection points: 2
#     Edge 22, Type (0, 0), BuildingBlock: XUDNAN_clean_linker_2, # of connection points: 2
#     Edge 23, Type (0, 0), BuildingBlock: XUDNAN_clean_linker_2, # of connection points: 2
#     Edge 24, Type (0, 0), BuildingBlock: XUDNAN_clean_linker_2, # of connection points: 2
#     Edge 25, Type (0, 0), BuildingBlock: XUDNAN_clean_linker_2, # of connection points: 2
#     Edge 26, Type (0, 0), BuildingBlock: XUDNAN_clean_linker_2, # of connection points: 2
#     Edge 27, Type (0, 0), BuildingBlock: XUDNAN_clean_linker_2, # of connection points: 2
#     Edge 28, Type (0, 0), BuildingBlock: XUDNAN_clean_linker_2, # of connection points: 2
#     Edge 29, Type (0, 0), BuildingBlock: XUDNAN_clean_linker_2, # of connection points: 2
#     Edge 30, Type (0, 0), BuildingBlock: XUDNAN_clean_linker_2, # of connection points: 2
#     Edge 31, Type (0, 0), BuildingBlock: XUDNAN_clean_linker_2, # of connection points: 2
#     Edge 32, Type (0, 0), BuildingBlock: XUDNAN_clean_linker_2, # of connection points: 2
#     Edge 33, Type (0, 0), BuildingBlock: XUDNAN_clean_linker_2, # of connection points: 2
#     Edge 34, Type (0, 0), BuildingBlock: XUDNAN_clean_linker_2, # of connection points: 2
#     Edge 35, Type (0, 0), BuildingBlock: XUDNAN_clean_linker_2, # of connection points: 2
#     Edge 36, Type (0, 0), BuildingBlock: XUDNAN_clean_linker_2, # of connection points: 2
#     Edge 37, Type (0, 0), BuildingBlock: XUDNAN_clean_linker_2, # of connection points: 2
#     Edge 38, Type (0, 0), BuildingBlock: XUDNAN_clean_linker_2, # of connection points: 2
#     Edge 39, Type (0, 0), BuildingBlock: XUDNAN_clean_linker_2, # of connection points: 2
#     Edge 40, Type (0, 0), BuildingBlock: XUDNAN_clean_linker_2, # of connection points: 2
#     Edge 41, Type (0, 0), BuildingBlock: XUDNAN_clean_linker_2, # of connection points: 2
#     Edge 42, Type (0, 0), BuildingBlock: XUDNAN_clean_linker_2, # of connection points: 2
#     Edge 43, Type (0, 0), BuildingBlock: XUDNAN_clean_linker_2, # of connection points: 2
#     Edge 44, Type (0, 0), BuildingBlock: XUDNAN_clean_linker_2, # of connection points: 2
#     Edge 45, Type (0, 0), BuildingBlock: XUDNAN_clean_linker_2, # of connection points: 2
#     Edge 46, Type (0, 0), BuildingBlock: XUDNAN_clean_linker_2, # of connection points: 2
#     Edge 47, Type (0, 0), BuildingBlock: XUDNAN_clean_linker_2, # of connection points: 2
# Relax obj value: 0.053
# Max RMSD: 0.064
# Mean RMSD: 0.055
data_MOF--net-pcl--node1-TATPOV_clean_sbu_0--edge1-XUDNAN_clean_linker_2
_symmetry_space_group_name_H-M    P1
_symmetry_Int_Tables_number       1
_symmetry_cell_setting            triclinic
loop_
_symmetry_equiv_pos_as_xyz
'x, y, z'
_cell_length_a     43.861774
_cell_length_b     49.25342
_cell_length_c     44.624867
_cell_angle_alpha  90.055245
_cell_angle_beta   89.91033
_cell_angle_gamma 90.034158
loop_
_atom_site_label
_atom_site_type_symbol
_atom_site_fract_x
_atom_site_fract_y
_atom_site_fract_z
_atom_type_partial_charge
Zn0 Zn 0.14629 0.40133 0.11981 0.0
Zn1 Zn 0.16464 0.36676 0.07872 0.0
O2 O 0.17627 0.40494 0.06203 0.0
O3 O 0.16267 0.43328 0.09783 0.0
O4 O 0.18138 0.3418 0.04669 0.0
O5 O 0.17276 0.38436 0.1504 0.0
O6 O 0.18857 0.35463 0.11684 0.0
C7 C 0.17459 0.42904 0.07246 0.0
C8 C 0.09673 0.37055 0.09479 0.0
O9 O 0.11788 0.35946 0.07937 0.0
O10 O 0.10326 0.3889 0.1136 0.0
C11 C 0.18513 0.31642 0.05046 0.0
O12 O 0.17665 0.30531 0.0759 0.0
C13 C 0.1892 0.3643 0.14335 0.0
Zn14 Zn 0.86002 0.59841 0.61104 0.0
Zn15 Zn 0.84696 0.64254 0.57895 0.0
O16 O 0.83182 0.6105 0.55267 0.0
O17 O 0.84328 0.57421 0.57907 0.0
O18 O 0.8355 0.67609 0.55574 0.0
O19 O 0.83191 0.61109 0.64358 0.0
O20 O 0.82381 0.649 0.61872 0.0
C21 C 0.83205 0.58474 0.55573 0.0
C22 C 0.9133 0.62987 0.59535 0.0
O23 O 0.89385 0.64475 0.58195 0.0
O24 O 0.90448 0.60926 0.60998 0.0
C25 C 0.81144 0.6772 0.53992 0.0
O26 O 0.79413 0.65554 0.53754 0.0
C27 C 0.81937 0.63414 0.64164 0.0
Zn28 Zn 0.14487 0.59993 0.88308 0.0
Zn29 Zn 0.15827 0.64092 0.91944 0.0
O30 O 0.17324 0.60582 0.9406 0.0
O31 O 0.15999 0.57176 0.91151 0.0
O32 O 0.17166 0.67025 0.94834 0.0
O33 O 0.17366 0.61493 0.85258 0.0
O34 O 0.181 0.6514 0.88028 0.0
C35 C 0.17206 0.58035 0.93542 0.0
C36 C 0.09193 0.63071 0.90201 0.0
O37 O 0.11123 0.64405 0.91753 0.0
O38 O 0.10092 0.61176 0.88494 0.0
C39 C 0.17024 0.66602 0.97641 0.0
O40 O 0.15826 0.64321 0.98613 0.0
C41 C 0.1858 0.63798 0.8563 0.0
Zn42 Zn 0.85822 0.41288 0.3642 0.0
Zn43 Zn 0.84315 0.37847 0.4076 0.0
O44 O 0.82803 0.41538 0.42386 0.0
O45 O 0.83652 0.44301 0.38595 0.0
O46 O 0.83003 0.35095 0.43853 0.0
O47 O 0.83624 0.39063 0.33363 0.0
O48 O 0.82047 0.36395 0.37014 0.0
C49 C 0.82637 0.43896 0.41214 0.0
C50 C 0.91053 0.38821 0.39173 0.0
O51 O 0.89035 0.37544 0.40678 0.0
O52 O 0.90249 0.40565 0.37248 0.0
C53 C 0.83828 0.32662 0.43357 0.0
O54 O 0.85565 0.32161 0.41018 0.0
C55 C 0.82079 0.37054 0.34257 0.0
Zn56 Zn 0.8214 0.58321 0.87083 0.0
Zn57 Zn 0.80096 0.6202 0.90771 0.0
O58 O 0.78443 0.63263 0.86621 0.0
O59 O 0.79845 0.59898 0.83679 0.0
O60 O 0.78027 0.64649 0.93576 0.0
O61 O 0.80285 0.55223 0.89263 0.0
O62 O 0.78631 0.58285 0.92473 0.0
C63 C 0.78476 0.62129 0.84052 0.0
C64 C 0.86931 0.61541 0.89853 0.0
O65 O 0.84729 0.62706 0.91211 0.0
O66 O 0.86393 0.59639 0.88013 0.0
C67 C 0.78446 0.67202 0.93503 0.0
O68 O 0.80438 0.68217 0.91609 0.0
C69 C 0.78841 0.55814 0.91626 0.0
Zn70 Zn 0.18624 0.42372 0.37079 0.0
Zn71 Zn 0.20137 0.38232 0.4062 0.0
O72 O 0.21807 0.37055 0.36495 0.0
O73 O 0.21036 0.40678 0.33716 0.0
O74 O 0.2172 0.35345 0.43399 0.0
O75 O 0.20562 0.45152 0.39763 0.0
O76 O 0.21926 0.41697 0.42573 0.0
C77 C 0.22072 0.38294 0.34005 0.0
C78 C 0.13434 0.39349 0.39509 0.0
O79 O 0.15464 0.37967 0.40864 0.0
O80 O 0.14215 0.41265 0.37772 0.0
C81 C 0.22028 0.32866 0.42669 0.0
O82 O 0.21141 0.32059 0.40002 0.0
C83 C 0.21903 0.44245 0.4206 0.0
Zn84 Zn 0.82107 0.39858 0.11179 0.0
Zn85 Zn 0.80635 0.35534 0.07953 0.0
O86 O 0.78943 0.34743 0.12203 0.0
O87 O 0.79718 0.38534 0.14709 0.0
O88 O 0.79066 0.32317 0.05609 0.0
O89 O 0.80181 0.4241 0.08273 0.0
O90 O 0.78889 0.38829 0.05612 0.0
C91 C 0.78656 0.36152 0.1458 0.0
C92 C 0.87328 0.36719 0.09049 0.0
O93 O 0.85323 0.35259 0.0775 0.0
O94 O 0.86514 0.38723 0.10646 0.0
C95 C 0.79269 0.29947 0.06718 0.0
O96 O 0.80654 0.29631 0.09303 0.0
C97 C 0.78906 0.41399 0.0599 0.0
Zn98 Zn 0.18889 0.59601 0.62067 0.0
Zn99 Zn 0.2045 0.63885 0.58868 0.0
O100 O 0.22059 0.64731 0.63155 0.0
O101 O 0.20982 0.61025 0.65694 0.0
O102 O 0.22009 0.67103 0.56518 0.0
O103 O 0.21152 0.57058 0.59405 0.0
O104 O 0.22264 0.60571 0.5655 0.0
C105 C 0.22136 0.63374 0.65585 0.0
C106 C 0.13717 0.62615 0.59734 0.0
O107 O 0.15769 0.64139 0.58604 0.0
O108 O 0.14474 0.60561 0.61273 0.0
C109 C 0.21726 0.69483 0.57592 0.0
O110 O 0.20295 0.69803 0.60157 0.0
C111 C 0.22396 0.58027 0.57085 0.0
Zn112 Zn 0.63341 0.8966 0.11779 0.0
Zn113 Zn 0.64544 0.85294 0.08355 0.0
O114 O 0.6593 0.88541 0.05762 0.0
O115 O 0.65047 0.9212 0.08591 0.0
O116 O 0.65664 0.81998 0.05892 0.0
O117 O 0.6608 0.88214 0.15 0.0
O118 O 0.67057 0.84627 0.12196 0.0
C119 C 0.66002 0.91105 0.06158 0.0
C120 C 0.57955 0.86576 0.10229 0.0
O121 O 0.59853 0.85067 0.08837 0.0
O122 O 0.58893 0.8863 0.1167 0.0
C123 C 0.68183 0.81921 0.04477 0.0
O124 O 0.6998 0.84056 0.04535 0.0
C125 C 0.67428 0.85974 0.14603 0.0
Zn126 Zn 0.36677 0.10173 0.60996 0.0
Zn127 Zn 0.35111 0.14552 0.57884 0.0
O128 O 0.33796 0.11313 0.5519 0.0
O129 O 0.35181 0.0771 0.57762 0.0
O130 O 0.33662 0.17909 0.55716 0.0
O131 O 0.33818 0.11173 0.64305 0.0
O132 O 0.32816 0.14981 0.61925 0.0
C133 C 0.33992 0.08739 0.55446 0.0
C134 C 0.41801 0.13623 0.59497 0.0
O135 O 0.39785 0.15025 0.58144 0.0
O136 O 0.41027 0.11514 0.60935 0.0
C137 C 0.32405 0.17965 0.5315 0.0
O138 O 0.32099 0.15702 0.51623 0.0
C139 C 0.32456 0.13432 0.64182 0.0
Zn140 Zn 0.64234 0.08637 0.86927 0.0
Zn141 Zn 0.65868 0.12004 0.91287 0.0
O142 O 0.66969 0.08147 0.92828 0.0
O143 O 0.65753 0.05384 0.89136 0.0
O144 O 0.67494 0.14384 0.946 0.0
O145 O 0.67061 0.10464 0.84064 0.0
O146 O 0.68285 0.13408 0.87583 0.0
C147 C 0.66826 0.05755 0.91732 0.0
C148 C 0.59167 0.1164 0.89525 0.0
O149 O 0.61215 0.12689 0.91192 0.0
O150 O 0.59904 0.09921 0.87537 0.0
C151 C 0.67969 0.16911 0.9425 0.0
O152 O 0.6721 0.18061 0.91702 0.0
C153 C 0.68551 0.12522 0.84913 0.0
Zn154 Zn 0.35916 0.90444 0.36898 0.0
Zn155 Zn 0.34263 0.87465 0.41553 0.0
O156 O 0.33272 0.91385 0.4286 0.0
O157 O 0.34236 0.93824 0.38837 0.0
O158 O 0.32723 0.85224 0.45023 0.0
O159 O 0.33343 0.88248 0.34132 0.0
O160 O 0.31594 0.8602 0.38055 0.0
C161 C 0.33309 0.93671 0.41519 0.0
C162 C 0.40982 0.87711 0.39645 0.0
O163 O 0.38931 0.86716 0.41356 0.0
O164 O 0.40248 0.89367 0.37602 0.0
C165 C 0.32386 0.82669 0.44768 0.0
O166 O 0.33222 0.81476 0.42263 0.0
C167 C 0.31588 0.86483 0.35249 0.0
Zn168 Zn 0.31663 0.08311 0.87793 0.0
Zn169 Zn 0.30059 0.12494 0.91051 0.0
O170 O 0.28504 0.13401 0.86744 0.0
O171 O 0.296 0.0972 0.84169 0.0
O172 O 0.28489 0.157 0.93442 0.0
O173 O 0.29423 0.05681 0.90338 0.0
O174 O 0.28162 0.09127 0.93238 0.0
C175 C 0.28447 0.12068 0.84294 0.0
C176 C 0.36818 0.11276 0.90172 0.0
O177 O 0.34762 0.12748 0.91379 0.0
O178 O 0.36064 0.09266 0.8856 0.0
C179 C 0.28852 0.18078 0.92388 0.0
O180 O 0.30341 0.18373 0.89852 0.0
C181 C 0.28078 0.06591 0.92633 0.0
Zn182 Zn 0.68153 0.91875 0.36935 0.0
Zn183 Zn 0.69991 0.88142 0.40802 0.0
O184 O 0.71609 0.86795 0.36691 0.0
O185 O 0.70448 0.90115 0.33592 0.0
O186 O 0.71896 0.85473 0.43639 0.0
O187 O 0.70116 0.94908 0.39208 0.0
O188 O 0.71541 0.91824 0.42486 0.0
C189 C 0.71685 0.87844 0.34085 0.0
C190 C 0.63225 0.88781 0.39788 0.0
O191 O 0.65362 0.8761 0.41223 0.0
O192 O 0.63849 0.90612 0.37885 0.0
C193 C 0.71495 0.82927 0.43394 0.0
O194 O 0.69656 0.82 0.41308 0.0
C195 C 0.7145 0.94291 0.41622 0.0
Zn196 Zn 0.30578 0.91043 0.12784 0.0
Zn197 Zn 0.28856 0.86754 0.09513 0.0
O198 O 0.27116 0.86093 0.13749 0.0
O199 O 0.28046 0.89828 0.16298 0.0
O200 O 0.27236 0.83475 0.07294 0.0
O201 O 0.28801 0.93597 0.09771 0.0
O202 O 0.27253 0.90081 0.07129 0.0
C203 C 0.26866 0.8749 0.16135 0.0
C204 C 0.35615 0.8767 0.10668 0.0
O205 O 0.33516 0.86328 0.09362 0.0
O206 O 0.34937 0.89702 0.12284 0.0
C207 C 0.27518 0.81198 0.08607 0.0
O208 O 0.28974 0.81103 0.11176 0.0
C209 C 0.27448 0.92648 0.07498 0.0
Zn210 Zn 0.69126 0.10026 0.61742 0.0
Zn211 Zn 0.7086 0.14298 0.5869 0.0
O212 O 0.72559 0.15069 0.62953 0.0
O213 O 0.71612 0.11207 0.65249 0.0
O214 O 0.72884 0.17123 0.56102 0.0
O215 O 0.70775 0.07255 0.58916 0.0
O216 O 0.72257 0.10842 0.56385 0.0
C217 C 0.72755 0.13566 0.65269 0.0
C218 C 0.64127 0.13519 0.59718 0.0
O219 O 0.66216 0.14925 0.58469 0.0
O220 O 0.64823 0.11428 0.61225 0.0
C221 C 0.72859 0.19701 0.56233 0.0
O222 O 0.71208 0.20928 0.58285 0.0
C223 C 0.72087 0.08267 0.56656 0.0
H224 H 0.04813 0.39147 0.1248 0.0
H225 H 0.07141 0.33371 0.05491 0.0
H226 H 0.01632 0.32448 0.04703 0.0
H227 H 0.98362 0.35523 0.1554 0.0
H228 H 0.96263 0.38601 0.16254 0.0
H229 H 0.00367 0.38635 0.16342 0.0
H230 H 0.00428 0.4249 0.12385 0.0
H231 H 0.96329 0.42463 0.12278 0.0
H232 H 0.9848 0.42001 0.0887 0.0
H233 H 0.95725 0.32342 0.04616 0.0
H234 H 0.9016 0.33107 0.05191 0.0
H235 H 0.91977 0.39015 0.12185 0.0
C236 C 0.04188 0.37663 0.10796 0.0
C237 C 0.06419 0.36326 0.09051 0.0
C238 C 0.05475 0.34414 0.06864 0.0
C239 C 0.02352 0.33879 0.06402 0.0
C240 C 0.00215 0.3527 0.0815 0.0
C241 C 0.01113 0.37119 0.10306 0.0
C242 C 0.9842 0.38441 0.11826 0.0
C243 C 0.9835 0.37758 0.15189 0.0
C244 C 0.98415 0.41531 0.11307 0.0
C245 C 0.95842 0.37074 0.10177 0.0
C246 C 0.96896 0.35236 0.08075 0.0
C247 C 0.94886 0.33772 0.06264 0.0
C248 C 0.9173 0.34218 0.06606 0.0
C249 C 0.90628 0.36128 0.08726 0.0
C250 C 0.92731 0.37547 0.10535 0.0
H251 H 0.95983 0.60098 0.62039 0.0
H252 H 0.94186 0.6714 0.56473 0.0
H253 H 0.99746 0.67895 0.55933 0.0
H254 H 0.0253 0.62803 0.65903 0.0
H255 H 0.04471 0.59579 0.65959 0.0
H256 H 0.00368 0.59689 0.65965 0.0
H257 H 0.00262 0.56626 0.61237 0.0
H258 H 0.04363 0.56517 0.61206 0.0
H259 H 0.02331 0.57659 0.57935 0.0
H260 H 0.05595 0.67766 0.55932 0.0
H261 H 0.11107 0.66797 0.56518 0.0
H262 H 0.08884 0.59816 0.62042 0.0
C263 C 0.96743 0.61816 0.60721 0.0
C264 C 0.94641 0.63564 0.59303 0.0
C265 C 0.95751 0.65777 0.57589 0.0
C266 C 0.98905 0.6622 0.57267 0.0
C267 C 0.00911 0.64432 0.58675 0.0
C268 C 0.99862 0.6228 0.60374 0.0
C269 C 0.02456 0.60612 0.61619 0.0
C270 C 0.02455 0.60676 0.65066 0.0
C271 C 0.02345 0.57681 0.60427 0.0
C272 C 0.05143 0.62148 0.60347 0.0
C273 C 0.04223 0.6435 0.58659 0.0
C274 C 0.06334 0.66049 0.57255 0.0
C275 C 0.09459 0.65481 0.57597 0.0
C276 C 0.10435 0.63229 0.59323 0.0
C277 C 0.08229 0.61553 0.60704 0.0
H278 H 0.91902 0.59837 0.86732 0.0
H279 H 0.8924 0.65145 0.94049 0.0
H280 H 0.94673 0.66387 0.94812 0.0
H281 H 0.98581 0.57277 0.90009 0.0
H282 H 0.00663 0.57148 0.86527 0.0
H283 H 0.96579 0.5683 0.86518 0.0
H284 H 0.96189 0.6087 0.82813 0.0
H285 H 0.00278 0.61208 0.82818 0.0
H286 H 0.97918 0.64076 0.83776 0.0
H287 H 0.00557 0.66839 0.94857 0.0
H288 H 0.06159 0.66403 0.94219 0.0
H289 H 0.04693 0.60832 0.86819 0.0
C290 C 0.9244 0.61272 0.88494 0.0
C291 C 0.9014 0.62387 0.90338 0.0
C292 C 0.90964 0.64264 0.92607 0.0
C293 C 0.94042 0.64983 0.93052 0.0
C294 C 0.96253 0.63822 0.91192 0.0
C295 C 0.95468 0.62013 0.88953 0.0
C296 C 0.98232 0.60976 0.87291 0.0
C297 C 0.98531 0.57875 0.87607 0.0
C298 C 0.98148 0.61835 0.83979 0.0
C299 C 0.0072 0.62442 0.8897 0.0
C300 C 0.99559 0.64092 0.91204 0.0
C301 C 0.0148 0.65567 0.93097 0.0
C302 C 0.04658 0.65312 0.92716 0.0
C303 C 0.05872 0.63585 0.90468 0.0
C304 C 0.03854 0.62175 0.88557 0.0
H305 H 0.08652 0.41784 0.3669 0.0
H306 H 0.10759 0.35564 0.43252 0.0
H307 H 0.05235 0.3466 0.43892 0.0
H308 H 0.02056 0.44414 0.40325 0.0
H309 H 1.00054 0.45033 0.36868 0.0
H310 H 0.04156 0.45133 0.36941 0.0
H311 H 0.04361 0.41517 0.32715 0.0
H312 H 0.00259 0.41405 0.32631 0.0
H313 H 0.02402 0.3833 0.33214 0.0
H314 H 0.9936 0.34526 0.43819 0.0
H315 H 0.9381 0.35163 0.4301 0.0
H316 H 0.95781 0.41443 0.36467 0.0
C317 C 0.07969 0.40226 0.38265 0.0
C318 C 0.10146 0.38748 0.39924 0.0
C319 C 0.09134 0.36725 0.41955 0.0
C320 C 0.06001 0.36197 0.42333 0.0
C321 C 0.03918 0.37705 0.40657 0.0
C322 C 0.04876 0.39674 0.38661 0.0
C323 C 0.02219 0.41031 0.37124 0.0
C324 C 0.02116 0.44083 0.3786 0.0
C325 C 0.02317 0.4054 0.3372 0.0
C326 C 0.99601 0.39529 0.38568 0.0
C327 C 0.00604 0.37617 0.40602 0.0
C328 C 0.98556 0.36015 0.42223 0.0
C329 C 0.9541 0.3639 0.41751 0.0
C330 C 0.94352 0.38348 0.39672 0.0
C331 C 0.96497 0.3992 0.38067 0.0
H332 H 0.40562 0.90073 0.13272 0.0
H333 H 0.38034 0.83521 0.07254 0.0
H334 H 0.43489 0.82345 0.0663 0.0
H335 H 0.47132 0.92201 0.09322 0.0
H336 H 0.49273 0.92988 0.12656 0.0
H337 H 0.45178 0.93205 0.12703 0.0
H338 H 0.4499 0.89886 0.17208 0.0
H339 H 0.49088 0.89656 0.17172 0.0
H340 H 0.46812 0.86617 0.16905 0.0
H341 H 0.49326 0.8202 0.06558 0.0
H342 H 0.54919 0.82625 0.07 0.0
H343 H 0.53443 0.89378 0.13091 0.0
C344 C 0.4114 0.88379 0.11831 0.0
C345 C 0.38863 0.86891 0.10311 0.0
C346 C 0.39736 0.84692 0.08445 0.0
C347 C 0.42829 0.84006 0.0808 0.0
C348 C 0.45014 0.85532 0.09607 0.0
C349 C 0.44196 0.87669 0.11448 0.0
C350 C 0.46957 0.89045 0.12787 0.0
C351 C 0.47145 0.92036 0.11807 0.0
C352 C 0.46961 0.88784 0.16222 0.0
C353 C 0.4947 0.87372 0.11387 0.0
C354 C 0.48321 0.85344 0.0957 0.0
C355 C 0.50245 0.83594 0.0799 0.0
C356 C 0.53418 0.8395 0.08257 0.0
C357 C 0.54628 0.86046 0.10082 0.0
C358 C 0.52607 0.87749 0.11682 0.0
H359 H 0.59337 0.11131 0.62556 0.0
H360 H 0.61507 0.17518 0.56205 0.0
H361 H 0.55983 0.18479 0.55626 0.0
H362 H 0.52932 0.08583 0.58809 0.0
H363 H 0.50851 0.07828 0.62193 0.0
H364 H 0.54951 0.0781 0.62219 0.0
H365 H 0.54956 0.11315 0.66561 0.0
H366 H 0.5085 0.11343 0.66551 0.0
H367 H 0.52934 0.14475 0.66124 0.0
H368 H 0.50096 0.18521 0.55595 0.0
H369 H 0.44551 0.17623 0.56088 0.0
H370 H 0.46487 0.11213 0.62475 0.0
C371 C 0.58672 0.12752 0.61055 0.0
C372 C 0.60861 0.14248 0.59423 0.0
C373 C 0.59871 0.16348 0.57485 0.0
C374 C 0.5674 0.16907 0.57145 0.0
C375 C 0.54643 0.15361 0.58773 0.0
C376 C 0.55586 0.13333 0.60698 0.0
C377 C 0.52923 0.1188 0.62123 0.0
C378 C 0.52915 0.08847 0.61284 0.0
C379 C 0.52916 0.12279 0.65542 0.0
C380 C 0.50312 0.13371 0.6067 0.0
C381 C 0.51326 0.15385 0.58757 0.0
C382 C 0.49286 0.16961 0.57106 0.0
C383 C 0.46141 0.16439 0.57401 0.0
C384 C 0.45079 0.14348 0.5932 0.0
C385 C 0.4721 0.1283 0.60991 0.0
H386 H 0.54368 0.09473 0.8649 0.0
H387 H 0.56522 0.15157 0.93618 0.0
H388 H 0.50991 0.15866 0.94506 0.0
H389 H 0.4769 0.12928 0.83643 0.0
H390 H 0.45729 0.09787 0.82875 0.0
H391 H 0.49829 0.09918 0.82713 0.0
H392 H 0.50133 0.05973 0.86548 0.0
H393 H 0.46038 0.05842 0.86737 0.0
H394 H 0.4823 0.06304 0.90113 0.0
H395 H 0.4509 0.15777 0.94672 0.0
H396 H 0.39549 0.14856 0.94134 0.0
H397 H 0.41531 0.09135 0.86991 0.0
C398 C 0.53697 0.10897 0.88219 0.0
C399 C 0.55888 0.12267 0.89977 0.0
C400 C 0.54887 0.14091 0.92232 0.0
C401 C 0.5175 0.14505 0.92752 0.0
C402 C 0.49655 0.13078 0.90998 0.0
C403 C 0.50605 0.11316 0.88774 0.0
C404 C 0.47949 0.09927 0.87266 0.0
C405 C 0.4779 0.10687 0.83927 0.0
C406 C 0.48098 0.06829 0.87694 0.0
C407 C 0.45337 0.11154 0.89004 0.0
C408 C 0.46339 0.12986 0.91134 0.0
C409 C 0.44291 0.14348 0.93005 0.0
C410 C 0.4115 0.13812 0.92687 0.0
C411 C 0.40103 0.11911 0.90534 0.0
C412 C 0.42244 0.10586 0.88676 0.0
H413 H 0.45644 0.8917 0.35977 0.0
H414 H 0.43762 0.84956 0.44314 0.0
H415 H 0.49328 0.84461 0.4517 0.0
H416 H 0.52432 0.85326 0.33822 0.0
H417 H 0.54259 0.88301 0.32299 0.0
H418 H 0.50164 0.88019 0.32243 0.0
H419 H 0.49733 0.92612 0.35059 0.0
H420 H 0.53818 0.92899 0.35148 0.0
H421 H 0.51668 0.93041 0.3859 0.0
H422 H 0.5522 0.84765 0.45212 0.0
H423 H 0.60698 0.85843 0.44449 0.0
H424 H 0.58444 0.89965 0.36157 0.0
C425 C 0.46382 0.88102 0.37969 0.0
C426 C 0.44261 0.871 0.40079 0.0
C427 C 0.45345 0.85727 0.42655 0.0
C428 C 0.48501 0.85441 0.43159 0.0
C429 C 0.50528 0.86525 0.41056 0.0
C430 C 0.49491 0.87812 0.38504 0.0
C431 C 0.52076 0.88955 0.36659 0.0
C432 C 0.52242 0.87566 0.33574 0.0
C433 C 0.51806 0.9206 0.36349 0.0
C434 C 0.54747 0.88173 0.38597 0.0
C435 C 0.53837 0.86742 0.41108 0.0
C436 C 0.55947 0.8587 0.43241 0.0
C437 C 0.59051 0.86492 0.42793 0.0
C438 C 0.59997 0.88003 0.40254 0.0
C439 C 0.57802 0.88824 0.38133 0.0
H440 H 0.23265 0.39235 0.17103 0.0
H441 H 0.18841 0.31407 0.16945 0.0
H442 H 0.20791 0.30448 0.22035 0.0
H443 H 0.29862 0.37323 0.22762 0.0
H444 H 0.29493 0.40646 0.24418 0.0
H445 H 0.28959 0.40204 0.2044 0.0
H446 H 0.23663 0.42486 0.20868 0.0
H447 H 0.24143 0.42893 0.24814 0.0
H448 H 0.20869 0.41084 0.23405 0.0
H449 H 0.21716 0.30975 0.27498 0.0
H450 H 0.21378 0.32924 0.32589 0.0
H451 H 0.25016 0.40519 0.29284 0.0
C452 C 0.22895 0.37249 0.1808 0.0
C453 C 0.20974 0.35369 0.16645 0.0
C454 C 0.20392 0.32832 0.17992 0.0
C455 C 0.21487 0.32282 0.20889 0.0
C456 C 0.23177 0.34285 0.22371 0.0
C457 C 0.23937 0.36706 0.20972 0.0
C458 C 0.2515 0.38769 0.23186 0.0
C459 C 0.2857 0.39263 0.22671 0.0
C460 C 0.23345 0.4146 0.23061 0.0
C461 C 0.24615 0.37264 0.26087 0.0
C462 C 0.23628 0.34632 0.25578 0.0
C463 C 0.22581 0.32997 0.27922 0.0
C464 C 0.22396 0.34119 0.30813 0.0
C465 C 0.23177 0.36869 0.31307 0.0
C466 C 0.24444 0.38401 0.28952 0.0
H467 H 0.77962 0.60423 0.67337 0.0
H468 H 0.81899 0.68454 0.66772 0.0
H469 H 0.79854 0.69538 0.71809 0.0
H470 H 0.71071 0.62435 0.72489 0.0
H471 H 0.71419 0.59225 0.74395 0.0
H472 H 0.7222 0.59451 0.70436 0.0
H473 H 0.77563 0.57364 0.71333 0.0
H474 H 0.76783 0.57134 0.75254 0.0
H475 H 0.80104 0.58962 0.73978 0.0
H476 H 0.78824 0.69208 0.77302 0.0
H477 H 0.79006 0.67486 0.82502 0.0
H478 H 0.75558 0.59731 0.79487 0.0
C479 C 0.78256 0.62453 0.68228 0.0
C480 C 0.80066 0.64359 0.66696 0.0
C481 C 0.80473 0.66984 0.67911 0.0
C482 C 0.79312 0.67613 0.70767 0.0
C483 C 0.77685 0.65617 0.72322 0.0
C484 C 0.77091 0.63105 0.7105 0.0
C485 C 0.75783 0.61142 0.73314 0.0
C486 C 0.72423 0.60529 0.72617 0.0
C487 C 0.77674 0.58502 0.7348 0.0
C488 C 0.76068 0.62825 0.76133 0.0
C489 C 0.77044 0.65442 0.75516 0.0
C490 C 0.77953 0.67204 0.77807 0.0
C491 C 0.78039 0.66217 0.80762 0.0
C492 C 0.77272 0.63486 0.81368 0.0
C493 C 0.76096 0.61842 0.79062 0.0
H494 H 0.2264 0.61026 0.82338 0.0
H495 H 0.1851 0.68947 0.83287 0.0
H496 H 0.20481 0.70241 0.78281 0.0
H497 H 0.29402 0.63289 0.77179 0.0
H498 H 0.29067 0.60141 0.75144 0.0
H499 H 0.28322 0.60227 0.79119 0.0
H500 H 0.22998 0.58105 0.782 0.0
H501 H 0.23711 0.58027 0.74258 0.0
H502 H 0.20391 0.59767 0.75674 0.0
H503 H 0.21523 0.70136 0.72763 0.0
H504 H 0.21426 0.68631 0.67475 0.0
H505 H 0.24925 0.60787 0.70125 0.0
C506 C 0.22293 0.6308 0.81543 0.0
C507 C 0.20451 0.64896 0.83174 0.0
C508 C 0.19968 0.67549 0.82077 0.0
C509 C 0.21083 0.68295 0.79236 0.0
C510 C 0.22731 0.66382 0.77575 0.0
C511 C 0.23395 0.63841 0.78733 0.0
C512 C 0.24695 0.61971 0.76367 0.0
C513 C 0.28073 0.61373 0.7699 0.0
C514 C 0.22835 0.59317 0.7611 0.0
C515 C 0.24345 0.63742 0.73627 0.0
C516 C 0.23334 0.6632 0.74369 0.0
C517 C 0.22412 0.68159 0.72164 0.0
C518 C 0.22371 0.67294 0.6916 0.0
C519 C 0.23184 0.64599 0.68416 0.0
C520 C 0.24341 0.6287 0.70651 0.0
H521 H 0.81908 0.32764 0.17959 0.0
H522 H 0.73378 0.37113 0.17602 0.0
H523 H 0.72611 0.36337 0.23016 0.0
H524 H 0.80047 0.28168 0.24983 0.0
H525 H 0.83896 0.28664 0.26285 0.0
H526 H 0.8313 0.28424 0.22322 0.0
H527 H 0.85836 0.33037 0.21506 0.0
H528 H 0.86578 0.33303 0.2543 0.0
H529 H 0.84532 0.35979 0.2355 0.0
H530 H 0.73483 0.36383 0.28431 0.0
H531 H 0.76033 0.37553 0.33192 0.0
H532 H 0.84224 0.3352 0.30175 0.0
C533 C 0.79786 0.33374 0.19006 0.0
C534 C 0.77644 0.34902 0.17384 0.0
C535 C 0.74981 0.35852 0.18812 0.0
C536 C 0.74536 0.35417 0.21887 0.0
C537 C 0.76802 0.34064 0.23498 0.0
C538 C 0.79377 0.33033 0.22094 0.0
C539 C 0.81817 0.32297 0.24352 0.0
C540 C 0.82246 0.29204 0.24494 0.0
C541 C 0.84864 0.33744 0.23669 0.0
C542 C 0.80355 0.33347 0.272 0.0
C543 C 0.77397 0.34217 0.26694 0.0
C544 C 0.75751 0.35623 0.28882 0.0
C545 C 0.77207 0.36277 0.31583 0.0
C546 C 0.80284 0.35559 0.3204 0.0
C547 C 0.8183 0.33989 0.29887 0.0
H548 H 0.68595 0.83844 0.3142 0.0
H549 H 0.76775 0.88682 0.30748 0.0
H550 H 0.77372 0.87316 0.25459 0.0
H551 H 0.70578 0.7855 0.25022 0.0
H552 H 0.66648 0.78628 0.2385 0.0
H553 H 0.67591 0.78922 0.27771 0.0
H554 H 0.64517 0.83397 0.28052 0.0
H555 H 0.63606 0.83147 0.24159 0.0
H556 H 0.65482 0.86149 0.25558 0.0
H557 H 0.76219 0.86753 0.20152 0.0
H558 H 0.73391 0.87152 0.15393 0.0
H559 H 0.65761 0.82875 0.19299 0.0
C560 C 0.70623 0.84439 0.30197 0.0
C561 C 0.72704 0.86275 0.31484 0.0
C562 C 0.75229 0.87192 0.29808 0.0
C563 C 0.75574 0.86425 0.26801 0.0
C564 C 0.73351 0.84768 0.25504 0.0
C565 C 0.70933 0.83752 0.27167 0.0
C566 C 0.68477 0.8259 0.25149 0.0
C567 C 0.68316 0.79488 0.25466 0.0
C568 C 0.65342 0.83903 0.25766 0.0
C569 C 0.69725 0.83381 0.22107 0.0
C570 C 0.72608 0.84512 0.22348 0.0
C571 C 0.74022 0.85777 0.19915 0.0
C572 C 0.72406 0.85997 0.17219 0.0
C573 C 0.69412 0.84973 0.16992 0.0
C574 C 0.68102 0.83566 0.19415 0.0
H575 H 0.2606 0.09453 0.7955 0.0
H576 H 0.28833 0.17417 0.82605 0.0
H577 H 0.28826 0.19057 0.77368 0.0
H578 H 0.30939 0.08914 0.74262 0.0
H579 H 0.28664 0.07145 0.71523 0.0
H580 H 0.27713 0.0689 0.75409 0.0
H581 H 0.22255 0.08642 0.74349 0.0
H582 H 0.23172 0.08863 0.70414 0.0
H583 H 0.21726 0.11796 0.72372 0.0
H584 H 0.29961 0.19419 0.71863 0.0
H585 H 0.3208 0.18453 0.66822 0.0
H586 H 0.28764 0.10198 0.67414 0.0
C587 C 0.26505 0.11581 0.79121 0.0
C588 C 0.27436 0.13312 0.81461 0.0
C589 C 0.28064 0.16071 0.8084 0.0
C590 C 0.2807 0.17015 0.77866 0.0
C591 C 0.27388 0.15184 0.75565 0.0
C592 C 0.26547 0.1253 0.76177 0.0
C593 C 0.26496 0.1081 0.73369 0.0
C594 C 0.28579 0.08297 0.73661 0.0
C595 C 0.23216 0.0998 0.72579 0.0
C596 C 0.27731 0.12826 0.71129 0.0
C597 C 0.28113 0.15373 0.7239 0.0
C598 C 0.29583 0.17459 0.70831 0.0
C599 C 0.30782 0.16897 0.67971 0.0
C600 C 0.30566 0.14254 0.66754 0.0
C601 C 0.2892 0.12241 0.68301 0.0
H602 H 0.72844 0.10052 0.81643 0.0
H603 H 0.68568 0.17837 0.83122 0.0
H604 H 0.70785 0.19535 0.7837 0.0
H605 H 0.79852 0.12798 0.77013 0.0
H606 H 0.79667 0.09806 0.74691 0.0
H607 H 0.7876 0.09587 0.78628 0.0
H608 H 0.73526 0.07464 0.77307 0.0
H609 H 0.74402 0.07685 0.73407 0.0
H610 H 0.70989 0.0927 0.74833 0.0
H611 H 0.72018 0.1984 0.72923 0.0
H612 H 0.72025 0.18696 0.67531 0.0
H613 H 0.75631 0.10745 0.69581 0.0
C614 C 0.72532 0.12161 0.81033 0.0
C615 C 0.70583 0.1383 0.82729 0.0
C616 C 0.70118 0.16555 0.81866 0.0
C617 C 0.71372 0.17529 0.7917 0.0
C618 C 0.73133 0.15766 0.7742 0.0
C619 C 0.73778 0.13149 0.78368 0.0
C620 C 0.75211 0.11478 0.75895 0.0
C621 C 0.78572 0.10884 0.76599 0.0
C622 C 0.73421 0.08825 0.75327 0.0
C623 C 0.74937 0.13442 0.73309 0.0
C624 C 0.73864 0.15949 0.74244 0.0
C625 C 0.72961 0.17924 0.72179 0.0
C626 C 0.72982 0.17264 0.69112 0.0
C627 C 0.73843 0.14635 0.68163 0.0
C628 C 0.75012 0.12781 0.70267 0.0
H629 H 0.29549 0.83357 0.1895 0.0
H630 H 0.22108 0.89052 0.19667 0.0
H631 H 0.21447 0.87854 0.24999 0.0
H632 H 0.27167 0.78502 0.25624 0.0
H633 H 0.3112 0.78264 0.26688 0.0
H634 H 0.30093 0.785 0.22783 0.0
H635 H 0.33645 0.82667 0.22201 0.0
H636 H 0.34665 0.82445 0.26063 0.0
H637 H 0.33102 0.85567 0.24618 0.0
H638 H 0.22528 0.87177 0.303 0.0
H639 H 0.25593 0.87657 0.34895 0.0
H640 H 0.32736 0.82805 0.30933 0.0
C641 C 0.27658 0.84201 0.20205 0.0
C642 C 0.25809 0.86216 0.18914 0.0
C643 C 0.23476 0.87439 0.2062 0.0
C644 C 0.23086 0.86758 0.23646 0.0
C645 C 0.25092 0.84894 0.24941 0.0
C646 C 0.27344 0.83626 0.2326 0.0
C647 C 0.29718 0.82322 0.25259 0.0
C648 C 0.2951 0.79212 0.25078 0.0
C649 C 0.32968 0.83315 0.24491 0.0
C650 C 0.2866 0.83329 0.28294 0.0
C651 C 0.25877 0.84645 0.28088 0.0
C652 C 0.24653 0.86079 0.30509 0.0
C653 C 0.26399 0.86334 0.33122 0.0
C654 C 0.29355 0.85215 0.33255 0.0
C655 C 0.30428 0.83584 0.30889 0.0
H656 H 0.25791 0.18259 0.97787 0.0
H657 H 0.28811 0.23321 0.9039 0.0
H658 H 0.26418 0.27302 0.92777 0.0
H659 H 0.18533 0.21491 0.98899 0.0
H660 H 0.18642 0.21227 0.02925 0.0
H661 H 0.20599 0.18757 0.00649 0.0
H662 H 0.25649 0.19795 0.03431 0.0
H663 H 0.23705 0.22257 0.05726 0.0
H664 H 0.27024 0.23242 0.03602 0.0
H665 H 0.23646 0.30727 0.95914 0.0
H666 H 0.20867 0.33409 -0.00296 0.0
H667 H 0.19687 0.26152 0.05108 0.0
C668 C 0.25956 0.20205 0.96671 0.0
C669 C 0.2749 0.20473 0.93896 0.0
C670 C 0.27654 0.2306 0.92516 0.0
C671 C 0.26295 0.25336 0.93851 0.0
C672 C 0.24785 0.24999 0.96573 0.0
C673 C 0.2462 0.22505 0.97979 0.0
C674 C 0.22884 0.22708 0.00912 0.0
C675 C 0.19993 0.20941 0.0084 0.0
C676 C 0.24939 0.21956 0.03575 0.0
C677 C 0.221 0.25705 0.0093 0.0
C678 C 0.23208 0.26985 0.984 0.0
C679 C 0.22771 0.29749 0.97908 0.0
C680 C 0.21183 0.31255 0.00075 0.0
C681 C 0.20057 0.29996 0.0271 0.0
C682 C 0.20515 0.27178 0.03122 0.0
H683 H 0.76633 0.68515 0.49834 0.0
H684 H 0.83497 0.72784 0.55026 0.0
H685 H 0.81733 0.77138 0.52917 0.0
H686 H 0.77259 0.72744 0.43209 0.0
H687 H 0.73237 0.72592 0.42405 0.0
H688 H 0.75065 0.69812 0.44307 0.0
H689 H 0.71169 0.70229 0.48655 0.0
H690 H 0.69343 0.73023 0.46779 0.0
H691 H 0.70726 0.73438 0.50553 0.0
H692 H 0.79102 0.81036 0.504 0.0
H693 H 0.76015 0.84194 0.47379 0.0
H694 H 0.7095 0.77377 0.43721 0.0
C695 C 0.77774 0.70364 0.5052 0.0
C696 C 0.80198 0.7031 0.52602 0.0
C697 C 0.81641 0.72774 0.53429 0.0
C698 C 0.80649 0.75259 0.52251 0.0
C699 C 0.78231 0.75242 0.50231 0.0
C700 C 0.76832 0.72859 0.49346 0.0
C701 C 0.74306 0.73401 0.47115 0.0
C702 C 0.7501 0.72058 0.44079 0.0
C703 C 0.71202 0.72468 0.48351 0.0
C704 C 0.74482 0.76465 0.46909 0.0
C705 C 0.76754 0.77486 0.48732 0.0
C706 C 0.77327 0.8026 0.4895 0.0
C707 C 0.75553 0.82038 0.47231 0.0
C708 C 0.73243 0.81035 0.45306 0.0
C709 C 0.72701 0.78209 0.45163 0.0
H710 H 0.25154 0.80351 0.02958 0.0
H711 H 0.26503 0.76454 0.11581 0.0
H712 H 0.23844 0.72375 0.09743 0.0
H713 H 0.17693 0.77645 0.01465 0.0
H714 H 0.18369 0.77144 0.97518 0.0
H715 H 0.20355 0.79795 0.99501 0.0
H716 H 0.25537 0.77816 0.9776 0.0
H717 H 0.23567 0.7517 0.95756 0.0
H718 H 0.26405 0.74304 0.9851 0.0
H719 H 0.20923 0.68778 0.0706 0.0
H720 H 0.18286 0.65715 0.03544 0.0
H721 H 0.1899 0.71827 0.96567 0.0
C722 C 0.24891 0.78637 0.04456 0.0
C723 C 0.26029 0.78726 0.07418 0.0
C724 C 0.25659 0.76435 0.09302 0.0
C725 C 0.2414 0.7411 0.08284 0.0
C726 C 0.23026 0.74094 0.05365 0.0
C727 C 0.23409 0.7628 0.03463 0.0
C728 C 0.22059 0.75696 0.00402 0.0
C729 C 0.19465 0.77689 0.9968 0.0
C730 C 0.2454 0.75749 0.97964 0.0
C731 C 0.20851 0.72845 0.00892 0.0
C732 C 0.21411 0.71974 0.03781 0.0
C733 C 0.20481 0.6943 0.04787 0.0
C734 C 0.18974 0.67708 0.02774 0.0
C735 C 0.18436 0.68527 -0.00222 0.0
C736 C 0.19377 0.71139 0.98839 0.0
H737 H 0.73153 0.25267 0.55456 0.0
H738 H 0.77006 0.17667 0.52265 0.0
H739 H 0.80342 0.20185 0.48819 0.0
H740 H 0.73081 0.28591 0.48283 0.0
H741 H 0.74079 0.31881 0.49759 0.0
H742 H 0.72031 0.29494 0.52063 0.0
H743 H 0.76226 0.29864 0.56124 0.0
H744 H 0.78295 0.32242 0.53824 0.0
H745 H 0.80139 0.29196 0.55129 0.0
H746 H 0.8323 0.23456 0.45694 0.0
H747 H 0.85361 0.27316 0.42886 0.0
H748 H 0.79657 0.32853 0.47996 0.0
C749 C 0.74704 0.24135 0.54038 0.0
C750 C 0.74815 0.21265 0.54143 0.0
C751 C 0.76868 0.19862 0.52233 0.0
C752 C 0.78785 0.21274 0.50269 0.0
C753 C 0.78626 0.24094 0.50227 0.0
C754 C 0.76633 0.25516 0.52043 0.0
C755 C 0.76877 0.28547 0.51477 0.0
C756 C 0.73836 0.29695 0.50327 0.0
C757 C 0.77948 0.30051 0.54308 0.0
C758 C 0.79307 0.28593 0.49053 0.0
C759 C 0.8029 0.25999 0.48385 0.0
C760 C 0.82484 0.255 0.46196 0.0
C761 C 0.83682 0.2771 0.44614 0.0
C762 C 0.82681 0.3039 0.45217 0.0
C763 C 0.80482 0.30832 0.47492 0.0
H764 H 0.73019 0.81286 0.00637 0.0
H765 H 0.65625 0.76857 0.04888 0.0
H766 H 0.67475 0.72608 0.02573 0.0
H767 H 0.72909 0.77511 0.93652 0.0
H768 H 0.76992 0.77623 0.93203 0.0
H769 H 0.75056 0.80314 0.95169 0.0
H770 H 0.78528 0.7953 -0.00218 0.0
H771 H 0.80459 0.76824 0.97839 0.0
H772 H 0.78727 0.76198 0.01439 0.0
H773 H 0.70254 0.68817 -0.0003 0.0
H774 H 0.73548 0.65791 0.96978 0.0
H775 H 0.79053 0.72713 0.94308 0.0
C776 C 0.71779 0.79425 0.01073 0.0
C777 C 0.69181 0.79403 0.02952 0.0
C778 C 0.67616 0.76926 0.03451 0.0
C779 C 0.68655 0.74501 0.02154 0.0
C780 C 0.71245 0.7459 0.00344 0.0
C781 C 0.72768 0.76992 -0.00224 0.0
C782 C 0.75477 0.76537 0.97726 0.0
C783 C 0.75084 0.78088 0.94762 0.0
C784 C 0.78475 0.77318 0.99291 0.0
C785 C 0.75258 0.73498 0.97252 0.0
C786 C 0.72809 0.72414 0.98793 0.0
C787 C 0.72168 0.69645 0.9874 0.0
C788 C 0.74061 0.67941 0.9704 0.0
C789 C 0.76557 0.69013 0.954 0.0
C790 C 0.77159 0.7183 0.95525 0.0
H791 H 0.29489 0.18821 0.47784 0.0
H792 H 0.32338 0.22917 0.55939 0.0
H793 H 0.29934 0.27143 0.54166 0.0
H794 H 0.307 0.24526 0.42808 0.0
H795 H 0.27418 0.23765 0.40531 0.0
H796 H 0.29406 0.21069 0.42426 0.0
H797 H 0.2436 0.19597 0.44981 0.0
H798 H 0.22361 0.22301 0.43113 0.0
H799 H 0.22223 0.22039 0.4714 0.0
H800 H 0.27127 0.30887 0.51582 0.0
H801 H 0.24303 0.33975 0.48244 0.0
H802 H 0.23298 0.27461 0.41748 0.0
C803 C 0.29624 0.20609 0.49192 0.0
C804 C 0.31103 0.20534 0.52004 0.0
C805 C 0.31223 0.22922 0.53776 0.0
C806 C 0.29858 0.25332 0.52792 0.0
C807 C 0.28389 0.25326 0.50028 0.0
C808 C 0.28279 0.23036 0.48242 0.0
C809 C 0.26557 0.23579 0.45363 0.0
C810 C 0.28646 0.23214 0.4262 0.0
C811 C 0.23706 0.21772 0.45138 0.0
C812 C 0.25708 0.26531 0.45818 0.0
C813 C 0.26782 0.27496 0.48527 0.0
C814 C 0.2628 0.30159 0.49451 0.0
C815 C 0.24667 0.31895 0.4754 0.0
C816 C 0.23578 0.30964 0.44731 0.0
C817 C 0.24095 0.28237 0.4388 0.0
H818 H 0.7622 0.29879 0.01335 0.0
H819 H 0.78913 0.24721 0.08762 0.0
H820 H 0.7622 0.20862 0.06435 0.0
H821 H 0.68745 0.27088 0.00347 0.0
H822 H 0.68832 0.27311 0.96317 0.0
H823 H 0.71 0.29675 0.98541 0.0
H824 H 0.75932 0.28313 0.95711 0.0
H825 H 0.73776 0.2596 0.93463 0.0
H826 H 0.77031 0.24789 0.95555 0.0
H827 H 0.7316 0.17582 0.03358 0.0
H828 H 0.70166 0.15045 0.99609 0.0
H829 H 0.69497 0.22324 0.94162 0.0
C830 C 0.76256 0.27936 0.02468 0.0
C831 C 0.77779 0.27606 0.05235 0.0
C832 C 0.77769 0.25027 0.06641 0.0
C833 C 0.76237 0.22822 0.05341 0.0
C834 C 0.74733 0.23224 0.02632 0.0
C835 C 0.74746 0.2571 0.01199 0.0
C836 C 0.7297 0.25593 0.98292 0.0
C837 C 0.70224 0.27532 0.98381 0.0
C838 C 0.75052 0.26199 0.95596 0.0
C839 C 0.71956 0.22653 0.98316 0.0
C840 C 0.72987 0.21326 0.00845 0.0
C841 C 0.72344 0.18597 0.01365 0.0
C842 C 0.70635 0.17175 0.99223 0.0
C843 C 0.69595 0.18481 0.96587 0.0
C844 C 0.70251 0.21265 0.96152 0.0
H845 H 0.24815 0.69552 0.52222 0.0
H846 H 0.21856 0.74754 0.5953 0.0
H847 H 0.24367 0.78665 0.5711 0.0
H848 H 0.32158 0.72623 0.51149 0.0
H849 H 0.32082 0.72303 0.47125 0.0
H850 H 0.30041 0.69903 0.4942 0.0
H851 H 0.25044 0.70994 0.46575 0.0
H852 H 0.27073 0.73382 0.44259 0.0
H853 H 0.2376 0.74463 0.46334 0.0
H854 H 0.27244 0.82006 0.53924 0.0
H855 H 0.3009 0.84578 0.50085 0.0
H856 H 0.31148 0.77203 0.44843 0.0
C857 C 0.24686 0.71514 0.53312 0.0
C858 C 0.23138 0.71843 0.5607 0.0
C859 C 0.23024 0.74448 0.57417 0.0
C860 C 0.2445 0.76683 0.56064 0.0
C861 C 0.25977 0.76283 0.53361 0.0
C862 C 0.26091 0.73768 0.5199 0.0
C863 C 0.27859 0.73892 0.49073 0.0
C864 C 0.30704 0.72072 0.49201 0.0
C865 C 0.25811 0.73139 0.46403 0.0
C866 C 0.28717 0.76871 0.49017 0.0
C867 C 0.2762 0.78212 0.51516 0.0
C868 C 0.28113 0.80978 0.51956 0.0
C869 C 0.29738 0.82421 0.49764 0.0
C870 C 0.30845 0.81096 0.4716 0.0
C871 C 0.30341 0.78277 0.46807 0.0
H872 H 0.17127 0.52494 0.93129 0.0
H873 H 0.19562 0.59099 0.99119 0.0
H874 H 0.20676 0.55776 0.03106 0.0
H875 H 0.13152 0.48761 0.98237 0.0
H876 H 0.14345 0.45469 0.96916 0.0
H877 H 0.14275 0.483 0.94381 0.0
H878 H 0.19974 0.47521 0.93109 0.0
H879 H 0.20061 0.4467 0.9564 0.0
H880 H 0.22743 0.47414 0.96088 0.0
H881 H 0.20707 0.51865 0.06627 0.0
H882 H 0.19723 0.4764 0.09427 0.0
H883 H 0.17381 0.43533 0.01145 0.0
C884 C 0.17974 0.53244 0.95252 0.0
C885 C 0.18264 0.5606 0.95809 0.0
C886 C 0.19336 0.56954 0.98634 0.0
C887 C 0.19985 0.55079 0.0091 0.0
C888 C 0.19587 0.52322 0.0031 0.0
C889 C 0.18634 0.51403 0.97541 0.0
C890 C 0.1809 0.48364 0.97559 0.0
C891 C 0.14769 0.47686 0.96726 0.0
C892 C 0.20353 0.46906 0.95476 0.0
C893 C 0.18743 0.47733 0.00814 0.0
C894 C 0.19647 0.5004 0.02349 0.0
C895 C 0.20072 0.50034 0.05439 0.0
C896 C 0.19496 0.47629 0.07009 0.0
C897 C 0.1851 0.45261 0.0549 0.0
C898 C 0.1821 0.45296 0.02345 0.0
H899 H 0.82784 0.52949 0.55708 0.0
H900 H 0.81236 0.59903 0.49938 0.0
H901 H 0.8005 0.568 0.4574 0.0
H902 H 0.86721 0.49166 0.50657 0.0
H903 H 0.85202 0.45917 0.51767 0.0
H904 H 0.85348 0.48653 0.54425 0.0
H905 H 0.79537 0.4819 0.55361 0.0
H906 H 0.79373 0.45437 0.52699 0.0
H907 H 0.7694 0.48355 0.52239 0.0
H908 H 0.79869 0.5299 0.42029 0.0
H909 H 0.80723 0.48809 0.391 0.0
H910 H 0.82326 0.4434 0.47318 0.0
C911 C 0.82118 0.53829 0.53585 0.0
C912 C 0.82101 0.56672 0.53152 0.0
C913 C 0.81251 0.57733 0.50327 0.0
C914 C 0.80563 0.55985 0.47933 0.0
C915 C 0.80695 0.53188 0.48418 0.0
C916 C 0.81425 0.52119 0.51185 0.0
C917 C 0.81732 0.49059 0.51058 0.0
C918 C 0.84941 0.48148 0.52032 0.0
C919 C 0.79247 0.47679 0.52951 0.0
C920 C 0.81216 0.4858 0.4775 0.0
C921 C 0.80566 0.50981 0.46275 0.0
C922 C 0.80309 0.51091 0.43167 0.0
C923 C 0.80808 0.48707 0.41523 0.0
C924 C 0.81568 0.46246 0.42986 0.0
C925 C 0.81679 0.46174 0.46144 0.0
H926 H 0.78636 0.46938 0.06192 0.0
H927 H 0.76589 0.40046 0.00467 0.0
H928 H 0.75401 0.43183 0.96318 0.0
H929 H 0.72912 0.51795 0.02807 0.0
H930 H 0.75521 0.546 0.03208 0.0
H931 H 0.75565 0.51862 0.05887 0.0
H932 H 0.81325 0.51135 0.04869 0.0
H933 H 0.81297 0.53849 0.02186 0.0
H934 H 0.82606 0.50525 0.01086 0.0
H935 H 0.75433 0.46934 0.926 0.0
H936 H 0.7659 0.51015 0.89607 0.0
H937 H 0.78507 0.55516 0.97738 0.0
C938 C 0.77845 0.46085 0.04096 0.0
C939 C 0.777 0.43243 0.03657 0.0
C940 C 0.76699 0.42213 0.00864 0.0
C941 C 0.7601 0.43982 0.98497 0.0
C942 C 0.76292 0.46771 0.98974 0.0
C943 C 0.7715 0.4782 0.01718 0.0
C944 C 0.77636 0.50863 0.01559 0.0
C945 C 0.75267 0.52369 0.03479 0.0
C946 C 0.8091 0.51636 0.02477 0.0
C947 C 0.77095 0.51344 0.98254 0.0
C948 C 0.76265 0.48964 0.96815 0.0
C949 C 0.75998 0.48822 0.9371 0.0
C950 C 0.76671 0.51146 0.92029 0.0
C951 C 0.77595 0.53581 0.93453 0.0
C952 C 0.77716 0.53702 0.96607 0.0
H953 H 0.21332 0.49781 0.42149 0.0
H954 H 0.25284 0.43041 0.47048 0.0
H955 H 0.26791 0.46179 0.51093 0.0
H956 H 0.26889 0.55175 0.44782 0.0
H957 H 0.2389 0.57668 0.45015 0.0
H958 H 0.23717 0.55023 0.42222 0.0
H959 H 0.18385 0.53604 0.4418 0.0
H960 H 0.18542 0.56231 0.46966 0.0
H961 H 0.17919 0.52759 0.48085 0.0
H962 H 0.26976 0.49782 0.54951 0.0
H963 H 0.25767 0.53573 0.58367 0.0
H964 H 0.21798 0.58055 0.50996 0.0
C965 C 0.22606 0.48977 0.44024 0.0
C966 C 0.23205 0.46165 0.44272 0.0
C967 C 0.24812 0.45187 0.46799 0.0
C968 C 0.25694 0.46959 0.49102 0.0
C969 C 0.24978 0.49706 0.48833 0.0
C970 C 0.23491 0.50717 0.46346 0.0
C971 C 0.22636 0.53675 0.46774 0.0
C972 C 0.24388 0.55493 0.44567 0.0
C973 C 0.19166 0.54089 0.46486 0.0
C974 C 0.23714 0.54127 0.49959 0.0
C975 C 0.25119 0.51825 0.51079 0.0
C976 C 0.25963 0.51621 0.54078 0.0
C977 C 0.25265 0.5378 0.56002 0.0
C978 C 0.23748 0.56116 0.54921 0.0
C979 C 0.2306 0.5633 0.51845 0.0
H980 H 0.66882 0.05292 0.97848 0.0
H981 H 0.68559 0.00787 0.89654 0.0
H982 H 0.69245 0.96591 0.92588 0.0
H983 H 0.72083 0.01238 0.02834 0.0
H984 H 0.69438 0.01438 0.05922 0.0
H985 H 0.69662 0.04172 0.03247 0.0
H986 H 0.63863 0.03728 0.02253 0.0
H987 H 0.63625 0.00988 0.04899 0.0
H988 H 0.62327 0.00493 0.01107 0.0
H989 H 0.69048 0.92801 0.96295 0.0
H990 H 0.67926 0.89703 0.00503 0.0
H991 H 0.66276 0.96656 0.06272 0.0
C992 C 0.675 0.0344 0.96686 0.0
C993 C 0.67696 0.03365 0.93531 0.0
C994 C 0.68411 0.00888 0.92075 0.0
C995 C 0.68818 0.98496 0.93722 0.0
C996 C 0.68505 0.98615 0.96824 0.0
C997 C 0.67878 0.01026 0.98297 0.0
C998 C 0.67306 0.00547 0.01601 0.0
C999 C 0.6977 0.01931 0.03514 0.0
C1000 C 0.6409 0.01494 0.02516 0.0
C1001 C 0.67588 0.97485 0.01728 0.0
C1002 C 0.68337 0.96412 0.98964 0.0
C1003 C 0.68512 0.93618 0.98485 0.0
C1004 C 0.67862 0.91873 0.00887 0.0
C1005 C 0.67017 0.92933 0.0372 0.0
C1006 C 0.66941 0.95778 0.04144 0.0
H1007 H 0.32894 0.94399 0.47584 0.0
H1008 H 0.32063 0.98661 0.39119 0.0
H1009 H 0.31421 0.02989 0.41839 0.0
H1010 H 0.27581 0.98806 0.52013 0.0
H1011 H 0.2997 0.98602 0.55288 0.0
H1012 H 0.29807 0.95794 0.52698 0.0
H1013 H 0.35684 0.95976 0.52104 0.0
H1014 H 0.35865 0.98783 0.5467 0.0
H1015 H 0.37472 0.99108 0.50968 0.0
H1016 H 0.31526 0.06915 0.45452 0.0
H1017 H 0.32504 0.10087 0.49644 0.0
H1018 H 0.33359 0.03238 0.55699 0.0
C1019 C 0.32481 0.96229 0.46304 0.0
C1020 C 0.32506 0.9619 0.43143 0.0
C1021 C 0.32041 0.98642 0.41546 0.0
C1022 C 0.3166 0.0111 0.43071 0.0
C1023 C 0.31742 0.01091 0.46191 0.0
C1024 C 0.32126 0.9871 0.47789 0.0
C1025 C 0.32471 0.99268 0.51104 0.0
C1026 C 0.29797 0.98045 0.5288 0.0
C1027 C 0.35556 0.98223 0.52278 0.0
C1028 C 0.32341 0.02336 0.51107 0.0
C1029 C 0.31858 0.03355 0.48265 0.0
C1030 C 0.31855 0.06141 0.47696 0.0
C1031 C 0.32413 0.07928 0.5009 0.0
C1032 C 0.33008 0.06913 0.52998 0.0
C1033 C 0.32901 0.04083 0.53506 0.0
H1034 H 0.27951 0.98179 0.07492 0.0
H1035 H 0.24553 0.91427 0.02202 0.0
H1036 H 0.2339 0.94585 0.98064 0.0
H1037 H 0.22608 0.03522 0.04458 0.0
H1038 H 0.25582 0.06048 0.04524 0.0
H1039 H 0.25537 0.03375 0.07283 0.0
H1040 H 0.31042 0.02034 0.05778 0.0
H1041 H 0.31103 0.04688 0.03025 0.0
H1042 H 0.3187 0.01235 0.01917 0.0
H1043 H 0.23492 0.98247 0.94248 0.0
H1044 H 0.24915 0.02103 0.91014 0.0
H1045 H 0.28182 0.06532 0.98763 0.0
C1046 C 0.26873 0.97369 0.05501 0.0
C1047 C 0.26331 0.94551 0.05178 0.0
C1048 C 0.24973 0.93576 0.02511 0.0
C1049 C 0.24292 0.95359 0.00153 0.0
C1050 C 0.24951 0.98113 0.00512 0.0
C1051 C 0.2619 0.99118 0.03131 0.0
C1052 C 0.27042 0.02089 0.02824 0.0
C1053 C 0.25074 0.03863 0.04895 0.0
C1054 C 0.30466 0.02535 0.03419 0.0
C1055 C 0.26251 0.02563 0.99565 0.0
C1056 C 0.24986 0.00258 0.98293 0.0
C1057 C 0.24402 0.00085 0.95234 0.0
C1058 C 0.25223 0.02281 0.93415 0.0
C1059 C 0.26609 0.04622 0.94656 0.0
C1060 C 0.27031 0.04801 0.97781 0.0
H1061 H 0.72067 0.02712 0.56586 0.0
H1062 H 0.74344 0.09734 0.51151 0.0
H1063 H 0.75265 0.06726 0.46819 0.0
H1064 H 0.77505 0.97816 0.52846 0.0
H1065 H 0.74797 0.95078 0.53168 0.0
H1066 H 0.749 0.97714 0.55973 0.0
H1067 H 0.69157 0.98649 0.55102 0.0
H1068 H 0.69038 0.96039 0.52292 0.0
H1069 H 0.67841 0.99438 0.51377 0.0
H1070 H 0.74978 0.03122 0.42913 0.0
H1071 H 0.73702 0.9916 0.39764 0.0
H1072 H 0.71778 0.94433 0.47736 0.0
C1073 C 0.72851 0.03614 0.54511 0.0
C1074 C 0.73137 0.06461 0.5421 0.0
C1075 C 0.74125 0.0756 0.51443 0.0
C1076 C 0.74662 0.05865 0.4897 0.0
C1077 C 0.74246 0.03076 0.49314 0.0
C1078 C 0.73405 0.01952 0.52029 0.0
C1079 C 0.72801 0.98934 0.51736 0.0
C1080 C 0.75141 0.97289 0.53538 0.0
C1081 C 0.69515 0.98226 0.52681 0.0
C1082 C 0.7327 0.98561 0.484 0.0
C1083 C 0.74146 0.00968 0.47052 0.0
C1084 C 0.74376 0.0121 0.4395 0.0
C1085 C 0.73634 0.98954 0.4218 0.0
C1086 C 0.72685 0.96487 0.43515 0.0
C1087 C 0.72583 0.96272 0.46665 0.0
loop_
_geom_bond_atom_site_label_1
_geom_bond_atom_site_label_2
_geom_bond_distance
_geom_bond_site_symmetry_2
_ccdc_geom_bond_type
Zn0 O3 2.031 . S
Zn0 O5 2.049 . S
Zn0 O10 2.067 . S
Zn1 O2 1.962 . S
Zn1 O4 1.986 . S
Zn1 O6 1.996 . S
Zn1 O9 1.943 . S
O2 Zn1 1.962 . S
O2 C7 1.254 . S
O3 Zn0 2.031 . S
O3 C7 1.269 . S
O4 Zn1 1.986 . S
O4 C11 1.262 . S
O5 Zn0 2.049 . S
O5 C13 1.260 . S
O6 Zn1 1.996 . S
O6 C13 1.257 . S
C7 O2 1.254 . S
C7 O3 1.269 . S
C8 O9 1.249 . S
C8 O10 1.270 . S
O9 Zn1 1.943 . S
O9 C8 1.249 . S
O10 Zn0 2.067 . S
O10 C8 1.270 . S
C11 O4 1.262 . S
C11 O12 1.232 . S
O12 C11 1.232 . S
C13 O5 1.260 . S
C13 O6 1.257 . S
Zn14 O17 2.031 . S
Zn14 O19 2.049 . S
Zn14 O24 2.067 . S
Zn15 O16 1.962 . S
Zn15 O18 1.986 . S
Zn15 O20 1.996 . S
Zn15 O23 1.943 . S
O16 Zn15 1.962 . S
O16 C21 1.254 . S
O17 Zn14 2.031 . S
O17 C21 1.269 . S
O18 Zn15 1.986 . S
O18 C25 1.262 . S
O19 Zn14 2.049 . S
O19 C27 1.260 . S
O20 Zn15 1.996 . S
O20 C27 1.257 . S
C21 O16 1.254 . S
C21 O17 1.269 . S
C22 O23 1.249 . S
C22 O24 1.270 . S
O23 Zn15 1.943 . S
O23 C22 1.249 . S
O24 Zn14 2.067 . S
O24 C22 1.270 . S
C25 O18 1.262 . S
C25 O26 1.232 . S
O26 C25 1.232 . S
C27 O19 1.260 . S
C27 O20 1.257 . S
Zn28 O31 2.031 . S
Zn28 O33 2.049 . S
Zn28 O38 2.067 . S
Zn29 O30 1.962 . S
Zn29 O32 1.986 . S
Zn29 O34 1.996 . S
Zn29 O37 1.943 . S
O30 Zn29 1.962 . S
O30 C35 1.254 . S
O31 Zn28 2.031 . S
O31 C35 1.269 . S
O32 Zn29 1.986 . S
O32 C39 1.262 . S
O33 Zn28 2.049 . S
O33 C41 1.260 . S
O34 Zn29 1.996 . S
O34 C41 1.257 . S
C35 O30 1.254 . S
C35 O31 1.269 . S
C36 O37 1.249 . S
C36 O38 1.270 . S
O37 Zn29 1.943 . S
O37 C36 1.249 . S
O38 Zn28 2.067 . S
O38 C36 1.270 . S
C39 O32 1.262 . S
C39 O40 1.232 . S
O40 C39 1.232 . S
C41 O33 1.260 . S
C41 O34 1.257 . S
Zn42 O45 2.031 . S
Zn42 O47 2.049 . S
Zn42 O52 2.067 . S
Zn43 O44 1.962 . S
Zn43 O46 1.986 . S
Zn43 O48 1.996 . S
Zn43 O51 1.943 . S
O44 Zn43 1.962 . S
O44 C49 1.254 . S
O45 Zn42 2.031 . S
O45 C49 1.269 . S
O46 Zn43 1.986 . S
O46 C53 1.262 . S
O47 Zn42 2.049 . S
O47 C55 1.260 . S
O48 Zn43 1.996 . S
O48 C55 1.257 . S
C49 O44 1.254 . S
C49 O45 1.269 . S
C50 O51 1.249 . S
C50 O52 1.270 . S
O51 Zn43 1.943 . S
O51 C50 1.249 . S
O52 Zn42 2.067 . S
O52 C50 1.270 . S
C53 O46 1.262 . S
C53 O54 1.232 . S
O54 C53 1.232 . S
C55 O47 1.260 . S
C55 O48 1.257 . S
Zn56 O59 2.031 . S
Zn56 O61 2.049 . S
Zn56 O66 2.067 . S
Zn57 O58 1.962 . S
Zn57 O60 1.986 . S
Zn57 O62 1.996 . S
Zn57 O65 1.943 . S
O58 Zn57 1.962 . S
O58 C63 1.254 . S
O59 Zn56 2.031 . S
O59 C63 1.269 . S
O60 Zn57 1.986 . S
O60 C67 1.262 . S
O61 Zn56 2.049 . S
O61 C69 1.260 . S
O62 Zn57 1.996 . S
O62 C69 1.257 . S
C63 O58 1.254 . S
C63 O59 1.269 . S
C64 O65 1.249 . S
C64 O66 1.270 . S
O65 Zn57 1.943 . S
O65 C64 1.249 . S
O66 Zn56 2.067 . S
O66 C64 1.270 . S
C67 O60 1.262 . S
C67 O68 1.232 . S
O68 C67 1.232 . S
C69 O61 1.260 . S
C69 O62 1.257 . S
Zn70 O73 2.031 . S
Zn70 O75 2.049 . S
Zn70 O80 2.067 . S
Zn71 O72 1.962 . S
Zn71 O74 1.986 . S
Zn71 O76 1.996 . S
Zn71 O79 1.943 . S
O72 Zn71 1.962 . S
O72 C77 1.254 . S
O73 Zn70 2.031 . S
O73 C77 1.269 . S
O74 Zn71 1.986 . S
O74 C81 1.262 . S
O75 Zn70 2.049 . S
O75 C83 1.260 . S
O76 Zn71 1.996 . S
O76 C83 1.257 . S
C77 O72 1.254 . S
C77 O73 1.269 . S
C78 O79 1.249 . S
C78 O80 1.270 . S
O79 Zn71 1.943 . S
O79 C78 1.249 . S
O80 Zn70 2.067 . S
O80 C78 1.270 . S
C81 O74 1.262 . S
C81 O82 1.232 . S
O82 C81 1.232 . S
C83 O75 1.260 . S
C83 O76 1.257 . S
Zn84 O87 2.031 . S
Zn84 O89 2.049 . S
Zn84 O94 2.067 . S
Zn85 O86 1.962 . S
Zn85 O88 1.986 . S
Zn85 O90 1.996 . S
Zn85 O93 1.943 . S
O86 Zn85 1.962 . S
O86 C91 1.254 . S
O87 Zn84 2.031 . S
O87 C91 1.269 . S
O88 Zn85 1.986 . S
O88 C95 1.262 . S
O89 Zn84 2.049 . S
O89 C97 1.260 . S
O90 Zn85 1.996 . S
O90 C97 1.257 . S
C91 O86 1.254 . S
C91 O87 1.269 . S
C92 O93 1.249 . S
C92 O94 1.270 . S
O93 Zn85 1.943 . S
O93 C92 1.249 . S
O94 Zn84 2.067 . S
O94 C92 1.270 . S
C95 O88 1.262 . S
C95 O96 1.232 . S
O96 C95 1.232 . S
C97 O89 1.260 . S
C97 O90 1.257 . S
Zn98 O101 2.031 . S
Zn98 O103 2.049 . S
Zn98 O108 2.067 . S
Zn99 O100 1.962 . S
Zn99 O102 1.986 . S
Zn99 O104 1.996 . S
Zn99 O107 1.943 . S
O100 Zn99 1.962 . S
O100 C105 1.254 . S
O101 Zn98 2.031 . S
O101 C105 1.269 . S
O102 Zn99 1.986 . S
O102 C109 1.262 . S
O103 Zn98 2.049 . S
O103 C111 1.260 . S
O104 Zn99 1.996 . S
O104 C111 1.257 . S
C105 O100 1.254 . S
C105 O101 1.269 . S
C106 O107 1.249 . S
C106 O108 1.270 . S
O107 Zn99 1.943 . S
O107 C106 1.249 . S
O108 Zn98 2.067 . S
O108 C106 1.270 . S
C109 O102 1.262 . S
C109 O110 1.232 . S
O110 C109 1.232 . S
C111 O103 1.260 . S
C111 O104 1.257 . S
Zn112 O115 2.031 . S
Zn112 O117 2.049 . S
Zn112 O122 2.067 . S
Zn113 O114 1.962 . S
Zn113 O116 1.986 . S
Zn113 O118 1.996 . S
Zn113 O121 1.943 . S
O114 Zn113 1.962 . S
O114 C119 1.254 . S
O115 Zn112 2.031 . S
O115 C119 1.269 . S
O116 Zn113 1.986 . S
O116 C123 1.262 . S
O117 Zn112 2.049 . S
O117 C125 1.260 . S
O118 Zn113 1.996 . S
O118 C125 1.257 . S
C119 O114 1.254 . S
C119 O115 1.269 . S
C120 O121 1.249 . S
C120 O122 1.270 . S
O121 Zn113 1.943 . S
O121 C120 1.249 . S
O122 Zn112 2.067 . S
O122 C120 1.270 . S
C123 O116 1.262 . S
C123 O124 1.232 . S
O124 C123 1.232 . S
C125 O117 1.260 . S
C125 O118 1.257 . S
Zn126 O129 2.031 . S
Zn126 O131 2.049 . S
Zn126 O136 2.067 . S
Zn127 O128 1.962 . S
Zn127 O130 1.986 . S
Zn127 O132 1.996 . S
Zn127 O135 1.943 . S
O128 Zn127 1.962 . S
O128 C133 1.254 . S
O129 Zn126 2.031 . S
O129 C133 1.269 . S
O130 Zn127 1.986 . S
O130 C137 1.262 . S
O131 Zn126 2.049 . S
O131 C139 1.260 . S
O132 Zn127 1.996 . S
O132 C139 1.257 . S
C133 O128 1.254 . S
C133 O129 1.269 . S
C134 O135 1.249 . S
C134 O136 1.270 . S
O135 Zn127 1.943 . S
O135 C134 1.249 . S
O136 Zn126 2.067 . S
O136 C134 1.270 . S
C137 O130 1.262 . S
C137 O138 1.232 . S
O138 C137 1.232 . S
C139 O131 1.260 . S
C139 O132 1.257 . S
Zn140 O143 2.031 . S
Zn140 O145 2.049 . S
Zn140 O150 2.067 . S
Zn141 O142 1.962 . S
Zn141 O144 1.986 . S
Zn141 O146 1.996 . S
Zn141 O149 1.943 . S
O142 Zn141 1.962 . S
O142 C147 1.254 . S
O143 Zn140 2.031 . S
O143 C147 1.269 . S
O144 Zn141 1.986 . S
O144 C151 1.262 . S
O145 Zn140 2.049 . S
O145 C153 1.260 . S
O146 Zn141 1.996 . S
O146 C153 1.257 . S
C147 O142 1.254 . S
C147 O143 1.269 . S
C148 O149 1.249 . S
C148 O150 1.270 . S
O149 Zn141 1.943 . S
O149 C148 1.249 . S
O150 Zn140 2.067 . S
O150 C148 1.270 . S
C151 O144 1.262 . S
C151 O152 1.232 . S
O152 C151 1.232 . S
C153 O145 1.260 . S
C153 O146 1.257 . S
Zn154 O157 2.031 . S
Zn154 O159 2.049 . S
Zn154 O164 2.067 . S
Zn155 O156 1.962 . S
Zn155 O158 1.986 . S
Zn155 O160 1.996 . S
Zn155 O163 1.943 . S
O156 Zn155 1.962 . S
O156 C161 1.254 . S
O157 Zn154 2.031 . S
O157 C161 1.269 . S
O158 Zn155 1.986 . S
O158 C165 1.262 . S
O159 Zn154 2.049 . S
O159 C167 1.260 . S
O160 Zn155 1.996 . S
O160 C167 1.257 . S
C161 O156 1.254 . S
C161 O157 1.269 . S
C162 O163 1.249 . S
C162 O164 1.270 . S
O163 Zn155 1.943 . S
O163 C162 1.249 . S
O164 Zn154 2.067 . S
O164 C162 1.270 . S
C165 O158 1.262 . S
C165 O166 1.232 . S
O166 C165 1.232 . S
C167 O159 1.260 . S
C167 O160 1.257 . S
Zn168 O171 2.031 . S
Zn168 O173 2.049 . S
Zn168 O178 2.067 . S
Zn169 O170 1.962 . S
Zn169 O172 1.986 . S
Zn169 O174 1.996 . S
Zn169 O177 1.943 . S
O170 Zn169 1.962 . S
O170 C175 1.254 . S
O171 Zn168 2.031 . S
O171 C175 1.269 . S
O172 Zn169 1.986 . S
O172 C179 1.262 . S
O173 Zn168 2.049 . S
O173 C181 1.260 . S
O174 Zn169 1.996 . S
O174 C181 1.257 . S
C175 O170 1.254 . S
C175 O171 1.269 . S
C176 O177 1.249 . S
C176 O178 1.270 . S
O177 Zn169 1.943 . S
O177 C176 1.249 . S
O178 Zn168 2.067 . S
O178 C176 1.270 . S
C179 O172 1.262 . S
C179 O180 1.232 . S
O180 C179 1.232 . S
C181 O173 1.260 . S
C181 O174 1.257 . S
Zn182 O185 2.031 . S
Zn182 O187 2.049 . S
Zn182 O192 2.067 . S
Zn183 O184 1.962 . S
Zn183 O186 1.986 . S
Zn183 O188 1.996 . S
Zn183 O191 1.943 . S
O184 Zn183 1.962 . S
O184 C189 1.254 . S
O185 Zn182 2.031 . S
O185 C189 1.269 . S
O186 Zn183 1.986 . S
O186 C193 1.262 . S
O187 Zn182 2.049 . S
O187 C195 1.260 . S
O188 Zn183 1.996 . S
O188 C195 1.257 . S
C189 O184 1.254 . S
C189 O185 1.269 . S
C190 O191 1.249 . S
C190 O192 1.270 . S
O191 Zn183 1.943 . S
O191 C190 1.249 . S
O192 Zn182 2.067 . S
O192 C190 1.270 . S
C193 O186 1.262 . S
C193 O194 1.232 . S
O194 C193 1.232 . S
C195 O187 1.260 . S
C195 O188 1.257 . S
Zn196 O199 2.031 . S
Zn196 O201 2.049 . S
Zn196 O206 2.067 . S
Zn197 O198 1.962 . S
Zn197 O200 1.986 . S
Zn197 O202 1.996 . S
Zn197 O205 1.943 . S
O198 Zn197 1.962 . S
O198 C203 1.254 . S
O199 Zn196 2.031 . S
O199 C203 1.269 . S
O200 Zn197 1.986 . S
O200 C207 1.262 . S
O201 Zn196 2.049 . S
O201 C209 1.260 . S
O202 Zn197 1.996 . S
O202 C209 1.257 . S
C203 O198 1.254 . S
C203 O199 1.269 . S
C204 O205 1.249 . S
C204 O206 1.270 . S
O205 Zn197 1.943 . S
O205 C204 1.249 . S
O206 Zn196 2.067 . S
O206 C204 1.270 . S
C207 O200 1.262 . S
C207 O208 1.232 . S
O208 C207 1.232 . S
C209 O201 1.260 . S
C209 O202 1.257 . S
Zn210 O213 2.031 . S
Zn210 O215 2.049 . S
Zn210 O220 2.067 . S
Zn211 O212 1.962 . S
Zn211 O214 1.986 . S
Zn211 O216 1.996 . S
Zn211 O219 1.943 . S
O212 Zn211 1.962 . S
O212 C217 1.254 . S
O213 Zn210 2.031 . S
O213 C217 1.269 . S
O214 Zn211 1.986 . S
O214 C221 1.262 . S
O215 Zn210 2.049 . S
O215 C223 1.260 . S
O216 Zn211 1.996 . S
O216 C223 1.257 . S
C217 O212 1.254 . S
C217 O213 1.269 . S
C218 O219 1.249 . S
C218 O220 1.270 . S
O219 Zn211 1.943 . S
O219 C218 1.249 . S
O220 Zn210 2.067 . S
O220 C218 1.270 . S
C221 O214 1.262 . S
C221 O222 1.232 . S
O222 C221 1.232 . S
C223 O215 1.260 . S
C223 O216 1.257 . S
H224 C236 0.930 . S
H225 C238 0.930 . S
H226 C239 0.930 . S
H227 C243 0.959 . S
H228 C243 0.959 . S
H229 C243 0.961 1_455 S
H230 C244 0.960 1_455 S
H231 C244 0.961 . S
H232 C244 0.959 . S
H233 C247 0.929 . S
H234 C248 0.931 . S
H235 C250 0.930 . S
C236 H224 0.930 . S
C236 C237 1.399 . S
C236 C241 1.399 . S
C237 C236 1.399 . S
C237 C238 1.376 . S
C238 H225 0.930 . S
C238 C237 1.376 . S
C238 C239 1.388 . S
C239 H226 0.930 . S
C239 C238 1.388 . S
C239 C240 1.390 . S
C240 C239 1.390 . S
C240 C241 1.394 . S
C240 C246 1.465 1_455 S
C241 C236 1.399 . S
C241 C240 1.394 . S
C241 C242 1.516 1_455 S
C242 C241 1.516 1_655 S
C242 C243 1.502 . S
C242 C244 1.561 . S
C242 C245 1.526 . S
C243 H227 0.959 . S
C243 H228 0.959 . S
C243 H229 0.961 1_655 S
C243 C242 1.502 . S
C244 H230 0.960 1_655 S
C244 H231 0.961 . S
C244 H232 0.959 . S
C244 C242 1.561 . S
C245 C242 1.526 . S
C245 C246 1.396 . S
C245 C250 1.390 . S
C246 C240 1.465 1_655 S
C246 C245 1.396 . S
C246 C247 1.399 . S
C247 H233 0.929 . S
C247 C246 1.399 . S
C247 C248 1.385 . S
C248 H234 0.931 . S
C248 C247 1.385 . S
C248 C249 1.389 . S
C249 C248 1.389 . S
C249 C250 1.387 . S
C250 H235 0.930 . S
C250 C245 1.390 . S
C250 C249 1.387 . S
H251 C263 0.930 . S
H252 C265 0.930 . S
H253 C266 0.930 . S
H254 C270 0.959 . S
H255 C270 0.959 . S
H256 C270 0.961 1_655 S
H257 C271 0.960 1_655 S
H258 C271 0.961 . S
H259 C271 0.959 . S
H260 C274 0.929 . S
H261 C275 0.931 . S
H262 C277 0.930 . S
C263 H251 0.930 . S
C263 C264 1.399 . S
C263 C268 1.399 . S
C264 C263 1.399 . S
C264 C265 1.376 . S
C265 H252 0.930 . S
C265 C264 1.376 . S
C265 C266 1.388 . S
C266 H253 0.930 . S
C266 C265 1.388 . S
C266 C267 1.390 . S
C267 C266 1.390 . S
C267 C268 1.394 . S
C267 C273 1.465 1_655 S
C268 C263 1.399 . S
C268 C267 1.394 . S
C268 C269 1.516 1_655 S
C269 C268 1.516 1_455 S
C269 C270 1.502 . S
C269 C271 1.561 . S
C269 C272 1.526 . S
C270 H254 0.959 . S
C270 H255 0.959 . S
C270 H256 0.961 1_455 S
C270 C269 1.502 . S
C271 H257 0.960 1_455 S
C271 H258 0.961 . S
C271 H259 0.959 . S
C271 C269 1.561 . S
C272 C269 1.526 . S
C272 C273 1.396 . S
C272 C277 1.390 . S
C273 C267 1.465 1_455 S
C273 C272 1.396 . S
C273 C274 1.399 . S
C274 H260 0.929 . S
C274 C273 1.399 . S
C274 C275 1.385 . S
C275 H261 0.931 . S
C275 C274 1.385 . S
C275 C276 1.389 . S
C276 C275 1.389 . S
C276 C277 1.387 . S
C277 H262 0.930 . S
C277 C272 1.390 . S
C277 C276 1.387 . S
H278 C290 0.930 . S
H279 C292 0.930 . S
H280 C293 0.930 . S
H281 C297 0.959 . S
H282 C297 0.959 1_455 S
H283 C297 0.961 . S
H284 C298 0.960 . S
H285 C298 0.961 1_455 S
H286 C298 0.959 . S
H287 C301 0.929 . S
H288 C302 0.931 . S
H289 C304 0.930 . S
C290 H278 0.930 . S
C290 C291 1.399 . S
C290 C295 1.399 . S
C291 C290 1.399 . S
C291 C292 1.376 . S
C292 H279 0.930 . S
C292 C291 1.376 . S
C292 C293 1.388 . S
C293 H280 0.930 . S
C293 C292 1.388 . S
C293 C294 1.390 . S
C294 C293 1.390 . S
C294 C295 1.394 . S
C294 C300 1.465 1_655 S
C295 C290 1.399 . S
C295 C294 1.394 . S
C295 C296 1.516 . S
C296 C295 1.516 . S
C296 C297 1.502 . S
C296 C298 1.561 . S
C296 C299 1.526 1_655 S
C297 H281 0.959 . S
C297 H282 0.959 1_655 S
C297 H283 0.961 . S
C297 C296 1.502 . S
C298 H284 0.960 . S
C298 H285 0.961 1_655 S
C298 H286 0.959 . S
C298 C296 1.561 . S
C299 C296 1.526 1_455 S
C299 C300 1.396 . S
C299 C304 1.390 . S
C300 C294 1.465 1_455 S
C300 C299 1.396 . S
C300 C301 1.399 . S
C301 H287 0.929 . S
C301 C300 1.399 . S
C301 C302 1.385 . S
C302 H288 0.931 . S
C302 C301 1.385 . S
C302 C303 1.389 . S
C303 C302 1.389 . S
C303 C304 1.387 . S
C304 H289 0.930 . S
C304 C299 1.390 . S
C304 C303 1.387 . S
H305 C317 0.930 . S
H306 C319 0.930 . S
H307 C320 0.930 . S
H308 C324 0.959 . S
H309 C324 0.959 1_655 S
H310 C324 0.961 . S
H311 C325 0.960 . S
H312 C325 0.961 1_655 S
H313 C325 0.959 . S
H314 C328 0.929 . S
H315 C329 0.931 . S
H316 C331 0.930 . S
C317 H305 0.930 . S
C317 C318 1.399 . S
C317 C322 1.399 . S
C318 C317 1.399 . S
C318 C319 1.376 . S
C319 H306 0.930 . S
C319 C318 1.376 . S
C319 C320 1.388 . S
C320 H307 0.930 . S
C320 C319 1.388 . S
C320 C321 1.390 . S
C321 C320 1.390 . S
C321 C322 1.394 . S
C321 C327 1.465 1_455 S
C322 C317 1.399 . S
C322 C321 1.394 . S
C322 C323 1.516 . S
C323 C322 1.516 . S
C323 C324 1.502 . S
C323 C325 1.561 . S
C323 C326 1.526 1_455 S
C324 H308 0.959 . S
C324 H309 0.959 1_455 S
C324 H310 0.961 . S
C324 C323 1.502 . S
C325 H311 0.960 . S
C325 H312 0.961 1_455 S
C325 H313 0.959 . S
C325 C323 1.561 . S
C326 C323 1.526 1_655 S
C326 C327 1.396 . S
C326 C331 1.390 . S
C327 C321 1.465 1_655 S
C327 C326 1.396 . S
C327 C328 1.399 . S
C328 H314 0.929 . S
C328 C327 1.399 . S
C328 C329 1.385 . S
C329 H315 0.931 . S
C329 C328 1.385 . S
C329 C330 1.389 . S
C330 C329 1.389 . S
C330 C331 1.387 . S
C331 H316 0.930 . S
C331 C326 1.390 . S
C331 C330 1.387 . S
H332 C344 0.930 . S
H333 C346 0.930 . S
H334 C347 0.930 . S
H335 C351 0.959 . S
H336 C351 0.959 . S
H337 C351 0.961 . S
H338 C352 0.960 . S
H339 C352 0.961 . S
H340 C352 0.959 . S
H341 C355 0.929 . S
H342 C356 0.931 . S
H343 C358 0.930 . S
C344 H332 0.930 . S
C344 C345 1.399 . S
C344 C349 1.399 . S
C345 C344 1.399 . S
C345 C346 1.376 . S
C346 H333 0.930 . S
C346 C345 1.376 . S
C346 C347 1.388 . S
C347 H334 0.930 . S
C347 C346 1.388 . S
C347 C348 1.390 . S
C348 C347 1.390 . S
C348 C349 1.394 . S
C348 C354 1.465 . S
C349 C344 1.399 . S
C349 C348 1.394 . S
C349 C350 1.516 . S
C350 C349 1.516 . S
C350 C351 1.502 . S
C350 C352 1.561 . S
C350 C353 1.526 . S
C351 H335 0.959 . S
C351 H336 0.959 . S
C351 H337 0.961 . S
C351 C350 1.502 . S
C352 H338 0.960 . S
C352 H339 0.961 . S
C352 H340 0.959 . S
C352 C350 1.561 . S
C353 C350 1.526 . S
C353 C354 1.396 . S
C353 C358 1.390 . S
C354 C348 1.465 . S
C354 C353 1.396 . S
C354 C355 1.399 . S
C355 H341 0.929 . S
C355 C354 1.399 . S
C355 C356 1.385 . S
C356 H342 0.931 . S
C356 C355 1.385 . S
C356 C357 1.389 . S
C357 C356 1.389 . S
C357 C358 1.387 . S
C358 H343 0.930 . S
C358 C353 1.390 . S
C358 C357 1.387 . S
H359 C371 0.930 . S
H360 C373 0.930 . S
H361 C374 0.930 . S
H362 C378 0.959 . S
H363 C378 0.959 . S
H364 C378 0.961 . S
H365 C379 0.960 . S
H366 C379 0.961 . S
H367 C379 0.959 . S
H368 C382 0.929 . S
H369 C383 0.931 . S
H370 C385 0.930 . S
C371 H359 0.930 . S
C371 C372 1.399 . S
C371 C376 1.399 . S
C372 C371 1.399 . S
C372 C373 1.376 . S
C373 H360 0.930 . S
C373 C372 1.376 . S
C373 C374 1.388 . S
C374 H361 0.930 . S
C374 C373 1.388 . S
C374 C375 1.390 . S
C375 C374 1.390 . S
C375 C376 1.394 . S
C375 C381 1.465 . S
C376 C371 1.399 . S
C376 C375 1.394 . S
C376 C377 1.516 . S
C377 C376 1.516 . S
C377 C378 1.502 . S
C377 C379 1.561 . S
C377 C380 1.526 . S
C378 H362 0.959 . S
C378 H363 0.959 . S
C378 H364 0.961 . S
C378 C377 1.502 . S
C379 H365 0.960 . S
C379 H366 0.961 . S
C379 H367 0.959 . S
C379 C377 1.561 . S
C380 C377 1.526 . S
C380 C381 1.396 . S
C380 C385 1.390 . S
C381 C375 1.465 . S
C381 C380 1.396 . S
C381 C382 1.399 . S
C382 H368 0.929 . S
C382 C381 1.399 . S
C382 C383 1.385 . S
C383 H369 0.931 . S
C383 C382 1.385 . S
C383 C384 1.389 . S
C384 C383 1.389 . S
C384 C385 1.387 . S
C385 H370 0.930 . S
C385 C380 1.390 . S
C385 C384 1.387 . S
H386 C398 0.930 . S
H387 C400 0.930 . S
H388 C401 0.930 . S
H389 C405 0.959 . S
H390 C405 0.959 . S
H391 C405 0.961 . S
H392 C406 0.960 . S
H393 C406 0.961 . S
H394 C406 0.959 . S
H395 C409 0.929 . S
H396 C410 0.931 . S
H397 C412 0.930 . S
C398 H386 0.930 . S
C398 C399 1.399 . S
C398 C403 1.399 . S
C399 C398 1.399 . S
C399 C400 1.376 . S
C400 H387 0.930 . S
C400 C399 1.376 . S
C400 C401 1.388 . S
C401 H388 0.930 . S
C401 C400 1.388 . S
C401 C402 1.390 . S
C402 C401 1.390 . S
C402 C403 1.394 . S
C402 C408 1.465 . S
C403 C398 1.399 . S
C403 C402 1.394 . S
C403 C404 1.516 . S
C404 C403 1.516 . S
C404 C405 1.502 . S
C404 C406 1.561 . S
C404 C407 1.526 . S
C405 H389 0.959 . S
C405 H390 0.959 . S
C405 H391 0.961 . S
C405 C404 1.502 . S
C406 H392 0.960 . S
C406 H393 0.961 . S
C406 H394 0.959 . S
C406 C404 1.561 . S
C407 C404 1.526 . S
C407 C408 1.396 . S
C407 C412 1.390 . S
C408 C402 1.465 . S
C408 C407 1.396 . S
C408 C409 1.399 . S
C409 H395 0.929 . S
C409 C408 1.399 . S
C409 C410 1.385 . S
C410 H396 0.931 . S
C410 C409 1.385 . S
C410 C411 1.389 . S
C411 C410 1.389 . S
C411 C412 1.387 . S
C412 H397 0.930 . S
C412 C407 1.390 . S
C412 C411 1.387 . S
H413 C425 0.930 . S
H414 C427 0.930 . S
H415 C428 0.930 . S
H416 C432 0.959 . S
H417 C432 0.959 . S
H418 C432 0.961 . S
H419 C433 0.960 . S
H420 C433 0.961 . S
H421 C433 0.959 . S
H422 C436 0.929 . S
H423 C437 0.931 . S
H424 C439 0.930 . S
C425 H413 0.930 . S
C425 C426 1.399 . S
C425 C430 1.399 . S
C426 C425 1.399 . S
C426 C427 1.376 . S
C427 H414 0.930 . S
C427 C426 1.376 . S
C427 C428 1.388 . S
C428 H415 0.930 . S
C428 C427 1.388 . S
C428 C429 1.390 . S
C429 C428 1.390 . S
C429 C430 1.394 . S
C429 C435 1.465 . S
C430 C425 1.399 . S
C430 C429 1.394 . S
C430 C431 1.516 . S
C431 C430 1.516 . S
C431 C432 1.502 . S
C431 C433 1.561 . S
C431 C434 1.526 . S
C432 H416 0.959 . S
C432 H417 0.959 . S
C432 H418 0.961 . S
C432 C431 1.502 . S
C433 H419 0.960 . S
C433 H420 0.961 . S
C433 H421 0.959 . S
C433 C431 1.561 . S
C434 C431 1.526 . S
C434 C435 1.396 . S
C434 C439 1.390 . S
C435 C429 1.465 . S
C435 C434 1.396 . S
C435 C436 1.399 . S
C436 H422 0.929 . S
C436 C435 1.399 . S
C436 C437 1.385 . S
C437 H423 0.931 . S
C437 C436 1.385 . S
C437 C438 1.389 . S
C438 C437 1.389 . S
C438 C439 1.387 . S
C439 H424 0.930 . S
C439 C434 1.390 . S
C439 C438 1.387 . S
H440 C452 0.930 . S
H441 C454 0.930 . S
H442 C455 0.930 . S
H443 C459 0.959 . S
H444 C459 0.959 . S
H445 C459 0.961 . S
H446 C460 0.960 . S
H447 C460 0.961 . S
H448 C460 0.959 . S
H449 C463 0.929 . S
H450 C464 0.931 . S
H451 C466 0.930 . S
C452 H440 0.930 . S
C452 C453 1.399 . S
C452 C457 1.399 . S
C453 C452 1.399 . S
C453 C454 1.376 . S
C454 H441 0.930 . S
C454 C453 1.376 . S
C454 C455 1.388 . S
C455 H442 0.930 . S
C455 C454 1.388 . S
C455 C456 1.390 . S
C456 C455 1.390 . S
C456 C457 1.394 . S
C456 C462 1.465 . S
C457 C452 1.399 . S
C457 C456 1.394 . S
C457 C458 1.516 . S
C458 C457 1.516 . S
C458 C459 1.502 . S
C458 C460 1.561 . S
C458 C461 1.526 . S
C459 H443 0.959 . S
C459 H444 0.959 . S
C459 H445 0.961 . S
C459 C458 1.502 . S
C460 H446 0.960 . S
C460 H447 0.961 . S
C460 H448 0.959 . S
C460 C458 1.561 . S
C461 C458 1.526 . S
C461 C462 1.396 . S
C461 C466 1.390 . S
C462 C456 1.465 . S
C462 C461 1.396 . S
C462 C463 1.399 . S
C463 H449 0.929 . S
C463 C462 1.399 . S
C463 C464 1.385 . S
C464 H450 0.931 . S
C464 C463 1.385 . S
C464 C465 1.389 . S
C465 C464 1.389 . S
C465 C466 1.387 . S
C466 H451 0.930 . S
C466 C461 1.390 . S
C466 C465 1.387 . S
H467 C479 0.930 . S
H468 C481 0.930 . S
H469 C482 0.930 . S
H470 C486 0.959 . S
H471 C486 0.959 . S
H472 C486 0.961 . S
H473 C487 0.960 . S
H474 C487 0.961 . S
H475 C487 0.959 . S
H476 C490 0.929 . S
H477 C491 0.931 . S
H478 C493 0.930 . S
C479 H467 0.930 . S
C479 C480 1.399 . S
C479 C484 1.399 . S
C480 C479 1.399 . S
C480 C481 1.376 . S
C481 H468 0.930 . S
C481 C480 1.376 . S
C481 C482 1.388 . S
C482 H469 0.930 . S
C482 C481 1.388 . S
C482 C483 1.390 . S
C483 C482 1.390 . S
C483 C484 1.394 . S
C483 C489 1.465 . S
C484 C479 1.399 . S
C484 C483 1.394 . S
C484 C485 1.516 . S
C485 C484 1.516 . S
C485 C486 1.502 . S
C485 C487 1.561 . S
C485 C488 1.526 . S
C486 H470 0.959 . S
C486 H471 0.959 . S
C486 H472 0.961 . S
C486 C485 1.502 . S
C487 H473 0.960 . S
C487 H474 0.961 . S
C487 H475 0.959 . S
C487 C485 1.561 . S
C488 C485 1.526 . S
C488 C489 1.396 . S
C488 C493 1.390 . S
C489 C483 1.465 . S
C489 C488 1.396 . S
C489 C490 1.399 . S
C490 H476 0.929 . S
C490 C489 1.399 . S
C490 C491 1.385 . S
C491 H477 0.931 . S
C491 C490 1.385 . S
C491 C492 1.389 . S
C492 C491 1.389 . S
C492 C493 1.387 . S
C493 H478 0.930 . S
C493 C488 1.390 . S
C493 C492 1.387 . S
H494 C506 0.930 . S
H495 C508 0.930 . S
H496 C509 0.930 . S
H497 C513 0.959 . S
H498 C513 0.959 . S
H499 C513 0.961 . S
H500 C514 0.960 . S
H501 C514 0.961 . S
H502 C514 0.959 . S
H503 C517 0.929 . S
H504 C518 0.931 . S
H505 C520 0.930 . S
C506 H494 0.930 . S
C506 C507 1.399 . S
C506 C511 1.399 . S
C507 C506 1.399 . S
C507 C508 1.376 . S
C508 H495 0.930 . S
C508 C507 1.376 . S
C508 C509 1.388 . S
C509 H496 0.930 . S
C509 C508 1.388 . S
C509 C510 1.390 . S
C510 C509 1.390 . S
C510 C511 1.394 . S
C510 C516 1.465 . S
C511 C506 1.399 . S
C511 C510 1.394 . S
C511 C512 1.516 . S
C512 C511 1.516 . S
C512 C513 1.502 . S
C512 C514 1.561 . S
C512 C515 1.526 . S
C513 H497 0.959 . S
C513 H498 0.959 . S
C513 H499 0.961 . S
C513 C512 1.502 . S
C514 H500 0.960 . S
C514 H501 0.961 . S
C514 H502 0.959 . S
C514 C512 1.561 . S
C515 C512 1.526 . S
C515 C516 1.396 . S
C515 C520 1.390 . S
C516 C510 1.465 . S
C516 C515 1.396 . S
C516 C517 1.399 . S
C517 H503 0.929 . S
C517 C516 1.399 . S
C517 C518 1.385 . S
C518 H504 0.931 . S
C518 C517 1.385 . S
C518 C519 1.389 . S
C519 C518 1.389 . S
C519 C520 1.387 . S
C520 H505 0.930 . S
C520 C515 1.390 . S
C520 C519 1.387 . S
H521 C533 0.930 . S
H522 C535 0.930 . S
H523 C536 0.930 . S
H524 C540 0.959 . S
H525 C540 0.959 . S
H526 C540 0.961 . S
H527 C541 0.960 . S
H528 C541 0.961 . S
H529 C541 0.959 . S
H530 C544 0.929 . S
H531 C545 0.931 . S
H532 C547 0.930 . S
C533 H521 0.930 . S
C533 C534 1.399 . S
C533 C538 1.399 . S
C534 C533 1.399 . S
C534 C535 1.376 . S
C535 H522 0.930 . S
C535 C534 1.376 . S
C535 C536 1.388 . S
C536 H523 0.930 . S
C536 C535 1.388 . S
C536 C537 1.390 . S
C537 C536 1.390 . S
C537 C538 1.394 . S
C537 C543 1.465 . S
C538 C533 1.399 . S
C538 C537 1.394 . S
C538 C539 1.516 . S
C539 C538 1.516 . S
C539 C540 1.502 . S
C539 C541 1.561 . S
C539 C542 1.526 . S
C540 H524 0.959 . S
C540 H525 0.959 . S
C540 H526 0.961 . S
C540 C539 1.502 . S
C541 H527 0.960 . S
C541 H528 0.961 . S
C541 H529 0.959 . S
C541 C539 1.561 . S
C542 C539 1.526 . S
C542 C543 1.396 . S
C542 C547 1.390 . S
C543 C537 1.465 . S
C543 C542 1.396 . S
C543 C544 1.399 . S
C544 H530 0.929 . S
C544 C543 1.399 . S
C544 C545 1.385 . S
C545 H531 0.931 . S
C545 C544 1.385 . S
C545 C546 1.389 . S
C546 C545 1.389 . S
C546 C547 1.387 . S
C547 H532 0.930 . S
C547 C542 1.390 . S
C547 C546 1.387 . S
H548 C560 0.930 . S
H549 C562 0.930 . S
H550 C563 0.930 . S
H551 C567 0.959 . S
H552 C567 0.959 . S
H553 C567 0.961 . S
H554 C568 0.960 . S
H555 C568 0.961 . S
H556 C568 0.959 . S
H557 C571 0.929 . S
H558 C572 0.931 . S
H559 C574 0.930 . S
C560 H548 0.930 . S
C560 C561 1.399 . S
C560 C565 1.399 . S
C561 C560 1.399 . S
C561 C562 1.376 . S
C562 H549 0.930 . S
C562 C561 1.376 . S
C562 C563 1.388 . S
C563 H550 0.930 . S
C563 C562 1.388 . S
C563 C564 1.390 . S
C564 C563 1.390 . S
C564 C565 1.394 . S
C564 C570 1.465 . S
C565 C560 1.399 . S
C565 C564 1.394 . S
C565 C566 1.516 . S
C566 C565 1.516 . S
C566 C567 1.502 . S
C566 C568 1.561 . S
C566 C569 1.526 . S
C567 H551 0.959 . S
C567 H552 0.959 . S
C567 H553 0.961 . S
C567 C566 1.502 . S
C568 H554 0.960 . S
C568 H555 0.961 . S
C568 H556 0.959 . S
C568 C566 1.561 . S
C569 C566 1.526 . S
C569 C570 1.396 . S
C569 C574 1.390 . S
C570 C564 1.465 . S
C570 C569 1.396 . S
C570 C571 1.399 . S
C571 H557 0.929 . S
C571 C570 1.399 . S
C571 C572 1.385 . S
C572 H558 0.931 . S
C572 C571 1.385 . S
C572 C573 1.389 . S
C573 C572 1.389 . S
C573 C574 1.387 . S
C574 H559 0.930 . S
C574 C569 1.390 . S
C574 C573 1.387 . S
H575 C587 0.930 . S
H576 C589 0.930 . S
H577 C590 0.930 . S
H578 C594 0.959 . S
H579 C594 0.959 . S
H580 C594 0.961 . S
H581 C595 0.960 . S
H582 C595 0.961 . S
H583 C595 0.959 . S
H584 C598 0.929 . S
H585 C599 0.931 . S
H586 C601 0.930 . S
C587 H575 0.930 . S
C587 C588 1.399 . S
C587 C592 1.399 . S
C588 C587 1.399 . S
C588 C589 1.376 . S
C589 H576 0.930 . S
C589 C588 1.376 . S
C589 C590 1.388 . S
C590 H577 0.930 . S
C590 C589 1.388 . S
C590 C591 1.390 . S
C591 C590 1.390 . S
C591 C592 1.394 . S
C591 C597 1.465 . S
C592 C587 1.399 . S
C592 C591 1.394 . S
C592 C593 1.516 . S
C593 C592 1.516 . S
C593 C594 1.502 . S
C593 C595 1.561 . S
C593 C596 1.526 . S
C594 H578 0.959 . S
C594 H579 0.959 . S
C594 H580 0.961 . S
C594 C593 1.502 . S
C595 H581 0.960 . S
C595 H582 0.961 . S
C595 H583 0.959 . S
C595 C593 1.561 . S
C596 C593 1.526 . S
C596 C597 1.396 . S
C596 C601 1.390 . S
C597 C591 1.465 . S
C597 C596 1.396 . S
C597 C598 1.399 . S
C598 H584 0.929 . S
C598 C597 1.399 . S
C598 C599 1.385 . S
C599 H585 0.931 . S
C599 C598 1.385 . S
C599 C600 1.389 . S
C600 C599 1.389 . S
C600 C601 1.387 . S
C601 H586 0.930 . S
C601 C596 1.390 . S
C601 C600 1.387 . S
H602 C614 0.930 . S
H603 C616 0.930 . S
H604 C617 0.930 . S
H605 C621 0.959 . S
H606 C621 0.959 . S
H607 C621 0.961 . S
H608 C622 0.960 . S
H609 C622 0.961 . S
H610 C622 0.959 . S
H611 C625 0.929 . S
H612 C626 0.931 . S
H613 C628 0.930 . S
C614 H602 0.930 . S
C614 C615 1.399 . S
C614 C619 1.399 . S
C615 C614 1.399 . S
C615 C616 1.376 . S
C616 H603 0.930 . S
C616 C615 1.376 . S
C616 C617 1.388 . S
C617 H604 0.930 . S
C617 C616 1.388 . S
C617 C618 1.390 . S
C618 C617 1.390 . S
C618 C619 1.394 . S
C618 C624 1.465 . S
C619 C614 1.399 . S
C619 C618 1.394 . S
C619 C620 1.516 . S
C620 C619 1.516 . S
C620 C621 1.502 . S
C620 C622 1.561 . S
C620 C623 1.526 . S
C621 H605 0.959 . S
C621 H606 0.959 . S
C621 H607 0.961 . S
C621 C620 1.502 . S
C622 H608 0.960 . S
C622 H609 0.961 . S
C622 H610 0.959 . S
C622 C620 1.561 . S
C623 C620 1.526 . S
C623 C624 1.396 . S
C623 C628 1.390 . S
C624 C618 1.465 . S
C624 C623 1.396 . S
C624 C625 1.399 . S
C625 H611 0.929 . S
C625 C624 1.399 . S
C625 C626 1.385 . S
C626 H612 0.931 . S
C626 C625 1.385 . S
C626 C627 1.389 . S
C627 C626 1.389 . S
C627 C628 1.387 . S
C628 H613 0.930 . S
C628 C623 1.390 . S
C628 C627 1.387 . S
H629 C641 0.930 . S
H630 C643 0.930 . S
H631 C644 0.930 . S
H632 C648 0.959 . S
H633 C648 0.959 . S
H634 C648 0.961 . S
H635 C649 0.960 . S
H636 C649 0.961 . S
H637 C649 0.959 . S
H638 C652 0.929 . S
H639 C653 0.931 . S
H640 C655 0.930 . S
C641 H629 0.930 . S
C641 C642 1.399 . S
C641 C646 1.399 . S
C642 C641 1.399 . S
C642 C643 1.376 . S
C643 H630 0.930 . S
C643 C642 1.376 . S
C643 C644 1.388 . S
C644 H631 0.930 . S
C644 C643 1.388 . S
C644 C645 1.390 . S
C645 C644 1.390 . S
C645 C646 1.394 . S
C645 C651 1.465 . S
C646 C641 1.399 . S
C646 C645 1.394 . S
C646 C647 1.516 . S
C647 C646 1.516 . S
C647 C648 1.502 . S
C647 C649 1.561 . S
C647 C650 1.526 . S
C648 H632 0.959 . S
C648 H633 0.959 . S
C648 H634 0.961 . S
C648 C647 1.502 . S
C649 H635 0.960 . S
C649 H636 0.961 . S
C649 H637 0.959 . S
C649 C647 1.561 . S
C650 C647 1.526 . S
C650 C651 1.396 . S
C650 C655 1.390 . S
C651 C645 1.465 . S
C651 C650 1.396 . S
C651 C652 1.399 . S
C652 H638 0.929 . S
C652 C651 1.399 . S
C652 C653 1.385 . S
C653 H639 0.931 . S
C653 C652 1.385 . S
C653 C654 1.389 . S
C654 C653 1.389 . S
C654 C655 1.387 . S
C655 H640 0.930 . S
C655 C650 1.390 . S
C655 C654 1.387 . S
H656 C668 0.930 . S
H657 C670 0.930 . S
H658 C671 0.930 . S
H659 C675 0.959 . S
H660 C675 0.959 . S
H661 C675 0.961 . S
H662 C676 0.960 . S
H663 C676 0.961 . S
H664 C676 0.959 . S
H665 C679 0.929 . S
H666 C680 0.931 . S
H667 C682 0.930 . S
C668 H656 0.930 . S
C668 C669 1.399 . S
C668 C673 1.399 . S
C669 C668 1.399 . S
C669 C670 1.376 . S
C670 H657 0.930 . S
C670 C669 1.376 . S
C670 C671 1.388 . S
C671 H658 0.930 . S
C671 C670 1.388 . S
C671 C672 1.390 . S
C672 C671 1.390 . S
C672 C673 1.394 . S
C672 C678 1.465 . S
C673 C668 1.399 . S
C673 C672 1.394 . S
C673 C674 1.516 1_556 S
C674 C673 1.516 1_554 S
C674 C675 1.502 . S
C674 C676 1.561 . S
C674 C677 1.526 . S
C675 H659 0.959 . S
C675 H660 0.959 . S
C675 H661 0.961 . S
C675 C674 1.502 . S
C676 H662 0.960 . S
C676 H663 0.961 . S
C676 H664 0.959 . S
C676 C674 1.561 . S
C677 C674 1.526 . S
C677 C678 1.396 1_554 S
C677 C682 1.390 . S
C678 C672 1.465 . S
C678 C677 1.396 1_556 S
C678 C679 1.399 . S
C679 H665 0.929 . S
C679 C678 1.399 . S
C679 C680 1.385 1_556 S
C680 H666 0.931 . S
C680 C679 1.385 1_554 S
C680 C681 1.389 . S
C681 C680 1.389 . S
C681 C682 1.387 . S
C682 H667 0.930 . S
C682 C677 1.390 . S
C682 C681 1.387 . S
H683 C695 0.930 . S
H684 C697 0.930 . S
H685 C698 0.930 . S
H686 C702 0.959 . S
H687 C702 0.959 . S
H688 C702 0.961 . S
H689 C703 0.960 . S
H690 C703 0.961 . S
H691 C703 0.959 . S
H692 C706 0.929 . S
H693 C707 0.931 . S
H694 C709 0.930 . S
C695 H683 0.930 . S
C695 C696 1.399 . S
C695 C700 1.399 . S
C696 C695 1.399 . S
C696 C697 1.376 . S
C697 H684 0.930 . S
C697 C696 1.376 . S
C697 C698 1.388 . S
C698 H685 0.930 . S
C698 C697 1.388 . S
C698 C699 1.390 . S
C699 C698 1.390 . S
C699 C700 1.394 . S
C699 C705 1.465 . S
C700 C695 1.399 . S
C700 C699 1.394 . S
C700 C701 1.516 . S
C701 C700 1.516 . S
C701 C702 1.502 . S
C701 C703 1.561 . S
C701 C704 1.526 . S
C702 H686 0.959 . S
C702 H687 0.959 . S
C702 H688 0.961 . S
C702 C701 1.502 . S
C703 H689 0.960 . S
C703 H690 0.961 . S
C703 H691 0.959 . S
C703 C701 1.561 . S
C704 C701 1.526 . S
C704 C705 1.396 . S
C704 C709 1.390 . S
C705 C699 1.465 . S
C705 C704 1.396 . S
C705 C706 1.399 . S
C706 H692 0.929 . S
C706 C705 1.399 . S
C706 C707 1.385 . S
C707 H693 0.931 . S
C707 C706 1.385 . S
C707 C708 1.389 . S
C708 C707 1.389 . S
C708 C709 1.387 . S
C709 H694 0.930 . S
C709 C704 1.390 . S
C709 C708 1.387 . S
H710 C722 0.928 1_556 S
H711 C724 0.930 . S
H712 C725 0.930 . S
H713 C729 0.959 . S
H714 C729 0.959 . S
H715 C729 0.961 . S
H716 C730 0.960 . S
H717 C730 0.961 . S
H718 C730 0.959 . S
H719 C733 0.929 . S
H720 C734 0.938 . S
H721 C736 0.930 . S
C722 H710 0.928 1_554 S
C722 C723 1.399 . S
C722 C727 1.399 . S
C723 C722 1.399 . S
C723 C724 1.376 . S
C724 H711 0.930 . S
C724 C723 1.376 . S
C724 C725 1.388 . S
C725 H712 0.930 . S
C725 C724 1.388 . S
C725 C726 1.390 . S
C726 C725 1.390 . S
C726 C727 1.394 . S
C726 C732 1.465 . S
C727 C722 1.399 . S
C727 C726 1.394 . S
C727 C728 1.516 1_554 S
C728 C727 1.516 1_556 S
C728 C729 1.502 . S
C728 C730 1.561 . S
C728 C731 1.526 . S
C729 H713 0.959 . S
C729 H714 0.959 . S
C729 H715 0.961 . S
C729 C728 1.502 . S
C730 H716 0.960 . S
C730 H717 0.961 . S
C730 H718 0.959 . S
C730 C728 1.561 . S
C731 C728 1.526 . S
C731 C732 1.396 1_556 S
C731 C736 1.390 . S
C732 C726 1.465 . S
C732 C731 1.396 1_554 S
C732 C733 1.399 . S
C733 H719 0.929 . S
C733 C732 1.399 . S
C733 C734 1.385 1_554 S
C734 H720 0.938 . S
C734 C733 1.385 1_556 S
C734 C735 1.389 . S
C735 C734 1.389 . S
C735 C736 1.387 . S
C736 H721 0.930 . S
C736 C731 1.390 . S
C736 C735 1.387 . S
H737 C749 0.930 . S
H738 C751 0.930 . S
H739 C752 0.930 . S
H740 C756 0.959 . S
H741 C756 0.959 . S
H742 C756 0.961 . S
H743 C757 0.960 . S
H744 C757 0.961 . S
H745 C757 0.959 . S
H746 C760 0.929 . S
H747 C761 0.931 . S
H748 C763 0.930 . S
C749 H737 0.930 . S
C749 C750 1.399 . S
C749 C754 1.399 . S
C750 C749 1.399 . S
C750 C751 1.376 . S
C751 H738 0.930 . S
C751 C750 1.376 . S
C751 C752 1.388 . S
C752 H739 0.930 . S
C752 C751 1.388 . S
C752 C753 1.390 . S
C753 C752 1.390 . S
C753 C754 1.394 . S
C753 C759 1.465 . S
C754 C749 1.399 . S
C754 C753 1.394 . S
C754 C755 1.516 . S
C755 C754 1.516 . S
C755 C756 1.502 . S
C755 C757 1.561 . S
C755 C758 1.526 . S
C756 H740 0.959 . S
C756 H741 0.959 . S
C756 H742 0.961 . S
C756 C755 1.502 . S
C757 H743 0.960 . S
C757 H744 0.961 . S
C757 H745 0.959 . S
C757 C755 1.561 . S
C758 C755 1.526 . S
C758 C759 1.396 . S
C758 C763 1.390 . S
C759 C753 1.465 . S
C759 C758 1.396 . S
C759 C760 1.399 . S
C760 H746 0.929 . S
C760 C759 1.399 . S
C760 C761 1.385 . S
C761 H747 0.931 . S
C761 C760 1.385 . S
C761 C762 1.389 . S
C762 C761 1.389 . S
C762 C763 1.387 . S
C763 H748 0.930 . S
C763 C758 1.390 . S
C763 C762 1.387 . S
H764 C776 0.930 1_556 S
H765 C778 0.930 . S
H766 C779 0.930 . S
H767 C783 0.959 . S
H768 C783 0.959 . S
H769 C783 0.961 . S
H770 C784 0.960 . S
H771 C784 0.961 . S
H772 C784 0.959 . S
H773 C787 0.929 . S
H774 C788 0.931 1_554 S
H775 C790 0.930 . S
C776 H764 0.930 1_554 S
C776 C777 1.399 . S
C776 C781 1.388 1_554 S
C777 C776 1.399 . S
C777 C778 1.376 . S
C778 H765 0.930 . S
C778 C777 1.376 . S
C778 C779 1.388 . S
C779 H766 0.930 . S
C779 C778 1.388 . S
C779 C780 1.390 . S
C780 C779 1.390 . S
C780 C781 1.369 1_554 S
C780 C786 1.465 . S
C781 C776 1.388 1_556 S
C781 C780 1.369 1_556 S
C781 C782 1.551 . S
C782 C781 1.551 . S
C782 C783 1.502 . S
C782 C784 1.561 . S
C782 C785 1.526 . S
C783 H767 0.959 . S
C783 H768 0.959 . S
C783 H769 0.961 . S
C783 C782 1.502 . S
C784 H770 0.960 . S
C784 H771 0.961 . S
C784 H772 0.959 . S
C784 C782 1.561 . S
C785 C782 1.526 . S
C785 C786 1.396 1_556 S
C785 C790 1.390 . S
C786 C780 1.465 . S
C786 C785 1.396 1_554 S
C786 C787 1.399 . S
C787 H773 0.929 . S
C787 C786 1.399 . S
C787 C788 1.385 1_554 S
C788 H774 0.931 1_556 S
C788 C787 1.385 1_556 S
C788 C789 1.389 . S
C789 C788 1.389 . S
C789 C790 1.387 . S
C790 H775 0.930 . S
C790 C785 1.390 . S
C790 C789 1.387 . S
H791 C803 0.930 . S
H792 C805 0.930 . S
H793 C806 0.930 . S
H794 C810 0.959 . S
H795 C810 0.959 . S
H796 C810 0.961 . S
H797 C811 0.960 . S
H798 C811 0.961 . S
H799 C811 0.959 . S
H800 C814 0.929 . S
H801 C815 0.931 . S
H802 C817 0.930 . S
C803 H791 0.930 . S
C803 C804 1.399 . S
C803 C808 1.399 . S
C804 C803 1.399 . S
C804 C805 1.376 . S
C805 H792 0.930 . S
C805 C804 1.376 . S
C805 C806 1.388 . S
C806 H793 0.930 . S
C806 C805 1.388 . S
C806 C807 1.390 . S
C807 C806 1.390 . S
C807 C808 1.394 . S
C807 C813 1.465 . S
C808 C803 1.399 . S
C808 C807 1.394 . S
C808 C809 1.516 . S
C809 C808 1.516 . S
C809 C810 1.502 . S
C809 C811 1.561 . S
C809 C812 1.526 . S
C810 H794 0.959 . S
C810 H795 0.959 . S
C810 H796 0.961 . S
C810 C809 1.502 . S
C811 H797 0.960 . S
C811 H798 0.961 . S
C811 H799 0.959 . S
C811 C809 1.561 . S
C812 C809 1.526 . S
C812 C813 1.396 . S
C812 C817 1.390 . S
C813 C807 1.465 . S
C813 C812 1.396 . S
C813 C814 1.399 . S
C814 H800 0.929 . S
C814 C813 1.399 . S
C814 C815 1.385 . S
C815 H801 0.931 . S
C815 C814 1.385 . S
C815 C816 1.389 . S
C816 C815 1.389 . S
C816 C817 1.387 . S
C817 H802 0.930 . S
C817 C812 1.390 . S
C817 C816 1.387 . S
H818 C830 0.930 1_556 S
H819 C832 0.930 . S
H820 C833 0.930 . S
H821 C837 0.959 . S
H822 C837 0.959 . S
H823 C837 0.961 . S
H824 C838 0.960 . S
H825 C838 0.961 . S
H826 C838 0.959 . S
H827 C841 0.929 . S
H828 C842 0.931 1_554 S
H829 C844 0.930 . S
C830 H818 0.930 1_554 S
C830 C831 1.399 . S
C830 C835 1.410 . S
C831 C830 1.399 . S
C831 C832 1.376 . S
C832 H819 0.930 . S
C832 C831 1.376 . S
C832 C833 1.388 . S
C833 H820 0.930 . S
C833 C832 1.388 . S
C833 C834 1.390 . S
C834 C833 1.390 . S
C834 C835 1.416 . S
C834 C840 1.465 . S
C835 C830 1.410 . S
C835 C834 1.416 . S
C835 C836 1.485 1_554 S
C836 C835 1.485 1_556 S
C836 C837 1.502 . S
C836 C838 1.561 . S
C836 C839 1.526 . S
C837 H821 0.959 . S
C837 H822 0.959 . S
C837 H823 0.961 . S
C837 C836 1.502 . S
C838 H824 0.960 . S
C838 H825 0.961 . S
C838 H826 0.959 . S
C838 C836 1.561 . S
C839 C836 1.526 . S
C839 C840 1.396 1_556 S
C839 C844 1.390 . S
C840 C834 1.465 . S
C840 C839 1.396 1_554 S
C840 C841 1.399 . S
C841 H827 0.929 . S
C841 C840 1.399 . S
C841 C842 1.385 1_554 S
C842 H828 0.931 1_556 S
C842 C841 1.385 1_556 S
C842 C843 1.389 . S
C843 C842 1.389 . S
C843 C844 1.387 . S
C844 H829 0.930 . S
C844 C839 1.390 . S
C844 C843 1.387 . S
H845 C857 0.930 . S
H846 C859 0.930 . S
H847 C860 0.930 . S
H848 C864 0.959 . S
H849 C864 0.959 . S
H850 C864 0.961 . S
H851 C865 0.960 . S
H852 C865 0.961 . S
H853 C865 0.959 . S
H854 C868 0.929 . S
H855 C869 0.931 . S
H856 C871 0.930 . S
C857 H845 0.930 . S
C857 C858 1.399 . S
C857 C862 1.399 . S
C858 C857 1.399 . S
C858 C859 1.376 . S
C859 H846 0.930 . S
C859 C858 1.376 . S
C859 C860 1.388 . S
C860 H847 0.930 . S
C860 C859 1.388 . S
C860 C861 1.390 . S
C861 C860 1.390 . S
C861 C862 1.394 . S
C861 C867 1.465 . S
C862 C857 1.399 . S
C862 C861 1.394 . S
C862 C863 1.516 . S
C863 C862 1.516 . S
C863 C864 1.502 . S
C863 C865 1.561 . S
C863 C866 1.526 . S
C864 H848 0.959 . S
C864 H849 0.959 . S
C864 H850 0.961 . S
C864 C863 1.502 . S
C865 H851 0.960 . S
C865 H852 0.961 . S
C865 H853 0.959 . S
C865 C863 1.561 . S
C866 C863 1.526 . S
C866 C867 1.396 . S
C866 C871 1.390 . S
C867 C861 1.465 . S
C867 C866 1.396 . S
C867 C868 1.399 . S
C868 H854 0.929 . S
C868 C867 1.399 . S
C868 C869 1.385 . S
C869 H855 0.931 . S
C869 C868 1.385 . S
C869 C870 1.389 . S
C870 C869 1.389 . S
C870 C871 1.387 . S
C871 H856 0.930 . S
C871 C866 1.390 . S
C871 C870 1.387 . S
H872 C884 0.930 . S
H873 C886 0.930 1_554 S
H874 C887 0.930 . S
H875 C891 0.959 . S
H876 C891 0.959 . S
H877 C891 0.961 . S
H878 C892 0.960 . S
H879 C892 0.961 . S
H880 C892 0.959 . S
H881 C895 0.929 . S
H882 C896 0.931 . S
H883 C898 0.930 1_556 S
C884 H872 0.930 . S
C884 C885 1.399 . S
C884 C889 1.399 . S
C885 C884 1.399 . S
C885 C886 1.376 . S
C886 H873 0.930 1_556 S
C886 C885 1.376 . S
C886 C887 1.388 1_556 S
C887 H874 0.930 . S
C887 C886 1.388 1_554 S
C887 C888 1.390 . S
C888 C887 1.390 . S
C888 C889 1.394 1_554 S
C888 C894 1.465 . S
C889 C884 1.399 . S
C889 C888 1.394 1_556 S
C889 C890 1.516 . S
C890 C889 1.516 . S
C890 C891 1.502 . S
C890 C892 1.561 . S
C890 C893 1.529 . S
C891 H875 0.959 . S
C891 H876 0.959 . S
C891 H877 0.961 . S
C891 C890 1.502 . S
C892 H878 0.960 . S
C892 H879 0.961 . S
C892 H880 0.959 . S
C892 C890 1.561 . S
C893 C890 1.529 . S
C893 C894 1.394 1_556 S
C893 C898 1.389 1_556 S
C894 C888 1.465 . S
C894 C893 1.394 1_554 S
C894 C895 1.399 . S
C895 H881 0.929 . S
C895 C894 1.399 . S
C895 C896 1.385 . S
C896 H882 0.931 . S
C896 C895 1.385 . S
C896 C897 1.389 . S
C897 C896 1.389 . S
C897 C898 1.387 . S
C898 H883 0.930 1_554 S
C898 C893 1.389 1_554 S
C898 C897 1.387 . S
H899 C911 0.930 . S
H900 C913 0.930 . S
H901 C914 0.930 . S
H902 C918 0.959 . S
H903 C918 0.959 . S
H904 C918 0.961 . S
H905 C919 0.960 . S
H906 C919 0.961 . S
H907 C919 0.959 . S
H908 C922 0.929 . S
H909 C923 0.931 . S
H910 C925 0.930 . S
C911 H899 0.930 . S
C911 C912 1.399 . S
C911 C916 1.399 . S
C912 C911 1.399 . S
C912 C913 1.376 . S
C913 H900 0.930 . S
C913 C912 1.376 . S
C913 C914 1.388 . S
C914 H901 0.930 . S
C914 C913 1.388 . S
C914 C915 1.390 . S
C915 C914 1.390 . S
C915 C916 1.394 . S
C915 C921 1.465 . S
C916 C911 1.399 . S
C916 C915 1.394 . S
C916 C917 1.516 . S
C917 C916 1.516 . S
C917 C918 1.502 . S
C917 C919 1.561 . S
C917 C920 1.526 . S
C918 H902 0.959 . S
C918 H903 0.959 . S
C918 H904 0.961 . S
C918 C917 1.502 . S
C919 H905 0.960 . S
C919 H906 0.961 . S
C919 H907 0.959 . S
C919 C917 1.561 . S
C920 C917 1.526 . S
C920 C921 1.396 . S
C920 C925 1.390 . S
C921 C915 1.465 . S
C921 C920 1.396 . S
C921 C922 1.399 . S
C922 H908 0.929 . S
C922 C921 1.399 . S
C922 C923 1.385 . S
C923 H909 0.931 . S
C923 C922 1.385 . S
C923 C924 1.389 . S
C924 C923 1.389 . S
C924 C925 1.387 . S
C925 H910 0.930 . S
C925 C920 1.390 . S
C925 C924 1.387 . S
H926 C938 0.930 . S
H927 C940 0.930 . S
H928 C941 0.930 . S
H929 C945 0.959 . S
H930 C945 0.959 . S
H931 C945 0.961 . S
H932 C946 0.960 . S
H933 C946 0.961 . S
H934 C946 0.959 . S
H935 C949 0.929 . S
H936 C950 0.931 . S
H937 C952 0.930 1_554 S
C938 H926 0.930 . S
C938 C939 1.399 . S
C938 C943 1.399 . S
C939 C938 1.399 . S
C939 C940 1.376 . S
C940 H927 0.930 . S
C940 C939 1.376 . S
C940 C941 1.388 1_554 S
C941 H928 0.930 . S
C941 C940 1.388 1_556 S
C941 C942 1.390 . S
C942 C941 1.390 . S
C942 C943 1.394 1_556 S
C942 C948 1.465 . S
C943 C938 1.399 . S
C943 C942 1.394 1_554 S
C943 C944 1.516 . S
C944 C943 1.516 . S
C944 C945 1.502 . S
C944 C946 1.561 . S
C944 C947 1.491 1_554 S
C945 H929 0.959 . S
C945 H930 0.959 . S
C945 H931 0.961 . S
C945 C944 1.502 . S
C946 H932 0.960 . S
C946 H933 0.961 . S
C946 H934 0.959 . S
C946 C944 1.561 . S
C947 C944 1.491 1_556 S
C947 C948 1.419 . S
C947 C952 1.403 . S
C948 C942 1.465 . S
C948 C947 1.419 . S
C948 C949 1.399 . S
C949 H935 0.929 . S
C949 C948 1.399 . S
C949 C950 1.385 . S
C950 H936 0.931 . S
C950 C949 1.385 . S
C950 C951 1.389 . S
C951 C950 1.389 . S
C951 C952 1.387 . S
C952 H937 0.930 1_556 S
C952 C947 1.403 . S
C952 C951 1.387 . S
H953 C965 0.930 . S
H954 C967 0.930 . S
H955 C968 0.930 . S
H956 C972 0.959 . S
H957 C972 0.959 . S
H958 C972 0.961 . S
H959 C973 0.960 . S
H960 C973 0.961 . S
H961 C973 0.959 . S
H962 C976 0.929 . S
H963 C977 0.931 . S
H964 C979 0.930 . S
C965 H953 0.930 . S
C965 C966 1.399 . S
C965 C970 1.399 . S
C966 C965 1.399 . S
C966 C967 1.376 . S
C967 H954 0.930 . S
C967 C966 1.376 . S
C967 C968 1.388 . S
C968 H955 0.930 . S
C968 C967 1.388 . S
C968 C969 1.390 . S
C969 C968 1.390 . S
C969 C970 1.394 . S
C969 C975 1.465 . S
C970 C965 1.399 . S
C970 C969 1.394 . S
C970 C971 1.516 . S
C971 C970 1.516 . S
C971 C972 1.502 . S
C971 C973 1.561 . S
C971 C974 1.526 . S
C972 H956 0.959 . S
C972 H957 0.959 . S
C972 H958 0.961 . S
C972 C971 1.502 . S
C973 H959 0.960 . S
C973 H960 0.961 . S
C973 H961 0.959 . S
C973 C971 1.561 . S
C974 C971 1.526 . S
C974 C975 1.396 . S
C974 C979 1.390 . S
C975 C969 1.465 . S
C975 C974 1.396 . S
C975 C976 1.399 . S
C976 H962 0.929 . S
C976 C975 1.399 . S
C976 C977 1.385 . S
C977 H963 0.931 . S
C977 C976 1.385 . S
C977 C978 1.389 . S
C978 C977 1.389 . S
C978 C979 1.387 . S
C979 H964 0.930 . S
C979 C974 1.390 . S
C979 C978 1.387 . S
H980 C992 0.918 1_554 S
H981 C994 0.930 . S
H982 C995 0.930 . S
H983 C999 0.959 . S
H984 C999 0.959 . S
H985 C999 0.961 . S
H986 C1000 0.960 . S
H987 C1000 0.961 . S
H988 C1000 0.959 . S
H989 C1003 0.929 . S
H990 C1004 0.931 . S
H991 C1006 0.930 . S
C992 H980 0.918 1_556 S
C992 C993 1.399 . S
C992 C997 1.402 . S
C993 C992 1.399 . S
C993 C994 1.376 . S
C994 H981 0.930 . S
C994 C993 1.376 . S
C994 C995 1.388 . S
C995 H982 0.930 . S
C995 C994 1.388 . S
C995 C996 1.390 . S
C996 C995 1.390 . S
C996 C997 1.399 . S
C996 C1002 1.465 1_545 S
C997 C992 1.402 . S
C997 C996 1.399 . S
C997 C998 1.508 1_556 S
C998 C997 1.508 1_554 S
C998 C999 1.502 . S
C998 C1000 1.561 . S
C998 C1001 1.526 1_545 S
C999 H983 0.959 . S
C999 H984 0.959 . S
C999 H985 0.961 . S
C999 C998 1.502 . S
C1000 H986 0.960 . S
C1000 H987 0.961 . S
C1000 H988 0.959 . S
C1000 C998 1.561 . S
C1001 C998 1.526 1_565 S
C1001 C1002 1.396 1_554 S
C1001 C1006 1.390 . S
C1002 C996 1.465 1_565 S
C1002 C1001 1.396 1_556 S
C1002 C1003 1.399 . S
C1003 H989 0.929 . S
C1003 C1002 1.399 . S
C1003 C1004 1.385 1_556 S
C1004 H990 0.931 . S
C1004 C1003 1.385 1_554 S
C1004 C1005 1.389 . S
C1005 C1004 1.389 . S
C1005 C1006 1.387 . S
C1006 H991 0.930 . S
C1006 C1001 1.390 . S
C1006 C1005 1.387 . S
H1007 C1019 0.930 . S
H1008 C1021 0.930 . S
H1009 C1022 0.930 . S
H1010 C1026 0.959 . S
H1011 C1026 0.959 . S
H1012 C1026 0.961 . S
H1013 C1027 0.960 . S
H1014 C1027 0.961 . S
H1015 C1027 0.959 . S
H1016 C1030 0.929 . S
H1017 C1031 0.931 . S
H1018 C1033 0.930 . S
C1019 H1007 0.930 . S
C1019 C1020 1.399 . S
C1019 C1024 1.399 . S
C1020 C1019 1.399 . S
C1020 C1021 1.376 . S
C1021 H1008 0.930 . S
C1021 C1020 1.376 . S
C1021 C1022 1.388 . S
C1022 H1009 0.930 . S
C1022 C1021 1.388 . S
C1022 C1023 1.390 . S
C1023 C1022 1.390 . S
C1023 C1024 1.394 . S
C1023 C1029 1.465 1_565 S
C1024 C1019 1.399 . S
C1024 C1023 1.394 . S
C1024 C1025 1.516 . S
C1025 C1024 1.516 . S
C1025 C1026 1.502 . S
C1025 C1027 1.561 . S
C1025 C1028 1.526 1_565 S
C1026 H1010 0.959 . S
C1026 H1011 0.959 . S
C1026 H1012 0.961 . S
C1026 C1025 1.502 . S
C1027 H1013 0.960 . S
C1027 H1014 0.961 . S
C1027 H1015 0.959 . S
C1027 C1025 1.561 . S
C1028 C1025 1.526 1_545 S
C1028 C1029 1.396 . S
C1028 C1033 1.390 . S
C1029 C1023 1.465 1_545 S
C1029 C1028 1.396 . S
C1029 C1030 1.399 . S
C1030 H1016 0.929 . S
C1030 C1029 1.399 . S
C1030 C1031 1.385 . S
C1031 H1017 0.931 . S
C1031 C1030 1.385 . S
C1031 C1032 1.389 . S
C1032 C1031 1.389 . S
C1032 C1033 1.387 . S
C1033 H1018 0.930 . S
C1033 C1028 1.390 . S
C1033 C1032 1.387 . S
H1034 C1046 0.930 . S
H1035 C1048 0.936 . S
H1036 C1049 0.930 . S
H1037 C1053 0.959 . S
H1038 C1053 0.959 . S
H1039 C1053 0.961 . S
H1040 C1054 0.960 . S
H1041 C1054 0.961 . S
H1042 C1054 0.959 . S
H1043 C1057 0.929 1_565 S
H1044 C1058 0.931 . S
H1045 C1060 0.930 1_554 S
C1046 H1034 0.930 . S
C1046 C1047 1.399 . S
C1046 C1051 1.399 . S
C1047 C1046 1.399 . S
C1047 C1048 1.376 . S
C1048 H1035 0.936 . S
C1048 C1047 1.376 . S
C1048 C1049 1.388 1_554 S
C1049 H1036 0.930 . S
C1049 C1048 1.388 1_556 S
C1049 C1050 1.390 . S
C1050 C1049 1.390 . S
C1050 C1051 1.394 1_556 S
C1050 C1056 1.465 1_565 S
C1051 C1046 1.399 . S
C1051 C1050 1.394 1_554 S
C1051 C1052 1.516 1_565 S
C1052 C1051 1.516 1_545 S
C1052 C1053 1.502 . S
C1052 C1054 1.561 . S
C1052 C1055 1.494 1_554 S
C1053 H1037 0.959 . S
C1053 H1038 0.959 . S
C1053 H1039 0.961 . S
C1053 C1052 1.502 . S
C1054 H1040 0.960 . S
C1054 H1041 0.961 . S
C1054 H1042 0.959 . S
C1054 C1052 1.561 . S
C1055 C1052 1.494 1_556 S
C1055 C1056 1.418 . S
C1055 C1060 1.401 . S
C1056 C1050 1.465 1_545 S
C1056 C1055 1.418 . S
C1056 C1057 1.399 . S
C1057 H1043 0.929 1_545 S
C1057 C1056 1.399 . S
C1057 C1058 1.385 . S
C1058 H1044 0.931 . S
C1058 C1057 1.385 . S
C1058 C1059 1.389 . S
C1059 C1058 1.389 . S
C1059 C1060 1.387 . S
C1060 H1045 0.930 1_556 S
C1060 C1055 1.401 . S
C1060 C1059 1.387 . S
H1061 C1073 0.930 . S
H1062 C1075 0.930 . S
H1063 C1076 0.930 . S
H1064 C1080 0.959 . S
H1065 C1080 0.959 . S
H1066 C1080 0.962 . S
H1067 C1081 0.960 . S
H1068 C1081 0.961 . S
H1069 C1081 0.959 . S
H1070 C1084 0.929 . S
H1071 C1085 0.931 . S
H1072 C1087 0.930 . S
C1073 H1061 0.930 . S
C1073 C1074 1.399 . S
C1073 C1078 1.399 . S
C1074 C1073 1.399 . S
C1074 C1075 1.376 . S
C1075 H1062 0.930 . S
C1075 C1074 1.376 . S
C1075 C1076 1.388 . S
C1076 H1063 0.930 . S
C1076 C1075 1.388 . S
C1076 C1077 1.390 . S
C1077 C1076 1.390 . S
C1077 C1078 1.394 . S
C1077 C1083 1.465 1_545 S
C1078 C1073 1.399 . S
C1078 C1077 1.394 . S
C1078 C1079 1.516 1_545 S
C1079 C1078 1.516 1_565 S
C1079 C1080 1.502 . S
C1079 C1081 1.561 . S
C1079 C1082 1.526 . S
C1080 H1064 0.959 . S
C1080 H1065 0.959 . S
C1080 H1066 0.962 . S
C1080 C1079 1.502 . S
C1081 H1067 0.960 . S
C1081 H1068 0.961 . S
C1081 H1069 0.959 . S
C1081 C1079 1.561 . S
C1082 C1079 1.526 . S
C1082 C1083 1.396 . S
C1082 C1087 1.390 . S
C1083 C1077 1.465 1_565 S
C1083 C1082 1.396 . S
C1083 C1084 1.399 . S
C1084 H1070 0.929 . S
C1084 C1083 1.399 . S
C1084 C1085 1.385 . S
C1085 H1071 0.931 . S
C1085 C1084 1.385 . S
C1085 C1086 1.389 . S
C1086 C1085 1.389 . S
C1086 C1087 1.387 . S
C1087 H1072 0.930 . S
C1087 C1082 1.390 . S
C1087 C1086 1.387 . S
C237 C8 1.453 . S
C249 C92 1.425 . S
C264 C22 1.450 . S
C276 C106 1.447 . S
C291 C64 1.376 . S
C303 C36 1.413 . S
C318 C78 1.446 . S
C330 C50 1.450 . S
C345 C204 1.409 . S
C357 C120 1.384 . S
C372 C218 1.438 . S
C384 C134 1.408 . S
C399 C148 1.415 . S
C411 C176 1.379 . S
C426 C162 1.378 . S
C438 C190 1.377 . S
C453 C13 1.320 . S
C465 C77 1.407 . S
C480 C27 1.347 . S
C492 C63 1.418 . S
C507 C41 1.320 . S
C519 C105 1.407 . S
C534 C91 1.426 . S
C546 C55 1.362 . S
C561 C189 1.378 . S
C573 C125 1.246 . S
C588 C175 1.425 . S
C600 C139 1.361 . S
C615 C153 1.325 . S
C627 C217 1.409 . S
C642 C203 1.377 . S
C654 C167 1.245 . S
C669 C179 1.346 . S
C681 C11 1.341 . S
C696 C25 1.363 . S
C708 C193 1.363 . S
C723 C207 1.345 . S
C735 C39 1.339 . S
C750 C221 1.361 . S
C762 C53 1.359 . S
C777 C123 1.364 . S
C789 C67 1.364 . S
C804 C137 1.362 . S
C816 C81 1.362 . S
C831 C95 1.345 . S
C843 C151 1.338 . S
C858 C109 1.360 . S
C870 C165 1.359 . S
C885 C35 1.510 . S
C897 C7 1.479 . S
C912 C21 1.509 . S
C924 C49 1.476 . S
C939 C97 1.254 . S
C951 C69 1.183 . S
C966 C83 1.239 . S
C978 C111 1.180 . S
C993 C147 1.472 . S
C1005 C119 1.496 . S
C1020 C161 1.473 . S
C1032 C133 1.495 . S
C1047 C209 1.263 . S
C1059 C181 1.186 . S
C1074 C223 1.218 . S
C1086 C195 1.183 . S
