# Generated by pormake.
# Topology mer, (4)-cn, num edge types: 1
# Building blocks:
#     Node 0, Type 0, BuildingBlock: TATPOV_clean_sbu_0, # of connection points: 4
#     Node 1, Type 0, BuildingBlock: TATPOV_clean_sbu_0, # of connection points: 4
#     Node 2, Type 0, BuildingBlock: TATPOV_clean_sbu_0, # of connection points: 4
#     Node 3, Type 0, BuildingBlock: TATPOV_clean_sbu_0, # of connection points: 4
#     Node 4, Type 0, BuildingBlock: TATPOV_clean_sbu_0, # of connection points: 4
#     Node 5, Type 0, BuildingBlock: TATPOV_clean_sbu_0, # of connection points: 4
#     Node 6, Type 0, BuildingBlock: TATPOV_clean_sbu_0, # of connection points: 4
#     Node 7, Type 0, BuildingBlock: TATPOV_clean_sbu_0, # of connection points: 4
#     Node 8, Type 0, BuildingBlock: TATPOV_clean_sbu_0, # of connection points: 4
#     Node 9, Type 0, BuildingBlock: TATPOV_clean_sbu_0, # of connection points: 4
#     Node 10, Type 0, BuildingBlock: TATPOV_clean_sbu_0, # of connection points: 4
#     Node 11, Type 0, BuildingBlock: TATPOV_clean_sbu_0, # of connection points: 4
#     Node 12, Type 0, BuildingBlock: TATPOV_clean_sbu_0, # of connection points: 4
#     Node 13, Type 0, BuildingBlock: TATPOV_clean_sbu_0, # of connection points: 4
#     Node 14, Type 0, BuildingBlock: TATPOV_clean_sbu_0, # of connection points: 4
#     Node 15, Type 0, BuildingBlock: TATPOV_clean_sbu_0, # of connection points: 4
#     Node 16, Type 0, BuildingBlock: TATPOV_clean_sbu_0, # of connection points: 4
#     Node 17, Type 0, BuildingBlock: TATPOV_clean_sbu_0, # of connection points: 4
#     Node 18, Type 0, BuildingBlock: TATPOV_clean_sbu_0, # of connection points: 4
#     Node 19, Type 0, BuildingBlock: TATPOV_clean_sbu_0, # of connection points: 4
#     Node 20, Type 0, BuildingBlock: TATPOV_clean_sbu_0, # of connection points: 4
#     Node 21, Type 0, BuildingBlock: TATPOV_clean_sbu_0, # of connection points: 4
#     Node 22, Type 0, BuildingBlock: TATPOV_clean_sbu_0, # of connection points: 4
#     Node 23, Type 0, BuildingBlock: TATPOV_clean_sbu_0, # of connection points: 4
#     Node 24, Type 0, BuildingBlock: TATPOV_clean_sbu_0, # of connection points: 4
#     Node 25, Type 0, BuildingBlock: TATPOV_clean_sbu_0, # of connection points: 4
#     Node 26, Type 0, BuildingBlock: TATPOV_clean_sbu_0, # of connection points: 4
#     Node 27, Type 0, BuildingBlock: TATPOV_clean_sbu_0, # of connection points: 4
#     Node 28, Type 0, BuildingBlock: TATPOV_clean_sbu_0, # of connection points: 4
#     Node 29, Type 0, BuildingBlock: TATPOV_clean_sbu_0, # of connection points: 4
#     Node 30, Type 0, BuildingBlock: TATPOV_clean_sbu_0, # of connection points: 4
#     Node 31, Type 0, BuildingBlock: TATPOV_clean_sbu_0, # of connection points: 4
#     Edge 32, Type (0, 0), BuildingBlock: XUDNAN_clean_linker_2, # of connection points: 2
#     Edge 33, Type (0, 0), BuildingBlock: XUDNAN_clean_linker_2, # of connection points: 2
#     Edge 34, Type (0, 0), BuildingBlock: XUDNAN_clean_linker_2, # of connection points: 2
#     Edge 35, Type (0, 0), BuildingBlock: XUDNAN_clean_linker_2, # of connection points: 2
#     Edge 36, Type (0, 0), BuildingBlock: XUDNAN_clean_linker_2, # of connection points: 2
#     Edge 37, Type (0, 0), BuildingBlock: XUDNAN_clean_linker_2, # of connection points: 2
#     Edge 38, Type (0, 0), BuildingBlock: XUDNAN_clean_linker_2, # of connection points: 2
#     Edge 39, Type (0, 0), BuildingBlock: XUDNAN_clean_linker_2, # of connection points: 2
#     Edge 40, Type (0, 0), BuildingBlock: XUDNAN_clean_linker_2, # of connection points: 2
#     Edge 41, Type (0, 0), BuildingBlock: XUDNAN_clean_linker_2, # of connection points: 2
#     Edge 42, Type (0, 0), BuildingBlock: XUDNAN_clean_linker_2, # of connection points: 2
#     Edge 43, Type (0, 0), BuildingBlock: XUDNAN_clean_linker_2, # of connection points: 2
#     Edge 44, Type (0, 0), BuildingBlock: XUDNAN_clean_linker_2, # of connection points: 2
#     Edge 45, Type (0, 0), BuildingBlock: XUDNAN_clean_linker_2, # of connection points: 2
#     Edge 46, Type (0, 0), BuildingBlock: XUDNAN_clean_linker_2, # of connection points: 2
#     Edge 47, Type (0, 0), BuildingBlock: XUDNAN_clean_linker_2, # of connection points: 2
#     Edge 48, Type (0, 0), BuildingBlock: XUDNAN_clean_linker_2, # of connection points: 2
#     Edge 49, Type (0, 0), BuildingBlock: XUDNAN_clean_linker_2, # of connection points: 2
#     Edge 50, Type (0, 0), BuildingBlock: XUDNAN_clean_linker_2, # of connection points: 2
#     Edge 51, Type (0, 0), BuildingBlock: XUDNAN_clean_linker_2, # of connection points: 2
#     Edge 52, Type (0, 0), BuildingBlock: XUDNAN_clean_linker_2, # of connection points: 2
#     Edge 53, Type (0, 0), BuildingBlock: XUDNAN_clean_linker_2, # of connection points: 2
#     Edge 54, Type (0, 0), BuildingBlock: XUDNAN_clean_linker_2, # of connection points: 2
#     Edge 55, Type (0, 0), BuildingBlock: XUDNAN_clean_linker_2, # of connection points: 2
#     Edge 56, Type (0, 0), BuildingBlock: XUDNAN_clean_linker_2, # of connection points: 2
#     Edge 57, Type (0, 0), BuildingBlock: XUDNAN_clean_linker_2, # of connection points: 2
#     Edge 58, Type (0, 0), BuildingBlock: XUDNAN_clean_linker_2, # of connection points: 2
#     Edge 59, Type (0, 0), BuildingBlock: XUDNAN_clean_linker_2, # of connection points: 2
#     Edge 60, Type (0, 0), BuildingBlock: XUDNAN_clean_linker_2, # of connection points: 2
#     Edge 61, Type (0, 0), BuildingBlock: XUDNAN_clean_linker_2, # of connection points: 2
#     Edge 62, Type (0, 0), BuildingBlock: XUDNAN_clean_linker_2, # of connection points: 2
#     Edge 63, Type (0, 0), BuildingBlock: XUDNAN_clean_linker_2, # of connection points: 2
#     Edge 64, Type (0, 0), BuildingBlock: XUDNAN_clean_linker_2, # of connection points: 2
#     Edge 65, Type (0, 0), BuildingBlock: XUDNAN_clean_linker_2, # of connection points: 2
#     Edge 66, Type (0, 0), BuildingBlock: XUDNAN_clean_linker_2, # of connection points: 2
#     Edge 67, Type (0, 0), BuildingBlock: XUDNAN_clean_linker_2, # of connection points: 2
#     Edge 68, Type (0, 0), BuildingBlock: XUDNAN_clean_linker_2, # of connection points: 2
#     Edge 69, Type (0, 0), BuildingBlock: XUDNAN_clean_linker_2, # of connection points: 2
#     Edge 70, Type (0, 0), BuildingBlock: XUDNAN_clean_linker_2, # of connection points: 2
#     Edge 71, Type (0, 0), BuildingBlock: XUDNAN_clean_linker_2, # of connection points: 2
#     Edge 72, Type (0, 0), BuildingBlock: XUDNAN_clean_linker_2, # of connection points: 2
#     Edge 73, Type (0, 0), BuildingBlock: XUDNAN_clean_linker_2, # of connection points: 2
#     Edge 74, Type (0, 0), BuildingBlock: XUDNAN_clean_linker_2, # of connection points: 2
#     Edge 75, Type (0, 0), BuildingBlock: XUDNAN_clean_linker_2, # of connection points: 2
#     Edge 76, Type (0, 0), BuildingBlock: XUDNAN_clean_linker_2, # of connection points: 2
#     Edge 77, Type (0, 0), BuildingBlock: XUDNAN_clean_linker_2, # of connection points: 2
#     Edge 78, Type (0, 0), BuildingBlock: XUDNAN_clean_linker_2, # of connection points: 2
#     Edge 79, Type (0, 0), BuildingBlock: XUDNAN_clean_linker_2, # of connection points: 2
#     Edge 80, Type (0, 0), BuildingBlock: XUDNAN_clean_linker_2, # of connection points: 2
#     Edge 81, Type (0, 0), BuildingBlock: XUDNAN_clean_linker_2, # of connection points: 2
#     Edge 82, Type (0, 0), BuildingBlock: XUDNAN_clean_linker_2, # of connection points: 2
#     Edge 83, Type (0, 0), BuildingBlock: XUDNAN_clean_linker_2, # of connection points: 2
#     Edge 84, Type (0, 0), BuildingBlock: XUDNAN_clean_linker_2, # of connection points: 2
#     Edge 85, Type (0, 0), BuildingBlock: XUDNAN_clean_linker_2, # of connection points: 2
#     Edge 86, Type (0, 0), BuildingBlock: XUDNAN_clean_linker_2, # of connection points: 2
#     Edge 87, Type (0, 0), BuildingBlock: XUDNAN_clean_linker_2, # of connection points: 2
#     Edge 88, Type (0, 0), BuildingBlock: XUDNAN_clean_linker_2, # of connection points: 2
#     Edge 89, Type (0, 0), BuildingBlock: XUDNAN_clean_linker_2, # of connection points: 2
#     Edge 90, Type (0, 0), BuildingBlock: XUDNAN_clean_linker_2, # of connection points: 2
#     Edge 91, Type (0, 0), BuildingBlock: XUDNAN_clean_linker_2, # of connection points: 2
#     Edge 92, Type (0, 0), BuildingBlock: XUDNAN_clean_linker_2, # of connection points: 2
#     Edge 93, Type (0, 0), BuildingBlock: XUDNAN_clean_linker_2, # of connection points: 2
#     Edge 94, Type (0, 0), BuildingBlock: XUDNAN_clean_linker_2, # of connection points: 2
#     Edge 95, Type (0, 0), BuildingBlock: XUDNAN_clean_linker_2, # of connection points: 2
# Relax obj value: 0.147
# Max RMSD: 0.148
# Mean RMSD: 0.148
data_MOF--net-mer--node1-TATPOV_clean_sbu_0--edge1-XUDNAN_clean_linker_2
_symmetry_space_group_name_H-M    P1
_symmetry_Int_Tables_number       1
_symmetry_cell_setting            triclinic
loop_
_symmetry_equiv_pos_as_xyz
'x, y, z'
_cell_length_a     70.854867
_cell_length_b     70.784359
_cell_length_c     46.071083
_cell_angle_alpha  90.22976
_cell_angle_beta   90.207081
_cell_angle_gamma 90.422412
loop_
_atom_site_label
_atom_site_type_symbol
_atom_site_fract_x
_atom_site_fract_y
_atom_site_fract_z
_atom_type_partial_charge
Zn0 Zn 0.06822 0.20624 0.33089 0.0
Zn1 Zn 0.08758 0.23589 0.31398 0.0
O2 O 0.06033 0.23994 0.29718 0.0
O3 O 0.04455 0.21477 0.31177 0.0
O4 O 0.1024 0.25787 0.29732 0.0
O5 O 0.08529 0.18817 0.3106 0.0
O6 O 0.10322 0.21266 0.2998 0.0
C7 C 0.04504 0.2303 0.29841 0.0
C8 C 0.08206 0.22935 0.37869 0.0
O9 O 0.08874 0.23976 0.35859 0.0
O10 O 0.07323 0.21427 0.37222 0.0
C11 C 0.09952 0.27483 0.30523 0.0
O12 O 0.08666 0.2782 0.32503 0.0
C13 C 0.10018 0.19486 0.29951 0.0
Zn14 Zn 0.74541 0.06847 0.33847 0.0
Zn15 Zn 0.71576 0.08519 0.31567 0.0
O16 O 0.71525 0.05832 0.29704 0.0
O17 O 0.74173 0.04584 0.3127 0.0
O18 O 0.69421 0.09858 0.29566 0.0
O19 O 0.76294 0.08942 0.32752 0.0
O20 O 0.73857 0.10327 0.30728 0.0
C21 C 0.72677 0.04455 0.29772 0.0
C22 C 0.71659 0.07689 0.38047 0.0
O23 O 0.70807 0.08418 0.35888 0.0
O24 O 0.73252 0.06919 0.3774 0.0
C25 C 0.67755 0.09179 0.29551 0.0
O26 O 0.67425 0.07578 0.30899 0.0
C27 C 0.75612 0.10321 0.31376 0.0
Zn28 Zn 0.88181 0.7484 0.33651 0.0
Zn29 Zn 0.865 0.71716 0.31702 0.0
O30 O 0.89174 0.71635 0.29815 0.0
O31 O 0.9044 0.74346 0.31185 0.0
O32 O 0.8515 0.69453 0.29955 0.0
O33 O 0.8613 0.76492 0.3212 0.0
O34 O 0.84707 0.73907 0.30528 0.0
C35 C 0.90554 0.72806 0.29795 0.0
C36 C 0.87337 0.72134 0.38165 0.0
O37 O 0.86612 0.71169 0.36097 0.0
O38 O 0.88095 0.73728 0.37686 0.0
C39 C 0.85871 0.67815 0.29881 0.0
O40 O 0.87549 0.67558 0.3103 0.0
C41 C 0.84758 0.75698 0.30835 0.0
Zn42 Zn 0.20789 0.87704 0.3325 0.0
Zn43 Zn 0.23968 0.86508 0.31259 0.0
O44 O 0.23805 0.89325 0.29807 0.0
O45 O 0.20992 0.90185 0.31303 0.0
O46 O 0.26222 0.85411 0.29177 0.0
O47 O 0.19176 0.85606 0.31655 0.0
O48 O 0.21919 0.84453 0.30343 0.0
C49 C 0.22532 0.90584 0.30062 0.0
C50 C 0.23631 0.87003 0.3771 0.0
O51 O 0.2466 0.86482 0.35596 0.0
O52 O 0.21955 0.87549 0.3726 0.0
C53 C 0.27912 0.85611 0.30064 0.0
O54 O 0.28247 0.86645 0.32387 0.0
C55 C 0.20131 0.84283 0.30565 0.0
Zn56 Zn 0.06852 0.74369 0.63318 0.0
Zn57 Zn 0.08432 0.71344 0.65064 0.0
O58 O 0.05715 0.71142 0.66833 0.0
O59 O 0.04425 0.73755 0.65193 0.0
O60 O 0.09821 0.69066 0.66568 0.0
O61 O 0.08691 0.76109 0.65143 0.0
O62 O 0.10236 0.73552 0.66364 0.0
C63 C 0.04298 0.72237 0.66612 0.0
C64 C 0.07942 0.72038 0.58568 0.0
O65 O 0.08439 0.70924 0.60596 0.0
O66 O 0.07249 0.73632 0.59186 0.0
C67 C 0.09819 0.68583 0.69223 0.0
O68 O 0.08802 0.69547 0.71082 0.0
C69 C 0.10134 0.7535 0.66236 0.0
Zn70 Zn 0.21027 0.06966 0.63199 0.0
Zn71 Zn 0.24007 0.08385 0.65708 0.0
O72 O 0.23838 0.05609 0.67112 0.0
O73 O 0.21236 0.04463 0.65162 0.0
O74 O 0.26183 0.09298 0.6814 0.0
O75 O 0.19369 0.08965 0.64774 0.0
O76 O 0.21869 0.10276 0.66808 0.0
C77 C 0.22671 0.04248 0.66761 0.0
C78 C 0.23882 0.08244 0.5915 0.0
O79 O 0.2483 0.08672 0.6142 0.0
O80 O 0.22261 0.07492 0.59363 0.0
C81 C 0.27055 0.10852 0.67787 0.0
O82 O 0.26574 0.11956 0.65626 0.0
C83 C 0.20108 0.10301 0.66223 0.0
Zn84 Zn 0.88612 0.20876 0.62394 0.0
Zn85 Zn 0.86995 0.23814 0.65065 0.0
O86 O 0.89733 0.23737 0.6669 0.0
O87 O 0.9102 0.21234 0.6466 0.0
O88 O 0.85738 0.25694 0.67684 0.0
O89 O 0.86555 0.19048 0.63681 0.0
O90 O 0.85194 0.21546 0.65568 0.0
C91 C 0.91137 0.22643 0.66348 0.0
C92 C 0.87503 0.2407 0.58638 0.0
O93 O 0.86862 0.24844 0.60926 0.0
O94 O 0.88279 0.22461 0.58749 0.0
C95 C 0.85086 0.27306 0.67043 0.0
O96 O 0.85265 0.27947 0.64385 0.0
C97 C 0.8517 0.19788 0.64975 0.0
Zn98 Zn 0.73858 0.8846 0.64326 0.0
Zn99 Zn 0.70799 0.86822 0.65964 0.0
O100 O 0.70675 0.89557 0.67809 0.0
O101 O 0.73458 0.90746 0.66718 0.0
O102 O 0.68548 0.85421 0.67669 0.0
O103 O 0.75586 0.86469 0.65717 0.0
O104 O 0.73005 0.85012 0.67138 0.0
C105 C 0.71877 0.90913 0.67946 0.0
C106 C 0.71366 0.8759 0.59535 0.0
O107 O 0.70342 0.86843 0.61502 0.0
O108 O 0.72908 0.88393 0.60219 0.0
C109 C 0.66862 0.86025 0.67678 0.0
O110 O 0.66497 0.87666 0.66485 0.0
C111 C 0.748 0.85058 0.66882 0.0
Zn112 Zn 0.88183 0.75119 0.63083 0.0
Zn113 Zn 0.86801 0.71947 0.65344 0.0
O114 O 0.89503 0.72111 0.67004 0.0
O115 O 0.90677 0.74707 0.65087 0.0
O116 O 0.8578 0.69748 0.67586 0.0
O117 O 0.86115 0.7668 0.64867 0.0
O118 O 0.84864 0.74012 0.66384 0.0
C119 C 0.90869 0.73264 0.6667 0.0
C120 C 0.87268 0.7219 0.58827 0.0
O121 O 0.86823 0.71192 0.6102 0.0
O122 O 0.87825 0.73884 0.59139 0.0
C123 C 0.84952 0.6826 0.66682 0.0
O124 O 0.84684 0.68005 0.63884 0.0
C125 C 0.84787 0.75801 0.66117 0.0
Zn126 Zn 0.21012 0.88457 0.62881 0.0
Zn127 Zn 0.23982 0.8689 0.65076 0.0
O128 O 0.23957 0.89583 0.66954 0.0
O129 O 0.21225 0.90687 0.65481 0.0
O130 O 0.2619 0.85608 0.67028 0.0
O131 O 0.1934 0.86309 0.63948 0.0
O132 O 0.21787 0.85042 0.66112 0.0
C133 C 0.22721 0.90888 0.66955 0.0
C134 C 0.23772 0.87701 0.58556 0.0
O135 O 0.24615 0.8692 0.60681 0.0
O136 O 0.22219 0.88531 0.5896 0.0
C137 C 0.27601 0.84925 0.65699 0.0
O138 O 0.27717 0.85106 0.6287 0.0
C139 C 0.20041 0.84989 0.65433 0.0
Zn140 Zn 0.06952 0.20978 0.63896 0.0
Zn141 Zn 0.08623 0.24028 0.65567 0.0
O142 O 0.05865 0.24105 0.6724 0.0
O143 O 0.04632 0.21312 0.66244 0.0
O144 O 0.09901 0.26337 0.67352 0.0
O145 O 0.09014 0.19314 0.65211 0.0
O146 O 0.10462 0.2187 0.66819 0.0
C147 C 0.04501 0.22922 0.67409 0.0
C148 C 0.07922 0.23429 0.59124 0.0
O149 O 0.08688 0.24446 0.61104 0.0
O150 O 0.07042 0.21933 0.59807 0.0
C151 C 0.09003 0.27798 0.68153 0.0
O152 O 0.07174 0.27873 0.677 0.0
C153 C 0.10426 0.20084 0.66426 0.0
Zn154 Zn 0.74457 0.06451 0.63287 0.0
Zn155 Zn 0.71342 0.08214 0.65138 0.0
O156 O 0.71187 0.05617 0.67226 0.0
O157 O 0.73848 0.04269 0.65928 0.0
O158 O 0.69199 0.09772 0.66727 0.0
O159 O 0.76192 0.08561 0.64592 0.0
O160 O 0.73602 0.10034 0.65879 0.0
C161 C 0.72311 0.04217 0.67323 0.0
C162 C 0.71682 0.07242 0.58757 0.0
O163 O 0.70726 0.07958 0.60813 0.0
O164 O 0.7329 0.06531 0.59234 0.0
C165 C 0.6855 0.09672 0.69293 0.0
O166 O 0.6921 0.08391 0.71075 0.0
C167 C 0.75392 0.10017 0.65588 0.0
Zn168 Zn 0.88783 0.21432 0.3409 0.0
Zn169 Zn 0.87034 0.24273 0.31588 0.0
O170 O 0.89776 0.24374 0.29941 0.0
O171 O 0.91134 0.21853 0.31779 0.0
O172 O 0.85735 0.26407 0.29527 0.0
O173 O 0.86733 0.19617 0.32826 0.0
O174 O 0.85321 0.21963 0.30608 0.0
C175 C 0.91208 0.23304 0.30194 0.0
C176 C 0.87636 0.24326 0.3813 0.0
O177 O 0.86874 0.25062 0.359 0.0
O178 O 0.88563 0.2281 0.37902 0.0
C179 C 0.86285 0.281 0.29942 0.0
O180 O 0.87719 0.28425 0.31696 0.0
C181 C 0.85369 0.20224 0.31321 0.0
Zn182 Zn 0.74529 0.88634 0.33797 0.0
Zn183 Zn 0.71397 0.87014 0.31883 0.0
O184 O 0.71297 0.89737 0.30131 0.0
O185 O 0.7402 0.90963 0.31512 0.0
O186 O 0.69122 0.85702 0.3013 0.0
O187 O 0.76168 0.86633 0.32084 0.0
O188 O 0.73558 0.85231 0.30559 0.0
C189 C 0.72475 0.91112 0.30154 0.0
C190 C 0.7193 0.87618 0.38391 0.0
O191 O 0.7093 0.8696 0.36309 0.0
O192 O 0.73504 0.88405 0.3787 0.0
C193 C 0.67458 0.85857 0.31118 0.0
O194 O 0.67164 0.86949 0.33382 0.0
C195 C 0.75352 0.85277 0.30788 0.0
Zn196 Zn 0.06771 0.74517 0.32521 0.0
Zn197 Zn 0.07941 0.71152 0.31045 0.0
O198 O 0.0522 0.71374 0.29367 0.0
O199 O 0.04283 0.74239 0.30465 0.0
O200 O 0.08829 0.68772 0.29104 0.0
O201 O 0.08943 0.75905 0.30692 0.0
O202 O 0.101 0.73058 0.3007 0.0
C203 C 0.03957 0.72648 0.293 0.0
C204 C 0.07566 0.71878 0.37361 0.0
O205 O 0.07919 0.70657 0.35404 0.0
O206 O 0.07088 0.73541 0.36656 0.0
C207 C 0.10499 0.68157 0.29385 0.0
O208 O 0.11674 0.69036 0.31153 0.0
C209 C 0.10295 0.7485 0.29969 0.0
Zn210 Zn 0.20684 0.07242 0.34462 0.0
Zn211 Zn 0.23608 0.0857 0.31883 0.0
O212 O 0.23747 0.05757 0.30482 0.0
O213 O 0.21459 0.04652 0.33226 0.0
O214 O 0.25761 0.09987 0.30024 0.0
O215 O 0.18815 0.08677 0.32117 0.0
O216 O 0.21311 0.10187 0.30463 0.0
C217 C 0.22783 0.04363 0.31444 0.0
C218 C 0.23279 0.08775 0.38513 0.0
O219 O 0.24299 0.0886 0.36244 0.0
O220 O 0.2157 0.08259 0.38316 0.0
C221 C 0.2682 0.09581 0.27892 0.0
O222 O 0.2661 0.07952 0.26549 0.0
C223 C 0.19522 0.10001 0.30637 0.0
Zn224 Zn 0.58176 0.71339 0.86017 0.0
Zn225 Zn 0.58899 0.73816 0.82328 0.0
O226 O 0.55985 0.73253 0.81554 0.0
O227 O 0.55609 0.70878 0.84562 0.0
O228 O 0.59722 0.75784 0.79384 0.0
O229 O 0.60195 0.69587 0.84925 0.0
O230 O 0.60799 0.71599 0.81431 0.0
C231 C 0.54935 0.71965 0.82661 0.0
C232 C 0.59094 0.74703 0.88867 0.0
O233 O 0.5939 0.75233 0.86263 0.0
O234 O 0.58504 0.73051 0.89376 0.0
C235 C 0.58785 0.7724 0.7869 0.0
O236 O 0.57105 0.77491 0.79821 0.0
C237 C 0.61144 0.7004 0.82718 0.0
Zn238 Zn 0.24991 0.57649 0.84717 0.0
Zn239 Zn 0.2213 0.58831 0.81887 0.0
O240 O 0.22178 0.5594 0.8086 0.0
O241 O 0.24498 0.54965 0.83643 0.0
O242 O 0.20086 0.59843 0.79239 0.0
O243 O 0.26907 0.59207 0.82666 0.0
O244 O 0.24426 0.60579 0.80771 0.0
C245 C 0.23177 0.54598 0.81871 0.0
C246 C 0.2219 0.59264 0.88436 0.0
O247 O 0.21216 0.59324 0.86106 0.0
O248 O 0.23876 0.58688 0.88375 0.0
C249 C 0.18513 0.60524 0.8004 0.0
O250 O 0.18091 0.60558 0.82813 0.0
C251 C 0.2621 0.60526 0.81175 0.0
Zn252 Zn 0.38596 0.24832 0.83397 0.0
Zn253 Zn 0.36988 0.21663 0.81775 0.0
O254 O 0.39706 0.21461 0.8013 0.0
O255 O 0.40962 0.24225 0.81219 0.0
O256 O 0.35689 0.19432 0.79941 0.0
O257 O 0.36625 0.26471 0.81612 0.0
O258 O 0.35213 0.23814 0.80381 0.0
C259 C 0.41097 0.22612 0.80051 0.0
C260 C 0.3748 0.22365 0.88193 0.0
O261 O 0.36891 0.21251 0.86202 0.0
O262 O 0.38245 0.2393 0.87527 0.0
C263 C 0.35505 0.17777 0.80959 0.0
O264 O 0.3622 0.17381 0.83518 0.0
C265 C 0.35239 0.25616 0.80457 0.0
Zn266 Zn 0.71113 0.3883 0.84661 0.0
Zn267 Zn 0.73837 0.36756 0.82488 0.0
O268 O 0.74405 0.39459 0.80875 0.0
O269 O 0.71927 0.41059 0.82341 0.0
O270 O 0.75853 0.35125 0.8076 0.0
O271 O 0.69118 0.37119 0.83019 0.0
O272 O 0.71375 0.35385 0.8113 0.0
C273 C 0.73462 0.40987 0.80956 0.0
C274 C 0.73629 0.37345 0.89019 0.0
O275 O 0.7438 0.36523 0.86856 0.0
O276 O 0.72237 0.38433 0.8865 0.0
C277 C 0.76521 0.35341 0.78226 0.0
O278 O 0.75897 0.36722 0.76594 0.0
C279 C 0.69626 0.35709 0.81529 0.0
Zn280 Zn 0.57273 0.24149 0.14072 0.0
Zn281 Zn 0.58885 0.21174 0.15788 0.0
O282 O 0.56144 0.21101 0.17575 0.0
O283 O 0.54993 0.23885 0.165 0.0
O284 O 0.60177 0.18924 0.17633 0.0
O285 O 0.59322 0.25892 0.15257 0.0
O286 O 0.60744 0.23379 0.16949 0.0
C287 C 0.54809 0.22303 0.17726 0.0
C288 C 0.58106 0.21635 0.09343 0.0
O289 O 0.58897 0.20659 0.11324 0.0
O290 O 0.57259 0.23143 0.10013 0.0
C291 C 0.59293 0.1744 0.18406 0.0
O292 O 0.57475 0.173 0.17871 0.0
C293 C 0.60725 0.25159 0.16507 0.0
Zn294 Zn 0.70794 0.57161 0.14033 0.0
Zn295 Zn 0.73758 0.58754 0.16267 0.0
O296 O 0.73748 0.55988 0.17904 0.0
O297 O 0.71033 0.54826 0.16384 0.0
O298 O 0.7594 0.60027 0.18368 0.0
O299 O 0.69057 0.59221 0.15225 0.0
O300 O 0.71532 0.60566 0.17268 0.0
C301 C 0.72553 0.54628 0.17793 0.0
C302 C 0.73619 0.5809 0.09763 0.0
O303 O 0.74482 0.58841 0.11915 0.0
O304 O 0.72054 0.57252 0.10137 0.0
C305 C 0.77454 0.59177 0.19036 0.0
O306 O 0.77653 0.57398 0.18278 0.0
C307 C 0.69773 0.60577 0.16657 0.0
Zn308 Zn 0.37777 0.71047 0.12504 0.0
Zn309 Zn 0.3651 0.74114 0.14806 0.0
O310 O 0.39407 0.74243 0.15759 0.0
O311 O 0.40439 0.71746 0.13413 0.0
O312 O 0.35402 0.76372 0.16931 0.0
O313 O 0.3631 0.69316 0.15043 0.0
O314 O 0.34903 0.71896 0.16533 0.0
C315 C 0.4077 0.73209 0.14921 0.0
C316 C 0.36036 0.73418 0.08295 0.0
O317 O 0.3595 0.74579 0.10417 0.0
O318 O 0.36672 0.71772 0.08667 0.0
C319 C 0.36112 0.76918 0.19337 0.0
O320 O 0.376 0.76046 0.20364 0.0
C321 C 0.3502 0.70096 0.16495 0.0
Zn322 Zn 0.23889 0.37537 0.12043 0.0
Zn323 Zn 0.21165 0.36361 0.15098 0.0
O324 O 0.21238 0.39277 0.16052 0.0
O325 O 0.23479 0.40212 0.13092 0.0
O326 O 0.19122 0.3524 0.17685 0.0
O327 O 0.25881 0.36065 0.1396 0.0
O328 O 0.23526 0.34729 0.16282 0.0
C329 C 0.22229 0.40605 0.14944 0.0
C330 C 0.21069 0.35878 0.08493 0.0
O331 O 0.20176 0.358 0.10892 0.0
O332 O 0.22744 0.36498 0.0843 0.0
C333 C 0.18245 0.3614 0.19655 0.0
O334 O 0.18623 0.3794 0.20067 0.0
C335 C 0.25286 0.34813 0.15681 0.0
Zn336 Zn 0.39 0.24811 0.14141 0.0
Zn337 Zn 0.37311 0.21771 0.15874 0.0
O338 O 0.4005 0.21551 0.17549 0.0
O339 O 0.41348 0.24274 0.16391 0.0
O340 O 0.35879 0.19734 0.17983 0.0
O341 O 0.37086 0.26619 0.15612 0.0
O342 O 0.35598 0.24048 0.16996 0.0
C343 C 0.41462 0.22682 0.17611 0.0
C344 C 0.37811 0.22256 0.0945 0.0
O345 O 0.37172 0.212 0.11466 0.0
O346 O 0.3865 0.23792 0.10085 0.0
C347 C 0.35597 0.17982 0.17533 0.0
O348 O 0.36349 0.17159 0.15258 0.0
C349 C 0.35659 0.25842 0.16749 0.0
Zn350 Zn 0.71463 0.38459 0.1382 0.0
Zn351 Zn 0.74358 0.37012 0.1627 0.0
O352 O 0.7424 0.39815 0.17825 0.0
O353 O 0.71524 0.4082 0.16139 0.0
O354 O 0.76548 0.35853 0.18427 0.0
O355 O 0.69769 0.36332 0.14921 0.0
O356 O 0.72171 0.3514 0.17298 0.0
C357 C 0.72998 0.41109 0.17631 0.0
C358 C 0.74333 0.37523 0.09729 0.0
O359 O 0.75129 0.36802 0.11945 0.0
O360 O 0.7279 0.38394 0.09994 0.0
C361 C 0.77915 0.3679 0.19522 0.0
O362 O 0.77962 0.38635 0.19231 0.0
C363 C 0.70445 0.35047 0.16505 0.0
Zn364 Zn 0.57558 0.71925 0.12055 0.0
Zn365 Zn 0.58774 0.74685 0.15285 0.0
O366 O 0.55857 0.74593 0.16137 0.0
O367 O 0.54947 0.72142 0.13524 0.0
O368 O 0.59827 0.76724 0.17944 0.0
O369 O 0.5935 0.70048 0.13687 0.0
O370 O 0.60434 0.72367 0.1642 0.0
C371 C 0.54549 0.7349 0.15217 0.0
C372 C 0.58961 0.75012 0.08689 0.0
O373 O 0.5934 0.7573 0.11168 0.0
O374 O 0.58194 0.73398 0.08492 0.0
C375 C 0.59 0.77324 0.2021 0.0
O376 O 0.57337 0.7663 0.20895 0.0
C377 C 0.60497 0.70644 0.15595 0.0
Zn378 Zn 0.24597 0.57523 0.12907 0.0
Zn379 Zn 0.216 0.58633 0.15489 0.0
O380 O 0.21588 0.5575 0.16455 0.0
O381 O 0.2403 0.54839 0.13887 0.0
O382 O 0.19438 0.59679 0.17799 0.0
O383 O 0.2639 0.5907 0.15273 0.0
O384 O 0.23813 0.60344 0.17013 0.0
C385 C 0.22645 0.54435 0.15501 0.0
C386 C 0.21934 0.59148 0.08964 0.0
O387 O 0.20877 0.59167 0.11198 0.0
O388 O 0.23623 0.58594 0.09168 0.0
C389 C 0.17721 0.59602 0.17 0.0
O390 O 0.17278 0.58739 0.14558 0.0
C391 C 0.2561 0.60322 0.16809 0.0
Zn392 Zn 0.38643 0.70758 0.87782 0.0
Zn393 Zn 0.37511 0.74602 0.82061 0.0
O394 O 0.40393 0.74347 0.81346 0.0
O395 O 0.40239 0.7223 0.84753 0.0
O396 O 0.36412 0.7614 0.78794 0.0
O397 O 0.36571 0.69573 0.85326 0.0
O398 O 0.36089 0.71924 0.82111 0.0
C399 C 0.4122 0.73126 0.82903 0.0
C400 C 0.37539 0.74835 0.87762 0.0
O401 O 0.36995 0.76022 0.8591 0.0
O402 O 0.38441 0.73455 0.8676 0.0
C403 C 0.3494 0.77129 0.79167 0.0
O404 O 0.3412 0.77131 0.81721 0.0
C405 C 0.3573 0.70255 0.83102 0.0
Zn406 Zn 0.24205 0.37615 0.84613 0.0
Zn407 Zn 0.21306 0.36595 0.81625 0.0
O408 O 0.21475 0.39485 0.80663 0.0
O409 O 0.23768 0.40319 0.83643 0.0
O410 O 0.19168 0.35579 0.79146 0.0
O411 O 0.26047 0.36076 0.8239 0.0
O412 O 0.23523 0.34844 0.80322 0.0
C413 C 0.22515 0.40768 0.81815 0.0
C414 C 0.21324 0.36045 0.88187 0.0
O415 O 0.20378 0.36091 0.85829 0.0
O416 O 0.23048 0.36522 0.88207 0.0
C417 C 0.17476 0.36138 0.79395 0.0
O418 O 0.17094 0.37483 0.81272 0.0
C419 C 0.25307 0.34851 0.80729 0.0
Zn420 Zn 0.56676 0.24915 0.83759 0.0
Zn421 Zn 0.58576 0.2212 0.81691 0.0
O422 O 0.55835 0.2172 0.80042 0.0
O423 O 0.54359 0.24263 0.8155 0.0
O424 O 0.60062 0.20186 0.79438 0.0
O425 O 0.58354 0.26923 0.8222 0.0
O426 O 0.6007 0.24579 0.80567 0.0
C427 C 0.54351 0.2273 0.80136 0.0
C428 C 0.5804 0.22335 0.8819 0.0
O429 O 0.58784 0.2145 0.86067 0.0
O430 O 0.57097 0.23817 0.87723 0.0
C431 C 0.60507 0.18502 0.80085 0.0
O432 O 0.59985 0.17797 0.82593 0.0
C433 C 0.59795 0.26348 0.80888 0.0
Zn434 Zn 0.71555 0.56532 0.84164 0.0
Zn435 Zn 0.74494 0.58346 0.82351 0.0
O436 O 0.74799 0.55613 0.80711 0.0
O437 O 0.72057 0.54281 0.81651 0.0
O438 O 0.76727 0.59725 0.80716 0.0
O439 O 0.69811 0.58575 0.82887 0.0
O440 O 0.7226 0.60042 0.8101 0.0
C441 C 0.7368 0.54197 0.80527 0.0
C442 C 0.7407 0.57655 0.88802 0.0
O443 O 0.74941 0.58502 0.86766 0.0
O444 O 0.72634 0.56643 0.88228 0.0
C445 C 0.77104 0.59669 0.78023 0.0
O446 O 0.7603 0.5865 0.76282 0.0
C447 C 0.70492 0.59966 0.81519 0.0
H448 H 0.19561 0.13856 0.31153 0.0
H449 H 0.16483 0.09162 0.27309 0.0
H450 H 0.13929 0.11315 0.2586 0.0
H451 H 0.15768 0.15821 0.3442 0.0
H452 H 0.16417 0.18266 0.33932 0.0
H453 H 0.18214 0.1649 0.3403 0.0
H454 H 0.19434 0.17579 0.2901 0.0
H455 H 0.17639 0.19372 0.28903 0.0
H456 H 0.17822 0.17684 0.25979 0.0
H457 H 0.11495 0.13756 0.25664 0.0
H458 H 0.093 0.16344 0.26768 0.0
H459 H 0.13859 0.19544 0.30767 0.0
C460 C 0.18389 0.1331 0.29882 0.0
C461 C 0.18232 0.11358 0.29266 0.0
C462 C 0.16638 0.10661 0.27741 0.0
C463 C 0.15184 0.11875 0.26907 0.0
C464 C 0.15339 0.13783 0.27632 0.0
C465 C 0.16903 0.14506 0.29075 0.0
C466 C 0.16585 0.16547 0.29969 0.0
C467 C 0.16755 0.16793 0.33284 0.0
C468 C 0.17951 0.17874 0.28369 0.0
C469 C 0.14569 0.16824 0.28934 0.0
C470 C 0.13897 0.15219 0.27539 0.0
C471 C 0.12017 0.15039 0.26678 0.0
C472 C 0.1078 0.16514 0.27318 0.0
C473 C 0.11422 0.18153 0.28796 0.0
C474 C 0.13352 0.18332 0.29543 0.0
H475 H 0.79204 0.10926 0.33312 0.0
H476 H 0.7483 0.13441 0.27996 0.0
H477 H 0.76914 0.16215 0.27141 0.0
H478 H 0.80648 0.15171 0.36763 0.0
H479 H 0.83102 0.14525 0.36916 0.0
H480 H 0.81304 0.12718 0.36932 0.0
H481 H 0.82838 0.11138 0.32443 0.0
H482 H 0.84642 0.12943 0.32411 0.0
H483 H 0.83231 0.1251 0.29209 0.0
H484 H 0.79489 0.18795 0.27088 0.0
H485 H 0.82246 0.20913 0.2789 0.0
H486 H 0.84848 0.16618 0.33246 0.0
C487 C 0.78684 0.12044 0.31932 0.0
C488 C 0.76855 0.11957 0.30701 0.0
C489 C 0.76228 0.13472 0.28952 0.0
C490 C 0.77403 0.15051 0.28454 0.0
C491 C 0.79195 0.15092 0.29728 0.0
C492 C 0.79824 0.13623 0.31434 0.0
C493 C 0.81762 0.14028 0.32681 0.0
C494 C 0.81699 0.14116 0.3602 0.0
C495 C 0.83203 0.12568 0.31621 0.0
C496 C 0.82141 0.15953 0.31398 0.0
C497 C 0.8065 0.16553 0.29702 0.0
C498 C 0.80668 0.18329 0.28394 0.0
C499 C 0.8224 0.19522 0.2886 0.0
C500 C 0.83773 0.1893 0.30613 0.0
C501 C 0.83716 0.17111 0.31863 0.0
H502 H 0.81074 0.75852 0.32548 0.0
H503 H 0.85145 0.78342 0.26688 0.0
H504 H 0.82845 0.80793 0.25334 0.0
H505 H 0.76641 0.77129 0.28293 0.0
H506 H 0.75379 0.7767 0.31579 0.0
H507 H 0.77159 0.75861 0.31583 0.0
H508 H 0.78889 0.77576 0.3581 0.0
H509 H 0.77127 0.79388 0.3581 0.0
H510 H 0.79581 0.80016 0.3539 0.0
H511 H 0.80426 0.83265 0.25323 0.0
H512 H 0.78015 0.85616 0.2665 0.0
H513 H 0.75429 0.81593 0.32494 0.0
C514 C 0.81437 0.76867 0.30883 0.0
C515 C 0.83257 0.76893 0.29652 0.0
C516 C 0.83737 0.78288 0.27595 0.0
C517 C 0.8244 0.79679 0.26814 0.0
C518 C 0.80671 0.79661 0.28127 0.0
C519 C 0.80159 0.78287 0.30109 0.0
C520 C 0.78279 0.78749 0.31506 0.0
C521 C 0.76775 0.77263 0.30691 0.0
C522 C 0.78483 0.78944 0.34824 0.0
C523 C 0.77861 0.80635 0.30098 0.0
C524 C 0.79247 0.81116 0.28118 0.0
C525 C 0.79301 0.82883 0.26796 0.0
C526 C 0.77931 0.84209 0.27559 0.0
C527 C 0.76518 0.83755 0.296 0.0
C528 C 0.76456 0.81936 0.30838 0.0
H529 H 0.11086 0.78121 0.27095 0.0
H530 H 0.13686 0.73593 0.31938 0.0
H531 H 0.16702 0.75378 0.32048 0.0
H532 H 0.15596 0.7937 0.22898 0.0
H533 H 0.14983 0.81835 0.22884 0.0
H534 H 0.13152 0.80051 0.22747 0.0
H535 H 0.11592 0.81542 0.27284 0.0
H536 H 0.13416 0.83312 0.27452 0.0
H537 H 0.12964 0.8184 0.30563 0.0
H538 H 0.19283 0.77861 0.32218 0.0
H539 H 0.21187 0.80808 0.32421 0.0
H540 H 0.1688 0.83707 0.27498 0.0
C541 C 0.12312 0.77481 0.28086 0.0
C542 C 0.12168 0.75714 0.29475 0.0
C543 C 0.13785 0.74927 0.30801 0.0
C544 C 0.15501 0.75934 0.30882 0.0
C545 C 0.15586 0.777 0.29553 0.0
C546 C 0.14043 0.78448 0.28126 0.0
C547 C 0.14465 0.80419 0.27026 0.0
C548 C 0.14554 0.80419 0.23691 0.0
C549 C 0.13025 0.81862 0.28152 0.0
C550 C 0.16408 0.80742 0.28318 0.0
C551 C 0.17065 0.79131 0.29667 0.0
C552 C 0.188 0.79114 0.31111 0.0
C553 C 0.19874 0.80789 0.31207 0.0
C554 C 0.19185 0.82466 0.29938 0.0
C555 C 0.17444 0.82432 0.28447 0.0
H556 H 0.10662 0.78954 0.64499 0.0
H557 H 0.13363 0.7449 0.69383 0.0
H558 H 0.16203 0.76539 0.70014 0.0
H559 H 0.14719 0.8021 0.60592 0.0
H560 H 0.1413 0.8268 0.60442 0.0
H561 H 0.12284 0.80929 0.6067 0.0
H562 H 0.10975 0.82567 0.65284 0.0
H563 H 0.12811 0.84331 0.65061 0.0
H564 H 0.12519 0.82984 0.68344 0.0
H565 H 0.18833 0.79116 0.69814 0.0
H566 H 0.20927 0.81856 0.6875 0.0
H567 H 0.16384 0.84443 0.63869 0.0
C568 C 0.11827 0.7841 0.65766 0.0
C569 C 0.11778 0.76572 0.66935 0.0
C570 C 0.13364 0.75904 0.68495 0.0
C571 C 0.14981 0.77057 0.68859 0.0
C572 C 0.14986 0.78857 0.67619 0.0
C573 C 0.13443 0.79515 0.66096 0.0
C574 C 0.13817 0.8142 0.64758 0.0
C575 C 0.13733 0.81301 0.61419 0.0
C576 C 0.1245 0.82914 0.65934 0.0
C577 C 0.15804 0.81766 0.65811 0.0
C578 C 0.16472 0.80281 0.67451 0.0
C579 C 0.18313 0.80288 0.68547 0.0
C580 C 0.19492 0.81847 0.67933 0.0
C581 C 0.18819 0.8337 0.66238 0.0
C582 C 0.16946 0.83317 0.65194 0.0
H583 H 0.16881 0.11273 0.63515 0.0
H584 H 0.20694 0.13117 0.70362 0.0
H585 H 0.18647 0.15905 0.71261 0.0
H586 H 0.15972 0.15921 0.60771 0.0
H587 H 0.13571 0.15336 0.59805 0.0
H588 H 0.15348 0.1353 0.59783 0.0
H589 H 0.13327 0.11512 0.63309 0.0
H590 H 0.11546 0.13308 0.63343 0.0
H591 H 0.12577 0.12524 0.66709 0.0
H592 H 0.16065 0.18545 0.71289 0.0
H593 H 0.13299 0.20637 0.70476 0.0
H594 H 0.11346 0.16883 0.63621 0.0
C595 C 0.17286 0.12245 0.65232 0.0
C596 C 0.1893 0.11962 0.66903 0.0
C597 C 0.19429 0.13303 0.69071 0.0
C598 C 0.18277 0.14888 0.69589 0.0
C599 C 0.16656 0.15116 0.67887 0.0
C600 C 0.16182 0.13825 0.65741 0.0
C601 C 0.14416 0.14372 0.64133 0.0
C602 C 0.14853 0.14816 0.60935 0.0
C603 C 0.12876 0.12838 0.64392 0.0
C604 C 0.13906 0.16135 0.65782 0.0
C605 C 0.15218 0.16579 0.6791 0.0
C606 C 0.1503 0.18198 0.69634 0.0
C607 C 0.1346 0.19377 0.69162 0.0
C608 C 0.12094 0.18902 0.67023 0.0
C609 C 0.1234 0.17265 0.65321 0.0
H610 H 0.79187 0.103 0.66699 0.0
H611 H 0.74156 0.13665 0.65476 0.0
H612 H 0.76105 0.16574 0.65596 0.0
H613 H 0.81612 0.13838 0.71601 0.0
H614 H 0.83899 0.13266 0.7016 0.0
H615 H 0.8208 0.11475 0.7034 0.0
H616 H 0.82451 0.10846 0.64825 0.0
H617 H 0.84253 0.1264 0.64623 0.0
H618 H 0.82199 0.12776 0.62313 0.0
H619 H 0.78631 0.19088 0.65412 0.0
H620 H 0.81537 0.21013 0.64946 0.0
H621 H 0.84926 0.16003 0.66206 0.0
C622 C 0.78492 0.11652 0.66519 0.0
C623 C 0.76519 0.11758 0.66093 0.0
C624 C 0.75661 0.13552 0.65848 0.0
C625 C 0.76758 0.15212 0.65906 0.0
C626 C 0.78705 0.15055 0.66269 0.0
C627 C 0.79562 0.13322 0.66614 0.0
C628 C 0.81686 0.13537 0.6686 0.0
C629 C 0.82359 0.12997 0.69922 0.0
C630 C 0.82706 0.12382 0.64514 0.0
C631 C 0.81902 0.15642 0.66375 0.0
C632 C 0.80162 0.16501 0.66128 0.0
C633 C 0.79999 0.18434 0.6564 0.0
C634 C 0.81657 0.19516 0.65383 0.0
C635 C 0.83452 0.18655 0.6555 0.0
C636 C 0.83571 0.16695 0.66071 0.0
H637 H 0.84449 0.79615 0.66786 0.0
H638 H 0.81282 0.74369 0.67479 0.0
H639 H 0.7837 0.76183 0.68408 0.0
H640 H 0.81722 0.82284 0.72358 0.0
H641 H 0.81909 0.84442 0.70312 0.0
H642 H 0.83766 0.82718 0.70133 0.0
H643 H 0.83438 0.82609 0.64525 0.0
H644 H 0.81585 0.84323 0.64687 0.0
H645 H 0.81169 0.8208 0.62922 0.0
H646 H 0.75731 0.78616 0.68614 0.0
H647 H 0.73665 0.81406 0.68087 0.0
H648 H 0.78625 0.85 0.6735 0.0
C649 C 0.83152 0.78842 0.67197 0.0
C650 C 0.83093 0.76851 0.67063 0.0
C651 C 0.81364 0.75896 0.67595 0.0
C652 C 0.79703 0.76915 0.68125 0.0
C653 C 0.79803 0.78884 0.68166 0.0
C654 C 0.81493 0.79833 0.6775 0.0
C655 C 0.81219 0.81947 0.67682 0.0
C656 C 0.82213 0.82904 0.70276 0.0
C657 C 0.81892 0.82788 0.64782 0.0
C658 C 0.79098 0.82042 0.67977 0.0
C659 C 0.78301 0.80269 0.68305 0.0
C660 C 0.76345 0.80013 0.68412 0.0
C661 C 0.75182 0.81605 0.68116 0.0
C662 C 0.75982 0.83422 0.67685 0.0
C663 C 0.77966 0.83634 0.67694 0.0
H664 H 0.61837 0.66547 0.84825 0.0
H665 H 0.63865 0.70566 0.78447 0.0
H666 H 0.66453 0.68358 0.77167 0.0
H667 H 0.66305 0.65152 0.87355 0.0
H668 H 0.6558 0.62739 0.87953 0.0
H669 H 0.63879 0.64606 0.88193 0.0
H670 H 0.61789 0.62911 0.84331 0.0
H671 H 0.63486 0.61038 0.84075 0.0
H672 H 0.62786 0.62301 0.8086 0.0
H673 H 0.68995 0.65698 0.76934 0.0
H674 H 0.71055 0.62903 0.77633 0.0
H675 H 0.67146 0.60734 0.84051 0.0
C676 C 0.62809 0.66973 0.83137 0.0
C677 C 0.62647 0.68736 0.8174 0.0
C678 C 0.6396 0.69221 0.79546 0.0
C679 C 0.65433 0.67976 0.7881 0.0
C680 C 0.6556 0.66255 0.80279 0.0
C681 C 0.64266 0.65761 0.82385 0.0
C682 C 0.64706 0.6388 0.83741 0.0
C683 C 0.65144 0.64109 0.87002 0.0
C684 C 0.63096 0.62449 0.83218 0.0
C685 C 0.66449 0.63364 0.8206 0.0
C686 C 0.66947 0.64746 0.80088 0.0
C687 C 0.68596 0.646 0.78445 0.0
C688 C 0.69758 0.63011 0.78854 0.0
C689 C 0.69247 0.61585 0.80861 0.0
C690 C 0.6756 0.61771 0.82447 0.0
H691 H 0.30035 0.60723 0.81702 0.0
H692 H 0.25209 0.63965 0.78832 0.0
H693 H 0.27272 0.66782 0.78293 0.0
H694 H 0.31877 0.6409 0.8615 0.0
H695 H 0.34321 0.63574 0.85444 0.0
H696 H 0.32563 0.61754 0.85014 0.0
H697 H 0.33624 0.61206 0.79698 0.0
H698 H 0.35401 0.63023 0.8012 0.0
H699 H 0.33697 0.63167 0.77216 0.0
H700 H 0.29816 0.69356 0.78732 0.0
H701 H 0.32513 0.71394 0.80247 0.0
H702 H 0.3557 0.66423 0.82983 0.0
C703 C 0.29415 0.62006 0.80871 0.0
C704 C 0.27459 0.62115 0.80289 0.0
C705 C 0.26707 0.63837 0.79256 0.0
C706 C 0.27869 0.65446 0.78947 0.0
C707 C 0.29782 0.65304 0.79655 0.0
C708 C 0.30546 0.63616 0.80575 0.0
C709 C 0.32579 0.63859 0.81523 0.0
C710 C 0.32849 0.63287 0.84721 0.0
C711 C 0.33903 0.62748 0.79519 0.0
C712 C 0.32822 0.65963 0.81119 0.0
C713 C 0.31215 0.66775 0.79977 0.0
C714 C 0.31089 0.68727 0.79586 0.0
C715 C 0.32627 0.69875 0.80445 0.0
C716 C 0.34245 0.69065 0.81735 0.0
C717 C 0.34351 0.67082 0.82001 0.0
H718 H 0.3494 0.2945 0.8028 0.0
H719 H 0.31778 0.24295 0.7854 0.0
H720 H 0.2891 0.26185 0.77643 0.0
H721 H 0.31572 0.31598 0.84328 0.0
H722 H 0.32034 0.33961 0.83057 0.0
H723 H 0.33881 0.32239 0.83009 0.0
H724 H 0.34358 0.32788 0.77497 0.0
H725 H 0.32509 0.34524 0.77528 0.0
H726 H 0.32376 0.32547 0.75056 0.0
H727 H 0.26291 0.28639 0.77622 0.0
H728 H 0.24212 0.31364 0.78609 0.0
H729 H 0.2914 0.34853 0.80401 0.0
C730 C 0.3366 0.28715 0.79631 0.0
C731 C 0.33588 0.26723 0.79469 0.0
C732 C 0.31873 0.25821 0.78655 0.0
C733 C 0.30236 0.26884 0.78137 0.0
C734 C 0.30345 0.28847 0.78412 0.0
C735 C 0.32023 0.2975 0.79118 0.0
C736 C 0.31747 0.31844 0.79586 0.0
C737 C 0.32343 0.32444 0.82678 0.0
C738 C 0.32811 0.32993 0.77279 0.0
C739 C 0.29637 0.31975 0.79161 0.0
C740 C 0.2885 0.30244 0.78427 0.0
C741 C 0.26899 0.30006 0.78144 0.0
C742 C 0.25728 0.31563 0.78701 0.0
C743 C 0.26514 0.33323 0.79573 0.0
C744 C 0.28495 0.33532 0.79717 0.0
H745 H 0.63674 0.26218 0.81001 0.0
H746 H 0.58946 0.29725 0.7854 0.0
H747 H 0.61118 0.32376 0.77576 0.0
H748 H 0.65965 0.29559 0.84972 0.0
H749 H 0.68346 0.28955 0.83986 0.0
H750 H 0.66515 0.27188 0.83824 0.0
H751 H 0.67276 0.26545 0.78416 0.0
H752 H 0.69127 0.28306 0.78565 0.0
H753 H 0.67282 0.28475 0.75876 0.0
H754 H 0.63611 0.3477 0.77799 0.0
H755 H 0.66331 0.36788 0.79116 0.0
H756 H 0.69553 0.31824 0.81394 0.0
C757 C 0.63116 0.27521 0.80138 0.0
C758 C 0.6115 0.27767 0.79803 0.0
C759 C 0.60451 0.2951 0.78785 0.0
C760 C 0.61674 0.3102 0.78219 0.0
C761 C 0.63598 0.30767 0.78679 0.0
C762 C 0.64326 0.2906 0.79592 0.0
C763 C 0.66417 0.29252 0.80284 0.0
C764 C 0.66834 0.28707 0.83454 0.0
C765 C 0.67595 0.28074 0.78158 0.0
C766 C 0.66717 0.31352 0.79785 0.0
C767 C 0.65075 0.32184 0.78801 0.0
C768 C 0.6492 0.34132 0.78489 0.0
C769 C 0.66468 0.35267 0.79253 0.0
C770 C 0.68153 0.34455 0.80306 0.0
C771 C 0.68297 0.3247 0.80506 0.0
H772 H 0.61269 0.28765 0.14748 0.0
H773 H 0.63932 0.24323 0.1973 0.0
H774 H 0.66715 0.26422 0.20555 0.0
H775 H 0.65407 0.30243 0.11154 0.0
H776 H 0.6473 0.32691 0.11096 0.0
H777 H 0.62946 0.3087 0.11104 0.0
H778 H 0.6145 0.32356 0.15703 0.0
H779 H 0.6323 0.34184 0.1571 0.0
H780 H 0.62889 0.32746 0.18889 0.0
H781 H 0.69285 0.29075 0.20605 0.0
H782 H 0.71321 0.31897 0.198 0.0
H783 H 0.66832 0.3444 0.14749 0.0
C784 C 0.62419 0.28229 0.16055 0.0
C785 C 0.62372 0.26384 0.17203 0.0
C786 C 0.63933 0.25737 0.18845 0.0
C787 C 0.65517 0.2692 0.19323 0.0
C788 C 0.65514 0.28732 0.18127 0.0
C789 C 0.63998 0.29369 0.16519 0.0
C790 C 0.64344 0.31317 0.15313 0.0
C791 C 0.64358 0.31276 0.1197 0.0
C792 C 0.62892 0.32734 0.16475 0.0
C793 C 0.66286 0.31707 0.16524 0.0
C794 C 0.66956 0.3021 0.18135 0.0
C795 C 0.68763 0.30256 0.19362 0.0
C796 C 0.69908 0.31864 0.18898 0.0
C797 C 0.69235 0.33398 0.17226 0.0
C798 C 0.67392 0.33308 0.16062 0.0
H799 H 0.66057 0.61024 0.15321 0.0
H800 H 0.70776 0.63877 0.19526 0.0
H801 H 0.68796 0.66718 0.2021 0.0
H802 H 0.64571 0.64861 0.11308 0.0
H803 H 0.62091 0.64305 0.11573 0.0
H804 H 0.63802 0.62448 0.11782 0.0
H805 H 0.62439 0.61407 0.16748 0.0
H806 H 0.60717 0.63263 0.16551 0.0
H807 H 0.62263 0.63108 0.19656 0.0
H808 H 0.66325 0.69359 0.20002 0.0
H809 H 0.63688 0.71511 0.18815 0.0
H810 H 0.60688 0.66847 0.147 0.0
C811 C 0.66672 0.62227 0.16444 0.0
C812 C 0.68572 0.6222 0.17386 0.0
C813 C 0.6932 0.63843 0.18803 0.0
C814 C 0.68204 0.65462 0.19202 0.0
C815 C 0.66345 0.6543 0.18182 0.0
C816 C 0.6559 0.63845 0.1684 0.0
C817 C 0.63618 0.64194 0.1572 0.0
C818 C 0.63516 0.63938 0.12401 0.0
C819 C 0.62174 0.62917 0.17262 0.0
C820 C 0.63384 0.66237 0.16586 0.0
C821 C 0.64956 0.66931 0.18033 0.0
C822 C 0.65081 0.68821 0.189 0.0
C823 C 0.63575 0.70033 0.18222 0.0
C824 C 0.61979 0.6935 0.16667 0.0
C825 C 0.61881 0.67418 0.15901 0.0
H826 H 0.29446 0.60522 0.16941 0.0
H827 H 0.24444 0.6369 0.19216 0.0
H828 H 0.26442 0.665 0.2024 0.0
H829 H 0.32818 0.62905 0.22115 0.0
H830 H 0.34682 0.62825 0.19466 0.0
H831 H 0.32907 0.60987 0.19533 0.0
H832 H 0.32148 0.61619 0.14114 0.0
H833 H 0.33904 0.63457 0.14034 0.0
H834 H 0.31505 0.63968 0.13004 0.0
H835 H 0.28939 0.69103 0.20139 0.0
H836 H 0.31648 0.71187 0.1895 0.0
H837 H 0.34966 0.66257 0.16776 0.0
C838 C 0.28771 0.61785 0.1775 0.0
C839 C 0.26788 0.61881 0.1801 0.0
C840 C 0.25962 0.63575 0.1903 0.0
C841 C 0.27087 0.65179 0.19615 0.0
C842 C 0.29035 0.65057 0.19206 0.0
C843 C 0.29867 0.63389 0.1833 0.0
C844 C 0.31943 0.63662 0.17701 0.0
C845 C 0.33159 0.62528 0.19832 0.0
C846 C 0.324 0.63147 0.14527 0.0
C847 C 0.32141 0.6576 0.18244 0.0
C848 C 0.30462 0.66545 0.19152 0.0
C849 C 0.30271 0.68496 0.19494 0.0
C850 C 0.31819 0.6967 0.18816 0.0
C851 C 0.33525 0.68888 0.17783 0.0
C852 C 0.33693 0.66904 0.17594 0.0
H853 H 0.29004 0.34585 0.14329 0.0
H854 H 0.24626 0.31731 0.1925 0.0
H855 H 0.26887 0.29179 0.20438 0.0
H856 H 0.30811 0.30483 0.11147 0.0
H857 H 0.33216 0.31328 0.11151 0.0
H858 H 0.31305 0.32981 0.10968 0.0
H859 H 0.32608 0.34718 0.1553 0.0
H860 H 0.34528 0.3307 0.15725 0.0
H861 H 0.33014 0.33406 0.18818 0.0
H862 H 0.29626 0.26784 0.20663 0.0
H863 H 0.32518 0.24876 0.19982 0.0
H864 H 0.34989 0.29423 0.14944 0.0
C865 C 0.28516 0.33448 0.15708 0.0
C866 C 0.26637 0.33369 0.16716 0.0
C867 C 0.26064 0.3183 0.18471 0.0
C868 C 0.27338 0.30374 0.19151 0.0
C869 C 0.29173 0.30484 0.18057 0.0
C870 C 0.29752 0.31992 0.16379 0.0
C871 C 0.3174 0.31745 0.1528 0.0
C872 C 0.31768 0.31627 0.1194 0.0
C873 C 0.3305 0.33329 0.16408 0.0
C874 C 0.32213 0.29869 0.16627 0.0
C875 C 0.30721 0.29145 0.18207 0.0
C876 C 0.30809 0.27355 0.19466 0.0
C877 C 0.32456 0.26281 0.19069 0.0
C878 C 0.33992 0.2701 0.17447 0.0
C879 C 0.33863 0.28837 0.16253 0.0
H880 H 0.93985 0.24951 0.33277 0.0
H881 H 0.92633 0.22766 0.24737 0.0
H882 H 0.95998 0.23092 0.23317 0.0
H883 H -0.02023 0.28257 0.31022 0.0
H884 H -0.0071 0.27699 0.34262 0.0
H885 H 0.96746 0.27711 0.34336 0.0
H886 H 0.96733 0.2428 0.36274 0.0
H887 H -0.00736 0.24256 0.36201 0.0
H888 H -0.0206 0.22468 0.34256 0.0
H889 H -0.00435 0.23049 0.23215 0.0
H890 H 0.02946 0.22621 0.24446 0.0
H891 H 0.01948 0.24879 0.33031 0.0
C892 C 0.94392 0.24628 0.31066 0.0
C893 C 0.93063 0.23886 0.29081 0.0
C894 C 0.93635 0.23389 0.26248 0.0
C895 C 0.95541 0.23568 0.25434 0.0
C896 C 0.96841 0.24256 0.27479 0.0
C897 C 0.9628 0.24799 0.30232 0.0
C898 C -0.02041 0.25251 0.32161 0.0
C899 C -0.02005 0.27355 0.32993 0.0
C900 C -0.02026 0.23987 0.3488 0.0
C901 C -0.00441 0.24777 0.30126 0.0
C902 C -0.01105 0.24244 0.27412 0.0
C903 C 0.00104 0.23525 0.25295 0.0
C904 C 0.02023 0.23295 0.26 0.0
C905 C 0.02703 0.23786 0.2879 0.0
C906 C 0.01467 0.24577 0.30842 0.0
H907 H 0.75104 0.01704 0.28159 0.0
H908 H 0.69145 0.02974 0.2869 0.0
H909 H 0.68378 -0.004 0.27816 0.0
H910 H 0.74654 0.97627 0.22704 0.0
H911 H 0.76519 0.9638 0.24531 0.0
H912 H 0.76555 -0.01073 0.24411 0.0
H913 H 0.76796 -0.00961 0.30026 0.0
H914 H 0.7674 0.96509 0.30168 0.0
H915 H 0.75021 -0.02147 0.32161 0.0
H916 H 0.68315 0.96006 0.27989 0.0
H917 H 0.68972 0.9265 0.29107 0.0
H918 H 0.7497 0.93791 0.28427 0.0
C919 C 0.73636 0.01285 0.27968 0.0
C920 C 0.72185 0.02598 0.28476 0.0
C921 C 0.70279 0.01995 0.2826 0.0
C922 C 0.69832 0.00079 0.27771 0.0
C923 C 0.71306 -0.01204 0.27441 0.0
C924 C 0.73172 -0.00611 0.27473 0.0
C925 C 0.74509 0.97734 0.27458 0.0
C926 C 0.75625 0.97663 0.24606 0.0
C927 C 0.75842 -0.02212 0.30111 0.0
C928 C 0.73113 0.96115 0.27631 0.0
C929 C 0.71269 0.96739 0.27542 0.0
C930 C 0.69753 0.95499 0.27983 0.0
C931 C 0.70136 0.93594 0.28612 0.0
C932 C 0.72022 0.92962 0.28844 0.0
C933 C 0.73514 0.9423 0.2824 0.0
H934 H 0.0122 0.75175 0.27916 0.0
H935 H 0.02314 0.69166 0.28354 0.0
H936 H -0.01079 0.68505 0.27521 0.0
H937 H 0.97318 0.7519 0.31915 0.0
H938 H 0.96052 0.76957 0.29901 0.0
H939 H -0.01419 0.76933 0.29821 0.0
H940 H -0.01492 0.76716 0.242 0.0
H941 H 0.95964 0.76747 0.24264 0.0
H942 H 0.97177 0.74851 0.22452 0.0
H943 H 0.95339 0.68538 0.27623 0.0
H944 H 0.91997 0.69276 0.28678 0.0
H945 H 0.93296 0.75255 0.28112 0.0
C946 C 0.00759 0.73718 0.27734 0.0
C947 C 0.02032 0.72223 0.28192 0.0
C948 C 0.01368 0.70335 0.27976 0.0
C949 C -0.00559 0.69946 0.27502 0.0
C950 C -0.01795 0.7146 0.27188 0.0
C951 C -0.0115 0.7331 0.27249 0.0
C952 C 0.97234 0.74693 0.27207 0.0
C953 C 0.97301 0.76019 0.29869 0.0
C954 C 0.9722 0.75818 0.24361 0.0
C955 C 0.95576 0.7334 0.27335 0.0
C956 C 0.96151 0.71478 0.2724 0.0
C957 C 0.9487 0.6999 0.27625 0.0
C958 C 0.92972 0.7042 0.28216 0.0
C959 C 0.92389 0.72322 0.28467 0.0
C960 C 0.93698 0.73787 0.27907 0.0
H961 H 0.21582 0.93402 0.33622 0.0
H962 H 0.24485 0.9233 0.25531 0.0
H963 H 0.25038 0.95799 0.24965 0.0
H964 H 0.19217 0.97509 0.31717 0.0
H965 H 0.19532 -0.0139 0.35222 0.0
H966 H 0.19456 0.96078 0.34925 0.0
H967 H 0.22715 0.95876 0.37494 0.0
H968 H 0.22802 -0.01587 0.37796 0.0
H969 H 0.24697 0.9717 0.36045 0.0
H970 H 0.25086 -0.0046 0.25334 0.0
H971 H 0.24669 0.02939 0.26608 0.0
H972 H 0.21827 0.01279 0.34525 0.0
C973 C 0.22328 0.9389 0.31714 0.0
C974 C 0.22958 0.92608 0.29588 0.0
C975 C 0.23977 0.93298 0.27171 0.0
C976 C 0.24297 0.95262 0.26842 0.0
C977 C 0.23626 0.96494 0.28987 0.0
C978 C 0.22684 0.9581 0.31392 0.0
C979 C 0.22107 0.97365 0.33436 0.0
C980 C 0.19951 0.97392 0.33846 0.0
C981 C 0.23142 0.97195 0.36365 0.0
C982 C 0.22792 -0.00943 0.31767 0.0
C983 C 0.23688 -0.01445 0.2922 0.0
C984 C 0.24395 -0.00065 0.27336 0.0
C985 C 0.24157 0.01861 0.28073 0.0
C986 C 0.23201 0.02375 0.30653 0.0
C987 C 0.22545 0.00942 0.32519 0.0
H988 H 0.01485 0.71483 0.62968 0.0
H989 H 0.0282 0.71868 0.72116 0.0
H990 H -0.00608 0.71748 0.73276 0.0
H991 H -0.02016 0.74616 0.63066 0.0
H992 H 0.96502 0.73479 0.60384 0.0
H993 H -0.00996 0.73105 0.60339 0.0
H994 H -0.0151 0.69482 0.60661 0.0
H995 H 0.95973 0.69838 0.60644 0.0
H996 H 0.97059 0.68518 0.63533 0.0
H997 H 0.95759 0.72083 0.7329 0.0
H998 H 0.92404 0.72833 0.72151 0.0
H999 H 0.93625 0.7243 0.62976 0.0
C1000 C 0.01053 0.7145 0.65222 0.0
C1001 C 0.02395 0.71634 0.67461 0.0
C1002 C 0.018 0.71668 0.70384 0.0
C1003 C -0.00141 0.71613 0.71052 0.0
C1004 C -0.01444 0.7152 0.68764 0.0
C1005 C -0.00858 0.71416 0.65905 0.0
C1006 C 0.97514 0.71584 0.63804 0.0
C1007 C -0.02233 0.73297 0.61783 0.0
C1008 C 0.97243 0.69746 0.62059 0.0
C1009 C 0.9592 0.71879 0.65906 0.0
C1010 C 0.96521 0.71797 0.68763 0.0
C1011 C 0.95276 0.72124 0.7106 0.0
C1012 C 0.93382 0.72554 0.70403 0.0
C1013 C 0.92786 0.72696 0.67482 0.0
C1014 C 0.94063 0.72332 0.65227 0.0
H1015 H 0.20134 0.93566 0.6818 0.0
H1016 H 0.26135 0.92452 0.68618 0.0
H1017 H 0.26742 0.95838 0.69656 0.0
H1018 H 0.2046 0.97384 0.6413 0.0
H1019 H 0.18559 -0.01304 0.65744 0.0
H1020 H 0.18548 0.96167 0.6592 0.0
H1021 H 0.18321 0.96307 0.71531 0.0
H1022 H 0.18305 -0.01148 0.71375 0.0
H1023 H 0.20034 0.97664 0.73575 0.0
H1024 H 0.2672 -0.00584 0.69595 0.0
H1025 H 0.26081 0.02759 0.68406 0.0
H1026 H 0.20103 0.01472 0.678 0.0
C1027 C 0.21572 0.94018 0.6861 0.0
C1028 C 0.23087 0.92748 0.68326 0.0
C1029 C 0.24951 0.93397 0.68863 0.0
C1030 C 0.25306 0.9532 0.6945 0.0
C1031 C 0.23781 0.9656 0.69532 0.0
C1032 C 0.21946 0.95921 0.69166 0.0
C1033 C 0.20575 0.97538 0.68892 0.0
C1034 C 0.19474 0.97439 0.66001 0.0
C1035 C 0.1923 0.97593 0.71499 0.0
C1036 C 0.21934 -0.0081 0.68963 0.0
C1037 C 0.23771 -0.01388 0.69423 0.0
C1038 C 0.25283 -0.00114 0.69302 0.0
C1039 C 0.24908 0.01782 0.68624 0.0
C1040 C 0.23042 0.02369 0.68012 0.0
C1041 C 0.21541 0.01064 0.68274 0.0
H1042 H 0.01913 0.24802 0.6433 0.0
H1043 H 0.02843 0.22071 0.72581 0.0
H1044 H -0.00581 0.22241 0.73633 0.0
H1045 H 0.97685 0.2779 0.66436 0.0
H1046 H 0.96581 0.27333 0.6297 0.0
H1047 H -0.00882 0.27467 0.63248 0.0
H1048 H -0.00644 0.24149 0.60891 0.0
H1049 H 0.96831 0.23991 0.60642 0.0
H1050 H -0.01872 0.22185 0.62522 0.0
H1051 H 0.95863 0.2217 0.73355 0.0
H1052 H 0.92531 0.21816 0.71733 0.0
H1053 H 0.93941 0.24449 0.63558 0.0
C1054 C 0.014 0.24342 0.66426 0.0
C1055 C 0.02633 0.23497 0.68435 0.0
C1056 C 0.01918 0.22788 0.71076 0.0
C1057 C -0.00024 0.22873 0.71678 0.0
C1058 C -0.01224 0.23652 0.69597 0.0
C1059 C -0.00533 0.24385 0.67025 0.0
C1060 C -0.02117 0.24853 0.64939 0.0
C1061 C -0.02187 0.26988 0.64366 0.0
C1062 C -0.01939 0.23727 0.62083 0.0
C1063 C 0.96196 0.24203 0.66684 0.0
C1064 C 0.9673 0.23551 0.6939 0.0
C1065 C 0.95425 0.2272 0.71273 0.0
C1066 C 0.9354 0.22525 0.70344 0.0
C1067 C 0.92994 0.23144 0.67557 0.0
C1068 C 0.94328 0.24016 0.65732 0.0
H1069 H 0.74642 0.01485 0.69322 0.0
H1070 H 0.68729 0.02835 0.68257 0.0
H1071 H 0.67873 -0.0048 0.69373 0.0
H1072 H 0.74578 0.97444 0.65701 0.0
H1073 H 0.76221 0.96175 0.67949 0.0
H1074 H 0.7632 -0.01296 0.67835 0.0
H1075 H 0.75942 -0.01134 0.73425 0.0
H1076 H 0.75855 0.96321 0.73562 0.0
H1077 H 0.73974 0.97687 0.75123 0.0
H1078 H 0.67744 0.95924 0.69481 0.0
H1079 H 0.68368 0.9252 0.68665 0.0
H1080 H 0.74355 0.93583 0.69811 0.0
C1081 C 0.73162 0.01101 0.69442 0.0
C1082 C 0.71753 0.02416 0.68716 0.0
C1083 C 0.69832 0.01857 0.6885 0.0
C1084 C 0.69334 -0.00027 0.69476 0.0
C1085 C 0.70771 -0.01319 0.70031 0.0
C1086 C 0.72648 -0.00761 0.70081 0.0
C1087 C 0.73947 0.97565 0.70364 0.0
C1088 C 0.75346 0.97467 0.6781 0.0
C1089 C 0.74991 0.97613 0.73294 0.0
C1090 C 0.72524 0.95964 0.70254 0.0
C1091 C 0.70694 0.96623 0.7013 0.0
C1092 C 0.69168 0.95392 0.69662 0.0
C1093 C 0.69532 0.93458 0.6921 0.0
C1094 C 0.71408 0.92786 0.69191 0.0
C1095 C 0.72903 0.9405 0.69846 0.0
H1096 H 0.52371 0.74606 0.80496 0.0
H1097 H 0.52871 0.68798 0.8341 0.0
H1098 H 0.49439 0.68461 0.83404 0.0
H1099 H 0.48509 0.75854 0.84567 0.0
H1100 H 0.47272 0.77194 0.81848 0.0
H1101 H 0.49796 0.76969 0.81662 0.0
H1102 H 0.49522 0.75606 0.76452 0.0
H1103 H 0.46992 0.75852 0.76609 0.0
H1104 H 0.48012 0.7359 0.75777 0.0
H1105 H 0.46076 0.68834 0.83907 0.0
H1106 H 0.42771 0.69788 0.84275 0.0
H1107 H 0.44196 0.75293 0.80728 0.0
C1108 C 0.51754 0.73248 0.81027 0.0
C1109 C 0.52899 0.71732 0.81967 0.0
C1110 C 0.52034 0.69985 0.82698 0.0
C1111 C 0.50079 0.69773 0.82699 0.0
C1112 C 0.48988 0.71305 0.81897 0.0
C1113 C 0.49775 0.72996 0.81 0.0
C1114 C 0.48228 0.74421 0.80357 0.0
C1115 C 0.48466 0.76215 0.82221 0.0
C1116 C 0.48186 0.74896 0.77105 0.0
C1117 C 0.46478 0.73296 0.81221 0.0
C1118 C 0.4697 0.71497 0.82073 0.0
C1119 C 0.45659 0.70221 0.83175 0.0
C1120 C 0.43785 0.70784 0.83394 0.0
C1121 C 0.4322 0.72607 0.82503 0.0
C1122 C 0.44584 0.73879 0.81374 0.0
H1123 H 0.23639 0.43687 0.85209 0.0
H1124 H 0.20781 0.42461 0.77071 0.0
H1125 H 0.20523 0.45915 0.7614 0.0
H1126 H 0.20876 0.47788 0.87085 0.0
H1127 H 0.22867 0.48969 0.88751 0.0
H1128 H 0.22727 0.46428 0.88743 0.0
H1129 H 0.26007 0.46267 0.86268 0.0
H1130 H 0.26153 0.48804 0.86259 0.0
H1131 H 0.26388 0.47506 0.82906 0.0
H1132 H 0.20699 0.49623 0.76156 0.0
H1133 H 0.21296 0.53044 0.7711 0.0
H1134 H 0.24057 0.51606 0.85211 0.0
C1135 C 0.22956 0.44133 0.83221 0.0
C1136 C 0.22246 0.42804 0.81198 0.0
C1137 C 0.21337 0.43458 0.78652 0.0
C1138 C 0.21186 0.45414 0.78108 0.0
C1139 C 0.2193 0.46687 0.80153 0.0
C1140 C 0.22784 0.46054 0.82668 0.0
C1141 C 0.23488 0.47662 0.84544 0.0
C1142 C 0.22426 0.47714 0.87452 0.0
C1143 C 0.25636 0.47552 0.85019 0.0
C1144 C 0.22964 0.49312 0.82661 0.0
C1145 C 0.22041 0.48747 0.80152 0.0
C1146 C 0.21421 0.50071 0.78119 0.0
C1147 C 0.21764 0.52008 0.78674 0.0
C1148 C 0.22743 0.52589 0.81216 0.0
C1149 C 0.23332 0.51213 0.83222 0.0
H1150 H 0.43798 0.24915 0.77859 0.0
H1151 H 0.42598 0.19044 0.79766 0.0
H1152 H 0.4595 0.18262 0.78884 0.0
H1153 H 0.47714 0.24017 0.7232 0.0
H1154 H 0.48993 0.26061 0.73632 0.0
H1155 H 0.46447 0.2604 0.73653 0.0
H1156 H 0.46484 0.26814 0.79161 0.0
H1157 H 0.49012 0.2683 0.7916 0.0
H1158 H 0.47753 0.25291 0.81602 0.0
H1159 H 0.49539 0.18284 0.78878 0.0
H1160 H 0.52899 0.19119 0.79771 0.0
H1161 H 0.51689 0.24962 0.77805 0.0
C1162 C 0.44227 0.23452 0.77979 0.0
C1163 C 0.42945 0.2204 0.78869 0.0
C1164 C 0.43556 0.20144 0.79045 0.0
C1165 C 0.45458 0.19688 0.78548 0.0
C1166 C 0.46715 0.21139 0.77812 0.0
C1167 C 0.46107 0.2298 0.77473 0.0
C1168 C 0.47743 0.24331 0.7706 0.0
C1169 C 0.47723 0.25161 0.73983 0.0
C1170 C 0.47748 0.25906 0.79385 0.0
C1171 C 0.49376 0.22997 0.77453 0.0
C1172 C 0.4877 0.21149 0.77797 0.0
C1173 C 0.50031 0.19715 0.78527 0.0
C1174 C 0.51939 0.20198 0.79021 0.0
C1175 C 0.52545 0.22102 0.78834 0.0
C1176 C 0.51261 0.23492 0.77922 0.0
H1177 H 0.71407 0.43602 0.78169 0.0
H1178 H 0.77075 0.42405 0.81113 0.0
H1179 H 0.77991 0.45743 0.8024 0.0
H1180 H 0.72785 0.47477 0.7268 0.0
H1181 H 0.70684 0.48769 0.73586 0.0
H1182 H 0.70658 0.46221 0.73645 0.0
H1183 H 0.69479 0.46303 0.78964 0.0
H1184 H 0.69519 0.48833 0.78937 0.0
H1185 H 0.70838 0.47578 0.81661 0.0
H1186 H 0.78045 0.49327 0.80121 0.0
H1187 H 0.77236 0.52699 0.80784 0.0
H1188 H 0.71521 0.51504 0.77934 0.0
C1189 C 0.72864 0.44027 0.78494 0.0
C1190 C 0.74178 0.42755 0.7967 0.0
C1191 C 0.76062 0.43355 0.80146 0.0
C1192 C 0.76589 0.4525 0.79663 0.0
C1193 C 0.75224 0.46503 0.78643 0.0
C1194 C 0.73407 0.45898 0.78005 0.0
C1195 C 0.72125 0.47538 0.77329 0.0
C1196 C 0.71528 0.47498 0.74119 0.0
C1197 C 0.70391 0.47564 0.79345 0.0
C1198 C 0.7345 0.49173 0.77939 0.0
C1199 C 0.75252 0.4856 0.78594 0.0
C1200 C 0.76655 0.49822 0.79529 0.0
C1201 C 0.76187 0.51737 0.79891 0.0
C1202 C 0.7432 0.52357 0.79385 0.0
C1203 C 0.72965 0.51069 0.78294 0.0
H1204 H 0.44281 0.25001 0.19464 0.0
H1205 H 0.42853 0.19085 0.18299 0.0
H1206 H 0.46187 0.18239 0.19239 0.0
H1207 H 0.48249 0.24978 0.15632 0.0
H1208 H 0.49568 0.26623 0.17858 0.0
H1209 H 0.4704 0.267 0.17825 0.0
H1210 H 0.46984 0.26298 0.23416 0.0
H1211 H 0.49528 0.26228 0.23469 0.0
H1212 H 0.48178 0.24328 0.25052 0.0
H1213 H 0.49786 0.18131 0.19285 0.0
H1214 H 0.53181 0.18782 0.18425 0.0
H1215 H 0.52182 0.24765 0.19637 0.0
C1216 C 0.44655 0.23521 0.19513 0.0
C1217 C 0.4331 0.22109 0.18819 0.0
C1218 C 0.43857 0.20189 0.18865 0.0
C1219 C 0.45749 0.19697 0.19394 0.0
C1220 C 0.47064 0.21139 0.19932 0.0
C1221 C 0.46524 0.23013 0.20045 0.0
C1222 C 0.4821 0.24325 0.2029 0.0
C1223 C 0.48269 0.25737 0.1775 0.0
C1224 C 0.48226 0.25355 0.23233 0.0
C1225 C 0.49794 0.22913 0.20108 0.0
C1226 C 0.49119 0.21076 0.19972 0.0
C1227 C 0.5033 0.19559 0.19468 0.0
C1228 C 0.52259 0.19939 0.18991 0.0
C1229 C 0.52945 0.21823 0.18978 0.0
C1230 C 0.51703 0.23308 0.19665 0.0
H1231 H 0.70092 0.51722 0.18569 0.0
H1232 H 0.76014 0.53206 0.19459 0.0
H1233 H 0.76759 0.49841 0.20364 0.0
H1234 H 0.69973 0.47731 0.23851 0.0
H1235 H 0.68376 0.46407 0.21549 0.0
H1236 H 0.68298 0.48951 0.21592 0.0
H1237 H 0.68757 0.4899 0.1601 0.0
H1238 H 0.68848 0.46457 0.1595 0.0
H1239 H 0.7077 0.4782 0.14459 0.0
H1240 H 0.76881 0.4621 0.20326 0.0
H1241 H 0.7636 0.42796 0.19335 0.0
H1242 H 0.70357 0.43805 0.18464 0.0
C1243 C 0.71541 0.51356 0.1905 0.0
C1244 C 0.72993 0.52731 0.18959 0.0
C1245 C 0.74874 0.52182 0.19556 0.0
C1246 C 0.75309 0.50271 0.20065 0.0
C1247 C 0.73845 0.48936 0.20005 0.0
C1248 C 0.71994 0.4947 0.19544 0.0
C1249 C 0.70696 0.47779 0.19226 0.0
C1250 C 0.69251 0.47713 0.21703 0.0
C1251 C 0.69712 0.47761 0.16235 0.0
C1252 C 0.72106 0.462 0.19484 0.0
C1253 C 0.73915 0.46879 0.19972 0.0
C1254 C 0.75463 0.45665 0.20007 0.0
C1255 C 0.75156 0.43726 0.19452 0.0
C1256 C 0.73317 0.43032 0.18836 0.0
C1257 C 0.71778 0.44285 0.18953 0.0
H1258 H 0.43737 0.72365 0.11547 0.0
H1259 H 0.42304 0.75211 0.19577 0.0
H1260 H 0.45725 0.75779 0.20552 0.0
H1261 H 0.47648 0.6995 0.13974 0.0
H1262 H 0.48965 0.70232 0.10662 0.0
H1263 H 0.4643 0.70222 0.10559 0.0
H1264 H 0.46455 0.73489 0.08023 0.0
H1265 H 0.48997 0.73504 0.08097 0.0
H1266 H 0.47713 0.75438 0.09679 0.0
H1267 H 0.49443 0.75826 0.20666 0.0
H1268 H 0.52891 0.7537 0.19873 0.0
H1269 H 0.51638 0.72468 0.11781 0.0
C1270 C 0.44134 0.73118 0.1351 0.0
C1271 C 0.42763 0.73727 0.15502 0.0
C1272 C 0.4334 0.74734 0.18021 0.0
C1273 C 0.45277 0.75059 0.18588 0.0
C1274 C 0.46601 0.74395 0.16587 0.0
C1275 C 0.46034 0.73466 0.14082 0.0
C1276 C 0.47685 0.72843 0.12275 0.0
C1277 C 0.47681 0.70684 0.11846 0.0
C1278 C 0.47714 0.73881 0.09346 0.0
C1279 C 0.49287 0.73487 0.142 0.0
C1280 C 0.48661 0.7441 0.16661 0.0
C1281 C 0.49937 0.75109 0.18737 0.0
C1282 C 0.5189 0.74844 0.18277 0.0
C1283 C 0.52529 0.73858 0.15789 0.0
C1284 C 0.51199 0.73197 0.13734 0.0
H1285 H 0.2355 0.43593 0.11928 0.0
H1286 H 0.202 0.42206 0.19499 0.0
H1287 H 0.19832 0.45642 0.20533 0.0
H1288 H 0.26074 0.47418 0.14878 0.0
H1289 H 0.26052 0.48744 0.11546 0.0
H1290 H 0.25957 0.46206 0.11431 0.0
H1291 H 0.22871 0.46335 0.08388 0.0
H1292 H 0.22958 0.48877 0.08488 0.0
H1293 H 0.20886 0.47643 0.0975 0.0
H1294 H 0.19927 0.49366 0.20659 0.0
H1295 H 0.20501 0.52806 0.19895 0.0
H1296 H 0.23817 0.51488 0.12269 0.0
C1297 C 0.22737 0.43994 0.13816 0.0
C1298 C 0.21916 0.42626 0.15646 0.0
C1299 C 0.20844 0.43231 0.18066 0.0
C1300 C 0.2063 0.45178 0.18666 0.0
C1301 C 0.21483 0.46489 0.16808 0.0
C1302 C 0.22507 0.45902 0.14426 0.0
C1303 C 0.23305 0.47538 0.12736 0.0
C1304 C 0.25475 0.47472 0.12645 0.0
C1305 C 0.22454 0.47602 0.0966 0.0
C1306 C 0.2262 0.49157 0.14568 0.0
C1307 C 0.2155 0.48551 0.16894 0.0
C1308 C 0.20766 0.49844 0.18843 0.0
C1309 C 0.21097 0.51792 0.18396 0.0
C1310 C 0.22223 0.52414 0.16044 0.0
C1311 C 0.22975 0.51066 0.14117 0.0
H1312 H 0.06537 0.21197 0.42443 0.0
H1313 H 0.10275 0.25875 0.40342 0.0
H1314 H 0.10542 0.2666 0.45591 0.0
H1315 H 0.04052 0.2349 0.48229 0.0
H1316 H 0.0386 0.21353 0.50324 0.0
H1317 H 0.03957 0.21227 0.46424 0.0
H1318 H 0.06835 0.18989 0.46753 0.0
H1319 H 0.06741 0.19103 0.5065 0.0
H1320 H 0.08891 0.19724 0.48792 0.0
H1321 H 0.10446 0.26811 0.51244 0.0
H1322 H 0.10008 0.26297 0.56535 0.0
H1323 H 0.06281 0.21559 0.54614 0.0
C1324 C 0.07415 0.22392 0.43065 0.0
C1325 C 0.08392 0.23469 0.40975 0.0
C1326 C 0.09514 0.25026 0.41906 0.0
C1327 C 0.09671 0.25482 0.44881 0.0
C1328 C 0.08685 0.24376 0.46884 0.0
C1329 C 0.07576 0.22867 0.45991 0.0
C1330 C 0.06672 0.21866 0.48518 0.0
C1331 C 0.04507 0.21993 0.48364 0.0
C1332 C 0.07325 0.19799 0.48687 0.0
C1333 C 0.07457 0.23028 0.50997 0.0
C1334 C 0.08613 0.24476 0.50042 0.0
C1335 C 0.09532 0.25687 0.52003 0.0
C1336 C 0.09273 0.25388 0.55003 0.0
C1337 C 0.08109 0.2389 0.55998 0.0
C1338 C 0.07178 0.22722 0.53946 0.0
H1339 H 0.72326 0.09916 0.54691 0.0
H1340 H 0.6953 0.04548 0.56121 0.0
H1341 H 0.68697 0.04359 0.50894 0.0
H1342 H 0.69064 0.1161 0.48714 0.0
H1343 H 0.71 0.12691 0.46796 0.0
H1344 H 0.71046 0.12571 0.50705 0.0
H1345 H 0.74273 0.10873 0.50505 0.0
H1346 H 0.74238 0.1099 0.46613 0.0
H1347 H 0.7449 0.08739 0.48384 0.0
H1348 H 0.68609 0.04531 0.45466 0.0
H1349 H 0.69372 0.04987 0.40272 0.0
H1350 H 0.72235 0.10239 0.42361 0.0
C1351 C 0.71482 0.08738 0.53904 0.0
C1352 C 0.70952 0.07263 0.55778 0.0
C1353 C 0.69908 0.05704 0.54699 0.0
C1354 C 0.69428 0.05591 0.51744 0.0
C1355 C 0.69997 0.07058 0.4992 0.0
C1356 C 0.70992 0.08609 0.50964 0.0
C1357 C 0.71622 0.09886 0.48518 0.0
C1358 C 0.70623 0.11803 0.48694 0.0
C1359 C 0.73783 0.10134 0.48505 0.0
C1360 C 0.70932 0.08755 0.45923 0.0
C1361 C 0.69952 0.07154 0.46777 0.0
C1362 C 0.69327 0.05804 0.4477 0.0
C1363 C 0.69758 0.06075 0.41829 0.0
C1364 C 0.70807 0.07674 0.4094 0.0
C1365 C 0.71369 0.09044 0.42997 0.0
H1366 H 0.84568 0.71944 0.42265 0.0
H1367 H 0.90462 0.70767 0.40703 0.0
H1368 H 0.90914 0.70028 0.45895 0.0
H1369 H 0.85202 0.74421 0.48449 0.0
H1370 H 0.83151 0.73583 0.50374 0.0
H1371 H 0.83165 0.7356 0.46477 0.0
H1372 H 0.82407 0.69973 0.46464 0.0
H1373 H 0.82385 0.69986 0.5038 0.0
H1374 H 0.83905 0.68385 0.48454 0.0
H1375 H 0.90872 0.69959 0.5125 0.0
H1376 H 0.90369 0.70688 0.56439 0.0
H1377 H 0.84523 0.71997 0.54656 0.0
C1378 C 0.85926 0.71447 0.43014 0.0
C1379 C 0.87472 0.71355 0.41103 0.0
C1380 C 0.89258 0.70794 0.42145 0.0
C1381 C 0.89524 0.70369 0.45083 0.0
C1382 C 0.87986 0.70516 0.46947 0.0
C1383 C 0.86216 0.71032 0.45957 0.0
C1384 C 0.84872 0.71336 0.4847 0.0
C1385 C 0.84052 0.73344 0.48439 0.0
C1386 C 0.83299 0.6983 0.4844 0.0
C1387 C 0.86196 0.71049 0.51021 0.0
C1388 C 0.87969 0.70513 0.5009 0.0
C1389 C 0.89479 0.70324 0.52013 0.0
C1390 C 0.89182 0.70736 0.54951 0.0
C1391 C 0.87398 0.71342 0.55928 0.0
C1392 C 0.85879 0.71469 0.53956 0.0
H1393 H 0.22901 0.8999 0.54061 0.0
H1394 H 0.26253 0.85103 0.56287 0.0
H1395 H 0.27012 0.8464 0.51081 0.0
H1396 H 0.20728 0.88144 0.48218 0.0
H1397 H 0.20721 0.90264 0.4606 0.0
H1398 H 0.2079 0.90435 0.49946 0.0
H1399 H 0.23846 0.92463 0.49683 0.0
H1400 H 0.23778 0.92313 0.45776 0.0
H1401 H 0.25857 0.91584 0.47726 0.0
H1402 H 0.26987 0.84462 0.45525 0.0
H1403 H 0.26142 0.84568 0.40288 0.0
H1404 H 0.22736 0.89521 0.41886 0.0
C1405 C 0.23836 0.8885 0.53467 0.0
C1406 C 0.24516 0.87579 0.55569 0.0
C1407 C 0.2573 0.86102 0.54707 0.0
C1408 C 0.26168 0.85831 0.51757 0.0
C1409 C 0.25407 0.87071 0.4972 0.0
C1410 C 0.24287 0.88568 0.50557 0.0
C1411 C 0.23475 0.89592 0.47975 0.0
C1412 C 0.21301 0.89607 0.48056 0.0
C1413 C 0.24288 0.91608 0.47779 0.0
C1414 C 0.24203 0.88364 0.45548 0.0
C1415 C 0.25362 0.86948 0.46569 0.0
C1416 C 0.26105 0.85583 0.44704 0.0
C1417 C 0.25618 0.8565 0.4174 0.0
C1418 C 0.24366 0.87044 0.40707 0.0
C1419 C 0.23691 0.88435 0.42628 0.0
H1420 H 0.07733 0.74368 0.41847 0.0
H1421 H 0.07882 0.68366 0.39923 0.0
H1422 H 0.08182 0.67691 0.45191 0.0
H1423 H 0.11134 0.74283 0.47725 0.0
H1424 H 0.09917 0.76084 0.49746 0.0
H1425 H 0.09793 0.76054 0.4584 0.0
H1426 H 0.06134 0.75962 0.46077 0.0
H1427 H 0.06247 0.76 0.49976 0.0
H1428 H 0.04979 0.74129 0.48135 0.0
H1429 H 0.08347 0.67731 0.50816 0.0
H1430 H 0.08284 0.68486 0.56092 0.0
H1431 H 0.08054 0.74456 0.54046 0.0
C1432 C 0.07829 0.72907 0.42518 0.0
C1433 C 0.07773 0.71418 0.40476 0.0
C1434 C 0.07922 0.69529 0.41455 0.0
C1435 C 0.08096 0.69134 0.4444 0.0
C1436 C 0.08139 0.70647 0.46396 0.0
C1437 C 0.08018 0.72494 0.45455 0.0
C1438 C 0.08063 0.7388 0.47946 0.0
C1439 C 0.09832 0.7515 0.47805 0.0
C1440 C 0.06248 0.75061 0.48039 0.0
C1441 C 0.0817 0.7253 0.50461 0.0
C1442 C 0.08237 0.70669 0.49551 0.0
C1443 C 0.08304 0.69186 0.51543 0.0
C1444 C 0.08273 0.69625 0.5453 0.0
C1445 C 0.08153 0.71527 0.55473 0.0
C1446 C 0.08131 0.72986 0.53399 0.0
H1447 H 0.2149 0.1042 0.43015 0.0
H1448 H 0.26812 0.07915 0.40576 0.0
H1449 H 0.27844 0.07996 0.4573 0.0
H1450 H 0.23468 0.13429 0.49209 0.0
H1451 H 0.21344 0.13059 0.51278 0.0
H1452 H 0.2123 0.13168 0.47371 0.0
H1453 H 0.19559 0.09896 0.47253 0.0
H1454 H 0.19678 0.09771 0.51135 0.0
H1455 H 0.2068 0.07909 0.48965 0.0
H1456 H 0.28011 0.07825 0.51288 0.0
H1457 H 0.27289 0.07461 0.56541 0.0
H1458 H 0.21874 0.10106 0.5517 0.0
C1459 C 0.22898 0.09948 0.43558 0.0
C1460 C 0.24075 0.09167 0.41418 0.0
C1461 C 0.25901 0.08543 0.42192 0.0
C1462 C 0.26496 0.08583 0.45112 0.0
C1463 C 0.25264 0.09297 0.47202 0.0
C1464 C 0.23515 0.10005 0.46436 0.0
C1465 C 0.22367 0.10524 0.4907 0.0
C1466 C 0.22086 0.12673 0.49242 0.0
C1467 C 0.20461 0.0946 0.49106 0.0
C1468 C 0.2367 0.09858 0.51446 0.0
C1469 C 0.25362 0.09205 0.50356 0.0
C1470 C 0.26711 0.08376 0.52165 0.0
C1471 C 0.26295 0.08175 0.5514 0.0
C1472 C 0.24533 0.08767 0.56232 0.0
C1473 C 0.23239 0.0966 0.54375 0.0
H1474 H 0.90259 0.24397 0.42369 0.0
H1475 H 0.84527 0.2607 0.40449 0.0
H1476 H 0.84039 0.26844 0.45651 0.0
H1477 H 0.89422 0.21975 0.48293 0.0
H1478 H 0.91494 0.22668 0.5033 0.0
H1479 H 0.91532 0.22741 0.46445 0.0
H1480 H 0.92485 0.26283 0.46604 0.0
H1481 H 0.92465 0.26219 0.50517 0.0
H1482 H 0.91062 0.27931 0.48611 0.0
H1483 H 0.84012 0.26794 0.51176 0.0
H1484 H 0.8444 0.25894 0.56339 0.0
H1485 H 0.90179 0.24223 0.54515 0.0
C1486 C 0.88923 0.24991 0.43034 0.0
C1487 C 0.87431 0.25178 0.41033 0.0
C1488 C 0.85694 0.25941 0.41959 0.0
C1489 C 0.85408 0.26385 0.44905 0.0
C1490 C 0.86891 0.261 0.46862 0.0
C1491 C 0.88629 0.25455 0.4594 0.0
C1492 C 0.89925 0.25039 0.48463 0.0
C1493 C 0.90631 0.22984 0.48376 0.0
C1494 C 0.91582 0.26453 0.48554 0.0
C1495 C 0.88593 0.25373 0.50958 0.0
C1496 C 0.86871 0.26055 0.50018 0.0
C1497 C 0.85369 0.26305 0.51938 0.0
C1498 C 0.85622 0.25793 0.54862 0.0
C1499 C 0.87343 0.24996 0.55796 0.0
C1500 C 0.88856 0.24844 0.53841 0.0
H1501 H 0.72846 0.89695 0.55188 0.0
H1502 H 0.68737 0.85257 0.56825 0.0
H1503 H 0.68194 0.84929 0.51515 0.0
H1504 H 0.7046 0.91774 0.48865 0.0
H1505 H 0.72674 0.92272 0.47104 0.0
H1506 H 0.72537 0.92282 0.51009 0.0
H1507 H 0.75231 0.89825 0.51243 0.0
H1508 H 0.75368 0.89796 0.47349 0.0
H1509 H 0.74978 0.87624 0.49292 0.0
H1510 H 0.68352 0.84935 0.45904 0.0
H1511 H 0.69194 0.85267 0.40701 0.0
H1512 H 0.73235 0.89664 0.42984 0.0
C1513 C 0.71808 0.8867 0.54446 0.0
C1514 C 0.70836 0.87498 0.56422 0.0
C1515 C 0.6949 0.86178 0.55349 0.0
C1516 C 0.69175 0.85982 0.52338 0.0
C1517 C 0.70203 0.87133 0.50447 0.0
C1518 C 0.71479 0.88462 0.51479 0.0
C1519 C 0.72498 0.89458 0.49046 0.0
C1520 C 0.72012 0.91572 0.49004 0.0
C1521 C 0.74645 0.89156 0.49246 0.0
C1522 C 0.71652 0.88438 0.46466 0.0
C1523 C 0.70309 0.87121 0.4729 0.0
C1524 C 0.69391 0.85975 0.45244 0.0
C1525 C 0.69877 0.86171 0.42296 0.0
C1526 C 0.71287 0.87483 0.4144 0.0
C1527 C 0.72158 0.88641 0.43563 0.0
H1528 H 0.56362 0.75774 0.04657 0.0
H1529 H 0.62305 0.76417 0.06584 0.0
H1530 H 0.62899 0.77322 0.01467 0.0
H1531 H 0.56798 0.73434 0.98623 0.0
H1532 H 0.54849 0.74445 0.96656 0.0
H1533 H 0.54835 0.74456 0.00537 0.0
H1534 H 0.54439 0.78095 0.00554 0.0
H1535 H 0.54451 0.78093 0.96639 0.0
H1536 H 0.56101 0.7956 0.98626 0.0
H1537 H 0.6293 0.77272 0.95997 0.0
H1538 H 0.62393 0.76253 0.90905 0.0
H1539 H 0.56419 0.75736 0.92584 0.0
C1540 C 0.57771 0.76203 0.04021 0.0
C1541 C 0.59285 0.76059 0.05989 0.0
C1542 C 0.61125 0.76566 0.05104 0.0
C1543 C 0.6147 0.77079 0.02203 0.0
C1544 C 0.5995 0.77113 0.00255 0.0
C1545 C 0.58126 0.76724 0.01157 0.0
C1546 C 0.5678 0.76541 0.98618 0.0
C1547 C 0.5576 0.74605 0.98609 0.0
C1548 C 0.55359 0.7817 0.98609 0.0
C1549 C 0.5815 0.7672 0.96129 0.0
C1550 C 0.59966 0.7711 0.97095 0.0
C1551 C 0.61506 0.7704 0.95207 0.0
C1552 C 0.61193 0.76472 0.92312 0.0
C1553 C 0.59359 0.75969 0.91366 0.0
C1554 C 0.5782 0.76184 0.93254 0.0
H1555 H 0.24041 0.61081 0.92721 0.0
H1556 H 0.18627 0.5856 0.90581 0.0
H1557 H 0.17669 0.58826 0.95749 0.0
H1558 H 0.24854 0.58658 0.98709 0.0
H1559 H 0.25986 0.60521 0.00767 0.0
H1560 H 0.26028 0.60581 0.96879 0.0
H1561 H 0.24507 0.63902 0.96924 0.0
H1562 H 0.24474 0.63862 0.00837 0.0
H1563 H 0.22324 0.64265 -0.01162 0.0
H1564 H 0.17601 0.58793 0.01315 0.0
H1565 H 0.18436 0.58461 0.06531 0.0
H1566 H 0.23906 0.60984 0.04858 0.0
C1567 C 0.22625 0.60652 0.93325 0.0
C1568 C 0.21402 0.5981 0.91273 0.0
C1569 C 0.19571 0.59237 0.92127 0.0
C1570 C 0.1902 0.59381 0.95056 0.0
C1571 C 0.20305 0.60139 0.97067 0.0
C1572 C 0.2206 0.60797 0.9621 0.0
C1573 C 0.23288 0.61326 -0.01224 0.0
C1574 C 0.25146 0.60203 -0.01218 0.0
C1575 C 0.2367 0.63466 -0.01153 0.0
C1576 C 0.2201 0.60739 0.01228 0.0
C1577 C 0.20273 0.60107 0.00228 0.0
C1578 C 0.18939 0.59329 0.02119 0.0
C1579 C 0.1942 0.59148 0.05076 0.0
C1580 C 0.21231 0.59705 0.06078 0.0
C1581 C 0.22506 0.60563 0.04143 0.0
H1582 H 0.38152 0.2467 0.04946 0.0
H1583 H 0.36817 0.18822 0.06902 0.0
H1584 H 0.36462 0.18162 0.01615 0.0
H1585 H 0.3488 0.25154 -0.01005 0.0
H1586 H 0.3645 0.26693 0.9702 0.0
H1587 H 0.36522 0.26661 0.00927 0.0
H1588 H 0.401 0.25909 0.0078 0.0
H1589 H 0.4004 0.25936 0.96878 0.0
H1590 H 0.40898 0.23883 0.98755 0.0
H1591 H 0.36375 0.18197 0.95946 0.0
H1592 H 0.36561 0.18918 0.90677 0.0
H1593 H 0.37944 0.24749 0.92766 0.0
C1594 C 0.37786 0.23243 0.04284 0.0
C1595 C 0.37528 0.21792 0.06338 0.0
C1596 C 0.37023 0.19955 0.05361 0.0
C1597 C 0.3682 0.19571 0.02367 0.0
C1598 C 0.37105 0.21045 0.00399 0.0
C1599 C 0.37566 0.22845 0.01343 0.0
C1600 C 0.3782 0.242 -0.01144 0.0
C1601 C 0.36329 0.25769 -0.01044 0.0
C1602 C 0.39834 0.25029 -0.01184 0.0
C1603 C 0.37479 0.22879 0.96334 0.0
C1604 C 0.37051 0.21066 0.97235 0.0
C1605 C 0.36703 0.19616 0.95231 0.0
C1606 C 0.3681 0.20037 0.92245 0.0
C1607 C 0.37277 0.21888 0.91307 0.0
C1608 C 0.37597 0.23316 0.93397 0.0
H1609 H 0.74279 0.40107 0.05474 0.0
H1610 H 0.75978 0.34376 0.07334 0.0
H1611 H 0.76475 0.33803 0.02071 0.0
H1612 H 0.71545 0.39166 -0.00178 0.0
H1613 H 0.72133 0.41208 0.9767 0.0
H1614 H 0.72384 0.41308 0.01542 0.0
H1615 H 0.75908 0.4226 0.01049 0.0
H1616 H 0.75663 0.42202 0.97153 0.0
H1617 H 0.77461 0.40818 -0.011 0.0
H1618 H 0.76205 0.33729 0.96522 0.0
H1619 H 0.7527 0.34183 0.9137 0.0
H1620 H 0.73667 0.39941 0.93329 0.0
C1621 C 0.74828 0.38755 0.04778 0.0
C1622 C 0.75103 0.37289 0.06786 0.0
C1623 C 0.75793 0.35526 0.05818 0.0
C1624 C 0.76071 0.3519 0.02835 0.0
C1625 C 0.75689 0.36646 0.00883 0.0
C1626 C 0.75119 0.38408 0.01836 0.0
C1627 C 0.74589 0.39677 -0.00658 0.0
C1628 C 0.72542 0.40378 -0.00388 0.0
C1629 C 0.75989 0.41338 -0.00904 0.0
C1630 C 0.74807 0.38318 0.96841 0.0
C1631 C 0.75497 0.36592 0.97739 0.0
C1632 C 0.75698 0.35086 0.95796 0.0
C1633 C 0.75162 0.35353 0.92881 0.0
C1634 C 0.7439 0.37093 0.91974 0.0
C1635 C 0.74248 0.38594 0.93973 0.0
H1636 H 0.56069 0.23151 0.04968 0.0
H1637 H 0.60412 0.19003 0.0664 0.0
H1638 H 0.60765 0.18509 0.0132 0.0
H1639 H 0.53956 0.2091 0.9861 0.0
H1640 H 0.53551 0.23154 0.96891 0.0
H1641 H 0.53537 0.22985 0.0079 0.0
H1642 H 0.56106 0.25611 0.01102 0.0
H1643 H 0.56139 0.25779 0.97211 0.0
H1644 H 0.58292 0.25313 -0.00832 0.0
H1645 H 0.6077 0.18719 0.9565 0.0
H1646 H 0.6041 0.19588 0.90449 0.0
H1647 H 0.56103 0.23626 0.92838 0.0
C1648 C 0.5708 0.22114 0.04237 0.0
C1649 C 0.58214 0.21116 0.06225 0.0
C1650 C 0.59518 0.19776 0.05156 0.0
C1651 C 0.5973 0.19491 0.02139 0.0
C1652 C 0.58617 0.20549 0.00238 0.0
C1653 C 0.5731 0.21823 0.01273 0.0
C1654 C 0.56355 0.22883 -0.01146 0.0
C1655 C 0.54224 0.22456 -0.01218 0.0
C1656 C 0.56747 0.25022 -0.00901 0.0
C1657 C 0.5734 0.22034 0.96274 0.0
C1658 C 0.58634 0.2068 0.97078 0.0
C1659 C 0.59748 0.19768 0.95009 0.0
C1660 C 0.59536 0.20269 0.92062 0.0
C1661 C 0.58234 0.2168 0.91231 0.0
C1662 C 0.57117 0.22545 0.93382 0.0
H1663 H 0.73013 0.55557 0.0546 0.0
H1664 H 0.75875 0.60857 0.07332 0.0
H1665 H 0.7668 0.61173 0.02109 0.0
H1666 H 0.76244 0.53973 -0.00445 0.0
H1667 H 0.74306 0.52925 0.97563 0.0
H1668 H 0.74248 0.53004 0.01473 0.0
H1669 H 0.71029 0.54721 0.01259 0.0
H1670 H 0.71083 0.54663 0.97363 0.0
H1671 H 0.70838 0.56888 -0.00763 0.0
H1672 H 0.76776 0.61066 0.96521 0.0
H1673 H 0.76177 0.6054 0.91267 0.0
H1674 H 0.73243 0.55311 0.93265 0.0
C1675 C 0.73847 0.56765 0.04786 0.0
C1676 C 0.74381 0.58184 0.06787 0.0
C1677 C 0.75468 0.59746 0.05827 0.0
C1678 C 0.75928 0.59935 0.02868 0.0
C1679 C 0.7532 0.58531 0.00929 0.0
C1680 C 0.74326 0.56963 0.01873 0.0
C1681 C 0.73699 0.55718 -0.00621 0.0
C1682 C 0.74683 0.53791 -0.005 0.0
C1683 C 0.71535 0.55486 -0.00694 0.0
C1684 C 0.74402 0.56873 0.96857 0.0
C1685 C 0.75369 0.58474 0.97772 0.0
C1686 C 0.76048 0.59801 0.9579 0.0
C1687 C 0.75703 0.59491 0.92812 0.0
C1688 C 0.74662 0.57886 0.91865 0.0
C1689 C 0.74043 0.56552 0.93921 0.0
H1690 H 0.3856 0.76871 0.92557 0.0
H1691 H 0.34709 0.72523 0.8948 0.0
H1692 H 0.33466 0.72131 0.94458 0.0
H1693 H 0.3984 0.74565 -0.01154 0.0
H1694 H 0.40047 0.76645 0.01099 0.0
H1695 H 0.40376 0.76825 0.97244 0.0
H1696 H 0.37773 0.79374 0.97001 0.0
H1697 H 0.37427 0.79188 0.00866 0.0
H1698 H 0.35459 0.78856 0.98421 0.0
H1699 H 0.32961 0.71899 -0.0025 0.0
H1700 H 0.33372 0.71672 0.05059 0.0
H1701 H 0.37553 0.76159 0.04834 0.0
C1702 C 0.37414 0.75882 0.92937 0.0
C1703 C 0.3669 0.74753 0.90658 0.0
C1704 C 0.35247 0.73418 0.91212 0.0
C1705 C 0.34532 0.73194 0.94023 0.0
C1706 C 0.35283 0.74315 0.96248 0.0
C1707 C 0.36698 0.75629 0.95744 0.0
C1708 C 0.37422 0.76478 0.98569 0.0
C1709 C 0.39547 0.76105 -0.01039 0.0
C1710 C 0.36994 0.786 0.98723 0.0
C1711 C 0.3625 0.75381 0.00745 0.0
C1712 C 0.34996 0.74171 -0.00651 0.0
C1713 C 0.33899 0.72872 0.00871 0.0
C1714 C 0.34135 0.72756 0.03883 0.0
C1715 C 0.3545 0.73937 0.05343 0.0
C1716 C 0.36481 0.75301 0.03771 0.0
H1717 H 0.22893 0.33897 0.92329 0.0
H1718 H 0.17868 0.37084 0.90342 0.0
H1719 H 0.16829 0.36775 0.95462 0.0
H1720 H 0.20678 0.30744 0.98149 0.0
H1721 H 0.22843 0.3082 0.00213 0.0
H1722 H 0.22912 0.30889 0.96302 0.0
H1723 H 0.24874 0.33994 0.96547 0.0
H1724 H 0.24808 0.33937 0.00431 0.0
H1725 H 0.23958 0.35986 0.98532 0.0
H1726 H 0.16747 0.36718 0.01001 0.0
H1727 H 0.17639 0.36918 0.06213 0.0
H1728 H 0.22675 0.33704 0.04445 0.0
C1729 C 0.21535 0.34461 0.92952 0.0
C1730 C 0.20451 0.355 0.90961 0.0
C1731 C 0.18699 0.36253 0.91838 0.0
C1732 C 0.18103 0.36084 0.94741 0.0
C1733 C 0.19255 0.35118 0.96699 0.0
C1734 C 0.20919 0.34285 0.95811 0.0
C1735 C 0.22037 0.33536 0.98348 0.0
C1736 C 0.22122 0.31368 0.98246 0.0
C1737 C 0.24034 0.34418 0.9847 0.0
C1738 C 0.20825 0.34203 0.00831 0.0
C1739 C 0.19196 0.35067 -0.00141 0.0
C1740 C 0.17986 0.35992 0.01784 0.0
C1741 C 0.18495 0.36093 0.04742 0.0
C1742 C 0.20209 0.353 0.05712 0.0
C1743 C 0.21337 0.34284 0.03752 0.0
H1744 H 0.17342 0.32348 0.19731 0.0
H1745 H 0.15995 0.37705 0.23827 0.0
H1746 H 0.13719 0.36079 0.27016 0.0
H1747 H 0.1262 0.30383 0.19864 0.0
H1748 H 0.13403 0.2802 0.20641 0.0
H1749 H 0.14904 0.29611 0.18642 0.0
H1750 H 0.17583 0.29115 0.22401 0.0
H1751 H 0.16089 0.27526 0.24415 0.0
H1752 H 0.17132 0.29555 0.26192 0.0
H1753 H 0.11604 0.33871 0.29791 0.0
H1754 H 0.0981 0.31236 0.31966 0.0
H1755 H 0.12555 0.27307 0.26106 0.0
C1756 C 0.16563 0.33183 0.21288 0.0
C1757 C 0.16848 0.35159 0.21521 0.0
C1758 C 0.15804 0.36193 0.23603 0.0
C1759 C 0.14506 0.35281 0.25426 0.0
C1760 C 0.14267 0.33334 0.25148 0.0
C1761 C 0.15266 0.32295 0.23133 0.0
C1762 C 0.1476 0.30214 0.23305 0.0
C1763 C 0.13868 0.29516 0.20443 0.0
C1764 C 0.16494 0.29033 0.24128 0.0
C1765 C 0.13325 0.30244 0.25736 0.0
C1766 C 0.13058 0.32059 0.26763 0.0
C1767 C 0.11801 0.32444 0.29004 0.0
C1768 C 0.10787 0.30936 0.30226 0.0
C1769 C 0.11039 0.29061 0.29213 0.0
C1770 C 0.1233 0.2872 0.26937 0.0
H1771 H 0.63056 0.17275 0.19907 0.0
H1772 H 0.57749 0.14208 0.20657 0.0
H1773 H 0.59337 0.11767 0.23568 0.0
H1774 H 0.66037 0.13155 0.1927 0.0
H1775 H 0.67936 0.14189 0.21366 0.0
H1776 H 0.66389 0.1568 0.19296 0.0
H1777 H 0.65617 0.17592 0.23947 0.0
H1778 H 0.67156 0.16102 0.26033 0.0
H1779 H 0.64727 0.16374 0.27093 0.0
H1780 H 0.61481 0.09691 0.2649 0.0
H1781 H 0.64049 0.08087 0.29117 0.0
H1782 H 0.67966 0.12494 0.26456 0.0
C1783 C 0.62228 0.16085 0.20668 0.0
C1784 C 0.60275 0.15935 0.20046 0.0
C1785 C 0.59246 0.14356 0.21094 0.0
C1786 C 0.60135 0.12961 0.22755 0.0
C1787 C 0.62056 0.13161 0.23346 0.0
C1788 C 0.63093 0.14677 0.22325 0.0
C1789 C 0.65138 0.14558 0.23282 0.0
C1790 C 0.66452 0.14385 0.20646 0.0
C1791 C 0.65691 0.16257 0.25203 0.0
C1792 C 0.65085 0.12743 0.25015 0.0
C1793 C 0.63293 0.1196 0.25023 0.0
C1794 C 0.62891 0.10288 0.26492 0.0
C1795 C 0.64361 0.09388 0.27981 0.0
C1796 C 0.66212 0.1016 0.27995 0.0
C1797 C 0.66569 0.11864 0.2649 0.0
H1798 H 0.77513 0.62876 0.20882 0.0
H1799 H 0.80792 0.57718 0.21002 0.0
H1800 H 0.83275 0.59348 0.23857 0.0
H1801 H 0.81433 0.66075 0.20103 0.0
H1802 H 0.80433 0.67866 0.22412 0.0
H1803 H 0.78907 0.66285 0.20406 0.0
H1804 H 0.77262 0.65295 0.25186 0.0
H1805 H 0.78787 0.66869 0.27209 0.0
H1806 H 0.78663 0.64402 0.28146 0.0
H1807 H 0.85406 0.61544 0.26699 0.0
H1808 H 0.87056 0.64161 0.2923 0.0
H1809 H 0.82387 0.67884 0.27236 0.0
C1810 C 0.78752 0.62087 0.21506 0.0
C1811 C 0.78956 0.60166 0.20715 0.0
C1812 C 0.80603 0.59189 0.21577 0.0
C1813 C 0.82021 0.60102 0.23204 0.0
C1814 C 0.81772 0.61993 0.23952 0.0
C1815 C 0.80182 0.62976 0.23127 0.0
C1816 C 0.80268 0.65004 0.24189 0.0
C1817 C 0.8026 0.66389 0.21624 0.0
C1818 C 0.78649 0.65416 0.26308 0.0
C1819 C 0.82159 0.6501 0.25732 0.0
C1820 C 0.83002 0.63258 0.25578 0.0
C1821 C 0.84759 0.62922 0.26833 0.0
C1822 C 0.85685 0.64418 0.28268 0.0
C1823 C 0.84855 0.6623 0.28434 0.0
C1824 C 0.83063 0.66518 0.27153 0.0
H1825 H 0.32507 0.78322 0.18856 0.0
H1826 H 0.37724 0.78947 0.23746 0.0
H1827 H 0.36243 0.81376 0.26822 0.0
H1828 H 0.31079 0.83287 0.19152 0.0
H1829 H 0.28615 0.82715 0.19606 0.0
H1830 H 0.30125 0.81131 0.17631 0.0
H1831 H 0.29162 0.78396 0.21056 0.0
H1832 H 0.27653 0.79971 0.23041 0.0
H1833 H 0.29466 0.78681 0.2492 0.0
H1834 H 0.34177 0.83637 0.29496 0.0
H1835 H 0.31626 0.85503 0.31701 0.0
H1836 H 0.2771 0.83362 0.25179 0.0
C1837 C 0.33346 0.78993 0.20544 0.0
C1838 C 0.35237 0.78455 0.21047 0.0
C1839 C 0.36275 0.79339 0.23316 0.0
C1840 C 0.35448 0.80724 0.25071 0.0
C1841 C 0.33577 0.81207 0.24542 0.0
C1842 C 0.32534 0.80367 0.22341 0.0
C1843 C 0.30516 0.81067 0.22348 0.0
C1844 C 0.30057 0.82112 0.19516 0.0
C1845 C 0.29117 0.79432 0.22873 0.0
C1846 C 0.30585 0.82415 0.24913 0.0
C1847 C 0.3237 0.82487 0.26129 0.0
C1848 C 0.32775 0.836 0.28556 0.0
C1849 C 0.31315 0.84657 0.29793 0.0
C1850 C 0.29466 0.84584 0.28617 0.0
C1851 C 0.29108 0.83456 0.26127 0.0
H1852 H 0.15231 0.62457 0.81055 0.0
H1853 H 0.18919 0.6058 0.74128 0.0
H1854 H 0.1692 0.62217 0.70552 0.0
H1855 H 0.10778 0.62155 0.76834 0.0
H1856 H 0.09835 0.64242 0.78528 0.0
H1857 H 0.1144 0.62756 0.80507 0.0
H1858 H 0.13635 0.65639 0.81457 0.0
H1859 H 0.12044 0.6713 0.79478 0.0
H1860 H 0.14487 0.67 0.78426 0.0
H1861 H 0.14669 0.64247 0.67776 0.0
H1862 H 0.12367 0.66577 0.66012 0.0
H1863 H 0.10161 0.6717 0.74749 0.0
C1864 C 0.15602 0.62361 0.78781 0.0
C1865 C 0.17231 0.61384 0.77874 0.0
C1866 C 0.17677 0.61315 0.74879 0.0
C1867 C 0.16546 0.62236 0.72827 0.0
C1868 C 0.14969 0.63212 0.73801 0.0
C1869 C 0.14491 0.63276 0.76705 0.0
C1870 C 0.12788 0.64518 0.77199 0.0
C1871 C 0.11111 0.63348 0.78334 0.0
C1872 C 0.13268 0.6617 0.79261 0.0
C1873 C 0.12426 0.65198 0.74135 0.0
C1874 C 0.1368 0.64403 0.72201 0.0
C1875 C 0.13667 0.64865 0.69265 0.0
C1876 C 0.12354 0.66193 0.68285 0.0
C1877 C 0.11081 0.67059 0.7024 0.0
C1878 C 0.11108 0.66529 0.73196 0.0
H1879 H 0.29157 0.14123 0.67794 0.0
H1880 H 0.28187 0.0897 0.72669 0.0
H1881 H 0.30408 0.10088 0.76446 0.0
H1882 H 0.342 0.1462 0.69638 0.0
H1883 H 0.34066 0.17158 0.69867 0.0
H1884 H 0.32522 0.15875 0.67433 0.0
H1885 H 0.29619 0.17422 0.69865 0.0
H1886 H 0.31151 0.187 0.72312 0.0
H1887 H 0.29305 0.17205 0.73732 0.0
H1888 H 0.32564 0.11872 0.79871 0.0
H1889 H 0.34506 0.14182 0.82631 0.0
H1890 H 0.34052 0.1814 0.75489 0.0
C1891 C 0.2943 0.13216 0.69634 0.0
C1892 C 0.28498 0.1146 0.69931 0.0
C1893 C 0.28888 0.10322 0.72386 0.0
C1894 C 0.3015 0.10942 0.74545 0.0
C1895 C 0.31021 0.12695 0.74207 0.0
C1896 C 0.30689 0.1381 0.71804 0.0
C1897 C 0.31743 0.15671 0.72019 0.0
C1898 C 0.3322 0.1584 0.69595 0.0
C1899 C 0.30372 0.17348 0.71981 0.0
C1900 C 0.32673 0.15453 0.74958 0.0
C1901 C 0.32259 0.1372 0.76175 0.0
C1902 C 0.32914 0.13228 0.78927 0.0
C1903 C 0.34013 0.14548 0.8048 0.0
C1904 C 0.34432 0.16341 0.79279 0.0
C1905 C 0.33762 0.16782 0.7647 0.0
H1906 H 0.83388 0.30772 0.66461 0.0
H1907 H 0.84321 0.26231 0.72607 0.0
H1908 H 0.82354 0.27875 0.76198 0.0
H1909 H 0.83408 0.34611 0.71877 0.0
H1910 H 0.81589 0.35906 0.7002 0.0
H1911 H 0.8318 0.34436 0.67986 0.0
H1912 H 0.80327 0.32625 0.65759 0.0
H1913 H 0.78729 0.34081 0.67793 0.0
H1914 H 0.78615 0.31547 0.68131 0.0
H1915 H 0.80156 0.29895 0.79022 0.0
H1916 H 0.7788 0.32198 0.80931 0.0
H1917 H 0.78357 0.35442 0.72978 0.0
C1918 C 0.83198 0.30135 0.68573 0.0
C1919 C 0.84012 0.28373 0.69248 0.0
C1920 C 0.83718 0.27582 0.72036 0.0
C1921 C 0.82603 0.28504 0.74095 0.0
C1922 C 0.81801 0.30224 0.73347 0.0
C1923 C 0.82091 0.3104 0.70664 0.0
C1924 C 0.81015 0.32873 0.70389 0.0
C1925 C 0.8238 0.34556 0.70048 0.0
C1926 C 0.79587 0.32774 0.67869 0.0
C1927 C 0.80034 0.32927 0.73303 0.0
C1928 C 0.80524 0.31395 0.74985 0.0
C1929 C 0.79771 0.3111 0.77737 0.0
C1930 C 0.78478 0.32427 0.788 0.0
C1931 C 0.7794 0.34003 0.77107 0.0
C1932 C 0.78741 0.34256 0.74328 0.0
H1933 H 0.67148 0.82588 0.70416 0.0
H1934 H 0.63116 0.86929 0.68129 0.0
H1935 H 0.60589 0.85108 0.70548 0.0
H1936 H 0.6399 0.78584 0.69414 0.0
H1937 H 0.64939 0.77303 0.72453 0.0
H1938 H 0.66421 0.78925 0.70478 0.0
H1939 H 0.67198 0.80723 0.75251 0.0
H1940 H 0.65722 0.79106 0.77241 0.0
H1941 H 0.65298 0.8161 0.7745 0.0
H1942 H 0.58515 0.82856 0.73373 0.0
H1943 H 0.57063 0.80346 0.76357 0.0
H1944 H 0.62443 0.7746 0.76737 0.0
C1945 C 0.65733 0.83154 0.70407 0.0
C1946 C 0.65334 0.84906 0.69075 0.0
C1947 C 0.6346 0.85593 0.69129 0.0
C1948 C 0.62013 0.84567 0.70497 0.0
C1949 C 0.62457 0.82851 0.71798 0.0
C1950 C 0.64271 0.82148 0.71759 0.0
C1951 C 0.64384 0.80286 0.73362 0.0
C1952 C 0.64968 0.7868 0.71303 0.0
C1953 C 0.6573 0.80442 0.75981 0.0
C1954 C 0.62352 0.80056 0.74324 0.0
C1955 C 0.61263 0.8155 0.73399 0.0
C1956 C 0.59354 0.81674 0.74094 0.0
C1957 C 0.58541 0.80241 0.75793 0.0
C1958 C 0.59633 0.78699 0.76775 0.0
C1959 C 0.61562 0.78608 0.76003 0.0
H1960 H 0.82764 0.65092 0.65659 0.0
H1961 H 0.85387 0.68393 0.72566 0.0
H1962 H 0.83901 0.66334 0.76201 0.0
H1963 H 0.78428 0.64452 0.68957 0.0
H1964 H 0.78049 0.62053 0.67749 0.0
H1965 H 0.79509 0.63623 0.65655 0.0
H1966 H 0.82272 0.61253 0.65955 0.0
H1967 H 0.80815 0.59667 0.68044 0.0
H1968 H 0.83068 0.60445 0.69454 0.0
H1969 H 0.81906 0.6416 0.79089 0.0
H1970 H 0.79512 0.61981 0.8106 0.0
H1971 H 0.78164 0.60062 0.72322 0.0
C1972 C 0.83055 0.65358 0.67933 0.0
C1973 C 0.84192 0.66904 0.68823 0.0
C1974 C 0.84522 0.67217 0.71825 0.0
C1975 C 0.83691 0.66051 0.73912 0.0
C1976 C 0.82547 0.64565 0.72967 0.0
C1977 C 0.82237 0.64202 0.70053 0.0
C1978 C 0.80847 0.62586 0.69636 0.0
C1979 C 0.79105 0.63217 0.67897 0.0
C1980 C 0.81808 0.60887 0.68187 0.0
C1981 C 0.80357 0.62164 0.72767 0.0
C1982 C 0.81382 0.63299 0.74651 0.0
C1983 C 0.81113 0.63242 0.77641 0.0
C1984 C 0.79745 0.62003 0.78739 0.0
C1985 C 0.78651 0.60849 0.76848 0.0
C1986 C 0.78986 0.60915 0.73826 0.0
H1987 H 0.3191 0.7952 0.7933 0.0
H1988 H 0.36196 0.77305 0.73552 0.0
H1989 H 0.34866 0.7917 0.69526 0.0
H1990 H 0.2813 0.79455 0.74239 0.0
H1991 H 0.27103 0.81624 0.75524 0.0
H1992 H 0.28437 0.80171 0.77973 0.0
H1993 H 0.3062 0.8302 0.79197 0.0
H1994 H 0.29295 0.84482 0.76744 0.0
H1995 H 0.31809 0.8425 0.76303 0.0
H1996 H 0.33013 0.812 0.66095 0.0
H1997 H 0.3074 0.8321 0.6349 0.0
H1998 H 0.27678 0.84107 0.71522 0.0
C1999 C 0.32576 0.7943 0.77223 0.0
C2000 C 0.34159 0.78265 0.76759 0.0
C2001 C 0.34985 0.78189 0.73964 0.0
C2002 C 0.34241 0.79245 0.71663 0.0
C2003 C 0.32679 0.80377 0.72195 0.0
C2004 C 0.31856 0.80478 0.74906 0.0
C2005 C 0.30164 0.81772 0.74889 0.0
C2006 C 0.28352 0.8069 0.75704 0.0
C2007 C 0.30492 0.83483 0.76902 0.0
C2008 C 0.30143 0.82358 0.71732 0.0
C2009 C 0.31613 0.81548 0.7022 0.0
C2010 C 0.31861 0.81849 0.67259 0.0
C2011 C 0.30563 0.82994 0.65799 0.0
C2012 C 0.29031 0.8382 0.67299 0.0
C2013 C 0.28837 0.83506 0.70312 0.0
H2014 H 0.1281 0.28196 0.69234 0.0
H2015 H 0.07412 0.30889 0.7073 0.0
H2016 H 0.09005 0.33376 0.73619 0.0
H2017 H 0.14743 0.29022 0.76233 0.0
H2018 H 0.17105 0.29485 0.74966 0.0
H2019 H 0.15554 0.27963 0.72902 0.0
H2020 H 0.16035 0.30063 0.68365 0.0
H2021 H 0.17592 0.31591 0.70416 0.0
H2022 H 0.15562 0.32558 0.68598 0.0
H2023 H 0.11161 0.35484 0.76553 0.0
H2024 H 0.13738 0.37099 0.79225 0.0
H2025 H 0.17738 0.33065 0.75753 0.0
C2026 C 0.11963 0.29316 0.70147 0.0
C2027 C 0.09983 0.29345 0.6975 0.0
C2028 C 0.0893 0.30837 0.70991 0.0
C2029 C 0.09822 0.32257 0.7264 0.0
C2030 C 0.11772 0.32177 0.73011 0.0
C2031 C 0.12832 0.30752 0.71786 0.0
C2032 C 0.14903 0.30977 0.72557 0.0
C2033 C 0.15617 0.2926 0.74266 0.0
C2034 C 0.16093 0.31318 0.69821 0.0
C2035 C 0.14835 0.3273 0.7445 0.0
C2036 C 0.13017 0.33404 0.74676 0.0
C2037 C 0.12594 0.34978 0.76374 0.0
C2038 C 0.14068 0.35885 0.77887 0.0
C2039 C 0.15943 0.35216 0.77694 0.0
C2040 C 0.16324 0.33623 0.75933 0.0
H2041 H 0.66616 0.09747 0.74472 0.0
H2042 H 0.6746 0.12881 0.66488 0.0
H2043 H 0.65417 0.15414 0.68336 0.0
H2044 H 0.61648 0.11092 0.75431 0.0
H2045 H 0.61855 0.11241 0.79325 0.0
H2046 H 0.6331 0.09619 0.77321 0.0
H2047 H 0.66304 0.11135 0.79618 0.0
H2048 H 0.64861 0.12767 0.81615 0.0
H2049 H 0.66699 0.13644 0.79272 0.0
H2050 H 0.63466 0.17691 0.71134 0.0
H2051 H 0.61596 0.19525 0.74628 0.0
H2052 H 0.61936 0.14912 0.80796 0.0
C2053 C 0.66355 0.10957 0.731 0.0
C2054 C 0.67201 0.11113 0.70332 0.0
C2055 C 0.66823 0.12721 0.68608 0.0
C2056 C 0.65667 0.14172 0.6964 0.0
C2057 C 0.64878 0.13986 0.72389 0.0
C2058 C 0.65188 0.12413 0.74087 0.0
C2059 C 0.64185 0.12585 0.76979 0.0
C2060 C 0.62659 0.11043 0.77281 0.0
C2061 C 0.65597 0.1253 0.79521 0.0
C2062 C 0.6331 0.14522 0.76671 0.0
C2063 C 0.63722 0.15298 0.73997 0.0
C2064 C 0.63118 0.17093 0.73224 0.0
C2065 C 0.62059 0.18126 0.75233 0.0
C2066 C 0.61611 0.17364 0.77991 0.0
C2067 C 0.62244 0.15532 0.78705 0.0
H2068 H 0.78384 0.32968 0.2017 0.0
H2069 H 0.80822 0.38392 0.22631 0.0
H2070 H 0.83265 0.36757 0.25494 0.0
H2071 H 0.79074 0.30672 0.2695 0.0
H2072 H 0.79654 0.2842 0.2536 0.0
H2073 H 0.78128 0.30016 0.23447 0.0
H2074 H 0.80351 0.29911 0.18994 0.0
H2075 H 0.81884 0.28312 0.20893 0.0
H2076 H 0.82816 0.3049 0.19454 0.0
H2077 H 0.85394 0.34532 0.28186 0.0
H2078 H 0.87075 0.31879 0.30472 0.0
H2079 H 0.83253 0.27914 0.26214 0.0
C2080 C 0.79434 0.33815 0.21301 0.0
C2081 C 0.79411 0.3581 0.21175 0.0
C2082 C 0.80813 0.36862 0.22688 0.0
C2083 C 0.82206 0.35947 0.24322 0.0
C2084 C 0.82183 0.3398 0.24408 0.0
C2085 C 0.80838 0.32926 0.2293 0.0
C2086 C 0.81119 0.30829 0.23393 0.0
C2087 C 0.79391 0.29932 0.24876 0.0
C2088 C 0.8157 0.29827 0.20512 0.0
C2089 C 0.82817 0.30869 0.25395 0.0
C2090 C 0.83414 0.32699 0.25946 0.0
C2091 C 0.84944 0.33092 0.27761 0.0
C2092 C 0.8589 0.31575 0.2905 0.0
C2093 C 0.85299 0.29687 0.28522 0.0
C2094 C 0.83744 0.29339 0.2666 0.0
H2095 H 0.62647 0.78646 0.19907 0.0
H2096 H 0.57463 0.79213 0.24822 0.0
H2097 H 0.59034 0.81532 0.28059 0.0
H2098 H 0.65768 0.78863 0.25987 0.0
H2099 H 0.67574 0.80181 0.24114 0.0
H2100 H 0.66017 0.7863 0.22109 0.0
H2101 H 0.6505 0.81408 0.18788 0.0
H2102 H 0.66605 0.82969 0.20782 0.0
H2103 H 0.64142 0.83542 0.20393 0.0
H2104 H 0.61188 0.83752 0.30813 0.0
H2105 H 0.63785 0.8565 0.32948 0.0
H2106 H 0.6757 0.83585 0.26275 0.0
C2107 C 0.61836 0.79268 0.21649 0.0
C2108 C 0.59928 0.78752 0.22103 0.0
C2109 C 0.58925 0.79586 0.24428 0.0
C2110 C 0.59803 0.80908 0.26276 0.0
C2111 C 0.61687 0.81376 0.25776 0.0
C2112 C 0.62693 0.80579 0.23524 0.0
C2113 C 0.64718 0.81281 0.2351 0.0
C2114 C 0.661 0.79641 0.23958 0.0
C2115 C 0.65154 0.82365 0.20701 0.0
C2116 C 0.64696 0.82591 0.26115 0.0
C2117 C 0.62933 0.82635 0.27384 0.0
C2118 C 0.62574 0.83732 0.29836 0.0
C2119 C 0.64059 0.84806 0.31032 0.0
C2120 C 0.65883 0.84768 0.29783 0.0
C2121 C 0.66194 0.83648 0.27284 0.0
H2122 H 0.14 0.66524 0.29344 0.0
H2123 H 0.08513 0.66293 0.25123 0.0
H2124 H 0.09706 0.63907 0.21686 0.0
H2125 H 0.16718 0.66243 0.23062 0.0
H2126 H 0.18528 0.64774 0.24603 0.0
H2127 H 0.17196 0.66325 0.26907 0.0
H2128 H 0.16215 0.63488 0.3012 0.0
H2129 H 0.17554 0.61925 0.27831 0.0
H2130 H 0.15086 0.61459 0.2847 0.0
H2131 H 0.11567 0.61739 0.18463 0.0
H2132 H 0.13948 0.59916 0.15753 0.0
H2133 H 0.18204 0.61555 0.22103 0.0
C2134 C 0.13039 0.6595 0.27729 0.0
C2135 C 0.11162 0.66595 0.27509 0.0
C2136 C 0.09955 0.65817 0.25346 0.0
C2137 C 0.10618 0.64459 0.23381 0.0
C2138 C 0.12486 0.6388 0.23625 0.0
C2139 C 0.13675 0.64589 0.25758 0.0
C2140 C 0.15644 0.63795 0.25471 0.0
C2141 C 0.17107 0.65379 0.2498 0.0
C2142 C 0.16154 0.62595 0.28131 0.0
C2143 C 0.15392 0.62576 0.22788 0.0
C2144 C 0.13556 0.62627 0.21772 0.0
C2145 C 0.13004 0.6167 0.19256 0.0
C2146 C 0.14367 0.6064 0.1773 0.0
C2147 C 0.16262 0.60586 0.18717 0.0
C2148 C 0.16767 0.61556 0.21298 0.0
H2149 H 0.29338 0.09303 0.23333 0.0
H2150 H 0.2741 0.13114 0.30104 0.0
H2151 H 0.29554 0.15584 0.28305 0.0
H2152 H 0.34291 0.10946 0.23447 0.0
H2153 H 0.34558 0.10716 0.19573 0.0
H2154 H 0.32951 0.09181 0.21483 0.0
H2155 H 0.30228 0.10221 0.18092 0.0
H2156 H 0.31824 0.11762 0.16179 0.0
H2157 H 0.297 0.12699 0.17753 0.0
H2158 H 0.31738 0.17695 0.25689 0.0
H2159 H 0.33895 0.19352 0.22391 0.0
H2160 H 0.3448 0.14226 0.17255 0.0
C2161 C 0.29381 0.1065 0.24453 0.0
C2162 C 0.28201 0.11009 0.26863 0.0
C2163 C 0.28298 0.12797 0.2826 0.0
C2164 C 0.29514 0.14213 0.27257 0.0
C2165 C 0.3064 0.13822 0.24866 0.0
C2166 C 0.30599 0.12087 0.23485 0.0
C2167 C 0.3193 0.1207 0.20909 0.0
C2168 C 0.33527 0.10643 0.21382 0.0
C2169 C 0.30856 0.11664 0.18065 0.0
C2170 C 0.32676 0.14085 0.21014 0.0
C2171 C 0.31922 0.15057 0.23337 0.0
C2172 C 0.3235 0.16947 0.23872 0.0
C2173 C 0.33578 0.17876 0.21976 0.0
C2174 C 0.34363 0.16922 0.19556 0.0
C2175 C 0.33911 0.14994 0.19087 0.0
loop_
_geom_bond_atom_site_label_1
_geom_bond_atom_site_label_2
_geom_bond_distance
_geom_bond_site_symmetry_2
_ccdc_geom_bond_type
Zn0 O3 2.031 . S
Zn0 O5 2.049 . S
Zn0 O10 2.067 . S
Zn1 O2 1.962 . S
Zn1 O4 1.986 . S
Zn1 O6 1.996 . S
Zn1 O9 1.943 . S
O2 Zn1 1.962 . S
O2 C7 1.254 . S
O3 Zn0 2.031 . S
O3 C7 1.269 . S
O4 Zn1 1.986 . S
O4 C11 1.262 . S
O5 Zn0 2.049 . S
O5 C13 1.260 . S
O6 Zn1 1.996 . S
O6 C13 1.257 . S
C7 O2 1.254 . S
C7 O3 1.269 . S
C8 O9 1.249 . S
C8 O10 1.270 . S
O9 Zn1 1.943 . S
O9 C8 1.249 . S
O10 Zn0 2.067 . S
O10 C8 1.270 . S
C11 O4 1.262 . S
C11 O12 1.232 . S
O12 C11 1.232 . S
C13 O5 1.260 . S
C13 O6 1.257 . S
Zn14 O17 2.031 . S
Zn14 O19 2.049 . S
Zn14 O24 2.067 . S
Zn15 O16 1.962 . S
Zn15 O18 1.986 . S
Zn15 O20 1.996 . S
Zn15 O23 1.943 . S
O16 Zn15 1.962 . S
O16 C21 1.254 . S
O17 Zn14 2.031 . S
O17 C21 1.269 . S
O18 Zn15 1.986 . S
O18 C25 1.262 . S
O19 Zn14 2.049 . S
O19 C27 1.260 . S
O20 Zn15 1.996 . S
O20 C27 1.257 . S
C21 O16 1.254 . S
C21 O17 1.269 . S
C22 O23 1.249 . S
C22 O24 1.270 . S
O23 Zn15 1.943 . S
O23 C22 1.249 . S
O24 Zn14 2.067 . S
O24 C22 1.270 . S
C25 O18 1.262 . S
C25 O26 1.232 . S
O26 C25 1.232 . S
C27 O19 1.260 . S
C27 O20 1.257 . S
Zn28 O31 2.031 . S
Zn28 O33 2.049 . S
Zn28 O38 2.067 . S
Zn29 O30 1.962 . S
Zn29 O32 1.986 . S
Zn29 O34 1.996 . S
Zn29 O37 1.943 . S
O30 Zn29 1.962 . S
O30 C35 1.254 . S
O31 Zn28 2.031 . S
O31 C35 1.269 . S
O32 Zn29 1.986 . S
O32 C39 1.262 . S
O33 Zn28 2.049 . S
O33 C41 1.260 . S
O34 Zn29 1.996 . S
O34 C41 1.257 . S
C35 O30 1.254 . S
C35 O31 1.269 . S
C36 O37 1.249 . S
C36 O38 1.270 . S
O37 Zn29 1.943 . S
O37 C36 1.249 . S
O38 Zn28 2.067 . S
O38 C36 1.270 . S
C39 O32 1.262 . S
C39 O40 1.232 . S
O40 C39 1.232 . S
C41 O33 1.260 . S
C41 O34 1.257 . S
Zn42 O45 2.031 . S
Zn42 O47 2.049 . S
Zn42 O52 2.067 . S
Zn43 O44 1.962 . S
Zn43 O46 1.986 . S
Zn43 O48 1.996 . S
Zn43 O51 1.943 . S
O44 Zn43 1.962 . S
O44 C49 1.254 . S
O45 Zn42 2.031 . S
O45 C49 1.269 . S
O46 Zn43 1.986 . S
O46 C53 1.262 . S
O47 Zn42 2.049 . S
O47 C55 1.260 . S
O48 Zn43 1.996 . S
O48 C55 1.257 . S
C49 O44 1.254 . S
C49 O45 1.269 . S
C50 O51 1.249 . S
C50 O52 1.270 . S
O51 Zn43 1.943 . S
O51 C50 1.249 . S
O52 Zn42 2.067 . S
O52 C50 1.270 . S
C53 O46 1.262 . S
C53 O54 1.232 . S
O54 C53 1.232 . S
C55 O47 1.260 . S
C55 O48 1.257 . S
Zn56 O59 2.031 . S
Zn56 O61 2.049 . S
Zn56 O66 2.067 . S
Zn57 O58 1.962 . S
Zn57 O60 1.986 . S
Zn57 O62 1.996 . S
Zn57 O65 1.943 . S
O58 Zn57 1.962 . S
O58 C63 1.254 . S
O59 Zn56 2.031 . S
O59 C63 1.269 . S
O60 Zn57 1.986 . S
O60 C67 1.262 . S
O61 Zn56 2.049 . S
O61 C69 1.260 . S
O62 Zn57 1.996 . S
O62 C69 1.257 . S
C63 O58 1.254 . S
C63 O59 1.269 . S
C64 O65 1.249 . S
C64 O66 1.270 . S
O65 Zn57 1.943 . S
O65 C64 1.249 . S
O66 Zn56 2.067 . S
O66 C64 1.270 . S
C67 O60 1.262 . S
C67 O68 1.232 . S
O68 C67 1.232 . S
C69 O61 1.260 . S
C69 O62 1.257 . S
Zn70 O73 2.031 . S
Zn70 O75 2.049 . S
Zn70 O80 2.067 . S
Zn71 O72 1.962 . S
Zn71 O74 1.986 . S
Zn71 O76 1.996 . S
Zn71 O79 1.943 . S
O72 Zn71 1.962 . S
O72 C77 1.254 . S
O73 Zn70 2.031 . S
O73 C77 1.269 . S
O74 Zn71 1.986 . S
O74 C81 1.262 . S
O75 Zn70 2.049 . S
O75 C83 1.260 . S
O76 Zn71 1.996 . S
O76 C83 1.257 . S
C77 O72 1.254 . S
C77 O73 1.269 . S
C78 O79 1.249 . S
C78 O80 1.270 . S
O79 Zn71 1.943 . S
O79 C78 1.249 . S
O80 Zn70 2.067 . S
O80 C78 1.270 . S
C81 O74 1.262 . S
C81 O82 1.232 . S
O82 C81 1.232 . S
C83 O75 1.260 . S
C83 O76 1.257 . S
Zn84 O87 2.031 . S
Zn84 O89 2.049 . S
Zn84 O94 2.067 . S
Zn85 O86 1.962 . S
Zn85 O88 1.986 . S
Zn85 O90 1.996 . S
Zn85 O93 1.943 . S
O86 Zn85 1.962 . S
O86 C91 1.254 . S
O87 Zn84 2.031 . S
O87 C91 1.269 . S
O88 Zn85 1.986 . S
O88 C95 1.262 . S
O89 Zn84 2.049 . S
O89 C97 1.260 . S
O90 Zn85 1.996 . S
O90 C97 1.257 . S
C91 O86 1.254 . S
C91 O87 1.269 . S
C92 O93 1.249 . S
C92 O94 1.270 . S
O93 Zn85 1.943 . S
O93 C92 1.249 . S
O94 Zn84 2.067 . S
O94 C92 1.270 . S
C95 O88 1.262 . S
C95 O96 1.232 . S
O96 C95 1.232 . S
C97 O89 1.260 . S
C97 O90 1.257 . S
Zn98 O101 2.031 . S
Zn98 O103 2.049 . S
Zn98 O108 2.067 . S
Zn99 O100 1.962 . S
Zn99 O102 1.986 . S
Zn99 O104 1.996 . S
Zn99 O107 1.943 . S
O100 Zn99 1.962 . S
O100 C105 1.254 . S
O101 Zn98 2.031 . S
O101 C105 1.269 . S
O102 Zn99 1.986 . S
O102 C109 1.262 . S
O103 Zn98 2.049 . S
O103 C111 1.260 . S
O104 Zn99 1.996 . S
O104 C111 1.257 . S
C105 O100 1.254 . S
C105 O101 1.269 . S
C106 O107 1.249 . S
C106 O108 1.270 . S
O107 Zn99 1.943 . S
O107 C106 1.249 . S
O108 Zn98 2.067 . S
O108 C106 1.270 . S
C109 O102 1.262 . S
C109 O110 1.232 . S
O110 C109 1.232 . S
C111 O103 1.260 . S
C111 O104 1.257 . S
Zn112 O115 2.031 . S
Zn112 O117 2.049 . S
Zn112 O122 2.067 . S
Zn113 O114 1.962 . S
Zn113 O116 1.986 . S
Zn113 O118 1.996 . S
Zn113 O121 1.943 . S
O114 Zn113 1.962 . S
O114 C119 1.254 . S
O115 Zn112 2.031 . S
O115 C119 1.269 . S
O116 Zn113 1.986 . S
O116 C123 1.262 . S
O117 Zn112 2.049 . S
O117 C125 1.260 . S
O118 Zn113 1.996 . S
O118 C125 1.257 . S
C119 O114 1.254 . S
C119 O115 1.269 . S
C120 O121 1.249 . S
C120 O122 1.270 . S
O121 Zn113 1.943 . S
O121 C120 1.249 . S
O122 Zn112 2.067 . S
O122 C120 1.270 . S
C123 O116 1.262 . S
C123 O124 1.232 . S
O124 C123 1.232 . S
C125 O117 1.260 . S
C125 O118 1.257 . S
Zn126 O129 2.031 . S
Zn126 O131 2.049 . S
Zn126 O136 2.067 . S
Zn127 O128 1.962 . S
Zn127 O130 1.986 . S
Zn127 O132 1.996 . S
Zn127 O135 1.943 . S
O128 Zn127 1.962 . S
O128 C133 1.254 . S
O129 Zn126 2.031 . S
O129 C133 1.269 . S
O130 Zn127 1.986 . S
O130 C137 1.262 . S
O131 Zn126 2.049 . S
O131 C139 1.260 . S
O132 Zn127 1.996 . S
O132 C139 1.257 . S
C133 O128 1.254 . S
C133 O129 1.269 . S
C134 O135 1.249 . S
C134 O136 1.270 . S
O135 Zn127 1.943 . S
O135 C134 1.249 . S
O136 Zn126 2.067 . S
O136 C134 1.270 . S
C137 O130 1.262 . S
C137 O138 1.232 . S
O138 C137 1.232 . S
C139 O131 1.260 . S
C139 O132 1.257 . S
Zn140 O143 2.031 . S
Zn140 O145 2.049 . S
Zn140 O150 2.067 . S
Zn141 O142 1.962 . S
Zn141 O144 1.986 . S
Zn141 O146 1.996 . S
Zn141 O149 1.943 . S
O142 Zn141 1.962 . S
O142 C147 1.254 . S
O143 Zn140 2.031 . S
O143 C147 1.269 . S
O144 Zn141 1.986 . S
O144 C151 1.262 . S
O145 Zn140 2.049 . S
O145 C153 1.260 . S
O146 Zn141 1.996 . S
O146 C153 1.257 . S
C147 O142 1.254 . S
C147 O143 1.269 . S
C148 O149 1.249 . S
C148 O150 1.270 . S
O149 Zn141 1.943 . S
O149 C148 1.249 . S
O150 Zn140 2.067 . S
O150 C148 1.270 . S
C151 O144 1.262 . S
C151 O152 1.232 . S
O152 C151 1.232 . S
C153 O145 1.260 . S
C153 O146 1.257 . S
Zn154 O157 2.031 . S
Zn154 O159 2.049 . S
Zn154 O164 2.067 . S
Zn155 O156 1.962 . S
Zn155 O158 1.986 . S
Zn155 O160 1.996 . S
Zn155 O163 1.943 . S
O156 Zn155 1.962 . S
O156 C161 1.254 . S
O157 Zn154 2.031 . S
O157 C161 1.269 . S
O158 Zn155 1.986 . S
O158 C165 1.262 . S
O159 Zn154 2.049 . S
O159 C167 1.260 . S
O160 Zn155 1.996 . S
O160 C167 1.257 . S
C161 O156 1.254 . S
C161 O157 1.269 . S
C162 O163 1.249 . S
C162 O164 1.270 . S
O163 Zn155 1.943 . S
O163 C162 1.249 . S
O164 Zn154 2.067 . S
O164 C162 1.270 . S
C165 O158 1.262 . S
C165 O166 1.232 . S
O166 C165 1.232 . S
C167 O159 1.260 . S
C167 O160 1.257 . S
Zn168 O171 2.031 . S
Zn168 O173 2.049 . S
Zn168 O178 2.067 . S
Zn169 O170 1.962 . S
Zn169 O172 1.986 . S
Zn169 O174 1.996 . S
Zn169 O177 1.943 . S
O170 Zn169 1.962 . S
O170 C175 1.254 . S
O171 Zn168 2.031 . S
O171 C175 1.269 . S
O172 Zn169 1.986 . S
O172 C179 1.262 . S
O173 Zn168 2.049 . S
O173 C181 1.260 . S
O174 Zn169 1.996 . S
O174 C181 1.257 . S
C175 O170 1.254 . S
C175 O171 1.269 . S
C176 O177 1.249 . S
C176 O178 1.270 . S
O177 Zn169 1.943 . S
O177 C176 1.249 . S
O178 Zn168 2.067 . S
O178 C176 1.270 . S
C179 O172 1.262 . S
C179 O180 1.232 . S
O180 C179 1.232 . S
C181 O173 1.260 . S
C181 O174 1.257 . S
Zn182 O185 2.031 . S
Zn182 O187 2.049 . S
Zn182 O192 2.067 . S
Zn183 O184 1.962 . S
Zn183 O186 1.986 . S
Zn183 O188 1.996 . S
Zn183 O191 1.943 . S
O184 Zn183 1.962 . S
O184 C189 1.254 . S
O185 Zn182 2.031 . S
O185 C189 1.269 . S
O186 Zn183 1.986 . S
O186 C193 1.262 . S
O187 Zn182 2.049 . S
O187 C195 1.260 . S
O188 Zn183 1.996 . S
O188 C195 1.257 . S
C189 O184 1.254 . S
C189 O185 1.269 . S
C190 O191 1.249 . S
C190 O192 1.270 . S
O191 Zn183 1.943 . S
O191 C190 1.249 . S
O192 Zn182 2.067 . S
O192 C190 1.270 . S
C193 O186 1.262 . S
C193 O194 1.232 . S
O194 C193 1.232 . S
C195 O187 1.260 . S
C195 O188 1.257 . S
Zn196 O199 2.031 . S
Zn196 O201 2.049 . S
Zn196 O206 2.067 . S
Zn197 O198 1.962 . S
Zn197 O200 1.986 . S
Zn197 O202 1.996 . S
Zn197 O205 1.943 . S
O198 Zn197 1.962 . S
O198 C203 1.254 . S
O199 Zn196 2.031 . S
O199 C203 1.269 . S
O200 Zn197 1.986 . S
O200 C207 1.262 . S
O201 Zn196 2.049 . S
O201 C209 1.260 . S
O202 Zn197 1.996 . S
O202 C209 1.257 . S
C203 O198 1.254 . S
C203 O199 1.269 . S
C204 O205 1.249 . S
C204 O206 1.270 . S
O205 Zn197 1.943 . S
O205 C204 1.249 . S
O206 Zn196 2.067 . S
O206 C204 1.270 . S
C207 O200 1.262 . S
C207 O208 1.232 . S
O208 C207 1.232 . S
C209 O201 1.260 . S
C209 O202 1.257 . S
Zn210 O213 2.031 . S
Zn210 O215 2.049 . S
Zn210 O220 2.067 . S
Zn211 O212 1.962 . S
Zn211 O214 1.986 . S
Zn211 O216 1.996 . S
Zn211 O219 1.943 . S
O212 Zn211 1.962 . S
O212 C217 1.254 . S
O213 Zn210 2.031 . S
O213 C217 1.269 . S
O214 Zn211 1.986 . S
O214 C221 1.262 . S
O215 Zn210 2.049 . S
O215 C223 1.260 . S
O216 Zn211 1.996 . S
O216 C223 1.257 . S
C217 O212 1.254 . S
C217 O213 1.269 . S
C218 O219 1.249 . S
C218 O220 1.270 . S
O219 Zn211 1.943 . S
O219 C218 1.249 . S
O220 Zn210 2.067 . S
O220 C218 1.270 . S
C221 O214 1.262 . S
C221 O222 1.232 . S
O222 C221 1.232 . S
C223 O215 1.260 . S
C223 O216 1.257 . S
Zn224 O227 2.031 . S
Zn224 O229 2.049 . S
Zn224 O234 2.067 . S
Zn225 O226 1.962 . S
Zn225 O228 1.986 . S
Zn225 O230 1.996 . S
Zn225 O233 1.943 . S
O226 Zn225 1.962 . S
O226 C231 1.254 . S
O227 Zn224 2.031 . S
O227 C231 1.269 . S
O228 Zn225 1.986 . S
O228 C235 1.262 . S
O229 Zn224 2.049 . S
O229 C237 1.260 . S
O230 Zn225 1.996 . S
O230 C237 1.257 . S
C231 O226 1.254 . S
C231 O227 1.269 . S
C232 O233 1.249 . S
C232 O234 1.270 . S
O233 Zn225 1.943 . S
O233 C232 1.249 . S
O234 Zn224 2.067 . S
O234 C232 1.270 . S
C235 O228 1.262 . S
C235 O236 1.232 . S
O236 C235 1.232 . S
C237 O229 1.260 . S
C237 O230 1.257 . S
Zn238 O241 2.031 . S
Zn238 O243 2.049 . S
Zn238 O248 2.067 . S
Zn239 O240 1.962 . S
Zn239 O242 1.986 . S
Zn239 O244 1.996 . S
Zn239 O247 1.943 . S
O240 Zn239 1.962 . S
O240 C245 1.254 . S
O241 Zn238 2.031 . S
O241 C245 1.269 . S
O242 Zn239 1.986 . S
O242 C249 1.262 . S
O243 Zn238 2.049 . S
O243 C251 1.260 . S
O244 Zn239 1.996 . S
O244 C251 1.257 . S
C245 O240 1.254 . S
C245 O241 1.269 . S
C246 O247 1.249 . S
C246 O248 1.270 . S
O247 Zn239 1.943 . S
O247 C246 1.249 . S
O248 Zn238 2.067 . S
O248 C246 1.270 . S
C249 O242 1.262 . S
C249 O250 1.232 . S
O250 C249 1.232 . S
C251 O243 1.260 . S
C251 O244 1.257 . S
Zn252 O255 2.031 . S
Zn252 O257 2.049 . S
Zn252 O262 2.067 . S
Zn253 O254 1.962 . S
Zn253 O256 1.986 . S
Zn253 O258 1.996 . S
Zn253 O261 1.943 . S
O254 Zn253 1.962 . S
O254 C259 1.254 . S
O255 Zn252 2.031 . S
O255 C259 1.269 . S
O256 Zn253 1.986 . S
O256 C263 1.262 . S
O257 Zn252 2.049 . S
O257 C265 1.260 . S
O258 Zn253 1.996 . S
O258 C265 1.257 . S
C259 O254 1.254 . S
C259 O255 1.269 . S
C260 O261 1.249 . S
C260 O262 1.270 . S
O261 Zn253 1.943 . S
O261 C260 1.249 . S
O262 Zn252 2.067 . S
O262 C260 1.270 . S
C263 O256 1.262 . S
C263 O264 1.232 . S
O264 C263 1.232 . S
C265 O257 1.260 . S
C265 O258 1.257 . S
Zn266 O269 2.031 . S
Zn266 O271 2.049 . S
Zn266 O276 2.067 . S
Zn267 O268 1.962 . S
Zn267 O270 1.986 . S
Zn267 O272 1.996 . S
Zn267 O275 1.943 . S
O268 Zn267 1.962 . S
O268 C273 1.254 . S
O269 Zn266 2.031 . S
O269 C273 1.269 . S
O270 Zn267 1.986 . S
O270 C277 1.262 . S
O271 Zn266 2.049 . S
O271 C279 1.260 . S
O272 Zn267 1.996 . S
O272 C279 1.257 . S
C273 O268 1.254 . S
C273 O269 1.269 . S
C274 O275 1.249 . S
C274 O276 1.270 . S
O275 Zn267 1.943 . S
O275 C274 1.249 . S
O276 Zn266 2.067 . S
O276 C274 1.270 . S
C277 O270 1.262 . S
C277 O278 1.232 . S
O278 C277 1.232 . S
C279 O271 1.260 . S
C279 O272 1.257 . S
Zn280 O283 2.031 . S
Zn280 O285 2.049 . S
Zn280 O290 2.067 . S
Zn281 O282 1.962 . S
Zn281 O284 1.986 . S
Zn281 O286 1.996 . S
Zn281 O289 1.943 . S
O282 Zn281 1.962 . S
O282 C287 1.254 . S
O283 Zn280 2.031 . S
O283 C287 1.269 . S
O284 Zn281 1.986 . S
O284 C291 1.262 . S
O285 Zn280 2.049 . S
O285 C293 1.260 . S
O286 Zn281 1.996 . S
O286 C293 1.257 . S
C287 O282 1.254 . S
C287 O283 1.269 . S
C288 O289 1.249 . S
C288 O290 1.270 . S
O289 Zn281 1.943 . S
O289 C288 1.249 . S
O290 Zn280 2.067 . S
O290 C288 1.270 . S
C291 O284 1.262 . S
C291 O292 1.232 . S
O292 C291 1.232 . S
C293 O285 1.260 . S
C293 O286 1.257 . S
Zn294 O297 2.031 . S
Zn294 O299 2.049 . S
Zn294 O304 2.067 . S
Zn295 O296 1.962 . S
Zn295 O298 1.986 . S
Zn295 O300 1.996 . S
Zn295 O303 1.943 . S
O296 Zn295 1.962 . S
O296 C301 1.254 . S
O297 Zn294 2.031 . S
O297 C301 1.269 . S
O298 Zn295 1.986 . S
O298 C305 1.262 . S
O299 Zn294 2.049 . S
O299 C307 1.260 . S
O300 Zn295 1.996 . S
O300 C307 1.257 . S
C301 O296 1.254 . S
C301 O297 1.269 . S
C302 O303 1.249 . S
C302 O304 1.270 . S
O303 Zn295 1.943 . S
O303 C302 1.249 . S
O304 Zn294 2.067 . S
O304 C302 1.270 . S
C305 O298 1.262 . S
C305 O306 1.232 . S
O306 C305 1.232 . S
C307 O299 1.260 . S
C307 O300 1.257 . S
Zn308 O311 2.031 . S
Zn308 O313 2.049 . S
Zn308 O318 2.067 . S
Zn309 O310 1.962 . S
Zn309 O312 1.986 . S
Zn309 O314 1.996 . S
Zn309 O317 1.943 . S
O310 Zn309 1.962 . S
O310 C315 1.254 . S
O311 Zn308 2.031 . S
O311 C315 1.269 . S
O312 Zn309 1.986 . S
O312 C319 1.262 . S
O313 Zn308 2.049 . S
O313 C321 1.260 . S
O314 Zn309 1.996 . S
O314 C321 1.257 . S
C315 O310 1.254 . S
C315 O311 1.269 . S
C316 O317 1.249 . S
C316 O318 1.270 . S
O317 Zn309 1.943 . S
O317 C316 1.249 . S
O318 Zn308 2.067 . S
O318 C316 1.270 . S
C319 O312 1.262 . S
C319 O320 1.232 . S
O320 C319 1.232 . S
C321 O313 1.260 . S
C321 O314 1.257 . S
Zn322 O325 2.031 . S
Zn322 O327 2.049 . S
Zn322 O332 2.067 . S
Zn323 O324 1.962 . S
Zn323 O326 1.986 . S
Zn323 O328 1.996 . S
Zn323 O331 1.943 . S
O324 Zn323 1.962 . S
O324 C329 1.254 . S
O325 Zn322 2.031 . S
O325 C329 1.269 . S
O326 Zn323 1.986 . S
O326 C333 1.262 . S
O327 Zn322 2.049 . S
O327 C335 1.260 . S
O328 Zn323 1.996 . S
O328 C335 1.257 . S
C329 O324 1.254 . S
C329 O325 1.269 . S
C330 O331 1.249 . S
C330 O332 1.270 . S
O331 Zn323 1.943 . S
O331 C330 1.249 . S
O332 Zn322 2.067 . S
O332 C330 1.270 . S
C333 O326 1.262 . S
C333 O334 1.232 . S
O334 C333 1.232 . S
C335 O327 1.260 . S
C335 O328 1.257 . S
Zn336 O339 2.031 . S
Zn336 O341 2.049 . S
Zn336 O346 2.067 . S
Zn337 O338 1.962 . S
Zn337 O340 1.986 . S
Zn337 O342 1.996 . S
Zn337 O345 1.943 . S
O338 Zn337 1.962 . S
O338 C343 1.254 . S
O339 Zn336 2.031 . S
O339 C343 1.269 . S
O340 Zn337 1.986 . S
O340 C347 1.262 . S
O341 Zn336 2.049 . S
O341 C349 1.260 . S
O342 Zn337 1.996 . S
O342 C349 1.257 . S
C343 O338 1.254 . S
C343 O339 1.269 . S
C344 O345 1.249 . S
C344 O346 1.270 . S
O345 Zn337 1.943 . S
O345 C344 1.249 . S
O346 Zn336 2.067 . S
O346 C344 1.270 . S
C347 O340 1.262 . S
C347 O348 1.232 . S
O348 C347 1.232 . S
C349 O341 1.260 . S
C349 O342 1.257 . S
Zn350 O353 2.031 . S
Zn350 O355 2.049 . S
Zn350 O360 2.067 . S
Zn351 O352 1.962 . S
Zn351 O354 1.986 . S
Zn351 O356 1.996 . S
Zn351 O359 1.943 . S
O352 Zn351 1.962 . S
O352 C357 1.254 . S
O353 Zn350 2.031 . S
O353 C357 1.269 . S
O354 Zn351 1.986 . S
O354 C361 1.262 . S
O355 Zn350 2.049 . S
O355 C363 1.260 . S
O356 Zn351 1.996 . S
O356 C363 1.257 . S
C357 O352 1.254 . S
C357 O353 1.269 . S
C358 O359 1.249 . S
C358 O360 1.270 . S
O359 Zn351 1.943 . S
O359 C358 1.249 . S
O360 Zn350 2.067 . S
O360 C358 1.270 . S
C361 O354 1.262 . S
C361 O362 1.232 . S
O362 C361 1.232 . S
C363 O355 1.260 . S
C363 O356 1.257 . S
Zn364 O367 2.031 . S
Zn364 O369 2.049 . S
Zn364 O374 2.067 . S
Zn365 O366 1.962 . S
Zn365 O368 1.986 . S
Zn365 O370 1.996 . S
Zn365 O373 1.943 . S
O366 Zn365 1.962 . S
O366 C371 1.254 . S
O367 Zn364 2.031 . S
O367 C371 1.269 . S
O368 Zn365 1.986 . S
O368 C375 1.262 . S
O369 Zn364 2.049 . S
O369 C377 1.260 . S
O370 Zn365 1.996 . S
O370 C377 1.257 . S
C371 O366 1.254 . S
C371 O367 1.269 . S
C372 O373 1.249 . S
C372 O374 1.270 . S
O373 Zn365 1.943 . S
O373 C372 1.249 . S
O374 Zn364 2.067 . S
O374 C372 1.270 . S
C375 O368 1.262 . S
C375 O376 1.232 . S
O376 C375 1.232 . S
C377 O369 1.260 . S
C377 O370 1.257 . S
Zn378 O381 2.031 . S
Zn378 O383 2.049 . S
Zn378 O388 2.067 . S
Zn379 O380 1.962 . S
Zn379 O382 1.986 . S
Zn379 O384 1.996 . S
Zn379 O387 1.943 . S
O380 Zn379 1.962 . S
O380 C385 1.254 . S
O381 Zn378 2.031 . S
O381 C385 1.269 . S
O382 Zn379 1.986 . S
O382 C389 1.262 . S
O383 Zn378 2.049 . S
O383 C391 1.260 . S
O384 Zn379 1.996 . S
O384 C391 1.257 . S
C385 O380 1.254 . S
C385 O381 1.269 . S
C386 O387 1.249 . S
C386 O388 1.270 . S
O387 Zn379 1.943 . S
O387 C386 1.249 . S
O388 Zn378 2.067 . S
O388 C386 1.270 . S
C389 O382 1.262 . S
C389 O390 1.232 . S
O390 C389 1.232 . S
C391 O383 1.260 . S
C391 O384 1.257 . S
Zn392 O395 2.031 . S
Zn392 O397 2.049 . S
Zn392 O402 2.067 . S
Zn393 O394 1.962 . S
Zn393 O396 1.986 . S
Zn393 O398 1.996 . S
Zn393 O401 1.943 . S
O394 Zn393 1.962 . S
O394 C399 1.254 . S
O395 Zn392 2.031 . S
O395 C399 1.269 . S
O396 Zn393 1.986 . S
O396 C403 1.262 . S
O397 Zn392 2.049 . S
O397 C405 1.260 . S
O398 Zn393 1.996 . S
O398 C405 1.257 . S
C399 O394 1.254 . S
C399 O395 1.269 . S
C400 O401 1.249 . S
C400 O402 1.270 . S
O401 Zn393 1.943 . S
O401 C400 1.249 . S
O402 Zn392 2.067 . S
O402 C400 1.270 . S
C403 O396 1.262 . S
C403 O404 1.232 . S
O404 C403 1.232 . S
C405 O397 1.260 . S
C405 O398 1.257 . S
Zn406 O409 2.031 . S
Zn406 O411 2.049 . S
Zn406 O416 2.067 . S
Zn407 O408 1.962 . S
Zn407 O410 1.986 . S
Zn407 O412 1.996 . S
Zn407 O415 1.943 . S
O408 Zn407 1.962 . S
O408 C413 1.254 . S
O409 Zn406 2.031 . S
O409 C413 1.269 . S
O410 Zn407 1.986 . S
O410 C417 1.262 . S
O411 Zn406 2.049 . S
O411 C419 1.260 . S
O412 Zn407 1.996 . S
O412 C419 1.257 . S
C413 O408 1.254 . S
C413 O409 1.269 . S
C414 O415 1.249 . S
C414 O416 1.270 . S
O415 Zn407 1.943 . S
O415 C414 1.249 . S
O416 Zn406 2.067 . S
O416 C414 1.270 . S
C417 O410 1.262 . S
C417 O418 1.232 . S
O418 C417 1.232 . S
C419 O411 1.260 . S
C419 O412 1.257 . S
Zn420 O423 2.031 . S
Zn420 O425 2.049 . S
Zn420 O430 2.067 . S
Zn421 O422 1.962 . S
Zn421 O424 1.986 . S
Zn421 O426 1.996 . S
Zn421 O429 1.943 . S
O422 Zn421 1.962 . S
O422 C427 1.254 . S
O423 Zn420 2.031 . S
O423 C427 1.269 . S
O424 Zn421 1.986 . S
O424 C431 1.262 . S
O425 Zn420 2.049 . S
O425 C433 1.260 . S
O426 Zn421 1.996 . S
O426 C433 1.257 . S
C427 O422 1.254 . S
C427 O423 1.269 . S
C428 O429 1.249 . S
C428 O430 1.270 . S
O429 Zn421 1.943 . S
O429 C428 1.249 . S
O430 Zn420 2.067 . S
O430 C428 1.270 . S
C431 O424 1.262 . S
C431 O432 1.232 . S
O432 C431 1.232 . S
C433 O425 1.260 . S
C433 O426 1.257 . S
Zn434 O437 2.031 . S
Zn434 O439 2.049 . S
Zn434 O444 2.067 . S
Zn435 O436 1.962 . S
Zn435 O438 1.986 . S
Zn435 O440 1.996 . S
Zn435 O443 1.943 . S
O436 Zn435 1.962 . S
O436 C441 1.254 . S
O437 Zn434 2.031 . S
O437 C441 1.269 . S
O438 Zn435 1.986 . S
O438 C445 1.262 . S
O439 Zn434 2.049 . S
O439 C447 1.260 . S
O440 Zn435 1.996 . S
O440 C447 1.257 . S
C441 O436 1.254 . S
C441 O437 1.269 . S
C442 O443 1.249 . S
C442 O444 1.270 . S
O443 Zn435 1.943 . S
O443 C442 1.249 . S
O444 Zn434 2.067 . S
O444 C442 1.270 . S
C445 O438 1.262 . S
C445 O446 1.232 . S
O446 C445 1.232 . S
C447 O439 1.260 . S
C447 O440 1.257 . S
H448 C460 0.930 . S
H449 C462 0.930 . S
H450 C463 0.930 . S
H451 C467 0.959 . S
H452 C467 0.959 . S
H453 C467 0.961 . S
H454 C468 0.960 . S
H455 C468 0.961 . S
H456 C468 0.959 . S
H457 C471 0.929 . S
H458 C472 0.931 . S
H459 C474 0.930 . S
C460 H448 0.930 . S
C460 C461 1.399 . S
C460 C465 1.399 . S
C461 C460 1.399 . S
C461 C462 1.376 . S
C462 H449 0.930 . S
C462 C461 1.376 . S
C462 C463 1.388 . S
C463 H450 0.930 . S
C463 C462 1.388 . S
C463 C464 1.390 . S
C464 C463 1.390 . S
C464 C465 1.394 . S
C464 C470 1.465 . S
C465 C460 1.399 . S
C465 C464 1.394 . S
C465 C466 1.516 . S
C466 C465 1.516 . S
C466 C467 1.502 . S
C466 C468 1.561 . S
C466 C469 1.526 . S
C467 H451 0.959 . S
C467 H452 0.959 . S
C467 H453 0.961 . S
C467 C466 1.502 . S
C468 H454 0.960 . S
C468 H455 0.961 . S
C468 H456 0.959 . S
C468 C466 1.561 . S
C469 C466 1.526 . S
C469 C470 1.396 . S
C469 C474 1.390 . S
C470 C464 1.465 . S
C470 C469 1.396 . S
C470 C471 1.399 . S
C471 H457 0.929 . S
C471 C470 1.399 . S
C471 C472 1.385 . S
C472 H458 0.931 . S
C472 C471 1.385 . S
C472 C473 1.389 . S
C473 C472 1.389 . S
C473 C474 1.387 . S
C474 H459 0.930 . S
C474 C469 1.390 . S
C474 C473 1.387 . S
H475 C487 0.930 . S
H476 C489 0.930 . S
H477 C490 0.930 . S
H478 C494 0.959 . S
H479 C494 0.959 . S
H480 C494 0.961 . S
H481 C495 0.960 . S
H482 C495 0.961 . S
H483 C495 0.959 . S
H484 C498 0.929 . S
H485 C499 0.931 . S
H486 C501 0.930 . S
C487 H475 0.930 . S
C487 C488 1.399 . S
C487 C492 1.399 . S
C488 C487 1.399 . S
C488 C489 1.376 . S
C489 H476 0.930 . S
C489 C488 1.376 . S
C489 C490 1.388 . S
C490 H477 0.930 . S
C490 C489 1.388 . S
C490 C491 1.390 . S
C491 C490 1.390 . S
C491 C492 1.394 . S
C491 C497 1.465 . S
C492 C487 1.399 . S
C492 C491 1.394 . S
C492 C493 1.516 . S
C493 C492 1.516 . S
C493 C494 1.502 . S
C493 C495 1.561 . S
C493 C496 1.526 . S
C494 H478 0.959 . S
C494 H479 0.959 . S
C494 H480 0.961 . S
C494 C493 1.502 . S
C495 H481 0.960 . S
C495 H482 0.961 . S
C495 H483 0.959 . S
C495 C493 1.561 . S
C496 C493 1.526 . S
C496 C497 1.396 . S
C496 C501 1.390 . S
C497 C491 1.465 . S
C497 C496 1.396 . S
C497 C498 1.399 . S
C498 H484 0.929 . S
C498 C497 1.399 . S
C498 C499 1.385 . S
C499 H485 0.931 . S
C499 C498 1.385 . S
C499 C500 1.389 . S
C500 C499 1.389 . S
C500 C501 1.387 . S
C501 H486 0.930 . S
C501 C496 1.390 . S
C501 C500 1.387 . S
H502 C514 0.930 . S
H503 C516 0.930 . S
H504 C517 0.930 . S
H505 C521 0.959 . S
H506 C521 0.959 . S
H507 C521 0.961 . S
H508 C522 0.960 . S
H509 C522 0.961 . S
H510 C522 0.959 . S
H511 C525 0.929 . S
H512 C526 0.931 . S
H513 C528 0.930 . S
C514 H502 0.930 . S
C514 C515 1.399 . S
C514 C519 1.399 . S
C515 C514 1.399 . S
C515 C516 1.376 . S
C516 H503 0.930 . S
C516 C515 1.376 . S
C516 C517 1.388 . S
C517 H504 0.930 . S
C517 C516 1.388 . S
C517 C518 1.390 . S
C518 C517 1.390 . S
C518 C519 1.394 . S
C518 C524 1.465 . S
C519 C514 1.399 . S
C519 C518 1.394 . S
C519 C520 1.516 . S
C520 C519 1.516 . S
C520 C521 1.502 . S
C520 C522 1.561 . S
C520 C523 1.526 . S
C521 H505 0.959 . S
C521 H506 0.959 . S
C521 H507 0.961 . S
C521 C520 1.502 . S
C522 H508 0.960 . S
C522 H509 0.961 . S
C522 H510 0.959 . S
C522 C520 1.561 . S
C523 C520 1.526 . S
C523 C524 1.396 . S
C523 C528 1.390 . S
C524 C518 1.465 . S
C524 C523 1.396 . S
C524 C525 1.399 . S
C525 H511 0.929 . S
C525 C524 1.399 . S
C525 C526 1.385 . S
C526 H512 0.931 . S
C526 C525 1.385 . S
C526 C527 1.389 . S
C527 C526 1.389 . S
C527 C528 1.387 . S
C528 H513 0.930 . S
C528 C523 1.390 . S
C528 C527 1.387 . S
H529 C541 0.930 . S
H530 C543 0.930 . S
H531 C544 0.930 . S
H532 C548 0.959 . S
H533 C548 0.959 . S
H534 C548 0.961 . S
H535 C549 0.960 . S
H536 C549 0.961 . S
H537 C549 0.959 . S
H538 C552 0.929 . S
H539 C553 0.931 . S
H540 C555 0.930 . S
C541 H529 0.930 . S
C541 C542 1.399 . S
C541 C546 1.399 . S
C542 C541 1.399 . S
C542 C543 1.376 . S
C543 H530 0.930 . S
C543 C542 1.376 . S
C543 C544 1.388 . S
C544 H531 0.930 . S
C544 C543 1.388 . S
C544 C545 1.390 . S
C545 C544 1.390 . S
C545 C546 1.394 . S
C545 C551 1.465 . S
C546 C541 1.399 . S
C546 C545 1.394 . S
C546 C547 1.516 . S
C547 C546 1.516 . S
C547 C548 1.502 . S
C547 C549 1.561 . S
C547 C550 1.526 . S
C548 H532 0.959 . S
C548 H533 0.959 . S
C548 H534 0.961 . S
C548 C547 1.502 . S
C549 H535 0.960 . S
C549 H536 0.961 . S
C549 H537 0.959 . S
C549 C547 1.561 . S
C550 C547 1.526 . S
C550 C551 1.396 . S
C550 C555 1.390 . S
C551 C545 1.465 . S
C551 C550 1.396 . S
C551 C552 1.399 . S
C552 H538 0.929 . S
C552 C551 1.399 . S
C552 C553 1.385 . S
C553 H539 0.931 . S
C553 C552 1.385 . S
C553 C554 1.389 . S
C554 C553 1.389 . S
C554 C555 1.387 . S
C555 H540 0.930 . S
C555 C550 1.390 . S
C555 C554 1.387 . S
H556 C568 0.930 . S
H557 C570 0.930 . S
H558 C571 0.930 . S
H559 C575 0.959 . S
H560 C575 0.959 . S
H561 C575 0.961 . S
H562 C576 0.960 . S
H563 C576 0.961 . S
H564 C576 0.959 . S
H565 C579 0.929 . S
H566 C580 0.931 . S
H567 C582 0.930 . S
C568 H556 0.930 . S
C568 C569 1.399 . S
C568 C573 1.399 . S
C569 C568 1.399 . S
C569 C570 1.376 . S
C570 H557 0.930 . S
C570 C569 1.376 . S
C570 C571 1.388 . S
C571 H558 0.930 . S
C571 C570 1.388 . S
C571 C572 1.390 . S
C572 C571 1.390 . S
C572 C573 1.394 . S
C572 C578 1.465 . S
C573 C568 1.399 . S
C573 C572 1.394 . S
C573 C574 1.516 . S
C574 C573 1.516 . S
C574 C575 1.502 . S
C574 C576 1.561 . S
C574 C577 1.526 . S
C575 H559 0.959 . S
C575 H560 0.959 . S
C575 H561 0.961 . S
C575 C574 1.502 . S
C576 H562 0.960 . S
C576 H563 0.961 . S
C576 H564 0.959 . S
C576 C574 1.561 . S
C577 C574 1.526 . S
C577 C578 1.396 . S
C577 C582 1.390 . S
C578 C572 1.465 . S
C578 C577 1.396 . S
C578 C579 1.399 . S
C579 H565 0.929 . S
C579 C578 1.399 . S
C579 C580 1.385 . S
C580 H566 0.931 . S
C580 C579 1.385 . S
C580 C581 1.389 . S
C581 C580 1.389 . S
C581 C582 1.387 . S
C582 H567 0.930 . S
C582 C577 1.390 . S
C582 C581 1.387 . S
H583 C595 0.930 . S
H584 C597 0.930 . S
H585 C598 0.930 . S
H586 C602 0.959 . S
H587 C602 0.959 . S
H588 C602 0.961 . S
H589 C603 0.960 . S
H590 C603 0.961 . S
H591 C603 0.959 . S
H592 C606 0.929 . S
H593 C607 0.931 . S
H594 C609 0.930 . S
C595 H583 0.930 . S
C595 C596 1.399 . S
C595 C600 1.399 . S
C596 C595 1.399 . S
C596 C597 1.376 . S
C597 H584 0.930 . S
C597 C596 1.376 . S
C597 C598 1.388 . S
C598 H585 0.930 . S
C598 C597 1.388 . S
C598 C599 1.390 . S
C599 C598 1.390 . S
C599 C600 1.394 . S
C599 C605 1.465 . S
C600 C595 1.399 . S
C600 C599 1.394 . S
C600 C601 1.516 . S
C601 C600 1.516 . S
C601 C602 1.502 . S
C601 C603 1.561 . S
C601 C604 1.526 . S
C602 H586 0.959 . S
C602 H587 0.959 . S
C602 H588 0.961 . S
C602 C601 1.502 . S
C603 H589 0.960 . S
C603 H590 0.961 . S
C603 H591 0.959 . S
C603 C601 1.561 . S
C604 C601 1.526 . S
C604 C605 1.396 . S
C604 C609 1.390 . S
C605 C599 1.465 . S
C605 C604 1.396 . S
C605 C606 1.399 . S
C606 H592 0.929 . S
C606 C605 1.399 . S
C606 C607 1.385 . S
C607 H593 0.931 . S
C607 C606 1.385 . S
C607 C608 1.389 . S
C608 C607 1.389 . S
C608 C609 1.387 . S
C609 H594 0.930 . S
C609 C604 1.390 . S
C609 C608 1.387 . S
H610 C622 0.930 . S
H611 C624 0.930 . S
H612 C625 0.930 . S
H613 C629 0.959 . S
H614 C629 0.959 . S
H615 C629 0.961 . S
H616 C630 0.960 . S
H617 C630 0.961 . S
H618 C630 0.959 . S
H619 C633 0.929 . S
H620 C634 0.931 . S
H621 C636 0.930 . S
C622 H610 0.930 . S
C622 C623 1.399 . S
C622 C627 1.399 . S
C623 C622 1.399 . S
C623 C624 1.376 . S
C624 H611 0.930 . S
C624 C623 1.376 . S
C624 C625 1.388 . S
C625 H612 0.930 . S
C625 C624 1.388 . S
C625 C626 1.390 . S
C626 C625 1.390 . S
C626 C627 1.394 . S
C626 C632 1.465 . S
C627 C622 1.399 . S
C627 C626 1.394 . S
C627 C628 1.516 . S
C628 C627 1.516 . S
C628 C629 1.502 . S
C628 C630 1.561 . S
C628 C631 1.526 . S
C629 H613 0.959 . S
C629 H614 0.959 . S
C629 H615 0.961 . S
C629 C628 1.502 . S
C630 H616 0.960 . S
C630 H617 0.961 . S
C630 H618 0.959 . S
C630 C628 1.561 . S
C631 C628 1.526 . S
C631 C632 1.396 . S
C631 C636 1.390 . S
C632 C626 1.465 . S
C632 C631 1.396 . S
C632 C633 1.399 . S
C633 H619 0.929 . S
C633 C632 1.399 . S
C633 C634 1.385 . S
C634 H620 0.931 . S
C634 C633 1.385 . S
C634 C635 1.389 . S
C635 C634 1.389 . S
C635 C636 1.387 . S
C636 H621 0.930 . S
C636 C631 1.390 . S
C636 C635 1.387 . S
H637 C649 0.930 . S
H638 C651 0.930 . S
H639 C652 0.930 . S
H640 C656 0.959 . S
H641 C656 0.959 . S
H642 C656 0.961 . S
H643 C657 0.960 . S
H644 C657 0.961 . S
H645 C657 0.959 . S
H646 C660 0.929 . S
H647 C661 0.931 . S
H648 C663 0.930 . S
C649 H637 0.930 . S
C649 C650 1.399 . S
C649 C654 1.399 . S
C650 C649 1.399 . S
C650 C651 1.376 . S
C651 H638 0.930 . S
C651 C650 1.376 . S
C651 C652 1.388 . S
C652 H639 0.930 . S
C652 C651 1.388 . S
C652 C653 1.390 . S
C653 C652 1.390 . S
C653 C654 1.394 . S
C653 C659 1.465 . S
C654 C649 1.399 . S
C654 C653 1.394 . S
C654 C655 1.516 . S
C655 C654 1.516 . S
C655 C656 1.502 . S
C655 C657 1.561 . S
C655 C658 1.526 . S
C656 H640 0.959 . S
C656 H641 0.959 . S
C656 H642 0.961 . S
C656 C655 1.502 . S
C657 H643 0.960 . S
C657 H644 0.961 . S
C657 H645 0.959 . S
C657 C655 1.561 . S
C658 C655 1.526 . S
C658 C659 1.396 . S
C658 C663 1.390 . S
C659 C653 1.465 . S
C659 C658 1.396 . S
C659 C660 1.399 . S
C660 H646 0.929 . S
C660 C659 1.399 . S
C660 C661 1.385 . S
C661 H647 0.931 . S
C661 C660 1.385 . S
C661 C662 1.389 . S
C662 C661 1.389 . S
C662 C663 1.387 . S
C663 H648 0.930 . S
C663 C658 1.390 . S
C663 C662 1.387 . S
H664 C676 0.930 . S
H665 C678 0.930 . S
H666 C679 0.930 . S
H667 C683 0.959 . S
H668 C683 0.959 . S
H669 C683 0.961 . S
H670 C684 0.960 . S
H671 C684 0.961 . S
H672 C684 0.959 . S
H673 C687 0.929 . S
H674 C688 0.931 . S
H675 C690 0.930 . S
C676 H664 0.930 . S
C676 C677 1.399 . S
C676 C681 1.399 . S
C677 C676 1.399 . S
C677 C678 1.376 . S
C678 H665 0.930 . S
C678 C677 1.376 . S
C678 C679 1.388 . S
C679 H666 0.930 . S
C679 C678 1.388 . S
C679 C680 1.390 . S
C680 C679 1.390 . S
C680 C681 1.394 . S
C680 C686 1.465 . S
C681 C676 1.399 . S
C681 C680 1.394 . S
C681 C682 1.516 . S
C682 C681 1.516 . S
C682 C683 1.502 . S
C682 C684 1.561 . S
C682 C685 1.526 . S
C683 H667 0.959 . S
C683 H668 0.959 . S
C683 H669 0.961 . S
C683 C682 1.502 . S
C684 H670 0.960 . S
C684 H671 0.961 . S
C684 H672 0.959 . S
C684 C682 1.561 . S
C685 C682 1.526 . S
C685 C686 1.396 . S
C685 C690 1.390 . S
C686 C680 1.465 . S
C686 C685 1.396 . S
C686 C687 1.399 . S
C687 H673 0.929 . S
C687 C686 1.399 . S
C687 C688 1.385 . S
C688 H674 0.931 . S
C688 C687 1.385 . S
C688 C689 1.389 . S
C689 C688 1.389 . S
C689 C690 1.387 . S
C690 H675 0.930 . S
C690 C685 1.390 . S
C690 C689 1.387 . S
H691 C703 0.930 . S
H692 C705 0.930 . S
H693 C706 0.930 . S
H694 C710 0.959 . S
H695 C710 0.959 . S
H696 C710 0.961 . S
H697 C711 0.960 . S
H698 C711 0.961 . S
H699 C711 0.959 . S
H700 C714 0.929 . S
H701 C715 0.931 . S
H702 C717 0.930 . S
C703 H691 0.930 . S
C703 C704 1.399 . S
C703 C708 1.399 . S
C704 C703 1.399 . S
C704 C705 1.376 . S
C705 H692 0.930 . S
C705 C704 1.376 . S
C705 C706 1.388 . S
C706 H693 0.930 . S
C706 C705 1.388 . S
C706 C707 1.390 . S
C707 C706 1.390 . S
C707 C708 1.394 . S
C707 C713 1.465 . S
C708 C703 1.399 . S
C708 C707 1.394 . S
C708 C709 1.516 . S
C709 C708 1.516 . S
C709 C710 1.502 . S
C709 C711 1.561 . S
C709 C712 1.526 . S
C710 H694 0.959 . S
C710 H695 0.959 . S
C710 H696 0.961 . S
C710 C709 1.502 . S
C711 H697 0.960 . S
C711 H698 0.961 . S
C711 H699 0.959 . S
C711 C709 1.561 . S
C712 C709 1.526 . S
C712 C713 1.396 . S
C712 C717 1.390 . S
C713 C707 1.465 . S
C713 C712 1.396 . S
C713 C714 1.399 . S
C714 H700 0.929 . S
C714 C713 1.399 . S
C714 C715 1.385 . S
C715 H701 0.931 . S
C715 C714 1.385 . S
C715 C716 1.389 . S
C716 C715 1.389 . S
C716 C717 1.387 . S
C717 H702 0.930 . S
C717 C712 1.390 . S
C717 C716 1.387 . S
H718 C730 0.930 . S
H719 C732 0.930 . S
H720 C733 0.930 . S
H721 C737 0.959 . S
H722 C737 0.959 . S
H723 C737 0.961 . S
H724 C738 0.960 . S
H725 C738 0.961 . S
H726 C738 0.959 . S
H727 C741 0.929 . S
H728 C742 0.931 . S
H729 C744 0.930 . S
C730 H718 0.930 . S
C730 C731 1.399 . S
C730 C735 1.399 . S
C731 C730 1.399 . S
C731 C732 1.376 . S
C732 H719 0.930 . S
C732 C731 1.376 . S
C732 C733 1.388 . S
C733 H720 0.930 . S
C733 C732 1.388 . S
C733 C734 1.390 . S
C734 C733 1.390 . S
C734 C735 1.394 . S
C734 C740 1.465 . S
C735 C730 1.399 . S
C735 C734 1.394 . S
C735 C736 1.516 . S
C736 C735 1.516 . S
C736 C737 1.502 . S
C736 C738 1.561 . S
C736 C739 1.526 . S
C737 H721 0.959 . S
C737 H722 0.959 . S
C737 H723 0.961 . S
C737 C736 1.502 . S
C738 H724 0.960 . S
C738 H725 0.961 . S
C738 H726 0.959 . S
C738 C736 1.561 . S
C739 C736 1.526 . S
C739 C740 1.396 . S
C739 C744 1.390 . S
C740 C734 1.465 . S
C740 C739 1.396 . S
C740 C741 1.399 . S
C741 H727 0.929 . S
C741 C740 1.399 . S
C741 C742 1.385 . S
C742 H728 0.931 . S
C742 C741 1.385 . S
C742 C743 1.389 . S
C743 C742 1.389 . S
C743 C744 1.387 . S
C744 H729 0.930 . S
C744 C739 1.390 . S
C744 C743 1.387 . S
H745 C757 0.930 . S
H746 C759 0.930 . S
H747 C760 0.930 . S
H748 C764 0.959 . S
H749 C764 0.959 . S
H750 C764 0.961 . S
H751 C765 0.960 . S
H752 C765 0.961 . S
H753 C765 0.959 . S
H754 C768 0.929 . S
H755 C769 0.931 . S
H756 C771 0.930 . S
C757 H745 0.930 . S
C757 C758 1.399 . S
C757 C762 1.399 . S
C758 C757 1.399 . S
C758 C759 1.376 . S
C759 H746 0.930 . S
C759 C758 1.376 . S
C759 C760 1.388 . S
C760 H747 0.930 . S
C760 C759 1.388 . S
C760 C761 1.390 . S
C761 C760 1.390 . S
C761 C762 1.394 . S
C761 C767 1.465 . S
C762 C757 1.399 . S
C762 C761 1.394 . S
C762 C763 1.516 . S
C763 C762 1.516 . S
C763 C764 1.502 . S
C763 C765 1.561 . S
C763 C766 1.526 . S
C764 H748 0.959 . S
C764 H749 0.959 . S
C764 H750 0.961 . S
C764 C763 1.502 . S
C765 H751 0.960 . S
C765 H752 0.961 . S
C765 H753 0.959 . S
C765 C763 1.561 . S
C766 C763 1.526 . S
C766 C767 1.396 . S
C766 C771 1.390 . S
C767 C761 1.465 . S
C767 C766 1.396 . S
C767 C768 1.399 . S
C768 H754 0.929 . S
C768 C767 1.399 . S
C768 C769 1.385 . S
C769 H755 0.931 . S
C769 C768 1.385 . S
C769 C770 1.389 . S
C770 C769 1.389 . S
C770 C771 1.387 . S
C771 H756 0.930 . S
C771 C766 1.390 . S
C771 C770 1.387 . S
H772 C784 0.930 . S
H773 C786 0.930 . S
H774 C787 0.930 . S
H775 C791 0.959 . S
H776 C791 0.959 . S
H777 C791 0.961 . S
H778 C792 0.960 . S
H779 C792 0.961 . S
H780 C792 0.959 . S
H781 C795 0.929 . S
H782 C796 0.931 . S
H783 C798 0.930 . S
C784 H772 0.930 . S
C784 C785 1.399 . S
C784 C789 1.399 . S
C785 C784 1.399 . S
C785 C786 1.376 . S
C786 H773 0.930 . S
C786 C785 1.376 . S
C786 C787 1.388 . S
C787 H774 0.930 . S
C787 C786 1.388 . S
C787 C788 1.390 . S
C788 C787 1.390 . S
C788 C789 1.394 . S
C788 C794 1.465 . S
C789 C784 1.399 . S
C789 C788 1.394 . S
C789 C790 1.516 . S
C790 C789 1.516 . S
C790 C791 1.502 . S
C790 C792 1.561 . S
C790 C793 1.526 . S
C791 H775 0.959 . S
C791 H776 0.959 . S
C791 H777 0.961 . S
C791 C790 1.502 . S
C792 H778 0.960 . S
C792 H779 0.961 . S
C792 H780 0.959 . S
C792 C790 1.561 . S
C793 C790 1.526 . S
C793 C794 1.396 . S
C793 C798 1.390 . S
C794 C788 1.465 . S
C794 C793 1.396 . S
C794 C795 1.399 . S
C795 H781 0.929 . S
C795 C794 1.399 . S
C795 C796 1.385 . S
C796 H782 0.931 . S
C796 C795 1.385 . S
C796 C797 1.389 . S
C797 C796 1.389 . S
C797 C798 1.387 . S
C798 H783 0.930 . S
C798 C793 1.390 . S
C798 C797 1.387 . S
H799 C811 0.930 . S
H800 C813 0.930 . S
H801 C814 0.930 . S
H802 C818 0.959 . S
H803 C818 0.959 . S
H804 C818 0.961 . S
H805 C819 0.960 . S
H806 C819 0.961 . S
H807 C819 0.959 . S
H808 C822 0.929 . S
H809 C823 0.931 . S
H810 C825 0.930 . S
C811 H799 0.930 . S
C811 C812 1.399 . S
C811 C816 1.399 . S
C812 C811 1.399 . S
C812 C813 1.376 . S
C813 H800 0.930 . S
C813 C812 1.376 . S
C813 C814 1.388 . S
C814 H801 0.930 . S
C814 C813 1.388 . S
C814 C815 1.390 . S
C815 C814 1.390 . S
C815 C816 1.394 . S
C815 C821 1.465 . S
C816 C811 1.399 . S
C816 C815 1.394 . S
C816 C817 1.516 . S
C817 C816 1.516 . S
C817 C818 1.502 . S
C817 C819 1.561 . S
C817 C820 1.526 . S
C818 H802 0.959 . S
C818 H803 0.959 . S
C818 H804 0.961 . S
C818 C817 1.502 . S
C819 H805 0.960 . S
C819 H806 0.961 . S
C819 H807 0.959 . S
C819 C817 1.561 . S
C820 C817 1.526 . S
C820 C821 1.396 . S
C820 C825 1.390 . S
C821 C815 1.465 . S
C821 C820 1.396 . S
C821 C822 1.399 . S
C822 H808 0.929 . S
C822 C821 1.399 . S
C822 C823 1.385 . S
C823 H809 0.931 . S
C823 C822 1.385 . S
C823 C824 1.389 . S
C824 C823 1.389 . S
C824 C825 1.387 . S
C825 H810 0.930 . S
C825 C820 1.390 . S
C825 C824 1.387 . S
H826 C838 0.930 . S
H827 C840 0.930 . S
H828 C841 0.930 . S
H829 C845 0.959 . S
H830 C845 0.959 . S
H831 C845 0.961 . S
H832 C846 0.960 . S
H833 C846 0.961 . S
H834 C846 0.959 . S
H835 C849 0.929 . S
H836 C850 0.931 . S
H837 C852 0.930 . S
C838 H826 0.930 . S
C838 C839 1.399 . S
C838 C843 1.399 . S
C839 C838 1.399 . S
C839 C840 1.376 . S
C840 H827 0.930 . S
C840 C839 1.376 . S
C840 C841 1.388 . S
C841 H828 0.930 . S
C841 C840 1.388 . S
C841 C842 1.390 . S
C842 C841 1.390 . S
C842 C843 1.394 . S
C842 C848 1.465 . S
C843 C838 1.399 . S
C843 C842 1.394 . S
C843 C844 1.516 . S
C844 C843 1.516 . S
C844 C845 1.502 . S
C844 C846 1.561 . S
C844 C847 1.526 . S
C845 H829 0.959 . S
C845 H830 0.959 . S
C845 H831 0.961 . S
C845 C844 1.502 . S
C846 H832 0.960 . S
C846 H833 0.961 . S
C846 H834 0.959 . S
C846 C844 1.561 . S
C847 C844 1.526 . S
C847 C848 1.396 . S
C847 C852 1.390 . S
C848 C842 1.465 . S
C848 C847 1.396 . S
C848 C849 1.399 . S
C849 H835 0.929 . S
C849 C848 1.399 . S
C849 C850 1.385 . S
C850 H836 0.931 . S
C850 C849 1.385 . S
C850 C851 1.389 . S
C851 C850 1.389 . S
C851 C852 1.387 . S
C852 H837 0.930 . S
C852 C847 1.390 . S
C852 C851 1.387 . S
H853 C865 0.930 . S
H854 C867 0.930 . S
H855 C868 0.930 . S
H856 C872 0.959 . S
H857 C872 0.959 . S
H858 C872 0.961 . S
H859 C873 0.960 . S
H860 C873 0.961 . S
H861 C873 0.959 . S
H862 C876 0.929 . S
H863 C877 0.931 . S
H864 C879 0.930 . S
C865 H853 0.930 . S
C865 C866 1.399 . S
C865 C870 1.399 . S
C866 C865 1.399 . S
C866 C867 1.376 . S
C867 H854 0.930 . S
C867 C866 1.376 . S
C867 C868 1.388 . S
C868 H855 0.930 . S
C868 C867 1.388 . S
C868 C869 1.390 . S
C869 C868 1.390 . S
C869 C870 1.394 . S
C869 C875 1.465 . S
C870 C865 1.399 . S
C870 C869 1.394 . S
C870 C871 1.516 . S
C871 C870 1.516 . S
C871 C872 1.502 . S
C871 C873 1.561 . S
C871 C874 1.526 . S
C872 H856 0.959 . S
C872 H857 0.959 . S
C872 H858 0.961 . S
C872 C871 1.502 . S
C873 H859 0.960 . S
C873 H860 0.961 . S
C873 H861 0.959 . S
C873 C871 1.561 . S
C874 C871 1.526 . S
C874 C875 1.396 . S
C874 C879 1.390 . S
C875 C869 1.465 . S
C875 C874 1.396 . S
C875 C876 1.399 . S
C876 H862 0.929 . S
C876 C875 1.399 . S
C876 C877 1.385 . S
C877 H863 0.931 . S
C877 C876 1.385 . S
C877 C878 1.389 . S
C878 C877 1.389 . S
C878 C879 1.387 . S
C879 H864 0.930 . S
C879 C874 1.390 . S
C879 C878 1.387 . S
H880 C892 0.930 . S
H881 C894 0.930 . S
H882 C895 0.930 . S
H883 C899 0.962 . S
H884 C899 0.978 . S
H885 C899 0.940 1_655 S
H886 C900 0.958 1_655 S
H887 C900 0.962 . S
H888 C900 0.959 . S
H889 C903 0.929 . S
H890 C904 0.931 . S
H891 C906 0.930 . S
C892 H880 0.930 . S
C892 C893 1.399 . S
C892 C897 1.399 . S
C893 C892 1.399 . S
C893 C894 1.376 . S
C894 H881 0.930 . S
C894 C893 1.376 . S
C894 C895 1.388 . S
C895 H882 0.930 . S
C895 C894 1.388 . S
C895 C896 1.390 . S
C896 C895 1.390 . S
C896 C897 1.394 . S
C896 C902 1.465 1_655 S
C897 C892 1.399 . S
C897 C896 1.394 . S
C897 C898 1.518 1_655 S
C898 C897 1.518 1_455 S
C898 C899 1.502 . S
C898 C900 1.561 . S
C898 C901 1.524 . S
C899 H883 0.962 . S
C899 H884 0.978 . S
C899 H885 0.940 1_455 S
C899 C898 1.502 . S
C900 H886 0.958 1_455 S
C900 H887 0.962 . S
C900 H888 0.959 . S
C900 C898 1.561 . S
C901 C898 1.524 . S
C901 C902 1.396 . S
C901 C906 1.390 . S
C902 C896 1.465 1_455 S
C902 C901 1.396 . S
C902 C903 1.399 . S
C903 H889 0.929 . S
C903 C902 1.399 . S
C903 C904 1.385 . S
C904 H890 0.931 . S
C904 C903 1.385 . S
C904 C905 1.389 . S
C905 C904 1.389 . S
C905 C906 1.387 . S
C906 H891 0.930 . S
C906 C901 1.390 . S
C906 C905 1.387 . S
H907 C919 0.930 . S
H908 C921 0.930 . S
H909 C922 0.930 . S
H910 C926 0.962 . S
H911 C926 0.978 . S
H912 C926 0.940 1_545 S
H913 C927 0.958 1_545 S
H914 C927 0.962 . S
H915 C927 0.959 . S
H916 C930 0.929 . S
H917 C931 0.931 . S
H918 C933 0.930 . S
C919 H907 0.930 . S
C919 C920 1.399 . S
C919 C924 1.399 . S
C920 C919 1.399 . S
C920 C921 1.376 . S
C921 H908 0.930 . S
C921 C920 1.376 . S
C921 C922 1.388 . S
C922 H909 0.930 . S
C922 C921 1.388 . S
C922 C923 1.390 . S
C923 C922 1.390 . S
C923 C924 1.394 . S
C923 C929 1.465 1_545 S
C924 C919 1.399 . S
C924 C923 1.394 . S
C924 C925 1.518 1_545 S
C925 C924 1.518 1_565 S
C925 C926 1.502 . S
C925 C927 1.561 . S
C925 C928 1.524 . S
C926 H910 0.962 . S
C926 H911 0.978 . S
C926 H912 0.940 1_565 S
C926 C925 1.502 . S
C927 H913 0.958 1_565 S
C927 H914 0.962 . S
C927 H915 0.959 . S
C927 C925 1.561 . S
C928 C925 1.524 . S
C928 C929 1.396 . S
C928 C933 1.390 . S
C929 C923 1.465 1_565 S
C929 C928 1.396 . S
C929 C930 1.399 . S
C930 H916 0.929 . S
C930 C929 1.399 . S
C930 C931 1.385 . S
C931 H917 0.931 . S
C931 C930 1.385 . S
C931 C932 1.389 . S
C932 C931 1.389 . S
C932 C933 1.387 . S
C933 H918 0.930 . S
C933 C928 1.390 . S
C933 C932 1.387 . S
H934 C946 0.930 . S
H935 C948 0.930 . S
H936 C949 0.930 . S
H937 C953 0.962 . S
H938 C953 0.978 . S
H939 C953 0.940 1_455 S
H940 C954 0.958 1_455 S
H941 C954 0.962 . S
H942 C954 0.959 . S
H943 C957 0.929 . S
H944 C958 0.931 . S
H945 C960 0.930 . S
C946 H934 0.930 . S
C946 C947 1.399 . S
C946 C951 1.399 . S
C947 C946 1.399 . S
C947 C948 1.376 . S
C948 H935 0.930 . S
C948 C947 1.376 . S
C948 C949 1.388 . S
C949 H936 0.930 . S
C949 C948 1.388 . S
C949 C950 1.390 . S
C950 C949 1.390 . S
C950 C951 1.394 . S
C950 C956 1.465 1_455 S
C951 C946 1.399 . S
C951 C950 1.394 . S
C951 C952 1.518 1_455 S
C952 C951 1.518 1_655 S
C952 C953 1.502 . S
C952 C954 1.561 . S
C952 C955 1.524 . S
C953 H937 0.962 . S
C953 H938 0.978 . S
C953 H939 0.940 1_655 S
C953 C952 1.502 . S
C954 H940 0.958 1_655 S
C954 H941 0.962 . S
C954 H942 0.959 . S
C954 C952 1.561 . S
C955 C952 1.524 . S
C955 C956 1.396 . S
C955 C960 1.390 . S
C956 C950 1.465 1_655 S
C956 C955 1.396 . S
C956 C957 1.399 . S
C957 H943 0.929 . S
C957 C956 1.399 . S
C957 C958 1.385 . S
C958 H944 0.931 . S
C958 C957 1.385 . S
C958 C959 1.389 . S
C959 C958 1.389 . S
C959 C960 1.387 . S
C960 H945 0.930 . S
C960 C955 1.390 . S
C960 C959 1.387 . S
H961 C973 0.930 . S
H962 C975 0.930 . S
H963 C976 0.930 . S
H964 C980 0.962 . S
H965 C980 0.978 . S
H966 C980 0.940 1_565 S
H967 C981 0.958 1_565 S
H968 C981 0.962 . S
H969 C981 0.959 . S
H970 C984 0.929 . S
H971 C985 0.931 . S
H972 C987 0.930 . S
C973 H961 0.930 . S
C973 C974 1.399 . S
C973 C978 1.399 . S
C974 C973 1.399 . S
C974 C975 1.376 . S
C975 H962 0.930 . S
C975 C974 1.376 . S
C975 C976 1.388 . S
C976 H963 0.930 . S
C976 C975 1.388 . S
C976 C977 1.390 . S
C977 C976 1.390 . S
C977 C978 1.394 . S
C977 C983 1.465 1_565 S
C978 C973 1.399 . S
C978 C977 1.394 . S
C978 C979 1.518 1_565 S
C979 C978 1.518 1_545 S
C979 C980 1.502 . S
C979 C981 1.561 . S
C979 C982 1.524 . S
C980 H964 0.962 . S
C980 H965 0.978 . S
C980 H966 0.940 1_545 S
C980 C979 1.502 . S
C981 H967 0.958 1_545 S
C981 H968 0.962 . S
C981 H969 0.959 . S
C981 C979 1.561 . S
C982 C979 1.524 . S
C982 C983 1.396 . S
C982 C987 1.390 . S
C983 C977 1.465 1_545 S
C983 C982 1.396 . S
C983 C984 1.399 . S
C984 H970 0.929 . S
C984 C983 1.399 . S
C984 C985 1.385 . S
C985 H971 0.931 . S
C985 C984 1.385 . S
C985 C986 1.389 . S
C986 C985 1.389 . S
C986 C987 1.387 . S
C987 H972 0.930 . S
C987 C982 1.390 . S
C987 C986 1.387 . S
H988 C1000 0.930 . S
H989 C1002 0.930 . S
H990 C1003 0.930 . S
H991 C1007 0.962 . S
H992 C1007 0.978 . S
H993 C1007 0.940 1_455 S
H994 C1008 0.958 1_455 S
H995 C1008 0.962 . S
H996 C1008 0.959 . S
H997 C1011 0.929 . S
H998 C1012 0.931 . S
H999 C1014 0.930 . S
C1000 H988 0.930 . S
C1000 C1001 1.399 . S
C1000 C1005 1.399 . S
C1001 C1000 1.399 . S
C1001 C1002 1.376 . S
C1002 H989 0.930 . S
C1002 C1001 1.376 . S
C1002 C1003 1.388 . S
C1003 H990 0.930 . S
C1003 C1002 1.388 . S
C1003 C1004 1.390 . S
C1004 C1003 1.390 . S
C1004 C1005 1.394 . S
C1004 C1010 1.465 1_455 S
C1005 C1000 1.399 . S
C1005 C1004 1.394 . S
C1005 C1006 1.518 1_455 S
C1006 C1005 1.518 1_655 S
C1006 C1007 1.502 . S
C1006 C1008 1.561 . S
C1006 C1009 1.524 . S
C1007 H991 0.962 . S
C1007 H992 0.978 . S
C1007 H993 0.940 1_655 S
C1007 C1006 1.502 . S
C1008 H994 0.958 1_655 S
C1008 H995 0.962 . S
C1008 H996 0.959 . S
C1008 C1006 1.561 . S
C1009 C1006 1.524 . S
C1009 C1010 1.396 . S
C1009 C1014 1.390 . S
C1010 C1004 1.465 1_655 S
C1010 C1009 1.396 . S
C1010 C1011 1.399 . S
C1011 H997 0.929 . S
C1011 C1010 1.399 . S
C1011 C1012 1.385 . S
C1012 H998 0.931 . S
C1012 C1011 1.385 . S
C1012 C1013 1.389 . S
C1013 C1012 1.389 . S
C1013 C1014 1.387 . S
C1014 H999 0.930 . S
C1014 C1009 1.390 . S
C1014 C1013 1.387 . S
H1015 C1027 0.930 . S
H1016 C1029 0.930 . S
H1017 C1030 0.930 . S
H1018 C1034 0.962 . S
H1019 C1034 0.978 . S
H1020 C1034 0.940 1_565 S
H1021 C1035 0.958 1_565 S
H1022 C1035 0.962 . S
H1023 C1035 0.959 . S
H1024 C1038 0.929 . S
H1025 C1039 0.931 . S
H1026 C1041 0.930 . S
C1027 H1015 0.930 . S
C1027 C1028 1.399 . S
C1027 C1032 1.399 . S
C1028 C1027 1.399 . S
C1028 C1029 1.376 . S
C1029 H1016 0.930 . S
C1029 C1028 1.376 . S
C1029 C1030 1.388 . S
C1030 H1017 0.930 . S
C1030 C1029 1.388 . S
C1030 C1031 1.390 . S
C1031 C1030 1.390 . S
C1031 C1032 1.394 . S
C1031 C1037 1.465 1_565 S
C1032 C1027 1.399 . S
C1032 C1031 1.394 . S
C1032 C1033 1.518 1_565 S
C1033 C1032 1.518 1_545 S
C1033 C1034 1.502 . S
C1033 C1035 1.561 . S
C1033 C1036 1.524 . S
C1034 H1018 0.962 . S
C1034 H1019 0.978 . S
C1034 H1020 0.940 1_545 S
C1034 C1033 1.502 . S
C1035 H1021 0.958 1_545 S
C1035 H1022 0.962 . S
C1035 H1023 0.959 . S
C1035 C1033 1.561 . S
C1036 C1033 1.524 . S
C1036 C1037 1.396 . S
C1036 C1041 1.390 . S
C1037 C1031 1.465 1_545 S
C1037 C1036 1.396 . S
C1037 C1038 1.399 . S
C1038 H1024 0.929 . S
C1038 C1037 1.399 . S
C1038 C1039 1.385 . S
C1039 H1025 0.931 . S
C1039 C1038 1.385 . S
C1039 C1040 1.389 . S
C1040 C1039 1.389 . S
C1040 C1041 1.387 . S
C1041 H1026 0.930 . S
C1041 C1036 1.390 . S
C1041 C1040 1.387 . S
H1042 C1054 0.930 . S
H1043 C1056 0.930 . S
H1044 C1057 0.930 . S
H1045 C1061 0.962 . S
H1046 C1061 0.978 . S
H1047 C1061 0.940 1_455 S
H1048 C1062 0.958 1_455 S
H1049 C1062 0.962 . S
H1050 C1062 0.959 . S
H1051 C1065 0.929 . S
H1052 C1066 0.931 . S
H1053 C1068 0.930 . S
C1054 H1042 0.930 . S
C1054 C1055 1.399 . S
C1054 C1059 1.399 . S
C1055 C1054 1.399 . S
C1055 C1056 1.376 . S
C1056 H1043 0.930 . S
C1056 C1055 1.376 . S
C1056 C1057 1.388 . S
C1057 H1044 0.930 . S
C1057 C1056 1.388 . S
C1057 C1058 1.390 . S
C1058 C1057 1.390 . S
C1058 C1059 1.394 . S
C1058 C1064 1.465 1_455 S
C1059 C1054 1.399 . S
C1059 C1058 1.394 . S
C1059 C1060 1.518 1_455 S
C1060 C1059 1.518 1_655 S
C1060 C1061 1.502 . S
C1060 C1062 1.561 . S
C1060 C1063 1.524 . S
C1061 H1045 0.962 . S
C1061 H1046 0.978 . S
C1061 H1047 0.940 1_655 S
C1061 C1060 1.502 . S
C1062 H1048 0.958 1_655 S
C1062 H1049 0.962 . S
C1062 H1050 0.959 . S
C1062 C1060 1.561 . S
C1063 C1060 1.524 . S
C1063 C1064 1.396 . S
C1063 C1068 1.390 . S
C1064 C1058 1.465 1_655 S
C1064 C1063 1.396 . S
C1064 C1065 1.399 . S
C1065 H1051 0.929 . S
C1065 C1064 1.399 . S
C1065 C1066 1.385 . S
C1066 H1052 0.931 . S
C1066 C1065 1.385 . S
C1066 C1067 1.389 . S
C1067 C1066 1.389 . S
C1067 C1068 1.387 . S
C1068 H1053 0.930 . S
C1068 C1063 1.390 . S
C1068 C1067 1.387 . S
H1069 C1081 0.930 . S
H1070 C1083 0.930 . S
H1071 C1084 0.930 . S
H1072 C1088 0.962 . S
H1073 C1088 0.978 . S
H1074 C1088 0.940 1_545 S
H1075 C1089 0.958 1_545 S
H1076 C1089 0.962 . S
H1077 C1089 0.959 . S
H1078 C1092 0.929 . S
H1079 C1093 0.931 . S
H1080 C1095 0.930 . S
C1081 H1069 0.930 . S
C1081 C1082 1.399 . S
C1081 C1086 1.399 . S
C1082 C1081 1.399 . S
C1082 C1083 1.376 . S
C1083 H1070 0.930 . S
C1083 C1082 1.376 . S
C1083 C1084 1.388 . S
C1084 H1071 0.930 . S
C1084 C1083 1.388 . S
C1084 C1085 1.390 . S
C1085 C1084 1.390 . S
C1085 C1086 1.394 . S
C1085 C1091 1.465 1_545 S
C1086 C1081 1.399 . S
C1086 C1085 1.394 . S
C1086 C1087 1.518 1_545 S
C1087 C1086 1.518 1_565 S
C1087 C1088 1.502 . S
C1087 C1089 1.561 . S
C1087 C1090 1.524 . S
C1088 H1072 0.962 . S
C1088 H1073 0.978 . S
C1088 H1074 0.940 1_565 S
C1088 C1087 1.502 . S
C1089 H1075 0.958 1_565 S
C1089 H1076 0.962 . S
C1089 H1077 0.959 . S
C1089 C1087 1.561 . S
C1090 C1087 1.524 . S
C1090 C1091 1.396 . S
C1090 C1095 1.390 . S
C1091 C1085 1.465 1_565 S
C1091 C1090 1.396 . S
C1091 C1092 1.399 . S
C1092 H1078 0.929 . S
C1092 C1091 1.399 . S
C1092 C1093 1.385 . S
C1093 H1079 0.931 . S
C1093 C1092 1.385 . S
C1093 C1094 1.389 . S
C1094 C1093 1.389 . S
C1094 C1095 1.387 . S
C1095 H1080 0.930 . S
C1095 C1090 1.390 . S
C1095 C1094 1.387 . S
H1096 C1108 0.930 . S
H1097 C1110 0.930 . S
H1098 C1111 0.930 . S
H1099 C1115 0.959 . S
H1100 C1115 0.959 . S
H1101 C1115 0.961 . S
H1102 C1116 0.960 . S
H1103 C1116 0.961 . S
H1104 C1116 0.959 . S
H1105 C1119 0.929 . S
H1106 C1120 0.931 . S
H1107 C1122 0.930 . S
C1108 H1096 0.930 . S
C1108 C1109 1.399 . S
C1108 C1113 1.399 . S
C1109 C1108 1.399 . S
C1109 C1110 1.376 . S
C1110 H1097 0.930 . S
C1110 C1109 1.376 . S
C1110 C1111 1.388 . S
C1111 H1098 0.930 . S
C1111 C1110 1.388 . S
C1111 C1112 1.390 . S
C1112 C1111 1.390 . S
C1112 C1113 1.394 . S
C1112 C1118 1.465 . S
C1113 C1108 1.399 . S
C1113 C1112 1.394 . S
C1113 C1114 1.516 . S
C1114 C1113 1.516 . S
C1114 C1115 1.502 . S
C1114 C1116 1.561 . S
C1114 C1117 1.526 . S
C1115 H1099 0.959 . S
C1115 H1100 0.959 . S
C1115 H1101 0.961 . S
C1115 C1114 1.502 . S
C1116 H1102 0.960 . S
C1116 H1103 0.961 . S
C1116 H1104 0.959 . S
C1116 C1114 1.561 . S
C1117 C1114 1.526 . S
C1117 C1118 1.396 . S
C1117 C1122 1.390 . S
C1118 C1112 1.465 . S
C1118 C1117 1.396 . S
C1118 C1119 1.399 . S
C1119 H1105 0.929 . S
C1119 C1118 1.399 . S
C1119 C1120 1.385 . S
C1120 H1106 0.931 . S
C1120 C1119 1.385 . S
C1120 C1121 1.389 . S
C1121 C1120 1.389 . S
C1121 C1122 1.387 . S
C1122 H1107 0.930 . S
C1122 C1117 1.390 . S
C1122 C1121 1.387 . S
H1123 C1135 0.930 . S
H1124 C1137 0.930 . S
H1125 C1138 0.930 . S
H1126 C1142 0.959 . S
H1127 C1142 0.959 . S
H1128 C1142 0.961 . S
H1129 C1143 0.960 . S
H1130 C1143 0.961 . S
H1131 C1143 0.959 . S
H1132 C1146 0.929 . S
H1133 C1147 0.931 . S
H1134 C1149 0.930 . S
C1135 H1123 0.930 . S
C1135 C1136 1.399 . S
C1135 C1140 1.399 . S
C1136 C1135 1.399 . S
C1136 C1137 1.376 . S
C1137 H1124 0.930 . S
C1137 C1136 1.376 . S
C1137 C1138 1.388 . S
C1138 H1125 0.930 . S
C1138 C1137 1.388 . S
C1138 C1139 1.390 . S
C1139 C1138 1.390 . S
C1139 C1140 1.394 . S
C1139 C1145 1.465 . S
C1140 C1135 1.399 . S
C1140 C1139 1.394 . S
C1140 C1141 1.516 . S
C1141 C1140 1.516 . S
C1141 C1142 1.502 . S
C1141 C1143 1.561 . S
C1141 C1144 1.526 . S
C1142 H1126 0.959 . S
C1142 H1127 0.959 . S
C1142 H1128 0.961 . S
C1142 C1141 1.502 . S
C1143 H1129 0.960 . S
C1143 H1130 0.961 . S
C1143 H1131 0.959 . S
C1143 C1141 1.561 . S
C1144 C1141 1.526 . S
C1144 C1145 1.396 . S
C1144 C1149 1.390 . S
C1145 C1139 1.465 . S
C1145 C1144 1.396 . S
C1145 C1146 1.399 . S
C1146 H1132 0.929 . S
C1146 C1145 1.399 . S
C1146 C1147 1.385 . S
C1147 H1133 0.931 . S
C1147 C1146 1.385 . S
C1147 C1148 1.389 . S
C1148 C1147 1.389 . S
C1148 C1149 1.387 . S
C1149 H1134 0.930 . S
C1149 C1144 1.390 . S
C1149 C1148 1.387 . S
H1150 C1162 0.930 . S
H1151 C1164 0.930 . S
H1152 C1165 0.930 . S
H1153 C1169 0.959 . S
H1154 C1169 0.959 . S
H1155 C1169 0.961 . S
H1156 C1170 0.960 . S
H1157 C1170 0.961 . S
H1158 C1170 0.959 . S
H1159 C1173 0.929 . S
H1160 C1174 0.931 . S
H1161 C1176 0.930 . S
C1162 H1150 0.930 . S
C1162 C1163 1.399 . S
C1162 C1167 1.399 . S
C1163 C1162 1.399 . S
C1163 C1164 1.376 . S
C1164 H1151 0.930 . S
C1164 C1163 1.376 . S
C1164 C1165 1.388 . S
C1165 H1152 0.930 . S
C1165 C1164 1.388 . S
C1165 C1166 1.390 . S
C1166 C1165 1.390 . S
C1166 C1167 1.394 . S
C1166 C1172 1.465 . S
C1167 C1162 1.399 . S
C1167 C1166 1.394 . S
C1167 C1168 1.516 . S
C1168 C1167 1.516 . S
C1168 C1169 1.502 . S
C1168 C1170 1.561 . S
C1168 C1171 1.526 . S
C1169 H1153 0.959 . S
C1169 H1154 0.959 . S
C1169 H1155 0.961 . S
C1169 C1168 1.502 . S
C1170 H1156 0.960 . S
C1170 H1157 0.961 . S
C1170 H1158 0.959 . S
C1170 C1168 1.561 . S
C1171 C1168 1.526 . S
C1171 C1172 1.396 . S
C1171 C1176 1.390 . S
C1172 C1166 1.465 . S
C1172 C1171 1.396 . S
C1172 C1173 1.399 . S
C1173 H1159 0.929 . S
C1173 C1172 1.399 . S
C1173 C1174 1.385 . S
C1174 H1160 0.931 . S
C1174 C1173 1.385 . S
C1174 C1175 1.389 . S
C1175 C1174 1.389 . S
C1175 C1176 1.387 . S
C1176 H1161 0.930 . S
C1176 C1171 1.390 . S
C1176 C1175 1.387 . S
H1177 C1189 0.930 . S
H1178 C1191 0.930 . S
H1179 C1192 0.930 . S
H1180 C1196 0.959 . S
H1181 C1196 0.959 . S
H1182 C1196 0.961 . S
H1183 C1197 0.960 . S
H1184 C1197 0.961 . S
H1185 C1197 0.959 . S
H1186 C1200 0.929 . S
H1187 C1201 0.931 . S
H1188 C1203 0.930 . S
C1189 H1177 0.930 . S
C1189 C1190 1.399 . S
C1189 C1194 1.399 . S
C1190 C1189 1.399 . S
C1190 C1191 1.376 . S
C1191 H1178 0.930 . S
C1191 C1190 1.376 . S
C1191 C1192 1.388 . S
C1192 H1179 0.930 . S
C1192 C1191 1.388 . S
C1192 C1193 1.390 . S
C1193 C1192 1.390 . S
C1193 C1194 1.394 . S
C1193 C1199 1.465 . S
C1194 C1189 1.399 . S
C1194 C1193 1.394 . S
C1194 C1195 1.516 . S
C1195 C1194 1.516 . S
C1195 C1196 1.502 . S
C1195 C1197 1.561 . S
C1195 C1198 1.526 . S
C1196 H1180 0.959 . S
C1196 H1181 0.959 . S
C1196 H1182 0.961 . S
C1196 C1195 1.502 . S
C1197 H1183 0.960 . S
C1197 H1184 0.961 . S
C1197 H1185 0.959 . S
C1197 C1195 1.561 . S
C1198 C1195 1.526 . S
C1198 C1199 1.396 . S
C1198 C1203 1.390 . S
C1199 C1193 1.465 . S
C1199 C1198 1.396 . S
C1199 C1200 1.399 . S
C1200 H1186 0.929 . S
C1200 C1199 1.399 . S
C1200 C1201 1.385 . S
C1201 H1187 0.931 . S
C1201 C1200 1.385 . S
C1201 C1202 1.389 . S
C1202 C1201 1.389 . S
C1202 C1203 1.387 . S
C1203 H1188 0.930 . S
C1203 C1198 1.390 . S
C1203 C1202 1.387 . S
H1204 C1216 0.930 . S
H1205 C1218 0.930 . S
H1206 C1219 0.930 . S
H1207 C1223 0.959 . S
H1208 C1223 0.959 . S
H1209 C1223 0.961 . S
H1210 C1224 0.960 . S
H1211 C1224 0.961 . S
H1212 C1224 0.959 . S
H1213 C1227 0.929 . S
H1214 C1228 0.931 . S
H1215 C1230 0.930 . S
C1216 H1204 0.930 . S
C1216 C1217 1.399 . S
C1216 C1221 1.399 . S
C1217 C1216 1.399 . S
C1217 C1218 1.376 . S
C1218 H1205 0.930 . S
C1218 C1217 1.376 . S
C1218 C1219 1.388 . S
C1219 H1206 0.930 . S
C1219 C1218 1.388 . S
C1219 C1220 1.390 . S
C1220 C1219 1.390 . S
C1220 C1221 1.394 . S
C1220 C1226 1.465 . S
C1221 C1216 1.399 . S
C1221 C1220 1.394 . S
C1221 C1222 1.516 . S
C1222 C1221 1.516 . S
C1222 C1223 1.502 . S
C1222 C1224 1.561 . S
C1222 C1225 1.526 . S
C1223 H1207 0.959 . S
C1223 H1208 0.959 . S
C1223 H1209 0.961 . S
C1223 C1222 1.502 . S
C1224 H1210 0.960 . S
C1224 H1211 0.961 . S
C1224 H1212 0.959 . S
C1224 C1222 1.561 . S
C1225 C1222 1.526 . S
C1225 C1226 1.396 . S
C1225 C1230 1.390 . S
C1226 C1220 1.465 . S
C1226 C1225 1.396 . S
C1226 C1227 1.399 . S
C1227 H1213 0.929 . S
C1227 C1226 1.399 . S
C1227 C1228 1.385 . S
C1228 H1214 0.931 . S
C1228 C1227 1.385 . S
C1228 C1229 1.389 . S
C1229 C1228 1.389 . S
C1229 C1230 1.387 . S
C1230 H1215 0.930 . S
C1230 C1225 1.390 . S
C1230 C1229 1.387 . S
H1231 C1243 0.930 . S
H1232 C1245 0.930 . S
H1233 C1246 0.930 . S
H1234 C1250 0.959 . S
H1235 C1250 0.959 . S
H1236 C1250 0.961 . S
H1237 C1251 0.960 . S
H1238 C1251 0.961 . S
H1239 C1251 0.959 . S
H1240 C1254 0.929 . S
H1241 C1255 0.931 . S
H1242 C1257 0.930 . S
C1243 H1231 0.930 . S
C1243 C1244 1.399 . S
C1243 C1248 1.399 . S
C1244 C1243 1.399 . S
C1244 C1245 1.376 . S
C1245 H1232 0.930 . S
C1245 C1244 1.376 . S
C1245 C1246 1.388 . S
C1246 H1233 0.930 . S
C1246 C1245 1.388 . S
C1246 C1247 1.390 . S
C1247 C1246 1.390 . S
C1247 C1248 1.394 . S
C1247 C1253 1.465 . S
C1248 C1243 1.399 . S
C1248 C1247 1.394 . S
C1248 C1249 1.516 . S
C1249 C1248 1.516 . S
C1249 C1250 1.502 . S
C1249 C1251 1.561 . S
C1249 C1252 1.526 . S
C1250 H1234 0.959 . S
C1250 H1235 0.959 . S
C1250 H1236 0.961 . S
C1250 C1249 1.502 . S
C1251 H1237 0.960 . S
C1251 H1238 0.961 . S
C1251 H1239 0.959 . S
C1251 C1249 1.561 . S
C1252 C1249 1.526 . S
C1252 C1253 1.396 . S
C1252 C1257 1.390 . S
C1253 C1247 1.465 . S
C1253 C1252 1.396 . S
C1253 C1254 1.399 . S
C1254 H1240 0.929 . S
C1254 C1253 1.399 . S
C1254 C1255 1.385 . S
C1255 H1241 0.931 . S
C1255 C1254 1.385 . S
C1255 C1256 1.389 . S
C1256 C1255 1.389 . S
C1256 C1257 1.387 . S
C1257 H1242 0.930 . S
C1257 C1252 1.390 . S
C1257 C1256 1.387 . S
H1258 C1270 0.930 . S
H1259 C1272 0.930 . S
H1260 C1273 0.930 . S
H1261 C1277 0.959 . S
H1262 C1277 0.959 . S
H1263 C1277 0.961 . S
H1264 C1278 0.960 . S
H1265 C1278 0.961 . S
H1266 C1278 0.959 . S
H1267 C1281 0.929 . S
H1268 C1282 0.931 . S
H1269 C1284 0.930 . S
C1270 H1258 0.930 . S
C1270 C1271 1.399 . S
C1270 C1275 1.399 . S
C1271 C1270 1.399 . S
C1271 C1272 1.376 . S
C1272 H1259 0.930 . S
C1272 C1271 1.376 . S
C1272 C1273 1.388 . S
C1273 H1260 0.930 . S
C1273 C1272 1.388 . S
C1273 C1274 1.390 . S
C1274 C1273 1.390 . S
C1274 C1275 1.394 . S
C1274 C1280 1.465 . S
C1275 C1270 1.399 . S
C1275 C1274 1.394 . S
C1275 C1276 1.516 . S
C1276 C1275 1.516 . S
C1276 C1277 1.502 . S
C1276 C1278 1.561 . S
C1276 C1279 1.526 . S
C1277 H1261 0.959 . S
C1277 H1262 0.959 . S
C1277 H1263 0.961 . S
C1277 C1276 1.502 . S
C1278 H1264 0.960 . S
C1278 H1265 0.961 . S
C1278 H1266 0.959 . S
C1278 C1276 1.561 . S
C1279 C1276 1.526 . S
C1279 C1280 1.396 . S
C1279 C1284 1.390 . S
C1280 C1274 1.465 . S
C1280 C1279 1.396 . S
C1280 C1281 1.399 . S
C1281 H1267 0.929 . S
C1281 C1280 1.399 . S
C1281 C1282 1.385 . S
C1282 H1268 0.931 . S
C1282 C1281 1.385 . S
C1282 C1283 1.389 . S
C1283 C1282 1.389 . S
C1283 C1284 1.387 . S
C1284 H1269 0.930 . S
C1284 C1279 1.390 . S
C1284 C1283 1.387 . S
H1285 C1297 0.930 . S
H1286 C1299 0.930 . S
H1287 C1300 0.930 . S
H1288 C1304 0.959 . S
H1289 C1304 0.959 . S
H1290 C1304 0.961 . S
H1291 C1305 0.960 . S
H1292 C1305 0.961 . S
H1293 C1305 0.959 . S
H1294 C1308 0.929 . S
H1295 C1309 0.931 . S
H1296 C1311 0.930 . S
C1297 H1285 0.930 . S
C1297 C1298 1.399 . S
C1297 C1302 1.399 . S
C1298 C1297 1.399 . S
C1298 C1299 1.376 . S
C1299 H1286 0.930 . S
C1299 C1298 1.376 . S
C1299 C1300 1.388 . S
C1300 H1287 0.930 . S
C1300 C1299 1.388 . S
C1300 C1301 1.390 . S
C1301 C1300 1.390 . S
C1301 C1302 1.394 . S
C1301 C1307 1.465 . S
C1302 C1297 1.399 . S
C1302 C1301 1.394 . S
C1302 C1303 1.516 . S
C1303 C1302 1.516 . S
C1303 C1304 1.502 . S
C1303 C1305 1.561 . S
C1303 C1306 1.526 . S
C1304 H1288 0.959 . S
C1304 H1289 0.959 . S
C1304 H1290 0.961 . S
C1304 C1303 1.502 . S
C1305 H1291 0.960 . S
C1305 H1292 0.961 . S
C1305 H1293 0.959 . S
C1305 C1303 1.561 . S
C1306 C1303 1.526 . S
C1306 C1307 1.396 . S
C1306 C1311 1.390 . S
C1307 C1301 1.465 . S
C1307 C1306 1.396 . S
C1307 C1308 1.399 . S
C1308 H1294 0.929 . S
C1308 C1307 1.399 . S
C1308 C1309 1.385 . S
C1309 H1295 0.931 . S
C1309 C1308 1.385 . S
C1309 C1310 1.389 . S
C1310 C1309 1.389 . S
C1310 C1311 1.387 . S
C1311 H1296 0.930 . S
C1311 C1306 1.390 . S
C1311 C1310 1.387 . S
H1312 C1324 0.930 . S
H1313 C1326 0.930 . S
H1314 C1327 0.930 . S
H1315 C1331 0.959 . S
H1316 C1331 0.959 . S
H1317 C1331 0.961 . S
H1318 C1332 0.960 . S
H1319 C1332 0.961 . S
H1320 C1332 0.959 . S
H1321 C1335 0.929 . S
H1322 C1336 0.931 . S
H1323 C1338 0.930 . S
C1324 H1312 0.930 . S
C1324 C1325 1.399 . S
C1324 C1329 1.399 . S
C1325 C1324 1.399 . S
C1325 C1326 1.376 . S
C1326 H1313 0.930 . S
C1326 C1325 1.376 . S
C1326 C1327 1.388 . S
C1327 H1314 0.930 . S
C1327 C1326 1.388 . S
C1327 C1328 1.390 . S
C1328 C1327 1.390 . S
C1328 C1329 1.394 . S
C1328 C1334 1.465 . S
C1329 C1324 1.399 . S
C1329 C1328 1.394 . S
C1329 C1330 1.516 . S
C1330 C1329 1.516 . S
C1330 C1331 1.502 . S
C1330 C1332 1.561 . S
C1330 C1333 1.526 . S
C1331 H1315 0.959 . S
C1331 H1316 0.959 . S
C1331 H1317 0.961 . S
C1331 C1330 1.502 . S
C1332 H1318 0.960 . S
C1332 H1319 0.961 . S
C1332 H1320 0.959 . S
C1332 C1330 1.561 . S
C1333 C1330 1.526 . S
C1333 C1334 1.396 . S
C1333 C1338 1.390 . S
C1334 C1328 1.465 . S
C1334 C1333 1.396 . S
C1334 C1335 1.399 . S
C1335 H1321 0.929 . S
C1335 C1334 1.399 . S
C1335 C1336 1.385 . S
C1336 H1322 0.931 . S
C1336 C1335 1.385 . S
C1336 C1337 1.389 . S
C1337 C1336 1.389 . S
C1337 C1338 1.387 . S
C1338 H1323 0.930 . S
C1338 C1333 1.390 . S
C1338 C1337 1.387 . S
H1339 C1351 0.930 . S
H1340 C1353 0.930 . S
H1341 C1354 0.930 . S
H1342 C1358 0.959 . S
H1343 C1358 0.959 . S
H1344 C1358 0.961 . S
H1345 C1359 0.960 . S
H1346 C1359 0.961 . S
H1347 C1359 0.959 . S
H1348 C1362 0.929 . S
H1349 C1363 0.931 . S
H1350 C1365 0.930 . S
C1351 H1339 0.930 . S
C1351 C1352 1.399 . S
C1351 C1356 1.399 . S
C1352 C1351 1.399 . S
C1352 C1353 1.376 . S
C1353 H1340 0.930 . S
C1353 C1352 1.376 . S
C1353 C1354 1.388 . S
C1354 H1341 0.930 . S
C1354 C1353 1.388 . S
C1354 C1355 1.390 . S
C1355 C1354 1.390 . S
C1355 C1356 1.394 . S
C1355 C1361 1.465 . S
C1356 C1351 1.399 . S
C1356 C1355 1.394 . S
C1356 C1357 1.516 . S
C1357 C1356 1.516 . S
C1357 C1358 1.502 . S
C1357 C1359 1.561 . S
C1357 C1360 1.526 . S
C1358 H1342 0.959 . S
C1358 H1343 0.959 . S
C1358 H1344 0.961 . S
C1358 C1357 1.502 . S
C1359 H1345 0.960 . S
C1359 H1346 0.961 . S
C1359 H1347 0.959 . S
C1359 C1357 1.561 . S
C1360 C1357 1.526 . S
C1360 C1361 1.396 . S
C1360 C1365 1.390 . S
C1361 C1355 1.465 . S
C1361 C1360 1.396 . S
C1361 C1362 1.399 . S
C1362 H1348 0.929 . S
C1362 C1361 1.399 . S
C1362 C1363 1.385 . S
C1363 H1349 0.931 . S
C1363 C1362 1.385 . S
C1363 C1364 1.389 . S
C1364 C1363 1.389 . S
C1364 C1365 1.387 . S
C1365 H1350 0.930 . S
C1365 C1360 1.390 . S
C1365 C1364 1.387 . S
H1366 C1378 0.930 . S
H1367 C1380 0.930 . S
H1368 C1381 0.930 . S
H1369 C1385 0.959 . S
H1370 C1385 0.959 . S
H1371 C1385 0.961 . S
H1372 C1386 0.960 . S
H1373 C1386 0.961 . S
H1374 C1386 0.959 . S
H1375 C1389 0.929 . S
H1376 C1390 0.931 . S
H1377 C1392 0.930 . S
C1378 H1366 0.930 . S
C1378 C1379 1.399 . S
C1378 C1383 1.399 . S
C1379 C1378 1.399 . S
C1379 C1380 1.376 . S
C1380 H1367 0.930 . S
C1380 C1379 1.376 . S
C1380 C1381 1.388 . S
C1381 H1368 0.930 . S
C1381 C1380 1.388 . S
C1381 C1382 1.390 . S
C1382 C1381 1.390 . S
C1382 C1383 1.394 . S
C1382 C1388 1.465 . S
C1383 C1378 1.399 . S
C1383 C1382 1.394 . S
C1383 C1384 1.516 . S
C1384 C1383 1.516 . S
C1384 C1385 1.502 . S
C1384 C1386 1.561 . S
C1384 C1387 1.526 . S
C1385 H1369 0.959 . S
C1385 H1370 0.959 . S
C1385 H1371 0.961 . S
C1385 C1384 1.502 . S
C1386 H1372 0.960 . S
C1386 H1373 0.961 . S
C1386 H1374 0.959 . S
C1386 C1384 1.561 . S
C1387 C1384 1.526 . S
C1387 C1388 1.396 . S
C1387 C1392 1.390 . S
C1388 C1382 1.465 . S
C1388 C1387 1.396 . S
C1388 C1389 1.399 . S
C1389 H1375 0.929 . S
C1389 C1388 1.399 . S
C1389 C1390 1.385 . S
C1390 H1376 0.931 . S
C1390 C1389 1.385 . S
C1390 C1391 1.389 . S
C1391 C1390 1.389 . S
C1391 C1392 1.387 . S
C1392 H1377 0.930 . S
C1392 C1387 1.390 . S
C1392 C1391 1.387 . S
H1393 C1405 0.930 . S
H1394 C1407 0.930 . S
H1395 C1408 0.930 . S
H1396 C1412 0.959 . S
H1397 C1412 0.959 . S
H1398 C1412 0.961 . S
H1399 C1413 0.960 . S
H1400 C1413 0.961 . S
H1401 C1413 0.959 . S
H1402 C1416 0.929 . S
H1403 C1417 0.931 . S
H1404 C1419 0.930 . S
C1405 H1393 0.930 . S
C1405 C1406 1.399 . S
C1405 C1410 1.399 . S
C1406 C1405 1.399 . S
C1406 C1407 1.376 . S
C1407 H1394 0.930 . S
C1407 C1406 1.376 . S
C1407 C1408 1.388 . S
C1408 H1395 0.930 . S
C1408 C1407 1.388 . S
C1408 C1409 1.390 . S
C1409 C1408 1.390 . S
C1409 C1410 1.394 . S
C1409 C1415 1.465 . S
C1410 C1405 1.399 . S
C1410 C1409 1.394 . S
C1410 C1411 1.516 . S
C1411 C1410 1.516 . S
C1411 C1412 1.502 . S
C1411 C1413 1.561 . S
C1411 C1414 1.526 . S
C1412 H1396 0.959 . S
C1412 H1397 0.959 . S
C1412 H1398 0.961 . S
C1412 C1411 1.502 . S
C1413 H1399 0.960 . S
C1413 H1400 0.961 . S
C1413 H1401 0.959 . S
C1413 C1411 1.561 . S
C1414 C1411 1.526 . S
C1414 C1415 1.396 . S
C1414 C1419 1.390 . S
C1415 C1409 1.465 . S
C1415 C1414 1.396 . S
C1415 C1416 1.399 . S
C1416 H1402 0.929 . S
C1416 C1415 1.399 . S
C1416 C1417 1.385 . S
C1417 H1403 0.931 . S
C1417 C1416 1.385 . S
C1417 C1418 1.389 . S
C1418 C1417 1.389 . S
C1418 C1419 1.387 . S
C1419 H1404 0.930 . S
C1419 C1414 1.390 . S
C1419 C1418 1.387 . S
H1420 C1432 0.930 . S
H1421 C1434 0.930 . S
H1422 C1435 0.930 . S
H1423 C1439 0.959 . S
H1424 C1439 0.959 . S
H1425 C1439 0.961 . S
H1426 C1440 0.960 . S
H1427 C1440 0.961 . S
H1428 C1440 0.959 . S
H1429 C1443 0.929 . S
H1430 C1444 0.931 . S
H1431 C1446 0.930 . S
C1432 H1420 0.930 . S
C1432 C1433 1.399 . S
C1432 C1437 1.399 . S
C1433 C1432 1.399 . S
C1433 C1434 1.376 . S
C1434 H1421 0.930 . S
C1434 C1433 1.376 . S
C1434 C1435 1.388 . S
C1435 H1422 0.930 . S
C1435 C1434 1.388 . S
C1435 C1436 1.390 . S
C1436 C1435 1.390 . S
C1436 C1437 1.394 . S
C1436 C1442 1.465 . S
C1437 C1432 1.399 . S
C1437 C1436 1.394 . S
C1437 C1438 1.516 . S
C1438 C1437 1.516 . S
C1438 C1439 1.502 . S
C1438 C1440 1.561 . S
C1438 C1441 1.526 . S
C1439 H1423 0.959 . S
C1439 H1424 0.959 . S
C1439 H1425 0.961 . S
C1439 C1438 1.502 . S
C1440 H1426 0.960 . S
C1440 H1427 0.961 . S
C1440 H1428 0.959 . S
C1440 C1438 1.561 . S
C1441 C1438 1.526 . S
C1441 C1442 1.396 . S
C1441 C1446 1.390 . S
C1442 C1436 1.465 . S
C1442 C1441 1.396 . S
C1442 C1443 1.399 . S
C1443 H1429 0.929 . S
C1443 C1442 1.399 . S
C1443 C1444 1.385 . S
C1444 H1430 0.931 . S
C1444 C1443 1.385 . S
C1444 C1445 1.389 . S
C1445 C1444 1.389 . S
C1445 C1446 1.387 . S
C1446 H1431 0.930 . S
C1446 C1441 1.390 . S
C1446 C1445 1.387 . S
H1447 C1459 0.930 . S
H1448 C1461 0.930 . S
H1449 C1462 0.930 . S
H1450 C1466 0.959 . S
H1451 C1466 0.959 . S
H1452 C1466 0.961 . S
H1453 C1467 0.960 . S
H1454 C1467 0.961 . S
H1455 C1467 0.959 . S
H1456 C1470 0.929 . S
H1457 C1471 0.931 . S
H1458 C1473 0.930 . S
C1459 H1447 0.930 . S
C1459 C1460 1.399 . S
C1459 C1464 1.399 . S
C1460 C1459 1.399 . S
C1460 C1461 1.376 . S
C1461 H1448 0.930 . S
C1461 C1460 1.376 . S
C1461 C1462 1.388 . S
C1462 H1449 0.930 . S
C1462 C1461 1.388 . S
C1462 C1463 1.390 . S
C1463 C1462 1.390 . S
C1463 C1464 1.394 . S
C1463 C1469 1.465 . S
C1464 C1459 1.399 . S
C1464 C1463 1.394 . S
C1464 C1465 1.516 . S
C1465 C1464 1.516 . S
C1465 C1466 1.502 . S
C1465 C1467 1.561 . S
C1465 C1468 1.526 . S
C1466 H1450 0.959 . S
C1466 H1451 0.959 . S
C1466 H1452 0.961 . S
C1466 C1465 1.502 . S
C1467 H1453 0.960 . S
C1467 H1454 0.961 . S
C1467 H1455 0.959 . S
C1467 C1465 1.561 . S
C1468 C1465 1.526 . S
C1468 C1469 1.396 . S
C1468 C1473 1.390 . S
C1469 C1463 1.465 . S
C1469 C1468 1.396 . S
C1469 C1470 1.399 . S
C1470 H1456 0.929 . S
C1470 C1469 1.399 . S
C1470 C1471 1.385 . S
C1471 H1457 0.931 . S
C1471 C1470 1.385 . S
C1471 C1472 1.389 . S
C1472 C1471 1.389 . S
C1472 C1473 1.387 . S
C1473 H1458 0.930 . S
C1473 C1468 1.390 . S
C1473 C1472 1.387 . S
H1474 C1486 0.930 . S
H1475 C1488 0.930 . S
H1476 C1489 0.930 . S
H1477 C1493 0.959 . S
H1478 C1493 0.959 . S
H1479 C1493 0.961 . S
H1480 C1494 0.960 . S
H1481 C1494 0.961 . S
H1482 C1494 0.959 . S
H1483 C1497 0.929 . S
H1484 C1498 0.931 . S
H1485 C1500 0.930 . S
C1486 H1474 0.930 . S
C1486 C1487 1.399 . S
C1486 C1491 1.399 . S
C1487 C1486 1.399 . S
C1487 C1488 1.376 . S
C1488 H1475 0.930 . S
C1488 C1487 1.376 . S
C1488 C1489 1.388 . S
C1489 H1476 0.930 . S
C1489 C1488 1.388 . S
C1489 C1490 1.390 . S
C1490 C1489 1.390 . S
C1490 C1491 1.394 . S
C1490 C1496 1.465 . S
C1491 C1486 1.399 . S
C1491 C1490 1.394 . S
C1491 C1492 1.516 . S
C1492 C1491 1.516 . S
C1492 C1493 1.502 . S
C1492 C1494 1.561 . S
C1492 C1495 1.526 . S
C1493 H1477 0.959 . S
C1493 H1478 0.959 . S
C1493 H1479 0.961 . S
C1493 C1492 1.502 . S
C1494 H1480 0.960 . S
C1494 H1481 0.961 . S
C1494 H1482 0.959 . S
C1494 C1492 1.561 . S
C1495 C1492 1.526 . S
C1495 C1496 1.396 . S
C1495 C1500 1.390 . S
C1496 C1490 1.465 . S
C1496 C1495 1.396 . S
C1496 C1497 1.399 . S
C1497 H1483 0.929 . S
C1497 C1496 1.399 . S
C1497 C1498 1.385 . S
C1498 H1484 0.931 . S
C1498 C1497 1.385 . S
C1498 C1499 1.389 . S
C1499 C1498 1.389 . S
C1499 C1500 1.387 . S
C1500 H1485 0.930 . S
C1500 C1495 1.390 . S
C1500 C1499 1.387 . S
H1501 C1513 0.930 . S
H1502 C1515 0.930 . S
H1503 C1516 0.930 . S
H1504 C1520 0.959 . S
H1505 C1520 0.959 . S
H1506 C1520 0.961 . S
H1507 C1521 0.960 . S
H1508 C1521 0.961 . S
H1509 C1521 0.959 . S
H1510 C1524 0.929 . S
H1511 C1525 0.931 . S
H1512 C1527 0.930 . S
C1513 H1501 0.930 . S
C1513 C1514 1.399 . S
C1513 C1518 1.399 . S
C1514 C1513 1.399 . S
C1514 C1515 1.376 . S
C1515 H1502 0.930 . S
C1515 C1514 1.376 . S
C1515 C1516 1.388 . S
C1516 H1503 0.930 . S
C1516 C1515 1.388 . S
C1516 C1517 1.390 . S
C1517 C1516 1.390 . S
C1517 C1518 1.394 . S
C1517 C1523 1.465 . S
C1518 C1513 1.399 . S
C1518 C1517 1.394 . S
C1518 C1519 1.516 . S
C1519 C1518 1.516 . S
C1519 C1520 1.502 . S
C1519 C1521 1.561 . S
C1519 C1522 1.526 . S
C1520 H1504 0.959 . S
C1520 H1505 0.959 . S
C1520 H1506 0.961 . S
C1520 C1519 1.502 . S
C1521 H1507 0.960 . S
C1521 H1508 0.961 . S
C1521 H1509 0.959 . S
C1521 C1519 1.561 . S
C1522 C1519 1.526 . S
C1522 C1523 1.396 . S
C1522 C1527 1.390 . S
C1523 C1517 1.465 . S
C1523 C1522 1.396 . S
C1523 C1524 1.399 . S
C1524 H1510 0.929 . S
C1524 C1523 1.399 . S
C1524 C1525 1.385 . S
C1525 H1511 0.931 . S
C1525 C1524 1.385 . S
C1525 C1526 1.389 . S
C1526 C1525 1.389 . S
C1526 C1527 1.387 . S
C1527 H1512 0.930 . S
C1527 C1522 1.390 . S
C1527 C1526 1.387 . S
H1528 C1540 0.930 . S
H1529 C1542 0.930 . S
H1530 C1543 0.930 . S
H1531 C1547 0.962 . S
H1532 C1547 0.980 . S
H1533 C1547 0.938 1_554 S
H1534 C1548 0.957 1_554 S
H1535 C1548 0.964 . S
H1536 C1548 0.959 . S
H1537 C1551 0.929 . S
H1538 C1552 0.931 . S
H1539 C1554 0.930 . S
C1540 H1528 0.930 . S
C1540 C1541 1.399 . S
C1540 C1545 1.399 . S
C1541 C1540 1.399 . S
C1541 C1542 1.376 . S
C1542 H1529 0.930 . S
C1542 C1541 1.376 . S
C1542 C1543 1.388 . S
C1543 H1530 0.930 . S
C1543 C1542 1.388 . S
C1543 C1544 1.390 . S
C1544 C1543 1.390 . S
C1544 C1545 1.394 . S
C1544 C1550 1.465 1_554 S
C1545 C1540 1.399 . S
C1545 C1544 1.394 . S
C1545 C1546 1.516 1_554 S
C1546 C1545 1.516 1_556 S
C1546 C1547 1.502 . S
C1546 C1548 1.561 . S
C1546 C1549 1.526 . S
C1547 H1531 0.962 . S
C1547 H1532 0.980 . S
C1547 H1533 0.938 1_556 S
C1547 C1546 1.502 . S
C1548 H1534 0.957 1_556 S
C1548 H1535 0.964 . S
C1548 H1536 0.959 . S
C1548 C1546 1.561 . S
C1549 C1546 1.526 . S
C1549 C1550 1.396 . S
C1549 C1554 1.390 . S
C1550 C1544 1.465 1_556 S
C1550 C1549 1.396 . S
C1550 C1551 1.399 . S
C1551 H1537 0.929 . S
C1551 C1550 1.399 . S
C1551 C1552 1.385 . S
C1552 H1538 0.931 . S
C1552 C1551 1.385 . S
C1552 C1553 1.389 . S
C1553 C1552 1.389 . S
C1553 C1554 1.387 . S
C1554 H1539 0.930 . S
C1554 C1549 1.390 . S
C1554 C1553 1.387 . S
H1555 C1567 0.930 . S
H1556 C1569 0.930 . S
H1557 C1570 0.930 . S
H1558 C1574 0.962 . S
H1559 C1574 0.980 . S
H1560 C1574 0.938 1_556 S
H1561 C1575 0.957 1_556 S
H1562 C1575 0.964 . S
H1563 C1575 0.959 . S
H1564 C1578 0.929 . S
H1565 C1579 0.931 . S
H1566 C1581 0.930 . S
C1567 H1555 0.930 . S
C1567 C1568 1.399 . S
C1567 C1572 1.399 . S
C1568 C1567 1.399 . S
C1568 C1569 1.376 . S
C1569 H1556 0.930 . S
C1569 C1568 1.376 . S
C1569 C1570 1.388 . S
C1570 H1557 0.930 . S
C1570 C1569 1.388 . S
C1570 C1571 1.390 . S
C1571 C1570 1.390 . S
C1571 C1572 1.394 . S
C1571 C1577 1.465 1_556 S
C1572 C1567 1.399 . S
C1572 C1571 1.394 . S
C1572 C1573 1.516 1_556 S
C1573 C1572 1.516 1_554 S
C1573 C1574 1.502 . S
C1573 C1575 1.561 . S
C1573 C1576 1.526 . S
C1574 H1558 0.962 . S
C1574 H1559 0.980 . S
C1574 H1560 0.938 1_554 S
C1574 C1573 1.502 . S
C1575 H1561 0.957 1_554 S
C1575 H1562 0.964 . S
C1575 H1563 0.959 . S
C1575 C1573 1.561 . S
C1576 C1573 1.526 . S
C1576 C1577 1.396 . S
C1576 C1581 1.390 . S
C1577 C1571 1.465 1_554 S
C1577 C1576 1.396 . S
C1577 C1578 1.399 . S
C1578 H1564 0.929 . S
C1578 C1577 1.399 . S
C1578 C1579 1.385 . S
C1579 H1565 0.931 . S
C1579 C1578 1.385 . S
C1579 C1580 1.389 . S
C1580 C1579 1.389 . S
C1580 C1581 1.387 . S
C1581 H1566 0.930 . S
C1581 C1576 1.390 . S
C1581 C1580 1.387 . S
H1582 C1594 0.930 . S
H1583 C1596 0.930 . S
H1584 C1597 0.930 . S
H1585 C1601 0.962 . S
H1586 C1601 0.980 . S
H1587 C1601 0.938 1_554 S
H1588 C1602 0.957 1_554 S
H1589 C1602 0.964 . S
H1590 C1602 0.959 . S
H1591 C1605 0.929 . S
H1592 C1606 0.931 . S
H1593 C1608 0.930 . S
C1594 H1582 0.930 . S
C1594 C1595 1.399 . S
C1594 C1599 1.399 . S
C1595 C1594 1.399 . S
C1595 C1596 1.376 . S
C1596 H1583 0.930 . S
C1596 C1595 1.376 . S
C1596 C1597 1.388 . S
C1597 H1584 0.930 . S
C1597 C1596 1.388 . S
C1597 C1598 1.390 . S
C1598 C1597 1.390 . S
C1598 C1599 1.394 . S
C1598 C1604 1.465 1_554 S
C1599 C1594 1.399 . S
C1599 C1598 1.394 . S
C1599 C1600 1.516 1_554 S
C1600 C1599 1.516 1_556 S
C1600 C1601 1.502 . S
C1600 C1602 1.561 . S
C1600 C1603 1.526 . S
C1601 H1585 0.962 . S
C1601 H1586 0.980 . S
C1601 H1587 0.938 1_556 S
C1601 C1600 1.502 . S
C1602 H1588 0.957 1_556 S
C1602 H1589 0.964 . S
C1602 H1590 0.959 . S
C1602 C1600 1.561 . S
C1603 C1600 1.526 . S
C1603 C1604 1.396 . S
C1603 C1608 1.390 . S
C1604 C1598 1.465 1_556 S
C1604 C1603 1.396 . S
C1604 C1605 1.399 . S
C1605 H1591 0.929 . S
C1605 C1604 1.399 . S
C1605 C1606 1.385 . S
C1606 H1592 0.931 . S
C1606 C1605 1.385 . S
C1606 C1607 1.389 . S
C1607 C1606 1.389 . S
C1607 C1608 1.387 . S
C1608 H1593 0.930 . S
C1608 C1603 1.390 . S
C1608 C1607 1.387 . S
H1609 C1621 0.930 . S
H1610 C1623 0.930 . S
H1611 C1624 0.930 . S
H1612 C1628 0.962 . S
H1613 C1628 0.980 . S
H1614 C1628 0.938 1_554 S
H1615 C1629 0.957 1_554 S
H1616 C1629 0.964 . S
H1617 C1629 0.959 . S
H1618 C1632 0.929 . S
H1619 C1633 0.931 . S
H1620 C1635 0.930 . S
C1621 H1609 0.930 . S
C1621 C1622 1.399 . S
C1621 C1626 1.399 . S
C1622 C1621 1.399 . S
C1622 C1623 1.376 . S
C1623 H1610 0.930 . S
C1623 C1622 1.376 . S
C1623 C1624 1.388 . S
C1624 H1611 0.930 . S
C1624 C1623 1.388 . S
C1624 C1625 1.390 . S
C1625 C1624 1.390 . S
C1625 C1626 1.394 . S
C1625 C1631 1.465 1_554 S
C1626 C1621 1.399 . S
C1626 C1625 1.394 . S
C1626 C1627 1.516 1_554 S
C1627 C1626 1.516 1_556 S
C1627 C1628 1.502 . S
C1627 C1629 1.561 . S
C1627 C1630 1.526 . S
C1628 H1612 0.962 . S
C1628 H1613 0.980 . S
C1628 H1614 0.938 1_556 S
C1628 C1627 1.502 . S
C1629 H1615 0.957 1_556 S
C1629 H1616 0.964 . S
C1629 H1617 0.959 . S
C1629 C1627 1.561 . S
C1630 C1627 1.526 . S
C1630 C1631 1.396 . S
C1630 C1635 1.390 . S
C1631 C1625 1.465 1_556 S
C1631 C1630 1.396 . S
C1631 C1632 1.399 . S
C1632 H1618 0.929 . S
C1632 C1631 1.399 . S
C1632 C1633 1.385 . S
C1633 H1619 0.931 . S
C1633 C1632 1.385 . S
C1633 C1634 1.389 . S
C1634 C1633 1.389 . S
C1634 C1635 1.387 . S
C1635 H1620 0.930 . S
C1635 C1630 1.390 . S
C1635 C1634 1.387 . S
H1636 C1648 0.930 . S
H1637 C1650 0.930 . S
H1638 C1651 0.930 . S
H1639 C1655 0.962 . S
H1640 C1655 0.980 . S
H1641 C1655 0.938 1_554 S
H1642 C1656 0.957 1_554 S
H1643 C1656 0.964 . S
H1644 C1656 0.959 . S
H1645 C1659 0.929 . S
H1646 C1660 0.931 . S
H1647 C1662 0.930 . S
C1648 H1636 0.930 . S
C1648 C1649 1.399 . S
C1648 C1653 1.399 . S
C1649 C1648 1.399 . S
C1649 C1650 1.376 . S
C1650 H1637 0.930 . S
C1650 C1649 1.376 . S
C1650 C1651 1.388 . S
C1651 H1638 0.930 . S
C1651 C1650 1.388 . S
C1651 C1652 1.390 . S
C1652 C1651 1.390 . S
C1652 C1653 1.394 . S
C1652 C1658 1.465 1_554 S
C1653 C1648 1.399 . S
C1653 C1652 1.394 . S
C1653 C1654 1.516 1_554 S
C1654 C1653 1.516 1_556 S
C1654 C1655 1.502 . S
C1654 C1656 1.561 . S
C1654 C1657 1.526 . S
C1655 H1639 0.962 . S
C1655 H1640 0.980 . S
C1655 H1641 0.938 1_556 S
C1655 C1654 1.502 . S
C1656 H1642 0.957 1_556 S
C1656 H1643 0.964 . S
C1656 H1644 0.959 . S
C1656 C1654 1.561 . S
C1657 C1654 1.526 . S
C1657 C1658 1.396 . S
C1657 C1662 1.390 . S
C1658 C1652 1.465 1_556 S
C1658 C1657 1.396 . S
C1658 C1659 1.399 . S
C1659 H1645 0.929 . S
C1659 C1658 1.399 . S
C1659 C1660 1.385 . S
C1660 H1646 0.931 . S
C1660 C1659 1.385 . S
C1660 C1661 1.389 . S
C1661 C1660 1.389 . S
C1661 C1662 1.387 . S
C1662 H1647 0.930 . S
C1662 C1657 1.390 . S
C1662 C1661 1.387 . S
H1663 C1675 0.930 . S
H1664 C1677 0.930 . S
H1665 C1678 0.930 . S
H1666 C1682 0.962 . S
H1667 C1682 0.980 . S
H1668 C1682 0.938 1_554 S
H1669 C1683 0.957 1_554 S
H1670 C1683 0.964 . S
H1671 C1683 0.959 . S
H1672 C1686 0.929 . S
H1673 C1687 0.931 . S
H1674 C1689 0.930 . S
C1675 H1663 0.930 . S
C1675 C1676 1.399 . S
C1675 C1680 1.399 . S
C1676 C1675 1.399 . S
C1676 C1677 1.376 . S
C1677 H1664 0.930 . S
C1677 C1676 1.376 . S
C1677 C1678 1.388 . S
C1678 H1665 0.930 . S
C1678 C1677 1.388 . S
C1678 C1679 1.390 . S
C1679 C1678 1.390 . S
C1679 C1680 1.394 . S
C1679 C1685 1.465 1_554 S
C1680 C1675 1.399 . S
C1680 C1679 1.394 . S
C1680 C1681 1.516 1_554 S
C1681 C1680 1.516 1_556 S
C1681 C1682 1.502 . S
C1681 C1683 1.561 . S
C1681 C1684 1.526 . S
C1682 H1666 0.962 . S
C1682 H1667 0.980 . S
C1682 H1668 0.938 1_556 S
C1682 C1681 1.502 . S
C1683 H1669 0.957 1_556 S
C1683 H1670 0.964 . S
C1683 H1671 0.959 . S
C1683 C1681 1.561 . S
C1684 C1681 1.526 . S
C1684 C1685 1.396 . S
C1684 C1689 1.390 . S
C1685 C1679 1.465 1_556 S
C1685 C1684 1.396 . S
C1685 C1686 1.399 . S
C1686 H1672 0.929 . S
C1686 C1685 1.399 . S
C1686 C1687 1.385 . S
C1687 H1673 0.931 . S
C1687 C1686 1.385 . S
C1687 C1688 1.389 . S
C1688 C1687 1.389 . S
C1688 C1689 1.387 . S
C1689 H1674 0.930 . S
C1689 C1684 1.390 . S
C1689 C1688 1.387 . S
H1690 C1702 0.930 . S
H1691 C1704 0.930 . S
H1692 C1705 0.930 . S
H1693 C1709 0.962 . S
H1694 C1709 0.980 . S
H1695 C1709 0.938 1_556 S
H1696 C1710 0.957 1_556 S
H1697 C1710 0.964 . S
H1698 C1710 0.959 . S
H1699 C1713 0.929 . S
H1700 C1714 0.931 . S
H1701 C1716 0.930 . S
C1702 H1690 0.930 . S
C1702 C1703 1.399 . S
C1702 C1707 1.399 . S
C1703 C1702 1.399 . S
C1703 C1704 1.376 . S
C1704 H1691 0.930 . S
C1704 C1703 1.376 . S
C1704 C1705 1.388 . S
C1705 H1692 0.930 . S
C1705 C1704 1.388 . S
C1705 C1706 1.390 . S
C1706 C1705 1.390 . S
C1706 C1707 1.394 . S
C1706 C1712 1.465 1_556 S
C1707 C1702 1.399 . S
C1707 C1706 1.394 . S
C1707 C1708 1.516 1_556 S
C1708 C1707 1.516 1_554 S
C1708 C1709 1.502 . S
C1708 C1710 1.561 . S
C1708 C1711 1.526 . S
C1709 H1693 0.962 . S
C1709 H1694 0.980 . S
C1709 H1695 0.938 1_554 S
C1709 C1708 1.502 . S
C1710 H1696 0.957 1_554 S
C1710 H1697 0.964 . S
C1710 H1698 0.959 . S
C1710 C1708 1.561 . S
C1711 C1708 1.526 . S
C1711 C1712 1.396 . S
C1711 C1716 1.390 . S
C1712 C1706 1.465 1_554 S
C1712 C1711 1.396 . S
C1712 C1713 1.399 . S
C1713 H1699 0.929 . S
C1713 C1712 1.399 . S
C1713 C1714 1.385 . S
C1714 H1700 0.931 . S
C1714 C1713 1.385 . S
C1714 C1715 1.389 . S
C1715 C1714 1.389 . S
C1715 C1716 1.387 . S
C1716 H1701 0.930 . S
C1716 C1711 1.390 . S
C1716 C1715 1.387 . S
H1717 C1729 0.930 . S
H1718 C1731 0.930 . S
H1719 C1732 0.930 . S
H1720 C1736 0.962 . S
H1721 C1736 0.980 . S
H1722 C1736 0.938 1_556 S
H1723 C1737 0.957 1_556 S
H1724 C1737 0.964 . S
H1725 C1737 0.959 . S
H1726 C1740 0.929 . S
H1727 C1741 0.931 . S
H1728 C1743 0.930 . S
C1729 H1717 0.930 . S
C1729 C1730 1.399 . S
C1729 C1734 1.399 . S
C1730 C1729 1.399 . S
C1730 C1731 1.376 . S
C1731 H1718 0.930 . S
C1731 C1730 1.376 . S
C1731 C1732 1.388 . S
C1732 H1719 0.930 . S
C1732 C1731 1.388 . S
C1732 C1733 1.390 . S
C1733 C1732 1.390 . S
C1733 C1734 1.394 . S
C1733 C1739 1.465 1_556 S
C1734 C1729 1.399 . S
C1734 C1733 1.394 . S
C1734 C1735 1.516 1_556 S
C1735 C1734 1.516 1_554 S
C1735 C1736 1.502 . S
C1735 C1737 1.561 . S
C1735 C1738 1.526 . S
C1736 H1720 0.962 . S
C1736 H1721 0.980 . S
C1736 H1722 0.938 1_554 S
C1736 C1735 1.502 . S
C1737 H1723 0.957 1_554 S
C1737 H1724 0.964 . S
C1737 H1725 0.959 . S
C1737 C1735 1.561 . S
C1738 C1735 1.526 . S
C1738 C1739 1.396 . S
C1738 C1743 1.390 . S
C1739 C1733 1.465 1_554 S
C1739 C1738 1.396 . S
C1739 C1740 1.399 . S
C1740 H1726 0.929 . S
C1740 C1739 1.399 . S
C1740 C1741 1.385 . S
C1741 H1727 0.931 . S
C1741 C1740 1.385 . S
C1741 C1742 1.389 . S
C1742 C1741 1.389 . S
C1742 C1743 1.387 . S
C1743 H1728 0.930 . S
C1743 C1738 1.390 . S
C1743 C1742 1.387 . S
H1744 C1756 0.930 . S
H1745 C1758 0.930 . S
H1746 C1759 0.930 . S
H1747 C1763 0.959 . S
H1748 C1763 0.959 . S
H1749 C1763 0.961 . S
H1750 C1764 0.960 . S
H1751 C1764 0.961 . S
H1752 C1764 0.959 . S
H1753 C1767 0.929 . S
H1754 C1768 0.931 . S
H1755 C1770 0.930 . S
C1756 H1744 0.930 . S
C1756 C1757 1.399 . S
C1756 C1761 1.399 . S
C1757 C1756 1.399 . S
C1757 C1758 1.376 . S
C1758 H1745 0.930 . S
C1758 C1757 1.376 . S
C1758 C1759 1.388 . S
C1759 H1746 0.930 . S
C1759 C1758 1.388 . S
C1759 C1760 1.390 . S
C1760 C1759 1.390 . S
C1760 C1761 1.394 . S
C1760 C1766 1.465 . S
C1761 C1756 1.399 . S
C1761 C1760 1.394 . S
C1761 C1762 1.516 . S
C1762 C1761 1.516 . S
C1762 C1763 1.502 . S
C1762 C1764 1.561 . S
C1762 C1765 1.526 . S
C1763 H1747 0.959 . S
C1763 H1748 0.959 . S
C1763 H1749 0.961 . S
C1763 C1762 1.502 . S
C1764 H1750 0.960 . S
C1764 H1751 0.961 . S
C1764 H1752 0.959 . S
C1764 C1762 1.561 . S
C1765 C1762 1.526 . S
C1765 C1766 1.396 . S
C1765 C1770 1.390 . S
C1766 C1760 1.465 . S
C1766 C1765 1.396 . S
C1766 C1767 1.399 . S
C1767 H1753 0.929 . S
C1767 C1766 1.399 . S
C1767 C1768 1.385 . S
C1768 H1754 0.931 . S
C1768 C1767 1.385 . S
C1768 C1769 1.389 . S
C1769 C1768 1.389 . S
C1769 C1770 1.387 . S
C1770 H1755 0.930 . S
C1770 C1765 1.390 . S
C1770 C1769 1.387 . S
H1771 C1783 0.930 . S
H1772 C1785 0.930 . S
H1773 C1786 0.930 . S
H1774 C1790 0.959 . S
H1775 C1790 0.959 . S
H1776 C1790 0.961 . S
H1777 C1791 0.960 . S
H1778 C1791 0.961 . S
H1779 C1791 0.959 . S
H1780 C1794 0.929 . S
H1781 C1795 0.931 . S
H1782 C1797 0.930 . S
C1783 H1771 0.930 . S
C1783 C1784 1.399 . S
C1783 C1788 1.399 . S
C1784 C1783 1.399 . S
C1784 C1785 1.376 . S
C1785 H1772 0.930 . S
C1785 C1784 1.376 . S
C1785 C1786 1.388 . S
C1786 H1773 0.930 . S
C1786 C1785 1.388 . S
C1786 C1787 1.390 . S
C1787 C1786 1.390 . S
C1787 C1788 1.394 . S
C1787 C1793 1.465 . S
C1788 C1783 1.399 . S
C1788 C1787 1.394 . S
C1788 C1789 1.516 . S
C1789 C1788 1.516 . S
C1789 C1790 1.502 . S
C1789 C1791 1.561 . S
C1789 C1792 1.526 . S
C1790 H1774 0.959 . S
C1790 H1775 0.959 . S
C1790 H1776 0.961 . S
C1790 C1789 1.502 . S
C1791 H1777 0.960 . S
C1791 H1778 0.961 . S
C1791 H1779 0.959 . S
C1791 C1789 1.561 . S
C1792 C1789 1.526 . S
C1792 C1793 1.396 . S
C1792 C1797 1.390 . S
C1793 C1787 1.465 . S
C1793 C1792 1.396 . S
C1793 C1794 1.399 . S
C1794 H1780 0.929 . S
C1794 C1793 1.399 . S
C1794 C1795 1.385 . S
C1795 H1781 0.931 . S
C1795 C1794 1.385 . S
C1795 C1796 1.389 . S
C1796 C1795 1.389 . S
C1796 C1797 1.387 . S
C1797 H1782 0.930 . S
C1797 C1792 1.390 . S
C1797 C1796 1.387 . S
H1798 C1810 0.930 . S
H1799 C1812 0.930 . S
H1800 C1813 0.930 . S
H1801 C1817 0.959 . S
H1802 C1817 0.959 . S
H1803 C1817 0.961 . S
H1804 C1818 0.960 . S
H1805 C1818 0.961 . S
H1806 C1818 0.959 . S
H1807 C1821 0.929 . S
H1808 C1822 0.931 . S
H1809 C1824 0.930 . S
C1810 H1798 0.930 . S
C1810 C1811 1.399 . S
C1810 C1815 1.399 . S
C1811 C1810 1.399 . S
C1811 C1812 1.376 . S
C1812 H1799 0.930 . S
C1812 C1811 1.376 . S
C1812 C1813 1.388 . S
C1813 H1800 0.930 . S
C1813 C1812 1.388 . S
C1813 C1814 1.390 . S
C1814 C1813 1.390 . S
C1814 C1815 1.394 . S
C1814 C1820 1.465 . S
C1815 C1810 1.399 . S
C1815 C1814 1.394 . S
C1815 C1816 1.516 . S
C1816 C1815 1.516 . S
C1816 C1817 1.502 . S
C1816 C1818 1.561 . S
C1816 C1819 1.526 . S
C1817 H1801 0.959 . S
C1817 H1802 0.959 . S
C1817 H1803 0.961 . S
C1817 C1816 1.502 . S
C1818 H1804 0.960 . S
C1818 H1805 0.961 . S
C1818 H1806 0.959 . S
C1818 C1816 1.561 . S
C1819 C1816 1.526 . S
C1819 C1820 1.396 . S
C1819 C1824 1.390 . S
C1820 C1814 1.465 . S
C1820 C1819 1.396 . S
C1820 C1821 1.399 . S
C1821 H1807 0.929 . S
C1821 C1820 1.399 . S
C1821 C1822 1.385 . S
C1822 H1808 0.931 . S
C1822 C1821 1.385 . S
C1822 C1823 1.389 . S
C1823 C1822 1.389 . S
C1823 C1824 1.387 . S
C1824 H1809 0.930 . S
C1824 C1819 1.390 . S
C1824 C1823 1.387 . S
H1825 C1837 0.930 . S
H1826 C1839 0.930 . S
H1827 C1840 0.930 . S
H1828 C1844 0.959 . S
H1829 C1844 0.959 . S
H1830 C1844 0.961 . S
H1831 C1845 0.960 . S
H1832 C1845 0.961 . S
H1833 C1845 0.959 . S
H1834 C1848 0.929 . S
H1835 C1849 0.931 . S
H1836 C1851 0.930 . S
C1837 H1825 0.930 . S
C1837 C1838 1.399 . S
C1837 C1842 1.399 . S
C1838 C1837 1.399 . S
C1838 C1839 1.376 . S
C1839 H1826 0.930 . S
C1839 C1838 1.376 . S
C1839 C1840 1.388 . S
C1840 H1827 0.930 . S
C1840 C1839 1.388 . S
C1840 C1841 1.390 . S
C1841 C1840 1.390 . S
C1841 C1842 1.394 . S
C1841 C1847 1.465 . S
C1842 C1837 1.399 . S
C1842 C1841 1.394 . S
C1842 C1843 1.516 . S
C1843 C1842 1.516 . S
C1843 C1844 1.502 . S
C1843 C1845 1.561 . S
C1843 C1846 1.526 . S
C1844 H1828 0.959 . S
C1844 H1829 0.959 . S
C1844 H1830 0.961 . S
C1844 C1843 1.502 . S
C1845 H1831 0.960 . S
C1845 H1832 0.961 . S
C1845 H1833 0.959 . S
C1845 C1843 1.561 . S
C1846 C1843 1.526 . S
C1846 C1847 1.396 . S
C1846 C1851 1.390 . S
C1847 C1841 1.465 . S
C1847 C1846 1.396 . S
C1847 C1848 1.399 . S
C1848 H1834 0.929 . S
C1848 C1847 1.399 . S
C1848 C1849 1.385 . S
C1849 H1835 0.931 . S
C1849 C1848 1.385 . S
C1849 C1850 1.389 . S
C1850 C1849 1.389 . S
C1850 C1851 1.387 . S
C1851 H1836 0.930 . S
C1851 C1846 1.390 . S
C1851 C1850 1.387 . S
H1852 C1864 0.930 . S
H1853 C1866 0.930 . S
H1854 C1867 0.930 . S
H1855 C1871 0.959 . S
H1856 C1871 0.959 . S
H1857 C1871 0.961 . S
H1858 C1872 0.960 . S
H1859 C1872 0.961 . S
H1860 C1872 0.959 . S
H1861 C1875 0.929 . S
H1862 C1876 0.931 . S
H1863 C1878 0.930 . S
C1864 H1852 0.930 . S
C1864 C1865 1.399 . S
C1864 C1869 1.399 . S
C1865 C1864 1.399 . S
C1865 C1866 1.376 . S
C1866 H1853 0.930 . S
C1866 C1865 1.376 . S
C1866 C1867 1.388 . S
C1867 H1854 0.930 . S
C1867 C1866 1.388 . S
C1867 C1868 1.390 . S
C1868 C1867 1.390 . S
C1868 C1869 1.394 . S
C1868 C1874 1.465 . S
C1869 C1864 1.399 . S
C1869 C1868 1.394 . S
C1869 C1870 1.516 . S
C1870 C1869 1.516 . S
C1870 C1871 1.502 . S
C1870 C1872 1.561 . S
C1870 C1873 1.526 . S
C1871 H1855 0.959 . S
C1871 H1856 0.959 . S
C1871 H1857 0.961 . S
C1871 C1870 1.502 . S
C1872 H1858 0.960 . S
C1872 H1859 0.961 . S
C1872 H1860 0.959 . S
C1872 C1870 1.561 . S
C1873 C1870 1.526 . S
C1873 C1874 1.396 . S
C1873 C1878 1.390 . S
C1874 C1868 1.465 . S
C1874 C1873 1.396 . S
C1874 C1875 1.399 . S
C1875 H1861 0.929 . S
C1875 C1874 1.399 . S
C1875 C1876 1.385 . S
C1876 H1862 0.931 . S
C1876 C1875 1.385 . S
C1876 C1877 1.389 . S
C1877 C1876 1.389 . S
C1877 C1878 1.387 . S
C1878 H1863 0.930 . S
C1878 C1873 1.390 . S
C1878 C1877 1.387 . S
H1879 C1891 0.930 . S
H1880 C1893 0.930 . S
H1881 C1894 0.930 . S
H1882 C1898 0.959 . S
H1883 C1898 0.959 . S
H1884 C1898 0.961 . S
H1885 C1899 0.960 . S
H1886 C1899 0.961 . S
H1887 C1899 0.959 . S
H1888 C1902 0.929 . S
H1889 C1903 0.931 . S
H1890 C1905 0.930 . S
C1891 H1879 0.930 . S
C1891 C1892 1.399 . S
C1891 C1896 1.399 . S
C1892 C1891 1.399 . S
C1892 C1893 1.376 . S
C1893 H1880 0.930 . S
C1893 C1892 1.376 . S
C1893 C1894 1.388 . S
C1894 H1881 0.930 . S
C1894 C1893 1.388 . S
C1894 C1895 1.390 . S
C1895 C1894 1.390 . S
C1895 C1896 1.394 . S
C1895 C1901 1.465 . S
C1896 C1891 1.399 . S
C1896 C1895 1.394 . S
C1896 C1897 1.516 . S
C1897 C1896 1.516 . S
C1897 C1898 1.502 . S
C1897 C1899 1.561 . S
C1897 C1900 1.526 . S
C1898 H1882 0.959 . S
C1898 H1883 0.959 . S
C1898 H1884 0.961 . S
C1898 C1897 1.502 . S
C1899 H1885 0.960 . S
C1899 H1886 0.961 . S
C1899 H1887 0.959 . S
C1899 C1897 1.561 . S
C1900 C1897 1.526 . S
C1900 C1901 1.396 . S
C1900 C1905 1.390 . S
C1901 C1895 1.465 . S
C1901 C1900 1.396 . S
C1901 C1902 1.399 . S
C1902 H1888 0.929 . S
C1902 C1901 1.399 . S
C1902 C1903 1.385 . S
C1903 H1889 0.931 . S
C1903 C1902 1.385 . S
C1903 C1904 1.389 . S
C1904 C1903 1.389 . S
C1904 C1905 1.387 . S
C1905 H1890 0.930 . S
C1905 C1900 1.390 . S
C1905 C1904 1.387 . S
H1906 C1918 0.930 . S
H1907 C1920 0.930 . S
H1908 C1921 0.930 . S
H1909 C1925 0.959 . S
H1910 C1925 0.959 . S
H1911 C1925 0.961 . S
H1912 C1926 0.960 . S
H1913 C1926 0.961 . S
H1914 C1926 0.959 . S
H1915 C1929 0.929 . S
H1916 C1930 0.931 . S
H1917 C1932 0.930 . S
C1918 H1906 0.930 . S
C1918 C1919 1.399 . S
C1918 C1923 1.399 . S
C1919 C1918 1.399 . S
C1919 C1920 1.376 . S
C1920 H1907 0.930 . S
C1920 C1919 1.376 . S
C1920 C1921 1.388 . S
C1921 H1908 0.930 . S
C1921 C1920 1.388 . S
C1921 C1922 1.390 . S
C1922 C1921 1.390 . S
C1922 C1923 1.394 . S
C1922 C1928 1.465 . S
C1923 C1918 1.399 . S
C1923 C1922 1.394 . S
C1923 C1924 1.516 . S
C1924 C1923 1.516 . S
C1924 C1925 1.502 . S
C1924 C1926 1.561 . S
C1924 C1927 1.526 . S
C1925 H1909 0.959 . S
C1925 H1910 0.959 . S
C1925 H1911 0.961 . S
C1925 C1924 1.502 . S
C1926 H1912 0.960 . S
C1926 H1913 0.961 . S
C1926 H1914 0.959 . S
C1926 C1924 1.561 . S
C1927 C1924 1.526 . S
C1927 C1928 1.396 . S
C1927 C1932 1.390 . S
C1928 C1922 1.465 . S
C1928 C1927 1.396 . S
C1928 C1929 1.399 . S
C1929 H1915 0.929 . S
C1929 C1928 1.399 . S
C1929 C1930 1.385 . S
C1930 H1916 0.931 . S
C1930 C1929 1.385 . S
C1930 C1931 1.389 . S
C1931 C1930 1.389 . S
C1931 C1932 1.387 . S
C1932 H1917 0.930 . S
C1932 C1927 1.390 . S
C1932 C1931 1.387 . S
H1933 C1945 0.930 . S
H1934 C1947 0.930 . S
H1935 C1948 0.930 . S
H1936 C1952 0.959 . S
H1937 C1952 0.959 . S
H1938 C1952 0.961 . S
H1939 C1953 0.960 . S
H1940 C1953 0.961 . S
H1941 C1953 0.959 . S
H1942 C1956 0.929 . S
H1943 C1957 0.931 . S
H1944 C1959 0.930 . S
C1945 H1933 0.930 . S
C1945 C1946 1.399 . S
C1945 C1950 1.399 . S
C1946 C1945 1.399 . S
C1946 C1947 1.376 . S
C1947 H1934 0.930 . S
C1947 C1946 1.376 . S
C1947 C1948 1.388 . S
C1948 H1935 0.930 . S
C1948 C1947 1.388 . S
C1948 C1949 1.390 . S
C1949 C1948 1.390 . S
C1949 C1950 1.394 . S
C1949 C1955 1.465 . S
C1950 C1945 1.399 . S
C1950 C1949 1.394 . S
C1950 C1951 1.516 . S
C1951 C1950 1.516 . S
C1951 C1952 1.502 . S
C1951 C1953 1.561 . S
C1951 C1954 1.526 . S
C1952 H1936 0.959 . S
C1952 H1937 0.959 . S
C1952 H1938 0.961 . S
C1952 C1951 1.502 . S
C1953 H1939 0.960 . S
C1953 H1940 0.961 . S
C1953 H1941 0.959 . S
C1953 C1951 1.561 . S
C1954 C1951 1.526 . S
C1954 C1955 1.396 . S
C1954 C1959 1.390 . S
C1955 C1949 1.465 . S
C1955 C1954 1.396 . S
C1955 C1956 1.399 . S
C1956 H1942 0.929 . S
C1956 C1955 1.399 . S
C1956 C1957 1.385 . S
C1957 H1943 0.931 . S
C1957 C1956 1.385 . S
C1957 C1958 1.389 . S
C1958 C1957 1.389 . S
C1958 C1959 1.387 . S
C1959 H1944 0.930 . S
C1959 C1954 1.390 . S
C1959 C1958 1.387 . S
H1960 C1972 0.930 . S
H1961 C1974 0.930 . S
H1962 C1975 0.930 . S
H1963 C1979 0.959 . S
H1964 C1979 0.959 . S
H1965 C1979 0.961 . S
H1966 C1980 0.960 . S
H1967 C1980 0.961 . S
H1968 C1980 0.959 . S
H1969 C1983 0.929 . S
H1970 C1984 0.931 . S
H1971 C1986 0.930 . S
C1972 H1960 0.930 . S
C1972 C1973 1.399 . S
C1972 C1977 1.399 . S
C1973 C1972 1.399 . S
C1973 C1974 1.376 . S
C1974 H1961 0.930 . S
C1974 C1973 1.376 . S
C1974 C1975 1.388 . S
C1975 H1962 0.930 . S
C1975 C1974 1.388 . S
C1975 C1976 1.390 . S
C1976 C1975 1.390 . S
C1976 C1977 1.394 . S
C1976 C1982 1.465 . S
C1977 C1972 1.399 . S
C1977 C1976 1.394 . S
C1977 C1978 1.516 . S
C1978 C1977 1.516 . S
C1978 C1979 1.502 . S
C1978 C1980 1.561 . S
C1978 C1981 1.526 . S
C1979 H1963 0.959 . S
C1979 H1964 0.959 . S
C1979 H1965 0.961 . S
C1979 C1978 1.502 . S
C1980 H1966 0.960 . S
C1980 H1967 0.961 . S
C1980 H1968 0.959 . S
C1980 C1978 1.561 . S
C1981 C1978 1.526 . S
C1981 C1982 1.396 . S
C1981 C1986 1.390 . S
C1982 C1976 1.465 . S
C1982 C1981 1.396 . S
C1982 C1983 1.399 . S
C1983 H1969 0.929 . S
C1983 C1982 1.399 . S
C1983 C1984 1.385 . S
C1984 H1970 0.931 . S
C1984 C1983 1.385 . S
C1984 C1985 1.389 . S
C1985 C1984 1.389 . S
C1985 C1986 1.387 . S
C1986 H1971 0.930 . S
C1986 C1981 1.390 . S
C1986 C1985 1.387 . S
H1987 C1999 0.930 . S
H1988 C2001 0.930 . S
H1989 C2002 0.930 . S
H1990 C2006 0.959 . S
H1991 C2006 0.959 . S
H1992 C2006 0.961 . S
H1993 C2007 0.960 . S
H1994 C2007 0.961 . S
H1995 C2007 0.959 . S
H1996 C2010 0.929 . S
H1997 C2011 0.931 . S
H1998 C2013 0.930 . S
C1999 H1987 0.930 . S
C1999 C2000 1.399 . S
C1999 C2004 1.399 . S
C2000 C1999 1.399 . S
C2000 C2001 1.376 . S
C2001 H1988 0.930 . S
C2001 C2000 1.376 . S
C2001 C2002 1.388 . S
C2002 H1989 0.930 . S
C2002 C2001 1.388 . S
C2002 C2003 1.390 . S
C2003 C2002 1.390 . S
C2003 C2004 1.394 . S
C2003 C2009 1.465 . S
C2004 C1999 1.399 . S
C2004 C2003 1.394 . S
C2004 C2005 1.516 . S
C2005 C2004 1.516 . S
C2005 C2006 1.502 . S
C2005 C2007 1.561 . S
C2005 C2008 1.526 . S
C2006 H1990 0.959 . S
C2006 H1991 0.959 . S
C2006 H1992 0.961 . S
C2006 C2005 1.502 . S
C2007 H1993 0.960 . S
C2007 H1994 0.961 . S
C2007 H1995 0.959 . S
C2007 C2005 1.561 . S
C2008 C2005 1.526 . S
C2008 C2009 1.396 . S
C2008 C2013 1.390 . S
C2009 C2003 1.465 . S
C2009 C2008 1.396 . S
C2009 C2010 1.399 . S
C2010 H1996 0.929 . S
C2010 C2009 1.399 . S
C2010 C2011 1.385 . S
C2011 H1997 0.931 . S
C2011 C2010 1.385 . S
C2011 C2012 1.389 . S
C2012 C2011 1.389 . S
C2012 C2013 1.387 . S
C2013 H1998 0.930 . S
C2013 C2008 1.390 . S
C2013 C2012 1.387 . S
H2014 C2026 0.930 . S
H2015 C2028 0.930 . S
H2016 C2029 0.930 . S
H2017 C2033 0.959 . S
H2018 C2033 0.959 . S
H2019 C2033 0.961 . S
H2020 C2034 0.960 . S
H2021 C2034 0.961 . S
H2022 C2034 0.959 . S
H2023 C2037 0.929 . S
H2024 C2038 0.931 . S
H2025 C2040 0.930 . S
C2026 H2014 0.930 . S
C2026 C2027 1.399 . S
C2026 C2031 1.399 . S
C2027 C2026 1.399 . S
C2027 C2028 1.376 . S
C2028 H2015 0.930 . S
C2028 C2027 1.376 . S
C2028 C2029 1.388 . S
C2029 H2016 0.930 . S
C2029 C2028 1.388 . S
C2029 C2030 1.390 . S
C2030 C2029 1.390 . S
C2030 C2031 1.394 . S
C2030 C2036 1.465 . S
C2031 C2026 1.399 . S
C2031 C2030 1.394 . S
C2031 C2032 1.516 . S
C2032 C2031 1.516 . S
C2032 C2033 1.502 . S
C2032 C2034 1.561 . S
C2032 C2035 1.526 . S
C2033 H2017 0.959 . S
C2033 H2018 0.959 . S
C2033 H2019 0.961 . S
C2033 C2032 1.502 . S
C2034 H2020 0.960 . S
C2034 H2021 0.961 . S
C2034 H2022 0.959 . S
C2034 C2032 1.561 . S
C2035 C2032 1.526 . S
C2035 C2036 1.396 . S
C2035 C2040 1.390 . S
C2036 C2030 1.465 . S
C2036 C2035 1.396 . S
C2036 C2037 1.399 . S
C2037 H2023 0.929 . S
C2037 C2036 1.399 . S
C2037 C2038 1.385 . S
C2038 H2024 0.931 . S
C2038 C2037 1.385 . S
C2038 C2039 1.389 . S
C2039 C2038 1.389 . S
C2039 C2040 1.387 . S
C2040 H2025 0.930 . S
C2040 C2035 1.390 . S
C2040 C2039 1.387 . S
H2041 C2053 0.930 . S
H2042 C2055 0.930 . S
H2043 C2056 0.930 . S
H2044 C2060 0.959 . S
H2045 C2060 0.959 . S
H2046 C2060 0.961 . S
H2047 C2061 0.960 . S
H2048 C2061 0.961 . S
H2049 C2061 0.959 . S
H2050 C2064 0.929 . S
H2051 C2065 0.931 . S
H2052 C2067 0.930 . S
C2053 H2041 0.930 . S
C2053 C2054 1.399 . S
C2053 C2058 1.399 . S
C2054 C2053 1.399 . S
C2054 C2055 1.376 . S
C2055 H2042 0.930 . S
C2055 C2054 1.376 . S
C2055 C2056 1.388 . S
C2056 H2043 0.930 . S
C2056 C2055 1.388 . S
C2056 C2057 1.390 . S
C2057 C2056 1.390 . S
C2057 C2058 1.394 . S
C2057 C2063 1.465 . S
C2058 C2053 1.399 . S
C2058 C2057 1.394 . S
C2058 C2059 1.516 . S
C2059 C2058 1.516 . S
C2059 C2060 1.502 . S
C2059 C2061 1.561 . S
C2059 C2062 1.526 . S
C2060 H2044 0.959 . S
C2060 H2045 0.959 . S
C2060 H2046 0.961 . S
C2060 C2059 1.502 . S
C2061 H2047 0.960 . S
C2061 H2048 0.961 . S
C2061 H2049 0.959 . S
C2061 C2059 1.561 . S
C2062 C2059 1.526 . S
C2062 C2063 1.396 . S
C2062 C2067 1.390 . S
C2063 C2057 1.465 . S
C2063 C2062 1.396 . S
C2063 C2064 1.399 . S
C2064 H2050 0.929 . S
C2064 C2063 1.399 . S
C2064 C2065 1.385 . S
C2065 H2051 0.931 . S
C2065 C2064 1.385 . S
C2065 C2066 1.389 . S
C2066 C2065 1.389 . S
C2066 C2067 1.387 . S
C2067 H2052 0.930 . S
C2067 C2062 1.390 . S
C2067 C2066 1.387 . S
H2068 C2080 0.930 . S
H2069 C2082 0.930 . S
H2070 C2083 0.930 . S
H2071 C2087 0.959 . S
H2072 C2087 0.959 . S
H2073 C2087 0.961 . S
H2074 C2088 0.960 . S
H2075 C2088 0.961 . S
H2076 C2088 0.959 . S
H2077 C2091 0.929 . S
H2078 C2092 0.931 . S
H2079 C2094 0.930 . S
C2080 H2068 0.930 . S
C2080 C2081 1.399 . S
C2080 C2085 1.399 . S
C2081 C2080 1.399 . S
C2081 C2082 1.376 . S
C2082 H2069 0.930 . S
C2082 C2081 1.376 . S
C2082 C2083 1.388 . S
C2083 H2070 0.930 . S
C2083 C2082 1.388 . S
C2083 C2084 1.390 . S
C2084 C2083 1.390 . S
C2084 C2085 1.394 . S
C2084 C2090 1.465 . S
C2085 C2080 1.399 . S
C2085 C2084 1.394 . S
C2085 C2086 1.516 . S
C2086 C2085 1.516 . S
C2086 C2087 1.502 . S
C2086 C2088 1.561 . S
C2086 C2089 1.526 . S
C2087 H2071 0.959 . S
C2087 H2072 0.959 . S
C2087 H2073 0.961 . S
C2087 C2086 1.502 . S
C2088 H2074 0.960 . S
C2088 H2075 0.961 . S
C2088 H2076 0.959 . S
C2088 C2086 1.561 . S
C2089 C2086 1.526 . S
C2089 C2090 1.396 . S
C2089 C2094 1.390 . S
C2090 C2084 1.465 . S
C2090 C2089 1.396 . S
C2090 C2091 1.399 . S
C2091 H2077 0.929 . S
C2091 C2090 1.399 . S
C2091 C2092 1.385 . S
C2092 H2078 0.931 . S
C2092 C2091 1.385 . S
C2092 C2093 1.389 . S
C2093 C2092 1.389 . S
C2093 C2094 1.387 . S
C2094 H2079 0.930 . S
C2094 C2089 1.390 . S
C2094 C2093 1.387 . S
H2095 C2107 0.930 . S
H2096 C2109 0.930 . S
H2097 C2110 0.930 . S
H2098 C2114 0.959 . S
H2099 C2114 0.959 . S
H2100 C2114 0.961 . S
H2101 C2115 0.960 . S
H2102 C2115 0.961 . S
H2103 C2115 0.959 . S
H2104 C2118 0.929 . S
H2105 C2119 0.931 . S
H2106 C2121 0.930 . S
C2107 H2095 0.930 . S
C2107 C2108 1.399 . S
C2107 C2112 1.399 . S
C2108 C2107 1.399 . S
C2108 C2109 1.376 . S
C2109 H2096 0.930 . S
C2109 C2108 1.376 . S
C2109 C2110 1.388 . S
C2110 H2097 0.930 . S
C2110 C2109 1.388 . S
C2110 C2111 1.390 . S
C2111 C2110 1.390 . S
C2111 C2112 1.394 . S
C2111 C2117 1.465 . S
C2112 C2107 1.399 . S
C2112 C2111 1.394 . S
C2112 C2113 1.516 . S
C2113 C2112 1.516 . S
C2113 C2114 1.502 . S
C2113 C2115 1.561 . S
C2113 C2116 1.526 . S
C2114 H2098 0.959 . S
C2114 H2099 0.959 . S
C2114 H2100 0.961 . S
C2114 C2113 1.502 . S
C2115 H2101 0.960 . S
C2115 H2102 0.961 . S
C2115 H2103 0.959 . S
C2115 C2113 1.561 . S
C2116 C2113 1.526 . S
C2116 C2117 1.396 . S
C2116 C2121 1.390 . S
C2117 C2111 1.465 . S
C2117 C2116 1.396 . S
C2117 C2118 1.399 . S
C2118 H2104 0.929 . S
C2118 C2117 1.399 . S
C2118 C2119 1.385 . S
C2119 H2105 0.931 . S
C2119 C2118 1.385 . S
C2119 C2120 1.389 . S
C2120 C2119 1.389 . S
C2120 C2121 1.387 . S
C2121 H2106 0.930 . S
C2121 C2116 1.390 . S
C2121 C2120 1.387 . S
H2122 C2134 0.930 . S
H2123 C2136 0.930 . S
H2124 C2137 0.930 . S
H2125 C2141 0.959 . S
H2126 C2141 0.959 . S
H2127 C2141 0.961 . S
H2128 C2142 0.960 . S
H2129 C2142 0.961 . S
H2130 C2142 0.959 . S
H2131 C2145 0.929 . S
H2132 C2146 0.931 . S
H2133 C2148 0.930 . S
C2134 H2122 0.930 . S
C2134 C2135 1.399 . S
C2134 C2139 1.399 . S
C2135 C2134 1.399 . S
C2135 C2136 1.376 . S
C2136 H2123 0.930 . S
C2136 C2135 1.376 . S
C2136 C2137 1.388 . S
C2137 H2124 0.930 . S
C2137 C2136 1.388 . S
C2137 C2138 1.390 . S
C2138 C2137 1.390 . S
C2138 C2139 1.394 . S
C2138 C2144 1.465 . S
C2139 C2134 1.399 . S
C2139 C2138 1.394 . S
C2139 C2140 1.516 . S
C2140 C2139 1.516 . S
C2140 C2141 1.502 . S
C2140 C2142 1.561 . S
C2140 C2143 1.526 . S
C2141 H2125 0.959 . S
C2141 H2126 0.959 . S
C2141 H2127 0.961 . S
C2141 C2140 1.502 . S
C2142 H2128 0.960 . S
C2142 H2129 0.961 . S
C2142 H2130 0.959 . S
C2142 C2140 1.561 . S
C2143 C2140 1.526 . S
C2143 C2144 1.396 . S
C2143 C2148 1.390 . S
C2144 C2138 1.465 . S
C2144 C2143 1.396 . S
C2144 C2145 1.399 . S
C2145 H2131 0.929 . S
C2145 C2144 1.399 . S
C2145 C2146 1.385 . S
C2146 H2132 0.931 . S
C2146 C2145 1.385 . S
C2146 C2147 1.389 . S
C2147 C2146 1.389 . S
C2147 C2148 1.387 . S
C2148 H2133 0.930 . S
C2148 C2143 1.390 . S
C2148 C2147 1.387 . S
H2149 C2161 0.930 . S
H2150 C2163 0.930 . S
H2151 C2164 0.930 . S
H2152 C2168 0.959 . S
H2153 C2168 0.959 . S
H2154 C2168 0.961 . S
H2155 C2169 0.960 . S
H2156 C2169 0.961 . S
H2157 C2169 0.959 . S
H2158 C2172 0.929 . S
H2159 C2173 0.931 . S
H2160 C2175 0.930 . S
C2161 H2149 0.930 . S
C2161 C2162 1.399 . S
C2161 C2166 1.399 . S
C2162 C2161 1.399 . S
C2162 C2163 1.376 . S
C2163 H2150 0.930 . S
C2163 C2162 1.376 . S
C2163 C2164 1.388 . S
C2164 H2151 0.930 . S
C2164 C2163 1.388 . S
C2164 C2165 1.390 . S
C2165 C2164 1.390 . S
C2165 C2166 1.394 . S
C2165 C2171 1.465 . S
C2166 C2161 1.399 . S
C2166 C2165 1.394 . S
C2166 C2167 1.516 . S
C2167 C2166 1.516 . S
C2167 C2168 1.502 . S
C2167 C2169 1.561 . S
C2167 C2170 1.526 . S
C2168 H2152 0.959 . S
C2168 H2153 0.959 . S
C2168 H2154 0.961 . S
C2168 C2167 1.502 . S
C2169 H2155 0.960 . S
C2169 H2156 0.961 . S
C2169 H2157 0.959 . S
C2169 C2167 1.561 . S
C2170 C2167 1.526 . S
C2170 C2171 1.396 . S
C2170 C2175 1.390 . S
C2171 C2165 1.465 . S
C2171 C2170 1.396 . S
C2171 C2172 1.399 . S
C2172 H2158 0.929 . S
C2172 C2171 1.399 . S
C2172 C2173 1.385 . S
C2173 H2159 0.931 . S
C2173 C2172 1.385 . S
C2173 C2174 1.389 . S
C2174 C2173 1.389 . S
C2174 C2175 1.387 . S
C2175 H2160 0.930 . S
C2175 C2170 1.390 . S
C2175 C2174 1.387 . S
C461 C223 1.278 . S
C473 C13 1.265 . S
C488 C27 1.291 . S
C500 C181 1.306 . S
C515 C41 1.273 . S
C527 C195 1.288 . S
C542 C209 1.244 . S
C554 C55 1.246 . S
C569 C69 1.289 . S
C581 C139 1.304 . S
C596 C83 1.288 . S
C608 C153 1.303 . S
C623 C167 1.247 . S
C635 C97 1.256 . S
C650 C125 1.248 . S
C662 C111 1.257 . S
C677 C237 1.292 . S
C689 C447 1.307 . S
C704 C251 1.318 . S
C716 C405 1.304 . S
C731 C265 1.297 . S
C743 C419 1.282 . S
C758 C433 1.245 . S
C770 C279 1.245 . S
C785 C293 1.298 . S
C797 C363 1.312 . S
C812 C307 1.318 . S
C824 C377 1.328 . S
C839 C391 1.340 . S
C851 C321 1.340 . S
C866 C335 1.293 . S
C878 C349 1.307 . S
C893 C175 1.029 . S
C905 C7 1.038 . S
C920 C21 1.013 . S
C932 C189 1.016 . S
C947 C203 1.057 . S
C959 C35 1.049 . S
C974 C49 1.069 . S
C986 C217 1.072 . S
C1001 C63 1.073 . S
C1013 C119 1.072 . S
C1028 C133 1.034 . S
C1040 C77 1.027 . S
C1055 C147 1.044 . S
C1067 C91 1.053 . S
C1082 C161 1.034 . S
C1094 C105 1.027 . S
C1109 C231 1.018 . S
C1121 C399 1.015 . S
C1136 C413 1.049 . S
C1148 C245 1.058 . S
C1163 C259 1.013 . S
C1175 C427 1.015 . S
C1190 C273 1.016 . S
C1202 C441 1.014 . S
C1217 C343 1.057 . S
C1229 C287 1.048 . S
C1244 C301 1.064 . S
C1256 C357 1.069 . S
C1271 C315 1.073 . S
C1283 C371 1.072 . S
C1298 C329 1.073 . S
C1310 C385 1.072 . S
C1325 C8 1.405 . S
C1337 C148 1.416 . S
C1352 C162 1.357 . S
C1364 C22 1.370 . S
C1379 C36 1.361 . S
C1391 C120 1.352 . S
C1406 C134 1.405 . S
C1418 C50 1.392 . S
C1433 C204 1.421 . S
C1445 C64 1.426 . S
C1460 C218 1.354 . S
C1472 C78 1.366 . S
C1487 C176 1.348 . S
C1499 C92 1.343 . S
C1514 C106 1.345 . S
C1526 C190 1.354 . S
C1541 C372 1.350 . S
C1553 C232 1.344 . S
C1568 C246 1.424 . S
C1580 C386 1.415 . S
C1595 C344 1.420 . S
C1607 C260 1.426 . S
C1622 C358 1.414 . S
C1634 C274 1.402 . S
C1649 C288 1.407 . S
C1661 C428 1.417 . S
C1676 C302 1.345 . S
C1688 C442 1.354 . S
C1703 C400 1.348 . S
C1715 C316 1.343 . S
C1730 C414 1.360 . S
C1742 C330 1.373 . S
C1757 C333 1.328 . S
C1769 C11 1.341 . S
C1784 C291 1.332 . S
C1796 C25 1.343 . S
C1811 C305 1.334 . S
C1823 C39 1.342 . S
C1838 C319 1.328 . S
C1850 C53 1.340 . S
C1865 C249 1.328 . S
C1877 C67 1.335 . S
C1892 C81 1.328 . S
C1904 C263 1.340 . S
C1919 C95 1.328 . S
C1931 C277 1.337 . S
C1946 C109 1.340 . S
C1958 C235 1.338 . S
C1973 C123 1.329 . S
C1985 C445 1.339 . S
C2000 C403 1.331 . S
C2012 C137 1.341 . S
C2027 C151 1.335 . S
C2039 C417 1.343 . S
C2054 C165 1.332 . S
C2066 C431 1.328 . S
C2081 C361 1.336 . S
C2093 C179 1.343 . S
C2108 C375 1.333 . S
C2120 C193 1.342 . S
C2135 C207 1.332 . S
C2147 C389 1.341 . S
C2162 C221 1.330 . S
C2174 C347 1.329 . S
