# Generated by pormake.
# Topology uov, (4)-cn, num edge types: 1
# Building blocks:
#     Node 0, Type 0, BuildingBlock: GALJAG_clean_sbu_0, # of connection points: 4
#     Node 1, Type 0, BuildingBlock: GALJAG_clean_sbu_0, # of connection points: 4
#     Node 2, Type 0, BuildingBlock: GALJAG_clean_sbu_0, # of connection points: 4
#     Node 3, Type 0, BuildingBlock: GALJAG_clean_sbu_0, # of connection points: 4
#     Node 4, Type 0, BuildingBlock: GALJAG_clean_sbu_0, # of connection points: 4
#     Node 5, Type 0, BuildingBlock: GALJAG_clean_sbu_0, # of connection points: 4
#     Node 6, Type 0, BuildingBlock: GALJAG_clean_sbu_0, # of connection points: 4
#     Node 7, Type 0, BuildingBlock: GALJAG_clean_sbu_0, # of connection points: 4
#     Edge 8, Type (0, 0), BuildingBlock: XIVTED_clean_linker_0, # of connection points: 2
#     Edge 9, Type (0, 0), BuildingBlock: XIVTED_clean_linker_0, # of connection points: 2
#     Edge 10, Type (0, 0), BuildingBlock: XIVTED_clean_linker_0, # of connection points: 2
#     Edge 11, Type (0, 0), BuildingBlock: XIVTED_clean_linker_0, # of connection points: 2
#     Edge 12, Type (0, 0), BuildingBlock: XIVTED_clean_linker_0, # of connection points: 2
#     Edge 13, Type (0, 0), BuildingBlock: XIVTED_clean_linker_0, # of connection points: 2
#     Edge 14, Type (0, 0), BuildingBlock: XIVTED_clean_linker_0, # of connection points: 2
#     Edge 15, Type (0, 0), BuildingBlock: XIVTED_clean_linker_0, # of connection points: 2
#     Edge 16, Type (0, 0), BuildingBlock: XIVTED_clean_linker_0, # of connection points: 2
#     Edge 17, Type (0, 0), BuildingBlock: XIVTED_clean_linker_0, # of connection points: 2
#     Edge 18, Type (0, 0), BuildingBlock: XIVTED_clean_linker_0, # of connection points: 2
#     Edge 19, Type (0, 0), BuildingBlock: XIVTED_clean_linker_0, # of connection points: 2
#     Edge 20, Type (0, 0), BuildingBlock: XIVTED_clean_linker_0, # of connection points: 2
#     Edge 21, Type (0, 0), BuildingBlock: XIVTED_clean_linker_0, # of connection points: 2
#     Edge 22, Type (0, 0), BuildingBlock: XIVTED_clean_linker_0, # of connection points: 2
#     Edge 23, Type (0, 0), BuildingBlock: XIVTED_clean_linker_0, # of connection points: 2
# Relax obj value: 0.177
# Max RMSD: 0.147
# Mean RMSD: 0.147
data_MOF--net-uov--node1-GALJAG_clean_sbu_0--edge1-XIVTED_clean_linker_0
_symmetry_space_group_name_H-M    P1
_symmetry_Int_Tables_number       1
_symmetry_cell_setting            triclinic
loop_
_symmetry_equiv_pos_as_xyz
'x, y, z'
_cell_length_a     29.070433
_cell_length_b     29.036387
_cell_length_c     46.648535
_cell_angle_alpha  89.923733
_cell_angle_beta   90.035124
_cell_angle_gamma 89.895853
loop_
_atom_site_label
_atom_site_type_symbol
_atom_site_fract_x
_atom_site_fract_y
_atom_site_fract_z
_atom_type_partial_charge
In0 In 0.04942 0.24104 0.60732 0.0
O1 O 0.07047 0.31449 0.61732 0.0
O2 O 0.00151 0.29544 0.62646 0.0
C3 C 0.114 0.2242 0.56715 0.0
C4 C 0.07718 0.19948 0.65596 0.0
C5 C 0.97808 0.21101 0.57556 0.0
O6 O 0.091 0.26099 0.56768 0.0
O7 O 0.10531 0.19646 0.58722 0.0
O8 O 0.9906 0.19039 0.59814 0.0
O9 O 0.00044 0.24699 0.56988 0.0
C10 C 0.03162 0.32665 0.62659 0.0
O11 O 0.03899 0.1902 0.64435 0.0
O12 O 0.10069 0.22957 0.6431 0.0
In13 In 0.24486 0.96921 0.38311 0.0
O14 O 0.31576 0.93644 0.38167 0.0
O15 O 0.30498 -0.00179 0.35783 0.0
C16 C 0.20726 0.92689 0.42876 0.0
C17 C 0.20006 0.93409 0.33752 0.0
C18 C 0.24183 0.05236 0.40816 0.0
O19 O 0.24774 0.91815 0.42054 0.0
O20 O 0.18559 0.95517 0.41328 0.0
O21 O 0.2152 0.04196 0.38768 0.0
O22 O 0.27073 0.02167 0.41475 0.0
C23 C 0.33268 0.96703 0.36557 0.0
O24 O 0.1982 0.97644 0.34363 0.0
O25 O 0.22428 0.91013 0.35428 0.0
In26 In 0.96667 0.75035 0.61575 0.0
O27 O 0.93812 0.67815 0.62282 0.0
O28 O 0.00819 0.69057 0.63351 0.0
C29 C 0.91423 0.7476 0.56801 0.0
C30 C 0.93785 0.7957 0.66299 0.0
C31 C 0.03954 0.79676 0.59464 0.0
O32 O 0.95685 0.73978 0.56789 0.0
O33 O 0.89739 0.75504 0.59253 0.0
O34 O 0.00396 0.81666 0.60391 0.0
O35 O 0.03942 0.75361 0.59758 0.0
C36 C 0.97561 0.66201 0.63215 0.0
O37 O 0.96786 0.76434 0.66392 0.0
O38 O 0.92272 0.80451 0.63826 0.0
In39 In 0.76096 -0.0027 0.3836 0.0
O40 O 0.68784 0.02469 0.38308 0.0
O41 O 0.70083 0.96023 0.36275 0.0
C42 C 0.79683 0.05282 0.42418 0.0
C43 C 0.79128 0.03218 0.33365 0.0
C44 C 0.78128 0.91619 0.40867 0.0
O45 O 0.75591 0.03861 0.42535 0.0
O46 O 0.81912 0.0396 0.40256 0.0
O47 O 0.805 0.93189 0.38814 0.0
O48 O 0.74737 0.94077 0.41566 0.0
C49 C 0.67182 0.99083 0.36937 0.0
O50 O 0.80331 0.9925 0.34213 0.0
O51 O 0.76422 0.05327 0.35021 0.0
In52 In 0.92855 0.23995 0.10958 0.0
O53 O 0.93985 0.18666 0.14503 0.0
O54 O 0.87948 0.22832 0.14657 0.0
C55 C 0.00586 0.22379 0.07894 0.0
C56 C 0.93464 0.32774 0.12733 0.0
C57 C 0.86656 0.21274 0.06999 0.0
O58 O -0.00345 0.20111 0.10131 0.0
O59 O 0.97714 0.25472 0.07287 0.0
O60 O 0.8824 0.253 0.07085 0.0
O61 O 0.88121 0.18629 0.0894 0.0
C62 C 0.90283 0.19642 0.1579 0.0
O63 O 0.90139 0.31267 0.11278 0.0
O64 O 0.96466 0.29804 0.13388 0.0
In65 In 0.23087 0.02945 0.88809 0.0
O66 O 0.30602 0.04957 0.88347 0.0
O67 O 0.2855 0.98329 0.86856 0.0
C68 C 0.20029 0.09179 0.92647 0.0
C69 C 0.19868 0.05955 0.83741 0.0
C70 C 0.20837 0.95393 0.91829 0.0
O71 O 0.24084 0.07629 0.92717 0.0
O72 O 0.17601 0.07693 0.90612 0.0
O73 O 0.18601 0.96573 0.89616 0.0
O74 O 0.24175 0.97968 0.92447 0.0
C75 C 0.31769 0.01185 0.87206 0.0
O76 O 0.18359 0.02308 0.84895 0.0
O77 O 0.22968 0.08001 0.8514 0.0
In78 In 0.01576 0.75272 0.11821 0.0
O79 O 0.02694 0.67794 0.10672 0.0
O80 O 0.98685 0.69194 0.14385 0.0
C81 C 0.07139 0.76922 0.07297 0.0
C82 C 0.05008 0.78763 0.1672 0.0
C83 C 0.93926 0.7952 0.09888 0.0
O84 O 0.03279 0.75006 0.07067 0.0
O85 O 0.08287 0.77894 0.09833 0.0
O86 O 0.97593 0.81638 0.10467 0.0
O87 O 0.94001 0.75281 0.10485 0.0
C88 C 0.00374 0.66207 0.12726 0.0
O89 O 0.01218 0.8009 0.1568 0.0
O90 O 0.07013 0.7564 0.15313 0.0
In91 In 0.73921 0.95752 0.88255 0.0
O92 O 0.78047 0.96951 0.8415 0.0
O93 O 0.77149 0.9006 0.85598 0.0
C94 C 0.7403 0.03898 0.90967 0.0
C95 C 0.65207 0.95485 0.86361 0.0
C96 C 0.77653 0.91584 0.92843 0.0
O97 O 0.76823 0.02981 0.88964 0.0
O98 O 0.71098 0.00805 0.91469 0.0
O99 O 0.73748 0.90419 0.91889 0.0
O100 O 0.79699 0.94628 0.91396 0.0
C101 C 0.78837 0.92725 0.83741 0.0
O102 O 0.66822 0.92428 0.88012 0.0
O103 O 0.68033 0.98544 0.85606 0.0
H104 H 0.05448 0.61904 0.64918 0.0
H105 H 0.94762 0.36636 0.63631 0.0
H106 H 0.91155 0.59313 0.63011 0.0
H107 H 0.09305 0.39587 0.63531 0.0
H108 H 0.93199 0.44835 0.64422 0.0
H109 H 0.06695 0.53631 0.65454 0.0
C110 C 0.02559 0.59594 0.64644 0.0
C111 C 0.98205 0.61281 0.63882 0.0
C112 C 0.96731 0.43673 0.64257 0.0
C113 C -0.00389 0.51821 0.6448 0.0
C114 C 0.97624 0.39001 0.63816 0.0
C115 C 0.02165 0.37456 0.63483 0.0
C116 C 0.00412 0.46793 0.64384 0.0
C117 C 0.0575 0.4065 0.63745 0.0
C118 C 0.03275 0.54874 0.64945 0.0
C119 C 0.94577 0.58142 0.63573 0.0
N120 N 0.04795 0.45174 0.64162 0.0
N121 N 0.95369 0.5355 0.63848 0.0
H122 H 0.62479 0.913 0.35486 0.0
H123 H 0.38153 0.04018 0.34527 0.0
H124 H 0.60707 0.0588 0.36897 0.0
H125 H 0.39609 0.89813 0.37112 0.0
H126 H 0.46528 0.04553 0.34068 0.0
H127 H 0.54145 0.90568 0.34798 0.0
C128 C 0.60339 0.94351 0.35615 0.0
C129 C 0.62255 0.98649 0.36275 0.0
C130 C 0.44999 0.01309 0.34701 0.0
C131 C 0.52792 0.97844 0.35461 0.0
C132 C 0.40232 0.00992 0.34949 0.0
C133 C 0.38209 0.96876 0.35885 0.0
C134 C 0.47737 0.97465 0.35355 0.0
C135 C 0.4105 0.93059 0.36409 0.0
C136 C 0.556 0.93927 0.35231 0.0
C137 C 0.59347 0.02497 0.3642 0.0
N138 N 0.45685 0.93449 0.36147 0.0
N139 N 0.54749 0.02005 0.36019 0.0
H140 H 0.99107 0.36982 0.16663 0.0
H141 H 0.0031 0.59917 0.08463 0.0
H142 H 0.89269 0.39805 0.09948 0.0
H143 H 0.98255 0.61293 0.17584 0.0
H144 H 0.98323 0.51754 0.08823 0.0
H145 H 0.00675 0.45316 0.17005 0.0
C146 C 0.97242 0.39355 0.15295 0.0
C147 C 0.94066 0.37726 0.1327 0.0
C148 C 0.98335 0.53854 0.10742 0.0
C149 C 0.95919 0.47108 0.13602 0.0
C150 C -0.00515 0.58485 0.10545 0.0
C151 C -0.00577 0.61259 0.12998 0.0
C152 C 0.97239 0.51968 0.13417 0.0
C153 C 0.98308 0.59247 0.15646 0.0
C154 C 0.98128 0.44076 0.15497 0.0
C155 C 0.91737 0.40922 0.1154 0.0
N156 N 0.97289 0.54677 0.15798 0.0
N157 N 0.92781 0.4546 0.11704 0.0
H158 H 0.35569 0.92713 0.86301 0.0
H159 H 0.60811 0.02629 0.83747 0.0
H160 H 0.38859 0.07196 0.86454 0.0
H161 H 0.58372 0.89256 0.87499 0.0
H162 H 0.5251 0.03816 0.83387 0.0
H163 H 0.43719 0.90959 0.85471 0.0
C164 C 0.38 0.95522 0.86124 0.0
C165 C 0.36568 0.00104 0.8647 0.0
C166 C 0.538 0.00599 0.84253 0.0
C167 C 0.4582 0.98128 0.85489 0.0
C168 C 0.58529 -0.00095 0.84446 0.0
C169 C 0.6027 0.95858 0.85688 0.0
C170 C 0.50798 0.97205 0.8528 0.0
C171 C 0.5716 0.92441 0.86552 0.0
C172 C 0.42635 0.94517 0.85659 0.0
C173 C 0.39841 0.03617 0.86226 0.0
N174 N 0.52556 0.93204 0.8635 0.0
N175 N 0.44325 0.02555 0.85751 0.0
H176 H 0.17524 0.11926 0.40381 0.0
H177 H 0.18522 0.16335 0.56768 0.0
H178 H 0.29144 0.07686 0.45515 0.0
H179 H 0.11094 0.25621 0.51215 0.0
H180 H 0.22708 0.13398 0.52613 0.0
H181 H 0.15345 0.17378 0.44154 0.0
C182 C 0.19681 0.12227 0.42266 0.0
C183 C 0.23466 0.09293 0.42664 0.0
C184 C 0.2023 0.16144 0.52305 0.0
C185 C 0.20956 0.15426 0.46989 0.0
C186 C 0.17834 0.17804 0.54675 0.0
C187 C 0.1445 0.21191 0.5432 0.0
C188 C 0.19132 0.17792 0.49555 0.0
C189 C 0.13686 0.22999 0.51568 0.0
C190 C 0.18436 0.15333 0.44418 0.0
C191 C 0.26154 0.09833 0.45141 0.0
N192 N 0.1594 0.21203 0.49273 0.0
N193 N 0.24789 0.12761 0.47238 0.0
H194 H 0.23952 0.85593 0.46221 0.0
H195 H 0.0392 0.88687 0.57816 0.0
H196 H 0.1307 0.95681 0.4564 0.0
H197 H 0.11653 0.76065 0.56938 0.0
H198 H 0.08558 0.92123 0.54016 0.0
H199 H 0.20569 0.82751 0.50716 0.0
C200 C 0.20858 0.87204 0.4704 0.0
C201 C 0.18753 0.90838 0.45548 0.0
C202 C 0.0928 0.8862 0.54681 0.0
C203 C 0.1495 0.87693 0.50685 0.0
C204 C 0.06661 0.8667 0.56867 0.0
C205 C 0.0737 0.82068 0.57666 0.0
C206 C 0.1264 0.85954 0.53294 0.0
C207 C 0.10975 0.79617 0.56366 0.0
C208 C 0.18943 0.85595 0.49601 0.0
C209 C 0.14772 0.92834 0.46706 0.0
N210 N 0.13451 0.81576 0.54217 0.0
N211 N 0.13005 0.9124 0.49206 0.0
H212 H 0.8608 0.86533 0.40533 0.0
H213 H 0.82263 0.76731 0.56202 0.0
H214 H 0.73288 0.87577 0.45175 0.0
H215 H 0.94667 0.74514 0.51315 0.0
H216 H 0.78438 0.79454 0.51852 0.0
H217 H 0.88818 0.8092 0.4407 0.0
C218 C 0.83815 0.85508 0.42262 0.0
C219 C 0.7949 0.87581 0.42595 0.0
C220 C 0.81973 0.78296 0.51716 0.0
C221 C 0.82604 0.81227 0.46662 0.0
C222 C 0.84152 0.76732 0.54201 0.0
C223 C 0.88806 0.75473 0.54126 0.0
C224 C 0.8449 0.78659 0.49151 0.0
C225 C 0.91086 0.75509 0.51473 0.0
C226 C 0.85378 0.82314 0.44285 0.0
C227 C 0.7668 0.86117 0.44864 0.0
N228 N 0.8893 0.77162 0.49101 0.0
N229 N 0.78313 0.83088 0.46835 0.0
H230 H 0.86991 0.11016 0.41878 0.0
H231 H 0.91851 0.13864 0.58361 0.0
H232 H 0.77245 0.05898 0.48075 0.0
H233 H 0.96029 0.24054 0.52145 0.0
H234 H 0.86836 0.10373 0.54713 0.0
H235 H 0.90854 0.15302 0.45685 0.0
C236 C 0.85652 0.10822 0.44042 0.0
C237 C 0.81801 0.08116 0.44673 0.0
C238 C 0.88811 0.13412 0.54173 0.0
C239 C 0.86238 0.12933 0.49037 0.0
C240 C 0.9167 0.15394 0.56244 0.0
C241 C 0.94368 0.19235 0.55545 0.0
C242 C 0.88747 0.15239 0.51384 0.0
C243 C 0.94013 0.21089 0.52775 0.0
C244 C 0.87843 0.13277 0.46208 0.0
C245 C 0.80197 0.07976 0.47509 0.0
N246 N 0.9131 0.19034 0.50784 0.0
N247 N 0.82467 0.10306 0.49606 0.0
H248 H 0.80213 0.11006 0.90579 0.0
H249 H 0.80788 0.13979 0.07063 0.0
H250 H 0.6941 0.0553 0.95928 0.0
H251 H 0.85874 0.24847 0.01613 0.0
H252 H 0.76622 0.10771 0.02969 0.0
H253 H 0.82362 0.1625 0.94474 0.0
C254 C 0.78226 0.10986 0.92543 0.0
C255 C 0.74676 0.07789 0.92951 0.0
C256 C 0.78583 0.13905 0.02681 0.0
C257 C 0.77171 0.13664 0.97407 0.0
C258 C 0.80972 0.15717 0.0501 0.0
C259 C 0.83682 0.19656 0.04659 0.0
C260 C 0.79022 0.1598 -0.00027 0.0
C261 C 0.8381 0.21797 0.01961 0.0
C262 C 0.79452 0.13971 0.94761 0.0
C263 C 0.72204 0.07908 0.95534 0.0
N264 N 0.81585 0.19875 0.99697 0.0
N265 N 0.73566 0.1072 0.97691 0.0
H266 H 0.12952 0.15231 0.92148 0.0
H267 H 0.07398 0.15874 0.08587 0.0
H268 H 0.22547 0.09631 0.9829 0.0
H269 H 0.02401 0.26232 0.0271 0.0
H270 H 0.1298 0.13396 0.04943 0.0
H271 H 0.08958 0.19202 0.96034 0.0
C272 C 0.14252 0.14899 0.94316 0.0
C273 C 0.18069 0.1211 0.9491 0.0
C274 C 0.10708 0.16262 0.04479 0.0
C275 C 0.13463 0.16537 0.99372 0.0
C276 C 0.07523 0.17667 0.06551 0.0
C277 C 0.04406 0.21228 0.05936 0.0
C278 C 0.10698 0.18388 0.01771 0.0
C279 C 0.04716 0.23447 0.03268 0.0
C280 C 0.11982 0.17167 0.96532 0.0
C281 C 0.19622 0.11779 0.97752 0.0
N282 N 0.07751 0.21943 0.0127 0.0
N283 N 0.17256 0.13901 -0.00105 0.0
H284 H 0.047 0.76245 0.01664 0.0
H285 H 0.25416 0.92233 0.96518 0.0
H286 H 0.15586 0.81045 0.07193 0.0
H287 H 0.1317 0.899 0.91493 0.0
H288 H 0.2267 0.86708 0.00057 0.0
H289 H 0.08583 0.79795 0.97573 0.0
C290 C 0.07948 0.77982 0.02009 0.0
C291 C 0.09804 0.78405 0.04774 0.0
C292 C 0.20602 0.87362 0.98167 0.0
C293 C 0.14239 0.82479 0.00113 0.0
C294 C 0.22169 0.90511 0.96141 0.0
C295 C 0.19479 0.91571 0.9373 0.0
C296 C 0.16306 0.85259 0.97786 0.0
C297 C 0.15328 0.89205 0.93336 0.0
C298 C 0.1015 0.80018 0.99675 0.0
C299 C 0.1402 0.80676 0.051 0.0
N300 N 0.13838 0.86189 0.95366 0.0
N301 N 0.16077 0.82666 0.02799 0.0
H302 H 0.84768 0.95208 0.95826 0.0
H303 H 0.86528 0.75299 0.07359 0.0
H304 H 0.74828 0.84196 0.96111 0.0
H305 H 0.93266 0.88462 0.08182 0.0
H306 H 0.81907 0.78427 0.03409 0.0
H307 H 0.87856 0.9264 0.00397 0.0
C308 C 0.83246 0.92224 0.96848 0.0
C309 C 0.79565 0.89881 0.95576 0.0
C310 C 0.8433 0.80651 0.04496 0.0
C311 C 0.83082 0.86923 0.00841 0.0
C312 C 0.86948 0.78879 0.06761 0.0
C313 C 0.90326 0.81613 0.08073 0.0
C314 C 0.85144 0.85161 0.03534 0.0
C315 C 0.90737 0.86219 0.07211 0.0
C316 C 0.84985 0.90785 0.99477 0.0
C317 C 0.77691 0.86076 0.97018 0.0
N318 N 0.88234 0.87823 0.04967 0.0
N319 N 0.79503 0.84679 0.9957 0.0
H320 H 0.0365 0.1298 0.68678 0.0
H321 H 0.23266 0.13185 0.80722 0.0
H322 H 0.15589 0.2179 0.68522 0.0
H323 H 0.125 0.02975 0.80537 0.0
H324 H 0.20291 0.16455 0.76291 0.0
H325 H 0.06604 0.09347 0.7307 0.0
C326 C 0.06886 0.14148 0.69569 0.0
C327 C 0.09377 0.17695 0.68241 0.0
C328 C 0.18574 0.13491 0.77205 0.0
C329 C 0.12761 0.13575 0.7324 0.0
C330 C 0.20273 0.11621 0.79741 0.0
C331 C 0.18122 0.07805 0.81 0.0
C332 C 0.14668 0.11556 0.75912 0.0
C333 C 0.14261 0.05918 0.79631 0.0
C334 C 0.08572 0.1207 0.72066 0.0
C335 C 0.13551 0.19072 0.69474 0.0
N336 N 0.12639 0.07827 0.7716 0.0
N337 N 0.15101 0.17018 0.71903 0.0
H338 H 0.12397 0.75656 0.19756 0.0
H339 H 0.13666 0.97434 0.30165 0.0
H340 H 0.02289 0.86554 0.19564 0.0
H341 H 0.20944 0.847 0.317 0.0
H342 H 0.09814 0.93836 0.26052 0.0
H343 H 0.15947 0.7924 0.23938 0.0
C344 C 0.10917 0.78799 0.20603 0.0
C345 C 0.07044 0.80812 0.19318 0.0
C346 C 0.12246 0.91835 0.27299 0.0
C347 C 0.11111 0.84958 0.24087 0.0
C348 C 0.14452 0.93889 0.29634 0.0
C349 C 0.17627 0.91359 0.31269 0.0
C350 C 0.13272 0.87247 0.26584 0.0
C351 C 0.18516 0.86775 0.30499 0.0
C352 C 0.12939 0.80841 0.22992 0.0
C353 C 0.05266 0.84885 0.20501 0.0
N354 N 0.16368 0.84875 0.28206 0.0
N355 N 0.07332 0.86846 0.22813 0.0
H356 H 0.88516 0.87357 0.66607 0.0
H357 H 0.82662 0.84227 0.83087 0.0
H358 H 0.95011 0.76989 0.71875 0.0
H359 H 0.80936 0.97262 0.78764 0.0
H360 H 0.86719 0.81256 0.78887 0.0
H361 H 0.85232 0.9084 0.70931 0.0
C362 C 0.89268 0.85831 0.68676 0.0
C363 C 0.92022 0.81875 0.6889 0.0
C364 C 0.85481 0.84776 0.78865 0.0
C365 C 0.88247 0.85796 0.73821 0.0
C366 C 0.83151 0.86466 0.81253 0.0
C367 C 0.81456 0.90989 0.81262 0.0
C368 C 0.86047 0.87604 0.76449 0.0
C369 C 0.82198 0.93754 0.78839 0.0
C370 C 0.87409 0.87826 0.71138 0.0
C371 C 0.92904 0.8004 0.71619 0.0
N372 N 0.84402 0.92 0.76511 0.0
N373 N 0.9098 0.81988 0.73978 0.0
H374 H 0.85841 0.00108 0.29678 0.0
H375 H 0.82829 0.21643 0.19085 0.0
H376 H 0.76206 0.11233 0.3098 0.0
H377 H 0.94095 0.12018 0.18359 0.0
H378 H 0.80094 0.17493 0.23288 0.0
H379 H 0.8865 0.04022 0.25343 0.0
C380 C 0.84308 0.03356 0.29045 0.0
C381 C 0.80794 0.05356 0.30689 0.0
C382 C 0.83172 0.16282 0.2222 0.0
C383 C 0.83971 0.09831 0.25761 0.0
C384 C 0.84735 0.18655 0.19816 0.0
C385 C 0.88702 0.17179 0.18377 0.0
C386 C 0.85574 0.12379 0.23193 0.0
C387 C 0.9103 0.13278 0.19417 0.0
C388 C 0.85919 0.05593 0.26582 0.0
C389 C 0.7893 0.09571 0.29782 0.0
N390 N 0.89425 0.10999 0.21764 0.0
N391 N 0.80537 0.1166 0.27384 0.0
loop_
_geom_bond_atom_site_label_1
_geom_bond_atom_site_label_2
_geom_bond_distance
_geom_bond_site_symmetry_2
_ccdc_geom_bond_type
In0 O1 2.294 . S
In0 O2 2.326 . S
In0 O6 2.266 . S
In0 O7 2.326 . S
In0 O8 2.266 . S
In0 O9 2.326 . S
In0 O11 2.294 . S
In0 O12 2.326 . S
O1 In0 2.294 . S
O1 C10 1.240 . S
O2 In0 2.326 . S
O2 C10 1.252 . S
C3 O6 1.252 . S
C3 O7 1.260 . S
C4 O11 1.240 . S
C4 O12 1.252 . S
C5 O8 1.252 . S
C5 O9 1.260 . S
O6 In0 2.266 . S
O6 C3 1.252 . S
O7 In0 2.326 . S
O7 C3 1.260 . S
O8 In0 2.266 . S
O8 C5 1.252 . S
O9 In0 2.326 . S
O9 C5 1.260 . S
C10 O1 1.240 . S
C10 O2 1.252 . S
O11 In0 2.294 . S
O11 C4 1.240 . S
O12 In0 2.326 . S
O12 C4 1.252 . S
In13 O14 2.294 . S
In13 O15 2.326 . S
In13 O19 2.266 . S
In13 O20 2.326 . S
In13 O21 2.266 . S
In13 O22 2.326 . S
In13 O24 2.294 . S
In13 O25 2.326 . S
O14 In13 2.294 . S
O14 C23 1.240 . S
O15 In13 2.326 . S
O15 C23 1.252 . S
C16 O19 1.252 . S
C16 O20 1.260 . S
C17 O24 1.240 . S
C17 O25 1.252 . S
C18 O21 1.252 . S
C18 O22 1.260 . S
O19 In13 2.266 . S
O19 C16 1.252 . S
O20 In13 2.326 . S
O20 C16 1.260 . S
O21 In13 2.266 . S
O21 C18 1.252 . S
O22 In13 2.326 . S
O22 C18 1.260 . S
C23 O14 1.240 . S
C23 O15 1.252 . S
O24 In13 2.294 . S
O24 C17 1.240 . S
O25 In13 2.326 . S
O25 C17 1.252 . S
In26 O27 2.294 . S
In26 O28 2.326 . S
In26 O32 2.266 . S
In26 O33 2.326 . S
In26 O34 2.266 . S
In26 O35 2.326 . S
In26 O37 2.294 . S
In26 O38 2.326 . S
O27 In26 2.294 . S
O27 C36 1.240 . S
O28 In26 2.326 . S
O28 C36 1.252 . S
C29 O32 1.252 . S
C29 O33 1.260 . S
C30 O37 1.240 . S
C30 O38 1.252 . S
C31 O34 1.252 . S
C31 O35 1.260 . S
O32 In26 2.266 . S
O32 C29 1.252 . S
O33 In26 2.326 . S
O33 C29 1.260 . S
O34 In26 2.266 . S
O34 C31 1.252 . S
O35 In26 2.326 . S
O35 C31 1.260 . S
C36 O27 1.240 . S
C36 O28 1.252 . S
O37 In26 2.294 . S
O37 C30 1.240 . S
O38 In26 2.326 . S
O38 C30 1.252 . S
In39 O40 2.294 . S
In39 O41 2.326 . S
In39 O45 2.266 . S
In39 O46 2.326 . S
In39 O47 2.266 . S
In39 O48 2.326 . S
In39 O50 2.294 . S
In39 O51 2.326 . S
O40 In39 2.294 . S
O40 C49 1.240 . S
O41 In39 2.326 . S
O41 C49 1.252 . S
C42 O45 1.252 . S
C42 O46 1.260 . S
C43 O50 1.240 . S
C43 O51 1.252 . S
C44 O47 1.252 . S
C44 O48 1.260 . S
O45 In39 2.266 . S
O45 C42 1.252 . S
O46 In39 2.326 . S
O46 C42 1.260 . S
O47 In39 2.266 . S
O47 C44 1.252 . S
O48 In39 2.326 . S
O48 C44 1.260 . S
C49 O40 1.240 . S
C49 O41 1.252 . S
O50 In39 2.294 . S
O50 C43 1.240 . S
O51 In39 2.326 . S
O51 C43 1.252 . S
In52 O53 2.294 . S
In52 O54 2.326 . S
In52 O58 2.266 . S
In52 O59 2.326 . S
In52 O60 2.266 . S
In52 O61 2.326 . S
In52 O63 2.294 . S
In52 O64 2.326 . S
O53 In52 2.294 . S
O53 C62 1.240 . S
O54 In52 2.326 . S
O54 C62 1.252 . S
C55 O58 1.252 . S
C55 O59 1.260 . S
C56 O63 1.240 . S
C56 O64 1.252 . S
C57 O60 1.252 . S
C57 O61 1.260 . S
O58 In52 2.266 . S
O58 C55 1.252 . S
O59 In52 2.326 . S
O59 C55 1.260 . S
O60 In52 2.266 . S
O60 C57 1.252 . S
O61 In52 2.326 . S
O61 C57 1.260 . S
C62 O53 1.240 . S
C62 O54 1.252 . S
O63 In52 2.294 . S
O63 C56 1.240 . S
O64 In52 2.326 . S
O64 C56 1.252 . S
In65 O66 2.294 . S
In65 O67 2.326 . S
In65 O71 2.266 . S
In65 O72 2.326 . S
In65 O73 2.266 . S
In65 O74 2.326 . S
In65 O76 2.294 . S
In65 O77 2.326 . S
O66 In65 2.294 . S
O66 C75 1.240 . S
O67 In65 2.326 . S
O67 C75 1.252 . S
C68 O71 1.252 . S
C68 O72 1.260 . S
C69 O76 1.240 . S
C69 O77 1.252 . S
C70 O73 1.252 . S
C70 O74 1.260 . S
O71 In65 2.266 . S
O71 C68 1.252 . S
O72 In65 2.326 . S
O72 C68 1.260 . S
O73 In65 2.266 . S
O73 C70 1.252 . S
O74 In65 2.326 . S
O74 C70 1.260 . S
C75 O66 1.240 . S
C75 O67 1.252 . S
O76 In65 2.294 . S
O76 C69 1.240 . S
O77 In65 2.326 . S
O77 C69 1.252 . S
In78 O79 2.294 . S
In78 O80 2.326 . S
In78 O84 2.266 . S
In78 O85 2.326 . S
In78 O86 2.266 . S
In78 O87 2.326 . S
In78 O89 2.294 . S
In78 O90 2.326 . S
O79 In78 2.294 . S
O79 C88 1.240 . S
O80 In78 2.326 . S
O80 C88 1.252 . S
C81 O84 1.252 . S
C81 O85 1.260 . S
C82 O89 1.240 . S
C82 O90 1.252 . S
C83 O86 1.252 . S
C83 O87 1.260 . S
O84 In78 2.266 . S
O84 C81 1.252 . S
O85 In78 2.326 . S
O85 C81 1.260 . S
O86 In78 2.266 . S
O86 C83 1.252 . S
O87 In78 2.326 . S
O87 C83 1.260 . S
C88 O79 1.240 . S
C88 O80 1.252 . S
O89 In78 2.294 . S
O89 C82 1.240 . S
O90 In78 2.326 . S
O90 C82 1.252 . S
In91 O92 2.294 . S
In91 O93 2.326 . S
In91 O97 2.266 . S
In91 O98 2.326 . S
In91 O99 2.266 . S
In91 O100 2.326 . S
In91 O102 2.294 . S
In91 O103 2.326 . S
O92 In91 2.294 . S
O92 C101 1.240 . S
O93 In91 2.326 . S
O93 C101 1.252 . S
C94 O97 1.252 . S
C94 O98 1.260 . S
C95 O102 1.240 . S
C95 O103 1.252 . S
C96 O99 1.252 . S
C96 O100 1.260 . S
O97 In91 2.266 . S
O97 C94 1.252 . S
O98 In91 2.326 . S
O98 C94 1.260 . S
O99 In91 2.266 . S
O99 C96 1.252 . S
O100 In91 2.326 . S
O100 C96 1.260 . S
C101 O92 1.240 . S
C101 O93 1.252 . S
O102 In91 2.294 . S
O102 C95 1.240 . S
O103 In91 2.326 . S
O103 C95 1.252 . S
H104 C110 0.930 1_455 S
H105 C114 0.930 1_655 S
H106 C119 0.929 . S
H107 C117 0.929 . S
H108 C112 0.929 . S
H109 C118 0.929 . S
C110 H104 0.930 1_655 S
C110 C111 1.367 . S
C110 C118 1.378 1_655 S
C111 C110 1.367 . S
C111 C119 1.433 . S
C112 H108 0.929 . S
C112 C114 1.378 1_655 S
C112 C116 1.350 1_655 S
C113 C116 1.463 1_655 S
C113 C118 1.350 1_655 S
C113 N121 1.427 . S
C114 H105 0.930 1_455 S
C114 C112 1.378 1_455 S
C114 C115 1.367 . S
C115 C114 1.367 . S
C115 C117 1.433 . S
C116 C112 1.350 1_455 S
C116 C113 1.463 1_455 S
C116 N120 1.427 . S
C117 H107 0.929 . S
C117 C115 1.433 . S
C117 N120 1.384 . S
C118 H109 0.929 . S
C118 C110 1.378 1_455 S
C118 C113 1.350 1_455 S
C119 H106 0.929 . S
C119 C111 1.433 . S
C119 N121 1.384 . S
N120 C116 1.427 . S
N120 C117 1.384 . S
N121 C113 1.427 . S
N121 C119 1.384 . S
H122 C128 0.930 . S
H123 C132 0.930 . S
H124 C137 0.929 . S
H125 C135 0.929 . S
H126 C130 0.929 . S
H127 C136 0.929 . S
C128 H122 0.930 . S
C128 C129 1.367 . S
C128 C136 1.378 1_545 S
C129 C128 1.367 . S
C129 C137 1.433 . S
C130 H126 0.929 . S
C130 C132 1.378 1_545 S
C130 C134 1.350 1_545 S
C131 C134 1.463 1_545 S
C131 C136 1.350 1_545 S
C131 N139 1.427 . S
C132 H123 0.930 . S
C132 C130 1.378 1_565 S
C132 C133 1.367 . S
C133 C132 1.367 . S
C133 C135 1.433 . S
C134 C130 1.350 1_565 S
C134 C131 1.463 1_565 S
C134 N138 1.427 . S
C135 H125 0.929 . S
C135 C133 1.433 . S
C135 N138 1.384 . S
C136 H127 0.929 . S
C136 C128 1.378 1_565 S
C136 C131 1.350 1_565 S
C137 H124 0.929 . S
C137 C129 1.433 . S
C137 N139 1.384 . S
N138 C134 1.427 . S
N138 C135 1.384 . S
N139 C131 1.427 . S
N139 C137 1.384 . S
H140 C146 0.930 . S
H141 C150 0.930 . S
H142 C155 0.929 . S
H143 C153 0.929 . S
H144 C148 0.929 1_655 S
H145 C154 0.929 1_455 S
C146 H140 0.930 . S
C146 C147 1.367 . S
C146 C154 1.378 . S
C147 C146 1.367 . S
C147 C155 1.433 . S
C148 H144 0.929 1_455 S
C148 C150 1.378 . S
C148 C152 1.350 . S
C149 C152 1.463 1_655 S
C149 C154 1.350 . S
C149 N157 1.427 . S
C150 H141 0.930 . S
C150 C148 1.378 . S
C150 C151 1.367 . S
C151 C150 1.367 . S
C151 C153 1.433 . S
C152 C148 1.350 . S
C152 C149 1.463 1_455 S
C152 N156 1.427 . S
C153 H143 0.929 . S
C153 C151 1.433 . S
C153 N156 1.384 . S
C154 H145 0.929 1_655 S
C154 C146 1.378 . S
C154 C149 1.350 . S
C155 H142 0.929 . S
C155 C147 1.433 . S
C155 N157 1.384 . S
N156 C152 1.427 . S
N156 C153 1.384 . S
N157 C149 1.427 . S
N157 C155 1.384 . S
H158 C164 0.920 1_565 S
H159 C168 0.920 1_545 S
H160 C173 0.929 . S
H161 C171 0.929 . S
H162 C166 0.929 . S
H163 C172 0.929 . S
C164 H158 0.920 1_545 S
C164 C165 1.367 . S
C164 C172 1.378 1_545 S
C165 C164 1.367 . S
C165 C173 1.433 . S
C166 H162 0.929 . S
C166 C168 1.378 1_545 S
C166 C170 1.350 1_545 S
C167 C170 1.463 1_545 S
C167 C172 1.350 1_545 S
C167 N175 1.427 . S
C168 H159 0.920 1_565 S
C168 C166 1.378 1_565 S
C168 C169 1.367 . S
C169 C168 1.367 . S
C169 C171 1.433 . S
C170 C166 1.350 1_565 S
C170 C167 1.463 1_565 S
C170 N174 1.427 . S
C171 H161 0.929 . S
C171 C169 1.433 . S
C171 N174 1.384 . S
C172 H163 0.929 . S
C172 C164 1.378 1_565 S
C172 C167 1.350 1_565 S
C173 H160 0.929 . S
C173 C165 1.433 . S
C173 N175 1.384 . S
N174 C170 1.427 . S
N174 C171 1.384 . S
N175 C167 1.427 . S
N175 C173 1.384 . S
H176 C182 0.930 . S
H177 C186 0.930 . S
H178 C191 0.929 1_565 S
H179 C189 0.929 . S
H180 C184 0.929 . S
H181 C190 0.929 . S
C182 H176 0.930 . S
C182 C183 1.367 . S
C182 C190 1.378 . S
C183 C182 1.367 . S
C183 C191 1.433 . S
C184 H180 0.929 . S
C184 C186 1.378 . S
C184 C188 1.350 . S
C185 C188 1.463 . S
C185 C190 1.350 . S
C185 N193 1.427 . S
C186 H177 0.930 . S
C186 C184 1.378 . S
C186 C187 1.367 . S
C187 C186 1.367 . S
C187 C189 1.433 . S
C188 C184 1.350 . S
C188 C185 1.463 . S
C188 N192 1.427 . S
C189 H179 0.929 . S
C189 C187 1.433 . S
C189 N192 1.384 . S
C190 H181 0.929 . S
C190 C182 1.378 . S
C190 C185 1.350 . S
C191 H178 0.929 1_545 S
C191 C183 1.433 . S
C191 N193 1.384 . S
N192 C188 1.427 . S
N192 C189 1.384 . S
N193 C185 1.427 . S
N193 C191 1.384 . S
H194 C200 0.930 . S
H195 C204 0.930 1_655 S
H196 C209 0.929 . S
H197 C207 0.929 . S
H198 C202 0.929 . S
H199 C208 0.929 . S
C200 H194 0.930 . S
C200 C201 1.367 . S
C200 C208 1.378 . S
C201 C200 1.367 . S
C201 C209 1.433 . S
C202 H198 0.929 . S
C202 C204 1.378 . S
C202 C206 1.350 . S
C203 C206 1.463 . S
C203 C208 1.350 . S
C203 N211 1.427 . S
C204 H195 0.930 1_455 S
C204 C202 1.378 . S
C204 C205 1.367 . S
C205 C204 1.367 . S
C205 C207 1.433 . S
C206 C202 1.350 . S
C206 C203 1.463 . S
C206 N210 1.427 . S
C207 H197 0.929 . S
C207 C205 1.433 . S
C207 N210 1.384 . S
C208 H199 0.929 . S
C208 C200 1.378 . S
C208 C203 1.350 . S
C209 H196 0.929 . S
C209 C201 1.433 . S
C209 N211 1.384 . S
N210 C206 1.427 . S
N210 C207 1.384 . S
N211 C203 1.427 . S
N211 C209 1.384 . S
H212 C218 0.930 . S
H213 C222 0.930 . S
H214 C227 0.929 1_545 S
H215 C225 0.929 . S
H216 C220 0.929 . S
H217 C226 0.929 . S
C218 H212 0.930 . S
C218 C219 1.367 . S
C218 C226 1.378 . S
C219 C218 1.367 . S
C219 C227 1.433 . S
C220 H216 0.929 . S
C220 C222 1.378 . S
C220 C224 1.350 . S
C221 C224 1.463 . S
C221 C226 1.350 . S
C221 N229 1.427 . S
C222 H213 0.930 . S
C222 C220 1.378 . S
C222 C223 1.367 . S
C223 C222 1.367 . S
C223 C225 1.433 . S
C224 C220 1.350 . S
C224 C221 1.463 . S
C224 N228 1.427 . S
C225 H215 0.929 . S
C225 C223 1.433 . S
C225 N228 1.384 . S
C226 H217 0.929 . S
C226 C218 1.378 . S
C226 C221 1.350 . S
C227 H214 0.929 1_565 S
C227 C219 1.433 . S
C227 N229 1.384 . S
N228 C224 1.427 . S
N228 C225 1.384 . S
N229 C221 1.427 . S
N229 C227 1.384 . S
H230 C236 0.930 . S
H231 C240 0.930 . S
H232 C245 0.929 . S
H233 C243 0.931 1_455 S
H234 C238 0.929 . S
H235 C244 0.929 . S
C236 H230 0.930 . S
C236 C237 1.367 . S
C236 C244 1.378 . S
C237 C236 1.367 . S
C237 C245 1.433 . S
C238 H234 0.929 . S
C238 C240 1.378 . S
C238 C242 1.350 . S
C239 C242 1.463 . S
C239 C244 1.350 . S
C239 N247 1.427 . S
C240 H231 0.930 . S
C240 C238 1.378 . S
C240 C241 1.367 . S
C241 C240 1.367 . S
C241 C243 1.433 . S
C242 C238 1.350 . S
C242 C239 1.463 . S
C242 N246 1.427 . S
C243 H233 0.931 1_655 S
C243 C241 1.433 . S
C243 N246 1.382 . S
C244 H235 0.929 . S
C244 C236 1.378 . S
C244 C239 1.350 . S
C245 H232 0.929 . S
C245 C237 1.433 . S
C245 N247 1.384 . S
N246 C242 1.427 . S
N246 C243 1.382 . S
N247 C239 1.427 . S
N247 C245 1.384 . S
H248 C254 0.930 . S
H249 C258 0.930 . S
H250 C263 0.944 . S
H251 C261 0.929 . S
H252 C256 0.929 . S
H253 C262 0.929 . S
C254 H248 0.930 . S
C254 C255 1.367 . S
C254 C262 1.378 . S
C255 C254 1.367 . S
C255 C263 1.429 1_545 S
C256 H252 0.929 . S
C256 C258 1.378 . S
C256 C260 1.350 . S
C257 C260 1.463 1_556 S
C257 C262 1.350 . S
C257 N265 1.427 . S
C258 H249 0.930 . S
C258 C256 1.378 . S
C258 C259 1.367 . S
C259 C258 1.367 . S
C259 C261 1.433 . S
C260 C256 1.350 . S
C260 C257 1.463 1_554 S
C260 N264 1.427 . S
C261 H251 0.929 . S
C261 C259 1.433 . S
C261 N264 1.384 . S
C262 H253 0.929 . S
C262 C254 1.378 . S
C262 C257 1.350 . S
C263 H250 0.944 . S
C263 C255 1.429 1_565 S
C263 N265 1.373 1_565 S
N264 C260 1.427 . S
N264 C261 1.384 . S
N265 C257 1.427 . S
N265 C263 1.373 1_545 S
H266 C272 0.930 . S
H267 C276 0.930 . S
H268 C281 0.929 . S
H269 C279 0.929 . S
H270 C274 0.929 . S
H271 C280 0.929 . S
C272 H266 0.930 . S
C272 C273 1.367 . S
C272 C280 1.378 . S
C273 C272 1.367 . S
C273 C281 1.433 . S
C274 H270 0.929 . S
C274 C276 1.378 . S
C274 C278 1.350 . S
C275 C278 1.463 1_556 S
C275 C280 1.350 . S
C275 N283 1.427 . S
C276 H267 0.930 . S
C276 C274 1.378 . S
C276 C277 1.367 . S
C277 C276 1.367 . S
C277 C279 1.433 . S
C278 C274 1.350 . S
C278 C275 1.463 1_554 S
C278 N282 1.427 . S
C279 H269 0.929 . S
C279 C277 1.433 . S
C279 N282 1.384 . S
C280 H271 0.929 . S
C280 C272 1.378 . S
C280 C275 1.350 . S
C281 H268 0.929 . S
C281 C273 1.433 . S
C281 N283 1.384 . S
N282 C278 1.427 . S
N282 C279 1.384 . S
N283 C275 1.427 . S
N283 C281 1.384 . S
H284 C290 0.930 . S
H285 C294 0.930 1_545 S
H286 C299 0.929 . S
H287 C297 0.929 . S
H288 C292 0.929 1_554 S
H289 C298 0.929 1_556 S
C290 H284 0.930 . S
C290 C291 1.367 . S
C290 C298 1.378 . S
C291 C290 1.367 . S
C291 C299 1.433 . S
C292 H288 0.929 1_556 S
C292 C294 1.378 . S
C292 C296 1.350 . S
C293 C296 1.463 1_554 S
C293 C298 1.350 . S
C293 N301 1.427 . S
C294 H285 0.930 1_565 S
C294 C292 1.378 . S
C294 C295 1.367 . S
C295 C294 1.367 . S
C295 C297 1.433 . S
C296 C292 1.350 . S
C296 C293 1.463 1_556 S
C296 N300 1.427 . S
C297 H287 0.929 . S
C297 C295 1.433 . S
C297 N300 1.384 . S
C298 H289 0.929 1_554 S
C298 C290 1.378 . S
C298 C293 1.350 . S
C299 H286 0.929 . S
C299 C291 1.433 . S
C299 N301 1.384 . S
N300 C296 1.427 . S
N300 C297 1.384 . S
N301 C293 1.427 . S
N301 C299 1.384 . S
H302 C308 0.930 . S
H303 C312 0.930 . S
H304 C317 0.929 . S
H305 C315 0.929 1_455 S
H306 C310 0.929 . S
H307 C316 0.929 . S
C308 H302 0.930 . S
C308 C309 1.367 . S
C308 C316 1.378 . S
C309 C308 1.367 . S
C309 C317 1.433 . S
C310 H306 0.929 . S
C310 C312 1.378 . S
C310 C314 1.350 . S
C311 C314 1.463 1_556 S
C311 C316 1.350 . S
C311 N319 1.427 . S
C312 H303 0.930 . S
C312 C310 1.378 . S
C312 C313 1.367 . S
C313 C312 1.367 . S
C313 C315 1.433 . S
C314 C310 1.350 . S
C314 C311 1.463 1_554 S
C314 N318 1.427 . S
C315 H305 0.929 1_655 S
C315 C313 1.433 . S
C315 N318 1.384 . S
C316 H307 0.929 . S
C316 C308 1.378 . S
C316 C311 1.350 . S
C317 H304 0.929 . S
C317 C309 1.433 . S
C317 N319 1.384 . S
N318 C314 1.427 . S
N318 C315 1.384 . S
N319 C311 1.427 . S
N319 C317 1.384 . S
H320 C326 0.930 . S
H321 C330 0.930 . S
H322 C335 0.929 . S
H323 C333 0.929 . S
H324 C328 0.929 . S
H325 C334 0.929 . S
C326 H320 0.930 . S
C326 C327 1.367 . S
C326 C334 1.378 . S
C327 C326 1.367 . S
C327 C335 1.433 . S
C328 H324 0.929 . S
C328 C330 1.378 . S
C328 C332 1.350 . S
C329 C332 1.463 . S
C329 C334 1.350 . S
C329 N337 1.427 . S
C330 H321 0.930 . S
C330 C328 1.378 . S
C330 C331 1.367 . S
C331 C330 1.367 . S
C331 C333 1.433 . S
C332 C328 1.350 . S
C332 C329 1.463 . S
C332 N336 1.427 . S
C333 H323 0.929 . S
C333 C331 1.433 . S
C333 N336 1.384 . S
C334 H325 0.929 . S
C334 C326 1.378 . S
C334 C329 1.350 . S
C335 H322 0.929 . S
C335 C327 1.433 . S
C335 N337 1.384 . S
N336 C332 1.427 . S
N336 C333 1.384 . S
N337 C329 1.427 . S
N337 C335 1.384 . S
H338 C344 0.930 . S
H339 C348 0.930 . S
H340 C353 0.929 . S
H341 C351 0.929 . S
H342 C346 0.929 . S
H343 C352 0.929 . S
C344 H338 0.930 . S
C344 C345 1.367 . S
C344 C352 1.378 . S
C345 C344 1.367 . S
C345 C353 1.433 . S
C346 H342 0.929 . S
C346 C348 1.378 . S
C346 C350 1.350 . S
C347 C350 1.463 . S
C347 C352 1.350 . S
C347 N355 1.427 . S
C348 H339 0.930 . S
C348 C346 1.378 . S
C348 C349 1.367 . S
C349 C348 1.367 . S
C349 C351 1.433 . S
C350 C346 1.350 . S
C350 C347 1.463 . S
C350 N354 1.427 . S
C351 H341 0.929 . S
C351 C349 1.433 . S
C351 N354 1.384 . S
C352 H343 0.929 . S
C352 C344 1.378 . S
C352 C347 1.350 . S
C353 H340 0.929 . S
C353 C345 1.433 . S
C353 N355 1.384 . S
N354 C350 1.427 . S
N354 C351 1.384 . S
N355 C347 1.427 . S
N355 C353 1.384 . S
H356 C362 0.930 . S
H357 C366 0.930 . S
H358 C371 0.929 . S
H359 C369 0.929 . S
H360 C364 0.929 . S
H361 C370 0.929 . S
C362 H356 0.930 . S
C362 C363 1.367 . S
C362 C370 1.378 . S
C363 C362 1.367 . S
C363 C371 1.433 . S
C364 H360 0.929 . S
C364 C366 1.378 . S
C364 C368 1.350 . S
C365 C368 1.463 . S
C365 C370 1.350 . S
C365 N373 1.427 . S
C366 H357 0.930 . S
C366 C364 1.378 . S
C366 C367 1.367 . S
C367 C366 1.367 . S
C367 C369 1.433 . S
C368 C364 1.350 . S
C368 C365 1.463 . S
C368 N372 1.427 . S
C369 H359 0.929 . S
C369 C367 1.433 . S
C369 N372 1.384 . S
C370 H361 0.929 . S
C370 C362 1.378 . S
C370 C365 1.350 . S
C371 H358 0.929 . S
C371 C363 1.433 . S
C371 N373 1.384 . S
N372 C368 1.427 . S
N372 C369 1.384 . S
N373 C365 1.427 . S
N373 C371 1.384 . S
H374 C380 0.930 . S
H375 C384 0.930 . S
H376 C389 0.929 . S
H377 C387 0.929 . S
H378 C382 0.929 . S
H379 C388 0.929 . S
C380 H374 0.930 . S
C380 C381 1.367 . S
C380 C388 1.378 . S
C381 C380 1.367 . S
C381 C389 1.433 . S
C382 H378 0.929 . S
C382 C384 1.378 . S
C382 C386 1.350 . S
C383 C386 1.463 . S
C383 C388 1.350 . S
C383 N391 1.427 . S
C384 H375 0.930 . S
C384 C382 1.378 . S
C384 C385 1.367 . S
C385 C384 1.367 . S
C385 C387 1.433 . S
C386 C382 1.350 . S
C386 C383 1.463 . S
C386 N390 1.427 . S
C387 H377 0.929 . S
C387 C385 1.433 . S
C387 N390 1.384 . S
C388 H379 0.929 . S
C388 C380 1.378 . S
C388 C383 1.350 . S
C389 H376 0.929 . S
C389 C381 1.433 . S
C389 N391 1.384 . S
N390 C386 1.427 . S
N390 C387 1.384 . S
N391 C383 1.427 . S
N391 C389 1.384 . S
C111 C36 1.589 . S
C115 C10 1.590 . S
C129 C49 1.589 . S
C133 C23 1.591 . S
C147 C56 1.593 . S
C151 C88 1.590 . S
C165 C75 1.589 . S
C169 C95 1.590 . S
C183 C18 1.128 1_545 S
C187 C3 1.112 . S
C201 C16 1.114 . S
C205 C31 1.123 1_455 S
C219 C44 1.128 1_565 S
C223 C29 1.109 . S
C237 C42 1.108 . S
C241 C5 1.128 1_655 S
C255 C94 1.126 1_545 S
C259 C57 1.102 . S
C273 C68 1.114 . S
C277 C55 1.127 1_455 S
C291 C81 1.102 . S
C295 C70 1.120 1_565 S
C309 C96 1.099 . S
C313 C83 1.123 1_655 S
C327 C4 1.715 . S
C331 C69 1.718 . S
C345 C82 1.719 . S
C349 C17 1.717 . S
C363 C30 1.715 . S
C367 C101 1.715 . S
C381 C43 1.719 . S
C385 C62 1.720 . S
