# Generated by pormake.
# Topology sow, (4)-cn, num edge types: 1
# Building blocks:
#     Node 0, Type 0, BuildingBlock: QUQFOY_clean_sbu_1, # of connection points: 4
#     Node 1, Type 0, BuildingBlock: QUQFOY_clean_sbu_1, # of connection points: 4
#     Node 2, Type 0, BuildingBlock: QUQFOY_clean_sbu_1, # of connection points: 4
#     Node 3, Type 0, BuildingBlock: QUQFOY_clean_sbu_1, # of connection points: 4
#     Node 4, Type 0, BuildingBlock: QUQFOY_clean_sbu_1, # of connection points: 4
#     Node 5, Type 0, BuildingBlock: QUQFOY_clean_sbu_1, # of connection points: 4
#     Node 6, Type 0, BuildingBlock: QUQFOY_clean_sbu_1, # of connection points: 4
#     Node 7, Type 0, BuildingBlock: QUQFOY_clean_sbu_1, # of connection points: 4
#     Edge 8, Type (0, 0), BuildingBlock: TEMPAE_clean_linker_10, # of connection points: 2
#     Edge 9, Type (0, 0), BuildingBlock: TEMPAE_clean_linker_10, # of connection points: 2
#     Edge 10, Type (0, 0), BuildingBlock: TEMPAE_clean_linker_10, # of connection points: 2
#     Edge 11, Type (0, 0), BuildingBlock: TEMPAE_clean_linker_10, # of connection points: 2
#     Edge 12, Type (0, 0), BuildingBlock: TEMPAE_clean_linker_10, # of connection points: 2
#     Edge 13, Type (0, 0), BuildingBlock: TEMPAE_clean_linker_10, # of connection points: 2
#     Edge 14, Type (0, 0), BuildingBlock: TEMPAE_clean_linker_10, # of connection points: 2
#     Edge 15, Type (0, 0), BuildingBlock: TEMPAE_clean_linker_10, # of connection points: 2
#     Edge 16, Type (0, 0), BuildingBlock: TEMPAE_clean_linker_10, # of connection points: 2
#     Edge 17, Type (0, 0), BuildingBlock: TEMPAE_clean_linker_10, # of connection points: 2
#     Edge 18, Type (0, 0), BuildingBlock: TEMPAE_clean_linker_10, # of connection points: 2
#     Edge 19, Type (0, 0), BuildingBlock: TEMPAE_clean_linker_10, # of connection points: 2
#     Edge 20, Type (0, 0), BuildingBlock: TEMPAE_clean_linker_10, # of connection points: 2
#     Edge 21, Type (0, 0), BuildingBlock: TEMPAE_clean_linker_10, # of connection points: 2
#     Edge 22, Type (0, 0), BuildingBlock: TEMPAE_clean_linker_10, # of connection points: 2
#     Edge 23, Type (0, 0), BuildingBlock: TEMPAE_clean_linker_10, # of connection points: 2
# Relax obj value: 0.073
# Max RMSD: 0.123
# Mean RMSD: 0.123
data_MOF--net-sow--node1-QUQFOY_clean_sbu_1--edge1-TEMPAE_clean_linker_10
_symmetry_space_group_name_H-M    P1
_symmetry_Int_Tables_number       1
_symmetry_cell_setting            triclinic
loop_
_symmetry_equiv_pos_as_xyz
'x, y, z'
_cell_length_a     35.565447
_cell_length_b     37.682647
_cell_length_c     24.103252
_cell_angle_alpha  90.048206
_cell_angle_beta   89.993566
_cell_angle_gamma 89.952653
loop_
_atom_site_label
_atom_site_type_symbol
_atom_site_fract_x
_atom_site_fract_y
_atom_site_fract_z
_atom_type_partial_charge
O0 O 0.18852 0.2095 0.07721 0.0
Cd1 Cd 0.14711 0.2268 0.02426 0.0
Cd2 Cd 0.10835 0.16515 0.07175 0.0
O3 O 0.15725 0.16634 0.11943 0.0
O4 O 0.17082 0.26624 0.98122 0.0
O5 O 0.15083 0.2167 0.94199 0.0
C6 C 0.16652 0.24742 0.93714 0.0
C7 C 0.07695 0.11054 0.05637 0.0
C8 C 0.18629 0.18597 0.11483 0.0
C9 C 0.07536 0.23911 0.08712 0.0
O10 O 0.07149 0.20564 0.08919 0.0
O11 O 0.10382 0.25295 0.0639 0.0
O12 O 0.07837 0.12509 0.10455 0.0
O13 O 0.09493 0.12596 0.01664 0.0
O14 O 0.31944 0.29594 0.57728 0.0
Cd15 Cd 0.36214 0.28289 0.52358 0.0
Cd16 Cd 0.39137 0.35005 0.56595 0.0
O17 O 0.34075 0.34734 0.60914 0.0
O18 O 0.34242 0.24111 0.4815 0.0
O19 O 0.3553 0.29253 0.4418 0.0
C20 C 0.34283 0.26045 0.43751 0.0
C21 C 0.41763 0.40509 0.53952 0.0
C22 C 0.31615 0.32276 0.60889 0.0
C23 C 0.43415 0.28128 0.58851 0.0
O24 O 0.43122 0.31476 0.59319 0.0
O25 O 0.41003 0.26339 0.56146 0.0
O26 O 0.41256 0.39696 0.59077 0.0
O27 O 0.40623 0.38275 0.50255 0.0
O28 O 0.69614 0.30163 0.93054 0.0
Cd29 Cd 0.65312 0.28313 0.97951 0.0
Cd30 Cd 0.61959 0.34934 0.93969 0.0
O31 O 0.67035 0.35054 0.89686 0.0
O32 O 0.67833 0.24256 0.01769 0.0
O33 O 0.65404 0.28805 0.06312 0.0
C34 C 0.67239 0.25846 0.06415 0.0
C35 C 0.59029 0.40295 0.96684 0.0
C36 C 0.6974 0.32841 0.89867 0.0
C37 C 0.58282 0.27816 0.91149 0.0
O38 O 0.5824 0.3119 0.91102 0.0
O39 O 0.60873 0.26109 0.9362 0.0
O40 O 0.59552 0.39511 0.9155 0.0
O41 O 0.60281 0.38099 0.00353 0.0
O42 O 0.83652 0.23277 0.4287 0.0
Cd43 Cd 0.87697 0.24149 0.48787 0.0
Cd44 Cd 0.90106 0.17331 0.43988 0.0
O45 O 0.84884 0.17784 0.40076 0.0
O46 O 0.85763 0.2822 0.53297 0.0
O47 O 0.86671 0.22862 0.56776 0.0
C48 C 0.85574 0.261 0.57473 0.0
C49 C 0.92967 0.1173 0.45447 0.0
C50 C 0.82881 0.20592 0.39879 0.0
C51 C 0.94716 0.24249 0.42338 0.0
O52 O 0.94048 0.20988 0.41426 0.0
O53 O 0.92623 0.26062 0.45526 0.0
O54 O 0.92506 0.13022 0.40561 0.0
O55 O 0.91581 0.13495 0.49559 0.0
O56 O 0.81883 0.78669 0.9362 0.0
Cd57 Cd 0.86155 0.77538 0.99029 0.0
Cd58 Cd 0.8825 0.84453 0.95039 0.0
O59 O 0.82886 0.84297 0.9151 0.0
O60 O 0.84039 0.73355 0.03039 0.0
O61 O 0.85702 0.78304 0.07305 0.0
C62 C 0.8424 0.75171 0.07555 0.0
C63 C 0.91055 0.89817 0.97962 0.0
C64 C 0.80944 0.81472 0.91051 0.0
C65 C 0.92819 0.77791 0.91837 0.0
O66 O 0.9209 0.81083 0.91364 0.0
O67 O 0.90906 0.75806 0.95023 0.0
O68 O 0.90201 0.8926 0.92849 0.0
O69 O 0.90137 0.87409 0.01521 0.0
O70 O 0.67161 0.73449 0.43314 0.0
Cd71 Cd 0.63048 0.74787 0.48916 0.0
Cd72 Cd 0.60398 0.67879 0.4454 0.0
O73 O 0.65599 0.68036 0.40542 0.0
O74 O 0.65456 0.78799 0.5302 0.0
O75 O 0.63495 0.73912 0.57167 0.0
C76 C 0.65122 0.76968 0.575 0.0
C77 C 0.57485 0.6235 0.46337 0.0
C78 C 0.67795 0.70705 0.40389 0.0
C79 C 0.56077 0.7496 0.4236 0.0
O80 O 0.56552 0.71627 0.41874 0.0
O81 O 0.58319 0.76833 0.45228 0.0
O82 O 0.57837 0.63572 0.41389 0.0
O83 O 0.58954 0.64167 0.50324 0.0
O84 O 0.31556 0.71161 0.06832 0.0
Cd85 Cd 0.35759 0.73398 0.02143 0.0
Cd86 Cd 0.3978 0.67278 0.06614 0.0
O87 O 0.34888 0.67129 0.11349 0.0
O88 O 0.32918 0.77207 0.98185 0.0
O89 O 0.36015 0.72987 0.93766 0.0
C90 C 0.33885 0.7576 0.93564 0.0
C91 C 0.42995 0.61898 0.0477 0.0
C92 C 0.31844 0.68859 0.10658 0.0
C93 C 0.42716 0.74735 0.08803 0.0
O94 O 0.43326 0.71415 0.08521 0.0
O95 O 0.39755 0.76079 0.06731 0.0
O96 O 0.42903 0.63276 0.09646 0.0
O97 O 0.41145 0.63493 0.00899 0.0
O98 O 0.18112 0.78741 0.56681 0.0
Cd99 Cd 0.13823 0.78178 0.51086 0.0
Cd100 Cd 0.12212 0.84981 0.55517 0.0
O101 O 0.1759 0.84414 0.58904 0.0
O102 O 0.15311 0.73945 0.46582 0.0
O103 O 0.14787 0.7933 0.43038 0.0
C104 C 0.15642 0.76024 0.42374 0.0
C105 C 0.0965 0.90429 0.52544 0.0
C106 C 0.19287 0.81442 0.59318 0.0
C107 C 0.07154 0.78662 0.58284 0.0
O108 O 0.08193 0.81836 0.59195 0.0
O109 O 0.08839 0.7673 0.54751 0.0
O110 O 0.10566 0.89905 0.57645 0.0
O111 O 0.10418 0.8795 0.49017 0.0
C112 C 0.25172 0.30735 0.64241 0.0
C113 C 0.2875 0.32131 0.65313 0.0
C114 C 0.22719 0.29868 0.68609 0.0
C115 C 0.23955 0.30246 0.74165 0.0
C116 C 0.27513 0.3179 0.75254 0.0
C117 C 0.29835 0.32779 0.70807 0.0
C118 C 0.18881 0.28392 0.67272 0.0
C119 C 0.28996 0.32144 0.811 0.0
C120 C 0.17629 0.2959 0.86839 0.0
C121 C 0.18113 0.26031 0.88359 0.0
C122 C 0.19325 0.30952 0.82026 0.0
C123 C 0.21707 0.28741 0.78825 0.0
C124 C 0.2215 0.25122 0.80312 0.0
C125 C 0.20279 0.23793 0.85004 0.0
C126 C 0.18642 0.34775 0.80449 0.0
C127 C 0.24755 0.22699 0.77122 0.0
H128 H 0.24337 0.30223 0.59988 0.0
H129 H 0.32629 0.33798 0.71642 0.0
H130 H 0.1885 0.25494 0.68068 0.0
H131 H 0.16709 0.29619 0.69968 0.0
H132 H 0.18104 0.28842 0.62864 0.0
H133 H 0.3175 0.3353 0.81251 0.0
H134 H 0.26971 0.33619 0.83729 0.0
H135 H 0.29342 0.29466 0.82949 0.0
H136 H 0.15933 0.31313 0.89436 0.0
H137 H 0.20681 0.2105 0.86229 0.0
H138 H 0.17943 0.34978 0.75973 0.0
H139 H 0.21232 0.36347 0.81157 0.0
H140 H 0.16326 0.35983 0.82901 0.0
H141 H 0.23907 0.22584 0.727 0.0
H142 H 0.2478 0.19956 0.7881 0.0
H143 H 0.27662 0.23765 0.77266 0.0
C144 C 0.25196 0.19592 0.14845 0.0
C145 C 0.21456 0.18669 0.15977 0.0
C146 C 0.27707 0.20416 0.19162 0.0
C147 C 0.26396 0.20461 0.24711 0.0
C148 C 0.22664 0.1938 0.25883 0.0
C149 C 0.2026 0.18436 0.21504 0.0
C150 C 0.31705 0.21409 0.17756 0.0
C151 C 0.21115 0.19476 0.31717 0.0
C152 C 0.3277 0.21029 0.37348 0.0
C153 C 0.32684 0.24676 0.38511 0.0
C154 C 0.30907 0.19636 0.32689 0.0
C155 C 0.28793 0.21929 0.29239 0.0
C156 C 0.2877 0.25628 0.30334 0.0
C157 C 0.30771 0.26963 0.34907 0.0
C158 C 0.31119 0.15701 0.3155 0.0
C159 C 0.26479 0.28157 0.26843 0.0
H160 H 0.26124 0.19779 0.1057 0.0
H161 H 0.17352 0.17782 0.22389 0.0
H162 H 0.32087 0.24311 0.18279 0.0
H163 H 0.33701 0.20068 0.20606 0.0
H164 H 0.32442 0.20698 0.13415 0.0
H165 H 0.18215 0.18394 0.31963 0.0
H166 H 0.22943 0.17937 0.34559 0.0
H167 H 0.21074 0.22257 0.33236 0.0
H168 H 0.34268 0.19258 0.40118 0.0
H169 H 0.30672 0.29778 0.35831 0.0
H170 H 0.31829 0.15216 0.2713 0.0
H171 H 0.28341 0.14466 0.32338 0.0
H172 H 0.33244 0.14359 0.34199 0.0
H173 H 0.27324 0.27955 0.22427 0.0
H174 H 0.26801 0.30959 0.28197 0.0
H175 H 0.23459 0.27433 0.27092 0.0
C176 C 0.77703 0.18222 0.33769 0.0
C177 C 0.80011 0.21027 0.35492 0.0
C178 C 0.75134 0.18684 0.29372 0.0
C179 C 0.75014 0.21967 0.26499 0.0
C180 C 0.77344 0.24796 0.28254 0.0
C181 C 0.79752 0.24309 0.32782 0.0
C182 C 0.72589 0.15654 0.27756 0.0
C183 C 0.77422 0.28299 0.25203 0.0
C184 C 0.7227 0.22509 0.11332 0.0
C185 C 0.68918 0.24462 0.11595 0.0
C186 C 0.74201 0.21535 0.16171 0.0
C187 C 0.72674 0.22426 0.21417 0.0
C188 C 0.69152 0.24181 0.21709 0.0
C189 C 0.6735 0.25247 0.16786 0.0
C190 C 0.78006 0.19781 0.15644 0.0
C191 C 0.67363 0.25062 0.27219 0.0
H192 H 0.77893 0.15688 0.35874 0.0
H193 H 0.81572 0.2647 0.34051 0.0
H194 H 0.69643 0.16599 0.27377 0.0
H195 H 0.73436 0.14597 0.23647 0.0
H196 H 0.72687 0.13452 0.30815 0.0
H197 H 0.79434 0.30212 0.2707 0.0
H198 H 0.7823 0.27857 0.20808 0.0
H199 H 0.74587 0.29522 0.25208 0.0
H200 H 0.73503 0.21913 0.07323 0.0
H201 H 0.64736 0.26724 0.17 0.0
H202 H 0.78133 0.17346 0.18214 0.0
H203 H 0.80212 0.21612 0.17199 0.0
H204 H 0.78684 0.19063 0.11286 0.0
H205 H 0.67528 0.22753 0.30064 0.0
H206 H 0.64371 0.25855 0.26752 0.0
H207 H 0.68904 0.27285 0.29199 0.0
C208 C 0.76294 0.31562 0.86702 0.0
C209 C 0.72702 0.32915 0.85567 0.0
C210 C 0.78839 0.30822 0.82391 0.0
C211 C 0.77701 0.31308 0.76812 0.0
C212 C 0.74147 0.32846 0.75668 0.0
C213 C 0.71717 0.33689 0.8007 0.0
C214 C 0.82661 0.29333 0.83801 0.0
C215 C 0.72776 0.33329 0.69785 0.0
C216 C 0.84363 0.30855 0.64476 0.0
C217 C 0.83918 0.27324 0.62761 0.0
C218 C 0.82514 0.32148 0.69221 0.0
C219 C 0.80041 0.29892 0.72174 0.0
C220 C 0.79634 0.26304 0.70497 0.0
C221 C 0.81635 0.25047 0.65868 0.0
C222 C 0.83143 0.35943 0.70999 0.0
C223 C 0.76952 0.23832 0.73434 0.0
H224 H 0.77059 0.30956 0.90952 0.0
H225 H 0.68919 0.3468 0.79169 0.0
H226 H 0.82726 0.26454 0.82844 0.0
H227 H 0.84875 0.30626 0.81266 0.0
H228 H 0.83353 0.29689 0.88262 0.0
H229 H 0.70049 0.34764 0.69597 0.0
H230 H 0.74872 0.34812 0.673 0.0
H231 H 0.72416 0.3069 0.67806 0.0
H232 H 0.86148 0.32614 0.62086 0.0
H233 H 0.81261 0.22326 0.64509 0.0
H234 H 0.83784 0.36063 0.75502 0.0
H235 H 0.80548 0.37513 0.70303 0.0
H236 H 0.8548 0.37212 0.68675 0.0
H237 H 0.77701 0.23628 0.77887 0.0
H238 H 0.76959 0.21123 0.71612 0.0
H239 H 0.74051 0.24912 0.73202 0.0
C240 C 0.79226 0.71747 0.12331 0.0
C241 C 0.82477 0.73834 0.12698 0.0
C242 C 0.77161 0.70853 0.17087 0.0
C243 C 0.78458 0.71958 0.22367 0.0
C244 C 0.81901 0.73835 0.22789 0.0
C245 C 0.83828 0.74826 0.17932 0.0
C246 C 0.73438 0.68975 0.16403 0.0
C247 C 0.83459 0.74939 0.28351 0.0
C248 C 0.70973 0.74129 0.33021 0.0
C249 C 0.70714 0.70966 0.36049 0.0
C250 C 0.73491 0.74475 0.28595 0.0
C251 C 0.75935 0.7163 0.2728 0.0
C252 C 0.7579 0.68462 0.30456 0.0
C253 C 0.73108 0.68133 0.34737 0.0
C254 C 0.73435 0.77849 0.25208 0.0
C255 C 0.78451 0.65429 0.29316 0.0
H256 H 0.78161 0.70997 0.08282 0.0
H257 H 0.86364 0.7641 0.18225 0.0
H258 H 0.73265 0.66653 0.19208 0.0
H259 H 0.71121 0.70809 0.17554 0.0
H260 H 0.72971 0.68058 0.12076 0.0
H261 H 0.8645 0.75767 0.28056 0.0
H262 H 0.81807 0.77203 0.30002 0.0
H263 H 0.83229 0.72732 0.31379 0.0
H264 H 0.69085 0.76306 0.33982 0.0
H265 H 0.72914 0.65692 0.37095 0.0
H266 H 0.72848 0.77218 0.20793 0.0
H267 H 0.76221 0.79161 0.25376 0.0
H268 H 0.71279 0.79764 0.26689 0.0
H269 H 0.77815 0.64239 0.25214 0.0
H270 H 0.78255 0.63319 0.32519 0.0
H271 H 0.8139 0.66414 0.29156 0.0
C272 C 0.6532 0.7729 0.67893 0.0
C273 C 0.66833 0.7823 0.62733 0.0
C274 C 0.6713 0.78273 0.72853 0.0
C275 C 0.70613 0.80096 0.72623 0.0
C276 C 0.72085 0.81136 0.67411 0.0
C277 C 0.70139 0.80248 0.62541 0.0
C278 C 0.65395 0.77233 0.78328 0.0
C279 C 0.75854 0.82957 0.66939 0.0
C280 C 0.75678 0.83988 0.85216 0.0
C281 C 0.78023 0.81154 0.86703 0.0
C282 C 0.7309 0.83636 0.80812 0.0
C283 C 0.72989 0.8044 0.77693 0.0
C284 C 0.75359 0.77583 0.79208 0.0
C285 C 0.77782 0.77955 0.83741 0.0
C286 C 0.70504 0.86688 0.79453 0.0
C287 C 0.75462 0.74174 0.75896 0.0
H288 H 0.62739 0.75765 0.6805 0.0
H289 H 0.71325 0.80963 0.58551 0.0
H290 H 0.66982 0.7498 0.8014 0.0
H291 H 0.65546 0.79471 0.81317 0.0
H292 H 0.62411 0.76417 0.77854 0.0
H293 H 0.7648 0.83804 0.62623 0.0
H294 H 0.75963 0.85319 0.69676 0.0
H295 H 0.78104 0.81115 0.68322 0.0
H296 H 0.75856 0.86461 0.87501 0.0
H297 H 0.79631 0.75771 0.84811 0.0
H298 H 0.67569 0.85728 0.79009 0.0
H299 H 0.7133 0.87883 0.75432 0.0
H300 H 0.70581 0.88789 0.82686 0.0
H301 H 0.72647 0.72913 0.75874 0.0
H302 H 0.77523 0.72236 0.77574 0.0
H303 H 0.76217 0.74754 0.71521 0.0
C304 C 0.34322 0.76684 0.83267 0.0
C305 C 0.3236 0.77115 0.88264 0.0
C306 C 0.32744 0.77805 0.78205 0.0
C307 C 0.29061 0.79247 0.78136 0.0
C308 C 0.27115 0.79758 0.83202 0.0
C309 C 0.28817 0.78745 0.88204 0.0
C310 C 0.34967 0.77344 0.72921 0.0
C311 C 0.23139 0.81172 0.83325 0.0
C312 C 0.24289 0.83738 0.65833 0.0
C313 C 0.22245 0.809 0.63579 0.0
C314 C 0.26745 0.83204 0.7035 0.0
C315 C 0.27032 0.79789 0.72789 0.0
C316 C 0.25056 0.76908 0.70414 0.0
C317 C 0.22751 0.77488 0.65796 0.0
C318 C 0.28924 0.86313 0.72628 0.0
C319 C 0.25175 0.73244 0.72963 0.0
H320 H 0.37084 0.75464 0.83313 0.0
H321 H 0.27285 0.7907 0.92061 0.0
H322 H 0.33778 0.75122 0.70466 0.0
H323 H 0.34779 0.79772 0.70332 0.0
H324 H 0.37976 0.76758 0.73759 0.0
H325 H 0.22075 0.81541 0.87621 0.0
H326 H 0.22975 0.83752 0.81131 0.0
H327 H 0.21245 0.793 0.81127 0.0
H328 H 0.23929 0.86376 0.64126 0.0
H329 H 0.21164 0.75277 0.64125 0.0
H330 H 0.31876 0.85535 0.73504 0.0
H331 H 0.27651 0.87193 0.76597 0.0
H332 H 0.28926 0.88597 0.69716 0.0
H333 H 0.28118 0.72298 0.73291 0.0
H334 H 0.23543 0.71272 0.70526 0.0
H335 H 0.24004 0.73345 0.7723 0.0
C336 C 0.29892 0.68326 0.20545 0.0
C337 C 0.2888 0.68778 0.14969 0.0
C338 C 0.27378 0.69191 0.24833 0.0
C339 C 0.23726 0.70438 0.23507 0.0
C340 C 0.2258 0.70586 0.17886 0.0
C341 C 0.25191 0.69809 0.13679 0.0
C342 C 0.28742 0.69047 0.30762 0.0
C343 C 0.18672 0.71774 0.163 0.0
C344 C 0.17003 0.71078 0.35745 0.0
C345 C 0.17275 0.74686 0.37129 0.0
C346 C 0.18927 0.69684 0.31137 0.0
C347 C 0.21279 0.71929 0.27961 0.0
C348 C 0.21479 0.75596 0.2926 0.0
C349 C 0.19427 0.76938 0.33779 0.0
C350 C 0.18532 0.65792 0.29774 0.0
C351 C 0.24008 0.78072 0.26049 0.0
H352 H 0.32751 0.67571 0.21573 0.0
H353 H 0.24392 0.70154 0.09371 0.0
H354 H 0.28931 0.71784 0.32449 0.0
H355 H 0.26724 0.67567 0.33391 0.0
H356 H 0.3155 0.67774 0.31125 0.0
H357 H 0.18026 0.71176 0.11887 0.0
H358 H 0.16537 0.70471 0.18966 0.0
H359 H 0.18412 0.7468 0.16935 0.0
H360 H 0.15322 0.69332 0.38315 0.0
H361 H 0.19671 0.79721 0.34868 0.0
H362 H 0.21205 0.64396 0.30697 0.0
H363 H 0.1795 0.65432 0.25285 0.0
H364 H 0.16245 0.64514 0.32192 0.0
H365 H 0.26975 0.77191 0.26451 0.0
H366 H 0.23798 0.80859 0.27525 0.0
H367 H 0.23286 0.78 0.21575 0.0
C368 C 0.01594 0.24799 0.13895 0.0
C369 C 0.05167 0.26052 0.12465 0.0
C370 C 0.99923 0.25774 0.18931 0.0
C371 C 0.01908 0.28022 0.22628 0.0
C372 C 0.05246 0.29704 0.20827 0.0
C373 C 0.06839 0.28708 0.15722 0.0
C374 C 0.96279 0.24016 0.20592 0.0
C375 C 0.07387 0.32204 0.24554 0.0
C376 C 0.96387 0.29142 0.35893 0.0
C377 C 0.97429 0.26013 0.38644 0.0
C378 C 0.98112 0.30099 0.30865 0.0
C379 C 0.00945 0.27881 0.28626 0.0
C380 C 0.02351 0.2501 0.31814 0.0
C381 C 0.00551 0.24096 0.36773 0.0
C382 C 0.96598 0.33235 0.27687 0.0
C383 C 0.05455 0.22633 0.29679 0.0
H384 H 0.00272 0.22785 0.11336 0.0
H385 H 0.09598 0.29707 0.14621 0.0
H386 H 0.96868 0.21896 0.23669 0.0
H387 H 0.94354 0.25959 0.22565 0.0
H388 H 0.94824 0.22798 0.16984 0.0
H389 H 0.09189 0.34029 0.22101 0.0
H390 H 0.05458 0.33794 0.27185 0.0
H391 H 0.09239 0.3064 0.27338 0.0
H392 H 0.93963 0.30631 0.3733 0.0
H393 H 0.01373 0.21693 0.38933 0.0
H394 H 0.94345 0.3232 0.24843 0.0
H395 H 0.98817 0.34514 0.25149 0.0
H396 H 0.95363 0.35242 0.30535 0.0
H397 H 0.04367 0.20983 0.26217 0.0
H398 H 0.06548 0.20833 0.32953 0.0
H399 H 0.07823 0.24236 0.28051 0.0
C400 C 0.45177 0.23305 0.65414 0.0
C401 C 0.46206 0.26328 0.62383 0.0
C402 C 0.47202 0.2231 0.70175 0.0
C403 C 0.50318 0.24381 0.7186 0.0
C404 C 0.51647 0.27133 0.68366 0.0
C405 C 0.49552 0.28089 0.63686 0.0
C406 C 0.45749 0.19303 0.73696 0.0
C407 C 0.55026 0.29351 0.69908 0.0
C408 C 0.52133 0.27487 0.86383 0.0
C409 C 0.55658 0.25973 0.874 0.0
C410 C 0.50115 0.26637 0.8158 0.0
C411 C 0.51702 0.24254 0.77675 0.0
C412 C 0.55027 0.2238 0.79032 0.0
C413 C 0.56974 0.23257 0.83921 0.0
C414 C 0.46513 0.28623 0.80389 0.0
C415 C 0.5676 0.19751 0.75061 0.0
H416 H 0.42587 0.21931 0.64409 0.0
H417 H 0.50371 0.304 0.61295 0.0
H418 H 0.48077 0.17885 0.75813 0.0
H419 H 0.43851 0.20387 0.76936 0.0
H420 H 0.44122 0.17374 0.7117 0.0
H421 H 0.55986 0.31038 0.66406 0.0
H422 H 0.54293 0.31109 0.73445 0.0
H423 H 0.57395 0.27635 0.71233 0.0
H424 H 0.51097 0.29557 0.89117 0.0
H425 H 0.59703 0.22075 0.84704 0.0
H426 H 0.44329 0.26794 0.78778 0.0
H427 H 0.47043 0.30662 0.77161 0.0
H428 H 0.45397 0.29976 0.84142 0.0
H429 H 0.54573 0.1826 0.72752 0.0
H430 H 0.58605 0.17838 0.77272 0.0
H431 H 0.58504 0.21199 0.71991 0.0
C432 C 0.05399 0.74012 0.65069 0.0
C433 C 0.0443 0.77093 0.62143 0.0
C434 C 0.03519 0.73115 0.69997 0.0
C435 C 0.00569 0.75318 0.71921 0.0
C436 C 0.99315 0.78192 0.68609 0.0
C437 C 0.01309 0.79082 0.63802 0.0
C438 C 0.04957 0.70045 0.73406 0.0
C439 C 0.96095 0.80542 0.70411 0.0
C440 C 0.94084 0.73677 0.84064 0.0
C441 C 0.95423 0.76238 0.87789 0.0
C442 C 0.9592 0.73086 0.78989 0.0
C443 C 0.99199 0.75052 0.77726 0.0
C444 C 0.00801 0.77305 0.818 0.0
C445 C 0.98849 0.77924 0.86752 0.0
C446 C 0.94109 0.70677 0.74764 0.0
C447 C 0.0437 0.79357 0.80702 0.0
H448 H 0.07851 0.72499 0.63811 0.0
H449 H 0.00572 0.81465 0.61522 0.0
H450 H 0.06832 0.71076 0.76715 0.0
H451 H 0.02618 0.68605 0.75451 0.0
H452 H 0.06592 0.68143 0.70833 0.0
H453 H 0.95112 0.82295 0.67002 0.0
H454 H 0.9369 0.78917 0.71869 0.0
H455 H 0.97014 0.82239 0.73922 0.0
H456 H 0.91398 0.72411 0.8485 0.0
H457 H 0.99866 0.7991 0.89645 0.0
H458 H 0.96251 0.69188 0.72359 0.0
H459 H 0.9247 0.72309 0.7179 0.0
H460 H 0.9216 0.68758 0.76752 0.0
H461 H 0.0652 0.77626 0.78747 0.0
H462 H 0.05561 0.80504 0.84568 0.0
H463 H 0.03765 0.81563 0.77786 0.0
C464 C 0.48681 0.75613 0.13941 0.0
C465 C 0.45047 0.76805 0.12707 0.0
C466 C 0.50417 0.7653 0.18953 0.0
C467 C 0.48452 0.78676 0.22821 0.0
C468 C 0.45025 0.80295 0.21241 0.0
C469 C 0.43354 0.79342 0.16169 0.0
C470 C 0.54137 0.74824 0.20386 0.0
C471 C 0.42904 0.82696 0.25152 0.0
C472 C 0.50209 0.74693 0.36851 0.0
C473 C 0.53329 0.76653 0.38615 0.0
C474 C 0.48303 0.75586 0.31969 0.0
C475 C 0.49574 0.785 0.28761 0.0
C476 C 0.52411 0.80751 0.30896 0.0
C477 C 0.54264 0.79801 0.35833 0.0
C478 C 0.45217 0.73157 0.29936 0.0
C479 C 0.53773 0.83941 0.27705 0.0
H480 H 0.50023 0.73697 0.11224 0.0
H481 H 0.4055 0.80297 0.15221 0.0
H482 H 0.56067 0.76787 0.2229 0.0
H483 H 0.5367 0.72674 0.23456 0.0
H484 H 0.55531 0.73658 0.16682 0.0
H485 H 0.40982 0.84497 0.22854 0.0
H486 H 0.41178 0.81056 0.28001 0.0
H487 H 0.44851 0.84312 0.27711 0.0
H488 H 0.49455 0.72284 0.39043 0.0
H489 H 0.56674 0.81333 0.37189 0.0
H490 H 0.46261 0.71578 0.26363 0.0
H491 H 0.42762 0.74719 0.28493 0.0
H492 H 0.44261 0.7129 0.3321 0.0
H493 H 0.55952 0.8309 0.24689 0.0
H494 H 0.55056 0.85939 0.30518 0.0
H495 H 0.51454 0.8521 0.25349 0.0
C496 C 0.06172 0.05429 0.00467 0.0
C497 C 0.05335 0.0786 0.04695 0.0
C498 C 0.03887 0.02429 0.99564 0.0
C499 C 0.00612 0.01918 0.02833 0.0
C500 C 0.99742 0.04394 0.07067 0.0
C501 C 0.02144 0.07293 0.08004 0.0
C502 C 0.04981 0.998 0.95119 0.0
C503 C 0.96224 0.04029 0.10528 0.0
C504 C 0.92886 0.96162 0.96555 0.0
C505 C 0.93269 0.92994 0.9955 0.0
C506 C 0.95189 0.99109 0.97678 0.0
C507 C 0.98048 0.98844 0.01754 0.0
C508 C 0.98444 0.95644 0.04794 0.0
C509 C 0.96007 0.9278 0.0372 0.0
C510 C 0.94574 0.02503 0.94477 0.0
C511 C 0.01517 0.95208 0.09059 0.0
H512 H 0.08642 0.05848 0.97916 0.0
H513 H 0.01458 0.09186 0.11241 0.0
H514 H 0.05147 0.9709 0.96906 0.0
H515 H 0.02803 0.99743 0.91828 0.0
H516 H 0.07729 1.00454 0.93182 0.0
H517 H 0.95919 0.06212 0.13597 0.0
H518 H 0.93714 0.04021 0.07791 0.0
H519 H 0.9625 0.01467 0.12787 0.0
H520 H 0.90772 0.96336 0.93326 0.0
H521 H 0.96352 0.90316 0.05983 0.0
H522 H 0.97087 0.03102 0.91921 0.0
H523 H 0.94178 0.04755 0.9739 0.0
H524 H 0.92087 0.02349 0.91699 0.0
H525 H 0.043 0.95625 0.07079 0.0
H526 H 0.01485 0.92539 0.11012 0.0
H527 H 0.01219 0.97238 0.12363 0.0
C528 C 0.56199 0.56704 0.51559 0.0
C529 C 0.55229 0.59109 0.47367 0.0
C530 C 0.54041 0.53623 0.52477 0.0
C531 C 0.50748 0.53016 0.49286 0.0
C532 C 0.4973 0.55484 0.45119 0.0
C533 C 0.52021 0.58456 0.44141 0.0
C534 C 0.55303 0.51 0.56827 0.0
C535 C 0.46175 0.55028 0.41767 0.0
C536 C 0.4651 0.43732 0.48186 0.0
C537 C 0.43832 0.43783 0.52451 0.0
C538 C 0.48819 0.46694 0.47164 0.0
C539 C 0.48338 0.49832 0.50342 0.0
C540 C 0.45533 0.4993 0.5452 0.0
C541 C 0.43374 0.46881 0.55603 0.0
C542 C 0.51853 0.46429 0.42801 0.0
C543 C 0.44814 0.53255 0.57857 0.0
H544 H 0.58687 0.57195 0.54039 0.0
H545 H 0.51238 0.60335 0.40936 0.0
H546 H 0.53172 0.50828 0.60173 0.0
H547 H 0.55564 0.48316 0.54966 0.0
H548 H 0.58043 0.51744 0.58706 0.0
H549 H 0.45716 0.57249 0.38813 0.0
H550 H 0.46288 0.52512 0.39386 0.0
H551 H 0.43714 0.54863 0.44586 0.0
H552 H 0.46912 0.41318 0.45808 0.0
H553 H 0.41306 0.46923 0.58907 0.0
H554 H 0.54638 0.46954 0.44709 0.0
H555 H 0.51408 0.48468 0.39553 0.0
H556 H 0.51927 0.43776 0.40788 0.0
H557 H 0.47328 0.53913 0.60374 0.0
H558 H 0.42367 0.52971 0.60687 0.0
H559 H 0.44293 0.55528 0.55035 0.0
C560 C 0.44276 0.56227 0.99596 0.0
C561 C 0.45308 0.58695 0.03671 0.0
C562 C 0.4647 0.53173 0.9862 0.0
C563 C 0.4985 0.52648 0.01641 0.0
C564 C 0.50926 0.55173 0.05695 0.0
C565 C 0.48611 0.58125 0.06727 0.0
C566 C 0.45156 0.50493 0.94387 0.0
C567 C 0.54565 0.54796 0.08872 0.0
C568 C 0.54304 0.43443 0.02622 0.0
C569 C 0.56882 0.4352 0.98226 0.0
C570 C 0.51957 0.46372 0.03731 0.0
C571 C 0.52299 0.49499 0.00499 0.0
C572 C 0.54999 0.49623 0.96178 0.0
C573 C 0.57199 0.46608 0.95023 0.0
C574 C 0.49039 0.46082 0.08256 0.0
C575 C 0.55565 0.52939 0.92768 0.0
H576 H 0.41714 0.56649 0.97251 0.0
H577 H 0.4944 0.60047 0.09845 0.0
H578 H 0.47212 0.5032 0.90939 0.0
H579 H 0.44985 0.47823 0.96311 0.0
H580 H 0.42361 0.5118 0.92632 0.0
H581 H 0.55046 0.57041 0.11777 0.0
H582 H 0.54559 0.52292 0.11282 0.0
H583 H 0.56963 0.54656 0.05931 0.0
H584 H 0.54014 0.41037 0.05048 0.0
H585 H 0.59195 0.46673 0.91624 0.0
H586 H 0.46198 0.46547 0.06494 0.0
H587 H 0.4952 0.48151 0.11453 0.0
H588 H 0.49071 0.43443 0.10304 0.0
H589 H 0.52971 0.53549 0.90401 0.0
H590 H 0.57935 0.52675 0.89794 0.0
H591 H 0.56125 0.55234 0.95535 0.0
C592 C 0.04532 0.93359 0.47088 0.0
C593 C 0.07459 0.93623 0.50964 0.0
C594 C 0.02085 0.96232 0.46112 0.0
C595 C 0.0266 0.99492 0.4893 0.0
C596 C 0.05712 0.99808 0.52681 0.0
C597 C 0.08023 0.96851 0.53737 0.0
C598 C 0.98805 0.95738 0.42212 0.0
C599 C 0.06524 0.03265 0.55615 0.0
C600 C 0.98307 0.0782 0.42652 0.0
C601 C 0.95304 0.08507 0.46276 0.0
C602 C 0.00736 0.04926 0.43497 0.0
C603 C 1.00073 0.02569 0.47965 0.0
C604 C 0.96977 0.03196 0.51555 0.0
C605 C 0.94675 0.06198 0.50734 0.0
C606 C 0.04071 0.04446 0.39689 0.0
C607 C 0.96093 1.0069 0.56258 0.0
H608 H 0.04046 0.90849 0.4501 0.0
H609 H 0.10279 0.97061 0.56745 0.0
H610 H 0.96132 0.96224 0.44467 0.0
H611 H 0.98951 0.97693 0.38785 0.0
H612 H 0.9872 0.93028 0.40396 0.0
H613 H 0.09156 0.03149 0.58089 0.0
H614 H 0.06768 0.05448 0.52548 0.0
H615 H 0.04166 0.03942 0.58434 0.0
H616 H 0.98839 0.09625 0.3924 0.0
H617 H 0.92353 0.06715 0.53536 0.0
H618 H 0.03919 0.01832 0.37585 0.0
H619 H 0.0671 0.0448 0.42147 0.0
H620 H 0.04235 0.06551 0.36474 0.0
H621 H 0.95835 0.97937 0.54659 0.0
H622 H 0.93447 0.01411 0.58435 0.0
H623 H 0.98423 1.00704 0.59315 0.0
loop_
_geom_bond_atom_site_label_1
_geom_bond_atom_site_label_2
_geom_bond_distance
_geom_bond_site_symmetry_2
_ccdc_geom_bond_type
O0 Cd1 2.223 . S
O0 C8 1.315 . S
Cd1 O0 2.223 . S
Cd1 O4 2.297 1_554 S
Cd1 O5 2.439 1_554 S
Cd1 O11 2.240 . S
Cd2 O3 2.240 . S
Cd2 O10 2.223 . S
Cd2 O12 2.297 . S
Cd2 O13 2.439 . S
O3 Cd2 2.240 . S
O3 C8 1.279 . S
O4 Cd1 2.297 1_556 S
O4 C6 1.247 . S
O5 Cd1 2.439 1_556 S
O5 C6 1.208 . S
C6 O4 1.247 . S
C6 O5 1.208 . S
C7 O12 1.247 . S
C7 O13 1.208 . S
C8 O0 1.315 . S
C8 O3 1.279 . S
C9 O10 1.315 . S
C9 O11 1.279 . S
O10 Cd2 2.223 . S
O10 C9 1.315 . S
O11 Cd1 2.240 . S
O11 C9 1.279 . S
O12 Cd2 2.297 . S
O12 C7 1.247 . S
O13 Cd2 2.439 . S
O13 C7 1.208 . S
O14 Cd15 2.223 . S
O14 C22 1.315 . S
Cd15 O14 2.223 . S
Cd15 O18 2.297 . S
Cd15 O19 2.439 . S
Cd15 O25 2.240 . S
Cd16 O17 2.240 . S
Cd16 O24 2.223 . S
Cd16 O26 2.297 . S
Cd16 O27 2.439 . S
O17 Cd16 2.240 . S
O17 C22 1.279 . S
O18 Cd15 2.297 . S
O18 C20 1.247 . S
O19 Cd15 2.439 . S
O19 C20 1.208 . S
C20 O18 1.247 . S
C20 O19 1.208 . S
C21 O26 1.247 . S
C21 O27 1.208 . S
C22 O14 1.315 . S
C22 O17 1.279 . S
C23 O24 1.315 . S
C23 O25 1.279 . S
O24 Cd16 2.223 . S
O24 C23 1.315 . S
O25 Cd15 2.240 . S
O25 C23 1.279 . S
O26 Cd16 2.297 . S
O26 C21 1.247 . S
O27 Cd16 2.439 . S
O27 C21 1.208 . S
O28 Cd29 2.223 . S
O28 C36 1.315 . S
Cd29 O28 2.223 . S
Cd29 O32 2.297 1_556 S
Cd29 O33 2.439 1_556 S
Cd29 O39 2.240 . S
Cd30 O31 2.240 . S
Cd30 O38 2.223 . S
Cd30 O40 2.297 . S
Cd30 O41 2.439 . S
O31 Cd30 2.240 . S
O31 C36 1.279 . S
O32 Cd29 2.297 1_554 S
O32 C34 1.247 . S
O33 Cd29 2.439 1_554 S
O33 C34 1.208 . S
C34 O32 1.247 . S
C34 O33 1.208 . S
C35 O40 1.247 . S
C35 O41 1.208 . S
C36 O28 1.315 . S
C36 O31 1.279 . S
C37 O38 1.315 . S
C37 O39 1.279 . S
O38 Cd30 2.223 . S
O38 C37 1.315 . S
O39 Cd29 2.240 . S
O39 C37 1.279 . S
O40 Cd30 2.297 . S
O40 C35 1.247 . S
O41 Cd30 2.439 . S
O41 C35 1.208 . S
O42 Cd43 2.223 . S
O42 C50 1.315 . S
Cd43 O42 2.223 . S
Cd43 O46 2.297 . S
Cd43 O47 2.439 . S
Cd43 O53 2.240 . S
Cd44 O45 2.240 . S
Cd44 O52 2.223 . S
Cd44 O54 2.297 . S
Cd44 O55 2.439 . S
O45 Cd44 2.240 . S
O45 C50 1.279 . S
O46 Cd43 2.297 . S
O46 C48 1.247 . S
O47 Cd43 2.439 . S
O47 C48 1.208 . S
C48 O46 1.247 . S
C48 O47 1.208 . S
C49 O54 1.247 . S
C49 O55 1.208 . S
C50 O42 1.315 . S
C50 O45 1.279 . S
C51 O52 1.315 . S
C51 O53 1.279 . S
O52 Cd44 2.223 . S
O52 C51 1.315 . S
O53 Cd43 2.240 . S
O53 C51 1.279 . S
O54 Cd44 2.297 . S
O54 C49 1.247 . S
O55 Cd44 2.439 . S
O55 C49 1.208 . S
O56 Cd57 2.223 . S
O56 C64 1.315 . S
Cd57 O56 2.223 . S
Cd57 O60 2.297 1_556 S
Cd57 O61 2.439 1_556 S
Cd57 O67 2.240 . S
Cd58 O59 2.240 . S
Cd58 O66 2.223 . S
Cd58 O68 2.297 . S
Cd58 O69 2.439 . S
O59 Cd58 2.240 . S
O59 C64 1.279 . S
O60 Cd57 2.297 1_554 S
O60 C62 1.247 . S
O61 Cd57 2.439 1_554 S
O61 C62 1.208 . S
C62 O60 1.247 . S
C62 O61 1.208 . S
C63 O68 1.247 . S
C63 O69 1.208 . S
C64 O56 1.315 . S
C64 O59 1.279 . S
C65 O66 1.315 . S
C65 O67 1.279 . S
O66 Cd58 2.223 . S
O66 C65 1.315 . S
O67 Cd57 2.240 . S
O67 C65 1.279 . S
O68 Cd58 2.297 . S
O68 C63 1.247 . S
O69 Cd58 2.439 . S
O69 C63 1.208 . S
O70 Cd71 2.223 . S
O70 C78 1.315 . S
Cd71 O70 2.223 . S
Cd71 O74 2.297 . S
Cd71 O75 2.439 . S
Cd71 O81 2.240 . S
Cd72 O73 2.240 . S
Cd72 O80 2.223 . S
Cd72 O82 2.297 . S
Cd72 O83 2.439 . S
O73 Cd72 2.240 . S
O73 C78 1.279 . S
O74 Cd71 2.297 . S
O74 C76 1.247 . S
O75 Cd71 2.439 . S
O75 C76 1.208 . S
C76 O74 1.247 . S
C76 O75 1.208 . S
C77 O82 1.247 . S
C77 O83 1.208 . S
C78 O70 1.315 . S
C78 O73 1.279 . S
C79 O80 1.315 . S
C79 O81 1.279 . S
O80 Cd72 2.223 . S
O80 C79 1.315 . S
O81 Cd71 2.240 . S
O81 C79 1.279 . S
O82 Cd72 2.297 . S
O82 C77 1.247 . S
O83 Cd72 2.439 . S
O83 C77 1.208 . S
O84 Cd85 2.223 . S
O84 C92 1.315 . S
Cd85 O84 2.223 . S
Cd85 O88 2.297 1_554 S
Cd85 O89 2.439 1_554 S
Cd85 O95 2.240 . S
Cd86 O87 2.240 . S
Cd86 O94 2.223 . S
Cd86 O96 2.297 . S
Cd86 O97 2.439 . S
O87 Cd86 2.240 . S
O87 C92 1.279 . S
O88 Cd85 2.297 1_556 S
O88 C90 1.247 . S
O89 Cd85 2.439 1_556 S
O89 C90 1.208 . S
C90 O88 1.247 . S
C90 O89 1.208 . S
C91 O96 1.247 . S
C91 O97 1.208 . S
C92 O84 1.315 . S
C92 O87 1.279 . S
C93 O94 1.315 . S
C93 O95 1.279 . S
O94 Cd86 2.223 . S
O94 C93 1.315 . S
O95 Cd85 2.240 . S
O95 C93 1.279 . S
O96 Cd86 2.297 . S
O96 C91 1.247 . S
O97 Cd86 2.439 . S
O97 C91 1.208 . S
O98 Cd99 2.223 . S
O98 C106 1.315 . S
Cd99 O98 2.223 . S
Cd99 O102 2.297 . S
Cd99 O103 2.439 . S
Cd99 O109 2.240 . S
Cd100 O101 2.240 . S
Cd100 O108 2.223 . S
Cd100 O110 2.297 . S
Cd100 O111 2.439 . S
O101 Cd100 2.240 . S
O101 C106 1.279 . S
O102 Cd99 2.297 . S
O102 C104 1.247 . S
O103 Cd99 2.439 . S
O103 C104 1.208 . S
C104 O102 1.247 . S
C104 O103 1.208 . S
C105 O110 1.247 . S
C105 O111 1.208 . S
C106 O98 1.315 . S
C106 O101 1.279 . S
C107 O108 1.315 . S
C107 O109 1.279 . S
O108 Cd100 2.223 . S
O108 C107 1.315 . S
O109 Cd99 2.240 . S
O109 C107 1.279 . S
O110 Cd100 2.297 . S
O110 C105 1.247 . S
O111 Cd100 2.439 . S
O111 C105 1.208 . S
C112 C113 1.391 . S
C112 C114 1.394 . S
C112 H128 0.931 . S
C113 C112 1.391 . S
C113 C117 1.376 . S
C114 C112 1.394 . S
C114 C115 1.369 . S
C114 C118 1.531 . S
C115 C114 1.369 . S
C115 C116 1.410 . S
C115 C123 1.503 . S
C116 C115 1.410 . S
C116 C117 1.392 . S
C116 C119 1.511 . S
C117 C113 1.376 . S
C117 C116 1.392 . S
C117 H129 0.929 . S
C118 C114 1.531 . S
C118 H130 0.960 . S
C118 H131 0.962 . S
C118 H132 0.960 . S
C119 C116 1.511 . S
C119 H133 0.961 . S
C119 H134 0.961 . S
C119 H135 0.961 . S
C120 C121 1.370 . S
C120 C122 1.363 . S
C120 H136 0.931 . S
C121 C120 1.370 . S
C121 C125 1.408 . S
C122 C120 1.363 . S
C122 C123 1.370 . S
C122 C126 1.524 . S
C123 C115 1.503 . S
C123 C122 1.370 . S
C123 C124 1.403 . S
C124 C123 1.403 . S
C124 C125 1.404 . S
C124 C127 1.539 . S
C125 C121 1.408 . S
C125 C124 1.404 . S
C125 H137 0.930 . S
C126 C122 1.524 . S
C126 H138 0.956 . S
C126 H139 0.961 . S
C126 H140 0.961 . S
C127 C124 1.539 . S
C127 H141 0.958 . S
C127 H142 0.961 . S
C127 H143 0.960 . S
H128 C112 0.931 . S
H129 C117 0.929 . S
H130 C118 0.960 . S
H131 C118 0.962 . S
H132 C118 0.960 . S
H133 C119 0.961 . S
H134 C119 0.961 . S
H135 C119 0.961 . S
H136 C120 0.931 . S
H137 C125 0.930 . S
H138 C126 0.956 . S
H139 C126 0.961 . S
H140 C126 0.961 . S
H141 C127 0.958 . S
H142 C127 0.961 . S
H143 C127 0.960 . S
C144 C145 1.391 . S
C144 C146 1.394 . S
C144 H160 0.931 . S
C145 C144 1.391 . S
C145 C149 1.376 . S
C146 C144 1.394 . S
C146 C147 1.369 . S
C146 C150 1.531 . S
C147 C146 1.369 . S
C147 C148 1.410 . S
C147 C155 1.503 . S
C148 C147 1.410 . S
C148 C149 1.392 . S
C148 C151 1.511 . S
C149 C145 1.376 . S
C149 C148 1.392 . S
C149 H161 0.929 . S
C150 C146 1.531 . S
C150 H162 0.960 . S
C150 H163 0.962 . S
C150 H164 0.960 . S
C151 C148 1.511 . S
C151 H165 0.961 . S
C151 H166 0.961 . S
C151 H167 0.961 . S
C152 C153 1.370 . S
C152 C154 1.363 . S
C152 H168 0.931 . S
C153 C152 1.370 . S
C153 C157 1.408 . S
C154 C152 1.363 . S
C154 C155 1.370 . S
C154 C158 1.524 . S
C155 C147 1.503 . S
C155 C154 1.370 . S
C155 C156 1.403 . S
C156 C155 1.403 . S
C156 C157 1.404 . S
C156 C159 1.539 . S
C157 C153 1.408 . S
C157 C156 1.404 . S
C157 H169 0.930 . S
C158 C154 1.524 . S
C158 H170 0.956 . S
C158 H171 0.961 . S
C158 H172 0.961 . S
C159 C156 1.539 . S
C159 H173 0.958 . S
C159 H174 0.961 . S
C159 H175 0.960 . S
H160 C144 0.931 . S
H161 C149 0.929 . S
H162 C150 0.960 . S
H163 C150 0.962 . S
H164 C150 0.960 . S
H165 C151 0.961 . S
H166 C151 0.961 . S
H167 C151 0.961 . S
H168 C152 0.931 . S
H169 C157 0.930 . S
H170 C158 0.956 . S
H171 C158 0.961 . S
H172 C158 0.961 . S
H173 C159 0.958 . S
H174 C159 0.961 . S
H175 C159 0.960 . S
C176 C177 1.391 . S
C176 C178 1.394 . S
C176 H192 0.931 . S
C177 C176 1.391 . S
C177 C181 1.376 . S
C178 C176 1.394 . S
C178 C179 1.369 . S
C178 C182 1.531 . S
C179 C178 1.369 . S
C179 C180 1.410 . S
C179 C187 1.503 . S
C180 C179 1.410 . S
C180 C181 1.392 . S
C180 C183 1.511 . S
C181 C177 1.376 . S
C181 C180 1.392 . S
C181 H193 0.929 . S
C182 C178 1.531 . S
C182 H194 0.960 . S
C182 H195 0.962 . S
C182 H196 0.960 . S
C183 C180 1.511 . S
C183 H197 0.961 . S
C183 H198 0.961 . S
C183 H199 0.961 . S
C184 C185 1.370 . S
C184 C186 1.363 . S
C184 H200 0.931 . S
C185 C184 1.370 . S
C185 C189 1.408 . S
C186 C184 1.363 . S
C186 C187 1.370 . S
C186 C190 1.524 . S
C187 C179 1.503 . S
C187 C186 1.370 . S
C187 C188 1.403 . S
C188 C187 1.403 . S
C188 C189 1.404 . S
C188 C191 1.539 . S
C189 C185 1.408 . S
C189 C188 1.404 . S
C189 H201 0.930 . S
C190 C186 1.524 . S
C190 H202 0.956 . S
C190 H203 0.961 . S
C190 H204 0.961 . S
C191 C188 1.539 . S
C191 H205 0.958 . S
C191 H206 0.961 . S
C191 H207 0.960 . S
H192 C176 0.931 . S
H193 C181 0.929 . S
H194 C182 0.960 . S
H195 C182 0.962 . S
H196 C182 0.960 . S
H197 C183 0.961 . S
H198 C183 0.961 . S
H199 C183 0.961 . S
H200 C184 0.931 . S
H201 C189 0.930 . S
H202 C190 0.956 . S
H203 C190 0.961 . S
H204 C190 0.961 . S
H205 C191 0.958 . S
H206 C191 0.961 . S
H207 C191 0.960 . S
C208 C209 1.391 . S
C208 C210 1.394 . S
C208 H224 0.931 . S
C209 C208 1.391 . S
C209 C213 1.376 . S
C210 C208 1.394 . S
C210 C211 1.369 . S
C210 C214 1.531 . S
C211 C210 1.369 . S
C211 C212 1.410 . S
C211 C219 1.503 . S
C212 C211 1.410 . S
C212 C213 1.392 . S
C212 C215 1.511 . S
C213 C209 1.376 . S
C213 C212 1.392 . S
C213 H225 0.929 . S
C214 C210 1.531 . S
C214 H226 0.960 . S
C214 H227 0.962 . S
C214 H228 0.960 . S
C215 C212 1.511 . S
C215 H229 0.961 . S
C215 H230 0.961 . S
C215 H231 0.961 . S
C216 C217 1.370 . S
C216 C218 1.363 . S
C216 H232 0.931 . S
C217 C216 1.370 . S
C217 C221 1.408 . S
C218 C216 1.363 . S
C218 C219 1.370 . S
C218 C222 1.524 . S
C219 C211 1.503 . S
C219 C218 1.370 . S
C219 C220 1.403 . S
C220 C219 1.403 . S
C220 C221 1.404 . S
C220 C223 1.539 . S
C221 C217 1.408 . S
C221 C220 1.404 . S
C221 H233 0.930 . S
C222 C218 1.524 . S
C222 H234 0.956 . S
C222 H235 0.961 . S
C222 H236 0.961 . S
C223 C220 1.539 . S
C223 H237 0.958 . S
C223 H238 0.961 . S
C223 H239 0.960 . S
H224 C208 0.931 . S
H225 C213 0.929 . S
H226 C214 0.960 . S
H227 C214 0.962 . S
H228 C214 0.960 . S
H229 C215 0.961 . S
H230 C215 0.961 . S
H231 C215 0.961 . S
H232 C216 0.931 . S
H233 C221 0.930 . S
H234 C222 0.956 . S
H235 C222 0.961 . S
H236 C222 0.961 . S
H237 C223 0.958 . S
H238 C223 0.961 . S
H239 C223 0.960 . S
C240 C241 1.391 . S
C240 C242 1.394 . S
C240 H256 0.931 . S
C241 C240 1.391 . S
C241 C245 1.376 . S
C242 C240 1.394 . S
C242 C243 1.369 . S
C242 C246 1.531 . S
C243 C242 1.369 . S
C243 C244 1.410 . S
C243 C251 1.503 . S
C244 C243 1.410 . S
C244 C245 1.392 . S
C244 C247 1.511 . S
C245 C241 1.376 . S
C245 C244 1.392 . S
C245 H257 0.929 . S
C246 C242 1.531 . S
C246 H258 0.960 . S
C246 H259 0.962 . S
C246 H260 0.960 . S
C247 C244 1.511 . S
C247 H261 0.961 . S
C247 H262 0.961 . S
C247 H263 0.961 . S
C248 C249 1.370 . S
C248 C250 1.363 . S
C248 H264 0.931 . S
C249 C248 1.370 . S
C249 C253 1.408 . S
C250 C248 1.363 . S
C250 C251 1.370 . S
C250 C254 1.524 . S
C251 C243 1.503 . S
C251 C250 1.370 . S
C251 C252 1.403 . S
C252 C251 1.403 . S
C252 C253 1.404 . S
C252 C255 1.539 . S
C253 C249 1.408 . S
C253 C252 1.404 . S
C253 H265 0.930 . S
C254 C250 1.524 . S
C254 H266 0.956 . S
C254 H267 0.961 . S
C254 H268 0.961 . S
C255 C252 1.539 . S
C255 H269 0.958 . S
C255 H270 0.961 . S
C255 H271 0.960 . S
H256 C240 0.931 . S
H257 C245 0.929 . S
H258 C246 0.960 . S
H259 C246 0.962 . S
H260 C246 0.960 . S
H261 C247 0.961 . S
H262 C247 0.961 . S
H263 C247 0.961 . S
H264 C248 0.931 . S
H265 C253 0.930 . S
H266 C254 0.956 . S
H267 C254 0.961 . S
H268 C254 0.961 . S
H269 C255 0.958 . S
H270 C255 0.961 . S
H271 C255 0.960 . S
C272 C273 1.391 . S
C272 C274 1.394 . S
C272 H288 0.931 . S
C273 C272 1.391 . S
C273 C277 1.376 . S
C274 C272 1.394 . S
C274 C275 1.369 . S
C274 C278 1.531 . S
C275 C274 1.369 . S
C275 C276 1.410 . S
C275 C283 1.503 . S
C276 C275 1.410 . S
C276 C277 1.392 . S
C276 C279 1.511 . S
C277 C273 1.376 . S
C277 C276 1.392 . S
C277 H289 0.929 . S
C278 C274 1.531 . S
C278 H290 0.960 . S
C278 H291 0.962 . S
C278 H292 0.960 . S
C279 C276 1.511 . S
C279 H293 0.961 . S
C279 H294 0.961 . S
C279 H295 0.961 . S
C280 C281 1.370 . S
C280 C282 1.363 . S
C280 H296 0.931 . S
C281 C280 1.370 . S
C281 C285 1.408 . S
C282 C280 1.363 . S
C282 C283 1.370 . S
C282 C286 1.524 . S
C283 C275 1.503 . S
C283 C282 1.370 . S
C283 C284 1.403 . S
C284 C283 1.403 . S
C284 C285 1.404 . S
C284 C287 1.539 . S
C285 C281 1.408 . S
C285 C284 1.404 . S
C285 H297 0.930 . S
C286 C282 1.524 . S
C286 H298 0.956 . S
C286 H299 0.961 . S
C286 H300 0.961 . S
C287 C284 1.539 . S
C287 H301 0.958 . S
C287 H302 0.961 . S
C287 H303 0.960 . S
H288 C272 0.931 . S
H289 C277 0.929 . S
H290 C278 0.960 . S
H291 C278 0.962 . S
H292 C278 0.960 . S
H293 C279 0.961 . S
H294 C279 0.961 . S
H295 C279 0.961 . S
H296 C280 0.931 . S
H297 C285 0.930 . S
H298 C286 0.956 . S
H299 C286 0.961 . S
H300 C286 0.961 . S
H301 C287 0.958 . S
H302 C287 0.961 . S
H303 C287 0.960 . S
C304 C305 1.391 . S
C304 C306 1.394 . S
C304 H320 0.931 . S
C305 C304 1.391 . S
C305 C309 1.376 . S
C306 C304 1.394 . S
C306 C307 1.369 . S
C306 C310 1.531 . S
C307 C306 1.369 . S
C307 C308 1.410 . S
C307 C315 1.503 . S
C308 C307 1.410 . S
C308 C309 1.392 . S
C308 C311 1.511 . S
C309 C305 1.376 . S
C309 C308 1.392 . S
C309 H321 0.929 . S
C310 C306 1.531 . S
C310 H322 0.960 . S
C310 H323 0.962 . S
C310 H324 0.960 . S
C311 C308 1.511 . S
C311 H325 0.961 . S
C311 H326 0.961 . S
C311 H327 0.961 . S
C312 C313 1.370 . S
C312 C314 1.363 . S
C312 H328 0.931 . S
C313 C312 1.370 . S
C313 C317 1.408 . S
C314 C312 1.363 . S
C314 C315 1.370 . S
C314 C318 1.524 . S
C315 C307 1.503 . S
C315 C314 1.370 . S
C315 C316 1.403 . S
C316 C315 1.403 . S
C316 C317 1.404 . S
C316 C319 1.539 . S
C317 C313 1.408 . S
C317 C316 1.404 . S
C317 H329 0.930 . S
C318 C314 1.524 . S
C318 H330 0.956 . S
C318 H331 0.961 . S
C318 H332 0.961 . S
C319 C316 1.539 . S
C319 H333 0.958 . S
C319 H334 0.961 . S
C319 H335 0.960 . S
H320 C304 0.931 . S
H321 C309 0.929 . S
H322 C310 0.960 . S
H323 C310 0.962 . S
H324 C310 0.960 . S
H325 C311 0.961 . S
H326 C311 0.961 . S
H327 C311 0.961 . S
H328 C312 0.931 . S
H329 C317 0.930 . S
H330 C318 0.956 . S
H331 C318 0.961 . S
H332 C318 0.961 . S
H333 C319 0.958 . S
H334 C319 0.961 . S
H335 C319 0.960 . S
C336 C337 1.391 . S
C336 C338 1.394 . S
C336 H352 0.931 . S
C337 C336 1.391 . S
C337 C341 1.376 . S
C338 C336 1.394 . S
C338 C339 1.369 . S
C338 C342 1.531 . S
C339 C338 1.369 . S
C339 C340 1.410 . S
C339 C347 1.503 . S
C340 C339 1.410 . S
C340 C341 1.392 . S
C340 C343 1.511 . S
C341 C337 1.376 . S
C341 C340 1.392 . S
C341 H353 0.929 . S
C342 C338 1.531 . S
C342 H354 0.960 . S
C342 H355 0.962 . S
C342 H356 0.960 . S
C343 C340 1.511 . S
C343 H357 0.961 . S
C343 H358 0.961 . S
C343 H359 0.961 . S
C344 C345 1.370 . S
C344 C346 1.363 . S
C344 H360 0.931 . S
C345 C344 1.370 . S
C345 C349 1.408 . S
C346 C344 1.363 . S
C346 C347 1.370 . S
C346 C350 1.524 . S
C347 C339 1.503 . S
C347 C346 1.370 . S
C347 C348 1.403 . S
C348 C347 1.403 . S
C348 C349 1.404 . S
C348 C351 1.539 . S
C349 C345 1.408 . S
C349 C348 1.404 . S
C349 H361 0.930 . S
C350 C346 1.524 . S
C350 H362 0.956 . S
C350 H363 0.961 . S
C350 H364 0.961 . S
C351 C348 1.539 . S
C351 H365 0.958 . S
C351 H366 0.961 . S
C351 H367 0.960 . S
H352 C336 0.931 . S
H353 C341 0.929 . S
H354 C342 0.960 . S
H355 C342 0.962 . S
H356 C342 0.960 . S
H357 C343 0.961 . S
H358 C343 0.961 . S
H359 C343 0.961 . S
H360 C344 0.931 . S
H361 C349 0.930 . S
H362 C350 0.956 . S
H363 C350 0.961 . S
H364 C350 0.961 . S
H365 C351 0.958 . S
H366 C351 0.961 . S
H367 C351 0.960 . S
C368 C369 1.391 . S
C368 C370 1.394 . S
C368 H384 0.931 . S
C369 C368 1.391 . S
C369 C373 1.376 . S
C370 C368 1.394 . S
C370 C371 1.369 . S
C370 C374 1.531 1_455 S
C371 C370 1.369 . S
C371 C372 1.410 . S
C371 C379 1.503 1_455 S
C372 C371 1.410 . S
C372 C373 1.392 . S
C372 C375 1.511 . S
C373 C369 1.376 . S
C373 C372 1.392 . S
C373 H385 0.929 . S
C374 C370 1.531 1_655 S
C374 H386 0.960 . S
C374 H387 0.962 . S
C374 H388 0.960 1_655 S
C375 C372 1.511 . S
C375 H389 0.961 . S
C375 H390 0.961 . S
C375 H391 0.961 . S
C376 C377 1.370 . S
C376 C378 1.363 . S
C376 H392 0.931 . S
C377 C376 1.370 . S
C377 C381 1.408 . S
C378 C376 1.363 . S
C378 C379 1.370 . S
C378 C382 1.524 . S
C379 C371 1.503 1_655 S
C379 C378 1.370 . S
C379 C380 1.403 1_655 S
C380 C379 1.403 1_455 S
C380 C381 1.404 1_455 S
C380 C383 1.539 . S
C381 C377 1.408 . S
C381 C380 1.404 1_655 S
C381 H393 0.930 . S
C382 C378 1.524 . S
C382 H394 0.956 . S
C382 H395 0.961 . S
C382 H396 0.961 . S
C383 C380 1.539 . S
C383 H397 0.958 . S
C383 H398 0.961 . S
C383 H399 0.960 . S
H384 C368 0.931 . S
H385 C373 0.929 . S
H386 C374 0.960 . S
H387 C374 0.962 . S
H388 C374 0.960 1_455 S
H389 C375 0.961 . S
H390 C375 0.961 . S
H391 C375 0.961 . S
H392 C376 0.931 . S
H393 C381 0.930 . S
H394 C382 0.956 . S
H395 C382 0.961 . S
H396 C382 0.961 . S
H397 C383 0.958 . S
H398 C383 0.961 . S
H399 C383 0.960 . S
C400 C401 1.391 . S
C400 C402 1.394 . S
C400 H416 0.931 . S
C401 C400 1.391 . S
C401 C405 1.376 . S
C402 C400 1.394 . S
C402 C403 1.369 . S
C402 C406 1.531 . S
C403 C402 1.369 . S
C403 C404 1.410 . S
C403 C411 1.503 . S
C404 C403 1.410 . S
C404 C405 1.392 . S
C404 C407 1.511 . S
C405 C401 1.376 . S
C405 C404 1.392 . S
C405 H417 0.929 . S
C406 C402 1.531 . S
C406 H418 0.960 . S
C406 H419 0.962 . S
C406 H420 0.960 . S
C407 C404 1.511 . S
C407 H421 0.961 . S
C407 H422 0.961 . S
C407 H423 0.961 . S
C408 C409 1.370 . S
C408 C410 1.363 . S
C408 H424 0.931 . S
C409 C408 1.370 . S
C409 C413 1.408 . S
C410 C408 1.363 . S
C410 C411 1.370 . S
C410 C414 1.524 . S
C411 C403 1.503 . S
C411 C410 1.370 . S
C411 C412 1.403 . S
C412 C411 1.403 . S
C412 C413 1.404 . S
C412 C415 1.539 . S
C413 C409 1.408 . S
C413 C412 1.404 . S
C413 H425 0.930 . S
C414 C410 1.524 . S
C414 H426 0.956 . S
C414 H427 0.961 . S
C414 H428 0.961 . S
C415 C412 1.539 . S
C415 H429 0.958 . S
C415 H430 0.961 . S
C415 H431 0.960 . S
H416 C400 0.931 . S
H417 C405 0.929 . S
H418 C406 0.960 . S
H419 C406 0.962 . S
H420 C406 0.960 . S
H421 C407 0.961 . S
H422 C407 0.961 . S
H423 C407 0.961 . S
H424 C408 0.931 . S
H425 C413 0.930 . S
H426 C414 0.956 . S
H427 C414 0.961 . S
H428 C414 0.961 . S
H429 C415 0.958 . S
H430 C415 0.961 . S
H431 C415 0.960 . S
C432 C433 1.391 . S
C432 C434 1.394 . S
C432 H448 0.931 . S
C433 C432 1.391 . S
C433 C437 1.376 . S
C434 C432 1.394 . S
C434 C435 1.369 . S
C434 C438 1.531 1_455 S
C435 C434 1.369 . S
C435 C436 1.410 . S
C435 C443 1.503 1_455 S
C436 C435 1.410 . S
C436 C437 1.392 . S
C436 C439 1.511 . S
C437 C433 1.376 . S
C437 C436 1.392 . S
C437 H449 0.929 . S
C438 C434 1.531 1_655 S
C438 H450 0.960 . S
C438 H451 0.962 . S
C438 H452 0.960 . S
C439 C436 1.511 . S
C439 H453 0.961 . S
C439 H454 0.961 . S
C439 H455 0.961 . S
C440 C441 1.370 . S
C440 C442 1.363 . S
C440 H456 0.931 . S
C441 C440 1.370 . S
C441 C445 1.408 . S
C442 C440 1.363 . S
C442 C443 1.370 . S
C442 C446 1.524 . S
C443 C435 1.503 1_655 S
C443 C442 1.370 . S
C443 C444 1.403 1_655 S
C444 C443 1.403 1_455 S
C444 C445 1.404 1_455 S
C444 C447 1.539 . S
C445 C441 1.408 . S
C445 C444 1.404 1_655 S
C445 H457 0.930 . S
C446 C442 1.524 . S
C446 H458 0.956 . S
C446 H459 0.961 . S
C446 H460 0.961 . S
C447 C444 1.539 . S
C447 H461 0.958 . S
C447 H462 0.961 . S
C447 H463 0.960 . S
H448 C432 0.931 . S
H449 C437 0.929 . S
H450 C438 0.960 . S
H451 C438 0.962 . S
H452 C438 0.960 . S
H453 C439 0.961 . S
H454 C439 0.961 . S
H455 C439 0.961 . S
H456 C440 0.931 . S
H457 C445 0.930 . S
H458 C446 0.956 . S
H459 C446 0.961 . S
H460 C446 0.961 . S
H461 C447 0.958 . S
H462 C447 0.961 . S
H463 C447 0.960 . S
C464 C465 1.391 . S
C464 C466 1.394 . S
C464 H480 0.931 . S
C465 C464 1.391 . S
C465 C469 1.376 . S
C466 C464 1.394 . S
C466 C467 1.369 . S
C466 C470 1.531 . S
C467 C466 1.369 . S
C467 C468 1.410 . S
C467 C475 1.503 . S
C468 C467 1.410 . S
C468 C469 1.392 . S
C468 C471 1.511 . S
C469 C465 1.376 . S
C469 C468 1.392 . S
C469 H481 0.929 . S
C470 C466 1.531 . S
C470 H482 0.960 . S
C470 H483 0.962 . S
C470 H484 0.960 . S
C471 C468 1.511 . S
C471 H485 0.961 . S
C471 H486 0.961 . S
C471 H487 0.961 . S
C472 C473 1.370 . S
C472 C474 1.363 . S
C472 H488 0.931 . S
C473 C472 1.370 . S
C473 C477 1.408 . S
C474 C472 1.363 . S
C474 C475 1.370 . S
C474 C478 1.524 . S
C475 C467 1.503 . S
C475 C474 1.370 . S
C475 C476 1.403 . S
C476 C475 1.403 . S
C476 C477 1.404 . S
C476 C479 1.539 . S
C477 C473 1.408 . S
C477 C476 1.404 . S
C477 H489 0.930 . S
C478 C474 1.524 . S
C478 H490 0.956 . S
C478 H491 0.961 . S
C478 H492 0.961 . S
C479 C476 1.539 . S
C479 H493 0.958 . S
C479 H494 0.961 . S
C479 H495 0.960 . S
H480 C464 0.931 . S
H481 C469 0.929 . S
H482 C470 0.960 . S
H483 C470 0.962 . S
H484 C470 0.960 . S
H485 C471 0.961 . S
H486 C471 0.961 . S
H487 C471 0.961 . S
H488 C472 0.931 . S
H489 C477 0.930 . S
H490 C478 0.956 . S
H491 C478 0.961 . S
H492 C478 0.961 . S
H493 C479 0.958 . S
H494 C479 0.961 . S
H495 C479 0.960 . S
C496 C497 1.391 1_556 S
C496 C498 1.394 . S
C496 H512 0.931 . S
C497 C496 1.391 1_554 S
C497 C501 1.376 . S
C498 C496 1.394 . S
C498 C499 1.369 1_556 S
C498 C502 1.531 1_545 S
C499 C498 1.369 1_554 S
C499 C500 1.410 . S
C499 C507 1.503 1_445 S
C500 C499 1.410 . S
C500 C501 1.392 . S
C500 C503 1.511 1_455 S
C501 C497 1.376 . S
C501 C500 1.392 . S
C501 H513 0.929 . S
C502 C498 1.531 1_565 S
C502 H514 0.960 . S
C502 H515 0.964 . S
C502 H516 0.960 . S
C503 C500 1.511 1_655 S
C503 H517 0.961 . S
C503 H518 0.961 . S
C503 H519 0.961 . S
C504 C505 1.370 . S
C504 C506 1.363 . S
C504 H520 0.931 . S
C505 C504 1.370 . S
C505 C509 1.408 1_556 S
C506 C504 1.363 . S
C506 C507 1.370 1_556 S
C506 C510 1.524 1_565 S
C507 C499 1.503 1_665 S
C507 C506 1.370 1_554 S
C507 C508 1.403 1_655 S
C508 C507 1.403 1_455 S
C508 C509 1.404 1_455 S
C508 C511 1.539 . S
C509 C505 1.408 1_554 S
C509 C508 1.404 1_655 S
C509 H521 0.930 . S
C510 C506 1.524 1_545 S
C510 H522 0.956 . S
C510 H523 0.961 . S
C510 H524 0.961 . S
C511 C508 1.539 . S
C511 H525 0.958 . S
C511 H526 0.961 . S
C511 H527 0.960 . S
H512 C496 0.931 . S
H513 C501 0.929 . S
H514 C502 0.960 . S
H515 C502 0.964 . S
H516 C502 0.960 . S
H517 C503 0.961 . S
H518 C503 0.961 . S
H519 C503 0.961 . S
H520 C504 0.931 . S
H521 C509 0.930 . S
H522 C510 0.956 . S
H523 C510 0.961 . S
H524 C510 0.961 . S
H525 C511 0.958 . S
H526 C511 0.961 . S
H527 C511 0.960 . S
C528 C529 1.391 . S
C528 C530 1.394 . S
C528 H544 0.931 . S
C529 C528 1.391 . S
C529 C533 1.376 . S
C530 C528 1.394 . S
C530 C531 1.369 . S
C530 C534 1.531 . S
C531 C530 1.369 . S
C531 C532 1.410 . S
C531 C539 1.503 . S
C532 C531 1.410 . S
C532 C533 1.392 . S
C532 C535 1.511 . S
C533 C529 1.376 . S
C533 C532 1.392 . S
C533 H545 0.929 . S
C534 C530 1.531 . S
C534 H546 0.960 . S
C534 H547 0.962 . S
C534 H548 0.960 . S
C535 C532 1.511 . S
C535 H549 0.961 . S
C535 H550 0.961 . S
C535 H551 0.961 . S
C536 C537 1.370 . S
C536 C538 1.363 . S
C536 H552 0.931 . S
C537 C536 1.370 . S
C537 C541 1.408 . S
C538 C536 1.363 . S
C538 C539 1.370 . S
C538 C542 1.524 . S
C539 C531 1.503 . S
C539 C538 1.370 . S
C539 C540 1.403 . S
C540 C539 1.403 . S
C540 C541 1.404 . S
C540 C543 1.539 . S
C541 C537 1.408 . S
C541 C540 1.404 . S
C541 H553 0.930 . S
C542 C538 1.524 . S
C542 H554 0.956 . S
C542 H555 0.961 . S
C542 H556 0.961 . S
C543 C540 1.539 . S
C543 H557 0.958 . S
C543 H558 0.961 . S
C543 H559 0.960 . S
H544 C528 0.931 . S
H545 C533 0.929 . S
H546 C534 0.960 . S
H547 C534 0.962 . S
H548 C534 0.960 . S
H549 C535 0.961 . S
H550 C535 0.961 . S
H551 C535 0.961 . S
H552 C536 0.931 . S
H553 C541 0.930 . S
H554 C542 0.956 . S
H555 C542 0.961 . S
H556 C542 0.961 . S
H557 C543 0.958 . S
H558 C543 0.961 . S
H559 C543 0.960 . S
C560 C561 1.391 1_556 S
C560 C562 1.394 . S
C560 H576 0.931 . S
C561 C560 1.391 1_554 S
C561 C565 1.376 . S
C562 C560 1.394 . S
C562 C563 1.369 . S
C562 C566 1.531 . S
C563 C562 1.369 . S
C563 C564 1.410 1_556 S
C563 C571 1.503 . S
C564 C563 1.410 1_554 S
C564 C565 1.392 . S
C564 C567 1.511 . S
C565 C561 1.376 . S
C565 C564 1.392 . S
C565 H577 0.929 . S
C566 C562 1.531 . S
C566 H578 0.960 . S
C566 H579 0.962 . S
C566 H580 0.960 . S
C567 C564 1.511 . S
C567 H581 0.961 . S
C567 H582 0.961 . S
C567 H583 0.961 . S
C568 C569 1.370 1_554 S
C568 C570 1.363 . S
C568 H584 0.931 . S
C569 C568 1.370 1_556 S
C569 C573 1.408 . S
C570 C568 1.363 . S
C570 C571 1.370 1_554 S
C570 C574 1.524 . S
C571 C563 1.503 . S
C571 C570 1.370 1_556 S
C571 C572 1.403 . S
C572 C571 1.403 . S
C572 C573 1.404 . S
C572 C575 1.539 . S
C573 C569 1.408 . S
C573 C572 1.404 . S
C573 H585 0.930 . S
C574 C570 1.524 . S
C574 H586 0.956 1_554 S
C574 H587 0.961 . S
C574 H588 0.961 . S
C575 C572 1.539 . S
C575 H589 0.958 . S
C575 H590 0.961 . S
C575 H591 0.960 . S
H576 C560 0.931 . S
H577 C565 0.929 . S
H578 C566 0.960 . S
H579 C566 0.962 . S
H580 C566 0.960 . S
H581 C567 0.961 . S
H582 C567 0.961 . S
H583 C567 0.961 . S
H584 C568 0.931 . S
H585 C573 0.930 . S
H586 C574 0.956 1_556 S
H587 C574 0.961 . S
H588 C574 0.961 . S
H589 C575 0.958 . S
H590 C575 0.961 . S
H591 C575 0.960 . S
C592 C593 1.391 . S
C592 C594 1.394 1_455 S
C592 H608 0.931 . S
C593 C592 1.391 . S
C593 C597 1.376 . S
C594 C592 1.394 1_655 S
C594 C595 1.369 1_655 S
C594 C598 1.531 . S
C595 C594 1.369 1_455 S
C595 C596 1.410 . S
C595 C603 1.503 1_465 S
C596 C595 1.410 . S
C596 C597 1.392 . S
C596 C599 1.511 1_565 S
C597 C593 1.376 . S
C597 C596 1.392 . S
C597 H609 0.929 . S
C598 C594 1.531 . S
C598 H610 0.960 . S
C598 H611 0.962 . S
C598 H612 0.960 . S
C599 C596 1.511 1_545 S
C599 H613 0.961 . S
C599 H614 0.961 . S
C599 H615 0.961 . S
C600 C601 1.370 . S
C600 C602 1.363 . S
C600 H616 0.931 . S
C601 C600 1.370 . S
C601 C605 1.408 . S
C602 C600 1.363 . S
C602 C603 1.370 . S
C602 C606 1.524 1_655 S
C603 C595 1.503 1_645 S
C603 C602 1.370 . S
C603 C604 1.403 . S
C604 C603 1.403 . S
C604 C605 1.404 . S
C604 C607 1.539 1_545 S
C605 C601 1.408 . S
C605 C604 1.404 . S
C605 H617 0.930 . S
C606 C602 1.524 1_455 S
C606 H618 0.956 . S
C606 H619 0.961 . S
C606 H620 0.961 . S
C607 C604 1.539 1_565 S
C607 H621 0.958 . S
C607 H622 0.961 1_565 S
C607 H623 0.960 . S
H608 C592 0.931 . S
H609 C597 0.929 . S
H610 C598 0.960 . S
H611 C598 0.962 . S
H612 C598 0.960 . S
H613 C599 0.961 . S
H614 C599 0.961 . S
H615 C599 0.961 . S
H616 C600 0.931 . S
H617 C605 0.930 . S
H618 C606 0.956 . S
H619 C606 0.961 . S
H620 C606 0.961 . S
H621 C607 0.958 . S
H622 C607 0.961 1_545 S
H623 C607 0.960 . S
C113 C22 1.614 . S
C121 C6 1.642 . S
C145 C8 1.615 . S
C153 C20 1.643 . S
C177 C50 1.619 . S
C185 C34 1.642 . S
C209 C36 1.618 . S
C217 C48 1.640 . S
C241 C62 1.626 . S
C249 C78 1.637 . S
C273 C76 1.642 . S
C281 C64 1.627 . S
C305 C90 1.643 . S
C313 C106 1.627 . S
C337 C92 1.626 . S
C345 C104 1.639 . S
C369 C9 0.491 . S
C377 C51 0.578 . S
C401 C23 0.604 . S
C409 C37 0.537 . S
C433 C107 0.580 . S
C441 C65 0.600 . S
C465 C93 0.643 . S
C473 C79 0.610 . S
C497 C7 1.485 . S
C505 C63 1.514 . S
C529 C77 1.527 . S
C537 C21 1.496 . S
C561 C91 1.510 . S
C569 C35 1.503 . S
C593 C105 1.479 . S
C601 C49 1.516 . S
