# Generated by pormake.
# Topology wme, (6)-cn, num edge types: 1
# Building blocks:
#     Node 0, Type 0, BuildingBlock: KUMBUR_clean_sbu_0, # of connection points: 6
#     Node 1, Type 0, BuildingBlock: KUMBUR_clean_sbu_0, # of connection points: 6
#     Node 2, Type 0, BuildingBlock: KUMBUR_clean_sbu_0, # of connection points: 6
#     Node 3, Type 0, BuildingBlock: KUMBUR_clean_sbu_0, # of connection points: 6
#     Node 4, Type 0, BuildingBlock: KUMBUR_clean_sbu_0, # of connection points: 6
#     Node 5, Type 0, BuildingBlock: KUMBUR_clean_sbu_0, # of connection points: 6
#     Node 6, Type 0, BuildingBlock: KUMBUR_clean_sbu_0, # of connection points: 6
#     Node 7, Type 0, BuildingBlock: KUMBUR_clean_sbu_0, # of connection points: 6
#     Node 8, Type 0, BuildingBlock: KUMBUR_clean_sbu_0, # of connection points: 6
#     Node 9, Type 0, BuildingBlock: KUMBUR_clean_sbu_0, # of connection points: 6
#     Node 10, Type 0, BuildingBlock: KUMBUR_clean_sbu_0, # of connection points: 6
#     Node 11, Type 0, BuildingBlock: KUMBUR_clean_sbu_0, # of connection points: 6
#     Edge 12, Type (0, 0), BuildingBlock: TEMPAE_clean_linker_10, # of connection points: 2
#     Edge 13, Type (0, 0), BuildingBlock: TEMPAE_clean_linker_10, # of connection points: 2
#     Edge 14, Type (0, 0), BuildingBlock: TEMPAE_clean_linker_10, # of connection points: 2
#     Edge 15, Type (0, 0), BuildingBlock: TEMPAE_clean_linker_10, # of connection points: 2
#     Edge 16, Type (0, 0), BuildingBlock: TEMPAE_clean_linker_10, # of connection points: 2
#     Edge 17, Type (0, 0), BuildingBlock: TEMPAE_clean_linker_10, # of connection points: 2
#     Edge 18, Type (0, 0), BuildingBlock: TEMPAE_clean_linker_10, # of connection points: 2
#     Edge 19, Type (0, 0), BuildingBlock: TEMPAE_clean_linker_10, # of connection points: 2
#     Edge 20, Type (0, 0), BuildingBlock: TEMPAE_clean_linker_10, # of connection points: 2
#     Edge 21, Type (0, 0), BuildingBlock: TEMPAE_clean_linker_10, # of connection points: 2
#     Edge 22, Type (0, 0), BuildingBlock: TEMPAE_clean_linker_10, # of connection points: 2
#     Edge 23, Type (0, 0), BuildingBlock: TEMPAE_clean_linker_10, # of connection points: 2
#     Edge 24, Type (0, 0), BuildingBlock: TEMPAE_clean_linker_10, # of connection points: 2
#     Edge 25, Type (0, 0), BuildingBlock: TEMPAE_clean_linker_10, # of connection points: 2
#     Edge 26, Type (0, 0), BuildingBlock: TEMPAE_clean_linker_10, # of connection points: 2
#     Edge 27, Type (0, 0), BuildingBlock: TEMPAE_clean_linker_10, # of connection points: 2
#     Edge 28, Type (0, 0), BuildingBlock: TEMPAE_clean_linker_10, # of connection points: 2
#     Edge 29, Type (0, 0), BuildingBlock: TEMPAE_clean_linker_10, # of connection points: 2
#     Edge 30, Type (0, 0), BuildingBlock: TEMPAE_clean_linker_10, # of connection points: 2
#     Edge 31, Type (0, 0), BuildingBlock: TEMPAE_clean_linker_10, # of connection points: 2
#     Edge 32, Type (0, 0), BuildingBlock: TEMPAE_clean_linker_10, # of connection points: 2
#     Edge 33, Type (0, 0), BuildingBlock: TEMPAE_clean_linker_10, # of connection points: 2
#     Edge 34, Type (0, 0), BuildingBlock: TEMPAE_clean_linker_10, # of connection points: 2
#     Edge 35, Type (0, 0), BuildingBlock: TEMPAE_clean_linker_10, # of connection points: 2
#     Edge 36, Type (0, 0), BuildingBlock: TEMPAE_clean_linker_10, # of connection points: 2
#     Edge 37, Type (0, 0), BuildingBlock: TEMPAE_clean_linker_10, # of connection points: 2
#     Edge 38, Type (0, 0), BuildingBlock: TEMPAE_clean_linker_10, # of connection points: 2
#     Edge 39, Type (0, 0), BuildingBlock: TEMPAE_clean_linker_10, # of connection points: 2
#     Edge 40, Type (0, 0), BuildingBlock: TEMPAE_clean_linker_10, # of connection points: 2
#     Edge 41, Type (0, 0), BuildingBlock: TEMPAE_clean_linker_10, # of connection points: 2
#     Edge 42, Type (0, 0), BuildingBlock: TEMPAE_clean_linker_10, # of connection points: 2
#     Edge 43, Type (0, 0), BuildingBlock: TEMPAE_clean_linker_10, # of connection points: 2
#     Edge 44, Type (0, 0), BuildingBlock: TEMPAE_clean_linker_10, # of connection points: 2
#     Edge 45, Type (0, 0), BuildingBlock: TEMPAE_clean_linker_10, # of connection points: 2
#     Edge 46, Type (0, 0), BuildingBlock: TEMPAE_clean_linker_10, # of connection points: 2
#     Edge 47, Type (0, 0), BuildingBlock: TEMPAE_clean_linker_10, # of connection points: 2
# Relax obj value: 0.094
# Max RMSD: 0.208
# Mean RMSD: 0.208
data_MOF--net-wme--node1-KUMBUR_clean_sbu_0--edge1-TEMPAE_clean_linker_10
_symmetry_space_group_name_H-M    P1
_symmetry_Int_Tables_number       1
_symmetry_cell_setting            triclinic
loop_
_symmetry_equiv_pos_as_xyz
'x, y, z'
_cell_length_a     38.794651
_cell_length_b     38.813981
_cell_length_c     55.166106
_cell_angle_alpha  89.890702
_cell_angle_beta   90.081479
_cell_angle_gamma 120.00649
loop_
_atom_site_label
_atom_site_type_symbol
_atom_site_fract_x
_atom_site_fract_y
_atom_site_fract_z
_atom_type_partial_charge
Tb0 Tb 0.20448 0.36721 0.10292 0.0
C1 C 0.31721 0.35642 0.17342 0.0
C2 C 0.38101 0.39504 0.15357 0.0
C3 C 0.37709 0.39508 0.19747 0.0
C4 C 0.33932 0.36967 0.15231 0.0
C5 C 0.3361 0.36784 0.19623 0.0
C6 C 0.39949 0.40881 0.17617 0.0
C7 C 0.27334 0.32205 0.21491 0.0
N8 N 0.27749 0.33048 0.17159 0.0
C9 C 0.25566 0.31221 0.19198 0.0
C10 C 0.31353 0.35053 0.21709 0.0
Tb11 Tb 0.25187 0.31918 0.13295 0.0
N12 N 0.32051 0.35534 0.13073 0.0
C13 C 0.34284 0.36126 0.11028 0.0
C14 C 0.40317 0.40443 0.1322 0.0
C15 C 0.3841 0.38662 0.11057 0.0
H16 H 0.22423 0.29141 0.19084 0.0
H17 H 0.40123 0.39206 0.09411 0.0
H18 H 0.43133 0.42882 0.1774 0.0
H19 H 0.25588 0.30798 0.23094 0.0
H20 H 0.32982 0.34677 0.09352 0.0
H21 H 0.05455 0.31639 0.13191 0.0
H22 H 0.43519 0.42373 0.13239 0.0
H23 H 0.24313 0.39028 0.04717 0.0
H24 H 0.12583 0.34144 0.13751 0.0
H25 H 0.21926 0.37543 0.00508 0.0
H26 H 0.39197 0.40474 0.21483 0.0
H27 H 1.02373 0.29389 0.09137 0.0
H28 H 0.03189 0.28473 0.04726 0.0
H29 H 0.32702 0.35831 0.23492 0.0
H30 H 0.07709 0.30014 0.01254 0.0
N31 N 0.13653 0.33497 0.10036 0.0
C32 C 0.11315 0.33189 0.1197 0.0
C33 C 0.05518 0.30465 0.09382 0.0
C34 C 0.07913 0.30808 0.07407 0.0
C35 C 0.07241 0.31721 0.11667 0.0
C36 C 0.12035 0.32459 0.07787 0.0
H37 H 0.14719 0.33457 0.99658 0.0
N38 N 0.18533 0.356 0.06281 0.0
C39 C 0.19821 0.36368 0.0199 0.0
C40 C 0.1457 0.3347 0.05838 0.0
C41 C 0.2116 0.37216 0.04387 0.0
C42 C 0.15755 0.34041 0.01518 0.0
C43 C 0.13063 0.3266 0.03451 0.0
O44 O 0.22223 0.42451 0.08903 0.0
O45 O 0.25896 0.37464 0.119 0.0
O46 O 0.24786 0.35884 0.15915 0.0
O47 O 0.19749 0.36834 0.14314 0.0
O48 O 0.26447 0.40707 0.08898 0.0
O49 O 0.18724 0.40398 0.12132 0.0
O50 O 0.22582 0.26246 0.11626 0.0
O51 O 0.19631 0.31275 0.11926 0.0
O52 O 0.20686 0.32248 0.07861 0.0
O53 O 0.26354 0.32463 0.094 0.0
O54 O 0.1942 0.28556 0.1514 0.0
O55 O 0.26953 0.27799 0.1438 0.0
C56 C 0.28452 0.40052 0.10493 0.0
C57 C 0.17673 0.44783 0.0964 0.0
C58 C 0.15062 0.49417 0.09907 0.0
C59 C 0.17694 0.4811 0.10733 0.0
C60 C 0.12465 0.47357 0.0798 0.0
C61 C 0.15091 0.4289 0.0769 0.0
C62 C 0.12497 0.44146 0.06881 0.0
C63 C 0.22099 0.37003 0.16132 0.0
C64 C 0.20275 0.43235 0.1053 0.0
C65 C 0.08931 0.30689 0.03071 0.0
C66 C 0.06358 0.29804 0.05048 0.0
C67 C 0.17264 0.29043 0.13559 0.0
C68 C 0.21897 0.20994 0.14156 0.0
C69 C 0.21561 0.17476 0.13153 0.0
C70 C 0.19063 0.13721 0.14253 0.0
C71 C 0.1695 0.13573 0.16358 0.0
C72 C 0.19782 0.20701 0.1628 0.0
C73 C 0.17318 0.17029 0.17359 0.0
C74 C 0.23801 0.3171 0.07616 0.0
C75 C 0.2441 0.24952 0.12997 0.0
H76 H 0.19706 0.49639 0.12223 0.0
H77 H 0.10455 0.48297 0.07277 0.0
H78 H 0.15092 0.4045 0.06771 0.0
H79 H 0.10517 0.42635 0.05377 0.0
H80 H 0.23205 0.17655 0.11526 0.0
H81 H 0.15073 0.10775 0.17276 0.0
H82 H 0.20038 0.23305 0.17131 0.0
H83 H 0.15708 0.16864 0.18997 0.0
Tb84 Tb 0.8556 0.20553 0.60684 0.0
C85 C 0.9813 0.3063 0.68305 0.0
C86 C 1.00821 0.37341 0.66802 0.0
C87 C 1.00699 0.36156 0.71137 0.0
C88 C 0.99008 0.3321 0.66391 0.0
C89 C 0.99068 0.32068 0.70698 0.0
C90 C 1.0156 0.3879 0.6919 0.0
C91 C 0.97054 0.25383 0.71997 0.0
N92 N 0.96525 0.26704 0.67799 0.0
C93 C 0.96089 0.24087 0.69601 0.0
C94 C 0.9847 0.29375 0.72559 0.0
Tb95 Tb 0.95026 0.24847 0.63816 0.0
N96 N 0.98309 0.31683 0.64117 0.0
C97 C 0.99692 0.34201 0.62164 0.0
C98 C 1.01959 0.39894 0.64803 0.0
C99 C 1.01457 0.38319 0.62475 0.0
H100 H 0.94986 0.20989 0.69211 0.0
H101 H 1.02417 0.40273 0.60914 0.0
H102 H 0.02912 0.41948 0.69545 0.0
H103 H 0.96732 0.23302 0.73405 0.0
H104 H 0.99338 0.33081 0.60342 0.0
H105 H 0.75403 0.05944 0.64102 0.0
H106 H 0.0334 0.43084 0.65038 0.0
H107 H 0.86268 0.23977 0.55101 0.0
H108 H 0.80446 0.12965 0.64422 0.0
H109 H 0.8461 0.21324 0.50945 0.0
H110 H 1.014 0.37319 0.72966 0.0
H111 H 0.7364 0.02667 0.60097 0.0
H112 H 0.75029 0.02988 0.55645 0.0
H113 H 0.99201 0.30365 0.7442 0.0
H114 H 0.77814 0.07194 0.52025 0.0
N115 N 0.81757 0.13741 0.60632 0.0
C116 C 0.79852 0.11594 0.62661 0.0
C117 C 0.76027 0.05722 0.6024 0.0
C118 C 0.78041 0.07869 0.58179 0.0
C119 C 0.76964 0.0758 0.62494 0.0
C120 C 0.80835 0.11954 0.58429 0.0
H121 H 0.81321 0.1407 0.50249 0.0
N122 N 0.84265 0.18314 0.56747 0.0
C123 C 0.8396 0.19317 0.52461 0.0
C124 C 0.82264 0.14326 0.56406 0.0
C125 C 0.84899 0.20808 0.54823 0.0
C126 C 0.82136 0.15227 0.52074 0.0
C127 C 0.81115 0.12665 0.54065 0.0
O128 O 0.81822 0.22677 0.5939 0.0
O129 O 0.90315 0.25781 0.6239 0.0
O130 O 0.90897 0.24929 0.66411 0.0
O131 O 0.84991 0.1985 0.64758 0.0
O132 O 0.87863 0.26582 0.59326 0.0
O133 O 0.80251 0.19098 0.62576 0.0
O134 O 0.98168 0.21788 0.64463 0.0
O135 O 0.90183 0.19565 0.62078 0.0
O136 O 0.90262 0.213 0.57995 0.0
O137 O 0.95952 0.26126 0.59957 0.0
O138 O 0.92461 0.18752 0.65221 0.0
O139 O 1.00847 0.27217 0.62442 0.0
C140 C 0.90451 0.28438 0.60988 0.0
C141 C 0.74885 0.18277 0.60088 0.0
C142 C 0.67631 0.15619 0.60406 0.0
C143 C 0.71569 0.18169 0.61268 0.0
C144 C 0.67094 0.13225 0.58372 0.0
C145 C 0.74188 0.15923 0.58019 0.0
C146 C 0.70341 0.13399 0.57187 0.0
C147 C 0.87123 0.22171 0.66609 0.0
C148 C 0.79053 0.20763 0.60999 0.0
C149 C 0.78696 0.08531 0.53805 0.0
C150 C 0.77109 0.06138 0.55865 0.0
C151 C 0.89904 0.16913 0.63539 0.0
C152 C 0.05174 0.25626 0.646 0.0
C153 C 0.07562 0.23964 0.63936 0.0
C154 C 0.11225 0.25155 0.65125 0.0
C155 C 0.12378 0.27949 0.67018 0.0
C156 C 0.06443 0.28431 0.66474 0.0
C157 C 0.1001 0.29563 0.67681 0.0
C158 C 0.94137 0.24059 0.58003 0.0
C159 C 1.01358 0.24405 0.63349 0.0
H160 H 0.72041 0.20017 0.62842 0.0
H161 H 0.64142 0.11279 0.57653 0.0
H162 H 0.7662 0.1605 0.5702 0.0
H163 H 0.69876 0.1159 0.55595 0.0
H164 H 0.0661 0.21819 0.62474 0.0
H165 H 0.15124 0.28884 0.68002 0.0
H166 H 0.0468 0.29751 0.67004 0.0
H167 H 0.10953 0.31715 0.69136 0.0
Tb168 Tb 0.66683 0.8383 0.10338 0.0
C169 C 0.6876 0.96643 0.17539 0.0
C170 C 0.64868 0.99285 0.15758 0.0
C171 C 0.65544 0.99244 0.20139 0.0
C172 C 0.67219 0.9747 0.1552 0.0
C173 C 0.68041 0.97614 0.19872 0.0
C174 C 0.63949 1.00068 0.18082 0.0
C175 C 0.72604 0.95642 0.21455 0.0
N176 N 0.71141 0.95058 0.17195 0.0
C177 C 0.73173 0.9467 0.19107 0.0
C178 C 0.69961 0.9704 0.21849 0.0
Tb179 Tb 0.71798 0.93431 0.13294 0.0
N180 N 0.68234 0.96713 0.13315 0.0
C181 C 0.67244 0.98014 0.11263 0.0
C182 C 0.63628 1.00373 0.13656 0.0
C183 C 0.64879 0.99795 0.11401 0.0
H184 H 0.75196 0.93559 0.1884 0.0
H185 H 0.64009 1.00703 0.09763 0.0
H186 H 0.6211 1.0142 0.18305 0.0
H187 H 0.74224 0.95333 0.22955 0.0
H188 H 0.68144 0.97581 0.09496 0.0
H189 H 0.7088 0.73522 0.13828 0.0
H190 H 0.6181 0.01764 0.13758 0.0
H191 H 0.64316 0.84825 0.04685 0.0
H192 H 0.68982 0.78633 0.14119 0.0
H193 H 0.65611 0.83382 0.00549 0.0
H194 H 0.64915 0.99972 0.21918 0.0
H195 H 0.72555 0.71828 0.09844 0.0
H196 H 0.73723 0.73247 0.05398 0.0
H197 H 0.69519 0.97778 0.23673 0.0
H198 H 0.72512 0.76164 0.01759 0.0
N199 N 0.69593 0.79943 0.10331 0.0
C200 C 0.6979 0.78032 0.12368 0.0
C201 C 0.7188 0.74209 0.09976 0.0
C202 C 0.71787 0.76232 0.07907 0.0
C203 C 0.70885 0.7512 0.12218 0.0
C204 C 0.70495 0.79026 0.08136 0.0
H205 H 0.69424 0.79913 0.99926 0.0
N206 N 0.67726 0.82585 0.06407 0.0
C207 C 0.66793 0.82583 0.02091 0.0
C208 C 0.69655 0.80518 0.06098 0.0
C209 C 0.66077 0.83406 0.04444 0.0
C210 C 0.68968 0.80649 0.01747 0.0
C211 C 0.70294 0.79452 0.03766 0.0
O212 O 0.60841 0.80114 0.0902 0.0
O213 O 0.66165 0.88664 0.11902 0.0
O214 O 0.67537 0.89335 0.15908 0.0
O215 O 0.66823 0.83392 0.1441 0.0
O216 O 0.63035 0.86146 0.08832 0.0
O217 O 0.62791 0.78546 0.12242 0.0
O218 O 0.77903 0.96662 0.14178 0.0
O219 O 0.72233 0.88472 0.11772 0.0
O220 O 0.71047 0.88307 0.07732 0.0
O221 O 0.7177 0.94165 0.09364 0.0
O222 O 0.75383 0.9102 0.14851 0.0
O223 O 0.75383 0.99133 0.11759 0.0
C224 C 0.63697 0.88779 0.10444 0.0
C225 C 0.58286 0.73188 0.09746 0.0
C226 C 0.53695 0.65947 0.10088 0.0
C227 C 0.55083 0.69885 0.10935 0.0
C228 C 0.55551 0.65394 0.0806 0.0
C229 C 0.59941 0.72482 0.07678 0.0
C230 C 0.58621 0.68631 0.06862 0.0
C231 C 0.66595 0.85591 0.162 0.0
C232 C 0.59959 0.77353 0.10644 0.0
C233 C 0.71968 0.76992 0.03532 0.0
C234 C 0.72659 0.75333 0.05603 0.0
C235 C 0.7464 0.8832 0.13266 0.0
C236 C 0.80989 0.03648 0.14104 0.0
C237 C 0.8511 0.0605 0.13611 0.0
C238 C 0.87418 0.09735 0.14812 0.0
C239 C 0.85528 0.10887 0.16549 0.0
C240 C 0.79207 0.04937 0.15808 0.0
C241 C 0.8147 0.08519 0.1703 0.0
C242 C 0.7216 0.92158 0.07562 0.0
C243 C 0.7859 0.99753 0.12899 0.0
H244 H 0.53706 0.70368 0.12507 0.0
H245 H 0.54543 0.62436 0.07353 0.0
H246 H 0.6224 0.7491 0.06668 0.0
H247 H 0.59963 0.68156 0.05272 0.0
H248 H 0.8649 0.05079 0.12276 0.0
H249 H 0.87196 0.1363 0.17557 0.0
H250 H 0.76067 0.03167 0.16205 0.0
H251 H 0.80071 0.09468 0.18362 0.0
Tb252 Tb 0.84466 0.66185 0.60277 0.0
C253 C 0.73429 0.68413 0.67171 0.0
C254 C 0.66973 0.64539 0.65297 0.0
C255 C 0.67495 0.6523 0.69682 0.0
C256 C 0.7115 0.66874 0.65121 0.0
C257 C 0.71638 0.67697 0.69475 0.0
C258 C 0.65164 0.63645 0.67593 0.0
C259 C 0.78124 0.72159 0.71154 0.0
N260 N 0.77416 0.70752 0.66887 0.0
C261 C 0.79765 0.72737 0.68832 0.0
C262 C 0.74054 0.69568 0.71487 0.0
Tb263 Tb 0.79874 0.71344 0.63032 0.0
N264 N 0.73024 0.67845 0.62945 0.0
C265 C 0.7083 0.66823 0.60853 0.0
C266 C 0.64741 0.63273 0.6316 0.0
C267 C 0.66676 0.64477 0.60929 0.0
H268 H 0.8292 0.74716 0.68613 0.0
H269 H 0.64974 0.63583 0.59263 0.0
H270 H 0.61962 0.6182 0.67768 0.0
H271 H 0.80002 0.73726 0.72682 0.0
H272 H 0.72242 0.67682 0.59104 0.0
H273 H 0.98769 0.70444 0.64143 0.0
H274 H 0.61526 0.61461 0.63213 0.0
H275 H 0.81443 0.63833 0.54571 0.0
H276 H 0.91734 0.68521 0.64248 0.0
H277 H 0.8443 0.65105 0.50498 0.0
H278 H 0.66059 0.64606 0.71438 0.0
H279 H 1.0236 0.72032 0.60235 0.0
H280 H 1.02376 0.73155 0.55758 0.0
H281 H 0.72797 0.69116 0.73291 0.0
H282 H 0.98473 0.71941 0.52018 0.0
N283 N 0.9126 0.69086 0.60428 0.0
C284 C 0.93246 0.69306 0.62527 0.0
C285 C 0.99296 0.71359 0.60281 0.0
C286 C 0.97307 0.71248 0.58148 0.0
C287 C 0.97264 0.70407 0.62482 0.0
C288 C 0.9321 0.69967 0.58275 0.0
H289 H 0.9175 0.6888 0.50032 0.0
N290 N 0.8699 0.6722 0.56402 0.0
C291 C 0.86319 0.66283 0.52079 0.0
C292 C 0.91004 0.69128 0.56182 0.0
C293 C 0.84636 0.6558 0.54395 0.0
C294 C 0.90448 0.68435 0.51823 0.0
C295 C 0.92848 0.69753 0.53893 0.0
O296 O 0.82429 0.60354 0.58984 0.0
O297 O 0.79043 0.65693 0.61706 0.0
O298 O 0.79491 0.67041 0.65688 0.0
O299 O 0.84795 0.66312 0.64357 0.0
O300 O 0.78579 0.62547 0.58672 0.0
O301 O 0.85735 0.62297 0.62286 0.0
O302 O 0.82738 0.77448 0.63902 0.0
O303 O 0.85328 0.71748 0.61638 0.0
O304 O 0.84502 0.70539 0.57605 0.0
O305 O 0.79276 0.71253 0.5909 0.0
O306 O 0.85797 0.74881 0.64695 0.0
O307 O 0.77939 0.74971 0.61344 0.0
C308 C 0.76529 0.63221 0.60221 0.0
C309 C 0.86787 0.57843 0.59882 0.0
C310 C 0.89552 0.53388 0.60428 0.0
C311 C 0.86919 0.54735 0.61168 0.0
C312 C 0.9202 0.55193 0.58411 0.0
C313 C 0.89201 0.59444 0.57825 0.0
C314 C 0.91822 0.5817 0.57117 0.0
C315 C 0.82262 0.66087 0.66077 0.0
C316 C 0.84215 0.5948 0.60677 0.0
C317 C 0.96994 0.71408 0.53757 0.0
C318 C 0.99215 0.72099 0.55885 0.0
C319 C 0.8782 0.74131 0.63162 0.0
C320 C 0.7896 0.80648 0.63573 0.0
C321 C 0.80782 0.8476 0.63022 0.0
C322 C 0.79334 0.87125 0.64058 0.0
C323 C 0.76115 0.85314 0.65688 0.0
C324 C 0.75741 0.78944 0.65184 0.0
C325 C 0.74346 0.81272 0.66242 0.0
C326 C 0.81769 0.71642 0.57348 0.0
C327 C 0.80477 0.78171 0.62505 0.0
H328 H 0.85015 0.53396 0.62729 0.0
H329 H 0.94033 0.54208 0.57786 0.0
H330 H 0.89045 0.61663 0.5674 0.0
H331 H 0.9368 0.59469 0.55535 0.0
H332 H 0.83257 0.86086 0.61764 0.0
H333 H 0.74962 0.87038 0.66547 0.0
H334 H 0.74307 0.75814 0.65629 0.0
H335 H 0.7187 0.79933 0.67495 0.0
Tb336 Tb 0.19599 0.83136 0.106 0.0
C337 C 0.06662 0.71841 0.17769 0.0
C338 C 0.04229 0.65292 0.16071 0.0
C339 C 0.0409 0.66086 0.20433 0.0
C340 C 0.05966 0.69444 0.15784 0.0
C341 C 0.05655 0.70194 0.20116 0.0
C342 C 0.03381 0.63636 0.18411 0.0
C343 C 0.07497 0.76727 0.21617 0.0
N344 N 0.08192 0.75791 0.17379 0.0
C345 C 0.08502 0.78227 0.1926 0.0
C346 C 0.06142 0.72708 0.22058 0.0
Tb347 Tb 0.09884 0.78006 0.13459 0.0
N348 N 0.068 0.71169 0.13561 0.0
C349 C 0.05681 0.68832 0.1153 0.0
C350 C 0.03291 0.62925 0.13999 0.0
C351 C 0.03975 0.64701 0.11717 0.0
H352 H 0.0956 0.81344 0.18971 0.0
H353 H 0.03203 0.62892 0.10098 0.0
H354 H 1.02086 0.60458 0.18671 0.0
H355 H 0.07746 0.78674 0.23088 0.0
H356 H 0.06203 0.70116 0.09745 0.0
H357 H 0.28006 0.97866 0.14413 0.0
H358 H 1.01948 0.59724 0.14139 0.0
H359 H 0.19054 0.80163 0.04895 0.0
H360 H 0.24045 0.90576 0.14526 0.0
H361 H 0.20342 0.83136 0.00807 0.0
H362 H 0.03331 0.64764 0.22224 0.0
H363 H 0.2932 1.01423 0.10504 0.0
H364 H 0.28208 1.0115 0.06005 0.0
H365 H 0.05379 0.71561 0.23889 0.0
H366 H 0.25965 0.97116 0.02285 0.0
N367 N 0.22893 0.89953 0.10723 0.0
C368 C 0.24496 0.92066 0.12807 0.0
C369 C 0.27438 0.98222 0.10552 0.0
C370 C 0.25839 0.96061 0.08422 0.0
C371 C 0.26754 0.96218 0.12755 0.0
C372 C 0.23616 0.91876 0.08566 0.0
H373 H 0.2307 0.90382 1.00324 0.0
N374 N 0.20798 0.85633 0.06718 0.0
C375 C 0.20934 0.84997 0.02388 0.0
C376 C 0.2245 0.89626 0.06484 0.0
C377 C 0.20219 0.83325 0.0471 0.0
C378 C 0.22452 0.89083 0.02123 0.0
C379 C 0.23342 0.91471 0.04187 0.0
O380 O 0.23731 0.81542 0.09276 0.0
O381 O 0.14924 0.7759 0.12074 0.0
O382 O 0.13995 0.7793 0.16082 0.0
O383 O 0.19862 0.83435 0.14694 0.0
O384 O 0.17798 0.7729 0.09065 0.0
O385 O 0.24956 0.84932 0.12529 0.0
O386 O 0.06478 0.8077 0.14111 0.0
O387 O 0.14657 0.83553 0.11978 0.0
O388 O 0.1496 0.82722 0.07981 0.0
O389 O 0.09467 0.77128 0.09545 0.0
O390 O 0.11999 0.83925 0.15056 0.0
O391 O 0.04202 0.75629 0.11839 0.0
C392 C 0.15109 0.7516 0.10621 0.0
C393 C 0.30561 0.86176 0.10132 0.0
C394 C 0.37816 0.88705 0.10348 0.0
C395 C 0.33858 0.85976 0.11115 0.0
C396 C 0.38372 0.91562 0.08585 0.0
C397 C 0.31288 0.8904 0.08352 0.0
C398 C 0.35145 0.91711 0.07597 0.0
C399 C 0.17672 0.80845 0.16435 0.0
C400 C 0.26376 0.83476 0.10953 0.0
C401 C 0.25282 0.95639 0.04032 0.0
C402 C 0.26561 0.97935 0.06149 0.0
C403 C 0.14664 0.86008 0.13477 0.0
C404 C 0.99515 0.76787 0.13941 0.0
C405 C 0.97199 0.78568 0.13355 0.0
C406 C 0.93446 0.77227 0.14458 0.0
C407 C 0.92129 0.7415 0.1619 0.0
C408 C 0.9809 0.73712 0.15655 0.0
C409 C 0.94426 0.72418 0.16776 0.0
C410 C 0.11222 0.79706 0.07772 0.0
C411 C 0.0347 0.78246 0.12826 0.0
H412 H 0.33355 0.83757 0.12476 0.0
H413 H 0.41326 0.93651 0.07925 0.0
H414 H 0.28868 0.89207 0.07526 0.0
H415 H 0.35635 0.93903 0.06221 0.0
H416 H 0.98288 0.80939 0.12023 0.0
H417 H 0.89309 0.73086 0.17109 0.0
H418 H 0.99818 0.72324 0.16137 0.0
H419 H 0.93358 0.70056 0.1811 0.0
Tb420 Tb 0.38124 0.19114 0.60296 0.0
C421 C 0.36291 0.06485 0.67769 0.0
C422 C 0.4044 0.0403 0.66153 0.0
C423 C 0.39482 0.04014 0.70506 0.0
C424 C 0.38002 0.05732 0.65815 0.0
C425 C 0.36913 0.05538 0.70138 0.0
C426 C 0.41255 0.03271 0.68515 0.0
C427 C 0.32142 0.07334 0.71554 0.0
N428 N 0.33852 0.07976 0.67328 0.0
C429 C 0.31685 0.08303 0.69179 0.0
C430 C 0.3483 0.06025 0.72047 0.0
Tb431 Tb 0.33353 0.09568 0.63379 0.0
N432 N 0.37085 0.06461 0.63571 0.0
C433 C 0.38281 0.05247 0.61572 0.0
C434 C 0.41877 0.03028 0.6411 0.0
C435 C 0.40738 0.03582 0.61809 0.0
H436 H 0.29605 0.09323 0.68851 0.0
H437 H 0.41767 0.02746 0.60213 0.0
H438 H 0.43155 0.02004 0.68814 0.0
H439 H 0.30397 0.07575 0.73 0.0
H440 H 0.37483 0.05668 0.59772 0.0
H441 H 0.33187 0.29123 0.63197 0.0
H442 H 0.43768 0.01726 0.64289 0.0
H443 H 0.40405 0.17507 0.5473 0.0
H444 H 0.35563 0.24389 0.63764 0.0
H445 H 0.38997 0.18487 0.50516 0.0
H446 H 0.40035 0.03306 0.72315 0.0
H447 H 0.31084 0.30088 0.59125 0.0
H448 H 0.3016 0.28373 0.54712 0.0
H449 H 0.35186 0.05291 0.73892 0.0
H450 H 0.31647 0.25351 0.51243 0.0
N451 N 0.34962 0.22737 0.60039 0.0
C452 C 0.34656 0.24758 0.61977 0.0
C453 C 0.32083 0.2796 0.59375 0.0
C454 C 0.32396 0.25893 0.57399 0.0
C455 C 0.33265 0.27425 0.61669 0.0
C456 C 0.33971 0.23359 0.57785 0.0
H457 H 0.35003 0.21704 0.49657 0.0
N458 N 0.37024 0.19914 0.56285 0.0
C459 C 0.37831 0.19428 0.51996 0.0
C460 C 0.34952 0.21807 0.55837 0.0
C461 C 0.38634 0.18891 0.54396 0.0
C462 C 0.35554 0.2122 0.51518 0.0
C463 C 0.34188 0.22546 0.53448 0.0
O464 O 0.43922 0.2304 0.58982 0.0
O465 O 0.38862 0.14457 0.61934 0.0
O466 O 0.37525 0.13798 0.65956 0.0
O467 O 0.38054 0.19654 0.64373 0.0
O468 O 0.42091 0.17097 0.58913 0.0
O469 O 0.41771 0.2454 0.62136 0.0
O470 O 0.27156 0.06251 0.63984 0.0
O471 O 0.32729 0.1443 0.61861 0.0
O472 O 0.33619 0.14384 0.57835 0.0
O473 O 0.33825 0.09019 0.59486 0.0
O474 O 0.29597 0.11767 0.64924 0.0
O475 O 0.30025 0.03837 0.61839 0.0
C476 C 0.41481 0.145 0.60544 0.0
C477 C 0.46266 0.2995 0.59646 0.0
C478 C 0.50943 0.37212 0.59835 0.0
C479 C 0.49605 0.33292 0.60722 0.0
C480 C 0.48904 0.37689 0.57871 0.0
C481 C 0.44412 0.30592 0.57654 0.0
C482 C 0.45695 0.34415 0.56789 0.0
C483 C 0.38411 0.17538 0.66185 0.0
C484 C 0.44667 0.25802 0.60578 0.0
C485 C 0.32286 0.24772 0.53063 0.0
C486 C 0.31435 0.26486 0.55037 0.0
C487 C 0.30272 0.14478 0.63356 0.0
C488 C 0.2414 0.99278 0.63955 0.0
C489 C 0.20058 0.96926 0.63341 0.0
C490 C 0.17633 0.93215 0.64489 0.0
C491 C 0.19355 0.91974 0.66291 0.0
C492 C 0.25754 0.9793 0.65743 0.0
C493 C 0.23367 0.9431 0.66908 0.0
C494 C 0.32865 0.10632 0.57699 0.0
C495 C 0.26668 0.03176 0.62777 0.0
H496 H 0.51118 0.32854 0.62241 0.0
H497 H 0.4986 0.40615 0.57125 0.0
H498 H 0.41981 0.2813 0.56741 0.0
H499 H 0.44206 0.34842 0.55254 0.0
H500 H 0.188 0.97949 0.61951 0.0
H501 H 0.17583 0.89184 0.6724 0.0
H502 H 0.28859 0.99683 0.66244 0.0
H503 H 0.24635 0.93302 0.68296 0.0
Tb504 Tb 0.66816 0.83428 0.40017 0.0
C505 C 0.68305 0.71712 0.33283 0.0
C506 C 0.64467 0.65386 0.35309 0.0
C507 C 0.64884 0.65644 0.30909 0.0
C508 C 0.66862 0.69564 0.35387 0.0
C509 C 0.6742 0.69786 0.31017 0.0
C510 C 0.63402 0.63446 0.33055 0.0
C511 C 0.71879 0.76137 0.29178 0.0
N512 N 0.70729 0.757 0.33474 0.0
C513 C 0.72636 0.77913 0.31466 0.0
C514 C 0.69202 0.72068 0.28943 0.0
Tb515 Tb 0.71597 0.78394 0.3728 0.0
N516 N 0.67994 0.71561 0.37518 0.0
C517 C 0.67084 0.69491 0.39655 0.0
C518 C 0.63315 0.63284 0.37496 0.0
C519 C 0.64685 0.65342 0.39677 0.0
H520 H 0.7468 0.81067 0.31608 0.0
H521 H 0.6388 0.6374 0.4138 0.0
H522 H 0.61527 0.60242 0.32955 0.0
H523 H 0.73377 0.77909 0.276 0.0
H524 H 0.68075 0.71004 0.41368 0.0
H525 H 0.7125 0.97645 0.35956 0.0
H526 H 0.61467 0.60072 0.37518 0.0
H527 H 0.64784 0.80691 0.45799 0.0
H528 H 0.69057 0.90545 0.35951 0.0
H529 H 0.66381 0.8387 0.49815 0.0
H530 H 0.64131 0.64106 0.29185 0.0
H531 H 0.73257 1.01437 0.39796 0.0
H532 H 0.74577 1.01596 0.44253 0.0
H533 H 0.68616 0.70704 0.27166 0.0
H534 H 0.73449 0.97834 0.48047 0.0
N535 N 0.69847 0.90221 0.39759 0.0
C536 C 0.70005 0.92137 0.37641 0.0
C537 C 0.72444 0.98334 0.3979 0.0
C538 C 0.7236 0.96401 0.41943 0.0
C539 C 0.71266 0.96193 0.37629 0.0
C540 C 0.70922 0.92271 0.41876 0.0
H541 H 0.70337 0.912 0.50145 0.0
N542 N 0.68132 0.86131 0.43851 0.0
C543 C 0.67485 0.85677 0.48196 0.0
C544 C 0.70149 0.90153 0.44001 0.0
C545 C 0.66592 0.83885 0.4591 0.0
C546 C 0.69738 0.89811 0.48375 0.0
C547 C 0.70976 0.9211 0.46261 0.0
O548 O 0.61043 0.81488 0.41388 0.0
O549 O 0.66121 0.77864 0.38696 0.0
O550 O 0.67248 0.78076 0.34669 0.0
O551 O 0.66796 0.83574 0.35935 0.0
O552 O 0.63154 0.7768 0.4177 0.0
O553 O 0.62903 0.84738 0.38065 0.0
O554 O 0.77659 0.81083 0.36329 0.0
O555 O 0.72193 0.83977 0.38545 0.0
O556 O 0.71312 0.83541 0.42598 0.0
O557 O 0.71665 0.78047 0.41237 0.0
O558 O 0.75241 0.84182 0.35492 0.0
O559 O 0.75192 0.76437 0.3899 0.0
C560 C 0.63712 0.75499 0.40262 0.0
C561 C 0.58526 0.85843 0.40523 0.0
C562 C 0.53858 0.88397 0.4016 0.0
C563 C 0.55197 0.8577 0.39388 0.0
C564 C 0.55888 0.9105 0.42066 0.0
C565 C 0.6037 0.88463 0.42464 0.0
C566 C 0.59093 0.91062 0.4321 0.0
C567 C 0.66435 0.80944 0.34245 0.0
C568 C 0.60127 0.83251 0.39704 0.0
C569 C 0.72763 0.96271 0.46331 0.0
C570 C 0.73405 0.98411 0.44173 0.0
C571 C 0.74585 0.86335 0.36972 0.0
C572 C 0.80746 0.77218 0.36722 0.0
C573 C 0.84848 0.78947 0.3727 0.0
C574 C 0.87151 0.77436 0.36221 0.0
C575 C 0.85274 0.74237 0.34582 0.0
C576 C 0.78972 0.74007 0.35112 0.0
C577 C 0.81232 0.72541 0.34043 0.0
C578 C 0.72277 0.80717 0.4291 0.0
C579 C 0.78371 0.78862 0.37769 0.0
H580 H 0.53684 0.83717 0.37914 0.0
H581 H 0.5492 0.93058 0.42723 0.0
H582 H 0.62782 0.88482 0.43431 0.0
H583 H 0.60573 0.93073 0.44706 0.0
H584 H 0.86219 0.81414 0.38529 0.0
H585 H 0.86944 0.73046 0.33696 0.0
H586 H 0.75845 0.72647 0.34669 0.0
H587 H 0.79844 0.7008 0.32785 0.0
Tb588 Tb 0.85279 0.66307 0.89976 0.0
C589 C 0.97929 0.68596 0.82429 0.0
C590 C 1.00514 0.64488 0.83937 0.0
C591 C 1.00483 0.65614 0.79604 0.0
C592 C 0.9874 0.66843 0.84341 0.0
C593 C 0.98881 0.68098 0.80039 0.0
C594 C 1.01288 0.63799 0.81553 0.0
C595 C 0.96915 0.72802 0.78733 0.0
N596 N 0.96365 0.70952 0.82934 0.0
C597 C 0.9595 0.73141 0.81127 0.0
C598 C 0.98315 0.70211 0.78176 0.0
Tb599 Tb 0.94815 0.71287 0.86915 0.0
N600 N 0.98001 0.67644 0.86609 0.0
C601 C 0.99273 0.66417 0.88569 0.0
C602 C 1.01571 0.63007 0.85941 0.0
C603 C 1.01004 0.6403 0.88269 0.0
H604 H 0.94857 0.75146 0.81506 0.0
H605 H 1.0188 0.62967 0.89836 0.0
H606 H 0.02613 0.61966 0.81202 0.0
H607 H 0.966 0.74562 0.77322 0.0
H608 H 0.98833 0.67123 0.90384 0.0
H609 H 0.74885 0.70571 0.86765 0.0
H610 H 0.02924 0.61171 0.85713 0.0
H611 H 0.86851 0.6423 0.956 0.0
H612 H 0.8 0.68688 0.86336 0.0
H613 H 0.85634 0.65584 0.99775 0.0
H614 H 1.01198 0.65157 0.77778 0.0
H615 H 0.73335 0.72192 0.90808 0.0
H616 H 0.74953 0.7335 0.95238 0.0
H617 H 0.9905 0.69949 0.76316 0.0
H618 H 0.78099 0.72212 0.98791 0.0
N619 N 0.8144 0.69255 0.90103 0.0
C620 C 0.79457 0.69475 0.8811 0.0
C621 C 0.7571 0.71516 0.90617 0.0
C622 C 0.77828 0.71424 0.92639 0.0
C623 C 0.76541 0.70556 0.88341 0.0
C624 C 0.80617 0.70143 0.9233 0.0
H625 H 0.8206 0.69267 0.00506 0.0
N626 N 0.84301 0.67419 0.93949 0.0
C627 C 0.84667 0.66665 0.98259 0.0
C628 C 0.8222 0.6932 0.94324 0.0
C629 C 0.85343 0.65898 0.95884 0.0
C630 C 0.82676 0.68769 0.98664 0.0
C631 C 0.81299 0.7 0.96686 0.0
O632 O 0.81488 0.60509 0.91332 0.0
O633 O 0.89996 0.65682 0.88328 0.0
O634 O 0.9063 0.67129 0.8431 0.0
O635 O 0.84749 0.66479 0.85905 0.0
O636 O 0.87471 0.62518 0.91403 0.0
O637 O 0.79952 0.62467 0.88096 0.0
O638 O 0.98136 0.7747 0.86274 0.0
O639 O 0.89939 0.71775 0.88509 0.0
O640 O 0.89963 0.70748 0.92473 0.0
O641 O 0.95484 0.70827 0.9081 0.0
O642 O 0.92506 0.7505 0.85484 0.0
O643 O 1.00517 0.74627 0.88495 0.0
C644 C 0.9005 0.63148 0.89758 0.0
C645 C 0.74564 0.57994 0.90595 0.0
C646 C 0.67316 0.53372 0.90275 0.0
C647 C 0.7126 0.54748 0.89433 0.0
C648 C 0.66765 0.55285 0.92274 0.0
C649 C 0.73858 0.5971 0.9263 0.0
C650 C 0.70004 0.584 0.93444 0.0
C651 C 0.86883 0.66218 0.84079 0.0
C652 C 0.78734 0.59642 0.89703 0.0
C653 C 0.78825 0.71645 0.96994 0.0
C654 C 0.77038 0.72297 0.94972 0.0
C655 C 0.89813 0.74263 0.87081 0.0
C656 C 0.05116 0.80455 0.8635 0.0
C657 C 0.07484 0.84541 0.86939 0.0
C658 C 0.11224 0.86921 0.85814 0.0
C659 C 0.12478 0.85151 0.84058 0.0
C660 C 0.06478 0.78792 0.8461 0.0
C661 C 0.10127 0.81135 0.83466 0.0
C662 C 0.93712 0.71497 0.92639 0.0
C663 C 1.01198 0.77967 0.87513 0.0
H664 H 0.71747 0.5333 0.87885 0.0
H665 H 0.63809 0.54291 0.92981 0.0
H666 H 0.76291 0.6205 0.93617 0.0
H667 H 0.69526 0.59786 0.9501 0.0
H668 H 0.06452 0.85835 0.88293 0.0
H669 H 0.15291 0.86889 0.83127 0.0
H670 H 0.04719 0.75683 0.84131 0.0
H671 H 0.11146 0.79828 0.82114 0.0
Tb672 Tb 0.20349 0.83864 0.40362 0.0
C673 C 0.30893 0.96423 0.32754 0.0
C674 C 0.37568 0.98995 0.34289 0.0
C675 C 0.36464 0.98958 0.2995 0.0
C676 C 0.33432 0.97228 0.34677 0.0
C677 C 0.32374 0.97372 0.30369 0.0
C678 C 0.3906 0.99759 0.3191 0.0
C679 C 0.25729 0.95453 0.29036 0.0
N680 N 0.2697 0.94881 0.33245 0.0
C681 C 0.24392 0.94478 0.31425 0.0
C682 C 0.29722 0.96829 0.28494 0.0
Tb683 Tb 0.25029 0.93362 0.3722 0.0
N684 N 0.31863 0.965 0.36938 0.0
C685 C 0.34341 0.97767 0.38907 0.0
C686 C 0.40082 1.0006 0.36304 0.0
C687 C 0.38463 0.99495 0.38624 0.0
H688 H 0.2129 0.93396 0.31791 0.0
H689 H 0.40384 1.00373 0.40198 0.0
H690 H 0.42222 1.01077 0.31573 0.0
H691 H 0.23677 0.95167 0.27618 0.0
H692 H 0.33176 0.97332 0.40717 0.0
H693 H 0.05538 0.73475 0.37419 0.0
H694 H 0.43276 1.01421 0.36087 0.0
H695 H 0.24204 0.85695 0.45941 0.0
H696 H 0.12556 0.78499 0.36857 0.0
H697 H 0.21779 0.84731 0.50146 0.0
H698 H 0.37659 0.9967 0.28128 0.0
H699 H 0.02478 0.72278 0.41497 0.0
H700 H 0.03139 0.74113 0.45889 0.0
H701 H 0.30744 0.97568 0.26638 0.0
H702 H 0.07572 0.77367 0.49364 0.0
N703 N 0.13564 0.80134 0.40589 0.0
C704 C 0.11275 0.78072 0.38644 0.0
C705 C 0.05547 0.74579 0.41244 0.0
C706 C 0.07857 0.76763 0.43217 0.0
C707 C 0.07267 0.75227 0.38949 0.0
C708 C 0.11936 0.7946 0.42838 0.0
H709 H 0.14549 0.81306 0.50973 0.0
N710 N 0.18413 0.83144 0.44362 0.0
C711 C 0.1968 0.83715 0.48658 0.0
C712 C 0.14441 0.81134 0.44792 0.0
C713 C 0.2104 0.84248 0.46265 0.0
C714 C 0.15599 0.81806 0.49117 0.0
C715 C 0.12921 0.80365 0.47176 0.0
O716 O 0.22389 0.80114 0.41744 0.0
O717 O 0.25697 0.88499 0.38666 0.0
O718 O 0.24932 0.89098 0.34659 0.0
O719 O 0.19656 0.83253 0.36285 0.0
O720 O 0.26361 0.85985 0.41735 0.0
O721 O 0.18579 0.78339 0.38646 0.0
O722 O 0.22321 0.96804 0.36487 0.0
O723 O 0.19611 0.88511 0.38789 0.0
O724 O 0.20581 0.88629 0.42777 0.0
O725 O 0.26138 0.94024 0.41116 0.0
O726 O 0.18983 0.91167 0.3578 0.0
O727 O 0.27347 0.98995 0.38871 0.0
C728 C 0.28299 0.88526 0.40067 0.0
C729 C 0.17821 0.73152 0.41305 0.0
C730 C 0.15096 0.65863 0.41277 0.0
C731 C 0.17582 0.69695 0.40243 0.0
C732 C 0.12894 0.65579 0.43364 0.0
C733 C 0.15658 0.72706 0.43431 0.0
C734 C 0.13195 0.68965 0.44433 0.0
C735 C 0.22066 0.85358 0.34448 0.0
C736 C 0.20299 0.77219 0.40238 0.0
C737 C 0.08804 0.77977 0.47548 0.0
C738 C 0.0628 0.76128 0.45571 0.0
C739 C 0.17028 0.88452 0.37358 0.0
C740 C 0.26408 0.03771 0.36717 0.0
C741 C 0.24719 0.06162 0.37298 0.0
C742 C 0.26285 0.10012 0.36294 0.0
C743 C 0.29499 0.11378 0.34668 0.0
C744 C 0.29602 0.05216 0.35087 0.0
C745 C 0.31123 0.08992 0.34065 0.0
C746 C 0.23623 0.92356 0.42926 0.0
C747 C 0.24814 0.9978 0.37809 0.0
H748 H 0.19285 0.69978 0.38626 0.0
H749 H 0.10999 0.6272 0.44213 0.0
H750 H 0.15899 0.75259 0.44347 0.0
H751 H 0.11535 0.68693 0.46068 0.0
H752 H 0.2226 0.05067 0.38566 0.0
H753 H 0.30752 0.14303 0.33854 0.0
H754 H 0.30928 0.03433 0.34611 0.0
H755 H 0.3359 0.10085 0.32808 0.0
Tb756 Tb 0.38237 0.20068 0.90023 0.0
C757 C 0.36192 0.30799 0.82663 0.0
C758 C 0.40187 0.37372 0.84356 0.0
C759 C 0.39341 0.36543 0.7999 0.0
C760 C 0.37818 0.33216 0.84647 0.0
C761 C 0.3683 0.3243 0.80311 0.0
C762 C 0.4103 0.39013 0.82012 0.0
C763 C 0.32165 0.25874 0.78822 0.0
N764 N 0.33809 0.26845 0.83057 0.0
C765 C 0.31697 0.24386 0.81181 0.0
C766 C 0.34813 0.29896 0.78373 0.0
Tb767 Tb 0.33277 0.24659 0.86982 0.0
N768 N 0.36872 0.31505 0.86873 0.0
C769 C 0.37952 0.33854 0.88898 0.0
C770 C 0.41524 0.39756 0.86428 0.0
C771 C 0.40343 0.37991 0.88708 0.0
H772 H 0.29655 0.21267 0.81482 0.0
H773 H 0.41284 0.39813 0.90324 0.0
H774 H 0.4288 0.42194 0.81748 0.0
H775 H 0.30455 0.23917 0.77356 0.0
H776 H 0.37102 0.32578 0.90683 0.0
H777 H 0.33831 0.0545 0.86705 0.0
H778 H 0.43362 0.42959 0.86286 0.0
H779 H 0.40384 0.23594 0.95659 0.0
H780 H 0.35854 0.12499 0.86331 0.0
H781 H 0.39125 0.20935 0.99817 0.0
H782 H 0.39908 0.37854 0.78195 0.0
H783 H 0.32074 0.02164 0.90723 0.0
H784 H 0.30976 0.02561 0.95162 0.0
H785 H 0.3518 0.31033 0.76539 0.0
H786 H 0.32238 0.06789 0.98749 0.0
N787 N 0.3525 0.1328 0.90102 0.0
C788 C 0.35021 0.11115 0.88093 0.0
C789 C 0.32822 0.05239 0.90554 0.0
C790 C 0.32971 0.07426 0.92596 0.0
C791 C 0.33852 0.07092 0.88292 0.0
C792 C 0.34326 0.11518 0.92317 0.0
H793 H 0.35351 0.13667 0.00508 0.0
N794 N 0.37111 0.17896 0.9398 0.0
C795 C 0.37982 0.18921 0.98291 0.0
C796 C 0.35179 0.13905 0.94329 0.0
C797 C 0.38693 0.20416 0.95924 0.0
C798 C 0.35826 0.1482 0.98674 0.0
C799 C 0.34511 0.12253 0.96681 0.0
O800 O 0.44049 0.22134 0.91376 0.0
O801 O 0.3886 0.25442 0.8842 0.0
O802 O 0.3754 0.24811 0.84402 0.0
O803 O 0.38247 0.19575 0.85941 0.0
O804 O 0.41972 0.26027 0.91501 0.0
O805 O 0.42061 0.18493 0.88208 0.0
O806 O 0.27097 0.21709 0.86286 0.0
O807 O 0.3277 0.1923 0.88502 0.0
O808 O 0.33698 0.20115 0.92526 0.0
O809 O 0.33607 0.25558 0.90889 0.0
O810 O 0.29689 0.18685 0.85403 0.0
O811 O 0.29816 0.2691 0.88509 0.0
C812 C 0.41365 0.28012 0.89866 0.0
C813 C 0.46551 0.17691 0.90769 0.0
C814 C 0.51179 0.15063 0.90565 0.0
C815 C 0.49793 0.1758 0.89642 0.0
C816 C 0.4928 0.12701 0.92608 0.0
C817 C 0.44853 0.15375 0.9285 0.0
C818 C 0.4617 0.12878 0.93742 0.0
C819 C 0.38521 0.22033 0.84144 0.0
C820 C 0.449 0.2017 0.898 0.0
C821 C 0.32803 0.08121 0.96961 0.0
C822 C 0.32083 0.05714 0.94919 0.0
C823 C 0.30397 0.16698 0.86991 0.0
C824 C 0.23978 0.25581 0.86349 0.0
C825 C 0.19922 0.23908 0.87005 0.0
C826 C 0.175 0.25222 0.85882 0.0
C827 C 0.19195 0.28151 0.8406 0.0
C828 C 0.25569 0.28515 0.84545 0.0
C829 C 0.23183 0.29772 0.83402 0.0
C830 C 0.32763 0.22988 0.92667 0.0
C831 C 0.26512 0.24213 0.8752 0.0
H832 H 0.51202 0.19407 0.88061 0.0
H833 H 0.50283 0.10781 0.93376 0.0
H834 H 0.42525 0.15518 0.93814 0.0
H835 H 0.44797 0.11097 0.95343 0.0
H836 H 0.18685 0.21657 0.88411 0.0
H837 H 0.17421 0.29188 0.8313 0.0
H838 H 0.28657 0.29835 0.84018 0.0
H839 H 0.24433 0.32027 0.82002 0.0
Tb840 Tb 0.20177 0.38027 0.39672 0.0
C841 C 0.07262 0.35693 0.3461 0.0
C842 C 0.04144 0.38179 0.37348 0.0
C843 C 0.0468 0.39851 0.33073 0.0
C844 C 0.06105 0.35998 0.36919 0.0
C845 C 0.06401 0.37473 0.3264 0.0
C846 C 0.03556 0.40208 0.35427 0.0
C847 C 0.0833 0.33867 0.29944 0.0
N848 N 0.08901 0.33358 0.3427 0.0
C849 C 0.09066 0.32136 0.31956 0.0
C850 C 0.07108 0.36648 0.30288 0.0
Tb851 Tb 0.10495 0.31079 0.37759 0.0
N852 N 0.06792 0.34053 0.38734 0.0
C853 C 0.0509 0.33749 0.40956 0.0
C854 C 0.02776 0.38201 0.39686 0.0
C855 C 0.03167 0.35893 0.41484 0.0
H856 H 0.09822 0.29849 0.3163 0.0
H857 H 1.01934 0.35711 0.4327 0.0
H858 H 1.02128 0.41959 0.35731 0.0
H859 H 0.08651 0.33006 0.28131 0.0
H860 H 0.0507 0.31774 0.42328 0.0
H861 H 0.30278 0.35981 0.33838 0.0
H862 H 1.01278 0.39854 0.40095 0.0
H863 H 0.19399 0.37229 0.45879 0.0
H864 H 0.25613 0.38154 0.34822 0.0
H865 H 0.20862 0.33885 0.49067 0.0
H866 H 0.04072 0.41304 0.31589 0.0
H867 H 0.32409 0.32893 0.36957 0.0
H868 H 0.32212 0.30893 0.41267 0.0
H869 H 0.06495 0.37957 0.28727 0.0
H870 H 0.29265 0.29827 0.45313 0.0
N871 N 0.24364 0.35733 0.38435 0.0
C872 C 0.26136 0.36501 0.36191 0.0
C873 C 0.30147 0.33654 0.37389 0.0
C874 C 0.28525 0.33059 0.3971 0.0
C875 C 0.28942 0.3538 0.35623 0.0
C876 C 0.25602 0.3413 0.40189 0.0
H877 H 0.24897 0.3075 0.48206 0.0
N878 N 0.21589 0.35159 0.42961 0.0
C879 C 0.217 0.33712 0.47219 0.0
C880 C 0.24085 0.33728 0.42503 0.0
C881 C 0.20695 0.3546 0.4534 0.0
C882 C 0.23995 0.31973 0.4673 0.0
C883 C 0.25376 0.32135 0.44377 0.0
O884 O 0.23223 0.42657 0.42226 0.0
O885 O 0.14214 0.37214 0.39121 0.0
O886 O 0.14662 0.32303 0.3475 0.0
O887 O 0.2007 0.38462 0.35677 0.0
O888 O 0.19035 0.42143 0.37671 0.0
O889 O 0.25618 0.43064 0.38688 0.0
O890 O 0.07754 0.25888 0.35611 0.0
O891 O 0.16529 0.32072 0.38293 0.0
O892 O 0.15652 0.3674 0.42635 0.0
O893 O 0.10353 0.30528 0.41654 0.0
O894 O 0.11938 0.27018 0.39698 0.0
O895 O 0.04788 0.26447 0.38729 0.0
C896 C 0.15252 0.40447 0.3796 0.0
C897 C 0.30351 0.45984 0.41816 0.0
C898 C 0.37656 0.50262 0.41583 0.0
C899 C 0.33789 0.4919 0.4074 0.0
C900 C 0.38006 0.48097 0.43521 0.0
C901 C 0.30847 0.43959 0.43776 0.0
C902 C 0.34637 0.44995 0.44608 0.0
C903 C 0.17773 0.35719 0.34088 0.0
C904 C 0.263 0.44659 0.40821 0.0
C905 C 0.28202 0.30989 0.43889 0.0
C906 C 0.2985 0.31555 0.41579 0.0
C907 C 0.15729 0.289 0.39403 0.0
C908 C 1.00691 0.22009 0.35681 0.0
C909 C 0.98115 0.17933 0.36184 0.0
C910 C 0.94355 0.1582 0.3505 0.0
C911 C 0.93284 0.17847 0.33358 0.0
C912 C 0.99496 0.23963 0.34035 0.0
C913 C 0.95829 0.21877 0.32864 0.0
C914 C 0.12431 0.33288 0.43258 0.0
C915 C 0.04558 0.24176 0.36938 0.0
H916 H 0.33458 0.50796 0.39232 0.0
H917 H 0.40905 0.48862 0.44237 0.0
H918 H 0.28315 0.41564 0.44674 0.0
H919 H 0.34964 0.43389 0.46114 0.0
H920 H 0.99 0.16444 0.375 0.0
H921 H 0.90461 0.16315 0.32412 0.0
H922 H 1.01376 0.27096 0.33662 0.0
H923 H 0.94941 0.23397 0.31578 0.0
Tb924 Tb 0.84527 0.19413 0.90399 0.0
C925 C 0.73431 0.06327 0.83413 0.0
C926 C 0.66967 0.03748 0.85271 0.0
C927 C 0.67519 0.03678 0.80884 0.0
C928 C 0.7114 0.05559 0.85459 0.0
C929 C 0.71656 0.05315 0.81101 0.0
C930 C 0.65176 0.02902 0.82968 0.0
C931 C 0.7814 0.07304 0.79436 0.0
N932 N 0.77411 0.0793 0.83709 0.0
C933 C 0.79765 0.08305 0.81766 0.0
C934 C 0.7408 0.05876 0.79092 0.0
Tb935 Tb 0.79847 0.09689 0.87578 0.0
N936 N 0.72997 0.06398 0.87641 0.0
C937 C 0.70786 0.05193 0.89724 0.0
C938 C 0.64719 0.02744 0.87401 0.0
C939 C 0.66635 0.03412 0.89636 0.0
H940 H 0.82913 0.09444 0.81992 0.0
H941 H 0.6492 0.02576 0.91296 0.0
H942 H 0.61977 1.01553 0.82784 0.0
H943 H 0.80022 0.07621 0.7791 0.0
H944 H 0.72183 0.05699 0.91477 0.0
H945 H 0.98974 0.29426 0.86722 0.0
H946 H 0.61506 1.01358 0.87338 0.0
H947 H 0.81352 0.18595 0.96085 0.0
H948 H 0.91906 0.24418 0.86527 0.0
H949 H 0.84232 0.20145 1.00189 0.0
H950 H 0.66096 0.02916 0.79121 0.0
H951 H 0.02486 0.31184 0.90666 0.0
H952 H 1.02347 0.29926 0.95131 0.0
H953 H 0.72835 0.05117 0.77283 0.0
H954 H 0.98321 0.27188 0.98822 0.0
N955 N 0.91327 0.23231 0.90329 0.0
C956 C 0.9338 0.25054 0.88261 0.0
C957 C 0.99401 0.28851 0.90577 0.0
C958 C 0.97331 0.26932 0.9268 0.0
C959 C 0.97418 0.27904 0.88357 0.0
C960 C 0.9322 0.24193 0.92503 0.0
H961 H 0.91536 0.23576 0.00732 0.0
N962 N 0.8694 0.20766 0.94304 0.0
C963 C 0.8616 0.20889 0.98626 0.0
C964 C 0.90949 0.228 0.94569 0.0
C965 C 0.84539 0.20009 0.96292 0.0
C966 C 0.90281 0.22801 0.98925 0.0
C967 C 0.92735 0.23914 0.9688 0.0
O968 O 0.82529 0.23242 0.91689 0.0
O969 O 0.79109 0.14535 0.88936 0.0
O970 O 0.79564 0.13705 0.84951 0.0
O971 O 0.8492 0.19679 0.8632 0.0
O972 O 0.78615 0.1722 0.91957 0.0
O973 O 0.85891 0.24617 0.88413 0.0
O974 O 0.82639 0.06394 0.86681 0.0
O975 O 0.85321 0.14688 0.88996 0.0
O976 O 0.84479 0.15008 0.93038 0.0
O977 O 0.79213 0.09125 0.91519 0.0
O978 O 0.85768 0.12004 0.85938 0.0
O979 O 0.77845 0.04102 0.89243 0.0
C980 C 0.76582 0.14509 0.90396 0.0
C981 C 0.86906 0.30117 0.90817 0.0
C982 C 0.8954 0.37339 0.90354 0.0
C983 C 0.86926 0.3336 0.89597 0.0
C984 C 0.92089 0.3799 0.92329 0.0
C985 C 0.89416 0.30923 0.92824 0.0
C986 C 0.92005 0.34813 0.93556 0.0
C987 C 0.82378 0.17424 0.84585 0.0
C988 C 0.84345 0.25911 0.90007 0.0
C989 C 0.96886 0.26324 0.97065 0.0
C990 C 0.99178 0.27881 0.94965 0.0
C991 C 0.87803 0.14763 0.87476 0.0
C992 C 0.7875 0.99427 0.86962 0.0
C993 C 0.80507 0.97069 0.87477 0.0
C994 C 0.79013 0.93282 0.86397 0.0
C995 C 0.75809 0.91968 0.84759 0.0
C996 C 0.75537 0.98001 0.85347 0.0
C997 C 0.74094 0.94304 0.84246 0.0
C998 C 0.81703 0.11182 0.93275 0.0
C999 C 0.80341 0.03403 0.88062 0.0
H1000 H 0.84957 0.32798 0.88069 0.0
H1001 H 0.94087 0.4098 0.92972 0.0
H1002 H 0.89361 0.28543 0.93852 0.0
H1003 H 0.93935 0.35367 0.95102 0.0
H1004 H 0.82974 0.9815 0.88739 0.0
H1005 H 0.74628 0.8912 0.83859 0.0
H1006 H 0.74149 0.9975 0.84931 0.0
H1007 H 0.71627 0.93239 0.82987 0.0
C1008 C 0.16053 0.91936 0.10865 0.0
C1009 C 0.1605 0.90312 0.1314 0.0
C1010 C 0.16937 0.95928 0.10637 0.0
C1011 C 0.1772 0.98316 0.1274 0.0
C1012 C 0.17798 0.96687 0.1503 0.0
C1013 C 0.16941 0.92719 0.15199 0.0
C1014 C 0.16902 0.97539 0.08155 0.0
C1015 C 0.18643 0.99093 0.17325 0.0
C1016 C 0.22098 0.09631 0.12862 0.0
C1017 C 0.18705 0.09921 0.13343 0.0
C1018 C 0.21818 0.05895 0.12515 0.0
C1019 C 0.18054 0.02352 0.12624 0.0
C1020 C 0.14597 0.0267 0.1293 0.0
C1021 C 0.14964 0.06431 0.13281 0.0
C1022 C 0.25573 0.05744 0.12113 0.0
C1023 C 0.10512 0.99014 0.1305 0.0
H1024 H 0.15274 0.90063 0.09272 0.0
H1025 H 0.16901 0.91462 0.16964 0.0
H1026 H 0.14288 0.97963 0.07987 0.0
H1027 H 0.19606 1.00487 0.07889 0.0
H1028 H 0.16758 0.9551 0.0669 0.0
H1029 H 0.18832 0.97482 0.18942 0.0
H1030 H 0.21487 0.01946 0.17149 0.0
H1031 H 0.16252 0.9982 0.17633 0.0
H1032 H 0.24997 0.12304 0.12899 0.0
H1033 H 0.12313 0.06627 0.13611 0.0
H1034 H 0.25504 0.04614 0.10259 0.0
H1035 H 0.25762 0.03677 0.13426 0.0
H1036 H 0.28291 0.08712 0.12291 0.0
H1037 H 0.10039 0.97039 0.11483 0.0
H1038 H 0.08102 0.99769 0.13069 0.0
H1039 H 0.10268 0.97306 0.1472 0.0
C1040 C 0.26653 0.17317 0.65519 0.0
C1041 C 0.27857 0.16501 0.63297 0.0
C1042 C 0.23916 0.18689 0.6564 0.0
C1043 C 0.22337 0.19336 0.6348 0.0
C1044 C 0.23571 0.18558 0.61219 0.0
C1045 C 0.26224 0.17042 0.61156 0.0
C1046 C 0.22672 0.19393 0.68098 0.0
C1047 C 0.22092 0.1933 0.58866 0.0
C1048 C 0.1256 0.19544 0.64097 0.0
C1049 C 0.13946 0.23621 0.64415 0.0
C1050 C 0.15238 0.18116 0.63715 0.0
C1051 C 0.19408 0.20823 0.63625 0.0
C1052 C 0.20777 0.24945 0.63885 0.0
C1053 C 0.1805 0.26278 0.64241 0.0
C1054 C 0.13614 0.13691 0.63541 0.0
C1055 C 0.25133 0.27997 0.63805 0.0
H1056 H 0.27798 0.16788 0.67187 0.0
H1057 H 0.26992 0.1625 0.59439 0.0
H1058 H 0.19387 0.176 0.68284 0.0
H1059 H 0.24057 0.18612 0.69608 0.0
H1060 H 0.23524 0.22566 0.68285 0.0
H1061 H 0.23455 0.18748 0.57263 0.0
H1062 H 0.18811 0.17422 0.58748 0.0
H1063 H 0.22782 0.2247 0.58803 0.0
H1064 H 0.09398 0.17456 0.64248 0.0
H1065 H 0.19152 0.29441 0.64432 0.0
H1066 H 0.14675 0.12682 0.65112 0.0
H1067 H 0.14731 0.12972 0.61878 0.0
H1068 H 0.10308 0.11987 0.63518 0.0
H1069 H 0.2691 0.26998 0.64854 0.0
H1070 H 0.25757 0.30925 0.64527 0.0
H1071 H 0.26098 0.28416 0.61893 0.0
C1072 C 0.9445 0.11059 0.14037 0.0
C1073 C 0.9176 0.12465 0.14283 0.0
C1074 C 0.98591 0.1372 0.1378 0.0
C1075 C 1.00099 0.17898 0.13759 0.0
C1076 C 0.97365 0.19297 0.13982 0.0
C1077 C 0.93269 0.16587 0.14189 0.0
C1078 C 1.01372 0.12065 0.1365 0.0
C1079 C 0.98704 0.23663 0.14009 0.0
C1080 C 0.10811 0.25153 0.15726 0.0
C1081 C 0.12845 0.26436 0.13512 0.0
C1082 C 0.06715 0.22345 0.15827 0.0
C1083 C 0.04523 0.20798 0.13653 0.0
C1084 C 0.06561 0.22092 0.11402 0.0
C1085 C 0.10713 0.24802 0.11361 0.0
C1086 C 0.04732 0.21032 0.18272 0.0
C1087 C 0.04348 0.20637 0.09037 0.0
H1088 H 0.93339 0.07886 0.14132 0.0
H1089 H 0.91228 0.17723 0.14315 0.0
H1090 H 0.03271 0.13198 0.12011 0.0
H1091 H 0.03385 0.13083 0.15246 0.0
H1092 H 0.99747 0.08761 0.13609 0.0
H1093 H 0.96477 0.24258 0.14886 0.0
H1094 H 1.01574 0.25406 0.14971 0.0
H1095 H 0.99054 0.24702 0.12112 0.0
H1096 H 0.12456 0.26321 0.17401 0.0
H1097 H 0.1229 0.25639 0.09649 0.0
H1098 H 0.03176 0.17739 0.18413 0.0
H1099 H 0.02456 0.21943 0.18479 0.0
H1100 H 0.06888 0.22323 0.19792 0.0
H1101 H 0.02991 0.17362 0.08906 0.0
H1102 H 0.06316 0.22027 0.07444 0.0
H1103 H 1.01887 0.21314 0.08965 0.0
C1104 C 0.8511 0.94193 0.63521 0.0
C1105 C 0.8101 0.91439 0.63439 0.0
C1106 C 0.86566 0.98329 0.63252 0.0
C1107 C 0.83869 0.9976 0.62888 0.0
C1108 C 0.79755 0.96939 0.62695 0.0
C1109 C 0.78396 0.92857 0.62947 0.0
C1110 C 0.90978 1.01182 0.6346 0.0
C1111 C 0.76739 0.98205 0.62244 0.0
C1112 C 0.86871 0.10124 0.65332 0.0
C1113 C 0.88009 0.12504 0.6324 0.0
C1114 C 0.85485 0.0601 0.65227 0.0
C1115 C 0.85281 0.04171 0.6297 0.0
C1116 C 0.86395 0.06557 0.60836 0.0
C1117 C 0.87775 0.10695 0.60998 0.0
C1118 C 0.84248 0.03626 0.67548 0.0
C1119 C 0.86173 0.04749 0.58386 0.0
H1120 H 0.87165 0.93134 0.63899 0.0
H1121 H 0.75233 0.9075 0.62815 0.0
H1122 H 0.92023 0.03299 0.61914 0.0
H1123 H 0.91599 0.02955 0.65145 0.0
H1124 H 0.92718 0.99618 0.63505 0.0
H1125 H 0.7363 0.95728 0.62464 0.0
H1126 H 0.77225 1.00626 0.63504 0.0
H1127 H 0.77116 0.99303 0.60356 0.0
H1128 H 0.87091 0.11505 0.67076 0.0
H1129 H 0.8874 0.12525 0.59379 0.0
H1130 H 0.861 0.02223 0.67849 0.0
H1131 H 0.81105 1.01197 0.67408 0.0
H1132 H 0.84538 0.05479 0.69153 0.0
H1133 H 0.87963 0.03242 0.58387 0.0
H1134 H 0.87256 0.07005 0.56912 0.0
H1135 H 0.8305 0.02458 0.57985 0.0
C1136 C 0.86708 0.76284 0.1351 0.0
C1137 C 0.90797 0.78888 0.13818 0.0
C1138 C 0.84022 0.77682 0.13212 0.0
C1139 C 0.85411 0.81826 0.1315 0.0
C1140 C 0.89579 0.84493 0.13348 0.0
C1141 C 0.92219 0.82999 0.13677 0.0
C1142 C 0.79689 0.74666 0.12948 0.0
C1143 C 0.91234 0.88931 0.13314 0.0
C1144 C 0.78548 0.85745 0.10928 0.0
C1145 C 0.77043 0.86283 0.1312 0.0
C1146 C 0.81199 0.84224 0.10894 0.0
C1147 C 0.82496 0.83347 0.13105 0.0
C1148 C 0.80966 0.83895 0.15314 0.0
C1149 C 0.78297 0.8536 0.15291 0.0
C1150 C 0.82627 0.83573 0.08491 0.0
C1151 C 0.82163 0.82943 0.17718 0.0
H1152 H 0.85581 0.73102 0.13542 0.0
H1153 H 0.95373 0.85051 0.13917 0.0
H1154 H 0.77822 0.75581 0.13963 0.0
H1155 H 0.78956 0.74445 0.10996 0.0
H1156 H 0.78982 0.71668 0.13592 0.0
H1157 H 0.9454 0.90612 0.1331 0.0
H1158 H 0.90145 0.89793 0.11691 0.0
H1159 H 0.90167 0.89819 0.14932 0.0
H1160 H 0.77702 0.8657 0.09246 0.0
H1161 H 0.77215 0.85838 0.16997 0.0
H1162 H 0.81837 0.80413 0.08327 0.0
H1163 H 0.85917 0.85408 0.08387 0.0
H1164 H 0.81307 0.84331 0.06934 0.0
H1165 H 0.81323 0.79758 0.17768 0.0
H1166 H 0.80733 0.83548 0.19276 0.0
H1167 H 0.85442 0.84728 0.1794 0.0
C1168 C 0.94332 0.7807 0.60859 0.0
C1169 C 0.92258 0.76581 0.63045 0.0
C1170 C 0.98497 0.80755 0.6084 0.0
C1171 C 1.00631 0.82092 0.6306 0.0
C1172 C 0.98524 0.80566 0.65263 0.0
C1173 C 0.94395 0.77867 0.65226 0.0
C1174 C 1.00608 0.82182 0.58444 0.0
C1175 C 1.00636 0.81798 0.67676 0.0
C1176 C 0.11922 0.86442 0.63533 0.0
C1177 C 0.13347 0.90522 0.6382 0.0
C1178 C 0.07852 0.83714 0.63213 0.0
C1179 C 0.05055 0.8505 0.6312 0.0
C1180 C 0.06498 0.89207 0.63298 0.0
C1181 C 0.10619 0.91891 0.63641 0.0
C1182 C 0.06593 0.79396 0.6296 0.0
C1183 C 0.03667 0.90804 0.63224 0.0
H1184 H 0.92691 0.77185 0.59168 0.0
H1185 H 0.92809 0.76778 0.66926 0.0
H1186 H 1.02031 0.85467 0.58325 0.0
H1187 H 0.03007 0.81427 0.58307 0.0
H1188 H 0.98557 0.80833 0.5688 0.0
H1189 H 0.98583 0.80357 0.69228 0.0
H1190 H 0.03012 0.81002 0.67752 0.0
H1191 H 1.02086 0.85074 0.67887 0.0
H1192 H 0.14011 0.85358 0.636 0.0
H1193 H 0.11679 0.95038 0.63865 0.0
H1194 H 0.06044 0.78639 0.61012 0.0
H1195 H 0.03836 0.77511 0.63998 0.0
H1196 H 0.08925 0.78735 0.63586 0.0
H1197 H 1.01743 0.89684 0.61593 0.0
H1198 H 0.05253 0.94108 0.63209 0.0
H1199 H 1.01687 0.89726 0.64833 0.0
C1200 C 0.10428 0.85389 0.35325 0.0
C1201 C 0.12594 0.86371 0.375 0.0
C1202 C 0.06297 0.83938 0.35291 0.0
C1203 C 0.04216 0.83451 0.37492 0.0
C1204 C 0.0638 0.84388 0.39707 0.0
C1205 C 0.10551 0.85917 0.39682 0.0
C1206 C 0.04161 0.82957 0.32883 0.0
C1207 C 0.04291 0.83794 0.42102 0.0
C1208 C 0.94191 0.83178 0.36919 0.0
C1209 C 0.91473 0.79071 0.36816 0.0
C1210 C 0.98323 0.84647 0.37227 0.0
C1211 C 0.99791 0.81957 0.37437 0.0
C1212 C 0.97016 0.77818 0.37394 0.0
C1213 C 0.92931 0.76445 0.3713 0.0
C1214 C 1.01136 0.89081 0.37221 0.0
C1215 C 0.98313 0.74783 0.37633 0.0
H1216 H 0.11998 0.85828 0.33626 0.0
H1217 H 0.12221 0.86811 0.41363 0.0
H1218 H 1.01799 0.79779 0.3285 0.0
H1219 H 0.0269 0.84757 0.32631 0.0
H1220 H 0.06203 0.83525 0.31332 0.0
H1221 H 0.06355 0.8455 0.43665 0.0
H1222 H 0.02875 0.85666 0.42179 0.0
H1223 H 1.01887 0.80648 0.42282 0.0
H1224 H 0.93113 0.85247 0.3667 0.0
H1225 H 0.9086 0.73268 0.37129 0.0
H1226 H 0.03095 0.8992 0.35604 0.0
H1227 H 0.03083 0.89967 0.38845 0.0
H1228 H 0.99536 0.90785 0.37191 0.0
H1229 H 1.01058 0.75674 0.36581 0.0
H1230 H 0.95987 0.71786 0.37014 0.0
H1231 H 0.98886 0.74569 0.39574 0.0
C1232 C 0.18003 0.92615 0.86782 0.0
C1233 C 0.13931 0.91209 0.8646 0.0
C1234 C 0.20746 0.96683 0.87081 0.0
C1235 C 0.19429 0.99495 0.87121 0.0
C1236 C 0.15278 0.98073 0.86903 0.0
C1237 C 0.1258 0.93955 0.86581 0.0
C1238 C 0.25061 0.97924 0.87366 0.0
C1239 C 0.13704 1.00925 0.86904 0.0
C1240 C 0.26364 0.1024 0.89334 0.0
C1241 C 0.27941 0.12268 0.87143 0.0
C1242 C 0.23674 0.0608 0.89372 0.0
C1243 C 0.22402 0.0391 0.87163 0.0
C1244 C 0.24 0.05973 0.84955 0.0
C1245 C 0.2672 0.10094 0.84975 0.0
C1246 C 0.2218 0.0401 0.91775 0.0
C1247 C 0.2282 0.03824 0.82554 0.0
H1248 H 0.19072 0.90512 0.86758 0.0
H1249 H 0.09439 0.92909 0.86326 0.0
H1250 H 0.26972 1.00673 0.86327 0.0
H1251 H 0.25795 0.98474 0.89315 0.0
H1252 H 0.25713 0.9558 0.86761 0.0
H1253 H 0.10398 0.99357 0.86884 0.0
H1254 H 0.14792 0.02869 0.88526 0.0
H1255 H 0.14833 0.02881 0.85286 0.0
H1256 H 0.27191 0.11913 0.91012 0.0
H1257 H 0.27868 0.11647 0.83271 0.0
H1258 H 0.2291 1.01599 0.91961 0.0
H1259 H 0.18892 0.02609 0.91858 0.0
H1260 H 0.23504 0.06081 0.9333 0.0
H1261 H 0.23613 1.01446 0.82529 0.0
H1262 H 0.24299 0.05851 0.80996 0.0
H1263 H 0.19548 0.02374 0.8231 0.0
C1264 C 0.1777 0.2413 0.40965 0.0
C1265 C 0.17781 0.26555 0.39075 0.0
C1266 C 0.19258 0.21508 0.40632 0.0
C1267 C 0.20673 0.21182 0.38322 0.0
C1268 C 0.20719 0.23664 0.36409 0.0
C1269 C 0.19281 0.26316 0.36809 0.0
C1270 C 0.1926 0.19043 0.42749 0.0
C1271 C 0.22216 0.23461 0.33922 0.0
C1272 C 0.274 0.16618 0.37703 0.0
C1273 C 0.24732 0.12716 0.36969 0.0
C1274 C 0.26117 0.19356 0.38176 0.0
C1275 C 0.22052 0.18218 0.37896 0.0
C1276 C 0.19319 0.14246 0.37188 0.0
C1277 C 0.20683 0.11535 0.36753 0.0
C1278 C 0.29133 0.2346 0.39007 0.0
C1279 C 0.14966 0.12884 0.36838 0.0
H1280 H 0.16572 0.24277 0.42713 0.0
H1281 H 0.19214 0.28116 0.35325 0.0
H1282 H 0.17286 0.15837 0.42352 0.0
H1283 H 0.223 0.19527 0.43042 0.0
H1284 H 0.18239 0.19775 0.44452 0.0
H1285 H 0.22046 0.25568 0.32627 0.0
H1286 H 0.25355 0.24158 0.34038 0.0
H1287 H 0.20442 0.20398 0.33192 0.0
H1288 H 0.30524 0.17537 0.37907 0.0
H1289 H 0.18605 0.08528 0.3617 0.0
H1290 H 0.28529 0.2379 0.40931 0.0
H1291 H 0.28867 0.25716 0.37922 0.0
H1292 H 0.32236 0.24045 0.38863 0.0
H1293 H 0.13695 0.13288 0.38542 0.0
H1294 H 0.13217 0.09711 0.36289 0.0
H1295 H 0.14625 0.14734 0.35427 0.0
C1296 C 0.10489 0.19611 0.86801 0.0
C1297 C 0.13249 0.23695 0.86598 0.0
C1298 C 0.06391 0.18229 0.87187 0.0
C1299 C 0.05005 0.20987 0.87388 0.0
C1300 C 0.07836 0.25107 0.8727 0.0
C1301 C 0.11884 0.26394 0.86907 0.0
C1302 C 0.03517 0.13811 0.87276 0.0
C1303 C 0.06637 0.28211 0.87539 0.0
C1304 C 0.94331 0.17617 0.85371 0.0
C1305 C 0.9224 0.16763 0.87568 0.0
C1306 C 0.98452 0.19018 0.853 0.0
C1307 C 1.00597 0.19574 0.87485 0.0
C1308 C 0.98513 0.18782 0.89722 0.0
C1309 C 0.94352 0.1732 0.89737 0.0
C1310 C 1.00509 0.19881 0.82871 0.0
C1311 C 1.00674 0.19456 0.921 0.0
H1312 H 0.11505 0.17491 0.86559 0.0
H1313 H 0.14002 0.29558 0.8682 0.0
H1314 H 1.01639 0.13039 0.88925 0.0
H1315 H 1.01497 0.12923 0.85686 0.0
H1316 H 0.05066 0.12057 0.87268 0.0
H1317 H 0.08964 0.31174 0.8687 0.0
H1318 H 0.0384 0.27348 0.86548 0.0
H1319 H 0.0619 0.28483 0.89493 0.0
H1320 H 0.92712 0.1713 0.83684 0.0
H1321 H 0.92743 0.16553 0.91438 0.0
H1322 H 1.01928 0.1803 0.82635 0.0
H1323 H 0.02904 0.23044 0.82788 0.0
H1324 H 0.98427 0.19289 0.81336 0.0
H1325 H 1.02062 0.1756 0.92201 0.0
H1326 H 0.98664 0.18788 0.93681 0.0
H1327 H 0.03104 0.22598 0.92222 0.0
C1328 C 0.87414 0.10334 0.35918 0.0
C1329 C 0.91459 0.11563 0.35655 0.0
C1330 C 0.84547 0.06323 0.36289 0.0
C1331 C 0.85715 0.03407 0.36473 0.0
C1332 C 0.89827 0.04646 0.36289 0.0
C1333 C 0.92647 0.08701 0.35886 0.0
C1334 C 0.80277 0.05276 0.36519 0.0
C1335 C 0.91234 0.01663 0.36433 0.0
C1336 C 0.78671 0.92982 0.39068 0.0
C1337 C 0.77035 0.90755 0.3695 0.0
C1338 C 0.81395 0.97122 0.38954 0.0
C1339 C 0.82638 0.99053 0.36668 0.0
C1340 C 0.80964 0.96794 0.34534 0.0
C1341 C 0.78211 0.92698 0.34703 0.0
C1342 C 0.82967 0.99425 0.41278 0.0
C1343 C 0.82116 0.98699 0.32058 0.0
H1344 H 0.86467 0.12527 0.3582 0.0
H1345 H 0.95764 0.09609 0.35678 0.0
H1346 H 0.78254 0.02378 0.35661 0.0
H1347 H 0.7959 0.0512 0.38476 0.0
H1348 H 0.79728 0.07568 0.35689 0.0
H1349 H 0.9453 0.03105 0.36373 0.0
H1350 H 0.9015 0.99905 0.3813 0.0
H1351 H 0.89973 0.99546 0.34897 0.0
H1352 H 0.77874 0.91477 0.40806 0.0
H1353 H 0.77017 0.90978 0.33057 0.0
H1354 H 0.82358 0.0193 0.41317 0.0
H1355 H 0.86242 1.00721 0.4137 0.0
H1356 H 0.816 0.97537 0.42906 0.0
H1357 H 0.81417 1.01137 0.31921 0.0
H1358 H 0.80544 0.96539 0.30574 0.0
H1359 H 0.85372 1.00034 0.31789 0.0
C1360 C 0.86752 0.7791 0.8518 0.0
C1361 C 0.87789 0.76657 0.87308 0.0
C1362 C 0.85313 0.80597 0.85236 0.0
C1363 C 0.84934 0.82156 0.87479 0.0
C1364 C 0.85926 0.80856 0.89647 0.0
C1365 C 0.87396 0.78172 0.89534 0.0
C1366 C 0.8422 0.8179 0.82878 0.0
C1367 C 0.85475 0.82334 0.92084 0.0
C1368 C 0.84751 0.91954 0.86991 0.0
C1369 C 0.80646 0.90595 0.86973 0.0
C1370 C 0.86199 0.89269 0.87258 0.0
C1371 C 0.83488 0.85123 0.87514 0.0
C1372 C 0.79359 0.83801 0.87584 0.0
C1373 C 0.78008 0.86532 0.87346 0.0
C1374 C 0.90625 0.9085 0.87167 0.0
C1375 C 0.76315 0.79494 0.87917 0.0
H1376 H 0.87119 0.76813 0.8345 0.0
H1377 H 0.88308 0.77318 0.9118 0.0
H1378 H 0.86053 0.85058 0.82625 0.0
H1379 H 0.84657 0.80297 0.81288 0.0
H1380 H 0.81056 0.81027 0.82928 0.0
H1381 H 0.86319 0.81014 0.936 0.0
H1382 H 0.87355 0.85622 0.92163 0.0
H1383 H 0.82343 0.81591 0.92345 0.0
H1384 H 0.86826 0.9509 0.86702 0.0
H1385 H 0.74837 0.8546 0.8741 0.0
H1386 H 0.91368 0.89739 0.85509 0.0
H1387 H 0.9157 0.8975 0.88748 0.0
H1388 H 0.92356 0.94153 0.87153 0.0
H1389 H 0.77051 0.77591 0.86795 0.0
H1390 H 0.73261 0.78837 0.87443 0.0
H1391 H 0.76333 0.78764 0.89854 0.0
C1392 C 0.13764 0.68641 0.09043 0.0
C1393 C 0.14207 0.71006 0.11068 0.0
C1394 C 0.13748 0.65026 0.0926 0.0
C1395 C 0.1422 0.63705 0.11569 0.0
C1396 C 0.14478 0.65989 0.13648 0.0
C1397 C 0.14501 0.69632 0.13372 0.0
C1398 C 0.13384 0.62696 0.0699 0.0
C1399 C 0.14931 0.64704 0.16151 0.0
C1400 C 0.11353 0.52761 0.11441 0.0
C1401 C 0.15008 0.52982 0.10917 0.0
C1402 C 0.11092 0.56208 0.11855 0.0
C1403 C 0.14564 0.60007 0.11736 0.0
C1404 C 0.18303 0.60229 0.11396 0.0
C1405 C 0.18482 0.56723 0.10997 0.0
C1406 C 0.07058 0.55795 0.12271 0.0
C1407 C 0.22093 0.64199 0.11279 0.0
H1408 H 0.13568 0.69705 0.07257 0.0
H1409 H 0.14927 0.71476 0.14942 0.0
H1410 H 0.1614 0.62543 0.06727 0.0
H1411 H 0.10877 0.59599 0.07169 0.0
H1412 H 0.12885 0.64045 0.05346 0.0
H1413 H 0.14269 0.66301 0.17583 0.0
H1414 H 0.12944 0.61456 0.164 0.0
H1415 H 0.18039 0.65354 0.16395 0.0
H1416 H 0.08653 0.49882 0.11414 0.0
H1417 H 0.21315 0.56937 0.10585 0.0
H1418 H 0.06281 0.57107 0.10722 0.0
H1419 H 0.07129 0.57459 0.13921 0.0
H1420 H 0.04679 0.52641 0.12482 0.0
H1421 H 0.22123 0.65761 0.09585 0.0
H1422 H 0.24783 0.6388 0.11307 0.0
H1423 H 0.22247 0.66101 0.12822 0.0
C1424 C 0.60667 0.11748 0.62053 0.0
C1425 C 0.63994 0.15452 0.6147 0.0
C1426 C 0.56873 0.11318 0.62419 0.0
C1427 C 0.56348 0.14661 0.6217 0.0
C1428 C 0.59759 0.18463 0.61779 0.0
C1429 C 0.63536 0.18814 0.6144 0.0
C1430 C 0.53368 0.07226 0.62889 0.0
C1431 C 0.59368 0.22121 0.61517 0.0
C1432 C 0.46827 0.13229 0.59212 0.0
C1433 C 0.44783 0.13733 0.61146 0.0
C1434 C 0.50495 0.13388 0.59548 0.0
C1435 C 0.52224 0.1409 0.6189 0.0
C1436 C 0.50066 0.14387 0.63885 0.0
C1437 C 0.46385 0.14239 0.63488 0.0
C1438 C 0.52607 0.12985 0.57361 0.0
C1439 C 0.51725 0.15063 0.66422 0.0
H1440 H 0.60992 0.09131 0.62084 0.0
H1441 H 0.6607 0.21677 0.60969 0.0
H1442 H 0.51536 0.07323 0.64401 0.0
H1443 H 0.5144 0.06174 0.61256 0.0
H1444 H 0.54314 0.0503 0.63337 0.0
H1445 H 0.62309 0.249 0.61534 0.0
H1446 H 0.57856 0.21974 0.59779 0.0
H1447 H 0.57511 0.22257 0.63 0.0
H1448 H 0.45617 0.12867 0.57396 0.0
H1449 H 0.44868 0.14708 0.64988 0.0
H1450 H 0.53332 0.10592 0.57666 0.0
H1451 H 0.55456 0.15797 0.57073 0.0
H1452 H 0.50795 0.12294 0.55682 0.0
H1453 H 0.53084 0.13191 0.66795 0.0
H1454 H 0.49394 0.14411 0.67804 0.0
H1455 H 0.54095 0.18219 0.66616 0.0
C1456 C 0.46404 0.61896 0.1112 0.0
C1457 C 0.50216 0.62333 0.11162 0.0
C1458 C 0.42968 0.58139 0.11484 0.0
C1459 C 0.43342 0.54729 0.11918 0.0
C1460 C 0.47203 0.55236 0.12175 0.0
C1461 C 0.50579 0.59009 0.11778 0.0
C1462 C 0.38927 0.57766 0.11208 0.0
C1463 C 0.47771 0.51734 0.12697 0.0
C1464 C 0.33718 0.44935 0.13364 0.0
C1465 C 0.32582 0.43245 0.11049 0.0
C1466 C 0.3731 0.48573 0.13716 0.0
C1467 C 0.39767 0.50614 0.11695 0.0
C1468 C 0.38695 0.48796 0.0938 0.0
C1469 C 0.35136 0.4516 0.09091 0.0
C1470 C 0.38351 0.50316 0.16228 0.0
C1471 C 0.41205 0.50792 0.07168 0.0
H1472 H 0.4609 0.6443 0.10623 0.0
H1473 H 0.53516 0.59321 0.11817 0.0
H1474 H 0.37534 0.56177 0.09496 0.0
H1475 H 0.36945 0.55987 0.12719 0.0
H1476 H 0.39107 0.60713 0.11164 0.0
H1477 H 0.50908 0.52678 0.13161 0.0
H1478 H 0.45825 0.49937 0.14215 0.0
H1479 H 0.46906 0.49777 0.11081 0.0
H1480 H 0.31718 0.43522 0.14878 0.0
H1481 H 0.34245 0.43887 0.07294 0.0
H1482 H 0.37604 0.52716 0.1639 0.0
H1483 H 0.41586 0.5165 0.16583 0.0
H1484 H 0.36675 0.48039 0.17641 0.0
H1485 H 0.41276 0.53645 0.06824 0.0
H1486 H 0.40053 0.48912 0.0552 0.0
H1487 H 0.44315 0.51493 0.07478 0.0
C1488 C 0.86339 0.4615 0.61557 0.0
C1489 C 0.89691 0.49975 0.61595 0.0
C1490 C 0.86691 0.4275 0.6199 0.0
C1491 C 0.9048 0.4318 0.62493 0.0
C1492 C 0.93796 0.47058 0.62765 0.0
C1493 C 0.9337 0.50397 0.62294 0.0
C1494 C 0.83063 0.38687 0.61693 0.0
C1495 C 0.97868 0.4768 0.63358 0.0
C1496 C 0.90731 0.33596 0.63914 0.0
C1497 C 0.91357 0.32535 0.61595 0.0
C1498 C 0.90631 0.37155 0.6428 0.0
C1499 C 0.91093 0.39657 0.62273 0.0
C1500 C 0.91947 0.38677 0.59962 0.0
C1501 C 0.92067 0.3515 0.59659 0.0
C1502 C 0.89812 0.38106 0.66787 0.0
C1503 C 0.92514 0.41239 0.57765 0.0
H1504 H 0.83498 0.45794 0.60998 0.0
H1505 H 0.95976 0.53347 0.62333 0.0
H1506 H 0.83324 0.37325 0.59986 0.0
H1507 H 0.82852 0.36705 0.63207 0.0
H1508 H 0.80273 0.38824 0.61622 0.0
H1509 H 0.99974 0.508 0.639 0.0
H1510 H 0.97681 0.45659 0.64841 0.0
H1511 H 0.99098 0.46966 0.61744 0.0
H1512 H 0.90112 0.31559 0.65412 0.0
H1513 H 0.92526 0.34324 0.57861 0.0
H1514 H 0.86639 0.37292 0.66913 0.0
H1515 H 0.91647 0.41336 0.67171 0.0
H1516 H 0.90405 0.36425 0.68201 0.0
H1517 H 0.89726 0.41286 0.5739 0.0
H1518 H 0.9332 0.40149 0.56121 0.0
H1519 H 0.94889 0.44348 0.58111 0.0
C1520 C 0.58702 0.89033 0.13309 0.0
C1521 C 0.60414 0.89607 0.10997 0.0
C1522 C 0.55044 0.88962 0.13651 0.0
C1523 C 0.53028 0.89434 0.11632 0.0
C1524 C 0.54867 0.90196 0.09322 0.0
C1525 C 0.58497 0.90252 0.09037 0.0
C1526 C 0.53255 0.88188 0.16154 0.0
C1527 C 0.52921 0.90803 0.07115 0.0
C1528 C 0.41748 0.85193 0.11103 0.0
C1529 C 0.41451 0.88645 0.11253 0.0
C1530 C 0.45453 0.85351 0.11399 0.0
C1531 C 0.48964 0.89045 0.11865 0.0
C1532 C 0.48611 0.92473 0.12204 0.0
C1533 C 0.44886 0.92233 0.11894 0.0
C1534 C 0.45655 0.81604 0.11047 0.0
C1535 C 0.52225 0.96463 0.12735 0.0
H1536 H 0.60113 0.88451 0.14827 0.0
H1537 H 0.59786 0.90663 0.07242 0.0
H1538 H 0.52097 0.90222 0.1656 0.0
H1539 H 0.50707 0.85101 0.16246 0.0
H1540 H 0.55447 0.8855 0.17574 0.0
H1541 H 0.54808 0.9153 0.05469 0.0
H1542 H 0.50038 0.88064 0.06756 0.0
H1543 H 0.52281 0.93248 0.07441 0.0
H1544 H 0.39138 0.82413 0.10597 0.0
H1545 H 0.44694 0.94917 0.12039 0.0
H1546 H 0.4741 0.81269 0.12524 0.0
H1547 H 0.47192 0.81798 0.09314 0.0
H1548 H 0.42651 0.78908 0.10998 0.0
H1549 H 0.53966 0.96204 0.14251 0.0
H1550 H 0.51416 0.98749 0.13209 0.0
H1551 H 0.54196 0.97506 0.11122 0.0
C1552 C 0.69953 0.5797 0.58721 0.0
C1553 C 0.72384 0.59947 0.60718 0.0
C1554 C 0.66381 0.54327 0.58975 0.0
C1555 C 0.6516 0.52547 0.61294 0.0
C1556 C 0.67499 0.54633 0.63347 0.0
C1557 C 0.71098 0.58292 0.63034 0.0
C1558 C 0.63999 0.523 0.56729 0.0
C1559 C 0.66315 0.52918 0.65861 0.0
C1560 C 0.54246 0.44299 0.6132 0.0
C1561 C 0.54511 0.40884 0.60814 0.0
C1562 C 0.57672 0.48056 0.61675 0.0
C1563 C 0.61503 0.48464 0.61504 0.0
C1564 C 0.61781 0.44977 0.61171 0.0
C1565 C 0.58293 0.41238 0.60838 0.0
C1566 C 0.57191 0.51641 0.62068 0.0
C1567 C 0.65783 0.45237 0.60993 0.0
H1568 H 0.70943 0.59214 0.56924 0.0
H1569 H 0.72985 0.59748 0.64585 0.0
H1570 H 0.63911 0.49423 0.56463 0.0
H1571 H 0.60883 0.51637 0.56942 0.0
H1572 H 0.65265 0.54139 0.55072 0.0
H1573 H 0.6801 0.55168 0.67281 0.0
H1574 H 0.63086 0.51718 0.66163 0.0
H1575 H 0.66904 0.50414 0.66069 0.0
H1576 H 0.51341 0.44063 0.6132 0.0
H1577 H 0.58547 0.38643 0.60431 0.0
H1578 H 0.58179 0.53547 0.60424 0.0
H1579 H 0.59089 0.53463 0.63595 0.0
H1580 H 0.54054 0.50791 0.62453 0.0
H1581 H 0.67253 0.46747 0.59275 0.0
H1582 H 0.65526 0.42255 0.61027 0.0
H1583 H 0.67739 0.47043 0.62505 0.0
C1584 C 0.34975 0.89959 0.41398 0.0
C1585 C 0.32378 0.89342 0.39467 0.0
C1586 C 0.38544 0.89924 0.41059 0.0
C1587 C 0.39575 0.89224 0.3872 0.0
C1588 C 0.37056 0.88794 0.3673 0.0
C1589 C 0.33468 0.88828 0.37128 0.0
C1590 C 0.41134 0.90476 0.43238 0.0
C1591 C 0.38032 0.88096 0.34199 0.0
C1592 C 0.50473 0.91986 0.38503 0.0
C1593 C 0.50264 0.88373 0.39136 0.0
C1594 C 0.47011 0.92245 0.38144 0.0
C1595 C 0.43216 0.88814 0.3844 0.0
C1596 C 0.42991 0.85095 0.38874 0.0
C1597 C 0.46512 0.84917 0.39212 0.0
C1598 C 0.47417 0.96251 0.37628 0.0
C1599 C 0.39021 0.81348 0.39176 0.0
H1600 H 0.34131 0.90332 0.4321 0.0
H1601 H 0.31444 0.88274 0.35633 0.0
H1602 H 0.41292 0.87733 0.43549 0.0
H1603 H 0.44212 0.92939 0.42908 0.0
H1604 H 0.39995 0.91148 0.44913 0.0
H1605 H 0.36284 0.8865 0.32812 0.0
H1606 H 0.41248 0.90028 0.33806 0.0
H1607 H 0.37327 0.84961 0.34034 0.0
H1608 H 0.53363 0.9467 0.38421 0.0
H1609 H 0.46313 0.82121 0.39713 0.0
H1610 H 0.46418 0.9725 0.39227 0.0
H1611 H 0.45486 0.9603 0.36082 0.0
H1612 H 0.50535 0.98548 0.37203 0.0
H1613 H 0.37659 0.81477 0.40917 0.0
H1614 H 0.39309 0.7864 0.39182 0.0
H1615 H 0.36959 0.81089 0.37701 0.0
C1616 C 0.63318 0.46073 0.8922 0.0
C1617 C 0.63695 0.49861 0.89221 0.0
C1618 C 0.59581 0.42609 0.88851 0.0
C1619 C 0.56126 0.42925 0.88458 0.0
C1620 C 0.56569 0.46765 0.88248 0.0
C1621 C 0.60324 0.50168 0.88645 0.0
C1622 C 0.59279 0.38594 0.89075 0.0
C1623 C 0.53016 0.47275 0.87778 0.0
C1624 C 0.46298 0.33314 0.86998 0.0
C1625 C 0.44644 0.3212 0.8932 0.0
C1626 C 0.49953 0.36899 0.86654 0.0
C1627 C 0.52033 0.39307 0.88684 0.0
C1628 C 0.5025 0.38177 0.91007 0.0
C1629 C 0.46609 0.34623 0.9129 0.0
C1630 C 0.51669 0.37993 0.84136 0.0
C1631 C 0.52279 0.40635 0.93229 0.0
H1632 H 0.65886 0.45796 0.89683 0.0
H1633 H 0.60585 0.53083 0.88631 0.0
H1634 H 0.57741 0.37158 0.90793 0.0
H1635 H 0.57481 0.36626 0.87566 0.0
H1636 H 0.6225 0.38823 0.89073 0.0
H1637 H 0.53904 0.50413 0.87363 0.0
H1638 H 0.51231 0.4537 0.86244 0.0
H1639 H 0.51061 0.46319 0.89399 0.0
H1640 H 0.44843 0.31369 0.8547 0.0
H1641 H 0.45357 0.33702 0.9309 0.0
H1642 H 0.54106 0.37301 0.83949 0.0
H1643 H 0.52956 0.41225 0.83799 0.0
H1644 H 0.49391 0.36312 0.82726 0.0
H1645 H 0.55154 0.40729 0.93526 0.0
H1646 H 0.50437 0.39428 0.94889 0.0
H1647 H 0.52944 0.43742 0.92962 0.0
C1648 C 0.18149 0.61662 0.40129 0.0
C1649 C 0.14779 0.62096 0.40312 0.0
C1650 C 0.17787 0.57905 0.39681 0.0
C1651 C 0.13963 0.54481 0.39373 0.0
C1652 C 0.10566 0.54944 0.3945 0.0
C1653 C 0.11011 0.58717 0.39935 0.0
C1654 C 0.21498 0.57572 0.39622 0.0
C1655 C 0.06444 0.51429 0.39076 0.0
C1656 C 0.13974 0.45646 0.36312 0.0
C1657 C 0.13737 0.43258 0.3829 0.0
C1658 C 0.13804 0.4916 0.36622 0.0
C1659 C 0.13534 0.50431 0.38986 0.0
C1660 C 0.13094 0.4792 0.40985 0.0
C1661 C 0.13195 0.44366 0.40613 0.0
C1662 C 0.14154 0.51629 0.34421 0.0
C1663 C 0.12787 0.49118 0.43539 0.0
H1664 H 0.21061 0.64227 0.40456 0.0
H1665 H 0.08385 0.59014 0.40078 0.0
H1666 H 0.21357 0.55527 0.41078 0.0
H1667 H 0.21695 0.56284 0.3787 0.0
H1668 H 0.24248 0.60497 0.39868 0.0
H1669 H 0.0412 0.52302 0.39071 0.0
H1670 H 0.063 0.49941 0.37333 0.0
H1671 H 0.05749 0.49206 0.40535 0.0
H1672 H 0.14492 0.44856 0.34518 0.0
H1673 H 0.13136 0.42607 0.42158 0.0
H1674 H 0.17127 0.54359 0.34405 0.0
H1675 H 0.11892 0.52578 0.3448 0.0
H1676 H 0.13781 0.49981 0.32707 0.0
H1677 H 0.15654 0.51761 0.44063 0.0
H1678 H 0.12086 0.46694 0.44864 0.0
H1679 H 0.10456 0.49969 0.43657 0.0
C1680 C 0.71235 0.13999 0.87516 0.0
C1681 C 0.72462 0.13655 0.89855 0.0
C1682 C 0.67641 0.14039 0.87147 0.0
C1683 C 0.65258 0.13806 0.89167 0.0
C1684 C 0.66423 0.13278 0.91512 0.0
C1685 C 0.69988 0.13216 0.91821 0.0
C1686 C 0.66513 0.1453 0.84607 0.0
C1687 C 0.63989 0.12953 0.93725 0.0
C1688 C 0.58477 0.18325 0.89513 0.0
C1689 C 0.5469 0.14911 0.89556 0.0
C1690 C 0.61945 0.18042 0.89196 0.0
C1691 C 0.61633 0.14258 0.889 0.0
C1692 C 0.57794 0.10847 0.88732 0.0
C1693 C 0.54387 0.1121 0.89074 0.0
C1694 C 0.6596 0.21769 0.89369 0.0
C1695 C 0.57289 0.06767 0.88364 0.0
H1696 H 0.73159 0.14421 0.85989 0.0
H1697 H 0.70937 0.1298 0.93634 0.0
H1698 H 0.63276 0.12563 0.84295 0.0
H1699 H 0.67198 0.17645 0.84349 0.0
H1700 H 0.68179 0.13866 0.83223 0.0
H1701 H 0.65218 0.12403 0.95408 0.0
H1702 H 0.63895 0.15745 0.93956 0.0
H1703 H 0.60878 0.10497 0.93495 0.0
H1704 H 0.5875 0.21188 0.89904 0.0
H1705 H 0.51472 0.08554 0.89094 0.0
H1706 H 0.67922 0.21874 0.87875 0.0
H1707 H 0.67408 0.21752 0.91102 0.0
H1708 H 0.65726 0.24506 0.89299 0.0
H1709 H 0.59174 0.06813 0.86839 0.0
H1710 H 0.54146 0.04487 0.87987 0.0
H1711 H 0.58279 0.05865 0.90015 0.0
C1712 C 0.44711 0.53271 0.4007 0.0
C1713 C 0.4138 0.5369 0.40559 0.0
C1714 C 0.48474 0.56592 0.39565 0.0
C1715 C 0.48962 0.60461 0.39571 0.0
C1716 C 0.45553 0.60874 0.39893 0.0
C1717 C 0.41807 0.5749 0.40372 0.0
C1718 C 0.51982 0.55983 0.3917 0.0
C1719 C 0.45912 0.64927 0.39902 0.0
C1720 C 0.58615 0.69091 0.42009 0.0
C1721 C 0.6045 0.71324 0.39923 0.0
C1722 C 0.54974 0.65503 0.41896 0.0
C1723 C 0.5307 0.64067 0.39629 0.0
C1724 C 0.55026 0.66191 0.37488 0.0
C1725 C 0.58677 0.69822 0.37661 0.0
C1726 C 0.53069 0.63353 0.4423 0.0
C1727 C 0.5318 0.64754 0.35025 0.0
H1728 H 0.44404 0.5034 0.40174 0.0
H1729 H 0.39267 0.57854 0.40754 0.0
H1730 H 0.53658 0.57616 0.3753 0.0
H1731 H 0.54052 0.57203 0.40733 0.0
H1732 H 0.51058 0.52789 0.38964 0.0
H1733 H 0.42958 0.64738 0.39906 0.0
H1734 H 0.47578 0.66586 0.41539 0.0
H1735 H 0.47614 0.66668 0.38296 0.0
H1736 H 0.59963 0.70256 0.43763 0.0
H1737 H 0.60035 0.71563 0.36043 0.0
H1738 H 0.52372 0.60215 0.44129 0.0
H1739 H 0.5022 0.63318 0.44513 0.0
H1740 H 0.55008 0.64769 0.45831 0.0
H1741 H 0.51833 0.61481 0.34871 0.0
H1742 H 0.55398 0.662 0.33549 0.0
H1743 H 0.50771 0.65469 0.3476 0.0
C1744 C 0.91534 0.57987 0.91171 0.0
C1745 C 0.90904 0.59898 0.89204 0.0
C1746 C 0.91452 0.54351 0.90898 0.0
C1747 C 0.90708 0.52523 0.88587 0.0
C1748 C 0.90293 0.54552 0.86556 0.0
C1749 C 0.90363 0.58206 0.86891 0.0
C1750 C 0.91976 0.52375 0.93119 0.0
C1751 C 0.8957 0.52781 0.84051 0.0
C1752 C 0.93261 0.44235 0.88588 0.0
C1753 C 0.89606 0.40899 0.89241 0.0
C1754 C 0.93599 0.47971 0.88144 0.0
C1755 C 0.90213 0.48426 0.88382 0.0
C1756 C 0.86455 0.44995 0.88842 0.0
C1757 C 0.86195 0.41276 0.89259 0.0
C1758 C 0.97646 0.515 0.87604 0.0
C1759 C 0.82755 0.45314 0.89097 0.0
H1760 H 0.91929 0.59274 0.92965 0.0
H1761 H 0.89805 0.59626 0.85367 0.0
H1762 H 0.89205 0.49511 0.93462 0.0
H1763 H 0.94404 0.51699 0.92823 0.0
H1764 H 0.92685 0.54257 0.94765 0.0
H1765 H 0.90125 0.55031 0.82628 0.0
H1766 H 0.91492 0.51474 0.83698 0.0
H1767 H 0.8643 0.50353 0.83905 0.0
H1768 H 0.95913 0.43969 0.88559 0.0
H1769 H 0.83369 0.38734 0.89778 0.0
H1770 H 0.98736 0.53482 0.8921 0.0
H1771 H 0.97459 0.53262 0.86076 0.0
H1772 H 0.99861 0.50586 0.87147 0.0
H1773 H 0.8292 0.46894 0.90806 0.0
H1774 H 0.80009 0.42347 0.89136 0.0
H1775 H 0.82534 0.47075 0.87581 0.0
C1776 C 0.19699 0.40115 0.30428 0.0
C1777 C 0.18683 0.36429 0.31466 0.0
C1778 C 0.20078 0.40674 0.27896 0.0
C1779 C 0.19549 0.37505 0.26373 0.0
C1780 C 0.18567 0.33787 0.2743 0.0
C1781 C 0.18095 0.33285 0.29954 0.0
C1782 C 0.20944 0.44619 0.26846 0.0
C1783 C 0.17895 0.30272 0.25909 0.0
C1784 C 0.17681 0.36819 0.19536 0.0
C1785 C 0.2149 0.37982 0.18641 0.0
C1786 C 0.1703 0.36893 0.22049 0.0
C1787 C 0.20252 0.38116 0.23696 0.0
C1788 C 0.24136 0.39537 0.22774 0.0
C1789 C 0.24707 0.39497 0.20266 0.0
C1790 C 0.12857 0.35439 0.22949 0.0
C1791 C 0.27653 0.40786 0.24445 0.0
H1792 H 0.20039 0.42516 0.31591 0.0
H1793 H 0.17242 0.3041 0.3075 0.0
H1794 H 0.23796 0.45998 0.25835 0.0
H1795 H 0.18576 0.44153 0.25535 0.0
H1796 H 0.21124 0.46732 0.28264 0.0
H1797 H 0.18417 0.28141 0.26974 0.0
H1798 H 0.1476 0.28675 0.25278 0.0
H1799 H 0.19838 0.31196 0.24288 0.0
H1800 H 0.15177 0.35623 0.18297 0.0
H1801 H 0.2767 0.4044 0.19584 0.0
H1802 H 0.12852 0.37429 0.2439 0.0
H1803 H 0.11658 0.32429 0.23748 0.0
H1804 H 0.10836 0.35261 0.21465 0.0
H1805 H 0.30515 0.42079 0.23442 0.0
H1806 H 0.27259 0.38158 0.25481 0.0
H1807 H 0.2784 0.43006 0.25778 0.0
C1808 C 0.84093 0.17646 0.70176 0.0
C1809 C 0.85527 0.21398 0.69116 0.0
C1810 C 0.83494 0.17113 0.72704 0.0
C1811 C 0.84211 0.20381 0.74204 0.0
C1812 C 0.85464 0.24132 0.73108 0.0
C1813 C 0.86191 0.24611 0.70595 0.0
C1814 C 0.82276 0.13092 0.7378 0.0
C1815 C 0.86151 0.27679 0.74597 0.0
C1816 C 0.79653 0.17872 0.80565 0.0
C1817 C 0.82967 0.18785 0.82026 0.0
C1818 C 0.80031 0.18508 0.7804 0.0
C1819 C 0.83789 0.19921 0.76919 0.0
C1820 C 0.87146 0.20854 0.784 0.0
C1821 C 0.86708 0.20348 0.80935 0.0
C1822 C 0.76384 0.17586 0.76573 0.0
C1823 C 0.9117 0.22201 0.77297 0.0
H1824 H 0.83688 0.15184 0.69049 0.0
H1825 H 0.87375 0.27537 0.69786 0.0
H1826 H 0.84438 0.1339 0.752 0.0
H1827 H 0.79323 0.11867 0.74656 0.0
H1828 H 0.82103 0.10932 0.72398 0.0
H1829 H 0.86617 0.30226 0.73443 0.0
H1830 H 0.83578 0.26864 0.75813 0.0
H1831 H 0.88818 0.28661 0.75757 0.0
H1832 H 0.76738 0.16596 0.814 0.0
H1833 H 0.89254 0.20947 0.82048 0.0
H1834 H 0.75473 0.14881 0.75469 0.0
H1835 H 0.77044 0.20067 0.75306 0.0
H1836 H 0.73835 0.17062 0.77741 0.0
H1837 H 0.90949 0.19915 0.76002 0.0
H1838 H 0.93464 0.22714 0.7868 0.0
H1839 H 0.92162 0.24996 0.76271 0.0
C1840 C 0.6816 0.82713 0.1982 0.0
C1841 C 0.65831 0.84118 0.18739 0.0
C1842 C 0.681 0.82156 0.22353 0.0
C1843 C 0.65514 0.8285 0.23837 0.0
C1844 C 0.63008 0.84077 0.2272 0.0
C1845 C 0.63273 0.84793 0.20203 0.0
C1846 C 0.70918 0.80966 0.23444 0.0
C1847 C 0.60093 0.84711 0.24188 0.0
C1848 C 0.63418 0.78216 0.30187 0.0
C1849 C 0.65735 0.81525 0.31666 0.0
C1850 C 0.632 0.78618 0.27659 0.0
C1851 C 0.65504 0.824 0.26552 0.0
C1852 C 0.67852 0.85751 0.2805 0.0
C1853 C 0.67872 0.85286 0.30586 0.0
C1854 C 0.60561 0.74968 0.26176 0.0
C1855 C 0.70504 0.89803 0.26965 0.0
H1856 H 0.70208 0.8228 0.18703 0.0
H1857 H 0.61513 0.85944 0.19377 0.0
H1858 H 0.7253 0.82911 0.25006 0.0
H1859 H 0.69202 0.77867 0.24123 0.0
H1860 H 0.73136 0.81129 0.22108 0.0
H1861 H 0.58016 0.85162 0.23019 0.0
H1862 H 0.58329 0.82118 0.25392 0.0
H1863 H 0.61728 0.87366 0.25359 0.0
H1864 H 0.61808 0.75287 0.31009 0.0
H1865 H 0.6975 0.87834 0.31711 0.0
H1866 H 0.62424 0.74032 0.25165 0.0
H1867 H 0.58834 0.75619 0.24829 0.0
H1868 H 0.58452 0.72437 0.27329 0.0
H1869 H 0.72563 0.89629 0.2564 0.0
H1870 H 0.72294 0.92067 0.28356 0.0
H1871 H 0.6868 0.90809 0.25973 0.0
C1872 C 0.79496 0.63002 0.70107 0.0
C1873 C 0.82827 0.65336 0.68645 0.0
C1874 C 0.79862 0.62772 0.72635 0.0
C1875 C 0.83629 0.65076 0.73757 0.0
C1876 C 0.87003 0.67429 0.72275 0.0
C1877 C 0.86573 0.67474 0.69738 0.0
C1878 C 0.76193 0.60124 0.74105 0.0
C1879 C 0.91042 0.70063 0.73378 0.0
C1880 C 0.83955 0.67763 0.80479 0.0
C1881 C 0.85324 0.65407 0.81564 0.0
C1882 C 0.83379 0.67682 0.77948 0.0
C1883 C 0.84041 0.65069 0.76472 0.0
C1884 C 0.85224 0.62533 0.77594 0.0
C1885 C 0.85937 0.62801 0.80109 0.0
C1886 C 0.82239 0.70527 0.76843 0.0
C1887 C 0.85842 0.59605 0.76131 0.0
H1888 H 0.76578 0.61396 0.6927 0.0
H1889 H 0.89133 0.69374 0.68623 0.0
H1890 H 0.76808 0.58305 0.75401 0.0
H1891 H 0.75318 0.61977 0.75177 0.0
H1892 H 0.73637 0.58101 0.7294 0.0
H1893 H 0.93358 0.71762 0.71992 0.0
H1894 H 0.90874 0.722 0.74638 0.0
H1895 H 0.91967 0.68242 0.74446 0.0
H1896 H 0.83579 0.69854 0.81589 0.0
H1897 H 0.87064 0.61024 0.80939 0.0
H1898 H 0.79262 0.68832 0.7599 0.0
H1899 H 0.84393 0.72314 0.75402 0.0
H1900 H 0.82149 0.72586 0.78205 0.0
H1901 H 0.83248 0.57852 0.74926 0.0
H1902 H 0.86276 0.57521 0.77302 0.0
H1903 H 0.88503 0.6123 0.7496 0.0
C1904 C 0.18126 0.7812 0.2045 0.0
C1905 C 0.19041 0.81442 0.18994 0.0
C1906 C 0.18694 0.78467 0.2298 0.0
C1907 C 0.2007 0.82206 0.24113 0.0
C1908 C 0.2103 0.85576 0.22637 0.0
C1909 C 0.20563 0.85167 0.20098 0.0
C1910 C 0.17727 0.74802 0.24442 0.0
C1911 C 0.22372 0.89588 0.23751 0.0
C1912 C 0.17617 0.82391 0.30841 0.0
C1913 C 0.21337 0.83782 0.31936 0.0
C1914 C 0.17155 0.81855 0.28305 0.0
C1915 C 0.20461 0.82588 0.26832 0.0
C1916 C 0.24176 0.8379 0.27964 0.0
C1917 C 0.24585 0.84453 0.30484 0.0
C1918 C 0.13168 0.80682 0.27194 0.0
C1919 C 0.27759 0.84492 0.26506 0.0
H1920 H 0.16878 0.75215 0.19608 0.0
H1921 H 0.21156 0.87717 0.18991 0.0
H1922 H 0.20181 0.75438 0.25725 0.0
H1923 H 0.15002 0.73895 0.25529 0.0
H1924 H 0.17211 0.72261 0.23272 0.0
H1925 H 0.22898 0.91894 0.22374 0.0
H1926 H 0.20079 0.8936 0.25045 0.0
H1927 H 0.25162 0.90565 0.2478 0.0
H1928 H 0.15127 0.81969 0.31946 0.0
H1929 H 0.27488 0.85601 0.31318 0.0
H1930 H 0.11942 0.77732 0.26319 0.0
H1931 H 0.13521 0.82859 0.2577 0.0
H1932 H 0.10985 0.80524 0.28555 0.0
H1933 H 0.26971 0.81935 0.25283 0.0
H1934 H 0.30279 0.84939 0.27681 0.0
H1935 H 0.28773 0.87172 0.25354 0.0
C1936 C 0.37214 0.17673 0.80527 0.0
C1937 C 0.39391 0.21409 0.8162 0.0
C1938 C 0.37284 0.17248 0.7799 0.0
C1939 C 0.39691 0.20617 0.76514 0.0
C1940 C 0.42052 0.24362 0.7764 0.0
C1941 C 0.4181 0.24724 0.80164 0.0
C1942 C 0.34617 0.13228 0.7688 0.0
C1943 C 0.44749 0.28023 0.76176 0.0
C1944 C 0.41882 0.18403 0.70128 0.0
C1945 C 0.39289 0.19087 0.68697 0.0
C1946 C 0.42166 0.19047 0.72649 0.0
C1947 C 0.39665 0.20239 0.73798 0.0
C1948 C 0.37075 0.20981 0.72345 0.0
C1949 C 0.36974 0.2047 0.69809 0.0
C1950 C 0.45066 0.18339 0.74088 0.0
C1951 C 0.3427 0.22137 0.73476 0.0
H1952 H 0.35252 0.15129 0.81636 0.0
H1953 H 0.43444 0.27636 0.81001 0.0
H1954 H 0.32549 0.13443 0.75578 0.0
H1955 H 0.36432 0.1225 0.7586 0.0
H1956 H 0.32838 0.10927 0.78259 0.0
H1957 H 0.46797 0.30558 0.77345 0.0
H1958 H 0.46546 0.27378 0.74885 0.0
H1959 H 0.4293 0.28943 0.75098 0.0
H1960 H 0.43628 0.17263 0.69277 0.0
H1961 H 0.34895 0.20901 0.68717 0.0
H1962 H 0.43413 0.15646 0.75231 0.0
H1963 H 0.46844 0.20885 0.75318 0.0
H1964 H 0.4713 0.17909 0.729 0.0
H1965 H 0.32461 0.19944 0.74895 0.0
H1966 H 0.32229 0.22307 0.72127 0.0
H1967 H 0.36005 0.2508 0.74359 0.0
C1968 C 0.29798 0.2662 0.94787 0.0
C1969 C 0.3087 0.23641 0.94872 0.0
C1970 C 0.28199 0.2755 0.96796 0.0
C1971 C 0.27685 0.25522 0.99014 0.0
C1972 C 0.28637 0.22424 0.99116 0.0
C1973 C 0.30165 0.21485 0.97039 0.0
C1974 C 0.27211 0.30843 0.96561 0.0
C1975 C 0.28164 0.20192 0.01445 0.0
C1976 C 0.28589 0.31764 0.04573 0.0
C1977 C 0.24623 0.30264 0.05296 0.0
C1978 C 0.29605 0.30151 0.02605 0.0
C1979 C 0.26576 0.26981 0.01253 0.0
C1980 C 0.22535 0.25526 0.01917 0.0
C1981 C 0.21604 0.27181 0.03931 0.0
C1982 C 0.33947 0.3188 0.01964 0.0
C1983 C 0.192 0.22214 0.00503 0.0
H1984 H 0.3026 0.2832 0.93143 0.0
H1985 H 0.30868 0.1912 0.9713 0.0
H1986 H 0.24182 0.29855 0.97269 0.0
H1987 H 0.29335 0.33441 0.97656 0.0
H1988 H 0.27365 0.31834 0.94654 0.0
H1989 H 0.28784 0.17711 0.01204 0.0
H1990 H 0.30236 0.22264 0.02831 0.0
H1991 H 0.25099 0.18975 0.02158 0.0
H1992 H 0.30934 0.3425 0.05544 0.0
H1993 H 0.1853 0.25997 0.04473 0.0
H1994 H 0.34533 0.33303 1.00151 0.0
H1995 H 0.3471 0.29483 0.01868 0.0
H1996 H 0.35954 0.34138 0.03298 0.0
H1997 H 0.19307 0.23138 0.98588 0.0
H1998 H 0.16228 0.21364 0.01262 0.0
H1999 H 0.1957 0.19558 0.005 0.0
C2000 C 0.09052 0.28601 0.46663 0.0
C2001 C 0.10582 0.32459 0.45719 0.0
C2002 C 0.0636 0.2721 0.48618 0.0
C2003 C 0.05095 0.29715 0.49676 0.0
C2004 C 0.06742 0.33679 0.4879 0.0
C2005 C 0.09474 0.3501 0.46829 0.0
C2006 C 0.04774 0.22998 0.49502 0.0
C2007 C 0.055 0.36467 0.49854 0.0
C2008 C 0.95347 0.2464 0.53396 0.0
C2009 C 0.9677 0.25165 0.55786 0.0
C2010 C 0.97996 0.26157 0.51392 0.0
C2011 C 1.02189 0.2821 0.5177 0.0
C2012 C 0.03629 0.28646 0.5417 0.0
C2013 C 1.00936 0.27135 0.56118 0.0
C2014 C 0.96307 0.25594 0.48866 0.0
C2015 C 0.08044 0.30722 0.54691 0.0
H2016 H 0.09849 0.26591 0.45793 0.0
H2017 H 0.10539 0.37948 0.46069 0.0
H2018 H 0.05381 0.22994 0.51467 0.0
H2019 H 1.01498 0.21271 0.49258 0.0
H2020 H 0.06112 0.21453 0.48523 0.0
H2021 H 0.07108 0.39473 0.49017 0.0
H2022 H 1.02256 0.35222 0.49584 0.0
H2023 H 0.06058 0.36761 0.51836 0.0
H2024 H 0.92184 0.23134 0.53083 0.0
H2025 H 1.02144 0.27533 0.57928 0.0
H2026 H 0.97279 0.23844 0.47766 0.0
H2027 H 0.97467 0.28528 0.47966 0.0
H2028 H 0.93002 0.24041 0.48864 0.0
H2029 H 0.09394 0.29139 0.53775 0.0
H2030 H 0.08699 0.30871 0.56661 0.0
H2031 H 0.09517 0.33796 0.53957 0.0
C2032 C 0.71794 0.93971 0.03206 0.0
C2033 C 0.74031 0.9452 0.05316 0.0
C2034 C 0.73306 0.9674 0.01269 0.0
C2035 C 0.77159 1.00169 0.01434 0.0
C2036 C 0.79465 1.00663 0.03541 0.0
C2037 C 0.77862 0.97873 0.05454 0.0
C2038 C 0.70699 0.96084 0.99088 0.0
C2039 C 0.83591 0.04213 0.0381 0.0
C2040 C 0.81981 0.05713 0.95505 0.0
C2041 C 0.81255 0.08913 0.95553 0.0
C2042 C 0.80791 0.02938 0.97428 0.0
C2043 C 0.7872 0.03286 0.99446 0.0
C2044 C 0.78046 0.06566 0.99521 0.0
C2045 C 0.79314 0.09326 0.9758 0.0
C2046 C 0.81633 0.99549 0.97256 0.0
C2047 C 0.75818 0.07063 0.01605 0.0
H2048 H 0.68776 0.91499 0.03118 0.0
H2049 H 0.79575 0.98375 0.07102 0.0
H2050 H 0.69974 0.98507 0.9897 0.0
H2051 H 0.72302 0.96187 0.97402 0.0
H2052 H 0.67874 0.93188 0.99167 0.0
H2053 H 0.85103 0.04049 0.05482 0.0
H2054 H 0.85443 0.04442 0.0222 0.0
H2055 H 0.8342 0.0698 0.0387 0.0
H2056 H 0.83377 0.05307 0.93914 0.0
H2057 H 0.7859 0.11683 0.97591 0.0
H2058 H 0.7879 0.96687 0.97121 0.0
H2059 H 0.83172 0.99414 0.9892 0.0
H2060 H 0.83499 0.99835 0.95659 0.0
H2061 H 0.72728 0.0451 0.01649 0.0
H2062 H 0.75701 0.09858 0.01464 0.0
H2063 H 0.77241 0.07068 0.03352 0.0
C2064 C 0.8185 0.77317 0.55159 0.0
C2065 C 0.81379 0.73489 0.55066 0.0
C2066 C 0.80686 0.78878 0.53214 0.0
C2067 C 0.78912 0.76532 0.51119 0.0
C2068 C 0.78518 0.72691 0.50993 0.0
C2069 C 0.79746 0.71219 0.52964 0.0
C2070 C 0.81218 0.8299 0.53441 0.0
C2071 C 0.76613 0.70049 0.48823 0.0
C2072 C 0.71804 0.7845 0.47226 0.0
C2073 C 0.74146 0.80387 0.45193 0.0
C2074 C 0.73339 0.77269 0.49185 0.0
C2075 C 0.7732 0.78018 0.49115 0.0
C2076 C 0.79725 0.80082 0.47088 0.0
C2077 C 0.78099 0.81193 0.45149 0.0
C2078 C 0.70634 0.7505 0.51281 0.0
C2079 C 0.8398 0.80988 0.46923 0.0
H2080 H 0.83019 0.79052 0.56802 0.0
H2081 H 0.79209 0.68203 0.52911 0.0
H2082 H 0.82818 0.84816 0.51836 0.0
H2083 H 0.78262 0.82785 0.53499 0.0
H2084 H 0.82895 0.84547 0.55101 0.0
H2085 H 0.76748 0.67259 0.48924 0.0
H2086 H 0.73446 0.6926 0.48698 0.0
H2087 H 0.78101 0.71647 0.47131 0.0
H2088 H 0.68703 0.77663 0.4723 0.0
H2089 H 0.79887 0.82579 0.43549 0.0
H2090 H 0.7204 0.76519 0.53018 0.0
H2091 H 0.7015 0.71982 0.51354 0.0
H2092 H 0.67694 0.74875 0.51131 0.0
H2093 H 0.85641 0.82561 0.48581 0.0
H2094 H 0.85541 0.82846 0.45316 0.0
H2095 H 0.8405 0.78171 0.46807 0.0
C2096 C 0.99455 0.72486 0.95228 0.0
C2097 C 0.96123 0.72985 0.9493 0.0
C2098 C 1.01974 0.73962 0.97256 0.0
C2099 C 1.01227 0.76068 0.99075 0.0
C2100 C 0.97883 0.76622 0.98797 0.0
C2101 C 0.95354 0.75051 0.96742 0.0
C2102 C 0.05394 0.73158 0.97477 0.0
C2103 C 0.96976 0.7887 0.00677 0.0
C2104 C 0.05067 0.75417 0.05331 0.0
C2105 C 0.08766 0.78968 0.0551 0.0
C2106 C 0.02563 0.74537 0.03306 0.0
C2107 C 0.03712 0.7727 0.01361 0.0
C2108 C 0.07409 0.80904 0.01526 0.0
C2109 C 0.09896 0.81706 0.0359 0.0
C2110 C 0.98724 0.70589 0.03221 0.0
C2111 C 0.08755 0.83925 0.99508 0.0
H2112 H 1.00103 0.70882 0.93872 0.0
H2113 H 0.92823 0.75494 0.96536 0.0
H2114 H 0.08236 0.75987 0.9773 0.0
H2115 H 0.04958 0.71282 0.99096 0.0
H2116 H 0.05679 0.71615 0.95861 0.0
H2117 H 0.94453 0.79293 1.00131 0.0
H2118 H 0.96226 0.77239 0.02425 0.0
H2119 H 0.99644 0.81828 0.00992 0.0
H2120 H 0.04096 0.73246 0.06779 0.0
H2121 H 0.12702 0.84476 0.03703 0.0
H2122 H 0.98841 0.68764 0.01712 0.0
H2123 H 0.96171 0.71054 0.02868 0.0
H2124 H 0.98148 0.68873 0.04933 0.0
H2125 H 0.0928 0.82663 0.9784 0.0
H2126 H 0.11537 0.86715 0.99972 0.0
H2127 H 0.06388 0.84647 0.99087 0.0
C2128 C 0.28386 0.981 0.45501 0.0
C2129 C 0.24512 0.94854 0.45175 0.0
C2130 C 0.294 1.00731 0.47468 0.0
C2131 C 0.26475 1.00184 0.49195 0.0
C2132 C 0.22537 0.9692 0.4889 0.0
C2133 C 0.21607 0.94278 0.46898 0.0
C2134 C 0.33662 0.04055 0.47724 0.0
C2135 C 0.19309 0.96222 0.50672 0.0
C2136 C 0.30738 0.04247 0.55457 0.0
C2137 C 0.3106 0.08034 0.55497 0.0
C2138 C 0.29114 0.01646 0.53478 0.0
C2139 C 0.27712 0.02781 0.51433 0.0
C2140 C 0.27931 0.06558 0.5146 0.0
C2141 C 0.29601 0.09139 0.53485 0.0
C2142 C 0.29049 0.97719 0.53547 0.0
C2143 C 0.26454 0.07897 0.49331 0.0
H2144 H 0.30691 0.98593 0.44216 0.0
H2145 H 0.18601 0.91816 0.46667 0.0
H2146 H 0.3378 0.06962 0.47869 0.0
H2147 H 0.34966 0.03633 0.49413 0.0
H2148 H 0.35549 0.04192 0.46173 0.0
H2149 H 0.16354 0.93737 0.5011 0.0
H2150 H 0.20046 0.95524 0.52484 0.0
H2151 H 0.19114 0.98965 0.50864 0.0
H2152 H 0.31814 0.03284 0.56977 0.0
H2153 H 0.29769 0.12011 0.53487 0.0
H2154 H 0.31049 0.97684 0.52123 0.0
H2155 H 0.2601 0.95229 0.5316 0.0
H2156 H 0.30022 0.97159 0.55327 0.0
H2157 H 0.28325 0.08296 0.47719 0.0
H2158 H 0.26523 0.10746 0.49694 0.0
H2159 H 0.23362 0.05583 0.48872 0.0
loop_
_geom_bond_atom_site_label_1
_geom_bond_atom_site_label_2
_geom_bond_distance
_geom_bond_site_symmetry_2
_ccdc_geom_bond_type
Tb0 N31 2.660 . S
Tb0 N38 2.600 . S
Tb0 O44 2.546 . S
Tb0 O45 2.610 . S
Tb0 O47 2.320 . S
Tb0 O48 2.552 . S
Tb0 O49 2.413 . S
Tb0 O51 2.362 . S
Tb0 O52 2.421 . S
Tb0 C64 2.833 . S
C1 C4 1.432 . S
C1 C5 1.414 . S
C1 N8 1.359 . S
C2 C4 1.417 . S
C2 C6 1.432 . S
C2 C14 1.410 . S
C3 C5 1.444 . S
C3 C6 1.317 . S
C3 H26 0.929 . S
C4 C1 1.432 . S
C4 C2 1.417 . S
C4 N12 1.360 . S
C5 C1 1.414 . S
C5 C3 1.444 . S
C5 C10 1.385 . S
C6 C2 1.432 . S
C6 C3 1.317 . S
C6 H18 0.930 . S
C7 C9 1.392 . S
C7 C10 1.370 . S
C7 H19 0.931 . S
N8 C1 1.359 . S
N8 C9 1.327 . S
N8 Tb11 2.600 . S
C9 C7 1.392 . S
C9 N8 1.327 . S
C9 H16 0.930 . S
C10 C5 1.385 . S
C10 C7 1.370 . S
C10 H29 0.930 . S
Tb11 N8 2.600 . S
Tb11 N12 2.660 . S
Tb11 O45 2.362 . S
Tb11 O46 2.421 . S
Tb11 O50 2.546 . S
Tb11 O51 2.610 . S
Tb11 O53 2.320 . S
Tb11 O54 2.552 . S
Tb11 O55 2.413 . S
Tb11 C75 2.833 . S
N12 C4 1.360 . S
N12 Tb11 2.660 . S
N12 C13 1.305 . S
C13 N12 1.305 . S
C13 C15 1.407 . S
C13 H20 0.930 . S
C14 C2 1.410 . S
C14 C15 1.345 . S
C14 H22 0.930 . S
C15 C13 1.407 . S
C15 C14 1.345 . S
C15 H17 0.930 . S
H16 C9 0.930 . S
H17 C15 0.930 . S
H18 C6 0.930 . S
H19 C7 0.931 . S
H20 C13 0.930 . S
H21 C35 0.930 . S
H22 C14 0.930 . S
H23 C41 0.930 . S
H24 C32 0.930 . S
H25 C39 0.931 . S
H26 C3 0.929 . S
H27 C33 0.930 1_655 S
H28 C66 0.930 . S
H29 C10 0.930 . S
H30 C65 0.929 1_655 S
N31 Tb0 2.660 . S
N31 C32 1.305 . S
N31 C36 1.360 . S
C32 H24 0.930 . S
C32 N31 1.305 . S
C32 C35 1.407 . S
C33 H27 0.930 1_455 S
C33 C34 1.410 . S
C33 C35 1.345 . S
C34 C33 1.410 . S
C34 C36 1.417 . S
C34 C66 1.432 1_455 S
C35 H21 0.930 . S
C35 C32 1.407 . S
C35 C33 1.345 . S
C36 N31 1.360 . S
C36 C34 1.417 . S
C36 C40 1.432 . S
H37 C42 0.930 . S
N38 Tb0 2.600 . S
N38 C40 1.359 . S
N38 C41 1.327 . S
C39 H25 0.931 . S
C39 C41 1.392 . S
C39 C42 1.370 . S
C40 C36 1.432 . S
C40 N38 1.359 . S
C40 C43 1.414 . S
C41 H23 0.930 . S
C41 N38 1.327 . S
C41 C39 1.392 . S
C42 H37 0.930 . S
C42 C39 1.370 . S
C42 C43 1.385 . S
C43 C40 1.414 . S
C43 C42 1.385 . S
C43 C65 1.444 . S
O44 Tb0 2.546 . S
O44 C64 1.251 . S
O45 Tb0 2.610 . S
O45 Tb11 2.362 . S
O45 C56 1.283 . S
O46 Tb11 2.421 . S
O46 C63 1.262 . S
O47 Tb0 2.320 . S
O47 C63 1.260 . S
O48 Tb0 2.552 . S
O48 C56 1.243 . S
O49 Tb0 2.413 . S
O49 C64 1.256 . S
O50 Tb11 2.546 . S
O50 C75 1.251 . S
O51 Tb0 2.362 . S
O51 Tb11 2.610 . S
O51 C67 1.283 . S
O52 Tb0 2.421 . S
O52 C74 1.262 . S
O53 Tb11 2.320 . S
O53 C74 1.260 . S
O54 Tb11 2.552 . S
O54 C67 1.243 . S
O55 Tb11 2.413 . S
O55 C75 1.256 . S
C56 O45 1.283 . S
C56 O48 1.243 . S
C57 C59 1.382 . S
C57 C61 1.393 . S
C57 C64 1.500 . S
C58 C59 1.400 . S
C58 C60 1.384 . S
C59 C57 1.382 . S
C59 C58 1.400 . S
C59 H76 0.930 . S
C60 C58 1.384 . S
C60 C62 1.392 . S
C60 H77 0.931 . S
C61 C57 1.393 . S
C61 C62 1.401 . S
C61 H78 0.930 . S
C62 C60 1.392 . S
C62 C61 1.401 . S
C62 H79 0.930 . S
C63 O46 1.262 . S
C63 O47 1.260 . S
C64 Tb0 2.833 . S
C64 O44 1.251 . S
C64 O49 1.256 . S
C64 C57 1.500 . S
C65 H30 0.929 1_455 S
C65 C43 1.444 . S
C65 C66 1.317 1_455 S
C66 H28 0.930 . S
C66 C34 1.432 1_655 S
C66 C65 1.317 1_655 S
C67 O51 1.283 . S
C67 O54 1.243 . S
C68 C69 1.382 . S
C68 C72 1.393 . S
C68 C75 1.500 . S
C69 C68 1.382 . S
C69 C70 1.400 . S
C69 H80 0.930 . S
C70 C69 1.400 . S
C70 C71 1.384 . S
C71 C70 1.384 . S
C71 C73 1.392 . S
C71 H81 0.931 . S
C72 C68 1.393 . S
C72 C73 1.401 . S
C72 H82 0.930 . S
C73 C71 1.392 . S
C73 C72 1.401 . S
C73 H83 0.930 . S
C74 O52 1.262 . S
C74 O53 1.260 . S
C75 Tb11 2.833 . S
C75 O50 1.251 . S
C75 O55 1.256 . S
C75 C68 1.500 . S
H76 C59 0.930 . S
H77 C60 0.931 . S
H78 C61 0.930 . S
H79 C62 0.930 . S
H80 C69 0.930 . S
H81 C71 0.931 . S
H82 C72 0.930 . S
H83 C73 0.930 . S
Tb84 N115 2.660 . S
Tb84 N122 2.600 . S
Tb84 O128 2.546 . S
Tb84 O129 2.610 . S
Tb84 O131 2.320 . S
Tb84 O132 2.552 . S
Tb84 O133 2.413 . S
Tb84 O135 2.362 . S
Tb84 O136 2.421 . S
Tb84 C148 2.833 . S
C85 C88 1.432 . S
C85 C89 1.414 . S
C85 N92 1.359 . S
C86 C88 1.417 . S
C86 C90 1.432 . S
C86 C98 1.410 . S
C87 C89 1.444 . S
C87 C90 1.317 . S
C87 H110 0.929 1_655 S
C88 C85 1.432 . S
C88 C86 1.417 . S
C88 N96 1.360 . S
C89 C85 1.414 . S
C89 C87 1.444 . S
C89 C94 1.385 . S
C90 C86 1.432 . S
C90 C87 1.317 . S
C90 H102 0.930 1_655 S
C91 C93 1.392 . S
C91 C94 1.370 . S
C91 H103 0.931 . S
N92 C85 1.359 . S
N92 C93 1.327 . S
N92 Tb95 2.600 . S
C93 C91 1.392 . S
C93 N92 1.327 . S
C93 H100 0.930 . S
C94 C89 1.385 . S
C94 C91 1.370 . S
C94 H113 0.930 . S
Tb95 N92 2.600 . S
Tb95 N96 2.660 . S
Tb95 O129 2.362 . S
Tb95 O130 2.421 . S
Tb95 O134 2.546 . S
Tb95 O135 2.610 . S
Tb95 O137 2.320 . S
Tb95 O138 2.552 . S
Tb95 O139 2.413 . S
Tb95 C159 2.833 . S
N96 C88 1.360 . S
N96 Tb95 2.660 . S
N96 C97 1.305 . S
C97 N96 1.305 . S
C97 C99 1.407 . S
C97 H104 0.930 . S
C98 C86 1.410 . S
C98 C99 1.345 . S
C98 H106 0.930 . S
C99 C97 1.407 . S
C99 C98 1.345 . S
C99 H101 0.930 . S
H100 C93 0.930 . S
H101 C99 0.930 . S
H102 C90 0.930 1_455 S
H103 C91 0.931 . S
H104 C97 0.930 . S
H105 C119 0.930 . S
H106 C98 0.930 . S
H107 C125 0.930 . S
H108 C116 0.930 . S
H109 C123 0.931 . S
H110 C87 0.929 1_455 S
H111 C117 0.930 1_565 S
H112 C150 0.930 . S
H113 C94 0.930 . S
H114 C149 0.929 1_565 S
N115 Tb84 2.660 . S
N115 C116 1.305 . S
N115 C120 1.360 . S
C116 H108 0.930 . S
C116 N115 1.305 . S
C116 C119 1.407 . S
C117 H111 0.930 1_545 S
C117 C118 1.410 . S
C117 C119 1.345 . S
C118 C117 1.410 . S
C118 C120 1.417 . S
C118 C150 1.432 1_545 S
C119 H105 0.930 . S
C119 C116 1.407 . S
C119 C117 1.345 . S
C120 N115 1.360 . S
C120 C118 1.417 . S
C120 C124 1.432 . S
H121 C126 0.930 . S
N122 Tb84 2.600 . S
N122 C124 1.359 . S
N122 C125 1.327 . S
C123 H109 0.931 . S
C123 C125 1.392 . S
C123 C126 1.370 . S
C124 C120 1.432 . S
C124 N122 1.359 . S
C124 C127 1.414 . S
C125 H107 0.930 . S
C125 N122 1.327 . S
C125 C123 1.392 . S
C126 H121 0.930 . S
C126 C123 1.370 . S
C126 C127 1.385 . S
C127 C124 1.414 . S
C127 C126 1.385 . S
C127 C149 1.444 . S
O128 Tb84 2.546 . S
O128 C148 1.251 . S
O129 Tb84 2.610 . S
O129 Tb95 2.362 . S
O129 C140 1.283 . S
O130 Tb95 2.421 . S
O130 C147 1.262 . S
O131 Tb84 2.320 . S
O131 C147 1.260 . S
O132 Tb84 2.552 . S
O132 C140 1.243 . S
O133 Tb84 2.413 . S
O133 C148 1.256 . S
O134 Tb95 2.546 . S
O134 C159 1.251 . S
O135 Tb84 2.362 . S
O135 Tb95 2.610 . S
O135 C151 1.283 . S
O136 Tb84 2.421 . S
O136 C158 1.262 . S
O137 Tb95 2.320 . S
O137 C158 1.260 . S
O138 Tb95 2.552 . S
O138 C151 1.243 . S
O139 Tb95 2.413 . S
O139 C159 1.256 . S
C140 O129 1.283 . S
C140 O132 1.243 . S
C141 C143 1.382 . S
C141 C145 1.393 . S
C141 C148 1.500 . S
C142 C143 1.400 . S
C142 C144 1.384 . S
C143 C141 1.382 . S
C143 C142 1.400 . S
C143 H160 0.930 . S
C144 C142 1.384 . S
C144 C146 1.392 . S
C144 H161 0.931 . S
C145 C141 1.393 . S
C145 C146 1.401 . S
C145 H162 0.930 . S
C146 C144 1.392 . S
C146 C145 1.401 . S
C146 H163 0.930 . S
C147 O130 1.262 . S
C147 O131 1.260 . S
C148 Tb84 2.833 . S
C148 O128 1.251 . S
C148 O133 1.256 . S
C148 C141 1.500 . S
C149 H114 0.929 1_545 S
C149 C127 1.444 . S
C149 C150 1.317 1_545 S
C150 H112 0.930 . S
C150 C118 1.432 1_565 S
C150 C149 1.317 1_565 S
C151 O135 1.283 . S
C151 O138 1.243 . S
C152 C153 1.382 . S
C152 C156 1.393 . S
C152 C159 1.500 1_455 S
C153 C152 1.382 . S
C153 C154 1.400 . S
C153 H164 0.930 . S
C154 C153 1.400 . S
C154 C155 1.384 . S
C155 C154 1.384 . S
C155 C157 1.392 . S
C155 H165 0.931 . S
C156 C152 1.393 . S
C156 C157 1.401 . S
C156 H166 0.930 . S
C157 C155 1.392 . S
C157 C156 1.401 . S
C157 H167 0.930 . S
C158 O136 1.262 . S
C158 O137 1.260 . S
C159 Tb95 2.833 . S
C159 O134 1.251 . S
C159 O139 1.256 . S
C159 C152 1.500 1_655 S
H160 C143 0.930 . S
H161 C144 0.931 . S
H162 C145 0.930 . S
H163 C146 0.930 . S
H164 C153 0.930 . S
H165 C155 0.931 . S
H166 C156 0.930 . S
H167 C157 0.930 . S
Tb168 N199 2.660 . S
Tb168 N206 2.600 . S
Tb168 O212 2.546 . S
Tb168 O213 2.610 . S
Tb168 O215 2.320 . S
Tb168 O216 2.552 . S
Tb168 O217 2.413 . S
Tb168 O219 2.362 . S
Tb168 O220 2.421 . S
Tb168 C232 2.833 . S
C169 C172 1.432 . S
C169 C173 1.414 . S
C169 N176 1.359 . S
C170 C172 1.417 . S
C170 C174 1.432 . S
C170 C182 1.410 . S
C171 C173 1.444 . S
C171 C174 1.317 . S
C171 H194 0.929 1_565 S
C172 C169 1.432 . S
C172 C170 1.417 . S
C172 N180 1.360 . S
C173 C169 1.414 . S
C173 C171 1.444 . S
C173 C178 1.385 . S
C174 C170 1.432 . S
C174 C171 1.317 . S
C174 H186 0.930 1_565 S
C175 C177 1.392 . S
C175 C178 1.370 . S
C175 H187 0.931 . S
N176 C169 1.359 . S
N176 C177 1.327 . S
N176 Tb179 2.600 . S
C177 C175 1.392 . S
C177 N176 1.327 . S
C177 H184 0.930 . S
C178 C173 1.385 . S
C178 C175 1.370 . S
C178 H197 0.930 . S
Tb179 N176 2.600 . S
Tb179 N180 2.660 . S
Tb179 O213 2.362 . S
Tb179 O214 2.421 . S
Tb179 O218 2.546 . S
Tb179 O219 2.610 . S
Tb179 O221 2.320 . S
Tb179 O222 2.552 . S
Tb179 O223 2.413 . S
Tb179 C243 2.833 . S
N180 C172 1.360 . S
N180 Tb179 2.660 . S
N180 C181 1.305 . S
C181 N180 1.305 . S
C181 C183 1.407 . S
C181 H188 0.930 . S
C182 C170 1.410 . S
C182 C183 1.345 . S
C182 H190 0.930 . S
C183 C181 1.407 . S
C183 C182 1.345 . S
C183 H185 0.930 . S
H184 C177 0.930 . S
H185 C183 0.930 . S
H186 C174 0.930 1_545 S
H187 C175 0.931 . S
H188 C181 0.930 . S
H189 C203 0.930 . S
H190 C182 0.930 . S
H191 C209 0.930 . S
H192 C200 0.930 . S
H193 C207 0.931 . S
H194 C171 0.929 1_545 S
H195 C201 0.930 . S
H196 C234 0.930 . S
H197 C178 0.930 . S
H198 C233 0.929 . S
N199 Tb168 2.660 . S
N199 C200 1.305 . S
N199 C204 1.360 . S
C200 H192 0.930 . S
C200 N199 1.305 . S
C200 C203 1.407 . S
C201 H195 0.930 . S
C201 C202 1.410 . S
C201 C203 1.345 . S
C202 C201 1.410 . S
C202 C204 1.417 . S
C202 C234 1.432 . S
C203 H189 0.930 . S
C203 C200 1.407 . S
C203 C201 1.345 . S
C204 N199 1.360 . S
C204 C202 1.417 . S
C204 C208 1.432 . S
H205 C210 0.930 . S
N206 Tb168 2.600 . S
N206 C208 1.359 . S
N206 C209 1.327 . S
C207 H193 0.931 . S
C207 C209 1.392 . S
C207 C210 1.370 . S
C208 C204 1.432 . S
C208 N206 1.359 . S
C208 C211 1.414 . S
C209 H191 0.930 . S
C209 N206 1.327 . S
C209 C207 1.392 . S
C210 H205 0.930 . S
C210 C207 1.370 . S
C210 C211 1.385 . S
C211 C208 1.414 . S
C211 C210 1.385 . S
C211 C233 1.444 . S
O212 Tb168 2.546 . S
O212 C232 1.251 . S
O213 Tb168 2.610 . S
O213 Tb179 2.362 . S
O213 C224 1.283 . S
O214 Tb179 2.421 . S
O214 C231 1.262 . S
O215 Tb168 2.320 . S
O215 C231 1.260 . S
O216 Tb168 2.552 . S
O216 C224 1.243 . S
O217 Tb168 2.413 . S
O217 C232 1.256 . S
O218 Tb179 2.546 . S
O218 C243 1.251 . S
O219 Tb168 2.362 . S
O219 Tb179 2.610 . S
O219 C235 1.283 . S
O220 Tb168 2.421 . S
O220 C242 1.262 . S
O221 Tb179 2.320 . S
O221 C242 1.260 . S
O222 Tb179 2.552 . S
O222 C235 1.243 . S
O223 Tb179 2.413 . S
O223 C243 1.256 . S
C224 O213 1.283 . S
C224 O216 1.243 . S
C225 C227 1.382 . S
C225 C229 1.393 . S
C225 C232 1.500 . S
C226 C227 1.400 . S
C226 C228 1.384 . S
C227 C225 1.382 . S
C227 C226 1.400 . S
C227 H244 0.930 . S
C228 C226 1.384 . S
C228 C230 1.392 . S
C228 H245 0.931 . S
C229 C225 1.393 . S
C229 C230 1.401 . S
C229 H246 0.930 . S
C230 C228 1.392 . S
C230 C229 1.401 . S
C230 H247 0.930 . S
C231 O214 1.262 . S
C231 O215 1.260 . S
C232 Tb168 2.833 . S
C232 O212 1.251 . S
C232 O217 1.256 . S
C232 C225 1.500 . S
C233 H198 0.929 . S
C233 C211 1.444 . S
C233 C234 1.317 . S
C234 H196 0.930 . S
C234 C202 1.432 . S
C234 C233 1.317 . S
C235 O219 1.283 . S
C235 O222 1.243 . S
C236 C237 1.382 . S
C236 C240 1.393 . S
C236 C243 1.500 1_545 S
C237 C236 1.382 . S
C237 C238 1.400 . S
C237 H248 0.930 . S
C238 C237 1.400 . S
C238 C239 1.384 . S
C239 C238 1.384 . S
C239 C241 1.392 . S
C239 H249 0.931 . S
C240 C236 1.393 . S
C240 C241 1.401 . S
C240 H250 0.930 . S
C241 C239 1.392 . S
C241 C240 1.401 . S
C241 H251 0.930 . S
C242 O220 1.262 . S
C242 O221 1.260 . S
C243 Tb179 2.833 . S
C243 O218 1.251 . S
C243 O223 1.256 . S
C243 C236 1.500 1_565 S
H244 C227 0.930 . S
H245 C228 0.931 . S
H246 C229 0.930 . S
H247 C230 0.930 . S
H248 C237 0.930 . S
H249 C239 0.931 . S
H250 C240 0.930 . S
H251 C241 0.930 . S
Tb252 N283 2.660 . S
Tb252 N290 2.600 . S
Tb252 O296 2.546 . S
Tb252 O297 2.610 . S
Tb252 O299 2.320 . S
Tb252 O300 2.552 . S
Tb252 O301 2.413 . S
Tb252 O303 2.362 . S
Tb252 O304 2.421 . S
Tb252 C316 2.833 . S
C253 C256 1.432 . S
C253 C257 1.414 . S
C253 N260 1.359 . S
C254 C256 1.417 . S
C254 C258 1.432 . S
C254 C266 1.410 . S
C255 C257 1.444 . S
C255 C258 1.317 . S
C255 H278 0.929 . S
C256 C253 1.432 . S
C256 C254 1.417 . S
C256 N264 1.360 . S
C257 C253 1.414 . S
C257 C255 1.444 . S
C257 C262 1.385 . S
C258 C254 1.432 . S
C258 C255 1.317 . S
C258 H270 0.930 . S
C259 C261 1.392 . S
C259 C262 1.370 . S
C259 H271 0.931 . S
N260 C253 1.359 . S
N260 C261 1.327 . S
N260 Tb263 2.600 . S
C261 C259 1.392 . S
C261 N260 1.327 . S
C261 H268 0.930 . S
C262 C257 1.385 . S
C262 C259 1.370 . S
C262 H281 0.930 . S
Tb263 N260 2.600 . S
Tb263 N264 2.660 . S
Tb263 O297 2.362 . S
Tb263 O298 2.421 . S
Tb263 O302 2.546 . S
Tb263 O303 2.610 . S
Tb263 O305 2.320 . S
Tb263 O306 2.552 . S
Tb263 O307 2.413 . S
Tb263 C327 2.833 . S
N264 C256 1.360 . S
N264 Tb263 2.660 . S
N264 C265 1.305 . S
C265 N264 1.305 . S
C265 C267 1.407 . S
C265 H272 0.930 . S
C266 C254 1.410 . S
C266 C267 1.345 . S
C266 H274 0.930 . S
C267 C265 1.407 . S
C267 C266 1.345 . S
C267 H269 0.930 . S
H268 C261 0.930 . S
H269 C267 0.930 . S
H270 C258 0.930 . S
H271 C259 0.931 . S
H272 C265 0.930 . S
H273 C287 0.930 . S
H274 C266 0.930 . S
H275 C293 0.930 . S
H276 C284 0.930 . S
H277 C291 0.931 . S
H278 C255 0.929 . S
H279 C285 0.930 1_455 S
H280 C318 0.930 . S
H281 C262 0.930 . S
H282 C317 0.929 1_455 S
N283 Tb252 2.660 . S
N283 C284 1.305 . S
N283 C288 1.360 . S
C284 H276 0.930 . S
C284 N283 1.305 . S
C284 C287 1.407 . S
C285 H279 0.930 1_655 S
C285 C286 1.410 . S
C285 C287 1.345 . S
C286 C285 1.410 . S
C286 C288 1.417 . S
C286 C318 1.432 1_655 S
C287 H273 0.930 . S
C287 C284 1.407 . S
C287 C285 1.345 . S
C288 N283 1.360 . S
C288 C286 1.417 . S
C288 C292 1.432 . S
H289 C294 0.930 . S
N290 Tb252 2.600 . S
N290 C292 1.359 . S
N290 C293 1.327 . S
C291 H277 0.931 . S
C291 C293 1.392 . S
C291 C294 1.370 . S
C292 C288 1.432 . S
C292 N290 1.359 . S
C292 C295 1.414 . S
C293 H275 0.930 . S
C293 N290 1.327 . S
C293 C291 1.392 . S
C294 H289 0.930 . S
C294 C291 1.370 . S
C294 C295 1.385 . S
C295 C292 1.414 . S
C295 C294 1.385 . S
C295 C317 1.444 . S
O296 Tb252 2.546 . S
O296 C316 1.251 . S
O297 Tb252 2.610 . S
O297 Tb263 2.362 . S
O297 C308 1.283 . S
O298 Tb263 2.421 . S
O298 C315 1.262 . S
O299 Tb252 2.320 . S
O299 C315 1.260 . S
O300 Tb252 2.552 . S
O300 C308 1.243 . S
O301 Tb252 2.413 . S
O301 C316 1.256 . S
O302 Tb263 2.546 . S
O302 C327 1.251 . S
O303 Tb252 2.362 . S
O303 Tb263 2.610 . S
O303 C319 1.283 . S
O304 Tb252 2.421 . S
O304 C326 1.262 . S
O305 Tb263 2.320 . S
O305 C326 1.260 . S
O306 Tb263 2.552 . S
O306 C319 1.243 . S
O307 Tb263 2.413 . S
O307 C327 1.256 . S
C308 O297 1.283 . S
C308 O300 1.243 . S
C309 C311 1.382 . S
C309 C313 1.393 . S
C309 C316 1.500 . S
C310 C311 1.400 . S
C310 C312 1.384 . S
C311 C309 1.382 . S
C311 C310 1.400 . S
C311 H328 0.930 . S
C312 C310 1.384 . S
C312 C314 1.392 . S
C312 H329 0.931 . S
C313 C309 1.393 . S
C313 C314 1.401 . S
C313 H330 0.930 . S
C314 C312 1.392 . S
C314 C313 1.401 . S
C314 H331 0.930 . S
C315 O298 1.262 . S
C315 O299 1.260 . S
C316 Tb252 2.833 . S
C316 O296 1.251 . S
C316 O301 1.256 . S
C316 C309 1.500 . S
C317 H282 0.929 1_655 S
C317 C295 1.444 . S
C317 C318 1.317 1_655 S
C318 H280 0.930 . S
C318 C286 1.432 1_455 S
C318 C317 1.317 1_455 S
C319 O303 1.283 . S
C319 O306 1.243 . S
C320 C321 1.382 . S
C320 C324 1.393 . S
C320 C327 1.500 . S
C321 C320 1.382 . S
C321 C322 1.400 . S
C321 H332 0.930 . S
C322 C321 1.400 . S
C322 C323 1.384 . S
C323 C322 1.384 . S
C323 C325 1.392 . S
C323 H333 0.931 . S
C324 C320 1.393 . S
C324 C325 1.401 . S
C324 H334 0.930 . S
C325 C323 1.392 . S
C325 C324 1.401 . S
C325 H335 0.930 . S
C326 O304 1.262 . S
C326 O305 1.260 . S
C327 Tb263 2.833 . S
C327 O302 1.251 . S
C327 O307 1.256 . S
C327 C320 1.500 . S
H328 C311 0.930 . S
H329 C312 0.931 . S
H330 C313 0.930 . S
H331 C314 0.930 . S
H332 C321 0.930 . S
H333 C323 0.931 . S
H334 C324 0.930 . S
H335 C325 0.930 . S
Tb336 N367 2.660 . S
Tb336 N374 2.600 . S
Tb336 O380 2.546 . S
Tb336 O381 2.610 . S
Tb336 O383 2.320 . S
Tb336 O384 2.552 . S
Tb336 O385 2.413 . S
Tb336 O387 2.362 . S
Tb336 O388 2.421 . S
Tb336 C400 2.833 . S
C337 C340 1.432 . S
C337 C341 1.414 . S
C337 N344 1.359 . S
C338 C340 1.417 . S
C338 C342 1.432 . S
C338 C350 1.410 . S
C339 C341 1.444 . S
C339 C342 1.317 . S
C339 H362 0.929 1_455 S
C340 C337 1.432 . S
C340 C338 1.417 . S
C340 N348 1.360 . S
C341 C337 1.414 . S
C341 C339 1.444 . S
C341 C346 1.385 . S
C342 C338 1.432 . S
C342 C339 1.317 . S
C342 H354 0.930 1_455 S
C343 C345 1.392 . S
C343 C346 1.370 . S
C343 H355 0.931 . S
N344 C337 1.359 . S
N344 C345 1.327 . S
N344 Tb347 2.600 . S
C345 C343 1.392 . S
C345 N344 1.327 . S
C345 H352 0.930 . S
C346 C341 1.385 . S
C346 C343 1.370 . S
C346 H365 0.930 . S
Tb347 N344 2.600 . S
Tb347 N348 2.660 . S
Tb347 O381 2.362 . S
Tb347 O382 2.421 . S
Tb347 O386 2.546 . S
Tb347 O387 2.610 . S
Tb347 O389 2.320 . S
Tb347 O390 2.552 . S
Tb347 O391 2.413 . S
Tb347 C411 2.833 . S
N348 C340 1.360 . S
N348 Tb347 2.660 . S
N348 C349 1.305 . S
C349 N348 1.305 . S
C349 C351 1.407 . S
C349 H356 0.930 . S
C350 C338 1.410 . S
C350 C351 1.345 . S
C350 H358 0.930 . S
C351 C349 1.407 . S
C351 C350 1.345 . S
C351 H353 0.930 . S
H352 C345 0.930 . S
H353 C351 0.930 . S
H354 C342 0.930 1_655 S
H355 C343 0.931 . S
H356 C349 0.930 . S
H357 C371 0.930 . S
H358 C350 0.930 . S
H359 C377 0.930 . S
H360 C368 0.930 . S
H361 C375 0.931 . S
H362 C339 0.929 1_655 S
H363 C369 0.930 1_545 S
H364 C402 0.930 . S
H365 C346 0.930 . S
H366 C401 0.929 1_545 S
N367 Tb336 2.660 . S
N367 C368 1.305 . S
N367 C372 1.360 . S
C368 H360 0.930 . S
C368 N367 1.305 . S
C368 C371 1.407 . S
C369 H363 0.930 1_565 S
C369 C370 1.410 . S
C369 C371 1.345 . S
C370 C369 1.410 . S
C370 C372 1.417 . S
C370 C402 1.432 1_565 S
C371 H357 0.930 . S
C371 C368 1.407 . S
C371 C369 1.345 . S
C372 N367 1.360 . S
C372 C370 1.417 . S
C372 C376 1.432 . S
H373 C378 0.930 . S
N374 Tb336 2.600 . S
N374 C376 1.359 . S
N374 C377 1.327 . S
C375 H361 0.931 . S
C375 C377 1.392 . S
C375 C378 1.370 . S
C376 C372 1.432 . S
C376 N374 1.359 . S
C376 C379 1.414 . S
C377 H359 0.930 . S
C377 N374 1.327 . S
C377 C375 1.392 . S
C378 H373 0.930 . S
C378 C375 1.370 . S
C378 C379 1.385 . S
C379 C376 1.414 . S
C379 C378 1.385 . S
C379 C401 1.444 . S
O380 Tb336 2.546 . S
O380 C400 1.251 . S
O381 Tb336 2.610 . S
O381 Tb347 2.362 . S
O381 C392 1.283 . S
O382 Tb347 2.421 . S
O382 C399 1.262 . S
O383 Tb336 2.320 . S
O383 C399 1.260 . S
O384 Tb336 2.552 . S
O384 C392 1.243 . S
O385 Tb336 2.413 . S
O385 C400 1.256 . S
O386 Tb347 2.546 . S
O386 C411 1.251 . S
O387 Tb336 2.362 . S
O387 Tb347 2.610 . S
O387 C403 1.283 . S
O388 Tb336 2.421 . S
O388 C410 1.262 . S
O389 Tb347 2.320 . S
O389 C410 1.260 . S
O390 Tb347 2.552 . S
O390 C403 1.243 . S
O391 Tb347 2.413 . S
O391 C411 1.256 . S
C392 O381 1.283 . S
C392 O384 1.243 . S
C393 C395 1.382 . S
C393 C397 1.393 . S
C393 C400 1.500 . S
C394 C395 1.400 . S
C394 C396 1.384 . S
C395 C393 1.382 . S
C395 C394 1.400 . S
C395 H412 0.930 . S
C396 C394 1.384 . S
C396 C398 1.392 . S
C396 H413 0.931 . S
C397 C393 1.393 . S
C397 C398 1.401 . S
C397 H414 0.930 . S
C398 C396 1.392 . S
C398 C397 1.401 . S
C398 H415 0.930 . S
C399 O382 1.262 . S
C399 O383 1.260 . S
C400 Tb336 2.833 . S
C400 O380 1.251 . S
C400 O385 1.256 . S
C400 C393 1.500 . S
C401 H366 0.929 1_565 S
C401 C379 1.444 . S
C401 C402 1.317 1_565 S
C402 H364 0.930 . S
C402 C370 1.432 1_545 S
C402 C401 1.317 1_545 S
C403 O387 1.283 . S
C403 O390 1.243 . S
C404 C405 1.382 . S
C404 C408 1.393 . S
C404 C411 1.500 1_655 S
C405 C404 1.382 . S
C405 C406 1.400 . S
C405 H416 0.930 . S
C406 C405 1.400 . S
C406 C407 1.384 . S
C407 C406 1.384 . S
C407 C409 1.392 . S
C407 H417 0.931 . S
C408 C404 1.393 . S
C408 C409 1.401 . S
C408 H418 0.930 . S
C409 C407 1.392 . S
C409 C408 1.401 . S
C409 H419 0.930 . S
C410 O388 1.262 . S
C410 O389 1.260 . S
C411 Tb347 2.833 . S
C411 O386 1.251 . S
C411 O391 1.256 . S
C411 C404 1.500 1_455 S
H412 C395 0.930 . S
H413 C396 0.931 . S
H414 C397 0.930 . S
H415 C398 0.930 . S
H416 C405 0.930 . S
H417 C407 0.931 . S
H418 C408 0.930 . S
H419 C409 0.930 . S
Tb420 N451 2.660 . S
Tb420 N458 2.600 . S
Tb420 O464 2.546 . S
Tb420 O465 2.610 . S
Tb420 O467 2.320 . S
Tb420 O468 2.552 . S
Tb420 O469 2.413 . S
Tb420 O471 2.362 . S
Tb420 O472 2.421 . S
Tb420 C484 2.833 . S
C421 C424 1.432 . S
C421 C425 1.414 . S
C421 N428 1.359 . S
C422 C424 1.417 . S
C422 C426 1.432 . S
C422 C434 1.410 . S
C423 C425 1.444 . S
C423 C426 1.317 . S
C423 H446 0.929 1_545 S
C424 C421 1.432 . S
C424 C422 1.417 . S
C424 N432 1.360 . S
C425 C421 1.414 . S
C425 C423 1.444 . S
C425 C430 1.385 . S
C426 C422 1.432 . S
C426 C423 1.317 . S
C426 H438 0.930 1_545 S
C427 C429 1.392 . S
C427 C430 1.370 . S
C427 H439 0.931 . S
N428 C421 1.359 . S
N428 C429 1.327 . S
N428 Tb431 2.600 . S
C429 C427 1.392 . S
C429 N428 1.327 . S
C429 H436 0.930 . S
C430 C425 1.385 . S
C430 C427 1.370 . S
C430 H449 0.930 . S
Tb431 N428 2.600 . S
Tb431 N432 2.660 . S
Tb431 O465 2.362 . S
Tb431 O466 2.421 . S
Tb431 O470 2.546 . S
Tb431 O471 2.610 . S
Tb431 O473 2.320 . S
Tb431 O474 2.552 . S
Tb431 O475 2.413 . S
Tb431 C495 2.833 . S
N432 C424 1.360 . S
N432 Tb431 2.660 . S
N432 C433 1.305 . S
C433 N432 1.305 . S
C433 C435 1.407 . S
C433 H440 0.930 . S
C434 C422 1.410 . S
C434 C435 1.345 . S
C434 H442 0.930 . S
C435 C433 1.407 . S
C435 C434 1.345 . S
C435 H437 0.930 . S
H436 C429 0.930 . S
H437 C435 0.930 . S
H438 C426 0.930 1_565 S
H439 C427 0.931 . S
H440 C433 0.930 . S
H441 C455 0.930 . S
H442 C434 0.930 . S
H443 C461 0.930 . S
H444 C452 0.930 . S
H445 C459 0.931 . S
H446 C423 0.929 1_565 S
H447 C453 0.930 . S
H448 C486 0.930 . S
H449 C430 0.930 . S
H450 C485 0.929 . S
N451 Tb420 2.660 . S
N451 C452 1.305 . S
N451 C456 1.360 . S
C452 H444 0.930 . S
C452 N451 1.305 . S
C452 C455 1.407 . S
C453 H447 0.930 . S
C453 C454 1.410 . S
C453 C455 1.345 . S
C454 C453 1.410 . S
C454 C456 1.417 . S
C454 C486 1.432 . S
C455 H441 0.930 . S
C455 C452 1.407 . S
C455 C453 1.345 . S
C456 N451 1.360 . S
C456 C454 1.417 . S
C456 C460 1.432 . S
H457 C462 0.930 . S
N458 Tb420 2.600 . S
N458 C460 1.359 . S
N458 C461 1.327 . S
C459 H445 0.931 . S
C459 C461 1.392 . S
C459 C462 1.370 . S
C460 C456 1.432 . S
C460 N458 1.359 . S
C460 C463 1.414 . S
C461 H443 0.930 . S
C461 N458 1.327 . S
C461 C459 1.392 . S
C462 H457 0.930 . S
C462 C459 1.370 . S
C462 C463 1.385 . S
C463 C460 1.414 . S
C463 C462 1.385 . S
C463 C485 1.444 . S
O464 Tb420 2.546 . S
O464 C484 1.251 . S
O465 Tb420 2.610 . S
O465 Tb431 2.362 . S
O465 C476 1.283 . S
O466 Tb431 2.421 . S
O466 C483 1.262 . S
O467 Tb420 2.320 . S
O467 C483 1.260 . S
O468 Tb420 2.552 . S
O468 C476 1.243 . S
O469 Tb420 2.413 . S
O469 C484 1.256 . S
O470 Tb431 2.546 . S
O470 C495 1.251 . S
O471 Tb420 2.362 . S
O471 Tb431 2.610 . S
O471 C487 1.283 . S
O472 Tb420 2.421 . S
O472 C494 1.262 . S
O473 Tb431 2.320 . S
O473 C494 1.260 . S
O474 Tb431 2.552 . S
O474 C487 1.243 . S
O475 Tb431 2.413 . S
O475 C495 1.256 . S
C476 O465 1.283 . S
C476 O468 1.243 . S
C477 C479 1.382 . S
C477 C481 1.393 . S
C477 C484 1.500 . S
C478 C479 1.400 . S
C478 C480 1.384 . S
C479 C477 1.382 . S
C479 C478 1.400 . S
C479 H496 0.930 . S
C480 C478 1.384 . S
C480 C482 1.392 . S
C480 H497 0.931 . S
C481 C477 1.393 . S
C481 C482 1.401 . S
C481 H498 0.930 . S
C482 C480 1.392 . S
C482 C481 1.401 . S
C482 H499 0.930 . S
C483 O466 1.262 . S
C483 O467 1.260 . S
C484 Tb420 2.833 . S
C484 O464 1.251 . S
C484 O469 1.256 . S
C484 C477 1.500 . S
C485 H450 0.929 . S
C485 C463 1.444 . S
C485 C486 1.317 . S
C486 H448 0.930 . S
C486 C454 1.432 . S
C486 C485 1.317 . S
C487 O471 1.283 . S
C487 O474 1.243 . S
C488 C489 1.382 . S
C488 C492 1.393 . S
C488 C495 1.500 1_565 S
C489 C488 1.382 . S
C489 C490 1.400 . S
C489 H500 0.930 . S
C490 C489 1.400 . S
C490 C491 1.384 . S
C491 C490 1.384 . S
C491 C493 1.392 . S
C491 H501 0.931 . S
C492 C488 1.393 . S
C492 C493 1.401 . S
C492 H502 0.930 . S
C493 C491 1.392 . S
C493 C492 1.401 . S
C493 H503 0.930 . S
C494 O472 1.262 . S
C494 O473 1.260 . S
C495 Tb431 2.833 . S
C495 O470 1.251 . S
C495 O475 1.256 . S
C495 C488 1.500 1_545 S
H496 C479 0.930 . S
H497 C480 0.931 . S
H498 C481 0.930 . S
H499 C482 0.930 . S
H500 C489 0.930 . S
H501 C491 0.931 . S
H502 C492 0.930 . S
H503 C493 0.930 . S
Tb504 N535 2.660 . S
Tb504 N542 2.600 . S
Tb504 O548 2.546 . S
Tb504 O549 2.610 . S
Tb504 O551 2.320 . S
Tb504 O552 2.552 . S
Tb504 O553 2.413 . S
Tb504 O555 2.362 . S
Tb504 O556 2.421 . S
Tb504 C568 2.833 . S
C505 C508 1.432 . S
C505 C509 1.414 . S
C505 N512 1.359 . S
C506 C508 1.417 . S
C506 C510 1.432 . S
C506 C518 1.410 . S
C507 C509 1.444 . S
C507 C510 1.317 . S
C507 H530 0.929 . S
C508 C505 1.432 . S
C508 C506 1.417 . S
C508 N516 1.360 . S
C509 C505 1.414 . S
C509 C507 1.444 . S
C509 C514 1.385 . S
C510 C506 1.432 . S
C510 C507 1.317 . S
C510 H522 0.930 . S
C511 C513 1.392 . S
C511 C514 1.370 . S
C511 H523 0.931 . S
N512 C505 1.359 . S
N512 C513 1.327 . S
N512 Tb515 2.600 . S
C513 C511 1.392 . S
C513 N512 1.327 . S
C513 H520 0.930 . S
C514 C509 1.385 . S
C514 C511 1.370 . S
C514 H533 0.930 . S
Tb515 N512 2.600 . S
Tb515 N516 2.660 . S
Tb515 O549 2.362 . S
Tb515 O550 2.421 . S
Tb515 O554 2.546 . S
Tb515 O555 2.610 . S
Tb515 O557 2.320 . S
Tb515 O558 2.552 . S
Tb515 O559 2.413 . S
Tb515 C579 2.833 . S
N516 C508 1.360 . S
N516 Tb515 2.660 . S
N516 C517 1.305 . S
C517 N516 1.305 . S
C517 C519 1.407 . S
C517 H524 0.930 . S
C518 C506 1.410 . S
C518 C519 1.345 . S
C518 H526 0.930 . S
C519 C517 1.407 . S
C519 C518 1.345 . S
C519 H521 0.930 . S
H520 C513 0.930 . S
H521 C519 0.930 . S
H522 C510 0.930 . S
H523 C511 0.931 . S
H524 C517 0.930 . S
H525 C539 0.930 . S
H526 C518 0.930 . S
H527 C545 0.930 . S
H528 C536 0.930 . S
H529 C543 0.931 . S
H530 C507 0.929 . S
H531 C537 0.930 1_545 S
H532 C570 0.930 . S
H533 C514 0.930 . S
H534 C569 0.929 1_545 S
N535 Tb504 2.660 . S
N535 C536 1.305 . S
N535 C540 1.360 . S
C536 H528 0.930 . S
C536 N535 1.305 . S
C536 C539 1.407 . S
C537 H531 0.930 1_565 S
C537 C538 1.410 . S
C537 C539 1.345 . S
C538 C537 1.410 . S
C538 C540 1.417 . S
C538 C570 1.432 1_565 S
C539 H525 0.930 . S
C539 C536 1.407 . S
C539 C537 1.345 . S
C540 N535 1.360 . S
C540 C538 1.417 . S
C540 C544 1.432 . S
H541 C546 0.930 . S
N542 Tb504 2.600 . S
N542 C544 1.359 . S
N542 C545 1.327 . S
C543 H529 0.931 . S
C543 C545 1.392 . S
C543 C546 1.370 . S
C544 C540 1.432 . S
C544 N542 1.359 . S
C544 C547 1.414 . S
C545 H527 0.930 . S
C545 N542 1.327 . S
C545 C543 1.392 . S
C546 H541 0.930 . S
C546 C543 1.370 . S
C546 C547 1.385 . S
C547 C544 1.414 . S
C547 C546 1.385 . S
C547 C569 1.444 . S
O548 Tb504 2.546 . S
O548 C568 1.251 . S
O549 Tb504 2.610 . S
O549 Tb515 2.362 . S
O549 C560 1.283 . S
O550 Tb515 2.421 . S
O550 C567 1.262 . S
O551 Tb504 2.320 . S
O551 C567 1.260 . S
O552 Tb504 2.552 . S
O552 C560 1.243 . S
O553 Tb504 2.413 . S
O553 C568 1.256 . S
O554 Tb515 2.546 . S
O554 C579 1.251 . S
O555 Tb504 2.362 . S
O555 Tb515 2.610 . S
O555 C571 1.283 . S
O556 Tb504 2.421 . S
O556 C578 1.262 . S
O557 Tb515 2.320 . S
O557 C578 1.260 . S
O558 Tb515 2.552 . S
O558 C571 1.243 . S
O559 Tb515 2.413 . S
O559 C579 1.256 . S
C560 O549 1.283 . S
C560 O552 1.243 . S
C561 C563 1.382 . S
C561 C565 1.393 . S
C561 C568 1.500 . S
C562 C563 1.400 . S
C562 C564 1.384 . S
C563 C561 1.382 . S
C563 C562 1.400 . S
C563 H580 0.930 . S
C564 C562 1.384 . S
C564 C566 1.392 . S
C564 H581 0.931 . S
C565 C561 1.393 . S
C565 C566 1.401 . S
C565 H582 0.930 . S
C566 C564 1.392 . S
C566 C565 1.401 . S
C566 H583 0.930 . S
C567 O550 1.262 . S
C567 O551 1.260 . S
C568 Tb504 2.833 . S
C568 O548 1.251 . S
C568 O553 1.256 . S
C568 C561 1.500 . S
C569 H534 0.929 1_565 S
C569 C547 1.444 . S
C569 C570 1.317 1_565 S
C570 H532 0.930 . S
C570 C538 1.432 1_545 S
C570 C569 1.317 1_545 S
C571 O555 1.283 . S
C571 O558 1.243 . S
C572 C573 1.382 . S
C572 C576 1.393 . S
C572 C579 1.500 . S
C573 C572 1.382 . S
C573 C574 1.400 . S
C573 H584 0.930 . S
C574 C573 1.400 . S
C574 C575 1.384 . S
C575 C574 1.384 . S
C575 C577 1.392 . S
C575 H585 0.931 . S
C576 C572 1.393 . S
C576 C577 1.401 . S
C576 H586 0.930 . S
C577 C575 1.392 . S
C577 C576 1.401 . S
C577 H587 0.930 . S
C578 O556 1.262 . S
C578 O557 1.260 . S
C579 Tb515 2.833 . S
C579 O554 1.251 . S
C579 O559 1.256 . S
C579 C572 1.500 . S
H580 C563 0.930 . S
H581 C564 0.931 . S
H582 C565 0.930 . S
H583 C566 0.930 . S
H584 C573 0.930 . S
H585 C575 0.931 . S
H586 C576 0.930 . S
H587 C577 0.930 . S
Tb588 N619 2.660 . S
Tb588 N626 2.600 . S
Tb588 O632 2.546 . S
Tb588 O633 2.610 . S
Tb588 O635 2.320 . S
Tb588 O636 2.552 . S
Tb588 O637 2.413 . S
Tb588 O639 2.362 . S
Tb588 O640 2.421 . S
Tb588 C652 2.833 . S
C589 C592 1.432 . S
C589 C593 1.414 . S
C589 N596 1.359 . S
C590 C592 1.417 . S
C590 C594 1.432 . S
C590 C602 1.410 . S
C591 C593 1.444 . S
C591 C594 1.317 . S
C591 H614 0.929 1_655 S
C592 C589 1.432 . S
C592 C590 1.417 . S
C592 N600 1.360 . S
C593 C589 1.414 . S
C593 C591 1.444 . S
C593 C598 1.385 . S
C594 C590 1.432 . S
C594 C591 1.317 . S
C594 H606 0.930 1_655 S
C595 C597 1.392 . S
C595 C598 1.370 . S
C595 H607 0.931 . S
N596 C589 1.359 . S
N596 C597 1.327 . S
N596 Tb599 2.600 . S
C597 C595 1.392 . S
C597 N596 1.327 . S
C597 H604 0.930 . S
C598 C593 1.385 . S
C598 C595 1.370 . S
C598 H617 0.930 . S
Tb599 N596 2.600 . S
Tb599 N600 2.660 . S
Tb599 O633 2.362 . S
Tb599 O634 2.421 . S
Tb599 O638 2.546 . S
Tb599 O639 2.610 . S
Tb599 O641 2.320 . S
Tb599 O642 2.552 . S
Tb599 O643 2.413 . S
Tb599 C663 2.833 . S
N600 C592 1.360 . S
N600 Tb599 2.660 . S
N600 C601 1.305 . S
C601 N600 1.305 . S
C601 C603 1.407 . S
C601 H608 0.930 . S
C602 C590 1.410 . S
C602 C603 1.345 . S
C602 H610 0.930 . S
C603 C601 1.407 . S
C603 C602 1.345 . S
C603 H605 0.930 . S
H604 C597 0.930 . S
H605 C603 0.930 . S
H606 C594 0.930 1_455 S
H607 C595 0.931 . S
H608 C601 0.930 . S
H609 C623 0.930 . S
H610 C602 0.930 . S
H611 C629 0.930 . S
H612 C620 0.930 . S
H613 C627 0.931 . S
H614 C591 0.929 1_455 S
H615 C621 0.930 . S
H616 C654 0.930 . S
H617 C598 0.930 . S
H618 C653 0.929 . S
N619 Tb588 2.660 . S
N619 C620 1.305 . S
N619 C624 1.360 . S
C620 H612 0.930 . S
C620 N619 1.305 . S
C620 C623 1.407 . S
C621 H615 0.930 . S
C621 C622 1.410 . S
C621 C623 1.345 . S
C622 C621 1.410 . S
C622 C624 1.417 . S
C622 C654 1.432 . S
C623 H609 0.930 . S
C623 C620 1.407 . S
C623 C621 1.345 . S
C624 N619 1.360 . S
C624 C622 1.417 . S
C624 C628 1.432 . S
H625 C630 0.930 . S
N626 Tb588 2.600 . S
N626 C628 1.359 . S
N626 C629 1.327 . S
C627 H613 0.931 . S
C627 C629 1.392 . S
C627 C630 1.370 . S
C628 C624 1.432 . S
C628 N626 1.359 . S
C628 C631 1.414 . S
C629 H611 0.930 . S
C629 N626 1.327 . S
C629 C627 1.392 . S
C630 H625 0.930 . S
C630 C627 1.370 . S
C630 C631 1.385 . S
C631 C628 1.414 . S
C631 C630 1.385 . S
C631 C653 1.444 . S
O632 Tb588 2.546 . S
O632 C652 1.251 . S
O633 Tb588 2.610 . S
O633 Tb599 2.362 . S
O633 C644 1.283 . S
O634 Tb599 2.421 . S
O634 C651 1.262 . S
O635 Tb588 2.320 . S
O635 C651 1.260 . S
O636 Tb588 2.552 . S
O636 C644 1.243 . S
O637 Tb588 2.413 . S
O637 C652 1.256 . S
O638 Tb599 2.546 . S
O638 C663 1.251 . S
O639 Tb588 2.362 . S
O639 Tb599 2.610 . S
O639 C655 1.283 . S
O640 Tb588 2.421 . S
O640 C662 1.262 . S
O641 Tb599 2.320 . S
O641 C662 1.260 . S
O642 Tb599 2.552 . S
O642 C655 1.243 . S
O643 Tb599 2.413 . S
O643 C663 1.256 . S
C644 O633 1.283 . S
C644 O636 1.243 . S
C645 C647 1.382 . S
C645 C649 1.393 . S
C645 C652 1.500 . S
C646 C647 1.400 . S
C646 C648 1.384 . S
C647 C645 1.382 . S
C647 C646 1.400 . S
C647 H664 0.930 . S
C648 C646 1.384 . S
C648 C650 1.392 . S
C648 H665 0.931 . S
C649 C645 1.393 . S
C649 C650 1.401 . S
C649 H666 0.930 . S
C650 C648 1.392 . S
C650 C649 1.401 . S
C650 H667 0.930 . S
C651 O634 1.262 . S
C651 O635 1.260 . S
C652 Tb588 2.833 . S
C652 O632 1.251 . S
C652 O637 1.256 . S
C652 C645 1.500 . S
C653 H618 0.929 . S
C653 C631 1.444 . S
C653 C654 1.317 . S
C654 H616 0.930 . S
C654 C622 1.432 . S
C654 C653 1.317 . S
C655 O639 1.283 . S
C655 O642 1.243 . S
C656 C657 1.382 . S
C656 C660 1.393 . S
C656 C663 1.500 1_455 S
C657 C656 1.382 . S
C657 C658 1.400 . S
C657 H668 0.930 . S
C658 C657 1.400 . S
C658 C659 1.384 . S
C659 C658 1.384 . S
C659 C661 1.392 . S
C659 H669 0.931 . S
C660 C656 1.393 . S
C660 C661 1.401 . S
C660 H670 0.930 . S
C661 C659 1.392 . S
C661 C660 1.401 . S
C661 H671 0.930 . S
C662 O640 1.262 . S
C662 O641 1.260 . S
C663 Tb599 2.833 . S
C663 O638 1.251 . S
C663 O643 1.256 . S
C663 C656 1.500 1_655 S
H664 C647 0.930 . S
H665 C648 0.931 . S
H666 C649 0.930 . S
H667 C650 0.930 . S
H668 C657 0.930 . S
H669 C659 0.931 . S
H670 C660 0.930 . S
H671 C661 0.930 . S
Tb672 N703 2.660 . S
Tb672 N710 2.600 . S
Tb672 O716 2.546 . S
Tb672 O717 2.610 . S
Tb672 O719 2.320 . S
Tb672 O720 2.552 . S
Tb672 O721 2.413 . S
Tb672 O723 2.362 . S
Tb672 O724 2.421 . S
Tb672 C736 2.833 . S
C673 C676 1.432 . S
C673 C677 1.414 . S
C673 N680 1.359 . S
C674 C676 1.417 . S
C674 C678 1.432 . S
C674 C686 1.410 . S
C675 C677 1.444 . S
C675 C678 1.317 . S
C675 H698 0.929 1_565 S
C676 C673 1.432 . S
C676 C674 1.417 . S
C676 N684 1.360 . S
C677 C673 1.414 . S
C677 C675 1.444 . S
C677 C682 1.385 . S
C678 C674 1.432 . S
C678 C675 1.317 . S
C678 H690 0.930 1_565 S
C679 C681 1.392 . S
C679 C682 1.370 . S
C679 H691 0.931 . S
N680 C673 1.359 . S
N680 C681 1.327 . S
N680 Tb683 2.600 . S
C681 C679 1.392 . S
C681 N680 1.327 . S
C681 H688 0.930 . S
C682 C677 1.385 . S
C682 C679 1.370 . S
C682 H701 0.930 . S
Tb683 N680 2.600 . S
Tb683 N684 2.660 . S
Tb683 O717 2.362 . S
Tb683 O718 2.421 . S
Tb683 O722 2.546 . S
Tb683 O723 2.610 . S
Tb683 O725 2.320 . S
Tb683 O726 2.552 . S
Tb683 O727 2.413 . S
Tb683 C747 2.833 . S
N684 C676 1.360 . S
N684 Tb683 2.660 . S
N684 C685 1.305 . S
C685 N684 1.305 . S
C685 C687 1.407 . S
C685 H692 0.930 . S
C686 C674 1.410 . S
C686 C687 1.345 . S
C686 H694 0.930 . S
C687 C685 1.407 . S
C687 C686 1.345 . S
C687 H689 0.930 . S
H688 C681 0.930 . S
H689 C687 0.930 . S
H690 C678 0.930 1_545 S
H691 C679 0.931 . S
H692 C685 0.930 . S
H693 C707 0.930 . S
H694 C686 0.930 . S
H695 C713 0.930 . S
H696 C704 0.930 . S
H697 C711 0.931 . S
H698 C675 0.929 1_545 S
H699 C705 0.930 1_655 S
H700 C738 0.930 . S
H701 C682 0.930 . S
H702 C737 0.929 1_655 S
N703 Tb672 2.660 . S
N703 C704 1.305 . S
N703 C708 1.360 . S
C704 H696 0.930 . S
C704 N703 1.305 . S
C704 C707 1.407 . S
C705 H699 0.930 1_455 S
C705 C706 1.410 . S
C705 C707 1.345 . S
C706 C705 1.410 . S
C706 C708 1.417 . S
C706 C738 1.432 1_455 S
C707 H693 0.930 . S
C707 C704 1.407 . S
C707 C705 1.345 . S
C708 N703 1.360 . S
C708 C706 1.417 . S
C708 C712 1.432 . S
H709 C714 0.930 . S
N710 Tb672 2.600 . S
N710 C712 1.359 . S
N710 C713 1.327 . S
C711 H697 0.931 . S
C711 C713 1.392 . S
C711 C714 1.370 . S
C712 C708 1.432 . S
C712 N710 1.359 . S
C712 C715 1.414 . S
C713 H695 0.930 . S
C713 N710 1.327 . S
C713 C711 1.392 . S
C714 H709 0.930 . S
C714 C711 1.370 . S
C714 C715 1.385 . S
C715 C712 1.414 . S
C715 C714 1.385 . S
C715 C737 1.444 . S
O716 Tb672 2.546 . S
O716 C736 1.251 . S
O717 Tb672 2.610 . S
O717 Tb683 2.362 . S
O717 C728 1.283 . S
O718 Tb683 2.421 . S
O718 C735 1.262 . S
O719 Tb672 2.320 . S
O719 C735 1.260 . S
O720 Tb672 2.552 . S
O720 C728 1.243 . S
O721 Tb672 2.413 . S
O721 C736 1.256 . S
O722 Tb683 2.546 . S
O722 C747 1.251 . S
O723 Tb672 2.362 . S
O723 Tb683 2.610 . S
O723 C739 1.283 . S
O724 Tb672 2.421 . S
O724 C746 1.262 . S
O725 Tb683 2.320 . S
O725 C746 1.260 . S
O726 Tb683 2.552 . S
O726 C739 1.243 . S
O727 Tb683 2.413 . S
O727 C747 1.256 . S
C728 O717 1.283 . S
C728 O720 1.243 . S
C729 C731 1.382 . S
C729 C733 1.393 . S
C729 C736 1.500 . S
C730 C731 1.400 . S
C730 C732 1.384 . S
C731 C729 1.382 . S
C731 C730 1.400 . S
C731 H748 0.930 . S
C732 C730 1.384 . S
C732 C734 1.392 . S
C732 H749 0.931 . S
C733 C729 1.393 . S
C733 C734 1.401 . S
C733 H750 0.930 . S
C734 C732 1.392 . S
C734 C733 1.401 . S
C734 H751 0.930 . S
C735 O718 1.262 . S
C735 O719 1.260 . S
C736 Tb672 2.833 . S
C736 O716 1.251 . S
C736 O721 1.256 . S
C736 C729 1.500 . S
C737 H702 0.929 1_455 S
C737 C715 1.444 . S
C737 C738 1.317 1_455 S
C738 H700 0.930 . S
C738 C706 1.432 1_655 S
C738 C737 1.317 1_655 S
C739 O723 1.283 . S
C739 O726 1.243 . S
C740 C741 1.382 . S
C740 C744 1.393 . S
C740 C747 1.500 1_545 S
C741 C740 1.382 . S
C741 C742 1.400 . S
C741 H752 0.930 . S
C742 C741 1.400 . S
C742 C743 1.384 . S
C743 C742 1.384 . S
C743 C745 1.392 . S
C743 H753 0.931 . S
C744 C740 1.393 . S
C744 C745 1.401 . S
C744 H754 0.930 . S
C745 C743 1.392 . S
C745 C744 1.401 . S
C745 H755 0.930 . S
C746 O724 1.262 . S
C746 O725 1.260 . S
C747 Tb683 2.833 . S
C747 O722 1.251 . S
C747 O727 1.256 . S
C747 C740 1.500 1_565 S
H748 C731 0.930 . S
H749 C732 0.931 . S
H750 C733 0.930 . S
H751 C734 0.930 . S
H752 C741 0.930 . S
H753 C743 0.931 . S
H754 C744 0.930 . S
H755 C745 0.930 . S
Tb756 N787 2.660 . S
Tb756 N794 2.600 . S
Tb756 O800 2.546 . S
Tb756 O801 2.610 . S
Tb756 O803 2.320 . S
Tb756 O804 2.552 . S
Tb756 O805 2.413 . S
Tb756 O807 2.362 . S
Tb756 O808 2.421 . S
Tb756 C820 2.833 . S
C757 C760 1.432 . S
C757 C761 1.414 . S
C757 N764 1.359 . S
C758 C760 1.417 . S
C758 C762 1.432 . S
C758 C770 1.410 . S
C759 C761 1.444 . S
C759 C762 1.317 . S
C759 H782 0.929 . S
C760 C757 1.432 . S
C760 C758 1.417 . S
C760 N768 1.360 . S
C761 C757 1.414 . S
C761 C759 1.444 . S
C761 C766 1.385 . S
C762 C758 1.432 . S
C762 C759 1.317 . S
C762 H774 0.930 . S
C763 C765 1.392 . S
C763 C766 1.370 . S
C763 H775 0.931 . S
N764 C757 1.359 . S
N764 C765 1.327 . S
N764 Tb767 2.600 . S
C765 C763 1.392 . S
C765 N764 1.327 . S
C765 H772 0.930 . S
C766 C761 1.385 . S
C766 C763 1.370 . S
C766 H785 0.930 . S
Tb767 N764 2.600 . S
Tb767 N768 2.660 . S
Tb767 O801 2.362 . S
Tb767 O802 2.421 . S
Tb767 O806 2.546 . S
Tb767 O807 2.610 . S
Tb767 O809 2.320 . S
Tb767 O810 2.552 . S
Tb767 O811 2.413 . S
Tb767 C831 2.833 . S
N768 C760 1.360 . S
N768 Tb767 2.660 . S
N768 C769 1.305 . S
C769 N768 1.305 . S
C769 C771 1.407 . S
C769 H776 0.930 . S
C770 C758 1.410 . S
C770 C771 1.345 . S
C770 H778 0.930 . S
C771 C769 1.407 . S
C771 C770 1.345 . S
C771 H773 0.930 . S
H772 C765 0.930 . S
H773 C771 0.930 . S
H774 C762 0.930 . S
H775 C763 0.931 . S
H776 C769 0.930 . S
H777 C791 0.930 . S
H778 C770 0.930 . S
H779 C797 0.930 . S
H780 C788 0.930 . S
H781 C795 0.931 . S
H782 C759 0.929 . S
H783 C789 0.930 1_565 S
H784 C822 0.930 . S
H785 C766 0.930 . S
H786 C821 0.929 1_565 S
N787 Tb756 2.660 . S
N787 C788 1.305 . S
N787 C792 1.360 . S
C788 H780 0.930 . S
C788 N787 1.305 . S
C788 C791 1.407 . S
C789 H783 0.930 1_545 S
C789 C790 1.410 . S
C789 C791 1.345 . S
C790 C789 1.410 . S
C790 C792 1.417 . S
C790 C822 1.432 1_545 S
C791 H777 0.930 . S
C791 C788 1.407 . S
C791 C789 1.345 . S
C792 N787 1.360 . S
C792 C790 1.417 . S
C792 C796 1.432 . S
H793 C798 0.930 . S
N794 Tb756 2.600 . S
N794 C796 1.359 . S
N794 C797 1.327 . S
C795 H781 0.931 . S
C795 C797 1.392 . S
C795 C798 1.370 . S
C796 C792 1.432 . S
C796 N794 1.359 . S
C796 C799 1.414 . S
C797 H779 0.930 . S
C797 N794 1.327 . S
C797 C795 1.392 . S
C798 H793 0.930 . S
C798 C795 1.370 . S
C798 C799 1.385 . S
C799 C796 1.414 . S
C799 C798 1.385 . S
C799 C821 1.444 . S
O800 Tb756 2.546 . S
O800 C820 1.251 . S
O801 Tb756 2.610 . S
O801 Tb767 2.362 . S
O801 C812 1.283 . S
O802 Tb767 2.421 . S
O802 C819 1.262 . S
O803 Tb756 2.320 . S
O803 C819 1.260 . S
O804 Tb756 2.552 . S
O804 C812 1.243 . S
O805 Tb756 2.413 . S
O805 C820 1.256 . S
O806 Tb767 2.546 . S
O806 C831 1.251 . S
O807 Tb756 2.362 . S
O807 Tb767 2.610 . S
O807 C823 1.283 . S
O808 Tb756 2.421 . S
O808 C830 1.262 . S
O809 Tb767 2.320 . S
O809 C830 1.260 . S
O810 Tb767 2.552 . S
O810 C823 1.243 . S
O811 Tb767 2.413 . S
O811 C831 1.256 . S
C812 O801 1.283 . S
C812 O804 1.243 . S
C813 C815 1.382 . S
C813 C817 1.393 . S
C813 C820 1.500 . S
C814 C815 1.400 . S
C814 C816 1.384 . S
C815 C813 1.382 . S
C815 C814 1.400 . S
C815 H832 0.930 . S
C816 C814 1.384 . S
C816 C818 1.392 . S
C816 H833 0.931 . S
C817 C813 1.393 . S
C817 C818 1.401 . S
C817 H834 0.930 . S
C818 C816 1.392 . S
C818 C817 1.401 . S
C818 H835 0.930 . S
C819 O802 1.262 . S
C819 O803 1.260 . S
C820 Tb756 2.833 . S
C820 O800 1.251 . S
C820 O805 1.256 . S
C820 C813 1.500 . S
C821 H786 0.929 1_545 S
C821 C799 1.444 . S
C821 C822 1.317 1_545 S
C822 H784 0.930 . S
C822 C790 1.432 1_565 S
C822 C821 1.317 1_565 S
C823 O807 1.283 . S
C823 O810 1.243 . S
C824 C825 1.382 . S
C824 C828 1.393 . S
C824 C831 1.500 . S
C825 C824 1.382 . S
C825 C826 1.400 . S
C825 H836 0.930 . S
C826 C825 1.400 . S
C826 C827 1.384 . S
C827 C826 1.384 . S
C827 C829 1.392 . S
C827 H837 0.931 . S
C828 C824 1.393 . S
C828 C829 1.401 . S
C828 H838 0.930 . S
C829 C827 1.392 . S
C829 C828 1.401 . S
C829 H839 0.930 . S
C830 O808 1.262 . S
C830 O809 1.260 . S
C831 Tb767 2.833 . S
C831 O806 1.251 . S
C831 O811 1.256 . S
C831 C824 1.500 . S
H832 C815 0.930 . S
H833 C816 0.931 . S
H834 C817 0.930 . S
H835 C818 0.930 . S
H836 C825 0.930 . S
H837 C827 0.931 . S
H838 C828 0.930 . S
H839 C829 0.930 . S
Tb840 N871 2.660 . S
Tb840 N878 2.600 . S
Tb840 O884 2.546 . S
Tb840 O885 2.610 . S
Tb840 O887 2.320 . S
Tb840 O888 2.552 . S
Tb840 O889 2.413 . S
Tb840 O891 2.362 . S
Tb840 O892 2.421 . S
Tb840 C904 2.833 . S
C841 C844 1.432 . S
C841 C845 1.414 . S
C841 N848 1.359 . S
C842 C844 1.417 . S
C842 C846 1.432 . S
C842 C854 1.410 . S
C843 C845 1.444 . S
C843 C846 1.317 . S
C843 H866 0.929 1_455 S
C844 C841 1.432 . S
C844 C842 1.417 . S
C844 N852 1.360 . S
C845 C841 1.414 . S
C845 C843 1.444 . S
C845 C850 1.385 . S
C846 C842 1.432 . S
C846 C843 1.317 . S
C846 H858 0.930 1_455 S
C847 C849 1.392 . S
C847 C850 1.370 . S
C847 H859 0.931 . S
N848 C841 1.359 . S
N848 C849 1.327 . S
N848 Tb851 2.600 . S
C849 C847 1.392 . S
C849 N848 1.327 . S
C849 H856 0.930 . S
C850 C845 1.385 . S
C850 C847 1.370 . S
C850 H869 0.930 . S
Tb851 N848 2.600 . S
Tb851 N852 2.660 . S
Tb851 O885 2.362 . S
Tb851 O886 2.421 . S
Tb851 O890 2.546 . S
Tb851 O891 2.610 . S
Tb851 O893 2.320 . S
Tb851 O894 2.552 . S
Tb851 O895 2.413 . S
Tb851 C915 2.833 . S
N852 C844 1.360 . S
N852 Tb851 2.660 . S
N852 C853 1.305 . S
C853 N852 1.305 . S
C853 C855 1.407 . S
C853 H860 0.930 . S
C854 C842 1.410 . S
C854 C855 1.345 . S
C854 H862 0.930 . S
C855 C853 1.407 . S
C855 C854 1.345 . S
C855 H857 0.930 . S
H856 C849 0.930 . S
H857 C855 0.930 . S
H858 C846 0.930 1_655 S
H859 C847 0.931 . S
H860 C853 0.930 . S
H861 C875 0.930 . S
H862 C854 0.930 . S
H863 C881 0.930 . S
H864 C872 0.930 . S
H865 C879 0.931 . S
H866 C843 0.929 1_655 S
H867 C873 0.930 . S
H868 C906 0.930 . S
H869 C850 0.930 . S
H870 C905 0.929 . S
N871 Tb840 2.660 . S
N871 C872 1.305 . S
N871 C876 1.360 . S
C872 H864 0.930 . S
C872 N871 1.305 . S
C872 C875 1.407 . S
C873 H867 0.930 . S
C873 C874 1.410 . S
C873 C875 1.345 . S
C874 C873 1.410 . S
C874 C876 1.417 . S
C874 C906 1.432 . S
C875 H861 0.930 . S
C875 C872 1.407 . S
C875 C873 1.345 . S
C876 N871 1.360 . S
C876 C874 1.417 . S
C876 C880 1.432 . S
H877 C882 0.930 . S
N878 Tb840 2.600 . S
N878 C880 1.359 . S
N878 C881 1.327 . S
C879 H865 0.931 . S
C879 C881 1.392 . S
C879 C882 1.370 . S
C880 C876 1.432 . S
C880 N878 1.359 . S
C880 C883 1.414 . S
C881 H863 0.930 . S
C881 N878 1.327 . S
C881 C879 1.392 . S
C882 H877 0.930 . S
C882 C879 1.370 . S
C882 C883 1.385 . S
C883 C880 1.414 . S
C883 C882 1.385 . S
C883 C905 1.444 . S
O884 Tb840 2.546 . S
O884 C904 1.251 . S
O885 Tb840 2.610 . S
O885 Tb851 2.362 . S
O885 C896 1.283 . S
O886 Tb851 2.421 . S
O886 C903 1.262 . S
O887 Tb840 2.320 . S
O887 C903 1.260 . S
O888 Tb840 2.552 . S
O888 C896 1.243 . S
O889 Tb840 2.413 . S
O889 C904 1.256 . S
O890 Tb851 2.546 . S
O890 C915 1.251 . S
O891 Tb840 2.362 . S
O891 Tb851 2.610 . S
O891 C907 1.283 . S
O892 Tb840 2.421 . S
O892 C914 1.262 . S
O893 Tb851 2.320 . S
O893 C914 1.260 . S
O894 Tb851 2.552 . S
O894 C907 1.243 . S
O895 Tb851 2.413 . S
O895 C915 1.256 . S
C896 O885 1.283 . S
C896 O888 1.243 . S
C897 C899 1.382 . S
C897 C901 1.393 . S
C897 C904 1.500 . S
C898 C899 1.400 . S
C898 C900 1.384 . S
C899 C897 1.382 . S
C899 C898 1.400 . S
C899 H916 0.930 . S
C900 C898 1.384 . S
C900 C902 1.392 . S
C900 H917 0.931 . S
C901 C897 1.393 . S
C901 C902 1.401 . S
C901 H918 0.930 . S
C902 C900 1.392 . S
C902 C901 1.401 . S
C902 H919 0.930 . S
C903 O886 1.262 . S
C903 O887 1.260 . S
C904 Tb840 2.833 . S
C904 O884 1.251 . S
C904 O889 1.256 . S
C904 C897 1.500 . S
C905 H870 0.929 . S
C905 C883 1.444 . S
C905 C906 1.317 . S
C906 H868 0.930 . S
C906 C874 1.432 . S
C906 C905 1.317 . S
C907 O891 1.283 . S
C907 O894 1.243 . S
C908 C909 1.382 . S
C908 C912 1.393 . S
C908 C915 1.500 1_655 S
C909 C908 1.382 . S
C909 C910 1.400 . S
C909 H920 0.930 . S
C910 C909 1.400 . S
C910 C911 1.384 . S
C911 C910 1.384 . S
C911 C913 1.392 . S
C911 H921 0.931 . S
C912 C908 1.393 . S
C912 C913 1.401 . S
C912 H922 0.930 . S
C913 C911 1.392 . S
C913 C912 1.401 . S
C913 H923 0.930 . S
C914 O892 1.262 . S
C914 O893 1.260 . S
C915 Tb851 2.833 . S
C915 O890 1.251 . S
C915 O895 1.256 . S
C915 C908 1.500 1_455 S
H916 C899 0.930 . S
H917 C900 0.931 . S
H918 C901 0.930 . S
H919 C902 0.930 . S
H920 C909 0.930 . S
H921 C911 0.931 . S
H922 C912 0.930 . S
H923 C913 0.930 . S
Tb924 N955 2.660 . S
Tb924 N962 2.600 . S
Tb924 O968 2.546 . S
Tb924 O969 2.610 . S
Tb924 O971 2.320 . S
Tb924 O972 2.552 . S
Tb924 O973 2.413 . S
Tb924 O975 2.362 . S
Tb924 O976 2.421 . S
Tb924 C988 2.833 . S
C925 C928 1.432 . S
C925 C929 1.414 . S
C925 N932 1.359 . S
C926 C928 1.417 . S
C926 C930 1.432 . S
C926 C938 1.410 . S
C927 C929 1.444 . S
C927 C930 1.317 . S
C927 H950 0.929 1_545 S
C928 C925 1.432 . S
C928 C926 1.417 . S
C928 N936 1.360 . S
C929 C925 1.414 . S
C929 C927 1.444 . S
C929 C934 1.385 . S
C930 C926 1.432 . S
C930 C927 1.317 . S
C930 H942 0.930 1_545 S
C931 C933 1.392 . S
C931 C934 1.370 . S
C931 H943 0.931 . S
N932 C925 1.359 . S
N932 C933 1.327 . S
N932 Tb935 2.600 . S
C933 C931 1.392 . S
C933 N932 1.327 . S
C933 H940 0.930 . S
C934 C929 1.385 . S
C934 C931 1.370 . S
C934 H953 0.930 . S
Tb935 N932 2.600 . S
Tb935 N936 2.660 . S
Tb935 O969 2.362 . S
Tb935 O970 2.421 . S
Tb935 O974 2.546 . S
Tb935 O975 2.610 . S
Tb935 O977 2.320 . S
Tb935 O978 2.552 . S
Tb935 O979 2.413 . S
Tb935 C999 2.833 . S
N936 C928 1.360 . S
N936 Tb935 2.660 . S
N936 C937 1.305 . S
C937 N936 1.305 . S
C937 C939 1.407 . S
C937 H944 0.930 . S
C938 C926 1.410 . S
C938 C939 1.345 . S
C938 H946 0.930 . S
C939 C937 1.407 . S
C939 C938 1.345 . S
C939 H941 0.930 . S
H940 C933 0.930 . S
H941 C939 0.930 . S
H942 C930 0.930 1_565 S
H943 C931 0.931 . S
H944 C937 0.930 . S
H945 C959 0.930 . S
H946 C938 0.930 . S
H947 C965 0.930 . S
H948 C956 0.930 . S
H949 C963 0.931 . S
H950 C927 0.929 1_565 S
H951 C957 0.930 1_455 S
H952 C990 0.930 . S
H953 C934 0.930 . S
H954 C989 0.929 1_455 S
N955 Tb924 2.660 . S
N955 C956 1.305 . S
N955 C960 1.360 . S
C956 H948 0.930 . S
C956 N955 1.305 . S
C956 C959 1.407 . S
C957 H951 0.930 1_655 S
C957 C958 1.410 . S
C957 C959 1.345 . S
C958 C957 1.410 . S
C958 C960 1.417 . S
C958 C990 1.432 1_655 S
C959 H945 0.930 . S
C959 C956 1.407 . S
C959 C957 1.345 . S
C960 N955 1.360 . S
C960 C958 1.417 . S
C960 C964 1.432 . S
H961 C966 0.930 . S
N962 Tb924 2.600 . S
N962 C964 1.359 . S
N962 C965 1.327 . S
C963 H949 0.931 . S
C963 C965 1.392 . S
C963 C966 1.370 . S
C964 C960 1.432 . S
C964 N962 1.359 . S
C964 C967 1.414 . S
C965 H947 0.930 . S
C965 N962 1.327 . S
C965 C963 1.392 . S
C966 H961 0.930 . S
C966 C963 1.370 . S
C966 C967 1.385 . S
C967 C964 1.414 . S
C967 C966 1.385 . S
C967 C989 1.444 . S
O968 Tb924 2.546 . S
O968 C988 1.251 . S
O969 Tb924 2.610 . S
O969 Tb935 2.362 . S
O969 C980 1.283 . S
O970 Tb935 2.421 . S
O970 C987 1.262 . S
O971 Tb924 2.320 . S
O971 C987 1.260 . S
O972 Tb924 2.552 . S
O972 C980 1.243 . S
O973 Tb924 2.413 . S
O973 C988 1.256 . S
O974 Tb935 2.546 . S
O974 C999 1.251 . S
O975 Tb924 2.362 . S
O975 Tb935 2.610 . S
O975 C991 1.283 . S
O976 Tb924 2.421 . S
O976 C998 1.262 . S
O977 Tb935 2.320 . S
O977 C998 1.260 . S
O978 Tb935 2.552 . S
O978 C991 1.243 . S
O979 Tb935 2.413 . S
O979 C999 1.256 . S
C980 O969 1.283 . S
C980 O972 1.243 . S
C981 C983 1.382 . S
C981 C985 1.393 . S
C981 C988 1.500 . S
C982 C983 1.400 . S
C982 C984 1.384 . S
C983 C981 1.382 . S
C983 C982 1.400 . S
C983 H1000 0.930 . S
C984 C982 1.384 . S
C984 C986 1.392 . S
C984 H1001 0.931 . S
C985 C981 1.393 . S
C985 C986 1.401 . S
C985 H1002 0.930 . S
C986 C984 1.392 . S
C986 C985 1.401 . S
C986 H1003 0.930 . S
C987 O970 1.262 . S
C987 O971 1.260 . S
C988 Tb924 2.833 . S
C988 O968 1.251 . S
C988 O973 1.256 . S
C988 C981 1.500 . S
C989 H954 0.929 1_655 S
C989 C967 1.444 . S
C989 C990 1.317 1_655 S
C990 H952 0.930 . S
C990 C958 1.432 1_455 S
C990 C989 1.317 1_455 S
C991 O975 1.283 . S
C991 O978 1.243 . S
C992 C993 1.382 . S
C992 C996 1.393 . S
C992 C999 1.500 1_565 S
C993 C992 1.382 . S
C993 C994 1.400 . S
C993 H1004 0.930 . S
C994 C993 1.400 . S
C994 C995 1.384 . S
C995 C994 1.384 . S
C995 C997 1.392 . S
C995 H1005 0.931 . S
C996 C992 1.393 . S
C996 C997 1.401 . S
C996 H1006 0.930 . S
C997 C995 1.392 . S
C997 C996 1.401 . S
C997 H1007 0.930 . S
C998 O976 1.262 . S
C998 O977 1.260 . S
C999 Tb935 2.833 . S
C999 O974 1.251 . S
C999 O979 1.256 . S
C999 C992 1.500 1_545 S
H1000 C983 0.930 . S
H1001 C984 0.931 . S
H1002 C985 0.930 . S
H1003 C986 0.930 . S
H1004 C993 0.930 . S
H1005 C995 0.931 . S
H1006 C996 0.930 . S
H1007 C997 0.930 . S
C1008 C1009 1.391 . S
C1008 C1010 1.394 . S
C1008 H1024 0.931 . S
C1009 C1008 1.391 . S
C1009 C1013 1.376 . S
C1010 C1008 1.394 . S
C1010 C1011 1.369 . S
C1010 C1014 1.531 1_565 S
C1011 C1010 1.369 . S
C1011 C1012 1.410 . S
C1011 C1019 1.503 1_565 S
C1012 C1011 1.410 . S
C1012 C1013 1.392 . S
C1012 C1015 1.511 . S
C1013 C1009 1.376 . S
C1013 C1012 1.392 . S
C1013 H1025 0.929 . S
C1014 C1010 1.531 1_545 S
C1014 H1026 0.960 . S
C1014 H1027 0.962 . S
C1014 H1028 0.957 1_545 S
C1015 C1012 1.511 . S
C1015 H1029 0.961 . S
C1015 H1030 0.961 . S
C1015 H1031 0.961 . S
C1016 C1017 1.370 . S
C1016 C1018 1.363 . S
C1016 H1032 0.931 . S
C1017 C1016 1.370 . S
C1017 C1021 1.408 . S
C1018 C1016 1.363 . S
C1018 C1019 1.370 . S
C1018 C1022 1.524 . S
C1019 C1011 1.503 1_545 S
C1019 C1018 1.370 . S
C1019 C1020 1.403 . S
C1020 C1019 1.403 . S
C1020 C1021 1.404 . S
C1020 C1023 1.539 . S
C1021 C1017 1.408 . S
C1021 C1020 1.404 . S
C1021 H1033 0.930 . S
C1022 C1018 1.524 . S
C1022 H1034 0.956 . S
C1022 H1035 0.961 . S
C1022 H1036 0.961 . S
C1023 C1020 1.539 . S
C1023 H1037 0.958 . S
C1023 H1038 0.961 . S
C1023 H1039 0.960 1_545 S
H1024 C1008 0.931 . S
H1025 C1013 0.929 . S
H1026 C1014 0.960 . S
H1027 C1014 0.962 . S
H1028 C1014 0.957 1_565 S
H1029 C1015 0.961 . S
H1030 C1015 0.961 . S
H1031 C1015 0.961 . S
H1032 C1016 0.931 . S
H1033 C1021 0.930 . S
H1034 C1022 0.956 . S
H1035 C1022 0.961 . S
H1036 C1022 0.961 . S
H1037 C1023 0.958 . S
H1038 C1023 0.961 . S
H1039 C1023 0.960 1_565 S
C1040 C1041 1.391 . S
C1040 C1042 1.394 . S
C1040 H1056 0.931 . S
C1041 C1040 1.391 . S
C1041 C1045 1.376 . S
C1042 C1040 1.394 . S
C1042 C1043 1.369 . S
C1042 C1046 1.531 . S
C1043 C1042 1.369 . S
C1043 C1044 1.410 . S
C1043 C1051 1.503 . S
C1044 C1043 1.410 . S
C1044 C1045 1.392 . S
C1044 C1047 1.511 . S
C1045 C1041 1.376 . S
C1045 C1044 1.392 . S
C1045 H1057 0.929 . S
C1046 C1042 1.531 . S
C1046 H1058 0.960 . S
C1046 H1059 0.962 . S
C1046 H1060 0.960 . S
C1047 C1044 1.511 . S
C1047 H1061 0.961 . S
C1047 H1062 0.961 . S
C1047 H1063 0.961 . S
C1048 C1049 1.370 . S
C1048 C1050 1.363 . S
C1048 H1064 0.931 . S
C1049 C1048 1.370 . S
C1049 C1053 1.408 . S
C1050 C1048 1.363 . S
C1050 C1051 1.370 . S
C1050 C1054 1.524 . S
C1051 C1043 1.503 . S
C1051 C1050 1.370 . S
C1051 C1052 1.403 . S
C1052 C1051 1.403 . S
C1052 C1053 1.404 . S
C1052 C1055 1.539 . S
C1053 C1049 1.408 . S
C1053 C1052 1.404 . S
C1053 H1065 0.930 . S
C1054 C1050 1.524 . S
C1054 H1066 0.956 . S
C1054 H1067 0.961 . S
C1054 H1068 0.961 . S
C1055 C1052 1.539 . S
C1055 H1069 0.958 . S
C1055 H1070 0.961 . S
C1055 H1071 0.960 . S
H1056 C1040 0.931 . S
H1057 C1045 0.929 . S
H1058 C1046 0.960 . S
H1059 C1046 0.962 . S
H1060 C1046 0.960 . S
H1061 C1047 0.961 . S
H1062 C1047 0.961 . S
H1063 C1047 0.961 . S
H1064 C1048 0.931 . S
H1065 C1053 0.930 . S
H1066 C1054 0.956 . S
H1067 C1054 0.961 . S
H1068 C1054 0.961 . S
H1069 C1055 0.958 . S
H1070 C1055 0.961 . S
H1071 C1055 0.960 . S
C1072 C1073 1.391 . S
C1072 C1074 1.394 . S
C1072 H1088 0.931 . S
C1073 C1072 1.391 . S
C1073 C1077 1.376 . S
C1074 C1072 1.394 . S
C1074 C1075 1.369 . S
C1074 C1078 1.531 . S
C1075 C1074 1.369 . S
C1075 C1076 1.410 . S
C1075 C1083 1.503 1_655 S
C1076 C1075 1.410 . S
C1076 C1077 1.392 . S
C1076 C1079 1.511 . S
C1077 C1073 1.376 . S
C1077 C1076 1.392 . S
C1077 H1089 0.929 . S
C1078 C1074 1.531 . S
C1078 H1090 0.960 1_655 S
C1078 H1091 0.962 1_655 S
C1078 H1092 0.960 . S
C1079 C1076 1.511 . S
C1079 H1093 0.961 . S
C1079 H1094 0.961 . S
C1079 H1095 0.961 . S
C1080 C1081 1.370 . S
C1080 C1082 1.363 . S
C1080 H1096 0.931 . S
C1081 C1080 1.370 . S
C1081 C1085 1.408 . S
C1082 C1080 1.363 . S
C1082 C1083 1.370 . S
C1082 C1086 1.524 . S
C1083 C1075 1.503 1_455 S
C1083 C1082 1.370 . S
C1083 C1084 1.403 . S
C1084 C1083 1.403 . S
C1084 C1085 1.404 . S
C1084 C1087 1.539 1_455 S
C1085 C1081 1.408 . S
C1085 C1084 1.404 . S
C1085 H1097 0.930 . S
C1086 C1082 1.524 . S
C1086 H1098 0.956 . S
C1086 H1099 0.961 1_455 S
C1086 H1100 0.961 . S
C1087 C1084 1.539 1_655 S
C1087 H1101 0.958 . S
C1087 H1102 0.961 1_655 S
C1087 H1103 0.960 . S
H1088 C1072 0.931 . S
H1089 C1077 0.929 . S
H1090 C1078 0.960 1_455 S
H1091 C1078 0.962 1_455 S
H1092 C1078 0.960 . S
H1093 C1079 0.961 . S
H1094 C1079 0.961 . S
H1095 C1079 0.961 . S
H1096 C1080 0.931 . S
H1097 C1085 0.930 . S
H1098 C1086 0.956 . S
H1099 C1086 0.961 1_655 S
H1100 C1086 0.961 . S
H1101 C1087 0.958 . S
H1102 C1087 0.961 1_455 S
H1103 C1087 0.960 . S
C1104 C1105 1.391 . S
C1104 C1106 1.394 . S
C1104 H1120 0.931 . S
C1105 C1104 1.391 . S
C1105 C1109 1.376 . S
C1106 C1104 1.394 . S
C1106 C1107 1.369 . S
C1106 C1110 1.531 . S
C1107 C1106 1.369 . S
C1107 C1108 1.410 . S
C1107 C1115 1.503 1_565 S
C1108 C1107 1.410 . S
C1108 C1109 1.392 . S
C1108 C1111 1.511 . S
C1109 C1105 1.376 . S
C1109 C1108 1.392 . S
C1109 H1121 0.929 . S
C1110 C1106 1.531 . S
C1110 H1122 0.960 1_565 S
C1110 H1123 0.962 . S
C1110 H1124 0.960 . S
C1111 C1108 1.511 . S
C1111 H1125 0.961 . S
C1111 H1126 0.961 . S
C1111 H1127 0.961 . S
C1112 C1113 1.370 . S
C1112 C1114 1.363 . S
C1112 H1128 0.931 . S
C1113 C1112 1.370 . S
C1113 C1117 1.408 . S
C1114 C1112 1.363 . S
C1114 C1115 1.370 . S
C1114 C1118 1.524 1_545 S
C1115 C1107 1.503 1_545 S
C1115 C1114 1.370 . S
C1115 C1116 1.403 . S
C1116 C1115 1.403 . S
C1116 C1117 1.404 . S
C1116 C1119 1.539 . S
C1117 C1113 1.408 . S
C1117 C1116 1.404 . S
C1117 H1129 0.930 . S
C1118 C1114 1.524 1_565 S
C1118 H1130 0.956 . S
C1118 H1131 0.961 . S
C1118 H1132 0.961 1_565 S
C1119 C1116 1.539 . S
C1119 H1133 0.958 . S
C1119 H1134 0.961 . S
C1119 H1135 0.960 . S
H1120 C1104 0.931 . S
H1121 C1109 0.929 . S
H1122 C1110 0.960 1_545 S
H1123 C1110 0.962 . S
H1124 C1110 0.960 . S
H1125 C1111 0.961 . S
H1126 C1111 0.961 . S
H1127 C1111 0.961 . S
H1128 C1112 0.931 . S
H1129 C1117 0.930 . S
H1130 C1118 0.956 . S
H1131 C1118 0.961 . S
H1132 C1118 0.961 1_545 S
H1133 C1119 0.958 . S
H1134 C1119 0.961 . S
H1135 C1119 0.960 . S
C1136 C1137 1.391 . S
C1136 C1138 1.394 . S
C1136 H1152 0.931 . S
C1137 C1136 1.391 . S
C1137 C1141 1.376 . S
C1138 C1136 1.394 . S
C1138 C1139 1.369 . S
C1138 C1142 1.531 . S
C1139 C1138 1.369 . S
C1139 C1140 1.410 . S
C1139 C1147 1.503 . S
C1140 C1139 1.410 . S
C1140 C1141 1.392 . S
C1140 C1143 1.511 . S
C1141 C1137 1.376 . S
C1141 C1140 1.392 . S
C1141 H1153 0.929 . S
C1142 C1138 1.531 . S
C1142 H1154 0.960 . S
C1142 H1155 0.962 . S
C1142 H1156 0.960 . S
C1143 C1140 1.511 . S
C1143 H1157 0.961 . S
C1143 H1158 0.961 . S
C1143 H1159 0.961 . S
C1144 C1145 1.370 . S
C1144 C1146 1.363 . S
C1144 H1160 0.931 . S
C1145 C1144 1.370 . S
C1145 C1149 1.408 . S
C1146 C1144 1.363 . S
C1146 C1147 1.370 . S
C1146 C1150 1.524 . S
C1147 C1139 1.503 . S
C1147 C1146 1.370 . S
C1147 C1148 1.403 . S
C1148 C1147 1.403 . S
C1148 C1149 1.404 . S
C1148 C1151 1.539 . S
C1149 C1145 1.408 . S
C1149 C1148 1.404 . S
C1149 H1161 0.930 . S
C1150 C1146 1.524 . S
C1150 H1162 0.956 . S
C1150 H1163 0.961 . S
C1150 H1164 0.961 . S
C1151 C1148 1.539 . S
C1151 H1165 0.958 . S
C1151 H1166 0.961 . S
C1151 H1167 0.960 . S
H1152 C1136 0.931 . S
H1153 C1141 0.929 . S
H1154 C1142 0.960 . S
H1155 C1142 0.962 . S
H1156 C1142 0.960 . S
H1157 C1143 0.961 . S
H1158 C1143 0.961 . S
H1159 C1143 0.961 . S
H1160 C1144 0.931 . S
H1161 C1149 0.930 . S
H1162 C1150 0.956 . S
H1163 C1150 0.961 . S
H1164 C1150 0.961 . S
H1165 C1151 0.958 . S
H1166 C1151 0.961 . S
H1167 C1151 0.960 . S
C1168 C1169 1.391 . S
C1168 C1170 1.394 . S
C1168 H1184 0.931 . S
C1169 C1168 1.391 . S
C1169 C1173 1.376 . S
C1170 C1168 1.394 . S
C1170 C1171 1.369 . S
C1170 C1174 1.531 1_655 S
C1171 C1170 1.369 . S
C1171 C1172 1.410 . S
C1171 C1179 1.503 1_655 S
C1172 C1171 1.410 . S
C1172 C1173 1.392 . S
C1172 C1175 1.511 . S
C1173 C1169 1.376 . S
C1173 C1172 1.392 . S
C1173 H1185 0.929 . S
C1174 C1170 1.531 1_455 S
C1174 H1186 0.960 . S
C1174 H1187 0.962 . S
C1174 H1188 0.960 . S
C1175 C1172 1.511 . S
C1175 H1189 0.961 . S
C1175 H1190 0.961 . S
C1175 H1191 0.961 . S
C1176 C1177 1.370 . S
C1176 C1178 1.363 . S
C1176 H1192 0.931 . S
C1177 C1176 1.370 . S
C1177 C1181 1.408 . S
C1178 C1176 1.363 . S
C1178 C1179 1.370 . S
C1178 C1182 1.524 . S
C1179 C1171 1.503 1_455 S
C1179 C1178 1.370 . S
C1179 C1180 1.403 . S
C1180 C1179 1.403 . S
C1180 C1181 1.404 . S
C1180 C1183 1.539 . S
C1181 C1177 1.408 . S
C1181 C1180 1.404 . S
C1181 H1193 0.930 . S
C1182 C1178 1.524 . S
C1182 H1194 0.956 . S
C1182 H1195 0.961 . S
C1182 H1196 0.961 . S
C1183 C1180 1.539 . S
C1183 H1197 0.958 . S
C1183 H1198 0.961 . S
C1183 H1199 0.960 1_455 S
H1184 C1168 0.931 . S
H1185 C1173 0.929 . S
H1186 C1174 0.960 . S
H1187 C1174 0.962 . S
H1188 C1174 0.960 . S
H1189 C1175 0.961 . S
H1190 C1175 0.961 . S
H1191 C1175 0.961 . S
H1192 C1176 0.931 . S
H1193 C1181 0.930 . S
H1194 C1182 0.956 . S
H1195 C1182 0.961 . S
H1196 C1182 0.961 . S
H1197 C1183 0.958 . S
H1198 C1183 0.961 . S
H1199 C1183 0.960 1_655 S
C1200 C1201 1.391 . S
C1200 C1202 1.394 . S
C1200 H1216 0.931 . S
C1201 C1200 1.391 . S
C1201 C1205 1.376 . S
C1202 C1200 1.394 . S
C1202 C1203 1.369 . S
C1202 C1206 1.531 . S
C1203 C1202 1.369 . S
C1203 C1204 1.410 . S
C1203 C1211 1.503 1_455 S
C1204 C1203 1.410 . S
C1204 C1205 1.392 . S
C1204 C1207 1.511 1_455 S
C1205 C1201 1.376 . S
C1205 C1204 1.392 . S
C1205 H1217 0.929 . S
C1206 C1202 1.531 . S
C1206 H1218 0.974 . S
C1206 H1219 0.962 . S
C1206 H1220 0.960 . S
C1207 C1204 1.511 1_655 S
C1207 H1221 0.961 . S
C1207 H1222 0.961 . S
C1207 H1223 0.961 . S
C1208 C1209 1.370 . S
C1208 C1210 1.363 . S
C1208 H1224 0.931 . S
C1209 C1208 1.370 . S
C1209 C1213 1.408 . S
C1210 C1208 1.363 . S
C1210 C1211 1.370 . S
C1210 C1214 1.524 . S
C1211 C1203 1.503 1_655 S
C1211 C1210 1.370 . S
C1211 C1212 1.403 . S
C1212 C1211 1.403 . S
C1212 C1213 1.404 . S
C1212 C1215 1.539 . S
C1213 C1209 1.408 . S
C1213 C1212 1.404 . S
C1213 H1225 0.930 . S
C1214 C1210 1.524 . S
C1214 H1226 0.956 1_655 S
C1214 H1227 0.961 1_655 S
C1214 H1228 0.961 . S
C1215 C1212 1.539 . S
C1215 H1229 0.958 . S
C1215 H1230 0.961 . S
C1215 H1231 0.960 . S
H1216 C1200 0.931 . S
H1217 C1205 0.929 . S
H1218 C1206 0.974 . S
H1219 C1206 0.962 . S
H1220 C1206 0.960 . S
H1221 C1207 0.961 . S
H1222 C1207 0.961 . S
H1223 C1207 0.961 . S
H1224 C1208 0.931 . S
H1225 C1213 0.930 . S
H1226 C1214 0.956 1_455 S
H1227 C1214 0.961 1_455 S
H1228 C1214 0.961 . S
H1229 C1215 0.958 . S
H1230 C1215 0.961 . S
H1231 C1215 0.960 . S
C1232 C1233 1.391 . S
C1232 C1234 1.394 . S
C1232 H1248 0.931 . S
C1233 C1232 1.391 . S
C1233 C1237 1.376 . S
C1234 C1232 1.394 . S
C1234 C1235 1.369 . S
C1234 C1238 1.531 . S
C1235 C1234 1.369 . S
C1235 C1236 1.410 . S
C1235 C1243 1.503 1_565 S
C1236 C1235 1.410 . S
C1236 C1237 1.392 . S
C1236 C1239 1.511 . S
C1237 C1233 1.376 . S
C1237 C1236 1.392 . S
C1237 H1249 0.929 . S
C1238 C1234 1.531 . S
C1238 H1250 0.960 . S
C1238 H1251 0.962 . S
C1238 H1252 0.960 . S
C1239 C1236 1.511 . S
C1239 H1253 0.961 . S
C1239 H1254 0.961 1_565 S
C1239 H1255 0.961 . S
C1240 C1241 1.370 . S
C1240 C1242 1.363 . S
C1240 H1256 0.931 . S
C1241 C1240 1.370 . S
C1241 C1245 1.408 . S
C1242 C1240 1.363 . S
C1242 C1243 1.370 . S
C1242 C1246 1.524 . S
C1243 C1235 1.503 1_545 S
C1243 C1242 1.370 . S
C1243 C1244 1.403 . S
C1244 C1243 1.403 . S
C1244 C1245 1.404 . S
C1244 C1247 1.539 1_545 S
C1245 C1241 1.408 . S
C1245 C1244 1.404 . S
C1245 H1257 0.930 . S
C1246 C1242 1.524 . S
C1246 H1258 0.934 1_545 S
C1246 H1259 0.961 . S
C1246 H1260 0.961 . S
C1247 C1244 1.539 1_565 S
C1247 H1261 0.958 . S
C1247 H1262 0.961 1_565 S
C1247 H1263 0.960 . S
H1248 C1232 0.931 . S
H1249 C1237 0.929 . S
H1250 C1238 0.960 . S
H1251 C1238 0.962 . S
H1252 C1238 0.960 . S
H1253 C1239 0.961 . S
H1254 C1239 0.961 1_545 S
H1255 C1239 0.961 . S
H1256 C1240 0.931 . S
H1257 C1245 0.930 . S
H1258 C1246 0.934 1_565 S
H1259 C1246 0.961 . S
H1260 C1246 0.961 . S
H1261 C1247 0.958 . S
H1262 C1247 0.961 1_545 S
H1263 C1247 0.960 . S
C1264 C1265 1.391 . S
C1264 C1266 1.394 . S
C1264 H1280 0.931 . S
C1265 C1264 1.391 . S
C1265 C1269 1.376 . S
C1266 C1264 1.394 . S
C1266 C1267 1.369 . S
C1266 C1270 1.531 . S
C1267 C1266 1.369 . S
C1267 C1268 1.410 . S
C1267 C1275 1.503 . S
C1268 C1267 1.410 . S
C1268 C1269 1.392 . S
C1268 C1271 1.511 . S
C1269 C1265 1.376 . S
C1269 C1268 1.392 . S
C1269 H1281 0.929 . S
C1270 C1266 1.531 . S
C1270 H1282 0.960 . S
C1270 H1283 0.962 . S
C1270 H1284 0.960 . S
C1271 C1268 1.511 . S
C1271 H1285 0.961 . S
C1271 H1286 0.961 . S
C1271 H1287 0.961 . S
C1272 C1273 1.370 . S
C1272 C1274 1.363 . S
C1272 H1288 0.931 . S
C1273 C1272 1.370 . S
C1273 C1277 1.408 . S
C1274 C1272 1.363 . S
C1274 C1275 1.370 . S
C1274 C1278 1.524 . S
C1275 C1267 1.503 . S
C1275 C1274 1.370 . S
C1275 C1276 1.403 . S
C1276 C1275 1.403 . S
C1276 C1277 1.404 . S
C1276 C1279 1.539 . S
C1277 C1273 1.408 . S
C1277 C1276 1.404 . S
C1277 H1289 0.930 . S
C1278 C1274 1.524 . S
C1278 H1290 0.956 . S
C1278 H1291 0.961 . S
C1278 H1292 0.961 . S
C1279 C1276 1.539 . S
C1279 H1293 0.958 . S
C1279 H1294 0.961 . S
C1279 H1295 0.960 . S
H1280 C1264 0.931 . S
H1281 C1269 0.929 . S
H1282 C1270 0.960 . S
H1283 C1270 0.962 . S
H1284 C1270 0.960 . S
H1285 C1271 0.961 . S
H1286 C1271 0.961 . S
H1287 C1271 0.961 . S
H1288 C1272 0.931 . S
H1289 C1277 0.930 . S
H1290 C1278 0.956 . S
H1291 C1278 0.961 . S
H1292 C1278 0.961 . S
H1293 C1279 0.958 . S
H1294 C1279 0.961 . S
H1295 C1279 0.960 . S
C1296 C1297 1.391 . S
C1296 C1298 1.394 . S
C1296 H1312 0.931 . S
C1297 C1296 1.391 . S
C1297 C1301 1.376 . S
C1298 C1296 1.394 . S
C1298 C1299 1.369 . S
C1298 C1302 1.531 . S
C1299 C1298 1.369 . S
C1299 C1300 1.410 . S
C1299 C1307 1.503 1_455 S
C1300 C1299 1.410 . S
C1300 C1301 1.392 . S
C1300 C1303 1.511 . S
C1301 C1297 1.376 . S
C1301 C1300 1.392 . S
C1301 H1313 0.929 . S
C1302 C1298 1.531 . S
C1302 H1314 0.960 1_455 S
C1302 H1315 0.962 1_455 S
C1302 H1316 0.960 . S
C1303 C1300 1.511 . S
C1303 H1317 0.961 . S
C1303 H1318 0.961 . S
C1303 H1319 0.961 . S
C1304 C1305 1.370 . S
C1304 C1306 1.363 . S
C1304 H1320 0.931 . S
C1305 C1304 1.370 . S
C1305 C1309 1.408 . S
C1306 C1304 1.363 . S
C1306 C1307 1.370 . S
C1306 C1310 1.524 . S
C1307 C1299 1.503 1_655 S
C1307 C1306 1.370 . S
C1307 C1308 1.403 . S
C1308 C1307 1.403 . S
C1308 C1309 1.404 . S
C1308 C1311 1.539 . S
C1309 C1305 1.408 . S
C1309 C1308 1.404 . S
C1309 H1321 0.930 . S
C1310 C1306 1.524 . S
C1310 H1322 0.956 . S
C1310 H1323 0.961 1_655 S
C1310 H1324 0.961 . S
C1311 C1308 1.539 . S
C1311 H1325 0.958 . S
C1311 H1326 0.961 . S
C1311 H1327 0.960 1_655 S
H1312 C1296 0.931 . S
H1313 C1301 0.929 . S
H1314 C1302 0.960 1_655 S
H1315 C1302 0.962 1_655 S
H1316 C1302 0.960 . S
H1317 C1303 0.961 . S
H1318 C1303 0.961 . S
H1319 C1303 0.961 . S
H1320 C1304 0.931 . S
H1321 C1309 0.930 . S
H1322 C1310 0.956 . S
H1323 C1310 0.961 1_455 S
H1324 C1310 0.961 . S
H1325 C1311 0.958 . S
H1326 C1311 0.961 . S
H1327 C1311 0.960 1_455 S
C1328 C1329 1.391 . S
C1328 C1330 1.394 . S
C1328 H1344 0.931 . S
C1329 C1328 1.391 . S
C1329 C1333 1.376 . S
C1330 C1328 1.394 . S
C1330 C1331 1.369 . S
C1330 C1334 1.531 . S
C1331 C1330 1.369 . S
C1331 C1332 1.410 . S
C1331 C1339 1.503 1_545 S
C1332 C1331 1.410 . S
C1332 C1333 1.392 . S
C1332 C1335 1.511 . S
C1333 C1329 1.376 . S
C1333 C1332 1.392 . S
C1333 H1345 0.929 . S
C1334 C1330 1.531 . S
C1334 H1346 0.960 . S
C1334 H1347 0.962 . S
C1334 H1348 0.960 . S
C1335 C1332 1.511 . S
C1335 H1349 0.961 . S
C1335 H1350 0.961 1_545 S
C1335 H1351 0.937 1_545 S
C1336 C1337 1.370 . S
C1336 C1338 1.363 . S
C1336 H1352 0.931 . S
C1337 C1336 1.370 . S
C1337 C1341 1.408 . S
C1338 C1336 1.363 . S
C1338 C1339 1.370 . S
C1338 C1342 1.524 1_565 S
C1339 C1331 1.503 1_565 S
C1339 C1338 1.370 . S
C1339 C1340 1.403 . S
C1340 C1339 1.403 . S
C1340 C1341 1.404 . S
C1340 C1343 1.539 . S
C1341 C1337 1.408 . S
C1341 C1340 1.404 . S
C1341 H1353 0.930 . S
C1342 C1338 1.524 1_545 S
C1342 H1354 0.956 . S
C1342 H1355 0.961 . S
C1342 H1356 0.961 . S
C1343 C1340 1.539 . S
C1343 H1357 0.958 . S
C1343 H1358 0.961 . S
C1343 H1359 0.960 . S
H1344 C1328 0.931 . S
H1345 C1333 0.929 . S
H1346 C1334 0.960 . S
H1347 C1334 0.962 . S
H1348 C1334 0.960 . S
H1349 C1335 0.961 . S
H1350 C1335 0.961 1_565 S
H1351 C1335 0.937 1_565 S
H1352 C1336 0.931 . S
H1353 C1341 0.930 . S
H1354 C1342 0.956 . S
H1355 C1342 0.961 . S
H1356 C1342 0.961 . S
H1357 C1343 0.958 . S
H1358 C1343 0.961 . S
H1359 C1343 0.960 . S
C1360 C1361 1.391 . S
C1360 C1362 1.394 . S
C1360 H1376 0.931 . S
C1361 C1360 1.391 . S
C1361 C1365 1.376 . S
C1362 C1360 1.394 . S
C1362 C1363 1.369 . S
C1362 C1366 1.531 . S
C1363 C1362 1.369 . S
C1363 C1364 1.410 . S
C1363 C1371 1.503 . S
C1364 C1363 1.410 . S
C1364 C1365 1.392 . S
C1364 C1367 1.511 . S
C1365 C1361 1.376 . S
C1365 C1364 1.392 . S
C1365 H1377 0.929 . S
C1366 C1362 1.531 . S
C1366 H1378 0.960 . S
C1366 H1379 0.962 . S
C1366 H1380 0.960 . S
C1367 C1364 1.511 . S
C1367 H1381 0.961 . S
C1367 H1382 0.961 . S
C1367 H1383 0.961 . S
C1368 C1369 1.370 . S
C1368 C1370 1.363 . S
C1368 H1384 0.931 . S
C1369 C1368 1.370 . S
C1369 C1373 1.408 . S
C1370 C1368 1.363 . S
C1370 C1371 1.370 . S
C1370 C1374 1.524 . S
C1371 C1363 1.503 . S
C1371 C1370 1.370 . S
C1371 C1372 1.403 . S
C1372 C1371 1.403 . S
C1372 C1373 1.404 . S
C1372 C1375 1.539 . S
C1373 C1369 1.408 . S
C1373 C1372 1.404 . S
C1373 H1385 0.930 . S
C1374 C1370 1.524 . S
C1374 H1386 0.956 . S
C1374 H1387 0.961 . S
C1374 H1388 0.961 . S
C1375 C1372 1.539 . S
C1375 H1389 0.958 . S
C1375 H1390 0.961 . S
C1375 H1391 0.960 . S
H1376 C1360 0.931 . S
H1377 C1365 0.929 . S
H1378 C1366 0.960 . S
H1379 C1366 0.962 . S
H1380 C1366 0.960 . S
H1381 C1367 0.961 . S
H1382 C1367 0.961 . S
H1383 C1367 0.961 . S
H1384 C1368 0.931 . S
H1385 C1373 0.930 . S
H1386 C1374 0.956 . S
H1387 C1374 0.961 . S
H1388 C1374 0.961 . S
H1389 C1375 0.958 . S
H1390 C1375 0.961 . S
H1391 C1375 0.960 . S
C1392 C1393 1.391 . S
C1392 C1394 1.394 . S
C1392 H1408 0.931 . S
C1393 C1392 1.391 . S
C1393 C1397 1.376 . S
C1394 C1392 1.394 . S
C1394 C1395 1.369 . S
C1394 C1398 1.531 . S
C1395 C1394 1.369 . S
C1395 C1396 1.410 . S
C1395 C1403 1.503 . S
C1396 C1395 1.410 . S
C1396 C1397 1.392 . S
C1396 C1399 1.511 . S
C1397 C1393 1.376 . S
C1397 C1396 1.392 . S
C1397 H1409 0.929 . S
C1398 C1394 1.531 . S
C1398 H1410 0.960 . S
C1398 H1411 0.962 . S
C1398 H1412 0.960 . S
C1399 C1396 1.511 . S
C1399 H1413 0.961 . S
C1399 H1414 0.961 . S
C1399 H1415 0.961 . S
C1400 C1401 1.370 . S
C1400 C1402 1.363 . S
C1400 H1416 0.931 . S
C1401 C1400 1.370 . S
C1401 C1405 1.408 . S
C1402 C1400 1.363 . S
C1402 C1403 1.370 . S
C1402 C1406 1.524 . S
C1403 C1395 1.503 . S
C1403 C1402 1.370 . S
C1403 C1404 1.403 . S
C1404 C1403 1.403 . S
C1404 C1405 1.404 . S
C1404 C1407 1.539 . S
C1405 C1401 1.408 . S
C1405 C1404 1.404 . S
C1405 H1417 0.930 . S
C1406 C1402 1.524 . S
C1406 H1418 0.956 . S
C1406 H1419 0.961 . S
C1406 H1420 0.961 . S
C1407 C1404 1.539 . S
C1407 H1421 0.958 . S
C1407 H1422 0.961 . S
C1407 H1423 0.960 . S
H1408 C1392 0.931 . S
H1409 C1397 0.929 . S
H1410 C1398 0.960 . S
H1411 C1398 0.962 . S
H1412 C1398 0.960 . S
H1413 C1399 0.961 . S
H1414 C1399 0.961 . S
H1415 C1399 0.961 . S
H1416 C1400 0.931 . S
H1417 C1405 0.930 . S
H1418 C1406 0.956 . S
H1419 C1406 0.961 . S
H1420 C1406 0.961 . S
H1421 C1407 0.958 . S
H1422 C1407 0.961 . S
H1423 C1407 0.960 . S
C1424 C1425 1.391 . S
C1424 C1426 1.394 . S
C1424 H1440 0.931 . S
C1425 C1424 1.391 . S
C1425 C1429 1.376 . S
C1426 C1424 1.394 . S
C1426 C1427 1.369 . S
C1426 C1430 1.531 . S
C1427 C1426 1.369 . S
C1427 C1428 1.410 . S
C1427 C1435 1.503 . S
C1428 C1427 1.410 . S
C1428 C1429 1.392 . S
C1428 C1431 1.511 . S
C1429 C1425 1.376 . S
C1429 C1428 1.392 . S
C1429 H1441 0.929 . S
C1430 C1426 1.531 . S
C1430 H1442 0.960 . S
C1430 H1443 0.962 . S
C1430 H1444 0.960 . S
C1431 C1428 1.511 . S
C1431 H1445 0.961 . S
C1431 H1446 0.961 . S
C1431 H1447 0.961 . S
C1432 C1433 1.370 . S
C1432 C1434 1.363 . S
C1432 H1448 0.931 . S
C1433 C1432 1.370 . S
C1433 C1437 1.408 . S
C1434 C1432 1.363 . S
C1434 C1435 1.370 . S
C1434 C1438 1.524 . S
C1435 C1427 1.503 . S
C1435 C1434 1.370 . S
C1435 C1436 1.403 . S
C1436 C1435 1.403 . S
C1436 C1437 1.404 . S
C1436 C1439 1.539 . S
C1437 C1433 1.408 . S
C1437 C1436 1.404 . S
C1437 H1449 0.930 . S
C1438 C1434 1.524 . S
C1438 H1450 0.956 . S
C1438 H1451 0.961 . S
C1438 H1452 0.961 . S
C1439 C1436 1.539 . S
C1439 H1453 0.958 . S
C1439 H1454 0.961 . S
C1439 H1455 0.960 . S
H1440 C1424 0.931 . S
H1441 C1429 0.929 . S
H1442 C1430 0.960 . S
H1443 C1430 0.962 . S
H1444 C1430 0.960 . S
H1445 C1431 0.961 . S
H1446 C1431 0.961 . S
H1447 C1431 0.961 . S
H1448 C1432 0.931 . S
H1449 C1437 0.930 . S
H1450 C1438 0.956 . S
H1451 C1438 0.961 . S
H1452 C1438 0.961 . S
H1453 C1439 0.958 . S
H1454 C1439 0.961 . S
H1455 C1439 0.960 . S
C1456 C1457 1.391 . S
C1456 C1458 1.394 . S
C1456 H1472 0.931 . S
C1457 C1456 1.391 . S
C1457 C1461 1.376 . S
C1458 C1456 1.394 . S
C1458 C1459 1.369 . S
C1458 C1462 1.531 . S
C1459 C1458 1.369 . S
C1459 C1460 1.410 . S
C1459 C1467 1.503 . S
C1460 C1459 1.410 . S
C1460 C1461 1.392 . S
C1460 C1463 1.511 . S
C1461 C1457 1.376 . S
C1461 C1460 1.392 . S
C1461 H1473 0.929 . S
C1462 C1458 1.531 . S
C1462 H1474 0.960 . S
C1462 H1475 0.962 . S
C1462 H1476 0.960 . S
C1463 C1460 1.511 . S
C1463 H1477 0.961 . S
C1463 H1478 0.961 . S
C1463 H1479 0.961 . S
C1464 C1465 1.370 . S
C1464 C1466 1.363 . S
C1464 H1480 0.931 . S
C1465 C1464 1.370 . S
C1465 C1469 1.408 . S
C1466 C1464 1.363 . S
C1466 C1467 1.370 . S
C1466 C1470 1.524 . S
C1467 C1459 1.503 . S
C1467 C1466 1.370 . S
C1467 C1468 1.403 . S
C1468 C1467 1.403 . S
C1468 C1469 1.404 . S
C1468 C1471 1.539 . S
C1469 C1465 1.408 . S
C1469 C1468 1.404 . S
C1469 H1481 0.930 . S
C1470 C1466 1.524 . S
C1470 H1482 0.956 . S
C1470 H1483 0.961 . S
C1470 H1484 0.961 . S
C1471 C1468 1.539 . S
C1471 H1485 0.958 . S
C1471 H1486 0.961 . S
C1471 H1487 0.960 . S
H1472 C1456 0.931 . S
H1473 C1461 0.929 . S
H1474 C1462 0.960 . S
H1475 C1462 0.962 . S
H1476 C1462 0.960 . S
H1477 C1463 0.961 . S
H1478 C1463 0.961 . S
H1479 C1463 0.961 . S
H1480 C1464 0.931 . S
H1481 C1469 0.930 . S
H1482 C1470 0.956 . S
H1483 C1470 0.961 . S
H1484 C1470 0.961 . S
H1485 C1471 0.958 . S
H1486 C1471 0.961 . S
H1487 C1471 0.960 . S
C1488 C1489 1.391 . S
C1488 C1490 1.394 . S
C1488 H1504 0.931 . S
C1489 C1488 1.391 . S
C1489 C1493 1.376 . S
C1490 C1488 1.394 . S
C1490 C1491 1.369 . S
C1490 C1494 1.531 . S
C1491 C1490 1.369 . S
C1491 C1492 1.410 . S
C1491 C1499 1.503 . S
C1492 C1491 1.410 . S
C1492 C1493 1.392 . S
C1492 C1495 1.511 . S
C1493 C1489 1.376 . S
C1493 C1492 1.392 . S
C1493 H1505 0.929 . S
C1494 C1490 1.531 . S
C1494 H1506 0.960 . S
C1494 H1507 0.962 . S
C1494 H1508 0.960 . S
C1495 C1492 1.511 . S
C1495 H1509 0.961 . S
C1495 H1510 0.961 . S
C1495 H1511 0.961 . S
C1496 C1497 1.370 . S
C1496 C1498 1.363 . S
C1496 H1512 0.931 . S
C1497 C1496 1.370 . S
C1497 C1501 1.408 . S
C1498 C1496 1.363 . S
C1498 C1499 1.370 . S
C1498 C1502 1.524 . S
C1499 C1491 1.503 . S
C1499 C1498 1.370 . S
C1499 C1500 1.403 . S
C1500 C1499 1.403 . S
C1500 C1501 1.404 . S
C1500 C1503 1.539 . S
C1501 C1497 1.408 . S
C1501 C1500 1.404 . S
C1501 H1513 0.930 . S
C1502 C1498 1.524 . S
C1502 H1514 0.956 . S
C1502 H1515 0.961 . S
C1502 H1516 0.961 . S
C1503 C1500 1.539 . S
C1503 H1517 0.958 . S
C1503 H1518 0.961 . S
C1503 H1519 0.960 . S
H1504 C1488 0.931 . S
H1505 C1493 0.929 . S
H1506 C1494 0.960 . S
H1507 C1494 0.962 . S
H1508 C1494 0.960 . S
H1509 C1495 0.961 . S
H1510 C1495 0.961 . S
H1511 C1495 0.961 . S
H1512 C1496 0.931 . S
H1513 C1501 0.930 . S
H1514 C1502 0.956 . S
H1515 C1502 0.961 . S
H1516 C1502 0.961 . S
H1517 C1503 0.958 . S
H1518 C1503 0.961 . S
H1519 C1503 0.960 . S
C1520 C1521 1.391 . S
C1520 C1522 1.394 . S
C1520 H1536 0.931 . S
C1521 C1520 1.391 . S
C1521 C1525 1.376 . S
C1522 C1520 1.394 . S
C1522 C1523 1.369 . S
C1522 C1526 1.531 . S
C1523 C1522 1.369 . S
C1523 C1524 1.410 . S
C1523 C1531 1.503 . S
C1524 C1523 1.410 . S
C1524 C1525 1.392 . S
C1524 C1527 1.511 . S
C1525 C1521 1.376 . S
C1525 C1524 1.392 . S
C1525 H1537 0.929 . S
C1526 C1522 1.531 . S
C1526 H1538 0.960 . S
C1526 H1539 0.962 . S
C1526 H1540 0.960 . S
C1527 C1524 1.511 . S
C1527 H1541 0.961 . S
C1527 H1542 0.961 . S
C1527 H1543 0.961 . S
C1528 C1529 1.370 . S
C1528 C1530 1.363 . S
C1528 H1544 0.931 . S
C1529 C1528 1.370 . S
C1529 C1533 1.408 . S
C1530 C1528 1.363 . S
C1530 C1531 1.370 . S
C1530 C1534 1.524 . S
C1531 C1523 1.503 . S
C1531 C1530 1.370 . S
C1531 C1532 1.403 . S
C1532 C1531 1.403 . S
C1532 C1533 1.404 . S
C1532 C1535 1.539 . S
C1533 C1529 1.408 . S
C1533 C1532 1.404 . S
C1533 H1545 0.930 . S
C1534 C1530 1.524 . S
C1534 H1546 0.956 . S
C1534 H1547 0.961 . S
C1534 H1548 0.961 . S
C1535 C1532 1.539 . S
C1535 H1549 0.958 . S
C1535 H1550 0.961 . S
C1535 H1551 0.960 . S
H1536 C1520 0.931 . S
H1537 C1525 0.929 . S
H1538 C1526 0.960 . S
H1539 C1526 0.962 . S
H1540 C1526 0.960 . S
H1541 C1527 0.961 . S
H1542 C1527 0.961 . S
H1543 C1527 0.961 . S
H1544 C1528 0.931 . S
H1545 C1533 0.930 . S
H1546 C1534 0.956 . S
H1547 C1534 0.961 . S
H1548 C1534 0.961 . S
H1549 C1535 0.958 . S
H1550 C1535 0.961 . S
H1551 C1535 0.960 . S
C1552 C1553 1.391 . S
C1552 C1554 1.394 . S
C1552 H1568 0.931 . S
C1553 C1552 1.391 . S
C1553 C1557 1.376 . S
C1554 C1552 1.394 . S
C1554 C1555 1.369 . S
C1554 C1558 1.531 . S
C1555 C1554 1.369 . S
C1555 C1556 1.410 . S
C1555 C1563 1.503 . S
C1556 C1555 1.410 . S
C1556 C1557 1.392 . S
C1556 C1559 1.511 . S
C1557 C1553 1.376 . S
C1557 C1556 1.392 . S
C1557 H1569 0.929 . S
C1558 C1554 1.531 . S
C1558 H1570 0.960 . S
C1558 H1571 0.962 . S
C1558 H1572 0.960 . S
C1559 C1556 1.511 . S
C1559 H1573 0.961 . S
C1559 H1574 0.961 . S
C1559 H1575 0.961 . S
C1560 C1561 1.370 . S
C1560 C1562 1.363 . S
C1560 H1576 0.931 . S
C1561 C1560 1.370 . S
C1561 C1565 1.408 . S
C1562 C1560 1.363 . S
C1562 C1563 1.370 . S
C1562 C1566 1.524 . S
C1563 C1555 1.503 . S
C1563 C1562 1.370 . S
C1563 C1564 1.403 . S
C1564 C1563 1.403 . S
C1564 C1565 1.404 . S
C1564 C1567 1.539 . S
C1565 C1561 1.408 . S
C1565 C1564 1.404 . S
C1565 H1577 0.930 . S
C1566 C1562 1.524 . S
C1566 H1578 0.956 . S
C1566 H1579 0.961 . S
C1566 H1580 0.961 . S
C1567 C1564 1.539 . S
C1567 H1581 0.958 . S
C1567 H1582 0.961 . S
C1567 H1583 0.960 . S
H1568 C1552 0.931 . S
H1569 C1557 0.929 . S
H1570 C1558 0.960 . S
H1571 C1558 0.962 . S
H1572 C1558 0.960 . S
H1573 C1559 0.961 . S
H1574 C1559 0.961 . S
H1575 C1559 0.961 . S
H1576 C1560 0.931 . S
H1577 C1565 0.930 . S
H1578 C1566 0.956 . S
H1579 C1566 0.961 . S
H1580 C1566 0.961 . S
H1581 C1567 0.958 . S
H1582 C1567 0.961 . S
H1583 C1567 0.960 . S
C1584 C1585 1.391 . S
C1584 C1586 1.394 . S
C1584 H1600 0.931 . S
C1585 C1584 1.391 . S
C1585 C1589 1.376 . S
C1586 C1584 1.394 . S
C1586 C1587 1.369 . S
C1586 C1590 1.531 . S
C1587 C1586 1.369 . S
C1587 C1588 1.410 . S
C1587 C1595 1.503 . S
C1588 C1587 1.410 . S
C1588 C1589 1.392 . S
C1588 C1591 1.511 . S
C1589 C1585 1.376 . S
C1589 C1588 1.392 . S
C1589 H1601 0.929 . S
C1590 C1586 1.531 . S
C1590 H1602 0.960 . S
C1590 H1603 0.962 . S
C1590 H1604 0.960 . S
C1591 C1588 1.511 . S
C1591 H1605 0.961 . S
C1591 H1606 0.961 . S
C1591 H1607 0.961 . S
C1592 C1593 1.370 . S
C1592 C1594 1.363 . S
C1592 H1608 0.931 . S
C1593 C1592 1.370 . S
C1593 C1597 1.408 . S
C1594 C1592 1.363 . S
C1594 C1595 1.370 . S
C1594 C1598 1.524 . S
C1595 C1587 1.503 . S
C1595 C1594 1.370 . S
C1595 C1596 1.403 . S
C1596 C1595 1.403 . S
C1596 C1597 1.404 . S
C1596 C1599 1.539 . S
C1597 C1593 1.408 . S
C1597 C1596 1.404 . S
C1597 H1609 0.930 . S
C1598 C1594 1.524 . S
C1598 H1610 0.956 . S
C1598 H1611 0.961 . S
C1598 H1612 0.961 . S
C1599 C1596 1.539 . S
C1599 H1613 0.958 . S
C1599 H1614 0.961 . S
C1599 H1615 0.960 . S
H1600 C1584 0.931 . S
H1601 C1589 0.929 . S
H1602 C1590 0.960 . S
H1603 C1590 0.962 . S
H1604 C1590 0.960 . S
H1605 C1591 0.961 . S
H1606 C1591 0.961 . S
H1607 C1591 0.961 . S
H1608 C1592 0.931 . S
H1609 C1597 0.930 . S
H1610 C1598 0.956 . S
H1611 C1598 0.961 . S
H1612 C1598 0.961 . S
H1613 C1599 0.958 . S
H1614 C1599 0.961 . S
H1615 C1599 0.960 . S
C1616 C1617 1.391 . S
C1616 C1618 1.394 . S
C1616 H1632 0.931 . S
C1617 C1616 1.391 . S
C1617 C1621 1.376 . S
C1618 C1616 1.394 . S
C1618 C1619 1.369 . S
C1618 C1622 1.531 . S
C1619 C1618 1.369 . S
C1619 C1620 1.410 . S
C1619 C1627 1.503 . S
C1620 C1619 1.410 . S
C1620 C1621 1.392 . S
C1620 C1623 1.511 . S
C1621 C1617 1.376 . S
C1621 C1620 1.392 . S
C1621 H1633 0.929 . S
C1622 C1618 1.531 . S
C1622 H1634 0.960 . S
C1622 H1635 0.962 . S
C1622 H1636 0.960 . S
C1623 C1620 1.511 . S
C1623 H1637 0.961 . S
C1623 H1638 0.961 . S
C1623 H1639 0.961 . S
C1624 C1625 1.370 . S
C1624 C1626 1.363 . S
C1624 H1640 0.931 . S
C1625 C1624 1.370 . S
C1625 C1629 1.408 . S
C1626 C1624 1.363 . S
C1626 C1627 1.370 . S
C1626 C1630 1.524 . S
C1627 C1619 1.503 . S
C1627 C1626 1.370 . S
C1627 C1628 1.403 . S
C1628 C1627 1.403 . S
C1628 C1629 1.404 . S
C1628 C1631 1.539 . S
C1629 C1625 1.408 . S
C1629 C1628 1.404 . S
C1629 H1641 0.930 . S
C1630 C1626 1.524 . S
C1630 H1642 0.956 . S
C1630 H1643 0.961 . S
C1630 H1644 0.961 . S
C1631 C1628 1.539 . S
C1631 H1645 0.958 . S
C1631 H1646 0.961 . S
C1631 H1647 0.960 . S
H1632 C1616 0.931 . S
H1633 C1621 0.929 . S
H1634 C1622 0.960 . S
H1635 C1622 0.962 . S
H1636 C1622 0.960 . S
H1637 C1623 0.961 . S
H1638 C1623 0.961 . S
H1639 C1623 0.961 . S
H1640 C1624 0.931 . S
H1641 C1629 0.930 . S
H1642 C1630 0.956 . S
H1643 C1630 0.961 . S
H1644 C1630 0.961 . S
H1645 C1631 0.958 . S
H1646 C1631 0.961 . S
H1647 C1631 0.960 . S
C1648 C1649 1.391 . S
C1648 C1650 1.394 . S
C1648 H1664 0.931 . S
C1649 C1648 1.391 . S
C1649 C1653 1.376 . S
C1650 C1648 1.394 . S
C1650 C1651 1.369 . S
C1650 C1654 1.531 . S
C1651 C1650 1.369 . S
C1651 C1652 1.410 . S
C1651 C1659 1.503 . S
C1652 C1651 1.410 . S
C1652 C1653 1.392 . S
C1652 C1655 1.511 . S
C1653 C1649 1.376 . S
C1653 C1652 1.392 . S
C1653 H1665 0.929 . S
C1654 C1650 1.531 . S
C1654 H1666 0.960 . S
C1654 H1667 0.962 . S
C1654 H1668 0.960 . S
C1655 C1652 1.511 . S
C1655 H1669 0.961 . S
C1655 H1670 0.961 . S
C1655 H1671 0.961 . S
C1656 C1657 1.370 . S
C1656 C1658 1.363 . S
C1656 H1672 0.931 . S
C1657 C1656 1.370 . S
C1657 C1661 1.408 . S
C1658 C1656 1.363 . S
C1658 C1659 1.370 . S
C1658 C1662 1.524 . S
C1659 C1651 1.503 . S
C1659 C1658 1.370 . S
C1659 C1660 1.403 . S
C1660 C1659 1.403 . S
C1660 C1661 1.404 . S
C1660 C1663 1.539 . S
C1661 C1657 1.408 . S
C1661 C1660 1.404 . S
C1661 H1673 0.930 . S
C1662 C1658 1.524 . S
C1662 H1674 0.956 . S
C1662 H1675 0.961 . S
C1662 H1676 0.961 . S
C1663 C1660 1.539 . S
C1663 H1677 0.958 . S
C1663 H1678 0.961 . S
C1663 H1679 0.960 . S
H1664 C1648 0.931 . S
H1665 C1653 0.929 . S
H1666 C1654 0.960 . S
H1667 C1654 0.962 . S
H1668 C1654 0.960 . S
H1669 C1655 0.961 . S
H1670 C1655 0.961 . S
H1671 C1655 0.961 . S
H1672 C1656 0.931 . S
H1673 C1661 0.930 . S
H1674 C1662 0.956 . S
H1675 C1662 0.961 . S
H1676 C1662 0.961 . S
H1677 C1663 0.958 . S
H1678 C1663 0.961 . S
H1679 C1663 0.960 . S
C1680 C1681 1.391 . S
C1680 C1682 1.394 . S
C1680 H1696 0.931 . S
C1681 C1680 1.391 . S
C1681 C1685 1.376 . S
C1682 C1680 1.394 . S
C1682 C1683 1.369 . S
C1682 C1686 1.531 . S
C1683 C1682 1.369 . S
C1683 C1684 1.410 . S
C1683 C1691 1.503 . S
C1684 C1683 1.410 . S
C1684 C1685 1.392 . S
C1684 C1687 1.511 . S
C1685 C1681 1.376 . S
C1685 C1684 1.392 . S
C1685 H1697 0.929 . S
C1686 C1682 1.531 . S
C1686 H1698 0.960 . S
C1686 H1699 0.962 . S
C1686 H1700 0.960 . S
C1687 C1684 1.511 . S
C1687 H1701 0.961 . S
C1687 H1702 0.961 . S
C1687 H1703 0.961 . S
C1688 C1689 1.370 . S
C1688 C1690 1.363 . S
C1688 H1704 0.931 . S
C1689 C1688 1.370 . S
C1689 C1693 1.408 . S
C1690 C1688 1.363 . S
C1690 C1691 1.370 . S
C1690 C1694 1.524 . S
C1691 C1683 1.503 . S
C1691 C1690 1.370 . S
C1691 C1692 1.403 . S
C1692 C1691 1.403 . S
C1692 C1693 1.404 . S
C1692 C1695 1.539 . S
C1693 C1689 1.408 . S
C1693 C1692 1.404 . S
C1693 H1705 0.930 . S
C1694 C1690 1.524 . S
C1694 H1706 0.956 . S
C1694 H1707 0.961 . S
C1694 H1708 0.961 . S
C1695 C1692 1.539 . S
C1695 H1709 0.958 . S
C1695 H1710 0.961 . S
C1695 H1711 0.960 . S
H1696 C1680 0.931 . S
H1697 C1685 0.929 . S
H1698 C1686 0.960 . S
H1699 C1686 0.962 . S
H1700 C1686 0.960 . S
H1701 C1687 0.961 . S
H1702 C1687 0.961 . S
H1703 C1687 0.961 . S
H1704 C1688 0.931 . S
H1705 C1693 0.930 . S
H1706 C1694 0.956 . S
H1707 C1694 0.961 . S
H1708 C1694 0.961 . S
H1709 C1695 0.958 . S
H1710 C1695 0.961 . S
H1711 C1695 0.960 . S
C1712 C1713 1.391 . S
C1712 C1714 1.394 . S
C1712 H1728 0.931 . S
C1713 C1712 1.391 . S
C1713 C1717 1.376 . S
C1714 C1712 1.394 . S
C1714 C1715 1.369 . S
C1714 C1718 1.531 . S
C1715 C1714 1.369 . S
C1715 C1716 1.410 . S
C1715 C1723 1.503 . S
C1716 C1715 1.410 . S
C1716 C1717 1.392 . S
C1716 C1719 1.511 . S
C1717 C1713 1.376 . S
C1717 C1716 1.392 . S
C1717 H1729 0.929 . S
C1718 C1714 1.531 . S
C1718 H1730 0.960 . S
C1718 H1731 0.962 . S
C1718 H1732 0.960 . S
C1719 C1716 1.511 . S
C1719 H1733 0.961 . S
C1719 H1734 0.961 . S
C1719 H1735 0.961 . S
C1720 C1721 1.370 . S
C1720 C1722 1.363 . S
C1720 H1736 0.931 . S
C1721 C1720 1.370 . S
C1721 C1725 1.408 . S
C1722 C1720 1.363 . S
C1722 C1723 1.370 . S
C1722 C1726 1.524 . S
C1723 C1715 1.503 . S
C1723 C1722 1.370 . S
C1723 C1724 1.403 . S
C1724 C1723 1.403 . S
C1724 C1725 1.404 . S
C1724 C1727 1.539 . S
C1725 C1721 1.408 . S
C1725 C1724 1.404 . S
C1725 H1737 0.930 . S
C1726 C1722 1.524 . S
C1726 H1738 0.956 . S
C1726 H1739 0.961 . S
C1726 H1740 0.961 . S
C1727 C1724 1.539 . S
C1727 H1741 0.958 . S
C1727 H1742 0.961 . S
C1727 H1743 0.960 . S
H1728 C1712 0.931 . S
H1729 C1717 0.929 . S
H1730 C1718 0.960 . S
H1731 C1718 0.962 . S
H1732 C1718 0.960 . S
H1733 C1719 0.961 . S
H1734 C1719 0.961 . S
H1735 C1719 0.961 . S
H1736 C1720 0.931 . S
H1737 C1725 0.930 . S
H1738 C1726 0.956 . S
H1739 C1726 0.961 . S
H1740 C1726 0.961 . S
H1741 C1727 0.958 . S
H1742 C1727 0.961 . S
H1743 C1727 0.960 . S
C1744 C1745 1.391 . S
C1744 C1746 1.394 . S
C1744 H1760 0.931 . S
C1745 C1744 1.391 . S
C1745 C1749 1.376 . S
C1746 C1744 1.394 . S
C1746 C1747 1.369 . S
C1746 C1750 1.531 . S
C1747 C1746 1.369 . S
C1747 C1748 1.410 . S
C1747 C1755 1.503 . S
C1748 C1747 1.410 . S
C1748 C1749 1.392 . S
C1748 C1751 1.511 . S
C1749 C1745 1.376 . S
C1749 C1748 1.392 . S
C1749 H1761 0.929 . S
C1750 C1746 1.531 . S
C1750 H1762 0.960 . S
C1750 H1763 0.962 . S
C1750 H1764 0.960 . S
C1751 C1748 1.511 . S
C1751 H1765 0.961 . S
C1751 H1766 0.961 . S
C1751 H1767 0.961 . S
C1752 C1753 1.370 . S
C1752 C1754 1.363 . S
C1752 H1768 0.931 . S
C1753 C1752 1.370 . S
C1753 C1757 1.408 . S
C1754 C1752 1.363 . S
C1754 C1755 1.370 . S
C1754 C1758 1.524 . S
C1755 C1747 1.503 . S
C1755 C1754 1.370 . S
C1755 C1756 1.403 . S
C1756 C1755 1.403 . S
C1756 C1757 1.404 . S
C1756 C1759 1.539 . S
C1757 C1753 1.408 . S
C1757 C1756 1.404 . S
C1757 H1769 0.930 . S
C1758 C1754 1.524 . S
C1758 H1770 0.956 . S
C1758 H1771 0.961 . S
C1758 H1772 0.961 . S
C1759 C1756 1.539 . S
C1759 H1773 0.958 . S
C1759 H1774 0.961 . S
C1759 H1775 0.960 . S
H1760 C1744 0.931 . S
H1761 C1749 0.929 . S
H1762 C1750 0.960 . S
H1763 C1750 0.962 . S
H1764 C1750 0.960 . S
H1765 C1751 0.961 . S
H1766 C1751 0.961 . S
H1767 C1751 0.961 . S
H1768 C1752 0.931 . S
H1769 C1757 0.930 . S
H1770 C1758 0.956 . S
H1771 C1758 0.961 . S
H1772 C1758 0.961 . S
H1773 C1759 0.958 . S
H1774 C1759 0.961 . S
H1775 C1759 0.960 . S
C1776 C1777 1.391 . S
C1776 C1778 1.394 . S
C1776 H1792 0.931 . S
C1777 C1776 1.391 . S
C1777 C1781 1.376 . S
C1778 C1776 1.394 . S
C1778 C1779 1.369 . S
C1778 C1782 1.531 . S
C1779 C1778 1.369 . S
C1779 C1780 1.410 . S
C1779 C1787 1.503 . S
C1780 C1779 1.410 . S
C1780 C1781 1.392 . S
C1780 C1783 1.511 . S
C1781 C1777 1.376 . S
C1781 C1780 1.392 . S
C1781 H1793 0.929 . S
C1782 C1778 1.531 . S
C1782 H1794 0.960 . S
C1782 H1795 0.962 . S
C1782 H1796 0.960 . S
C1783 C1780 1.511 . S
C1783 H1797 0.961 . S
C1783 H1798 0.961 . S
C1783 H1799 0.961 . S
C1784 C1785 1.370 . S
C1784 C1786 1.363 . S
C1784 H1800 0.931 . S
C1785 C1784 1.370 . S
C1785 C1789 1.408 . S
C1786 C1784 1.363 . S
C1786 C1787 1.370 . S
C1786 C1790 1.524 . S
C1787 C1779 1.503 . S
C1787 C1786 1.370 . S
C1787 C1788 1.403 . S
C1788 C1787 1.403 . S
C1788 C1789 1.404 . S
C1788 C1791 1.539 . S
C1789 C1785 1.408 . S
C1789 C1788 1.404 . S
C1789 H1801 0.930 . S
C1790 C1786 1.524 . S
C1790 H1802 0.956 . S
C1790 H1803 0.961 . S
C1790 H1804 0.961 . S
C1791 C1788 1.539 . S
C1791 H1805 0.958 . S
C1791 H1806 0.961 . S
C1791 H1807 0.960 . S
H1792 C1776 0.931 . S
H1793 C1781 0.929 . S
H1794 C1782 0.960 . S
H1795 C1782 0.962 . S
H1796 C1782 0.960 . S
H1797 C1783 0.961 . S
H1798 C1783 0.961 . S
H1799 C1783 0.961 . S
H1800 C1784 0.931 . S
H1801 C1789 0.930 . S
H1802 C1790 0.956 . S
H1803 C1790 0.961 . S
H1804 C1790 0.961 . S
H1805 C1791 0.958 . S
H1806 C1791 0.961 . S
H1807 C1791 0.960 . S
C1808 C1809 1.391 . S
C1808 C1810 1.394 . S
C1808 H1824 0.931 . S
C1809 C1808 1.391 . S
C1809 C1813 1.376 . S
C1810 C1808 1.394 . S
C1810 C1811 1.369 . S
C1810 C1814 1.531 . S
C1811 C1810 1.369 . S
C1811 C1812 1.410 . S
C1811 C1819 1.503 . S
C1812 C1811 1.410 . S
C1812 C1813 1.392 . S
C1812 C1815 1.511 . S
C1813 C1809 1.376 . S
C1813 C1812 1.392 . S
C1813 H1825 0.929 . S
C1814 C1810 1.531 . S
C1814 H1826 0.960 . S
C1814 H1827 0.962 . S
C1814 H1828 0.960 . S
C1815 C1812 1.511 . S
C1815 H1829 0.961 . S
C1815 H1830 0.961 . S
C1815 H1831 0.961 . S
C1816 C1817 1.370 . S
C1816 C1818 1.363 . S
C1816 H1832 0.931 . S
C1817 C1816 1.370 . S
C1817 C1821 1.408 . S
C1818 C1816 1.363 . S
C1818 C1819 1.370 . S
C1818 C1822 1.524 . S
C1819 C1811 1.503 . S
C1819 C1818 1.370 . S
C1819 C1820 1.403 . S
C1820 C1819 1.403 . S
C1820 C1821 1.404 . S
C1820 C1823 1.539 . S
C1821 C1817 1.408 . S
C1821 C1820 1.404 . S
C1821 H1833 0.930 . S
C1822 C1818 1.524 . S
C1822 H1834 0.956 . S
C1822 H1835 0.961 . S
C1822 H1836 0.961 . S
C1823 C1820 1.539 . S
C1823 H1837 0.958 . S
C1823 H1838 0.961 . S
C1823 H1839 0.960 . S
H1824 C1808 0.931 . S
H1825 C1813 0.929 . S
H1826 C1814 0.960 . S
H1827 C1814 0.962 . S
H1828 C1814 0.960 . S
H1829 C1815 0.961 . S
H1830 C1815 0.961 . S
H1831 C1815 0.961 . S
H1832 C1816 0.931 . S
H1833 C1821 0.930 . S
H1834 C1822 0.956 . S
H1835 C1822 0.961 . S
H1836 C1822 0.961 . S
H1837 C1823 0.958 . S
H1838 C1823 0.961 . S
H1839 C1823 0.960 . S
C1840 C1841 1.391 . S
C1840 C1842 1.394 . S
C1840 H1856 0.931 . S
C1841 C1840 1.391 . S
C1841 C1845 1.376 . S
C1842 C1840 1.394 . S
C1842 C1843 1.369 . S
C1842 C1846 1.531 . S
C1843 C1842 1.369 . S
C1843 C1844 1.410 . S
C1843 C1851 1.503 . S
C1844 C1843 1.410 . S
C1844 C1845 1.392 . S
C1844 C1847 1.511 . S
C1845 C1841 1.376 . S
C1845 C1844 1.392 . S
C1845 H1857 0.929 . S
C1846 C1842 1.531 . S
C1846 H1858 0.960 . S
C1846 H1859 0.962 . S
C1846 H1860 0.960 . S
C1847 C1844 1.511 . S
C1847 H1861 0.961 . S
C1847 H1862 0.961 . S
C1847 H1863 0.961 . S
C1848 C1849 1.370 . S
C1848 C1850 1.363 . S
C1848 H1864 0.931 . S
C1849 C1848 1.370 . S
C1849 C1853 1.408 . S
C1850 C1848 1.363 . S
C1850 C1851 1.370 . S
C1850 C1854 1.524 . S
C1851 C1843 1.503 . S
C1851 C1850 1.370 . S
C1851 C1852 1.403 . S
C1852 C1851 1.403 . S
C1852 C1853 1.404 . S
C1852 C1855 1.539 . S
C1853 C1849 1.408 . S
C1853 C1852 1.404 . S
C1853 H1865 0.930 . S
C1854 C1850 1.524 . S
C1854 H1866 0.956 . S
C1854 H1867 0.961 . S
C1854 H1868 0.961 . S
C1855 C1852 1.539 . S
C1855 H1869 0.958 . S
C1855 H1870 0.961 . S
C1855 H1871 0.960 . S
H1856 C1840 0.931 . S
H1857 C1845 0.929 . S
H1858 C1846 0.960 . S
H1859 C1846 0.962 . S
H1860 C1846 0.960 . S
H1861 C1847 0.961 . S
H1862 C1847 0.961 . S
H1863 C1847 0.961 . S
H1864 C1848 0.931 . S
H1865 C1853 0.930 . S
H1866 C1854 0.956 . S
H1867 C1854 0.961 . S
H1868 C1854 0.961 . S
H1869 C1855 0.958 . S
H1870 C1855 0.961 . S
H1871 C1855 0.960 . S
C1872 C1873 1.391 . S
C1872 C1874 1.394 . S
C1872 H1888 0.931 . S
C1873 C1872 1.391 . S
C1873 C1877 1.376 . S
C1874 C1872 1.394 . S
C1874 C1875 1.369 . S
C1874 C1878 1.531 . S
C1875 C1874 1.369 . S
C1875 C1876 1.410 . S
C1875 C1883 1.503 . S
C1876 C1875 1.410 . S
C1876 C1877 1.392 . S
C1876 C1879 1.511 . S
C1877 C1873 1.376 . S
C1877 C1876 1.392 . S
C1877 H1889 0.929 . S
C1878 C1874 1.531 . S
C1878 H1890 0.960 . S
C1878 H1891 0.962 . S
C1878 H1892 0.960 . S
C1879 C1876 1.511 . S
C1879 H1893 0.961 . S
C1879 H1894 0.961 . S
C1879 H1895 0.961 . S
C1880 C1881 1.370 . S
C1880 C1882 1.363 . S
C1880 H1896 0.931 . S
C1881 C1880 1.370 . S
C1881 C1885 1.408 . S
C1882 C1880 1.363 . S
C1882 C1883 1.370 . S
C1882 C1886 1.524 . S
C1883 C1875 1.503 . S
C1883 C1882 1.370 . S
C1883 C1884 1.403 . S
C1884 C1883 1.403 . S
C1884 C1885 1.404 . S
C1884 C1887 1.539 . S
C1885 C1881 1.408 . S
C1885 C1884 1.404 . S
C1885 H1897 0.930 . S
C1886 C1882 1.524 . S
C1886 H1898 0.956 . S
C1886 H1899 0.961 . S
C1886 H1900 0.961 . S
C1887 C1884 1.539 . S
C1887 H1901 0.958 . S
C1887 H1902 0.961 . S
C1887 H1903 0.960 . S
H1888 C1872 0.931 . S
H1889 C1877 0.929 . S
H1890 C1878 0.960 . S
H1891 C1878 0.962 . S
H1892 C1878 0.960 . S
H1893 C1879 0.961 . S
H1894 C1879 0.961 . S
H1895 C1879 0.961 . S
H1896 C1880 0.931 . S
H1897 C1885 0.930 . S
H1898 C1886 0.956 . S
H1899 C1886 0.961 . S
H1900 C1886 0.961 . S
H1901 C1887 0.958 . S
H1902 C1887 0.961 . S
H1903 C1887 0.960 . S
C1904 C1905 1.391 . S
C1904 C1906 1.394 . S
C1904 H1920 0.931 . S
C1905 C1904 1.391 . S
C1905 C1909 1.376 . S
C1906 C1904 1.394 . S
C1906 C1907 1.369 . S
C1906 C1910 1.531 . S
C1907 C1906 1.369 . S
C1907 C1908 1.410 . S
C1907 C1915 1.503 . S
C1908 C1907 1.410 . S
C1908 C1909 1.392 . S
C1908 C1911 1.511 . S
C1909 C1905 1.376 . S
C1909 C1908 1.392 . S
C1909 H1921 0.929 . S
C1910 C1906 1.531 . S
C1910 H1922 0.960 . S
C1910 H1923 0.962 . S
C1910 H1924 0.960 . S
C1911 C1908 1.511 . S
C1911 H1925 0.961 . S
C1911 H1926 0.961 . S
C1911 H1927 0.961 . S
C1912 C1913 1.370 . S
C1912 C1914 1.363 . S
C1912 H1928 0.931 . S
C1913 C1912 1.370 . S
C1913 C1917 1.408 . S
C1914 C1912 1.363 . S
C1914 C1915 1.370 . S
C1914 C1918 1.524 . S
C1915 C1907 1.503 . S
C1915 C1914 1.370 . S
C1915 C1916 1.403 . S
C1916 C1915 1.403 . S
C1916 C1917 1.404 . S
C1916 C1919 1.539 . S
C1917 C1913 1.408 . S
C1917 C1916 1.404 . S
C1917 H1929 0.930 . S
C1918 C1914 1.524 . S
C1918 H1930 0.956 . S
C1918 H1931 0.961 . S
C1918 H1932 0.961 . S
C1919 C1916 1.539 . S
C1919 H1933 0.958 . S
C1919 H1934 0.961 . S
C1919 H1935 0.960 . S
H1920 C1904 0.931 . S
H1921 C1909 0.929 . S
H1922 C1910 0.960 . S
H1923 C1910 0.962 . S
H1924 C1910 0.960 . S
H1925 C1911 0.961 . S
H1926 C1911 0.961 . S
H1927 C1911 0.961 . S
H1928 C1912 0.931 . S
H1929 C1917 0.930 . S
H1930 C1918 0.956 . S
H1931 C1918 0.961 . S
H1932 C1918 0.961 . S
H1933 C1919 0.958 . S
H1934 C1919 0.961 . S
H1935 C1919 0.960 . S
C1936 C1937 1.391 . S
C1936 C1938 1.394 . S
C1936 H1952 0.931 . S
C1937 C1936 1.391 . S
C1937 C1941 1.376 . S
C1938 C1936 1.394 . S
C1938 C1939 1.369 . S
C1938 C1942 1.531 . S
C1939 C1938 1.369 . S
C1939 C1940 1.410 . S
C1939 C1947 1.503 . S
C1940 C1939 1.410 . S
C1940 C1941 1.392 . S
C1940 C1943 1.511 . S
C1941 C1937 1.376 . S
C1941 C1940 1.392 . S
C1941 H1953 0.929 . S
C1942 C1938 1.531 . S
C1942 H1954 0.960 . S
C1942 H1955 0.962 . S
C1942 H1956 0.960 . S
C1943 C1940 1.511 . S
C1943 H1957 0.961 . S
C1943 H1958 0.961 . S
C1943 H1959 0.961 . S
C1944 C1945 1.370 . S
C1944 C1946 1.363 . S
C1944 H1960 0.931 . S
C1945 C1944 1.370 . S
C1945 C1949 1.408 . S
C1946 C1944 1.363 . S
C1946 C1947 1.370 . S
C1946 C1950 1.524 . S
C1947 C1939 1.503 . S
C1947 C1946 1.370 . S
C1947 C1948 1.403 . S
C1948 C1947 1.403 . S
C1948 C1949 1.404 . S
C1948 C1951 1.539 . S
C1949 C1945 1.408 . S
C1949 C1948 1.404 . S
C1949 H1961 0.930 . S
C1950 C1946 1.524 . S
C1950 H1962 0.956 . S
C1950 H1963 0.961 . S
C1950 H1964 0.961 . S
C1951 C1948 1.539 . S
C1951 H1965 0.958 . S
C1951 H1966 0.961 . S
C1951 H1967 0.960 . S
H1952 C1936 0.931 . S
H1953 C1941 0.929 . S
H1954 C1942 0.960 . S
H1955 C1942 0.962 . S
H1956 C1942 0.960 . S
H1957 C1943 0.961 . S
H1958 C1943 0.961 . S
H1959 C1943 0.961 . S
H1960 C1944 0.931 . S
H1961 C1949 0.930 . S
H1962 C1950 0.956 . S
H1963 C1950 0.961 . S
H1964 C1950 0.961 . S
H1965 C1951 0.958 . S
H1966 C1951 0.961 . S
H1967 C1951 0.960 . S
C1968 C1969 1.391 . S
C1968 C1970 1.394 . S
C1968 H1984 0.931 . S
C1969 C1968 1.391 . S
C1969 C1973 1.376 . S
C1970 C1968 1.394 . S
C1970 C1971 1.369 . S
C1970 C1974 1.531 . S
C1971 C1970 1.369 . S
C1971 C1972 1.410 . S
C1971 C1979 1.503 1_556 S
C1972 C1971 1.410 . S
C1972 C1973 1.392 . S
C1972 C1975 1.511 1_556 S
C1973 C1969 1.376 . S
C1973 C1972 1.392 . S
C1973 H1985 0.929 . S
C1974 C1970 1.531 . S
C1974 H1986 0.960 . S
C1974 H1987 0.962 . S
C1974 H1988 0.960 . S
C1975 C1972 1.511 1_554 S
C1975 H1989 0.961 . S
C1975 H1990 0.961 . S
C1975 H1991 0.961 . S
C1976 C1977 1.370 . S
C1976 C1978 1.363 . S
C1976 H1992 0.931 . S
C1977 C1976 1.370 . S
C1977 C1981 1.408 . S
C1978 C1976 1.363 . S
C1978 C1979 1.370 . S
C1978 C1982 1.524 . S
C1979 C1971 1.503 1_554 S
C1979 C1978 1.370 . S
C1979 C1980 1.403 . S
C1980 C1979 1.403 . S
C1980 C1981 1.404 . S
C1980 C1983 1.539 1_554 S
C1981 C1977 1.408 . S
C1981 C1980 1.404 . S
C1981 H1993 0.930 . S
C1982 C1978 1.524 . S
C1982 H1994 0.956 . S
C1982 H1995 0.961 . S
C1982 H1996 0.961 . S
C1983 C1980 1.539 1_556 S
C1983 H1997 0.958 . S
C1983 H1998 0.961 . S
C1983 H1999 0.960 . S
H1984 C1968 0.931 . S
H1985 C1973 0.929 . S
H1986 C1974 0.960 . S
H1987 C1974 0.962 . S
H1988 C1974 0.960 . S
H1989 C1975 0.961 . S
H1990 C1975 0.961 . S
H1991 C1975 0.961 . S
H1992 C1976 0.931 . S
H1993 C1981 0.930 . S
H1994 C1982 0.956 . S
H1995 C1982 0.961 . S
H1996 C1982 0.961 . S
H1997 C1983 0.958 . S
H1998 C1983 0.961 . S
H1999 C1983 0.960 . S
C2000 C2001 1.391 . S
C2000 C2002 1.394 . S
C2000 H2016 0.931 . S
C2001 C2000 1.391 . S
C2001 C2005 1.376 . S
C2002 C2000 1.394 . S
C2002 C2003 1.369 . S
C2002 C2006 1.531 1_455 S
C2003 C2002 1.369 . S
C2003 C2004 1.410 . S
C2003 C2011 1.503 1_455 S
C2004 C2003 1.410 . S
C2004 C2005 1.392 . S
C2004 C2007 1.511 . S
C2005 C2001 1.376 . S
C2005 C2004 1.392 . S
C2005 H2017 0.929 . S
C2006 C2002 1.531 1_655 S
C2006 H2018 0.960 . S
C2006 H2019 0.962 . S
C2006 H2020 0.960 . S
C2007 C2004 1.511 . S
C2007 H2021 0.961 . S
C2007 H2022 0.961 . S
C2007 H2023 0.961 . S
C2008 C2009 1.370 . S
C2008 C2010 1.363 . S
C2008 H2024 0.931 . S
C2009 C2008 1.370 . S
C2009 C2013 1.408 . S
C2010 C2008 1.363 . S
C2010 C2011 1.370 . S
C2010 C2014 1.524 . S
C2011 C2003 1.503 1_655 S
C2011 C2010 1.370 . S
C2011 C2012 1.403 . S
C2012 C2011 1.403 . S
C2012 C2013 1.404 . S
C2012 C2015 1.539 . S
C2013 C2009 1.408 . S
C2013 C2012 1.404 . S
C2013 H2025 0.930 . S
C2014 C2010 1.524 . S
C2014 H2026 0.956 . S
C2014 H2027 0.961 1_655 S
C2014 H2028 0.961 . S
C2015 C2012 1.539 . S
C2015 H2029 0.958 . S
C2015 H2030 0.961 . S
C2015 H2031 0.960 1_655 S
H2016 C2000 0.931 . S
H2017 C2005 0.929 . S
H2018 C2006 0.960 . S
H2019 C2006 0.962 . S
H2020 C2006 0.960 . S
H2021 C2007 0.961 . S
H2022 C2007 0.961 . S
H2023 C2007 0.961 . S
H2024 C2008 0.931 . S
H2025 C2013 0.930 . S
H2026 C2014 0.956 . S
H2027 C2014 0.961 1_455 S
H2028 C2014 0.961 . S
H2029 C2015 0.958 . S
H2030 C2015 0.961 . S
H2031 C2015 0.960 1_455 S
C2032 C2033 1.391 . S
C2032 C2034 1.394 . S
C2032 H2048 0.931 . S
C2033 C2032 1.391 . S
C2033 C2037 1.376 . S
C2034 C2032 1.394 . S
C2034 C2035 1.369 . S
C2034 C2038 1.531 1_554 S
C2035 C2034 1.369 . S
C2035 C2036 1.410 . S
C2035 C2043 1.503 1_564 S
C2036 C2035 1.410 . S
C2036 C2037 1.392 . S
C2036 C2039 1.511 1_565 S
C2037 C2033 1.376 . S
C2037 C2036 1.392 . S
C2037 H2049 0.929 . S
C2038 C2034 1.531 1_556 S
C2038 H2050 0.960 . S
C2038 H2051 0.962 . S
C2038 H2052 0.960 . S
C2039 C2036 1.511 1_545 S
C2039 H2053 0.961 . S
C2039 H2054 0.961 . S
C2039 H2055 0.961 . S
C2040 C2041 1.370 . S
C2040 C2042 1.363 . S
C2040 H2056 0.931 . S
C2041 C2040 1.370 . S
C2041 C2045 1.408 . S
C2042 C2040 1.363 . S
C2042 C2043 1.370 . S
C2042 C2046 1.524 1_545 S
C2043 C2035 1.503 1_546 S
C2043 C2042 1.370 . S
C2043 C2044 1.403 . S
C2044 C2043 1.403 . S
C2044 C2045 1.404 . S
C2044 C2047 1.539 1_556 S
C2045 C2041 1.408 . S
C2045 C2044 1.404 . S
C2045 H2057 0.930 . S
C2046 C2042 1.524 1_565 S
C2046 H2058 0.956 . S
C2046 H2059 0.961 . S
C2046 H2060 0.961 . S
C2047 C2044 1.539 1_554 S
C2047 H2061 0.958 . S
C2047 H2062 0.961 . S
C2047 H2063 0.960 . S
H2048 C2032 0.931 . S
H2049 C2037 0.929 . S
H2050 C2038 0.960 . S
H2051 C2038 0.962 . S
H2052 C2038 0.960 . S
H2053 C2039 0.961 . S
H2054 C2039 0.961 . S
H2055 C2039 0.961 . S
H2056 C2040 0.931 . S
H2057 C2045 0.930 . S
H2058 C2046 0.956 . S
H2059 C2046 0.961 . S
H2060 C2046 0.961 . S
H2061 C2047 0.958 . S
H2062 C2047 0.961 . S
H2063 C2047 0.960 . S
C2064 C2065 1.391 . S
C2064 C2066 1.394 . S
C2064 H2080 0.931 . S
C2065 C2064 1.391 . S
C2065 C2069 1.376 . S
C2066 C2064 1.394 . S
C2066 C2067 1.369 . S
C2066 C2070 1.531 . S
C2067 C2066 1.369 . S
C2067 C2068 1.410 . S
C2067 C2075 1.503 . S
C2068 C2067 1.410 . S
C2068 C2069 1.392 . S
C2068 C2071 1.511 . S
C2069 C2065 1.376 . S
C2069 C2068 1.392 . S
C2069 H2081 0.929 . S
C2070 C2066 1.531 . S
C2070 H2082 0.960 . S
C2070 H2083 0.962 . S
C2070 H2084 0.960 . S
C2071 C2068 1.511 . S
C2071 H2085 0.961 . S
C2071 H2086 0.961 . S
C2071 H2087 0.961 . S
C2072 C2073 1.370 . S
C2072 C2074 1.363 . S
C2072 H2088 0.931 . S
C2073 C2072 1.370 . S
C2073 C2077 1.408 . S
C2074 C2072 1.363 . S
C2074 C2075 1.370 . S
C2074 C2078 1.524 . S
C2075 C2067 1.503 . S
C2075 C2074 1.370 . S
C2075 C2076 1.403 . S
C2076 C2075 1.403 . S
C2076 C2077 1.404 . S
C2076 C2079 1.539 . S
C2077 C2073 1.408 . S
C2077 C2076 1.404 . S
C2077 H2089 0.930 . S
C2078 C2074 1.524 . S
C2078 H2090 0.956 . S
C2078 H2091 0.961 . S
C2078 H2092 0.961 . S
C2079 C2076 1.539 . S
C2079 H2093 0.958 . S
C2079 H2094 0.961 . S
C2079 H2095 0.960 . S
H2080 C2064 0.931 . S
H2081 C2069 0.929 . S
H2082 C2070 0.960 . S
H2083 C2070 0.962 . S
H2084 C2070 0.960 . S
H2085 C2071 0.961 . S
H2086 C2071 0.961 . S
H2087 C2071 0.961 . S
H2088 C2072 0.931 . S
H2089 C2077 0.930 . S
H2090 C2078 0.956 . S
H2091 C2078 0.961 . S
H2092 C2078 0.961 . S
H2093 C2079 0.958 . S
H2094 C2079 0.961 . S
H2095 C2079 0.960 . S
C2096 C2097 1.391 . S
C2096 C2098 1.394 . S
C2096 H2112 0.931 . S
C2097 C2096 1.391 . S
C2097 C2101 1.376 . S
C2098 C2096 1.394 . S
C2098 C2099 1.369 . S
C2098 C2102 1.531 1_655 S
C2099 C2098 1.369 . S
C2099 C2100 1.410 . S
C2099 C2107 1.503 1_656 S
C2100 C2099 1.410 . S
C2100 C2101 1.392 . S
C2100 C2103 1.511 1_556 S
C2101 C2097 1.376 . S
C2101 C2100 1.392 . S
C2101 H2113 0.929 . S
C2102 C2098 1.531 1_455 S
C2102 H2114 0.960 . S
C2102 H2115 0.962 . S
C2102 H2116 0.960 . S
C2103 C2100 1.511 1_554 S
C2103 H2117 0.961 . S
C2103 H2118 0.961 . S
C2103 H2119 0.958 1_554 S
C2104 C2105 1.370 . S
C2104 C2106 1.363 . S
C2104 H2120 0.931 . S
C2105 C2104 1.370 . S
C2105 C2109 1.408 . S
C2106 C2104 1.363 . S
C2106 C2107 1.370 . S
C2106 C2110 1.524 1_455 S
C2107 C2099 1.503 1_454 S
C2107 C2106 1.370 . S
C2107 C2108 1.399 1_554 S
C2108 C2107 1.399 1_556 S
C2108 C2109 1.392 1_556 S
C2108 C2111 1.554 . S
C2109 C2105 1.408 . S
C2109 C2108 1.392 1_554 S
C2109 H2121 0.930 . S
C2110 C2106 1.524 1_655 S
C2110 H2122 0.956 . S
C2110 H2123 0.961 . S
C2110 H2124 0.961 . S
C2111 C2108 1.554 . S
C2111 H2125 0.958 . S
C2111 H2126 0.961 . S
C2111 H2127 0.960 . S
H2112 C2096 0.931 . S
H2113 C2101 0.929 . S
H2114 C2102 0.960 . S
H2115 C2102 0.962 . S
H2116 C2102 0.960 . S
H2117 C2103 0.961 . S
H2118 C2103 0.961 . S
H2119 C2103 0.958 1_556 S
H2120 C2104 0.931 . S
H2121 C2109 0.930 . S
H2122 C2110 0.956 . S
H2123 C2110 0.961 . S
H2124 C2110 0.961 . S
H2125 C2111 0.958 . S
H2126 C2111 0.961 . S
H2127 C2111 0.960 . S
C2128 C2129 1.391 . S
C2128 C2130 1.394 . S
C2128 H2144 0.931 . S
C2129 C2128 1.391 . S
C2129 C2133 1.376 . S
C2130 C2128 1.394 . S
C2130 C2131 1.369 . S
C2130 C2134 1.531 1_565 S
C2131 C2130 1.369 . S
C2131 C2132 1.410 . S
C2131 C2139 1.503 1_565 S
C2132 C2131 1.410 . S
C2132 C2133 1.392 . S
C2132 C2135 1.511 . S
C2133 C2129 1.376 . S
C2133 C2132 1.392 . S
C2133 H2145 0.929 . S
C2134 C2130 1.531 1_545 S
C2134 H2146 0.960 . S
C2134 H2147 0.962 . S
C2134 H2148 0.960 . S
C2135 C2132 1.511 . S
C2135 H2149 0.961 . S
C2135 H2150 0.961 . S
C2135 H2151 0.961 . S
C2136 C2137 1.370 . S
C2136 C2138 1.363 . S
C2136 H2152 0.931 . S
C2137 C2136 1.370 . S
C2137 C2141 1.408 . S
C2138 C2136 1.363 . S
C2138 C2139 1.370 . S
C2138 C2142 1.524 1_545 S
C2139 C2131 1.503 1_545 S
C2139 C2138 1.370 . S
C2139 C2140 1.403 . S
C2140 C2139 1.403 . S
C2140 C2141 1.404 . S
C2140 C2143 1.539 . S
C2141 C2137 1.408 . S
C2141 C2140 1.404 . S
C2141 H2153 0.930 . S
C2142 C2138 1.524 1_565 S
C2142 H2154 0.956 . S
C2142 H2155 0.961 . S
C2142 H2156 0.961 . S
C2143 C2140 1.539 . S
C2143 H2157 0.958 . S
C2143 H2158 0.961 . S
C2143 H2159 0.960 . S
H2144 C2128 0.931 . S
H2145 C2133 0.929 . S
H2146 C2134 0.960 . S
H2147 C2134 0.962 . S
H2148 C2134 0.960 . S
H2149 C2135 0.961 . S
H2150 C2135 0.961 . S
H2151 C2135 0.961 . S
H2152 C2136 0.931 . S
H2153 C2141 0.930 . S
H2154 C2142 0.956 . S
H2155 C2142 0.961 . S
H2156 C2142 0.961 . S
H2157 C2143 0.958 . S
H2158 C2143 0.961 . S
H2159 C2143 0.960 . S
C1009 C403 1.355 . S
C1017 C70 1.278 . S
C1041 C487 1.377 . S
C1049 C154 1.279 . S
C1073 C238 1.295 . S
C1081 C67 1.360 . S
C1105 C322 1.306 . S
C1113 C151 1.352 . S
C1137 C406 1.225 . S
C1145 C235 1.331 . S
C1169 C319 1.360 . S
C1177 C490 1.280 . S
C1201 C739 1.335 . S
C1209 C574 1.241 . S
C1233 C658 1.205 . S
C1241 C823 1.338 . S
C1265 C907 1.323 . S
C1273 C742 1.261 . S
C1297 C826 1.310 . S
C1305 C991 1.358 . S
C1329 C910 1.234 . S
C1337 C571 1.332 . S
C1361 C655 1.377 . S
C1369 C994 1.279 . S
C1393 C392 1.364 . S
C1401 C58 1.311 . S
C1425 C142 1.377 . S
C1433 C476 1.407 . S
C1457 C226 1.303 . S
C1465 C56 1.388 . S
C1489 C310 1.274 . S
C1497 C140 1.413 . S
C1521 C224 1.427 . S
C1529 C394 1.346 . S
C1553 C308 1.359 . S
C1561 C478 1.318 . S
C1585 C728 1.379 . S
C1593 C562 1.342 . S
C1617 C646 1.266 . S
C1625 C812 1.399 . S
C1649 C730 1.275 . S
C1657 C896 1.393 . S
C1681 C980 1.435 . S
C1689 C814 1.343 . S
C1713 C898 1.376 . S
C1721 C560 1.404 . S
C1745 C644 1.382 . S
C1753 C982 1.343 . S
C1777 C903 1.879 . S
C1785 C63 1.878 . S
C1809 C147 1.857 . S
C1817 C987 1.872 . S
C1841 C231 1.875 . S
C1849 C567 1.889 . S
C1873 C315 1.908 . S
C1881 C651 1.892 . S
C1905 C399 1.902 . S
C1913 C735 1.897 . S
C1937 C819 1.858 . S
C1945 C483 1.872 . S
C1969 C830 2.033 . S
C1977 C74 2.039 . S
C2001 C914 2.049 . S
C2009 C158 2.033 . S
C2033 C242 1.995 . S
C2041 C998 2.027 . S
C2065 C326 2.050 . S
C2073 C578 2.032 . S
C2097 C662 2.022 . S
C2105 C410 2.039 . S
C2129 C746 2.019 . S
C2137 C494 2.039 . S
