# Generated by pormake.
# Topology unr, (4)-cn, num edge types: 1
# Building blocks:
#     Node 0, Type 0, BuildingBlock: GALJAG_clean_sbu_0, # of connection points: 4
#     Node 1, Type 0, BuildingBlock: GALJAG_clean_sbu_0, # of connection points: 4
#     Node 2, Type 0, BuildingBlock: GALJAG_clean_sbu_0, # of connection points: 4
#     Node 3, Type 0, BuildingBlock: GALJAG_clean_sbu_0, # of connection points: 4
#     Node 4, Type 0, BuildingBlock: GALJAG_clean_sbu_0, # of connection points: 4
#     Node 5, Type 0, BuildingBlock: GALJAG_clean_sbu_0, # of connection points: 4
#     Node 6, Type 0, BuildingBlock: GALJAG_clean_sbu_0, # of connection points: 4
#     Node 7, Type 0, BuildingBlock: GALJAG_clean_sbu_0, # of connection points: 4
#     Node 8, Type 0, BuildingBlock: GALJAG_clean_sbu_0, # of connection points: 4
#     Node 9, Type 0, BuildingBlock: GALJAG_clean_sbu_0, # of connection points: 4
#     Node 10, Type 0, BuildingBlock: GALJAG_clean_sbu_0, # of connection points: 4
#     Node 11, Type 0, BuildingBlock: GALJAG_clean_sbu_0, # of connection points: 4
#     Node 12, Type 0, BuildingBlock: GALJAG_clean_sbu_0, # of connection points: 4
#     Node 13, Type 0, BuildingBlock: GALJAG_clean_sbu_0, # of connection points: 4
#     Node 14, Type 0, BuildingBlock: GALJAG_clean_sbu_0, # of connection points: 4
#     Node 15, Type 0, BuildingBlock: GALJAG_clean_sbu_0, # of connection points: 4
#     Node 16, Type 0, BuildingBlock: GALJAG_clean_sbu_0, # of connection points: 4
#     Node 17, Type 0, BuildingBlock: GALJAG_clean_sbu_0, # of connection points: 4
#     Node 18, Type 0, BuildingBlock: GALJAG_clean_sbu_0, # of connection points: 4
#     Node 19, Type 0, BuildingBlock: GALJAG_clean_sbu_0, # of connection points: 4
#     Node 20, Type 0, BuildingBlock: GALJAG_clean_sbu_0, # of connection points: 4
#     Node 21, Type 0, BuildingBlock: GALJAG_clean_sbu_0, # of connection points: 4
#     Node 22, Type 0, BuildingBlock: GALJAG_clean_sbu_0, # of connection points: 4
#     Node 23, Type 0, BuildingBlock: GALJAG_clean_sbu_0, # of connection points: 4
#     Node 24, Type 0, BuildingBlock: GALJAG_clean_sbu_0, # of connection points: 4
#     Node 25, Type 0, BuildingBlock: GALJAG_clean_sbu_0, # of connection points: 4
#     Node 26, Type 0, BuildingBlock: GALJAG_clean_sbu_0, # of connection points: 4
#     Node 27, Type 0, BuildingBlock: GALJAG_clean_sbu_0, # of connection points: 4
#     Node 28, Type 0, BuildingBlock: GALJAG_clean_sbu_0, # of connection points: 4
#     Node 29, Type 0, BuildingBlock: GALJAG_clean_sbu_0, # of connection points: 4
#     Node 30, Type 0, BuildingBlock: GALJAG_clean_sbu_0, # of connection points: 4
#     Node 31, Type 0, BuildingBlock: GALJAG_clean_sbu_0, # of connection points: 4
#     Node 32, Type 0, BuildingBlock: GALJAG_clean_sbu_0, # of connection points: 4
#     Node 33, Type 0, BuildingBlock: GALJAG_clean_sbu_0, # of connection points: 4
#     Node 34, Type 0, BuildingBlock: GALJAG_clean_sbu_0, # of connection points: 4
#     Node 35, Type 0, BuildingBlock: GALJAG_clean_sbu_0, # of connection points: 4
#     Edge 36, Type (0, 0), BuildingBlock: XUDNAN_clean_linker_2, # of connection points: 2
#     Edge 37, Type (0, 0), BuildingBlock: XUDNAN_clean_linker_2, # of connection points: 2
#     Edge 38, Type (0, 0), BuildingBlock: XUDNAN_clean_linker_2, # of connection points: 2
#     Edge 39, Type (0, 0), BuildingBlock: XUDNAN_clean_linker_2, # of connection points: 2
#     Edge 40, Type (0, 0), BuildingBlock: XUDNAN_clean_linker_2, # of connection points: 2
#     Edge 41, Type (0, 0), BuildingBlock: XUDNAN_clean_linker_2, # of connection points: 2
#     Edge 42, Type (0, 0), BuildingBlock: XUDNAN_clean_linker_2, # of connection points: 2
#     Edge 43, Type (0, 0), BuildingBlock: XUDNAN_clean_linker_2, # of connection points: 2
#     Edge 44, Type (0, 0), BuildingBlock: XUDNAN_clean_linker_2, # of connection points: 2
#     Edge 45, Type (0, 0), BuildingBlock: XUDNAN_clean_linker_2, # of connection points: 2
#     Edge 46, Type (0, 0), BuildingBlock: XUDNAN_clean_linker_2, # of connection points: 2
#     Edge 47, Type (0, 0), BuildingBlock: XUDNAN_clean_linker_2, # of connection points: 2
#     Edge 48, Type (0, 0), BuildingBlock: XUDNAN_clean_linker_2, # of connection points: 2
#     Edge 49, Type (0, 0), BuildingBlock: XUDNAN_clean_linker_2, # of connection points: 2
#     Edge 50, Type (0, 0), BuildingBlock: XUDNAN_clean_linker_2, # of connection points: 2
#     Edge 51, Type (0, 0), BuildingBlock: XUDNAN_clean_linker_2, # of connection points: 2
#     Edge 52, Type (0, 0), BuildingBlock: XUDNAN_clean_linker_2, # of connection points: 2
#     Edge 53, Type (0, 0), BuildingBlock: XUDNAN_clean_linker_2, # of connection points: 2
#     Edge 54, Type (0, 0), BuildingBlock: XUDNAN_clean_linker_2, # of connection points: 2
#     Edge 55, Type (0, 0), BuildingBlock: XUDNAN_clean_linker_2, # of connection points: 2
#     Edge 56, Type (0, 0), BuildingBlock: XUDNAN_clean_linker_2, # of connection points: 2
#     Edge 57, Type (0, 0), BuildingBlock: XUDNAN_clean_linker_2, # of connection points: 2
#     Edge 58, Type (0, 0), BuildingBlock: XUDNAN_clean_linker_2, # of connection points: 2
#     Edge 59, Type (0, 0), BuildingBlock: XUDNAN_clean_linker_2, # of connection points: 2
#     Edge 60, Type (0, 0), BuildingBlock: XUDNAN_clean_linker_2, # of connection points: 2
#     Edge 61, Type (0, 0), BuildingBlock: XUDNAN_clean_linker_2, # of connection points: 2
#     Edge 62, Type (0, 0), BuildingBlock: XUDNAN_clean_linker_2, # of connection points: 2
#     Edge 63, Type (0, 0), BuildingBlock: XUDNAN_clean_linker_2, # of connection points: 2
#     Edge 64, Type (0, 0), BuildingBlock: XUDNAN_clean_linker_2, # of connection points: 2
#     Edge 65, Type (0, 0), BuildingBlock: XUDNAN_clean_linker_2, # of connection points: 2
#     Edge 66, Type (0, 0), BuildingBlock: XUDNAN_clean_linker_2, # of connection points: 2
#     Edge 67, Type (0, 0), BuildingBlock: XUDNAN_clean_linker_2, # of connection points: 2
#     Edge 68, Type (0, 0), BuildingBlock: XUDNAN_clean_linker_2, # of connection points: 2
#     Edge 69, Type (0, 0), BuildingBlock: XUDNAN_clean_linker_2, # of connection points: 2
#     Edge 70, Type (0, 0), BuildingBlock: XUDNAN_clean_linker_2, # of connection points: 2
#     Edge 71, Type (0, 0), BuildingBlock: XUDNAN_clean_linker_2, # of connection points: 2
#     Edge 72, Type (0, 0), BuildingBlock: XUDNAN_clean_linker_2, # of connection points: 2
#     Edge 73, Type (0, 0), BuildingBlock: XUDNAN_clean_linker_2, # of connection points: 2
#     Edge 74, Type (0, 0), BuildingBlock: XUDNAN_clean_linker_2, # of connection points: 2
#     Edge 75, Type (0, 0), BuildingBlock: XUDNAN_clean_linker_2, # of connection points: 2
#     Edge 76, Type (0, 0), BuildingBlock: XUDNAN_clean_linker_2, # of connection points: 2
#     Edge 77, Type (0, 0), BuildingBlock: XUDNAN_clean_linker_2, # of connection points: 2
#     Edge 78, Type (0, 0), BuildingBlock: XUDNAN_clean_linker_2, # of connection points: 2
#     Edge 79, Type (0, 0), BuildingBlock: XUDNAN_clean_linker_2, # of connection points: 2
#     Edge 80, Type (0, 0), BuildingBlock: XUDNAN_clean_linker_2, # of connection points: 2
#     Edge 81, Type (0, 0), BuildingBlock: XUDNAN_clean_linker_2, # of connection points: 2
#     Edge 82, Type (0, 0), BuildingBlock: XUDNAN_clean_linker_2, # of connection points: 2
#     Edge 83, Type (0, 0), BuildingBlock: XUDNAN_clean_linker_2, # of connection points: 2
#     Edge 84, Type (0, 0), BuildingBlock: XUDNAN_clean_linker_2, # of connection points: 2
#     Edge 85, Type (0, 0), BuildingBlock: XUDNAN_clean_linker_2, # of connection points: 2
#     Edge 86, Type (0, 0), BuildingBlock: XUDNAN_clean_linker_2, # of connection points: 2
#     Edge 87, Type (0, 0), BuildingBlock: XUDNAN_clean_linker_2, # of connection points: 2
#     Edge 88, Type (0, 0), BuildingBlock: XUDNAN_clean_linker_2, # of connection points: 2
#     Edge 89, Type (0, 0), BuildingBlock: XUDNAN_clean_linker_2, # of connection points: 2
#     Edge 90, Type (0, 0), BuildingBlock: XUDNAN_clean_linker_2, # of connection points: 2
#     Edge 91, Type (0, 0), BuildingBlock: XUDNAN_clean_linker_2, # of connection points: 2
#     Edge 92, Type (0, 0), BuildingBlock: XUDNAN_clean_linker_2, # of connection points: 2
#     Edge 93, Type (0, 0), BuildingBlock: XUDNAN_clean_linker_2, # of connection points: 2
#     Edge 94, Type (0, 0), BuildingBlock: XUDNAN_clean_linker_2, # of connection points: 2
#     Edge 95, Type (0, 0), BuildingBlock: XUDNAN_clean_linker_2, # of connection points: 2
#     Edge 96, Type (0, 0), BuildingBlock: XUDNAN_clean_linker_2, # of connection points: 2
#     Edge 97, Type (0, 0), BuildingBlock: XUDNAN_clean_linker_2, # of connection points: 2
#     Edge 98, Type (0, 0), BuildingBlock: XUDNAN_clean_linker_2, # of connection points: 2
#     Edge 99, Type (0, 0), BuildingBlock: XUDNAN_clean_linker_2, # of connection points: 2
#     Edge 100, Type (0, 0), BuildingBlock: XUDNAN_clean_linker_2, # of connection points: 2
#     Edge 101, Type (0, 0), BuildingBlock: XUDNAN_clean_linker_2, # of connection points: 2
#     Edge 102, Type (0, 0), BuildingBlock: XUDNAN_clean_linker_2, # of connection points: 2
#     Edge 103, Type (0, 0), BuildingBlock: XUDNAN_clean_linker_2, # of connection points: 2
#     Edge 104, Type (0, 0), BuildingBlock: XUDNAN_clean_linker_2, # of connection points: 2
#     Edge 105, Type (0, 0), BuildingBlock: XUDNAN_clean_linker_2, # of connection points: 2
#     Edge 106, Type (0, 0), BuildingBlock: XUDNAN_clean_linker_2, # of connection points: 2
#     Edge 107, Type (0, 0), BuildingBlock: XUDNAN_clean_linker_2, # of connection points: 2
# Relax obj value: 0.387
# Max RMSD: 0.141
# Mean RMSD: 0.140
data_MOF--net-unr--node1-GALJAG_clean_sbu_0--edge1-XUDNAN_clean_linker_2
_symmetry_space_group_name_H-M    P1
_symmetry_Int_Tables_number       1
_symmetry_cell_setting            triclinic
loop_
_symmetry_equiv_pos_as_xyz
'x, y, z'
_cell_length_a     49.791242
_cell_length_b     49.767403
_cell_length_c     77.805205
_cell_angle_alpha  89.991783
_cell_angle_beta   89.979887
_cell_angle_gamma 120.07423
loop_
_atom_site_label
_atom_site_type_symbol
_atom_site_fract_x
_atom_site_fract_y
_atom_site_fract_z
_atom_type_partial_charge
In0 In 0.18877 0.13266 0.17615 0.0
O1 O 0.23497 0.15231 0.18999 0.0
O2 O 0.23413 0.14224 0.16349 0.0
C3 C 0.17095 0.15643 0.15026 0.0
C4 C 0.17099 0.1457 0.20621 0.0
C5 C 0.15377 0.07068 0.1726 0.0
O6 O 0.17548 0.13391 0.1482 0.0
O7 O 0.17833 0.16869 0.16493 0.0
O8 O 0.18243 0.08393 0.17577 0.0
O9 O 0.14268 0.08856 0.17189 0.0
C10 C 0.24966 0.15102 0.17718 0.0
O11 O 0.16661 0.11898 0.20279 0.0
O12 O 0.18437 0.16567 0.19452 0.0
In13 In 0.90336 0.05829 0.14912 0.0
O14 O 0.90452 0.0978 0.13379 0.0
O15 O 0.86085 0.06202 0.14241 0.0
C16 C 0.87403 -0.00303 0.14174 0.0
C17 C 0.90347 0.06473 0.18367 0.0
C18 C 0.96271 0.08751 0.13872 0.0
O19 O 0.86191 0.00907 0.15077 0.0
O20 O 0.9005 0.01598 0.13591 0.0
O21 O 0.94062 0.07058 0.12872 0.0
O22 O 0.95485 0.08891 0.15399 0.0
C23 C 0.87597 0.08812 0.13524 0.0
O24 O 0.89978 0.08197 0.17325 0.0
O25 O 0.90839 0.04468 0.1767 0.0
In26 In 0.93464 0.8112 0.17823 0.0
O27 O 0.95941 0.83194 0.20352 0.0
O28 O 0.91324 0.79417 0.20481 0.0
C29 C 0.8927 0.82426 0.16509 0.0
C30 C 0.91826 0.75209 0.17122 0.0
C31 C 0.98789 0.85837 0.16606 0.0
O32 O 0.89406 0.81983 0.18099 0.0
O33 O 0.91179 0.82107 0.15586 0.0
O34 O 0.96575 0.86127 0.17163 0.0
O35 O 0.98333 0.83097 0.16633 0.0
C36 C 0.9373 0.81313 0.21288 0.0
O37 O 0.94205 0.76965 0.17992 0.0
O38 O 0.90513 0.76554 0.16451 0.0
In39 In 0.14631 0.17919 0.36155 0.0
O40 O 0.13472 0.15191 0.33631 0.0
O41 O 0.14815 0.19966 0.33516 0.0
C42 C 0.09126 0.17201 0.37143 0.0
C43 C 0.19396 0.23582 0.36999 0.0
C44 C 0.15317 0.13182 0.37322 0.0
O45 O 0.1005 0.17661 0.35604 0.0
O46 O 0.10995 0.17111 0.38208 0.0
O47 O 0.13145 0.13612 0.37799 0.0
O48 O 0.1723 0.15223 0.36311 0.0
C49 C 0.14031 0.17492 0.32701 0.0
O50 O 0.19712 0.21726 0.3604 0.0
O51 O 0.1673 0.2248 0.37644 0.0
In52 In 0.83816 0.00822 0.33915 0.0
O53 O 0.85717 0.00645 0.31269 0.0
O54 O 0.8382 0.03614 0.31607 0.0
C55 C 0.8543 0.9686 0.35285 0.0
C56 C 0.77567 0.97974 0.33957 0.0
C57 C 0.87892 0.06018 0.35602 0.0
O58 O 0.85421 0.97286 0.33686 0.0
O59 O 0.84619 0.98429 0.36195 0.0
O60 O 0.85447 0.03951 0.36318 0.0
O61 O 0.88202 0.0548 0.34056 0.0
C62 C 0.85112 0.02602 0.30607 0.0
O63 O 0.79244 0.00777 0.34398 0.0
O64 O 0.79041 0.96635 0.33535 0.0
In65 In 0.01633 0.85455 0.36542 0.0
O66 O 0.02343 0.86029 0.33639 0.0
O67 O 0.98944 0.81617 0.34608 0.0
C68 C 0.06276 0.91245 0.37147 0.0
C69 C 0.03275 0.81604 0.3803 0.0
C70 C 0.96726 0.86172 0.372 0.0
O71 O 0.06209 0.89732 0.35827 0.0
O72 O 0.04016 0.89821 0.38166 0.0
O73 O 0.98007 0.85483 0.38391 0.0
O74 O 0.9791 0.86452 0.35736 0.0
C75 C 0.00229 0.83287 0.33306 0.0
O76 O 0.00471 0.80908 0.37913 0.0
O77 O 0.05198 0.84255 0.37469 0.0
In78 In 0.83182 0.96084 0.83477 0.0
O79 O 0.85239 0.9782 0.80778 0.0
O80 O 0.85759 0.94238 0.8191 0.0
C81 C 0.86897 0.0168 0.8491 0.0
C82 C 0.77414 0.95086 0.82858 0.0
C83 C 0.82921 0.91314 0.8528 0.0
O84 O 0.8643 0.01275 0.83314 0.0
O85 O 0.85374 0.99262 0.85806 0.0
O86 O 0.80766 0.90978 0.84288 0.0
O87 O 0.85097 0.94085 0.85437 0.0
C88 C 0.86254 0.95965 0.80628 0.0
O89 O 0.78865 0.96387 0.84218 0.0
O90 O 0.78857 0.94287 0.81846 0.0
In91 In 0.00237 0.84645 0.82021 0.0
O92 O 0.02352 0.85991 0.79351 0.0
O93 O 0.98816 0.87007 0.79956 0.0
C94 C 0.949 0.82496 0.83788 0.0
C95 C 0.01147 0.79767 0.81778 0.0
C96 C 0.04632 0.89908 0.83541 0.0
O97 O 0.94972 0.82197 0.8218 0.0
O98 O 0.97517 0.83725 0.84518 0.0
O99 O 0.05258 0.88029 0.82807 0.0
O100 O 0.0179 0.89082 0.83555 0.0
C101 C 0.00763 0.8717 0.78866 0.0
O102 O 0.98945 0.79835 0.81021 0.0
O103 O 0.02744 0.82051 0.82751 0.0
In104 In 0.12929 0.16217 0.83061 0.0
O105 O 0.09754 0.13106 0.80911 0.0
O106 O 0.13553 0.17494 0.8022 0.0
C107 C 0.13981 0.11681 0.8418 0.0
C108 C 0.17551 0.22175 0.83363 0.0
C109 C 0.0784 0.15605 0.84631 0.0
O110 O 0.1506 0.13093 0.82781 0.0
O111 O 0.12523 0.1267 0.8505 0.0
O112 O 0.10069 0.15722 0.85474 0.0
O113 O 0.08245 0.15886 0.83026 0.0
C114 C 0.11193 0.1503 0.79727 0.0
O115 O 0.14728 0.2132 0.83561 0.0
O116 O 0.18094 0.19982 0.83145 0.0
In117 In 0.88007 0.82883 0.681 0.0
O118 O 0.90354 0.87967 0.68961 0.0
O119 O 0.89238 0.84494 0.70858 0.0
C120 C 0.93052 0.83616 0.66386 0.0
C121 C 0.84946 0.76839 0.6897 0.0
C122 C 0.83942 0.84419 0.66792 0.0
O123 O 0.92903 0.83614 0.68003 0.0
O124 O 0.90651 0.8324 0.6563 0.0
O125 O 0.8612 0.84512 0.6592 0.0
O126 O 0.8368 0.83326 0.68284 0.0
C127 C 0.90302 0.87334 0.70536 0.0
O128 O 0.86111 0.7899 0.7006 0.0
O129 O 0.8524 0.77731 0.6743 0.0
In130 In 0.14044 0.03155 0.66075 0.0
O131 O 0.09499 0.01309 0.67593 0.0
O132 O 0.12894 0.00262 0.68499 0.0
C133 C 0.1251 0.0703 0.64544 0.0
C134 C 0.1997 0.07262 0.66858 0.0
C135 C 0.12543 0.98007 0.64241 0.0
O136 O 0.12608 0.06807 0.66157 0.0
O137 O 0.13171 0.05277 0.63694 0.0
O138 O 0.1431 0.98793 0.65533 0.0
O139 O 0.1178 -0.00031 0.63795 0.0
C140 C 0.10235 -0.00066 0.68697 0.0
O141 O 0.17745 0.0662 0.67858 0.0
O142 O 0.19228 0.05734 0.65473 0.0
In143 In 0.93764 0.1058 0.67345 0.0
O144 O 0.95889 0.09009 0.69465 0.0
O145 O 0.97949 0.13835 0.68937 0.0
C146 C 0.89328 0.04715 0.66705 0.0
C147 C 0.90147 0.13047 0.67974 0.0
C148 C 0.97848 0.1233 0.64735 0.0
O149 O 0.90644 0.05568 0.68153 0.0
O150 O 0.90281 0.06819 0.65575 0.0
O151 O 0.97737 0.14267 0.65735 0.0
O152 O 0.95823 0.09539 0.65012 0.0
C153 C 0.98039 0.11733 0.69792 0.0
O154 O 0.9149 0.13356 0.66554 0.0
O155 O 0.90734 0.11603 0.69102 0.0
In156 In 0.83963 0.45611 0.50511 0.0
O157 O 0.88113 0.50426 0.50051 0.0
O158 O 0.88725 0.46501 0.49769 0.0
C159 C 0.79454 0.46842 0.49622 0.0
C160 C 0.84312 0.45895 0.53973 0.0
C161 C 0.82482 0.40341 0.48804 0.0
O162 O 0.8192 0.47845 0.4876 0.0
O163 O 0.79331 0.45326 0.50943 0.0
O164 O 0.82977 0.40605 0.50405 0.0
O165 O 0.82728 0.4272 0.48081 0.0
C166 C 0.89943 0.49417 0.4974 0.0
O167 O 0.82246 0.43524 0.53199 0.0
O168 O 0.86175 0.4806 0.53006 0.0
In169 In 0.51883 0.35925 0.46549 0.0
O170 O 0.47657 0.36248 0.45731 0.0
O171 O 0.52031 0.39463 0.44668 0.0
C172 C 0.51247 0.30485 0.45461 0.0
C173 C 0.49304 0.35554 0.49637 0.0
C174 C 0.58094 0.39615 0.4683 0.0
O175 O 0.50936 0.32285 0.44443 0.0
O176 O 0.51797 0.3141 0.46991 0.0
O177 O 0.56346 0.38416 0.48111 0.0
O178 O 0.56719 0.38933 0.45402 0.0
C179 C 0.49204 0.38636 0.44819 0.0
O180 O 0.5131 0.38113 0.48991 0.0
O181 O 0.48578 0.33196 0.48715 0.0
In182 In 0.63677 0.15247 0.46674 0.0
O183 O 0.64581 0.11216 0.46318 0.0
O184 O 0.60152 0.10498 0.45645 0.0
C185 C 0.69534 0.19446 0.45756 0.0
C186 C 0.63507 0.15416 0.50132 0.0
C187 C 0.5977 0.17155 0.45583 0.0
O188 O 0.67254 0.18733 0.44778 0.0
O189 O 0.68864 0.17886 0.47121 0.0
O190 O 0.60061 0.16654 0.47142 0.0
O191 O 0.61459 0.16691 0.44555 0.0
C192 C 0.61857 0.09323 0.45838 0.0
O193 O 0.64916 0.17842 0.4923 0.0
O194 O 0.62082 0.12925 0.49287 0.0
In195 In 0.7841 0.49419 0.69006 0.0
O196 O 0.77793 0.46933 0.6644 0.0
O197 O 0.82178 0.50902 0.66988 0.0
C198 C 0.7225 0.47118 0.69107 0.0
C199 C 0.80148 0.55359 0.69668 0.0
C200 C 0.80371 0.46071 0.70773 0.0
O201 O 0.73757 0.47662 0.67721 0.0
O202 O 0.73849 0.47683 0.70459 0.0
O203 O 0.82224 0.48741 0.70197 0.0
O204 O 0.77545 0.45234 0.70582 0.0
C205 C 0.80542 0.48748 0.65949 0.0
O206 O 0.8001 0.53548 0.70847 0.0
O207 O 0.7951 0.54186 0.68189 0.0
In208 In 0.46404 0.29499 0.64906 0.0
O209 O 0.46184 0.29013 0.6202 0.0
O210 O 0.45194 0.32364 0.63095 0.0
C211 C 0.49369 0.26324 0.65521 0.0
C212 C 0.40548 0.25468 0.65798 0.0
C213 C 0.50708 0.34844 0.66344 0.0
O214 O 0.49411 0.27495 0.64076 0.0
O215 O 0.47817 0.26743 0.6666 0.0
O216 O 0.48265 0.32973 0.67145 0.0
O217 O 0.50868 0.3406 0.64825 0.0
C218 C 0.45481 0.31088 0.61756 0.0
O219 O 0.42027 0.28103 0.66509 0.0
O220 O 0.42004 0.24963 0.6464 0.0
In221 In 0.70988 0.2131 0.65511 0.0
O222 O 0.71281 0.2208 0.62613 0.0
O223 O 0.684 0.17482 0.63587 0.0
C224 C 0.74915 0.26707 0.6703 0.0
C225 C 0.73973 0.18369 0.66448 0.0
C226 C 0.65609 0.21057 0.6612 0.0
O227 O 0.751 0.26273 0.65441 0.0
O228 O 0.72733 0.24457 0.67819 0.0
O229 O 0.6763 0.22953 0.65089 0.0
O230 O 0.66322 0.19275 0.66913 0.0
C231 C 0.69382 0.19248 0.6229 0.0
O232 O 0.71498 0.17834 0.67205 0.0
O233 O 0.74815 0.20275 0.65219 0.0
In234 In 0.50586 0.19876 0.21909 0.0
O235 O 0.54952 0.2114 0.20298 0.0
O236 O 0.50831 0.20198 0.19 0.0
C237 C 0.52072 0.25552 0.23062 0.0
C238 C 0.44392 0.16764 0.21487 0.0
C239 C 0.52509 0.16454 0.23649 0.0
O240 O 0.51798 0.24857 0.21487 0.0
O241 O 0.51578 0.23366 0.24076 0.0
O242 O 0.53564 0.19301 0.23936 0.0
O243 O 0.50282 0.15287 0.22603 0.0
C244 C 0.53604 0.20819 0.18877 0.0
O245 O 0.46201 0.16167 0.20663 0.0
O246 O 0.45681 0.18801 0.22642 0.0
In247 In 0.75241 0.23777 0.17507 0.0
O248 O 0.80019 0.24598 0.16742 0.0
O249 O 0.76747 0.20205 0.17771 0.0
C250 C 0.77251 0.29248 0.191 0.0
C251 C 0.73742 0.24363 0.14236 0.0
C252 C 0.70632 0.19741 0.19544 0.0
O253 O 0.791 0.2861 0.18335 0.0
O254 O 0.74458 0.271 0.19102 0.0
O255 O 0.70215 0.20103 0.17975 0.0
O256 O 0.73388 0.21386 0.20072 0.0
C257 C 0.79372 0.21866 0.17095 0.0
O258 O 0.73818 0.22008 0.14758 0.0
O259 O 0.74191 0.2631 0.15392 0.0
In260 In 0.70626 0.49503 0.20037 0.0
O261 O 0.72681 0.54737 0.20163 0.0
O262 O 0.75283 0.52865 0.21254 0.0
C263 C 0.65463 0.46544 0.22 0.0
C264 C 0.68735 0.49758 0.16832 0.0
C265 C 0.73405 0.46066 0.19956 0.0
O266 O 0.68107 0.48231 0.22661 0.0
O267 O 0.65456 0.46529 0.20385 0.0
O268 O 0.74136 0.483 0.18935 0.0
O269 O 0.71215 0.45515 0.20975 0.0
C270 C 0.75207 0.55261 0.20825 0.0
O271 O 0.69406 0.47727 0.17283 0.0
O272 O 0.69053 0.5167 0.17992 0.0
In273 In 0.57132 0.15437 0.0375 0.0
O274 O 0.54113 0.11563 0.019 0.0
O275 O 0.56021 0.10427 0.04027 0.0
C276 C 0.54167 0.18518 0.0293 0.0
C277 C 0.57703 0.16766 0.07141 0.0
C278 C 0.6248 0.17641 0.01996 0.0
O279 O 0.56975 0.19499 0.02566 0.0
O280 O 0.52811 0.15944 0.03703 0.0
O281 O 0.62054 0.16252 0.03417 0.0
O282 O 0.6024 0.17947 0.01493 0.0
C283 C 0.54441 0.0952 0.02667 0.0
O284 O 0.59978 0.18073 0.06125 0.0
O285 O 0.55209 0.1474 0.06458 0.0
In286 In 0.82837 0.39121 0.00603 0.0
O287 O 0.86575 0.42614 0.9883 0.0
O288 O 0.87781 0.42577 0.01444 0.0
C289 C 0.80666 0.34095 0.98567 0.0
C290 C 0.81073 0.35753 0.03533 0.0
C291 C 0.79739 0.42208 0.00339 0.0
O292 O 0.83232 0.35191 0.9934 0.0
O293 O 0.79393 0.35733 0.98689 0.0
O294 O 0.8161 0.42687 0.01556 0.0
O295 O 0.79386 0.40124 0.99285 0.0
C296 C 0.88583 0.43869 0.99994 0.0
O297 O 0.80116 0.37584 0.03138 0.0
O298 O 0.83051 0.35774 0.02516 0.0
In299 In 0.57361 0.4373 0.02145 0.0
O300 O 0.59131 0.43206 0.04739 0.0
O301 O 0.58625 0.47166 0.04354 0.0
C302 C 0.54239 0.37488 0.02054 0.0
C303 C 0.53329 0.4512 0.00668 0.0
C304 C 0.62956 0.46048 0.0064 0.0
O305 O 0.53916 0.38974 0.03274 0.0
O306 O 0.56101 0.39153 0.00896 0.0
O307 O 0.62312 0.4767 0.01619 0.0
O308 O 0.60736 0.43346 0.00364 0.0
C309 C 0.5943 0.45691 0.05351 0.0
O310 O 0.55732 0.45517 0.99907 0.0
O311 O 0.53036 0.4415 0.02188 0.0
In312 In 0.50185 0.79521 0.80492 0.0
O313 O 0.53376 0.84731 0.80904 0.0
O314 O 0.55115 0.82311 0.79467 0.0
C315 C 0.4526 0.80153 0.79678 0.0
C316 C 0.50337 0.78539 0.8389 0.0
C317 C 0.49111 0.7431 0.788 0.0
O318 O 0.4748 0.80913 0.78642 0.0
O319 O 0.45591 0.79181 0.81111 0.0
O320 O 0.49543 0.74651 0.80397 0.0
O321 O 0.49273 0.7662 0.78041 0.0
C322 C 0.5566 0.84839 0.80139 0.0
O323 O 0.52638 0.79284 0.82917 0.0
O324 O 0.47945 0.78215 0.83139 0.0
In325 In 0.17106 0.68417 0.78994 0.0
O326 O 0.12127 0.67142 0.78314 0.0
O327 O 0.15684 0.71859 0.78122 0.0
C328 C 0.16333 0.632 0.77477 0.0
C329 C 0.16123 0.68278 0.82406 0.0
C330 C 0.23267 0.72373 0.78639 0.0
O331 O 0.1734 0.65721 0.76666 0.0
O332 O 0.15566 0.63288 0.79011 0.0
O333 O 0.22043 0.70906 0.80004 0.0
O334 O 0.21381 0.71866 0.77432 0.0
C335 C 0.12819 0.6992 0.7806 0.0
O336 O 0.16343 0.70417 0.81444 0.0
O337 O 0.16458 0.66214 0.81654 0.0
In338 In 0.29778 0.49543 0.79001 0.0
O339 O 0.3089 0.45583 0.79023 0.0
O340 O 0.26176 0.44402 0.78991 0.0
C341 C 0.35343 0.53251 0.77535 0.0
C342 C 0.30483 0.5182 0.82219 0.0
C343 C 0.25388 0.50542 0.7762 0.0
O344 O 0.35021 0.52292 0.79063 0.0
O345 O 0.32841 0.52169 0.76695 0.0
O346 O 0.25692 0.50321 0.79213 0.0
O347 O 0.27277 0.50193 0.76693 0.0
C348 C 0.28091 0.43462 0.79095 0.0
O349 O 0.29268 0.4896 0.81903 0.0
O350 O 0.31329 0.53545 0.8091 0.0
In351 In 0.47531 0.82587 0.99241 0.0
O352 O 0.50319 0.87288 0.00596 0.0
O353 O 0.48699 0.87188 0.98065 0.0
C354 C 0.48958 0.79096 0.01287 0.0
C355 C 0.48665 0.80817 0.96183 0.0
C356 C 0.41587 0.80943 0.99825 0.0
O357 O 0.50888 0.81081 0.00259 0.0
O358 O 0.4638 0.78986 0.01336 0.0
O359 O 0.42549 0.80636 0.98375 0.0
O360 O 0.43618 0.82027 0.00995 0.0
C361 C 0.50081 0.88795 0.9936 0.0
O362 O 0.4594 0.79862 0.96726 0.0
O363 O 0.50796 0.82648 0.97183 0.0
In364 In 0.1436 0.64771 0.98255 0.0
O365 O 0.09808 0.64784 0.98615 0.0
O366 O 0.10475 0.61582 1.0007 0.0
C367 C 0.19426 0.7014 0.99178 0.0
C368 C 0.13695 0.65479 0.94885 0.0
C369 C 0.16001 0.6048 0.9887 0.0
O370 O 0.17169 0.68712 0.00199 0.0
O371 O 0.19043 0.68906 0.97722 0.0
O372 O 0.14128 0.60156 0.97682 0.0
O373 O 0.17032 0.62957 0.99726 0.0
C374 C 0.08656 0.62526 0.99642 0.0
O375 O 0.1441 0.63529 0.95435 0.0
O376 O 0.13263 0.6701 0.96036 0.0
In377 In 0.35357 0.54009 0.97749 0.0
O378 O 0.37985 0.52016 0.9642 0.0
O379 O 0.35972 0.50086 0.98844 0.0
C380 C 0.29981 0.5295 0.9915 0.0
C381 C 0.34064 0.5489 0.94518 0.0
C382 C 0.40035 0.58625 0.99509 0.0
O383 O 0.30284 0.50775 0.98524 0.0
O384 O 0.32397 0.55585 0.99115 0.0
O385 O 0.39817 0.58661 0.97892 0.0
O386 O 0.3789 0.56252 0.00239 0.0
C387 C 0.37591 0.50107 0.97588 0.0
O388 O 0.35999 0.57116 0.95437 0.0
O389 O 0.32785 0.52268 0.95242 0.0
In390 In 0.18143 0.58944 0.50541 0.0
O391 O 0.19282 0.60839 0.4777 0.0
O392 O 0.20354 0.57386 0.48511 0.0
C393 C 0.21054 0.64702 0.51872 0.0
C394 C 0.12027 0.57024 0.50704 0.0
C395 C 0.20036 0.55416 0.52182 0.0
O396 O 0.20663 0.64204 0.50274 0.0
O397 O 0.20029 0.62297 0.52791 0.0
O398 O 0.21534 0.58344 0.52198 0.0
O399 O 0.1745 0.5424 0.51419 0.0
C400 C 0.20363 0.59123 0.47335 0.0
O401 O 0.13169 0.56198 0.49515 0.0
O402 O 0.13924 0.58665 0.51846 0.0
In403 In 0.44102 0.59356 0.48969 0.0
O404 O 0.47205 0.58184 0.47391 0.0
O405 O 0.44107 0.54762 0.49134 0.0
C406 C 0.48286 0.6374 0.51114 0.0
C407 C 0.43376 0.62774 0.465 0.0
C408 C 0.38296 0.55807 0.50161 0.0
O409 O 0.48909 0.63444 0.49581 0.0
O410 O 0.45648 0.61642 0.51601 0.0
O411 O 0.38944 0.5591 0.48583 0.0
O412 O 0.40575 0.57451 0.51127 0.0
C413 C 0.46098 0.55471 0.47962 0.0
O414 O 0.44011 0.60677 0.46179 0.0
O415 O 0.42952 0.63068 0.48069 0.0
In416 In 0.4271 0.82991 0.50526 0.0
O417 O 0.44916 0.87299 0.48852 0.0
O418 O 0.47076 0.87502 0.51244 0.0
C419 C 0.38376 0.83201 0.52516 0.0
C420 C 0.38954 0.78957 0.48096 0.0
C421 C 0.46148 0.80454 0.51465 0.0
O422 O 0.40253 0.8242 0.53093 0.0
O423 O 0.38935 0.842 0.50995 0.0
O424 O 0.46411 0.81695 0.50013 0.0
O425 O 0.44103 0.80432 0.52433 0.0
C426 C 0.4716 0.88843 0.49853 0.0
O427 O 0.38862 0.782 0.49649 0.0
O428 O 0.41035 0.81699 0.47755 0.0
In429 In 0.25798 0.5009 0.33678 0.0
O430 O 0.26546 0.46086 0.32874 0.0
O431 O 0.24432 0.45809 0.35289 0.0
C432 C 0.20474 0.49145 0.32206 0.0
C433 C 0.2595 0.53588 0.36382 0.0
C434 C 0.31364 0.53596 0.32183 0.0
O435 O 0.20516 0.47567 0.33461 0.0
O436 O 0.2312 0.50975 0.31595 0.0
O437 O 0.31029 0.53161 0.33786 0.0
O438 O 0.28885 0.52211 0.31323 0.0
C439 C 0.25435 0.44584 0.34247 0.0
O440 O 0.26314 0.5127 0.36542 0.0
O441 O 0.25639 0.54221 0.34853 0.0
In442 In 0.49467 0.78687 0.33366 0.0
O443 O 0.46471 0.77374 0.35806 0.0
O444 O 0.50596 0.77125 0.35884 0.0
C445 C 0.45009 0.7979 0.3219 0.0
C446 C 0.55233 0.83669 0.32967 0.0
C447 C 0.48237 0.7339 0.31772 0.0
O448 O 0.4682 0.81338 0.33396 0.0
O449 O 0.45503 0.7775 0.3155 0.0
O450 O 0.48545 0.75716 0.30941 0.0
O451 O 0.48693 0.73822 0.33367 0.0
C452 C 0.48189 0.76687 0.36662 0.0
O453 O 0.53014 0.83842 0.33613 0.0
O454 O 0.54543 0.80992 0.32472 0.0
In455 In 0.19902 0.70196 0.36138 0.0
O456 O 0.18227 0.73246 0.37413 0.0
O457 O 0.15075 0.69605 0.35803 0.0
C458 C 0.24226 0.73482 0.33736 0.0
C459 C 0.23446 0.70852 0.38934 0.0
C460 C 0.16956 0.64378 0.34901 0.0
O461 O 0.23517 0.70773 0.34188 0.0
O462 O 0.2265 0.74525 0.34447 0.0
O463 O 0.17319 0.64943 0.36496 0.0
O464 O 0.18072 0.66743 0.33942 0.0
C465 C 0.15535 0.71789 0.36793 0.0
O466 O 0.20754 0.68544 0.38754 0.0
O467 O 0.24308 0.72777 0.37722 0.0
H468 H 0.13864 0.1847 0.15891 0.0
H469 H 0.15144 0.13345 0.11786 0.0
H470 H 0.10058 0.12049 0.10583 0.0
H471 H 0.07107 0.13103 0.169 0.0
H472 H 0.05313 0.15354 0.17465 0.0
H473 H 0.09441 0.17084 0.17587 0.0
H474 H 0.10213 0.21501 0.15529 0.0
H475 H 0.06059 0.19847 0.15439 0.0
H476 H 0.08256 0.20568 0.13482 0.0
H477 H 0.04396 0.10006 0.10348 0.0
H478 H 0.98813 0.07588 0.11049 0.0
H479 H 0.01076 0.13639 0.15469 0.0
C480 C 0.13162 0.1725 0.14676 0.0
C481 C 0.14894 0.16019 0.13926 0.0
C482 C 0.13863 0.1434 0.12369 0.0
C483 C 0.10967 0.13587 0.11679 0.0
C484 C 0.09148 0.14543 0.1256 0.0
C485 C 0.10235 0.16395 0.14013 0.0
C486 C 0.07639 0.16532 0.14949 0.0
C487 C 0.07361 0.15451 0.16834 0.0
C488 C 0.08067 0.19807 0.14842 0.0
C489 C 0.04892 0.14255 0.13891 0.0
C490 C 0.05811 0.13228 0.12478 0.0
C491 C 0.03655 0.10861 0.11421 0.0
C492 C 0.00493 0.09485 0.11834 0.0
C493 C -0.00464 0.10428 0.13316 0.0
C494 C 0.01758 0.12888 0.14326 0.0
H495 H 0.8965 0.96604 0.1233 0.0
H496 H 0.82377 0.95205 0.159 0.0
H497 H 0.81149 0.89811 0.16366 0.0
H498 H 0.85721 0.8807 0.10708 0.0
H499 H 0.89462 0.88332 0.10599 0.0
H500 H 0.89113 0.91697 0.10139 0.0
H501 H 0.9328 0.94808 0.12449 0.0
H502 H 0.9362 0.91471 0.12926 0.0
H503 H 0.9269 0.93343 0.14619 0.0
H504 H 0.81814 0.8536 0.17115 0.0
H505 H 0.8404 0.8206 0.17884 0.0
H506 H 0.90632 0.86086 0.13707 0.0
C507 C 0.877 0.9511 0.13144 0.0
C508 C 0.86109 0.9631 0.14079 0.0
C509 C 0.83611 0.9432 0.15161 0.0
C510 C 0.82892 0.91246 0.15431 0.0
C511 C 0.84645 0.90184 0.14578 0.0
C512 C 0.86949 0.92034 0.13418 0.0
C513 C 0.8881 0.90533 0.1287 0.0
C514 C 0.88241 0.89602 0.10966 0.0
C515 C 0.92302 0.92664 0.1324 0.0
C516 C 0.87385 0.87698 0.14019 0.0
C517 C 0.84939 0.87496 0.14969 0.0
C518 C 0.83633 0.85407 0.16331 0.0
C519 C 0.84916 0.83551 0.16766 0.0
C520 C 0.8746 0.83788 0.15831 0.0
C521 C 0.88612 0.85787 0.144 0.0
H522 H 0.09297 0.0389 0.16341 0.0
H523 H 0.17169 0.02685 0.17443 0.0
H524 H 0.13892 0.97034 0.16927 0.0
H525 H 0.03787 0.9735 0.18478 0.0
H526 H 0.00716 0.96439 0.16957 0.0
H527 H 0.03795 0.00383 0.17205 0.0
H528 H 0.04951 0.00655 0.13938 0.0
H529 H 0.01887 0.96684 0.13689 0.0
H530 H 0.05767 0.9784 0.12984 0.0
H531 H 0.0959 0.91449 0.16573 0.0
H532 H 0.04597 0.86468 0.16627 0.0
H533 H -0.00333 0.91453 0.15714 0.0
C534 C 0.10344 0.02445 0.16453 0.0
C535 C 0.13477 0.03711 0.16932 0.0
C536 C 0.14764 0.01748 0.17076 0.0
C537 C 0.1293 0.98546 0.16773 0.0
C538 C 0.09834 0.97364 0.16309 0.0
C539 C 0.08558 0.99263 0.16149 0.0
C540 C 0.05123 0.97418 0.15781 0.0
C541 C 0.03247 0.97927 0.17189 0.0
C542 C 0.0439 0.98196 0.13991 0.0
C543 C 0.04631 0.94169 0.15832 0.0
C544 C 0.07376 0.94172 0.16101 0.0
C545 C 0.07433 0.91418 0.16332 0.0
C546 C 0.04596 0.88601 0.16353 0.0
C547 C 0.01768 0.88595 0.16169 0.0
C548 C 0.01806 0.91399 0.15843 0.0
H549 H 0.11331 0.08455 0.39399 0.0
H550 H 0.19075 0.11229 0.35911 0.0
H551 H 0.18131 0.05867 0.35908 0.0
H552 H 0.12176 0.02156 0.41762 0.0
H553 H 0.08016 -0.00253 0.41899 0.0
H554 H 0.09789 0.03916 0.41975 0.0
H555 H 0.06339 0.03702 0.39427 0.0
H556 H 0.04594 0.99559 0.39323 0.0
H557 H 0.06444 0.01878 0.37445 0.0
H558 H 0.15599 0.0011 0.35722 0.0
H559 H 0.11923 0.94461 0.35561 0.0
H560 H 0.05926 0.95423 0.39246 0.0
C561 C 0.12911 0.07961 0.38696 0.0
C562 C 0.15279 0.10249 0.3766 0.0
C563 C 0.17263 0.09512 0.36726 0.0
C564 C 0.16745 0.06471 0.36717 0.0
C565 C 0.14272 0.04218 0.37676 0.0
C566 C 0.12427 0.04942 0.3868 0.0
C567 C 0.09687 0.0205 0.39414 0.0
C568 C 0.09933 0.01963 0.41379 0.0
C569 C 0.06586 0.01784 0.38868 0.0
C570 C 0.10159 0.99579 0.38573 0.0
C571 C 0.12842 0.00871 0.37597 0.0
C572 C 0.13548 0.99064 0.36525 0.0
C573 C 0.11441 0.95864 0.36433 0.0
C574 C 0.0867 0.94516 0.37408 0.0
C575 C 0.08069 0.96388 0.38521 0.0
H576 H 0.92324 0.11395 0.34234 0.0
H577 H 0.89386 0.06252 0.39005 0.0
H578 H 0.94576 0.09693 0.40246 0.0
H579 H 0.98842 0.11634 0.33887 0.0
H580 H 0.01179 0.15482 0.33013 0.0
H581 H 0.97061 0.1347 0.32723 0.0
H582 H 0.96727 0.18 0.34143 0.0
H583 H 0.00884 0.20078 0.34412 0.0
H584 H 0.9839 0.19364 0.36241 0.0
H585 H 0.00333 0.12566 0.40627 0.0
H586 H 0.05956 0.14711 0.40151 0.0
H587 H 0.05145 0.17987 0.35127 0.0
C588 C 0.92733 0.11111 0.35571 0.0
C589 C 0.90476 0.08587 0.3653 0.0
C590 C 0.91079 0.08214 0.38262 0.0
C591 C 0.94026 0.10158 0.38974 0.0
C592 C 0.96299 0.12493 0.37946 0.0
C593 C 0.95652 0.13028 0.36291 0.0
C594 C 0.98574 0.15282 0.35339 0.0
C595 C 0.98932 0.1388 0.33643 0.0
C596 C 0.98648 0.18364 0.35015 0.0
C597 C 0.0099 0.15687 0.36646 0.0
C598 C -0.00353 0.14156 0.38166 0.0
C599 C 0.01414 0.13858 0.39467 0.0
C600 C 0.04604 0.15072 0.39184 0.0
C601 C 0.0597 0.16512 0.37603 0.0
C602 C 0.04158 0.16924 0.36355 0.0
H603 H 0.86584 0.92781 0.33574 0.0
H604 H 0.86617 0.96322 0.3867 0.0
H605 H 0.88798 0.93203 0.39855 0.0
H606 H 0.84793 0.84853 0.34955 0.0
H607 H 0.873 0.84731 0.33323 0.0
H608 H 0.85296 0.8685 0.32944 0.0
H609 H 0.90543 0.9182 0.32278 0.0
H610 H 0.92548 0.89716 0.32646 0.0
H611 H 0.93626 0.93214 0.33842 0.0
H612 H 0.91676 0.90268 0.40391 0.0
H613 H 0.95058 0.87937 0.40188 0.0
H614 H 0.92946 0.86265 0.34756 0.0
C615 C 0.86985 0.92847 0.34946 0.0
C616 C 0.86432 0.94782 0.36032 0.0
C617 C 0.87011 0.94834 0.37817 0.0
C618 C 0.88238 0.93063 0.38502 0.0
C619 C 0.88818 0.91219 0.37387 0.0
C620 C 0.8818 0.91083 0.35647 0.0
C621 C 0.89264 0.89163 0.34688 0.0
C622 C 0.86498 0.86225 0.33934 0.0
C623 C 0.91636 0.91095 0.33282 0.0
C624 C 0.90757 0.8837 0.36141 0.0
C625 C 0.90433 0.89516 0.37697 0.0
C626 C 0.91886 0.89301 0.39186 0.0
C627 C 0.93792 0.87968 0.39064 0.0
C628 C 0.94242 0.86917 0.37459 0.0
C629 C 0.92617 0.87027 0.36003 0.0
H630 H 0.87506 0.9153 0.87279 0.0
H631 H 0.79354 0.85223 0.84352 0.0
H632 H 0.81047 0.8135 0.84372 0.0
H633 H 0.92495 0.9075 0.85086 0.0
H634 H 0.95022 0.9086 0.86778 0.0
H635 H 0.92688 0.92616 0.87107 0.0
H636 H 0.90224 0.89233 0.89815 0.0
H637 H 0.92596 0.87474 0.89505 0.0
H638 H 0.88439 0.8507 0.89672 0.0
H639 H 0.84378 0.79108 0.83811 0.0
H640 H 0.88836 0.78523 0.82963 0.0
H641 H 0.94772 0.86003 0.86398 0.0
C642 C 0.85994 0.89263 0.8673 0.0
C643 C 0.83306 0.88676 0.85815 0.0
C644 C 0.8141 0.85714 0.85075 0.0
C645 C 0.82358 0.83494 0.8508 0.0
C646 C 0.85166 0.84242 0.85867 0.0
C647 C 0.86915 0.87026 0.86728 0.0
C648 C 0.90077 0.87509 0.8721 0.0
C649 C 0.92721 0.90613 0.86501 0.0
C650 C 0.90349 0.87308 0.89167 0.0
C651 C 0.89961 0.84743 0.86324 0.0
C652 C 0.87077 0.82835 0.85597 0.0
C653 C 0.86598 0.80493 0.84437 0.0
C654 C 0.89142 0.80177 0.83958 0.0
C655 C 0.92117 0.82172 0.84649 0.0
C656 C 0.92489 0.84369 0.85908 0.0
H657 H 0.09599 0.06941 0.86065 0.0
H658 H 0.17888 0.09681 0.83048 0.0
H659 H 0.16905 0.04297 0.83167 0.0
H660 H 0.0957 0.00318 0.886 0.0
H661 H 0.05409 0.98016 0.88403 0.0
H662 H 0.07266 0.02185 0.88562 0.0
H663 H 0.04592 0.02318 0.85733 0.0
H664 H 0.02758 0.98177 0.85556 0.0
H665 H 0.05133 0.00601 0.83818 0.0
H666 H 0.14517 0.9854 0.83119 0.0
H667 H 0.10793 0.92957 0.82712 0.0
H668 H 0.0385 0.93929 0.85565 0.0
C669 C 0.11291 0.06436 0.85507 0.0
C670 C 0.13854 0.08726 0.8458 0.0
C671 C 0.15941 0.07961 0.83791 0.0
C672 C 0.15403 0.04912 0.83857 0.0
C673 C 0.12759 0.0266 0.84709 0.0
C674 C 0.10736 0.03391 0.85524 0.0
C675 C 0.07771 0.00495 0.86054 0.0
C676 C 0.07489 0.00239 0.88022 0.0
C677 C 0.04898 0.00394 0.8524 0.0
C678 C 0.08352 0.98022 0.85313 0.0
C679 C 0.11287 0.99306 0.84601 0.0
C680 C 0.12241 0.97503 0.83704 0.0
C681 C 0.1011 0.94333 0.83478 0.0
C682 C 0.07042 0.93023 0.84111 0.0
C683 C 0.06195 0.94872 0.85086 0.0
H684 H 0.9027 0.07108 0.83207 0.0
H685 H 0.89454 0.02699 0.88129 0.0
H686 H 0.94653 0.06951 0.88937 0.0
H687 H 0.97174 0.08528 0.82318 0.0
H688 H 0.98652 0.12237 0.81271 0.0
H689 H 0.94561 0.09586 0.81325 0.0
H690 H 0.93655 0.13756 0.82771 0.0
H691 H 0.97775 0.16458 0.82705 0.0
H692 H 0.95709 0.15626 0.84716 0.0
H693 H 0.0033 0.10659 0.88851 0.0
H694 H 0.05798 0.1346 0.87896 0.0
H695 H 0.02966 0.15512 0.83038 0.0
C696 C 0.91125 0.07127 0.84489 0.0
C697 C 0.89471 0.0459 0.85607 0.0
C698 C 0.90674 0.04643 0.87261 0.0
C699 C 0.9363 0.07056 0.8773 0.0
C700 C 0.95316 0.09417 0.86543 0.0
C701 C 0.94072 0.09503 0.84965 0.0
C702 C 0.96509 0.1192 0.83792 0.0
C703 C 0.96737 0.10479 0.82079 0.0
C704 C 0.95874 0.146 0.83479 0.0
C705 C -0.0063 0.12968 0.84888 0.0
C706 C 0.98633 0.11586 0.86494 0.0
C707 C 0.0093 0.11839 0.87623 0.0
C708 C 0.04033 0.13431 0.8707 0.0
C709 C 0.04793 0.14705 0.85396 0.0
C710 C 0.02448 0.14597 0.84334 0.0
H711 H 0.86179 0.00054 0.69001 0.0
H712 H 0.87476 0.02023 0.63546 0.0
H713 H 0.84517 0.96415 0.62921 0.0
H714 H 0.87745 0.94506 0.6908 0.0
H715 H 0.84922 0.91995 0.70643 0.0
H716 H 0.862 0.96053 0.7064 0.0
H717 H 0.80522 0.94839 0.7033 0.0
H718 H 0.79204 0.90737 0.70334 0.0
H719 H 0.78157 0.92419 0.6859 0.0
H720 H 0.83025 0.9091 0.62928 0.0
H721 H 0.83112 0.86109 0.63582 0.0
H722 H 0.82231 0.87443 0.69003 0.0
C723 C 0.85722 0.99295 0.67675 0.0
C724 C 0.87053 0.01449 0.66322 0.0
C725 C 0.86456 0.004 0.64601 0.0
C726 C 0.84758 0.97217 0.64235 0.0
C727 C 0.83602 0.95125 0.65603 0.0
C728 C 0.83998 0.96128 0.67293 0.0
C729 C 0.82987 0.93451 0.68534 0.0
C730 C 0.8562 0.94036 0.69795 0.0
C731 C 0.80041 0.92824 0.69504 0.0
C732 C 0.82299 0.90849 0.67285 0.0
C733 C 0.82566 0.91834 0.65596 0.0
C734 C 0.82674 0.9006 0.64236 0.0
C735 C 0.82716 0.87328 0.64616 0.0
C736 C 0.82627 0.86395 0.66339 0.0
C737 C 0.82187 0.88054 0.67672 0.0
H738 H 0.10741 0.93081 0.66304 0.0
H739 H 0.09645 0.95705 0.6117 0.0
H740 H 0.04666 0.90827 0.60891 0.0
H741 H 0.05354 0.83974 0.65866 0.0
H742 H 0.03889 0.8393 0.67992 0.0
H743 H 0.07901 0.86607 0.67486 0.0
H744 H 0.07157 0.91082 0.68542 0.0
H745 H 0.03129 0.88536 0.68972 0.0
H746 H 0.04296 0.91774 0.67536 0.0
H747 H 0.99276 0.86966 0.61514 0.0
H748 H 0.94163 0.84526 0.62931 0.0
H749 H 0.98471 0.84595 0.67779 0.0
C750 C 0.0956 0.92504 0.65075 0.0
C751 C 0.1058 0.9473 0.63749 0.0
C752 C 0.08919 0.93993 0.62187 0.0
C753 C 0.06077 0.91224 0.62024 0.0
C754 C 0.04926 0.89239 0.6344 0.0
C755 C 0.0665 0.89821 0.64935 0.0
C756 C 0.04633 0.87889 0.6642 0.0
C757 C 0.05495 0.85454 0.66972 0.0
C758 C 0.04812 0.89944 0.67954 0.0
C759 C 0.01476 0.86367 0.65576 0.0
C760 C 0.01701 0.8706 0.6384 0.0
C761 C 0.99076 0.86319 0.62856 0.0
C762 C 0.96177 0.84948 0.63673 0.0
C763 C 0.95937 0.84382 0.65464 0.0
C764 C 0.98596 0.84971 0.66403 0.0
H765 H 0.03693 0.1575 0.65815 0.0
H766 H 0.98123 0.10176 0.6156 0.0
H767 H 0.02543 0.09733 0.60485 0.0
H768 H 0.11994 0.18874 0.63712 0.0
H769 H 0.13365 0.18302 0.65747 0.0
H770 H 0.1054 0.1956 0.65687 0.0
H771 H 0.06941 0.14948 0.67639 0.0
H772 H 0.0967 0.13619 0.67679 0.0
H773 H 0.05755 0.11044 0.6696 0.0
H774 H 0.06673 0.08456 0.60397 0.0
H775 H 0.09802 0.06181 0.61395 0.0
H776 H 0.12459 0.12004 0.65925 0.0
C777 C 0.03505 0.1464 0.64588 0.0
C778 C 0.00629 0.13075 0.63735 0.0
C779 C 0.00351 0.11461 0.62196 0.0
C780 C 0.02857 0.11203 0.6158 0.0
C781 C 0.05593 0.12518 0.62542 0.0
C782 C 0.05939 0.14234 0.64015 0.0
C783 C 0.08667 0.14646 0.65083 0.0
C784 C 0.11298 0.18048 0.65054 0.0
C785 C 0.07695 0.1349 0.66947 0.0
C786 C 0.09569 0.12608 0.64089 0.0
C787 C 0.07904 0.1156 0.62574 0.0
C788 C 0.08053 0.09331 0.61553 0.0
C789 C 0.09827 0.08041 0.62131 0.0
C790 C 0.11346 0.08921 0.63738 0.0
C791 C 0.11327 0.11323 0.64685 0.0
H792 H 0.61558 0.40722 0.49727 0.0
H793 H 0.62279 0.42842 0.44282 0.0
H794 H 0.68001 0.45778 0.44525 0.0
H795 H 0.68507 0.48116 0.51148 0.0
H796 H 0.69524 0.46112 0.52718 0.0
H797 H 0.65509 0.4466 0.52175 0.0
H798 H 0.64892 0.39307 0.5141 0.0
H799 H 0.68886 0.40735 0.51956 0.0
H800 H 0.67475 0.39111 0.49856 0.0
H801 H 0.73608 0.47904 0.4529 0.0
H802 H 0.78577 0.4872 0.46465 0.0
H803 H 0.7414 0.45143 0.51394 0.0
C804 C 0.62918 0.41869 0.48595 0.0
C805 C 0.61488 0.41576 0.46989 0.0
C806 C 0.63339 0.43053 0.45527 0.0
C807 C 0.66586 0.44741 0.45655 0.0
C808 C 0.67932 0.44939 0.47255 0.0
C809 C 0.66151 0.43542 0.487 0.0
C810 C 0.68144 0.43783 0.50222 0.0
C811 C 0.67907 0.45788 0.5165 0.0
C812 C 0.67299 0.40542 0.50899 0.0
C813 C 0.71315 0.45407 0.49391 0.0
C814 C 0.71161 0.46125 0.47691 0.0
C815 C 0.73767 0.47404 0.46627 0.0
C816 C 0.7658 0.47865 0.47305 0.0
C817 C 0.76734 0.47002 0.49019 0.0
C818 C 0.74093 0.45856 0.50084 0.0
H819 H 0.50673 0.2584 0.47499 0.0
H820 H 0.52365 0.29064 0.42225 0.0
H821 H 0.53913 0.25174 0.41526 0.0
H822 H 0.57031 0.25398 0.47999 0.0
H823 H 0.55412 0.21971 0.49329 0.0
H824 H 0.53654 0.24355 0.49305 0.0
H825 H 0.48371 0.19628 0.48432 0.0
H826 H 0.50102 0.17197 0.48481 0.0
H827 H 0.48145 0.17368 0.4657 0.0
H828 H 0.56348 0.21782 0.41584 0.0
H829 H 0.59203 0.1907 0.42359 0.0
H830 H 0.55892 0.18124 0.47602 0.0
C831 C 0.51246 0.25638 0.4618 0.0
C832 C 0.51393 0.2773 0.44913 0.0
C833 C 0.52201 0.27446 0.43208 0.0
C834 C 0.53087 0.25247 0.42802 0.0
C835 C 0.5309 0.23328 0.44111 0.0
C836 C 0.52127 0.23466 0.45761 0.0
C837 C 0.52722 0.21477 0.46995 0.0
C838 C 0.5483 0.23418 0.48493 0.0
C839 C 0.49652 0.18755 0.47658 0.0
C840 C 0.54359 0.20355 0.45812 0.0
C841 C 0.54493 0.21382 0.44145 0.0
C842 C 0.56184 0.20897 0.42873 0.0
C843 C 0.57808 0.19368 0.43326 0.0
C844 C 0.57755 0.18384 0.45039 0.0
C845 C 0.55945 0.1882 0.46278 0.0
H846 H 0.73974 0.22254 0.48185 0.0
H847 H 0.7164 0.23307 0.42958 0.0
H848 H 0.75747 0.28823 0.43005 0.0
H849 H 0.74192 0.28481 0.49664 0.0
H850 H 0.77332 0.29696 0.51176 0.0
H851 H 0.75089 0.25689 0.50574 0.0
H852 H 0.80052 0.25684 0.49586 0.0
H853 H 0.82347 0.29696 0.50226 0.0
H854 H 0.82635 0.28553 0.48066 0.0
H855 H 0.79048 0.34329 0.43843 0.0
H856 H 0.81342 0.3934 0.45366 0.0
H857 H 0.81333 0.34766 0.50113 0.0
C858 C 0.74442 0.23602 0.47018 0.0
C859 C 0.72518 0.22356 0.45561 0.0
C860 C 0.7312 0.24213 0.44078 0.0
C861 C 0.7545 0.27349 0.44095 0.0
C862 C 0.77152 0.28575 0.45603 0.0
C863 C 0.76705 0.26743 0.47033 0.0
C864 C 0.78378 0.28693 0.48591 0.0
C865 C 0.76112 0.28104 0.50086 0.0
C866 C 0.8101 0.28123 0.49149 0.0
C867 C 0.79652 0.31912 0.47847 0.0
C868 C 0.79004 0.31797 0.4611 0.0
C869 C 0.79643 0.34454 0.45189 0.0
C870 C 0.80928 0.37287 0.46069 0.0
C871 C 0.81518 0.37432 0.47856 0.0
C872 C 0.80945 0.34724 0.48742 0.0
H873 H 0.77141 0.40602 0.72455 0.0
H874 H 0.85552 0.46201 0.69548 0.0
H875 H 0.85737 0.41515 0.68769 0.0
H876 H 0.78995 0.33878 0.73585 0.0
H877 H 0.74919 0.311 0.7336 0.0
H878 H 0.76144 0.34882 0.74258 0.0
H879 H 0.72817 0.35676 0.71986 0.0
H880 H 0.71672 0.31984 0.71037 0.0
H881 H 0.73543 0.35443 0.69734 0.0
H882 H 0.8388 0.36427 0.6739 0.0
H883 H 0.80713 0.31273 0.66037 0.0
H884 H 0.73661 0.28826 0.69943 0.0
C885 C 0.79135 0.40846 0.71759 0.0
C886 C 0.81314 0.43737 0.71054 0.0
C887 C 0.83871 0.44005 0.70116 0.0
C888 C 0.83984 0.41342 0.69657 0.0
C889 C 0.81586 0.38461 0.70201 0.0
C890 C 0.79279 0.38203 0.71303 0.0
C891 C 0.76698 0.3486 0.7147 0.0
C892 C 0.7669 0.33606 0.73276 0.0
C893 C 0.735 0.34473 0.71028 0.0
C894 C 0.77722 0.3335 0.70138 0.0
C895 C 0.80579 0.35442 0.69444 0.0
C896 C 0.81716 0.34726 0.67977 0.0
C897 C 0.7989 0.31813 0.67203 0.0
C898 C 0.76973 0.29659 0.67904 0.0
C899 C 0.75928 0.30411 0.69413 0.0
H900 H 0.55833 0.39299 0.64746 0.0
H901 H 0.51788 0.36111 0.69793 0.0
H902 H 0.56884 0.39631 0.71125 0.0
H903 H 0.62273 0.39021 0.65473 0.0
H904 H 0.64901 0.42394 0.64239 0.0
H905 H 0.6085 0.40302 0.63706 0.0
H906 H 0.60521 0.45311 0.64037 0.0
H907 H 0.64605 0.47451 0.64538 0.0
H908 H 0.61832 0.47526 0.65998 0.0
H909 H 0.62602 0.42689 0.71846 0.0
H910 H 0.68332 0.45171 0.71892 0.0
H911 H 0.68543 0.46186 0.6635 0.0
C912 C 0.55987 0.39435 0.66135 0.0
C913 C 0.53425 0.37454 0.6717 0.0
C914 C 0.53721 0.37647 0.6898 0.0
C915 C 0.56608 0.39633 0.69746 0.0
C916 C 0.59145 0.41426 0.68679 0.0
C917 C 0.5884 0.4138 0.6691 0.0
C918 C 0.61953 0.4318 0.66028 0.0
C919 C 0.62525 0.41099 0.6479 0.0
C920 C 0.62244 0.46037 0.65096 0.0
C921 C 0.64076 0.44115 0.67567 0.0
C922 C 0.62426 0.43142 0.6909 0.0
C923 C 0.63914 0.43522 0.70665 0.0
C924 C 0.67163 0.44917 0.70679 0.0
C925 C 0.68869 0.45867 0.69124 0.0
C926 C 0.67299 0.45501 0.6756 0.0
H927 H 0.62893 0.22847 0.63754 0.0
H928 H 0.61653 0.19087 0.68906 0.0
H929 H 0.56931 0.19545 0.69246 0.0
H930 H 0.61007 0.28461 0.64614 0.0
H931 H 0.59027 0.2807 0.6261 0.0
H932 H 0.62029 0.27075 0.62723 0.0
H933 H 0.58215 0.21556 0.61571 0.0
H934 H 0.55195 0.22539 0.61444 0.0
H935 H 0.54572 0.19188 0.62658 0.0
H936 H 0.52763 0.21092 0.69109 0.0
H937 H 0.49405 0.23326 0.68474 0.0
H938 H 0.53412 0.25869 0.6337 0.0
C939 C 0.616 0.22071 0.64946 0.0
C940 C 0.62623 0.20948 0.66309 0.0
C941 C 0.60879 0.19942 0.67847 0.0
C942 C 0.58206 0.20195 0.68048 0.0
C943 C 0.57305 0.21396 0.66684 0.0
C944 C 0.58935 0.22271 0.65155 0.0
C945 C 0.57627 0.2365 0.63913 0.0
C946 C 0.60067 0.27012 0.63439 0.0
C947 C 0.56324 0.2161 0.62302 0.0
C948 C 0.55068 0.23533 0.65002 0.0
C949 C 0.5489 0.22208 0.66592 0.0
C950 C 0.52844 0.22078 0.67857 0.0
C951 C 0.50956 0.23359 0.67488 0.0
C952 C 0.51143 0.24748 0.6587 0.0
C953 C 0.53189 0.24783 0.6461 0.0
H954 H 0.64691 0.15529 0.18677 0.0
H955 H 0.70694 0.19923 0.2305 0.0
H956 H 0.66127 0.17868 0.24947 0.0
H957 H 0.59632 0.17581 0.19512 0.0
H958 H 0.56171 0.14106 0.18839 0.0
H959 H 0.59844 0.14989 0.17969 0.0
H960 H 0.58944 0.09638 0.19001 0.0
H961 H 0.55242 0.08748 0.19893 0.0
H962 H 0.58098 0.08562 0.21232 0.0
H963 H 0.61196 0.17071 0.26085 0.0
H964 H 0.56426 0.17388 0.26335 0.0
H965 H 0.53335 0.12861 0.21405 0.0
C966 C 0.65038 0.15926 0.20048 0.0
C967 C 0.68026 0.17881 0.20719 0.0
C968 C 0.68417 0.18408 0.22511 0.0
C969 C 0.65832 0.17236 0.23601 0.0
C970 C 0.62882 0.15472 0.22885 0.0
C971 C 0.62477 0.14746 0.21151 0.0
C972 C 0.59101 0.13286 0.2064 0.0
C973 C 0.58666 0.151 0.19156 0.0
C974 C 0.57768 0.09854 0.20164 0.0
C975 C 0.57721 0.13607 0.22309 0.0
C976 C 0.59923 0.14805 0.23605 0.0
C977 C 0.59405 0.15992 0.25118 0.0
C978 C 0.56681 0.16154 0.25258 0.0
C979 C 0.54498 0.15085 0.23906 0.0
C980 C 0.54915 0.13574 0.22486 0.0
H981 H 0.74091 0.30809 0.21326 0.0
H982 H 0.82156 0.34738 0.18001 0.0
H983 H 0.82557 0.39879 0.18235 0.0
H984 H 0.70563 0.34163 0.19539 0.0
H985 H 0.69005 0.34938 0.21445 0.0
H986 H 0.69841 0.31826 0.21442 0.0
H987 H 0.73452 0.34181 0.24079 0.0
H988 H 0.72563 0.37275 0.24127 0.0
H989 H 0.76544 0.3817 0.24021 0.0
H990 H 0.81258 0.44132 0.18227 0.0
H991 H 0.78753 0.47349 0.18277 0.0
H992 H 0.71597 0.40653 0.21656 0.0
C993 C 0.7603 0.32789 0.20717 0.0
C994 C 0.78099 0.32399 0.19652 0.0
C995 C 0.80576 0.3501 0.18843 0.0
C996 C 0.80811 0.37934 0.18964 0.0
C997 C 0.78594 0.38199 0.1993 0.0
C998 C 0.76301 0.35711 0.20835 0.0
C999 C 0.73972 0.36476 0.21602 0.0
C1000 C 0.70652 0.34218 0.20967 0.0
C1001 C 0.74145 0.3653 0.23574 0.0
C1002 C 0.75181 0.397 0.20885 0.0
C1003 C 0.77874 0.4068 0.19947 0.0
C1004 C 0.79207 0.43432 0.19002 0.0
C1005 C 0.77754 0.45227 0.19023 0.0
C1006 C 0.74996 0.44248 0.19978 0.0
C1007 C 0.73731 0.41477 0.20937 0.0
H1008 H 0.51882 0.30111 0.21265 0.0
H1009 H 0.54887 0.2823 0.26112 0.0
H1010 H 0.57735 0.33849 0.26764 0.0
H1011 H 0.58519 0.35985 0.20084 0.0
H1012 H 0.57104 0.38312 0.19093 0.0
H1013 H 0.54611 0.342 0.19261 0.0
H1014 H 0.50529 0.3503 0.20877 0.0
H1015 H 0.53038 0.39179 0.20716 0.0
H1016 H 0.51635 0.37397 0.22787 0.0
H1017 H 0.61335 0.39556 0.26501 0.0
H1018 H 0.6525 0.44659 0.25342 0.0
H1019 H 0.59682 0.42908 0.20758 0.0
C1020 C 0.53036 0.3088 0.22495 0.0
C1021 C 0.53174 0.28759 0.23639 0.0
C1022 C 0.54734 0.29828 0.25227 0.0
C1023 C 0.56348 0.33015 0.25609 0.0
C1024 C 0.56303 0.3508 0.2441 0.0
C1025 C 0.54624 0.3404 0.22898 0.0
C1026 C 0.55311 0.36703 0.21701 0.0
C1027 C 0.56457 0.36274 0.19934 0.0
C1028 C 0.52458 0.371 0.2151 0.0
C1029 C 0.57856 0.39373 0.22699 0.0
C1030 C 0.58339 0.3842 0.24283 0.0
C1031 C 0.60911 0.4036 0.25294 0.0
C1032 C 0.63125 0.43265 0.24629 0.0
C1033 C 0.62755 0.44172 0.22964 0.0
C1034 C 0.59992 0.42288 0.22047 0.0
H1035 H 0.55674 0.34096 0.99925 0.0
H1036 H 0.49821 0.33272 0.04252 0.0
H1037 H 0.48203 0.27708 0.0452 0.0
H1038 H 0.50853 0.25846 0.98232 0.0
H1039 H 0.54328 0.25728 0.97735 0.0
H1040 H 0.54317 0.29337 0.97576 0.0
H1041 H 0.59035 0.31931 0.99638 0.0
H1042 H 0.59055 0.28349 0.99808 0.0
H1043 H 0.58771 0.30232 0.01723 0.0
H1044 H 0.47979 0.22571 0.04642 0.0
H1045 H 0.49498 0.18541 0.04764 0.0
H1046 H 0.55739 0.22891 0.00469 0.0
C1047 C 0.53956 0.32716 0.00886 0.0
C1048 C 0.52845 0.34091 0.02058 0.0
C1049 C 0.50675 0.32243 0.03332 0.0
C1050 C 0.49731 0.2908 0.03485 0.0
C1051 C 0.50975 0.27818 0.02351 0.0
C1052 C 0.5304 0.29587 0.01071 0.0
C1053 C 0.5447 0.27879 0.00211 0.0
C1054 C 0.53428 0.27154 0.98327 0.0
C1055 C 0.58041 0.29706 0.00356 0.0
C1056 C 0.53053 0.24956 0.01282 0.0
C1057 C 0.5095 0.249 0.02466 0.0
C1058 C 0.49567 0.22556 0.03697 0.0
C1059 C 0.50438 0.20278 0.03758 0.0
C1060 C 0.52726 0.20426 0.02623 0.0
C1061 C 0.53962 0.22725 0.01338 0.0
H1062 H 0.75209 0.31275 0.9685 0.0
H1063 H 0.81761 0.29444 0.99504 0.0
H1064 H 0.77618 0.24094 1.00069 0.0
H1065 H 0.70005 0.28571 0.99642 0.0
H1066 H 0.66542 0.26733 0.98345 0.0
H1067 H 0.70052 0.29816 0.97459 0.0
H1068 H 0.69862 0.26316 0.9495 0.0
H1069 H 0.6626 0.23213 0.95793 0.0
H1070 H 0.69468 0.2258 0.95397 0.0
H1071 H 0.72717 0.19938 0.01285 0.0
H1072 H 0.6756 0.17029 0.0266 0.0
H1073 H 0.64081 0.21431 0.9922 0.0
C1074 C 0.75803 0.29674 0.97443 0.0
C1075 C 0.78785 0.30768 0.98142 0.0
C1076 C 0.79494 0.28647 0.98944 0.0
C1077 C 0.7714 0.25596 0.9928 0.0
C1078 C 0.7412 0.2469 0.98762 0.0
C1079 C 0.73463 0.26634 0.97799 0.0
C1080 C 0.69997 0.25378 0.97686 0.0
C1081 C 0.69102 0.27766 0.98323 0.0
C1082 C 0.68828 0.24307 0.95847 0.0
C1083 C 0.68839 0.22636 0.98892 0.0
C1084 C 0.71233 0.22212 0.9946 0.0
C1085 C 0.70803 0.20159 0.00796 0.0
C1086 C 0.67875 0.18538 0.01583 0.0
C1087 C 0.65429 0.18998 0.01036 0.0
C1088 C 0.659 0.20992 0.99639 0.0
H1089 H 0.74618 0.40571 0.98394 0.0
H1090 H 0.80919 0.47545 0.01986 0.0
H1091 H 0.7774 0.50085 0.01896 0.0
H1092 H 0.72309 0.4563 0.95926 0.0
H1093 H 0.68349 0.42503 0.95771 0.0
H1094 H 0.7148 0.41668 0.95803 0.0
H1095 H 0.68949 0.37987 0.98406 0.0
H1096 H 0.65814 0.38784 0.98368 0.0
H1097 H 0.68035 0.39441 0.00309 0.0
H1098 H 0.73503 0.51361 0.01772 0.0
H1099 H 0.68337 0.50904 0.01892 0.0
H1100 H 0.64749 0.43034 0.98427 0.0
C1101 C 0.75378 0.42689 0.9912 0.0
C1102 C 0.78018 0.43885 0.00184 0.0
C1103 C 0.78902 0.46605 0.01156 0.0
C1104 C 0.7713 0.48078 0.01099 0.0
C1105 C 0.74492 0.46801 1.00061 0.0
C1106 C 0.73615 0.44156 0.99093 0.0
C1107 C 0.70443 0.42955 0.98303 0.0
C1108 C 0.7066 0.43206 0.96334 0.0
C1109 C 0.68179 0.39596 0.98883 0.0
C1110 C 0.69593 0.45231 0.99057 0.0
C1111 C 0.71996 0.47495 1.00021 0.0
C1112 C 0.71628 0.49645 0.00992 0.0
C1113 C 0.68688 0.49375 0.01048 0.0
C1114 C 0.66157 0.46938 0.00164 0.0
C1115 C 0.6666 0.44945 0.99094 0.0
H1116 H 0.27552 0.74146 0.81183 0.0
H1117 H 0.26631 0.75027 0.75701 0.0
H1118 H 0.32359 0.77866 0.75409 0.0
H1119 H 0.34821 0.81751 0.81794 0.0
H1120 H 0.36268 0.80111 0.83354 0.0
H1121 H 0.3215 0.78602 0.83151 0.0
H1122 H 0.31306 0.73075 0.82667 0.0
H1123 H 0.35406 0.74562 0.82866 0.0
H1124 H 0.33388 0.72446 0.80965 0.0
H1125 H 0.38163 0.79968 0.75686 0.0
H1126 H 0.43429 0.81064 0.765 0.0
H1127 H 0.40433 0.7883 0.81801 0.0
C1128 C 0.28554 0.74999 0.79926 0.0
C1129 C 0.26659 0.74377 0.78465 0.0
C1130 C 0.28051 0.755 0.76839 0.0
C1131 C 0.31298 0.77119 0.76663 0.0
C1132 C 0.33105 0.77627 0.78129 0.0
C1133 C 0.31772 0.76621 0.79732 0.0
C1134 C 0.34176 0.77197 0.81086 0.0
C1135 C 0.34365 0.79556 0.82425 0.0
C1136 C 0.3353 0.74139 0.81945 0.0
C1137 C 0.37062 0.78556 0.79986 0.0
C1138 C 0.36421 0.78842 0.78288 0.0
C1139 C 0.387 0.7981 0.77017 0.0
C1140 C 0.41683 0.8043 0.77489 0.0
C1141 C 0.42335 0.80045 0.79213 0.0
C1142 C 0.40012 0.79179 0.80475 0.0
H1143 H 0.15136 0.57993 0.79218 0.0
H1144 H 0.18388 0.62604 0.74304 0.0
H1145 H 0.20102 0.58885 0.73523 0.0
H1146 H 0.21338 0.57495 0.8009 0.0
H1147 H 0.19444 0.53776 0.81154 0.0
H1148 H 0.17621 0.56097 0.81114 0.0
H1149 H 0.12711 0.51574 0.79715 0.0
H1150 H 0.14513 0.49207 0.79768 0.0
H1151 H 0.13068 0.49815 0.77768 0.0
H1152 H 0.22498 0.55494 0.73555 0.0
H1153 H 0.25375 0.52849 0.74417 0.0
H1154 H 0.20678 0.50582 0.79343 0.0
C1155 C 0.16075 0.5813 0.77945 0.0
C1156 C 0.16608 0.60566 0.76816 0.0
C1157 C 0.17926 0.60729 0.75181 0.0
C1158 C 0.18902 0.58621 0.74726 0.0
C1159 C 0.18515 0.56353 0.75914 0.0
C1160 C 0.17092 0.56074 0.77486 0.0
C1161 C 0.17414 0.53823 0.78655 0.0
C1162 C 0.19053 0.55394 0.80351 0.0
C1163 C 0.14237 0.50933 0.78996 0.0
C1164 C 0.19419 0.53039 0.77545 0.0
C1165 C 0.19956 0.54439 0.75949 0.0
C1166 C 0.22027 0.54321 0.74783 0.0
C1167 C 0.23653 0.52816 0.75282 0.0
C1168 C 0.23234 0.51507 0.76943 0.0
C1169 C 0.21013 0.51532 0.78057 0.0
H1170 H 0.40663 0.56405 0.79359 0.0
H1171 H 0.36493 0.56348 0.74464 0.0
H1172 H 0.4068 0.61725 0.73932 0.0
H1173 H 0.41695 0.63022 0.8063 0.0
H1174 H 0.45333 0.64453 0.81745 0.0
H1175 H 0.42825 0.6036 0.81475 0.0
H1176 H 0.47227 0.59908 0.79976 0.0
H1177 H 0.49794 0.64021 0.80269 0.0
H1178 H 0.49203 0.62341 0.78153 0.0
H1179 H 0.44316 0.67378 0.74294 0.0
H1180 H 0.47043 0.72684 0.75494 0.0
H1181 H 0.48733 0.69133 0.80208 0.0
C1182 C 0.40726 0.57467 0.78134 0.0
C1183 C 0.38268 0.55963 0.76949 0.0
C1184 C 0.38376 0.57449 0.7538 0.0
C1185 C 0.40751 0.60508 0.75068 0.0
C1186 C 0.43011 0.62026 0.7633 0.0
C1187 C 0.43047 0.60529 0.77823 0.0
C1188 C 0.45311 0.62794 0.79123 0.0
C1189 C 0.43692 0.62648 0.80841 0.0
C1190 C 0.48047 0.62233 0.79396 0.0
C1191 C 0.46343 0.65824 0.78193 0.0
C1192 C 0.45084 0.65335 0.7656 0.0
C1193 C 0.4539 0.6779 0.75548 0.0
C1194 C 0.46933 0.70797 0.76242 0.0
C1195 C 0.481 0.71309 0.77941 0.0
C1196 C 0.47899 0.68808 0.78897 0.0
H1197 H 0.45361 0.6347 0.9826 0.0
H1198 H 0.39906 0.59915 0.02905 0.0
H1199 H 0.43113 0.64978 0.04312 0.0
H1200 H 0.53114 0.69432 0.00604 0.0
H1201 H 0.53985 0.72131 0.9886 0.0
H1202 H 0.52031 0.68014 0.98437 0.0
H1203 H 0.47578 0.68362 0.96924 0.0
H1204 H 0.49514 0.72442 0.97333 0.0
H1205 H 0.45585 0.69998 0.98073 0.0
H1206 H 0.45427 0.7055 0.04788 0.0
H1207 H 0.46819 0.75995 0.04317 0.0
H1208 H 0.51331 0.7613 0.99547 0.0
C1209 C 0.44948 0.63729 0.996 0.0
C1210 C 0.42393 0.61327 0.00474 0.0
C1211 C 0.4187 0.6173 0.02216 0.0
C1212 C 0.43695 0.64597 0.03029 0.0
C1213 C 0.46085 0.67004 0.02096 0.0
C1214 C 0.46777 0.66571 0.00431 0.0
C1215 C 0.49092 0.69624 0.99607 0.0
C1216 C 0.52243 0.69811 0.99364 0.0
C1217 C 0.47864 0.70135 0.97886 0.0
C1218 C 0.49288 0.71868 0.00983 0.0
C1219 C 0.47617 0.70311 0.02435 0.0
C1220 C 0.46869 0.71815 0.03703 0.0
C1221 C 0.4767 0.74913 0.03431 0.0
C1222 C 0.49247 0.76476 0.01919 0.0
C1223 C 0.50251 0.75007 0.00748 0.0
H1224 H 0.24154 0.73747 0.97047 0.0
H1225 H 0.21656 0.72183 0.0244 0.0
H1226 H 0.27185 0.75557 0.03225 0.0
H1227 H 0.30272 0.72769 0.97332 0.0
H1228 H 0.32694 0.75649 0.95771 0.0
H1229 H 0.2855 0.73862 0.9563 0.0
H1230 H 0.2894 0.79251 0.95729 0.0
H1231 H 0.33109 0.81077 0.95833 0.0
H1232 H 0.31033 0.81897 0.97455 0.0
H1233 H 0.33053 0.78281 0.03388 0.0
H1234 H 0.38642 0.80177 0.02918 0.0
H1235 H 0.37173 0.79669 0.97407 0.0
C1236 C 0.24751 0.74215 0.98395 0.0
C1237 C 0.22488 0.72728 0.99685 0.0
C1238 C 0.23357 0.73343 0.01434 0.0
C1239 C 0.26492 0.75248 0.01889 0.0
C1240 C 0.28699 0.76532 0.00577 0.0
C1241 C 0.2785 0.76072 0.98864 0.0
C1242 C 0.30644 0.77322 0.97692 0.0
C1243 C 0.30531 0.74746 0.96541 0.0
C1244 C 0.3095 0.8005 0.96614 0.0
C1245 C 0.332 0.78409 0.99011 0.0
C1246 C 0.32054 0.7801 0.00668 0.0
C1247 C 0.33978 0.78657 0.02095 0.0
C1248 C 0.37142 0.79718 0.01817 0.0
C1249 C 0.38324 0.80058 0.00126 0.0
C1250 C 0.3633 0.79436 0.98713 0.0
H1251 H 0.20729 0.61302 0.00939 0.0
H1252 H 0.1377 0.547 0.97446 0.0
H1253 H 0.16033 0.51286 0.97733 0.0
H1254 H 0.26732 0.61071 0.99171 0.0
H1255 H 0.28834 0.61502 0.01133 0.0
H1256 H 0.26206 0.62969 0.01008 0.0
H1257 H 0.23234 0.59674 0.03669 0.0
H1258 H 0.25861 0.58176 0.03793 0.0
H1259 H 0.21737 0.55541 0.03655 0.0
H1260 H 0.19558 0.49078 0.98002 0.0
H1261 H 0.24261 0.48592 0.9797 0.0
H1262 H 0.28982 0.56735 0.01208 0.0
C1263 C 0.19616 0.59087 0.00281 0.0
C1264 C 0.17066 0.58245 0.99182 0.0
C1265 C 0.15719 0.55373 0.98303 0.0
C1266 C 0.16972 0.5341 0.98471 0.0
C1267 C 0.19556 0.54354 0.99528 0.0
C1268 C 0.2086 0.57133 0.00419 0.0
C1269 C 0.23913 0.57888 0.01235 0.0
C1270 C 0.26575 0.6104 0.00597 0.0
C1271 C 0.2367 0.57814 0.03205 0.0
C1272 C 0.2423 0.55206 0.00574 0.0
C1273 C 0.21646 0.53126 0.99646 0.0
C1274 C 0.21561 0.50648 0.98759 0.0
C1275 C 0.24236 0.50379 0.98752 0.0
C1276 C 0.26962 0.52623 0.99594 0.0
C1277 C 0.26904 0.54969 0.00577 0.0
H1278 H 0.24989 0.57132 0.54266 0.0
H1279 H 0.1884 0.49933 0.50746 0.0
H1280 H 0.22722 0.48299 0.50375 0.0
H1281 H 0.31158 0.59792 0.52079 0.0
H1282 H 0.33986 0.60585 0.53739 0.0
H1283 H 0.30418 0.60439 0.54267 0.0
H1284 H 0.29173 0.56194 0.56553 0.0
H1285 H 0.32802 0.56375 0.56064 0.0
H1286 H 0.2922 0.52715 0.55966 0.0
H1287 H 0.27735 0.48791 0.4956 0.0
H1288 H 0.33219 0.50803 0.48751 0.0
H1289 H 0.36143 0.57416 0.52933 0.0
C1290 C 0.24393 0.55084 0.53508 0.0
C1291 C 0.2163 0.53656 0.52538 0.0
C1292 C 0.20928 0.51031 0.51521 0.0
C1293 C 0.23133 0.50095 0.51296 0.0
C1294 C 0.25977 0.51749 0.52141 0.0
C1295 C 0.26567 0.54116 0.53285 0.0
C1296 C 0.29951 0.55859 0.53813 0.0
C1297 C 0.31463 0.59372 0.5345 0.0
C1298 C 0.30307 0.55247 0.55712 0.0
C1299 C 0.31231 0.54335 0.52648 0.0
C1300 C 0.28898 0.51923 0.51718 0.0
C1301 C 0.29569 0.50569 0.50334 0.0
C1302 C 0.32685 0.5174 0.49873 0.0
C1303 C 0.35083 0.54218 0.50803 0.0
C1304 C 0.34346 0.55445 0.52242 0.0
H1305 H 0.46211 0.65602 0.53824 0.0
H1306 H 0.53864 0.68763 0.50247 0.0
H1307 H 0.55138 0.74154 0.50711 0.0
H1308 H 0.43227 0.69172 0.52239 0.0
H1309 H 0.4195 0.70361 0.5411 0.0
H1310 H 0.4251 0.67092 0.54242 0.0
H1311 H 0.46387 0.69603 0.5675 0.0
H1312 H 0.45766 0.72875 0.56674 0.0
H1313 H 0.49645 0.73482 0.56526 0.0
H1314 H 0.54233 0.78509 0.50553 0.0
H1315 H 0.5168 0.81609 0.50123 0.0
H1316 H 0.44574 0.75838 0.53796 0.0
C1317 C 0.48284 0.67454 0.53234 0.0
C1318 C 0.4992 0.66776 0.51988 0.0
C1319 C 0.52582 0.69236 0.51209 0.0
C1320 C 0.53318 0.72315 0.51465 0.0
C1321 C 0.51398 0.72889 0.52525 0.0
C1322 C 0.48989 0.70532 0.53451 0.0
C1323 C 0.46856 0.716 0.54187 0.0
C1324 C 0.4344 0.6943 0.5366 0.0
C1325 C 0.47185 0.7191 0.56151 0.0
C1326 C 0.482 0.74757 0.53347 0.0
C1327 C 0.50887 0.75508 0.52447 0.0
C1328 C 0.52216 0.78018 0.51312 0.0
C1329 C 0.50734 0.79747 0.5106 0.0
C1330 C 0.47954 0.78963 0.5194 0.0
C1331 C 0.46747 0.76522 0.53146 0.0
H1332 H 0.33187 0.81954 0.50793 0.0
H1333 H 0.36481 0.81103 0.55794 0.0
H1334 H 0.31286 0.7676 0.56488 0.0
H1335 H 0.24249 0.78068 0.51909 0.0
H1336 H 0.23388 0.76142 0.49854 0.0
H1337 H 0.26653 0.80022 0.50074 0.0
H1338 H 0.30218 0.78121 0.48797 0.0
H1339 H 0.27026 0.74245 0.48625 0.0
H1340 H 0.30406 0.74987 0.49845 0.0
H1341 H 0.26673 0.71602 0.56254 0.0
H1342 H 0.23081 0.66336 0.55175 0.0
H1343 H 0.22935 0.7016 0.50197 0.0
C1344 C 0.32749 0.80992 0.52078 0.0
C1345 C 0.35223 0.81854 0.5324 0.0
C1346 C 0.34605 0.80493 0.54892 0.0
C1347 C 0.31651 0.78009 0.55292 0.0
C1348 C 0.29356 0.76924 0.54026 0.0
C1349 C 0.29855 0.78419 0.52455 0.0
C1350 C 0.274 0.76392 0.51155 0.0
C1351 C 0.25297 0.77736 0.50723 0.0
C1352 C 0.2885 0.75909 0.49512 0.0
C1353 C 0.25653 0.73421 0.52176 0.0
C1354 C 0.26715 0.73813 0.53852 0.0
C1355 C 0.25754 0.71293 0.54963 0.0
C1356 C 0.23731 0.68304 0.54336 0.0
C1357 C 0.22749 0.67857 0.52602 0.0
C1358 C 0.23637 0.70453 0.51533 0.0
H1359 H 0.18236 0.62794 0.31813 0.0
H1360 H 0.1296 0.58893 0.36476 0.0
H1361 H 0.11659 0.53651 0.3552 0.0
H1362 H 0.13702 0.55424 0.28894 0.0
H1363 H 0.17316 0.56218 0.27924 0.0
H1364 H 0.16753 0.59381 0.28575 0.0
H1365 H 0.21737 0.61649 0.30434 0.0
H1366 H 0.22319 0.58543 0.29772 0.0
H1367 H 0.22091 0.59217 0.32032 0.0
H1368 H 0.12111 0.49253 0.3453 0.0
H1369 H 0.14976 0.46527 0.33953 0.0
H1370 H 0.202 0.53179 0.29961 0.0
C1371 C 0.16677 0.60807 0.32585 0.0
C1372 C 0.15659 0.6122 0.34202 0.0
C1373 C 0.13733 0.58606 0.35223 0.0
C1374 C 0.12956 0.55618 0.34678 0.0
C1375 C 0.1414 0.55287 0.33114 0.0
C1376 C 0.15968 0.57825 0.32079 0.0
C1377 C 0.17591 0.57014 0.30699 0.0
C1378 C 0.16259 0.57008 0.28917 0.0
C1379 C 0.2114 0.59233 0.30741 0.0
C1380 C 0.16691 0.53746 0.31245 0.0
C1381 C 0.14539 0.5272 0.32569 0.0
C1382 C 0.13735 0.49995 0.3347 0.0
C1383 C 0.15374 0.48446 0.33128 0.0
C1384 C 0.17845 0.49683 0.31931 0.0
C1385 C 0.18303 0.52182 0.30873 0.0
H1386 H 0.37005 0.5634 0.33729 0.0
H1387 H 0.32433 0.56074 0.28945 0.0
H1388 H 0.37204 0.60715 0.27936 0.0
H1389 H 0.40161 0.63735 0.34452 0.0
H1390 H 0.43803 0.64446 0.35342 0.0
H1391 H 0.40479 0.60633 0.35448 0.0
H1392 H 0.43518 0.58387 0.33884 0.0
H1393 H 0.46883 0.62224 0.33778 0.0
H1394 H 0.45333 0.59978 0.31842 0.0
H1395 H 0.41769 0.66039 0.27808 0.0
H1396 H 0.45607 0.71439 0.28585 0.0
H1397 H 0.47371 0.68207 0.33392 0.0
C1398 C 0.3706 0.57183 0.32439 0.0
C1399 C 0.34366 0.55861 0.31414 0.0
C1400 C 0.34488 0.57044 0.29744 0.0
C1401 C 0.37195 0.59673 0.29159 0.0
C1402 C 0.39773 0.61043 0.30243 0.0
C1403 C 0.39744 0.59794 0.31839 0.0
C1404 C 0.4259 0.61947 0.32877 0.0
C1405 C 0.41702 0.62737 0.3463 0.0
C1406 C 0.44707 0.6055 0.33107 0.0
C1407 C 0.44063 0.64731 0.31692 0.0
C1408 C 0.42472 0.64135 0.30152 0.0
C1409 C 0.43101 0.66506 0.28979 0.0
C1410 C 0.4529 0.69572 0.29429 0.0
C1411 C 0.46786 0.70229 0.31045 0.0
C1412 C 0.46294 0.67759 0.32136 0.0
H1413 H 0.27175 0.715 0.31602 0.0
H1414 H 0.27821 0.79806 0.33784 0.0
H1415 H 0.33333 0.82798 0.32935 0.0
H1416 H 0.33516 0.72283 0.33178 0.0
H1417 H 0.34801 0.70915 0.31387 0.0
H1418 H 0.30767 0.69674 0.31617 0.0
H1419 H 0.3067 0.7173 0.28574 0.0
H1420 H 0.34721 0.72941 0.28317 0.0
H1421 H 0.33419 0.75699 0.28022 0.0
H1422 H 0.38907 0.84395 0.32714 0.0
H1423 H 0.43951 0.84574 0.32872 0.0
H1424 H 0.39744 0.75345 0.30678 0.0
C1425 C 0.28441 0.73985 0.31815 0.0
C1426 C 0.27086 0.75431 0.32749 0.0
C1427 C 0.28809 0.78667 0.33045 0.0
C1428 C 0.31947 0.80383 0.32569 0.0
C1429 C 0.3329 0.78839 0.3176 0.0
C1430 C 0.31562 0.75723 0.31336 0.0
C1431 C 0.33619 0.74486 0.30712 0.0
C1432 C 0.33148 0.71678 0.31789 0.0
C1433 C 0.33075 0.73667 0.28792 0.0
C1434 C 0.36784 0.77302 0.31009 0.0
C1435 C 0.36554 0.79815 0.31575 0.0
C1436 C 0.3913 0.82492 0.32206 0.0
C1437 C 0.41982 0.8257 0.323 0.0
C1438 C 0.42233 0.79992 0.31761 0.0
C1439 C 0.39631 0.77385 0.31047 0.0
H1440 H 0.13357 0.12734 0.30635 0.0
H1441 H 0.14647 0.22026 0.30498 0.0
H1442 H 0.1508 0.22074 0.27338 0.0
H1443 H 0.18856 0.13961 0.27522 0.0
H1444 H 0.16726 0.10171 0.26551 0.0
H1445 H 0.16102 0.10681 0.28775 0.0
H1446 H 0.10219 0.08328 0.282 0.0
H1447 H 0.10822 0.07791 0.2597 0.0
H1448 H 0.0895 0.09967 0.26539 0.0
H1449 H 0.15937 0.21359 0.24257 0.0
H1450 H 0.17072 0.19883 0.21435 0.0
H1451 H 0.15207 0.11042 0.23552 0.0
C1452 C 0.13658 0.14747 0.29935 0.0
C1453 C 0.13954 0.17371 0.30806 0.0
C1454 C 0.14404 0.19987 0.29852 0.0
C1455 C 0.14644 0.20034 0.28058 0.0
C1456 C 0.14416 0.1744 0.27238 0.0
C1457 C 0.13912 0.14835 0.28141 0.0
C1458 C 0.13983 0.1245 0.26961 0.0
C1459 C 0.16571 0.11779 0.27484 0.0
C1460 C 0.10804 0.09457 0.26915 0.0
C1461 C 0.14701 0.14163 0.25263 0.0
C1462 C 0.14909 0.17024 0.2545 0.0
C1463 C 0.15735 0.19107 0.24087 0.0
C1464 C 0.16387 0.18254 0.22493 0.0
C1465 C 0.16214 0.15346 0.22277 0.0
C1466 C 0.15319 0.13264 0.23676 0.0
H1467 H 0.90343 0.02589 0.20887 0.0
H1468 H 0.89335 0.10667 0.20061 0.0
H1469 H 0.88079 0.10651 0.23126 0.0
H1470 H 0.84084 0.98737 0.23755 0.0
H1471 H 0.85941 0.97234 0.25128 0.0
H1472 H 0.87025 0.98009 0.22898 0.0
H1473 H 0.9277 0.01615 0.23762 0.0
H1474 H 0.91708 0.00828 0.25997 0.0
H1475 H 0.93754 0.04777 0.2523 0.0
H1476 H 0.86506 0.09523 0.26196 0.0
H1477 H 0.85021 0.07533 0.29153 0.0
H1478 H 0.87129 0.0024 0.28041 0.0
C1479 C 0.89917 0.04388 0.21361 0.0
C1480 C 0.89948 0.06637 0.20238 0.0
C1481 C 0.89336 0.08929 0.20899 0.0
C1482 C 0.88617 0.08939 0.22638 0.0
C1483 C 0.88535 0.06651 0.23703 0.0
C1484 C 0.89199 0.04436 0.23098 0.0
C1485 C 0.88836 0.02173 0.24509 0.0
C1486 C 0.86321 0.98842 0.24044 0.0
C1487 C 0.91953 0.02361 0.24897 0.0
C1488 C 0.87812 0.03434 0.25988 0.0
C1489 C 0.87657 0.06019 0.25492 0.0
C1490 C 0.86651 0.07522 0.26607 0.0
C1491 C 0.85798 0.06365 0.28281 0.0
C1492 C 0.85969 0.0374 0.28825 0.0
C1493 C 0.86997 0.02264 0.27662 0.0
H1494 H 0.02402 0.86561 0.30307 0.0
H1495 H 0.95241 0.77747 0.32369 0.0
H1496 H 0.92736 0.7632 0.29519 0.0
H1497 H 0.97541 0.87967 0.27621 0.0
H1498 H 0.0029 0.89633 0.25883 0.0
H1499 H 0.01649 0.89909 0.28056 0.0
H1500 H 0.04809 0.87287 0.27164 0.0
H1501 H 0.03506 0.87054 0.24981 0.0
H1502 H 0.0288 0.83594 0.26075 0.0
H1503 H 0.90795 0.76022 0.2651 0.0
H1504 H 0.89896 0.76609 0.23443 0.0
H1505 H 0.98387 0.85555 0.23333 0.0
C1506 C 0.0034 0.84307 0.3015 0.0
C1507 C 0.99017 0.82261 0.31555 0.0
C1508 C 0.96302 0.79343 0.31305 0.0
C1509 C 0.94853 0.78518 0.29695 0.0
C1510 C 0.96163 0.80628 0.28349 0.0
C1511 C 0.98873 0.8344 0.2855 0.0
C1512 C -0.00215 0.85297 0.26899 0.0
C1513 C -0.00183 0.88384 0.27129 0.0
C1514 C 0.02931 0.85838 0.26241 0.0
C1515 C 0.97152 0.83099 0.25742 0.0
C1516 C 0.95073 0.80431 0.26606 0.0
C1517 C 0.92418 0.78089 0.25815 0.0
C1518 C 0.91916 0.78453 0.24079 0.0
C1519 C 0.94073 0.81125 0.23157 0.0
C1520 C 0.96702 0.83487 0.24008 0.0
H1521 H 0.89867 0.86274 0.73977 0.0
H1522 H 0.91925 0.93455 0.70198 0.0
H1523 H 0.91725 0.96817 0.72479 0.0
H1524 H 0.84305 0.86975 0.76075 0.0
H1525 H 0.85207 0.8625 0.78208 0.0
H1526 H 0.86151 0.84683 0.76376 0.0
H1527 H 0.91951 0.87431 0.77298 0.0
H1528 H 0.9095 0.88875 0.79171 0.0
H1529 H 0.93954 0.9155 0.77745 0.0
H1530 H 0.9037 0.98977 0.7509 0.0
H1531 H 0.88352 -0.00143 0.77822 0.0
H1532 H 0.8727 0.91248 0.79842 0.0
C1533 C 0.9039 0.88597 0.73638 0.0
C1534 C 0.90911 0.89609 0.71914 0.0
C1535 C 0.91533 0.92643 0.71515 0.0
C1536 C 0.91423 0.94567 0.72802 0.0
C1537 C 0.90732 0.93428 0.7448 0.0
C1538 C 0.90282 0.9053 0.74902 0.0
C1539 C 0.89247 0.89692 0.76747 0.0
C1540 C 0.86038 0.86726 0.76856 0.0
C1541 C 0.91673 0.89367 0.77802 0.0
C1542 C 0.89096 0.92524 0.77287 0.0
C1543 C 0.89975 0.94671 0.75972 0.0
C1544 C 0.89749 0.97345 0.7614 0.0
C1545 C 0.88593 0.97821 0.7769 0.0
C1546 C 0.87691 0.95637 0.79045 0.0
C1547 C 0.87996 0.92989 0.78841 0.0
H1548 H 0.05277 0.88259 0.76542 0.0
H1549 H 0.97683 0.89938 0.77516 0.0
H1550 H 0.98988 0.93108 0.74859 0.0
H1551 H 0.10573 0.9577 0.75228 0.0
H1552 H 0.12401 0.94614 0.73619 0.0
H1553 H 0.10588 0.92173 0.75456 0.0
H1554 H 0.07208 0.87588 0.73443 0.0
H1555 H 0.08919 0.89987 0.71573 0.0
H1556 H 0.04768 0.87959 0.71867 0.0
H1557 H 0.01431 0.96402 0.72181 0.0
H1558 H 0.04821 0.99597 0.69786 0.0
H1559 H 0.10932 0.95896 0.70732 0.0
C1560 C 0.03848 0.89241 0.7618 0.0
C1561 C 0.01344 0.88826 0.77215 0.0
C1562 C -0.00427 0.90199 0.76718 0.0
C1563 C 0.00307 0.92004 0.75217 0.0
C1564 C 0.02837 0.92417 0.74239 0.0
C1565 C 0.04576 0.9107 0.74706 0.0
C1566 C 0.07317 0.92041 0.73523 0.0
C1567 C 0.104 0.93752 0.74516 0.0
C1568 C 0.07036 0.89228 0.72542 0.0
C1569 C 0.06904 0.94213 0.7234 0.0
C1570 C 0.04283 0.94368 0.7275 0.0
C1571 C 0.0348 0.96285 0.71845 0.0
C1572 C 0.05418 0.98095 0.70493 0.0
C1573 C 0.08142 0.98003 0.70087 0.0
C1574 C 0.08874 0.96029 0.71022 0.0
H1575 H 0.97905 0.08393 0.72636 0.0
H1576 H 0.0385 0.16706 0.69699 0.0
H1577 H 0.08116 0.18059 0.7175 0.0
H1578 H 0.00313 0.11949 0.76678 0.0
H1579 H 0.00117 0.08638 0.77741 0.0
H1580 H 0.97669 0.08078 0.75919 0.0
H1581 H -0.00147 0.0496 0.74382 0.0
H1582 H 0.02326 0.05524 0.76199 0.0
H1583 H 0.03985 0.06695 0.74083 0.0
H1584 H 0.11582 0.1874 0.74195 0.0
H1585 H 0.13918 0.18937 0.77019 0.0
H1586 H 0.05701 0.10305 0.78467 0.0
C1587 C 0.00126 0.10466 0.72415 0.0
C1588 C 0.0057 0.12439 0.71009 0.0
C1589 C 0.03473 0.1517 0.70774 0.0
C1590 C 0.05915 0.15944 0.71922 0.0
C1591 C 0.05402 0.13978 0.7331 0.0
C1592 C 0.02575 0.11308 0.73573 0.0
C1593 C 0.02546 0.09778 0.75264 0.0
C1594 C 0.00012 0.09603 0.76471 0.0
C1595 C 0.02155 0.06548 0.74963 0.0
C1596 C 0.0577 0.12048 0.75924 0.0
C1597 C 0.07394 0.14417 0.74759 0.0
C1598 C 0.10352 0.16882 0.75112 0.0
C1599 C 0.1166 0.16973 0.76719 0.0
C1600 C 0.09997 0.14631 0.77956 0.0
C1601 C 0.07043 0.12104 0.77536 0.0
H1602 H 0.79605 0.42856 0.56312 0.0
H1603 H 0.8934 0.49845 0.55856 0.0
H1604 H 0.89522 0.50973 0.58953 0.0
H1605 H 0.7764 0.47122 0.59044 0.0
H1606 H 0.74895 0.43894 0.60331 0.0
H1607 H 0.75606 0.43269 0.58141 0.0
H1608 H 0.77029 0.39172 0.59142 0.0
H1609 H 0.76294 0.39765 0.61339 0.0
H1610 H 0.79995 0.40203 0.6075 0.0
H1611 H 0.88555 0.51747 0.61984 0.0
H1612 H 0.86498 0.52098 0.64805 0.0
H1613 H 0.77347 0.44684 0.63329 0.0
C1614 C 0.81791 0.44557 0.5688 0.0
C1615 C 0.84468 0.46246 0.55856 0.0
C1616 C 0.87269 0.48519 0.56625 0.0
C1617 C 0.87397 0.49169 0.58382 0.0
C1618 C 0.84701 0.4753 0.5935 0.0
C1619 C 0.8195 0.45261 0.58634 0.0
C1620 C 0.79328 0.44047 0.59934 0.0
C1621 C 0.76715 0.44619 0.59326 0.0
C1622 C 0.78089 0.40591 0.60314 0.0
C1623 C 0.81022 0.46049 0.61473 0.0
C1624 C 0.84127 0.48013 0.61111 0.0
C1625 C 0.86138 0.50195 0.62293 0.0
C1626 C 0.84944 0.50385 0.63889 0.0
C1627 C 0.81767 0.48415 0.64285 0.0
C1628 C 0.79792 0.462 0.63065 0.0
H1629 H 0.46789 0.30452 0.51686 0.0
H1630 H 0.49258 0.40132 0.51566 0.0
H1631 H 0.47762 0.39809 0.54628 0.0
H1632 H 0.40289 0.27655 0.54838 0.0
H1633 H 0.41406 0.25106 0.55854 0.0
H1634 H 0.42107 0.25949 0.53591 0.0
H1635 H 0.47941 0.27818 0.5405 0.0
H1636 H 0.47261 0.26989 0.56306 0.0
H1637 H 0.50118 0.30828 0.55602 0.0
H1638 H 0.46507 0.38554 0.57775 0.0
H1639 H 0.46001 0.3661 0.60757 0.0
H1640 H 0.44647 0.27858 0.58803 0.0
C1641 C 0.46924 0.32476 0.52291 0.0
C1642 C 0.48098 0.35305 0.51393 0.0
C1643 C 0.48341 0.37937 0.52236 0.0
C1644 C 0.47482 0.37769 0.53969 0.0
C1645 C 0.46401 0.34957 0.54835 0.0
C1646 C 0.4613 0.3236 0.54021 0.0
C1647 C 0.45294 0.29737 0.55276 0.0
C1648 C 0.42083 0.26947 0.54865 0.0
C1649 C 0.47804 0.2879 0.5531 0.0
C1650 C 0.45237 0.31291 0.56933 0.0
C1651 C 0.45803 0.34274 0.56652 0.0
C1652 C 0.46023 0.36209 0.58008 0.0
C1653 C 0.45728 0.35087 0.59695 0.0
C1654 C 0.45284 0.32089 0.60002 0.0
C1655 C 0.4497 0.30155 0.58601 0.0
H1656 H 0.67112 0.20397 0.52204 0.0
H1657 H 0.60519 0.10497 0.52314 0.0
H1658 H 0.6131 0.10428 0.55442 0.0
H1659 H 0.72424 0.2029 0.55173 0.0
H1660 H 0.73368 0.23908 0.56196 0.0
H1661 H 0.72144 0.23249 0.53984 0.0
H1662 H 0.6771 0.24368 0.54682 0.0
H1663 H 0.68943 0.25071 0.56894 0.0
H1664 H 0.64994 0.2222 0.56372 0.0
H1665 H 0.62996 0.11364 0.58504 0.0
H1666 H 0.6526 0.13295 0.61367 0.0
H1667 H 0.70792 0.22597 0.59284 0.0
C1668 C 0.65796 0.18225 0.52893 0.0
C1669 C 0.63742 0.15452 0.52022 0.0
C1670 C 0.62093 0.12648 0.52959 0.0
C1671 C 0.62533 0.12586 0.54734 0.0
C1672 C 0.64625 0.15345 0.55548 0.0
C1673 C 0.66212 0.1812 0.54664 0.0
C1674 C 0.68385 0.20738 0.55842 0.0
C1675 C 0.71781 0.22127 0.55264 0.0
C1676 C 0.67451 0.23247 0.55954 0.0
C1677 C 0.67789 0.18992 0.57523 0.0
C1678 C 0.65611 0.15886 0.57321 0.0
C1679 C 0.64692 0.13793 0.58682 0.0
C1680 C 0.66001 0.14913 0.60301 0.0
C1681 C 0.68204 0.18094 0.60546 0.0
C1682 C 0.69122 0.20152 0.59134 0.0
H1683 H 0.5287 0.15895 0.09134 0.0
H1684 H 0.62851 0.19798 0.09212 0.0
H1685 H 0.62982 0.21407 0.12248 0.0
H1686 H 0.52839 0.21964 0.11602 0.0
H1687 H 0.49251 0.19371 0.12681 0.0
H1688 H 0.49975 0.18461 0.10552 0.0
H1689 H 0.49049 0.1313 0.11631 0.0
H1690 H 0.48302 0.14016 0.13759 0.0
H1691 H 0.51261 0.12992 0.13428 0.0
H1692 H 0.61888 0.22351 0.15352 0.0
H1693 H 0.59734 0.22811 0.18144 0.0
H1694 H 0.50568 0.18629 0.15859 0.0
C1695 C 0.55083 0.17065 0.09793 0.0
C1696 C 0.57846 0.17689 0.08955 0.0
C1697 C 0.60705 0.19285 0.09844 0.0
C1698 C 0.60799 0.20205 0.11563 0.0
C1699 C 0.5802 0.19558 0.12353 0.0
C1700 C 0.55223 0.18051 0.11485 0.0
C1701 C 0.52569 0.17703 0.12587 0.0
C1702 C 0.51072 0.19482 0.11809 0.0
C1703 C 0.50154 0.14256 0.12868 0.0
C1704 C 0.54292 0.19211 0.14225 0.0
C1705 C 0.5743 0.20251 0.14079 0.0
C1706 C 0.59443 0.21584 0.1547 0.0
C1707 C 0.58204 0.21841 0.17047 0.0
C1708 C 0.54997 0.20802 0.17206 0.0
C1709 C 0.5304 0.19502 0.15768 0.0
H1710 H 0.78595 0.36355 0.06559 0.0
H1711 H 0.8047 0.30032 0.03659 0.0
H1712 H 0.77985 0.26074 0.05934 0.0
H1713 H 0.80508 0.34515 0.106 0.0
H1714 H 0.77598 0.34898 0.11777 0.0
H1715 H 0.79183 0.37068 0.09828 0.0
H1716 H 0.73621 0.34701 0.08583 0.0
H1717 H 0.72029 0.32483 0.10524 0.0
H1718 H 0.71174 0.30541 0.08474 0.0
H1719 H 0.75511 0.22897 0.08551 0.0
H1720 H 0.73987 0.21023 0.11522 0.0
H1721 H 0.73951 0.29491 0.12808 0.0
C1722 C 0.78454 0.34125 0.06403 0.0
C1723 C 0.79711 0.33483 0.0494 0.0
C1724 C 0.79536 0.30567 0.04782 0.0
C1725 C 0.78097 0.28294 0.06055 0.0
C1726 C 0.76872 0.28989 0.07485 0.0
C1727 C 0.77081 0.3185 0.07682 0.0
C1728 C 0.75879 0.32118 0.09425 0.0
C1729 C 0.78445 0.34808 0.10469 0.0
C1730 C 0.73004 0.32482 0.09239 0.0
C1731 C 0.7503 0.2899 0.1019 0.0
C1732 C 0.75544 0.27191 0.09031 0.0
C1733 C 0.75077 0.24272 0.09467 0.0
C1734 C 0.74196 0.2322 0.11156 0.0
C1735 C 0.73845 0.25109 0.12393 0.0
C1736 C 0.74165 0.27981 0.11884 0.0
H1737 H 0.67239 0.4552 0.14248 0.0
H1738 H 0.67434 0.54095 0.15554 0.0
H1739 H 0.65116 0.54024 0.12733 0.0
H1740 H 0.69066 0.47212 0.09715 0.0
H1741 H 0.66503 0.43254 0.09062 0.0
H1742 H 0.68302 0.44063 0.11151 0.0
H1743 H 0.62882 0.40918 0.12573 0.0
H1744 H 0.61066 0.40117 0.10491 0.0
H1745 H 0.59954 0.4194 0.12124 0.0
H1746 H 0.62637 0.52938 0.09806 0.0
H1747 H 0.6026 0.50939 0.06961 0.0
H1748 H 0.6164 0.43051 0.07605 0.0
C1749 C 0.66824 0.47394 0.13934 0.0
C1750 C 0.67519 0.49812 0.15113 0.0
C1751 C 0.66918 0.52217 0.14662 0.0
C1752 C 0.65604 0.52202 0.13067 0.0
C1753 C 0.64906 0.49761 0.11941 0.0
C1754 C 0.65504 0.4741 0.12351 0.0
C1755 C 0.64472 0.45019 0.1093 0.0
C1756 C 0.67252 0.44881 0.1017 0.0
C1757 C 0.61943 0.41809 0.11568 0.0
C1758 C 0.63177 0.46382 0.09663 0.0
C1759 C 0.63457 0.49124 0.10265 0.0
C1760 C 0.62411 0.50796 0.09319 0.0
C1761 C 0.61057 0.49645 0.07707 0.0
C1762 C 0.60759 0.46843 0.07068 0.0
C1763 C 0.61828 0.45199 0.08064 0.0
H1764 H 0.44717 0.7844 0.93444 0.0
H1765 H 0.54145 0.81464 0.95062 0.0
H1766 H 0.55423 0.80569 0.92127 0.0
H1767 H 0.43987 0.72515 0.90263 0.0
H1768 H 0.41822 0.73496 0.88786 0.0
H1769 H 0.41519 0.73919 0.91068 0.0
H1770 H 0.43116 0.79692 0.90621 0.0
H1771 H 0.43429 0.7929 0.88345 0.0
H1772 H 0.46695 0.82243 0.89522 0.0
H1773 H 0.55823 0.79862 0.88973 0.0
H1774 H 0.55369 0.7958 0.85808 0.0
H1775 H 0.45716 0.7714 0.86226 0.0
C1776 C 0.47026 0.78836 0.93188 0.0
C1777 C 0.49329 0.79996 0.94477 0.0
C1778 C 0.52348 0.80564 0.9409 0.0
C1779 C 0.53089 0.80049 0.9243 0.0
C1780 C 0.50786 0.78968 0.91174 0.0
C1781 C 0.47814 0.78366 0.91533 0.0
C1782 C 0.45858 0.77517 0.89918 0.0
C1783 C 0.43135 0.74162 0.90015 0.0
C1784 C 0.44709 0.79824 0.89582 0.0
C1785 C 0.48222 0.77833 0.8859 0.0
C1786 C 0.51034 0.78617 0.89344 0.0
C1787 C 0.53622 0.79207 0.88369 0.0
C1788 C 0.53343 0.79044 0.86573 0.0
C1789 C 0.50506 0.78327 0.85775 0.0
C1790 C 0.47905 0.77661 0.86802 0.0
H1791 H 0.14874 0.62745 0.92149 0.0
H1792 H 0.12319 0.69649 0.93463 0.0
H1793 H 0.12516 0.70996 0.90396 0.0
H1794 H 0.20277 0.67109 0.88896 0.0
H1795 H 0.19271 0.63847 0.87502 0.0
H1796 H 0.18745 0.63272 0.89789 0.0
H1797 H 0.12942 0.59193 0.89335 0.0
H1798 H 0.13455 0.59739 0.87043 0.0
H1799 H 0.10516 0.60228 0.88114 0.0
H1800 H 0.1331 0.71833 0.87236 0.0
H1801 H 0.14418 0.71941 0.84138 0.0
H1802 H 0.16378 0.64439 0.84852 0.0
C1803 C 0.14315 0.64509 0.91788 0.0
C1804 C 0.13575 0.6609 0.9304 0.0
C1805 C 0.12884 0.68404 0.92522 0.0
C1806 C 0.12991 0.69187 0.90785 0.0
C1807 C 0.13779 0.67623 0.89584 0.0
C1808 C 0.14405 0.65317 0.90057 0.0
C1809 C 0.15272 0.64057 0.88512 0.0
C1810 C 0.18588 0.64605 0.88686 0.0
C1811 C 0.12904 0.60599 0.88235 0.0
C1812 C 0.15071 0.66044 0.87101 0.0
C1813 C 0.14206 0.68086 0.8775 0.0
C1814 C 0.13962 0.70229 0.86709 0.0
C1815 C 0.14608 0.7028 0.84954 0.0
C1816 C 0.15474 0.68194 0.84259 0.0
C1817 C 0.15699 0.66046 0.85349 0.0
H1818 H 0.28228 0.48487 0.85164 0.0
H1819 H 0.33907 0.57884 0.83255 0.0
H1820 H 0.35071 0.59831 0.86246 0.0
H1821 H 0.25123 0.505 0.88958 0.0
H1822 H 0.25231 0.4756 0.9026 0.0
H1823 H 0.24598 0.46988 0.87976 0.0
H1824 H 0.29287 0.46095 0.87722 0.0
H1825 H 0.29936 0.46668 0.89998 0.0
H1826 H 0.33024 0.49015 0.8852 0.0
H1827 H 0.36037 0.60639 0.89454 0.0
H1828 H 0.36658 0.60232 0.92587 0.0
H1829 H 0.3024 0.50309 0.92333 0.0
C1830 C 0.29675 0.50961 0.85374 0.0
C1831 C 0.30977 0.53039 0.83985 0.0
C1832 C 0.32874 0.56258 0.84308 0.0
C1833 C 0.33543 0.57383 0.86 0.0
C1834 C 0.32261 0.55258 0.87345 0.0
C1835 C 0.30343 0.52118 0.87047 0.0
C1836 C 0.294 0.50285 0.88702 0.0
C1837 C 0.25879 0.48743 0.88991 0.0
C1838 C 0.30478 0.47876 0.88737 0.0
C1839 C 0.31172 0.52867 0.89978 0.0
C1840 C 0.32786 0.55726 0.89179 0.0
C1841 C 0.34744 0.58419 0.90096 0.0
C1842 C 0.35086 0.58168 0.91871 0.0
C1843 C 0.33486 0.55243 0.92698 0.0
C1844 C 0.31469 0.52582 0.91739 0.0
H1845 H 0.22266 0.55206 0.46135 0.0
H1846 H 0.20837 0.62763 0.44568 0.0
H1847 H 0.22532 0.62438 0.41613 0.0
H1848 H 0.29015 0.5715 0.43502 0.0
H1849 H 0.2775 0.53152 0.43005 0.0
H1850 H 0.26645 0.54131 0.45012 0.0
H1851 H 0.20847 0.50369 0.44315 0.0
H1852 H 0.21932 0.49369 0.42312 0.0
H1853 H 0.19254 0.50809 0.42325 0.0
H1854 H 0.24151 0.61126 0.38808 0.0
H1855 H 0.25327 0.5875 0.3634 0.0
H1856 H 0.25625 0.52032 0.39773 0.0
C1857 C 0.22351 0.56828 0.45179 0.0
C1858 C 0.21464 0.59042 0.45583 0.0
C1859 C 0.21548 0.61079 0.44287 0.0
C1860 C 0.2251 0.60917 0.42611 0.0
C1861 C 0.23367 0.58702 0.42257 0.0
C1862 C 0.2328 0.56683 0.43504 0.0
C1863 C 0.24112 0.54377 0.42772 0.0
C1864 C 0.27056 0.54725 0.43623 0.0
C1865 C 0.21373 0.51034 0.42941 0.0
C1866 C 0.2469 0.55415 0.40915 0.0
C1867 C 0.24259 0.57918 0.40642 0.0
C1868 C 0.24522 0.59185 0.3901 0.0
C1869 C 0.25194 0.57824 0.37618 0.0
C1870 C 0.25594 0.55226 0.3787 0.0
C1871 C 0.25379 0.54044 0.39545 0.0
H1872 H 0.49519 0.72368 0.37839 0.0
H1873 H 0.44566 0.77181 0.39155 0.0
H1874 H 0.42704 0.74103 0.41847 0.0
H1875 H 0.43547 0.64928 0.39248 0.0
H1876 H 0.46197 0.6372 0.4001 0.0
H1877 H 0.47314 0.66456 0.38267 0.0
H1878 H 0.52217 0.70394 0.39946 0.0
H1879 H 0.51146 0.6766 0.41686 0.0
H1880 H 0.51811 0.71512 0.42092 0.0
H1881 H 0.41545 0.7055 0.44448 0.0
H1882 H 0.40935 0.66644 0.46629 0.0
H1883 H 0.46242 0.63886 0.43402 0.0
C1884 C 0.48088 0.72812 0.3871 0.0
C1885 C 0.47233 0.75048 0.38319 0.0
C1886 C 0.45271 0.75497 0.39453 0.0
C1887 C 0.44203 0.7376 0.40978 0.0
C1888 C 0.45065 0.71541 0.41318 0.0
C1889 C 0.46938 0.71046 0.40204 0.0
C1890 C 0.47397 0.68416 0.40804 0.0
C1891 C 0.46031 0.65721 0.39505 0.0
C1892 C 0.50847 0.69565 0.41153 0.0
C1893 C 0.45534 0.67534 0.4245 0.0
C1894 C 0.44224 0.69373 0.42737 0.0
C1895 C 0.42528 0.69073 0.44225 0.0
C1896 C 0.4219 0.66852 0.45453 0.0
C1897 C 0.43499 0.64939 0.45167 0.0
C1898 C 0.4516 0.65273 0.43638 0.0
H1899 H 0.384 0.8036 0.44769 0.0
H1900 H 0.34079 0.73064 0.48591 0.0
H1901 H 0.29704 0.70028 0.46606 0.0
H1902 H 0.31621 0.80056 0.43344 0.0
H1903 H 0.32745 0.80778 0.41115 0.0
H1904 H 0.35669 0.82229 0.42765 0.0
H1905 H 0.38266 0.79368 0.4137 0.0
H1906 H 0.35366 0.7793 0.39703 0.0
H1907 H 0.35985 0.75254 0.40969 0.0
H1908 H 0.25551 0.68063 0.44304 0.0
H1909 H 0.22126 0.67153 0.41792 0.0
H1910 H 0.29287 0.7569 0.3948 0.0
C1911 C 0.36571 0.78093 0.45174 0.0
C1912 C 0.3658 0.76943 0.46831 0.0
C1913 C 0.34124 0.73982 0.47321 0.0
C1914 C 0.31627 0.72243 0.46205 0.0
C1915 C 0.31646 0.73487 0.44596 0.0
C1916 C 0.34076 0.76326 0.44074 0.0
C1917 C 0.33484 0.77214 0.42314 0.0
C1918 C 0.33372 0.80248 0.4239 0.0
C1919 C 0.35919 0.77454 0.41012 0.0
C1920 C 0.30317 0.74456 0.41937 0.0
C1921 C 0.2929 0.72327 0.43265 0.0
C1922 C 0.26352 0.69677 0.4324 0.0
C1923 C 0.24427 0.69181 0.41812 0.0
C1924 C 0.25458 0.71323 0.40433 0.0
C1925 C 0.28444 0.73988 0.40504 0.0
H1926 H 0.29079 0.17799 0.20351 0.0
H1927 H 0.27656 0.12859 0.15536 0.0
H1928 H 0.32283 0.12396 0.16118 0.0
H1929 H 0.3756 0.22141 0.20093 0.0
H1930 H 0.38016 0.21957 0.2238 0.0
H1931 H 0.34644 0.21953 0.21541 0.0
H1932 H 0.31133 0.16844 0.23196 0.0
H1933 H 0.34495 0.16786 0.24001 0.0
H1934 H 0.31563 0.13503 0.22825 0.0
H1935 H 0.36775 0.12118 0.1732 0.0
H1936 H 0.41523 0.12948 0.18774 0.0
H1937 H 0.40171 0.18271 0.22757 0.0
C1938 C 0.29778 0.16671 0.19406 0.0
C1939 C 0.28023 0.15362 0.179 0.0
C1940 C 0.28993 0.13899 0.16691 0.0
C1941 C 0.31592 0.13594 0.17019 0.0
C1942 C 0.33203 0.14802 0.1855 0.0
C1943 C 0.32388 0.16383 0.19702 0.0
C1944 C 0.34571 0.17542 0.21225 0.0
C1945 C 0.36301 0.2111 0.21314 0.0
C1946 C 0.32836 0.1608 0.22911 0.0
C1947 C 0.36732 0.16346 0.20753 0.0
C1948 C 0.35865 0.14729 0.19219 0.0
C1949 C 0.37495 0.134 0.18515 0.0
C1950 C 0.40174 0.13865 0.19359 0.0
C1951 C 0.41214 0.15679 0.20876 0.0
C1952 C 0.39417 0.16855 0.21607 0.0
H1953 H 0.82236 0.08004 0.14892 0.0
H1954 H 0.90336 0.14508 0.11972 0.0
H1955 H 0.89062 0.18634 0.12528 0.0
H1956 H 0.7713 0.11259 0.13797 0.0
H1957 H 0.75565 0.1054 0.15945 0.0
H1958 H 0.76799 0.08022 0.15013 0.0
H1959 H 0.80387 0.09051 0.17642 0.0
H1960 H 0.79267 0.11668 0.1855 0.0
H1961 H 0.83306 0.12981 0.18156 0.0
H1962 H 0.8729 0.22192 0.13744 0.0
H1963 H 0.84761 0.24746 0.15223 0.0
H1964 H 0.78052 0.15902 0.17468 0.0
C1965 C 0.83664 0.10256 0.14302 0.0
C1966 C 0.86364 0.10937 0.13375 0.0
C1967 C 0.88233 0.13938 0.12669 0.0
C1968 C 0.87542 0.16298 0.1299 0.0
C1969 C 0.8498 0.15603 0.14016 0.0
C1970 C 0.83039 0.12639 0.14635 0.0
C1971 C 0.80609 0.12546 0.15835 0.0
C1972 C 0.77332 0.1047 0.15103 0.0
C1973 C 0.80913 0.115 0.17652 0.0
C1974 C 0.81508 0.15926 0.15814 0.0
C1975 C 0.84027 0.17658 0.14756 0.0
C1976 C 0.85296 0.20853 0.14562 0.0
C1977 C 0.83869 0.22287 0.1542 0.0
C1978 C 0.81222 0.20519 0.16461 0.0
C1979 C 0.80082 0.17317 0.16687 0.0
H1980 H 0.85944 0.71157 0.16111 0.0
H1981 H 0.93787 0.71709 0.18856 0.0
H1982 H 0.90341 0.66543 0.20128 0.0
H1983 H 0.80948 0.68402 0.1945 0.0
H1984 H 0.77513 0.6585 0.18239 0.0
H1985 H 0.80634 0.69214 0.17223 0.0
H1986 H 0.81098 0.6581 0.14853 0.0
H1987 H 0.77878 0.6244 0.15814 0.0
H1988 H 0.81502 0.62533 0.15459 0.0
H1989 H 0.85889 0.61651 0.21397 0.0
H1990 H 0.80888 0.57095 0.22262 0.0
H1991 H 0.76014 0.6011 0.18854 0.0
C1992 C 0.86971 0.70136 0.16916 0.0
C1993 C 0.90133 0.71822 0.17379 0.0
C1994 C 0.91373 0.70436 0.18471 0.0
C1995 C 0.89428 0.67518 0.19212 0.0
C1996 C 0.86266 0.66035 0.1884 0.0
C1997 C 0.85059 0.6727 0.17689 0.0
C1998 C 0.81557 0.65385 0.17625 0.0
C1999 C 0.80079 0.6733 0.18167 0.0
C2000 C 0.80444 0.63956 0.15832 0.0
C2001 C 0.80972 0.62934 0.18948 0.0
C2002 C 0.8371 0.63323 0.19626 0.0
C2003 C 0.83733 0.61314 0.20867 0.0
C2004 C 0.80885 0.5876 0.21366 0.0
C2005 C 0.7807 0.58278 0.2064 0.0
C2006 C 0.78122 0.60447 0.19455 0.0
H2007 H 0.22007 0.40375 0.36707 0.0
H2008 H 0.28751 0.42242 0.32683 0.0
H2009 H 0.28695 0.37371 0.33409 0.0
H2010 H 0.24651 0.36502 0.39778 0.0
H2011 H 0.20735 0.33688 0.40386 0.0
H2012 H 0.21659 0.37533 0.39731 0.0
H2013 H 0.17402 0.352 0.37377 0.0
H2014 H 0.16433 0.31367 0.3805 0.0
H2015 H 0.17453 0.32515 0.3584 0.0
H2016 H 0.27556 0.32123 0.34395 0.0
H2017 H 0.24856 0.26599 0.35225 0.0
H2018 H 0.18781 0.28132 0.3857 0.0
C2019 C 0.23512 0.39783 0.35999 0.0
C2020 C 0.25403 0.41681 0.34651 0.0
C2021 C 0.27289 0.40808 0.33723 0.0
C2022 C 0.27298 0.3807 0.3414 0.0
C2023 C 0.25408 0.36246 0.35484 0.0
C2024 C 0.23521 0.3705 0.36385 0.0
C2025 C 0.21412 0.34515 0.37617 0.0
C2026 C 0.22161 0.35627 0.39489 0.0
C2027 C 0.17974 0.33329 0.37194 0.0
C2028 C 0.22324 0.32102 0.37226 0.0
C2029 C 0.24693 0.33178 0.36027 0.0
C2030 C 0.25733 0.31269 0.35351 0.0
C2031 C 0.24194 0.28136 0.35838 0.0
C2032 C 0.21614 0.26946 0.36964 0.0
C2033 C 0.20778 0.28991 0.3773 0.0
H2034 H 0.60613 0.83525 0.3259 0.0
H2035 H 0.57031 0.89781 0.33385 0.0
H2036 H 0.62389 0.94185 0.33672 0.0
H2037 H 0.66571 0.8698 0.35699 0.0
H2038 H 0.69342 0.86408 0.34499 0.0
H2039 H 0.65249 0.83788 0.34211 0.0
H2040 H 0.65808 0.84896 0.30936 0.0
H2041 H 0.69911 0.87492 0.31212 0.0
H2042 H 0.67565 0.88849 0.30185 0.0
H2043 H 0.68122 0.97848 0.34036 0.0
H2044 H 0.73841 0.00533 0.34336 0.0
H2045 H 0.7361 0.91836 0.3335 0.0
C2046 C 0.60962 0.85832 0.32789 0.0
C2047 C 0.58422 0.86328 0.32952 0.0
C2048 C 0.58958 0.89364 0.3325 0.0
C2049 C 0.61986 0.91875 0.33416 0.0
C2050 C 0.64443 0.91299 0.3329 0.0
C2051 C 0.63965 0.88355 0.32977 0.0
C2052 C 0.6699 0.88331 0.32983 0.0
C2053 C 0.67039 0.86254 0.34434 0.0
C2054 C 0.67604 0.87334 0.31224 0.0
C2055 C 0.69243 0.91723 0.33339 0.0
C2056 C 0.67733 0.93398 0.33517 0.0
C2057 C 0.69334 0.96566 0.33889 0.0
C2058 C 0.72572 0.98065 0.34064 0.0
C2059 C 0.74157 0.9639 0.33863 0.0
C2060 C 0.7246 0.93179 0.33504 0.0
H2061 H 0.08993 0.82884 0.39063 0.0
H2062 H -0.0017 0.75285 0.37809 0.0
H2063 H 0.01915 0.71706 0.37691 0.0
H2064 H 0.12985 0.8118 0.36274 0.0
H2065 H 0.16332 0.8217 0.37592 0.0
H2066 H 0.14051 0.83985 0.37981 0.0
H2067 H 0.1316 0.82109 0.41144 0.0
H2068 H 0.15517 0.8035 0.40783 0.0
H2069 H 0.11629 0.78049 0.41609 0.0
H2070 H 0.05189 0.69312 0.37056 0.0
H2071 H 0.09289 0.68063 0.3637 0.0
H2072 H 0.16291 0.77173 0.38157 0.0
C2073 C 0.07403 0.80437 0.3884 0.0
C2074 C 0.04256 0.79345 0.38454 0.0
C2075 C 0.02241 0.76149 0.38134 0.0
C2076 C 0.0341 0.74107 0.38056 0.0
C2077 C 0.06574 0.75297 0.38341 0.0
C2078 C 0.08527 0.78373 0.38777 0.0
C2079 C 0.11877 0.79147 0.38862 0.0
C2080 C 0.13929 0.81774 0.37602 0.0
C2081 C 0.13118 0.79961 0.4071 0.0
C2082 C 0.1153 0.76081 0.38305 0.0
C2083 C 0.08453 0.73881 0.38022 0.0
C2084 C 0.07594 0.70982 0.37323 0.0
C2085 C 0.09938 0.70306 0.36922 0.0
C2086 C 0.13093 0.72516 0.37227 0.0
C2087 C 0.13889 0.75423 0.37942 0.0
H2088 H 0.73616 0.91395 0.80324 0.0
H2089 H 0.74056 0.97274 0.84555 0.0
H2090 H 0.68642 0.95952 0.83954 0.0
H2091 H 0.68461 0.92772 0.77466 0.0
H2092 H 0.66406 0.8878 0.76772 0.0
H2093 H 0.70446 0.90583 0.77359 0.0
H2094 H 0.69145 0.86215 0.79583 0.0
H2095 H 0.65124 0.84392 0.78991 0.0
H2096 H 0.66248 0.85407 0.81204 0.0
H2097 H 0.6304 0.93567 0.83069 0.0
H2098 H 0.5763 0.89937 0.82202 0.0
H2099 H 0.60887 0.85549 0.78599 0.0
C2100 C 0.72598 0.92461 0.81101 0.0
C2101 C 0.74252 0.94456 0.82476 0.0
C2102 C 0.72823 0.95749 0.8349 0.0
C2103 C 0.69763 0.9503 0.83149 0.0
C2104 C 0.68182 0.93024 0.8179 0.0
C2105 C 0.69553 0.91747 0.80789 0.0
C2106 C 0.67267 0.89374 0.79542 0.0
C2107 C 0.68201 0.90443 0.77674 0.0
C2108 C 0.66926 0.86158 0.7985 0.0
C2109 C 0.64358 0.89423 0.80037 0.0
C2110 C 0.64943 0.91597 0.81306 0.0
C2111 C 0.62563 0.91892 0.82059 0.0
C2112 C 0.59498 0.89827 0.81553 0.0
C2113 C 0.58848 0.87473 0.80329 0.0
C2114 C 0.61321 0.87353 0.7952 0.0
H2115 H 0.13878 0.75587 0.79015 0.0
H2116 H 0.06517 0.66435 0.77523 0.0
H2117 H 0.02609 0.67931 0.78306 0.0
H2118 H 0.10244 0.76002 0.82724 0.0
H2119 H 0.11664 0.80115 0.82586 0.0
H2120 H 0.13868 0.78516 0.81655 0.0
H2121 H 0.13822 0.80861 0.78686 0.0
H2122 H 0.11693 0.82546 0.79618 0.0
H2123 H 0.10175 0.80063 0.77762 0.0
H2124 H -0.00468 0.70482 0.79356 0.0
H2125 H 0.97601 0.73802 0.8059 0.0
H2126 H 0.07063 0.80942 0.81693 0.0
C2127 C 0.11449 0.73926 0.78795 0.0
C2128 C 0.10494 0.70919 0.78173 0.0
C2129 C 0.0729 0.68772 0.77969 0.0
C2130 C 0.05061 0.69597 0.7842 0.0
C2131 C 0.06088 0.72552 0.79098 0.0
C2132 C 0.09213 0.74677 0.79282 0.0
C2133 C 0.09742 0.77596 0.80177 0.0
C2134 C 0.11482 0.78083 0.81887 0.0
C2135 C 0.11458 0.80434 0.7899 0.0
C2136 C 0.06426 0.76791 0.80475 0.0
C2137 C 0.04342 0.73896 0.79824 0.0
C2138 C 0.01145 0.72738 0.79884 0.0
C2139 C 0.00069 0.74623 0.80595 0.0
C2140 C 0.02184 0.77585 0.8127 0.0
C2141 C 0.05391 0.78647 0.81232 0.0
H2142 H 0.22332 0.38978 0.80067 0.0
H2143 H 0.31705 0.40729 0.79301 0.0
H2144 H 0.30144 0.35521 0.80487 0.0
H2145 H 0.21095 0.3518 0.84088 0.0
H2146 H 0.17057 0.32447 0.83687 0.0
H2147 H 0.18874 0.36218 0.82688 0.0
H2148 H 0.1726 0.33677 0.79673 0.0
H2149 H 0.15376 0.29903 0.80666 0.0
H2150 H 0.18289 0.30824 0.79039 0.0
H2151 H 0.27452 0.30038 0.8176 0.0
H2152 H 0.23844 0.24755 0.82873 0.0
H2153 H 0.16433 0.26937 0.82971 0.0
C2154 C 0.24049 0.38252 0.8012 0.0
C2155 C 0.27129 0.40236 0.79575 0.0
C2156 C 0.29321 0.39223 0.79696 0.0
C2157 C 0.28461 0.36282 0.80378 0.0
C2158 C 0.25415 0.34415 0.80948 0.0
C2159 C 0.23247 0.35366 0.80818 0.0
C2160 C 0.20144 0.3298 0.81546 0.0
C2161 C 0.19241 0.34286 0.83094 0.0
C2162 C 0.17619 0.31775 0.80147 0.0
C2163 C 0.20884 0.30514 0.82096 0.0
C2164 C 0.23929 0.31366 0.81742 0.0
C2165 C 0.25072 0.29362 0.82057 0.0
C2166 C 0.23016 0.26377 0.82699 0.0
C2167 C 0.19873 0.25454 0.83027 0.0
C2168 C 0.18836 0.2759 0.82764 0.0
H2169 H 0.80821 0.59558 0.67246 0.0
H2170 H 0.80919 0.58325 0.72763 0.0
H2171 H 0.81742 0.6362 0.73208 0.0
H2172 H 0.86781 0.6746 0.67132 0.0
H2173 H 0.84989 0.68468 0.65431 0.0
H2174 H 0.84319 0.64573 0.65586 0.0
H2175 H 0.78382 0.62458 0.65661 0.0
H2176 H 0.79038 0.66356 0.6553 0.0
H2177 H 0.76785 0.63858 0.67275 0.0
H2178 H 0.82681 0.69095 0.73016 0.0
H2179 H 0.84016 0.74428 0.72213 0.0
H2180 H 0.83203 0.71927 0.66818 0.0
C2181 C 0.81013 0.60395 0.6855 0.0
C2182 C 0.80808 0.58546 0.69973 0.0
C2183 C 0.81082 0.59723 0.71658 0.0
C2184 C 0.81527 0.6271 0.71921 0.0
C2185 C 0.81681 0.64459 0.70484 0.0
C2186 C 0.81451 0.63347 0.68833 0.0
C2187 C 0.81802 0.65706 0.67499 0.0
C2188 C 0.84642 0.66605 0.66345 0.0
C2189 C 0.78824 0.64523 0.66429 0.0
C2190 C 0.82305 0.6835 0.68656 0.0
C2191 C 0.82203 0.67584 0.70373 0.0
C2192 C 0.82744 0.69713 0.71677 0.0
C2193 C 0.83492 0.72729 0.71209 0.0
C2194 C 0.83697 0.73572 0.69454 0.0
C2195 C 0.83024 0.71333 0.68168 0.0
H2196 H 0.36889 0.20082 0.64125 0.0
H2197 H 0.3719 0.25356 0.68634 0.0
H2198 H 0.3206 0.21016 0.69544 0.0
H2199 H 0.28861 0.16851 0.63252 0.0
H2200 H 0.28367 0.13187 0.62533 0.0
H2201 H 0.32072 0.16673 0.62303 0.0
H2202 H 0.34669 0.14091 0.64 0.0
H2203 H 0.3096 0.1061 0.64257 0.0
H2204 H 0.33272 0.12562 0.66119 0.0
H2205 H 0.26884 0.16086 0.69917 0.0
H2206 H 0.21874 0.11214 0.69601 0.0
H2207 H 0.25081 0.09282 0.64822 0.0
C2208 C 0.35882 0.20332 0.65306 0.0
C2209 C 0.37423 0.23041 0.66315 0.0
C2210 C 0.36027 0.23294 0.67843 0.0
C2211 C 0.33135 0.20837 0.68373 0.0
C2212 C 0.317 0.18171 0.67355 0.0
C2213 C 0.33019 0.17925 0.65846 0.0
C2214 C 0.30974 0.14885 0.6494 0.0
C2215 C 0.30011 0.15433 0.63152 0.0
C2216 C 0.32564 0.12922 0.64823 0.0
C2217 C 0.2826 0.13459 0.66163 0.0
C2218 C 0.28733 0.15366 0.6756 0.0
C2219 C 0.26495 0.14571 0.68833 0.0
C2220 C 0.23665 0.11797 0.68644 0.0
C2221 C 0.23104 0.09879 0.67187 0.0
C2222 C 0.25459 0.10692 0.65955 0.0
H2223 H 0.78851 0.18752 0.64721 0.0
H2224 H 0.73575 0.15227 0.6944 0.0
H2225 H 0.7734 0.1368 0.70449 0.0
H2226 H 0.80904 0.12846 0.64213 0.0
H2227 H 0.84693 0.15528 0.63367 0.0
H2228 H 0.81526 0.16243 0.63048 0.0
H2229 H 0.84792 0.21679 0.64442 0.0
H2230 H 0.87948 0.20957 0.64796 0.0
H2231 H 0.86327 0.21987 0.66577 0.0
H2232 H 0.8182 0.12667 0.70933 0.0
H2233 H 0.86315 0.11835 0.70748 0.0
H2234 H 0.8855 0.16149 0.65707 0.0
C2235 C 0.78464 0.17631 0.65963 0.0
C2236 C 0.75933 0.17103 0.67007 0.0
C2237 C 0.755 0.15629 0.6862 0.0
C2238 C 0.77634 0.14768 0.69205 0.0
C2239 C 0.80159 0.15404 0.68155 0.0
C2240 C 0.80554 0.16774 0.66561 0.0
C2241 C 0.83426 0.17202 0.65662 0.0
C2242 C 0.82586 0.15343 0.63974 0.0
C2243 C 0.8576 0.20662 0.65352 0.0
C2244 C 0.84598 0.15846 0.66995 0.0
C2245 C 0.82706 0.14838 0.68432 0.0
C2246 C 0.83316 0.1345 0.69816 0.0
C2247 C 0.85879 0.13005 0.69703 0.0
C2248 C 0.87771 0.13936 0.68214 0.0
C2249 C 0.87152 0.15429 0.66865 0.0
H2250 H 0.07072 0.52423 0.48976 0.0
H2251 H 0.0981 0.60342 0.52331 0.0
H2252 H 0.04549 0.59639 0.52113 0.0
H2253 H 0.018 0.53565 0.46225 0.0
H2254 H 0.99006 0.49477 0.46091 0.0
H2255 H 0.03064 0.50753 0.46376 0.0
H2256 H 0.01795 0.47363 0.49119 0.0
H2257 H 0.97738 0.4604 0.48822 0.0
H2258 H -0.00399 0.47815 0.50825 0.0
H2259 H 0.99024 0.58078 0.51549 0.0
H2260 H 0.93346 0.55202 0.51106 0.0
H2261 H 0.94121 0.48105 0.48284 0.0
C2262 C 0.06558 0.54011 0.49657 0.0
C2263 C 0.08832 0.56444 0.50661 0.0
C2264 C 0.08083 0.58456 0.51558 0.0
C2265 C 0.05118 0.58098 0.51427 0.0
C2266 C 0.02932 0.55699 0.50408 0.0
C2267 C 0.03593 0.53651 0.49567 0.0
C2268 C 0.00745 0.51096 0.4869 0.0
C2269 C 0.01181 0.51233 0.46729 0.0
C2270 C -0.00079 0.4789 0.49407 0.0
C2271 C 0.98369 0.51995 0.49201 0.0
C2272 C -0.00303 0.54707 0.5015 0.0
C2273 C 0.97953 0.55958 0.50802 0.0
C2274 C 0.94739 0.54324 0.50535 0.0
C2275 C 0.93321 0.51447 0.49659 0.0
C2276 C 0.95166 0.50315 0.48947 0.0
H2277 H 0.44668 0.39053 0.46501 0.0
H2278 H 0.51601 0.43373 0.425 0.0
H2279 H 0.51172 0.48092 0.42699 0.0
H2280 H 0.40066 0.43129 0.45524 0.0
H2281 H 0.39524 0.43453 0.4779 0.0
H2282 H 0.39732 0.40164 0.46986 0.0
H2283 H 0.4417 0.41417 0.49142 0.0
H2284 H 0.44078 0.44778 0.49906 0.0
H2285 H 0.47641 0.45177 0.49076 0.0
H2286 H 0.50842 0.52628 0.43751 0.0
H2287 H 0.501 0.56514 0.4532 0.0
H2288 H 0.43545 0.49302 0.48735 0.0
C2289 C 0.45955 0.4092 0.45596 0.0
C2290 C 0.48134 0.40845 0.44467 0.0
C2291 C 0.49884 0.4338 0.43352 0.0
C2292 C 0.49669 0.46073 0.43466 0.0
C2293 C 0.47687 0.46174 0.44696 0.0
C2294 C 0.45806 0.43641 0.45717 0.0
C2295 C 0.44207 0.44481 0.47097 0.0
C2296 C 0.40672 0.42702 0.46833 0.0
C2297 C 0.45078 0.4393 0.48911 0.0
C2298 C 0.45576 0.47904 0.46734 0.0
C2299 C 0.47552 0.48828 0.45335 0.0
C2300 C 0.49246 0.51921 0.44823 0.0
C2301 C 0.48835 0.54114 0.45734 0.0
C2302 C 0.46763 0.53201 0.47146 0.0
C2303 C 0.45139 0.50061 0.47658 0.0
H2304 H 0.56085 0.04825 0.44857 0.0
H2305 H 0.64517 0.0626 0.47323 0.0
H2306 H 0.61685 0.00935 0.48479 0.0
H2307 H 0.51253 0.01169 0.48118 0.0
H2308 H 0.47962 0.98357 0.46898 0.0
H2309 H 0.5072 0.01985 0.45926 0.0
H2310 H 0.51707 0.99115 0.43446 0.0
H2311 H 0.4886 0.95463 0.44372 0.0
H2312 H 0.52728 0.96199 0.43939 0.0
H2313 H 0.57739 0.96023 0.49895 0.0
H2314 H 0.53105 0.91322 0.50995 0.0
H2315 H 0.47284 0.92976 0.47513 0.0
C2316 C 0.57367 0.03964 0.45571 0.0
C2317 C 0.60514 0.05944 0.46001 0.0
C2318 C 0.6211 0.04767 0.46964 0.0
C2319 C 0.60515 0.01753 0.47638 0.0
C2320 C 0.57353 -0.00062 0.47299 0.0
C2321 C 0.55815 0.00956 0.46239 0.0
C2322 C 0.52366 0.98655 0.46189 0.0
C2323 C 0.50466 0.00132 0.46821 0.0
C2324 C 0.51356 0.97275 0.44379 0.0
C2325 C 0.52188 0.96257 0.47447 0.0
C2326 C 0.55086 0.97042 0.48077 0.0
C2327 C 0.55468 0.95335 0.49376 0.0
C2328 C 0.52825 0.927 0.50009 0.0
C2329 C 0.49858 0.91797 0.49328 0.0
C2330 C 0.49539 0.93606 0.48038 0.0
H2331 H 0.54649 0.04645 0.04145 0.0
H2332 H 0.51946 0.07494 0.9949 0.0
H2333 H 0.50779 0.02573 0.98096 0.0
H2334 H 0.58343 0.00957 0.02137 0.0
H2335 H 0.56962 0.97803 0.03655 0.0
H2336 H 0.57506 0.01509 0.04321 0.0
H2337 H 0.51784 0.98889 0.05342 0.0
H2338 H 0.5124 0.95168 0.0471 0.0
H2339 H 0.48717 0.96476 0.0387 0.0
H2340 H 0.5016 0.97513 0.97169 0.0
H2341 H 0.49488 0.92284 0.96863 0.0
H2342 H 0.5249 0.9266 0.02142 0.0
C2343 C 0.53776 0.04214 0.02839 0.0
C2344 C 0.53389 0.0644 0.01921 0.0
C2345 C 0.52246 0.05806 0.00216 0.0
C2346 C 0.51597 0.03031 0.99411 0.0
C2347 C 0.52084 0.00919 0.00336 0.0
C2348 C 0.53096 0.01448 0.02021 0.0
C2349 C 0.53378 0.98771 0.02733 0.0
C2350 C 0.56748 -0.00176 0.03241 0.0
C2351 C 0.51146 0.97235 0.04253 0.0
C2352 C 0.52386 0.96664 0.01179 0.0
C2353 C 0.51676 0.97963 0.99808 0.0
C2354 C 0.50695 0.96461 0.98234 0.0
C2355 C 0.50336 0.93501 0.98071 0.0
C2356 C 0.5094 0.92077 0.9948 0.0
C2357 C 0.52033 0.93705 0.01042 0.0
H2358 H 0.93988 0.4638 0.0184 0.0
H2359 H 0.8941 0.48256 0.97651 0.0
H2360 H 0.93789 0.53635 0.97472 0.0
H2361 H 0.9763 0.54001 0.03849 0.0
H2362 H 0.01201 0.54048 0.04309 0.0
H2363 H 0.97595 0.50409 0.04225 0.0
H2364 H -0.00131 0.48338 0.0192 0.0
H2365 H 0.03497 0.51933 0.02036 0.0
H2366 H 0.01563 0.50582 0.99997 0.0
H2367 H 0.98617 0.58763 0.97733 0.0
H2368 H 0.04079 0.6293 0.97953 0.0
H2369 H 0.05673 0.57653 0.01855 0.0
C2370 C 0.9392 0.4793 0.00885 0.0
C2371 C 0.91373 0.46924 0.99762 0.0
C2372 C 0.91361 0.48988 0.98515 0.0
C2373 C 0.93811 0.52056 0.98421 0.0
C2374 C 0.96263 0.53004 0.9957 0.0
C2375 C 0.96379 0.50984 0.00749 0.0
C2376 C -0.00568 0.52497 0.01708 0.0
C2377 C 0.98933 0.52754 0.03638 0.0
C2378 C 0.01194 0.50734 0.01395 0.0
C2379 C 0.01034 0.55662 0.0086 0.0
C2380 C 0.99127 0.55935 0.99669 0.0
C2381 C 0.00134 0.58588 0.98666 0.0
C2382 C 0.03233 0.60955 0.98811 0.0
C2383 C 0.0529 0.60607 0.99921 0.0
C2384 C 0.04138 0.57991 0.01011 0.0
H2385 H 0.38719 0.47401 0.00325 0.0
H2386 H 0.40558 0.49292 0.94879 0.0
H2387 H 0.44502 0.47689 0.95021 0.0
H2388 H 0.46187 0.50618 0.01555 0.0
H2389 H 0.45663 0.47869 0.03215 0.0
H2390 H 0.42508 0.48473 0.02644 0.0
H2391 H 0.38982 0.42608 0.02005 0.0
H2392 H 0.42106 0.41962 0.02616 0.0
H2393 H 0.40302 0.40708 0.00538 0.0
H2394 H 0.48844 0.46848 0.95848 0.0
H2395 H 0.5297 0.46274 0.97267 0.0
H2396 H 0.48307 0.44941 0.02171 0.0
C2397 C 0.39857 0.47345 0.9915 0.0
C2398 C 0.39334 0.48448 0.97591 0.0
C2399 C 0.40924 0.48435 0.96085 0.0
C2400 C 0.43166 0.47531 0.96152 0.0
C2401 C 0.4376 0.46623 0.97732 0.0
C2402 C 0.42113 0.46465 0.99199 0.0
C2403 C 0.43426 0.45736 0.00767 0.0
C2404 C 0.4451 0.48329 0.02124 0.0
C2405 C 0.41063 0.42564 0.01526 0.0
C2406 C 0.46142 0.45646 0.99964 0.0
C2407 C 0.4628 0.46133 0.98211 0.0
C2408 C 0.48725 0.46392 0.97214 0.0
C2409 C 0.51069 0.46095 0.98031 0.0
C2410 C 0.5094 0.45555 0.99823 0.0
C2411 C 0.48443 0.45324 0.00795 0.0
loop_
_geom_bond_atom_site_label_1
_geom_bond_atom_site_label_2
_geom_bond_distance
_geom_bond_site_symmetry_2
_ccdc_geom_bond_type
In0 O1 2.294 . S
In0 O2 2.326 . S
In0 O6 2.266 . S
In0 O7 2.326 . S
In0 O8 2.266 . S
In0 O9 2.326 . S
In0 O11 2.294 . S
In0 O12 2.326 . S
O1 In0 2.294 . S
O1 C10 1.240 . S
O2 In0 2.326 . S
O2 C10 1.252 . S
C3 O6 1.252 . S
C3 O7 1.260 . S
C4 O11 1.240 . S
C4 O12 1.252 . S
C5 O8 1.252 . S
C5 O9 1.260 . S
O6 In0 2.266 . S
O6 C3 1.252 . S
O7 In0 2.326 . S
O7 C3 1.260 . S
O8 In0 2.266 . S
O8 C5 1.252 . S
O9 In0 2.326 . S
O9 C5 1.260 . S
C10 O1 1.240 . S
C10 O2 1.252 . S
O11 In0 2.294 . S
O11 C4 1.240 . S
O12 In0 2.326 . S
O12 C4 1.252 . S
In13 O14 2.294 . S
In13 O15 2.326 . S
In13 O19 2.266 1_545 S
In13 O20 2.326 1_545 S
In13 O21 2.266 . S
In13 O22 2.326 . S
In13 O24 2.294 . S
In13 O25 2.326 . S
O14 In13 2.294 . S
O14 C23 1.240 . S
O15 In13 2.326 . S
O15 C23 1.252 . S
C16 O19 1.252 . S
C16 O20 1.260 . S
C17 O24 1.240 . S
C17 O25 1.252 . S
C18 O21 1.252 . S
C18 O22 1.260 . S
O19 In13 2.266 1_565 S
O19 C16 1.252 . S
O20 In13 2.326 1_565 S
O20 C16 1.260 . S
O21 In13 2.266 . S
O21 C18 1.252 . S
O22 In13 2.326 . S
O22 C18 1.260 . S
C23 O14 1.240 . S
C23 O15 1.252 . S
O24 In13 2.294 . S
O24 C17 1.240 . S
O25 In13 2.326 . S
O25 C17 1.252 . S
In26 O27 2.294 . S
In26 O28 2.326 . S
In26 O32 2.266 . S
In26 O33 2.326 . S
In26 O34 2.266 1_655 S
In26 O35 2.326 1_655 S
In26 O37 2.294 . S
In26 O38 2.326 . S
O27 In26 2.294 . S
O27 C36 1.240 . S
O28 In26 2.326 . S
O28 C36 1.252 . S
C29 O32 1.252 . S
C29 O33 1.260 . S
C30 O37 1.240 . S
C30 O38 1.252 . S
C31 O34 1.252 . S
C31 O35 1.260 . S
O32 In26 2.266 . S
O32 C29 1.252 . S
O33 In26 2.326 . S
O33 C29 1.260 . S
O34 In26 2.266 1_455 S
O34 C31 1.252 . S
O35 In26 2.326 1_455 S
O35 C31 1.260 . S
C36 O27 1.240 . S
C36 O28 1.252 . S
O37 In26 2.294 . S
O37 C30 1.240 . S
O38 In26 2.326 . S
O38 C30 1.252 . S
In39 O40 2.294 . S
In39 O41 2.326 . S
In39 O45 2.266 . S
In39 O46 2.326 . S
In39 O47 2.266 . S
In39 O48 2.326 . S
In39 O50 2.294 . S
In39 O51 2.326 . S
O40 In39 2.294 . S
O40 C49 1.240 . S
O41 In39 2.326 . S
O41 C49 1.252 . S
C42 O45 1.252 . S
C42 O46 1.260 . S
C43 O50 1.240 . S
C43 O51 1.252 . S
C44 O47 1.252 . S
C44 O48 1.260 . S
O45 In39 2.266 . S
O45 C42 1.252 . S
O46 In39 2.326 . S
O46 C42 1.260 . S
O47 In39 2.266 . S
O47 C44 1.252 . S
O48 In39 2.326 . S
O48 C44 1.260 . S
C49 O40 1.240 . S
C49 O41 1.252 . S
O50 In39 2.294 . S
O50 C43 1.240 . S
O51 In39 2.326 . S
O51 C43 1.252 . S
In52 O53 2.294 . S
In52 O54 2.326 . S
In52 O58 2.266 . S
In52 O59 2.326 . S
In52 O60 2.266 1_565 S
In52 O61 2.326 1_565 S
In52 O63 2.294 . S
In52 O64 2.326 . S
O53 In52 2.294 . S
O53 C62 1.240 . S
O54 In52 2.326 . S
O54 C62 1.252 . S
C55 O58 1.252 . S
C55 O59 1.260 . S
C56 O63 1.240 . S
C56 O64 1.252 . S
C57 O60 1.252 . S
C57 O61 1.260 . S
O58 In52 2.266 . S
O58 C55 1.252 . S
O59 In52 2.326 . S
O59 C55 1.260 . S
O60 In52 2.266 1_545 S
O60 C57 1.252 . S
O61 In52 2.326 1_545 S
O61 C57 1.260 . S
C62 O53 1.240 . S
C62 O54 1.252 . S
O63 In52 2.294 . S
O63 C56 1.240 . S
O64 In52 2.326 . S
O64 C56 1.252 . S
In65 O66 2.294 . S
In65 O67 2.326 . S
In65 O71 2.266 . S
In65 O72 2.326 . S
In65 O73 2.266 1_455 S
In65 O74 2.326 1_455 S
In65 O76 2.294 . S
In65 O77 2.326 . S
O66 In65 2.294 . S
O66 C75 1.240 . S
O67 In65 2.326 . S
O67 C75 1.252 . S
C68 O71 1.252 . S
C68 O72 1.260 . S
C69 O76 1.240 . S
C69 O77 1.252 . S
C70 O73 1.252 . S
C70 O74 1.260 . S
O71 In65 2.266 . S
O71 C68 1.252 . S
O72 In65 2.326 . S
O72 C68 1.260 . S
O73 In65 2.266 1_655 S
O73 C70 1.252 . S
O74 In65 2.326 1_655 S
O74 C70 1.260 . S
C75 O66 1.240 . S
C75 O67 1.252 . S
O76 In65 2.294 . S
O76 C69 1.240 . S
O77 In65 2.326 . S
O77 C69 1.252 . S
In78 O79 2.294 . S
In78 O80 2.326 . S
In78 O84 2.266 . S
In78 O85 2.326 . S
In78 O86 2.266 . S
In78 O87 2.326 . S
In78 O89 2.294 . S
In78 O90 2.326 . S
O79 In78 2.294 . S
O79 C88 1.240 . S
O80 In78 2.326 . S
O80 C88 1.252 . S
C81 O84 1.252 . S
C81 O85 1.260 . S
C82 O89 1.240 . S
C82 O90 1.252 . S
C83 O86 1.252 . S
C83 O87 1.260 . S
O84 In78 2.266 . S
O84 C81 1.252 . S
O85 In78 2.326 . S
O85 C81 1.260 . S
O86 In78 2.266 . S
O86 C83 1.252 . S
O87 In78 2.326 . S
O87 C83 1.260 . S
C88 O79 1.240 . S
C88 O80 1.252 . S
O89 In78 2.294 . S
O89 C82 1.240 . S
O90 In78 2.326 . S
O90 C82 1.252 . S
In91 O92 2.294 . S
In91 O93 2.326 . S
In91 O97 2.266 . S
In91 O98 2.326 . S
In91 O99 2.266 1_565 S
In91 O100 2.326 1_565 S
In91 O102 2.294 . S
In91 O103 2.326 . S
O92 In91 2.294 . S
O92 C101 1.240 . S
O93 In91 2.326 . S
O93 C101 1.252 . S
C94 O97 1.252 . S
C94 O98 1.260 . S
C95 O102 1.240 . S
C95 O103 1.252 . S
C96 O99 1.252 . S
C96 O100 1.260 . S
O97 In91 2.266 . S
O97 C94 1.252 . S
O98 In91 2.326 . S
O98 C94 1.260 . S
O99 In91 2.266 1_545 S
O99 C96 1.252 . S
O100 In91 2.326 1_545 S
O100 C96 1.260 . S
C101 O92 1.240 . S
C101 O93 1.252 . S
O102 In91 2.294 . S
O102 C95 1.240 . S
O103 In91 2.326 . S
O103 C95 1.252 . S
In104 O105 2.294 . S
In104 O106 2.326 . S
In104 O110 2.266 . S
In104 O111 2.326 . S
In104 O112 2.266 1_455 S
In104 O113 2.326 1_455 S
In104 O115 2.294 . S
In104 O116 2.326 . S
O105 In104 2.294 . S
O105 C114 1.240 . S
O106 In104 2.326 . S
O106 C114 1.252 . S
C107 O110 1.252 . S
C107 O111 1.260 . S
C108 O115 1.240 . S
C108 O116 1.252 . S
C109 O112 1.252 . S
C109 O113 1.260 . S
O110 In104 2.266 . S
O110 C107 1.252 . S
O111 In104 2.326 . S
O111 C107 1.260 . S
O112 In104 2.266 1_655 S
O112 C109 1.252 . S
O113 In104 2.326 1_655 S
O113 C109 1.260 . S
C114 O105 1.240 . S
C114 O106 1.252 . S
O115 In104 2.294 . S
O115 C108 1.240 . S
O116 In104 2.326 . S
O116 C108 1.252 . S
In117 O118 2.294 . S
In117 O119 2.326 . S
In117 O123 2.266 . S
In117 O124 2.326 . S
In117 O125 2.266 . S
In117 O126 2.326 . S
In117 O128 2.294 . S
In117 O129 2.326 . S
O118 In117 2.294 . S
O118 C127 1.240 . S
O119 In117 2.326 . S
O119 C127 1.252 . S
C120 O123 1.252 . S
C120 O124 1.260 . S
C121 O128 1.240 . S
C121 O129 1.252 . S
C122 O125 1.252 . S
C122 O126 1.260 . S
O123 In117 2.266 . S
O123 C120 1.252 . S
O124 In117 2.326 . S
O124 C120 1.260 . S
O125 In117 2.266 . S
O125 C122 1.252 . S
O126 In117 2.326 . S
O126 C122 1.260 . S
C127 O118 1.240 . S
C127 O119 1.252 . S
O128 In117 2.294 . S
O128 C121 1.240 . S
O129 In117 2.326 . S
O129 C121 1.252 . S
In130 O131 2.294 . S
In130 O132 2.326 . S
In130 O136 2.266 . S
In130 O137 2.326 . S
In130 O138 2.266 1_545 S
In130 O139 2.326 1_545 S
In130 O141 2.294 . S
In130 O142 2.326 . S
O131 In130 2.294 . S
O131 C140 1.240 . S
O132 In130 2.326 . S
O132 C140 1.252 . S
C133 O136 1.252 . S
C133 O137 1.260 . S
C134 O141 1.240 . S
C134 O142 1.252 . S
C135 O138 1.252 . S
C135 O139 1.260 . S
O136 In130 2.266 . S
O136 C133 1.252 . S
O137 In130 2.326 . S
O137 C133 1.260 . S
O138 In130 2.266 1_565 S
O138 C135 1.252 . S
O139 In130 2.326 1_565 S
O139 C135 1.260 . S
C140 O131 1.240 . S
C140 O132 1.252 . S
O141 In130 2.294 . S
O141 C134 1.240 . S
O142 In130 2.326 . S
O142 C134 1.252 . S
In143 O144 2.294 . S
In143 O145 2.326 . S
In143 O149 2.266 . S
In143 O150 2.326 . S
In143 O151 2.266 1_655 S
In143 O152 2.326 1_655 S
In143 O154 2.294 . S
In143 O155 2.326 . S
O144 In143 2.294 . S
O144 C153 1.240 . S
O145 In143 2.326 . S
O145 C153 1.252 . S
C146 O149 1.252 . S
C146 O150 1.260 . S
C147 O154 1.240 . S
C147 O155 1.252 . S
C148 O151 1.252 . S
C148 O152 1.260 . S
O149 In143 2.266 . S
O149 C146 1.252 . S
O150 In143 2.326 . S
O150 C146 1.260 . S
O151 In143 2.266 1_455 S
O151 C148 1.252 . S
O152 In143 2.326 1_455 S
O152 C148 1.260 . S
C153 O144 1.240 . S
C153 O145 1.252 . S
O154 In143 2.294 . S
O154 C147 1.240 . S
O155 In143 2.326 . S
O155 C147 1.252 . S
In156 O157 2.294 . S
In156 O158 2.326 . S
In156 O162 2.266 . S
In156 O163 2.326 . S
In156 O164 2.266 . S
In156 O165 2.326 . S
In156 O167 2.294 . S
In156 O168 2.326 . S
O157 In156 2.294 . S
O157 C166 1.240 . S
O158 In156 2.326 . S
O158 C166 1.252 . S
C159 O162 1.252 . S
C159 O163 1.260 . S
C160 O167 1.240 . S
C160 O168 1.252 . S
C161 O164 1.252 . S
C161 O165 1.260 . S
O162 In156 2.266 . S
O162 C159 1.252 . S
O163 In156 2.326 . S
O163 C159 1.260 . S
O164 In156 2.266 . S
O164 C161 1.252 . S
O165 In156 2.326 . S
O165 C161 1.260 . S
C166 O157 1.240 . S
C166 O158 1.252 . S
O167 In156 2.294 . S
O167 C160 1.240 . S
O168 In156 2.326 . S
O168 C160 1.252 . S
In169 O170 2.294 . S
In169 O171 2.326 . S
In169 O175 2.266 . S
In169 O176 2.326 . S
In169 O177 2.266 . S
In169 O178 2.326 . S
In169 O180 2.294 . S
In169 O181 2.326 . S
O170 In169 2.294 . S
O170 C179 1.240 . S
O171 In169 2.326 . S
O171 C179 1.252 . S
C172 O175 1.252 . S
C172 O176 1.260 . S
C173 O180 1.240 . S
C173 O181 1.252 . S
C174 O177 1.252 . S
C174 O178 1.260 . S
O175 In169 2.266 . S
O175 C172 1.252 . S
O176 In169 2.326 . S
O176 C172 1.260 . S
O177 In169 2.266 . S
O177 C174 1.252 . S
O178 In169 2.326 . S
O178 C174 1.260 . S
C179 O170 1.240 . S
C179 O171 1.252 . S
O180 In169 2.294 . S
O180 C173 1.240 . S
O181 In169 2.326 . S
O181 C173 1.252 . S
In182 O183 2.294 . S
In182 O184 2.326 . S
In182 O188 2.266 . S
In182 O189 2.326 . S
In182 O190 2.266 . S
In182 O191 2.326 . S
In182 O193 2.294 . S
In182 O194 2.326 . S
O183 In182 2.294 . S
O183 C192 1.240 . S
O184 In182 2.326 . S
O184 C192 1.252 . S
C185 O188 1.252 . S
C185 O189 1.260 . S
C186 O193 1.240 . S
C186 O194 1.252 . S
C187 O190 1.252 . S
C187 O191 1.260 . S
O188 In182 2.266 . S
O188 C185 1.252 . S
O189 In182 2.326 . S
O189 C185 1.260 . S
O190 In182 2.266 . S
O190 C187 1.252 . S
O191 In182 2.326 . S
O191 C187 1.260 . S
C192 O183 1.240 . S
C192 O184 1.252 . S
O193 In182 2.294 . S
O193 C186 1.240 . S
O194 In182 2.326 . S
O194 C186 1.252 . S
In195 O196 2.294 . S
In195 O197 2.326 . S
In195 O201 2.266 . S
In195 O202 2.326 . S
In195 O203 2.266 . S
In195 O204 2.326 . S
In195 O206 2.294 . S
In195 O207 2.326 . S
O196 In195 2.294 . S
O196 C205 1.240 . S
O197 In195 2.326 . S
O197 C205 1.252 . S
C198 O201 1.252 . S
C198 O202 1.260 . S
C199 O206 1.240 . S
C199 O207 1.252 . S
C200 O203 1.252 . S
C200 O204 1.260 . S
O201 In195 2.266 . S
O201 C198 1.252 . S
O202 In195 2.326 . S
O202 C198 1.260 . S
O203 In195 2.266 . S
O203 C200 1.252 . S
O204 In195 2.326 . S
O204 C200 1.260 . S
C205 O196 1.240 . S
C205 O197 1.252 . S
O206 In195 2.294 . S
O206 C199 1.240 . S
O207 In195 2.326 . S
O207 C199 1.252 . S
In208 O209 2.294 . S
In208 O210 2.326 . S
In208 O214 2.266 . S
In208 O215 2.326 . S
In208 O216 2.266 . S
In208 O217 2.326 . S
In208 O219 2.294 . S
In208 O220 2.326 . S
O209 In208 2.294 . S
O209 C218 1.240 . S
O210 In208 2.326 . S
O210 C218 1.252 . S
C211 O214 1.252 . S
C211 O215 1.260 . S
C212 O219 1.240 . S
C212 O220 1.252 . S
C213 O216 1.252 . S
C213 O217 1.260 . S
O214 In208 2.266 . S
O214 C211 1.252 . S
O215 In208 2.326 . S
O215 C211 1.260 . S
O216 In208 2.266 . S
O216 C213 1.252 . S
O217 In208 2.326 . S
O217 C213 1.260 . S
C218 O209 1.240 . S
C218 O210 1.252 . S
O219 In208 2.294 . S
O219 C212 1.240 . S
O220 In208 2.326 . S
O220 C212 1.252 . S
In221 O222 2.294 . S
In221 O223 2.326 . S
In221 O227 2.266 . S
In221 O228 2.326 . S
In221 O229 2.266 . S
In221 O230 2.326 . S
In221 O232 2.294 . S
In221 O233 2.326 . S
O222 In221 2.294 . S
O222 C231 1.240 . S
O223 In221 2.326 . S
O223 C231 1.252 . S
C224 O227 1.252 . S
C224 O228 1.260 . S
C225 O232 1.240 . S
C225 O233 1.252 . S
C226 O229 1.252 . S
C226 O230 1.260 . S
O227 In221 2.266 . S
O227 C224 1.252 . S
O228 In221 2.326 . S
O228 C224 1.260 . S
O229 In221 2.266 . S
O229 C226 1.252 . S
O230 In221 2.326 . S
O230 C226 1.260 . S
C231 O222 1.240 . S
C231 O223 1.252 . S
O232 In221 2.294 . S
O232 C225 1.240 . S
O233 In221 2.326 . S
O233 C225 1.252 . S
In234 O235 2.294 . S
In234 O236 2.326 . S
In234 O240 2.266 . S
In234 O241 2.326 . S
In234 O242 2.266 . S
In234 O243 2.326 . S
In234 O245 2.294 . S
In234 O246 2.326 . S
O235 In234 2.294 . S
O235 C244 1.240 . S
O236 In234 2.326 . S
O236 C244 1.252 . S
C237 O240 1.252 . S
C237 O241 1.260 . S
C238 O245 1.240 . S
C238 O246 1.252 . S
C239 O242 1.252 . S
C239 O243 1.260 . S
O240 In234 2.266 . S
O240 C237 1.252 . S
O241 In234 2.326 . S
O241 C237 1.260 . S
O242 In234 2.266 . S
O242 C239 1.252 . S
O243 In234 2.326 . S
O243 C239 1.260 . S
C244 O235 1.240 . S
C244 O236 1.252 . S
O245 In234 2.294 . S
O245 C238 1.240 . S
O246 In234 2.326 . S
O246 C238 1.252 . S
In247 O248 2.294 . S
In247 O249 2.326 . S
In247 O253 2.266 . S
In247 O254 2.326 . S
In247 O255 2.266 . S
In247 O256 2.326 . S
In247 O258 2.294 . S
In247 O259 2.326 . S
O248 In247 2.294 . S
O248 C257 1.240 . S
O249 In247 2.326 . S
O249 C257 1.252 . S
C250 O253 1.252 . S
C250 O254 1.260 . S
C251 O258 1.240 . S
C251 O259 1.252 . S
C252 O255 1.252 . S
C252 O256 1.260 . S
O253 In247 2.266 . S
O253 C250 1.252 . S
O254 In247 2.326 . S
O254 C250 1.260 . S
O255 In247 2.266 . S
O255 C252 1.252 . S
O256 In247 2.326 . S
O256 C252 1.260 . S
C257 O248 1.240 . S
C257 O249 1.252 . S
O258 In247 2.294 . S
O258 C251 1.240 . S
O259 In247 2.326 . S
O259 C251 1.252 . S
In260 O261 2.294 . S
In260 O262 2.326 . S
In260 O266 2.266 . S
In260 O267 2.326 . S
In260 O268 2.266 . S
In260 O269 2.326 . S
In260 O271 2.294 . S
In260 O272 2.326 . S
O261 In260 2.294 . S
O261 C270 1.240 . S
O262 In260 2.326 . S
O262 C270 1.252 . S
C263 O266 1.252 . S
C263 O267 1.260 . S
C264 O271 1.240 . S
C264 O272 1.252 . S
C265 O268 1.252 . S
C265 O269 1.260 . S
O266 In260 2.266 . S
O266 C263 1.252 . S
O267 In260 2.326 . S
O267 C263 1.260 . S
O268 In260 2.266 . S
O268 C265 1.252 . S
O269 In260 2.326 . S
O269 C265 1.260 . S
C270 O261 1.240 . S
C270 O262 1.252 . S
O271 In260 2.294 . S
O271 C264 1.240 . S
O272 In260 2.326 . S
O272 C264 1.252 . S
In273 O274 2.293 1_554 S
In273 O275 2.327 . S
In273 O279 2.265 1_554 S
In273 O280 2.326 . S
In273 O281 2.267 . S
In273 O282 2.324 1_554 S
In273 O284 2.296 . S
In273 O285 2.328 . S
O274 In273 2.293 1_556 S
O274 C283 1.240 . S
O275 In273 2.327 . S
O275 C283 1.252 1_554 S
C276 O279 1.252 . S
C276 O280 1.260 1_556 S
C277 O284 1.240 . S
C277 O285 1.252 . S
C278 O281 1.252 1_556 S
C278 O282 1.260 . S
O279 In273 2.265 1_556 S
O279 C276 1.252 . S
O280 In273 2.326 . S
O280 C276 1.260 1_554 S
O281 In273 2.267 . S
O281 C278 1.252 1_554 S
O282 In273 2.324 1_556 S
O282 C278 1.260 . S
C283 O274 1.240 . S
C283 O275 1.252 1_556 S
O284 In273 2.296 . S
O284 C277 1.240 . S
O285 In273 2.328 . S
O285 C277 1.252 . S
In286 O287 2.293 1_554 S
In286 O288 2.327 . S
In286 O292 2.265 1_554 S
In286 O293 2.326 . S
In286 O294 2.267 . S
In286 O295 2.324 1_554 S
In286 O297 2.296 . S
In286 O298 2.328 . S
O287 In286 2.293 1_556 S
O287 C296 1.240 . S
O288 In286 2.327 . S
O288 C296 1.252 1_554 S
C289 O292 1.252 . S
C289 O293 1.260 1_556 S
C290 O297 1.240 . S
C290 O298 1.252 . S
C291 O294 1.252 1_556 S
C291 O295 1.260 . S
O292 In286 2.265 1_556 S
O292 C289 1.252 . S
O293 In286 2.326 . S
O293 C289 1.260 1_554 S
O294 In286 2.267 . S
O294 C291 1.252 1_554 S
O295 In286 2.324 1_556 S
O295 C291 1.260 . S
C296 O287 1.240 . S
C296 O288 1.252 1_556 S
O297 In286 2.296 . S
O297 C290 1.240 . S
O298 In286 2.328 . S
O298 C290 1.252 . S
In299 O300 2.296 . S
In299 O301 2.328 . S
In299 O305 2.267 . S
In299 O306 2.324 1_554 S
In299 O307 2.265 1_554 S
In299 O308 2.326 . S
In299 O310 2.293 1_554 S
In299 O311 2.327 . S
O300 In299 2.296 . S
O300 C309 1.240 . S
O301 In299 2.328 . S
O301 C309 1.252 . S
C302 O305 1.252 1_556 S
C302 O306 1.260 . S
C303 O310 1.240 . S
C303 O311 1.252 1_556 S
C304 O307 1.252 . S
C304 O308 1.260 1_556 S
O305 In299 2.267 . S
O305 C302 1.252 1_554 S
O306 In299 2.324 1_556 S
O306 C302 1.260 . S
O307 In299 2.265 1_556 S
O307 C304 1.252 . S
O308 In299 2.326 . S
O308 C304 1.260 1_554 S
C309 O300 1.240 . S
C309 O301 1.252 . S
O310 In299 2.293 1_556 S
O310 C303 1.240 . S
O311 In299 2.327 . S
O311 C303 1.252 1_554 S
In312 O313 2.294 . S
In312 O314 2.326 . S
In312 O318 2.266 . S
In312 O319 2.326 . S
In312 O320 2.266 . S
In312 O321 2.326 . S
In312 O323 2.294 . S
In312 O324 2.326 . S
O313 In312 2.294 . S
O313 C322 1.240 . S
O314 In312 2.326 . S
O314 C322 1.252 . S
C315 O318 1.252 . S
C315 O319 1.260 . S
C316 O323 1.240 . S
C316 O324 1.252 . S
C317 O320 1.252 . S
C317 O321 1.260 . S
O318 In312 2.266 . S
O318 C315 1.252 . S
O319 In312 2.326 . S
O319 C315 1.260 . S
O320 In312 2.266 . S
O320 C317 1.252 . S
O321 In312 2.326 . S
O321 C317 1.260 . S
C322 O313 1.240 . S
C322 O314 1.252 . S
O323 In312 2.294 . S
O323 C316 1.240 . S
O324 In312 2.326 . S
O324 C316 1.252 . S
In325 O326 2.294 . S
In325 O327 2.326 . S
In325 O331 2.266 . S
In325 O332 2.326 . S
In325 O333 2.266 . S
In325 O334 2.326 . S
In325 O336 2.294 . S
In325 O337 2.326 . S
O326 In325 2.294 . S
O326 C335 1.240 . S
O327 In325 2.326 . S
O327 C335 1.252 . S
C328 O331 1.252 . S
C328 O332 1.260 . S
C329 O336 1.240 . S
C329 O337 1.252 . S
C330 O333 1.252 . S
C330 O334 1.260 . S
O331 In325 2.266 . S
O331 C328 1.252 . S
O332 In325 2.326 . S
O332 C328 1.260 . S
O333 In325 2.266 . S
O333 C330 1.252 . S
O334 In325 2.326 . S
O334 C330 1.260 . S
C335 O326 1.240 . S
C335 O327 1.252 . S
O336 In325 2.294 . S
O336 C329 1.240 . S
O337 In325 2.326 . S
O337 C329 1.252 . S
In338 O339 2.294 . S
In338 O340 2.326 . S
In338 O344 2.266 . S
In338 O345 2.326 . S
In338 O346 2.266 . S
In338 O347 2.326 . S
In338 O349 2.294 . S
In338 O350 2.326 . S
O339 In338 2.294 . S
O339 C348 1.240 . S
O340 In338 2.326 . S
O340 C348 1.252 . S
C341 O344 1.252 . S
C341 O345 1.260 . S
C342 O349 1.240 . S
C342 O350 1.252 . S
C343 O346 1.252 . S
C343 O347 1.260 . S
O344 In338 2.266 . S
O344 C341 1.252 . S
O345 In338 2.326 . S
O345 C341 1.260 . S
O346 In338 2.266 . S
O346 C343 1.252 . S
O347 In338 2.326 . S
O347 C343 1.260 . S
C348 O339 1.240 . S
C348 O340 1.252 . S
O349 In338 2.294 . S
O349 C342 1.240 . S
O350 In338 2.326 . S
O350 C342 1.252 . S
In351 O352 2.293 1_556 S
In351 O353 2.327 . S
In351 O357 2.265 1_556 S
In351 O358 2.326 . S
In351 O359 2.267 . S
In351 O360 2.324 1_556 S
In351 O362 2.296 . S
In351 O363 2.328 . S
O352 In351 2.293 1_554 S
O352 C361 1.240 . S
O353 In351 2.327 . S
O353 C361 1.252 1_556 S
C354 O357 1.252 . S
C354 O358 1.260 1_554 S
C355 O362 1.240 . S
C355 O363 1.252 . S
C356 O359 1.252 1_554 S
C356 O360 1.260 . S
O357 In351 2.265 1_554 S
O357 C354 1.252 . S
O358 In351 2.326 . S
O358 C354 1.260 1_556 S
O359 In351 2.267 . S
O359 C356 1.252 1_556 S
O360 In351 2.324 1_554 S
O360 C356 1.260 . S
C361 O352 1.240 . S
C361 O353 1.252 1_554 S
O362 In351 2.296 . S
O362 C355 1.240 . S
O363 In351 2.328 . S
O363 C355 1.252 . S
In364 O365 2.293 1_556 S
In364 O366 2.327 . S
In364 O370 2.265 1_556 S
In364 O371 2.326 . S
In364 O372 2.267 . S
In364 O373 2.324 1_556 S
In364 O375 2.296 . S
In364 O376 2.328 . S
O365 In364 2.293 1_554 S
O365 C374 1.240 . S
O366 In364 2.327 . S
O366 C374 1.252 1_556 S
C367 O370 1.252 . S
C367 O371 1.260 1_554 S
C368 O375 1.240 . S
C368 O376 1.252 . S
C369 O372 1.252 1_554 S
C369 O373 1.260 . S
O370 In364 2.265 1_554 S
O370 C367 1.252 . S
O371 In364 2.326 . S
O371 C367 1.260 1_556 S
O372 In364 2.267 . S
O372 C369 1.252 1_556 S
O373 In364 2.324 1_554 S
O373 C369 1.260 . S
C374 O365 1.240 . S
C374 O366 1.252 1_554 S
O375 In364 2.296 . S
O375 C368 1.240 . S
O376 In364 2.328 . S
O376 C368 1.252 . S
In377 O378 2.293 1_556 S
In377 O379 2.327 . S
In377 O383 2.265 1_556 S
In377 O384 2.326 . S
In377 O385 2.267 . S
In377 O386 2.324 1_556 S
In377 O388 2.296 . S
In377 O389 2.328 . S
O378 In377 2.293 1_554 S
O378 C387 1.240 . S
O379 In377 2.327 . S
O379 C387 1.252 1_556 S
C380 O383 1.252 . S
C380 O384 1.260 1_554 S
C381 O388 1.240 . S
C381 O389 1.252 . S
C382 O385 1.252 1_554 S
C382 O386 1.260 . S
O383 In377 2.265 1_554 S
O383 C380 1.252 . S
O384 In377 2.326 . S
O384 C380 1.260 1_556 S
O385 In377 2.267 . S
O385 C382 1.252 1_556 S
O386 In377 2.324 1_554 S
O386 C382 1.260 . S
C387 O378 1.240 . S
C387 O379 1.252 1_554 S
O388 In377 2.296 . S
O388 C381 1.240 . S
O389 In377 2.328 . S
O389 C381 1.252 . S
In390 O391 2.294 . S
In390 O392 2.326 . S
In390 O396 2.266 . S
In390 O397 2.326 . S
In390 O398 2.266 . S
In390 O399 2.326 . S
In390 O401 2.294 . S
In390 O402 2.326 . S
O391 In390 2.294 . S
O391 C400 1.240 . S
O392 In390 2.326 . S
O392 C400 1.252 . S
C393 O396 1.252 . S
C393 O397 1.260 . S
C394 O401 1.240 . S
C394 O402 1.252 . S
C395 O398 1.252 . S
C395 O399 1.260 . S
O396 In390 2.266 . S
O396 C393 1.252 . S
O397 In390 2.326 . S
O397 C393 1.260 . S
O398 In390 2.266 . S
O398 C395 1.252 . S
O399 In390 2.326 . S
O399 C395 1.260 . S
C400 O391 1.240 . S
C400 O392 1.252 . S
O401 In390 2.294 . S
O401 C394 1.240 . S
O402 In390 2.326 . S
O402 C394 1.252 . S
In403 O404 2.294 . S
In403 O405 2.326 . S
In403 O409 2.266 . S
In403 O410 2.326 . S
In403 O411 2.266 . S
In403 O412 2.326 . S
In403 O414 2.294 . S
In403 O415 2.326 . S
O404 In403 2.294 . S
O404 C413 1.240 . S
O405 In403 2.326 . S
O405 C413 1.252 . S
C406 O409 1.252 . S
C406 O410 1.260 . S
C407 O414 1.240 . S
C407 O415 1.252 . S
C408 O411 1.252 . S
C408 O412 1.260 . S
O409 In403 2.266 . S
O409 C406 1.252 . S
O410 In403 2.326 . S
O410 C406 1.260 . S
O411 In403 2.266 . S
O411 C408 1.252 . S
O412 In403 2.326 . S
O412 C408 1.260 . S
C413 O404 1.240 . S
C413 O405 1.252 . S
O414 In403 2.294 . S
O414 C407 1.240 . S
O415 In403 2.326 . S
O415 C407 1.252 . S
In416 O417 2.294 . S
In416 O418 2.326 . S
In416 O422 2.266 . S
In416 O423 2.326 . S
In416 O424 2.266 . S
In416 O425 2.326 . S
In416 O427 2.294 . S
In416 O428 2.326 . S
O417 In416 2.294 . S
O417 C426 1.240 . S
O418 In416 2.326 . S
O418 C426 1.252 . S
C419 O422 1.252 . S
C419 O423 1.260 . S
C420 O427 1.240 . S
C420 O428 1.252 . S
C421 O424 1.252 . S
C421 O425 1.260 . S
O422 In416 2.266 . S
O422 C419 1.252 . S
O423 In416 2.326 . S
O423 C419 1.260 . S
O424 In416 2.266 . S
O424 C421 1.252 . S
O425 In416 2.326 . S
O425 C421 1.260 . S
C426 O417 1.240 . S
C426 O418 1.252 . S
O427 In416 2.294 . S
O427 C420 1.240 . S
O428 In416 2.326 . S
O428 C420 1.252 . S
In429 O430 2.294 . S
In429 O431 2.326 . S
In429 O435 2.266 . S
In429 O436 2.326 . S
In429 O437 2.266 . S
In429 O438 2.326 . S
In429 O440 2.294 . S
In429 O441 2.326 . S
O430 In429 2.294 . S
O430 C439 1.240 . S
O431 In429 2.326 . S
O431 C439 1.252 . S
C432 O435 1.252 . S
C432 O436 1.260 . S
C433 O440 1.240 . S
C433 O441 1.252 . S
C434 O437 1.252 . S
C434 O438 1.260 . S
O435 In429 2.266 . S
O435 C432 1.252 . S
O436 In429 2.326 . S
O436 C432 1.260 . S
O437 In429 2.266 . S
O437 C434 1.252 . S
O438 In429 2.326 . S
O438 C434 1.260 . S
C439 O430 1.240 . S
C439 O431 1.252 . S
O440 In429 2.294 . S
O440 C433 1.240 . S
O441 In429 2.326 . S
O441 C433 1.252 . S
In442 O443 2.294 . S
In442 O444 2.326 . S
In442 O448 2.266 . S
In442 O449 2.326 . S
In442 O450 2.266 . S
In442 O451 2.326 . S
In442 O453 2.294 . S
In442 O454 2.326 . S
O443 In442 2.294 . S
O443 C452 1.240 . S
O444 In442 2.326 . S
O444 C452 1.252 . S
C445 O448 1.252 . S
C445 O449 1.260 . S
C446 O453 1.240 . S
C446 O454 1.252 . S
C447 O450 1.252 . S
C447 O451 1.260 . S
O448 In442 2.266 . S
O448 C445 1.252 . S
O449 In442 2.326 . S
O449 C445 1.260 . S
O450 In442 2.266 . S
O450 C447 1.252 . S
O451 In442 2.326 . S
O451 C447 1.260 . S
C452 O443 1.240 . S
C452 O444 1.252 . S
O453 In442 2.294 . S
O453 C446 1.240 . S
O454 In442 2.326 . S
O454 C446 1.252 . S
In455 O456 2.294 . S
In455 O457 2.326 . S
In455 O461 2.266 . S
In455 O462 2.326 . S
In455 O463 2.266 . S
In455 O464 2.326 . S
In455 O466 2.294 . S
In455 O467 2.326 . S
O456 In455 2.294 . S
O456 C465 1.240 . S
O457 In455 2.326 . S
O457 C465 1.252 . S
C458 O461 1.252 . S
C458 O462 1.260 . S
C459 O466 1.240 . S
C459 O467 1.252 . S
C460 O463 1.252 . S
C460 O464 1.260 . S
O461 In455 2.266 . S
O461 C458 1.252 . S
O462 In455 2.326 . S
O462 C458 1.260 . S
O463 In455 2.266 . S
O463 C460 1.252 . S
O464 In455 2.326 . S
O464 C460 1.260 . S
C465 O456 1.240 . S
C465 O457 1.252 . S
O466 In455 2.294 . S
O466 C459 1.240 . S
O467 In455 2.326 . S
O467 C459 1.252 . S
H468 C480 0.930 . S
H469 C482 0.930 . S
H470 C483 0.930 . S
H471 C487 0.959 . S
H472 C487 0.959 . S
H473 C487 0.961 . S
H474 C488 0.960 . S
H475 C488 0.961 . S
H476 C488 0.959 . S
H477 C491 0.929 . S
H478 C492 0.931 . S
H479 C494 0.930 . S
C480 H468 0.930 . S
C480 C481 1.399 . S
C480 C485 1.399 . S
C481 C480 1.399 . S
C481 C482 1.376 . S
C482 H469 0.930 . S
C482 C481 1.376 . S
C482 C483 1.388 . S
C483 H470 0.930 . S
C483 C482 1.388 . S
C483 C484 1.390 . S
C484 C483 1.390 . S
C484 C485 1.394 . S
C484 C490 1.465 . S
C485 C480 1.399 . S
C485 C484 1.394 . S
C485 C486 1.516 . S
C486 C485 1.516 . S
C486 C487 1.502 . S
C486 C488 1.561 . S
C486 C489 1.526 1_455 S
C487 H471 0.959 . S
C487 H472 0.959 . S
C487 H473 0.961 . S
C487 C486 1.502 . S
C488 H474 0.960 . S
C488 H475 0.961 . S
C488 H476 0.959 . S
C488 C486 1.561 . S
C489 C486 1.526 1_655 S
C489 C490 1.396 1_655 S
C489 C494 1.390 . S
C490 C484 1.465 . S
C490 C489 1.396 1_455 S
C490 C491 1.399 1_455 S
C491 H477 0.929 . S
C491 C490 1.399 1_655 S
C491 C492 1.385 . S
C492 H478 0.931 . S
C492 C491 1.385 . S
C492 C493 1.389 . S
C493 C492 1.389 . S
C493 C494 1.387 . S
C494 H479 0.930 . S
C494 C489 1.390 . S
C494 C493 1.387 . S
H495 C507 0.930 . S
H496 C509 0.930 . S
H497 C510 0.930 . S
H498 C514 0.959 . S
H499 C514 0.959 . S
H500 C514 0.961 . S
H501 C515 0.960 . S
H502 C515 0.961 . S
H503 C515 0.959 . S
H504 C518 0.929 . S
H505 C519 0.931 . S
H506 C521 0.930 . S
C507 H495 0.930 . S
C507 C508 1.399 . S
C507 C512 1.399 . S
C508 C507 1.399 . S
C508 C509 1.376 . S
C509 H496 0.930 . S
C509 C508 1.376 . S
C509 C510 1.388 . S
C510 H497 0.930 . S
C510 C509 1.388 . S
C510 C511 1.390 . S
C511 C510 1.390 . S
C511 C512 1.394 . S
C511 C517 1.465 . S
C512 C507 1.399 . S
C512 C511 1.394 . S
C512 C513 1.516 . S
C513 C512 1.516 . S
C513 C514 1.502 . S
C513 C515 1.561 . S
C513 C516 1.526 . S
C514 H498 0.959 . S
C514 H499 0.959 . S
C514 H500 0.961 . S
C514 C513 1.502 . S
C515 H501 0.960 . S
C515 H502 0.961 . S
C515 H503 0.959 . S
C515 C513 1.561 . S
C516 C513 1.526 . S
C516 C517 1.396 . S
C516 C521 1.390 . S
C517 C511 1.465 . S
C517 C516 1.396 . S
C517 C518 1.399 . S
C518 H504 0.929 . S
C518 C517 1.399 . S
C518 C519 1.385 . S
C519 H505 0.931 . S
C519 C518 1.385 . S
C519 C520 1.389 . S
C520 C519 1.389 . S
C520 C521 1.387 . S
C521 H506 0.930 . S
C521 C516 1.390 . S
C521 C520 1.387 . S
H522 C534 0.930 . S
H523 C536 0.930 . S
H524 C537 0.930 . S
H525 C541 0.959 . S
H526 C541 0.959 . S
H527 C541 0.961 . S
H528 C542 0.960 . S
H529 C542 0.961 . S
H530 C542 0.959 . S
H531 C545 0.929 . S
H532 C546 0.931 . S
H533 C548 0.930 . S
C534 H522 0.930 . S
C534 C535 1.399 . S
C534 C539 1.399 . S
C535 C534 1.399 . S
C535 C536 1.376 . S
C536 H523 0.930 . S
C536 C535 1.376 . S
C536 C537 1.388 . S
C537 H524 0.930 . S
C537 C536 1.388 . S
C537 C538 1.390 1_545 S
C538 C537 1.390 1_565 S
C538 C539 1.394 1_565 S
C538 C544 1.465 . S
C539 C534 1.399 . S
C539 C538 1.394 1_545 S
C539 C540 1.516 1_545 S
C540 C539 1.516 1_565 S
C540 C541 1.502 . S
C540 C542 1.561 . S
C540 C543 1.526 . S
C541 H525 0.959 . S
C541 H526 0.959 . S
C541 H527 0.961 . S
C541 C540 1.502 . S
C542 H528 0.960 . S
C542 H529 0.961 . S
C542 H530 0.959 . S
C542 C540 1.561 . S
C543 C540 1.526 . S
C543 C544 1.396 . S
C543 C548 1.390 . S
C544 C538 1.465 . S
C544 C543 1.396 . S
C544 C545 1.399 . S
C545 H531 0.929 . S
C545 C544 1.399 . S
C545 C546 1.385 . S
C546 H532 0.931 . S
C546 C545 1.385 . S
C546 C547 1.389 . S
C547 C546 1.389 . S
C547 C548 1.387 . S
C548 H533 0.930 . S
C548 C543 1.390 . S
C548 C547 1.387 . S
H549 C561 0.930 . S
H550 C563 0.930 . S
H551 C564 0.930 . S
H552 C568 0.959 . S
H553 C568 0.978 . S
H554 C568 0.961 . S
H555 C569 0.960 . S
H556 C569 0.971 . S
H557 C569 0.959 . S
H558 C572 0.929 . S
H559 C573 0.931 . S
H560 C575 0.930 . S
C561 H549 0.930 . S
C561 C562 1.399 . S
C561 C566 1.399 . S
C562 C561 1.399 . S
C562 C563 1.376 . S
C563 H550 0.930 . S
C563 C562 1.376 . S
C563 C564 1.388 . S
C564 H551 0.930 . S
C564 C563 1.388 . S
C564 C565 1.390 . S
C565 C564 1.390 . S
C565 C566 1.394 . S
C565 C571 1.465 . S
C566 C561 1.399 . S
C566 C565 1.394 . S
C566 C567 1.516 . S
C567 C566 1.516 . S
C567 C568 1.502 . S
C567 C569 1.561 . S
C567 C570 1.526 1_545 S
C568 H552 0.959 . S
C568 H553 0.978 . S
C568 H554 0.961 . S
C568 C567 1.502 . S
C569 H555 0.960 . S
C569 H556 0.971 . S
C569 H557 0.959 . S
C569 C567 1.561 . S
C570 C567 1.526 1_565 S
C570 C571 1.396 1_565 S
C570 C575 1.390 . S
C571 C565 1.465 . S
C571 C570 1.396 1_545 S
C571 C572 1.399 1_545 S
C572 H558 0.929 . S
C572 C571 1.399 1_565 S
C572 C573 1.385 . S
C573 H559 0.931 . S
C573 C572 1.385 . S
C573 C574 1.389 . S
C574 C573 1.389 . S
C574 C575 1.387 . S
C575 H560 0.930 . S
C575 C570 1.390 . S
C575 C574 1.387 . S
H576 C588 0.930 . S
H577 C590 0.930 . S
H578 C591 0.930 . S
H579 C595 0.959 . S
H580 C595 0.959 . S
H581 C595 0.961 . S
H582 C596 0.960 . S
H583 C596 0.961 . S
H584 C596 0.959 . S
H585 C599 0.929 . S
H586 C600 0.931 . S
H587 C602 0.930 . S
C588 H576 0.930 . S
C588 C589 1.399 . S
C588 C593 1.399 . S
C589 C588 1.399 . S
C589 C590 1.376 . S
C590 H577 0.930 . S
C590 C589 1.376 . S
C590 C591 1.388 . S
C591 H578 0.930 . S
C591 C590 1.388 . S
C591 C592 1.390 . S
C592 C591 1.390 . S
C592 C593 1.394 . S
C592 C598 1.465 . S
C593 C588 1.399 . S
C593 C592 1.394 . S
C593 C594 1.516 . S
C594 C593 1.516 . S
C594 C595 1.502 . S
C594 C596 1.561 . S
C594 C597 1.526 1_655 S
C595 H579 0.959 . S
C595 H580 0.959 . S
C595 H581 0.961 . S
C595 C594 1.502 . S
C596 H582 0.960 . S
C596 H583 0.961 . S
C596 H584 0.959 . S
C596 C594 1.561 . S
C597 C594 1.526 1_455 S
C597 C598 1.396 1_455 S
C597 C602 1.390 . S
C598 C592 1.465 . S
C598 C597 1.396 1_655 S
C598 C599 1.399 1_655 S
C599 H585 0.929 . S
C599 C598 1.399 1_455 S
C599 C600 1.385 . S
C600 H586 0.931 . S
C600 C599 1.385 . S
C600 C601 1.389 . S
C601 C600 1.389 . S
C601 C602 1.387 . S
C602 H587 0.930 . S
C602 C597 1.390 . S
C602 C601 1.387 . S
H603 C615 0.930 . S
H604 C617 0.930 . S
H605 C618 0.930 . S
H606 C622 0.959 . S
H607 C622 0.959 . S
H608 C622 0.961 . S
H609 C623 0.960 . S
H610 C623 0.961 . S
H611 C623 0.959 . S
H612 C626 0.929 . S
H613 C627 0.931 . S
H614 C629 0.930 . S
C615 H603 0.930 . S
C615 C616 1.399 . S
C615 C620 1.399 . S
C616 C615 1.399 . S
C616 C617 1.376 . S
C617 H604 0.930 . S
C617 C616 1.376 . S
C617 C618 1.388 . S
C618 H605 0.930 . S
C618 C617 1.388 . S
C618 C619 1.390 . S
C619 C618 1.390 . S
C619 C620 1.394 . S
C619 C625 1.465 . S
C620 C615 1.399 . S
C620 C619 1.394 . S
C620 C621 1.516 . S
C621 C620 1.516 . S
C621 C622 1.502 . S
C621 C623 1.561 . S
C621 C624 1.526 . S
C622 H606 0.959 . S
C622 H607 0.959 . S
C622 H608 0.961 . S
C622 C621 1.502 . S
C623 H609 0.960 . S
C623 H610 0.961 . S
C623 H611 0.959 . S
C623 C621 1.561 . S
C624 C621 1.526 . S
C624 C625 1.396 . S
C624 C629 1.390 . S
C625 C619 1.465 . S
C625 C624 1.396 . S
C625 C626 1.399 . S
C626 H612 0.929 . S
C626 C625 1.399 . S
C626 C627 1.385 . S
C627 H613 0.931 . S
C627 C626 1.385 . S
C627 C628 1.389 . S
C628 C627 1.389 . S
C628 C629 1.387 . S
C629 H614 0.930 . S
C629 C624 1.390 . S
C629 C628 1.387 . S
H630 C642 0.930 . S
H631 C644 0.930 . S
H632 C645 0.930 . S
H633 C649 0.959 . S
H634 C649 0.971 . S
H635 C649 0.961 . S
H636 C650 0.960 . S
H637 C650 0.961 . S
H638 C650 0.959 . S
H639 C653 0.929 . S
H640 C654 0.931 . S
H641 C656 0.930 . S
C642 H630 0.930 . S
C642 C643 1.399 . S
C642 C647 1.399 . S
C643 C642 1.399 . S
C643 C644 1.376 . S
C644 H631 0.930 . S
C644 C643 1.376 . S
C644 C645 1.388 . S
C645 H632 0.930 . S
C645 C644 1.388 . S
C645 C646 1.390 . S
C646 C645 1.390 . S
C646 C647 1.394 . S
C646 C652 1.465 . S
C647 C642 1.399 . S
C647 C646 1.394 . S
C647 C648 1.516 . S
C648 C647 1.516 . S
C648 C649 1.502 . S
C648 C650 1.561 . S
C648 C651 1.526 1_655 S
C649 H633 0.959 . S
C649 H634 0.971 . S
C649 H635 0.961 . S
C649 C648 1.502 . S
C650 H636 0.960 . S
C650 H637 0.961 . S
C650 H638 0.959 . S
C650 C648 1.561 . S
C651 C648 1.526 1_455 S
C651 C652 1.396 1_455 S
C651 C656 1.390 . S
C652 C646 1.465 . S
C652 C651 1.396 1_655 S
C652 C653 1.399 1_655 S
C653 H639 0.929 . S
C653 C652 1.399 1_455 S
C653 C654 1.385 . S
C654 H640 0.931 . S
C654 C653 1.385 . S
C654 C655 1.389 . S
C655 C654 1.389 . S
C655 C656 1.387 . S
C656 H641 0.930 . S
C656 C651 1.390 . S
C656 C655 1.387 . S
H657 C669 0.930 . S
H658 C671 0.930 . S
H659 C672 0.930 . S
H660 C676 0.959 . S
H661 C676 0.959 . S
H662 C676 0.961 . S
H663 C677 0.960 . S
H664 C677 0.961 . S
H665 C677 0.959 . S
H666 C680 0.929 . S
H667 C681 0.931 . S
H668 C683 0.930 . S
C669 H657 0.930 . S
C669 C670 1.399 . S
C669 C674 1.399 . S
C670 C669 1.399 . S
C670 C671 1.376 . S
C671 H658 0.930 . S
C671 C670 1.376 . S
C671 C672 1.388 . S
C672 H659 0.930 . S
C672 C671 1.388 . S
C672 C673 1.390 . S
C673 C672 1.390 . S
C673 C674 1.394 . S
C673 C679 1.465 . S
C674 C669 1.399 . S
C674 C673 1.394 . S
C674 C675 1.516 . S
C675 C674 1.516 . S
C675 C676 1.502 . S
C675 C677 1.561 . S
C675 C678 1.526 . S
C676 H660 0.959 . S
C676 H661 0.959 . S
C676 H662 0.961 . S
C676 C675 1.502 . S
C677 H663 0.960 . S
C677 H664 0.961 . S
C677 H665 0.959 . S
C677 C675 1.561 . S
C678 C675 1.526 . S
C678 C679 1.396 . S
C678 C683 1.390 . S
C679 C673 1.465 . S
C679 C678 1.396 . S
C679 C680 1.399 . S
C680 H666 0.929 . S
C680 C679 1.399 . S
C680 C681 1.385 . S
C681 H667 0.931 . S
C681 C680 1.385 . S
C681 C682 1.389 . S
C682 C681 1.389 . S
C682 C683 1.387 . S
C683 H668 0.930 . S
C683 C678 1.390 . S
C683 C682 1.387 . S
H684 C696 0.930 . S
H685 C698 0.930 . S
H686 C699 0.930 . S
H687 C703 0.959 . S
H688 C703 0.959 . S
H689 C703 0.961 . S
H690 C704 0.960 . S
H691 C704 0.961 . S
H692 C704 0.959 . S
H693 C707 0.929 . S
H694 C708 0.931 . S
H695 C710 0.930 . S
C696 H684 0.930 . S
C696 C697 1.399 . S
C696 C701 1.399 . S
C697 C696 1.399 . S
C697 C698 1.376 . S
C698 H685 0.930 . S
C698 C697 1.376 . S
C698 C699 1.388 . S
C699 H686 0.930 . S
C699 C698 1.388 . S
C699 C700 1.390 1_565 S
C700 C699 1.390 1_545 S
C700 C701 1.394 1_545 S
C700 C706 1.465 . S
C701 C696 1.399 . S
C701 C700 1.394 1_565 S
C701 C702 1.516 1_565 S
C702 C701 1.516 1_545 S
C702 C703 1.502 . S
C702 C704 1.561 . S
C702 C705 1.526 . S
C703 H687 0.959 . S
C703 H688 0.959 . S
C703 H689 0.961 . S
C703 C702 1.502 . S
C704 H690 0.960 . S
C704 H691 0.961 . S
C704 H692 0.959 . S
C704 C702 1.561 . S
C705 C702 1.526 . S
C705 C706 1.396 . S
C705 C710 1.390 . S
C706 C700 1.465 . S
C706 C705 1.396 . S
C706 C707 1.399 . S
C707 H693 0.929 . S
C707 C706 1.399 . S
C707 C708 1.385 . S
C708 H694 0.931 . S
C708 C707 1.385 . S
C708 C709 1.389 . S
C709 C708 1.389 . S
C709 C710 1.387 . S
C710 H695 0.930 . S
C710 C705 1.390 . S
C710 C709 1.387 . S
H711 C723 0.930 . S
H712 C725 0.930 . S
H713 C726 0.930 . S
H714 C730 0.959 . S
H715 C730 0.959 . S
H716 C730 0.961 . S
H717 C731 0.960 . S
H718 C731 0.961 . S
H719 C731 0.959 . S
H720 C734 0.929 . S
H721 C735 0.931 . S
H722 C737 0.930 . S
C723 H711 0.930 . S
C723 C724 1.399 . S
C723 C728 1.399 . S
C724 C723 1.399 . S
C724 C725 1.376 . S
C725 H712 0.930 . S
C725 C724 1.376 . S
C725 C726 1.388 . S
C726 H713 0.930 . S
C726 C725 1.388 . S
C726 C727 1.390 1_545 S
C727 C726 1.390 1_565 S
C727 C728 1.394 1_565 S
C727 C733 1.465 . S
C728 C723 1.399 . S
C728 C727 1.394 1_545 S
C728 C729 1.516 1_545 S
C729 C728 1.516 1_565 S
C729 C730 1.502 . S
C729 C731 1.561 . S
C729 C732 1.526 . S
C730 H714 0.959 . S
C730 H715 0.959 . S
C730 H716 0.961 . S
C730 C729 1.502 . S
C731 H717 0.960 . S
C731 H718 0.961 . S
C731 H719 0.959 . S
C731 C729 1.561 . S
C732 C729 1.526 . S
C732 C733 1.396 . S
C732 C737 1.390 . S
C733 C727 1.465 . S
C733 C732 1.396 . S
C733 C734 1.399 . S
C734 H720 0.929 . S
C734 C733 1.399 . S
C734 C735 1.385 . S
C735 H721 0.931 . S
C735 C734 1.385 . S
C735 C736 1.389 . S
C736 C735 1.389 . S
C736 C737 1.387 . S
C737 H722 0.930 . S
C737 C732 1.390 . S
C737 C736 1.387 . S
H738 C750 0.930 . S
H739 C752 0.930 . S
H740 C753 0.930 . S
H741 C757 0.959 . S
H742 C757 0.959 . S
H743 C757 0.961 . S
H744 C758 0.960 . S
H745 C758 0.961 . S
H746 C758 0.959 . S
H747 C761 0.929 . S
H748 C762 0.931 . S
H749 C764 0.930 . S
C750 H738 0.930 . S
C750 C751 1.399 . S
C750 C755 1.399 . S
C751 C750 1.399 . S
C751 C752 1.376 . S
C752 H739 0.930 . S
C752 C751 1.376 . S
C752 C753 1.388 . S
C753 H740 0.930 . S
C753 C752 1.388 . S
C753 C754 1.390 . S
C754 C753 1.390 . S
C754 C755 1.394 . S
C754 C760 1.465 . S
C755 C750 1.399 . S
C755 C754 1.394 . S
C755 C756 1.516 . S
C756 C755 1.516 . S
C756 C757 1.502 . S
C756 C758 1.561 . S
C756 C759 1.526 1_455 S
C757 H741 0.959 . S
C757 H742 0.959 . S
C757 H743 0.961 . S
C757 C756 1.502 . S
C758 H744 0.960 . S
C758 H745 0.961 . S
C758 H746 0.959 . S
C758 C756 1.561 . S
C759 C756 1.526 1_655 S
C759 C760 1.396 1_655 S
C759 C764 1.390 . S
C760 C754 1.465 . S
C760 C759 1.396 1_455 S
C760 C761 1.399 1_455 S
C761 H747 0.929 . S
C761 C760 1.399 1_655 S
C761 C762 1.385 . S
C762 H748 0.931 . S
C762 C761 1.385 . S
C762 C763 1.389 . S
C763 C762 1.389 . S
C763 C764 1.387 . S
C764 H749 0.930 . S
C764 C759 1.390 . S
C764 C763 1.387 . S
H765 C777 0.930 . S
H766 C779 0.930 . S
H767 C780 0.930 . S
H768 C784 0.959 . S
H769 C784 0.959 . S
H770 C784 0.961 . S
H771 C785 0.960 . S
H772 C785 0.961 . S
H773 C785 0.959 . S
H774 C788 0.929 . S
H775 C789 0.931 . S
H776 C791 0.930 . S
C777 H765 0.930 . S
C777 C778 1.399 . S
C777 C782 1.399 . S
C778 C777 1.399 . S
C778 C779 1.376 . S
C779 H766 0.930 . S
C779 C778 1.376 . S
C779 C780 1.388 . S
C780 H767 0.930 . S
C780 C779 1.388 . S
C780 C781 1.390 . S
C781 C780 1.390 . S
C781 C782 1.394 . S
C781 C787 1.465 . S
C782 C777 1.399 . S
C782 C781 1.394 . S
C782 C783 1.516 . S
C783 C782 1.516 . S
C783 C784 1.502 . S
C783 C785 1.561 . S
C783 C786 1.526 . S
C784 H768 0.959 . S
C784 H769 0.959 . S
C784 H770 0.961 . S
C784 C783 1.502 . S
C785 H771 0.960 . S
C785 H772 0.961 . S
C785 H773 0.959 . S
C785 C783 1.561 . S
C786 C783 1.526 . S
C786 C787 1.396 . S
C786 C791 1.390 . S
C787 C781 1.465 . S
C787 C786 1.396 . S
C787 C788 1.399 . S
C788 H774 0.929 . S
C788 C787 1.399 . S
C788 C789 1.385 . S
C789 H775 0.931 . S
C789 C788 1.385 . S
C789 C790 1.389 . S
C790 C789 1.389 . S
C790 C791 1.387 . S
C791 H776 0.930 . S
C791 C786 1.390 . S
C791 C790 1.387 . S
H792 C804 0.930 . S
H793 C806 0.930 . S
H794 C807 0.930 . S
H795 C811 0.959 . S
H796 C811 0.959 . S
H797 C811 0.961 . S
H798 C812 0.960 . S
H799 C812 0.961 . S
H800 C812 0.959 . S
H801 C815 0.929 . S
H802 C816 0.931 . S
H803 C818 0.930 . S
C804 H792 0.930 . S
C804 C805 1.399 . S
C804 C809 1.399 . S
C805 C804 1.399 . S
C805 C806 1.376 . S
C806 H793 0.930 . S
C806 C805 1.376 . S
C806 C807 1.388 . S
C807 H794 0.930 . S
C807 C806 1.388 . S
C807 C808 1.390 . S
C808 C807 1.390 . S
C808 C809 1.394 . S
C808 C814 1.465 . S
C809 C804 1.399 . S
C809 C808 1.394 . S
C809 C810 1.516 . S
C810 C809 1.516 . S
C810 C811 1.502 . S
C810 C812 1.561 . S
C810 C813 1.526 . S
C811 H795 0.959 . S
C811 H796 0.959 . S
C811 H797 0.961 . S
C811 C810 1.502 . S
C812 H798 0.960 . S
C812 H799 0.961 . S
C812 H800 0.959 . S
C812 C810 1.561 . S
C813 C810 1.526 . S
C813 C814 1.396 . S
C813 C818 1.390 . S
C814 C808 1.465 . S
C814 C813 1.396 . S
C814 C815 1.399 . S
C815 H801 0.929 . S
C815 C814 1.399 . S
C815 C816 1.385 . S
C816 H802 0.931 . S
C816 C815 1.385 . S
C816 C817 1.389 . S
C817 C816 1.389 . S
C817 C818 1.387 . S
C818 H803 0.930 . S
C818 C813 1.390 . S
C818 C817 1.387 . S
H819 C831 0.930 . S
H820 C833 0.930 . S
H821 C834 0.930 . S
H822 C838 0.959 . S
H823 C838 0.959 . S
H824 C838 0.961 . S
H825 C839 0.960 . S
H826 C839 0.961 . S
H827 C839 0.959 . S
H828 C842 0.929 . S
H829 C843 0.931 . S
H830 C845 0.930 . S
C831 H819 0.930 . S
C831 C832 1.399 . S
C831 C836 1.399 . S
C832 C831 1.399 . S
C832 C833 1.376 . S
C833 H820 0.930 . S
C833 C832 1.376 . S
C833 C834 1.388 . S
C834 H821 0.930 . S
C834 C833 1.388 . S
C834 C835 1.390 . S
C835 C834 1.390 . S
C835 C836 1.394 . S
C835 C841 1.465 . S
C836 C831 1.399 . S
C836 C835 1.394 . S
C836 C837 1.516 . S
C837 C836 1.516 . S
C837 C838 1.502 . S
C837 C839 1.561 . S
C837 C840 1.526 . S
C838 H822 0.959 . S
C838 H823 0.959 . S
C838 H824 0.961 . S
C838 C837 1.502 . S
C839 H825 0.960 . S
C839 H826 0.961 . S
C839 H827 0.959 . S
C839 C837 1.561 . S
C840 C837 1.526 . S
C840 C841 1.396 . S
C840 C845 1.390 . S
C841 C835 1.465 . S
C841 C840 1.396 . S
C841 C842 1.399 . S
C842 H828 0.929 . S
C842 C841 1.399 . S
C842 C843 1.385 . S
C843 H829 0.931 . S
C843 C842 1.385 . S
C843 C844 1.389 . S
C844 C843 1.389 . S
C844 C845 1.387 . S
C845 H830 0.930 . S
C845 C840 1.390 . S
C845 C844 1.387 . S
H846 C858 0.930 . S
H847 C860 0.930 . S
H848 C861 0.930 . S
H849 C865 0.959 . S
H850 C865 0.959 . S
H851 C865 0.961 . S
H852 C866 0.960 . S
H853 C866 0.961 . S
H854 C866 0.959 . S
H855 C869 0.929 . S
H856 C870 0.931 . S
H857 C872 0.930 . S
C858 H846 0.930 . S
C858 C859 1.399 . S
C858 C863 1.399 . S
C859 C858 1.399 . S
C859 C860 1.376 . S
C860 H847 0.930 . S
C860 C859 1.376 . S
C860 C861 1.388 . S
C861 H848 0.930 . S
C861 C860 1.388 . S
C861 C862 1.390 . S
C862 C861 1.390 . S
C862 C863 1.394 . S
C862 C868 1.465 . S
C863 C858 1.399 . S
C863 C862 1.394 . S
C863 C864 1.516 . S
C864 C863 1.516 . S
C864 C865 1.502 . S
C864 C866 1.561 . S
C864 C867 1.526 . S
C865 H849 0.959 . S
C865 H850 0.959 . S
C865 H851 0.961 . S
C865 C864 1.502 . S
C866 H852 0.960 . S
C866 H853 0.961 . S
C866 H854 0.959 . S
C866 C864 1.561 . S
C867 C864 1.526 . S
C867 C868 1.396 . S
C867 C872 1.390 . S
C868 C862 1.465 . S
C868 C867 1.396 . S
C868 C869 1.399 . S
C869 H855 0.929 . S
C869 C868 1.399 . S
C869 C870 1.385 . S
C870 H856 0.931 . S
C870 C869 1.385 . S
C870 C871 1.389 . S
C871 C870 1.389 . S
C871 C872 1.387 . S
C872 H857 0.930 . S
C872 C867 1.390 . S
C872 C871 1.387 . S
H873 C885 0.930 . S
H874 C887 0.930 . S
H875 C888 0.930 . S
H876 C892 0.959 . S
H877 C892 0.959 . S
H878 C892 0.961 . S
H879 C893 0.960 . S
H880 C893 0.961 . S
H881 C893 0.959 . S
H882 C896 0.929 . S
H883 C897 0.931 . S
H884 C899 0.930 . S
C885 H873 0.930 . S
C885 C886 1.399 . S
C885 C890 1.399 . S
C886 C885 1.399 . S
C886 C887 1.376 . S
C887 H874 0.930 . S
C887 C886 1.376 . S
C887 C888 1.388 . S
C888 H875 0.930 . S
C888 C887 1.388 . S
C888 C889 1.390 . S
C889 C888 1.390 . S
C889 C890 1.394 . S
C889 C895 1.465 . S
C890 C885 1.399 . S
C890 C889 1.394 . S
C890 C891 1.516 . S
C891 C890 1.516 . S
C891 C892 1.502 . S
C891 C893 1.561 . S
C891 C894 1.526 . S
C892 H876 0.959 . S
C892 H877 0.959 . S
C892 H878 0.961 . S
C892 C891 1.502 . S
C893 H879 0.960 . S
C893 H880 0.961 . S
C893 H881 0.959 . S
C893 C891 1.561 . S
C894 C891 1.526 . S
C894 C895 1.396 . S
C894 C899 1.390 . S
C895 C889 1.465 . S
C895 C894 1.396 . S
C895 C896 1.399 . S
C896 H882 0.929 . S
C896 C895 1.399 . S
C896 C897 1.385 . S
C897 H883 0.931 . S
C897 C896 1.385 . S
C897 C898 1.389 . S
C898 C897 1.389 . S
C898 C899 1.387 . S
C899 H884 0.930 . S
C899 C894 1.390 . S
C899 C898 1.387 . S
H900 C912 0.930 . S
H901 C914 0.930 . S
H902 C915 0.930 . S
H903 C919 0.959 . S
H904 C919 0.959 . S
H905 C919 0.961 . S
H906 C920 0.960 . S
H907 C920 0.961 . S
H908 C920 0.959 . S
H909 C923 0.929 . S
H910 C924 0.931 . S
H911 C926 0.930 . S
C912 H900 0.930 . S
C912 C913 1.399 . S
C912 C917 1.399 . S
C913 C912 1.399 . S
C913 C914 1.376 . S
C914 H901 0.930 . S
C914 C913 1.376 . S
C914 C915 1.388 . S
C915 H902 0.930 . S
C915 C914 1.388 . S
C915 C916 1.390 . S
C916 C915 1.390 . S
C916 C917 1.394 . S
C916 C922 1.465 . S
C917 C912 1.399 . S
C917 C916 1.394 . S
C917 C918 1.516 . S
C918 C917 1.516 . S
C918 C919 1.502 . S
C918 C920 1.561 . S
C918 C921 1.526 . S
C919 H903 0.959 . S
C919 H904 0.959 . S
C919 H905 0.961 . S
C919 C918 1.502 . S
C920 H906 0.960 . S
C920 H907 0.961 . S
C920 H908 0.959 . S
C920 C918 1.561 . S
C921 C918 1.526 . S
C921 C922 1.396 . S
C921 C926 1.390 . S
C922 C916 1.465 . S
C922 C921 1.396 . S
C922 C923 1.399 . S
C923 H909 0.929 . S
C923 C922 1.399 . S
C923 C924 1.385 . S
C924 H910 0.931 . S
C924 C923 1.385 . S
C924 C925 1.389 . S
C925 C924 1.389 . S
C925 C926 1.387 . S
C926 H911 0.930 . S
C926 C921 1.390 . S
C926 C925 1.387 . S
H927 C939 0.930 . S
H928 C941 0.930 . S
H929 C942 0.930 . S
H930 C946 0.959 . S
H931 C946 0.959 . S
H932 C946 0.961 . S
H933 C947 0.960 . S
H934 C947 0.961 . S
H935 C947 0.959 . S
H936 C950 0.929 . S
H937 C951 0.931 . S
H938 C953 0.930 . S
C939 H927 0.930 . S
C939 C940 1.399 . S
C939 C944 1.399 . S
C940 C939 1.399 . S
C940 C941 1.376 . S
C941 H928 0.930 . S
C941 C940 1.376 . S
C941 C942 1.388 . S
C942 H929 0.930 . S
C942 C941 1.388 . S
C942 C943 1.390 . S
C943 C942 1.390 . S
C943 C944 1.394 . S
C943 C949 1.465 . S
C944 C939 1.399 . S
C944 C943 1.394 . S
C944 C945 1.516 . S
C945 C944 1.516 . S
C945 C946 1.502 . S
C945 C947 1.561 . S
C945 C948 1.526 . S
C946 H930 0.959 . S
C946 H931 0.959 . S
C946 H932 0.961 . S
C946 C945 1.502 . S
C947 H933 0.960 . S
C947 H934 0.961 . S
C947 H935 0.959 . S
C947 C945 1.561 . S
C948 C945 1.526 . S
C948 C949 1.396 . S
C948 C953 1.390 . S
C949 C943 1.465 . S
C949 C948 1.396 . S
C949 C950 1.399 . S
C950 H936 0.929 . S
C950 C949 1.399 . S
C950 C951 1.385 . S
C951 H937 0.931 . S
C951 C950 1.385 . S
C951 C952 1.389 . S
C952 C951 1.389 . S
C952 C953 1.387 . S
C953 H938 0.930 . S
C953 C948 1.390 . S
C953 C952 1.387 . S
H954 C966 0.930 . S
H955 C968 0.930 . S
H956 C969 0.930 . S
H957 C973 0.959 . S
H958 C973 0.959 . S
H959 C973 0.961 . S
H960 C974 0.960 . S
H961 C974 0.961 . S
H962 C974 0.959 . S
H963 C977 0.929 . S
H964 C978 0.931 . S
H965 C980 0.930 . S
C966 H954 0.930 . S
C966 C967 1.399 . S
C966 C971 1.399 . S
C967 C966 1.399 . S
C967 C968 1.376 . S
C968 H955 0.930 . S
C968 C967 1.376 . S
C968 C969 1.388 . S
C969 H956 0.930 . S
C969 C968 1.388 . S
C969 C970 1.390 . S
C970 C969 1.390 . S
C970 C971 1.394 . S
C970 C976 1.465 . S
C971 C966 1.399 . S
C971 C970 1.394 . S
C971 C972 1.516 . S
C972 C971 1.516 . S
C972 C973 1.502 . S
C972 C974 1.561 . S
C972 C975 1.526 . S
C973 H957 0.959 . S
C973 H958 0.959 . S
C973 H959 0.961 . S
C973 C972 1.502 . S
C974 H960 0.960 . S
C974 H961 0.961 . S
C974 H962 0.959 . S
C974 C972 1.561 . S
C975 C972 1.526 . S
C975 C976 1.396 . S
C975 C980 1.390 . S
C976 C970 1.465 . S
C976 C975 1.396 . S
C976 C977 1.399 . S
C977 H963 0.929 . S
C977 C976 1.399 . S
C977 C978 1.385 . S
C978 H964 0.931 . S
C978 C977 1.385 . S
C978 C979 1.389 . S
C979 C978 1.389 . S
C979 C980 1.387 . S
C980 H965 0.930 . S
C980 C975 1.390 . S
C980 C979 1.387 . S
H981 C993 0.930 . S
H982 C995 0.930 . S
H983 C996 0.930 . S
H984 C1000 0.959 . S
H985 C1000 0.959 . S
H986 C1000 0.961 . S
H987 C1001 0.960 . S
H988 C1001 0.961 . S
H989 C1001 0.959 . S
H990 C1004 0.929 . S
H991 C1005 0.931 . S
H992 C1007 0.930 . S
C993 H981 0.930 . S
C993 C994 1.399 . S
C993 C998 1.399 . S
C994 C993 1.399 . S
C994 C995 1.376 . S
C995 H982 0.930 . S
C995 C994 1.376 . S
C995 C996 1.388 . S
C996 H983 0.930 . S
C996 C995 1.388 . S
C996 C997 1.390 . S
C997 C996 1.390 . S
C997 C998 1.394 . S
C997 C1003 1.465 . S
C998 C993 1.399 . S
C998 C997 1.394 . S
C998 C999 1.516 . S
C999 C998 1.516 . S
C999 C1000 1.502 . S
C999 C1001 1.561 . S
C999 C1002 1.526 . S
C1000 H984 0.959 . S
C1000 H985 0.959 . S
C1000 H986 0.961 . S
C1000 C999 1.502 . S
C1001 H987 0.960 . S
C1001 H988 0.961 . S
C1001 H989 0.959 . S
C1001 C999 1.561 . S
C1002 C999 1.526 . S
C1002 C1003 1.396 . S
C1002 C1007 1.390 . S
C1003 C997 1.465 . S
C1003 C1002 1.396 . S
C1003 C1004 1.399 . S
C1004 H990 0.929 . S
C1004 C1003 1.399 . S
C1004 C1005 1.385 . S
C1005 H991 0.931 . S
C1005 C1004 1.385 . S
C1005 C1006 1.389 . S
C1006 C1005 1.389 . S
C1006 C1007 1.387 . S
C1007 H992 0.930 . S
C1007 C1002 1.390 . S
C1007 C1006 1.387 . S
H1008 C1020 0.930 . S
H1009 C1022 0.930 . S
H1010 C1023 0.930 . S
H1011 C1027 0.959 . S
H1012 C1027 0.959 . S
H1013 C1027 0.961 . S
H1014 C1028 0.960 . S
H1015 C1028 0.961 . S
H1016 C1028 0.959 . S
H1017 C1031 0.929 . S
H1018 C1032 0.931 . S
H1019 C1034 0.930 . S
C1020 H1008 0.930 . S
C1020 C1021 1.399 . S
C1020 C1025 1.399 . S
C1021 C1020 1.399 . S
C1021 C1022 1.376 . S
C1022 H1009 0.930 . S
C1022 C1021 1.376 . S
C1022 C1023 1.388 . S
C1023 H1010 0.930 . S
C1023 C1022 1.388 . S
C1023 C1024 1.390 . S
C1024 C1023 1.390 . S
C1024 C1025 1.394 . S
C1024 C1030 1.465 . S
C1025 C1020 1.399 . S
C1025 C1024 1.394 . S
C1025 C1026 1.516 . S
C1026 C1025 1.516 . S
C1026 C1027 1.502 . S
C1026 C1028 1.561 . S
C1026 C1029 1.526 . S
C1027 H1011 0.959 . S
C1027 H1012 0.959 . S
C1027 H1013 0.961 . S
C1027 C1026 1.502 . S
C1028 H1014 0.960 . S
C1028 H1015 0.961 . S
C1028 H1016 0.959 . S
C1028 C1026 1.561 . S
C1029 C1026 1.526 . S
C1029 C1030 1.396 . S
C1029 C1034 1.390 . S
C1030 C1024 1.465 . S
C1030 C1029 1.396 . S
C1030 C1031 1.399 . S
C1031 H1017 0.929 . S
C1031 C1030 1.399 . S
C1031 C1032 1.385 . S
C1032 H1018 0.931 . S
C1032 C1031 1.385 . S
C1032 C1033 1.389 . S
C1033 C1032 1.389 . S
C1033 C1034 1.387 . S
C1034 H1019 0.930 . S
C1034 C1029 1.390 . S
C1034 C1033 1.387 . S
H1035 C1047 0.930 . S
H1036 C1049 0.930 . S
H1037 C1050 0.930 . S
H1038 C1054 0.959 . S
H1039 C1054 0.959 . S
H1040 C1054 0.961 . S
H1041 C1055 0.960 . S
H1042 C1055 0.961 . S
H1043 C1055 0.959 . S
H1044 C1058 0.929 . S
H1045 C1059 0.931 . S
H1046 C1061 0.930 . S
C1047 H1035 0.930 . S
C1047 C1048 1.399 . S
C1047 C1052 1.399 . S
C1048 C1047 1.399 . S
C1048 C1049 1.376 1_556 S
C1049 H1036 0.930 . S
C1049 C1048 1.376 1_554 S
C1049 C1050 1.388 . S
C1050 H1037 0.930 . S
C1050 C1049 1.388 . S
C1050 C1051 1.390 1_554 S
C1051 C1050 1.390 1_556 S
C1051 C1052 1.394 . S
C1051 C1057 1.465 . S
C1052 C1047 1.399 . S
C1052 C1051 1.394 . S
C1052 C1053 1.516 . S
C1053 C1052 1.516 . S
C1053 C1054 1.502 . S
C1053 C1055 1.561 . S
C1053 C1056 1.526 . S
C1054 H1038 0.959 . S
C1054 H1039 0.959 . S
C1054 H1040 0.961 . S
C1054 C1053 1.502 . S
C1055 H1041 0.960 . S
C1055 H1042 0.961 . S
C1055 H1043 0.959 . S
C1055 C1053 1.561 . S
C1056 C1053 1.526 . S
C1056 C1057 1.396 . S
C1056 C1061 1.390 . S
C1057 C1051 1.465 . S
C1057 C1056 1.396 . S
C1057 C1058 1.399 1_556 S
C1058 H1044 0.929 . S
C1058 C1057 1.399 1_554 S
C1058 C1059 1.385 . S
C1059 H1045 0.931 . S
C1059 C1058 1.385 . S
C1059 C1060 1.389 1_554 S
C1060 C1059 1.389 1_556 S
C1060 C1061 1.387 . S
C1061 H1046 0.930 . S
C1061 C1056 1.390 . S
C1061 C1060 1.387 . S
H1062 C1074 0.930 . S
H1063 C1076 0.930 . S
H1064 C1077 0.930 . S
H1065 C1081 0.959 . S
H1066 C1081 0.959 . S
H1067 C1081 0.961 . S
H1068 C1082 0.960 . S
H1069 C1082 0.961 . S
H1070 C1082 0.959 . S
H1071 C1085 0.929 . S
H1072 C1086 0.931 . S
H1073 C1088 0.930 . S
C1074 H1062 0.930 . S
C1074 C1075 1.399 . S
C1074 C1079 1.399 . S
C1075 C1074 1.399 . S
C1075 C1076 1.376 1_556 S
C1076 H1063 0.930 . S
C1076 C1075 1.376 1_554 S
C1076 C1077 1.388 . S
C1077 H1064 0.930 . S
C1077 C1076 1.388 . S
C1077 C1078 1.390 1_554 S
C1078 C1077 1.390 1_556 S
C1078 C1079 1.394 . S
C1078 C1084 1.465 . S
C1079 C1074 1.399 . S
C1079 C1078 1.394 . S
C1079 C1080 1.516 . S
C1080 C1079 1.516 . S
C1080 C1081 1.502 . S
C1080 C1082 1.561 . S
C1080 C1083 1.526 . S
C1081 H1065 0.959 . S
C1081 H1066 0.959 . S
C1081 H1067 0.961 . S
C1081 C1080 1.502 . S
C1082 H1068 0.960 . S
C1082 H1069 0.961 . S
C1082 H1070 0.959 . S
C1082 C1080 1.561 . S
C1083 C1080 1.526 . S
C1083 C1084 1.396 . S
C1083 C1088 1.390 . S
C1084 C1078 1.465 . S
C1084 C1083 1.396 . S
C1084 C1085 1.399 1_556 S
C1085 H1071 0.929 . S
C1085 C1084 1.399 1_554 S
C1085 C1086 1.385 . S
C1086 H1072 0.931 . S
C1086 C1085 1.385 . S
C1086 C1087 1.389 1_554 S
C1087 C1086 1.389 1_556 S
C1087 C1088 1.387 . S
C1088 H1073 0.930 . S
C1088 C1083 1.390 . S
C1088 C1087 1.387 . S
H1089 C1101 0.930 . S
H1090 C1103 0.930 . S
H1091 C1104 0.930 . S
H1092 C1108 0.959 . S
H1093 C1108 0.959 . S
H1094 C1108 0.961 . S
H1095 C1109 0.960 . S
H1096 C1109 0.961 . S
H1097 C1109 0.959 . S
H1098 C1112 0.929 . S
H1099 C1113 0.931 . S
H1100 C1115 0.930 . S
C1101 H1089 0.930 . S
C1101 C1102 1.399 . S
C1101 C1106 1.399 . S
C1102 C1101 1.399 . S
C1102 C1103 1.376 1_556 S
C1103 H1090 0.930 . S
C1103 C1102 1.376 1_554 S
C1103 C1104 1.388 . S
C1104 H1091 0.930 . S
C1104 C1103 1.388 . S
C1104 C1105 1.390 1_554 S
C1105 C1104 1.390 1_556 S
C1105 C1106 1.394 . S
C1105 C1111 1.465 . S
C1106 C1101 1.399 . S
C1106 C1105 1.394 . S
C1106 C1107 1.516 . S
C1107 C1106 1.516 . S
C1107 C1108 1.502 . S
C1107 C1109 1.561 . S
C1107 C1110 1.526 . S
C1108 H1092 0.959 . S
C1108 H1093 0.959 . S
C1108 H1094 0.961 . S
C1108 C1107 1.502 . S
C1109 H1095 0.960 . S
C1109 H1096 0.961 . S
C1109 H1097 0.959 . S
C1109 C1107 1.561 . S
C1110 C1107 1.526 . S
C1110 C1111 1.396 . S
C1110 C1115 1.390 . S
C1111 C1105 1.465 . S
C1111 C1110 1.396 . S
C1111 C1112 1.399 1_556 S
C1112 H1098 0.929 . S
C1112 C1111 1.399 1_554 S
C1112 C1113 1.385 . S
C1113 H1099 0.931 . S
C1113 C1112 1.385 . S
C1113 C1114 1.389 1_554 S
C1114 C1113 1.389 1_556 S
C1114 C1115 1.387 . S
C1115 H1100 0.930 . S
C1115 C1110 1.390 . S
C1115 C1114 1.387 . S
H1116 C1128 0.930 . S
H1117 C1130 0.930 . S
H1118 C1131 0.930 . S
H1119 C1135 0.959 . S
H1120 C1135 0.959 . S
H1121 C1135 0.961 . S
H1122 C1136 0.960 . S
H1123 C1136 0.961 . S
H1124 C1136 0.959 . S
H1125 C1139 0.929 . S
H1126 C1140 0.931 . S
H1127 C1142 0.930 . S
C1128 H1116 0.930 . S
C1128 C1129 1.399 . S
C1128 C1133 1.399 . S
C1129 C1128 1.399 . S
C1129 C1130 1.376 . S
C1130 H1117 0.930 . S
C1130 C1129 1.376 . S
C1130 C1131 1.388 . S
C1131 H1118 0.930 . S
C1131 C1130 1.388 . S
C1131 C1132 1.390 . S
C1132 C1131 1.390 . S
C1132 C1133 1.394 . S
C1132 C1138 1.465 . S
C1133 C1128 1.399 . S
C1133 C1132 1.394 . S
C1133 C1134 1.516 . S
C1134 C1133 1.516 . S
C1134 C1135 1.502 . S
C1134 C1136 1.561 . S
C1134 C1137 1.526 . S
C1135 H1119 0.959 . S
C1135 H1120 0.959 . S
C1135 H1121 0.961 . S
C1135 C1134 1.502 . S
C1136 H1122 0.960 . S
C1136 H1123 0.961 . S
C1136 H1124 0.959 . S
C1136 C1134 1.561 . S
C1137 C1134 1.526 . S
C1137 C1138 1.396 . S
C1137 C1142 1.390 . S
C1138 C1132 1.465 . S
C1138 C1137 1.396 . S
C1138 C1139 1.399 . S
C1139 H1125 0.929 . S
C1139 C1138 1.399 . S
C1139 C1140 1.385 . S
C1140 H1126 0.931 . S
C1140 C1139 1.385 . S
C1140 C1141 1.389 . S
C1141 C1140 1.389 . S
C1141 C1142 1.387 . S
C1142 H1127 0.930 . S
C1142 C1137 1.390 . S
C1142 C1141 1.387 . S
H1143 C1155 0.930 . S
H1144 C1157 0.930 . S
H1145 C1158 0.930 . S
H1146 C1162 0.959 . S
H1147 C1162 0.959 . S
H1148 C1162 0.961 . S
H1149 C1163 0.960 . S
H1150 C1163 0.961 . S
H1151 C1163 0.959 . S
H1152 C1166 0.929 . S
H1153 C1167 0.931 . S
H1154 C1169 0.930 . S
C1155 H1143 0.930 . S
C1155 C1156 1.399 . S
C1155 C1160 1.399 . S
C1156 C1155 1.399 . S
C1156 C1157 1.376 . S
C1157 H1144 0.930 . S
C1157 C1156 1.376 . S
C1157 C1158 1.388 . S
C1158 H1145 0.930 . S
C1158 C1157 1.388 . S
C1158 C1159 1.390 . S
C1159 C1158 1.390 . S
C1159 C1160 1.394 . S
C1159 C1165 1.465 . S
C1160 C1155 1.399 . S
C1160 C1159 1.394 . S
C1160 C1161 1.516 . S
C1161 C1160 1.516 . S
C1161 C1162 1.502 . S
C1161 C1163 1.561 . S
C1161 C1164 1.526 . S
C1162 H1146 0.959 . S
C1162 H1147 0.959 . S
C1162 H1148 0.961 . S
C1162 C1161 1.502 . S
C1163 H1149 0.960 . S
C1163 H1150 0.961 . S
C1163 H1151 0.959 . S
C1163 C1161 1.561 . S
C1164 C1161 1.526 . S
C1164 C1165 1.396 . S
C1164 C1169 1.390 . S
C1165 C1159 1.465 . S
C1165 C1164 1.396 . S
C1165 C1166 1.399 . S
C1166 H1152 0.929 . S
C1166 C1165 1.399 . S
C1166 C1167 1.385 . S
C1167 H1153 0.931 . S
C1167 C1166 1.385 . S
C1167 C1168 1.389 . S
C1168 C1167 1.389 . S
C1168 C1169 1.387 . S
C1169 H1154 0.930 . S
C1169 C1164 1.390 . S
C1169 C1168 1.387 . S
H1170 C1182 0.930 . S
H1171 C1184 0.930 . S
H1172 C1185 0.930 . S
H1173 C1189 0.959 . S
H1174 C1189 0.959 . S
H1175 C1189 0.961 . S
H1176 C1190 0.960 . S
H1177 C1190 0.961 . S
H1178 C1190 0.959 . S
H1179 C1193 0.929 . S
H1180 C1194 0.931 . S
H1181 C1196 0.930 . S
C1182 H1170 0.930 . S
C1182 C1183 1.399 . S
C1182 C1187 1.399 . S
C1183 C1182 1.399 . S
C1183 C1184 1.376 . S
C1184 H1171 0.930 . S
C1184 C1183 1.376 . S
C1184 C1185 1.388 . S
C1185 H1172 0.930 . S
C1185 C1184 1.388 . S
C1185 C1186 1.390 . S
C1186 C1185 1.390 . S
C1186 C1187 1.394 . S
C1186 C1192 1.465 . S
C1187 C1182 1.399 . S
C1187 C1186 1.394 . S
C1187 C1188 1.516 . S
C1188 C1187 1.516 . S
C1188 C1189 1.502 . S
C1188 C1190 1.561 . S
C1188 C1191 1.526 . S
C1189 H1173 0.959 . S
C1189 H1174 0.959 . S
C1189 H1175 0.961 . S
C1189 C1188 1.502 . S
C1190 H1176 0.960 . S
C1190 H1177 0.961 . S
C1190 H1178 0.959 . S
C1190 C1188 1.561 . S
C1191 C1188 1.526 . S
C1191 C1192 1.396 . S
C1191 C1196 1.390 . S
C1192 C1186 1.465 . S
C1192 C1191 1.396 . S
C1192 C1193 1.399 . S
C1193 H1179 0.929 . S
C1193 C1192 1.399 . S
C1193 C1194 1.385 . S
C1194 H1180 0.931 . S
C1194 C1193 1.385 . S
C1194 C1195 1.389 . S
C1195 C1194 1.389 . S
C1195 C1196 1.387 . S
C1196 H1181 0.930 . S
C1196 C1191 1.390 . S
C1196 C1195 1.387 . S
H1197 C1209 0.930 1_556 S
H1198 C1211 0.930 . S
H1199 C1212 0.930 . S
H1200 C1216 0.959 . S
H1201 C1216 0.959 . S
H1202 C1216 0.961 . S
H1203 C1217 0.960 . S
H1204 C1217 0.961 . S
H1205 C1217 0.959 . S
H1206 C1220 0.929 . S
H1207 C1221 0.931 . S
H1208 C1223 0.930 1_556 S
C1209 H1197 0.930 1_554 S
C1209 C1210 1.399 . S
C1209 C1214 1.399 . S
C1210 C1209 1.399 . S
C1210 C1211 1.376 . S
C1211 H1198 0.930 . S
C1211 C1210 1.376 . S
C1211 C1212 1.388 . S
C1212 H1199 0.930 . S
C1212 C1211 1.388 . S
C1212 C1213 1.390 . S
C1213 C1212 1.390 . S
C1213 C1214 1.394 . S
C1213 C1219 1.465 . S
C1214 C1209 1.399 . S
C1214 C1213 1.394 . S
C1214 C1215 1.516 1_554 S
C1215 C1214 1.516 1_556 S
C1215 C1216 1.502 . S
C1215 C1217 1.561 . S
C1215 C1218 1.526 1_556 S
C1216 H1200 0.959 . S
C1216 H1201 0.959 . S
C1216 H1202 0.961 . S
C1216 C1215 1.502 . S
C1217 H1203 0.960 . S
C1217 H1204 0.961 . S
C1217 H1205 0.959 . S
C1217 C1215 1.561 . S
C1218 C1215 1.526 1_554 S
C1218 C1219 1.396 . S
C1218 C1223 1.390 . S
C1219 C1213 1.465 . S
C1219 C1218 1.396 . S
C1219 C1220 1.399 . S
C1220 H1206 0.929 . S
C1220 C1219 1.399 . S
C1220 C1221 1.385 . S
C1221 H1207 0.931 . S
C1221 C1220 1.385 . S
C1221 C1222 1.389 . S
C1222 C1221 1.389 . S
C1222 C1223 1.387 . S
C1223 H1208 0.930 1_554 S
C1223 C1218 1.390 . S
C1223 C1222 1.387 . S
H1224 C1236 0.930 1_556 S
H1225 C1238 0.930 . S
H1226 C1239 0.930 . S
H1227 C1243 0.959 . S
H1228 C1243 0.959 . S
H1229 C1243 0.961 . S
H1230 C1244 0.960 . S
H1231 C1244 0.961 . S
H1232 C1244 0.959 . S
H1233 C1247 0.929 . S
H1234 C1248 0.931 . S
H1235 C1250 0.930 1_556 S
C1236 H1224 0.930 1_554 S
C1236 C1237 1.399 . S
C1236 C1241 1.399 . S
C1237 C1236 1.399 . S
C1237 C1238 1.376 . S
C1238 H1225 0.930 . S
C1238 C1237 1.376 . S
C1238 C1239 1.388 . S
C1239 H1226 0.930 . S
C1239 C1238 1.388 . S
C1239 C1240 1.390 . S
C1240 C1239 1.390 . S
C1240 C1241 1.394 . S
C1240 C1246 1.465 . S
C1241 C1236 1.399 . S
C1241 C1240 1.394 . S
C1241 C1242 1.516 1_554 S
C1242 C1241 1.516 1_556 S
C1242 C1243 1.502 . S
C1242 C1244 1.561 . S
C1242 C1245 1.526 1_556 S
C1243 H1227 0.959 . S
C1243 H1228 0.959 . S
C1243 H1229 0.961 . S
C1243 C1242 1.502 . S
C1244 H1230 0.960 . S
C1244 H1231 0.961 . S
C1244 H1232 0.959 . S
C1244 C1242 1.561 . S
C1245 C1242 1.526 1_554 S
C1245 C1246 1.396 . S
C1245 C1250 1.390 . S
C1246 C1240 1.465 . S
C1246 C1245 1.396 . S
C1246 C1247 1.399 . S
C1247 H1233 0.929 . S
C1247 C1246 1.399 . S
C1247 C1248 1.385 . S
C1248 H1234 0.931 . S
C1248 C1247 1.385 . S
C1248 C1249 1.389 . S
C1249 C1248 1.389 . S
C1249 C1250 1.387 . S
C1250 H1235 0.930 1_554 S
C1250 C1245 1.390 . S
C1250 C1249 1.387 . S
H1251 C1263 0.930 . S
H1252 C1265 0.930 . S
H1253 C1266 0.930 . S
H1254 C1270 0.959 . S
H1255 C1270 0.959 . S
H1256 C1270 0.961 . S
H1257 C1271 0.960 . S
H1258 C1271 0.961 . S
H1259 C1271 0.959 . S
H1260 C1274 0.929 . S
H1261 C1275 0.931 . S
H1262 C1277 0.930 . S
C1263 H1251 0.930 . S
C1263 C1264 1.399 . S
C1263 C1268 1.399 . S
C1264 C1263 1.399 . S
C1264 C1265 1.376 1_554 S
C1265 H1252 0.930 . S
C1265 C1264 1.376 1_556 S
C1265 C1266 1.388 . S
C1266 H1253 0.930 . S
C1266 C1265 1.388 . S
C1266 C1267 1.390 1_556 S
C1267 C1266 1.390 1_554 S
C1267 C1268 1.394 . S
C1267 C1273 1.465 . S
C1268 C1263 1.399 . S
C1268 C1267 1.394 . S
C1268 C1269 1.516 . S
C1269 C1268 1.516 . S
C1269 C1270 1.502 . S
C1269 C1271 1.561 . S
C1269 C1272 1.526 . S
C1270 H1254 0.959 . S
C1270 H1255 0.959 . S
C1270 H1256 0.961 . S
C1270 C1269 1.502 . S
C1271 H1257 0.960 . S
C1271 H1258 0.961 . S
C1271 H1259 0.959 . S
C1271 C1269 1.561 . S
C1272 C1269 1.526 . S
C1272 C1273 1.396 . S
C1272 C1277 1.390 . S
C1273 C1267 1.465 . S
C1273 C1272 1.396 . S
C1273 C1274 1.399 1_554 S
C1274 H1260 0.929 . S
C1274 C1273 1.399 1_556 S
C1274 C1275 1.385 . S
C1275 H1261 0.931 . S
C1275 C1274 1.385 . S
C1275 C1276 1.389 1_556 S
C1276 C1275 1.389 1_554 S
C1276 C1277 1.387 . S
C1277 H1262 0.930 . S
C1277 C1272 1.390 . S
C1277 C1276 1.387 . S
H1278 C1290 0.930 . S
H1279 C1292 0.930 . S
H1280 C1293 0.930 . S
H1281 C1297 0.959 . S
H1282 C1297 0.959 . S
H1283 C1297 0.961 . S
H1284 C1298 0.960 . S
H1285 C1298 0.961 . S
H1286 C1298 0.959 . S
H1287 C1301 0.929 . S
H1288 C1302 0.931 . S
H1289 C1304 0.930 . S
C1290 H1278 0.930 . S
C1290 C1291 1.399 . S
C1290 C1295 1.399 . S
C1291 C1290 1.399 . S
C1291 C1292 1.376 . S
C1292 H1279 0.930 . S
C1292 C1291 1.376 . S
C1292 C1293 1.388 . S
C1293 H1280 0.930 . S
C1293 C1292 1.388 . S
C1293 C1294 1.390 . S
C1294 C1293 1.390 . S
C1294 C1295 1.394 . S
C1294 C1300 1.465 . S
C1295 C1290 1.399 . S
C1295 C1294 1.394 . S
C1295 C1296 1.516 . S
C1296 C1295 1.516 . S
C1296 C1297 1.502 . S
C1296 C1298 1.561 . S
C1296 C1299 1.526 . S
C1297 H1281 0.959 . S
C1297 H1282 0.959 . S
C1297 H1283 0.961 . S
C1297 C1296 1.502 . S
C1298 H1284 0.960 . S
C1298 H1285 0.961 . S
C1298 H1286 0.959 . S
C1298 C1296 1.561 . S
C1299 C1296 1.526 . S
C1299 C1300 1.396 . S
C1299 C1304 1.390 . S
C1300 C1294 1.465 . S
C1300 C1299 1.396 . S
C1300 C1301 1.399 . S
C1301 H1287 0.929 . S
C1301 C1300 1.399 . S
C1301 C1302 1.385 . S
C1302 H1288 0.931 . S
C1302 C1301 1.385 . S
C1302 C1303 1.389 . S
C1303 C1302 1.389 . S
C1303 C1304 1.387 . S
C1304 H1289 0.930 . S
C1304 C1299 1.390 . S
C1304 C1303 1.387 . S
H1305 C1317 0.930 . S
H1306 C1319 0.930 . S
H1307 C1320 0.930 . S
H1308 C1324 0.959 . S
H1309 C1324 0.959 . S
H1310 C1324 0.961 . S
H1311 C1325 0.960 . S
H1312 C1325 0.961 . S
H1313 C1325 0.959 . S
H1314 C1328 0.929 . S
H1315 C1329 0.931 . S
H1316 C1331 0.930 . S
C1317 H1305 0.930 . S
C1317 C1318 1.399 . S
C1317 C1322 1.399 . S
C1318 C1317 1.399 . S
C1318 C1319 1.376 . S
C1319 H1306 0.930 . S
C1319 C1318 1.376 . S
C1319 C1320 1.388 . S
C1320 H1307 0.930 . S
C1320 C1319 1.388 . S
C1320 C1321 1.390 . S
C1321 C1320 1.390 . S
C1321 C1322 1.394 . S
C1321 C1327 1.465 . S
C1322 C1317 1.399 . S
C1322 C1321 1.394 . S
C1322 C1323 1.516 . S
C1323 C1322 1.516 . S
C1323 C1324 1.502 . S
C1323 C1325 1.561 . S
C1323 C1326 1.526 . S
C1324 H1308 0.959 . S
C1324 H1309 0.959 . S
C1324 H1310 0.961 . S
C1324 C1323 1.502 . S
C1325 H1311 0.960 . S
C1325 H1312 0.961 . S
C1325 H1313 0.959 . S
C1325 C1323 1.561 . S
C1326 C1323 1.526 . S
C1326 C1327 1.396 . S
C1326 C1331 1.390 . S
C1327 C1321 1.465 . S
C1327 C1326 1.396 . S
C1327 C1328 1.399 . S
C1328 H1314 0.929 . S
C1328 C1327 1.399 . S
C1328 C1329 1.385 . S
C1329 H1315 0.931 . S
C1329 C1328 1.385 . S
C1329 C1330 1.389 . S
C1330 C1329 1.389 . S
C1330 C1331 1.387 . S
C1331 H1316 0.930 . S
C1331 C1326 1.390 . S
C1331 C1330 1.387 . S
H1332 C1344 0.930 . S
H1333 C1346 0.930 . S
H1334 C1347 0.930 . S
H1335 C1351 0.959 . S
H1336 C1351 0.959 . S
H1337 C1351 0.961 . S
H1338 C1352 0.960 . S
H1339 C1352 0.961 . S
H1340 C1352 0.959 . S
H1341 C1355 0.929 . S
H1342 C1356 0.931 . S
H1343 C1358 0.930 . S
C1344 H1332 0.930 . S
C1344 C1345 1.399 . S
C1344 C1349 1.399 . S
C1345 C1344 1.399 . S
C1345 C1346 1.376 . S
C1346 H1333 0.930 . S
C1346 C1345 1.376 . S
C1346 C1347 1.388 . S
C1347 H1334 0.930 . S
C1347 C1346 1.388 . S
C1347 C1348 1.390 . S
C1348 C1347 1.390 . S
C1348 C1349 1.394 . S
C1348 C1354 1.465 . S
C1349 C1344 1.399 . S
C1349 C1348 1.394 . S
C1349 C1350 1.516 . S
C1350 C1349 1.516 . S
C1350 C1351 1.502 . S
C1350 C1352 1.561 . S
C1350 C1353 1.526 . S
C1351 H1335 0.959 . S
C1351 H1336 0.959 . S
C1351 H1337 0.961 . S
C1351 C1350 1.502 . S
C1352 H1338 0.960 . S
C1352 H1339 0.961 . S
C1352 H1340 0.959 . S
C1352 C1350 1.561 . S
C1353 C1350 1.526 . S
C1353 C1354 1.396 . S
C1353 C1358 1.390 . S
C1354 C1348 1.465 . S
C1354 C1353 1.396 . S
C1354 C1355 1.399 . S
C1355 H1341 0.929 . S
C1355 C1354 1.399 . S
C1355 C1356 1.385 . S
C1356 H1342 0.931 . S
C1356 C1355 1.385 . S
C1356 C1357 1.389 . S
C1357 C1356 1.389 . S
C1357 C1358 1.387 . S
C1358 H1343 0.930 . S
C1358 C1353 1.390 . S
C1358 C1357 1.387 . S
H1359 C1371 0.930 . S
H1360 C1373 0.930 . S
H1361 C1374 0.930 . S
H1362 C1378 0.959 . S
H1363 C1378 0.959 . S
H1364 C1378 0.961 . S
H1365 C1379 0.960 . S
H1366 C1379 0.961 . S
H1367 C1379 0.959 . S
H1368 C1382 0.929 . S
H1369 C1383 0.931 . S
H1370 C1385 0.930 . S
C1371 H1359 0.930 . S
C1371 C1372 1.399 . S
C1371 C1376 1.399 . S
C1372 C1371 1.399 . S
C1372 C1373 1.376 . S
C1373 H1360 0.930 . S
C1373 C1372 1.376 . S
C1373 C1374 1.388 . S
C1374 H1361 0.930 . S
C1374 C1373 1.388 . S
C1374 C1375 1.390 . S
C1375 C1374 1.390 . S
C1375 C1376 1.394 . S
C1375 C1381 1.465 . S
C1376 C1371 1.399 . S
C1376 C1375 1.394 . S
C1376 C1377 1.516 . S
C1377 C1376 1.516 . S
C1377 C1378 1.502 . S
C1377 C1379 1.561 . S
C1377 C1380 1.526 . S
C1378 H1362 0.959 . S
C1378 H1363 0.959 . S
C1378 H1364 0.961 . S
C1378 C1377 1.502 . S
C1379 H1365 0.960 . S
C1379 H1366 0.961 . S
C1379 H1367 0.959 . S
C1379 C1377 1.561 . S
C1380 C1377 1.526 . S
C1380 C1381 1.396 . S
C1380 C1385 1.390 . S
C1381 C1375 1.465 . S
C1381 C1380 1.396 . S
C1381 C1382 1.399 . S
C1382 H1368 0.929 . S
C1382 C1381 1.399 . S
C1382 C1383 1.385 . S
C1383 H1369 0.931 . S
C1383 C1382 1.385 . S
C1383 C1384 1.389 . S
C1384 C1383 1.389 . S
C1384 C1385 1.387 . S
C1385 H1370 0.930 . S
C1385 C1380 1.390 . S
C1385 C1384 1.387 . S
H1386 C1398 0.930 . S
H1387 C1400 0.930 . S
H1388 C1401 0.930 . S
H1389 C1405 0.959 . S
H1390 C1405 0.959 . S
H1391 C1405 0.961 . S
H1392 C1406 0.960 . S
H1393 C1406 0.961 . S
H1394 C1406 0.959 . S
H1395 C1409 0.929 . S
H1396 C1410 0.931 . S
H1397 C1412 0.930 . S
C1398 H1386 0.930 . S
C1398 C1399 1.399 . S
C1398 C1403 1.399 . S
C1399 C1398 1.399 . S
C1399 C1400 1.376 . S
C1400 H1387 0.930 . S
C1400 C1399 1.376 . S
C1400 C1401 1.388 . S
C1401 H1388 0.930 . S
C1401 C1400 1.388 . S
C1401 C1402 1.390 . S
C1402 C1401 1.390 . S
C1402 C1403 1.394 . S
C1402 C1408 1.465 . S
C1403 C1398 1.399 . S
C1403 C1402 1.394 . S
C1403 C1404 1.516 . S
C1404 C1403 1.516 . S
C1404 C1405 1.502 . S
C1404 C1406 1.561 . S
C1404 C1407 1.526 . S
C1405 H1389 0.959 . S
C1405 H1390 0.959 . S
C1405 H1391 0.961 . S
C1405 C1404 1.502 . S
C1406 H1392 0.960 . S
C1406 H1393 0.961 . S
C1406 H1394 0.959 . S
C1406 C1404 1.561 . S
C1407 C1404 1.526 . S
C1407 C1408 1.396 . S
C1407 C1412 1.390 . S
C1408 C1402 1.465 . S
C1408 C1407 1.396 . S
C1408 C1409 1.399 . S
C1409 H1395 0.929 . S
C1409 C1408 1.399 . S
C1409 C1410 1.385 . S
C1410 H1396 0.931 . S
C1410 C1409 1.385 . S
C1410 C1411 1.389 . S
C1411 C1410 1.389 . S
C1411 C1412 1.387 . S
C1412 H1397 0.930 . S
C1412 C1407 1.390 . S
C1412 C1411 1.387 . S
H1413 C1425 0.930 . S
H1414 C1427 0.930 . S
H1415 C1428 0.930 . S
H1416 C1432 0.959 . S
H1417 C1432 0.959 . S
H1418 C1432 0.961 . S
H1419 C1433 0.960 . S
H1420 C1433 0.961 . S
H1421 C1433 0.959 . S
H1422 C1436 0.929 . S
H1423 C1437 0.931 . S
H1424 C1439 0.930 . S
C1425 H1413 0.930 . S
C1425 C1426 1.399 . S
C1425 C1430 1.399 . S
C1426 C1425 1.399 . S
C1426 C1427 1.376 . S
C1427 H1414 0.930 . S
C1427 C1426 1.376 . S
C1427 C1428 1.388 . S
C1428 H1415 0.930 . S
C1428 C1427 1.388 . S
C1428 C1429 1.390 . S
C1429 C1428 1.390 . S
C1429 C1430 1.394 . S
C1429 C1435 1.465 . S
C1430 C1425 1.399 . S
C1430 C1429 1.394 . S
C1430 C1431 1.516 . S
C1431 C1430 1.516 . S
C1431 C1432 1.502 . S
C1431 C1433 1.561 . S
C1431 C1434 1.526 . S
C1432 H1416 0.959 . S
C1432 H1417 0.959 . S
C1432 H1418 0.961 . S
C1432 C1431 1.502 . S
C1433 H1419 0.960 . S
C1433 H1420 0.961 . S
C1433 H1421 0.959 . S
C1433 C1431 1.561 . S
C1434 C1431 1.526 . S
C1434 C1435 1.396 . S
C1434 C1439 1.390 . S
C1435 C1429 1.465 . S
C1435 C1434 1.396 . S
C1435 C1436 1.399 . S
C1436 H1422 0.929 . S
C1436 C1435 1.399 . S
C1436 C1437 1.385 . S
C1437 H1423 0.931 . S
C1437 C1436 1.385 . S
C1437 C1438 1.389 . S
C1438 C1437 1.389 . S
C1438 C1439 1.387 . S
C1439 H1424 0.930 . S
C1439 C1434 1.390 . S
C1439 C1438 1.387 . S
H1440 C1452 0.930 . S
H1441 C1454 0.930 . S
H1442 C1455 0.930 . S
H1443 C1459 0.959 . S
H1444 C1459 0.959 . S
H1445 C1459 0.961 . S
H1446 C1460 0.960 . S
H1447 C1460 0.961 . S
H1448 C1460 0.959 . S
H1449 C1463 0.929 . S
H1450 C1464 0.931 . S
H1451 C1466 0.930 . S
C1452 H1440 0.930 . S
C1452 C1453 1.399 . S
C1452 C1457 1.399 . S
C1453 C1452 1.399 . S
C1453 C1454 1.376 . S
C1454 H1441 0.930 . S
C1454 C1453 1.376 . S
C1454 C1455 1.388 . S
C1455 H1442 0.930 . S
C1455 C1454 1.388 . S
C1455 C1456 1.390 . S
C1456 C1455 1.390 . S
C1456 C1457 1.394 . S
C1456 C1462 1.465 . S
C1457 C1452 1.399 . S
C1457 C1456 1.394 . S
C1457 C1458 1.516 . S
C1458 C1457 1.516 . S
C1458 C1459 1.502 . S
C1458 C1460 1.561 . S
C1458 C1461 1.526 . S
C1459 H1443 0.959 . S
C1459 H1444 0.959 . S
C1459 H1445 0.961 . S
C1459 C1458 1.502 . S
C1460 H1446 0.960 . S
C1460 H1447 0.961 . S
C1460 H1448 0.959 . S
C1460 C1458 1.561 . S
C1461 C1458 1.526 . S
C1461 C1462 1.396 . S
C1461 C1466 1.390 . S
C1462 C1456 1.465 . S
C1462 C1461 1.396 . S
C1462 C1463 1.399 . S
C1463 H1449 0.929 . S
C1463 C1462 1.399 . S
C1463 C1464 1.385 . S
C1464 H1450 0.931 . S
C1464 C1463 1.385 . S
C1464 C1465 1.389 . S
C1465 C1464 1.389 . S
C1465 C1466 1.387 . S
C1466 H1451 0.930 . S
C1466 C1461 1.390 . S
C1466 C1465 1.387 . S
H1467 C1479 0.930 . S
H1468 C1481 0.930 . S
H1469 C1482 0.930 . S
H1470 C1486 0.959 . S
H1471 C1486 0.959 . S
H1472 C1486 0.961 . S
H1473 C1487 0.960 . S
H1474 C1487 0.961 . S
H1475 C1487 0.959 . S
H1476 C1490 0.929 . S
H1477 C1491 0.931 . S
H1478 C1493 0.930 . S
C1479 H1467 0.930 . S
C1479 C1480 1.399 1_565 S
C1479 C1484 1.399 . S
C1480 C1479 1.399 1_545 S
C1480 C1481 1.376 . S
C1481 H1468 0.930 . S
C1481 C1480 1.376 . S
C1481 C1482 1.388 . S
C1482 H1469 0.930 . S
C1482 C1481 1.388 . S
C1482 C1483 1.390 . S
C1483 C1482 1.390 . S
C1483 C1484 1.394 1_545 S
C1483 C1489 1.465 . S
C1484 C1479 1.399 . S
C1484 C1483 1.394 1_565 S
C1484 C1485 1.516 . S
C1485 C1484 1.516 . S
C1485 C1486 1.502 . S
C1485 C1487 1.561 . S
C1485 C1488 1.526 . S
C1486 H1470 0.959 . S
C1486 H1471 0.959 . S
C1486 H1472 0.961 . S
C1486 C1485 1.502 . S
C1487 H1473 0.960 . S
C1487 H1474 0.961 . S
C1487 H1475 0.959 . S
C1487 C1485 1.561 . S
C1488 C1485 1.526 . S
C1488 C1489 1.396 1_565 S
C1488 C1493 1.390 . S
C1489 C1483 1.465 . S
C1489 C1488 1.396 1_545 S
C1489 C1490 1.399 . S
C1490 H1476 0.929 . S
C1490 C1489 1.399 . S
C1490 C1491 1.385 . S
C1491 H1477 0.931 . S
C1491 C1490 1.385 . S
C1491 C1492 1.389 1_545 S
C1492 C1491 1.389 1_565 S
C1492 C1493 1.387 . S
C1493 H1478 0.930 . S
C1493 C1488 1.390 . S
C1493 C1492 1.387 . S
H1494 C1506 0.930 . S
H1495 C1508 0.930 . S
H1496 C1509 0.930 . S
H1497 C1513 0.959 . S
H1498 C1513 0.959 . S
H1499 C1513 0.961 . S
H1500 C1514 0.960 . S
H1501 C1514 0.961 . S
H1502 C1514 0.959 . S
H1503 C1517 0.928 1_455 S
H1504 C1518 0.931 . S
H1505 C1520 0.930 . S
C1506 H1494 0.930 . S
C1506 C1507 1.399 . S
C1506 C1511 1.399 . S
C1507 C1506 1.399 . S
C1507 C1508 1.376 . S
C1508 H1495 0.930 . S
C1508 C1507 1.376 . S
C1508 C1509 1.388 . S
C1509 H1496 0.930 . S
C1509 C1508 1.388 . S
C1509 C1510 1.390 . S
C1510 C1509 1.390 . S
C1510 C1511 1.394 . S
C1510 C1516 1.467 . S
C1511 C1506 1.399 . S
C1511 C1510 1.394 . S
C1511 C1512 1.522 . S
C1512 C1511 1.522 . S
C1512 C1513 1.487 1_455 S
C1512 C1514 1.568 . S
C1512 C1515 1.530 1_455 S
C1513 H1497 0.959 . S
C1513 H1498 0.959 . S
C1513 H1499 0.961 . S
C1513 C1512 1.487 1_655 S
C1514 H1500 0.960 . S
C1514 H1501 0.961 . S
C1514 H1502 0.959 . S
C1514 C1512 1.568 . S
C1515 C1512 1.530 1_655 S
C1515 C1516 1.384 1_655 S
C1515 C1520 1.390 . S
C1516 C1510 1.467 . S
C1516 C1515 1.384 1_455 S
C1516 C1517 1.408 1_455 S
C1517 H1503 0.928 1_655 S
C1517 C1516 1.408 1_655 S
C1517 C1518 1.386 . S
C1518 H1504 0.931 . S
C1518 C1517 1.386 . S
C1518 C1519 1.389 . S
C1519 C1518 1.389 . S
C1519 C1520 1.387 . S
C1520 H1505 0.930 . S
C1520 C1515 1.390 . S
C1520 C1519 1.387 . S
H1521 C1533 0.930 . S
H1522 C1535 0.930 . S
H1523 C1536 0.930 . S
H1524 C1540 0.959 . S
H1525 C1540 0.959 . S
H1526 C1540 0.961 . S
H1527 C1541 0.960 . S
H1528 C1541 0.961 . S
H1529 C1541 0.959 . S
H1530 C1544 0.929 . S
H1531 C1545 0.931 . S
H1532 C1547 0.930 . S
C1533 H1521 0.930 . S
C1533 C1534 1.399 . S
C1533 C1538 1.399 . S
C1534 C1533 1.399 . S
C1534 C1535 1.376 . S
C1535 H1522 0.930 . S
C1535 C1534 1.376 . S
C1535 C1536 1.388 . S
C1536 H1523 0.930 . S
C1536 C1535 1.388 . S
C1536 C1537 1.390 . S
C1537 C1536 1.390 . S
C1537 C1538 1.394 . S
C1537 C1543 1.465 . S
C1538 C1533 1.399 . S
C1538 C1537 1.394 . S
C1538 C1539 1.516 . S
C1539 C1538 1.516 . S
C1539 C1540 1.502 . S
C1539 C1541 1.561 . S
C1539 C1542 1.526 . S
C1540 H1524 0.959 . S
C1540 H1525 0.959 . S
C1540 H1526 0.961 . S
C1540 C1539 1.502 . S
C1541 H1527 0.960 . S
C1541 H1528 0.961 . S
C1541 H1529 0.959 . S
C1541 C1539 1.561 . S
C1542 C1539 1.526 . S
C1542 C1543 1.396 . S
C1542 C1547 1.390 . S
C1543 C1537 1.465 . S
C1543 C1542 1.396 . S
C1543 C1544 1.399 . S
C1544 H1530 0.929 . S
C1544 C1543 1.399 . S
C1544 C1545 1.385 . S
C1545 H1531 0.931 . S
C1545 C1544 1.385 . S
C1545 C1546 1.389 . S
C1546 C1545 1.389 . S
C1546 C1547 1.387 . S
C1547 H1532 0.930 . S
C1547 C1542 1.390 . S
C1547 C1546 1.387 . S
H1548 C1560 0.930 . S
H1549 C1562 0.930 . S
H1550 C1563 0.930 . S
H1551 C1567 0.959 . S
H1552 C1567 0.959 . S
H1553 C1567 0.961 . S
H1554 C1568 0.960 . S
H1555 C1568 0.961 . S
H1556 C1568 0.959 . S
H1557 C1571 0.929 . S
H1558 C1572 0.931 . S
H1559 C1574 0.930 . S
C1560 H1548 0.930 . S
C1560 C1561 1.399 . S
C1560 C1565 1.399 . S
C1561 C1560 1.399 . S
C1561 C1562 1.376 1_565 S
C1562 H1549 0.930 . S
C1562 C1561 1.376 1_545 S
C1562 C1563 1.388 . S
C1563 H1550 0.930 . S
C1563 C1562 1.388 . S
C1563 C1564 1.390 . S
C1564 C1563 1.390 . S
C1564 C1565 1.394 1_545 S
C1564 C1570 1.465 . S
C1565 C1560 1.399 . S
C1565 C1564 1.394 1_565 S
C1565 C1566 1.516 . S
C1566 C1565 1.516 . S
C1566 C1567 1.502 . S
C1566 C1568 1.561 . S
C1566 C1569 1.526 . S
C1567 H1551 0.959 . S
C1567 H1552 0.959 . S
C1567 H1553 0.961 . S
C1567 C1566 1.502 . S
C1568 H1554 0.960 . S
C1568 H1555 0.961 . S
C1568 H1556 0.959 . S
C1568 C1566 1.561 . S
C1569 C1566 1.526 . S
C1569 C1570 1.396 1_565 S
C1569 C1574 1.390 . S
C1570 C1564 1.465 . S
C1570 C1569 1.396 1_545 S
C1570 C1571 1.399 . S
C1571 H1557 0.929 . S
C1571 C1570 1.399 . S
C1571 C1572 1.385 . S
C1572 H1558 0.931 . S
C1572 C1571 1.385 . S
C1572 C1573 1.389 . S
C1573 C1572 1.389 . S
C1573 C1574 1.387 1_545 S
C1574 H1559 0.930 . S
C1574 C1569 1.390 . S
C1574 C1573 1.387 1_565 S
H1575 C1587 0.930 . S
H1576 C1589 0.930 . S
H1577 C1590 0.930 . S
H1578 C1594 0.959 . S
H1579 C1594 0.959 . S
H1580 C1594 0.961 . S
H1581 C1595 0.960 . S
H1582 C1595 0.961 . S
H1583 C1595 0.959 . S
H1584 C1598 0.929 . S
H1585 C1599 0.931 . S
H1586 C1601 0.930 . S
C1587 H1575 0.930 . S
C1587 C1588 1.399 . S
C1587 C1592 1.399 . S
C1588 C1587 1.399 . S
C1588 C1589 1.376 1_655 S
C1589 H1576 0.930 . S
C1589 C1588 1.376 1_455 S
C1589 C1590 1.388 . S
C1590 H1577 0.930 . S
C1590 C1589 1.388 . S
C1590 C1591 1.390 . S
C1591 C1590 1.390 . S
C1591 C1592 1.394 1_455 S
C1591 C1597 1.465 . S
C1592 C1587 1.399 . S
C1592 C1591 1.394 1_655 S
C1592 C1593 1.516 . S
C1593 C1592 1.516 . S
C1593 C1594 1.502 . S
C1593 C1595 1.561 . S
C1593 C1596 1.526 . S
C1594 H1578 0.959 . S
C1594 H1579 0.959 . S
C1594 H1580 0.961 . S
C1594 C1593 1.502 . S
C1595 H1581 0.960 . S
C1595 H1582 0.961 . S
C1595 H1583 0.959 . S
C1595 C1593 1.561 . S
C1596 C1593 1.526 . S
C1596 C1597 1.396 1_655 S
C1596 C1601 1.390 . S
C1597 C1591 1.465 . S
C1597 C1596 1.396 1_455 S
C1597 C1598 1.399 . S
C1598 H1584 0.929 . S
C1598 C1597 1.399 . S
C1598 C1599 1.385 . S
C1599 H1585 0.931 . S
C1599 C1598 1.385 . S
C1599 C1600 1.389 . S
C1600 C1599 1.389 . S
C1600 C1601 1.387 1_455 S
C1601 H1586 0.930 . S
C1601 C1596 1.390 . S
C1601 C1600 1.387 1_655 S
H1602 C1614 0.930 . S
H1603 C1616 0.930 . S
H1604 C1617 0.930 . S
H1605 C1621 0.959 . S
H1606 C1621 0.959 . S
H1607 C1621 0.961 . S
H1608 C1622 0.960 . S
H1609 C1622 0.961 . S
H1610 C1622 0.959 . S
H1611 C1625 0.929 . S
H1612 C1626 0.931 . S
H1613 C1628 0.930 . S
C1614 H1602 0.930 . S
C1614 C1615 1.399 . S
C1614 C1619 1.399 . S
C1615 C1614 1.399 . S
C1615 C1616 1.376 . S
C1616 H1603 0.930 . S
C1616 C1615 1.376 . S
C1616 C1617 1.388 . S
C1617 H1604 0.930 . S
C1617 C1616 1.388 . S
C1617 C1618 1.390 . S
C1618 C1617 1.390 . S
C1618 C1619 1.394 . S
C1618 C1624 1.465 . S
C1619 C1614 1.399 . S
C1619 C1618 1.394 . S
C1619 C1620 1.516 . S
C1620 C1619 1.516 . S
C1620 C1621 1.502 . S
C1620 C1622 1.561 . S
C1620 C1623 1.526 . S
C1621 H1605 0.959 . S
C1621 H1606 0.959 . S
C1621 H1607 0.961 . S
C1621 C1620 1.502 . S
C1622 H1608 0.960 . S
C1622 H1609 0.961 . S
C1622 H1610 0.959 . S
C1622 C1620 1.561 . S
C1623 C1620 1.526 . S
C1623 C1624 1.396 . S
C1623 C1628 1.390 . S
C1624 C1618 1.465 . S
C1624 C1623 1.396 . S
C1624 C1625 1.399 . S
C1625 H1611 0.929 . S
C1625 C1624 1.399 . S
C1625 C1626 1.385 . S
C1626 H1612 0.931 . S
C1626 C1625 1.385 . S
C1626 C1627 1.389 . S
C1627 C1626 1.389 . S
C1627 C1628 1.387 . S
C1628 H1613 0.930 . S
C1628 C1623 1.390 . S
C1628 C1627 1.387 . S
H1629 C1641 0.930 . S
H1630 C1643 0.930 . S
H1631 C1644 0.930 . S
H1632 C1648 0.959 . S
H1633 C1648 0.959 . S
H1634 C1648 0.961 . S
H1635 C1649 0.960 . S
H1636 C1649 0.961 . S
H1637 C1649 0.959 . S
H1638 C1652 0.929 . S
H1639 C1653 0.931 . S
H1640 C1655 0.930 . S
C1641 H1629 0.930 . S
C1641 C1642 1.399 . S
C1641 C1646 1.399 . S
C1642 C1641 1.399 . S
C1642 C1643 1.376 . S
C1643 H1630 0.930 . S
C1643 C1642 1.376 . S
C1643 C1644 1.388 . S
C1644 H1631 0.930 . S
C1644 C1643 1.388 . S
C1644 C1645 1.390 . S
C1645 C1644 1.390 . S
C1645 C1646 1.394 . S
C1645 C1651 1.465 . S
C1646 C1641 1.399 . S
C1646 C1645 1.394 . S
C1646 C1647 1.516 . S
C1647 C1646 1.516 . S
C1647 C1648 1.502 . S
C1647 C1649 1.561 . S
C1647 C1650 1.526 . S
C1648 H1632 0.959 . S
C1648 H1633 0.959 . S
C1648 H1634 0.961 . S
C1648 C1647 1.502 . S
C1649 H1635 0.960 . S
C1649 H1636 0.961 . S
C1649 H1637 0.959 . S
C1649 C1647 1.561 . S
C1650 C1647 1.526 . S
C1650 C1651 1.396 . S
C1650 C1655 1.390 . S
C1651 C1645 1.465 . S
C1651 C1650 1.396 . S
C1651 C1652 1.399 . S
C1652 H1638 0.929 . S
C1652 C1651 1.399 . S
C1652 C1653 1.385 . S
C1653 H1639 0.931 . S
C1653 C1652 1.385 . S
C1653 C1654 1.389 . S
C1654 C1653 1.389 . S
C1654 C1655 1.387 . S
C1655 H1640 0.930 . S
C1655 C1650 1.390 . S
C1655 C1654 1.387 . S
H1656 C1668 0.930 . S
H1657 C1670 0.930 . S
H1658 C1671 0.930 . S
H1659 C1675 0.959 . S
H1660 C1675 0.959 . S
H1661 C1675 0.961 . S
H1662 C1676 0.960 . S
H1663 C1676 0.961 . S
H1664 C1676 0.959 . S
H1665 C1679 0.929 . S
H1666 C1680 0.931 . S
H1667 C1682 0.930 . S
C1668 H1656 0.930 . S
C1668 C1669 1.399 . S
C1668 C1673 1.399 . S
C1669 C1668 1.399 . S
C1669 C1670 1.376 . S
C1670 H1657 0.930 . S
C1670 C1669 1.376 . S
C1670 C1671 1.388 . S
C1671 H1658 0.930 . S
C1671 C1670 1.388 . S
C1671 C1672 1.390 . S
C1672 C1671 1.390 . S
C1672 C1673 1.394 . S
C1672 C1678 1.465 . S
C1673 C1668 1.399 . S
C1673 C1672 1.394 . S
C1673 C1674 1.516 . S
C1674 C1673 1.516 . S
C1674 C1675 1.502 . S
C1674 C1676 1.561 . S
C1674 C1677 1.526 . S
C1675 H1659 0.959 . S
C1675 H1660 0.959 . S
C1675 H1661 0.961 . S
C1675 C1674 1.502 . S
C1676 H1662 0.960 . S
C1676 H1663 0.961 . S
C1676 H1664 0.959 . S
C1676 C1674 1.561 . S
C1677 C1674 1.526 . S
C1677 C1678 1.396 . S
C1677 C1682 1.390 . S
C1678 C1672 1.465 . S
C1678 C1677 1.396 . S
C1678 C1679 1.399 . S
C1679 H1665 0.929 . S
C1679 C1678 1.399 . S
C1679 C1680 1.385 . S
C1680 H1666 0.931 . S
C1680 C1679 1.385 . S
C1680 C1681 1.389 . S
C1681 C1680 1.389 . S
C1681 C1682 1.387 . S
C1682 H1667 0.930 . S
C1682 C1677 1.390 . S
C1682 C1681 1.387 . S
H1683 C1695 0.930 . S
H1684 C1697 0.930 . S
H1685 C1698 0.930 . S
H1686 C1702 0.959 . S
H1687 C1702 0.959 . S
H1688 C1702 0.961 . S
H1689 C1703 0.960 . S
H1690 C1703 0.961 . S
H1691 C1703 0.959 . S
H1692 C1706 0.929 . S
H1693 C1707 0.931 . S
H1694 C1709 0.930 . S
C1695 H1683 0.930 . S
C1695 C1696 1.399 . S
C1695 C1700 1.399 . S
C1696 C1695 1.399 . S
C1696 C1697 1.376 . S
C1697 H1684 0.930 . S
C1697 C1696 1.376 . S
C1697 C1698 1.388 . S
C1698 H1685 0.930 . S
C1698 C1697 1.388 . S
C1698 C1699 1.390 . S
C1699 C1698 1.390 . S
C1699 C1700 1.394 . S
C1699 C1705 1.465 . S
C1700 C1695 1.399 . S
C1700 C1699 1.394 . S
C1700 C1701 1.516 . S
C1701 C1700 1.516 . S
C1701 C1702 1.502 . S
C1701 C1703 1.561 . S
C1701 C1704 1.526 . S
C1702 H1686 0.959 . S
C1702 H1687 0.959 . S
C1702 H1688 0.961 . S
C1702 C1701 1.502 . S
C1703 H1689 0.960 . S
C1703 H1690 0.961 . S
C1703 H1691 0.959 . S
C1703 C1701 1.561 . S
C1704 C1701 1.526 . S
C1704 C1705 1.396 . S
C1704 C1709 1.390 . S
C1705 C1699 1.465 . S
C1705 C1704 1.396 . S
C1705 C1706 1.399 . S
C1706 H1692 0.929 . S
C1706 C1705 1.399 . S
C1706 C1707 1.385 . S
C1707 H1693 0.931 . S
C1707 C1706 1.385 . S
C1707 C1708 1.389 . S
C1708 C1707 1.389 . S
C1708 C1709 1.387 . S
C1709 H1694 0.930 . S
C1709 C1704 1.390 . S
C1709 C1708 1.387 . S
H1710 C1722 0.930 . S
H1711 C1724 0.930 . S
H1712 C1725 0.930 . S
H1713 C1729 0.959 . S
H1714 C1729 0.959 . S
H1715 C1729 0.961 . S
H1716 C1730 0.960 . S
H1717 C1730 0.961 . S
H1718 C1730 0.959 . S
H1719 C1733 0.929 . S
H1720 C1734 0.931 . S
H1721 C1736 0.930 . S
C1722 H1710 0.930 . S
C1722 C1723 1.399 . S
C1722 C1727 1.399 . S
C1723 C1722 1.399 . S
C1723 C1724 1.376 . S
C1724 H1711 0.930 . S
C1724 C1723 1.376 . S
C1724 C1725 1.388 . S
C1725 H1712 0.930 . S
C1725 C1724 1.388 . S
C1725 C1726 1.390 . S
C1726 C1725 1.390 . S
C1726 C1727 1.394 . S
C1726 C1732 1.465 . S
C1727 C1722 1.399 . S
C1727 C1726 1.394 . S
C1727 C1728 1.516 . S
C1728 C1727 1.516 . S
C1728 C1729 1.502 . S
C1728 C1730 1.561 . S
C1728 C1731 1.526 . S
C1729 H1713 0.959 . S
C1729 H1714 0.959 . S
C1729 H1715 0.961 . S
C1729 C1728 1.502 . S
C1730 H1716 0.960 . S
C1730 H1717 0.961 . S
C1730 H1718 0.959 . S
C1730 C1728 1.561 . S
C1731 C1728 1.526 . S
C1731 C1732 1.396 . S
C1731 C1736 1.390 . S
C1732 C1726 1.465 . S
C1732 C1731 1.396 . S
C1732 C1733 1.399 . S
C1733 H1719 0.929 . S
C1733 C1732 1.399 . S
C1733 C1734 1.385 . S
C1734 H1720 0.931 . S
C1734 C1733 1.385 . S
C1734 C1735 1.389 . S
C1735 C1734 1.389 . S
C1735 C1736 1.387 . S
C1736 H1721 0.930 . S
C1736 C1731 1.390 . S
C1736 C1735 1.387 . S
H1737 C1749 0.930 . S
H1738 C1751 0.930 . S
H1739 C1752 0.930 . S
H1740 C1756 0.959 . S
H1741 C1756 0.959 . S
H1742 C1756 0.961 . S
H1743 C1757 0.960 . S
H1744 C1757 0.961 . S
H1745 C1757 0.959 . S
H1746 C1760 0.929 . S
H1747 C1761 0.931 . S
H1748 C1763 0.930 . S
C1749 H1737 0.930 . S
C1749 C1750 1.399 . S
C1749 C1754 1.399 . S
C1750 C1749 1.399 . S
C1750 C1751 1.376 . S
C1751 H1738 0.930 . S
C1751 C1750 1.376 . S
C1751 C1752 1.388 . S
C1752 H1739 0.930 . S
C1752 C1751 1.388 . S
C1752 C1753 1.390 . S
C1753 C1752 1.390 . S
C1753 C1754 1.394 . S
C1753 C1759 1.465 . S
C1754 C1749 1.399 . S
C1754 C1753 1.394 . S
C1754 C1755 1.516 . S
C1755 C1754 1.516 . S
C1755 C1756 1.502 . S
C1755 C1757 1.561 . S
C1755 C1758 1.526 . S
C1756 H1740 0.959 . S
C1756 H1741 0.959 . S
C1756 H1742 0.961 . S
C1756 C1755 1.502 . S
C1757 H1743 0.960 . S
C1757 H1744 0.961 . S
C1757 H1745 0.959 . S
C1757 C1755 1.561 . S
C1758 C1755 1.526 . S
C1758 C1759 1.396 . S
C1758 C1763 1.390 . S
C1759 C1753 1.465 . S
C1759 C1758 1.396 . S
C1759 C1760 1.399 . S
C1760 H1746 0.929 . S
C1760 C1759 1.399 . S
C1760 C1761 1.385 . S
C1761 H1747 0.931 . S
C1761 C1760 1.385 . S
C1761 C1762 1.389 . S
C1762 C1761 1.389 . S
C1762 C1763 1.387 . S
C1763 H1748 0.930 . S
C1763 C1758 1.390 . S
C1763 C1762 1.387 . S
H1764 C1776 0.930 . S
H1765 C1778 0.930 . S
H1766 C1779 0.930 . S
H1767 C1783 0.959 . S
H1768 C1783 0.959 . S
H1769 C1783 0.961 . S
H1770 C1784 0.960 . S
H1771 C1784 0.961 . S
H1772 C1784 0.959 . S
H1773 C1787 0.929 . S
H1774 C1788 0.931 . S
H1775 C1790 0.930 . S
C1776 H1764 0.930 . S
C1776 C1777 1.399 . S
C1776 C1781 1.399 . S
C1777 C1776 1.399 . S
C1777 C1778 1.376 . S
C1778 H1765 0.930 . S
C1778 C1777 1.376 . S
C1778 C1779 1.388 . S
C1779 H1766 0.930 . S
C1779 C1778 1.388 . S
C1779 C1780 1.390 . S
C1780 C1779 1.390 . S
C1780 C1781 1.394 . S
C1780 C1786 1.465 . S
C1781 C1776 1.399 . S
C1781 C1780 1.394 . S
C1781 C1782 1.516 . S
C1782 C1781 1.516 . S
C1782 C1783 1.502 . S
C1782 C1784 1.561 . S
C1782 C1785 1.526 . S
C1783 H1767 0.959 . S
C1783 H1768 0.959 . S
C1783 H1769 0.961 . S
C1783 C1782 1.502 . S
C1784 H1770 0.960 . S
C1784 H1771 0.961 . S
C1784 H1772 0.959 . S
C1784 C1782 1.561 . S
C1785 C1782 1.526 . S
C1785 C1786 1.396 . S
C1785 C1790 1.390 . S
C1786 C1780 1.465 . S
C1786 C1785 1.396 . S
C1786 C1787 1.399 . S
C1787 H1773 0.929 . S
C1787 C1786 1.399 . S
C1787 C1788 1.385 . S
C1788 H1774 0.931 . S
C1788 C1787 1.385 . S
C1788 C1789 1.389 . S
C1789 C1788 1.389 . S
C1789 C1790 1.387 . S
C1790 H1775 0.930 . S
C1790 C1785 1.390 . S
C1790 C1789 1.387 . S
H1791 C1803 0.930 . S
H1792 C1805 0.930 . S
H1793 C1806 0.930 . S
H1794 C1810 0.959 . S
H1795 C1810 0.959 . S
H1796 C1810 0.961 . S
H1797 C1811 0.960 . S
H1798 C1811 0.961 . S
H1799 C1811 0.959 . S
H1800 C1814 0.929 . S
H1801 C1815 0.931 . S
H1802 C1817 0.930 . S
C1803 H1791 0.930 . S
C1803 C1804 1.399 . S
C1803 C1808 1.399 . S
C1804 C1803 1.399 . S
C1804 C1805 1.376 . S
C1805 H1792 0.930 . S
C1805 C1804 1.376 . S
C1805 C1806 1.388 . S
C1806 H1793 0.930 . S
C1806 C1805 1.388 . S
C1806 C1807 1.390 . S
C1807 C1806 1.390 . S
C1807 C1808 1.394 . S
C1807 C1813 1.465 . S
C1808 C1803 1.399 . S
C1808 C1807 1.394 . S
C1808 C1809 1.516 . S
C1809 C1808 1.516 . S
C1809 C1810 1.502 . S
C1809 C1811 1.561 . S
C1809 C1812 1.526 . S
C1810 H1794 0.959 . S
C1810 H1795 0.959 . S
C1810 H1796 0.961 . S
C1810 C1809 1.502 . S
C1811 H1797 0.960 . S
C1811 H1798 0.961 . S
C1811 H1799 0.959 . S
C1811 C1809 1.561 . S
C1812 C1809 1.526 . S
C1812 C1813 1.396 . S
C1812 C1817 1.390 . S
C1813 C1807 1.465 . S
C1813 C1812 1.396 . S
C1813 C1814 1.399 . S
C1814 H1800 0.929 . S
C1814 C1813 1.399 . S
C1814 C1815 1.385 . S
C1815 H1801 0.931 . S
C1815 C1814 1.385 . S
C1815 C1816 1.389 . S
C1816 C1815 1.389 . S
C1816 C1817 1.387 . S
C1817 H1802 0.930 . S
C1817 C1812 1.390 . S
C1817 C1816 1.387 . S
H1818 C1830 0.930 . S
H1819 C1832 0.930 . S
H1820 C1833 0.930 . S
H1821 C1837 0.959 . S
H1822 C1837 0.959 . S
H1823 C1837 0.961 . S
H1824 C1838 0.960 . S
H1825 C1838 0.961 . S
H1826 C1838 0.959 . S
H1827 C1841 0.929 . S
H1828 C1842 0.931 . S
H1829 C1844 0.930 . S
C1830 H1818 0.930 . S
C1830 C1831 1.399 . S
C1830 C1835 1.399 . S
C1831 C1830 1.399 . S
C1831 C1832 1.376 . S
C1832 H1819 0.930 . S
C1832 C1831 1.376 . S
C1832 C1833 1.388 . S
C1833 H1820 0.930 . S
C1833 C1832 1.388 . S
C1833 C1834 1.390 . S
C1834 C1833 1.390 . S
C1834 C1835 1.394 . S
C1834 C1840 1.465 . S
C1835 C1830 1.399 . S
C1835 C1834 1.394 . S
C1835 C1836 1.516 . S
C1836 C1835 1.516 . S
C1836 C1837 1.502 . S
C1836 C1838 1.561 . S
C1836 C1839 1.526 . S
C1837 H1821 0.959 . S
C1837 H1822 0.959 . S
C1837 H1823 0.961 . S
C1837 C1836 1.502 . S
C1838 H1824 0.960 . S
C1838 H1825 0.961 . S
C1838 H1826 0.959 . S
C1838 C1836 1.561 . S
C1839 C1836 1.526 . S
C1839 C1840 1.396 . S
C1839 C1844 1.390 . S
C1840 C1834 1.465 . S
C1840 C1839 1.396 . S
C1840 C1841 1.399 . S
C1841 H1827 0.929 . S
C1841 C1840 1.399 . S
C1841 C1842 1.385 . S
C1842 H1828 0.931 . S
C1842 C1841 1.385 . S
C1842 C1843 1.389 . S
C1843 C1842 1.389 . S
C1843 C1844 1.387 . S
C1844 H1829 0.930 . S
C1844 C1839 1.390 . S
C1844 C1843 1.387 . S
H1845 C1857 0.930 . S
H1846 C1859 0.930 . S
H1847 C1860 0.930 . S
H1848 C1864 0.959 . S
H1849 C1864 0.959 . S
H1850 C1864 0.961 . S
H1851 C1865 0.960 . S
H1852 C1865 0.961 . S
H1853 C1865 0.959 . S
H1854 C1868 0.929 . S
H1855 C1869 0.931 . S
H1856 C1871 0.930 . S
C1857 H1845 0.930 . S
C1857 C1858 1.399 . S
C1857 C1862 1.399 . S
C1858 C1857 1.399 . S
C1858 C1859 1.376 . S
C1859 H1846 0.930 . S
C1859 C1858 1.376 . S
C1859 C1860 1.388 . S
C1860 H1847 0.930 . S
C1860 C1859 1.388 . S
C1860 C1861 1.390 . S
C1861 C1860 1.390 . S
C1861 C1862 1.394 . S
C1861 C1867 1.465 . S
C1862 C1857 1.399 . S
C1862 C1861 1.394 . S
C1862 C1863 1.516 . S
C1863 C1862 1.516 . S
C1863 C1864 1.502 . S
C1863 C1865 1.561 . S
C1863 C1866 1.526 . S
C1864 H1848 0.959 . S
C1864 H1849 0.959 . S
C1864 H1850 0.961 . S
C1864 C1863 1.502 . S
C1865 H1851 0.960 . S
C1865 H1852 0.961 . S
C1865 H1853 0.959 . S
C1865 C1863 1.561 . S
C1866 C1863 1.526 . S
C1866 C1867 1.396 . S
C1866 C1871 1.390 . S
C1867 C1861 1.465 . S
C1867 C1866 1.396 . S
C1867 C1868 1.399 . S
C1868 H1854 0.929 . S
C1868 C1867 1.399 . S
C1868 C1869 1.385 . S
C1869 H1855 0.931 . S
C1869 C1868 1.385 . S
C1869 C1870 1.389 . S
C1870 C1869 1.389 . S
C1870 C1871 1.387 . S
C1871 H1856 0.930 . S
C1871 C1866 1.390 . S
C1871 C1870 1.387 . S
H1872 C1884 0.930 . S
H1873 C1886 0.930 . S
H1874 C1887 0.930 . S
H1875 C1891 0.959 . S
H1876 C1891 0.959 . S
H1877 C1891 0.961 . S
H1878 C1892 0.960 . S
H1879 C1892 0.961 . S
H1880 C1892 0.959 . S
H1881 C1895 0.929 . S
H1882 C1896 0.931 . S
H1883 C1898 0.930 . S
C1884 H1872 0.930 . S
C1884 C1885 1.399 . S
C1884 C1889 1.399 . S
C1885 C1884 1.399 . S
C1885 C1886 1.376 . S
C1886 H1873 0.930 . S
C1886 C1885 1.376 . S
C1886 C1887 1.388 . S
C1887 H1874 0.930 . S
C1887 C1886 1.388 . S
C1887 C1888 1.390 . S
C1888 C1887 1.390 . S
C1888 C1889 1.394 . S
C1888 C1894 1.465 . S
C1889 C1884 1.399 . S
C1889 C1888 1.394 . S
C1889 C1890 1.516 . S
C1890 C1889 1.516 . S
C1890 C1891 1.502 . S
C1890 C1892 1.561 . S
C1890 C1893 1.526 . S
C1891 H1875 0.959 . S
C1891 H1876 0.959 . S
C1891 H1877 0.961 . S
C1891 C1890 1.502 . S
C1892 H1878 0.960 . S
C1892 H1879 0.961 . S
C1892 H1880 0.959 . S
C1892 C1890 1.561 . S
C1893 C1890 1.526 . S
C1893 C1894 1.396 . S
C1893 C1898 1.390 . S
C1894 C1888 1.465 . S
C1894 C1893 1.396 . S
C1894 C1895 1.399 . S
C1895 H1881 0.929 . S
C1895 C1894 1.399 . S
C1895 C1896 1.385 . S
C1896 H1882 0.931 . S
C1896 C1895 1.385 . S
C1896 C1897 1.389 . S
C1897 C1896 1.389 . S
C1897 C1898 1.387 . S
C1898 H1883 0.930 . S
C1898 C1893 1.390 . S
C1898 C1897 1.387 . S
H1899 C1911 0.930 . S
H1900 C1913 0.930 . S
H1901 C1914 0.930 . S
H1902 C1918 0.959 . S
H1903 C1918 0.959 . S
H1904 C1918 0.961 . S
H1905 C1919 0.960 . S
H1906 C1919 0.961 . S
H1907 C1919 0.959 . S
H1908 C1922 0.929 . S
H1909 C1923 0.931 . S
H1910 C1925 0.930 . S
C1911 H1899 0.930 . S
C1911 C1912 1.399 . S
C1911 C1916 1.399 . S
C1912 C1911 1.399 . S
C1912 C1913 1.376 . S
C1913 H1900 0.930 . S
C1913 C1912 1.376 . S
C1913 C1914 1.388 . S
C1914 H1901 0.930 . S
C1914 C1913 1.388 . S
C1914 C1915 1.390 . S
C1915 C1914 1.390 . S
C1915 C1916 1.394 . S
C1915 C1921 1.465 . S
C1916 C1911 1.399 . S
C1916 C1915 1.394 . S
C1916 C1917 1.516 . S
C1917 C1916 1.516 . S
C1917 C1918 1.502 . S
C1917 C1919 1.561 . S
C1917 C1920 1.526 . S
C1918 H1902 0.959 . S
C1918 H1903 0.959 . S
C1918 H1904 0.961 . S
C1918 C1917 1.502 . S
C1919 H1905 0.960 . S
C1919 H1906 0.961 . S
C1919 H1907 0.959 . S
C1919 C1917 1.561 . S
C1920 C1917 1.526 . S
C1920 C1921 1.396 . S
C1920 C1925 1.390 . S
C1921 C1915 1.465 . S
C1921 C1920 1.396 . S
C1921 C1922 1.399 . S
C1922 H1908 0.929 . S
C1922 C1921 1.399 . S
C1922 C1923 1.385 . S
C1923 H1909 0.931 . S
C1923 C1922 1.385 . S
C1923 C1924 1.389 . S
C1924 C1923 1.389 . S
C1924 C1925 1.387 . S
C1925 H1910 0.930 . S
C1925 C1920 1.390 . S
C1925 C1924 1.387 . S
H1926 C1938 0.930 . S
H1927 C1940 0.930 . S
H1928 C1941 0.930 . S
H1929 C1945 0.959 . S
H1930 C1945 0.959 . S
H1931 C1945 0.961 . S
H1932 C1946 0.960 . S
H1933 C1946 0.961 . S
H1934 C1946 0.959 . S
H1935 C1949 0.929 . S
H1936 C1950 0.931 . S
H1937 C1952 0.930 . S
C1938 H1926 0.930 . S
C1938 C1939 1.399 . S
C1938 C1943 1.399 . S
C1939 C1938 1.399 . S
C1939 C1940 1.376 . S
C1940 H1927 0.930 . S
C1940 C1939 1.376 . S
C1940 C1941 1.388 . S
C1941 H1928 0.930 . S
C1941 C1940 1.388 . S
C1941 C1942 1.390 . S
C1942 C1941 1.390 . S
C1942 C1943 1.394 . S
C1942 C1948 1.465 . S
C1943 C1938 1.399 . S
C1943 C1942 1.394 . S
C1943 C1944 1.516 . S
C1944 C1943 1.516 . S
C1944 C1945 1.502 . S
C1944 C1946 1.561 . S
C1944 C1947 1.526 . S
C1945 H1929 0.959 . S
C1945 H1930 0.959 . S
C1945 H1931 0.961 . S
C1945 C1944 1.502 . S
C1946 H1932 0.960 . S
C1946 H1933 0.961 . S
C1946 H1934 0.959 . S
C1946 C1944 1.561 . S
C1947 C1944 1.526 . S
C1947 C1948 1.396 . S
C1947 C1952 1.390 . S
C1948 C1942 1.465 . S
C1948 C1947 1.396 . S
C1948 C1949 1.399 . S
C1949 H1935 0.929 . S
C1949 C1948 1.399 . S
C1949 C1950 1.385 . S
C1950 H1936 0.931 . S
C1950 C1949 1.385 . S
C1950 C1951 1.389 . S
C1951 C1950 1.389 . S
C1951 C1952 1.387 . S
C1952 H1937 0.930 . S
C1952 C1947 1.390 . S
C1952 C1951 1.387 . S
H1953 C1965 0.930 . S
H1954 C1967 0.930 . S
H1955 C1968 0.930 . S
H1956 C1972 0.959 . S
H1957 C1972 0.959 . S
H1958 C1972 0.961 . S
H1959 C1973 0.960 . S
H1960 C1973 0.961 . S
H1961 C1973 0.959 . S
H1962 C1976 0.929 . S
H1963 C1977 0.931 . S
H1964 C1979 0.930 . S
C1965 H1953 0.930 . S
C1965 C1966 1.399 . S
C1965 C1970 1.399 . S
C1966 C1965 1.399 . S
C1966 C1967 1.376 . S
C1967 H1954 0.930 . S
C1967 C1966 1.376 . S
C1967 C1968 1.388 . S
C1968 H1955 0.930 . S
C1968 C1967 1.388 . S
C1968 C1969 1.390 . S
C1969 C1968 1.390 . S
C1969 C1970 1.394 . S
C1969 C1975 1.465 . S
C1970 C1965 1.399 . S
C1970 C1969 1.394 . S
C1970 C1971 1.516 . S
C1971 C1970 1.516 . S
C1971 C1972 1.502 . S
C1971 C1973 1.561 . S
C1971 C1974 1.526 . S
C1972 H1956 0.959 . S
C1972 H1957 0.959 . S
C1972 H1958 0.961 . S
C1972 C1971 1.502 . S
C1973 H1959 0.960 . S
C1973 H1960 0.961 . S
C1973 H1961 0.959 . S
C1973 C1971 1.561 . S
C1974 C1971 1.526 . S
C1974 C1975 1.396 . S
C1974 C1979 1.390 . S
C1975 C1969 1.465 . S
C1975 C1974 1.396 . S
C1975 C1976 1.399 . S
C1976 H1962 0.929 . S
C1976 C1975 1.399 . S
C1976 C1977 1.385 . S
C1977 H1963 0.931 . S
C1977 C1976 1.385 . S
C1977 C1978 1.389 . S
C1978 C1977 1.389 . S
C1978 C1979 1.387 . S
C1979 H1964 0.930 . S
C1979 C1974 1.390 . S
C1979 C1978 1.387 . S
H1980 C1992 0.930 . S
H1981 C1994 0.930 . S
H1982 C1995 0.930 . S
H1983 C1999 0.959 . S
H1984 C1999 0.959 . S
H1985 C1999 0.961 . S
H1986 C2000 0.960 . S
H1987 C2000 0.961 . S
H1988 C2000 0.959 . S
H1989 C2003 0.929 . S
H1990 C2004 0.931 . S
H1991 C2006 0.930 . S
C1992 H1980 0.930 . S
C1992 C1993 1.399 . S
C1992 C1997 1.399 . S
C1993 C1992 1.399 . S
C1993 C1994 1.376 . S
C1994 H1981 0.930 . S
C1994 C1993 1.376 . S
C1994 C1995 1.388 . S
C1995 H1982 0.930 . S
C1995 C1994 1.388 . S
C1995 C1996 1.390 . S
C1996 C1995 1.390 . S
C1996 C1997 1.394 . S
C1996 C2002 1.465 . S
C1997 C1992 1.399 . S
C1997 C1996 1.394 . S
C1997 C1998 1.516 . S
C1998 C1997 1.516 . S
C1998 C1999 1.502 . S
C1998 C2000 1.561 . S
C1998 C2001 1.526 . S
C1999 H1983 0.959 . S
C1999 H1984 0.959 . S
C1999 H1985 0.961 . S
C1999 C1998 1.502 . S
C2000 H1986 0.960 . S
C2000 H1987 0.961 . S
C2000 H1988 0.959 . S
C2000 C1998 1.561 . S
C2001 C1998 1.526 . S
C2001 C2002 1.396 . S
C2001 C2006 1.390 . S
C2002 C1996 1.465 . S
C2002 C2001 1.396 . S
C2002 C2003 1.399 . S
C2003 H1989 0.929 . S
C2003 C2002 1.399 . S
C2003 C2004 1.385 . S
C2004 H1990 0.931 . S
C2004 C2003 1.385 . S
C2004 C2005 1.389 . S
C2005 C2004 1.389 . S
C2005 C2006 1.387 . S
C2006 H1991 0.930 . S
C2006 C2001 1.390 . S
C2006 C2005 1.387 . S
H2007 C2019 0.930 . S
H2008 C2021 0.930 . S
H2009 C2022 0.930 . S
H2010 C2026 0.959 . S
H2011 C2026 0.959 . S
H2012 C2026 0.961 . S
H2013 C2027 0.960 . S
H2014 C2027 0.961 . S
H2015 C2027 0.959 . S
H2016 C2030 0.929 . S
H2017 C2031 0.931 . S
H2018 C2033 0.930 . S
C2019 H2007 0.930 . S
C2019 C2020 1.399 . S
C2019 C2024 1.399 . S
C2020 C2019 1.399 . S
C2020 C2021 1.376 . S
C2021 H2008 0.930 . S
C2021 C2020 1.376 . S
C2021 C2022 1.388 . S
C2022 H2009 0.930 . S
C2022 C2021 1.388 . S
C2022 C2023 1.390 . S
C2023 C2022 1.390 . S
C2023 C2024 1.394 . S
C2023 C2029 1.465 . S
C2024 C2019 1.399 . S
C2024 C2023 1.394 . S
C2024 C2025 1.516 . S
C2025 C2024 1.516 . S
C2025 C2026 1.502 . S
C2025 C2027 1.561 . S
C2025 C2028 1.526 . S
C2026 H2010 0.959 . S
C2026 H2011 0.959 . S
C2026 H2012 0.961 . S
C2026 C2025 1.502 . S
C2027 H2013 0.960 . S
C2027 H2014 0.961 . S
C2027 H2015 0.959 . S
C2027 C2025 1.561 . S
C2028 C2025 1.526 . S
C2028 C2029 1.396 . S
C2028 C2033 1.390 . S
C2029 C2023 1.465 . S
C2029 C2028 1.396 . S
C2029 C2030 1.399 . S
C2030 H2016 0.929 . S
C2030 C2029 1.399 . S
C2030 C2031 1.385 . S
C2031 H2017 0.931 . S
C2031 C2030 1.385 . S
C2031 C2032 1.389 . S
C2032 C2031 1.389 . S
C2032 C2033 1.387 . S
C2033 H2018 0.930 . S
C2033 C2028 1.390 . S
C2033 C2032 1.387 . S
H2034 C2046 0.930 . S
H2035 C2048 0.930 . S
H2036 C2049 0.930 . S
H2037 C2053 0.959 . S
H2038 C2053 0.959 . S
H2039 C2053 0.961 . S
H2040 C2054 0.960 . S
H2041 C2054 0.961 . S
H2042 C2054 0.959 . S
H2043 C2057 0.929 . S
H2044 C2058 0.931 . S
H2045 C2060 0.930 . S
C2046 H2034 0.930 . S
C2046 C2047 1.399 . S
C2046 C2051 1.399 . S
C2047 C2046 1.399 . S
C2047 C2048 1.376 . S
C2048 H2035 0.930 . S
C2048 C2047 1.376 . S
C2048 C2049 1.388 . S
C2049 H2036 0.930 . S
C2049 C2048 1.388 . S
C2049 C2050 1.390 . S
C2050 C2049 1.390 . S
C2050 C2051 1.394 . S
C2050 C2056 1.465 . S
C2051 C2046 1.399 . S
C2051 C2050 1.394 . S
C2051 C2052 1.516 . S
C2052 C2051 1.516 . S
C2052 C2053 1.502 . S
C2052 C2054 1.561 . S
C2052 C2055 1.526 . S
C2053 H2037 0.959 . S
C2053 H2038 0.959 . S
C2053 H2039 0.961 . S
C2053 C2052 1.502 . S
C2054 H2040 0.960 . S
C2054 H2041 0.961 . S
C2054 H2042 0.959 . S
C2054 C2052 1.561 . S
C2055 C2052 1.526 . S
C2055 C2056 1.396 . S
C2055 C2060 1.390 . S
C2056 C2050 1.465 . S
C2056 C2055 1.396 . S
C2056 C2057 1.399 . S
C2057 H2043 0.929 . S
C2057 C2056 1.399 . S
C2057 C2058 1.385 . S
C2058 H2044 0.931 . S
C2058 C2057 1.385 . S
C2058 C2059 1.389 . S
C2059 C2058 1.389 . S
C2059 C2060 1.387 . S
C2060 H2045 0.930 . S
C2060 C2055 1.390 . S
C2060 C2059 1.387 . S
H2061 C2073 0.930 . S
H2062 C2075 0.930 . S
H2063 C2076 0.930 . S
H2064 C2080 0.959 . S
H2065 C2080 0.959 . S
H2066 C2080 0.961 . S
H2067 C2081 0.960 . S
H2068 C2081 0.961 . S
H2069 C2081 0.959 . S
H2070 C2084 0.929 . S
H2071 C2085 0.931 . S
H2072 C2087 0.930 . S
C2073 H2061 0.930 . S
C2073 C2074 1.399 . S
C2073 C2078 1.399 . S
C2074 C2073 1.399 . S
C2074 C2075 1.376 . S
C2075 H2062 0.930 . S
C2075 C2074 1.376 . S
C2075 C2076 1.388 . S
C2076 H2063 0.930 . S
C2076 C2075 1.388 . S
C2076 C2077 1.390 . S
C2077 C2076 1.390 . S
C2077 C2078 1.394 . S
C2077 C2083 1.465 . S
C2078 C2073 1.399 . S
C2078 C2077 1.394 . S
C2078 C2079 1.516 . S
C2079 C2078 1.516 . S
C2079 C2080 1.502 . S
C2079 C2081 1.561 . S
C2079 C2082 1.526 . S
C2080 H2064 0.959 . S
C2080 H2065 0.959 . S
C2080 H2066 0.961 . S
C2080 C2079 1.502 . S
C2081 H2067 0.960 . S
C2081 H2068 0.961 . S
C2081 H2069 0.959 . S
C2081 C2079 1.561 . S
C2082 C2079 1.526 . S
C2082 C2083 1.396 . S
C2082 C2087 1.390 . S
C2083 C2077 1.465 . S
C2083 C2082 1.396 . S
C2083 C2084 1.399 . S
C2084 H2070 0.929 . S
C2084 C2083 1.399 . S
C2084 C2085 1.385 . S
C2085 H2071 0.931 . S
C2085 C2084 1.385 . S
C2085 C2086 1.389 . S
C2086 C2085 1.389 . S
C2086 C2087 1.387 . S
C2087 H2072 0.930 . S
C2087 C2082 1.390 . S
C2087 C2086 1.387 . S
H2088 C2100 0.930 . S
H2089 C2102 0.930 . S
H2090 C2103 0.930 . S
H2091 C2107 0.959 . S
H2092 C2107 0.959 . S
H2093 C2107 0.961 . S
H2094 C2108 0.960 . S
H2095 C2108 0.961 . S
H2096 C2108 0.959 . S
H2097 C2111 0.929 . S
H2098 C2112 0.931 . S
H2099 C2114 0.930 . S
C2100 H2088 0.930 . S
C2100 C2101 1.399 . S
C2100 C2105 1.399 . S
C2101 C2100 1.399 . S
C2101 C2102 1.376 . S
C2102 H2089 0.930 . S
C2102 C2101 1.376 . S
C2102 C2103 1.388 . S
C2103 H2090 0.930 . S
C2103 C2102 1.388 . S
C2103 C2104 1.390 . S
C2104 C2103 1.390 . S
C2104 C2105 1.394 . S
C2104 C2110 1.465 . S
C2105 C2100 1.399 . S
C2105 C2104 1.394 . S
C2105 C2106 1.516 . S
C2106 C2105 1.516 . S
C2106 C2107 1.502 . S
C2106 C2108 1.561 . S
C2106 C2109 1.526 . S
C2107 H2091 0.959 . S
C2107 H2092 0.959 . S
C2107 H2093 0.961 . S
C2107 C2106 1.502 . S
C2108 H2094 0.960 . S
C2108 H2095 0.961 . S
C2108 H2096 0.959 . S
C2108 C2106 1.561 . S
C2109 C2106 1.526 . S
C2109 C2110 1.396 . S
C2109 C2114 1.390 . S
C2110 C2104 1.465 . S
C2110 C2109 1.396 . S
C2110 C2111 1.399 . S
C2111 H2097 0.929 . S
C2111 C2110 1.399 . S
C2111 C2112 1.385 . S
C2112 H2098 0.931 . S
C2112 C2111 1.385 . S
C2112 C2113 1.389 . S
C2113 C2112 1.389 . S
C2113 C2114 1.387 . S
C2114 H2099 0.930 . S
C2114 C2109 1.390 . S
C2114 C2113 1.387 . S
H2115 C2127 0.930 . S
H2116 C2129 0.930 . S
H2117 C2130 0.930 . S
H2118 C2134 0.959 . S
H2119 C2134 0.959 . S
H2120 C2134 0.961 . S
H2121 C2135 0.960 . S
H2122 C2135 0.961 . S
H2123 C2135 0.959 . S
H2124 C2138 0.929 . S
H2125 C2139 0.931 . S
H2126 C2141 0.930 . S
C2127 H2115 0.930 . S
C2127 C2128 1.399 . S
C2127 C2132 1.399 . S
C2128 C2127 1.399 . S
C2128 C2129 1.376 . S
C2129 H2116 0.930 . S
C2129 C2128 1.376 . S
C2129 C2130 1.388 . S
C2130 H2117 0.930 . S
C2130 C2129 1.388 . S
C2130 C2131 1.390 . S
C2131 C2130 1.390 . S
C2131 C2132 1.394 . S
C2131 C2137 1.465 . S
C2132 C2127 1.399 . S
C2132 C2131 1.394 . S
C2132 C2133 1.516 . S
C2133 C2132 1.516 . S
C2133 C2134 1.502 . S
C2133 C2135 1.561 . S
C2133 C2136 1.526 . S
C2134 H2118 0.959 . S
C2134 H2119 0.959 . S
C2134 H2120 0.961 . S
C2134 C2133 1.502 . S
C2135 H2121 0.960 . S
C2135 H2122 0.961 . S
C2135 H2123 0.959 . S
C2135 C2133 1.561 . S
C2136 C2133 1.526 . S
C2136 C2137 1.396 . S
C2136 C2141 1.390 . S
C2137 C2131 1.465 . S
C2137 C2136 1.396 . S
C2137 C2138 1.399 . S
C2138 H2124 0.929 . S
C2138 C2137 1.399 . S
C2138 C2139 1.385 . S
C2139 H2125 0.931 . S
C2139 C2138 1.385 . S
C2139 C2140 1.389 . S
C2140 C2139 1.389 . S
C2140 C2141 1.387 . S
C2141 H2126 0.930 . S
C2141 C2136 1.390 . S
C2141 C2140 1.387 . S
H2142 C2154 0.930 . S
H2143 C2156 0.930 . S
H2144 C2157 0.930 . S
H2145 C2161 0.959 . S
H2146 C2161 0.959 . S
H2147 C2161 0.961 . S
H2148 C2162 0.960 . S
H2149 C2162 0.961 . S
H2150 C2162 0.959 . S
H2151 C2165 0.929 . S
H2152 C2166 0.931 . S
H2153 C2168 0.930 . S
C2154 H2142 0.930 . S
C2154 C2155 1.399 . S
C2154 C2159 1.399 . S
C2155 C2154 1.399 . S
C2155 C2156 1.376 . S
C2156 H2143 0.930 . S
C2156 C2155 1.376 . S
C2156 C2157 1.388 . S
C2157 H2144 0.930 . S
C2157 C2156 1.388 . S
C2157 C2158 1.390 . S
C2158 C2157 1.390 . S
C2158 C2159 1.394 . S
C2158 C2164 1.465 . S
C2159 C2154 1.399 . S
C2159 C2158 1.394 . S
C2159 C2160 1.516 . S
C2160 C2159 1.516 . S
C2160 C2161 1.502 . S
C2160 C2162 1.561 . S
C2160 C2163 1.526 . S
C2161 H2145 0.959 . S
C2161 H2146 0.959 . S
C2161 H2147 0.961 . S
C2161 C2160 1.502 . S
C2162 H2148 0.960 . S
C2162 H2149 0.961 . S
C2162 H2150 0.959 . S
C2162 C2160 1.561 . S
C2163 C2160 1.526 . S
C2163 C2164 1.396 . S
C2163 C2168 1.390 . S
C2164 C2158 1.465 . S
C2164 C2163 1.396 . S
C2164 C2165 1.399 . S
C2165 H2151 0.929 . S
C2165 C2164 1.399 . S
C2165 C2166 1.385 . S
C2166 H2152 0.931 . S
C2166 C2165 1.385 . S
C2166 C2167 1.389 . S
C2167 C2166 1.389 . S
C2167 C2168 1.387 . S
C2168 H2153 0.930 . S
C2168 C2163 1.390 . S
C2168 C2167 1.387 . S
H2169 C2181 0.930 . S
H2170 C2183 0.930 . S
H2171 C2184 0.930 . S
H2172 C2188 0.959 . S
H2173 C2188 0.959 . S
H2174 C2188 0.961 . S
H2175 C2189 0.960 . S
H2176 C2189 0.961 . S
H2177 C2189 0.959 . S
H2178 C2192 0.929 . S
H2179 C2193 0.931 . S
H2180 C2195 0.930 . S
C2181 H2169 0.930 . S
C2181 C2182 1.399 . S
C2181 C2186 1.399 . S
C2182 C2181 1.399 . S
C2182 C2183 1.376 . S
C2183 H2170 0.930 . S
C2183 C2182 1.376 . S
C2183 C2184 1.388 . S
C2184 H2171 0.930 . S
C2184 C2183 1.388 . S
C2184 C2185 1.390 . S
C2185 C2184 1.390 . S
C2185 C2186 1.394 . S
C2185 C2191 1.465 . S
C2186 C2181 1.399 . S
C2186 C2185 1.394 . S
C2186 C2187 1.516 . S
C2187 C2186 1.516 . S
C2187 C2188 1.502 . S
C2187 C2189 1.561 . S
C2187 C2190 1.526 . S
C2188 H2172 0.959 . S
C2188 H2173 0.959 . S
C2188 H2174 0.961 . S
C2188 C2187 1.502 . S
C2189 H2175 0.960 . S
C2189 H2176 0.961 . S
C2189 H2177 0.959 . S
C2189 C2187 1.561 . S
C2190 C2187 1.526 . S
C2190 C2191 1.396 . S
C2190 C2195 1.390 . S
C2191 C2185 1.465 . S
C2191 C2190 1.396 . S
C2191 C2192 1.399 . S
C2192 H2178 0.929 . S
C2192 C2191 1.399 . S
C2192 C2193 1.385 . S
C2193 H2179 0.931 . S
C2193 C2192 1.385 . S
C2193 C2194 1.389 . S
C2194 C2193 1.389 . S
C2194 C2195 1.387 . S
C2195 H2180 0.930 . S
C2195 C2190 1.390 . S
C2195 C2194 1.387 . S
H2196 C2208 0.930 . S
H2197 C2210 0.930 . S
H2198 C2211 0.930 . S
H2199 C2215 0.959 . S
H2200 C2215 0.959 . S
H2201 C2215 0.961 . S
H2202 C2216 0.960 . S
H2203 C2216 0.961 . S
H2204 C2216 0.959 . S
H2205 C2219 0.929 . S
H2206 C2220 0.931 . S
H2207 C2222 0.930 . S
C2208 H2196 0.930 . S
C2208 C2209 1.399 . S
C2208 C2213 1.399 . S
C2209 C2208 1.399 . S
C2209 C2210 1.376 . S
C2210 H2197 0.930 . S
C2210 C2209 1.376 . S
C2210 C2211 1.388 . S
C2211 H2198 0.930 . S
C2211 C2210 1.388 . S
C2211 C2212 1.390 . S
C2212 C2211 1.390 . S
C2212 C2213 1.394 . S
C2212 C2218 1.465 . S
C2213 C2208 1.399 . S
C2213 C2212 1.394 . S
C2213 C2214 1.516 . S
C2214 C2213 1.516 . S
C2214 C2215 1.502 . S
C2214 C2216 1.561 . S
C2214 C2217 1.526 . S
C2215 H2199 0.959 . S
C2215 H2200 0.959 . S
C2215 H2201 0.961 . S
C2215 C2214 1.502 . S
C2216 H2202 0.960 . S
C2216 H2203 0.961 . S
C2216 H2204 0.959 . S
C2216 C2214 1.561 . S
C2217 C2214 1.526 . S
C2217 C2218 1.396 . S
C2217 C2222 1.390 . S
C2218 C2212 1.465 . S
C2218 C2217 1.396 . S
C2218 C2219 1.399 . S
C2219 H2205 0.929 . S
C2219 C2218 1.399 . S
C2219 C2220 1.385 . S
C2220 H2206 0.931 . S
C2220 C2219 1.385 . S
C2220 C2221 1.389 . S
C2221 C2220 1.389 . S
C2221 C2222 1.387 . S
C2222 H2207 0.930 . S
C2222 C2217 1.390 . S
C2222 C2221 1.387 . S
H2223 C2235 0.930 . S
H2224 C2237 0.930 . S
H2225 C2238 0.930 . S
H2226 C2242 0.959 . S
H2227 C2242 0.959 . S
H2228 C2242 0.961 . S
H2229 C2243 0.960 . S
H2230 C2243 0.961 . S
H2231 C2243 0.959 . S
H2232 C2246 0.929 . S
H2233 C2247 0.931 . S
H2234 C2249 0.930 . S
C2235 H2223 0.930 . S
C2235 C2236 1.399 . S
C2235 C2240 1.399 . S
C2236 C2235 1.399 . S
C2236 C2237 1.376 . S
C2237 H2224 0.930 . S
C2237 C2236 1.376 . S
C2237 C2238 1.388 . S
C2238 H2225 0.930 . S
C2238 C2237 1.388 . S
C2238 C2239 1.390 . S
C2239 C2238 1.390 . S
C2239 C2240 1.394 . S
C2239 C2245 1.465 . S
C2240 C2235 1.399 . S
C2240 C2239 1.394 . S
C2240 C2241 1.516 . S
C2241 C2240 1.516 . S
C2241 C2242 1.502 . S
C2241 C2243 1.561 . S
C2241 C2244 1.526 . S
C2242 H2226 0.959 . S
C2242 H2227 0.959 . S
C2242 H2228 0.961 . S
C2242 C2241 1.502 . S
C2243 H2229 0.960 . S
C2243 H2230 0.961 . S
C2243 H2231 0.959 . S
C2243 C2241 1.561 . S
C2244 C2241 1.526 . S
C2244 C2245 1.396 . S
C2244 C2249 1.390 . S
C2245 C2239 1.465 . S
C2245 C2244 1.396 . S
C2245 C2246 1.399 . S
C2246 H2232 0.929 . S
C2246 C2245 1.399 . S
C2246 C2247 1.385 . S
C2247 H2233 0.931 . S
C2247 C2246 1.385 . S
C2247 C2248 1.389 . S
C2248 C2247 1.389 . S
C2248 C2249 1.387 . S
C2249 H2234 0.930 . S
C2249 C2244 1.390 . S
C2249 C2248 1.387 . S
H2250 C2262 0.930 . S
H2251 C2264 0.930 . S
H2252 C2265 0.930 . S
H2253 C2269 0.959 . S
H2254 C2269 0.959 . S
H2255 C2269 0.961 . S
H2256 C2270 0.960 . S
H2257 C2270 0.961 . S
H2258 C2270 0.959 . S
H2259 C2273 0.929 1_455 S
H2260 C2274 0.931 . S
H2261 C2276 0.930 . S
C2262 H2250 0.930 . S
C2262 C2263 1.399 . S
C2262 C2267 1.399 . S
C2263 C2262 1.399 . S
C2263 C2264 1.376 . S
C2264 H2251 0.930 . S
C2264 C2263 1.376 . S
C2264 C2265 1.388 . S
C2265 H2252 0.930 . S
C2265 C2264 1.388 . S
C2265 C2266 1.390 . S
C2266 C2265 1.390 . S
C2266 C2267 1.394 . S
C2266 C2272 1.465 1_455 S
C2267 C2262 1.399 . S
C2267 C2266 1.394 . S
C2267 C2268 1.516 1_455 S
C2268 C2267 1.516 1_655 S
C2268 C2269 1.502 . S
C2268 C2270 1.561 . S
C2268 C2271 1.526 . S
C2269 H2253 0.959 . S
C2269 H2254 0.959 . S
C2269 H2255 0.961 . S
C2269 C2268 1.502 . S
C2270 H2256 0.960 . S
C2270 H2257 0.961 . S
C2270 H2258 0.959 . S
C2270 C2268 1.561 . S
C2271 C2268 1.526 . S
C2271 C2272 1.396 . S
C2271 C2276 1.390 . S
C2272 C2266 1.465 1_655 S
C2272 C2271 1.396 . S
C2272 C2273 1.399 . S
C2273 H2259 0.929 1_655 S
C2273 C2272 1.399 . S
C2273 C2274 1.385 . S
C2274 H2260 0.931 . S
C2274 C2273 1.385 . S
C2274 C2275 1.389 . S
C2275 C2274 1.389 . S
C2275 C2276 1.387 . S
C2276 H2261 0.930 . S
C2276 C2271 1.390 . S
C2276 C2275 1.387 . S
H2277 C2289 0.930 . S
H2278 C2291 0.930 . S
H2279 C2292 0.930 . S
H2280 C2296 0.959 . S
H2281 C2296 0.959 . S
H2282 C2296 0.961 . S
H2283 C2297 0.960 . S
H2284 C2297 0.961 . S
H2285 C2297 0.959 . S
H2286 C2300 0.929 . S
H2287 C2301 0.931 . S
H2288 C2303 0.930 . S
C2289 H2277 0.930 . S
C2289 C2290 1.399 . S
C2289 C2294 1.399 . S
C2290 C2289 1.399 . S
C2290 C2291 1.376 . S
C2291 H2278 0.930 . S
C2291 C2290 1.376 . S
C2291 C2292 1.388 . S
C2292 H2279 0.930 . S
C2292 C2291 1.388 . S
C2292 C2293 1.390 . S
C2293 C2292 1.390 . S
C2293 C2294 1.394 . S
C2293 C2299 1.465 . S
C2294 C2289 1.399 . S
C2294 C2293 1.394 . S
C2294 C2295 1.516 . S
C2295 C2294 1.516 . S
C2295 C2296 1.502 . S
C2295 C2297 1.561 . S
C2295 C2298 1.526 . S
C2296 H2280 0.959 . S
C2296 H2281 0.959 . S
C2296 H2282 0.961 . S
C2296 C2295 1.502 . S
C2297 H2283 0.960 . S
C2297 H2284 0.961 . S
C2297 H2285 0.959 . S
C2297 C2295 1.561 . S
C2298 C2295 1.526 . S
C2298 C2299 1.396 . S
C2298 C2303 1.390 . S
C2299 C2293 1.465 . S
C2299 C2298 1.396 . S
C2299 C2300 1.399 . S
C2300 H2286 0.929 . S
C2300 C2299 1.399 . S
C2300 C2301 1.385 . S
C2301 H2287 0.931 . S
C2301 C2300 1.385 . S
C2301 C2302 1.389 . S
C2302 C2301 1.389 . S
C2302 C2303 1.387 . S
C2303 H2288 0.930 . S
C2303 C2298 1.390 . S
C2303 C2302 1.387 . S
H2304 C2316 0.930 . S
H2305 C2318 0.930 . S
H2306 C2319 0.930 . S
H2307 C2323 0.959 1_545 S
H2308 C2323 0.959 . S
H2309 C2323 0.961 1_545 S
H2310 C2324 0.960 . S
H2311 C2324 0.961 . S
H2312 C2324 0.959 . S
H2313 C2327 0.929 . S
H2314 C2328 0.931 . S
H2315 C2330 0.930 . S
C2316 H2304 0.930 . S
C2316 C2317 1.399 . S
C2316 C2321 1.399 . S
C2317 C2316 1.399 . S
C2317 C2318 1.376 . S
C2318 H2305 0.930 . S
C2318 C2317 1.376 . S
C2318 C2319 1.388 . S
C2319 H2306 0.930 . S
C2319 C2318 1.388 . S
C2319 C2320 1.390 . S
C2320 C2319 1.390 . S
C2320 C2321 1.394 . S
C2320 C2326 1.465 1_545 S
C2321 C2316 1.399 . S
C2321 C2320 1.394 . S
C2321 C2322 1.516 1_545 S
C2322 C2321 1.516 1_565 S
C2322 C2323 1.502 . S
C2322 C2324 1.561 . S
C2322 C2325 1.526 . S
C2323 H2307 0.959 1_565 S
C2323 H2308 0.959 . S
C2323 H2309 0.961 1_565 S
C2323 C2322 1.502 . S
C2324 H2310 0.960 . S
C2324 H2311 0.961 . S
C2324 H2312 0.959 . S
C2324 C2322 1.561 . S
C2325 C2322 1.526 . S
C2325 C2326 1.396 . S
C2325 C2330 1.390 . S
C2326 C2320 1.465 1_565 S
C2326 C2325 1.396 . S
C2326 C2327 1.399 . S
C2327 H2313 0.929 . S
C2327 C2326 1.399 . S
C2327 C2328 1.385 . S
C2328 H2314 0.931 . S
C2328 C2327 1.385 . S
C2328 C2329 1.389 . S
C2329 C2328 1.389 . S
C2329 C2330 1.387 . S
C2330 H2315 0.930 . S
C2330 C2325 1.390 . S
C2330 C2329 1.387 . S
H2331 C2343 0.930 . S
H2332 C2345 0.930 . S
H2333 C2346 0.930 1_565 S
H2334 C2350 0.959 . S
H2335 C2350 0.959 . S
H2336 C2350 0.961 . S
H2337 C2351 0.960 . S
H2338 C2351 0.961 1_565 S
H2339 C2351 0.959 1_565 S
H2340 C2354 0.929 . S
H2341 C2355 0.931 . S
H2342 C2357 0.930 . S
C2343 H2331 0.930 . S
C2343 C2344 1.399 1_554 S
C2343 C2348 1.399 . S
C2344 C2343 1.399 1_556 S
C2344 C2345 1.376 . S
C2345 H2332 0.930 . S
C2345 C2344 1.376 . S
C2345 C2346 1.388 . S
C2346 H2333 0.930 1_545 S
C2346 C2345 1.388 . S
C2346 C2347 1.390 . S
C2347 C2346 1.390 . S
C2347 C2348 1.394 1_556 S
C2347 C2353 1.465 1_545 S
C2348 C2343 1.399 . S
C2348 C2347 1.394 1_554 S
C2348 C2349 1.516 . S
C2349 C2348 1.516 . S
C2349 C2350 1.502 . S
C2349 C2351 1.561 . S
C2349 C2352 1.526 1_545 S
C2350 H2334 0.959 . S
C2350 H2335 0.959 . S
C2350 H2336 0.961 . S
C2350 C2349 1.502 . S
C2351 H2337 0.960 . S
C2351 H2338 0.961 1_545 S
C2351 H2339 0.959 1_545 S
C2351 C2349 1.561 . S
C2352 C2349 1.526 1_565 S
C2352 C2353 1.396 1_554 S
C2352 C2357 1.390 . S
C2353 C2347 1.465 1_565 S
C2353 C2352 1.396 1_556 S
C2353 C2354 1.399 . S
C2354 H2340 0.929 . S
C2354 C2353 1.399 . S
C2354 C2355 1.385 . S
C2355 H2341 0.931 . S
C2355 C2354 1.385 . S
C2355 C2356 1.389 1_556 S
C2356 C2355 1.389 1_554 S
C2356 C2357 1.387 . S
C2357 H2342 0.930 . S
C2357 C2352 1.390 . S
C2357 C2356 1.387 . S
H2358 C2370 0.930 . S
H2359 C2372 0.930 . S
H2360 C2373 0.930 . S
H2361 C2377 0.959 . S
H2362 C2377 0.959 1_455 S
H2363 C2377 0.961 . S
H2364 C2378 0.960 . S
H2365 C2378 0.961 . S
H2366 C2378 0.959 . S
H2367 C2381 0.929 . S
H2368 C2382 0.931 . S
H2369 C2384 0.930 . S
C2370 H2358 0.930 . S
C2370 C2371 1.399 1_554 S
C2370 C2375 1.399 . S
C2371 C2370 1.399 1_556 S
C2371 C2372 1.376 . S
C2372 H2359 0.930 . S
C2372 C2371 1.376 . S
C2372 C2373 1.388 . S
C2373 H2360 0.930 . S
C2373 C2372 1.388 . S
C2373 C2374 1.390 . S
C2374 C2373 1.390 . S
C2374 C2375 1.394 1_556 S
C2374 C2380 1.465 1_655 S
C2375 C2370 1.399 . S
C2375 C2374 1.394 1_554 S
C2375 C2376 1.516 1_655 S
C2376 C2375 1.516 1_455 S
C2376 C2377 1.502 1_455 S
C2376 C2378 1.561 . S
C2376 C2379 1.526 . S
C2377 H2361 0.959 . S
C2377 H2362 0.959 1_655 S
C2377 H2363 0.961 . S
C2377 C2376 1.502 1_655 S
C2378 H2364 0.960 . S
C2378 H2365 0.961 . S
C2378 H2366 0.959 . S
C2378 C2376 1.561 . S
C2379 C2376 1.526 . S
C2379 C2380 1.396 1_554 S
C2379 C2384 1.390 . S
C2380 C2374 1.465 1_455 S
C2380 C2379 1.396 1_556 S
C2380 C2381 1.399 . S
C2381 H2367 0.929 . S
C2381 C2380 1.399 . S
C2381 C2382 1.385 . S
C2382 H2368 0.931 . S
C2382 C2381 1.385 . S
C2382 C2383 1.389 1_556 S
C2383 C2382 1.389 1_554 S
C2383 C2384 1.387 . S
C2384 H2369 0.930 . S
C2384 C2379 1.390 . S
C2384 C2383 1.387 . S
H2385 C2397 0.930 . S
H2386 C2399 0.930 . S
H2387 C2400 0.930 . S
H2388 C2404 0.959 1_556 S
H2389 C2404 0.959 . S
H2390 C2404 0.961 . S
H2391 C2405 0.960 . S
H2392 C2405 0.961 . S
H2393 C2405 0.959 . S
H2394 C2408 0.929 . S
H2395 C2409 0.931 . S
H2396 C2411 0.932 . S
C2397 H2385 0.930 . S
C2397 C2398 1.399 . S
C2397 C2402 1.399 . S
C2398 C2397 1.399 . S
C2398 C2399 1.377 1_554 S
C2399 H2386 0.930 . S
C2399 C2398 1.377 1_556 S
C2399 C2400 1.388 . S
C2400 H2387 0.930 . S
C2400 C2399 1.388 . S
C2400 C2401 1.397 . S
C2401 C2400 1.397 . S
C2401 C2402 1.380 1_556 S
C2401 C2407 1.471 . S
C2402 C2397 1.399 . S
C2402 C2401 1.380 1_554 S
C2402 C2403 1.516 . S
C2403 C2402 1.516 . S
C2403 C2404 1.502 . S
C2403 C2405 1.561 . S
C2403 C2406 1.526 . S
C2404 H2388 0.959 1_554 S
C2404 H2389 0.959 . S
C2404 H2390 0.961 . S
C2404 C2403 1.502 . S
C2405 H2391 0.960 . S
C2405 H2392 0.961 . S
C2405 H2393 0.959 . S
C2405 C2403 1.561 . S
C2406 C2403 1.526 . S
C2406 C2407 1.396 1_554 S
C2406 C2411 1.390 . S
C2407 C2401 1.471 . S
C2407 C2406 1.396 1_556 S
C2407 C2408 1.399 . S
C2408 H2394 0.929 . S
C2408 C2407 1.399 . S
C2408 C2409 1.385 . S
C2409 H2395 0.931 . S
C2409 C2408 1.385 . S
C2409 C2410 1.389 . S
C2410 C2409 1.389 . S
C2410 C2411 1.383 1_556 S
C2411 H2396 0.932 . S
C2411 C2406 1.390 . S
C2411 C2410 1.383 1_554 S
C481 C3 1.288 . S
C493 C18 1.410 . S
C508 C16 1.276 . S
C520 C29 1.398 . S
C535 C5 1.400 . S
C547 C31 1.296 . S
C562 C44 1.287 . S
C574 C68 1.410 . S
C589 C57 1.334 . S
C601 C42 1.437 . S
C616 C55 1.450 . S
C628 C70 1.377 . S
C643 C83 1.352 . S
C655 C94 1.407 . S
C670 C107 1.401 . S
C682 C96 1.279 . S
C697 C81 1.438 . S
C709 C109 1.380 . S
C724 C146 1.450 . S
C736 C122 1.390 . S
C751 C135 1.352 . S
C763 C120 1.451 . S
C778 C148 1.333 . S
C790 C133 1.448 . S
C805 C174 1.440 . S
C817 C159 1.350 . S
C832 C172 1.333 . S
C844 C187 1.434 . S
C859 C185 1.388 . S
C871 C161 1.449 . S
C886 C200 1.279 . S
C898 C224 1.406 . S
C913 C213 1.391 . S
C925 C198 1.444 . S
C940 C226 1.392 . S
C952 C211 1.444 . S
C967 C252 1.483 . S
C979 C239 1.409 . S
C994 C250 1.382 . S
C1006 C265 1.447 . S
C1021 C237 1.480 . S
C1033 C263 1.417 . S
C1048 C302 1.311 . S
C1060 C276 1.204 . S
C1075 C289 1.258 . S
C1087 C278 1.308 . S
C1102 C291 1.306 . S
C1114 C304 1.244 . S
C1129 C330 1.480 . S
C1141 C315 1.391 . S
C1156 C328 1.410 . S
C1168 C343 1.484 . S
C1183 C341 1.422 . S
C1195 C317 1.484 . S
C1210 C382 1.343 . S
C1222 C354 1.263 . S
C1237 C367 1.312 . S
C1249 C356 1.349 . S
C1264 C369 1.315 . S
C1276 C380 1.250 . S
C1291 C395 1.329 . S
C1303 C408 1.408 . S
C1318 C406 1.354 . S
C1330 C421 1.414 . S
C1345 C419 1.330 . S
C1357 C393 1.444 . S
C1372 C460 1.405 . S
C1384 C432 1.297 . S
C1399 C434 1.447 . S
C1411 C447 1.381 . S
C1426 C458 1.351 . S
C1438 C445 1.412 . S
C1453 C49 1.725 . S
C1465 C4 1.752 . S
C1480 C17 1.707 . S
C1492 C62 1.733 . S
C1507 C75 1.743 . S
C1519 C36 1.753 . S
C1534 C127 1.706 . S
C1546 C88 1.712 . S
C1561 C101 1.727 . S
C1573 C140 1.712 . S
C1588 C153 1.745 . S
C1600 C114 1.729 . S
C1615 C160 1.741 . S
C1627 C205 1.751 . S
C1642 C173 1.704 . S
C1654 C218 1.725 . S
C1669 C186 1.725 . S
C1681 C231 1.751 . S
C1696 C277 1.725 . S
C1708 C244 1.732 . S
C1723 C290 1.739 . S
C1735 C251 1.728 . S
C1750 C264 1.779 . S
C1762 C309 1.768 . S
C1777 C355 1.776 . S
C1789 C316 1.748 . S
C1804 C368 1.776 . S
C1816 C329 1.749 . S
C1831 C342 1.767 . S
C1843 C381 1.724 . S
C1858 C400 1.713 . S
C1870 C433 1.731 . S
C1885 C452 1.728 . S
C1897 C407 1.745 . S
C1912 C420 1.705 . S
C1924 C459 1.707 . S
C1939 C10 1.780 . S
C1951 C238 1.851 . S
C1966 C23 1.835 . S
C1978 C257 1.790 . S
C1993 C30 1.811 . S
C2005 C270 1.837 . S
C2020 C439 1.851 . S
C2032 C43 1.767 . S
C2047 C446 1.771 . S
C2059 C56 1.847 . S
C2074 C69 1.804 . S
C2086 C465 1.823 . S
C2101 C82 1.814 . S
C2113 C322 1.837 . S
C2128 C335 1.810 . S
C2140 C95 1.840 . S
C2155 C348 1.819 . S
C2167 C108 1.832 . S
C2182 C199 1.768 . S
C2194 C121 1.838 . S
C2209 C212 1.847 . S
C2221 C134 1.762 . S
C2236 C225 1.840 . S
C2248 C147 1.767 . S
C2263 C394 1.796 . S
C2275 C166 1.821 . S
C2290 C179 1.792 . S
C2302 C413 1.798 . S
C2317 C192 1.788 . S
C2329 C426 1.827 . S
C2344 C283 1.723 . S
C2356 C361 1.641 . S
C2371 C296 1.710 . S
C2383 C374 1.660 . S
C2398 C387 1.714 . S
C2410 C303 1.658 . S
