# Generated by pormake.
# Topology wkf, (6)-cn, num edge types: 1
# Building blocks:
#     Node 0, Type 0, BuildingBlock: KUMJIN_clean_sbu_1, # of connection points: 6
#     Node 1, Type 0, BuildingBlock: KUMJIN_clean_sbu_1, # of connection points: 6
#     Node 2, Type 0, BuildingBlock: KUMJIN_clean_sbu_1, # of connection points: 6
#     Node 3, Type 0, BuildingBlock: KUMJIN_clean_sbu_1, # of connection points: 6
#     Node 4, Type 0, BuildingBlock: KUMJIN_clean_sbu_1, # of connection points: 6
#     Node 5, Type 0, BuildingBlock: KUMJIN_clean_sbu_1, # of connection points: 6
#     Node 6, Type 0, BuildingBlock: KUMJIN_clean_sbu_1, # of connection points: 6
#     Node 7, Type 0, BuildingBlock: KUMJIN_clean_sbu_1, # of connection points: 6
#     Node 8, Type 0, BuildingBlock: KUMJIN_clean_sbu_1, # of connection points: 6
#     Node 9, Type 0, BuildingBlock: KUMJIN_clean_sbu_1, # of connection points: 6
#     Node 10, Type 0, BuildingBlock: KUMJIN_clean_sbu_1, # of connection points: 6
#     Node 11, Type 0, BuildingBlock: KUMJIN_clean_sbu_1, # of connection points: 6
#     Edge 12, Type (0, 0), BuildingBlock: CIFDUS_clean_linker_0, # of connection points: 2
#     Edge 13, Type (0, 0), BuildingBlock: CIFDUS_clean_linker_0, # of connection points: 2
#     Edge 14, Type (0, 0), BuildingBlock: CIFDUS_clean_linker_0, # of connection points: 2
#     Edge 15, Type (0, 0), BuildingBlock: CIFDUS_clean_linker_0, # of connection points: 2
#     Edge 16, Type (0, 0), BuildingBlock: CIFDUS_clean_linker_0, # of connection points: 2
#     Edge 17, Type (0, 0), BuildingBlock: CIFDUS_clean_linker_0, # of connection points: 2
#     Edge 18, Type (0, 0), BuildingBlock: CIFDUS_clean_linker_0, # of connection points: 2
#     Edge 19, Type (0, 0), BuildingBlock: CIFDUS_clean_linker_0, # of connection points: 2
#     Edge 20, Type (0, 0), BuildingBlock: CIFDUS_clean_linker_0, # of connection points: 2
#     Edge 21, Type (0, 0), BuildingBlock: CIFDUS_clean_linker_0, # of connection points: 2
#     Edge 22, Type (0, 0), BuildingBlock: CIFDUS_clean_linker_0, # of connection points: 2
#     Edge 23, Type (0, 0), BuildingBlock: CIFDUS_clean_linker_0, # of connection points: 2
#     Edge 24, Type (0, 0), BuildingBlock: CIFDUS_clean_linker_0, # of connection points: 2
#     Edge 25, Type (0, 0), BuildingBlock: CIFDUS_clean_linker_0, # of connection points: 2
#     Edge 26, Type (0, 0), BuildingBlock: CIFDUS_clean_linker_0, # of connection points: 2
#     Edge 27, Type (0, 0), BuildingBlock: CIFDUS_clean_linker_0, # of connection points: 2
#     Edge 28, Type (0, 0), BuildingBlock: CIFDUS_clean_linker_0, # of connection points: 2
#     Edge 29, Type (0, 0), BuildingBlock: CIFDUS_clean_linker_0, # of connection points: 2
#     Edge 30, Type (0, 0), BuildingBlock: CIFDUS_clean_linker_0, # of connection points: 2
#     Edge 31, Type (0, 0), BuildingBlock: CIFDUS_clean_linker_0, # of connection points: 2
#     Edge 32, Type (0, 0), BuildingBlock: CIFDUS_clean_linker_0, # of connection points: 2
#     Edge 33, Type (0, 0), BuildingBlock: CIFDUS_clean_linker_0, # of connection points: 2
#     Edge 34, Type (0, 0), BuildingBlock: CIFDUS_clean_linker_0, # of connection points: 2
#     Edge 35, Type (0, 0), BuildingBlock: CIFDUS_clean_linker_0, # of connection points: 2
#     Edge 36, Type (0, 0), BuildingBlock: CIFDUS_clean_linker_0, # of connection points: 2
#     Edge 37, Type (0, 0), BuildingBlock: CIFDUS_clean_linker_0, # of connection points: 2
#     Edge 38, Type (0, 0), BuildingBlock: CIFDUS_clean_linker_0, # of connection points: 2
#     Edge 39, Type (0, 0), BuildingBlock: CIFDUS_clean_linker_0, # of connection points: 2
#     Edge 40, Type (0, 0), BuildingBlock: CIFDUS_clean_linker_0, # of connection points: 2
#     Edge 41, Type (0, 0), BuildingBlock: CIFDUS_clean_linker_0, # of connection points: 2
#     Edge 42, Type (0, 0), BuildingBlock: CIFDUS_clean_linker_0, # of connection points: 2
#     Edge 43, Type (0, 0), BuildingBlock: CIFDUS_clean_linker_0, # of connection points: 2
#     Edge 44, Type (0, 0), BuildingBlock: CIFDUS_clean_linker_0, # of connection points: 2
#     Edge 45, Type (0, 0), BuildingBlock: CIFDUS_clean_linker_0, # of connection points: 2
#     Edge 46, Type (0, 0), BuildingBlock: CIFDUS_clean_linker_0, # of connection points: 2
#     Edge 47, Type (0, 0), BuildingBlock: CIFDUS_clean_linker_0, # of connection points: 2
# Relax obj value: 0.271
# Max RMSD: 0.288
# Mean RMSD: 0.278
data_MOF--net-wkf--node1-KUMJIN_clean_sbu_1--edge1-CIFDUS_clean_linker_0
_symmetry_space_group_name_H-M    P1
_symmetry_Int_Tables_number       1
_symmetry_cell_setting            triclinic
loop_
_symmetry_equiv_pos_as_xyz
'x, y, z'
_cell_length_a     26.970856
_cell_length_b     26.970297
_cell_length_c     80.426771
_cell_angle_alpha  90.033294
_cell_angle_beta   89.784015
_cell_angle_gamma 119.37834
loop_
_atom_site_label
_atom_site_type_symbol
_atom_site_fract_x
_atom_site_fract_y
_atom_site_fract_z
_atom_type_partial_charge
Eu0 Eu 0.41147 0.91879 0.34896 0.0
C1 C 0.64334 0.95489 0.35748 0.0
N2 N 0.61559 0.94446 0.37222 0.0
C3 C 0.67643 0.91188 0.3838 0.0
C4 C 0.68981 0.94507 0.35539 0.0
C5 C 0.63045 0.92195 0.38523 0.0
C6 C 0.7067 0.92411 0.36887 0.0
C7 C 0.64712 0.97716 0.32821 0.0
C8 C 0.62228 0.97101 0.34413 0.0
C9 C 0.6954 0.97068 0.32626 0.0
C10 C 0.71667 0.95459 0.33983 0.0
Eu11 Eu 0.54327 0.96945 0.37463 0.0
N12 N 0.57425 0.97495 0.34635 0.0
C13 C 0.62089 0.98649 0.31456 0.0
C14 C 0.54595 0.97821 0.33277 0.0
C15 C 0.56919 0.98546 0.3168 0.0
H16 H 0.60682 0.91174 0.39677 0.0
H17 H 0.54639 0.9886 0.30617 0.0
H18 H 0.46458 1.00339 0.31453 0.0
H19 H 0.20893 0.84853 0.38141 0.0
H20 H 0.50402 0.97167 0.33399 0.0
H21 H 0.63839 0.99116 0.30214 0.0
H22 H 0.29614 0.84571 0.37413 0.0
H23 H 0.68832 0.89447 0.39419 0.0
H24 H 0.71525 0.97584 0.31417 0.0
H25 H 0.75275 0.94782 0.33803 0.0
H26 H 0.43958 0.06279 0.29703 0.0
H27 H 0.74203 0.91584 0.36774 0.0
H28 H 0.18633 0.9162 0.36725 0.0
N29 N 0.39699 0.98181 0.3318 0.0
C30 C 0.34877 0.98429 0.33543 0.0
C31 C 0.41407 0.04145 0.30786 0.0
C32 C 0.33366 1.01871 0.32583 0.0
C33 C 0.42807 1.00769 0.3178 0.0
C34 C 0.36729 0.04781 0.31206 0.0
N35 N 0.32416 0.91278 0.35635 0.0
C36 C 0.2873 0.87593 0.36794 0.0
C37 C 0.26202 0.95195 0.3518 0.0
C38 C 0.31231 0.95 0.34815 0.0
C39 C 0.22517 0.91569 0.36408 0.0
C40 C 0.23767 0.87729 0.37209 0.0
H41 H 0.35676 0.07429 0.30437 0.0
H42 H 0.2729 0.04855 0.32275 0.0
H43 H 0.21086 0.99099 0.3456 0.0
O44 O 0.33145 0.85683 0.33619 0.0
O45 O 0.40213 0.95518 0.37462 0.0
O46 O 0.49514 1.01385 0.38238 0.0
O47 O 0.41271 0.88234 0.32469 0.0
O48 O 0.38984 0.85606 0.37066 0.0
O49 O 0.46377 0.90218 0.38941 0.0
O50 O 0.6248 1.03202 0.3851 0.0
O51 O 0.51673 0.87651 0.36836 0.0
O52 O 0.46372 0.86733 0.34516 0.0
O53 O 0.55891 0.97121 0.40129 0.0
O54 O 0.55467 0.05403 0.36187 0.0
O55 O 0.46963 1.02075 0.34783 0.0
C56 C 0.44087 0.99646 0.38413 0.0
C57 C 0.33352 0.85384 0.30569 0.0
C58 C 0.26013 0.81261 0.28308 0.0
C59 C 0.29734 0.85816 0.27286 0.0
C60 C 0.36925 0.89569 0.29426 0.0
C61 C 0.35094 0.89865 0.27834 0.0
C62 C 0.27868 0.81089 0.29978 0.0
C63 C 0.41132 0.86136 0.38578 0.0
C64 C 0.35724 0.85321 0.32284 0.0
C65 C 0.28455 1.02172 0.32986 0.0
C66 C 0.24912 0.98881 0.34286 0.0
C67 C 0.49467 0.85007 0.35425 0.0
C68 C 0.62003 0.06152 0.41271 0.0
C69 C 0.66671 0.16247 0.41997 0.0
C70 C 0.65585 0.14682 0.4369 0.0
C71 C 0.60945 0.04713 0.42959 0.0
C72 C 0.64565 0.11888 0.40795 0.0
C73 C 0.62626 0.08963 0.44157 0.0
C74 C 0.51969 0.06473 0.35263 0.0
C75 C 0.60851 1.01669 0.40041 0.0
H76 H 0.28637 0.86115 0.2601 0.0
H77 H 0.41268 0.92573 0.29735 0.0
H78 H 0.37948 0.93185 0.26993 0.0
H79 H 0.25129 0.77622 0.30796 0.0
H80 H 0.672 0.17818 0.44671 0.0
H81 H 0.58933 1.00306 0.43353 0.0
H82 H 0.65112 0.12931 0.39486 0.0
H83 H 0.61859 0.07826 0.4546 0.0
Eu84 Eu 0.5176 0.39542 0.51106 0.0
C85 C 0.72305 0.6176 0.52506 0.0
N86 N 0.69793 0.58428 0.53855 0.0
C87 C 0.78782 0.62282 0.55243 0.0
C88 C 0.78255 0.65424 0.52467 0.0
C89 C 0.72895 0.58672 0.55223 0.0
C90 C 0.81482 0.65644 0.53854 0.0
C91 C 0.7152 0.65092 0.49774 0.0
C92 C 0.68926 0.61521 0.51166 0.0
C93 C 0.77447 0.6864 0.49719 0.0
C94 C 0.80804 0.68793 0.51059 0.0
Eu95 Eu 0.59835 0.52857 0.53813 0.0
N96 N 0.6316 0.57959 0.51234 0.0
C97 C 0.68088 0.65118 0.48485 0.0
C98 C 0.59842 0.58081 0.49968 0.0
C99 C 0.62228 0.61666 0.48596 0.0
H100 H 0.7082 0.56012 0.5629 0.0
H101 H 0.59529 0.61639 0.47599 0.0
H102 H 0.63608 0.49965 0.48884 0.0
H103 H 0.29391 0.29091 0.49503 0.0
H104 H 0.55374 0.5529 0.49926 0.0
H105 H 0.69915 0.67819 0.47404 0.0
H106 H 0.37706 0.31839 0.51337 0.0
H107 H 0.81238 0.6243 0.56321 0.0
H108 H 0.79475 0.71351 0.48653 0.0
H109 H 0.85366 0.71598 0.51003 0.0
H110 H 0.65466 0.53969 0.46118 0.0
H111 H 0.86054 0.68405 0.53867 0.0
H112 H 0.30802 0.33247 0.46684 0.0
N113 N 0.54541 0.45116 0.48611 0.0
C114 C 0.50118 0.43748 0.47539 0.0
C115 C 0.61129 0.51093 0.465 0.0
C116 C 0.51084 0.4617 0.45929 0.0
C117 C 0.60007 0.48683 0.48089 0.0
C118 C 0.56659 0.49883 0.45423 0.0
N119 N 0.4365 0.37463 0.49565 0.0
C120 C 0.38314 0.33682 0.50109 0.0
C121 C 0.39949 0.38375 0.46941 0.0
C122 C 0.44567 0.39819 0.48024 0.0
C123 C 0.34445 0.34459 0.47482 0.0
C124 C 0.33625 0.32112 0.49074 0.0
H125 H 0.57564 0.51804 0.44197 0.0
H126 H 0.47178 0.46586 0.43621 0.0
H127 H 0.37447 0.39816 0.44513 0.0
O128 O 0.46997 0.3017 0.51209 0.0
O129 O 0.461 0.38812 0.53441 0.0
O130 O 0.51201 0.47253 0.54911 0.0
O131 O 0.52356 0.34131 0.49116 0.0
O132 O 0.5476 0.37252 0.53515 0.0
O133 O 0.59102 0.45102 0.55267 0.0
O134 O 0.62032 0.61328 0.54682 0.0
O135 O 0.66224 0.49893 0.52979 0.0
O136 O 0.61769 0.43355 0.5089 0.0
O137 O 0.60913 0.54931 0.56463 0.0
O138 O 0.51878 0.53221 0.52692 0.0
O139 O 0.4693 0.44889 0.51174 0.0
C140 C 0.46656 0.42282 0.5471 0.0
C141 C 0.44397 0.24648 0.48649 0.0
C142 C 0.41883 0.17838 0.46254 0.0
C143 C 0.36195 0.15222 0.46815 0.0
C144 C 0.38647 0.21772 0.49126 0.0
C145 C 0.3462 0.17189 0.48212 0.0
C146 C 0.46002 0.22633 0.47199 0.0
C147 C 0.57147 0.39618 0.54952 0.0
C148 C 0.48673 0.29317 0.49768 0.0
C149 C 0.46484 0.44742 0.44855 0.0
C150 C 0.40941 0.40872 0.4536 0.0
C151 C 0.66524 0.46963 0.51701 0.0
C152 C 0.57953 0.61491 0.57273 0.0
C153 C 0.53403 0.6729 0.5767 0.0
C154 C 0.51618 0.6493 0.59264 0.0
C155 C 0.56215 0.59227 0.58878 0.0
C156 C 0.56438 0.65436 0.56672 0.0
C157 C 0.53025 0.60919 0.5986 0.0
C158 C 0.47352 0.49726 0.51774 0.0
C159 C 0.61545 0.59972 0.56247 0.0
H160 H 0.32896 0.11467 0.46216 0.0
H161 H 0.37229 0.22953 0.50241 0.0
H162 H 0.30224 0.15025 0.48619 0.0
H163 H 0.50433 0.24754 0.4683 0.0
H164 H 0.49355 0.66356 0.60075 0.0
H165 H 0.57362 0.562 0.59378 0.0
H166 H 0.57761 0.67212 0.55436 0.0
H167 H 0.51757 0.59222 0.61104 0.0
Eu168 Eu 0.15311 0.51102 0.67918 0.0
C169 C 0.10362 0.70288 0.68872 0.0
N170 N 0.11453 0.68582 0.70341 0.0
C171 C 0.13787 0.77595 0.71562 0.0
C172 C 0.10795 0.75698 0.68699 0.0
C173 C 0.13323 0.72209 0.71668 0.0
C174 C 0.12435 0.79319 0.70077 0.0
C175 C 0.08617 0.68661 0.65924 0.0
C176 C 0.09277 0.66806 0.6751 0.0
C177 C 0.08697 0.73883 0.6576 0.0
C178 C 0.09792 0.77402 0.67147 0.0
Eu179 Eu 0.09971 0.59177 0.70513 0.0
N180 N 0.09419 0.61872 0.67707 0.0
C181 C 0.08201 0.65363 0.64537 0.0
C182 C 0.0951 0.58945 0.66337 0.0
C183 C 0.08798 0.60559 0.64741 0.0
H184 H 0.14489 0.70984 0.72815 0.0
H185 H 0.08849 0.58184 0.63663 0.0
H186 H 0.07626 0.49132 0.64348 0.0
H187 H 0.20603 0.36234 0.71015 0.0
H188 H 0.1042 0.55544 0.66461 0.0
H189 H 0.07727 0.66651 0.63299 0.0
H190 H 0.2177 0.4566 0.70357 0.0
H191 H 0.15215 0.80421 0.72623 0.0
H192 H 0.08137 0.75337 0.64556 0.0
H193 H 0.10044 0.81512 0.66994 0.0
H194 H 1.01266 0.41162 0.62547 0.0
H195 H 0.12838 0.83511 0.69993 0.0
H196 H 0.13389 0.2771 0.69541 0.0
N197 N 0.08858 0.43917 0.66095 0.0
C198 C 0.08073 0.38612 0.66428 0.0
C199 C 1.03096 0.40379 0.63643 0.0
C200 C 1.04405 0.33923 0.65431 0.0
C201 C 0.06716 0.44893 0.64665 0.0
C202 C 1.01844 0.34857 0.64046 0.0
N203 N 0.1513 0.42495 0.6856 0.0
C204 C 0.18568 0.41977 0.69711 0.0
C205 C 0.10475 0.32417 0.68031 0.0
C206 C 0.11187 0.37876 0.67705 0.0
C207 C 0.13836 0.31836 0.69254 0.0
C208 C 0.17927 0.36639 0.70087 0.0
H209 H 0.99024 0.31364 0.63251 0.0
H210 H 1.00691 0.24832 0.65065 0.0
H211 H 0.05931 0.23505 0.67349 0.0
O212 O 0.21198 0.48646 0.66657 0.0
O213 O 0.11937 0.46945 0.70539 0.0
O214 O 0.05427 0.49829 0.7114 0.0
O215 O 0.19998 0.55337 0.65646 0.0
O216 O 0.21231 0.54394 0.70234 0.0
O217 O 0.1691 0.5822 0.71899 0.0
O218 O 1.03355 0.60142 0.71828 0.0
O219 O 0.19265 0.65452 0.69918 0.0
O220 O 0.20451 0.61483 0.67536 0.0
O221 O 0.10495 0.60666 0.73176 0.0
O222 O 1.01839 0.5217 0.69173 0.0
O223 O 1.0502 0.46884 0.67706 0.0
C224 C 0.07495 0.46428 0.71409 0.0
C225 C 0.22315 0.50074 0.63627 0.0
C226 C 0.26221 0.46823 0.61262 0.0
C227 C 0.22244 0.47216 0.6022 0.0
C228 C 0.18625 0.50486 0.62477 0.0
C229 C 0.18529 0.48995 0.60819 0.0
C230 C 0.26219 0.48288 0.62997 0.0
C231 C 0.20775 0.56598 0.71672 0.0
C232 C 0.22326 0.52115 0.65405 0.0
C233 C 1.03557 0.28478 0.65804 0.0
C234 C 0.06553 0.27724 0.67103 0.0
C235 C 0.22014 0.66137 0.68503 0.0
C236 C 1.01608 0.55776 0.74508 0.0
C237 C 0.92019 0.48989 0.75449 0.0
C238 C 0.94329 0.47389 0.76771 0.0
C239 C 1.03843 0.54077 0.75832 0.0
C240 C 0.957 0.53221 0.74333 0.0
C241 C 1.00215 0.49896 0.76949 0.0
C242 C 1.007 0.47706 0.68206 0.0
C243 C 0.05425 0.60071 0.73288 0.0
H244 H 0.22128 0.46397 0.589 0.0
H245 H 0.1588 0.52162 0.62839 0.0
H246 H 0.15635 0.49389 0.59969 0.0
H247 H 0.29253 0.48124 0.63839 0.0
H248 H 0.9159 0.44177 0.77656 0.0
H249 H 0.08393 0.55961 0.76003 0.0
H250 H 0.93959 0.54627 0.73344 0.0
H251 H 1.01971 0.48603 0.7796 0.0
Eu252 Eu 0.68005 0.14702 0.84283 0.0
C253 C 0.45469 0.12312 0.85966 0.0
N254 N 0.48921 0.13131 0.8728 0.0
C255 C 0.45017 0.18206 0.88737 0.0
C256 C 0.41704 0.14552 0.8598 0.0
C257 C 0.48695 0.15944 0.88667 0.0
C258 C 0.41541 0.17552 0.87381 0.0
C259 C 0.41967 0.08208 0.83253 0.0
C260 C 0.45683 0.0922 0.84608 0.0
C261 C 0.3829 0.10507 0.83255 0.0
C262 C 0.38178 0.13691 0.8461 0.0
Eu263 Eu 0.5487 0.09045 0.87135 0.0
N264 N 0.49392 0.07124 0.8462 0.0
C265 C 0.41957 0.04828 0.81939 0.0
C266 C 0.49319 0.03801 0.8332 0.0
C267 C 0.45599 1.02566 0.81984 0.0
H268 H 0.51478 0.16588 0.89705 0.0
H269 H 0.45676 0.99994 0.80961 0.0
H270 H 0.56768 0.16163 0.82521 0.0
H271 H 0.77434 1.022 0.82046 0.0
H272 H 0.52256 1.02272 0.83215 0.0
H273 H 0.39154 0.03935 0.80885 0.0
H274 H 0.75112 0.07541 0.84131 0.0
H275 H 0.44915 0.20506 0.89828 0.0
H276 H 0.35466 0.09796 0.82217 0.0
H277 H 0.35287 0.15404 0.84597 0.0
H278 H 0.52428 0.14798 0.79819 0.0
H279 H 0.3872 0.19344 0.87433 0.0
H280 H 0.73167 1.00492 0.79243 0.0
N281 N 0.61887 0.12346 0.81912 0.0
C282 C 0.63132 0.09581 0.8069 0.0
C283 C 0.5546 0.13342 0.80043 0.0
C284 C 0.60497 0.0855 0.79113 0.0
C285 C 0.58086 0.14213 0.81592 0.0
C286 C 0.56651 0.1049 0.78801 0.0
N287 N 0.69539 0.08679 0.8252 0.0
C288 C 0.73187 0.06718 0.82913 0.0
C289 C 0.6832 0.04773 0.7977 0.0
C290 C 0.67067 0.07742 0.80999 0.0
C291 C 0.72118 1.02801 0.80153 0.0
C292 C 0.7452 0.03733 0.81737 0.0
H293 H 0.54561 0.09789 0.77607 0.0
H294 H 0.59815 0.04861 0.76672 0.0
H295 H 0.6661 1.01514 0.77254 0.0
O296 O 0.77382 0.18913 0.84251 0.0
O297 O 0.69292 0.09976 0.86595 0.0
O298 O 0.60636 0.05866 0.87993 0.0
O299 O 0.73283 0.20826 0.82307 0.0
O300 O 0.70365 0.19845 0.86714 0.0
O301 O 0.62688 0.16048 0.88549 0.0
O302 O 0.46776 1.02476 0.88163 0.0
O303 O 0.57556 0.18296 0.8635 0.0
O304 O 0.64329 0.21185 0.84268 0.0
O305 O 0.53249 0.0838 0.89804 0.0
O306 O 0.54769 1.00928 0.85951 0.0
O307 O 0.62819 0.04556 0.84274 0.0
C308 C 0.65754 0.06588 0.87789 0.0
C309 C 0.82519 0.21826 0.81619 0.0
C310 C 0.89053 0.2592 0.79151 0.0
C311 C 0.90982 0.22018 0.79474 0.0
C312 C 0.84966 0.1836 0.81912 0.0
C313 C 0.89015 0.18363 0.80836 0.0
C314 C 0.84649 0.25688 0.80226 0.0
C315 C 0.68094 0.19713 0.88191 0.0
C316 C 0.78137 0.21637 0.82853 0.0
C317 C 0.61804 0.05665 0.77884 0.0
C318 C 0.6569 0.03775 0.78212 0.0
C319 C 0.60565 0.21979 0.85166 0.0
C320 C 0.47572 0.99056 0.9082 0.0
C321 C 0.42626 0.88932 0.91502 0.0
C322 C 0.45454 0.90188 0.93039 0.0
C323 C 0.50373 1.00223 0.9236 0.0
C324 C 0.43801 0.93394 0.9039 0.0
C325 C 0.49355 0.95801 0.93453 0.0
C326 C 0.58217 1.00062 0.84931 0.0
C327 C 0.48397 0.03741 0.897 0.0
H328 H 0.94057 0.21744 0.78667 0.0
H329 H 0.83801 0.15634 0.82993 0.0
H330 H 0.90703 0.15524 0.81071 0.0
H331 H 0.83003 0.28572 0.80014 0.0
H332 H 0.44575 0.86859 0.93935 0.0
H333 H 0.53308 0.04556 0.92729 0.0
H334 H 0.4168 0.92459 0.89197 0.0
H335 H 0.51512 0.96736 0.94639 0.0
Eu336 Eu 0.57666 0.6745 0.01257 0.0
C337 C 0.37055 0.45052 0.02381 0.0
N338 N 0.39093 0.48105 0.03794 0.0
C339 C 0.29783 0.43222 0.0503 0.0
C340 C 0.31268 0.4087 0.02244 0.0
C341 C 0.35536 0.47336 0.05102 0.0
C342 C 0.27651 0.39924 0.03601 0.0
C343 C 0.38584 0.43603 0.99501 0.0
C344 C 0.4068 0.46398 0.01036 0.0
C345 C 0.32903 0.39245 0.99377 0.0
C346 C 0.29247 0.37886 1.00746 0.0
Eu347 Eu 0.48996 0.54499 0.0394 0.0
N348 N 0.46099 0.50772 0.01187 0.0
C349 C 0.42178 0.45451 0.98114 0.0
C350 C 0.49376 0.52882 0.99798 0.0
C351 C 0.4756 0.502 0.98257 0.0
H352 H 0.37113 0.4993 0.06204 0.0
H353 H 0.50252 0.51882 0.97169 0.0
H354 H 0.58349 0.61392 0.9759 0.0
H355 H 0.74478 0.86057 0.04429 0.0
H356 H 0.53228 0.56801 0.99852 0.0
H357 H 0.40737 0.43434 0.96914 0.0
H358 H 0.64555 0.78776 0.03825 0.0
H359 H 0.26995 0.42615 0.06073 0.0
H360 H 0.31248 0.37033 0.98212 0.0
H361 H 0.24828 0.34633 1.00621 0.0
H362 H 0.65773 0.61791 0.95707 0.0
H363 H 0.23192 0.36745 0.03547 0.0
H364 H 0.82387 0.86243 0.02818 0.0
N365 N 0.64242 0.67272 0.99327 0.0
C366 C 0.69798 0.71174 0.99633 0.0
C367 C 0.66958 0.64389 0.96816 0.0
C368 C 0.74162 0.71592 0.98567 0.0
C369 C 0.62764 0.64112 0.97897 0.0
C370 C 0.7268 0.68082 0.97164 0.0
N371 N 0.66877 0.74747 0.01938 0.0
C372 C 0.67995 0.78807 0.03123 0.0
C373 C 0.76858 0.79046 0.0128 0.0
C374 C 0.71141 0.74898 0.00984 0.0
C375 C 0.7805 0.83007 0.02556 0.0
C376 C 0.73598 0.82928 0.03467 0.0
H377 H 0.75917 0.68286 0.9632 0.0
H378 H 0.83253 0.75873 0.98116 0.0
H379 H 0.85607 0.82383 1.00484 0.0
O380 O 0.58745 0.75912 1.00702 0.0
O381 O 0.62198 0.67751 0.038 0.0
O382 O 0.58013 0.58534 0.04779 0.0
O383 O 0.5702 0.70196 0.98677 0.0
O384 O 0.54327 0.70227 0.03512 0.0
O385 O 0.50546 0.62658 0.05369 0.0
O386 O 0.467 0.46238 0.05068 0.0
O387 O 0.43676 0.58701 0.03263 0.0
O388 O 0.47356 0.62103 1.00703 0.0
O389 O 0.47273 0.53091 0.06588 0.0
O390 O 0.56278 0.53141 0.02714 0.0
O391 O 0.61786 0.6125 0.01149 0.0
C392 C 0.62076 0.63815 0.04835 0.0
C393 C 0.6275 0.80435 0.98054 0.0
C394 C 0.65829 0.87302 0.95625 0.0
C395 C 0.71004 0.90596 0.96469 0.0
C396 C 0.6804 0.84026 0.98782 0.0
C397 C 0.72091 0.88949 0.98 0.0
C398 C 0.6165 0.82126 0.96451 0.0
C399 C 0.52294 0.68082 0.05004 0.0
C400 C 0.58374 0.75391 0.99086 0.0
C401 C 0.79855 0.75555 0.98911 0.0
C402 C 0.81197 0.79259 1.00262 0.0
C403 C 0.428 0.59966 0.0175 0.0
C404 C 0.49598 0.46738 0.07903 0.0
C405 C 0.54568 0.41841 0.0892 0.0
C406 C 0.54534 0.4387 0.1053 0.0
C407 C 0.49621 0.48718 0.09521 0.0
C408 C 0.52174 0.43392 0.07605 0.0
C409 C 0.52126 0.47334 0.10821 0.0
C410 C 0.60882 0.56215 0.01752 0.0
C411 C 0.46626 0.47993 0.06574 0.0
H412 H 0.74244 0.9465 0.95996 0.0
H413 H 0.69031 0.83197 1.00005 0.0
H414 H 0.76088 0.91643 0.98618 0.0
H415 H 0.57564 0.79479 0.95877 0.0
H416 H 0.56224 0.42661 0.11577 0.0
H417 H 0.4764 0.5129 0.09785 0.0
H418 H 0.52214 0.41896 0.06357 0.0
H419 H 0.52092 0.4885 0.12065 0.0
Eu420 Eu 0.94055 0.57141 0.18189 0.0
C421 C 0.98628 0.37851 0.18076 0.0
N422 N 0.97611 0.38912 0.1965 0.0
C423 C 0.94862 0.29312 0.20441 0.0
C424 C 0.9793 0.3248 0.17629 0.0
C425 C 0.95587 0.34687 0.20821 0.0
C426 C 0.96116 0.28224 0.18843 0.0
C427 C 1.0045 0.40823 0.15198 0.0
C428 C 0.99881 0.41982 0.16881 0.0
C429 C 1.00112 0.35623 0.14762 0.0
C430 C 0.98844 0.31453 0.15976 0.0
Eu431 Eu 0.99625 0.48317 0.20268 0.0
N432 N 0.99986 0.46892 0.17339 0.0
C433 C 1.01036 0.44793 0.13989 0.0
C434 C 1.00022 0.50464 0.16141 0.0
C435 C 1.00675 0.49572 0.14461 0.0
H436 H 0.94496 0.35428 0.22053 0.0
H437 H 1.00773 0.52505 0.13527 0.0
H438 H 1.02847 0.61809 0.14795 0.0
H439 H 0.8542 0.68346 0.21856 0.0
H440 H 0.99314 0.5386 0.16465 0.0
H441 H 1.01459 0.44059 0.12685 0.0
H442 H 0.85733 0.59959 0.20829 0.0
H443 H 0.93304 0.26004 0.21378 0.0
H444 H 1.006 0.347 0.1348 0.0
H445 H 0.98388 0.27379 0.15614 0.0
H446 H 0.08474 0.7079 0.13268 0.0
H447 H 0.95502 0.2404 0.18547 0.0
H448 H 0.92014 0.77858 0.20719 0.0
N449 N 1.00073 0.65487 0.16667 0.0
C450 C 0.99979 0.70243 0.17198 0.0
C451 C 0.06141 0.70705 0.14375 0.0
C452 C 1.03297 0.7551 0.16382 0.0
C453 C 1.02903 0.6561 0.15236 0.0
C454 C 0.06432 0.75698 0.14969 0.0
N455 N 0.92685 0.64634 0.19167 0.0
C456 C 0.88744 0.64059 0.20337 0.0
C457 C 0.9613 0.74735 0.1903 0.0
C458 C 0.96302 0.6983 0.18495 0.0
C459 C 0.9225 0.74185 0.20274 0.0
C460 C 0.88513 0.68822 0.20918 0.0
H461 H 0.08989 0.79653 0.14306 0.0
H462 H 0.05827 0.84474 0.16358 0.0
H463 H 0.99644 0.83817 0.1869 0.0
O464 O 0.87982 0.59167 0.16879 0.0
O465 O 0.98187 0.61305 0.20734 0.0
O466 O 1.03528 0.5702 0.21435 0.0
O467 O 0.90613 0.53593 0.15733 0.0
O468 O 0.88146 0.52801 0.20433 0.0
O469 O 0.92862 0.48965 0.21898 0.0
O470 O 0.06299 0.46619 0.21158 0.0
O471 O 0.90448 0.41705 0.1963 0.0
O472 O 0.88256 0.46906 0.17802 0.0
O473 O 0.99504 0.45546 0.22813 0.0
O474 O 0.07952 0.5602 0.19125 0.0
O475 O 1.0434 0.6153 0.18042 0.0
C476 C 1.02109 0.60979 0.21662 0.0
C477 C 0.87784 0.58707 0.13822 0.0
C478 C 0.83492 0.61605 0.11502 0.0
C479 C 0.8823 0.62643 0.10519 0.0
C480 C 0.92175 0.59539 0.12718 0.0
C481 C 0.92468 0.61606 0.11116 0.0
C482 C 0.83319 0.5964 0.13184 0.0
C483 C 0.8885 0.50458 0.21796 0.0
C484 C 0.87692 0.5627 0.15541 0.0
C485 C 1.03242 0.80394 0.16957 0.0
C486 C 0.99707 0.80016 0.18283 0.0
C487 C 0.87088 0.41826 0.18466 0.0
C488 C 0.08425 0.48716 0.24034 0.0
C489 C 0.18142 0.54938 0.24977 0.0
C490 C 0.16251 0.53333 0.26631 0.0
C491 C 0.06649 0.47214 0.25686 0.0
C492 C 0.14076 0.52822 0.23696 0.0
C493 C 0.10528 0.49617 0.26979 0.0
C494 C 0.08863 0.60848 0.18389 0.0
C495 C 1.04391 0.45729 0.22684 0.0
H496 H 0.88552 0.63985 0.09236 0.0
H497 H 0.95349 0.58411 0.13065 0.0
H498 H 0.95941 0.62232 0.10305 0.0
H499 H 0.79718 0.58749 0.13974 0.0
H500 H 0.19182 0.54703 0.27663 0.0
H501 H 1.02279 0.44104 0.25974 0.0
H502 H 0.15336 0.54141 0.22423 0.0
H503 H 0.09146 0.48391 0.28251 0.0
Eu504 Eu 0.1554 0.67523 0.50464 0.0
C505 C 0.12766 0.44451 0.48455 0.0
N506 N 0.1452 0.48644 0.47299 0.0
C507 C 0.20024 0.45068 0.45913 0.0
C508 C 0.14581 0.4035 0.48372 0.0
C509 C 0.18151 0.49049 0.46046 0.0
C510 C 0.18204 0.40676 0.47074 0.0
C511 C 0.07617 0.40125 0.51001 0.0
C512 C 0.09341 0.44391 0.49762 0.0
C513 C 0.09325 0.35983 0.509 0.0
C514 C 0.12806 0.36103 0.49592 0.0
Eu515 Eu 0.10568 0.54738 0.4747 0.0
N516 N 0.07833 0.48543 0.49852 0.0
C517 C 1.04261 0.40149 0.52322 0.0
C518 C 1.04684 0.4861 0.51182 0.0
C519 C 1.02813 0.44422 0.52414 0.0
H520 H 0.19666 0.52498 0.45158 0.0
H521 H 1.00365 0.4459 0.53461 0.0
H522 H 0.16826 0.56004 0.52088 0.0
H523 H 1.02464 0.7621 0.52771 0.0
H524 H 1.0383 0.52011 0.5139 0.0
H525 H 1.02862 0.36955 0.53293 0.0
H526 H 0.08138 0.74356 0.50682 0.0
H527 H 0.22898 0.45411 0.4492 0.0
H528 H 0.08023 0.32696 0.5184 0.0
H529 H 0.14146 0.32918 0.49544 0.0
H530 H 0.15132 0.51108 0.54714 0.0
H531 H 0.19695 0.37616 0.46974 0.0
H532 H 1.00523 0.71515 0.55523 0.0
N533 N 0.13076 0.6109 0.52774 0.0
C534 C 0.10129 0.62065 0.54002 0.0
C535 C 0.13756 0.54227 0.54539 0.0
C536 C 0.089 0.5912 0.55536 0.0
C537 C 0.14844 0.57184 0.53036 0.0
C538 C 0.10792 0.55206 0.55796 0.0
N539 N 0.09309 0.68685 0.52246 0.0
C540 C 0.07253 0.72275 0.51881 0.0
C541 C 1.05041 0.66924 0.54962 0.0
C542 C 0.08232 0.6597 0.53733 0.0
C543 C 1.02999 0.7069 0.54612 0.0
C544 C 1.04065 0.73335 0.53058 0.0
H545 H 0.09931 0.52869 0.56954 0.0
H546 H 1.04869 0.57928 0.57951 0.0
H547 H 1.01464 0.64723 0.57442 0.0
O548 O 0.19641 0.76889 0.5049 0.0
O549 O 0.10284 0.68508 0.48305 0.0
O550 O 0.08241 0.61127 0.46454 0.0
O551 O 0.21199 0.72783 0.52514 0.0
O552 O 0.20851 0.70346 0.48033 0.0
O553 O 0.17921 0.62662 0.46235 0.0
O554 O 1.03524 0.47411 0.46231 0.0
O555 O 0.19284 0.56661 0.48607 0.0
O556 O 0.2226 0.64229 0.50428 0.0
O557 O 0.10959 0.53126 0.44843 0.0
O558 O 1.02243 0.54348 0.48593 0.0
O559 O 0.05447 0.62107 0.50367 0.0
C560 C 0.08012 0.65695 0.46893 0.0
C561 C 0.21986 0.81967 0.53124 0.0
C562 C 0.25578 0.88451 0.55603 0.0
C563 C 0.21655 0.90288 0.55205 0.0
C564 C 0.18497 0.84329 0.52753 0.0
C565 C 0.1824 0.8831 0.53798 0.0
C566 C 0.25612 0.84124 0.54557 0.0
C567 C 0.21217 0.68117 0.46593 0.0
C568 C 0.2208 0.77632 0.51934 0.0
C569 C 0.0582 0.6015 0.56771 0.0
C570 C 1.03891 0.6403 0.56483 0.0
C571 C 0.23068 0.60216 0.49687 0.0
C572 C 1.02292 0.4947 0.43423 0.0
C573 C 0.93044 0.46499 0.42166 0.0
C574 C 0.95737 0.50059 0.408 0.0
C575 C 1.04921 0.53005 0.42037 0.0
C576 C 0.96336 0.46265 0.43482 0.0
C577 C 1.01653 0.53296 0.40741 0.0
C578 C 1.01136 0.57555 0.49639 0.0
C579 C 0.05785 0.48978 0.44759 0.0
H580 H 0.21174 0.93295 0.55984 0.0
H581 H 0.15945 0.83138 0.51639 0.0
H582 H 0.15382 0.89928 0.53504 0.0
H583 H 0.28525 0.82551 0.54823 0.0
H584 H 0.93267 0.50204 0.39761 0.0
H585 H 0.09511 0.55504 0.41942 0.0
H586 H 0.94265 0.43354 0.44508 0.0
H587 H 1.0372 0.5598 0.39674 0.0
Eu588 Eu 0.52551 0.14267 0.66678 0.0
C589 C 0.71601 0.09453 0.64094 0.0
N590 N 0.69338 0.11825 0.63082 0.0
C591 C 0.7815 0.16758 0.61575 0.0
C592 C 0.77259 0.10582 0.63864 0.0
C593 C 0.72539 0.1552 0.61851 0.0
C594 C 0.80507 0.14235 0.62577 0.0
C595 C 0.70725 0.03804 0.66527 0.0
C596 C 0.6836 0.06136 0.65413 0.0
C597 C 0.76277 0.04756 0.6627 0.0
C598 C 0.79542 0.08149 0.64944 0.0
Eu599 Eu 0.59653 0.09095 0.63463 0.0
N600 N 0.63028 0.054 0.65651 0.0
C601 C 0.67498 1.00671 0.67891 0.0
C602 C 0.60017 1.02542 0.67035 0.0
C603 C 0.62143 1.00086 0.68152 0.0
H604 H 0.70793 0.17581 0.61088 0.0
H605 H 0.5968 0.97845 0.69239 0.0
H606 H 0.65189 0.14962 0.68151 0.0
H607 H 0.30909 1.00957 0.68916 0.0
H608 H 0.56082 1.02315 0.6736 0.0
H609 H 0.69161 0.98823 0.68772 0.0
H610 H 0.38389 0.07106 0.66896 0.0
H611 H 0.80659 0.19676 0.60596 0.0
H612 H 0.78126 1.02973 0.6711 0.0
H613 H 0.83861 0.08943 0.64781 0.0
H614 H 0.68307 0.12392 0.70654 0.0
H615 H 0.84868 0.15221 0.62366 0.0
H616 H 0.33607 0.98114 0.71535 0.0
N617 N 0.56419 0.11106 0.68846 0.0
C618 C 0.52508 0.07869 0.70034 0.0
C619 C 0.63858 0.1114 0.70504 0.0
C620 C 0.54184 0.06155 0.71492 0.0
C621 C 0.62037 0.12714 0.69075 0.0
C622 C 0.5993 0.07869 0.71719 0.0
N623 N 0.4515 0.07673 0.68373 0.0
C624 C 0.39557 0.0585 0.68041 0.0
C625 C 0.42634 1.02639 0.70976 0.0
C626 C 0.46757 0.0614 0.69795 0.0
C627 C 0.36887 1.00809 0.70657 0.0
C628 C 0.3534 1.02387 0.69178 0.0
H629 H 0.6137 0.06635 0.7282 0.0
H630 H 0.51335 1.01453 0.73807 0.0
H631 H 0.41238 0.98346 0.73347 0.0
O632 O 0.47469 0.18596 0.6692 0.0
O633 O 0.46683 0.10659 0.64336 0.0
O634 O 0.50497 0.05919 0.62857 0.0
O635 O 0.53372 0.19854 0.68828 0.0
O636 O 0.5482 0.1986 0.64322 0.0
O637 O 0.5924 0.1682 0.62421 0.0
O638 O 0.59615 1.02567 0.61812 0.0
O639 O 0.66593 0.17485 0.64638 0.0
O640 O 0.62666 0.20825 0.66602 0.0
O641 O 0.60799 0.10464 0.60801 0.0
O642 O 0.51888 1.00879 0.64611 0.0
O643 O 0.47432 0.03988 0.66483 0.0
C644 C 0.46466 0.07189 0.63118 0.0
C645 C 0.45288 0.21056 0.69619 0.0
C646 C 0.4279 0.25204 0.72068 0.0
C647 C 0.37071 0.21007 0.71836 0.0
C648 C 0.39447 0.1735 0.69395 0.0
C649 C 0.35437 0.17216 0.70511 0.0
C650 C 0.46951 0.25084 0.70963 0.0
C651 C 0.57206 0.20209 0.6285 0.0
C652 C 0.49445 0.2098 0.68352 0.0
C653 C 0.50093 1.02772 0.72683 0.0
C654 C 0.44342 1.0101 0.72424 0.0
C655 C 0.67251 0.21367 0.65761 0.0
C656 C 0.55054 1.02267 0.59252 0.0
C657 C 0.49323 0.93785 0.57608 0.0
C658 C 0.46159 0.96207 0.56984 0.0
C659 C 0.51861 0.04693 0.5861 0.0
C660 C 0.53761 0.96828 0.58735 0.0
C661 C 0.47472 1.01682 0.57476 0.0
C662 C 0.47652 0.99683 0.65696 0.0
C663 C 0.59659 0.05311 0.60472 0.0
H664 H 0.33764 0.20627 0.72677 0.0
H665 H 0.37903 0.14574 0.68332 0.0
H666 H 0.30978 0.14181 0.70333 0.0
H667 H 0.51404 0.28186 0.71109 0.0
H668 H 0.4273 0.93893 0.56113 0.0
H669 H 0.52713 0.08893 0.58987 0.0
H670 H 0.56178 0.94918 0.59226 0.0
H671 H 0.45052 0.03581 0.5699 0.0
Eu672 Eu 0.41157 0.50878 0.83075 0.0
C673 C 0.63989 0.71944 0.81825 0.0
N674 N 0.60766 0.69605 0.80456 0.0
C675 C 0.64796 0.788 0.79159 0.0
C676 C 0.67804 0.77859 0.81907 0.0
C677 C 0.6106 0.72937 0.79136 0.0
C678 C 0.68202 0.81274 0.80548 0.0
C679 C 0.66562 0.70841 0.84625 0.0
C680 C 0.63314 0.68456 0.8317 0.0
C681 C 0.70434 0.76698 0.84699 0.0
C682 C 0.71037 0.80202 0.83346 0.0
Eu683 Eu 0.54724 0.59636 0.80439 0.0
N684 N 0.59404 0.62803 0.83079 0.0
C685 C 0.65803 0.67292 0.85975 0.0
C686 C 0.58563 0.59417 0.84432 0.0
C687 C 0.61788 0.61557 0.85876 0.0
H688 H 0.58328 0.71109 0.78073 0.0
H689 H 0.61085 0.5878 0.86927 0.0
H690 H 0.49114 0.60634 0.86092 0.0
H691 H 0.32297 0.27817 0.83026 0.0
H692 H 0.55322 0.55093 0.84457 0.0
H693 H 0.68228 0.6895 0.87108 0.0
H694 H 0.34679 0.37184 0.81854 0.0
H695 H 0.64998 0.81414 0.78112 0.0
H696 H 0.72941 0.78572 0.85806 0.0
H697 H 0.73988 0.84726 0.83429 0.0
H698 H 0.52141 0.60502 0.88934 0.0
H699 H 0.71058 0.85829 0.80569 0.0
H700 H 0.35038 0.27106 0.85908 0.0
N701 N 0.45266 0.5164 0.8574 0.0
C702 C 0.43733 0.4654 0.86497 0.0
C703 C 0.49817 0.56549 0.88258 0.0
C704 C 0.45441 0.46322 0.88141 0.0
C705 C 0.48087 0.56589 0.86624 0.0
C706 C 0.48545 0.51411 0.89013 0.0
N707 N 0.3895 0.41756 0.84031 0.0
C708 C 0.36023 0.36943 0.831 0.0
C709 C 0.39098 0.36187 0.86349 0.0
C710 C 0.40465 0.41476 0.85628 0.0
C711 C 0.36136 0.31239 0.85398 0.0
C712 C 0.34611 0.31623 0.83766 0.0
H713 H 0.49917 0.51414 0.90278 0.0
H714 H 0.4527 0.40823 0.90131 0.0
H715 H 0.39818 0.31978 0.88553 0.0
O716 O 0.31799 0.45674 0.8318 0.0
O717 O 0.40368 0.46523 0.80506 0.0
O718 O 0.49685 0.50514 0.79564 0.0
O719 O 0.35916 0.52145 0.84991 0.0
O720 O 0.38655 0.53767 0.80624 0.0
O721 O 0.46914 0.5868 0.79049 0.0
O722 O 0.62706 0.61034 0.79285 0.0
O723 O 0.51446 0.65696 0.81291 0.0
O724 O 0.4563 0.60949 0.83507 0.0
O725 O 0.56269 0.61362 0.77798 0.0
O726 O 0.55486 0.51994 0.81561 0.0
O727 O 0.47187 0.46625 0.83067 0.0
C728 C 0.44324 0.46542 0.79502 0.0
C729 C 0.27208 0.43841 0.85886 0.0
C730 C 0.20733 0.41427 0.88368 0.0
C731 C 0.19848 0.35839 0.88269 0.0
C732 C 0.25887 0.38121 0.85836 0.0
C733 C 0.22349 0.34223 0.8702 0.0
C734 C 0.24569 0.45488 0.87169 0.0
C735 C 0.41354 0.56484 0.79239 0.0
C736 C 0.31096 0.47863 0.84545 0.0
C737 C 0.43973 0.41046 0.88873 0.0
C738 C 0.40839 0.36002 0.87978 0.0
C739 C 0.48896 0.65827 0.82681 0.0
C740 C 0.60765 0.5669 0.76605 0.0
C741 C 0.63808 0.49824 0.75837 0.0
C742 C 0.59913 0.47954 0.74514 0.0
C743 C 0.56916 0.54759 0.75267 0.0
C744 C 0.64232 0.54239 0.76866 0.0
C745 C 0.56491 0.5041 0.74236 0.0
C746 C 0.52174 0.47379 0.82473 0.0
C747 C 0.60862 0.60958 0.77783 0.0
H748 H 0.17235 0.32645 0.89175 0.0
H749 H 0.27547 0.36588 0.84867 0.0
H750 H 0.21509 0.29867 0.86965 0.0
H751 H 0.25406 0.49844 0.87211 0.0
H752 H 0.59471 0.44562 0.73701 0.0
H753 H 0.54166 0.5655 0.75027 0.0
H754 H 0.67315 0.55836 0.77863 0.0
H755 H 0.53475 0.48916 0.73222 0.0
Eu756 Eu 0.94278 0.40091 0.99652 0.0
C757 C 0.99394 0.64451 0.98194 0.0
N758 N 0.97476 0.61052 0.96841 0.0
C759 C 0.94971 0.67548 0.95552 0.0
C760 C 0.99378 0.69674 0.98257 0.0
C761 C 0.9505 0.62402 0.95556 0.0
C762 C 0.97248 0.71258 0.96896 0.0
C763 C 1.0224 0.65538 0.01073 0.0
C764 C 1.0078 0.62394 0.99577 0.0
C765 C 1.02664 0.7094 0.0111 0.0
C766 C 1.01218 0.73002 0.99702 0.0
Eu767 Eu 0.98516 0.52813 0.96799 0.0
N768 N 1.00079 0.57053 0.99509 0.0
C769 C 1.02904 0.63027 0.02511 0.0
C770 C 1.00171 0.54429 0.00948 0.0
C771 C 1.01717 0.5739 0.02456 0.0
H772 H 0.93189 0.59528 0.94522 0.0
H773 H 1.01875 0.55293 0.03584 0.0
H774 H 1.00173 0.45751 0.03382 0.0
H775 H 0.93995 0.2174 0.96604 0.0
H776 H 0.98854 0.50001 0.00956 0.0
H777 H 1.04009 0.65283 0.03685 0.0
H778 H 0.90281 0.28239 0.97309 0.0
H779 H 0.93131 0.68635 0.94517 0.0
H780 H 1.03848 0.73436 0.02241 0.0
H781 H 1.01312 0.7706 0.99767 0.0
H782 H 0.07528 0.45959 0.05253 0.0
H783 H 0.97136 0.7522 0.96898 0.0
H784 H 1.02681 0.2287 0.9797 0.0
N785 N 1.01375 0.40795 0.01532 0.0
C786 C 1.03777 0.37492 0.01156 0.0
C787 C 0.06575 0.4364 0.04092 0.0
C788 C 0.08009 0.37514 0.02185 0.0
C789 C 1.02454 0.4356 0.03026 0.0
C790 C 0.09463 0.4072 0.03651 0.0
N791 N 0.96989 0.33173 0.98993 0.0
C792 C 0.94095 0.28767 0.97909 0.0
C793 C 1.03796 0.29994 0.9948 0.0
C794 C 1.01624 0.33705 0.99821 0.0
C795 C 1.01119 0.25778 0.9827 0.0
C796 C 0.96192 0.251 0.97503 0.0
H797 H 0.12664 0.40806 0.0448 0.0
H798 H 0.13742 0.34134 0.02535 0.0
H799 H 0.10123 0.27619 1.00157 0.0
O800 O 0.87883 0.31346 1.0038 0.0
O801 O 0.9731 0.39269 0.96954 0.0
O802 O 1.03555 0.48465 0.96269 0.0
O803 O 0.90232 0.37931 0.02164 0.0
O804 O 0.87897 0.37076 0.97486 0.0
O805 O 0.91131 0.4462 0.9563 0.0
O806 O 1.04404 0.59762 0.95167 0.0
O807 O 0.89497 0.5015 0.97716 0.0
O808 O 0.88957 0.45256 1.0012 0.0
O809 O 0.96842 0.52635 0.94156 0.0
O810 O 0.07183 0.5406 0.97929 0.0
O811 O 1.04472 0.46766 0.9984 0.0
C812 C 1.01653 0.43066 0.96045 0.0
C813 C 0.87231 0.28402 0.03245 0.0
C814 C 0.83018 0.21529 0.05639 0.0
C815 C 0.87866 0.20844 0.05581 0.0
C816 C 0.91692 0.27161 0.03225 0.0
C817 C 0.92076 0.23559 0.04385 0.0
C818 C 0.82797 0.25495 0.0447 0.0
C819 C 0.87575 0.39238 0.96036 0.0
C820 C 0.87237 0.32449 0.01917 0.0
C821 C 0.1043 0.34105 0.01772 0.0
C822 C 0.08357 0.30384 1.00418 0.0
C823 C 0.87069 0.4819 0.99178 0.0
C824 C 1.05052 0.56532 0.92462 0.0
C825 C 0.13382 0.60921 0.90666 0.0
C826 C 0.11711 0.55682 0.89895 0.0
C827 C 1.03346 0.51283 0.91666 0.0
C828 C 0.10037 0.61329 0.91938 0.0
C829 C 0.06657 0.50886 0.90385 0.0
C830 C 0.08639 0.51441 0.99095 0.0
C831 C 1.01694 0.57116 0.93823 0.0
H832 H 0.88473 0.18192 0.06474 0.0
H833 H 0.94894 0.28907 0.02287 0.0
H834 H 0.95678 0.22824 0.04348 0.0
H835 H 0.79187 0.26216 0.04486 0.0
H836 H 0.14292 0.55315 0.8892 0.0
H837 H 0.99496 0.47479 0.92038 0.0
H838 H 0.11375 0.65394 0.92538 0.0
H839 H 0.05343 0.46834 0.89787 0.0
Eu840 Eu 0.58764 0.92728 0.16586 0.0
C841 C 0.40276 0.9889 0.16372 0.0
N842 N 0.41149 0.97422 0.14833 0.0
C843 C 0.3195 0.95825 0.13979 0.0
C844 C 0.35266 0.99094 0.16759 0.0
C845 C 0.36967 0.95664 0.13659 0.0
C846 C 0.3114 0.97655 0.15527 0.0
C847 C 0.43084 1.00622 0.19258 0.0
C848 C 0.44136 0.99638 0.176 0.0
C849 C 0.38327 1.01246 0.19627 0.0
C850 C 0.34415 1.00472 0.18379 0.0
Eu851 Eu 0.50107 0.98055 0.14292 0.0
N852 N 0.48576 0.98797 0.17206 0.0
C853 C 0.46653 1.00624 0.20511 0.0
C854 C 0.51677 0.98246 0.18456 0.0
C855 C 0.50877 0.99276 0.20112 0.0
H856 H 0.37459 0.94128 0.12466 0.0
H857 H 0.53443 0.98911 0.21084 0.0
H858 H 0.63032 1.00494 0.20148 0.0
H859 H 0.71125 0.86432 0.12547 0.0
H860 H 0.54645 0.9683 0.18198 0.0
H861 H 0.45981 1.01338 0.21798 0.0
H862 H 0.62355 0.85459 0.13812 0.0
H863 H 0.28701 0.94511 0.13034 0.0
H864 H 0.37503 1.02073 0.20888 0.0
H865 H 0.30634 1.00725 0.18694 0.0
H866 H 0.72105 0.06986 0.21538 0.0
H867 H 0.27229 0.97735 0.15777 0.0
H868 H 0.80503 0.94106 0.13466 0.0
N869 N 0.67037 0.99415 0.17996 0.0
C870 C 0.72013 1.00262 0.17291 0.0
C871 C 0.72136 0.0519 0.20337 0.0
C872 C 0.77285 0.03962 0.18047 0.0
C873 C 0.67015 1.01537 0.19546 0.0
C874 C 0.77292 0.06499 0.1957 0.0
N875 N 0.66721 0.92692 0.15381 0.0
C876 C 0.66418 0.8886 0.14214 0.0
C877 C 0.76958 0.97458 0.15278 0.0
C878 C 0.71844 0.96859 0.15948 0.0
C879 C 0.76666 0.93752 0.14014 0.0
C880 C 0.7138 0.89395 0.13496 0.0
H881 H 0.81249 0.09319 0.20191 0.0
H882 H 0.8644 0.07679 0.17865 0.0
H883 H 0.8616 1.02105 0.1542 0.0
O884 O 0.60764 0.86165 0.1749 0.0
O885 O 0.62492 0.96448 0.1393 0.0
O886 O 0.59211 1.02719 0.13465 0.0
O887 O 0.57166 0.89598 0.19204 0.0
O888 O 0.53895 0.86269 0.14552 0.0
O889 O 0.51047 0.91125 0.12775 0.0
O890 O 0.49198 0.04696 0.12972 0.0
O891 O 0.43342 0.89107 0.15116 0.0
O892 O 0.4846 0.87132 0.17051 0.0
O893 O 0.47245 0.96829 0.11732 0.0
O894 O 0.57501 0.06515 0.15483 0.0
O895 O 0.62669 1.02961 0.16819 0.0
C896 C 0.6275 1.00881 0.13118 0.0
C897 C 0.6297 0.85815 0.20398 0.0
C898 C 0.64996 0.81303 0.22844 0.0
C899 C 0.70451 0.86074 0.22922 0.0
C900 C 0.68615 0.90199 0.205 0.0
C901 C 0.72245 0.90414 0.21755 0.0
C902 C 0.61195 0.81192 0.21567 0.0
C903 C 0.52065 0.8686 0.13085 0.0
C904 C 0.59188 0.86089 0.1903 0.0
C905 C 0.82363 0.04758 0.17321 0.0
C906 C 0.822 1.01561 0.15932 0.0
C907 C 0.43398 0.85905 0.16349 0.0
C908 C 0.5188 0.052 0.1013 0.0
C909 C 0.5574 0.13466 0.08314 0.0
C910 C 0.58715 0.1133 0.07406 0.0
C911 C 0.54917 1.03087 0.09215 0.0
C912 C 0.52328 0.10401 0.09669 0.0
C913 C 0.58299 0.06142 0.07859 0.0
C914 C 0.62038 0.07464 0.16393 0.0
C915 C 0.48229 1.02029 0.11553 0.0
H916 H 0.73481 0.86328 0.23846 0.0
H917 H 0.70335 0.93455 0.19588 0.0
H918 H 0.76559 0.93934 0.21799 0.0
H919 H 0.56957 0.77565 0.2148 0.0
H920 H 0.61354 0.13674 0.06356 0.0
H921 H 0.5471 0.99099 0.09547 0.0
H922 H 0.49999 0.12063 0.10359 0.0
H923 H 0.60631 0.045 0.07167 0.0
Eu924 Eu 0.70554 0.56119 0.3329 0.0
C925 C 0.46631 0.36821 0.33117 0.0
N926 N 0.492 0.38258 0.31602 0.0
C927 C 0.43253 0.28673 0.30638 0.0
C928 C 0.42115 0.31262 0.33428 0.0
C929 C 0.4775 0.3419 0.30392 0.0
C930 C 0.40352 0.2723 0.32152 0.0
C931 C 0.4666 0.39115 0.36034 0.0
C932 C 0.48891 0.40731 0.34406 0.0
C933 C 0.41933 0.33728 0.36319 0.0
C934 C 0.39667 0.29811 0.35019 0.0
Eu935 Eu 0.56003 0.48077 0.31237 0.0
N936 N 0.53578 0.45881 0.34107 0.0
C937 C 0.4941 0.42847 0.37347 0.0
C938 C 0.56498 0.49265 0.35412 0.0
C939 C 0.54433 0.47886 0.37038 0.0
H940 H 0.50064 0.3519 0.29227 0.0
H941 H 0.56765 0.50687 0.38055 0.0
H942 H 0.75063 0.70205 0.33433 0.0
H943 H 0.84037 0.46429 0.32349 0.0
H944 H 0.60461 0.52969 0.35222 0.0
H945 H 0.47845 0.41757 0.38612 0.0
H946 H 0.75711 0.47047 0.334 0.0
H947 H 0.42073 0.2552 0.29666 0.0
H948 H 0.40139 0.32466 0.37555 0.0
H949 H 0.36159 0.2559 0.35272 0.0
H950 H 0.82834 0.79123 0.32261 0.0
H951 H 0.36919 0.22924 0.32347 0.0
H952 H 0.91533 0.54421 0.30733 0.0
N953 N 0.78167 0.64994 0.3239 0.0
C954 C 0.82533 0.64853 0.31584 0.0
C955 C 0.82777 0.75132 0.32049 0.0
C956 C 0.87125 0.69856 0.30928 0.0
C957 C 0.7838 0.70075 0.32707 0.0
C958 C 0.87118 0.75009 0.31129 0.0
N959 N 0.78398 0.55188 0.32334 0.0
C960 C 0.78977 0.50539 0.32697 0.0
C961 C 0.87505 0.59642 0.30948 0.0
C962 C 0.82697 0.59803 0.31576 0.0
C963 C 0.87895 0.54703 0.3119 0.0
C964 C 0.8368 0.50187 0.32106 0.0
H965 H 0.90561 0.78945 0.3064 0.0
H966 H 0.95229 0.73388 0.29638 0.0
H967 H 0.95583 0.64442 0.29668 0.0
O968 O 0.77974 0.59902 0.34955 0.0
O969 O 0.68523 0.61683 0.31485 0.0
O970 O 0.6245 0.55208 0.2961 0.0
O971 O 0.69713 0.55 0.36041 0.0
O972 O 0.71094 0.51388 0.30932 0.0
O973 O 0.62934 0.4873 0.29402 0.0
O974 O 0.4936 0.50211 0.30554 0.0
O975 O 0.58474 0.41224 0.31919 0.0
O976 O 0.6558 0.46008 0.33846 0.0
O977 O 0.50602 0.44292 0.29094 0.0
O978 O 0.56193 0.55951 0.32591 0.0
O979 O 0.65265 0.61147 0.33719 0.0
C980 C 0.65844 0.60491 0.30035 0.0
C981 C 0.77538 0.61175 0.37897 0.0
C982 C 0.84333 0.64377 0.40305 0.0
C983 C 0.82043 0.67871 0.40789 0.0
C984 C 0.75444 0.64703 0.38461 0.0
C985 C 0.77675 0.68 0.39888 0.0
C986 C 0.82006 0.61026 0.38827 0.0
C987 C 0.68232 0.49648 0.29523 0.0
C988 C 0.75193 0.57777 0.36324 0.0
C989 C 0.917 0.69605 0.3017 0.0
C990 C 0.919 0.64509 0.30185 0.0
C991 C 0.61714 0.41077 0.3313 0.0
C992 C 0.48972 0.50803 0.27616 0.0
C993 C 0.47021 0.57367 0.26033 0.0
C994 C 0.50238 0.57039 0.24702 0.0
C995 C 0.52142 0.50517 0.26259 0.0
C996 C 0.46448 0.54255 0.27496 0.0
C997 C 0.52736 0.53596 0.24814 0.0
C998 C 0.60063 0.60569 0.33396 0.0
C999 C 0.48311 0.47506 0.29148 0.0
H1000 H 0.83703 0.70664 0.41851 0.0
H1001 H 0.72105 0.64953 0.37785 0.0
H1002 H 0.76038 0.7075 0.40294 0.0
H1003 H 0.83617 0.58276 0.384 0.0
H1004 H 0.5073 0.59359 0.23558 0.0
H1005 H 0.54175 0.47914 0.26305 0.0
H1006 H 0.43829 0.543 0.28515 0.0
H1007 H 0.55134 0.53298 0.23774 0.0
H1008 H 0.07285 0.59544 0.24412 0.0
H1009 H 1.04753 0.72291 0.21929 0.0
H1010 H 0.11423 0.7952 0.2387 0.0
H1011 H 0.18627 0.82393 0.26129 0.0
H1012 H 0.21155 0.69577 0.28577 0.0
H1013 H 0.1371 0.62251 0.26846 0.0
C1014 C 0.08126 0.63893 0.24298 0.0
C1015 C 0.05484 0.65322 0.22994 0.0
C1016 C 0.11996 0.68048 0.25424 0.0
C1017 C 0.06643 0.71001 0.22904 0.0
C1018 C 0.10508 0.75158 0.24015 0.0
C1019 C 0.17543 0.77989 0.26301 0.0
C1020 C 0.20586 0.76626 0.275 0.0
C1021 C 0.1331 0.73762 0.2526 0.0
C1022 C 0.18949 0.70837 0.27697 0.0
C1023 C 0.14723 0.66627 0.26681 0.0
H1024 H 0.35038 0.11593 0.43561 0.0
H1025 H 0.52032 0.17991 0.45503 0.0
H1026 H 0.54079 0.13118 0.43275 0.0
H1027 H 0.51021 0.06653 0.40869 0.0
H1028 H 0.33883 0.99642 0.3902 0.0
H1029 H 0.31891 0.0493 0.4117 0.0
C1030 C 0.39184 0.11886 0.43538 0.0
C1031 C 0.43334 0.15212 0.44763 0.0
C1032 C 0.40297 0.08856 0.42273 0.0
C1033 C 0.48722 0.15599 0.44608 0.0
C1034 C 0.4989 0.12725 0.43333 0.0
C1035 C 0.46822 0.06246 0.40922 0.0
C1036 C 0.42607 1.02684 0.39754 0.0
C1037 C 0.457 0.09282 0.42173 0.0
C1038 C 0.37216 1.02275 0.39884 0.0
C1039 C 0.3609 0.0534 0.41117 0.0
H1040 H 0.24674 0.3965 0.5855 0.0
H1041 H 0.3754 0.50529 0.62053 0.0
H1042 H 0.44654 0.4934 0.60468 0.0
H1043 H 0.47594 0.46436 0.57883 0.0
H1044 H 0.34899 0.35985 0.54294 0.0
H1045 H 0.27479 0.36006 0.56079 0.0
C1046 C 0.29042 0.41857 0.58973 0.0
C1047 C 0.30477 0.45324 0.60435 0.0
C1048 C 0.33224 0.41355 0.58005 0.0
C1049 C 0.36183 0.47859 0.60958 0.0
C1050 C 0.40313 0.47256 0.60027 0.0
C1051 C 0.43191 0.44064 0.57493 0.0
C1052 C 0.41881 0.41182 0.5593 0.0
C1053 C 0.38935 0.44185 0.5852 0.0
C1054 C 0.36106 0.38164 0.55479 0.0
C1055 C 0.3185 0.38238 0.565 0.0
H1056 H 0.96539 0.41807 0.72619 0.0
H1057 H 0.12229 0.41589 0.73433 0.0
H1058 H 0.08077 0.35676 0.75919 0.0
H1059 H 1.00137 0.30827 0.77918 0.0
H1060 H 0.84158 0.30388 0.77001 0.0
H1061 H 0.88304 0.36317 0.74524 0.0
C1062 C 0.99051 0.40412 0.73325 0.0
C1063 C 1.04743 0.42172 0.72812 0.0
C1064 C 0.96587 0.36926 0.74754 0.0
C1065 C 0.07863 0.40291 0.73764 0.0
C1066 C 0.05484 0.36935 0.75202 0.0
C1067 C 0.97475 0.31931 0.77177 0.0
C1068 C 0.91732 0.30026 0.77682 0.0
C1069 C 0.99866 0.35261 0.75719 0.0
C1070 C 0.88551 0.31753 0.76691 0.0
C1071 C 0.90926 0.35121 0.75252 0.0
H1072 H 0.58077 0.97051 0.89481 0.0
H1073 H 0.76213 0.07821 0.88884 0.0
H1074 H 0.77756 1.02464 0.91117 0.0
H1075 H 0.73933 0.95059 0.93327 0.0
H1076 H 0.5571 0.84971 0.94039 0.0
H1077 H 0.54334 0.89455 0.91583 0.0
C1078 C 0.62416 0.98288 0.89823 0.0
C1079 C 0.67038 1.02984 0.88994 0.0
C1080 C 0.6326 0.95255 0.91135 0.0
C1081 C 0.72563 0.043 0.8947 0.0
C1082 C 0.73432 1.0123 0.90764 0.0
C1083 C 0.69609 0.93899 0.93009 0.0
C1084 C 0.64933 0.89679 0.93971 0.0
C1085 C 0.68805 0.96774 0.91633 0.0
C1086 C 0.5944 0.88137 0.93388 0.0
C1087 C 0.58632 0.90803 0.91984 0.0
H1088 H 0.84185 0.69594 0.09166 0.0
H1089 H 0.7186 0.547 0.11833 0.0
H1090 H 0.64301 0.54423 0.10099 0.0
H1091 H 0.61198 0.5774 0.07659 0.0
H1092 H 0.73439 0.7241 0.04906 0.0
H1093 H 0.80949 0.73365 0.06821 0.0
C1094 C 0.79842 0.66272 0.09383 0.0
C1095 C 0.78697 0.62123 0.1065 0.0
C1096 C 0.75465 0.66043 0.08341 0.0
C1097 C 0.72968 0.57984 0.10903 0.0
C1098 C 0.68616 0.57778 0.09889 0.0
C1099 C 0.65497 0.612 0.07474 0.0
C1100 C 0.66682 0.65002 0.0611 0.0
C1101 C 0.69817 0.61685 0.08578 0.0
C1102 C 0.72316 0.69451 0.05931 0.0
C1103 C 0.76638 0.69964 0.07029 0.0
H1104 H 0.41385 0.96131 0.62107 0.0
H1105 H 0.40808 0.11643 0.6133 0.0
H1106 H 0.34543 0.07305 0.58923 0.0
H1107 H 0.29905 0.99403 0.56908 0.0
H1108 H 0.30097 0.83686 0.57772 0.0
H1109 H 0.35939 0.8788 0.60248 0.0
C1110 C 0.39759 0.98528 0.61443 0.0
C1111 C 0.41527 0.04224 0.61936 0.0
C1112 C 0.36186 0.96 0.60046 0.0
C1113 C 0.3944 0.07247 0.61024 0.0
C1114 C 0.35916 0.04772 0.59627 0.0
C1115 C 0.31087 0.96785 0.57642 0.0
C1116 C 0.29443 0.91127 0.57112 0.0
C1117 C 0.3435 0.99188 0.59104 0.0
C1118 C 0.31285 0.88023 0.58096 0.0
C1119 C 0.34597 0.90415 0.59534 0.0
H1120 H 0.36101 0.296 0.73318 0.0
H1121 H 0.52469 0.30685 0.74045 0.0
H1122 H 0.54197 0.37032 0.76416 0.0
H1123 H 0.51173 0.42497 0.78261 0.0
H1124 H 0.3446 0.40642 0.77683 0.0
H1125 H 0.32751 0.34319 0.75298 0.0
C1126 C 0.40041 0.31117 0.73997 0.0
C1127 C 0.44124 0.29519 0.73471 0.0
C1128 C 0.40956 0.34679 0.75396 0.0
C1129 C 0.49244 0.31801 0.74373 0.0
C1130 C 0.50218 0.3542 0.75749 0.0
C1131 C 0.47108 0.40647 0.77633 0.0
C1132 C 0.42928 0.42065 0.78177 0.0
C1133 C 0.46121 0.36918 0.7627 0.0
C1134 C 0.37724 0.39612 0.77324 0.0
C1135 C 0.36774 0.36024 0.75945 0.0
H1136 H 0.12064 0.49938 0.94615 0.0
H1137 H 0.97774 0.32948 0.9428 0.0
H1138 H 1.02223 0.31134 0.91852 0.0
H1139 H 0.10033 0.34467 0.8977 0.0
H1140 H 0.24439 0.51403 0.90176 0.0
H1141 H 0.19974 0.53163 0.92594 0.0
C1142 C 0.09914 0.45789 0.94032 0.0
C1143 C 1.04539 0.41566 0.94664 0.0
C1144 C 0.12503 0.44795 0.92625 0.0
C1145 C 1.01894 0.36263 0.93858 0.0
C1146 C 1.04437 0.35251 0.92453 0.0
C1147 C 0.12284 0.38546 0.90389 0.0
C1148 C 0.17694 0.42772 0.89764 0.0
C1149 C 0.09725 0.39499 0.91815 0.0
C1150 C 0.20318 0.48059 0.90586 0.0
C1151 C 0.17776 0.49048 0.91992 0.0
H1152 H 0.65522 0.11314 0.11771 0.0
H1153 H 0.69434 0.97673 0.11255 0.0
H1154 H 0.75559 1.02599 0.08857 0.0
H1155 H 0.79672 0.1067 0.06871 0.0
H1156 H 0.76045 0.24495 0.07456 0.0
H1157 H 0.69755 0.1946 0.09807 0.0
C1158 C 0.67729 0.0939 0.11148 0.0
C1159 C 0.66962 0.0405 0.11725 0.0
C1160 C 0.71243 0.1226 0.09756 0.0
C1161 C 0.69915 1.01735 0.10874 0.0
C1162 C 0.734 0.04557 0.09486 0.0
C1163 C 0.77593 0.1268 0.07515 0.0
C1164 C 0.7851 0.18112 0.06965 0.0
C1165 C 0.74081 0.09811 0.08909 0.0
C1166 C 0.755 0.20386 0.07812 0.0
C1167 C 0.71933 0.17514 0.09181 0.0
H1168 H 0.63936 0.60011 0.26652 0.0
H1169 H 0.68238 0.71398 0.30827 0.0
H1170 H 0.67696 0.78489 0.29042 0.0
H1171 H 0.66107 0.81584 0.26264 0.0
H1172 H 0.62094 0.70313 0.22077 0.0
H1173 H 0.62703 0.6328 0.23857 0.0
C1174 C 0.64758 0.64044 0.27176 0.0
C1175 C 0.66119 0.65102 0.28893 0.0
C1176 C 0.64445 0.68147 0.26131 0.0
C1177 C 0.67237 0.70423 0.29523 0.0
C1178 C 0.66869 0.74479 0.28498 0.0
C1179 C 0.65129 0.77485 0.25752 0.0
C1180 C 0.63851 0.76458 0.24027 0.0
C1181 C 0.65428 0.73383 0.26801 0.0
C1182 C 0.62838 0.71184 0.23394 0.0
C1183 C 0.63223 0.67148 0.2442 0.0
H1184 H 0.0621 0.64337 0.43508 0.0
H1185 H 1.00368 0.69118 0.479 0.0
H1186 H 0.92487 0.68836 0.46307 0.0
H1187 H 0.86872 0.66663 0.43704 0.0
H1188 H 0.93143 0.62555 0.39255 0.0
H1189 H 1.01178 0.63255 0.40824 0.0
C1190 C 1.033 0.6546 0.44114 0.0
C1191 C 1.0402 0.66849 0.45838 0.0
C1192 C 0.98733 0.6529 0.4318 0.0
C1193 C 1.00091 0.68188 0.46582 0.0
C1194 C 0.95501 0.67935 0.45669 0.0
C1195 C 0.8998 0.65942 0.43053 0.0
C1196 C 0.89216 0.64502 0.41325 0.0
C1197 C 0.94713 0.66403 0.4397 0.0
C1198 C 0.93381 0.63516 0.40569 0.0
C1199 C 0.98043 0.63927 0.41474 0.0
H1200 H 0.51539 0.63387 0.32248 0.0
H1201 H 0.65298 0.69162 0.35759 0.0
H1202 H 0.6335 0.76712 0.3667 0.0
H1203 H 0.57688 0.81918 0.36551 0.0
H1204 H 0.44376 0.76706 0.32918 0.0
H1205 H 0.46173 0.69003 0.32026 0.0
C1206 C 0.54138 0.66254 0.33221 0.0
C1207 C 0.58611 0.65412 0.33928 0.0
C1208 C 0.53042 0.70847 0.33739 0.0
C1209 C 0.61843 0.69444 0.35168 0.0
C1210 C 0.60705 0.73855 0.35701 0.0
C1211 C 0.55142 0.79147 0.35558 0.0
C1212 C 0.50787 0.80126 0.34834 0.0
C1213 C 0.56306 0.74647 0.35009 0.0
C1214 C 0.47711 0.76286 0.33535 0.0
C1215 C 0.48761 0.71784 0.33016 0.0
H1216 H 0.77477 0.53563 0.53136 0.0
H1217 H 0.69703 0.42959 0.48877 0.0
H1218 H 0.79148 0.45003 0.47871 0.0
H1219 H 0.90046 0.50051 0.48148 0.0
H1220 H 0.97455 0.60913 0.52391 0.0
H1221 H 0.88086 0.58691 0.53381 0.0
C1222 C 0.7777 0.51721 0.51975 0.0
C1223 C 0.72586 0.48066 0.51109 0.0
C1224 C 0.83365 0.53034 0.51371 0.0
C1225 C 0.73383 0.45732 0.49615 0.0
C1226 C 0.78894 0.46947 0.49024 0.0
C1227 C 0.89666 0.51958 0.49293 0.0
C1228 C 0.94816 0.55795 0.5017 0.0
C1229 C 0.83996 0.50626 0.49882 0.0
C1230 C 0.93878 0.58082 0.51647 0.0
C1231 C 0.88385 0.56754 0.52232 0.0
H1232 H 0.38908 0.93981 0.68224 0.0
H1233 H 0.45681 0.90079 0.63877 0.0
H1234 H 0.38864 0.79954 0.64234 0.0
H1235 H 0.30658 0.71644 0.65805 0.0
H1236 H 0.24286 0.75869 0.70201 0.0
H1237 H 0.30918 0.85858 0.69781 0.0
C1238 C 0.38937 0.90984 0.67338 0.0
C1239 C 0.43049 0.93166 0.66004 0.0
C1240 C 0.34894 0.84918 0.67561 0.0
C1241 C 0.42767 0.88856 0.64921 0.0
C1242 C 0.38771 0.82917 0.65126 0.0
C1243 C 0.30662 0.74691 0.66683 0.0
C1244 C 0.26654 0.72569 0.68057 0.0
C1245 C 0.34752 0.80788 0.66447 0.0
C1246 C 0.27064 0.76965 0.69131 0.0
C1247 C 0.3097 0.82862 0.68893 0.0
H1248 H 0.50721 0.39958 0.85242 0.0
H1249 H 0.58481 0.44381 0.80394 0.0
H1250 H 0.61736 0.37395 0.80697 0.0
H1251 H 0.62414 0.29607 0.82337 0.0
H1252 H 0.55593 0.26201 0.87313 0.0
H1253 H 0.52016 0.32818 0.86944 0.0
C1254 C 0.53076 0.39403 0.84236 0.0
C1255 C 0.5418 0.42839 0.82769 0.0
C1256 C 0.55161 0.35368 0.8444 0.0
C1257 C 0.57438 0.4194 0.81535 0.0
C1258 C 0.59344 0.37866 0.81711 0.0
C1259 C 0.60206 0.30315 0.83358 0.0
C1260 C 0.59203 0.27005 0.84857 0.0
C1261 C 0.58265 0.34495 0.8316 0.0
C1262 C 0.56308 0.28279 0.86121 0.0
C1263 C 0.54279 0.32216 0.85917 0.0
H1264 H 0.15143 0.5107 0.01941 0.0
H1265 H 0.17716 0.56626 0.96852 0.0
H1266 H 0.2784 0.59511 0.97072 0.0
H1267 H 0.36541 0.60574 0.98722 0.0
H1268 H 0.33703 0.55755 0.03898 0.0
H1269 H 0.23681 0.52523 0.03598 0.0
C1270 C 0.17829 0.52827 0.00861 0.0
C1271 C 0.15248 0.53413 0.99358 0.0
C1272 C 0.23918 0.54677 0.01006 0.0
C1273 C 0.19228 0.55975 0.98032 0.0
C1274 C 0.25173 0.57669 0.98158 0.0
C1275 C 0.33801 0.58837 0.99799 0.0
C1276 C 0.36328 0.58381 0.01345 0.0
C1277 C 0.27684 0.57072 0.99642 0.0
C1278 C 0.32289 0.56113 0.02672 0.0
C1279 C 0.2637 0.5426 0.02509 0.0
H1280 H 0.8552 0.30594 0.1858 0.0
H1281 H 0.76406 0.39181 0.17069 0.0
H1282 H 0.68113 0.29926 0.16366 0.0
H1283 H 0.63055 0.18916 0.16186 0.0
H1284 H 0.73002 0.10946 0.17357 0.0
H1285 H 0.80941 0.20026 0.18179 0.0
C1286 C 0.81755 0.30535 0.18097 0.0
C1287 C 0.81839 0.359 0.17913 0.0
C1288 C 0.7691 0.25063 0.17645 0.0
C1289 C 0.76729 0.35371 0.17247 0.0
C1290 C 0.71878 0.29958 0.16842 0.0
C1291 C 0.66919 0.19093 0.16633 0.0
C1292 C 0.67026 0.13776 0.16801 0.0
C1293 C 0.71833 0.24682 0.17037 0.0
C1294 C 0.72364 0.14557 0.17328 0.0
C1295 C 0.77069 0.19919 0.17767 0.0
H1296 H 0.25469 0.51316 0.48887 0.0
H1297 H 0.32451 0.66697 0.51768 0.0
H1298 H 0.40276 0.65105 0.52656 0.0
H1299 H 0.45446 0.59227 0.52647 0.0
H1300 H 0.37984 0.43784 0.49779 0.0
H1301 H 0.30393 0.45512 0.48897 0.0
C1302 C 0.28681 0.54387 0.49699 0.0
C1303 C 0.28159 0.59215 0.50218 0.0
C1304 C 0.33269 0.53401 0.50232 0.0
C1305 C 0.32534 0.62967 0.51306 0.0
C1306 C 0.37096 0.62034 0.51827 0.0
C1307 C 0.42187 0.56206 0.51827 0.0
C1308 C 0.42564 0.51274 0.51294 0.0
C1309 C 0.37572 0.57248 0.51305 0.0
C1310 C 0.38084 0.47575 0.50232 0.0
C1311 C 0.33623 0.48584 0.49715 0.0
H1312 H 0.72635 0.32391 0.67555 0.0
H1313 H 0.77059 0.21171 0.64929 0.0
H1314 H 0.87065 0.27704 0.65355 0.0
H1315 H 0.9514 0.36799 0.665 0.0
H1316 H 0.90992 0.48235 0.69107 0.0
H1317 H 0.80863 0.41673 0.6869 0.0
C1318 C 0.75733 0.31314 0.67066 0.0
C1319 C 0.73683 0.26022 0.66166 0.0
C1320 C 0.81826 0.35288 0.67323 0.0
C1321 C 0.78124 0.25041 0.65588 0.0
C1322 C 0.84023 0.28861 0.65845 0.0
C1323 C 0.92086 0.37964 0.66963 0.0
C1324 C 0.942 0.43297 0.67829 0.0
C1325 C 0.86019 0.34051 0.66706 0.0
C1326 C 0.89827 0.44356 0.68425 0.0
C1327 C 0.83883 0.40513 0.68185 0.0
H1328 H 0.50968 0.88754 0.86363 0.0
H1329 H 0.61947 0.96793 0.82165 0.0
H1330 H 0.6021 0.87612 0.81144 0.0
H1331 H 0.55492 0.76989 0.81347 0.0
H1332 H 0.44671 0.68595 0.85546 0.0
H1333 H 0.46314 0.77853 0.86595 0.0
C1334 C 0.53001 0.88555 0.8522 0.0
C1335 C 0.56729 0.93833 0.84369 0.0
C1336 C 0.51946 0.82992 0.84611 0.0
C1337 C 0.59194 0.93118 0.82894 0.0
C1338 C 0.58143 0.87731 0.8229 0.0
C1339 C 0.53482 0.77099 0.82499 0.0
C1340 C 0.49894 0.71793 0.83336 0.0
C1341 C 0.54529 0.82589 0.83126 0.0
C1342 C 0.47409 0.72371 0.84831 0.0
C1343 C 0.48379 0.77775 0.85445 0.0
H1344 H 0.71742 0.61078 1.00011 0.0
H1345 H 0.60439 0.46046 0.02769 0.0
H1346 H 0.67028 0.42322 0.02376 0.0
H1347 H 0.76287 0.43049 0.01189 0.0
H1348 H 0.87258 0.58145 0.98382 0.0
H1349 H 0.80796 0.61832 0.98848 0.0
C1350 C 0.70615 0.56958 1.00522 0.0
C1351 C 0.65296 0.53948 0.01419 0.0
C1352 C 0.74556 0.54728 1.00283 0.0
C1353 C 0.64297 0.48614 0.02065 0.0
C1354 C 0.68165 0.46427 0.01839 0.0
C1355 C 0.77367 0.47183 1.00687 0.0
C1356 C 0.8261 0.50222 0.99735 0.0
C1357 C 0.73378 0.49402 0.00945 0.0
C1358 C 0.835 0.55544 0.99113 0.0
C1359 C 0.79696 0.57726 0.9938 0.0
H1360 H 0.32122 0.84297 0.16101 0.0
H1361 H 0.40618 0.75434 0.17926 0.0
H1362 H 0.31323 0.67215 0.18648 0.0
H1363 H 0.2033 0.62111 0.18748 0.0
H1364 H 0.12269 0.71734 0.17227 0.0
H1365 H 0.21447 0.79638 0.16417 0.0
C1366 C 0.3203 0.80599 0.1666 0.0
C1367 C 0.37404 0.80741 0.16926 0.0
C1368 C 0.2651 0.75778 0.1712 0.0
C1369 C 0.36821 0.75722 0.17683 0.0
C1370 C 0.31381 0.70908 0.18099 0.0
C1371 C 0.20504 0.65898 0.1823 0.0
C1372 C 0.15166 0.65909 0.17983 0.0
C1373 C 0.26109 0.70797 0.17821 0.0
C1374 C 0.15928 0.71158 0.17356 0.0
C1375 C 0.21334 0.75848 0.16911 0.0
H1376 H 0.52403 0.2983 0.32677 0.0
H1377 H 0.68933 0.38167 0.34939 0.0
H1378 H 0.67749 0.28833 0.35736 0.0
H1379 H 0.61939 0.1784 0.35801 0.0
H1380 H 0.44978 0.10009 0.33809 0.0
H1381 H 0.46436 0.19228 0.32924 0.0
C1382 C 0.55796 0.29707 0.33344 0.0
C1383 C 0.60831 0.35036 0.33705 0.0
C1384 C 0.55012 0.24174 0.33849 0.0
C1385 C 0.65011 0.34399 0.34606 0.0
C1386 C 0.64318 0.28938 0.3507 0.0
C1387 C 0.58533 0.18078 0.35163 0.0
C1388 C 0.53346 0.12801 0.34813 0.0
C1389 C 0.5933 0.23707 0.347 0.0
C1390 C 0.49104 0.13629 0.34028 0.0
C1391 C 0.49918 0.19054 0.33537 0.0
H1392 H 0.21854 0.66422 0.43174 0.0
H1393 H 0.30497 0.78833 0.47018 0.0
H1394 H 0.37438 0.85244 0.44978 0.0
H1395 H 0.41133 0.87581 0.42048 0.0
H1396 H 0.32112 0.75353 0.38193 0.0
H1397 H 0.25438 0.68797 0.40254 0.0
C1398 C 0.25264 0.70513 0.43578 0.0
C1399 C 0.2556 0.72029 0.45287 0.0
C1400 C 0.2927 0.74303 0.42373 0.0
C1401 C 0.30051 0.77443 0.45737 0.0
C1402 C 0.34074 0.81154 0.44559 0.0
C1403 C 0.37753 0.83459 0.41655 0.0
C1404 C 0.37268 0.82029 0.39933 0.0
C1405 C 0.33752 0.79667 0.42865 0.0
C1406 C 0.3271 0.76657 0.39484 0.0
C1407 C 0.28841 0.72865 0.40674 0.0
H1408 H 0.57118 0.40248 0.58449 0.0
H1409 H 0.58017 0.30027 0.54461 0.0
H1410 H 0.58345 0.23425 0.56476 0.0
H1411 H 0.58186 0.2026 0.59393 0.0
H1412 H 0.56604 0.30023 0.63398 0.0
H1413 H 0.5674 0.36924 0.61392 0.0
C1414 C 0.57438 0.36609 0.58016 0.0
C1415 C 0.57591 0.35755 0.56271 0.0
C1416 C 0.57483 0.32653 0.59203 0.0
C1417 C 0.57896 0.30892 0.55771 0.0
C1418 C 0.58086 0.27071 0.56934 0.0
C1419 C 0.57909 0.23911 0.59837 0.0
C1420 C 0.57436 0.24553 0.61579 0.0
C1421 C 0.57856 0.27863 0.58658 0.0
C1422 C 0.56987 0.29331 0.62088 0.0
C1423 C 0.57067 0.33321 0.6093 0.0
H1424 H 0.30654 0.55977 0.78936 0.0
H1425 H 0.44494 0.56991 0.75981 0.0
H1426 H 0.39596 0.56971 0.73441 0.0
H1427 H 0.31295 0.5671 0.71969 0.0
H1428 H 0.17737 0.56289 0.74932 0.0
H1429 H 0.22507 0.56038 0.77468 0.0
C1430 C 0.32619 0.56202 0.7774 0.0
C1431 C 0.38037 0.56515 0.77694 0.0
C1432 C 0.29783 0.5631 0.76242 0.0
C1433 C 0.40408 0.56814 0.76099 0.0
C1434 C 0.37573 0.5678 0.74624 0.0
C1435 C 0.29378 0.56584 0.73166 0.0
C1436 C 0.24099 0.5657 0.73215 0.0
C1437 C 0.32249 0.56548 0.74665 0.0
C1438 C 0.21786 0.56392 0.74812 0.0
C1439 C 0.24525 0.56219 0.76285 0.0
H1440 H 0.67501 0.19297 0.91701 0.0
H1441 H 0.77699 0.29993 0.87664 0.0
H1442 H 0.843 0.36921 0.89646 0.0
H1443 H 0.87513 0.40055 0.92558 0.0
H1444 H 0.77702 0.2913 0.96604 0.0
H1445 H 0.70812 0.2239 0.94627 0.0
C1446 C 0.71136 0.23159 0.91248 0.0
C1447 C 0.71976 0.24027 0.89498 0.0
C1448 C 0.7509 0.27178 0.92418 0.0
C1449 C 0.76835 0.29093 0.88978 0.0
C1450 C 0.80661 0.33112 0.90123 0.0
C1451 C 0.83845 0.36233 0.93017 0.0
C1452 C 0.83198 0.35236 0.94764 0.0
C1453 C 0.79881 0.32223 0.91852 0.0
C1454 C 0.78402 0.3013 0.9529 0.0
C1455 C 0.74415 0.26224 0.94149 0.0
H1456 H 0.52833 0.88076 0.09596 0.0
H1457 H 0.50124 0.7595 0.13469 0.0
H1458 H 0.49775 0.69161 0.11398 0.0
H1459 H 0.50481 0.66551 0.08458 0.0
H1460 H 0.53645 0.78827 0.0459 0.0
H1461 H 0.53562 0.85459 0.06645 0.0
C1462 C 0.52091 0.83925 0.09992 0.0
C1463 C 0.51445 0.82604 0.11722 0.0
C1464 C 0.52007 0.7998 0.08774 0.0
C1465 C 0.50614 0.77182 0.12171 0.0
C1466 C 0.50422 0.73251 0.10976 0.0
C1467 C 0.51116 0.70655 0.08054 0.0
C1468 C 0.52034 0.72061 0.06331 0.0
C1469 C 0.51149 0.74582 0.09268 0.0
C1470 C 0.52911 0.77502 0.0588 0.0
C1471 C 0.52865 0.81351 0.07068 0.0
H1472 H 0.78024 0.48594 0.29097 0.0
H1473 H 0.65437 0.50354 0.26278 0.0
H1474 H 0.7044 0.50743 0.237 0.0
H1475 H 0.78614 0.50812 0.22183 0.0
H1476 H 0.91077 0.48835 0.2502 0.0
H1477 H 0.86015 0.48364 0.27586 0.0
C1478 C 0.76372 0.49089 0.27926 0.0
C1479 C 0.71294 0.49467 0.27928 0.0
C1480 C 0.79305 0.49286 0.26415 0.0
C1481 C 0.69258 0.49998 0.26358 0.0
C1482 C 0.72164 0.50255 0.24865 0.0
C1483 C 0.8024 0.50264 0.23358 0.0
C1484 C 0.85318 0.49865 0.23363 0.0
C1485 C 0.77226 0.49934 0.24867 0.0
C1486 C 0.87218 0.49119 0.24931 0.0
C1487 C 0.84308 0.48867 0.2642 0.0
H1488 H 0.87968 0.38871 0.39761 0.0
H1489 H 0.84698 0.44446 0.44453 0.0
H1490 H 0.75339 0.35843 0.44618 0.0
H1491 H 0.68941 0.2614 0.4364 0.0
H1492 H 0.73603 0.20143 0.39218 0.0
H1493 H 0.81263 0.29565 0.38683 0.0
C1494 C 0.85115 0.3828 0.40791 0.0
C1495 C 0.86964 0.42232 0.42092 0.0
C1496 C 0.79958 0.33204 0.40926 0.0
C1497 C 0.83315 0.41416 0.43439 0.0
C1498 C 0.77999 0.36495 0.43536 0.0
C1499 C 0.7163 0.26842 0.42563 0.0
C1500 C 0.70648 0.22278 0.41503 0.0
C1501 C 0.76411 0.32229 0.42325 0.0
C1502 C 0.74077 0.23453 0.40066 0.0
C1503 C 0.78581 0.28881 0.39762 0.0
H1504 H 0.56435 0.91211 0.56018 0.0
H1505 H 0.39697 0.83684 0.5819 0.0
H1506 H 0.39087 0.74315 0.58179 0.0
H1507 H 0.44129 0.68762 0.58022 0.0
H1508 H 0.61317 0.7683 0.56096 0.0
H1509 H 0.60916 0.85434 0.55511 0.0
C1510 C 0.52591 0.87465 0.56438 0.0
C1511 C 0.48143 0.88074 0.57119 0.0
C1512 C 0.52405 0.82211 0.56497 0.0
C1513 C 0.43157 0.83261 0.57659 0.0
C1514 C 0.42848 0.77935 0.57671 0.0
C1515 C 0.47752 0.7239 0.57459 0.0
C1516 C 0.5275 0.72163 0.57117 0.0
C1517 C 0.47577 0.77431 0.57174 0.0
C1518 C 0.57388 0.76854 0.56358 0.0
C1519 C 0.5719 0.81807 0.56032 0.0
H1520 H 0.68931 0.46722 0.7345 0.0
H1521 H 0.67548 0.477 0.78778 0.0
H1522 H 0.75807 0.46419 0.79154 0.0
H1523 H 0.84449 0.47074 0.77933 0.0
H1524 H 0.85643 0.45772 0.72613 0.0
H1525 H 0.7628 0.44941 0.72275 0.0
C1526 C 0.70288 0.46454 0.74698 0.0
C1527 C 0.67755 0.47533 0.7608 0.0
C1528 C 0.75046 0.45731 0.74906 0.0
C1529 C 0.69569 0.47118 0.77687 0.0
C1530 C 0.74278 0.46359 0.77905 0.0
C1531 C 0.8258 0.46396 0.76705 0.0
C1532 C 0.85811 0.46708 0.75295 0.0
C1533 C 0.7723 0.45984 0.76518 0.0
C1534 C 0.83303 0.45758 0.73713 0.0
C1535 C 0.77955 0.4528 0.73519 0.0
H1536 H 0.32557 0.85898 0.90023 0.0
H1537 H 0.42408 0.7881 0.92143 0.0
H1538 H 0.34319 0.69207 0.91815 0.0
H1539 H 0.24082 0.63 0.91233 0.0
H1540 H 0.14381 0.70322 0.89187 0.0
H1541 H 0.22898 0.79694 0.891 0.0
C1542 C 0.33026 0.82263 0.90367 0.0
C1543 C 0.38067 0.83077 0.91118 0.0
C1544 C 0.28393 0.76803 0.90177 0.0
C1545 C 0.38528 0.783 0.91591 0.0
C1546 C 0.33923 0.72813 0.91394 0.0
C1547 C 0.23915 0.66634 0.9072 0.0
C1548 C 0.18684 0.66045 0.90211 0.0
C1549 C 0.28783 0.72031 0.90732 0.0
C1550 C 0.18414 0.70739 0.89572 0.0
C1551 C 0.23254 0.76081 0.89538 0.0
H1552 H 0.62856 0.23847 0.09539 0.0
H1553 H 0.48959 0.14877 0.06142 0.0
H1554 H 0.47813 0.233 0.05861 0.0
H1555 H 0.49802 0.32541 0.06929 0.0
H1556 H 0.63734 0.41654 0.10331 0.0
H1557 H 0.65837 0.33812 0.10274 0.0
C1558 C 0.59705 0.23837 0.08702 0.0
C1559 C 0.55999 0.18836 0.07855 0.0
C1560 C 0.5901 0.28644 0.08577 0.0
C1561 C 0.51866 0.18748 0.06788 0.0
C1562 C 0.5119 0.23531 0.06641 0.0
C1563 C 0.53422 0.32923 0.07617 0.0
C1564 C 0.56544 0.37643 0.08654 0.0
C1565 C 0.54602 0.28421 0.07578 0.0
C1566 C 0.61169 0.37999 0.09554 0.0
C1567 C 0.62393 0.33533 0.09517 0.0
H1568 H 0.41159 0.56947 0.23285 0.0
H1569 H 0.44742 0.63759 0.28263 0.0
H1570 H 0.36508 0.65265 0.28156 0.0
H1571 H 0.27204 0.62438 0.269 0.0
H1572 H 0.23315 0.54089 0.22099 0.0
H1573 H 0.32922 0.55938 0.2183 0.0
C1574 C 0.4031 0.58989 0.24325 0.0
C1575 C 0.43444 0.60076 0.25798 0.0
C1576 C 0.35452 0.59576 0.24284 0.0
C1577 C 0.4227 0.62726 0.27131 0.0
C1578 C 0.37564 0.63582 0.2707 0.0
C1579 C 0.28436 0.6102 0.25791 0.0
C1580 C 0.2435 0.57842 0.24573 0.0
C1581 C 0.33902 0.61629 0.25697 0.0
C1582 C 0.26211 0.56458 0.23089 0.0
C1583 C 0.31752 0.57439 0.22935 0.0
loop_
_geom_bond_atom_site_label_1
_geom_bond_atom_site_label_2
_geom_bond_distance
_geom_bond_site_symmetry_2
_ccdc_geom_bond_type
Eu0 N29 2.600 1_565 S
Eu0 N35 2.562 . S
Eu0 O44 2.462 . S
Eu0 O45 2.373 1_565 S
Eu0 O47 2.432 . S
Eu0 O48 2.291 . S
Eu0 O52 2.335 . S
Eu0 O55 2.372 1_565 S
Eu0 C64 2.787 . S
C1 N2 1.365 . S
C1 C4 1.405 . S
C1 C8 1.448 . S
N2 C1 1.365 . S
N2 C5 1.319 . S
N2 Eu11 2.600 1_565 S
C3 C5 1.397 . S
C3 C6 1.367 . S
C3 H23 0.931 . S
C4 C1 1.405 . S
C4 C6 1.403 . S
C4 C10 1.439 . S
C5 N2 1.319 . S
C5 C3 1.397 . S
C5 H16 0.930 . S
C6 C3 1.367 . S
C6 C4 1.403 . S
C6 H27 0.929 . S
C7 C8 1.430 . S
C7 C9 1.387 . S
C7 C13 1.404 1_565 S
C8 C1 1.448 . S
C8 C7 1.430 . S
C8 N12 1.351 1_565 S
C9 C7 1.387 . S
C9 C10 1.374 . S
C9 H24 0.931 . S
C10 C4 1.439 . S
C10 C9 1.374 . S
C10 H25 0.931 . S
Eu11 N2 2.600 1_545 S
Eu11 N12 2.562 . S
Eu11 O46 2.335 . S
Eu11 O49 2.372 1_545 S
Eu11 O50 2.462 . S
Eu11 O51 2.373 1_545 S
Eu11 O53 2.432 . S
Eu11 O54 2.291 . S
Eu11 C75 2.787 . S
N12 C8 1.351 1_545 S
N12 Eu11 2.562 . S
N12 C14 1.325 . S
C13 C7 1.404 1_545 S
C13 C15 1.366 . S
C13 H21 0.930 . S
C14 N12 1.325 . S
C14 C15 1.416 . S
C14 H20 0.929 . S
C15 C13 1.366 . S
C15 C14 1.416 . S
C15 H17 0.930 . S
H16 C5 0.930 . S
H17 C15 0.930 . S
H18 C33 0.930 . S
H19 C40 0.930 . S
H20 C14 0.929 . S
H21 C13 0.930 . S
H22 C36 0.929 . S
H23 C3 0.931 . S
H24 C9 0.931 . S
H25 C10 0.931 . S
H26 C31 0.931 . S
H27 C6 0.929 . S
H28 C39 0.930 . S
N29 Eu0 2.600 1_545 S
N29 C30 1.365 . S
N29 C33 1.319 . S
C30 N29 1.365 . S
C30 C32 1.405 . S
C30 C38 1.448 . S
C31 H26 0.931 . S
C31 C33 1.397 . S
C31 C34 1.367 . S
C32 C30 1.405 . S
C32 C34 1.403 . S
C32 C65 1.439 . S
C33 H18 0.930 . S
C33 N29 1.319 . S
C33 C31 1.397 . S
C34 C31 1.367 . S
C34 C32 1.403 . S
C34 H41 0.929 . S
N35 Eu0 2.562 . S
N35 C36 1.325 . S
N35 C38 1.351 1_565 S
C36 H22 0.929 . S
C36 N35 1.325 . S
C36 C40 1.416 . S
C37 C38 1.430 . S
C37 C39 1.404 1_545 S
C37 C66 1.387 . S
C38 C30 1.448 . S
C38 N35 1.351 1_545 S
C38 C37 1.430 . S
C39 H28 0.930 . S
C39 C37 1.404 1_565 S
C39 C40 1.366 . S
C40 H19 0.930 . S
C40 C36 1.416 . S
C40 C39 1.366 . S
H41 C34 0.929 . S
H42 C65 0.931 . S
H43 C66 0.931 . S
O44 Eu0 2.462 . S
O44 C64 1.252 . S
O45 Eu0 2.373 1_545 S
O45 C56 1.249 . S
O46 Eu11 2.335 . S
O46 C56 1.264 . S
O47 Eu0 2.432 . S
O47 C64 1.268 . S
O48 Eu0 2.291 . S
O48 C63 1.255 . S
O49 Eu11 2.372 1_565 S
O49 C63 1.257 . S
O50 Eu11 2.462 . S
O50 C75 1.252 . S
O51 Eu11 2.373 1_565 S
O51 C67 1.249 . S
O52 Eu0 2.335 . S
O52 C67 1.264 . S
O53 Eu11 2.432 . S
O53 C75 1.268 . S
O54 Eu11 2.291 . S
O54 C74 1.255 . S
O55 Eu0 2.372 1_545 S
O55 C74 1.257 . S
C56 O45 1.249 . S
C56 O46 1.264 . S
C57 C60 1.382 . S
C57 C62 1.390 . S
C57 C64 1.506 . S
C58 C59 1.398 . S
C58 C62 1.392 . S
C59 C58 1.398 . S
C59 C61 1.372 . S
C59 H76 0.931 . S
C60 C57 1.382 . S
C60 C61 1.390 . S
C60 H77 0.931 . S
C61 C59 1.372 . S
C61 C60 1.390 . S
C61 H78 0.929 . S
C62 C57 1.390 . S
C62 C58 1.392 . S
C62 H79 0.930 . S
C63 O48 1.255 . S
C63 O49 1.257 . S
C64 Eu0 2.787 . S
C64 O44 1.252 . S
C64 O47 1.268 . S
C64 C57 1.506 . S
C65 C32 1.439 . S
C65 H42 0.931 . S
C65 C66 1.374 . S
C66 C37 1.387 . S
C66 H43 0.931 . S
C66 C65 1.374 . S
C67 O51 1.249 . S
C67 O52 1.264 . S
C68 C71 1.382 . S
C68 C72 1.390 . S
C68 C75 1.506 . S
C69 C70 1.398 . S
C69 C72 1.392 . S
C70 C69 1.398 . S
C70 C73 1.372 . S
C70 H80 0.931 . S
C71 C68 1.382 . S
C71 C73 1.390 . S
C71 H81 0.931 . S
C72 C68 1.390 . S
C72 C69 1.392 . S
C72 H82 0.930 . S
C73 C70 1.372 . S
C73 C71 1.390 . S
C73 H83 0.929 . S
C74 O54 1.255 . S
C74 O55 1.257 . S
C75 Eu11 2.787 . S
C75 O50 1.252 . S
C75 O53 1.268 . S
C75 C68 1.506 . S
H76 C59 0.931 . S
H77 C60 0.931 . S
H78 C61 0.929 . S
H79 C62 0.930 . S
H80 C70 0.931 . S
H81 C71 0.931 . S
H82 C72 0.930 . S
H83 C73 0.929 . S
Eu84 N113 2.600 . S
Eu84 N119 2.562 . S
Eu84 O128 2.462 . S
Eu84 O129 2.373 . S
Eu84 O131 2.432 . S
Eu84 O132 2.291 . S
Eu84 O136 2.335 . S
Eu84 O139 2.372 . S
Eu84 C148 2.787 . S
C85 N86 1.365 . S
C85 C88 1.405 . S
C85 C92 1.448 . S
N86 C85 1.365 . S
N86 C89 1.319 . S
N86 Eu95 2.600 . S
C87 C89 1.397 . S
C87 C90 1.367 . S
C87 H107 0.931 . S
C88 C85 1.405 . S
C88 C90 1.403 . S
C88 C94 1.439 . S
C89 N86 1.319 . S
C89 C87 1.397 . S
C89 H100 0.930 . S
C90 C87 1.367 . S
C90 C88 1.403 . S
C90 H111 0.929 . S
C91 C92 1.430 . S
C91 C93 1.387 . S
C91 C97 1.404 . S
C92 C85 1.448 . S
C92 C91 1.430 . S
C92 N96 1.351 . S
C93 C91 1.387 . S
C93 C94 1.374 . S
C93 H108 0.931 . S
C94 C88 1.439 . S
C94 C93 1.374 . S
C94 H109 0.931 . S
Eu95 N86 2.600 . S
Eu95 N96 2.562 . S
Eu95 O130 2.335 . S
Eu95 O133 2.372 . S
Eu95 O134 2.462 . S
Eu95 O135 2.373 . S
Eu95 O137 2.432 . S
Eu95 O138 2.291 . S
Eu95 C159 2.787 . S
N96 C92 1.351 . S
N96 Eu95 2.562 . S
N96 C98 1.325 . S
C97 C91 1.404 . S
C97 C99 1.366 . S
C97 H105 0.930 . S
C98 N96 1.325 . S
C98 C99 1.416 . S
C98 H104 0.929 . S
C99 C97 1.366 . S
C99 C98 1.416 . S
C99 H101 0.930 . S
H100 C89 0.930 . S
H101 C99 0.930 . S
H102 C117 0.930 . S
H103 C124 0.930 . S
H104 C98 0.929 . S
H105 C97 0.930 . S
H106 C120 0.929 . S
H107 C87 0.931 . S
H108 C93 0.931 . S
H109 C94 0.931 . S
H110 C115 0.931 . S
H111 C90 0.929 . S
H112 C123 0.930 . S
N113 Eu84 2.600 . S
N113 C114 1.365 . S
N113 C117 1.319 . S
C114 N113 1.365 . S
C114 C116 1.405 . S
C114 C122 1.448 . S
C115 H110 0.931 . S
C115 C117 1.397 . S
C115 C118 1.367 . S
C116 C114 1.405 . S
C116 C118 1.403 . S
C116 C149 1.439 . S
C117 H102 0.930 . S
C117 N113 1.319 . S
C117 C115 1.397 . S
C118 C115 1.367 . S
C118 C116 1.403 . S
C118 H125 0.929 . S
N119 Eu84 2.562 . S
N119 C120 1.325 . S
N119 C122 1.351 . S
C120 H106 0.929 . S
C120 N119 1.325 . S
C120 C124 1.416 . S
C121 C122 1.430 . S
C121 C123 1.404 . S
C121 C150 1.387 . S
C122 C114 1.448 . S
C122 N119 1.351 . S
C122 C121 1.430 . S
C123 H112 0.930 . S
C123 C121 1.404 . S
C123 C124 1.366 . S
C124 H103 0.930 . S
C124 C120 1.416 . S
C124 C123 1.366 . S
H125 C118 0.929 . S
H126 C149 0.931 . S
H127 C150 0.931 . S
O128 Eu84 2.462 . S
O128 C148 1.252 . S
O129 Eu84 2.373 . S
O129 C140 1.249 . S
O130 Eu95 2.335 . S
O130 C140 1.264 . S
O131 Eu84 2.432 . S
O131 C148 1.268 . S
O132 Eu84 2.291 . S
O132 C147 1.255 . S
O133 Eu95 2.372 . S
O133 C147 1.257 . S
O134 Eu95 2.462 . S
O134 C159 1.252 . S
O135 Eu95 2.373 . S
O135 C151 1.249 . S
O136 Eu84 2.335 . S
O136 C151 1.264 . S
O137 Eu95 2.432 . S
O137 C159 1.268 . S
O138 Eu95 2.291 . S
O138 C158 1.255 . S
O139 Eu84 2.372 . S
O139 C158 1.257 . S
C140 O129 1.249 . S
C140 O130 1.264 . S
C141 C144 1.382 . S
C141 C146 1.390 . S
C141 C148 1.506 . S
C142 C143 1.398 . S
C142 C146 1.392 . S
C143 C142 1.398 . S
C143 C145 1.372 . S
C143 H160 0.931 . S
C144 C141 1.382 . S
C144 C145 1.390 . S
C144 H161 0.931 . S
C145 C143 1.372 . S
C145 C144 1.390 . S
C145 H162 0.929 . S
C146 C141 1.390 . S
C146 C142 1.392 . S
C146 H163 0.930 . S
C147 O132 1.255 . S
C147 O133 1.257 . S
C148 Eu84 2.787 . S
C148 O128 1.252 . S
C148 O131 1.268 . S
C148 C141 1.506 . S
C149 C116 1.439 . S
C149 H126 0.931 . S
C149 C150 1.374 . S
C150 C121 1.387 . S
C150 H127 0.931 . S
C150 C149 1.374 . S
C151 O135 1.249 . S
C151 O136 1.264 . S
C152 C155 1.382 . S
C152 C156 1.390 . S
C152 C159 1.506 . S
C153 C154 1.398 . S
C153 C156 1.392 . S
C154 C153 1.398 . S
C154 C157 1.372 . S
C154 H164 0.931 . S
C155 C152 1.382 . S
C155 C157 1.390 . S
C155 H165 0.931 . S
C156 C152 1.390 . S
C156 C153 1.392 . S
C156 H166 0.930 . S
C157 C154 1.372 . S
C157 C155 1.390 . S
C157 H167 0.929 . S
C158 O138 1.255 . S
C158 O139 1.257 . S
C159 Eu95 2.787 . S
C159 O134 1.252 . S
C159 O137 1.268 . S
C159 C152 1.506 . S
H160 C143 0.931 . S
H161 C144 0.931 . S
H162 C145 0.929 . S
H163 C146 0.930 . S
H164 C154 0.931 . S
H165 C155 0.931 . S
H166 C156 0.930 . S
H167 C157 0.929 . S
Eu168 N197 2.600 1_455 S
Eu168 N203 2.562 . S
Eu168 O212 2.462 . S
Eu168 O213 2.373 1_455 S
Eu168 O215 2.432 . S
Eu168 O216 2.291 . S
Eu168 O220 2.335 . S
Eu168 O223 2.372 1_455 S
Eu168 C232 2.787 . S
C169 N170 1.365 . S
C169 C172 1.405 . S
C169 C176 1.448 . S
N170 C169 1.365 . S
N170 C173 1.319 . S
N170 Eu179 2.600 1_455 S
C171 C173 1.397 . S
C171 C174 1.367 . S
C171 H191 0.931 . S
C172 C169 1.405 . S
C172 C174 1.403 . S
C172 C178 1.439 . S
C173 N170 1.319 . S
C173 C171 1.397 . S
C173 H184 0.930 . S
C174 C171 1.367 . S
C174 C172 1.403 . S
C174 H195 0.929 . S
C175 C176 1.430 . S
C175 C177 1.387 . S
C175 C181 1.404 1_455 S
C176 C169 1.448 . S
C176 C175 1.430 . S
C176 N180 1.351 1_455 S
C177 C175 1.387 . S
C177 C178 1.374 . S
C177 H192 0.931 . S
C178 C172 1.439 . S
C178 C177 1.374 . S
C178 H193 0.931 . S
Eu179 N170 2.600 1_655 S
Eu179 N180 2.562 . S
Eu179 O214 2.335 . S
Eu179 O217 2.372 1_655 S
Eu179 O218 2.462 . S
Eu179 O219 2.373 1_655 S
Eu179 O221 2.432 . S
Eu179 O222 2.291 . S
Eu179 C243 2.787 . S
N180 C176 1.351 1_655 S
N180 Eu179 2.562 . S
N180 C182 1.325 . S
C181 C175 1.404 1_655 S
C181 C183 1.366 . S
C181 H189 0.930 . S
C182 N180 1.325 . S
C182 C183 1.416 . S
C182 H188 0.929 . S
C183 C181 1.366 . S
C183 C182 1.416 . S
C183 H185 0.930 . S
H184 C173 0.930 . S
H185 C183 0.930 . S
H186 C201 0.930 . S
H187 C208 0.930 . S
H188 C182 0.929 . S
H189 C181 0.930 . S
H190 C204 0.929 . S
H191 C171 0.931 . S
H192 C177 0.931 . S
H193 C178 0.931 . S
H194 C199 0.931 . S
H195 C174 0.929 . S
H196 C207 0.930 . S
N197 Eu168 2.600 1_655 S
N197 C198 1.365 . S
N197 C201 1.319 . S
C198 N197 1.365 . S
C198 C200 1.405 . S
C198 C206 1.448 . S
C199 H194 0.931 . S
C199 C201 1.397 . S
C199 C202 1.367 . S
C200 C198 1.405 . S
C200 C202 1.403 . S
C200 C233 1.439 . S
C201 H186 0.930 . S
C201 N197 1.319 . S
C201 C199 1.397 . S
C202 C199 1.367 . S
C202 C200 1.403 . S
C202 H209 0.929 . S
N203 Eu168 2.562 . S
N203 C204 1.325 . S
N203 C206 1.351 1_455 S
C204 H190 0.929 . S
C204 N203 1.325 . S
C204 C208 1.416 . S
C205 C206 1.430 . S
C205 C207 1.404 1_655 S
C205 C234 1.387 . S
C206 C198 1.448 . S
C206 N203 1.351 1_655 S
C206 C205 1.430 . S
C207 H196 0.930 . S
C207 C205 1.404 1_455 S
C207 C208 1.366 . S
C208 H187 0.930 . S
C208 C204 1.416 . S
C208 C207 1.366 . S
H209 C202 0.929 . S
H210 C233 0.931 . S
H211 C234 0.931 . S
O212 Eu168 2.462 . S
O212 C232 1.252 . S
O213 Eu168 2.373 1_655 S
O213 C224 1.249 . S
O214 Eu179 2.335 . S
O214 C224 1.264 . S
O215 Eu168 2.432 . S
O215 C232 1.268 . S
O216 Eu168 2.291 . S
O216 C231 1.255 . S
O217 Eu179 2.372 1_455 S
O217 C231 1.257 . S
O218 Eu179 2.462 . S
O218 C243 1.252 . S
O219 Eu179 2.373 1_455 S
O219 C235 1.249 . S
O220 Eu168 2.335 . S
O220 C235 1.264 . S
O221 Eu179 2.432 . S
O221 C243 1.268 . S
O222 Eu179 2.291 . S
O222 C242 1.255 . S
O223 Eu168 2.372 1_655 S
O223 C242 1.257 . S
C224 O213 1.249 . S
C224 O214 1.264 . S
C225 C228 1.382 . S
C225 C230 1.390 . S
C225 C232 1.506 . S
C226 C227 1.398 . S
C226 C230 1.392 . S
C227 C226 1.398 . S
C227 C229 1.372 . S
C227 H244 0.931 . S
C228 C225 1.382 . S
C228 C229 1.390 . S
C228 H245 0.931 . S
C229 C227 1.372 . S
C229 C228 1.390 . S
C229 H246 0.929 . S
C230 C225 1.390 . S
C230 C226 1.392 . S
C230 H247 0.930 . S
C231 O216 1.255 . S
C231 O217 1.257 . S
C232 Eu168 2.787 . S
C232 O212 1.252 . S
C232 O215 1.268 . S
C232 C225 1.506 . S
C233 C200 1.439 . S
C233 H210 0.931 . S
C233 C234 1.374 . S
C234 C205 1.387 . S
C234 H211 0.931 . S
C234 C233 1.374 . S
C235 O219 1.249 . S
C235 O220 1.264 . S
C236 C239 1.382 . S
C236 C240 1.390 . S
C236 C243 1.506 . S
C237 C238 1.398 . S
C237 C240 1.392 . S
C238 C237 1.398 . S
C238 C241 1.372 . S
C238 H248 0.931 . S
C239 C236 1.382 . S
C239 C241 1.390 . S
C239 H249 0.931 . S
C240 C236 1.390 . S
C240 C237 1.392 . S
C240 H250 0.930 . S
C241 C238 1.372 . S
C241 C239 1.390 . S
C241 H251 0.929 . S
C242 O222 1.255 . S
C242 O223 1.257 . S
C243 Eu179 2.787 . S
C243 O218 1.252 . S
C243 O221 1.268 . S
C243 C236 1.506 . S
H244 C227 0.931 . S
H245 C228 0.931 . S
H246 C229 0.929 . S
H247 C230 0.930 . S
H248 C238 0.931 . S
H249 C239 0.931 . S
H250 C240 0.930 . S
H251 C241 0.929 . S
Eu252 N281 2.600 1_545 S
Eu252 N287 2.562 . S
Eu252 O296 2.462 . S
Eu252 O297 2.373 1_545 S
Eu252 O299 2.432 . S
Eu252 O300 2.291 . S
Eu252 O304 2.335 . S
Eu252 O307 2.372 1_545 S
Eu252 C316 2.787 . S
C253 N254 1.365 . S
C253 C256 1.405 . S
C253 C260 1.448 . S
N254 C253 1.365 . S
N254 C257 1.319 . S
N254 Eu263 2.600 1_545 S
C255 C257 1.397 . S
C255 C258 1.367 . S
C255 H275 0.931 . S
C256 C253 1.405 . S
C256 C258 1.403 . S
C256 C262 1.439 . S
C257 N254 1.319 . S
C257 C255 1.397 . S
C257 H268 0.930 . S
C258 C255 1.367 . S
C258 C256 1.403 . S
C258 H279 0.929 . S
C259 C260 1.430 . S
C259 C261 1.387 . S
C259 C265 1.404 1_545 S
C260 C253 1.448 . S
C260 C259 1.430 . S
C260 N264 1.351 1_545 S
C261 C259 1.387 . S
C261 C262 1.374 . S
C261 H276 0.931 . S
C262 C256 1.439 . S
C262 C261 1.374 . S
C262 H277 0.931 . S
Eu263 N254 2.600 1_565 S
Eu263 N264 2.562 . S
Eu263 O298 2.335 . S
Eu263 O301 2.372 1_565 S
Eu263 O302 2.462 . S
Eu263 O303 2.373 1_565 S
Eu263 O305 2.432 . S
Eu263 O306 2.291 . S
Eu263 C327 2.787 . S
N264 C260 1.351 1_565 S
N264 Eu263 2.562 . S
N264 C266 1.325 . S
C265 C259 1.404 1_565 S
C265 C267 1.366 . S
C265 H273 0.930 . S
C266 N264 1.325 . S
C266 C267 1.416 . S
C266 H272 0.929 . S
C267 C265 1.366 . S
C267 C266 1.416 . S
C267 H269 0.930 . S
H268 C257 0.930 . S
H269 C267 0.930 . S
H270 C285 0.930 . S
H271 C292 0.930 . S
H272 C266 0.929 . S
H273 C265 0.930 . S
H274 C288 0.929 . S
H275 C255 0.931 . S
H276 C261 0.931 . S
H277 C262 0.931 . S
H278 C283 0.931 . S
H279 C258 0.929 . S
H280 C291 0.930 . S
N281 Eu252 2.600 1_565 S
N281 C282 1.365 . S
N281 C285 1.319 . S
C282 N281 1.365 . S
C282 C284 1.405 . S
C282 C290 1.448 . S
C283 H278 0.931 . S
C283 C285 1.397 . S
C283 C286 1.367 . S
C284 C282 1.405 . S
C284 C286 1.403 . S
C284 C317 1.439 . S
C285 H270 0.930 . S
C285 N281 1.319 . S
C285 C283 1.397 . S
C286 C283 1.367 . S
C286 C284 1.403 . S
C286 H293 0.929 . S
N287 Eu252 2.562 . S
N287 C288 1.325 . S
N287 C290 1.351 1_545 S
C288 H274 0.929 . S
C288 N287 1.325 . S
C288 C292 1.416 . S
C289 C290 1.430 . S
C289 C291 1.404 1_565 S
C289 C318 1.387 . S
C290 C282 1.448 . S
C290 N287 1.351 1_565 S
C290 C289 1.430 . S
C291 H280 0.930 . S
C291 C289 1.404 1_545 S
C291 C292 1.366 . S
C292 H271 0.930 . S
C292 C288 1.416 . S
C292 C291 1.366 . S
H293 C286 0.929 . S
H294 C317 0.931 . S
H295 C318 0.931 . S
O296 Eu252 2.462 . S
O296 C316 1.252 . S
O297 Eu252 2.373 1_565 S
O297 C308 1.249 . S
O298 Eu263 2.335 . S
O298 C308 1.264 . S
O299 Eu252 2.432 . S
O299 C316 1.268 . S
O300 Eu252 2.291 . S
O300 C315 1.255 . S
O301 Eu263 2.372 1_545 S
O301 C315 1.257 . S
O302 Eu263 2.462 . S
O302 C327 1.252 . S
O303 Eu263 2.373 1_545 S
O303 C319 1.249 . S
O304 Eu252 2.335 . S
O304 C319 1.264 . S
O305 Eu263 2.432 . S
O305 C327 1.268 . S
O306 Eu263 2.291 . S
O306 C326 1.255 . S
O307 Eu252 2.372 1_565 S
O307 C326 1.257 . S
C308 O297 1.249 . S
C308 O298 1.264 . S
C309 C312 1.382 . S
C309 C314 1.390 . S
C309 C316 1.506 . S
C310 C311 1.398 . S
C310 C314 1.392 . S
C311 C310 1.398 . S
C311 C313 1.372 . S
C311 H328 0.931 . S
C312 C309 1.382 . S
C312 C313 1.390 . S
C312 H329 0.931 . S
C313 C311 1.372 . S
C313 C312 1.390 . S
C313 H330 0.929 . S
C314 C309 1.390 . S
C314 C310 1.392 . S
C314 H331 0.930 . S
C315 O300 1.255 . S
C315 O301 1.257 . S
C316 Eu252 2.787 . S
C316 O296 1.252 . S
C316 O299 1.268 . S
C316 C309 1.506 . S
C317 C284 1.439 . S
C317 H294 0.931 . S
C317 C318 1.374 . S
C318 C289 1.387 . S
C318 H295 0.931 . S
C318 C317 1.374 . S
C319 O303 1.249 . S
C319 O304 1.264 . S
C320 C323 1.382 . S
C320 C324 1.390 . S
C320 C327 1.506 . S
C321 C322 1.398 . S
C321 C324 1.392 . S
C322 C321 1.398 . S
C322 C325 1.372 . S
C322 H332 0.931 . S
C323 C320 1.382 . S
C323 C325 1.390 . S
C323 H333 0.931 . S
C324 C320 1.390 . S
C324 C321 1.392 . S
C324 H334 0.930 . S
C325 C322 1.372 . S
C325 C323 1.390 . S
C325 H335 0.929 . S
C326 O306 1.255 . S
C326 O307 1.257 . S
C327 Eu263 2.787 . S
C327 O302 1.252 . S
C327 O305 1.268 . S
C327 C320 1.506 . S
H328 C311 0.931 . S
H329 C312 0.931 . S
H330 C313 0.929 . S
H331 C314 0.930 . S
H332 C322 0.931 . S
H333 C323 0.931 . S
H334 C324 0.930 . S
H335 C325 0.929 . S
Eu336 N365 2.600 . S
Eu336 N371 2.562 . S
Eu336 O380 2.462 . S
Eu336 O381 2.373 . S
Eu336 O383 2.432 1_554 S
Eu336 O384 2.291 . S
Eu336 O388 2.335 . S
Eu336 O391 2.372 . S
Eu336 C400 2.787 1_554 S
C337 N338 1.365 . S
C337 C340 1.405 . S
C337 C344 1.448 . S
N338 C337 1.365 . S
N338 C341 1.319 . S
N338 Eu347 2.600 . S
C339 C341 1.397 . S
C339 C342 1.367 . S
C339 H359 0.931 . S
C340 C337 1.405 . S
C340 C342 1.403 . S
C340 C346 1.439 . S
C341 N338 1.319 . S
C341 C339 1.397 . S
C341 H352 0.930 . S
C342 C339 1.367 . S
C342 C340 1.403 . S
C342 H363 0.929 . S
C343 C344 1.430 . S
C343 C345 1.387 . S
C343 C349 1.404 . S
C344 C337 1.448 . S
C344 C343 1.430 . S
C344 N348 1.351 . S
C345 C343 1.387 . S
C345 C346 1.374 . S
C345 H360 0.931 . S
C346 C340 1.439 . S
C346 C345 1.374 . S
C346 H361 0.931 . S
Eu347 N338 2.600 . S
Eu347 N348 2.562 . S
Eu347 O382 2.335 . S
Eu347 O385 2.372 . S
Eu347 O386 2.462 . S
Eu347 O387 2.373 . S
Eu347 O389 2.432 . S
Eu347 O390 2.291 . S
Eu347 C411 2.787 . S
N348 C344 1.351 . S
N348 Eu347 2.562 . S
N348 C350 1.325 . S
C349 C343 1.404 . S
C349 C351 1.366 . S
C349 H357 0.930 . S
C350 N348 1.325 . S
C350 C351 1.416 . S
C350 H356 0.929 . S
C351 C349 1.366 . S
C351 C350 1.416 . S
C351 H353 0.930 . S
H352 C341 0.930 . S
H353 C351 0.930 . S
H354 C369 0.930 . S
H355 C376 0.930 . S
H356 C350 0.929 . S
H357 C349 0.930 . S
H358 C372 0.929 . S
H359 C339 0.931 . S
H360 C345 0.931 . S
H361 C346 0.931 . S
H362 C367 0.931 . S
H363 C342 0.929 . S
H364 C375 0.930 . S
N365 Eu336 2.600 . S
N365 C366 1.365 . S
N365 C369 1.319 1_554 S
C366 N365 1.365 . S
C366 C368 1.405 . S
C366 C374 1.448 . S
C367 H362 0.931 . S
C367 C369 1.397 . S
C367 C370 1.367 . S
C368 C366 1.405 . S
C368 C370 1.403 1_554 S
C368 C401 1.439 . S
C369 H354 0.930 . S
C369 N365 1.319 1_556 S
C369 C367 1.397 . S
C370 C367 1.367 . S
C370 C368 1.403 1_556 S
C370 H377 0.929 . S
N371 Eu336 2.562 . S
N371 C372 1.325 . S
N371 C374 1.351 . S
C372 H358 0.929 . S
C372 N371 1.325 . S
C372 C376 1.416 . S
C373 C374 1.430 . S
C373 C375 1.404 . S
C373 C402 1.387 . S
C374 C366 1.448 . S
C374 N371 1.351 . S
C374 C373 1.430 . S
C375 H364 0.930 . S
C375 C373 1.404 . S
C375 C376 1.366 . S
C376 H355 0.930 . S
C376 C372 1.416 . S
C376 C375 1.366 . S
H377 C370 0.929 . S
H378 C401 0.931 . S
H379 C402 0.931 . S
O380 Eu336 2.462 . S
O380 C400 1.252 1_554 S
O381 Eu336 2.373 . S
O381 C392 1.249 . S
O382 Eu347 2.335 . S
O382 C392 1.264 . S
O383 Eu336 2.432 1_556 S
O383 C400 1.268 . S
O384 Eu336 2.291 . S
O384 C399 1.255 . S
O385 Eu347 2.372 . S
O385 C399 1.257 . S
O386 Eu347 2.462 . S
O386 C411 1.252 . S
O387 Eu347 2.373 . S
O387 C403 1.249 . S
O388 Eu336 2.335 . S
O388 C403 1.264 . S
O389 Eu347 2.432 . S
O389 C411 1.268 . S
O390 Eu347 2.291 . S
O390 C410 1.255 . S
O391 Eu336 2.372 . S
O391 C410 1.257 . S
C392 O381 1.249 . S
C392 O382 1.264 . S
C393 C396 1.382 . S
C393 C398 1.390 . S
C393 C400 1.506 . S
C394 C395 1.398 . S
C394 C398 1.392 . S
C395 C394 1.398 . S
C395 C397 1.372 . S
C395 H412 0.931 . S
C396 C393 1.382 . S
C396 C397 1.390 . S
C396 H413 0.931 . S
C397 C395 1.372 . S
C397 C396 1.390 . S
C397 H414 0.929 . S
C398 C393 1.390 . S
C398 C394 1.392 . S
C398 H415 0.930 . S
C399 O384 1.255 . S
C399 O385 1.257 . S
C400 Eu336 2.787 1_556 S
C400 O380 1.252 1_556 S
C400 O383 1.268 . S
C400 C393 1.506 . S
C401 C368 1.439 . S
C401 H378 0.931 . S
C401 C402 1.374 . S
C402 C373 1.387 . S
C402 H379 0.931 . S
C402 C401 1.374 . S
C403 O387 1.249 . S
C403 O388 1.264 . S
C404 C407 1.382 . S
C404 C408 1.390 . S
C404 C411 1.506 . S
C405 C406 1.398 . S
C405 C408 1.392 . S
C406 C405 1.398 . S
C406 C409 1.372 . S
C406 H416 0.931 . S
C407 C404 1.382 . S
C407 C409 1.390 . S
C407 H417 0.931 . S
C408 C404 1.390 . S
C408 C405 1.392 . S
C408 H418 0.930 . S
C409 C406 1.372 . S
C409 C407 1.390 . S
C409 H419 0.929 . S
C410 O390 1.255 . S
C410 O391 1.257 . S
C411 Eu347 2.787 . S
C411 O386 1.252 . S
C411 O389 1.268 . S
C411 C404 1.506 . S
H412 C395 0.931 . S
H413 C396 0.931 . S
H414 C397 0.929 . S
H415 C398 0.930 . S
H416 C406 0.931 . S
H417 C407 0.931 . S
H418 C408 0.930 . S
H419 C409 0.929 . S
Eu420 N449 2.600 1_655 S
Eu420 N455 2.562 . S
Eu420 O464 2.462 . S
Eu420 O465 2.373 1_655 S
Eu420 O467 2.432 . S
Eu420 O468 2.291 . S
Eu420 O472 2.335 . S
Eu420 O475 2.372 1_655 S
Eu420 C484 2.787 . S
C421 N422 1.365 . S
C421 C424 1.405 . S
C421 C428 1.448 . S
N422 C421 1.365 . S
N422 C425 1.319 . S
N422 Eu431 2.600 1_655 S
C423 C425 1.397 . S
C423 C426 1.367 . S
C423 H443 0.931 . S
C424 C421 1.405 . S
C424 C426 1.403 . S
C424 C430 1.439 . S
C425 N422 1.319 . S
C425 C423 1.397 . S
C425 H436 0.930 . S
C426 C423 1.367 . S
C426 C424 1.403 . S
C426 H447 0.929 . S
C427 C428 1.430 . S
C427 C429 1.387 . S
C427 C433 1.404 1_655 S
C428 C421 1.448 . S
C428 C427 1.430 . S
C428 N432 1.351 1_655 S
C429 C427 1.387 . S
C429 C430 1.374 . S
C429 H444 0.931 . S
C430 C424 1.439 . S
C430 C429 1.374 . S
C430 H445 0.931 . S
Eu431 N422 2.600 1_455 S
Eu431 N432 2.562 . S
Eu431 O466 2.335 . S
Eu431 O469 2.372 1_455 S
Eu431 O470 2.462 . S
Eu431 O471 2.373 1_455 S
Eu431 O473 2.432 . S
Eu431 O474 2.291 . S
Eu431 C495 2.787 . S
N432 C428 1.351 1_455 S
N432 Eu431 2.562 . S
N432 C434 1.325 . S
C433 C427 1.404 1_455 S
C433 C435 1.366 . S
C433 H441 0.930 . S
C434 N432 1.325 . S
C434 C435 1.416 . S
C434 H440 0.929 . S
C435 C433 1.366 . S
C435 C434 1.416 . S
C435 H437 0.930 . S
H436 C425 0.930 . S
H437 C435 0.930 . S
H438 C453 0.930 . S
H439 C460 0.930 . S
H440 C434 0.929 . S
H441 C433 0.930 . S
H442 C456 0.929 . S
H443 C423 0.931 . S
H444 C429 0.931 . S
H445 C430 0.931 . S
H446 C451 0.931 . S
H447 C426 0.929 . S
H448 C459 0.930 . S
N449 Eu420 2.600 1_455 S
N449 C450 1.365 . S
N449 C453 1.319 . S
C450 N449 1.365 . S
C450 C452 1.405 . S
C450 C458 1.448 . S
C451 H446 0.931 . S
C451 C453 1.397 . S
C451 C454 1.367 . S
C452 C450 1.405 . S
C452 C454 1.403 . S
C452 C485 1.439 . S
C453 H438 0.930 . S
C453 N449 1.319 . S
C453 C451 1.397 . S
C454 C451 1.367 . S
C454 C452 1.403 . S
C454 H461 0.929 . S
N455 Eu420 2.562 . S
N455 C456 1.325 . S
N455 C458 1.351 1_655 S
C456 H442 0.929 . S
C456 N455 1.325 . S
C456 C460 1.416 . S
C457 C458 1.430 . S
C457 C459 1.404 1_455 S
C457 C486 1.387 . S
C458 C450 1.448 . S
C458 N455 1.351 1_455 S
C458 C457 1.430 . S
C459 H448 0.930 . S
C459 C457 1.404 1_655 S
C459 C460 1.366 . S
C460 H439 0.930 . S
C460 C456 1.416 . S
C460 C459 1.366 . S
H461 C454 0.929 . S
H462 C485 0.931 . S
H463 C486 0.931 . S
O464 Eu420 2.462 . S
O464 C484 1.252 . S
O465 Eu420 2.373 1_455 S
O465 C476 1.249 . S
O466 Eu431 2.335 . S
O466 C476 1.264 . S
O467 Eu420 2.432 . S
O467 C484 1.268 . S
O468 Eu420 2.291 . S
O468 C483 1.255 . S
O469 Eu431 2.372 1_655 S
O469 C483 1.257 . S
O470 Eu431 2.462 . S
O470 C495 1.252 . S
O471 Eu431 2.373 1_655 S
O471 C487 1.249 . S
O472 Eu420 2.335 . S
O472 C487 1.264 . S
O473 Eu431 2.432 . S
O473 C495 1.268 . S
O474 Eu431 2.291 . S
O474 C494 1.255 . S
O475 Eu420 2.372 1_455 S
O475 C494 1.257 . S
C476 O465 1.249 . S
C476 O466 1.264 . S
C477 C480 1.382 . S
C477 C482 1.390 . S
C477 C484 1.506 . S
C478 C479 1.398 . S
C478 C482 1.392 . S
C479 C478 1.398 . S
C479 C481 1.372 . S
C479 H496 0.931 . S
C480 C477 1.382 . S
C480 C481 1.390 . S
C480 H497 0.931 . S
C481 C479 1.372 . S
C481 C480 1.390 . S
C481 H498 0.929 . S
C482 C477 1.390 . S
C482 C478 1.392 . S
C482 H499 0.930 . S
C483 O468 1.255 . S
C483 O469 1.257 . S
C484 Eu420 2.787 . S
C484 O464 1.252 . S
C484 O467 1.268 . S
C484 C477 1.506 . S
C485 C452 1.439 . S
C485 H462 0.931 . S
C485 C486 1.374 . S
C486 C457 1.387 . S
C486 H463 0.931 . S
C486 C485 1.374 . S
C487 O471 1.249 . S
C487 O472 1.264 . S
C488 C491 1.382 . S
C488 C492 1.390 . S
C488 C495 1.506 . S
C489 C490 1.398 . S
C489 C492 1.392 . S
C490 C489 1.398 . S
C490 C493 1.372 . S
C490 H500 0.931 . S
C491 C488 1.382 . S
C491 C493 1.390 . S
C491 H501 0.931 . S
C492 C488 1.390 . S
C492 C489 1.392 . S
C492 H502 0.930 . S
C493 C490 1.372 . S
C493 C491 1.390 . S
C493 H503 0.929 . S
C494 O474 1.255 . S
C494 O475 1.257 . S
C495 Eu431 2.787 . S
C495 O470 1.252 . S
C495 O473 1.268 . S
C495 C488 1.506 . S
H496 C479 0.931 . S
H497 C480 0.931 . S
H498 C481 0.929 . S
H499 C482 0.930 . S
H500 C490 0.931 . S
H501 C491 0.931 . S
H502 C492 0.930 . S
H503 C493 0.929 . S
Eu504 N533 2.600 1_455 S
Eu504 N539 2.562 . S
Eu504 O548 2.462 . S
Eu504 O549 2.373 1_455 S
Eu504 O551 2.432 . S
Eu504 O552 2.291 . S
Eu504 O556 2.335 . S
Eu504 O559 2.372 1_455 S
Eu504 C568 2.787 . S
C505 N506 1.365 . S
C505 C508 1.405 . S
C505 C512 1.448 . S
N506 C505 1.365 . S
N506 C509 1.319 . S
N506 Eu515 2.600 1_455 S
C507 C509 1.397 . S
C507 C510 1.367 . S
C507 H527 0.931 . S
C508 C505 1.405 . S
C508 C510 1.403 . S
C508 C514 1.439 . S
C509 N506 1.319 . S
C509 C507 1.397 . S
C509 H520 0.930 . S
C510 C507 1.367 . S
C510 C508 1.403 . S
C510 H531 0.929 . S
C511 C512 1.430 . S
C511 C513 1.387 . S
C511 C517 1.404 1_455 S
C512 C505 1.448 . S
C512 C511 1.430 . S
C512 N516 1.351 1_455 S
C513 C511 1.387 . S
C513 C514 1.374 . S
C513 H528 0.931 . S
C514 C508 1.439 . S
C514 C513 1.374 . S
C514 H529 0.931 . S
Eu515 N506 2.600 1_655 S
Eu515 N516 2.562 . S
Eu515 O550 2.335 . S
Eu515 O553 2.372 1_655 S
Eu515 O554 2.462 . S
Eu515 O555 2.373 1_655 S
Eu515 O557 2.432 . S
Eu515 O558 2.291 . S
Eu515 C579 2.787 . S
N516 C512 1.351 1_655 S
N516 Eu515 2.562 . S
N516 C518 1.325 . S
C517 C511 1.404 1_655 S
C517 C519 1.366 . S
C517 H525 0.930 . S
C518 N516 1.325 . S
C518 C519 1.416 . S
C518 H524 0.929 . S
C519 C517 1.366 . S
C519 C518 1.416 . S
C519 H521 0.930 . S
H520 C509 0.930 . S
H521 C519 0.930 . S
H522 C537 0.930 . S
H523 C544 0.930 . S
H524 C518 0.929 . S
H525 C517 0.930 . S
H526 C540 0.929 . S
H527 C507 0.931 . S
H528 C513 0.931 . S
H529 C514 0.931 . S
H530 C535 0.931 . S
H531 C510 0.929 . S
H532 C543 0.930 . S
N533 Eu504 2.600 1_655 S
N533 C534 1.365 . S
N533 C537 1.319 . S
C534 N533 1.365 . S
C534 C536 1.405 . S
C534 C542 1.448 . S
C535 H530 0.931 . S
C535 C537 1.397 . S
C535 C538 1.367 . S
C536 C534 1.405 . S
C536 C538 1.403 . S
C536 C569 1.439 . S
C537 H522 0.930 . S
C537 N533 1.319 . S
C537 C535 1.397 . S
C538 C535 1.367 . S
C538 C536 1.403 . S
C538 H545 0.929 . S
N539 Eu504 2.562 . S
N539 C540 1.325 . S
N539 C542 1.351 1_455 S
C540 H526 0.929 . S
C540 N539 1.325 . S
C540 C544 1.416 . S
C541 C542 1.430 . S
C541 C543 1.404 1_655 S
C541 C570 1.387 . S
C542 C534 1.448 . S
C542 N539 1.351 1_655 S
C542 C541 1.430 . S
C543 H532 0.930 . S
C543 C541 1.404 1_455 S
C543 C544 1.366 . S
C544 H523 0.930 . S
C544 C540 1.416 . S
C544 C543 1.366 . S
H545 C538 0.929 . S
H546 C569 0.931 . S
H547 C570 0.931 . S
O548 Eu504 2.462 . S
O548 C568 1.252 . S
O549 Eu504 2.373 1_655 S
O549 C560 1.249 . S
O550 Eu515 2.335 . S
O550 C560 1.264 . S
O551 Eu504 2.432 . S
O551 C568 1.268 . S
O552 Eu504 2.291 . S
O552 C567 1.255 . S
O553 Eu515 2.372 1_455 S
O553 C567 1.257 . S
O554 Eu515 2.462 . S
O554 C579 1.252 . S
O555 Eu515 2.373 1_455 S
O555 C571 1.249 . S
O556 Eu504 2.335 . S
O556 C571 1.264 . S
O557 Eu515 2.432 . S
O557 C579 1.268 . S
O558 Eu515 2.291 . S
O558 C578 1.255 . S
O559 Eu504 2.372 1_655 S
O559 C578 1.257 . S
C560 O549 1.249 . S
C560 O550 1.264 . S
C561 C564 1.382 . S
C561 C566 1.390 . S
C561 C568 1.506 . S
C562 C563 1.398 . S
C562 C566 1.392 . S
C563 C562 1.398 . S
C563 C565 1.372 . S
C563 H580 0.931 . S
C564 C561 1.382 . S
C564 C565 1.390 . S
C564 H581 0.931 . S
C565 C563 1.372 . S
C565 C564 1.390 . S
C565 H582 0.929 . S
C566 C561 1.390 . S
C566 C562 1.392 . S
C566 H583 0.930 . S
C567 O552 1.255 . S
C567 O553 1.257 . S
C568 Eu504 2.787 . S
C568 O548 1.252 . S
C568 O551 1.268 . S
C568 C561 1.506 . S
C569 C536 1.439 . S
C569 H546 0.931 . S
C569 C570 1.374 . S
C570 C541 1.387 . S
C570 H547 0.931 . S
C570 C569 1.374 . S
C571 O555 1.249 . S
C571 O556 1.264 . S
C572 C575 1.382 . S
C572 C576 1.390 . S
C572 C579 1.506 . S
C573 C574 1.398 . S
C573 C576 1.392 . S
C574 C573 1.398 . S
C574 C577 1.372 . S
C574 H584 0.931 . S
C575 C572 1.382 . S
C575 C577 1.390 . S
C575 H585 0.931 . S
C576 C572 1.390 . S
C576 C573 1.392 . S
C576 H586 0.930 . S
C577 C574 1.372 . S
C577 C575 1.390 . S
C577 H587 0.929 . S
C578 O558 1.255 . S
C578 O559 1.257 . S
C579 Eu515 2.787 . S
C579 O554 1.252 . S
C579 O557 1.268 . S
C579 C572 1.506 . S
H580 C563 0.931 . S
H581 C564 0.931 . S
H582 C565 0.929 . S
H583 C566 0.930 . S
H584 C574 0.931 . S
H585 C575 0.931 . S
H586 C576 0.930 . S
H587 C577 0.929 . S
Eu588 N617 2.600 1_545 S
Eu588 N623 2.562 . S
Eu588 O632 2.462 . S
Eu588 O633 2.373 1_545 S
Eu588 O635 2.432 . S
Eu588 O636 2.291 . S
Eu588 O640 2.335 . S
Eu588 O643 2.372 1_545 S
Eu588 C652 2.787 . S
C589 N590 1.365 . S
C589 C592 1.405 . S
C589 C596 1.448 . S
N590 C589 1.365 . S
N590 C593 1.319 . S
N590 Eu599 2.600 1_545 S
C591 C593 1.397 . S
C591 C594 1.367 . S
C591 H611 0.931 . S
C592 C589 1.405 . S
C592 C594 1.403 . S
C592 C598 1.439 . S
C593 N590 1.319 . S
C593 C591 1.397 . S
C593 H604 0.930 . S
C594 C591 1.367 . S
C594 C592 1.403 . S
C594 H615 0.929 . S
C595 C596 1.430 . S
C595 C597 1.387 . S
C595 C601 1.404 1_545 S
C596 C589 1.448 . S
C596 C595 1.430 . S
C596 N600 1.351 1_545 S
C597 C595 1.387 . S
C597 C598 1.374 . S
C597 H612 0.931 . S
C598 C592 1.439 . S
C598 C597 1.374 . S
C598 H613 0.931 . S
Eu599 N590 2.600 1_565 S
Eu599 N600 2.562 . S
Eu599 O634 2.335 . S
Eu599 O637 2.372 1_565 S
Eu599 O638 2.462 . S
Eu599 O639 2.373 1_565 S
Eu599 O641 2.432 . S
Eu599 O642 2.291 . S
Eu599 C663 2.787 . S
N600 C596 1.351 1_565 S
N600 Eu599 2.562 . S
N600 C602 1.325 . S
C601 C595 1.404 1_565 S
C601 C603 1.366 . S
C601 H609 0.930 . S
C602 N600 1.325 . S
C602 C603 1.416 . S
C602 H608 0.929 . S
C603 C601 1.366 . S
C603 C602 1.416 . S
C603 H605 0.930 . S
H604 C593 0.930 . S
H605 C603 0.930 . S
H606 C621 0.930 . S
H607 C628 0.930 . S
H608 C602 0.929 . S
H609 C601 0.930 . S
H610 C624 0.929 . S
H611 C591 0.931 . S
H612 C597 0.931 . S
H613 C598 0.931 . S
H614 C619 0.931 . S
H615 C594 0.929 . S
H616 C627 0.930 . S
N617 Eu588 2.600 1_565 S
N617 C618 1.365 . S
N617 C621 1.319 . S
C618 N617 1.365 . S
C618 C620 1.405 . S
C618 C626 1.448 . S
C619 H614 0.931 . S
C619 C621 1.397 . S
C619 C622 1.367 . S
C620 C618 1.405 . S
C620 C622 1.403 . S
C620 C653 1.439 . S
C621 H606 0.930 . S
C621 N617 1.319 . S
C621 C619 1.397 . S
C622 C619 1.367 . S
C622 C620 1.403 . S
C622 H629 0.929 . S
N623 Eu588 2.562 . S
N623 C624 1.325 . S
N623 C626 1.351 1_545 S
C624 H610 0.929 . S
C624 N623 1.325 . S
C624 C628 1.416 . S
C625 C626 1.430 . S
C625 C627 1.404 1_565 S
C625 C654 1.387 . S
C626 C618 1.448 . S
C626 N623 1.351 1_565 S
C626 C625 1.430 . S
C627 H616 0.930 . S
C627 C625 1.404 1_545 S
C627 C628 1.366 . S
C628 H607 0.930 . S
C628 C624 1.416 . S
C628 C627 1.366 . S
H629 C622 0.929 . S
H630 C653 0.931 . S
H631 C654 0.931 . S
O632 Eu588 2.462 . S
O632 C652 1.252 . S
O633 Eu588 2.373 1_565 S
O633 C644 1.249 . S
O634 Eu599 2.335 . S
O634 C644 1.264 . S
O635 Eu588 2.432 . S
O635 C652 1.268 . S
O636 Eu588 2.291 . S
O636 C651 1.255 . S
O637 Eu599 2.372 1_545 S
O637 C651 1.257 . S
O638 Eu599 2.462 . S
O638 C663 1.252 . S
O639 Eu599 2.373 1_545 S
O639 C655 1.249 . S
O640 Eu588 2.335 . S
O640 C655 1.264 . S
O641 Eu599 2.432 . S
O641 C663 1.268 . S
O642 Eu599 2.291 . S
O642 C662 1.255 . S
O643 Eu588 2.372 1_565 S
O643 C662 1.257 . S
C644 O633 1.249 . S
C644 O634 1.264 . S
C645 C648 1.382 . S
C645 C650 1.390 . S
C645 C652 1.506 . S
C646 C647 1.398 . S
C646 C650 1.392 . S
C647 C646 1.398 . S
C647 C649 1.372 . S
C647 H664 0.931 . S
C648 C645 1.382 . S
C648 C649 1.390 . S
C648 H665 0.931 . S
C649 C647 1.372 . S
C649 C648 1.390 . S
C649 H666 0.929 . S
C650 C645 1.390 . S
C650 C646 1.392 . S
C650 H667 0.930 . S
C651 O636 1.255 . S
C651 O637 1.257 . S
C652 Eu588 2.787 . S
C652 O632 1.252 . S
C652 O635 1.268 . S
C652 C645 1.506 . S
C653 C620 1.439 . S
C653 H630 0.931 . S
C653 C654 1.374 . S
C654 C625 1.387 . S
C654 H631 0.931 . S
C654 C653 1.374 . S
C655 O639 1.249 . S
C655 O640 1.264 . S
C656 C659 1.382 . S
C656 C660 1.390 . S
C656 C663 1.506 . S
C657 C658 1.398 . S
C657 C660 1.392 . S
C658 C657 1.398 . S
C658 C661 1.372 . S
C658 H668 0.931 . S
C659 C656 1.382 . S
C659 C661 1.390 . S
C659 H669 0.931 . S
C660 C656 1.390 . S
C660 C657 1.392 . S
C660 H670 0.930 . S
C661 C658 1.372 . S
C661 C659 1.390 . S
C661 H671 0.929 . S
C662 O642 1.255 . S
C662 O643 1.257 . S
C663 Eu599 2.787 . S
C663 O638 1.252 . S
C663 O641 1.268 . S
C663 C656 1.506 . S
H664 C647 0.931 . S
H665 C648 0.931 . S
H666 C649 0.929 . S
H667 C650 0.930 . S
H668 C658 0.931 . S
H669 C659 0.931 . S
H670 C660 0.930 . S
H671 C661 0.929 . S
Eu672 N701 2.600 . S
Eu672 N707 2.562 . S
Eu672 O716 2.462 . S
Eu672 O717 2.373 . S
Eu672 O719 2.432 . S
Eu672 O720 2.291 . S
Eu672 O724 2.335 . S
Eu672 O727 2.372 . S
Eu672 C736 2.787 . S
C673 N674 1.365 . S
C673 C676 1.405 . S
C673 C680 1.448 . S
N674 C673 1.365 . S
N674 C677 1.319 . S
N674 Eu683 2.600 . S
C675 C677 1.397 . S
C675 C678 1.367 . S
C675 H695 0.931 . S
C676 C673 1.405 . S
C676 C678 1.403 . S
C676 C682 1.439 . S
C677 N674 1.319 . S
C677 C675 1.397 . S
C677 H688 0.930 . S
C678 C675 1.367 . S
C678 C676 1.403 . S
C678 H699 0.929 . S
C679 C680 1.430 . S
C679 C681 1.387 . S
C679 C685 1.404 . S
C680 C673 1.448 . S
C680 C679 1.430 . S
C680 N684 1.351 . S
C681 C679 1.387 . S
C681 C682 1.374 . S
C681 H696 0.931 . S
C682 C676 1.439 . S
C682 C681 1.374 . S
C682 H697 0.931 . S
Eu683 N674 2.600 . S
Eu683 N684 2.562 . S
Eu683 O718 2.335 . S
Eu683 O721 2.372 . S
Eu683 O722 2.462 . S
Eu683 O723 2.373 . S
Eu683 O725 2.432 . S
Eu683 O726 2.291 . S
Eu683 C747 2.787 . S
N684 C680 1.351 . S
N684 Eu683 2.562 . S
N684 C686 1.325 . S
C685 C679 1.404 . S
C685 C687 1.366 . S
C685 H693 0.930 . S
C686 N684 1.325 . S
C686 C687 1.416 . S
C686 H692 0.929 . S
C687 C685 1.366 . S
C687 C686 1.416 . S
C687 H689 0.930 . S
H688 C677 0.930 . S
H689 C687 0.930 . S
H690 C705 0.930 . S
H691 C712 0.930 . S
H692 C686 0.929 . S
H693 C685 0.930 . S
H694 C708 0.929 . S
H695 C675 0.931 . S
H696 C681 0.931 . S
H697 C682 0.931 . S
H698 C703 0.931 . S
H699 C678 0.929 . S
H700 C711 0.930 . S
N701 Eu672 2.600 . S
N701 C702 1.365 . S
N701 C705 1.319 . S
C702 N701 1.365 . S
C702 C704 1.405 . S
C702 C710 1.448 . S
C703 H698 0.931 . S
C703 C705 1.397 . S
C703 C706 1.367 . S
C704 C702 1.405 . S
C704 C706 1.403 . S
C704 C737 1.439 . S
C705 H690 0.930 . S
C705 N701 1.319 . S
C705 C703 1.397 . S
C706 C703 1.367 . S
C706 C704 1.403 . S
C706 H713 0.929 . S
N707 Eu672 2.562 . S
N707 C708 1.325 . S
N707 C710 1.351 . S
C708 H694 0.929 . S
C708 N707 1.325 . S
C708 C712 1.416 . S
C709 C710 1.430 . S
C709 C711 1.404 . S
C709 C738 1.387 . S
C710 C702 1.448 . S
C710 N707 1.351 . S
C710 C709 1.430 . S
C711 H700 0.930 . S
C711 C709 1.404 . S
C711 C712 1.366 . S
C712 H691 0.930 . S
C712 C708 1.416 . S
C712 C711 1.366 . S
H713 C706 0.929 . S
H714 C737 0.931 . S
H715 C738 0.931 . S
O716 Eu672 2.462 . S
O716 C736 1.252 . S
O717 Eu672 2.373 . S
O717 C728 1.249 . S
O718 Eu683 2.335 . S
O718 C728 1.264 . S
O719 Eu672 2.432 . S
O719 C736 1.268 . S
O720 Eu672 2.291 . S
O720 C735 1.255 . S
O721 Eu683 2.372 . S
O721 C735 1.257 . S
O722 Eu683 2.462 . S
O722 C747 1.252 . S
O723 Eu683 2.373 . S
O723 C739 1.249 . S
O724 Eu672 2.335 . S
O724 C739 1.264 . S
O725 Eu683 2.432 . S
O725 C747 1.268 . S
O726 Eu683 2.291 . S
O726 C746 1.255 . S
O727 Eu672 2.372 . S
O727 C746 1.257 . S
C728 O717 1.249 . S
C728 O718 1.264 . S
C729 C732 1.382 . S
C729 C734 1.390 . S
C729 C736 1.506 . S
C730 C731 1.398 . S
C730 C734 1.392 . S
C731 C730 1.398 . S
C731 C733 1.372 . S
C731 H748 0.931 . S
C732 C729 1.382 . S
C732 C733 1.390 . S
C732 H749 0.931 . S
C733 C731 1.372 . S
C733 C732 1.390 . S
C733 H750 0.929 . S
C734 C729 1.390 . S
C734 C730 1.392 . S
C734 H751 0.930 . S
C735 O720 1.255 . S
C735 O721 1.257 . S
C736 Eu672 2.787 . S
C736 O716 1.252 . S
C736 O719 1.268 . S
C736 C729 1.506 . S
C737 C704 1.439 . S
C737 H714 0.931 . S
C737 C738 1.374 . S
C738 C709 1.387 . S
C738 H715 0.931 . S
C738 C737 1.374 . S
C739 O723 1.249 . S
C739 O724 1.264 . S
C740 C743 1.382 . S
C740 C744 1.390 . S
C740 C747 1.506 . S
C741 C742 1.398 . S
C741 C744 1.392 . S
C742 C741 1.398 . S
C742 C745 1.372 . S
C742 H752 0.931 . S
C743 C740 1.382 . S
C743 C745 1.390 . S
C743 H753 0.931 . S
C744 C740 1.390 . S
C744 C741 1.392 . S
C744 H754 0.930 . S
C745 C742 1.372 . S
C745 C743 1.390 . S
C745 H755 0.929 . S
C746 O726 1.255 . S
C746 O727 1.257 . S
C747 Eu683 2.787 . S
C747 O722 1.252 . S
C747 O725 1.268 . S
C747 C740 1.506 . S
H748 C731 0.931 . S
H749 C732 0.931 . S
H750 C733 0.929 . S
H751 C734 0.930 . S
H752 C742 0.931 . S
H753 C743 0.931 . S
H754 C744 0.930 . S
H755 C745 0.929 . S
Eu756 N785 2.600 1_655 S
Eu756 N791 2.562 . S
Eu756 O800 2.462 . S
Eu756 O801 2.373 1_655 S
Eu756 O803 2.432 1_556 S
Eu756 O804 2.291 . S
Eu756 O808 2.335 . S
Eu756 O811 2.372 1_655 S
Eu756 C820 2.787 1_556 S
C757 N758 1.365 . S
C757 C760 1.405 . S
C757 C764 1.448 . S
N758 C757 1.365 . S
N758 C761 1.319 . S
N758 Eu767 2.600 1_655 S
C759 C761 1.397 . S
C759 C762 1.367 . S
C759 H779 0.931 . S
C760 C757 1.405 . S
C760 C762 1.403 . S
C760 C766 1.439 . S
C761 N758 1.319 . S
C761 C759 1.397 . S
C761 H772 0.930 . S
C762 C759 1.367 . S
C762 C760 1.403 . S
C762 H783 0.929 . S
C763 C764 1.430 . S
C763 C765 1.387 . S
C763 C769 1.404 1_655 S
C764 C757 1.448 . S
C764 C763 1.430 . S
C764 N768 1.351 1_655 S
C765 C763 1.387 . S
C765 C766 1.374 . S
C765 H780 0.931 . S
C766 C760 1.439 . S
C766 C765 1.374 . S
C766 H781 0.931 . S
Eu767 N758 2.600 1_455 S
Eu767 N768 2.562 . S
Eu767 O802 2.335 . S
Eu767 O805 2.372 1_455 S
Eu767 O806 2.462 . S
Eu767 O807 2.373 1_455 S
Eu767 O809 2.432 . S
Eu767 O810 2.291 . S
Eu767 C831 2.787 . S
N768 C764 1.351 1_455 S
N768 Eu767 2.562 . S
N768 C770 1.325 . S
C769 C763 1.404 1_455 S
C769 C771 1.366 . S
C769 H777 0.930 . S
C770 N768 1.325 . S
C770 C771 1.416 . S
C770 H776 0.929 . S
C771 C769 1.366 . S
C771 C770 1.416 . S
C771 H773 0.930 . S
H772 C761 0.930 . S
H773 C771 0.930 . S
H774 C789 0.930 . S
H775 C796 0.930 . S
H776 C770 0.929 . S
H777 C769 0.930 . S
H778 C792 0.929 . S
H779 C759 0.931 . S
H780 C765 0.931 . S
H781 C766 0.931 . S
H782 C787 0.931 . S
H783 C762 0.929 . S
H784 C795 0.930 . S
N785 Eu756 2.600 1_455 S
N785 C786 1.365 . S
N785 C789 1.319 1_556 S
C786 N785 1.365 . S
C786 C788 1.405 . S
C786 C794 1.448 . S
C787 H782 0.931 . S
C787 C789 1.397 . S
C787 C790 1.367 . S
C788 C786 1.405 . S
C788 C790 1.403 1_556 S
C788 C821 1.439 . S
C789 H774 0.930 . S
C789 N785 1.319 1_554 S
C789 C787 1.397 . S
C790 C787 1.367 . S
C790 C788 1.403 1_554 S
C790 H797 0.929 . S
N791 Eu756 2.562 . S
N791 C792 1.325 . S
N791 C794 1.351 1_655 S
C792 H778 0.929 . S
C792 N791 1.325 . S
C792 C796 1.416 . S
C793 C794 1.430 . S
C793 C795 1.404 1_455 S
C793 C822 1.387 . S
C794 C786 1.448 . S
C794 N791 1.351 1_455 S
C794 C793 1.430 . S
C795 H784 0.930 . S
C795 C793 1.404 1_655 S
C795 C796 1.366 . S
C796 H775 0.930 . S
C796 C792 1.416 . S
C796 C795 1.366 . S
H797 C790 0.929 . S
H798 C821 0.931 . S
H799 C822 0.931 . S
O800 Eu756 2.462 . S
O800 C820 1.252 1_556 S
O801 Eu756 2.373 1_455 S
O801 C812 1.249 . S
O802 Eu767 2.335 . S
O802 C812 1.264 . S
O803 Eu756 2.432 1_554 S
O803 C820 1.268 . S
O804 Eu756 2.291 . S
O804 C819 1.255 . S
O805 Eu767 2.372 1_655 S
O805 C819 1.257 . S
O806 Eu767 2.462 . S
O806 C831 1.252 . S
O807 Eu767 2.373 1_655 S
O807 C823 1.249 . S
O808 Eu756 2.335 . S
O808 C823 1.264 . S
O809 Eu767 2.432 . S
O809 C831 1.268 . S
O810 Eu767 2.291 . S
O810 C830 1.255 . S
O811 Eu756 2.372 1_455 S
O811 C830 1.257 . S
C812 O801 1.249 . S
C812 O802 1.264 . S
C813 C816 1.382 . S
C813 C818 1.390 . S
C813 C820 1.506 . S
C814 C815 1.398 . S
C814 C818 1.392 . S
C815 C814 1.398 . S
C815 C817 1.372 . S
C815 H832 0.931 . S
C816 C813 1.382 . S
C816 C817 1.390 . S
C816 H833 0.931 . S
C817 C815 1.372 . S
C817 C816 1.390 . S
C817 H834 0.929 . S
C818 C813 1.390 . S
C818 C814 1.392 . S
C818 H835 0.930 . S
C819 O804 1.255 . S
C819 O805 1.257 . S
C820 Eu756 2.787 1_554 S
C820 O800 1.252 1_554 S
C820 O803 1.268 . S
C820 C813 1.506 . S
C821 C788 1.439 . S
C821 H798 0.931 . S
C821 C822 1.374 . S
C822 C793 1.387 . S
C822 H799 0.931 . S
C822 C821 1.374 . S
C823 O807 1.249 . S
C823 O808 1.264 . S
C824 C827 1.382 . S
C824 C828 1.390 . S
C824 C831 1.506 . S
C825 C826 1.398 . S
C825 C828 1.392 . S
C826 C825 1.398 . S
C826 C829 1.372 . S
C826 H836 0.931 . S
C827 C824 1.382 . S
C827 C829 1.390 . S
C827 H837 0.931 . S
C828 C824 1.390 . S
C828 C825 1.392 . S
C828 H838 0.930 . S
C829 C826 1.372 . S
C829 C827 1.390 . S
C829 H839 0.929 . S
C830 O810 1.255 . S
C830 O811 1.257 . S
C831 Eu767 2.787 . S
C831 O806 1.252 . S
C831 O809 1.268 . S
C831 C824 1.506 . S
H832 C815 0.931 . S
H833 C816 0.931 . S
H834 C817 0.929 . S
H835 C818 0.930 . S
H836 C826 0.931 . S
H837 C827 0.931 . S
H838 C828 0.930 . S
H839 C829 0.929 . S
Eu840 N869 2.600 1_565 S
Eu840 N875 2.562 . S
Eu840 O884 2.462 . S
Eu840 O885 2.373 1_565 S
Eu840 O887 2.432 . S
Eu840 O888 2.291 . S
Eu840 O892 2.335 . S
Eu840 O895 2.372 1_565 S
Eu840 C904 2.787 . S
C841 N842 1.365 . S
C841 C844 1.405 . S
C841 C848 1.448 . S
N842 C841 1.365 . S
N842 C845 1.319 . S
N842 Eu851 2.600 1_565 S
C843 C845 1.397 . S
C843 C846 1.367 . S
C843 H863 0.931 . S
C844 C841 1.405 . S
C844 C846 1.403 . S
C844 C850 1.439 . S
C845 N842 1.319 . S
C845 C843 1.397 . S
C845 H856 0.930 . S
C846 C843 1.367 . S
C846 C844 1.403 . S
C846 H867 0.929 . S
C847 C848 1.430 . S
C847 C849 1.387 . S
C847 C853 1.404 1_565 S
C848 C841 1.448 . S
C848 C847 1.430 . S
C848 N852 1.351 1_565 S
C849 C847 1.387 . S
C849 C850 1.374 . S
C849 H864 0.931 . S
C850 C844 1.439 . S
C850 C849 1.374 . S
C850 H865 0.931 . S
Eu851 N842 2.600 1_545 S
Eu851 N852 2.562 . S
Eu851 O886 2.335 . S
Eu851 O889 2.372 1_545 S
Eu851 O890 2.462 . S
Eu851 O891 2.373 1_545 S
Eu851 O893 2.432 . S
Eu851 O894 2.291 . S
Eu851 C915 2.787 . S
N852 C848 1.351 1_545 S
N852 Eu851 2.562 . S
N852 C854 1.325 . S
C853 C847 1.404 1_545 S
C853 C855 1.366 . S
C853 H861 0.930 . S
C854 N852 1.325 . S
C854 C855 1.416 . S
C854 H860 0.929 . S
C855 C853 1.366 . S
C855 C854 1.416 . S
C855 H857 0.930 . S
H856 C845 0.930 . S
H857 C855 0.930 . S
H858 C873 0.930 . S
H859 C880 0.930 . S
H860 C854 0.929 . S
H861 C853 0.930 . S
H862 C876 0.929 . S
H863 C843 0.931 . S
H864 C849 0.931 . S
H865 C850 0.931 . S
H866 C871 0.931 . S
H867 C846 0.929 . S
H868 C879 0.930 . S
N869 Eu840 2.600 1_545 S
N869 C870 1.365 . S
N869 C873 1.319 . S
C870 N869 1.365 . S
C870 C872 1.405 . S
C870 C878 1.448 . S
C871 H866 0.931 . S
C871 C873 1.397 . S
C871 C874 1.367 . S
C872 C870 1.405 . S
C872 C874 1.403 . S
C872 C905 1.439 . S
C873 H858 0.930 . S
C873 N869 1.319 . S
C873 C871 1.397 . S
C874 C871 1.367 . S
C874 C872 1.403 . S
C874 H881 0.929 . S
N875 Eu840 2.562 . S
N875 C876 1.325 . S
N875 C878 1.351 1_565 S
C876 H862 0.929 . S
C876 N875 1.325 . S
C876 C880 1.416 . S
C877 C878 1.430 . S
C877 C879 1.404 1_545 S
C877 C906 1.387 . S
C878 C870 1.448 . S
C878 N875 1.351 1_545 S
C878 C877 1.430 . S
C879 H868 0.930 . S
C879 C877 1.404 1_565 S
C879 C880 1.366 . S
C880 H859 0.930 . S
C880 C876 1.416 . S
C880 C879 1.366 . S
H881 C874 0.929 . S
H882 C905 0.931 . S
H883 C906 0.931 . S
O884 Eu840 2.462 . S
O884 C904 1.252 . S
O885 Eu840 2.373 1_545 S
O885 C896 1.249 . S
O886 Eu851 2.335 . S
O886 C896 1.264 . S
O887 Eu840 2.432 . S
O887 C904 1.268 . S
O888 Eu840 2.291 . S
O888 C903 1.255 . S
O889 Eu851 2.372 1_565 S
O889 C903 1.257 . S
O890 Eu851 2.462 . S
O890 C915 1.252 . S
O891 Eu851 2.373 1_565 S
O891 C907 1.249 . S
O892 Eu840 2.335 . S
O892 C907 1.264 . S
O893 Eu851 2.432 . S
O893 C915 1.268 . S
O894 Eu851 2.291 . S
O894 C914 1.255 . S
O895 Eu840 2.372 1_545 S
O895 C914 1.257 . S
C896 O885 1.249 . S
C896 O886 1.264 . S
C897 C900 1.382 . S
C897 C902 1.390 . S
C897 C904 1.506 . S
C898 C899 1.398 . S
C898 C902 1.392 . S
C899 C898 1.398 . S
C899 C901 1.372 . S
C899 H916 0.931 . S
C900 C897 1.382 . S
C900 C901 1.390 . S
C900 H917 0.931 . S
C901 C899 1.372 . S
C901 C900 1.390 . S
C901 H918 0.929 . S
C902 C897 1.390 . S
C902 C898 1.392 . S
C902 H919 0.930 . S
C903 O888 1.255 . S
C903 O889 1.257 . S
C904 Eu840 2.787 . S
C904 O884 1.252 . S
C904 O887 1.268 . S
C904 C897 1.506 . S
C905 C872 1.439 . S
C905 H882 0.931 . S
C905 C906 1.374 . S
C906 C877 1.387 . S
C906 H883 0.931 . S
C906 C905 1.374 . S
C907 O891 1.249 . S
C907 O892 1.264 . S
C908 C911 1.382 . S
C908 C912 1.390 . S
C908 C915 1.506 . S
C909 C910 1.398 . S
C909 C912 1.392 . S
C910 C909 1.398 . S
C910 C913 1.372 . S
C910 H920 0.931 . S
C911 C908 1.382 . S
C911 C913 1.390 . S
C911 H921 0.931 . S
C912 C908 1.390 . S
C912 C909 1.392 . S
C912 H922 0.930 . S
C913 C910 1.372 . S
C913 C911 1.390 . S
C913 H923 0.929 . S
C914 O894 1.255 . S
C914 O895 1.257 . S
C915 Eu851 2.787 . S
C915 O890 1.252 . S
C915 O893 1.268 . S
C915 C908 1.506 . S
H916 C899 0.931 . S
H917 C900 0.931 . S
H918 C901 0.929 . S
H919 C902 0.930 . S
H920 C910 0.931 . S
H921 C911 0.931 . S
H922 C912 0.930 . S
H923 C913 0.929 . S
Eu924 N953 2.600 . S
Eu924 N959 2.562 . S
Eu924 O968 2.462 . S
Eu924 O969 2.373 . S
Eu924 O971 2.432 . S
Eu924 O972 2.291 . S
Eu924 O976 2.335 . S
Eu924 O979 2.372 . S
Eu924 C988 2.787 . S
C925 N926 1.365 . S
C925 C928 1.405 . S
C925 C932 1.448 . S
N926 C925 1.365 . S
N926 C929 1.319 . S
N926 Eu935 2.600 . S
C927 C929 1.397 . S
C927 C930 1.367 . S
C927 H947 0.931 . S
C928 C925 1.405 . S
C928 C930 1.403 . S
C928 C934 1.439 . S
C929 N926 1.319 . S
C929 C927 1.397 . S
C929 H940 0.930 . S
C930 C927 1.367 . S
C930 C928 1.403 . S
C930 H951 0.929 . S
C931 C932 1.430 . S
C931 C933 1.387 . S
C931 C937 1.404 . S
C932 C925 1.448 . S
C932 C931 1.430 . S
C932 N936 1.351 . S
C933 C931 1.387 . S
C933 C934 1.374 . S
C933 H948 0.931 . S
C934 C928 1.439 . S
C934 C933 1.374 . S
C934 H949 0.931 . S
Eu935 N926 2.600 . S
Eu935 N936 2.562 . S
Eu935 O970 2.335 . S
Eu935 O973 2.372 . S
Eu935 O974 2.462 . S
Eu935 O975 2.373 . S
Eu935 O977 2.432 . S
Eu935 O978 2.291 . S
Eu935 C999 2.787 . S
N936 C932 1.351 . S
N936 Eu935 2.562 . S
N936 C938 1.325 . S
C937 C931 1.404 . S
C937 C939 1.366 . S
C937 H945 0.930 . S
C938 N936 1.325 . S
C938 C939 1.416 . S
C938 H944 0.929 . S
C939 C937 1.366 . S
C939 C938 1.416 . S
C939 H941 0.930 . S
H940 C929 0.930 . S
H941 C939 0.930 . S
H942 C957 0.930 . S
H943 C964 0.930 . S
H944 C938 0.929 . S
H945 C937 0.930 . S
H946 C960 0.929 . S
H947 C927 0.931 . S
H948 C933 0.931 . S
H949 C934 0.931 . S
H950 C955 0.931 . S
H951 C930 0.929 . S
H952 C963 0.930 . S
N953 Eu924 2.600 . S
N953 C954 1.365 . S
N953 C957 1.319 . S
C954 N953 1.365 . S
C954 C956 1.405 . S
C954 C962 1.448 . S
C955 H950 0.931 . S
C955 C957 1.397 . S
C955 C958 1.367 . S
C956 C954 1.405 . S
C956 C958 1.403 . S
C956 C989 1.439 . S
C957 H942 0.930 . S
C957 N953 1.319 . S
C957 C955 1.397 . S
C958 C955 1.367 . S
C958 C956 1.403 . S
C958 H965 0.929 . S
N959 Eu924 2.562 . S
N959 C960 1.325 . S
N959 C962 1.351 . S
C960 H946 0.929 . S
C960 N959 1.325 . S
C960 C964 1.416 . S
C961 C962 1.430 . S
C961 C963 1.404 . S
C961 C990 1.387 . S
C962 C954 1.448 . S
C962 N959 1.351 . S
C962 C961 1.430 . S
C963 H952 0.930 . S
C963 C961 1.404 . S
C963 C964 1.366 . S
C964 H943 0.930 . S
C964 C960 1.416 . S
C964 C963 1.366 . S
H965 C958 0.929 . S
H966 C989 0.931 . S
H967 C990 0.931 . S
O968 Eu924 2.462 . S
O968 C988 1.252 . S
O969 Eu924 2.373 . S
O969 C980 1.249 . S
O970 Eu935 2.335 . S
O970 C980 1.264 . S
O971 Eu924 2.432 . S
O971 C988 1.268 . S
O972 Eu924 2.291 . S
O972 C987 1.255 . S
O973 Eu935 2.372 . S
O973 C987 1.257 . S
O974 Eu935 2.462 . S
O974 C999 1.252 . S
O975 Eu935 2.373 . S
O975 C991 1.249 . S
O976 Eu924 2.335 . S
O976 C991 1.264 . S
O977 Eu935 2.432 . S
O977 C999 1.268 . S
O978 Eu935 2.291 . S
O978 C998 1.255 . S
O979 Eu924 2.372 . S
O979 C998 1.257 . S
C980 O969 1.249 . S
C980 O970 1.264 . S
C981 C984 1.382 . S
C981 C986 1.390 . S
C981 C988 1.506 . S
C982 C983 1.398 . S
C982 C986 1.392 . S
C983 C982 1.398 . S
C983 C985 1.372 . S
C983 H1000 0.931 . S
C984 C981 1.382 . S
C984 C985 1.390 . S
C984 H1001 0.931 . S
C985 C983 1.372 . S
C985 C984 1.390 . S
C985 H1002 0.929 . S
C986 C981 1.390 . S
C986 C982 1.392 . S
C986 H1003 0.930 . S
C987 O972 1.255 . S
C987 O973 1.257 . S
C988 Eu924 2.787 . S
C988 O968 1.252 . S
C988 O971 1.268 . S
C988 C981 1.506 . S
C989 C956 1.439 . S
C989 H966 0.931 . S
C989 C990 1.374 . S
C990 C961 1.387 . S
C990 H967 0.931 . S
C990 C989 1.374 . S
C991 O975 1.249 . S
C991 O976 1.264 . S
C992 C995 1.382 . S
C992 C996 1.390 . S
C992 C999 1.506 . S
C993 C994 1.398 . S
C993 C996 1.392 . S
C994 C993 1.398 . S
C994 C997 1.372 . S
C994 H1004 0.931 . S
C995 C992 1.382 . S
C995 C997 1.390 . S
C995 H1005 0.931 . S
C996 C992 1.390 . S
C996 C993 1.392 . S
C996 H1006 0.930 . S
C997 C994 1.372 . S
C997 C995 1.390 . S
C997 H1007 0.929 . S
C998 O978 1.255 . S
C998 O979 1.257 . S
C999 Eu935 2.787 . S
C999 O974 1.252 . S
C999 O977 1.268 . S
C999 C992 1.506 . S
H1000 C983 0.931 . S
H1001 C984 0.931 . S
H1002 C985 0.929 . S
H1003 C986 0.930 . S
H1004 C994 0.931 . S
H1005 C995 0.931 . S
H1006 C996 0.930 . S
H1007 C997 0.929 . S
H1008 C1014 0.930 . S
H1009 C1017 0.930 . S
H1010 C1018 0.930 . S
H1011 C1019 0.930 . S
H1012 C1022 0.930 . S
H1013 C1023 0.930 . S
C1014 H1008 0.930 . S
C1014 C1015 1.355 . S
C1014 C1016 1.415 . S
C1015 C1014 1.355 . S
C1015 C1017 1.419 . S
C1016 C1014 1.415 . S
C1016 C1021 1.425 . S
C1016 C1023 1.409 . S
C1017 H1009 0.930 . S
C1017 C1015 1.419 . S
C1017 C1018 1.362 . S
C1018 H1010 0.930 . S
C1018 C1017 1.362 . S
C1018 C1021 1.409 . S
C1019 H1011 0.930 . S
C1019 C1020 1.355 . S
C1019 C1021 1.415 . S
C1020 C1019 1.355 . S
C1020 C1022 1.419 . S
C1021 C1016 1.425 . S
C1021 C1018 1.409 . S
C1021 C1019 1.415 . S
C1022 H1012 0.930 . S
C1022 C1020 1.419 . S
C1022 C1023 1.362 . S
C1023 H1013 0.930 . S
C1023 C1016 1.409 . S
C1023 C1022 1.362 . S
H1024 C1030 0.930 . S
H1025 C1033 0.930 . S
H1026 C1034 0.930 1_565 S
H1027 C1035 0.930 . S
H1028 C1038 0.930 . S
H1029 C1039 0.930 . S
C1030 H1024 0.930 . S
C1030 C1031 1.355 . S
C1030 C1032 1.415 . S
C1031 C1030 1.355 . S
C1031 C1033 1.419 . S
C1032 C1030 1.415 . S
C1032 C1037 1.425 . S
C1032 C1039 1.409 . S
C1033 H1025 0.930 . S
C1033 C1031 1.419 . S
C1033 C1034 1.362 . S
C1034 H1026 0.930 1_545 S
C1034 C1033 1.362 . S
C1034 C1037 1.409 . S
C1035 H1027 0.930 . S
C1035 C1036 1.355 . S
C1035 C1037 1.415 . S
C1036 C1035 1.355 . S
C1036 C1038 1.419 . S
C1037 C1032 1.425 . S
C1037 C1034 1.409 . S
C1037 C1035 1.415 . S
C1038 H1028 0.930 . S
C1038 C1036 1.419 . S
C1038 C1039 1.362 . S
C1039 H1029 0.930 . S
C1039 C1032 1.409 . S
C1039 C1038 1.362 . S
H1040 C1046 0.930 . S
H1041 C1049 0.930 . S
H1042 C1050 0.930 . S
H1043 C1051 0.930 . S
H1044 C1054 0.930 . S
H1045 C1055 0.930 . S
C1046 H1040 0.930 . S
C1046 C1047 1.355 . S
C1046 C1048 1.415 . S
C1047 C1046 1.355 . S
C1047 C1049 1.419 . S
C1048 C1046 1.415 . S
C1048 C1053 1.425 . S
C1048 C1055 1.409 . S
C1049 H1041 0.930 . S
C1049 C1047 1.419 . S
C1049 C1050 1.362 . S
C1050 H1042 0.930 . S
C1050 C1049 1.362 . S
C1050 C1053 1.409 . S
C1051 H1043 0.930 . S
C1051 C1052 1.355 . S
C1051 C1053 1.415 . S
C1052 C1051 1.355 . S
C1052 C1054 1.419 . S
C1053 C1048 1.425 . S
C1053 C1050 1.409 . S
C1053 C1051 1.415 . S
C1054 H1044 0.930 . S
C1054 C1052 1.419 . S
C1054 C1055 1.362 . S
C1055 H1045 0.930 . S
C1055 C1048 1.409 . S
C1055 C1054 1.362 . S
H1056 C1062 0.930 . S
H1057 C1065 0.930 . S
H1058 C1066 0.930 . S
H1059 C1067 0.930 . S
H1060 C1070 0.930 . S
H1061 C1071 0.930 . S
C1062 H1056 0.930 . S
C1062 C1063 1.355 . S
C1062 C1064 1.415 . S
C1063 C1062 1.355 . S
C1063 C1065 1.419 . S
C1064 C1062 1.415 . S
C1064 C1069 1.425 . S
C1064 C1071 1.409 . S
C1065 H1057 0.930 . S
C1065 C1063 1.419 . S
C1065 C1066 1.362 . S
C1066 H1058 0.930 . S
C1066 C1065 1.362 . S
C1066 C1069 1.409 . S
C1067 H1059 0.930 . S
C1067 C1068 1.355 . S
C1067 C1069 1.415 . S
C1068 C1067 1.355 . S
C1068 C1070 1.419 . S
C1069 C1064 1.425 . S
C1069 C1066 1.409 . S
C1069 C1067 1.415 . S
C1070 H1060 0.930 . S
C1070 C1068 1.419 . S
C1070 C1071 1.362 . S
C1071 H1061 0.930 . S
C1071 C1064 1.409 . S
C1071 C1070 1.362 . S
H1072 C1078 0.930 . S
H1073 C1081 0.930 . S
H1074 C1082 0.930 . S
H1075 C1083 0.930 . S
H1076 C1086 0.930 . S
H1077 C1087 0.930 . S
C1078 H1072 0.930 . S
C1078 C1079 1.355 . S
C1078 C1080 1.415 . S
C1079 C1078 1.355 . S
C1079 C1081 1.419 . S
C1080 C1078 1.415 . S
C1080 C1085 1.425 . S
C1080 C1087 1.409 . S
C1081 H1073 0.930 . S
C1081 C1079 1.419 . S
C1081 C1082 1.362 . S
C1082 H1074 0.930 . S
C1082 C1081 1.362 . S
C1082 C1085 1.409 . S
C1083 H1075 0.930 . S
C1083 C1084 1.355 . S
C1083 C1085 1.415 . S
C1084 C1083 1.355 . S
C1084 C1086 1.419 . S
C1085 C1080 1.425 . S
C1085 C1082 1.409 . S
C1085 C1083 1.415 . S
C1086 H1076 0.930 . S
C1086 C1084 1.419 . S
C1086 C1087 1.362 . S
C1087 H1077 0.930 . S
C1087 C1080 1.409 . S
C1087 C1086 1.362 . S
H1088 C1094 0.930 . S
H1089 C1097 0.930 . S
H1090 C1098 0.930 . S
H1091 C1099 0.930 . S
H1092 C1102 0.930 . S
H1093 C1103 0.930 . S
C1094 H1088 0.930 . S
C1094 C1095 1.355 . S
C1094 C1096 1.415 . S
C1095 C1094 1.355 . S
C1095 C1097 1.419 . S
C1096 C1094 1.415 . S
C1096 C1101 1.425 . S
C1096 C1103 1.409 . S
C1097 H1089 0.930 . S
C1097 C1095 1.419 . S
C1097 C1098 1.362 . S
C1098 H1090 0.930 . S
C1098 C1097 1.362 . S
C1098 C1101 1.409 . S
C1099 H1091 0.930 . S
C1099 C1100 1.355 . S
C1099 C1101 1.415 . S
C1100 C1099 1.355 . S
C1100 C1102 1.419 . S
C1101 C1096 1.425 . S
C1101 C1098 1.409 . S
C1101 C1099 1.415 . S
C1102 H1092 0.930 . S
C1102 C1100 1.419 . S
C1102 C1103 1.362 . S
C1103 H1093 0.930 . S
C1103 C1096 1.409 . S
C1103 C1102 1.362 . S
H1104 C1110 0.930 . S
H1105 C1113 0.930 . S
H1106 C1114 0.930 . S
H1107 C1115 0.930 . S
H1108 C1118 0.930 . S
H1109 C1119 0.930 . S
C1110 H1104 0.930 . S
C1110 C1111 1.355 . S
C1110 C1112 1.415 . S
C1111 C1110 1.355 . S
C1111 C1113 1.419 . S
C1112 C1110 1.415 . S
C1112 C1117 1.425 . S
C1112 C1119 1.409 . S
C1113 H1105 0.930 . S
C1113 C1111 1.419 . S
C1113 C1114 1.362 . S
C1114 H1106 0.930 . S
C1114 C1113 1.362 . S
C1114 C1117 1.409 . S
C1115 H1107 0.930 . S
C1115 C1116 1.355 . S
C1115 C1117 1.415 . S
C1116 C1115 1.355 . S
C1116 C1118 1.419 . S
C1117 C1112 1.425 . S
C1117 C1114 1.409 . S
C1117 C1115 1.415 . S
C1118 H1108 0.930 . S
C1118 C1116 1.419 . S
C1118 C1119 1.362 . S
C1119 H1109 0.930 . S
C1119 C1112 1.409 . S
C1119 C1118 1.362 . S
H1120 C1126 0.930 . S
H1121 C1129 0.930 . S
H1122 C1130 0.930 . S
H1123 C1131 0.930 . S
H1124 C1134 0.930 . S
H1125 C1135 0.930 . S
C1126 H1120 0.930 . S
C1126 C1127 1.355 . S
C1126 C1128 1.415 . S
C1127 C1126 1.355 . S
C1127 C1129 1.419 . S
C1128 C1126 1.415 . S
C1128 C1133 1.425 . S
C1128 C1135 1.409 . S
C1129 H1121 0.930 . S
C1129 C1127 1.419 . S
C1129 C1130 1.362 . S
C1130 H1122 0.930 . S
C1130 C1129 1.362 . S
C1130 C1133 1.409 . S
C1131 H1123 0.930 . S
C1131 C1132 1.355 . S
C1131 C1133 1.415 . S
C1132 C1131 1.355 . S
C1132 C1134 1.419 . S
C1133 C1128 1.425 . S
C1133 C1130 1.409 . S
C1133 C1131 1.415 . S
C1134 H1124 0.930 . S
C1134 C1132 1.419 . S
C1134 C1135 1.362 . S
C1135 H1125 0.930 . S
C1135 C1128 1.409 . S
C1135 C1134 1.362 . S
H1136 C1142 0.930 . S
H1137 C1145 0.930 . S
H1138 C1146 0.930 . S
H1139 C1147 0.930 . S
H1140 C1150 0.930 . S
H1141 C1151 0.930 . S
C1142 H1136 0.930 . S
C1142 C1143 1.355 . S
C1142 C1144 1.415 . S
C1143 C1142 1.355 . S
C1143 C1145 1.419 . S
C1144 C1142 1.415 . S
C1144 C1149 1.425 . S
C1144 C1151 1.409 . S
C1145 H1137 0.930 . S
C1145 C1143 1.419 . S
C1145 C1146 1.362 . S
C1146 H1138 0.930 . S
C1146 C1145 1.362 . S
C1146 C1149 1.409 . S
C1147 H1139 0.930 . S
C1147 C1148 1.355 . S
C1147 C1149 1.415 . S
C1148 C1147 1.355 . S
C1148 C1150 1.419 . S
C1149 C1144 1.425 . S
C1149 C1146 1.409 . S
C1149 C1147 1.415 . S
C1150 H1140 0.930 . S
C1150 C1148 1.419 . S
C1150 C1151 1.362 . S
C1151 H1141 0.930 . S
C1151 C1144 1.409 . S
C1151 C1150 1.362 . S
H1152 C1158 0.930 . S
H1153 C1161 0.930 . S
H1154 C1162 0.930 . S
H1155 C1163 0.930 . S
H1156 C1166 0.930 . S
H1157 C1167 0.930 . S
C1158 H1152 0.930 . S
C1158 C1159 1.355 . S
C1158 C1160 1.415 . S
C1159 C1158 1.355 . S
C1159 C1161 1.419 . S
C1160 C1158 1.415 . S
C1160 C1165 1.425 . S
C1160 C1167 1.409 . S
C1161 H1153 0.930 . S
C1161 C1159 1.419 . S
C1161 C1162 1.362 . S
C1162 H1154 0.930 . S
C1162 C1161 1.362 . S
C1162 C1165 1.409 . S
C1163 H1155 0.930 . S
C1163 C1164 1.355 . S
C1163 C1165 1.415 . S
C1164 C1163 1.355 . S
C1164 C1166 1.419 . S
C1165 C1160 1.425 . S
C1165 C1162 1.409 . S
C1165 C1163 1.415 . S
C1166 H1156 0.930 . S
C1166 C1164 1.419 . S
C1166 C1167 1.362 . S
C1167 H1157 0.930 . S
C1167 C1160 1.409 . S
C1167 C1166 1.362 . S
H1168 C1174 0.930 . S
H1169 C1177 0.930 . S
H1170 C1178 0.930 . S
H1171 C1179 0.930 . S
H1172 C1182 0.930 . S
H1173 C1183 0.930 . S
C1174 H1168 0.930 . S
C1174 C1175 1.355 . S
C1174 C1176 1.415 . S
C1175 C1174 1.355 . S
C1175 C1177 1.419 . S
C1176 C1174 1.415 . S
C1176 C1181 1.425 . S
C1176 C1183 1.409 . S
C1177 H1169 0.930 . S
C1177 C1175 1.419 . S
C1177 C1178 1.362 . S
C1178 H1170 0.930 . S
C1178 C1177 1.362 . S
C1178 C1181 1.409 . S
C1179 H1171 0.930 . S
C1179 C1180 1.355 . S
C1179 C1181 1.415 . S
C1180 C1179 1.355 . S
C1180 C1182 1.419 . S
C1181 C1176 1.425 . S
C1181 C1178 1.409 . S
C1181 C1179 1.415 . S
C1182 H1172 0.930 . S
C1182 C1180 1.419 . S
C1182 C1183 1.362 . S
C1183 H1173 0.930 . S
C1183 C1176 1.409 . S
C1183 C1182 1.362 . S
H1184 C1190 0.930 . S
H1185 C1193 0.930 . S
H1186 C1194 0.930 . S
H1187 C1195 0.930 . S
H1188 C1198 0.930 . S
H1189 C1199 0.930 . S
C1190 H1184 0.930 . S
C1190 C1191 1.355 . S
C1190 C1192 1.415 . S
C1191 C1190 1.355 . S
C1191 C1193 1.419 . S
C1192 C1190 1.415 . S
C1192 C1197 1.425 . S
C1192 C1199 1.409 . S
C1193 H1185 0.930 . S
C1193 C1191 1.419 . S
C1193 C1194 1.362 . S
C1194 H1186 0.930 . S
C1194 C1193 1.362 . S
C1194 C1197 1.409 . S
C1195 H1187 0.930 . S
C1195 C1196 1.355 . S
C1195 C1197 1.415 . S
C1196 C1195 1.355 . S
C1196 C1198 1.419 . S
C1197 C1192 1.425 . S
C1197 C1194 1.409 . S
C1197 C1195 1.415 . S
C1198 H1188 0.930 . S
C1198 C1196 1.419 . S
C1198 C1199 1.362 . S
C1199 H1189 0.930 . S
C1199 C1192 1.409 . S
C1199 C1198 1.362 . S
H1200 C1206 0.930 . S
H1201 C1209 0.930 . S
H1202 C1210 0.930 . S
H1203 C1211 0.930 . S
H1204 C1214 0.930 . S
H1205 C1215 0.930 . S
C1206 H1200 0.930 . S
C1206 C1207 1.355 . S
C1206 C1208 1.415 . S
C1207 C1206 1.355 . S
C1207 C1209 1.419 . S
C1208 C1206 1.415 . S
C1208 C1213 1.425 . S
C1208 C1215 1.409 . S
C1209 H1201 0.930 . S
C1209 C1207 1.419 . S
C1209 C1210 1.362 . S
C1210 H1202 0.930 . S
C1210 C1209 1.362 . S
C1210 C1213 1.409 . S
C1211 H1203 0.930 . S
C1211 C1212 1.355 . S
C1211 C1213 1.415 . S
C1212 C1211 1.355 . S
C1212 C1214 1.419 . S
C1213 C1208 1.425 . S
C1213 C1210 1.409 . S
C1213 C1211 1.415 . S
C1214 H1204 0.930 . S
C1214 C1212 1.419 . S
C1214 C1215 1.362 . S
C1215 H1205 0.930 . S
C1215 C1208 1.409 . S
C1215 C1214 1.362 . S
H1216 C1222 0.930 . S
H1217 C1225 0.930 . S
H1218 C1226 0.930 . S
H1219 C1227 0.930 . S
H1220 C1230 0.930 . S
H1221 C1231 0.930 . S
C1222 H1216 0.930 . S
C1222 C1223 1.355 . S
C1222 C1224 1.415 . S
C1223 C1222 1.355 . S
C1223 C1225 1.419 . S
C1224 C1222 1.415 . S
C1224 C1229 1.425 . S
C1224 C1231 1.409 . S
C1225 H1217 0.930 . S
C1225 C1223 1.419 . S
C1225 C1226 1.362 . S
C1226 H1218 0.930 . S
C1226 C1225 1.362 . S
C1226 C1229 1.409 . S
C1227 H1219 0.930 . S
C1227 C1228 1.355 . S
C1227 C1229 1.415 . S
C1228 C1227 1.355 . S
C1228 C1230 1.419 . S
C1229 C1224 1.425 . S
C1229 C1226 1.409 . S
C1229 C1227 1.415 . S
C1230 H1220 0.930 . S
C1230 C1228 1.419 . S
C1230 C1231 1.362 . S
C1231 H1221 0.930 . S
C1231 C1224 1.409 . S
C1231 C1230 1.362 . S
H1232 C1238 0.930 . S
H1233 C1241 0.930 . S
H1234 C1242 0.930 . S
H1235 C1243 0.930 . S
H1236 C1246 0.930 . S
H1237 C1247 0.930 . S
C1238 H1232 0.930 . S
C1238 C1239 1.355 . S
C1238 C1240 1.415 . S
C1239 C1238 1.355 . S
C1239 C1241 1.419 . S
C1240 C1238 1.415 . S
C1240 C1245 1.425 . S
C1240 C1247 1.409 . S
C1241 H1233 0.930 . S
C1241 C1239 1.419 . S
C1241 C1242 1.362 . S
C1242 H1234 0.930 . S
C1242 C1241 1.362 . S
C1242 C1245 1.409 . S
C1243 H1235 0.930 . S
C1243 C1244 1.355 . S
C1243 C1245 1.415 . S
C1244 C1243 1.355 . S
C1244 C1246 1.419 . S
C1245 C1240 1.425 . S
C1245 C1242 1.409 . S
C1245 C1243 1.415 . S
C1246 H1236 0.930 . S
C1246 C1244 1.419 . S
C1246 C1247 1.362 . S
C1247 H1237 0.930 . S
C1247 C1240 1.409 . S
C1247 C1246 1.362 . S
H1248 C1254 0.930 . S
H1249 C1257 0.930 . S
H1250 C1258 0.930 . S
H1251 C1259 0.930 . S
H1252 C1262 0.930 . S
H1253 C1263 0.930 . S
C1254 H1248 0.930 . S
C1254 C1255 1.355 . S
C1254 C1256 1.415 . S
C1255 C1254 1.355 . S
C1255 C1257 1.419 . S
C1256 C1254 1.415 . S
C1256 C1261 1.425 . S
C1256 C1263 1.409 . S
C1257 H1249 0.930 . S
C1257 C1255 1.419 . S
C1257 C1258 1.362 . S
C1258 H1250 0.930 . S
C1258 C1257 1.362 . S
C1258 C1261 1.409 . S
C1259 H1251 0.930 . S
C1259 C1260 1.355 . S
C1259 C1261 1.415 . S
C1260 C1259 1.355 . S
C1260 C1262 1.419 . S
C1261 C1256 1.425 . S
C1261 C1258 1.409 . S
C1261 C1259 1.415 . S
C1262 H1252 0.930 . S
C1262 C1260 1.419 . S
C1262 C1263 1.362 . S
C1263 H1253 0.930 . S
C1263 C1256 1.409 . S
C1263 C1262 1.362 . S
H1264 C1270 0.926 1_554 S
H1265 C1273 0.930 . S
H1266 C1274 0.930 . S
H1267 C1275 0.930 . S
H1268 C1278 0.930 . S
H1269 C1279 0.930 . S
C1270 H1264 0.926 1_556 S
C1270 C1271 1.358 . S
C1270 C1272 1.414 1_556 S
C1271 C1270 1.358 . S
C1271 C1273 1.419 . S
C1272 C1270 1.414 1_554 S
C1272 C1277 1.416 1_554 S
C1272 C1279 1.420 . S
C1273 H1265 0.930 . S
C1273 C1271 1.419 . S
C1273 C1274 1.362 . S
C1274 H1266 0.930 . S
C1274 C1273 1.362 . S
C1274 C1277 1.409 . S
C1275 H1267 0.930 . S
C1275 C1276 1.355 1_556 S
C1275 C1277 1.415 . S
C1276 C1275 1.355 1_554 S
C1276 C1278 1.419 . S
C1277 C1272 1.416 1_556 S
C1277 C1274 1.409 . S
C1277 C1275 1.415 . S
C1278 H1268 0.930 . S
C1278 C1276 1.419 . S
C1278 C1279 1.362 . S
C1279 H1269 0.930 . S
C1279 C1272 1.420 . S
C1279 C1278 1.362 . S
H1280 C1286 0.930 . S
H1281 C1289 0.930 . S
H1282 C1290 0.930 . S
H1283 C1291 0.930 . S
H1284 C1294 0.930 . S
H1285 C1295 0.930 . S
C1286 H1280 0.930 . S
C1286 C1287 1.355 . S
C1286 C1288 1.415 . S
C1287 C1286 1.355 . S
C1287 C1289 1.419 . S
C1288 C1286 1.415 . S
C1288 C1293 1.425 . S
C1288 C1295 1.409 . S
C1289 H1281 0.930 . S
C1289 C1287 1.419 . S
C1289 C1290 1.362 . S
C1290 H1282 0.930 . S
C1290 C1289 1.362 . S
C1290 C1293 1.409 . S
C1291 H1283 0.930 . S
C1291 C1292 1.355 . S
C1291 C1293 1.415 . S
C1292 C1291 1.355 . S
C1292 C1294 1.419 . S
C1293 C1288 1.425 . S
C1293 C1290 1.409 . S
C1293 C1291 1.415 . S
C1294 H1284 0.930 . S
C1294 C1292 1.419 . S
C1294 C1295 1.362 . S
C1295 H1285 0.930 . S
C1295 C1288 1.409 . S
C1295 C1294 1.362 . S
H1296 C1302 0.930 . S
H1297 C1305 0.930 . S
H1298 C1306 0.930 . S
H1299 C1307 0.930 . S
H1300 C1310 0.930 . S
H1301 C1311 0.930 . S
C1302 H1296 0.930 . S
C1302 C1303 1.355 . S
C1302 C1304 1.415 . S
C1303 C1302 1.355 . S
C1303 C1305 1.419 . S
C1304 C1302 1.415 . S
C1304 C1309 1.425 . S
C1304 C1311 1.409 . S
C1305 H1297 0.930 . S
C1305 C1303 1.419 . S
C1305 C1306 1.362 . S
C1306 H1298 0.930 . S
C1306 C1305 1.362 . S
C1306 C1309 1.409 . S
C1307 H1299 0.930 . S
C1307 C1308 1.355 . S
C1307 C1309 1.415 . S
C1308 C1307 1.355 . S
C1308 C1310 1.419 . S
C1309 C1304 1.425 . S
C1309 C1306 1.409 . S
C1309 C1307 1.415 . S
C1310 H1300 0.930 . S
C1310 C1308 1.419 . S
C1310 C1311 1.362 . S
C1311 H1301 0.930 . S
C1311 C1304 1.409 . S
C1311 C1310 1.362 . S
H1312 C1318 0.930 . S
H1313 C1321 0.930 . S
H1314 C1322 0.930 . S
H1315 C1323 0.930 . S
H1316 C1326 0.930 . S
H1317 C1327 0.930 . S
C1318 H1312 0.930 . S
C1318 C1319 1.355 . S
C1318 C1320 1.415 . S
C1319 C1318 1.355 . S
C1319 C1321 1.419 . S
C1320 C1318 1.415 . S
C1320 C1325 1.425 . S
C1320 C1327 1.409 . S
C1321 H1313 0.930 . S
C1321 C1319 1.419 . S
C1321 C1322 1.362 . S
C1322 H1314 0.930 . S
C1322 C1321 1.362 . S
C1322 C1325 1.409 . S
C1323 H1315 0.930 . S
C1323 C1324 1.355 . S
C1323 C1325 1.415 . S
C1324 C1323 1.355 . S
C1324 C1326 1.419 . S
C1325 C1320 1.425 . S
C1325 C1322 1.409 . S
C1325 C1323 1.415 . S
C1326 H1316 0.930 . S
C1326 C1324 1.419 . S
C1326 C1327 1.362 . S
C1327 H1317 0.930 . S
C1327 C1320 1.409 . S
C1327 C1326 1.362 . S
H1328 C1334 0.930 . S
H1329 C1337 0.930 . S
H1330 C1338 0.930 . S
H1331 C1339 0.930 . S
H1332 C1342 0.930 . S
H1333 C1343 0.930 . S
C1334 H1328 0.930 . S
C1334 C1335 1.355 . S
C1334 C1336 1.415 . S
C1335 C1334 1.355 . S
C1335 C1337 1.419 . S
C1336 C1334 1.415 . S
C1336 C1341 1.425 . S
C1336 C1343 1.409 . S
C1337 H1329 0.930 . S
C1337 C1335 1.419 . S
C1337 C1338 1.362 . S
C1338 H1330 0.930 . S
C1338 C1337 1.362 . S
C1338 C1341 1.409 . S
C1339 H1331 0.930 . S
C1339 C1340 1.355 . S
C1339 C1341 1.415 . S
C1340 C1339 1.355 . S
C1340 C1342 1.419 . S
C1341 C1336 1.425 . S
C1341 C1338 1.409 . S
C1341 C1339 1.415 . S
C1342 H1332 0.930 . S
C1342 C1340 1.419 . S
C1342 C1343 1.362 . S
C1343 H1333 0.930 . S
C1343 C1336 1.409 . S
C1343 C1342 1.362 . S
H1344 C1350 0.930 . S
H1345 C1353 0.933 . S
H1346 C1354 0.930 . S
H1347 C1355 0.930 . S
H1348 C1358 0.930 . S
H1349 C1359 0.930 . S
C1350 H1344 0.930 . S
C1350 C1351 1.355 . S
C1350 C1352 1.415 . S
C1351 C1350 1.355 . S
C1351 C1353 1.414 1_554 S
C1352 C1350 1.415 . S
C1352 C1357 1.436 . S
C1352 C1359 1.409 . S
C1353 H1345 0.933 . S
C1353 C1351 1.414 1_556 S
C1353 C1354 1.365 . S
C1354 H1346 0.930 . S
C1354 C1353 1.365 . S
C1354 C1357 1.403 1_556 S
C1355 H1347 0.930 . S
C1355 C1356 1.355 1_556 S
C1355 C1357 1.411 1_556 S
C1356 C1355 1.355 1_554 S
C1356 C1358 1.419 . S
C1357 C1352 1.436 . S
C1357 C1354 1.403 1_554 S
C1357 C1355 1.411 1_554 S
C1358 H1348 0.930 . S
C1358 C1356 1.419 . S
C1358 C1359 1.362 . S
C1359 H1349 0.930 . S
C1359 C1352 1.409 . S
C1359 C1358 1.362 . S
H1360 C1366 0.930 . S
H1361 C1369 0.930 . S
H1362 C1370 0.930 . S
H1363 C1371 0.930 . S
H1364 C1374 0.930 . S
H1365 C1375 0.930 . S
C1366 H1360 0.930 . S
C1366 C1367 1.355 . S
C1366 C1368 1.415 . S
C1367 C1366 1.355 . S
C1367 C1369 1.419 . S
C1368 C1366 1.415 . S
C1368 C1373 1.425 . S
C1368 C1375 1.409 . S
C1369 H1361 0.930 . S
C1369 C1367 1.419 . S
C1369 C1370 1.362 . S
C1370 H1362 0.930 . S
C1370 C1369 1.362 . S
C1370 C1373 1.409 . S
C1371 H1363 0.930 . S
C1371 C1372 1.355 . S
C1371 C1373 1.415 . S
C1372 C1371 1.355 . S
C1372 C1374 1.419 . S
C1373 C1368 1.425 . S
C1373 C1370 1.409 . S
C1373 C1371 1.415 . S
C1374 H1364 0.930 . S
C1374 C1372 1.419 . S
C1374 C1375 1.362 . S
C1375 H1365 0.930 . S
C1375 C1368 1.409 . S
C1375 C1374 1.362 . S
H1376 C1382 0.930 . S
H1377 C1385 0.930 . S
H1378 C1386 0.930 . S
H1379 C1387 0.930 . S
H1380 C1390 0.930 . S
H1381 C1391 0.930 . S
C1382 H1376 0.930 . S
C1382 C1383 1.355 . S
C1382 C1384 1.415 . S
C1383 C1382 1.355 . S
C1383 C1385 1.419 . S
C1384 C1382 1.415 . S
C1384 C1389 1.425 . S
C1384 C1391 1.409 . S
C1385 H1377 0.930 . S
C1385 C1383 1.419 . S
C1385 C1386 1.362 . S
C1386 H1378 0.930 . S
C1386 C1385 1.362 . S
C1386 C1389 1.409 . S
C1387 H1379 0.930 . S
C1387 C1388 1.355 . S
C1387 C1389 1.415 . S
C1388 C1387 1.355 . S
C1388 C1390 1.419 . S
C1389 C1384 1.425 . S
C1389 C1386 1.409 . S
C1389 C1387 1.415 . S
C1390 H1380 0.930 . S
C1390 C1388 1.419 . S
C1390 C1391 1.362 . S
C1391 H1381 0.930 . S
C1391 C1384 1.409 . S
C1391 C1390 1.362 . S
H1392 C1398 0.930 . S
H1393 C1401 0.930 . S
H1394 C1402 0.930 . S
H1395 C1403 0.930 . S
H1396 C1406 0.930 . S
H1397 C1407 0.930 . S
C1398 H1392 0.930 . S
C1398 C1399 1.355 . S
C1398 C1400 1.415 . S
C1399 C1398 1.355 . S
C1399 C1401 1.419 . S
C1400 C1398 1.415 . S
C1400 C1405 1.425 . S
C1400 C1407 1.409 . S
C1401 H1393 0.930 . S
C1401 C1399 1.419 . S
C1401 C1402 1.362 . S
C1402 H1394 0.930 . S
C1402 C1401 1.362 . S
C1402 C1405 1.409 . S
C1403 H1395 0.930 . S
C1403 C1404 1.355 . S
C1403 C1405 1.415 . S
C1404 C1403 1.355 . S
C1404 C1406 1.419 . S
C1405 C1400 1.425 . S
C1405 C1402 1.409 . S
C1405 C1403 1.415 . S
C1406 H1396 0.930 . S
C1406 C1404 1.419 . S
C1406 C1407 1.362 . S
C1407 H1397 0.930 . S
C1407 C1400 1.409 . S
C1407 C1406 1.362 . S
H1408 C1414 0.930 . S
H1409 C1417 0.930 . S
H1410 C1418 0.930 . S
H1411 C1419 0.930 . S
H1412 C1422 0.930 . S
H1413 C1423 0.930 . S
C1414 H1408 0.930 . S
C1414 C1415 1.355 . S
C1414 C1416 1.415 . S
C1415 C1414 1.355 . S
C1415 C1417 1.419 . S
C1416 C1414 1.415 . S
C1416 C1421 1.425 . S
C1416 C1423 1.409 . S
C1417 H1409 0.930 . S
C1417 C1415 1.419 . S
C1417 C1418 1.362 . S
C1418 H1410 0.930 . S
C1418 C1417 1.362 . S
C1418 C1421 1.409 . S
C1419 H1411 0.930 . S
C1419 C1420 1.355 . S
C1419 C1421 1.415 . S
C1420 C1419 1.355 . S
C1420 C1422 1.419 . S
C1421 C1416 1.425 . S
C1421 C1418 1.409 . S
C1421 C1419 1.415 . S
C1422 H1412 0.930 . S
C1422 C1420 1.419 . S
C1422 C1423 1.362 . S
C1423 H1413 0.930 . S
C1423 C1416 1.409 . S
C1423 C1422 1.362 . S
H1424 C1430 0.930 . S
H1425 C1433 0.930 . S
H1426 C1434 0.930 . S
H1427 C1435 0.930 . S
H1428 C1438 0.930 . S
H1429 C1439 0.930 . S
C1430 H1424 0.930 . S
C1430 C1431 1.355 . S
C1430 C1432 1.415 . S
C1431 C1430 1.355 . S
C1431 C1433 1.419 . S
C1432 C1430 1.415 . S
C1432 C1437 1.425 . S
C1432 C1439 1.409 . S
C1433 H1425 0.930 . S
C1433 C1431 1.419 . S
C1433 C1434 1.362 . S
C1434 H1426 0.930 . S
C1434 C1433 1.362 . S
C1434 C1437 1.409 . S
C1435 H1427 0.930 . S
C1435 C1436 1.355 . S
C1435 C1437 1.415 . S
C1436 C1435 1.355 . S
C1436 C1438 1.419 . S
C1437 C1432 1.425 . S
C1437 C1434 1.409 . S
C1437 C1435 1.415 . S
C1438 H1428 0.930 . S
C1438 C1436 1.419 . S
C1438 C1439 1.362 . S
C1439 H1429 0.930 . S
C1439 C1432 1.409 . S
C1439 C1438 1.362 . S
H1440 C1446 0.930 . S
H1441 C1449 0.930 . S
H1442 C1450 0.930 . S
H1443 C1451 0.930 . S
H1444 C1454 0.930 . S
H1445 C1455 0.930 . S
C1446 H1440 0.930 . S
C1446 C1447 1.355 . S
C1446 C1448 1.415 . S
C1447 C1446 1.355 . S
C1447 C1449 1.419 . S
C1448 C1446 1.415 . S
C1448 C1453 1.425 . S
C1448 C1455 1.409 . S
C1449 H1441 0.930 . S
C1449 C1447 1.419 . S
C1449 C1450 1.362 . S
C1450 H1442 0.930 . S
C1450 C1449 1.362 . S
C1450 C1453 1.409 . S
C1451 H1443 0.930 . S
C1451 C1452 1.355 . S
C1451 C1453 1.415 . S
C1452 C1451 1.355 . S
C1452 C1454 1.419 . S
C1453 C1448 1.425 . S
C1453 C1450 1.409 . S
C1453 C1451 1.415 . S
C1454 H1444 0.930 . S
C1454 C1452 1.419 . S
C1454 C1455 1.362 . S
C1455 H1445 0.930 . S
C1455 C1448 1.409 . S
C1455 C1454 1.362 . S
H1456 C1462 0.930 . S
H1457 C1465 0.930 . S
H1458 C1466 0.930 . S
H1459 C1467 0.930 . S
H1460 C1470 0.930 . S
H1461 C1471 0.930 . S
C1462 H1456 0.930 . S
C1462 C1463 1.355 . S
C1462 C1464 1.415 . S
C1463 C1462 1.355 . S
C1463 C1465 1.419 . S
C1464 C1462 1.415 . S
C1464 C1469 1.425 . S
C1464 C1471 1.409 . S
C1465 H1457 0.930 . S
C1465 C1463 1.419 . S
C1465 C1466 1.362 . S
C1466 H1458 0.930 . S
C1466 C1465 1.362 . S
C1466 C1469 1.409 . S
C1467 H1459 0.930 . S
C1467 C1468 1.355 . S
C1467 C1469 1.415 . S
C1468 C1467 1.355 . S
C1468 C1470 1.419 . S
C1469 C1464 1.425 . S
C1469 C1466 1.409 . S
C1469 C1467 1.415 . S
C1470 H1460 0.930 . S
C1470 C1468 1.419 . S
C1470 C1471 1.362 . S
C1471 H1461 0.930 . S
C1471 C1464 1.409 . S
C1471 C1470 1.362 . S
H1472 C1478 0.930 . S
H1473 C1481 0.930 . S
H1474 C1482 0.930 . S
H1475 C1483 0.930 . S
H1476 C1486 0.930 . S
H1477 C1487 0.930 . S
C1478 H1472 0.930 . S
C1478 C1479 1.355 . S
C1478 C1480 1.415 . S
C1479 C1478 1.355 . S
C1479 C1481 1.419 . S
C1480 C1478 1.415 . S
C1480 C1485 1.425 . S
C1480 C1487 1.409 . S
C1481 H1473 0.930 . S
C1481 C1479 1.419 . S
C1481 C1482 1.362 . S
C1482 H1474 0.930 . S
C1482 C1481 1.362 . S
C1482 C1485 1.409 . S
C1483 H1475 0.930 . S
C1483 C1484 1.355 . S
C1483 C1485 1.415 . S
C1484 C1483 1.355 . S
C1484 C1486 1.419 . S
C1485 C1480 1.425 . S
C1485 C1482 1.409 . S
C1485 C1483 1.415 . S
C1486 H1476 0.930 . S
C1486 C1484 1.419 . S
C1486 C1487 1.362 . S
C1487 H1477 0.930 . S
C1487 C1480 1.409 . S
C1487 C1486 1.362 . S
H1488 C1494 0.930 . S
H1489 C1497 0.930 . S
H1490 C1498 0.930 . S
H1491 C1499 0.930 . S
H1492 C1502 0.930 . S
H1493 C1503 0.930 . S
C1494 H1488 0.930 . S
C1494 C1495 1.355 . S
C1494 C1496 1.415 . S
C1495 C1494 1.355 . S
C1495 C1497 1.419 . S
C1496 C1494 1.415 . S
C1496 C1501 1.425 . S
C1496 C1503 1.409 . S
C1497 H1489 0.930 . S
C1497 C1495 1.419 . S
C1497 C1498 1.362 . S
C1498 H1490 0.930 . S
C1498 C1497 1.362 . S
C1498 C1501 1.409 . S
C1499 H1491 0.930 . S
C1499 C1500 1.355 . S
C1499 C1501 1.415 . S
C1500 C1499 1.355 . S
C1500 C1502 1.419 . S
C1501 C1496 1.425 . S
C1501 C1498 1.409 . S
C1501 C1499 1.415 . S
C1502 H1492 0.930 . S
C1502 C1500 1.419 . S
C1502 C1503 1.362 . S
C1503 H1493 0.930 . S
C1503 C1496 1.409 . S
C1503 C1502 1.362 . S
H1504 C1510 0.930 . S
H1505 C1513 0.930 . S
H1506 C1514 0.930 . S
H1507 C1515 0.930 . S
H1508 C1518 0.930 . S
H1509 C1519 0.930 . S
C1510 H1504 0.930 . S
C1510 C1511 1.355 . S
C1510 C1512 1.415 . S
C1511 C1510 1.355 . S
C1511 C1513 1.419 . S
C1512 C1510 1.415 . S
C1512 C1517 1.425 . S
C1512 C1519 1.409 . S
C1513 H1505 0.930 . S
C1513 C1511 1.419 . S
C1513 C1514 1.362 . S
C1514 H1506 0.930 . S
C1514 C1513 1.362 . S
C1514 C1517 1.409 . S
C1515 H1507 0.930 . S
C1515 C1516 1.355 . S
C1515 C1517 1.415 . S
C1516 C1515 1.355 . S
C1516 C1518 1.419 . S
C1517 C1512 1.425 . S
C1517 C1514 1.409 . S
C1517 C1515 1.415 . S
C1518 H1508 0.930 . S
C1518 C1516 1.419 . S
C1518 C1519 1.362 . S
C1519 H1509 0.930 . S
C1519 C1512 1.409 . S
C1519 C1518 1.362 . S
H1520 C1526 0.930 . S
H1521 C1529 0.930 . S
H1522 C1530 0.930 . S
H1523 C1531 0.930 . S
H1524 C1534 0.930 . S
H1525 C1535 0.930 . S
C1526 H1520 0.930 . S
C1526 C1527 1.355 . S
C1526 C1528 1.415 . S
C1527 C1526 1.355 . S
C1527 C1529 1.419 . S
C1528 C1526 1.415 . S
C1528 C1533 1.425 . S
C1528 C1535 1.409 . S
C1529 H1521 0.930 . S
C1529 C1527 1.419 . S
C1529 C1530 1.362 . S
C1530 H1522 0.930 . S
C1530 C1529 1.362 . S
C1530 C1533 1.409 . S
C1531 H1523 0.930 . S
C1531 C1532 1.355 . S
C1531 C1533 1.415 . S
C1532 C1531 1.355 . S
C1532 C1534 1.419 . S
C1533 C1528 1.425 . S
C1533 C1530 1.409 . S
C1533 C1531 1.415 . S
C1534 H1524 0.930 . S
C1534 C1532 1.419 . S
C1534 C1535 1.362 . S
C1535 H1525 0.930 . S
C1535 C1528 1.409 . S
C1535 C1534 1.362 . S
H1536 C1542 0.930 . S
H1537 C1545 0.930 . S
H1538 C1546 0.930 . S
H1539 C1547 0.930 . S
H1540 C1550 0.930 . S
H1541 C1551 0.930 . S
C1542 H1536 0.930 . S
C1542 C1543 1.355 . S
C1542 C1544 1.415 . S
C1543 C1542 1.355 . S
C1543 C1545 1.419 . S
C1544 C1542 1.415 . S
C1544 C1549 1.425 . S
C1544 C1551 1.409 . S
C1545 H1537 0.930 . S
C1545 C1543 1.419 . S
C1545 C1546 1.362 . S
C1546 H1538 0.930 . S
C1546 C1545 1.362 . S
C1546 C1549 1.409 . S
C1547 H1539 0.930 . S
C1547 C1548 1.355 . S
C1547 C1549 1.415 . S
C1548 C1547 1.355 . S
C1548 C1550 1.419 . S
C1549 C1544 1.425 . S
C1549 C1546 1.409 . S
C1549 C1547 1.415 . S
C1550 H1540 0.930 . S
C1550 C1548 1.419 . S
C1550 C1551 1.362 . S
C1551 H1541 0.930 . S
C1551 C1544 1.409 . S
C1551 C1550 1.362 . S
H1552 C1558 0.930 . S
H1553 C1561 0.930 . S
H1554 C1562 0.930 . S
H1555 C1563 0.930 . S
H1556 C1566 0.930 . S
H1557 C1567 0.930 . S
C1558 H1552 0.930 . S
C1558 C1559 1.355 . S
C1558 C1560 1.415 . S
C1559 C1558 1.355 . S
C1559 C1561 1.419 . S
C1560 C1558 1.415 . S
C1560 C1565 1.425 . S
C1560 C1567 1.409 . S
C1561 H1553 0.930 . S
C1561 C1559 1.419 . S
C1561 C1562 1.362 . S
C1562 H1554 0.930 . S
C1562 C1561 1.362 . S
C1562 C1565 1.409 . S
C1563 H1555 0.930 . S
C1563 C1564 1.355 . S
C1563 C1565 1.415 . S
C1564 C1563 1.355 . S
C1564 C1566 1.419 . S
C1565 C1560 1.425 . S
C1565 C1562 1.409 . S
C1565 C1563 1.415 . S
C1566 H1556 0.930 . S
C1566 C1564 1.419 . S
C1566 C1567 1.362 . S
C1567 H1557 0.930 . S
C1567 C1560 1.409 . S
C1567 C1566 1.362 . S
H1568 C1574 0.930 . S
H1569 C1577 0.930 . S
H1570 C1578 0.930 . S
H1571 C1579 0.930 . S
H1572 C1582 0.930 . S
H1573 C1583 0.930 . S
C1574 H1568 0.930 . S
C1574 C1575 1.355 . S
C1574 C1576 1.415 . S
C1575 C1574 1.355 . S
C1575 C1577 1.419 . S
C1576 C1574 1.415 . S
C1576 C1581 1.425 . S
C1576 C1583 1.409 . S
C1577 H1569 0.930 . S
C1577 C1575 1.419 . S
C1577 C1578 1.362 . S
C1578 H1570 0.930 . S
C1578 C1577 1.362 . S
C1578 C1581 1.409 . S
C1579 H1571 0.930 . S
C1579 C1580 1.355 . S
C1579 C1581 1.415 . S
C1580 C1579 1.355 . S
C1580 C1582 1.419 . S
C1581 C1576 1.425 . S
C1581 C1578 1.409 . S
C1581 C1579 1.415 . S
C1582 H1572 0.930 . S
C1582 C1580 1.419 . S
C1582 C1583 1.362 . S
C1583 H1573 0.930 . S
C1583 C1576 1.409 . S
C1583 C1582 1.362 . S
C1015 C476 1.667 . S
C1020 C58 1.282 . S
C1031 C142 1.367 . S
C1036 C56 1.836 . S
C1047 C226 1.264 . S
C1052 C140 1.721 . S
C1063 C224 1.631 . S
C1068 C310 1.192 . S
C1079 C308 1.822 . S
C1084 C394 1.340 . S
C1095 C478 1.412 . S
C1100 C392 1.788 . S
C1111 C644 1.636 . S
C1116 C562 1.202 . S
C1127 C646 1.277 . S
C1132 C728 1.742 . S
C1143 C812 1.856 . S
C1148 C730 1.388 . S
C1159 C896 1.607 . S
C1164 C814 1.201 . S
C1175 C980 1.771 . S
C1180 C898 1.408 . S
C1191 C560 1.815 . S
C1196 C982 1.326 . S
C1207 C998 3.564 . S
C1212 C67 3.504 . S
C1223 C151 2.985 . S
C1228 C578 3.049 . S
C1239 C662 3.329 . S
C1244 C235 3.242 . S
C1255 C746 3.568 . S
C1260 C319 3.481 . S
C1271 C830 3.053 . S
C1276 C403 2.970 . S
C1287 C487 3.221 . S
C1292 C914 3.299 . S
C1303 C571 3.492 . S
C1308 C158 3.554 . S
C1319 C655 3.212 . S
C1324 C242 3.306 . S
C1335 C326 3.042 . S
C1340 C739 2.988 . S
C1351 C410 3.569 . S
C1356 C823 3.500 1_554 S
C1367 C907 3.246 . S
C1372 C494 3.309 . S
C1383 C991 2.982 . S
C1388 C74 3.050 . S
C1399 C567 2.514 . S
C1404 C63 2.511 . S
C1415 C147 1.729 . S
C1420 C651 1.730 . S
C1431 C735 1.668 . S
C1436 C231 1.678 . S
C1447 C315 2.514 . S
C1452 C819 2.511 . S
C1463 C903 1.723 . S
C1468 C399 1.731 . S
C1479 C987 1.656 . S
C1484 C483 1.709 . S
C1495 C573 0.517 . S
C1500 C69 0.425 . S
C1511 C657 0.410 . S
C1516 C153 0.206 . S
C1527 C741 0.405 . S
C1532 C237 0.250 . S
C1543 C321 0.473 . S
C1548 C825 0.385 . S
C1559 C909 0.260 . S
C1564 C405 0.401 . S
C1575 C993 0.397 . S
C1580 C489 0.274 . S
