# Generated by pormake.
# Topology ooa, (5)-cn, num edge types: 1
# Building blocks:
#     Node 0, Type 0, BuildingBlock: BEQFEK_clean_sbu_0, # of connection points: 5
#     Node 1, Type 0, BuildingBlock: BEQFEK_clean_sbu_0, # of connection points: 5
#     Node 2, Type 0, BuildingBlock: BEQFEK_clean_sbu_0, # of connection points: 5
#     Node 3, Type 0, BuildingBlock: BEQFEK_clean_sbu_0, # of connection points: 5
#     Node 4, Type 0, BuildingBlock: BEQFEK_clean_sbu_0, # of connection points: 5
#     Node 5, Type 0, BuildingBlock: BEQFEK_clean_sbu_0, # of connection points: 5
#     Node 6, Type 0, BuildingBlock: BEQFEK_clean_sbu_0, # of connection points: 5
#     Node 7, Type 0, BuildingBlock: BEQFEK_clean_sbu_0, # of connection points: 5
#     Edge 8, Type (0, 0), BuildingBlock: OJICUG_clean_linker_0, # of connection points: 2
#     Edge 9, Type (0, 0), BuildingBlock: OJICUG_clean_linker_0, # of connection points: 2
#     Edge 10, Type (0, 0), BuildingBlock: OJICUG_clean_linker_0, # of connection points: 2
#     Edge 11, Type (0, 0), BuildingBlock: OJICUG_clean_linker_0, # of connection points: 2
#     Edge 12, Type (0, 0), BuildingBlock: OJICUG_clean_linker_0, # of connection points: 2
#     Edge 13, Type (0, 0), BuildingBlock: OJICUG_clean_linker_0, # of connection points: 2
#     Edge 14, Type (0, 0), BuildingBlock: OJICUG_clean_linker_0, # of connection points: 2
#     Edge 15, Type (0, 0), BuildingBlock: OJICUG_clean_linker_0, # of connection points: 2
#     Edge 16, Type (0, 0), BuildingBlock: OJICUG_clean_linker_0, # of connection points: 2
#     Edge 17, Type (0, 0), BuildingBlock: OJICUG_clean_linker_0, # of connection points: 2
#     Edge 18, Type (0, 0), BuildingBlock: OJICUG_clean_linker_0, # of connection points: 2
#     Edge 19, Type (0, 0), BuildingBlock: OJICUG_clean_linker_0, # of connection points: 2
#     Edge 20, Type (0, 0), BuildingBlock: OJICUG_clean_linker_0, # of connection points: 2
#     Edge 21, Type (0, 0), BuildingBlock: OJICUG_clean_linker_0, # of connection points: 2
#     Edge 22, Type (0, 0), BuildingBlock: OJICUG_clean_linker_0, # of connection points: 2
#     Edge 23, Type (0, 0), BuildingBlock: OJICUG_clean_linker_0, # of connection points: 2
#     Edge 24, Type (0, 0), BuildingBlock: OJICUG_clean_linker_0, # of connection points: 2
#     Edge 25, Type (0, 0), BuildingBlock: OJICUG_clean_linker_0, # of connection points: 2
#     Edge 26, Type (0, 0), BuildingBlock: OJICUG_clean_linker_0, # of connection points: 2
#     Edge 27, Type (0, 0), BuildingBlock: OJICUG_clean_linker_0, # of connection points: 2
# Relax obj value: 0.534
# Max RMSD: 0.278
# Mean RMSD: 0.278
data_MOF--net-ooa--node1-BEQFEK_clean_sbu_0--edge1-OJICUG_clean_linker_0
_symmetry_space_group_name_H-M    P1
_symmetry_Int_Tables_number       1
_symmetry_cell_setting            triclinic
loop_
_symmetry_equiv_pos_as_xyz
'x, y, z'
_cell_length_a     20.937131
_cell_length_b     36.540072
_cell_length_c     36.687171
_cell_angle_alpha  89.996793
_cell_angle_beta   89.992824
_cell_angle_gamma 90.123775
loop_
_atom_site_label
_atom_site_type_symbol
_atom_site_fract_x
_atom_site_fract_y
_atom_site_fract_z
_atom_type_partial_charge
Co0 Co 0.16858 0.10902 0.04451 0.0
Co1 Co 0.20028 0.16277 0.10909 0.0
C2 C 0.20986 0.08309 0.11983 0.0
O3 O 0.19338 0.07996 0.08682 0.0
O4 O 0.21643 0.11443 0.13449 0.0
C5 C 0.11743 0.04048 0.02239 0.0
O6 O 0.16044 0.02625 0.04419 0.0
C7 C 0.19529 0.20092 0.17987 0.0
C8 C 0.23969 0.25411 0.1666 0.0
C9 C 0.21382 0.23422 0.19529 0.0
N10 N 0.21026 0.20129 0.14417 0.0
N11 N 0.23659 0.23323 0.13643 0.0
C12 C 0.16099 0.16976 0.19774 0.0
H13 H 0.13466 0.15342 0.17711 0.0
H14 H 0.12712 0.17998 0.21865 0.0
H15 H 0.19636 0.15157 0.21105 0.0
C16 C 0.0528 0.1523 0.04236 0.0
N17 N 0.10923 0.14475 0.05781 0.0
N18 N 0.11715 0.16512 0.08703 0.0
C19 C 0.06355 0.1853 0.09187 0.0
C20 C 0.02144 0.17789 0.06336 0.0
C21 C 0.02746 0.13348 1.0091 0.0
H22 H 0.06672 0.12822 0.98953 0.0
H23 H 0.00552 0.10721 1.0175 0.0
H24 H 0.99041 0.14989 0.99514 0.0
O25 O 0.24256 0.13338 0.02286 0.0
O26 O 0.26594 0.17098 0.06891 0.0
H27 H 0.09239 0.23127 0.12393 0.0
H28 H 0.00661 0.22559 0.12006 0.0
C29 C 0.05286 0.21105 0.12288 0.0
H30 H 0.05322 0.19551 0.14884 0.0
H31 H 0.25293 0.24065 0.11059 0.0
O32 O 0.12307 0.07373 1.01256 0.0
C33 C 0.27682 0.15869 0.03675 0.0
Co34 Co 0.31151 0.91317 0.04441 0.0
Co35 Co 0.27983 0.85949 0.10905 0.0
C36 C 0.27061 0.93919 0.11977 0.0
O37 O 0.28702 0.94229 0.08675 0.0
O38 O 0.2639 0.90786 0.13444 0.0
C39 C 0.36244 0.98169 0.02212 0.0
O40 O 0.31924 0.99594 0.04381 0.0
C41 C 0.28521 0.82138 0.17983 0.0
C42 C 0.24048 0.76823 0.16673 0.0
C43 C 0.26671 0.7881 0.19533 0.0
N44 N 0.26988 0.82101 0.14419 0.0
N45 N 0.24335 0.78911 0.13655 0.0
C46 C 0.31981 0.85249 0.19758 0.0
H47 H 0.34593 0.86882 0.17685 0.0
H48 H 0.3539 0.84222 0.21834 0.0
H49 H 0.28466 0.87071 0.21104 0.0
C50 C 0.42712 0.86977 0.04213 0.0
N51 N 0.37077 0.87738 0.05765 0.0
N52 N 0.36289 0.85704 0.08689 0.0
C53 C 0.41645 0.83683 0.09168 0.0
C54 C 0.45849 0.84418 0.06312 0.0
C55 C 0.45241 0.88857 1.00884 0.0
H56 H 0.41311 0.89387 0.98932 0.0
H57 H 0.47445 0.91483 1.01721 0.0
H58 H 0.48937 0.87213 0.99484 0.0
O59 O 0.23737 0.8889 0.02288 0.0
O60 O 0.21401 0.85131 0.06895 0.0
H61 H 0.38752 0.791 0.12395 0.0
H62 H 0.47331 0.79643 0.11978 0.0
C63 C 0.42722 0.81111 0.12272 0.0
H64 H 0.42726 0.8267 0.14865 0.0
H65 H 0.22674 0.78169 0.11076 0.0
O66 O 0.35698 0.94842 1.0124 0.0
C67 C 0.20308 0.86362 0.0368 0.0
Co68 Co 0.18362 0.41288 0.49428 0.0
Co69 Co 0.21018 0.35934 0.43027 0.0
C70 C 0.22209 0.43836 0.41825 0.0
O71 O 0.2109 0.44154 0.45194 0.0
O72 O 0.22204 0.40711 0.40301 0.0
C73 C 0.09072 0.46179 0.49897 0.0
O74 O 0.08733 0.44774 0.46607 0.0
C75 C 0.20051 0.31984 0.36068 0.0
C76 C 0.24987 0.26795 0.37279 0.0
C77 C 0.21965 0.28689 0.3449 0.0
N78 N 0.2193 0.32024 0.39577 0.0
N79 N 0.24855 0.28907 0.40286 0.0
C80 C 0.16217 0.34992 0.34383 0.0
H81 H 0.13688 0.36573 0.36522 0.0
H82 H 0.12696 0.33865 0.32417 0.0
H83 H 0.19472 0.36893 0.32925 0.0
C84 C 0.0721 0.36691 0.5025 0.0
N85 N 0.12543 0.37539 0.48416 0.0
N86 N 0.12867 0.35613 0.45403 0.0
C87 C 0.07393 0.33643 0.45111 0.0
C88 C 0.03658 0.3426 0.48208 0.0
C89 C 0.05382 0.38324 0.53852 0.0
H90 H 0.09622 0.39476 0.55252 0.0
H91 H 0.01762 0.40495 0.5342 0.0
H92 H 0.03227 0.36218 0.55648 0.0
O93 O 0.25772 0.39054 0.5169 0.0
O94 O 0.27871 0.35321 0.47011 0.0
H95 H 0.09789 0.29365 0.41376 0.0
H96 H 0.01363 0.29618 0.4251 0.0
C97 C 0.05751 0.31236 0.41955 0.0
H98 H 0.04978 0.32956 0.39505 0.0
H99 H 0.26818 0.28236 0.42813 0.0
O100 O 0.13428 0.45056 0.52061 0.0
C101 C 0.29155 0.36557 0.50215 0.0
Co102 Co 0.29912 0.60933 0.49425 0.0
Co103 Co 0.27249 0.66289 0.43025 0.0
C104 C 0.26053 0.58387 0.41824 0.0
O105 O 0.27177 0.58068 0.45192 0.0
O106 O 0.26056 0.61512 0.403 0.0
C107 C 0.39201 0.56039 0.49891 0.0
O108 O 0.39536 0.57441 0.46599 0.0
C109 C 0.28175 0.70243 0.36065 0.0
C110 C 0.23262 0.75435 0.37294 0.0
C111 C 0.26253 0.73541 0.34495 0.0
N112 N 0.26328 0.70202 0.3958 0.0
N113 N 0.23418 0.73321 0.403 0.0
C114 C 0.31985 0.67233 0.34366 0.0
H115 H 0.34537 0.65651 0.36495 0.0
H116 H 0.35483 0.68358 0.32385 0.0
H117 H 0.2871 0.65333 0.32922 0.0
C118 C 0.41071 0.65527 0.50237 0.0
N119 N 0.35732 0.64681 0.48408 0.0
N120 N 0.35404 0.66607 0.45395 0.0
C121 C 0.40879 0.68575 0.45098 0.0
C122 C 0.4462 0.67957 0.48192 0.0
C123 C 0.42906 0.63894 0.53837 0.0
H124 H 0.38668 0.62744 0.55242 0.0
H125 H 0.46523 0.61722 0.53403 0.0
H126 H 0.45067 0.66 0.55631 0.0
O127 O 0.22506 0.63168 0.51692 0.0
O128 O 0.20403 0.669 0.47014 0.0
H129 H 0.38484 0.7286 0.41371 0.0
H130 H 0.46917 0.72589 0.42484 0.0
C131 C 0.42515 0.7098 0.41939 0.0
H132 H 0.43259 0.6926 0.39485 0.0
H133 H 0.21478 0.73992 0.42833 0.0
O134 O 0.34847 0.57164 0.52056 0.0
C135 C 0.19122 0.65666 0.50218 0.0
Co136 Co 0.8112 0.91307 0.99858 0.0
Co137 Co 0.77981 0.8595 0.93381 0.0
C138 C 0.77015 0.93919 0.92327 0.0
O139 O 0.7865 0.94224 0.95631 0.0
O140 O 0.76368 0.90789 0.90851 0.0
C141 C 0.86211 0.98157 1.02094 0.0
O142 O 0.81907 0.99584 0.99917 0.0
C143 C 0.78522 0.82145 0.86297 0.0
C144 C 0.74098 0.76819 0.87612 0.0
C145 C 0.76693 0.78813 0.84749 0.0
N146 N 0.77005 0.82103 0.89864 0.0
N147 N 0.74381 0.78905 0.90631 0.0
C148 C 0.8195 0.85267 0.84518 0.0
H149 H 0.84557 0.86906 0.86587 0.0
H150 H 0.85358 0.8425 0.82436 0.0
H151 H 0.78414 0.8708 0.83177 0.0
C152 C 0.92703 0.86986 1.00075 0.0
N153 N 0.87063 0.8774 0.98526 0.0
N154 N 0.86288 0.85714 0.95595 0.0
C155 C 0.91658 0.83707 0.95108 0.0
C156 C 0.95857 0.84441 0.97966 0.0
C157 C 0.95217 0.88855 0.03412 0.0
H158 H 0.9128 0.89377 0.05362 0.0
H159 H 0.97423 0.91484 0.02586 0.0
H160 H 0.98909 0.87207 0.0481 0.0
O161 O 0.73722 0.88862 1.02008 0.0
O162 O 0.714 0.85115 0.9739 0.0
H163 H 0.88804 0.79124 0.91871 0.0
H164 H 0.97379 0.79698 0.92278 0.0
C165 C 0.92752 0.81149 0.91995 0.0
H166 H 0.9273 0.82717 0.89407 0.0
H167 H 0.72737 0.78158 0.93211 0.0
O168 O 0.85653 0.9483 0.03067 0.0
C169 C 0.70302 0.86334 1.00609 0.0
Co170 Co 0.66856 0.10931 0.9987 0.0
Co171 Co 0.70022 0.16289 0.93397 0.0
C172 C 0.70962 0.08319 0.92338 0.0
O173 O 0.69318 0.08014 0.9564 0.0
O174 O 0.71627 0.1145 0.90865 0.0
C175 C 0.61763 0.04081 1.02105 0.0
O176 O 0.66083 0.02654 0.99938 0.0
C177 C 0.69528 0.20097 0.86313 0.0
C178 C 0.73948 0.25421 0.87638 0.0
C179 C 0.71373 0.23429 0.84769 0.0
N180 N 0.71019 0.20137 0.89883 0.0
N181 N 0.7364 0.23334 0.90656 0.0
C182 C 0.6611 0.16977 0.84525 0.0
H183 H 0.6348 0.15341 0.86588 0.0
H184 H 0.62723 0.17996 0.82433 0.0
H185 H 0.69655 0.15161 0.83196 0.0
C186 C 0.55281 0.1526 1.0008 0.0
N187 N 0.60925 0.14504 0.98537 0.0
N188 N 0.6171 0.16529 0.95606 0.0
C189 C 0.56341 0.18536 0.95113 0.0
C190 C 0.52133 0.17803 0.97967 0.0
C191 C 0.52754 0.1339 0.03416 0.0
H192 H 0.56684 0.12865 0.05368 0.0
H193 H 0.50545 0.10764 0.02587 0.0
H194 H 0.49061 0.15041 0.04811 0.0
O195 O 0.74261 0.13365 1.02024 0.0
O196 O 0.76599 0.17114 0.97409 0.0
H197 H 0.59201 0.23116 0.91873 0.0
H198 H 0.50626 0.22539 0.92271 0.0
C199 C 0.55255 0.21089 0.91995 0.0
H200 H 0.55292 0.19518 0.89409 0.0
H201 H 0.75266 0.2408 0.9324 0.0
O202 O 0.62308 0.0741 0.03075 0.0
C203 C 0.7769 0.15891 1.00627 0.0
Co204 Co 0.79924 0.60945 0.54853 0.0
Co205 Co 0.77249 0.66296 0.61255 0.0
C206 C 0.76066 0.58393 0.62453 0.0
O207 O 0.77195 0.58076 0.59085 0.0
O208 O 0.7606 0.61517 0.63978 0.0
C209 C 0.89226 0.56059 0.54386 0.0
O210 O 0.89559 0.57462 0.57677 0.0
C211 C 0.78177 0.70249 0.68214 0.0
C212 C 0.7324 0.75436 0.66991 0.0
C213 C 0.76248 0.73544 0.69787 0.0
N214 N 0.7632 0.70207 0.64701 0.0
N215 N 0.73395 0.73323 0.63985 0.0
C216 C 0.82004 0.67244 0.69908 0.0
H217 H 0.84549 0.65663 0.67775 0.0
H218 H 0.8551 0.68373 0.71881 0.0
H219 H 0.78742 0.65341 0.71359 0.0
C220 C 0.91073 0.65546 0.54039 0.0
N221 N 0.85735 0.64697 0.55869 0.0
N222 N 0.85406 0.66619 0.58884 0.0
C223 C 0.90881 0.68587 0.59183 0.0
C224 C 0.94622 0.67973 0.56087 0.0
C225 C 0.92908 0.63917 0.50438 0.0
H226 H 0.88671 0.62765 0.49034 0.0
H227 H 0.96531 0.61748 0.50869 0.0
H228 H 0.95062 0.66026 0.48645 0.0
O229 O 0.72514 0.63174 0.52587 0.0
O230 O 0.70403 0.66904 0.57265 0.0
H231 H 0.88482 0.72858 0.62925 0.0
H232 H 0.9691 0.72605 0.61795 0.0
C233 C 0.9252 0.70987 0.62345 0.0
H234 H 0.93287 0.69262 0.64792 0.0
H235 H 0.71446 0.73991 0.61454 0.0
O236 O 0.8487 0.5718 0.52221 0.0
C237 C 0.69125 0.65669 0.54061 0.0
Co238 Co 0.68354 0.41284 0.54859 0.0
Co239 Co 0.71012 0.35936 0.61266 0.0
C240 C 0.72199 0.4384 0.62459 0.0
O241 O 0.71079 0.44154 0.5909 0.0
O242 O 0.72198 0.40716 0.63986 0.0
C243 C 0.59055 0.46169 0.54386 0.0
O244 O 0.58719 0.44767 0.57678 0.0
C245 C 0.70046 0.31989 0.68227 0.0
C246 C 0.74989 0.26801 0.67019 0.0
C247 C 0.71962 0.28694 0.69807 0.0
N248 N 0.71927 0.32029 0.64719 0.0
N249 N 0.74857 0.28912 0.64011 0.0
C250 C 0.66207 0.34995 0.69911 0.0
H251 H 0.63682 0.36577 0.67771 0.0
H252 H 0.62683 0.33868 0.71875 0.0
H253 H 0.69458 0.36897 0.7137 0.0
C254 C 0.57208 0.36682 0.54041 0.0
N255 N 0.6254 0.37533 0.55875 0.0
N256 N 0.62862 0.35611 0.5889 0.0
C257 C 0.57387 0.33642 0.59185 0.0
C258 C 0.53655 0.34254 0.56086 0.0
C259 C 0.55384 0.38309 0.50436 0.0
H260 H 0.59624 0.39462 0.49036 0.0
H261 H 0.51759 0.40478 0.50864 0.0
H262 H 0.53236 0.362 0.48642 0.0
O263 O 0.75767 0.39051 0.52599 0.0
O264 O 0.77867 0.35323 0.57281 0.0
H265 H 0.5978 0.29373 0.62931 0.0
H266 H 0.51356 0.29621 0.61792 0.0
C267 C 0.55741 0.31242 0.62346 0.0
H268 H 0.54961 0.32967 0.64792 0.0
H269 H 0.76822 0.28241 0.61484 0.0
O270 O 0.63414 0.45047 0.52223 0.0
C271 C 0.79151 0.36556 0.54077 0.0
C272 C 0.03368 0.99892 0.04764 0.0
C273 C 0.05354 0.02348 1.02035 0.0
H274 H 0.95653 0.96775 0.07027 0.0
C275 C 0.00907 0.03529 0.99429 0.0
H276 H 0.0665 0.9898 0.06857 0.0
C277 C 0.94584 0.02314 0.99569 0.0
C278 C 0.92599 0.99858 0.02298 0.0
H279 H 0.023 0.0543 0.97305 0.0
H280 H 0.91303 0.03225 0.97475 0.0
C281 C 0.97046 0.98677 0.04904 0.0
C282 C 0.53416 0.99912 0.99574 0.0
C283 C 0.55377 0.02376 0.023 0.0
H284 H 0.45724 0.96783 0.97302 0.0
C285 C 0.50908 0.03561 0.04893 0.0
H286 H 0.56714 0.98997 0.9749 0.0
C287 C 0.4459 0.0234 0.04744 0.0
C288 C 0.4263 0.99875 1.02017 0.0
H289 H 0.52283 0.05469 0.07014 0.0
H290 H 0.41292 0.03255 0.06827 0.0
C291 C 0.47098 0.98691 0.99424 0.0
C292 C 0.94558 0.52275 0.49609 0.0
C293 C 0.94212 0.53482 0.53224 0.0
H294 H -0.00405 0.49046 0.4572 0.0
C295 C 0.98846 0.52307 0.55747 0.0
H296 H 0.91081 0.53153 0.47607 0.0
C297 C 0.03745 0.49967 0.54673 0.0
C298 C 0.0409 0.48759 0.51059 0.0
H299 H 0.98708 0.53195 0.58562 0.0
H300 H 0.07222 0.49088 0.56675 0.0
C301 C -0.00543 0.49935 0.48536 0.0
C302 C 0.48816 0.52282 0.4853 0.0
C303 C 0.44184 0.53461 0.51054 0.0
H304 H 0.57193 0.49064 0.47603 0.0
C305 C 0.44534 0.52259 0.5467 0.0
H306 H 0.48674 0.53167 0.45713 0.0
C307 C 0.49436 0.49923 0.55745 0.0
C308 C 0.54068 0.48744 0.53222 0.0
H309 H 0.4106 0.53141 0.56672 0.0
H310 H 0.49578 0.49039 0.58562 0.0
C311 C 0.53718 0.49946 0.49606 0.0
C312 C 0.192 0.9846 0.14165 0.0
C313 C 0.25596 0.97363 0.13894 0.0
H314 H 0.12679 0.02963 0.1386 0.0
C315 C 0.30421 1.00041 0.14117 0.0
H316 H 0.15395 0.96464 0.13892 0.0
C317 C 0.2887 0.03771 0.14144 0.0
C318 C 0.22471 0.04868 0.13899 0.0
H319 H 0.35387 0.99267 0.13815 0.0
H320 H 0.32673 0.05766 0.13855 0.0
C321 C 0.17649 0.0219 0.14143 0.0
C322 C 0.17942 0.49693 0.39555 0.0
C323 C 0.23163 0.47287 0.3981 0.0
H324 H 0.14796 0.55271 0.39858 0.0
C325 C 0.29358 0.4873 0.39552 0.0
H326 H 0.13116 0.48654 0.39845 0.0
C327 C 0.30315 0.5253 0.39549 0.0
C328 C 0.25094 0.54936 0.39809 0.0
H329 H 0.3346 0.46952 0.39849 0.0
H330 H 0.35142 0.53568 0.39834 0.0
C331 C 0.18898 0.53493 0.39557 0.0
C332 C 0.80366 1.0004 0.90182 0.0
C333 C 0.75537 0.97365 0.90418 0.0
H334 H 0.82634 0.05763 0.90438 0.0
C335 C 0.69141 0.98468 0.9017 0.0
H336 H 0.85333 0.99261 0.90468 0.0
C337 C 0.67599 0.02198 0.90199 0.0
C338 C 0.72429 0.04873 0.90426 0.0
H339 H 0.65333 0.96475 0.90454 0.0
H340 H 0.62633 0.02976 0.90497 0.0
C341 C 0.78823 0.03771 0.90161 0.0
C342 C 0.67943 0.49702 0.64725 0.0
C343 C 0.73161 0.47293 0.6447 0.0
H344 H 0.64806 0.55281 0.64421 0.0
C345 C 0.79358 0.48733 0.64723 0.0
H346 H 0.63116 0.48665 0.64437 0.0
C347 C 0.80321 0.52532 0.64724 0.0
C348 C 0.75103 0.54941 0.64466 0.0
H349 H 0.83457 0.46952 0.64426 0.0
H350 H 0.85149 0.53568 0.64436 0.0
C351 C 0.68906 0.53501 0.64721 0.0
C352 C 0.34971 0.15576 0.98253 0.0
C353 C 0.33295 0.17222 1.0159 0.0
H354 H 0.42392 0.14641 0.94343 0.0
C355 C 0.37357 0.19921 0.03048 0.0
H356 H 0.31914 0.13534 0.97008 0.0
C357 C 0.43303 0.2062 1.01444 0.0
C358 C 0.45285 0.18609 0.98386 0.0
H359 H 0.3617 0.21292 0.05575 0.0
H360 H 0.46645 0.22398 0.02845 0.0
C361 C 0.40924 0.16263 0.96669 0.0
C362 C 0.04672 0.81626 1.01455 0.0
C363 C 0.02702 0.83632 0.98393 0.0
H364 H 0.11796 0.80953 0.05591 0.0
C365 C 0.07072 0.85971 0.96673 0.0
H366 H 0.01322 0.79854 0.02858 0.0
C367 C 0.13025 0.86654 0.98257 0.0
C368 C 0.14691 0.85013 1.01598 0.0
H369 H 0.05612 0.87588 0.94342 0.0
H370 H 0.1609 0.8869 0.97009 0.0
C371 C 0.10619 0.82321 0.0306 0.0
C372 C 0.44867 0.31816 0.5225 0.0
C373 C 0.46782 0.33637 0.5544 0.0
H374 H 0.37807 0.31339 0.48048 0.0
C375 C 0.42418 0.35923 0.57222 0.0
H376 H 0.48206 0.30081 0.50804 0.0
C377 C 0.36506 0.36695 0.55627 0.0
C378 C 0.34859 0.35198 0.52213 0.0
H379 H 0.43835 0.3741 0.59648 0.0
H380 H 0.33426 0.38663 0.56957 0.0
C381 C 0.38959 0.32595 0.50641 0.0
C382 C 0.03419 0.70413 0.52258 0.0
C383 C 0.01497 0.68589 0.55446 0.0
H384 H 0.10483 0.70892 0.48057 0.0
C385 C 0.05855 0.66298 0.57225 0.0
H386 H 0.00084 0.72152 0.50813 0.0
C387 C 0.11767 0.65524 0.5563 0.0
C388 C 0.1342 0.67026 0.52218 0.0
H389 H 0.04432 0.64808 0.59648 0.0
H390 H 0.14842 0.63552 0.56958 0.0
C391 C 0.09326 0.69634 0.50649 0.0
C392 C 0.54651 0.81604 0.0281 0.0
C393 C 0.52689 0.83596 0.05883 0.0
H394 H 0.61773 0.80945 0.9867 0.0
C395 C 0.57071 0.85915 0.07618 0.0
H396 H 0.51292 0.79846 1.01397 0.0
C397 C 0.63028 0.86599 0.06038 0.0
C398 C 0.64686 0.84976 0.02686 0.0
H399 H 0.55618 0.87522 0.09958 0.0
H400 H 0.66103 0.88622 0.07298 0.0
C401 C 0.60602 0.82298 1.0121 0.0
C402 C 0.84963 0.15613 0.06056 0.0
C403 C 0.83308 0.17242 0.02707 0.0
H404 H 0.92367 0.14679 0.09975 0.0
C405 C 0.87397 0.19921 1.01235 0.0
H406 H 0.81884 0.13588 0.07312 0.0
C407 C 0.93347 0.20611 0.02838 0.0
C408 C 0.95305 0.18612 0.05908 0.0
H409 H 0.86228 0.21279 0.98698 0.0
H410 H 0.96708 0.2237 1.01427 0.0
C411 C 0.90919 0.16291 0.07638 0.0
C412 C 0.61772 0.65524 0.48649 0.0
C413 C 0.6342 0.67025 0.52062 0.0
H414 H 0.54443 0.64802 0.44631 0.0
C415 C 0.59316 0.69627 0.53633 0.0
H416 H 0.64854 0.63556 0.4732 0.0
C417 C 0.53407 0.70402 0.52024 0.0
C418 C 0.51492 0.68578 0.48835 0.0
H419 H 0.60468 0.70885 0.56225 0.0
H420 H 0.50067 0.72136 0.5347 0.0
C421 C 0.55858 0.66292 0.47055 0.0
C422 C 0.92421 0.35922 0.47072 0.0
C423 C 0.96787 0.3364 0.48856 0.0
H424 H 0.83426 0.38658 0.47333 0.0
C425 C 0.94872 0.31821 0.52048 0.0
H426 H 0.93838 0.37407 0.44645 0.0
C427 C 0.88962 0.32598 0.53656 0.0
C428 C 0.84858 0.35197 0.52081 0.0
H429 H 0.98212 0.30089 0.53497 0.0
H430 H 0.87809 0.31344 0.5625 0.0
C431 C 0.86507 0.36693 0.48665 0.0
C432 C 0.21164 0.29804 0.27698 0.0
C433 C 0.21344 0.27367 0.30661 0.0
H434 H 0.20899 0.30467 0.21906 0.0
C435 C 0.21416 0.23587 0.29927 0.0
H436 H 0.21414 0.32726 0.28106 0.0
C437 C 0.21311 0.22281 0.26339 0.0
C438 C 0.21056 0.2472 0.23378 0.0
H439 H 0.21671 0.21623 0.32134 0.0
H440 H 0.21683 0.19366 0.25918 0.0
C441 C 0.20981 0.28499 0.24114 0.0
C442 C 0.26828 0.79949 0.26342 0.0
C443 C 0.27039 0.77511 0.2338 0.0
H444 H 0.26542 0.80606 0.32139 0.0
C445 C 0.27112 0.73732 0.24115 0.0
H446 H 0.26461 0.82865 0.25923 0.0
C447 C 0.26971 0.72425 0.277 0.0
C448 C 0.26834 0.74863 0.30664 0.0
H449 H 0.27161 0.71764 0.21907 0.0
H450 H 0.26717 0.69504 0.28109 0.0
C451 C 0.26764 0.78642 0.29931 0.0
C452 C 0.76744 0.78647 0.74351 0.0
C453 C 0.76837 0.74867 0.73618 0.0
H454 H 0.76429 0.82869 0.78358 0.0
C455 C 0.77002 0.7243 0.76581 0.0
H456 H 0.765 0.8061 0.72143 0.0
C457 C 0.77152 0.73737 0.80166 0.0
C458 C 0.77056 0.77516 0.80901 0.0
H459 H 0.76767 0.69508 0.76173 0.0
H460 H 0.77223 0.71769 0.82373 0.0
C461 C 0.76815 0.79954 0.77939 0.0
C462 C 0.71419 0.23593 0.74371 0.0
C463 C 0.71338 0.27372 0.73637 0.0
H464 H 0.71691 0.19372 0.78381 0.0
C465 C 0.71148 0.2981 0.76599 0.0
H466 H 0.71682 0.21629 0.72165 0.0
C467 C 0.70963 0.28504 0.80183 0.0
C468 C 0.71047 0.24725 0.8092 0.0
H469 H 0.7139 0.32732 0.76191 0.0
H470 H 0.70874 0.30472 0.8239 0.0
C471 C 0.71313 0.22287 0.77959 0.0
loop_
_geom_bond_atom_site_label_1
_geom_bond_atom_site_label_2
_geom_bond_distance
_geom_bond_site_symmetry_2
_ccdc_geom_bond_type
Co0 O3 1.970 . S
Co0 N17 1.989 . S
Co0 O25 1.967 . S
Co0 O32 1.920 1_554 S
Co1 O4 1.966 . S
Co1 N10 2.022 . S
Co1 N18 1.993 . S
Co1 O26 1.941 . S
C2 O3 1.258 . S
C2 O4 1.263 . S
O3 Co0 1.970 . S
O3 C2 1.258 . S
O4 Co1 1.966 . S
O4 C2 1.263 . S
C5 O6 1.223 1_556 S
C5 O32 1.290 . S
O6 C5 1.223 1_554 S
C7 C9 1.400 . S
C7 N10 1.351 . S
C7 C12 1.501 . S
C8 C9 1.387 . S
C8 N11 1.341 . S
C9 C7 1.400 . S
C9 C8 1.387 . S
N10 Co1 2.022 . S
N10 C7 1.351 . S
N10 N11 1.365 . S
N11 C8 1.341 . S
N11 N10 1.365 . S
N11 H31 0.862 . S
C12 C7 1.501 . S
C12 H13 0.961 . S
C12 H14 0.961 . S
C12 H15 0.960 . S
H13 C12 0.961 . S
H14 C12 0.961 . S
H15 C12 0.960 . S
C16 N17 1.342 1_655 S
C16 C20 1.401 . S
C16 C21 1.499 . S
N17 Co0 1.989 . S
N17 C16 1.342 1_455 S
N17 N18 1.388 . S
N18 Co1 1.993 . S
N18 N17 1.388 . S
N18 C19 1.346 . S
C19 N18 1.346 . S
C19 C20 1.396 1_455 S
C19 C29 1.509 1_455 S
C20 C16 1.401 . S
C20 C19 1.396 1_655 S
C21 C16 1.499 . S
C21 H22 0.959 1_554 S
C21 H23 0.960 . S
C21 H24 0.961 1_554 S
H22 C21 0.959 1_556 S
H23 C21 0.960 . S
H24 C21 0.961 1_556 S
O25 Co0 1.967 . S
O25 C33 1.258 . S
O26 Co1 1.941 . S
O26 C33 1.266 . S
H27 C29 0.962 . S
H28 C29 0.973 . S
C29 C19 1.509 1_655 S
C29 H27 0.962 . S
C29 H28 0.973 . S
C29 H30 0.947 1_655 S
H30 C29 0.947 1_455 S
H31 N11 0.862 . S
O32 Co0 1.920 1_556 S
O32 C5 1.290 . S
C33 O25 1.258 . S
C33 O26 1.266 . S
Co34 O37 1.970 . S
Co34 N51 1.989 . S
Co34 O59 1.967 . S
Co34 O66 1.920 1_554 S
Co35 O38 1.966 . S
Co35 N44 2.022 . S
Co35 N52 1.993 . S
Co35 O60 1.941 . S
C36 O37 1.258 . S
C36 O38 1.263 . S
O37 Co34 1.970 . S
O37 C36 1.258 . S
O38 Co35 1.966 . S
O38 C36 1.263 . S
C39 O40 1.223 1_556 S
C39 O66 1.290 . S
O40 C39 1.223 1_554 S
C41 C43 1.400 . S
C41 N44 1.351 . S
C41 C46 1.501 . S
C42 C43 1.387 . S
C42 N45 1.341 . S
C43 C41 1.400 . S
C43 C42 1.387 . S
N44 Co35 2.022 . S
N44 C41 1.351 . S
N44 N45 1.365 . S
N45 C42 1.341 . S
N45 N44 1.365 . S
N45 H65 0.862 . S
C46 C41 1.501 . S
C46 H47 0.961 . S
C46 H48 0.961 . S
C46 H49 0.960 . S
H47 C46 0.961 . S
H48 C46 0.961 . S
H49 C46 0.960 . S
C50 N51 1.342 . S
C50 C54 1.401 . S
C50 C55 1.499 . S
N51 Co34 1.989 . S
N51 C50 1.342 . S
N51 N52 1.388 . S
N52 Co35 1.993 . S
N52 N51 1.388 . S
N52 C53 1.346 . S
C53 N52 1.346 . S
C53 C54 1.396 . S
C53 C63 1.510 . S
C54 C50 1.401 . S
C54 C53 1.396 . S
C55 C50 1.499 . S
C55 H56 0.959 1_554 S
C55 H57 0.960 . S
C55 H58 0.961 1_554 S
H56 C55 0.959 1_556 S
H57 C55 0.960 . S
H58 C55 0.961 1_556 S
O59 Co34 1.967 . S
O59 C67 1.258 . S
O60 Co35 1.941 . S
O60 C67 1.266 . S
H61 C63 0.959 . S
H62 C63 0.961 . S
C63 C53 1.510 . S
C63 H61 0.959 . S
C63 H62 0.961 . S
C63 H64 0.960 . S
H64 C63 0.960 . S
H65 N45 0.862 . S
O66 Co34 1.920 1_556 S
O66 C39 1.290 . S
C67 O59 1.258 . S
C67 O60 1.266 . S
Co68 O71 1.970 . S
Co68 N85 1.989 . S
Co68 O93 1.967 . S
Co68 O100 1.920 . S
Co69 O72 1.966 . S
Co69 N78 2.022 . S
Co69 N86 1.993 . S
Co69 O94 1.941 . S
C70 O71 1.258 . S
C70 O72 1.263 . S
O71 Co68 1.970 . S
O71 C70 1.258 . S
O72 Co69 1.966 . S
O72 C70 1.263 . S
C73 O74 1.235 . S
C73 O100 1.289 . S
O74 C73 1.235 . S
C75 C77 1.400 . S
C75 N78 1.351 . S
C75 C80 1.501 . S
C76 C77 1.387 . S
C76 N79 1.341 . S
C77 C75 1.400 . S
C77 C76 1.387 . S
N78 Co69 2.022 . S
N78 C75 1.351 . S
N78 N79 1.365 . S
N79 C76 1.341 . S
N79 N78 1.365 . S
N79 H99 0.862 . S
C80 C75 1.501 . S
C80 H81 0.961 . S
C80 H82 0.961 . S
C80 H83 0.960 . S
H81 C80 0.961 . S
H82 C80 0.961 . S
H83 C80 0.960 . S
C84 N85 1.342 1_655 S
C84 C88 1.401 . S
C84 C89 1.499 . S
N85 Co68 1.989 . S
N85 C84 1.342 1_455 S
N85 N86 1.388 . S
N86 Co69 1.993 . S
N86 N85 1.388 . S
N86 C87 1.346 . S
C87 N86 1.346 . S
C87 C88 1.396 1_455 S
C87 C97 1.509 1_455 S
C88 C84 1.401 . S
C88 C87 1.396 1_655 S
C89 C84 1.499 . S
C89 H90 0.959 . S
C89 H91 0.960 . S
C89 H92 0.961 . S
H90 C89 0.959 . S
H91 C89 0.960 . S
H92 C89 0.961 . S
O93 Co68 1.967 . S
O93 C101 1.258 . S
O94 Co69 1.941 . S
O94 C101 1.266 . S
H95 C97 0.962 . S
H96 C97 0.973 . S
C97 C87 1.509 1_655 S
C97 H95 0.962 . S
C97 H96 0.973 . S
C97 H98 0.947 1_655 S
H98 C97 0.947 1_455 S
H99 N79 0.862 . S
O100 Co68 1.920 . S
O100 C73 1.289 . S
C101 O93 1.258 . S
C101 O94 1.266 . S
Co102 O105 1.970 . S
Co102 N119 1.989 . S
Co102 O127 1.967 . S
Co102 O134 1.920 . S
Co103 O106 1.966 . S
Co103 N112 2.022 . S
Co103 N120 1.993 . S
Co103 O128 1.941 . S
C104 O105 1.258 . S
C104 O106 1.263 . S
O105 Co102 1.970 . S
O105 C104 1.258 . S
O106 Co103 1.966 . S
O106 C104 1.263 . S
C107 O108 1.235 . S
C107 O134 1.289 . S
O108 C107 1.235 . S
C109 C111 1.400 . S
C109 N112 1.351 . S
C109 C114 1.501 . S
C110 C111 1.387 . S
C110 N113 1.341 . S
C111 C109 1.400 . S
C111 C110 1.387 . S
N112 Co103 2.022 . S
N112 C109 1.351 . S
N112 N113 1.365 . S
N113 C110 1.341 . S
N113 N112 1.365 . S
N113 H133 0.862 . S
C114 C109 1.501 . S
C114 H115 0.961 . S
C114 H116 0.961 . S
C114 H117 0.960 . S
H115 C114 0.961 . S
H116 C114 0.961 . S
H117 C114 0.960 . S
C118 N119 1.342 . S
C118 C122 1.401 . S
C118 C123 1.499 . S
N119 Co102 1.989 . S
N119 C118 1.342 . S
N119 N120 1.388 . S
N120 Co103 1.993 . S
N120 N119 1.388 . S
N120 C121 1.346 . S
C121 N120 1.346 . S
C121 C122 1.396 . S
C121 C131 1.510 . S
C122 C118 1.401 . S
C122 C121 1.396 . S
C123 C118 1.499 . S
C123 H124 0.959 . S
C123 H125 0.960 . S
C123 H126 0.961 . S
H124 C123 0.959 . S
H125 C123 0.960 . S
H126 C123 0.961 . S
O127 Co102 1.967 . S
O127 C135 1.258 . S
O128 Co103 1.941 . S
O128 C135 1.266 . S
H129 C131 0.959 . S
H130 C131 0.961 . S
C131 C121 1.510 . S
C131 H129 0.959 . S
C131 H130 0.961 . S
C131 H132 0.960 . S
H132 C131 0.960 . S
H133 N113 0.862 . S
O134 Co102 1.920 . S
O134 C107 1.289 . S
C135 O127 1.258 . S
C135 O128 1.266 . S
Co136 O139 1.970 . S
Co136 N153 1.989 . S
Co136 O161 1.967 . S
Co136 O168 1.920 1_556 S
Co137 O140 1.966 . S
Co137 N146 2.022 . S
Co137 N154 1.993 . S
Co137 O162 1.941 . S
C138 O139 1.258 . S
C138 O140 1.263 . S
O139 Co136 1.970 . S
O139 C138 1.258 . S
O140 Co137 1.966 . S
O140 C138 1.263 . S
C141 O142 1.223 1_554 S
C141 O168 1.290 . S
O142 C141 1.223 1_556 S
C143 C145 1.400 . S
C143 N146 1.351 . S
C143 C148 1.501 . S
C144 C145 1.387 . S
C144 N147 1.341 . S
C145 C143 1.400 . S
C145 C144 1.387 . S
N146 Co137 2.022 . S
N146 C143 1.351 . S
N146 N147 1.365 . S
N147 C144 1.341 . S
N147 N146 1.365 . S
N147 H167 0.862 . S
C148 C143 1.501 . S
C148 H149 0.961 . S
C148 H150 0.961 . S
C148 H151 0.960 . S
H149 C148 0.961 . S
H150 C148 0.961 . S
H151 C148 0.960 . S
C152 N153 1.342 1_455 S
C152 C156 1.401 . S
C152 C157 1.499 . S
N153 Co136 1.989 . S
N153 C152 1.342 1_655 S
N153 N154 1.388 . S
N154 Co137 1.993 . S
N154 N153 1.388 . S
N154 C155 1.346 . S
C155 N154 1.346 . S
C155 C156 1.396 1_655 S
C155 C165 1.509 1_655 S
C156 C152 1.401 . S
C156 C155 1.396 1_455 S
C157 C152 1.499 . S
C157 H158 0.959 1_556 S
C157 H159 0.960 . S
C157 H160 0.961 1_556 S
H158 C157 0.959 1_554 S
H159 C157 0.960 . S
H160 C157 0.961 1_554 S
O161 Co136 1.967 . S
O161 C169 1.258 . S
O162 Co137 1.941 . S
O162 C169 1.266 . S
H163 C165 0.962 . S
H164 C165 0.973 . S
C165 C155 1.509 1_455 S
C165 H163 0.962 . S
C165 H164 0.973 . S
C165 H166 0.947 1_455 S
H166 C165 0.947 1_655 S
H167 N147 0.862 . S
O168 Co136 1.920 1_554 S
O168 C141 1.290 . S
C169 O161 1.258 . S
C169 O162 1.266 . S
Co170 O173 1.970 . S
Co170 N187 1.989 . S
Co170 O195 1.967 . S
Co170 O202 1.920 1_556 S
Co171 O174 1.966 . S
Co171 N180 2.022 . S
Co171 N188 1.993 . S
Co171 O196 1.941 . S
C172 O173 1.258 . S
C172 O174 1.263 . S
O173 Co170 1.970 . S
O173 C172 1.258 . S
O174 Co171 1.966 . S
O174 C172 1.263 . S
C175 O176 1.223 1_554 S
C175 O202 1.290 . S
O176 C175 1.223 1_556 S
C177 C179 1.400 . S
C177 N180 1.351 . S
C177 C182 1.501 . S
C178 C179 1.387 . S
C178 N181 1.341 . S
C179 C177 1.400 . S
C179 C178 1.387 . S
N180 Co171 2.022 . S
N180 C177 1.351 . S
N180 N181 1.365 . S
N181 C178 1.341 . S
N181 N180 1.365 . S
N181 H201 0.862 . S
C182 C177 1.501 . S
C182 H183 0.961 . S
C182 H184 0.961 . S
C182 H185 0.960 . S
H183 C182 0.961 . S
H184 C182 0.961 . S
H185 C182 0.960 . S
C186 N187 1.342 . S
C186 C190 1.401 . S
C186 C191 1.499 . S
N187 Co170 1.989 . S
N187 C186 1.342 . S
N187 N188 1.388 . S
N188 Co171 1.993 . S
N188 N187 1.388 . S
N188 C189 1.346 . S
C189 N188 1.346 . S
C189 C190 1.396 . S
C189 C199 1.510 . S
C190 C186 1.401 . S
C190 C189 1.396 . S
C191 C186 1.499 . S
C191 H192 0.959 1_556 S
C191 H193 0.960 . S
C191 H194 0.961 1_556 S
H192 C191 0.959 1_554 S
H193 C191 0.960 . S
H194 C191 0.961 1_554 S
O195 Co170 1.967 . S
O195 C203 1.258 . S
O196 Co171 1.941 . S
O196 C203 1.266 . S
H197 C199 0.959 . S
H198 C199 0.961 . S
C199 C189 1.510 . S
C199 H197 0.959 . S
C199 H198 0.961 . S
C199 H200 0.960 . S
H200 C199 0.960 . S
H201 N181 0.862 . S
O202 Co170 1.920 1_554 S
O202 C175 1.290 . S
C203 O195 1.258 . S
C203 O196 1.266 . S
Co204 O207 1.970 . S
Co204 N221 1.989 . S
Co204 O229 1.967 . S
Co204 O236 1.920 . S
Co205 O208 1.966 . S
Co205 N214 2.022 . S
Co205 N222 1.993 . S
Co205 O230 1.941 . S
C206 O207 1.258 . S
C206 O208 1.263 . S
O207 Co204 1.970 . S
O207 C206 1.258 . S
O208 Co205 1.966 . S
O208 C206 1.263 . S
C209 O210 1.235 . S
C209 O236 1.289 . S
O210 C209 1.235 . S
C211 C213 1.400 . S
C211 N214 1.351 . S
C211 C216 1.501 . S
C212 C213 1.387 . S
C212 N215 1.341 . S
C213 C211 1.400 . S
C213 C212 1.387 . S
N214 Co205 2.022 . S
N214 C211 1.351 . S
N214 N215 1.365 . S
N215 C212 1.341 . S
N215 N214 1.365 . S
N215 H235 0.862 . S
C216 C211 1.501 . S
C216 H217 0.961 . S
C216 H218 0.961 . S
C216 H219 0.960 . S
H217 C216 0.961 . S
H218 C216 0.961 . S
H219 C216 0.960 . S
C220 N221 1.342 1_455 S
C220 C224 1.401 . S
C220 C225 1.499 . S
N221 Co204 1.989 . S
N221 C220 1.342 1_655 S
N221 N222 1.388 . S
N222 Co205 1.993 . S
N222 N221 1.388 . S
N222 C223 1.346 . S
C223 N222 1.346 . S
C223 C224 1.396 1_655 S
C223 C233 1.509 1_655 S
C224 C220 1.401 . S
C224 C223 1.396 1_455 S
C225 C220 1.499 . S
C225 H226 0.959 . S
C225 H227 0.960 . S
C225 H228 0.961 . S
H226 C225 0.959 . S
H227 C225 0.960 . S
H228 C225 0.961 . S
O229 Co204 1.967 . S
O229 C237 1.258 . S
O230 Co205 1.941 . S
O230 C237 1.266 . S
H231 C233 0.962 . S
H232 C233 0.973 . S
C233 C223 1.509 1_455 S
C233 H231 0.962 . S
C233 H232 0.973 . S
C233 H234 0.947 1_455 S
H234 C233 0.947 1_655 S
H235 N215 0.862 . S
O236 Co204 1.920 . S
O236 C209 1.289 . S
C237 O229 1.258 . S
C237 O230 1.266 . S
Co238 O241 1.970 . S
Co238 N255 1.989 . S
Co238 O263 1.967 . S
Co238 O270 1.920 . S
Co239 O242 1.966 . S
Co239 N248 2.022 . S
Co239 N256 1.993 . S
Co239 O264 1.941 . S
C240 O241 1.258 . S
C240 O242 1.263 . S
O241 Co238 1.970 . S
O241 C240 1.258 . S
O242 Co239 1.966 . S
O242 C240 1.263 . S
C243 O244 1.235 . S
C243 O270 1.289 . S
O244 C243 1.235 . S
C245 C247 1.400 . S
C245 N248 1.351 . S
C245 C250 1.501 . S
C246 C247 1.387 . S
C246 N249 1.341 . S
C247 C245 1.400 . S
C247 C246 1.387 . S
N248 Co239 2.022 . S
N248 C245 1.351 . S
N248 N249 1.365 . S
N249 C246 1.341 . S
N249 N248 1.365 . S
N249 H269 0.862 . S
C250 C245 1.501 . S
C250 H251 0.961 . S
C250 H252 0.961 . S
C250 H253 0.960 . S
H251 C250 0.961 . S
H252 C250 0.961 . S
H253 C250 0.960 . S
C254 N255 1.342 . S
C254 C258 1.401 . S
C254 C259 1.499 . S
N255 Co238 1.989 . S
N255 C254 1.342 . S
N255 N256 1.388 . S
N256 Co239 1.993 . S
N256 N255 1.388 . S
N256 C257 1.346 . S
C257 N256 1.346 . S
C257 C258 1.396 . S
C257 C267 1.510 . S
C258 C254 1.401 . S
C258 C257 1.396 . S
C259 C254 1.499 . S
C259 H260 0.959 . S
C259 H261 0.960 . S
C259 H262 0.961 . S
H260 C259 0.959 . S
H261 C259 0.960 . S
H262 C259 0.961 . S
O263 Co238 1.967 . S
O263 C271 1.258 . S
O264 Co239 1.941 . S
O264 C271 1.266 . S
H265 C267 0.959 . S
H266 C267 0.961 . S
C267 C257 1.510 . S
C267 H265 0.959 . S
C267 H266 0.961 . S
C267 H268 0.960 . S
H268 C267 0.960 . S
H269 N249 0.862 . S
O270 Co238 1.920 . S
O270 C243 1.289 . S
C271 O263 1.258 . S
C271 O264 1.266 . S
C272 C273 1.387 1_565 S
C272 H276 0.950 . S
C272 C281 1.390 1_455 S
C273 C272 1.387 1_545 S
C273 C275 1.387 1_556 S
H274 C281 0.950 . S
C275 C273 1.387 1_554 S
C275 C277 1.390 1_455 S
C275 H279 0.950 . S
H276 C272 0.950 . S
C277 C275 1.390 1_655 S
C277 C278 1.387 1_545 S
C277 H280 0.950 . S
C278 C277 1.387 1_565 S
C278 C281 1.387 1_554 S
H279 C275 0.950 . S
H280 C277 0.950 . S
C281 C272 1.390 1_655 S
C281 H274 0.950 . S
C281 C278 1.387 1_556 S
C282 C283 1.387 1_565 S
C282 H286 0.950 . S
C282 C291 1.390 . S
C283 C282 1.387 1_545 S
C283 C285 1.387 1_554 S
H284 C291 0.950 . S
C285 C283 1.387 1_556 S
C285 C287 1.390 . S
C285 H289 0.950 . S
H286 C282 0.950 . S
C287 C285 1.390 . S
C287 C288 1.387 1_545 S
C287 H290 0.950 . S
C288 C287 1.387 1_565 S
C288 C291 1.387 1_556 S
H289 C285 0.950 . S
H290 C287 0.950 . S
C291 C282 1.390 . S
C291 H284 0.950 . S
C291 C288 1.387 1_554 S
C292 C293 1.387 1_455 S
C292 H296 0.950 . S
C292 C301 1.390 . S
C293 C292 1.387 1_655 S
C293 C295 1.387 . S
H294 C301 0.950 . S
C295 C293 1.387 . S
C295 C297 1.390 . S
C295 H299 0.950 . S
H296 C292 0.950 . S
C297 C295 1.390 . S
C297 C298 1.387 1_655 S
C297 H300 0.950 . S
C298 C297 1.387 1_455 S
C298 C301 1.387 . S
H299 C295 0.950 . S
H300 C297 0.950 . S
C301 C292 1.390 . S
C301 H294 0.950 . S
C301 C298 1.387 . S
C302 C303 1.387 . S
C302 H306 0.950 . S
C302 C311 1.390 . S
C303 C302 1.387 . S
C303 C305 1.387 . S
H304 C311 0.950 . S
C305 C303 1.387 . S
C305 C307 1.390 . S
C305 H309 0.950 . S
H306 C302 0.950 . S
C307 C305 1.390 . S
C307 C308 1.387 . S
C307 H310 0.950 . S
C308 C307 1.387 . S
C308 C311 1.387 . S
H309 C305 0.950 . S
H310 C307 0.950 . S
C311 C302 1.390 . S
C311 H304 0.950 . S
C311 C308 1.387 . S
C312 C313 1.387 . S
C312 H316 0.950 . S
C312 C321 1.390 1_565 S
C313 C312 1.387 . S
C313 C315 1.387 . S
H314 C321 0.950 . S
C315 C313 1.387 . S
C315 C317 1.390 1_565 S
C315 H319 0.950 . S
H316 C312 0.950 . S
C317 C315 1.390 1_545 S
C317 C318 1.387 . S
C317 H320 0.950 . S
C318 C317 1.387 . S
C318 C321 1.387 . S
H319 C315 0.950 . S
H320 C317 0.950 . S
C321 C312 1.390 1_545 S
C321 H314 0.950 . S
C321 C318 1.387 . S
C322 C323 1.387 . S
C322 H326 0.950 . S
C322 C331 1.390 . S
C323 C322 1.387 . S
C323 C325 1.387 . S
H324 C331 0.950 . S
C325 C323 1.387 . S
C325 C327 1.390 . S
C325 H329 0.950 . S
H326 C322 0.950 . S
C327 C325 1.390 . S
C327 C328 1.387 . S
C327 H330 0.950 . S
C328 C327 1.387 . S
C328 C331 1.387 . S
H329 C325 0.950 . S
H330 C327 0.950 . S
C331 C322 1.390 . S
C331 H324 0.950 . S
C331 C328 1.387 . S
C332 C333 1.387 . S
C332 H336 0.950 . S
C332 C341 1.390 1_565 S
C333 C332 1.387 . S
C333 C335 1.387 . S
H334 C341 0.950 . S
C335 C333 1.387 . S
C335 C337 1.390 1_565 S
C335 H339 0.950 . S
H336 C332 0.950 . S
C337 C335 1.390 1_545 S
C337 C338 1.387 . S
C337 H340 0.950 . S
C338 C337 1.387 . S
C338 C341 1.387 . S
H339 C335 0.950 . S
H340 C337 0.950 . S
C341 C332 1.390 1_545 S
C341 H334 0.950 . S
C341 C338 1.387 . S
C342 C343 1.387 . S
C342 H346 0.950 . S
C342 C351 1.390 . S
C343 C342 1.387 . S
C343 C345 1.387 . S
H344 C351 0.950 . S
C345 C343 1.387 . S
C345 C347 1.390 . S
C345 H349 0.950 . S
H346 C342 0.950 . S
C347 C345 1.390 . S
C347 C348 1.387 . S
C347 H350 0.950 . S
C348 C347 1.387 . S
C348 C351 1.387 . S
H349 C345 0.950 . S
H350 C347 0.950 . S
C351 C342 1.390 . S
C351 H344 0.950 . S
C351 C348 1.387 . S
C352 C353 1.387 1_556 S
C352 H356 0.950 . S
C352 C361 1.390 . S
C353 C352 1.387 1_554 S
C353 C355 1.387 . S
H354 C361 0.950 . S
C355 C353 1.387 . S
C355 C357 1.390 1_554 S
C355 H359 0.950 . S
H356 C352 0.950 . S
C357 C355 1.390 1_556 S
C357 C358 1.387 . S
C357 H360 0.950 . S
C358 C357 1.387 . S
C358 C361 1.387 . S
H359 C355 0.950 . S
H360 C357 0.950 . S
C361 C352 1.390 . S
C361 H354 0.950 . S
C361 C358 1.387 . S
C362 C363 1.387 . S
C362 H366 0.950 . S
C362 C371 1.377 1_556 S
C363 C362 1.387 . S
C363 C365 1.387 . S
H364 C371 0.960 . S
C365 C363 1.387 . S
C365 C367 1.390 . S
C365 H369 0.950 . S
H366 C362 0.950 . S
C367 C365 1.390 . S
C367 C368 1.387 1_556 S
C367 H370 0.950 . S
C368 C367 1.387 1_554 S
C368 C371 1.390 . S
H369 C365 0.950 . S
H370 C367 0.950 . S
C371 C362 1.377 1_554 S
C371 H364 0.960 . S
C371 C368 1.390 . S
C372 C373 1.387 . S
C372 H376 0.950 . S
C372 C381 1.390 . S
C373 C372 1.387 . S
C373 C375 1.387 . S
H374 C381 0.950 . S
C375 C373 1.387 . S
C375 C377 1.390 . S
C375 H379 0.950 . S
H376 C372 0.950 . S
C377 C375 1.390 . S
C377 C378 1.387 . S
C377 H380 0.950 . S
C378 C377 1.387 . S
C378 C381 1.387 . S
H379 C375 0.950 . S
H380 C377 0.950 . S
C381 C372 1.390 . S
C381 H374 0.950 . S
C381 C378 1.387 . S
C382 C383 1.387 . S
C382 H386 0.950 . S
C382 C391 1.390 . S
C383 C382 1.387 . S
C383 C385 1.387 . S
H384 C391 0.950 . S
C385 C383 1.387 . S
C385 C387 1.390 . S
C385 H389 0.950 . S
H386 C382 0.950 . S
C387 C385 1.390 . S
C387 C388 1.387 . S
C387 H390 0.950 . S
C388 C387 1.387 . S
C388 C391 1.387 . S
H389 C385 0.950 . S
H390 C387 0.950 . S
C391 C382 1.390 . S
C391 H384 0.950 . S
C391 C388 1.387 . S
C392 C393 1.387 . S
C392 H396 0.950 . S
C392 C401 1.390 1_554 S
C393 C392 1.387 . S
C393 C395 1.387 . S
H394 C401 0.950 . S
C395 C393 1.387 . S
C395 C397 1.390 . S
C395 H399 0.950 . S
H396 C392 0.950 . S
C397 C395 1.390 . S
C397 C398 1.387 1_554 S
C397 H400 0.950 . S
C398 C397 1.387 1_556 S
C398 C401 1.387 . S
H399 C395 0.950 . S
H400 C397 0.950 . S
C401 C392 1.390 1_556 S
C401 H394 0.950 . S
C401 C398 1.387 . S
C402 C403 1.387 1_554 S
C402 H406 0.950 . S
C402 C411 1.390 . S
C403 C402 1.387 1_556 S
C403 C405 1.387 . S
H404 C411 0.950 . S
C405 C403 1.387 . S
C405 C407 1.390 1_556 S
C405 H409 0.950 . S
H406 C402 0.950 . S
C407 C405 1.390 1_554 S
C407 C408 1.387 . S
C407 H410 0.950 . S
C408 C407 1.387 . S
C408 C411 1.387 . S
H409 C405 0.950 . S
H410 C407 0.950 . S
C411 C402 1.390 . S
C411 H404 0.950 . S
C411 C408 1.387 . S
C412 C413 1.387 . S
C412 H416 0.950 . S
C412 C421 1.390 . S
C413 C412 1.387 . S
C413 C415 1.387 . S
H414 C421 0.950 . S
C415 C413 1.387 . S
C415 C417 1.390 . S
C415 H419 0.950 . S
H416 C412 0.950 . S
C417 C415 1.390 . S
C417 C418 1.387 . S
C417 H420 0.950 . S
C418 C417 1.387 . S
C418 C421 1.387 . S
H419 C415 0.950 . S
H420 C417 0.950 . S
C421 C412 1.390 . S
C421 H414 0.950 . S
C421 C418 1.387 . S
C422 C423 1.387 . S
C422 H426 0.950 . S
C422 C431 1.390 . S
C423 C422 1.387 . S
C423 C425 1.387 . S
H424 C431 0.950 . S
C425 C423 1.387 . S
C425 C427 1.390 . S
C425 H429 0.950 . S
H426 C422 0.950 . S
C427 C425 1.390 . S
C427 C428 1.387 . S
C427 H430 0.950 . S
C428 C427 1.387 . S
C428 C431 1.387 . S
H429 C425 0.950 . S
H430 C427 0.950 . S
C431 C422 1.390 . S
C431 H424 0.950 . S
C431 C428 1.387 . S
C432 C433 1.387 . S
C432 H436 0.950 . S
C432 C441 1.390 . S
C433 C432 1.387 . S
C433 C435 1.387 . S
H434 C441 0.950 . S
C435 C433 1.387 . S
C435 C437 1.390 . S
C435 H439 0.950 . S
H436 C432 0.950 . S
C437 C435 1.390 . S
C437 C438 1.387 . S
C437 H440 0.950 . S
C438 C437 1.387 . S
C438 C441 1.387 . S
H439 C435 0.950 . S
H440 C437 0.950 . S
C441 C432 1.390 . S
C441 H434 0.950 . S
C441 C438 1.387 . S
C442 C443 1.387 . S
C442 H446 0.950 . S
C442 C451 1.390 . S
C443 C442 1.387 . S
C443 C445 1.387 . S
H444 C451 0.950 . S
C445 C443 1.387 . S
C445 C447 1.390 . S
C445 H449 0.950 . S
H446 C442 0.950 . S
C447 C445 1.390 . S
C447 C448 1.387 . S
C447 H450 0.950 . S
C448 C447 1.387 . S
C448 C451 1.387 . S
H449 C445 0.950 . S
H450 C447 0.950 . S
C451 C442 1.390 . S
C451 H444 0.950 . S
C451 C448 1.387 . S
C452 C453 1.387 . S
C452 H456 0.950 . S
C452 C461 1.390 . S
C453 C452 1.387 . S
C453 C455 1.387 . S
H454 C461 0.950 . S
C455 C453 1.387 . S
C455 C457 1.390 . S
C455 H459 0.950 . S
H456 C452 0.950 . S
C457 C455 1.390 . S
C457 C458 1.387 . S
C457 H460 0.950 . S
C458 C457 1.387 . S
C458 C461 1.387 . S
H459 C455 0.950 . S
H460 C457 0.950 . S
C461 C452 1.390 . S
C461 H454 0.950 . S
C461 C458 1.387 . S
C462 C463 1.387 . S
C462 H466 0.950 . S
C462 C471 1.390 . S
C463 C462 1.387 . S
C463 C465 1.387 . S
H464 C471 0.950 . S
C465 C463 1.387 . S
C465 C467 1.390 . S
C465 H469 0.950 . S
H466 C462 0.950 . S
C467 C465 1.390 . S
C467 C468 1.387 . S
C467 H470 0.950 . S
C468 C467 1.387 . S
C468 C471 1.387 . S
H469 C465 0.950 . S
H470 C467 0.950 . S
C471 C462 1.390 . S
C471 H464 0.950 . S
C471 C468 1.387 . S
C273 C5 0.854 . S
C278 C141 0.854 . S
C283 C175 0.851 . S
C288 C39 0.851 . S
C293 C209 0.848 . S
C298 C73 0.848 . S
C303 C107 0.845 . S
C308 C243 0.845 . S
C313 C36 2.011 . S
C318 C2 2.011 . S
C323 C70 2.011 . S
C328 C104 2.011 . S
C333 C138 2.011 . S
C338 C172 2.011 . S
C343 C240 2.011 . S
C348 C206 2.011 . S
C353 C33 1.653 . S
C358 C190 1.528 . S
C363 C156 1.525 . S
C368 C67 1.654 . S
C373 C258 1.525 . S
C378 C101 1.654 . S
C383 C224 1.524 . S
C388 C135 1.654 . S
C393 C54 1.528 . S
C398 C169 1.653 . S
C403 C203 1.654 . S
C408 C20 1.525 . S
C413 C237 1.654 . S
C418 C122 1.524 . S
C423 C88 1.524 . S
C428 C271 1.654 . S
C433 C77 1.400 . S
C438 C9 1.400 . S
C443 C43 1.400 . S
C448 C111 1.400 . S
C453 C213 1.400 . S
C458 C145 1.400 . S
C463 C247 1.400 . S
C468 C179 1.400 . S
