# Generated by pormake.
# Topology wkb, (5)-cn, num edge types: 1
# Building blocks:
#     Node 0, Type 0, BuildingBlock: BEQFEK_clean_sbu_0, # of connection points: 5
#     Node 1, Type 0, BuildingBlock: BEQFEK_clean_sbu_0, # of connection points: 5
#     Node 2, Type 0, BuildingBlock: BEQFEK_clean_sbu_0, # of connection points: 5
#     Node 3, Type 0, BuildingBlock: BEQFEK_clean_sbu_0, # of connection points: 5
#     Node 4, Type 0, BuildingBlock: BEQFEK_clean_sbu_0, # of connection points: 5
#     Node 5, Type 0, BuildingBlock: BEQFEK_clean_sbu_0, # of connection points: 5
#     Node 6, Type 0, BuildingBlock: BEQFEK_clean_sbu_0, # of connection points: 5
#     Node 7, Type 0, BuildingBlock: BEQFEK_clean_sbu_0, # of connection points: 5
#     Node 8, Type 0, BuildingBlock: BEQFEK_clean_sbu_0, # of connection points: 5
#     Node 9, Type 0, BuildingBlock: BEQFEK_clean_sbu_0, # of connection points: 5
#     Node 10, Type 0, BuildingBlock: BEQFEK_clean_sbu_0, # of connection points: 5
#     Node 11, Type 0, BuildingBlock: BEQFEK_clean_sbu_0, # of connection points: 5
#     Edge 12, Type (0, 0), BuildingBlock: AJUNOK_clean_linker_0, # of connection points: 2
#     Edge 13, Type (0, 0), BuildingBlock: AJUNOK_clean_linker_0, # of connection points: 2
#     Edge 14, Type (0, 0), BuildingBlock: AJUNOK_clean_linker_0, # of connection points: 2
#     Edge 15, Type (0, 0), BuildingBlock: AJUNOK_clean_linker_0, # of connection points: 2
#     Edge 16, Type (0, 0), BuildingBlock: AJUNOK_clean_linker_0, # of connection points: 2
#     Edge 17, Type (0, 0), BuildingBlock: AJUNOK_clean_linker_0, # of connection points: 2
#     Edge 18, Type (0, 0), BuildingBlock: AJUNOK_clean_linker_0, # of connection points: 2
#     Edge 19, Type (0, 0), BuildingBlock: AJUNOK_clean_linker_0, # of connection points: 2
#     Edge 20, Type (0, 0), BuildingBlock: AJUNOK_clean_linker_0, # of connection points: 2
#     Edge 21, Type (0, 0), BuildingBlock: AJUNOK_clean_linker_0, # of connection points: 2
#     Edge 22, Type (0, 0), BuildingBlock: AJUNOK_clean_linker_0, # of connection points: 2
#     Edge 23, Type (0, 0), BuildingBlock: AJUNOK_clean_linker_0, # of connection points: 2
#     Edge 24, Type (0, 0), BuildingBlock: AJUNOK_clean_linker_0, # of connection points: 2
#     Edge 25, Type (0, 0), BuildingBlock: AJUNOK_clean_linker_0, # of connection points: 2
#     Edge 26, Type (0, 0), BuildingBlock: AJUNOK_clean_linker_0, # of connection points: 2
#     Edge 27, Type (0, 0), BuildingBlock: AJUNOK_clean_linker_0, # of connection points: 2
#     Edge 28, Type (0, 0), BuildingBlock: AJUNOK_clean_linker_0, # of connection points: 2
#     Edge 29, Type (0, 0), BuildingBlock: AJUNOK_clean_linker_0, # of connection points: 2
#     Edge 30, Type (0, 0), BuildingBlock: AJUNOK_clean_linker_0, # of connection points: 2
#     Edge 31, Type (0, 0), BuildingBlock: AJUNOK_clean_linker_0, # of connection points: 2
#     Edge 32, Type (0, 0), BuildingBlock: AJUNOK_clean_linker_0, # of connection points: 2
#     Edge 33, Type (0, 0), BuildingBlock: AJUNOK_clean_linker_0, # of connection points: 2
#     Edge 34, Type (0, 0), BuildingBlock: AJUNOK_clean_linker_0, # of connection points: 2
#     Edge 35, Type (0, 0), BuildingBlock: AJUNOK_clean_linker_0, # of connection points: 2
#     Edge 36, Type (0, 0), BuildingBlock: AJUNOK_clean_linker_0, # of connection points: 2
#     Edge 37, Type (0, 0), BuildingBlock: AJUNOK_clean_linker_0, # of connection points: 2
#     Edge 38, Type (0, 0), BuildingBlock: AJUNOK_clean_linker_0, # of connection points: 2
#     Edge 39, Type (0, 0), BuildingBlock: AJUNOK_clean_linker_0, # of connection points: 2
#     Edge 40, Type (0, 0), BuildingBlock: AJUNOK_clean_linker_0, # of connection points: 2
#     Edge 41, Type (0, 0), BuildingBlock: AJUNOK_clean_linker_0, # of connection points: 2
# Relax obj value: 0.145
# Max RMSD: 0.140
# Mean RMSD: 0.140
data_MOF--net-wkb--node1-BEQFEK_clean_sbu_0--edge1-AJUNOK_clean_linker_0
_symmetry_space_group_name_H-M    P1
_symmetry_Int_Tables_number       1
_symmetry_cell_setting            triclinic
loop_
_symmetry_equiv_pos_as_xyz
'x, y, z'
_cell_length_a     32.439707
_cell_length_b     32.440179
_cell_length_c     32.978514
_cell_angle_alpha  90.065569
_cell_angle_beta   90.004389
_cell_angle_gamma 119.92149
loop_
_atom_site_label
_atom_site_type_symbol
_atom_site_fract_x
_atom_site_fract_y
_atom_site_fract_z
_atom_type_partial_charge
Co0 Co 0.06028 0.38593 0.99537 0.0
Co1 Co 0.10713 0.38443 0.07598 0.0
C2 C 1.00695 0.31094 0.06183 0.0
O3 O 1.00796 0.33046 0.02778 0.0
O4 O 0.04419 0.32664 0.0837 0.0
C5 C 1.02453 0.34338 0.9192 0.0
O6 O 1.01549 0.30527 0.94 0.0
C7 C 0.14776 0.36346 0.14707 0.0
C8 C 0.21091 0.43442 0.15728 0.0
C9 C 0.18747 0.38812 0.17135 0.0
N10 N 0.14814 0.3939 0.11939 0.0
N11 N 0.18572 0.43625 0.12578 0.0
C12 C 0.11144 0.31171 0.14858 0.0
H13 H 0.1032 0.29692 0.11737 0.0
H14 H 0.12406 0.29169 0.16721 0.0
H15 H 0.07811 0.30744 0.16188 0.0
C16 C 0.14731 0.38344 0.96265 0.0
N17 N 0.11941 0.38432 0.993 0.0
N18 N 0.13765 0.38149 0.02772 0.0
C19 C 0.17645 0.37721 0.02065 0.0
C20 C 0.18415 0.37846 0.97909 0.0
C21 C 0.13754 0.38408 0.91846 0.0
H22 H 0.1235 0.4084 0.9126 0.0
H23 H 0.11133 0.34743 0.90905 0.0
H24 H 0.16964 0.39518 0.8997 0.0
O25 O 0.06995 0.44725 0.01991 0.0
O26 O 0.09882 0.44118 0.07887 0.0
H27 H 0.22472 0.40661 0.07035 0.0
H28 H 0.2336 0.36545 0.0406 0.0
C29 C 0.20624 0.3728 0.05315 0.0
H30 H 0.18311 0.34396 0.07435 0.0
H31 H 0.19437 0.46623 0.10827 0.0
O32 O 1.03959 0.38239 0.93824 0.0
C33 C 0.08455 0.46278 0.05567 0.0
Co34 Co 0.70175 0.04551 0.16295 0.0
Co35 Co 0.75078 0.09687 0.24143 0.0
C36 C 0.72504 0.99655 0.23264 0.0
O37 O 0.70629 0.99609 0.19829 0.0
O38 O 0.74663 0.03472 0.25356 0.0
C39 C 0.70598 1.00608 0.08745 0.0
O40 O 0.73852 1.00037 0.10622 0.0
C41 C 0.79724 0.14415 0.31857 0.0
C42 C 0.80862 0.21597 0.30509 0.0
C43 C 0.81461 0.18936 0.33478 0.0
N44 N 0.78201 0.14446 0.28079 0.0
N45 N 0.78872 0.18731 0.2731 0.0
C46 C 0.79094 0.1005 0.33951 0.0
H47 H 0.75915 0.06848 0.32751 0.0
H48 H 0.82258 0.09675 0.33356 0.0
H49 H 0.78721 0.10288 0.37275 0.0
C50 C 0.79021 0.13 0.12666 0.0
N51 N 0.76195 0.10403 0.15793 0.0
N52 N 0.78449 0.12271 0.192 0.0
C53 C 0.82868 0.15899 0.18354 0.0
C54 C 0.8337 0.16545 0.14178 0.0
C55 C 0.77724 0.12005 0.08285 0.0
H56 H 0.73842 0.10478 0.07875 0.0
H57 H 0.78833 0.09481 0.07181 0.0
H58 H 0.79621 0.15258 0.06419 0.0
O59 O 0.65048 0.05634 0.18483 0.0
O60 O 0.68497 0.08822 0.24312 0.0
H61 H 0.86421 0.21922 0.22275 0.0
H62 H 0.90207 0.19871 0.20311 0.0
C63 C 0.86586 0.18685 0.21481 0.0
H64 H 0.86007 0.16519 0.24242 0.0
H65 H 0.7789 0.19678 0.24599 0.0
O66 O 0.6826 1.02081 0.10766 0.0
C67 C 0.6493 0.07299 0.21949 0.0
Co68 Co 0.68757 0.69084 0.33196 0.0
Co69 Co 0.68792 0.7408 0.41024 0.0
C70 C 0.7613 0.71414 0.40064 0.0
O71 O 0.74185 0.69456 0.3668 0.0
O72 O 0.74579 0.7366 0.42161 0.0
C73 C 0.73012 0.69501 0.25614 0.0
O74 O 0.76845 0.72743 0.27487 0.0
C75 C 0.69165 0.78826 0.48704 0.0
C76 C 0.63296 0.80324 0.47615 0.0
C77 C 0.66695 0.80857 0.50419 0.0
N78 N 0.67368 0.77288 0.44994 0.0
N79 N 0.63847 0.78151 0.44376 0.0
C80 C 0.72724 0.77817 0.50673 0.0
H81 H 0.76348 0.8052 0.49675 0.0
H82 H 0.7252 0.77903 0.54028 0.0
H83 H 0.72102 0.74275 0.49703 0.0
C84 C 0.69207 0.78006 0.29597 0.0
N85 N 0.69013 0.75166 0.32703 0.0
N86 N 0.6952 0.7745 0.36115 0.0
C87 C 0.7036 0.81893 0.35297 0.0
C88 C 0.70115 0.82389 0.31133 0.0
C89 C 0.68767 0.76685 0.25212 0.0
H90 H 0.66388 0.72803 0.24824 0.0
H91 H 0.72356 0.77759 0.24025 0.0
H92 H 0.67376 0.78596 0.23401 0.0
O93 O 0.62535 0.64008 0.35437 0.0
O94 O 0.6306 0.67552 0.41273 0.0
H95 H 0.68099 0.8558 0.39282 0.0
H96 H 0.7391 0.89243 0.37253 0.0
C97 C 0.71437 0.85644 0.38434 0.0
H98 H 0.7305 0.85026 0.41161 0.0
H99 H 0.61777 0.77195 0.41745 0.0
O100 O 0.69223 0.67153 0.2765 0.0
C101 C 0.60902 0.63958 0.38957 0.0
Co102 Co 1.02581 0.67204 0.49971 0.0
Co103 Co 0.97224 0.66629 0.57862 0.0
C104 C 0.07495 0.74185 0.56936 0.0
O105 O 0.07684 0.72596 0.53408 0.0
O106 O 1.03619 0.72309 0.58971 0.0
C107 C 1.01255 0.63129 0.42469 0.0
O108 O 0.9744 0.60102 0.44483 0.0
C109 C 0.92727 0.67017 0.65572 0.0
C110 C 0.85641 0.6066 0.64601 0.0
C111 C 0.88318 0.64209 0.67364 0.0
N112 N 0.92617 0.65197 0.61889 0.0
N113 N 0.88391 0.61401 0.61346 0.0
C114 C 0.9709 0.7103 0.67442 0.0
H115 H 1.00311 0.71026 0.66325 0.0
H116 H 0.9734 0.74444 0.66546 0.0
H117 H 0.96963 0.70778 0.70799 0.0
C118 C 0.94846 0.6886 0.4648 0.0
N119 N 0.96982 0.67853 0.4956 0.0
N120 N 0.94648 0.67464 0.52926 0.0
C121 C 0.90953 0.68167 0.52081 0.0
C122 C 0.90906 0.68984 0.47965 0.0
C123 C 0.96687 0.70069 0.42238 0.0
H124 H 1.00605 0.71671 0.42181 0.0
H125 H 0.95714 0.72595 0.4087 0.0
H126 H 0.95016 0.66788 0.40377 0.0
O127 O 1.01421 0.61011 0.52379 0.0
O128 O 0.97893 0.60881 0.58108 0.0
H129 H 0.84806 0.64802 0.55871 0.0
H130 H 0.86052 0.7048 0.53965 0.0
C131 C 0.87706 0.68444 0.55156 0.0
H132 H 0.89691 0.70182 0.57965 0.0
H133 H 0.87417 0.59248 0.58762 0.0
O134 O 0.0444 0.66811 0.44306 0.0
C135 C 0.99604 0.59032 0.55745 0.0
Co136 Co 0.3802 1.01135 0.66537 0.0
Co137 Co 0.33583 0.96221 0.74642 0.0
C138 C 0.36063 0.063 0.73441 0.0
O139 O 0.37759 0.06313 0.69927 0.0
O140 O 0.34148 1.02537 0.75595 0.0
C141 C 0.37374 0.04858 0.58898 0.0
O142 O 0.34431 0.05777 0.60913 0.0
C143 C 0.27359 0.91908 0.81696 0.0
C144 C 0.28847 0.86085 0.82998 0.0
C145 C 0.26148 0.88076 0.84233 0.0
N146 N 0.3061 0.92137 0.7905 0.0
N147 N 0.31508 0.88671 0.79861 0.0
C148 C 0.25279 0.9511 0.81599 0.0
H149 H 0.2503 0.96089 0.78421 0.0
H150 H 0.21713 0.93387 0.83041 0.0
H151 H 0.27667 0.98426 0.83275 0.0
C152 C 0.28949 0.92529 0.63343 0.0
N153 N 0.31952 0.95217 0.66356 0.0
N154 N 0.30038 0.93242 0.69847 0.0
C155 C 0.25741 0.89336 0.69176 0.0
C156 C 0.24868 0.88756 0.65023 0.0
C157 C 0.29839 0.93621 0.58924 0.0
H158 H 0.33639 0.94976 0.58222 0.0
H159 H 0.28846 0.96329 0.58145 0.0
H160 H 0.27656 0.90463 0.57009 0.0
O161 O 0.43274 1.00137 0.68714 0.0
O162 O 0.40075 0.96991 0.74632 0.0
H163 H 0.24579 0.84776 0.74238 0.0
H164 H 0.1937 0.82983 0.71188 0.0
C165 C 0.22592 0.86097 0.72444 0.0
H166 H 0.21513 0.88099 0.74496 0.0
H167 H 0.33883 0.88036 0.78228 0.0
O168 O 0.39665 0.03262 0.60837 0.0
C169 C 0.43535 0.98504 0.72161 0.0
Co170 Co 0.40294 0.37081 0.83196 0.0
Co171 Co 0.40459 0.32379 0.91211 0.0
C172 C 0.33117 0.35194 0.89979 0.0
O173 O 0.3488 0.36905 0.86496 0.0
O174 O 0.34815 0.33131 0.92132 0.0
C175 C 0.36136 0.36812 0.75562 0.0
O176 O 0.32211 0.33804 0.77459 0.0
C177 C 0.38292 0.26508 0.985 0.0
C178 C 0.45096 0.26571 0.99306 0.0
C179 C 0.40582 0.24784 0.00892 0.0
N180 N 0.413 0.29134 0.95548 0.0
N181 N 0.45369 0.29188 0.9606 0.0
C182 C 0.33335 0.25632 0.98964 0.0
H183 H 0.31486 0.24592 0.95991 0.0
H184 H 0.3131 0.22811 0.01236 0.0
H185 H 0.33478 0.28975 0.99941 0.0
C186 C 0.39632 0.27987 0.79837 0.0
N187 N 0.39976 0.30951 0.82898 0.0
N188 N 0.39846 0.28895 0.86361 0.0
C189 C 0.39256 0.24524 0.85625 0.0
C190 C 0.39083 0.23775 0.81455 0.0
C191 C 0.39644 0.2905 0.75428 0.0
H192 H 0.36001 0.28156 0.74531 0.0
H193 H 0.40661 0.26887 0.73524 0.0
H194 H 0.42158 0.32863 0.7484 0.0
O195 O 0.46507 0.42152 0.85504 0.0
O196 O 0.46308 0.38796 0.91379 0.0
H197 H 0.38129 0.17651 0.87616 0.0
H198 H 0.3633 0.20726 0.91163 0.0
C199 C 0.39011 0.21173 0.88859 0.0
H200 H 0.42522 0.2269 0.90365 0.0
H201 H 0.48318 0.31 0.94177 0.0
O202 O 0.39978 0.38938 0.77573 0.0
C203 C 0.48334 0.42304 0.88961 0.0
Co204 Co 0.68445 1.01283 0.8371 0.0
Co205 Co 0.68859 0.96541 0.75881 0.0
C206 C 0.75996 0.06488 0.7692 0.0
O207 O 0.73982 0.06411 0.80296 0.0
O208 O 0.74533 0.02734 0.74789 0.0
C209 C 0.72451 0.04109 0.91384 0.0
O210 O 0.75995 0.04065 0.8949 0.0
C211 C 0.69257 0.92139 0.68227 0.0
C212 C 0.63932 0.84639 0.69585 0.0
C213 C 0.67012 0.87575 0.66626 0.0
N214 N 0.67641 0.91859 0.72011 0.0
N215 N 0.64444 0.87391 0.72791 0.0
C216 C 0.72376 0.96737 0.66096 0.0
H217 H 0.71607 0.99516 0.672 0.0
H218 H 0.76149 0.97921 0.66805 0.0
H219 H 0.71849 0.96345 0.62763 0.0
C220 C 0.68464 0.9255 0.87217 0.0
N221 N 0.68607 0.95431 0.84169 0.0
N222 N 0.69602 0.93988 0.80797 0.0
C223 C 0.70539 0.90457 0.81607 0.0
C224 C 0.69735 0.89315 0.85707 0.0
C225 C 0.66664 0.92505 0.91397 0.0
H226 H 0.64684 0.94472 0.91501 0.0
H227 H 0.69701 0.94115 0.93533 0.0
H228 H 0.6429 0.88783 0.92395 0.0
O229 O 0.62323 1.0019 0.81354 0.0
O230 O 0.63028 0.97236 0.75531 0.0
H231 H 0.70057 0.85426 0.77119 0.0
H232 H 0.75291 0.87808 0.80215 0.0
C233 C 0.72808 0.88692 0.78637 0.0
H234 H 0.74765 0.91423 0.76281 0.0
H235 H 0.62546 0.86233 0.75506 0.0
O236 O 0.68893 0.03512 0.89315 0.0
C237 C 0.60789 0.98633 0.77805 0.0
Co238 Co 0.70175 0.67357 0.00602 0.0
Co239 Co 0.75405 0.67599 0.92813 0.0
C240 C 0.72409 0.74691 0.93696 0.0
O241 O 0.70686 0.72928 0.97188 0.0
O242 O 0.74506 0.73033 0.9153 0.0
C243 C 0.71362 0.71389 0.08257 0.0
O244 O 0.74966 0.74899 0.06361 0.0
C245 C 0.79989 0.67523 0.85092 0.0
C246 C 0.82254 0.62341 0.86766 0.0
C247 C 0.8216 0.65077 0.83598 0.0
N248 N 0.78888 0.6629 0.88991 0.0
N249 N 0.80229 0.63183 0.89957 0.0
C250 C 0.78493 0.70523 0.82777 0.0
H251 H 0.75226 0.70236 0.84123 0.0
H252 H 0.81366 0.74294 0.82951 0.0
H253 H 0.77845 0.69444 0.7954 0.0
C254 C 0.78742 0.67279 0.04246 0.0
N255 N 0.76144 0.67498 0.01118 0.0
N256 N 0.78684 0.68531 0.97806 0.0
C257 C 0.83111 0.69431 0.98751 0.0
C258 C 0.83317 0.6862 0.02877 0.0
C259 C 0.76676 0.65036 0.08252 0.0
H260 H 0.72738 0.62933 0.08084 0.0
H261 H 0.77732 0.67816 0.10597 0.0
H262 H 0.78085 0.6269 0.09193 0.0
O263 O 0.65157 0.61216 0.98234 0.0
O264 O 0.68982 0.617 0.92557 0.0
H265 H 0.87776 0.68529 0.94703 0.0
H266 H 0.905 0.74084 0.97367 0.0
C267 C 0.87187 0.71414 0.95829 0.0
H268 H 0.86447 0.73093 0.9321 0.0
H269 H 0.79627 0.61521 0.92777 0.0
O270 O 0.68381 0.67839 0.06193 0.0
C271 C 0.65291 0.59551 0.94769 0.0
Co272 Co 0.05783 0.68679 0.17482 0.0
Co273 Co 0.10452 0.73216 0.09297 0.0
C274 C 1.00236 0.70356 0.10904 0.0
O275 O 1.00383 0.68963 0.14515 0.0
O276 O 1.03871 0.7207 0.08589 0.0
C277 C 1.01191 0.63068 0.24912 0.0
O278 O 0.97809 0.59743 0.22683 0.0
C279 C 0.13766 0.787 0.01716 0.0
C280 C 0.2054 0.78687 0.00936 0.0
C281 C 0.17649 0.80194 0.99194 0.0
N282 N 0.14363 0.76425 0.04863 0.0
N283 N 0.18413 0.76442 0.04381 0.0
C284 C 0.09505 0.79252 0.01094 0.0
H285 H 0.08621 0.80416 0.0397 0.0
H286 H 0.10129 0.81851 0.9865 0.0
H287 H 0.06421 0.7575 0.00264 0.0
C288 C 0.1392 0.77921 0.20589 0.0
N289 N 0.11426 0.74853 0.17562 0.0
N290 N 0.13401 0.76793 0.14084 0.0
C291 C 0.17211 0.81149 0.14785 0.0
C292 C 0.17717 0.82007 0.18949 0.0
C293 C 0.12839 0.76844 0.24988 0.0
H294 H 0.13601 0.7399 0.25795 0.0
H295 H 0.09022 0.75572 0.25562 0.0
H296 H 0.15046 0.79956 0.26947 0.0
O297 O 0.06796 0.63578 0.14909 0.0
O298 O 0.10109 0.66952 0.09091 0.0
H299 H 0.22555 0.83446 0.10199 0.0
H300 H 0.22287 0.88238 0.12731 0.0
C301 C 0.2013 0.84571 0.11523 0.0
H302 H 0.17773 0.84564 0.09085 0.0
H303 H 0.19691 0.74849 0.06391 0.0
O304 O 0.04396 0.66852 0.23266 0.0
C305 C 0.08528 0.63421 0.11477 0.0
Co306 Co 0.40014 0.04367 0.33825 0.0
Co307 Co 0.39614 0.09075 0.25857 0.0
C308 C 0.32545 0.99025 0.27063 0.0
O309 O 0.34426 0.9914 0.30517 0.0
O310 O 0.34128 0.02715 0.24851 0.0
C311 C 0.35858 1.01591 0.41431 0.0
O312 O 0.32362 1.01472 0.39325 0.0
C313 C 0.37731 0.12954 0.18497 0.0
C314 C 0.44047 0.20178 0.18526 0.0
C315 C 0.39921 0.17223 0.16419 0.0
N316 N 0.40445 0.13386 0.21717 0.0
N317 N 0.4421 0.17702 0.21717 0.0
C318 C 0.33055 0.08629 0.1758 0.0
H319 H 0.3086 0.07443 0.20373 0.0
H320 H 0.31104 0.0934 0.15169 0.0
H321 H 0.33675 0.05709 0.16599 0.0
C322 C 0.40004 0.13076 0.37225 0.0
N323 N 0.39817 0.10206 0.3415 0.0
N324 N 0.38944 0.11744 0.30769 0.0
C325 C 0.38188 0.15394 0.31604 0.0
C326 C 0.38843 0.16401 0.35744 0.0
C327 C 0.4203 0.13183 0.41327 0.0
H328 H 0.4424 0.11454 0.41244 0.0
H329 H 0.39117 0.11309 0.43534 0.0
H330 H 0.44228 0.1691 0.42393 0.0
O331 O 0.46151 0.05466 0.31384 0.0
O332 O 0.45532 0.08566 0.256 0.0
H333 H 0.39759 0.20741 0.2713 0.0
H334 H 0.34409 0.19051 0.29963 0.0
C335 C 0.36598 0.17698 0.28527 0.0
H336 H 0.34486 0.15118 0.26114 0.0
H337 H 0.46883 0.18949 0.23909 0.0
O338 O 0.39569 1.02296 0.39538 0.0
C339 C 0.4774 0.07124 0.27864 0.0
Co340 Co 0.38417 0.38751 0.50302 0.0
Co341 Co 0.33887 0.38695 0.42139 0.0
C342 C 0.36848 0.31542 0.43586 0.0
O343 O 0.38152 0.3311 0.47202 0.0
O344 O 0.35109 0.33391 0.41233 0.0
C345 C 0.37343 0.34926 0.58128 0.0
O346 O 0.33889 0.31201 0.56298 0.0
C347 C 0.28524 0.36579 0.34536 0.0
C348 C 0.26961 0.42488 0.34468 0.0
C349 C 0.26196 0.38461 0.32399 0.0
N350 N 0.30504 0.39327 0.3781 0.0
N351 N 0.29592 0.42865 0.37737 0.0
C352 C 0.2878 0.32212 0.33554 0.0
H353 H 0.32553 0.33197 0.33115 0.0
H354 H 0.27374 0.29709 0.36148 0.0
H355 H 0.26716 0.30432 0.30778 0.0
C356 C 0.29416 0.38487 0.53363 0.0
N357 N 0.3235 0.38517 0.50414 0.0
N358 N 0.30196 0.37836 0.46911 0.0
C359 C 0.25716 0.36994 0.47532 0.0
C360 C 0.25062 0.37449 0.51661 0.0
C361 C 0.30866 0.39917 0.57671 0.0
H362 H 0.34783 0.42155 0.57927 0.0
H363 H 0.29601 0.36683 0.59551 0.0
H364 H 0.29186 0.41931 0.58863 0.0
O365 O 0.43541 0.44891 0.47928 0.0
O366 O 0.40167 0.44756 0.42069 0.0
H367 H 0.22115 0.38337 0.42718 0.0
H368 H 0.18374 0.33077 0.45619 0.0
C369 C 0.21977 0.35258 0.44298 0.0
H370 H 0.22612 0.33101 0.42038 0.0
H371 H 0.30732 0.45517 0.39955 0.0
O372 O 0.40079 0.38534 0.5601 0.0
C373 C 0.43673 0.46771 0.44501 0.0
Co374 Co 1.02812 0.36805 0.66934 0.0
Co375 Co 0.97633 0.31963 0.59012 0.0
C376 C 0.07709 0.34669 0.59769 0.0
O377 O 0.07761 0.36274 0.63343 0.0
O378 O 1.03919 0.32734 0.57639 0.0
C379 C 0.0614 0.35708 0.74523 0.0
O380 O 0.06319 0.32305 0.7251 0.0
C381 C 0.92998 0.27581 0.51218 0.0
C382 C 0.85703 0.2606 0.52666 0.0
C383 C 0.88462 0.2576 0.49613 0.0
N384 N 0.92884 0.28858 0.55069 0.0
N385 N 0.88532 0.27966 0.55899 0.0
C386 C 0.97443 0.28544 0.49053 0.0
H387 H 1.0053 0.31828 0.50257 0.0
H388 H 0.98088 0.25535 0.49588 0.0
H389 H 0.97131 0.28924 0.45741 0.0
C390 C 0.94102 0.28084 0.70433 0.0
N391 N 0.96873 0.30841 0.67343 0.0
N392 N 0.95148 0.28531 0.63931 0.0
C393 C 0.91493 0.24124 0.64754 0.0
C394 C 0.90646 0.23703 0.68905 0.0
C395 C 0.94718 0.29534 0.74791 0.0
H396 H 0.96654 0.33457 0.75086 0.0
H397 H 0.96654 0.27984 0.76343 0.0
H398 H 0.91243 0.28101 0.76334 0.0
O399 O 1.01803 0.42027 0.64736 0.0
O400 O 0.98372 0.38427 0.59005 0.0
H401 H 0.85459 0.20263 0.60897 0.0
H402 H 0.87902 0.16792 0.62815 0.0
C403 C 0.88838 0.2035 0.61636 0.0
H404 H 0.90994 0.2105 0.58847 0.0
H405 H 0.87515 0.28749 0.5867 0.0
O406 O 0.05208 0.38519 0.72567 0.0
C407 C 1.00014 0.42053 0.61301 0.0
C408 C 0.26746 0.38216 0.24972 0.0
C409 C 0.23894 0.37049 0.28446 0.0
C410 C 0.24897 0.38351 0.21181 0.0
C411 C 0.20142 0.37245 0.20779 0.0
H412 H 0.30511 0.39428 0.25237 0.0
H413 H 0.27277 0.39642 0.18599 0.0
S414 S 0.11134 0.33396 0.28941 0.0
N415 N 0.16049 0.34344 0.31256 0.0
N416 N 0.12519 0.34513 0.24092 0.0
C417 C 0.17158 0.35655 0.24182 0.0
C418 C 0.19061 0.35586 0.28046 0.0
C419 C 0.86336 0.19446 0.39525 0.0
C420 C 0.83209 0.20639 0.37599 0.0
C421 C 0.881 0.21169 0.4341 0.0
C422 C 0.86801 0.24149 0.45459 0.0
H423 H 0.87469 0.17216 0.38009 0.0
H424 H 0.90429 0.20102 0.44837 0.0
S425 S 0.78766 0.28358 0.41693 0.0
N426 N 0.78891 0.24972 0.38014 0.0
N427 N 0.82274 0.28276 0.45277 0.0
C428 C 0.83701 0.25384 0.43552 0.0
C429 C 0.81906 0.23631 0.39618 0.0
C430 C 0.62758 0.81218 0.5668 0.0
C431 C 0.66997 0.82654 0.54544 0.0
C432 C 0.62835 0.82863 0.60591 0.0
C433 C 0.67151 0.86035 0.6248 0.0
H434 H 0.59348 0.78766 0.55334 0.0
H435 H 0.59478 0.81666 0.62136 0.0
S436 S 0.79236 0.90904 0.5815 0.0
N437 N 0.75623 0.8753 0.54511 0.0
N438 N 0.75782 0.90467 0.61999 0.0
C439 C 0.71428 0.87501 0.6039 0.0
C440 C 0.71348 0.85844 0.56377 0.0
C441 C 0.87752 0.68806 0.73209 0.0
C442 C 0.86786 0.64441 0.71507 0.0
C443 C 0.86184 0.69007 0.77123 0.0
C444 C 0.83607 0.64846 0.79424 0.0
H445 H 0.89683 0.72071 0.71496 0.0
H446 H 0.87058 0.72437 0.78373 0.0
S447 S 0.80115 0.52541 0.76297 0.0
N448 N 0.83097 0.5588 0.72395 0.0
N449 N 0.80089 0.56247 0.79713 0.0
C450 C 0.82601 0.60466 0.77739 0.0
C451 C 0.8419 0.60262 0.73776 0.0
C452 C 0.19783 0.81447 0.88083 0.0
C453 C 0.22887 0.86365 0.877 0.0
C454 C 0.17608 0.7948 0.91785 0.0
C455 C 0.18487 0.82383 0.95196 0.0
H456 H 0.19302 0.79074 0.85584 0.0
H457 H 0.15547 0.75643 0.92067 0.0
S458 S 0.25946 0.95476 0.95698 0.0
N459 N 0.26431 0.94125 0.90955 0.0
N460 N 0.22289 0.90383 0.97939 0.0
C461 C 0.21257 0.87324 0.94783 0.0
C462 C 0.23475 0.89339 0.91009 0.0
C463 C 0.38945 0.24639 0.08199 0.0
C464 C 0.39012 0.222 0.04712 0.0
C465 C 0.38835 0.22784 0.12046 0.0
C466 C 0.38703 0.18413 0.12483 0.0
H467 H 0.39366 0.28161 0.07959 0.0
H468 H 0.39147 0.24908 0.1469 0.0
S469 S 0.38295 0.10471 0.04218 0.0
N470 N 0.38545 0.15084 0.01866 0.0
N471 N 0.38266 0.11531 0.09116 0.0
C472 C 0.38382 0.15774 0.09003 0.0
C473 C 0.38561 0.17697 0.05095 0.0
C474 C 0.0869 0.54095 0.04461 0.0
C475 C 0.08433 0.50601 0.07138 0.0
C476 C 0.08777 0.58226 0.05903 0.0
C477 C 0.08514 0.59016 0.10086 0.0
H478 H 0.08891 0.53672 0.01221 0.0
H479 H 0.08999 0.60802 0.03699 0.0
S480 S 0.07624 0.50888 0.18379 0.0
N481 N 0.0784 0.48189 0.14204 0.0
N482 N 0.07906 0.55876 0.16879 0.0
C483 C 0.08185 0.55517 0.12794 0.0
C484 C 0.08175 0.51345 0.11333 0.0
C485 C 0.556 0.07442 0.28972 0.0
C486 C 0.52127 0.07239 0.26288 0.0
C487 C 0.59739 0.07537 0.27538 0.0
C488 C 0.60553 0.07332 0.23355 0.0
H489 H 0.55143 0.07569 0.32215 0.0
H490 H 0.62291 0.07701 0.29744 0.0
S491 S 0.52512 0.06653 0.15042 0.0
N492 N 0.49784 0.06802 0.19219 0.0
N493 N 0.57477 0.06884 0.1655 0.0
C494 C 0.57088 0.07088 0.20639 0.0
C495 C 0.52912 0.07072 0.22095 0.0
C496 C 0.53125 0.56395 0.37689 0.0
C497 C 0.56504 0.59642 0.40446 0.0
C498 C 0.48971 0.52318 0.39033 0.0
C499 C 0.48043 0.51239 0.43196 0.0
H500 H 0.5367 0.57023 0.34457 0.0
H501 H 0.46501 0.49947 0.36773 0.0
S502 S 0.55788 0.58528 0.5168 0.0
N503 N 0.58622 0.6147 0.47565 0.0
N504 N 0.50901 0.53791 0.50065 0.0
C505 C 0.51409 0.54439 0.45986 0.0
C506 C 0.55601 0.58634 0.44621 0.0
C507 C 0.99486 0.5357 0.61231 0.0
C508 C 0.99672 0.54656 0.57065 0.0
C509 C 0.99671 0.49549 0.62589 0.0
C510 C 0.99939 0.46375 0.59837 0.0
H511 H 0.99262 0.55886 0.63481 0.0
H512 H 0.99534 0.4889 0.65819 0.0
S513 S 1.00545 0.47572 0.48607 0.0
N514 N 1.00208 0.5222 0.50207 0.0
N515 N 1.00445 0.4464 0.52729 0.0
C516 C 1.00108 0.47406 0.55661 0.0
C517 C 1.00007 0.51544 0.54285 0.0
C518 C 0.48879 0.98366 0.77627 0.0
C519 C 0.4796 0.98501 0.73459 0.0
C520 C 0.53018 0.98428 0.78994 0.0
C521 C 0.56399 0.98532 0.76259 0.0
H522 H 0.46403 0.98274 0.79879 0.0
H523 H 0.53546 0.98354 0.82231 0.0
S524 S 0.55717 0.98885 0.65021 0.0
N525 N 0.5083 0.98767 0.66604 0.0
N526 N 0.5854 0.98782 0.69152 0.0
C527 C 0.55515 0.98628 0.72077 0.0
C528 C 0.51329 0.98646 0.70686 0.0
C529 C 0.53733 0.47586 0.94505 0.0
C530 C 0.52749 0.46686 0.90325 0.0
C531 C 0.57762 0.5174 0.95913 0.0
C532 C 0.61054 0.55142 0.93207 0.0
H533 H 0.51323 0.45095 0.96728 0.0
H534 H 0.58317 0.52269 0.99155 0.0
S535 S 0.6019 0.54511 0.81959 0.0
N536 N 0.55435 0.49596 0.83495 0.0
N537 N 0.63036 0.57324 0.86121 0.0
C538 C 0.60146 0.54269 0.89016 0.0
C539 C 0.55995 0.50076 0.87584 0.0
C540 C 0.05199 0.3901 0.81116 0.0
C541 C 0.0559 0.35437 0.79014 0.0
C542 C 1.03998 0.38539 0.85241 0.0
C543 C 1.03075 0.34449 0.87441 0.0
H544 H 0.0577 0.42187 0.79552 0.0
H545 H 1.03823 0.4143 0.86722 0.0
S546 S 1.03634 0.24043 0.83385 0.0
N547 N 0.05038 0.27688 0.79492 0.0
N548 N 1.02641 0.2674 0.87187 0.0
C549 C 1.03425 0.3083 0.85374 0.0
C550 C 0.04756 0.31358 0.81194 0.0
C551 C 0.75246 1.02602 0.97981 0.0
C552 C 0.71998 0.03472 0.95846 0.0
C553 C 0.74582 1.01357 0.02088 0.0
C554 C 0.70701 1.01033 0.04263 0.0
H555 H 0.78288 0.02782 0.96456 0.0
H556 H 0.77235 1.00803 0.03592 0.0
S557 S 0.61122 0.02907 0.00096 0.0
N558 N 0.64699 0.03852 0.96217 0.0
N559 N 0.6349 1.01576 0.03948 0.0
C560 C 0.67401 1.01858 0.02164 0.0
C561 C 0.68057 0.03094 0.97968 0.0
C562 C 0.75692 0.7413 0.14847 0.0
C563 C 0.71539 0.7095 0.12721 0.0
C564 C 0.76266 0.7345 0.18952 0.0
C565 C 0.72669 0.69618 0.21135 0.0
H566 H 0.78591 0.77124 0.13315 0.0
H567 H 0.79506 0.76046 0.20448 0.0
S568 S 0.61116 0.60221 0.16985 0.0
N569 N 0.63785 0.63768 0.13103 0.0
N570 N 0.64837 0.62523 0.20831 0.0
C571 C 0.68507 0.66384 0.19042 0.0
C572 C 0.67936 0.6706 0.14848 0.0
C573 C 0.97038 0.60404 0.35824 0.0
C574 C 1.01348 0.62683 0.38012 0.0
C575 C 0.96993 0.60372 0.3157 0.0
C576 C 1.01259 0.62561 0.29364 0.0
H577 H 0.93661 0.58811 0.374 0.0
H578 H 0.93605 0.5879 0.30008 0.0
S579 S 0.13449 0.68013 0.33652 0.0
N580 N 0.09957 0.66613 0.37662 0.0
N581 N 0.09873 0.66298 0.29677 0.0
C582 C 0.05577 0.64504 0.31519 0.0
C583 C 0.05624 0.6463 0.35842 0.0
C584 C 0.40443 0.03687 0.5228 0.0
C585 C 0.37069 0.04375 0.54406 0.0
C586 C 0.39937 1.02624 0.48124 0.0
C587 C 0.36004 1.02143 0.45919 0.0
H588 H 0.43495 0.03936 0.53845 0.0
H589 H 0.42682 1.02211 0.46627 0.0
S590 S 0.26069 0.03463 0.50073 0.0
N591 N 0.29628 0.04475 0.53979 0.0
N592 N 0.28616 1.02369 0.46213 0.0
C593 C 0.32573 0.02778 0.48016 0.0
C594 C 0.33135 0.03948 0.52234 0.0
C595 C 0.33202 0.32171 0.64793 0.0
C596 C 0.3726 0.35402 0.62598 0.0
C597 C 0.32753 0.32818 0.68933 0.0
C598 C 0.3639 0.36667 0.71078 0.0
H599 H 0.30284 0.29154 0.63293 0.0
H600 H 0.29581 0.30186 0.7048 0.0
S601 S 0.47755 0.46164 0.66761 0.0
N602 N 0.44979 0.42638 0.62882 0.0
N603 N 0.44173 0.43803 0.70683 0.0
C604 C 0.40469 0.39936 0.68925 0.0
C605 C 0.40905 0.39305 0.64692 0.0
C606 C 0.25869 0.32383 0.94389 0.0
C607 C 0.29202 0.35815 0.91713 0.0
C608 C 0.22362 0.33035 0.96315 0.0
C609 C 0.22097 0.37194 0.95724 0.0
H610 H 0.25973 0.29157 0.95007 0.0
H611 H 0.19855 0.30275 0.98317 0.0
S612 S 0.3017 0.47434 0.89272 0.0
N613 N 0.32047 0.43584 0.88653 0.0
N614 N 0.25629 0.44905 0.92436 0.0
C615 C 0.25432 0.40678 0.93099 0.0
C616 C 0.28934 0.39966 0.91056 0.0
C617 C 0.96144 0.23579 0.10253 0.0
C618 C 0.96128 0.27147 0.07826 0.0
C619 C 0.91986 0.20093 0.12187 0.0
C620 C 0.8766 0.20097 0.11873 0.0
H621 H 0.99414 0.23498 0.10686 0.0
H622 H 0.92176 0.17406 0.13993 0.0
S623 S 0.85727 0.2877 0.06059 0.0
N624 N 0.91371 0.30445 0.05235 0.0
N625 N 0.8365 0.24061 0.09037 0.0
C626 C 0.87585 0.23631 0.09456 0.0
C627 C 0.91789 0.27111 0.07399 0.0
C628 C 0.75059 0.91025 0.29153 0.0
C629 C 0.70752 0.86674 0.2888 0.0
C630 C 0.75621 0.95186 0.27295 0.0
C631 C 0.71945 0.95141 0.24982 0.0
H632 H 0.78008 0.9123 0.30859 0.0
H633 H 0.78967 0.98468 0.2767 0.0
S634 S 0.59931 0.84684 0.23388 0.0
N635 N 0.62695 0.82628 0.26235 0.0
N636 N 0.63827 0.90343 0.22555 0.0
C637 C 0.67659 0.90784 0.24608 0.0
C638 C 0.67047 0.86582 0.26594 0.0
C639 C 0.84296 0.74733 0.43139 0.0
C640 C 0.80036 0.70785 0.41765 0.0
C641 C 0.87881 0.74154 0.45025 0.0
C642 C 0.87287 0.69603 0.45678 0.0
H643 H 0.84848 0.78291 0.4277 0.0
H644 H 0.91092 0.77275 0.46057 0.0
S645 S 0.76685 0.58126 0.42942 0.0
N646 N 0.75403 0.62174 0.4132 0.0
N647 N 0.82059 0.61098 0.44955 0.0
C648 C 0.83041 0.65642 0.44357 0.0
C649 C 0.79438 0.66229 0.42375 0.0
C650 C 0.20582 0.82129 0.59899 0.0
C651 C 0.20429 0.85154 0.62891 0.0
C652 C 0.16425 0.78713 0.57891 0.0
C653 C 0.11917 0.78106 0.58848 0.0
H654 H 0.23936 0.82351 0.59145 0.0
H655 H 0.16735 0.76434 0.55655 0.0
S656 S 0.09608 0.8527 0.66352 0.0
N657 N 0.15418 0.87458 0.66575 0.0
N658 N 0.07618 0.80965 0.62945 0.0
C659 C 0.11732 0.81135 0.61826 0.0
C660 C 0.15971 0.8466 0.63812 0.0
C661 C 0.41438 0.19409 0.76421 0.0
C662 C 0.38148 0.19345 0.79248 0.0
C663 C 0.40652 0.15226 0.74419 0.0
C664 C 0.36582 0.10789 0.75218 0.0
H665 H 0.44698 0.22702 0.75813 0.0
H666 H 0.4334 0.15445 0.72341 0.0
S667 S 0.26707 0.08769 0.82129 0.0
N668 N 0.30508 0.14527 0.82515 0.0
N669 N 0.29106 0.06681 0.78894 0.0
C670 C 0.33228 0.10711 0.77981 0.0
C671 C 0.33993 0.14974 0.79959 0.0
C672 C 0.73235 0.82876 0.93576 0.0
C673 C 0.71466 0.78328 0.91855 0.0
C674 C 0.72601 0.86399 0.91622 0.0
C675 C 0.70109 0.85471 0.87915 0.0
H676 H 0.75247 0.83763 0.96375 0.0
H677 H 0.74192 0.89908 0.92966 0.0
S678 S 0.64186 0.73876 0.82515 0.0
N679 N 0.66836 0.72981 0.86413 0.0
N680 N 0.65396 0.79445 0.82899 0.0
C681 C 0.68126 0.80849 0.86299 0.0
C682 C 0.68865 0.77322 0.88228 0.0
C683 C 0.90082 0.66942 0.03458 0.0
C684 C 0.87434 0.6887 0.05173 0.0
C685 C 0.94155 0.67391 0.05378 0.0
C686 C 0.95697 0.69665 0.09161 0.0
H687 H 0.89013 0.65073 0.00592 0.0
H688 H 0.96122 0.65935 0.03881 0.0
S689 S 0.90136 0.7541 0.14956 0.0
N690 N 0.86801 0.73318 0.1085 0.0
N691 N 0.94272 0.73873 0.14568 0.0
C692 C 0.93032 0.71501 0.10979 0.0
C693 C 0.88945 0.71163 0.08965 0.0
C694 C 0.20373 0.88872 0.23869 0.0
C695 C 0.21531 0.86243 0.21148 0.0
C696 C 0.23938 0.92909 0.25914 0.0
C697 C 0.28789 0.94453 0.25323 0.0
H698 H 0.16684 0.8785 0.24363 0.0
H699 H 0.22897 0.94895 0.27898 0.0
S700 S 0.33726 0.8885 0.18561 0.0
N701 N 0.27905 0.85481 0.18041 0.0
N702 N 0.34563 0.93079 0.21812 0.0
C703 C 0.29988 0.91857 0.2263 0.0
C704 C 0.26375 0.87756 0.2056 0.0
C705 C 0.40056 0.28486 0.38194 0.0
C706 C 0.37635 0.27727 0.41903 0.0
C707 C 0.40555 0.24865 0.36313 0.0
C708 C 0.38534 0.20271 0.37992 0.0
H709 H 0.41575 0.31921 0.36721 0.0
H710 H 0.42516 0.25674 0.33495 0.0
S711 S 0.31576 0.16372 0.47561 0.0
N712 N 0.33175 0.22055 0.47191 0.0
N713 N 0.33819 0.1515 0.43543 0.0
C714 C 0.36086 0.19466 0.41708 0.0
C715 C 0.35699 0.23209 0.43683 0.0
C716 C 0.14949 0.33641 0.59429 0.0
C717 C 0.12225 0.35534 0.57824 0.0
C718 C 0.19081 0.34273 0.5743 0.0
C719 C 0.2071 0.36904 0.53793 0.0
H720 H 0.13811 0.31555 0.62186 0.0
H721 H 0.20957 0.32603 0.58709 0.0
S722 S 0.1513 0.43084 0.48652 0.0
N723 N 0.11574 0.40351 0.52521 0.0
N724 N 0.19446 0.41795 0.48935 0.0
C725 C 0.18095 0.38963 0.52267 0.0
C726 C 0.13839 0.38218 0.54239 0.0
C727 C 0.8717 0.15189 0.71123 0.0
C728 C 0.87018 0.19448 0.71186 0.0
C729 C 0.83666 0.11059 0.73073 0.0
C730 C 0.79926 0.11044 0.75261 0.0
H731 H 0.89996 0.1503 0.69509 0.0
H732 H 0.83873 0.07835 0.72845 0.0
S733 S 0.77811 0.21234 0.76241 0.0
N734 N 0.82688 0.23335 0.73469 0.0
N735 N 0.76264 0.15673 0.77313 0.0
C736 C 0.79788 0.15311 0.75416 0.0
C737 C 0.83291 0.19484 0.7334 0.0
loop_
_geom_bond_atom_site_label_1
_geom_bond_atom_site_label_2
_geom_bond_distance
_geom_bond_site_symmetry_2
_ccdc_geom_bond_type
Co0 O3 1.961 1_456 S
Co0 N17 1.988 1_556 S
Co0 O25 1.960 1_556 S
Co0 O32 1.935 . S
Co1 O4 1.966 . S
Co1 N10 2.022 . S
Co1 N18 1.993 . S
Co1 O26 1.941 . S
C2 O3 1.258 . S
C2 O4 1.263 1_655 S
O3 Co0 1.961 1_654 S
O3 C2 1.258 . S
O4 Co1 1.966 . S
O4 C2 1.263 1_455 S
C5 O6 1.235 . S
C5 O32 1.289 . S
O6 C5 1.235 . S
C7 C9 1.400 . S
C7 N10 1.351 . S
C7 C12 1.501 . S
C8 C9 1.387 . S
C8 N11 1.341 . S
C9 C7 1.400 . S
C9 C8 1.387 . S
N10 Co1 2.022 . S
N10 C7 1.351 . S
N10 N11 1.365 . S
N11 C8 1.341 . S
N11 N10 1.365 . S
N11 H31 0.862 . S
C12 C7 1.501 . S
C12 H13 0.961 . S
C12 H14 0.961 . S
C12 H15 0.960 . S
H13 C12 0.961 . S
H14 C12 0.961 . S
H15 C12 0.960 . S
C16 N17 1.342 1_556 S
C16 C20 1.401 . S
C16 C21 1.499 . S
N17 Co0 1.988 1_554 S
N17 C16 1.342 1_554 S
N17 N18 1.388 . S
N18 Co1 1.993 . S
N18 N17 1.388 . S
N18 C19 1.346 . S
C19 N18 1.346 . S
C19 C20 1.396 1_554 S
C19 C29 1.510 . S
C20 C16 1.401 . S
C20 C19 1.396 1_556 S
C21 C16 1.499 . S
C21 H22 0.959 . S
C21 H23 0.960 . S
C21 H24 0.961 . S
H22 C21 0.959 . S
H23 C21 0.960 . S
H24 C21 0.961 . S
O25 Co0 1.960 1_554 S
O25 C33 1.258 . S
O26 Co1 1.941 . S
O26 C33 1.266 . S
H27 C29 0.959 . S
H28 C29 0.961 . S
C29 C19 1.510 . S
C29 H27 0.959 . S
C29 H28 0.961 . S
C29 H30 0.960 . S
H30 C29 0.960 . S
H31 N11 0.862 . S
O32 Co0 1.935 . S
O32 C5 1.289 . S
C33 O25 1.258 . S
C33 O26 1.266 . S
Co34 O37 1.970 1_545 S
Co34 N51 1.989 . S
Co34 O59 1.967 . S
Co34 O66 1.920 . S
Co35 O38 1.966 . S
Co35 N44 2.022 . S
Co35 N52 1.993 . S
Co35 O60 1.941 . S
C36 O37 1.258 . S
C36 O38 1.263 1_565 S
O37 Co34 1.970 1_565 S
O37 C36 1.258 . S
O38 Co35 1.966 . S
O38 C36 1.263 1_545 S
C39 O40 1.235 . S
C39 O66 1.289 . S
O40 C39 1.235 . S
C41 C43 1.400 . S
C41 N44 1.351 . S
C41 C46 1.501 . S
C42 C43 1.387 . S
C42 N45 1.341 . S
C43 C41 1.400 . S
C43 C42 1.387 . S
N44 Co35 2.022 . S
N44 C41 1.351 . S
N44 N45 1.365 . S
N45 C42 1.341 . S
N45 N44 1.365 . S
N45 H65 0.862 . S
C46 C41 1.501 . S
C46 H47 0.961 . S
C46 H48 0.961 . S
C46 H49 0.960 . S
H47 C46 0.961 . S
H48 C46 0.961 . S
H49 C46 0.960 . S
C50 N51 1.342 . S
C50 C54 1.401 . S
C50 C55 1.499 . S
N51 Co34 1.989 . S
N51 C50 1.342 . S
N51 N52 1.388 . S
N52 Co35 1.993 . S
N52 N51 1.388 . S
N52 C53 1.346 . S
C53 N52 1.346 . S
C53 C54 1.396 . S
C53 C63 1.510 . S
C54 C50 1.401 . S
C54 C53 1.396 . S
C55 C50 1.499 . S
C55 H56 0.959 . S
C55 H57 0.960 . S
C55 H58 0.961 . S
H56 C55 0.959 . S
H57 C55 0.960 . S
H58 C55 0.961 . S
O59 Co34 1.967 . S
O59 C67 1.258 . S
O60 Co35 1.941 . S
O60 C67 1.266 . S
H61 C63 0.959 . S
H62 C63 0.961 . S
C63 C53 1.510 . S
C63 H61 0.959 . S
C63 H62 0.961 . S
C63 H64 0.960 . S
H64 C63 0.960 . S
H65 N45 0.862 . S
O66 Co34 1.920 . S
O66 C39 1.289 . S
C67 O59 1.258 . S
C67 O60 1.266 . S
Co68 O71 1.970 . S
Co68 N85 1.989 . S
Co68 O93 1.967 . S
Co68 O100 1.920 . S
Co69 O72 1.966 . S
Co69 N78 2.022 . S
Co69 N86 1.993 . S
Co69 O94 1.941 . S
C70 O71 1.258 . S
C70 O72 1.263 . S
O71 Co68 1.970 . S
O71 C70 1.258 . S
O72 Co69 1.966 . S
O72 C70 1.263 . S
C73 O74 1.235 . S
C73 O100 1.289 . S
O74 C73 1.235 . S
C75 C77 1.400 . S
C75 N78 1.351 . S
C75 C80 1.501 . S
C76 C77 1.387 . S
C76 N79 1.341 . S
C77 C75 1.400 . S
C77 C76 1.387 . S
N78 Co69 2.022 . S
N78 C75 1.351 . S
N78 N79 1.365 . S
N79 C76 1.341 . S
N79 N78 1.365 . S
N79 H99 0.862 . S
C80 C75 1.501 . S
C80 H81 0.961 . S
C80 H82 0.961 . S
C80 H83 0.960 . S
H81 C80 0.961 . S
H82 C80 0.961 . S
H83 C80 0.960 . S
C84 N85 1.342 . S
C84 C88 1.401 . S
C84 C89 1.499 . S
N85 Co68 1.989 . S
N85 C84 1.342 . S
N85 N86 1.388 . S
N86 Co69 1.993 . S
N86 N85 1.388 . S
N86 C87 1.346 . S
C87 N86 1.346 . S
C87 C88 1.396 . S
C87 C97 1.510 . S
C88 C84 1.401 . S
C88 C87 1.396 . S
C89 C84 1.499 . S
C89 H90 0.959 . S
C89 H91 0.960 . S
C89 H92 0.961 . S
H90 C89 0.959 . S
H91 C89 0.960 . S
H92 C89 0.961 . S
O93 Co68 1.967 . S
O93 C101 1.258 . S
O94 Co69 1.941 . S
O94 C101 1.266 . S
H95 C97 0.959 . S
H96 C97 0.961 . S
C97 C87 1.510 . S
C97 H95 0.959 . S
C97 H96 0.961 . S
C97 H98 0.960 . S
H98 C97 0.960 . S
H99 N79 0.862 . S
O100 Co68 1.920 . S
O100 C73 1.289 . S
C101 O93 1.258 . S
C101 O94 1.266 . S
Co102 O105 1.970 1_655 S
Co102 N119 1.989 . S
Co102 O127 1.967 . S
Co102 O134 1.920 . S
Co103 O106 1.966 . S
Co103 N112 2.022 . S
Co103 N120 1.993 . S
Co103 O128 1.941 . S
C104 O105 1.258 . S
C104 O106 1.263 1_455 S
O105 Co102 1.970 1_455 S
O105 C104 1.258 . S
O106 Co103 1.966 . S
O106 C104 1.263 1_655 S
C107 O108 1.235 . S
C107 O134 1.289 . S
O108 C107 1.235 . S
C109 C111 1.400 . S
C109 N112 1.351 . S
C109 C114 1.501 . S
C110 C111 1.387 . S
C110 N113 1.341 . S
C111 C109 1.400 . S
C111 C110 1.387 . S
N112 Co103 2.022 . S
N112 C109 1.351 . S
N112 N113 1.365 . S
N113 C110 1.341 . S
N113 N112 1.365 . S
N113 H133 0.862 . S
C114 C109 1.501 . S
C114 H115 0.961 . S
C114 H116 0.961 . S
C114 H117 0.960 . S
H115 C114 0.961 . S
H116 C114 0.961 . S
H117 C114 0.960 . S
C118 N119 1.342 . S
C118 C122 1.401 . S
C118 C123 1.499 . S
N119 Co102 1.989 . S
N119 C118 1.342 . S
N119 N120 1.388 . S
N120 Co103 1.993 . S
N120 N119 1.388 . S
N120 C121 1.346 . S
C121 N120 1.346 . S
C121 C122 1.396 . S
C121 C131 1.510 . S
C122 C118 1.401 . S
C122 C121 1.396 . S
C123 C118 1.499 . S
C123 H124 0.959 . S
C123 H125 0.960 . S
C123 H126 0.961 . S
H124 C123 0.959 . S
H125 C123 0.960 . S
H126 C123 0.961 . S
O127 Co102 1.967 . S
O127 C135 1.258 . S
O128 Co103 1.941 . S
O128 C135 1.266 . S
H129 C131 0.959 . S
H130 C131 0.961 . S
C131 C121 1.510 . S
C131 H129 0.959 . S
C131 H130 0.961 . S
C131 H132 0.960 . S
H132 C131 0.960 . S
H133 N113 0.862 . S
O134 Co102 1.920 . S
O134 C107 1.289 . S
C135 O127 1.258 . S
C135 O128 1.266 . S
Co136 O139 1.970 1_565 S
Co136 N153 1.989 . S
Co136 O161 1.967 . S
Co136 O168 1.920 . S
Co137 O140 1.966 . S
Co137 N146 2.022 . S
Co137 N154 1.993 . S
Co137 O162 1.941 . S
C138 O139 1.258 . S
C138 O140 1.263 1_545 S
O139 Co136 1.970 1_545 S
O139 C138 1.258 . S
O140 Co137 1.966 . S
O140 C138 1.263 1_565 S
C141 O142 1.235 . S
C141 O168 1.289 . S
O142 C141 1.235 . S
C143 C145 1.400 . S
C143 N146 1.351 . S
C143 C148 1.501 . S
C144 C145 1.387 . S
C144 N147 1.341 . S
C145 C143 1.400 . S
C145 C144 1.387 . S
N146 Co137 2.022 . S
N146 C143 1.351 . S
N146 N147 1.365 . S
N147 C144 1.341 . S
N147 N146 1.365 . S
N147 H167 0.862 . S
C148 C143 1.501 . S
C148 H149 0.961 . S
C148 H150 0.961 . S
C148 H151 0.960 . S
H149 C148 0.961 . S
H150 C148 0.961 . S
H151 C148 0.960 . S
C152 N153 1.342 . S
C152 C156 1.401 . S
C152 C157 1.499 . S
N153 Co136 1.989 . S
N153 C152 1.342 . S
N153 N154 1.388 . S
N154 Co137 1.993 . S
N154 N153 1.388 . S
N154 C155 1.346 . S
C155 N154 1.346 . S
C155 C156 1.396 . S
C155 C165 1.510 . S
C156 C152 1.401 . S
C156 C155 1.396 . S
C157 C152 1.499 . S
C157 H158 0.959 . S
C157 H159 0.960 . S
C157 H160 0.961 . S
H158 C157 0.959 . S
H159 C157 0.960 . S
H160 C157 0.961 . S
O161 Co136 1.967 . S
O161 C169 1.258 . S
O162 Co137 1.941 . S
O162 C169 1.266 . S
H163 C165 0.959 . S
H164 C165 0.961 . S
C165 C155 1.510 . S
C165 H163 0.959 . S
C165 H164 0.961 . S
C165 H166 0.960 . S
H166 C165 0.960 . S
H167 N147 0.862 . S
O168 Co136 1.920 . S
O168 C141 1.289 . S
C169 O161 1.258 . S
C169 O162 1.266 . S
Co170 O173 1.970 . S
Co170 N187 1.989 . S
Co170 O195 1.967 . S
Co170 O202 1.920 . S
Co171 O174 1.966 . S
Co171 N180 2.022 . S
Co171 N188 1.993 . S
Co171 O196 1.941 . S
C172 O173 1.258 . S
C172 O174 1.263 . S
O173 Co170 1.970 . S
O173 C172 1.258 . S
O174 Co171 1.966 . S
O174 C172 1.263 . S
C175 O176 1.235 . S
C175 O202 1.289 . S
O176 C175 1.235 . S
C177 C179 1.400 1_556 S
C177 N180 1.351 . S
C177 C182 1.501 1_556 S
C178 C179 1.387 . S
C178 N181 1.341 1_554 S
C179 C177 1.400 1_554 S
C179 C178 1.387 . S
N180 Co171 2.022 . S
N180 C177 1.351 . S
N180 N181 1.365 . S
N181 C178 1.341 1_556 S
N181 N180 1.365 . S
N181 H201 0.862 . S
C182 C177 1.501 1_554 S
C182 H183 0.961 1_554 S
C182 H184 0.961 1_554 S
C182 H185 0.960 . S
H183 C182 0.961 1_556 S
H184 C182 0.961 1_556 S
H185 C182 0.960 . S
C186 N187 1.342 . S
C186 C190 1.401 . S
C186 C191 1.499 . S
N187 Co170 1.989 . S
N187 C186 1.342 . S
N187 N188 1.388 . S
N188 Co171 1.993 . S
N188 N187 1.388 . S
N188 C189 1.346 . S
C189 N188 1.346 . S
C189 C190 1.396 . S
C189 C199 1.510 . S
C190 C186 1.401 . S
C190 C189 1.396 . S
C191 C186 1.499 . S
C191 H192 0.959 . S
C191 H193 0.960 . S
C191 H194 0.961 . S
H192 C191 0.959 . S
H193 C191 0.960 . S
H194 C191 0.961 . S
O195 Co170 1.967 . S
O195 C203 1.258 . S
O196 Co171 1.941 . S
O196 C203 1.266 . S
H197 C199 0.959 . S
H198 C199 0.961 . S
C199 C189 1.510 . S
C199 H197 0.959 . S
C199 H198 0.961 . S
C199 H200 0.960 . S
H200 C199 0.960 . S
H201 N181 0.862 . S
O202 Co170 1.920 . S
O202 C175 1.289 . S
C203 O195 1.258 . S
C203 O196 1.266 . S
Co204 O207 1.970 1_565 S
Co204 N221 1.989 . S
Co204 O229 1.967 . S
Co204 O236 1.920 . S
Co205 O208 1.966 . S
Co205 N214 2.022 . S
Co205 N222 1.993 . S
Co205 O230 1.941 . S
C206 O207 1.258 . S
C206 O208 1.263 1_545 S
O207 Co204 1.970 1_545 S
O207 C206 1.258 . S
O208 Co205 1.966 . S
O208 C206 1.263 1_565 S
C209 O210 1.235 . S
C209 O236 1.289 . S
O210 C209 1.235 . S
C211 C213 1.400 . S
C211 N214 1.351 . S
C211 C216 1.501 . S
C212 C213 1.387 . S
C212 N215 1.341 . S
C213 C211 1.400 . S
C213 C212 1.387 . S
N214 Co205 2.022 . S
N214 C211 1.351 . S
N214 N215 1.365 . S
N215 C212 1.341 . S
N215 N214 1.365 . S
N215 H235 0.862 . S
C216 C211 1.501 . S
C216 H217 0.961 . S
C216 H218 0.961 . S
C216 H219 0.960 . S
H217 C216 0.961 . S
H218 C216 0.961 . S
H219 C216 0.960 . S
C220 N221 1.342 . S
C220 C224 1.401 . S
C220 C225 1.499 . S
N221 Co204 1.989 . S
N221 C220 1.342 . S
N221 N222 1.388 . S
N222 Co205 1.993 . S
N222 N221 1.388 . S
N222 C223 1.346 . S
C223 N222 1.346 . S
C223 C224 1.396 . S
C223 C233 1.510 . S
C224 C220 1.401 . S
C224 C223 1.396 . S
C225 C220 1.499 . S
C225 H226 0.959 . S
C225 H227 0.960 . S
C225 H228 0.961 . S
H226 C225 0.959 . S
H227 C225 0.960 . S
H228 C225 0.961 . S
O229 Co204 1.967 . S
O229 C237 1.258 . S
O230 Co205 1.941 . S
O230 C237 1.266 . S
H231 C233 0.959 . S
H232 C233 0.961 . S
C233 C223 1.510 . S
C233 H231 0.959 . S
C233 H232 0.961 . S
C233 H234 0.960 . S
H234 C233 0.960 . S
H235 N215 0.862 . S
O236 Co204 1.920 . S
O236 C209 1.289 . S
C237 O229 1.258 . S
C237 O230 1.266 . S
Co238 O241 1.961 1_554 S
Co238 N255 1.988 1_554 S
Co238 O263 1.960 1_554 S
Co238 O270 1.935 . S
Co239 O242 1.966 . S
Co239 N248 2.022 . S
Co239 N256 1.993 . S
Co239 O264 1.941 . S
C240 O241 1.258 . S
C240 O242 1.263 . S
O241 Co238 1.961 1_556 S
O241 C240 1.258 . S
O242 Co239 1.966 . S
O242 C240 1.263 . S
C243 O244 1.235 . S
C243 O270 1.289 . S
O244 C243 1.235 . S
C245 C247 1.400 . S
C245 N248 1.351 . S
C245 C250 1.501 . S
C246 C247 1.387 . S
C246 N249 1.341 . S
C247 C245 1.400 . S
C247 C246 1.387 . S
N248 Co239 2.022 . S
N248 C245 1.351 . S
N248 N249 1.365 . S
N249 C246 1.341 . S
N249 N248 1.365 . S
N249 H269 0.862 . S
C250 C245 1.501 . S
C250 H251 0.961 . S
C250 H252 0.961 . S
C250 H253 0.960 . S
H251 C250 0.961 . S
H252 C250 0.961 . S
H253 C250 0.960 . S
C254 N255 1.342 1_554 S
C254 C258 1.401 . S
C254 C259 1.499 . S
N255 Co238 1.988 1_556 S
N255 C254 1.342 1_556 S
N255 N256 1.388 . S
N256 Co239 1.993 . S
N256 N255 1.388 . S
N256 C257 1.346 . S
C257 N256 1.346 . S
C257 C258 1.396 1_556 S
C257 C267 1.510 . S
C258 C254 1.401 . S
C258 C257 1.396 1_554 S
C259 C254 1.499 . S
C259 H260 0.959 . S
C259 H261 0.960 . S
C259 H262 0.961 . S
H260 C259 0.959 . S
H261 C259 0.960 . S
H262 C259 0.961 . S
O263 Co238 1.960 1_556 S
O263 C271 1.258 . S
O264 Co239 1.941 . S
O264 C271 1.266 . S
H265 C267 0.959 . S
H266 C267 0.961 . S
C267 C257 1.510 . S
C267 H265 0.959 . S
C267 H266 0.961 . S
C267 H268 0.960 . S
H268 C267 0.960 . S
H269 N249 0.862 . S
O270 Co238 1.935 . S
O270 C243 1.289 . S
C271 O263 1.258 . S
C271 O264 1.266 . S
Co272 O275 1.970 1_455 S
Co272 N289 1.989 . S
Co272 O297 1.967 . S
Co272 O304 1.920 . S
Co273 O276 1.966 . S
Co273 N282 2.022 . S
Co273 N290 1.993 . S
Co273 O298 1.941 . S
C274 O275 1.258 . S
C274 O276 1.263 1_655 S
O275 Co272 1.970 1_655 S
O275 C274 1.258 . S
O276 Co273 1.966 . S
O276 C274 1.263 1_455 S
C277 O278 1.235 . S
C277 O304 1.289 . S
O278 C277 1.235 . S
C279 C281 1.400 1_554 S
C279 N282 1.351 . S
C279 C284 1.501 1_554 S
C280 C281 1.387 . S
C280 N283 1.341 1_556 S
C281 C279 1.400 1_556 S
C281 C280 1.387 . S
N282 Co273 2.022 . S
N282 C279 1.351 . S
N282 N283 1.365 . S
N283 C280 1.341 1_554 S
N283 N282 1.365 . S
N283 H303 0.862 . S
C284 C279 1.501 1_556 S
C284 H285 0.961 1_556 S
C284 H286 0.961 1_556 S
C284 H287 0.960 . S
H285 C284 0.961 1_554 S
H286 C284 0.961 1_554 S
H287 C284 0.960 . S
C288 N289 1.342 . S
C288 C292 1.401 . S
C288 C293 1.499 . S
N289 Co272 1.989 . S
N289 C288 1.342 . S
N289 N290 1.388 . S
N290 Co273 1.993 . S
N290 N289 1.388 . S
N290 C291 1.346 . S
C291 N290 1.346 . S
C291 C292 1.396 . S
C291 C301 1.510 . S
C292 C288 1.401 . S
C292 C291 1.396 . S
C293 C288 1.499 . S
C293 H294 0.959 . S
C293 H295 0.960 . S
C293 H296 0.961 . S
H294 C293 0.959 . S
H295 C293 0.960 . S
H296 C293 0.961 . S
O297 Co272 1.967 . S
O297 C305 1.258 . S
O298 Co273 1.941 . S
O298 C305 1.266 . S
H299 C301 0.959 . S
H300 C301 0.961 . S
C301 C291 1.510 . S
C301 H299 0.959 . S
C301 H300 0.961 . S
C301 H302 0.960 . S
H302 C301 0.960 . S
H303 N283 0.862 . S
O304 Co272 1.920 . S
O304 C277 1.289 . S
C305 O297 1.258 . S
C305 O298 1.266 . S
Co306 O309 1.970 1_545 S
Co306 N323 1.989 . S
Co306 O331 1.967 . S
Co306 O338 1.920 . S
Co307 O310 1.966 . S
Co307 N316 2.022 . S
Co307 N324 1.993 . S
Co307 O332 1.941 . S
C308 O309 1.258 . S
C308 O310 1.263 1_565 S
O309 Co306 1.970 1_565 S
O309 C308 1.258 . S
O310 Co307 1.966 . S
O310 C308 1.263 1_545 S
C311 O312 1.235 . S
C311 O338 1.289 . S
O312 C311 1.235 . S
C313 C315 1.400 . S
C313 N316 1.351 . S
C313 C318 1.501 . S
C314 C315 1.387 . S
C314 N317 1.341 . S
C315 C313 1.400 . S
C315 C314 1.387 . S
N316 Co307 2.022 . S
N316 C313 1.351 . S
N316 N317 1.365 . S
N317 C314 1.341 . S
N317 N316 1.365 . S
N317 H337 0.862 . S
C318 C313 1.501 . S
C318 H319 0.961 . S
C318 H320 0.961 . S
C318 H321 0.960 . S
H319 C318 0.961 . S
H320 C318 0.961 . S
H321 C318 0.960 . S
C322 N323 1.342 . S
C322 C326 1.401 . S
C322 C327 1.499 . S
N323 Co306 1.989 . S
N323 C322 1.342 . S
N323 N324 1.388 . S
N324 Co307 1.993 . S
N324 N323 1.388 . S
N324 C325 1.346 . S
C325 N324 1.346 . S
C325 C326 1.396 . S
C325 C335 1.510 . S
C326 C322 1.401 . S
C326 C325 1.396 . S
C327 C322 1.499 . S
C327 H328 0.959 . S
C327 H329 0.960 . S
C327 H330 0.961 . S
H328 C327 0.959 . S
H329 C327 0.960 . S
H330 C327 0.961 . S
O331 Co306 1.967 . S
O331 C339 1.258 . S
O332 Co307 1.941 . S
O332 C339 1.266 . S
H333 C335 0.959 . S
H334 C335 0.961 . S
C335 C325 1.510 . S
C335 H333 0.959 . S
C335 H334 0.961 . S
C335 H336 0.960 . S
H336 C335 0.960 . S
H337 N317 0.862 . S
O338 Co306 1.920 . S
O338 C311 1.289 . S
C339 O331 1.258 . S
C339 O332 1.266 . S
Co340 O343 1.970 . S
Co340 N357 1.989 . S
Co340 O365 1.967 . S
Co340 O372 1.920 . S
Co341 O344 1.966 . S
Co341 N350 2.022 . S
Co341 N358 1.993 . S
Co341 O366 1.941 . S
C342 O343 1.258 . S
C342 O344 1.263 . S
O343 Co340 1.970 . S
O343 C342 1.258 . S
O344 Co341 1.966 . S
O344 C342 1.263 . S
C345 O346 1.235 . S
C345 O372 1.289 . S
O346 C345 1.235 . S
C347 C349 1.400 . S
C347 N350 1.351 . S
C347 C352 1.501 . S
C348 C349 1.387 . S
C348 N351 1.341 . S
C349 C347 1.400 . S
C349 C348 1.387 . S
N350 Co341 2.022 . S
N350 C347 1.351 . S
N350 N351 1.365 . S
N351 C348 1.341 . S
N351 N350 1.365 . S
N351 H371 0.862 . S
C352 C347 1.501 . S
C352 H353 0.961 . S
C352 H354 0.961 . S
C352 H355 0.960 . S
H353 C352 0.961 . S
H354 C352 0.961 . S
H355 C352 0.960 . S
C356 N357 1.342 . S
C356 C360 1.401 . S
C356 C361 1.499 . S
N357 Co340 1.989 . S
N357 C356 1.342 . S
N357 N358 1.388 . S
N358 Co341 1.993 . S
N358 N357 1.388 . S
N358 C359 1.346 . S
C359 N358 1.346 . S
C359 C360 1.396 . S
C359 C369 1.510 . S
C360 C356 1.401 . S
C360 C359 1.396 . S
C361 C356 1.499 . S
C361 H362 0.959 . S
C361 H363 0.960 . S
C361 H364 0.961 . S
H362 C361 0.959 . S
H363 C361 0.960 . S
H364 C361 0.961 . S
O365 Co340 1.967 . S
O365 C373 1.258 . S
O366 Co341 1.941 . S
O366 C373 1.266 . S
H367 C369 0.959 . S
H368 C369 0.961 . S
C369 C359 1.510 . S
C369 H367 0.959 . S
C369 H368 0.961 . S
C369 H370 0.960 . S
H370 C369 0.960 . S
H371 N351 0.862 . S
O372 Co340 1.920 . S
O372 C345 1.289 . S
C373 O365 1.258 . S
C373 O366 1.266 . S
Co374 O377 1.970 1_655 S
Co374 N391 1.989 . S
Co374 O399 1.967 . S
Co374 O406 1.920 . S
Co375 O378 1.966 . S
Co375 N384 2.022 . S
Co375 N392 1.993 . S
Co375 O400 1.941 . S
C376 O377 1.258 . S
C376 O378 1.263 1_455 S
O377 Co374 1.970 1_455 S
O377 C376 1.258 . S
O378 Co375 1.966 . S
O378 C376 1.263 1_655 S
C379 O380 1.235 . S
C379 O406 1.289 . S
O380 C379 1.235 . S
C381 C383 1.400 . S
C381 N384 1.351 . S
C381 C386 1.501 . S
C382 C383 1.387 . S
C382 N385 1.341 . S
C383 C381 1.400 . S
C383 C382 1.387 . S
N384 Co375 2.022 . S
N384 C381 1.351 . S
N384 N385 1.365 . S
N385 C382 1.341 . S
N385 N384 1.365 . S
N385 H405 0.862 . S
C386 C381 1.501 . S
C386 H387 0.961 . S
C386 H388 0.961 . S
C386 H389 0.960 . S
H387 C386 0.961 . S
H388 C386 0.961 . S
H389 C386 0.960 . S
C390 N391 1.342 . S
C390 C394 1.401 . S
C390 C395 1.499 . S
N391 Co374 1.989 . S
N391 C390 1.342 . S
N391 N392 1.388 . S
N392 Co375 1.993 . S
N392 N391 1.388 . S
N392 C393 1.346 . S
C393 N392 1.346 . S
C393 C394 1.396 . S
C393 C403 1.510 . S
C394 C390 1.401 . S
C394 C393 1.396 . S
C395 C390 1.499 . S
C395 H396 0.959 . S
C395 H397 0.960 . S
C395 H398 0.961 . S
H396 C395 0.959 . S
H397 C395 0.960 . S
H398 C395 0.961 . S
O399 Co374 1.967 . S
O399 C407 1.258 . S
O400 Co375 1.941 . S
O400 C407 1.266 . S
H401 C403 0.959 . S
H402 C403 0.961 . S
C403 C393 1.510 . S
C403 H401 0.959 . S
C403 H402 0.961 . S
C403 H404 0.960 . S
H404 C403 0.960 . S
H405 N385 0.862 . S
O406 Co374 1.920 . S
O406 C379 1.289 . S
C407 O399 1.258 . S
C407 O400 1.266 . S
C408 C409 1.369 . S
C408 C410 1.419 . S
C408 H412 0.930 . S
C409 C408 1.369 . S
C409 C418 1.429 . S
C410 C408 1.419 . S
C410 C411 1.363 . S
C410 H413 0.929 . S
C411 C410 1.363 . S
C411 C417 1.428 . S
H412 C408 0.930 . S
H413 C410 0.929 . S
S414 N415 1.613 . S
S414 N416 1.610 . S
N415 S414 1.613 . S
N415 C418 1.350 . S
N416 S414 1.610 . S
N416 C417 1.351 . S
C417 C411 1.428 . S
C417 N416 1.351 . S
C417 C418 1.434 . S
C418 C409 1.429 . S
C418 N415 1.350 . S
C418 C417 1.434 . S
C419 C420 1.369 . S
C419 C421 1.419 . S
C419 H423 0.930 . S
C420 C419 1.369 . S
C420 C429 1.429 . S
C421 C419 1.419 . S
C421 C422 1.363 . S
C421 H424 0.929 . S
C422 C421 1.363 . S
C422 C428 1.428 . S
H423 C419 0.930 . S
H424 C421 0.929 . S
S425 N426 1.613 . S
S425 N427 1.610 . S
N426 S425 1.613 . S
N426 C429 1.350 . S
N427 S425 1.610 . S
N427 C428 1.351 . S
C428 C422 1.428 . S
C428 N427 1.351 . S
C428 C429 1.434 . S
C429 C420 1.429 . S
C429 N426 1.350 . S
C429 C428 1.434 . S
C430 C431 1.369 . S
C430 C432 1.419 . S
C430 H434 0.930 . S
C431 C430 1.369 . S
C431 C440 1.429 . S
C432 C430 1.419 . S
C432 C433 1.363 . S
C432 H435 0.929 . S
C433 C432 1.363 . S
C433 C439 1.428 . S
H434 C430 0.930 . S
H435 C432 0.929 . S
S436 N437 1.613 . S
S436 N438 1.610 . S
N437 S436 1.613 . S
N437 C440 1.350 . S
N438 S436 1.610 . S
N438 C439 1.351 . S
C439 C433 1.428 . S
C439 N438 1.351 . S
C439 C440 1.434 . S
C440 C431 1.429 . S
C440 N437 1.350 . S
C440 C439 1.434 . S
C441 C442 1.369 . S
C441 C443 1.419 . S
C441 H445 0.930 . S
C442 C441 1.369 . S
C442 C451 1.429 . S
C443 C441 1.419 . S
C443 C444 1.363 . S
C443 H446 0.929 . S
C444 C443 1.363 . S
C444 C450 1.428 . S
H445 C441 0.930 . S
H446 C443 0.929 . S
S447 N448 1.613 . S
S447 N449 1.610 . S
N448 S447 1.613 . S
N448 C451 1.350 . S
N449 S447 1.610 . S
N449 C450 1.351 . S
C450 C444 1.428 . S
C450 N449 1.351 . S
C450 C451 1.434 . S
C451 C442 1.429 . S
C451 N448 1.350 . S
C451 C450 1.434 . S
C452 C453 1.369 . S
C452 C454 1.419 . S
C452 H456 0.930 . S
C453 C452 1.369 . S
C453 C462 1.429 . S
C454 C452 1.419 . S
C454 C455 1.363 . S
C454 H457 0.929 . S
C455 C454 1.363 . S
C455 C461 1.428 . S
H456 C452 0.930 . S
H457 C454 0.929 . S
S458 N459 1.613 . S
S458 N460 1.610 . S
N459 S458 1.613 . S
N459 C462 1.350 . S
N460 S458 1.610 . S
N460 C461 1.351 . S
C461 C455 1.428 . S
C461 N460 1.351 . S
C461 C462 1.434 . S
C462 C453 1.429 . S
C462 N459 1.350 . S
C462 C461 1.434 . S
C463 C464 1.369 . S
C463 C465 1.419 . S
C463 H467 0.930 . S
C464 C463 1.369 . S
C464 C473 1.429 . S
C465 C463 1.419 . S
C465 C466 1.363 . S
C465 H468 0.929 . S
C466 C465 1.363 . S
C466 C472 1.428 . S
H467 C463 0.930 . S
H468 C465 0.929 . S
S469 N470 1.613 . S
S469 N471 1.610 . S
N470 S469 1.613 . S
N470 C473 1.350 . S
N471 S469 1.610 . S
N471 C472 1.351 . S
C472 C466 1.428 . S
C472 N471 1.351 . S
C472 C473 1.434 . S
C473 C464 1.429 . S
C473 N470 1.350 . S
C473 C472 1.434 . S
C474 C475 1.369 . S
C474 C476 1.419 . S
C474 H478 0.930 . S
C475 C474 1.369 . S
C475 C484 1.429 . S
C476 C474 1.419 . S
C476 C477 1.363 . S
C476 H479 0.929 . S
C477 C476 1.363 . S
C477 C483 1.428 . S
H478 C474 0.930 . S
H479 C476 0.929 . S
S480 N481 1.613 . S
S480 N482 1.610 . S
N481 S480 1.613 . S
N481 C484 1.350 1_655 S
N482 S480 1.610 . S
N482 C483 1.351 1_655 S
C483 C477 1.428 . S
C483 N482 1.351 1_455 S
C483 C484 1.434 . S
C484 C475 1.429 . S
C484 N481 1.350 1_455 S
C484 C483 1.434 . S
C485 C486 1.369 . S
C485 C487 1.419 . S
C485 H489 0.930 . S
C486 C485 1.369 . S
C486 C495 1.429 . S
C487 C485 1.419 . S
C487 C488 1.363 . S
C487 H490 0.929 . S
C488 C487 1.363 . S
C488 C494 1.428 . S
H489 C485 0.930 . S
H490 C487 0.929 . S
S491 N492 1.616 . S
S491 N493 1.610 . S
N492 S491 1.616 . S
N492 C495 1.348 1_565 S
N493 S491 1.610 . S
N493 C494 1.354 1_565 S
C494 C488 1.428 . S
C494 N493 1.354 1_545 S
C494 C495 1.434 . S
C495 C486 1.429 . S
C495 N492 1.348 1_545 S
C495 C494 1.434 . S
C496 C497 1.369 . S
C496 C498 1.419 . S
C496 H500 0.930 . S
C497 C496 1.369 . S
C497 C506 1.429 . S
C498 C496 1.419 . S
C498 C499 1.363 . S
C498 H501 0.929 . S
C499 C498 1.363 . S
C499 C505 1.428 . S
H500 C496 0.930 . S
H501 C498 0.929 . S
S502 N503 1.613 . S
S502 N504 1.610 . S
N503 S502 1.613 . S
N503 C506 1.350 . S
N504 S502 1.610 . S
N504 C505 1.351 . S
C505 C499 1.428 . S
C505 N504 1.351 . S
C505 C506 1.434 . S
C506 C497 1.429 . S
C506 N503 1.350 . S
C506 C505 1.434 . S
C507 C508 1.369 . S
C507 C509 1.419 . S
C507 H511 0.930 . S
C508 C507 1.369 . S
C508 C517 1.429 . S
C509 C507 1.419 . S
C509 C510 1.363 . S
C509 H512 0.929 . S
C510 C509 1.363 . S
C510 C516 1.428 . S
H511 C507 0.930 . S
H512 C509 0.929 . S
S513 N514 1.613 . S
S513 N515 1.610 . S
N514 S513 1.613 . S
N514 C517 1.350 . S
N515 S513 1.610 . S
N515 C516 1.351 . S
C516 C510 1.428 . S
C516 N515 1.351 . S
C516 C517 1.434 . S
C517 C508 1.429 . S
C517 N514 1.350 . S
C517 C516 1.434 . S
C518 C519 1.369 . S
C518 C520 1.419 . S
C518 H522 0.930 . S
C519 C518 1.369 . S
C519 C528 1.429 . S
C520 C518 1.419 . S
C520 C521 1.363 . S
C520 H523 0.929 . S
C521 C520 1.363 . S
C521 C527 1.428 . S
H522 C518 0.930 . S
H523 C520 0.929 . S
S524 N525 1.613 . S
S524 N526 1.610 . S
N525 S524 1.613 . S
N525 C528 1.350 . S
N526 S524 1.610 . S
N526 C527 1.351 . S
C527 C521 1.428 . S
C527 N526 1.351 . S
C527 C528 1.434 . S
C528 C519 1.429 . S
C528 N525 1.350 . S
C528 C527 1.434 . S
C529 C530 1.369 . S
C529 C531 1.419 . S
C529 H533 0.930 . S
C530 C529 1.369 . S
C530 C539 1.429 . S
C531 C529 1.419 . S
C531 C532 1.363 . S
C531 H534 0.929 . S
C532 C531 1.363 . S
C532 C538 1.428 . S
H533 C529 0.930 . S
H534 C531 0.929 . S
S535 N536 1.613 . S
S535 N537 1.610 . S
N536 S535 1.613 . S
N536 C539 1.350 . S
N537 S535 1.610 . S
N537 C538 1.351 . S
C538 C532 1.428 . S
C538 N537 1.351 . S
C538 C539 1.434 . S
C539 C530 1.429 . S
C539 N536 1.350 . S
C539 C538 1.434 . S
C540 C541 1.376 . S
C540 C542 1.419 . S
C540 H544 0.930 . S
C541 C540 1.376 . S
C541 C550 1.421 1_655 S
C542 C540 1.419 . S
C542 C543 1.359 1_655 S
C542 H545 0.929 . S
C543 C542 1.359 1_455 S
C543 C549 1.432 . S
H544 C540 0.930 . S
H545 C542 0.929 . S
S546 N547 1.613 . S
S546 N548 1.610 . S
N547 S546 1.613 . S
N547 C550 1.350 . S
N548 S546 1.610 . S
N548 C549 1.351 . S
C549 C543 1.432 . S
C549 N548 1.351 . S
C549 C550 1.434 . S
C550 C541 1.421 1_455 S
C550 N547 1.350 . S
C550 C549 1.434 . S
C551 C552 1.368 1_545 S
C551 C553 1.419 1_556 S
C551 H555 0.930 . S
C552 C551 1.368 1_565 S
C552 C561 1.429 . S
C553 C551 1.419 1_554 S
C553 C554 1.363 . S
C553 H556 0.929 . S
C554 C553 1.363 . S
C554 C560 1.428 1_545 S
H555 C551 0.930 . S
H556 C553 0.929 . S
S557 N558 1.604 1_554 S
S557 N559 1.619 . S
N558 S557 1.604 1_556 S
N558 C561 1.350 . S
N559 S557 1.619 . S
N559 C560 1.351 . S
C560 C554 1.428 1_565 S
C560 N559 1.351 . S
C560 C561 1.434 1_554 S
C561 C552 1.429 . S
C561 N558 1.350 . S
C561 C560 1.434 1_556 S
C562 C563 1.369 . S
C562 C564 1.419 . S
C562 H566 0.930 . S
C563 C562 1.369 . S
C563 C572 1.429 . S
C564 C562 1.419 . S
C564 C565 1.363 . S
C564 H567 0.929 . S
C565 C564 1.363 . S
C565 C571 1.428 . S
H566 C562 0.930 . S
H567 C564 0.929 . S
S568 N569 1.613 . S
S568 N570 1.610 . S
N569 S568 1.613 . S
N569 C572 1.350 . S
N570 S568 1.610 . S
N570 C571 1.351 . S
C571 C565 1.428 . S
C571 N570 1.351 . S
C571 C572 1.434 . S
C572 C563 1.429 . S
C572 N569 1.350 . S
C572 C571 1.434 . S
C573 C574 1.368 1_655 S
C573 C575 1.419 . S
C573 H577 0.930 . S
C574 C573 1.368 1_455 S
C574 C583 1.429 . S
C575 C573 1.419 . S
C575 C576 1.349 1_655 S
C575 H578 0.929 . S
C576 C575 1.349 1_455 S
C576 C582 1.443 . S
H577 C573 0.930 . S
H578 C575 0.929 . S
S579 N580 1.613 . S
S579 N581 1.610 . S
N580 S579 1.613 . S
N580 C583 1.350 . S
N581 S579 1.610 . S
N581 C582 1.351 . S
C582 C576 1.443 . S
C582 N581 1.351 . S
C582 C583 1.434 . S
C583 C574 1.429 . S
C583 N580 1.350 . S
C583 C582 1.434 . S
C584 C585 1.365 1_545 S
C584 C586 1.419 . S
C584 H588 0.930 . S
C585 C584 1.365 1_565 S
C585 C594 1.434 . S
C586 C584 1.419 . S
C586 C587 1.363 1_545 S
C586 H589 0.929 . S
C587 C586 1.363 1_565 S
C587 C593 1.428 . S
H588 C584 0.930 . S
H589 C586 0.929 . S
S590 N591 1.613 . S
S590 N592 1.610 . S
N591 S590 1.613 . S
N591 C594 1.350 . S
N592 S590 1.610 . S
N592 C593 1.351 . S
C593 C587 1.428 . S
C593 N592 1.351 . S
C593 C594 1.434 . S
C594 C585 1.434 . S
C594 N591 1.350 . S
C594 C593 1.434 . S
C595 C596 1.369 . S
C595 C597 1.419 . S
C595 H599 0.930 . S
C596 C595 1.369 . S
C596 C605 1.429 . S
C597 C595 1.419 . S
C597 C598 1.363 . S
C597 H600 0.929 . S
C598 C597 1.363 . S
C598 C604 1.428 . S
H599 C595 0.930 . S
H600 C597 0.929 . S
S601 N602 1.613 . S
S601 N603 1.610 . S
N602 S601 1.613 . S
N602 C605 1.350 . S
N603 S601 1.610 . S
N603 C604 1.351 . S
C604 C598 1.428 . S
C604 N603 1.351 . S
C604 C605 1.434 . S
C605 C596 1.429 . S
C605 N602 1.350 . S
C605 C604 1.434 . S
C606 C607 1.369 . S
C606 C608 1.419 . S
C606 H610 0.930 . S
C607 C606 1.369 . S
C607 C616 1.429 . S
C608 C606 1.419 . S
C608 C609 1.363 . S
C608 H611 0.929 . S
C609 C608 1.363 . S
C609 C615 1.428 . S
H610 C606 0.930 . S
H611 C608 0.929 . S
S612 N613 1.613 . S
S612 N614 1.610 . S
N613 S612 1.613 . S
N613 C616 1.350 . S
N614 S612 1.610 . S
N614 C615 1.351 . S
C615 C609 1.428 . S
C615 N614 1.351 . S
C615 C616 1.434 . S
C616 C607 1.429 . S
C616 N613 1.350 . S
C616 C615 1.434 . S
C617 C618 1.369 . S
C617 C619 1.419 . S
C617 H621 0.930 . S
C618 C617 1.369 . S
C618 C627 1.429 . S
C619 C617 1.419 . S
C619 C620 1.363 . S
C619 H622 0.929 . S
C620 C619 1.363 . S
C620 C626 1.428 . S
H621 C617 0.930 . S
H622 C619 0.929 . S
S623 N624 1.613 . S
S623 N625 1.610 . S
N624 S623 1.613 . S
N624 C627 1.350 . S
N625 S623 1.610 . S
N625 C626 1.351 . S
C626 C620 1.428 . S
C626 N625 1.351 . S
C626 C627 1.434 . S
C627 C618 1.429 . S
C627 N624 1.350 . S
C627 C626 1.434 . S
C628 C629 1.369 . S
C628 C630 1.419 . S
C628 H632 0.930 . S
C629 C628 1.369 . S
C629 C638 1.429 . S
C630 C628 1.419 . S
C630 C631 1.363 . S
C630 H633 0.929 . S
C631 C630 1.363 . S
C631 C637 1.428 . S
H632 C628 0.930 . S
H633 C630 0.929 . S
S634 N635 1.613 . S
S634 N636 1.610 . S
N635 S634 1.613 . S
N635 C638 1.350 . S
N636 S634 1.610 . S
N636 C637 1.351 . S
C637 C631 1.428 . S
C637 N636 1.351 . S
C637 C638 1.434 . S
C638 C629 1.429 . S
C638 N635 1.350 . S
C638 C637 1.434 . S
C639 C640 1.369 . S
C639 C641 1.419 . S
C639 H643 0.930 . S
C640 C639 1.369 . S
C640 C649 1.429 . S
C641 C639 1.419 . S
C641 C642 1.363 . S
C641 H644 0.929 . S
C642 C641 1.363 . S
C642 C648 1.428 . S
H643 C639 0.930 . S
H644 C641 0.929 . S
S645 N646 1.613 . S
S645 N647 1.610 . S
N646 S645 1.613 . S
N646 C649 1.350 . S
N647 S645 1.610 . S
N647 C648 1.351 . S
C648 C642 1.428 . S
C648 N647 1.351 . S
C648 C649 1.434 . S
C649 C640 1.429 . S
C649 N646 1.350 . S
C649 C648 1.434 . S
C650 C651 1.369 . S
C650 C652 1.419 . S
C650 H654 0.930 . S
C651 C650 1.369 . S
C651 C660 1.429 . S
C652 C650 1.419 . S
C652 C653 1.363 . S
C652 H655 0.929 . S
C653 C652 1.363 . S
C653 C659 1.428 . S
H654 C650 0.930 . S
H655 C652 0.929 . S
S656 N657 1.613 . S
S656 N658 1.610 . S
N657 S656 1.613 . S
N657 C660 1.350 . S
N658 S656 1.610 . S
N658 C659 1.351 . S
C659 C653 1.428 . S
C659 N658 1.351 . S
C659 C660 1.434 . S
C660 C651 1.429 . S
C660 N657 1.350 . S
C660 C659 1.434 . S
C661 C662 1.369 . S
C661 C663 1.419 . S
C661 H665 0.930 . S
C662 C661 1.369 . S
C662 C671 1.429 . S
C663 C661 1.419 . S
C663 C664 1.363 . S
C663 H666 0.929 . S
C664 C663 1.363 . S
C664 C670 1.428 . S
H665 C661 0.930 . S
H666 C663 0.929 . S
S667 N668 1.613 . S
S667 N669 1.610 . S
N668 S667 1.613 . S
N668 C671 1.350 . S
N669 S667 1.610 . S
N669 C670 1.351 . S
C670 C664 1.428 . S
C670 N669 1.351 . S
C670 C671 1.434 . S
C671 C662 1.429 . S
C671 N668 1.350 . S
C671 C670 1.434 . S
C672 C673 1.369 . S
C672 C674 1.419 . S
C672 H676 0.930 . S
C673 C672 1.369 . S
C673 C682 1.429 . S
C674 C672 1.419 . S
C674 C675 1.363 . S
C674 H677 0.929 . S
C675 C674 1.363 . S
C675 C681 1.428 . S
H676 C672 0.930 . S
H677 C674 0.929 . S
S678 N679 1.613 . S
S678 N680 1.610 . S
N679 S678 1.613 . S
N679 C682 1.350 . S
N680 S678 1.610 . S
N680 C681 1.351 . S
C681 C675 1.428 . S
C681 N680 1.351 . S
C681 C682 1.434 . S
C682 C673 1.429 . S
C682 N679 1.350 . S
C682 C681 1.434 . S
C683 C684 1.369 . S
C683 C685 1.419 . S
C683 H687 0.930 1_554 S
C684 C683 1.369 . S
C684 C693 1.429 . S
C685 C683 1.419 . S
C685 C686 1.363 . S
C685 H688 0.929 . S
C686 C685 1.363 . S
C686 C692 1.428 . S
H687 C683 0.930 1_556 S
H688 C685 0.929 . S
S689 N690 1.613 . S
S689 N691 1.610 . S
N690 S689 1.613 . S
N690 C693 1.350 . S
N691 S689 1.610 . S
N691 C692 1.351 . S
C692 C686 1.428 . S
C692 N691 1.351 . S
C692 C693 1.434 . S
C693 C684 1.429 . S
C693 N690 1.350 . S
C693 C692 1.434 . S
C694 C695 1.369 . S
C694 C696 1.419 . S
C694 H698 0.930 . S
C695 C694 1.369 . S
C695 C704 1.429 . S
C696 C694 1.419 . S
C696 C697 1.363 . S
C696 H699 0.929 . S
C697 C696 1.363 . S
C697 C703 1.428 . S
H698 C694 0.930 . S
H699 C696 0.929 . S
S700 N701 1.613 . S
S700 N702 1.610 . S
N701 S700 1.613 . S
N701 C704 1.350 . S
N702 S700 1.610 . S
N702 C703 1.351 . S
C703 C697 1.428 . S
C703 N702 1.351 . S
C703 C704 1.434 . S
C704 C695 1.429 . S
C704 N701 1.350 . S
C704 C703 1.434 . S
C705 C706 1.369 . S
C705 C707 1.419 . S
C705 H709 0.930 . S
C706 C705 1.369 . S
C706 C715 1.429 . S
C707 C705 1.419 . S
C707 C708 1.363 . S
C707 H710 0.929 . S
C708 C707 1.363 . S
C708 C714 1.428 . S
H709 C705 0.930 . S
H710 C707 0.929 . S
S711 N712 1.613 . S
S711 N713 1.610 . S
N712 S711 1.613 . S
N712 C715 1.350 . S
N713 S711 1.610 . S
N713 C714 1.351 . S
C714 C708 1.428 . S
C714 N713 1.351 . S
C714 C715 1.434 . S
C715 C706 1.429 . S
C715 N712 1.350 . S
C715 C714 1.434 . S
C716 C717 1.369 . S
C716 C718 1.419 . S
C716 H720 0.930 . S
C717 C716 1.369 . S
C717 C726 1.429 . S
C718 C716 1.419 . S
C718 C719 1.363 . S
C718 H721 0.929 . S
C719 C718 1.363 . S
C719 C725 1.428 . S
H720 C716 0.930 . S
H721 C718 0.929 . S
S722 N723 1.613 . S
S722 N724 1.610 . S
N723 S722 1.613 . S
N723 C726 1.350 . S
N724 S722 1.610 . S
N724 C725 1.351 . S
C725 C719 1.428 . S
C725 N724 1.351 . S
C725 C726 1.434 . S
C726 C717 1.429 . S
C726 N723 1.350 . S
C726 C725 1.434 . S
C727 C728 1.369 . S
C727 C729 1.419 . S
C727 H731 0.930 . S
C728 C727 1.369 . S
C728 C737 1.429 . S
C729 C727 1.419 . S
C729 C730 1.363 . S
C729 H732 0.929 . S
C730 C729 1.363 . S
C730 C736 1.428 . S
H731 C727 0.930 . S
H732 C729 0.929 . S
S733 N734 1.613 . S
S733 N735 1.610 . S
N734 S733 1.613 . S
N734 C737 1.350 . S
N735 S733 1.610 . S
N735 C736 1.351 . S
C736 C730 1.428 . S
C736 N735 1.351 . S
C736 C737 1.434 . S
C737 C728 1.429 . S
C737 N734 1.350 . S
C737 C736 1.434 . S
C409 C349 0.952 . S
C411 C9 0.950 . S
C420 C43 0.937 . S
C422 C383 0.938 . S
C431 C77 0.952 . S
C433 C213 0.950 . S
C442 C111 0.936 . S
C444 C247 0.938 . S
C453 C145 0.943 . S
C455 C281 0.945 . S
C464 C179 0.952 . S
C466 C315 0.950 . S
C475 C33 1.419 . S
C477 C305 1.418 . S
C486 C339 1.418 . S
C488 C67 1.419 . S
C497 C101 1.418 . S
C499 C373 1.420 . S
C508 C135 1.420 . S
C510 C407 1.417 . S
C519 C169 1.421 . S
C521 C237 1.417 . S
C530 C203 1.422 . S
C532 C271 1.416 . S
C541 C379 1.581 . S
C543 C5 1.583 . S
C552 C209 1.588 . S
C554 C39 1.586 . S
C563 C243 1.583 . S
C565 C73 1.586 . S
C574 C107 1.584 1_455 S
C576 C277 1.582 . S
C585 C141 1.581 . S
C587 C311 1.584 1_565 S
C596 C345 1.586 . S
C598 C175 1.581 . S
C607 C172 2.087 . S
C609 C20 2.070 . S
C618 C2 2.087 . S
C620 C54 2.069 . S
C629 C88 2.069 . S
C631 C36 2.087 . S
C640 C70 2.087 . S
C642 C122 2.067 . S
C651 C156 2.067 . S
C653 C104 2.087 . S
C662 C190 2.068 . S
C664 C138 2.087 . S
C673 C240 2.087 . S
C675 C224 2.069 . S
C684 C258 2.066 . S
C686 C274 2.087 . S
C695 C292 2.069 . S
C697 C308 2.087 . S
C706 C342 2.086 . S
C708 C326 2.067 . S
C717 C376 2.087 . S
C719 C360 2.068 . S
C728 C394 2.070 . S
C730 C206 2.087 . S
