# Generated by pormake.
# Topology cha, (4)-cn, num edge types: 1
# Building blocks:
#     Node 0, Type 0, BuildingBlock: UXUYUI_clean_sbu_0, # of connection points: 4
#     Node 1, Type 0, BuildingBlock: UXUYUI_clean_sbu_0, # of connection points: 4
#     Node 2, Type 0, BuildingBlock: UXUYUI_clean_sbu_0, # of connection points: 4
#     Node 3, Type 0, BuildingBlock: UXUYUI_clean_sbu_0, # of connection points: 4
#     Node 4, Type 0, BuildingBlock: UXUYUI_clean_sbu_0, # of connection points: 4
#     Node 5, Type 0, BuildingBlock: UXUYUI_clean_sbu_0, # of connection points: 4
#     Node 6, Type 0, BuildingBlock: UXUYUI_clean_sbu_0, # of connection points: 4
#     Node 7, Type 0, BuildingBlock: UXUYUI_clean_sbu_0, # of connection points: 4
#     Node 8, Type 0, BuildingBlock: UXUYUI_clean_sbu_0, # of connection points: 4
#     Node 9, Type 0, BuildingBlock: UXUYUI_clean_sbu_0, # of connection points: 4
#     Node 10, Type 0, BuildingBlock: UXUYUI_clean_sbu_0, # of connection points: 4
#     Node 11, Type 0, BuildingBlock: UXUYUI_clean_sbu_0, # of connection points: 4
#     Node 12, Type 0, BuildingBlock: UXUYUI_clean_sbu_0, # of connection points: 4
#     Node 13, Type 0, BuildingBlock: UXUYUI_clean_sbu_0, # of connection points: 4
#     Node 14, Type 0, BuildingBlock: UXUYUI_clean_sbu_0, # of connection points: 4
#     Node 15, Type 0, BuildingBlock: UXUYUI_clean_sbu_0, # of connection points: 4
#     Node 16, Type 0, BuildingBlock: UXUYUI_clean_sbu_0, # of connection points: 4
#     Node 17, Type 0, BuildingBlock: UXUYUI_clean_sbu_0, # of connection points: 4
#     Node 18, Type 0, BuildingBlock: UXUYUI_clean_sbu_0, # of connection points: 4
#     Node 19, Type 0, BuildingBlock: UXUYUI_clean_sbu_0, # of connection points: 4
#     Node 20, Type 0, BuildingBlock: UXUYUI_clean_sbu_0, # of connection points: 4
#     Node 21, Type 0, BuildingBlock: UXUYUI_clean_sbu_0, # of connection points: 4
#     Node 22, Type 0, BuildingBlock: UXUYUI_clean_sbu_0, # of connection points: 4
#     Node 23, Type 0, BuildingBlock: UXUYUI_clean_sbu_0, # of connection points: 4
#     Node 24, Type 0, BuildingBlock: UXUYUI_clean_sbu_0, # of connection points: 4
#     Node 25, Type 0, BuildingBlock: UXUYUI_clean_sbu_0, # of connection points: 4
#     Node 26, Type 0, BuildingBlock: UXUYUI_clean_sbu_0, # of connection points: 4
#     Node 27, Type 0, BuildingBlock: UXUYUI_clean_sbu_0, # of connection points: 4
#     Node 28, Type 0, BuildingBlock: UXUYUI_clean_sbu_0, # of connection points: 4
#     Node 29, Type 0, BuildingBlock: UXUYUI_clean_sbu_0, # of connection points: 4
#     Node 30, Type 0, BuildingBlock: UXUYUI_clean_sbu_0, # of connection points: 4
#     Node 31, Type 0, BuildingBlock: UXUYUI_clean_sbu_0, # of connection points: 4
#     Node 32, Type 0, BuildingBlock: UXUYUI_clean_sbu_0, # of connection points: 4
#     Node 33, Type 0, BuildingBlock: UXUYUI_clean_sbu_0, # of connection points: 4
#     Node 34, Type 0, BuildingBlock: UXUYUI_clean_sbu_0, # of connection points: 4
#     Node 35, Type 0, BuildingBlock: UXUYUI_clean_sbu_0, # of connection points: 4
#     Edge 36, Type (0, 0), None
#     Edge 37, Type (0, 0), None
#     Edge 38, Type (0, 0), None
#     Edge 39, Type (0, 0), None
#     Edge 40, Type (0, 0), None
#     Edge 41, Type (0, 0), None
#     Edge 42, Type (0, 0), None
#     Edge 43, Type (0, 0), None
#     Edge 44, Type (0, 0), None
#     Edge 45, Type (0, 0), None
#     Edge 46, Type (0, 0), None
#     Edge 47, Type (0, 0), None
#     Edge 48, Type (0, 0), None
#     Edge 49, Type (0, 0), None
#     Edge 50, Type (0, 0), None
#     Edge 51, Type (0, 0), None
#     Edge 52, Type (0, 0), None
#     Edge 53, Type (0, 0), None
#     Edge 54, Type (0, 0), None
#     Edge 55, Type (0, 0), None
#     Edge 56, Type (0, 0), None
#     Edge 57, Type (0, 0), None
#     Edge 58, Type (0, 0), None
#     Edge 59, Type (0, 0), None
#     Edge 60, Type (0, 0), None
#     Edge 61, Type (0, 0), None
#     Edge 62, Type (0, 0), None
#     Edge 63, Type (0, 0), None
#     Edge 64, Type (0, 0), None
#     Edge 65, Type (0, 0), None
#     Edge 66, Type (0, 0), None
#     Edge 67, Type (0, 0), None
#     Edge 68, Type (0, 0), None
#     Edge 69, Type (0, 0), None
#     Edge 70, Type (0, 0), None
#     Edge 71, Type (0, 0), None
#     Edge 72, Type (0, 0), None
#     Edge 73, Type (0, 0), None
#     Edge 74, Type (0, 0), None
#     Edge 75, Type (0, 0), None
#     Edge 76, Type (0, 0), None
#     Edge 77, Type (0, 0), None
#     Edge 78, Type (0, 0), None
#     Edge 79, Type (0, 0), None
#     Edge 80, Type (0, 0), None
#     Edge 81, Type (0, 0), None
#     Edge 82, Type (0, 0), None
#     Edge 83, Type (0, 0), None
#     Edge 84, Type (0, 0), None
#     Edge 85, Type (0, 0), None
#     Edge 86, Type (0, 0), None
#     Edge 87, Type (0, 0), None
#     Edge 88, Type (0, 0), None
#     Edge 89, Type (0, 0), None
#     Edge 90, Type (0, 0), None
#     Edge 91, Type (0, 0), None
#     Edge 92, Type (0, 0), None
#     Edge 93, Type (0, 0), None
#     Edge 94, Type (0, 0), None
#     Edge 95, Type (0, 0), None
#     Edge 96, Type (0, 0), None
#     Edge 97, Type (0, 0), None
#     Edge 98, Type (0, 0), None
#     Edge 99, Type (0, 0), None
#     Edge 100, Type (0, 0), None
#     Edge 101, Type (0, 0), None
#     Edge 102, Type (0, 0), None
#     Edge 103, Type (0, 0), None
#     Edge 104, Type (0, 0), None
#     Edge 105, Type (0, 0), None
#     Edge 106, Type (0, 0), None
#     Edge 107, Type (0, 0), None
# Relax obj value: 0.245
# Max RMSD: 0.173
# Mean RMSD: 0.173
data_MOF--net-cha--node1-UXUYUI_clean_sbu_0--edge1-none
_symmetry_space_group_name_H-M    P1
_symmetry_Int_Tables_number       1
_symmetry_cell_setting            triclinic
loop_
_symmetry_equiv_pos_as_xyz
'x, y, z'
_cell_length_a     59.818994
_cell_length_b     59.818741
_cell_length_c     64.890662
_cell_angle_alpha  89.998004
_cell_angle_beta   90.001999
_cell_angle_gamma 119.99469
loop_
_atom_site_label
_atom_site_type_symbol
_atom_site_fract_x
_atom_site_fract_y
_atom_site_fract_z
_atom_type_partial_charge
Li0 Li 0.01715 0.26431 0.11829 0.0
Li1 Li 0.04749 0.25052 0.11082 0.0
Li2 Li 0.02318 0.25393 0.08235 0.0
Li3 Li 0.00233 0.21759 0.10888 0.0
C4 C 0.05523 0.30733 0.09842 0.0
N5 N 0.069 0.35863 0.09469 0.0
C6 C 0.07617 0.32622 0.10956 0.0
C7 C 0.04146 0.31453 0.08523 0.0
C8 C 0.08278 0.35206 0.10751 0.0
C9 C 0.04867 0.34056 0.0836 0.0
C10 C 0.03515 0.2404 0.15094 0.0
C11 C 0.04545 0.22167 0.1797 0.0
N12 N 0.06362 0.24572 0.18594 0.0
C13 C 0.0538 0.26492 0.15767 0.0
C14 C 0.03082 0.21857 0.16203 0.0
C15 C 0.06805 0.26721 0.17539 0.0
C16 C 0.98029 0.27153 0.13757 0.0
N17 N 0.00626 0.28336 0.13501 0.0
C18 C 0.01207 0.31819 0.15679 0.0
C19 C 0.02226 0.30621 0.14444 0.0
C20 C 0.98514 0.30662 0.15929 0.0
C21 C 0.96929 0.28308 0.14916 0.0
H22 H 0.96799 0.25294 0.13058 0.0
H23 H 0.04291 0.31492 0.14276 0.0
C24 C 0.10126 0.27657 0.10749 0.0
N25 N 0.08123 0.25587 0.11675 0.0
C26 C 0.12611 0.28005 0.1084 0.0
C27 C 0.10948 0.24122 0.12886 0.0
C28 C 0.08494 0.23854 0.12762 0.0
C29 C 0.13039 0.2619 0.11878 0.0
H30 H 0.09777 0.28985 0.09869 0.0
H31 H 0.06867 0.22191 0.13446 0.0
C32 C 0.96948 0.24059 0.08969 0.0
N33 N 0.92642 0.23897 0.07251 0.0
C34 C 0.94874 0.21711 0.08307 0.0
C35 C 0.96829 0.26324 0.08762 0.0
C36 C 0.92716 0.2167 0.07441 0.0
C37 C 0.94636 0.26201 0.07889 0.0
C38 C 0.04413 0.21312 0.08693 0.0
C39 C 0.06537 0.22311 0.07365 0.0
C40 C 0.0386 0.19182 0.09929 0.0
C41 C 0.08083 0.2117 0.07306 0.0
C42 C 0.05446 0.18089 0.09819 0.0
N43 N 0.07509 0.191 0.08523 0.0
C44 C 0.04635 0.26911 0.0437 0.0
C45 C 0.00209 0.25664 0.043 0.0
C46 C 0.04786 0.27165 0.02228 0.0
N47 N 0.02356 0.26107 0.05356 0.0
C48 C 0.00286 0.25959 0.02163 0.0
C49 C 0.02578 0.26646 0.01082 0.0
H50 H 0.06322 0.27279 0.05246 0.0
H51 H 0.9841 0.25024 0.05091 0.0
C52 C 0.95901 0.17796 0.12889 0.0
N53 N 0.97487 0.18348 0.11237 0.0
C54 C 0.93617 0.1542 0.13013 0.0
C55 C 0.94705 0.14204 0.09772 0.0
C56 C 0.96961 0.16603 0.09708 0.0
C57 C 0.92962 0.13613 0.11413 0.0
H58 H 0.96355 0.19248 0.14061 0.0
H59 H 0.98242 0.17117 0.08397 0.0
O60 O 0.04849 0.28196 0.10036 0.0
O61 O 0.02122 0.23774 0.13352 0.0
O62 O 0.99074 0.24131 0.09828 0.0
O63 O 0.02914 0.22442 0.08817 0.0
H64 H 0.08704 0.32094 0.11983 0.0
H65 H 0.02539 0.3002 0.07635 0.0
H66 H 0.09884 0.36688 0.11613 0.0
H67 H 0.03813 0.34641 0.0735 0.0
H68 H 0.0424 0.20497 0.18842 0.0
H69 H 0.05743 0.28197 0.14914 0.0
H70 H 0.01642 0.19946 0.15696 0.0
H71 H 0.08266 0.28606 0.18074 0.0
H72 H 0.02521 0.33601 0.16457 0.0
H73 H 0.94846 0.27347 0.15005 0.0
H74 H 0.14168 0.29646 0.10062 0.0
H75 H 0.11176 0.22653 0.13675 0.0
H76 H 0.94932 0.1994 0.08452 0.0
H77 H 0.98404 0.28156 0.09278 0.0
H78 H 0.91099 0.19867 0.06919 0.0
H79 H 0.94517 0.27938 0.0772 0.0
H80 H 0.07008 0.23965 0.06408 0.0
H81 H 0.02254 0.1841 0.10993 0.0
H82 H 0.09743 0.21936 0.06297 0.0
H83 H 0.05048 0.1645 0.10775 0.0
H84 H 0.06596 0.27667 0.01485 0.0
H85 H 0.98546 0.25603 0.01372 0.0
H86 H 0.92316 0.15062 0.14291 0.0
H87 H 0.94292 0.12858 0.08518 0.0
Li88 Li 0.80156 0.82284 0.11083 0.0
Li89 Li 0.78778 0.77872 0.11829 0.0
Li90 Li 0.83449 0.81061 0.10888 0.0
Li91 Li 0.79817 0.79515 0.08236 0.0
C92 C 0.81171 0.82064 0.15094 0.0
N93 N 0.80642 0.8438 0.18595 0.0
C94 C 0.78719 0.81477 0.15768 0.0
C95 C 0.83354 0.83812 0.16203 0.0
C96 C 0.78492 0.82674 0.17541 0.0
C97 C 0.83046 0.84966 0.1797 0.0
C98 C 0.74476 0.77379 0.09843 0.0
C99 C 0.71155 0.73398 0.08361 0.0
N100 N 0.69347 0.73623 0.09469 0.0
C101 C 0.72586 0.77582 0.10956 0.0
C102 C 0.73758 0.75282 0.08524 0.0
C103 C 0.70003 0.75659 0.10751 0.0
C104 C 0.77552 0.85058 0.1075 0.0
N105 N 0.79621 0.85124 0.11676 0.0
C106 C 0.81085 0.89414 0.12888 0.0
C107 C 0.81353 0.87227 0.12764 0.0
C108 C 0.79017 0.89436 0.11879 0.0
C109 C 0.77203 0.87194 0.1084 0.0
H110 H 0.76224 0.8338 0.09869 0.0
H111 H 0.83016 0.87263 0.13448 0.0
C112 C 0.78054 0.73462 0.13755 0.0
N113 N 0.76873 0.74877 0.13501 0.0
C114 C 0.76897 0.71206 0.14913 0.0
C115 C 0.73389 0.71977 0.15679 0.0
C116 C 0.74589 0.74195 0.14446 0.0
C117 C 0.74545 0.70439 0.15928 0.0
H118 H 0.79912 0.74089 0.13055 0.0
H119 H 0.7372 0.75391 0.14279 0.0
C120 C 0.83899 0.8569 0.08696 0.0
N121 N 0.86115 0.90998 0.08531 0.0
C122 C 0.82904 0.8682 0.07368 0.0
C123 C 0.86027 0.87263 0.09935 0.0
C124 C 0.84047 0.89506 0.07312 0.0
C125 C 0.87123 0.89942 0.09827 0.0
C126 C 0.81152 0.7548 0.08967 0.0
C127 C 0.835 0.75757 0.08302 0.0
C128 C 0.78888 0.73093 0.0876 0.0
C129 C 0.83543 0.73641 0.07434 0.0
C130 C 0.79013 0.71025 0.07885 0.0
N131 N 0.81318 0.7134 0.07244 0.0
C132 C 0.87413 0.80692 0.12889 0.0
C133 C 0.88607 0.82947 0.09708 0.0
C134 C 0.89789 0.80783 0.13013 0.0
N135 N 0.86861 0.81727 0.11237 0.0
C136 C 0.91005 0.83089 0.09772 0.0
C137 C 0.91597 0.81937 0.11413 0.0
H138 H 0.85961 0.79694 0.1406 0.0
H139 H 0.88092 0.83714 0.08397 0.0
C140 C 0.78304 0.8032 0.04371 0.0
N141 N 0.79102 0.7884 0.05356 0.0
C142 C 0.78051 0.80219 0.02229 0.0
C143 C 0.79244 0.76915 0.02163 0.0
C144 C 0.79538 0.77131 0.043 0.0
C145 C 0.78563 0.78525 0.01082 0.0
H146 H 0.7794 0.81641 0.05247 0.0
H147 H 0.80173 0.75969 0.0509 0.0
O148 O 0.81435 0.80935 0.13353 0.0
O149 O 0.77012 0.79242 0.10037 0.0
O150 O 0.82766 0.8306 0.08818 0.0
O151 O 0.81078 0.77531 0.09828 0.0
H152 H 0.77014 0.80137 0.14916 0.0
H153 H 0.85265 0.84282 0.15695 0.0
H154 H 0.76608 0.82252 0.18076 0.0
H155 H 0.84717 0.86332 0.18841 0.0
H156 H 0.70571 0.7176 0.07351 0.0
H157 H 0.73113 0.79198 0.11982 0.0
H158 H 0.75191 0.75107 0.07637 0.0
H159 H 0.6852 0.75783 0.11612 0.0
H160 H 0.82553 0.9111 0.13677 0.0
H161 H 0.75562 0.87111 0.10061 0.0
H162 H 0.77856 0.70082 0.15001 0.0
H163 H 0.71609 0.71511 0.16459 0.0
H164 H 0.81251 0.85639 0.06409 0.0
H165 H 0.86796 0.86426 0.10999 0.0
H166 H 0.83284 0.90403 0.06302 0.0
H167 H 0.88761 0.91181 0.10786 0.0
H168 H 0.8527 0.77586 0.08446 0.0
H169 H 0.77056 0.72835 0.09279 0.0
H170 H 0.85347 0.7383 0.06909 0.0
H171 H 0.77277 0.69169 0.07717 0.0
H172 H 0.90147 0.7984 0.14291 0.0
H173 H 0.92352 0.84024 0.08519 0.0
H174 H 0.77554 0.81531 0.01486 0.0
H175 H 0.79595 0.75528 0.01372 0.0
Li176 Li 0.22924 0.00456 0.11083 0.0
Li177 Li 0.27336 0.0349 0.11829 0.0
Li178 Li 0.24147 0.04972 0.10886 0.0
Li179 Li 0.25694 0.02885 0.08236 0.0
C180 C 0.23147 0.01692 0.15094 0.0
N181 N 0.20837 0.98849 0.18597 0.0
C182 C 0.23736 0.99828 0.15767 0.0
C183 C 0.21399 0.02127 0.16205 0.0
C184 C 0.22542 0.98405 0.17541 0.0
C185 C 0.20248 0.00665 0.17972 0.0
C186 C 0.27833 0.99685 0.09842 0.0
C187 C 0.31818 0.00352 0.08362 0.0
N188 N 0.31594 0.98317 0.09466 0.0
C189 C 0.27631 0.97589 0.10951 0.0
C190 C 0.29932 0.01069 0.08527 0.0
C191 C 0.29557 0.96932 0.10745 0.0
C192 C 0.20151 0.95079 0.10748 0.0
N193 N 0.20086 0.97081 0.11676 0.0
C194 C 0.15796 0.94255 0.12889 0.0
C195 C 0.17983 0.9671 0.12765 0.0
C196 C 0.15773 0.92165 0.11878 0.0
C197 C 0.18015 0.92594 0.10839 0.0
H198 H 0.21829 0.95429 0.09866 0.0
H199 H 0.17948 0.98337 0.1345 0.0
C200 C 0.31742 0.07176 0.13758 0.0
N201 N 0.3033 0.0458 0.13503 0.0
C202 C 0.33998 0.08277 0.14917 0.0
C203 C 0.33233 0.03999 0.15679 0.0
C204 C 0.31015 0.02979 0.14445 0.0
C205 C 0.34768 0.06692 0.1593 0.0
H206 H 0.31113 0.08406 0.13059 0.0
H207 H 0.29822 0.00915 0.14276 0.0
C208 C 0.19518 0.00795 0.08698 0.0
N209 N 0.14208 0.97709 0.08539 0.0
C210 C 0.18384 0.98671 0.0737 0.0
C211 C 0.17949 0.01352 0.09941 0.0
C212 C 0.15697 0.97131 0.07317 0.0
C213 C 0.15269 0.99772 0.09835 0.0
C214 C 0.29727 0.08256 0.08966 0.0
C215 C 0.29444 0.10322 0.08294 0.0
C216 C 0.32117 0.08386 0.08764 0.0
C217 C 0.31557 0.12482 0.07425 0.0
C218 C 0.34183 0.10579 0.07888 0.0
N219 N 0.33863 0.12564 0.07242 0.0
C220 C 0.24517 0.09305 0.12886 0.0
C221 C 0.22261 0.08244 0.09707 0.0
C222 C 0.24426 0.1159 0.13011 0.0
N223 N 0.23481 0.07718 0.11235 0.0
C224 C 0.22119 0.10501 0.09771 0.0
C225 C 0.23271 0.12243 0.11412 0.0
H226 H 0.25516 0.08852 0.14058 0.0
H227 H 0.21493 0.06963 0.08396 0.0
C228 C 0.24882 0.00568 0.0437 0.0
N229 N 0.2637 0.02844 0.05356 0.0
C230 C 0.24982 0.00416 0.02228 0.0
C231 C 0.28301 0.04907 0.02164 0.0
C232 C 0.28086 0.04986 0.043 0.0
C233 C 0.26683 0.02619 0.01082 0.0
H234 H 0.23555 0.98886 0.05247 0.0
H235 H 0.29256 0.06781 0.05092 0.0
O236 O 0.24272 0.03084 0.13352 0.0
O237 O 0.25968 0.00355 0.10038 0.0
O238 O 0.22148 0.02289 0.08817 0.0
O239 O 0.27678 0.0613 0.09827 0.0
H240 H 0.25075 0.99463 0.14914 0.0
H241 H 0.20927 0.03566 0.15698 0.0
H242 H 0.22966 0.96944 0.18075 0.0
H243 H 0.18883 0.0097 0.18845 0.0
H244 H 0.33458 0.01413 0.07354 0.0
H245 H 0.26014 0.96496 0.11976 0.0
H246 H 0.30106 0.02679 0.07643 0.0
H247 H 0.29434 0.95324 0.11602 0.0
H248 H 0.14101 0.94027 0.1368 0.0
H249 H 0.18099 0.91037 0.10059 0.0
H250 H 0.35119 0.1036 0.15006 0.0
H251 H 0.33701 0.02686 0.16457 0.0
H252 H 0.19561 0.98197 0.06408 0.0
H253 H 0.18789 0.02958 0.11005 0.0
H254 H 0.14796 0.95471 0.06307 0.0
H255 H 0.14034 0.00173 0.10796 0.0
H256 H 0.27612 0.10257 0.08433 0.0
H257 H 0.3238 0.06816 0.09287 0.0
H258 H 0.31364 0.14092 0.06896 0.0
H259 H 0.36042 0.10705 0.07724 0.0
H260 H 0.2537 0.12891 0.14289 0.0
H261 H 0.21183 0.10913 0.08518 0.0
H262 H 0.23664 0.98609 0.01485 0.0
H263 H 0.29694 0.06642 0.01372 0.0
Li264 Li 0.2177 0.00223 0.88974 0.0
Li265 Li 0.25403 0.02308 0.91626 0.0
Li266 Li 0.25063 0.04738 0.8878 0.0
Li267 Li 0.26442 0.01705 0.88033 0.0
C268 C 0.21322 0.04403 0.91168 0.0
N269 N 0.19109 0.07497 0.91337 0.0
C270 C 0.22319 0.06526 0.92496 0.0
C271 C 0.19192 0.03849 0.89931 0.0
C272 C 0.21178 0.08071 0.92554 0.0
C273 C 0.18099 0.05434 0.90041 0.0
C274 C 0.24069 0.96938 0.90893 0.0
C275 C 0.26211 0.94624 0.91973 0.0
N276 N 0.23906 0.92632 0.92612 0.0
C277 C 0.21721 0.94865 0.91556 0.0
C278 C 0.26334 0.96817 0.911 0.0
C279 C 0.2168 0.92706 0.92422 0.0
C280 C 0.17806 0.95891 0.86973 0.0
N281 N 0.18358 0.97477 0.88625 0.0
C282 C 0.14214 0.94694 0.9009 0.0
C283 C 0.16613 0.9695 0.90154 0.0
C284 C 0.13623 0.92952 0.88449 0.0
C285 C 0.15431 0.93606 0.86849 0.0
H286 H 0.19258 0.96345 0.85801 0.0
H287 H 0.17128 0.98231 0.91465 0.0
C288 C 0.2692 0.04625 0.95492 0.0
N289 N 0.26117 0.02346 0.94506 0.0
C290 C 0.27174 0.04776 0.97634 0.0
C291 C 0.25972 0.00277 0.97698 0.0
C292 C 0.25677 0.00199 0.95562 0.0
C293 C 0.26657 0.02568 0.9878 0.0
H294 H 0.27287 0.06311 0.94616 0.0
H295 H 0.25038 0.98401 0.94771 0.0
C296 C 0.2405 0.03505 0.84768 0.0
N297 N 0.24582 0.06351 0.81267 0.0
C298 C 0.26503 0.05369 0.84095 0.0
C299 C 0.21868 0.03071 0.83658 0.0
C300 C 0.26731 0.06794 0.82322 0.0
C301 C 0.22178 0.04534 0.81892 0.0
C302 C 0.30743 0.05513 0.9002 0.0
C303 C 0.32633 0.07606 0.88906 0.0
C304 C 0.31462 0.04135 0.91338 0.0
C305 C 0.35217 0.08267 0.89112 0.0
C306 C 0.34066 0.04856 0.91502 0.0
N307 N 0.35873 0.06888 0.90393 0.0
C308 C 0.27667 0.10116 0.89113 0.0
C309 C 0.23865 0.08483 0.871 0.0
C310 C 0.28015 0.126 0.89022 0.0
N311 N 0.25598 0.08113 0.88187 0.0
C312 C 0.24132 0.10938 0.86975 0.0
C313 C 0.262 0.13029 0.87984 0.0
H314 H 0.28996 0.09766 0.89994 0.0
H315 H 0.22202 0.06856 0.86416 0.0
C316 C 0.27163 0.98019 0.86105 0.0
N317 N 0.28346 0.00615 0.8636 0.0
C318 C 0.28319 0.96919 0.84946 0.0
C319 C 0.3183 0.01197 0.84183 0.0
C320 C 0.30631 0.02216 0.85417 0.0
C321 C 0.30672 0.98503 0.83933 0.0
H322 H 0.25304 0.96789 0.86803 0.0
H323 H 0.31502 0.04281 0.85586 0.0
O324 O 0.22453 0.02904 0.91045 0.0
O325 O 0.24141 0.99064 0.90034 0.0
O326 O 0.23784 0.02111 0.8651 0.0
O327 O 0.28207 0.04839 0.89826 0.0
H328 H 0.23974 0.06998 0.93454 0.0
H329 H 0.18421 0.02242 0.88867 0.0
H330 H 0.21943 0.09732 0.93563 0.0
H331 H 0.1646 0.05035 0.89084 0.0
H332 H 0.27947 0.94505 0.92141 0.0
H333 H 0.19951 0.94923 0.91412 0.0
H334 H 0.28166 0.98392 0.90582 0.0
H335 H 0.19877 0.9109 0.92945 0.0
H336 H 0.12868 0.94282 0.91344 0.0
H337 H 0.15073 0.92306 0.85571 0.0
H338 H 0.27674 0.06586 0.98377 0.0
H339 H 0.25617 0.98537 0.9849 0.0
H340 H 0.28207 0.05733 0.84948 0.0
H341 H 0.19956 0.01631 0.84165 0.0
H342 H 0.28616 0.08255 0.81788 0.0
H343 H 0.20507 0.04229 0.81019 0.0
H344 H 0.32105 0.08694 0.8788 0.0
H345 H 0.3003 0.02527 0.92226 0.0
H346 H 0.36699 0.09874 0.88251 0.0
H347 H 0.3465 0.038 0.92512 0.0
H348 H 0.29656 0.14158 0.898 0.0
H349 H 0.22664 0.11166 0.86186 0.0
H350 H 0.27357 0.94836 0.84856 0.0
H351 H 0.33612 0.0251 0.83405 0.0
Li352 Li 0.02895 0.25684 0.91626 0.0
Li353 Li 0.04982 0.24137 0.88976 0.0
Li354 Li 0.035 0.27326 0.88032 0.0
Li355 Li 0.00466 0.22914 0.88779 0.0
C356 C 0.08266 0.29716 0.90896 0.0
N357 N 0.12574 0.33852 0.9262 0.0
C358 C 0.10331 0.29433 0.91569 0.0
C359 C 0.08397 0.32107 0.91097 0.0
C360 C 0.12491 0.31546 0.92438 0.0
C361 C 0.1059 0.34173 0.91973 0.0
C362 C 0.00805 0.19507 0.91163 0.0
C363 C 0.99784 0.15259 0.90025 0.0
N364 N 0.97721 0.14198 0.91321 0.0
C365 C 0.98682 0.18372 0.92491 0.0
C366 C 0.01363 0.17939 0.8992 0.0
C367 C 0.97142 0.15685 0.92544 0.0
C368 C 0.00579 0.2487 0.95492 0.0
N369 N 0.02854 0.26359 0.94506 0.0
C370 C 0.04916 0.28292 0.97698 0.0
C371 C 0.04995 0.28077 0.95561 0.0
C372 C 0.02629 0.26673 0.9878 0.0
C373 C 0.00426 0.2497 0.97634 0.0
H374 H 0.98896 0.23543 0.94615 0.0
H375 H 0.0679 0.29248 0.9477 0.0
C376 C 0.09315 0.24507 0.86976 0.0
N377 N 0.07729 0.23471 0.88627 0.0
C378 C 0.116 0.24416 0.86851 0.0
C379 C 0.10511 0.22108 0.90091 0.0
C380 C 0.08255 0.22251 0.90155 0.0
C381 C 0.12254 0.23261 0.8845 0.0
H382 H 0.08862 0.25506 0.85804 0.0
H383 H 0.06973 0.21483 0.91466 0.0
C384 C 0.99695 0.27823 0.9002 0.0
N385 N 0.98328 0.31584 0.90396 0.0
C386 C 0.97599 0.27621 0.88911 0.0
C387 C 0.01081 0.29922 0.91335 0.0
C388 C 0.96942 0.29547 0.89118 0.0
C389 C 0.00364 0.31808 0.915 0.0
C390 C 0.01702 0.23136 0.84768 0.0
C391 C 0.99838 0.23726 0.84094 0.0
C392 C 0.02137 0.21389 0.83657 0.0
C393 C 0.98415 0.22532 0.82321 0.0
C394 C 0.00675 0.20238 0.81889 0.0
N395 N 0.98859 0.20828 0.81264 0.0
C396 C 0.07186 0.31731 0.86103 0.0
C397 C 0.0299 0.31005 0.85417 0.0
C398 C 0.08287 0.33987 0.84944 0.0
N399 N 0.0459 0.30319 0.86359 0.0
C400 C 0.0401 0.33223 0.84183 0.0
C401 C 0.06703 0.34757 0.83932 0.0
H402 H 0.08416 0.31101 0.86802 0.0
H403 H 0.00925 0.29812 0.85586 0.0
C404 C 0.95089 0.2014 0.89114 0.0
N405 N 0.97091 0.20075 0.88186 0.0
C406 C 0.92604 0.18004 0.89023 0.0
C407 C 0.94265 0.15786 0.86973 0.0
C408 C 0.9672 0.17972 0.87097 0.0
C409 C 0.92175 0.15763 0.87983 0.0
H410 H 0.95439 0.21818 0.89996 0.0
H411 H 0.98347 0.17937 0.86411 0.0
O412 O 0.0614 0.27667 0.90035 0.0
O413 O 0.02299 0.22137 0.91045 0.0
O414 O 0.00365 0.25958 0.89823 0.0
O415 O 0.03094 0.24261 0.8651 0.0
H416 H 0.10266 0.276 0.9143 0.0
H417 H 0.06828 0.3237 0.90573 0.0
H418 H 0.14101 0.31352 0.92967 0.0
H419 H 0.10717 0.36032 0.92136 0.0
H420 H 0.00185 0.14025 0.89063 0.0
H421 H 0.98207 0.19548 0.93454 0.0
H422 H 0.02969 0.1878 0.88856 0.0
H423 H 0.95482 0.14783 0.93554 0.0
H424 H 0.06651 0.29686 0.98489 0.0
H425 H 0.9862 0.2365 0.98377 0.0
H426 H 0.12901 0.2536 0.85573 0.0
H427 H 0.10923 0.21173 0.91344 0.0
H428 H 0.96506 0.26004 0.87887 0.0
H429 H 0.02691 0.30096 0.92218 0.0
H430 H 0.95334 0.29423 0.88261 0.0
H431 H 0.01425 0.33448 0.92507 0.0
H432 H 0.99474 0.25065 0.84948 0.0
H433 H 0.03576 0.20917 0.84164 0.0
H434 H 0.96955 0.22957 0.81786 0.0
H435 H 0.00981 0.18873 0.81016 0.0
H436 H 0.1037 0.35108 0.84855 0.0
H437 H 0.02696 0.33691 0.83405 0.0
H438 H 0.91047 0.18088 0.89803 0.0
H439 H 0.94037 0.1409 0.86182 0.0
Li440 Li 0.81072 0.83438 0.88974 0.0
Li441 Li 0.79525 0.79805 0.91626 0.0
Li442 Li 0.82295 0.80145 0.88779 0.0
Li443 Li 0.77882 0.78767 0.88033 0.0
C444 C 0.85701 0.83889 0.91164 0.0
N445 N 0.9101 0.8611 0.91327 0.0
C446 C 0.86833 0.82898 0.92492 0.0
C447 C 0.87272 0.86017 0.89924 0.0
C448 C 0.89519 0.84042 0.92547 0.0
C449 C 0.89951 0.87114 0.90031 0.0
C450 C 0.75491 0.81142 0.90896 0.0
C451 C 0.71036 0.79005 0.91977 0.0
N452 N 0.71353 0.8131 0.92619 0.0
C453 C 0.7577 0.8349 0.91564 0.0
C454 C 0.73103 0.78879 0.91101 0.0
C455 C 0.73655 0.83534 0.92432 0.0
C456 C 0.80702 0.87402 0.86974 0.0
N457 N 0.81737 0.8685 0.88625 0.0
C458 C 0.83099 0.90995 0.9009 0.0
C459 C 0.82957 0.88596 0.90154 0.0
C460 C 0.81947 0.91586 0.88449 0.0
C461 C 0.80793 0.89777 0.8685 0.0
H462 H 0.79703 0.8595 0.85802 0.0
H463 H 0.83724 0.88082 0.91465 0.0
C464 C 0.80335 0.78297 0.95491 0.0
N465 N 0.7885 0.7909 0.94506 0.0
C466 C 0.80234 0.78044 0.97633 0.0
C467 C 0.76923 0.79227 0.97699 0.0
C468 C 0.77138 0.79521 0.95562 0.0
C469 C 0.78537 0.78551 0.9878 0.0
H470 H 0.81658 0.77936 0.94615 0.0
H471 H 0.75972 0.80152 0.94771 0.0
C472 C 0.82074 0.8116 0.84768 0.0
N473 N 0.84388 0.80631 0.81266 0.0
C474 C 0.81486 0.78708 0.84094 0.0
C475 C 0.83821 0.83343 0.83658 0.0
C476 C 0.82683 0.78481 0.82321 0.0
C477 C 0.84975 0.83035 0.81891 0.0
C478 C 0.77388 0.74466 0.90019 0.0
C479 C 0.77591 0.72574 0.88908 0.0
C480 C 0.75291 0.73749 0.91337 0.0
C481 C 0.75668 0.69991 0.89114 0.0
C482 C 0.73407 0.71146 0.91501 0.0
N483 N 0.73632 0.69337 0.90394 0.0
C484 C 0.85069 0.77541 0.89113 0.0
C485 C 0.87237 0.81342 0.87098 0.0
C486 C 0.87205 0.77193 0.89022 0.0
N487 N 0.85134 0.7961 0.88186 0.0
C488 C 0.89424 0.81074 0.86974 0.0
C489 C 0.89447 0.79006 0.87983 0.0
H490 H 0.83391 0.76214 0.89994 0.0
H491 H 0.87272 0.83004 0.86413 0.0
C492 C 0.73473 0.78044 0.86106 0.0
N493 N 0.74888 0.76862 0.8636 0.0
C494 C 0.71217 0.76887 0.84948 0.0
C495 C 0.71987 0.73379 0.84183 0.0
C496 C 0.74206 0.74578 0.85416 0.0
C497 C 0.7045 0.74534 0.83934 0.0
H498 H 0.74101 0.79902 0.86806 0.0
H499 H 0.75401 0.73708 0.85584 0.0
O500 O 0.83071 0.82755 0.91044 0.0
O501 O 0.77541 0.81067 0.90034 0.0
O502 O 0.80946 0.81424 0.86509 0.0
O503 O 0.79252 0.77001 0.89825 0.0
H504 H 0.85654 0.81245 0.93453 0.0
H505 H 0.86433 0.86784 0.88859 0.0
H506 H 0.90419 0.83282 0.93557 0.0
H507 H 0.91188 0.88751 0.89071 0.0
H508 H 0.69179 0.7727 0.92143 0.0
H509 H 0.776 0.85258 0.91422 0.0
H510 H 0.72843 0.77047 0.9058 0.0
H511 H 0.73846 0.85337 0.92959 0.0
H512 H 0.84034 0.92341 0.91343 0.0
H513 H 0.79849 0.90135 0.85572 0.0
H514 H 0.81549 0.77551 0.98376 0.0
H515 H 0.75533 0.79573 0.9849 0.0
H516 H 0.80147 0.77003 0.84946 0.0
H517 H 0.84292 0.85254 0.84166 0.0
H518 H 0.8226 0.76596 0.81786 0.0
H519 H 0.8634 0.84706 0.8102 0.0
H520 H 0.79208 0.731 0.87882 0.0
H521 H 0.75116 0.75183 0.92223 0.0
H522 H 0.75792 0.68508 0.88254 0.0
H523 H 0.71767 0.70563 0.9251 0.0
H524 H 0.87122 0.75552 0.89802 0.0
H525 H 0.9112 0.82541 0.86183 0.0
H526 H 0.70094 0.77847 0.8486 0.0
H527 H 0.71521 0.71598 0.83404 0.0
Li528 Li 0.02512 0.77321 0.88249 0.0
Li529 Li 0.04331 0.81925 0.88937 0.0
Li530 Li 0.02327 0.78701 0.91653 0.0
Li531 Li 0.99675 0.78999 0.88874 0.0
C532 C 0.07145 0.79366 0.91331 0.0
N533 N 0.10534 0.78994 0.94015 0.0
C534 C 0.09669 0.81423 0.91542 0.0
C535 C 0.06359 0.77107 0.92467 0.0
C536 C 0.1135 0.812 0.92911 0.0
C537 C 0.08096 0.7696 0.93822 0.0
C538 C 0.03593 0.80514 0.84793 0.0
C539 C 0.04167 0.81419 0.81148 0.0
N540 N 0.06548 0.81659 0.81259 0.0
C541 C 0.06049 0.8077 0.8487 0.0
C542 C 0.02644 0.80839 0.82916 0.0
C543 C 0.0751 0.81348 0.83066 0.0
C544 C 0.01887 0.7421 0.8474 0.0
N545 N 0.0302 0.74933 0.86625 0.0
C546 C 0.05434 0.72802 0.86009 0.0
C547 C 0.04717 0.74208 0.87291 0.0
C548 C 0.04407 0.7215 0.84011 0.0
C549 C 0.02559 0.72813 0.83398 0.0
H550 H 0.00545 0.74815 0.84243 0.0
H551 H 0.05611 0.74817 0.8878 0.0
C552 C 0.08319 0.86495 0.90363 0.0
N553 N 0.07047 0.8539 0.88586 0.0
C554 C 0.10438 0.88987 0.90355 0.0
C555 C 0.09839 0.89217 0.86693 0.0
C556 C 0.07721 0.86711 0.86774 0.0
C557 C 0.11247 0.90375 0.88498 0.0
H558 H 0.07713 0.85408 0.91785 0.0
H559 H 0.06634 0.85825 0.8539 0.0
C560 C 0.98235 0.73385 0.8941 0.0
N561 N 0.95909 0.6842 0.8787 0.0
C562 C 0.96536 0.72687 0.87743 0.0
C563 C 0.98738 0.71557 0.90304 0.0
C564 C 0.95381 0.70167 0.86985 0.0
C565 C 0.97547 0.69057 0.89499 0.0
C566 C 0.01349 0.83654 0.90889 0.0
C567 C 0.00924 0.84665 0.9269 0.0
C568 C 0.01304 0.84716 0.8898 0.0
C569 C 0.00458 0.86728 0.92553 0.0
C570 C 0.00831 0.86776 0.88907 0.0
N571 N 0.00421 0.87732 0.9068 0.0
C572 C 0.04517 0.80186 0.95582 0.0
C573 C 0.00479 0.76295 0.95537 0.0
C574 C 0.04652 0.80067 0.9772 0.0
N575 N 0.02463 0.78308 0.9454 0.0
C576 C 0.00505 0.76133 0.97684 0.0
C577 C 0.02612 0.78041 0.98794 0.0
H578 H 0.06036 0.81796 0.9475 0.0
H579 H 0.98854 0.74852 0.94666 0.0
C580 C 0.95835 0.79476 0.86582 0.0
N581 N 0.96462 0.78812 0.88406 0.0
C582 C 0.9352 0.79505 0.86388 0.0
C583 C 0.92548 0.78139 0.89941 0.0
C584 C 0.94872 0.78136 0.90065 0.0
C585 C 0.91848 0.78847 0.88089 0.0
H586 H 0.97155 0.8003 0.85295 0.0
H587 H 0.95448 0.77654 0.91502 0.0
O588 O 0.05466 0.79567 0.90013 0.0
O589 O 0.0209 0.79899 0.86524 0.0
O590 O 0.99436 0.7586 0.90136 0.0
O591 O 0.01779 0.81616 0.91002 0.0
H592 H 0.10331 0.83166 0.90646 0.0
H593 H 0.04416 0.75494 0.92321 0.0
H594 H 0.13306 0.8278 0.93091 0.0
H595 H 0.07503 0.7523 0.94721 0.0
H596 H 0.03455 0.81675 0.79686 0.0
H597 H 0.06826 0.80525 0.86298 0.0
H598 H 0.00745 0.80637 0.82827 0.0
H599 H 0.0941 0.81549 0.83105 0.0
H600 H 0.06893 0.72369 0.86536 0.0
H601 H 0.01706 0.72332 0.81876 0.0
H602 H 0.11479 0.89781 0.9178 0.0
H603 H 0.10371 0.90235 0.85235 0.0
H604 H 0.96139 0.74086 0.87028 0.0
H605 H 0.00043 0.72066 0.91599 0.0
H606 H 0.94074 0.69602 0.85688 0.0
H607 H 0.97926 0.67623 0.90169 0.0
H608 H 0.00949 0.83859 0.94178 0.0
H609 H 0.01623 0.83955 0.87568 0.0
H610 H 0.00124 0.8753 0.93935 0.0
H611 H 0.00788 0.87615 0.87441 0.0
H612 H 0.06283 0.81594 0.98533 0.0
H613 H 0.98893 0.74553 0.98472 0.0
H614 H 0.93052 0.8005 0.84929 0.0
H615 H 0.91353 0.77672 0.91306 0.0
Li616 Li 0.26207 0.23265 0.88874 0.0
Li617 Li 0.26505 0.26214 0.91653 0.0
Li618 Li 0.23281 0.24994 0.88938 0.0
Li619 Li 0.27885 0.27778 0.88249 0.0
C620 C 0.21553 0.20283 0.90889 0.0
N621 N 0.17475 0.15278 0.9068 0.0
C622 C 0.20541 0.18847 0.9269 0.0
C623 C 0.20491 0.19178 0.8898 0.0
C624 C 0.18478 0.16318 0.92553 0.0
C625 C 0.1843 0.16644 0.88908 0.0
C626 C 0.31821 0.27437 0.8941 0.0
C627 C 0.36149 0.31076 0.895 0.0
N628 N 0.36786 0.30075 0.8787 0.0
C629 C 0.32519 0.26436 0.87744 0.0
C630 C 0.33649 0.29768 0.90304 0.0
C631 C 0.35039 0.27801 0.86985 0.0
C632 C 0.25729 0.18947 0.86583 0.0
N633 N 0.26394 0.20238 0.88406 0.0
C634 C 0.27068 0.16997 0.89941 0.0
C635 C 0.27072 0.19325 0.90065 0.0
C636 C 0.2636 0.15589 0.88089 0.0
C637 C 0.257 0.16602 0.86388 0.0
H638 H 0.25174 0.19712 0.85296 0.0
H639 H 0.27554 0.20383 0.91502 0.0
C640 C 0.2502 0.26918 0.95582 0.0
N641 N 0.26898 0.26742 0.94541 0.0
C642 C 0.25139 0.2717 0.97721 0.0
C643 C 0.29074 0.26959 0.97684 0.0
C644 C 0.28912 0.26771 0.95537 0.0
C645 C 0.27165 0.27157 0.98794 0.0
H646 H 0.2341 0.26826 0.94751 0.0
H647 H 0.30355 0.2659 0.94666 0.0
C648 C 0.24691 0.25667 0.84793 0.0
N649 N 0.23547 0.27478 0.81259 0.0
C650 C 0.24436 0.27867 0.8487 0.0
C651 C 0.24367 0.24394 0.82917 0.0
C652 C 0.23858 0.28751 0.83067 0.0
C653 C 0.23786 0.25337 0.81148 0.0
C654 C 0.25839 0.30366 0.91332 0.0
C655 C 0.23782 0.30832 0.91544 0.0
C656 C 0.28099 0.31839 0.92468 0.0
C657 C 0.24004 0.32735 0.92913 0.0
C658 C 0.28245 0.33722 0.93823 0.0
N659 N 0.26211 0.34126 0.94017 0.0
C660 C 0.1871 0.24412 0.90364 0.0
C661 C 0.18496 0.236 0.86775 0.0
C662 C 0.16219 0.24039 0.90356 0.0
N663 N 0.19816 0.24246 0.88587 0.0
C664 C 0.15989 0.23212 0.86694 0.0
C665 C 0.14831 0.23461 0.88499 0.0
H666 H 0.19798 0.24892 0.91786 0.0
H667 H 0.19381 0.23399 0.8539 0.0
C668 C 0.30996 0.30265 0.8474 0.0
N669 N 0.30273 0.30675 0.86626 0.0
C670 C 0.32393 0.32334 0.83399 0.0
C671 C 0.32404 0.35219 0.8601 0.0
C672 C 0.30998 0.33097 0.87292 0.0
C673 C 0.33057 0.34845 0.84012 0.0
H674 H 0.30392 0.28318 0.84244 0.0
H675 H 0.30388 0.33381 0.88781 0.0
O676 O 0.2359 0.22751 0.91002 0.0
O677 O 0.29346 0.26163 0.90136 0.0
O678 O 0.25307 0.24779 0.86524 0.0
O679 O 0.25639 0.28487 0.90013 0.0
H680 H 0.21347 0.19678 0.94178 0.0
H681 H 0.21251 0.20257 0.87569 0.0
H682 H 0.17677 0.15182 0.93935 0.0
H683 H 0.17591 0.15762 0.87442 0.0
H684 H 0.37583 0.32889 0.90169 0.0
H685 H 0.3112 0.24639 0.87028 0.0
H686 H 0.33139 0.30563 0.91599 0.0
H687 H 0.35604 0.27059 0.85688 0.0
H688 H 0.27537 0.1627 0.91305 0.0
H689 H 0.25154 0.15589 0.8493 0.0
H690 H 0.23612 0.27275 0.98534 0.0
H691 H 0.30654 0.26927 0.98472 0.0
H692 H 0.24682 0.2889 0.86299 0.0
H693 H 0.24569 0.22697 0.82827 0.0
H694 H 0.23658 0.3045 0.83105 0.0
H695 H 0.23531 0.24369 0.79686 0.0
H696 H 0.22039 0.29752 0.90648 0.0
H697 H 0.29712 0.3151 0.92321 0.0
H698 H 0.22424 0.3311 0.93094 0.0
H699 H 0.29975 0.34859 0.94723 0.0
H700 H 0.15424 0.24284 0.91781 0.0
H701 H 0.14971 0.22728 0.85236 0.0
H702 H 0.32876 0.31963 0.81877 0.0
H703 H 0.32837 0.37112 0.86537 0.0
Li704 Li 0.81941 0.05534 0.88874 0.0
Li705 Li 0.78992 0.02883 0.91654 0.0
Li706 Li 0.80213 0.00879 0.88937 0.0
Li707 Li 0.77427 0.02698 0.88249 0.0
C708 C 0.84923 0.03862 0.90888 0.0
N709 N 0.89929 0.0479 0.90679 0.0
C710 C 0.8636 0.04287 0.92689 0.0
C711 C 0.86029 0.03906 0.88979 0.0
C712 C 0.88889 0.04753 0.92552 0.0
C713 C 0.88563 0.04379 0.88907 0.0
C714 C 0.77767 0.06974 0.89411 0.0
C715 C 0.74126 0.07662 0.895 0.0
N716 N 0.75127 0.093 0.8787 0.0
C717 C 0.78767 0.08673 0.87744 0.0
C718 C 0.75436 0.06471 0.90305 0.0
C719 C 0.774 0.09827 0.86985 0.0
C720 C 0.86256 0.09375 0.86582 0.0
N721 N 0.84967 0.08748 0.88406 0.0
C722 C 0.88208 0.12661 0.89941 0.0
C723 C 0.85881 0.10337 0.90065 0.0
C724 C 0.89615 0.13362 0.88089 0.0
C725 C 0.88601 0.1169 0.86387 0.0
H726 H 0.85491 0.08056 0.85294 0.0
H727 H 0.84824 0.09761 0.91503 0.0
C728 C 0.78289 0.00693 0.95582 0.0
N729 N 0.78465 0.02747 0.94541 0.0
C730 C 0.78037 0.00559 0.97721 0.0
C731 C 0.78247 0.04704 0.97685 0.0
C732 C 0.78435 0.04731 0.95537 0.0
C733 C 0.7805 0.02598 0.98794 0.0
H734 H 0.78381 0.99174 0.94751 0.0
H735 H 0.78616 0.06356 0.94667 0.0
C736 C 0.79538 0.01616 0.84793 0.0
N737 N 0.77728 0.98661 0.81259 0.0
C738 C 0.77339 0.99161 0.8487 0.0
C739 C 0.80811 0.02565 0.82916 0.0
C740 C 0.76455 0.97699 0.83067 0.0
C741 C 0.79869 0.01042 0.81148 0.0
C742 C 0.7484 0.98064 0.91332 0.0
C743 C 0.74375 0.95541 0.91543 0.0
C744 C 0.73368 0.9885 0.92469 0.0
C745 C 0.72472 0.93859 0.92912 0.0
C746 C 0.71485 0.97113 0.93823 0.0
N747 N 0.71081 0.94675 0.94016 0.0
C748 C 0.80796 0.96891 0.90363 0.0
C749 C 0.81608 0.97489 0.86774 0.0
C750 C 0.81168 0.94772 0.90355 0.0
N751 N 0.80961 0.98162 0.88586 0.0
C752 C 0.81997 0.9537 0.86693 0.0
C753 C 0.81747 0.93963 0.88498 0.0
H754 H 0.80315 0.97498 0.91786 0.0
H755 H 0.81809 0.98575 0.85389 0.0
C756 C 0.74939 0.03321 0.84741 0.0
N757 N 0.7453 0.02189 0.86626 0.0
C758 C 0.7287 0.02648 0.83399 0.0
C759 C 0.69986 0.99774 0.8601 0.0
C760 C 0.72108 0.00491 0.87292 0.0
C761 C 0.70359 0.008 0.84012 0.0
H762 H 0.76886 0.04664 0.84244 0.0
H763 H 0.71825 0.99598 0.88782 0.0
O764 O 0.82456 0.03431 0.91002 0.0
O765 O 0.79042 0.05774 0.90136 0.0
O766 O 0.80427 0.0312 0.86524 0.0
O767 O 0.7672 0.99744 0.90014 0.0
H768 H 0.8553 0.04262 0.94178 0.0
H769 H 0.84949 0.03586 0.87568 0.0
H770 H 0.90026 0.05088 0.93934 0.0
H771 H 0.89444 0.04422 0.8744 0.0
H772 H 0.72314 0.07282 0.9017 0.0
H773 H 0.80564 0.0907 0.87028 0.0
H774 H 0.74641 0.05166 0.916 0.0
H775 H 0.78143 0.11134 0.85688 0.0
H776 H 0.88936 0.13855 0.91306 0.0
H777 H 0.89614 0.12158 0.84928 0.0
H778 H 0.77932 0.98927 0.98534 0.0
H779 H 0.78279 0.06317 0.98473 0.0
H780 H 0.76317 0.98384 0.86299 0.0
H781 H 0.82508 0.04464 0.82827 0.0
H782 H 0.74756 0.95799 0.83105 0.0
H783 H 0.80836 0.01754 0.79686 0.0
H784 H 0.75455 0.94879 0.90647 0.0
H785 H 0.73697 0.00793 0.92322 0.0
H786 H 0.72097 0.91904 0.93092 0.0
H787 H 0.70347 0.97706 0.94723 0.0
H788 H 0.80923 0.93731 0.9178 0.0
H789 H 0.82481 0.94837 0.85235 0.0
H790 H 0.7324 0.03501 0.81877 0.0
H791 H 0.68093 0.98314 0.86538 0.0
Li792 Li 0.81935 0.0432 0.10925 0.0
Li793 Li 0.77331 0.02501 0.11613 0.0
Li794 Li 0.79009 0.99665 0.10988 0.0
Li795 Li 0.78711 0.02316 0.08209 0.0
C796 C 0.80525 0.03583 0.15069 0.0
N797 N 0.8167 0.06538 0.18603 0.0
C798 C 0.80781 0.06038 0.14992 0.0
C799 C 0.80849 0.02633 0.16946 0.0
C800 C 0.81359 0.075 0.16795 0.0
C801 C 0.8143 0.04157 0.18714 0.0
C802 C 0.79377 0.07135 0.08531 0.0
C803 C 0.7697 0.08085 0.0604 0.0
N804 N 0.79004 0.10524 0.05847 0.0
C805 C 0.81433 0.09658 0.0832 0.0
C806 C 0.77117 0.06348 0.07395 0.0
C807 C 0.81211 0.1134 0.06951 0.0
C808 C 0.86506 0.08309 0.09499 0.0
N809 N 0.854 0.07037 0.11276 0.0
C810 C 0.89228 0.09828 0.13169 0.0
C811 C 0.86721 0.0771 0.13088 0.0
C812 C 0.90385 0.11236 0.11364 0.0
C813 C 0.88997 0.10428 0.09507 0.0
H814 H 0.85418 0.07703 0.08077 0.0
H815 H 0.85836 0.06623 0.14472 0.0
C816 C 0.74221 0.01877 0.15122 0.0
N817 N 0.74943 0.03009 0.13237 0.0
C818 C 0.72824 0.02549 0.16464 0.0
C819 C 0.72813 0.05423 0.13853 0.0
C820 C 0.74218 0.04707 0.12571 0.0
C821 C 0.7216 0.04397 0.15851 0.0
H822 H 0.74825 0.00534 0.15619 0.0
H823 H 0.74827 0.056 0.11081 0.0
C824 C 0.83664 0.01338 0.08973 0.0
N825 N 0.87742 0.00411 0.09182 0.0
C826 C 0.84675 0.00913 0.07172 0.0
C827 C 0.84726 0.01294 0.10882 0.0
C828 C 0.86739 0.00447 0.07309 0.0
C829 C 0.86787 0.00821 0.10954 0.0
C830 C 0.73395 0.98224 0.10452 0.0
C831 C 0.72698 0.96526 0.12119 0.0
C832 C 0.71567 0.98728 0.09558 0.0
C833 C 0.70177 0.95371 0.12877 0.0
C834 C 0.69067 0.97536 0.10362 0.0
N835 N 0.6843 0.95898 0.11992 0.0
C836 C 0.79487 0.95825 0.1328 0.0
C837 C 0.78146 0.94861 0.09797 0.0
C838 C 0.79517 0.9351 0.13474 0.0
N839 N 0.78823 0.96451 0.11456 0.0
C840 C 0.78149 0.92537 0.09921 0.0
C841 C 0.78857 0.91837 0.11773 0.0
H842 H 0.80042 0.97145 0.14567 0.0
H843 H 0.77664 0.95437 0.0836 0.0
C844 C 0.80196 0.04507 0.0428 0.0
N845 N 0.78318 0.02452 0.05321 0.0
C846 C 0.80078 0.04641 0.02142 0.0
C847 C 0.76143 0.00495 0.02178 0.0
C848 C 0.76305 0.00468 0.04325 0.0
C849 C 0.78051 0.02601 0.01068 0.0
H850 H 0.81806 0.06025 0.05112 0.0
H851 H 0.74862 0.98843 0.05196 0.0
O852 O 0.7991 0.02079 0.13338 0.0
O853 O 0.79577 0.05455 0.09849 0.0
O854 O 0.81626 0.01768 0.0886 0.0
O855 O 0.7587 0.99425 0.09726 0.0
H856 H 0.80535 0.06815 0.13563 0.0
H857 H 0.80647 0.00734 0.17035 0.0
H858 H 0.81559 0.094 0.16757 0.0
H859 H 0.81686 0.03444 0.20176 0.0
H860 H 0.75241 0.07493 0.05141 0.0
H861 H 0.83176 0.10321 0.09216 0.0
H862 H 0.75504 0.04406 0.07541 0.0
H863 H 0.82791 0.13295 0.06771 0.0
H864 H 0.90245 0.10361 0.14626 0.0
H865 H 0.89792 0.11469 0.08082 0.0
H866 H 0.72342 0.01696 0.17986 0.0
H867 H 0.72379 0.06883 0.13326 0.0
H868 H 0.83869 0.00938 0.05684 0.0
H869 H 0.83965 0.01613 0.12293 0.0
H870 H 0.8754 0.00113 0.05927 0.0
H871 H 0.87625 0.00777 0.1242 0.0
H872 H 0.74097 0.96128 0.12834 0.0
H873 H 0.72077 0.00032 0.08263 0.0
H874 H 0.69613 0.94064 0.14175 0.0
H875 H 0.67634 0.97916 0.09693 0.0
H876 H 0.80062 0.93042 0.14933 0.0
H877 H 0.77682 0.91342 0.08557 0.0
H878 H 0.81604 0.06272 0.01328 0.0
H879 H 0.74563 0.98882 0.0139 0.0
Li880 Li 0.0089 0.80203 0.10924 0.0
Li881 Li 0.02708 0.77417 0.11613 0.0
Li882 Li 0.05545 0.81931 0.10988 0.0
Li883 Li 0.02893 0.78982 0.08208 0.0
C884 C 0.01627 0.79528 0.15069 0.0
N885 N 0.98672 0.77718 0.18603 0.0
C886 C 0.99171 0.77329 0.14992 0.0
C887 C 0.02576 0.80801 0.16945 0.0
C888 C 0.9771 0.76445 0.16795 0.0
C889 C 0.01053 0.79858 0.18714 0.0
C890 C 0.98075 0.7483 0.0853 0.0
C891 C 0.97124 0.71474 0.06039 0.0
N892 N 0.94686 0.71071 0.05845 0.0
C893 C 0.95552 0.74364 0.08319 0.0
C894 C 0.98861 0.73357 0.07393 0.0
C895 C 0.9387 0.72461 0.0695 0.0
C896 C 0.96902 0.80786 0.09499 0.0
N897 N 0.98173 0.80951 0.11276 0.0
C898 C 0.95381 0.81987 0.13169 0.0
C899 C 0.975 0.81598 0.13088 0.0
C900 C 0.93974 0.81737 0.11364 0.0
C901 C 0.94782 0.81158 0.09507 0.0
H902 H 0.97508 0.80305 0.08076 0.0
H903 H 0.98586 0.81799 0.14472 0.0
C904 C 0.03332 0.74929 0.15121 0.0
N905 N 0.02199 0.7452 0.13236 0.0
C906 C 0.02659 0.72859 0.16462 0.0
C907 C 0.99784 0.69976 0.13851 0.0
C908 C 0.00502 0.72098 0.12569 0.0
C909 C 0.0081 0.70348 0.1585 0.0
H910 H 0.04675 0.76875 0.15618 0.0
H911 H 0.99609 0.71814 0.1108 0.0
C912 C 0.03872 0.84913 0.08974 0.0
N913 N 0.04801 0.89919 0.09183 0.0
C914 C 0.04298 0.8635 0.07172 0.0
C915 C 0.03917 0.86019 0.10882 0.0
C916 C 0.04764 0.88879 0.0731 0.0
C917 C 0.0439 0.88553 0.10955 0.0
C918 C 0.06985 0.77756 0.10451 0.0
C919 C 0.08683 0.78757 0.12118 0.0
C920 C 0.06481 0.75425 0.09557 0.0
C921 C 0.09838 0.7739 0.12877 0.0
C922 C 0.07672 0.74116 0.10362 0.0
N923 N 0.0931 0.75116 0.11992 0.0
C924 C 0.09385 0.86246 0.1328 0.0
C925 C 0.10348 0.8587 0.09797 0.0
C926 C 0.11701 0.88591 0.13474 0.0
N927 N 0.08759 0.84957 0.11456 0.0
C928 C 0.12672 0.88198 0.0992 0.0
C929 C 0.13373 0.89605 0.11773 0.0
H930 H 0.08066 0.85481 0.14567 0.0
H931 H 0.09772 0.84813 0.08359 0.0
C932 C 0.00704 0.78279 0.0428 0.0
N933 N 0.02758 0.78454 0.05321 0.0
C934 C 0.00569 0.78027 0.02141 0.0
C935 C 0.04715 0.78237 0.02177 0.0
C936 C 0.04741 0.78424 0.04325 0.0
C937 C 0.02609 0.78039 0.01068 0.0
H938 H 0.99185 0.78371 0.05111 0.0
H939 H 0.06366 0.78606 0.05195 0.0
O940 O 0.0313 0.80416 0.13338 0.0
O941 O 0.99755 0.7671 0.09848 0.0
O942 O 0.03442 0.82446 0.0886 0.0
O943 O 0.05785 0.79032 0.09726 0.0
H944 H 0.98394 0.76307 0.13563 0.0
H945 H 0.04475 0.82498 0.17035 0.0
H946 H 0.9581 0.74746 0.16757 0.0
H947 H 0.01765 0.80826 0.20176 0.0
H948 H 0.97716 0.70337 0.05139 0.0
H949 H 0.94889 0.75445 0.09215 0.0
H950 H 0.00804 0.73687 0.0754 0.0
H951 H 0.91914 0.72086 0.0677 0.0
H952 H 0.94848 0.82471 0.14627 0.0
H953 H 0.93742 0.80913 0.08082 0.0
H954 H 0.03511 0.7323 0.17985 0.0
H955 H 0.98325 0.68083 0.13324 0.0
H956 H 0.04273 0.8552 0.05684 0.0
H957 H 0.03597 0.84939 0.12294 0.0
H958 H 0.051 0.90016 0.05928 0.0
H959 H 0.04433 0.89434 0.12421 0.0
H960 H 0.09081 0.80553 0.12834 0.0
H961 H 0.05177 0.74631 0.08262 0.0
H962 H 0.11145 0.78132 0.14174 0.0
H963 H 0.07293 0.72303 0.09692 0.0
H964 H 0.12169 0.89604 0.14934 0.0
H965 H 0.13866 0.88925 0.08556 0.0
H966 H 0.98938 0.77922 0.01328 0.0
H967 H 0.06327 0.78269 0.01389 0.0
Li968 Li 0.27789 0.27875 0.11613 0.0
Li969 Li 0.25004 0.23271 0.10924 0.0
Li970 Li 0.26224 0.26495 0.08209 0.0
Li971 Li 0.23275 0.26197 0.10988 0.0
C972 C 0.30377 0.25829 0.0853 0.0
N973 N 0.34136 0.26201 0.05845 0.0
C974 C 0.30843 0.23772 0.08318 0.0
C975 C 0.31849 0.28089 0.07394 0.0
C976 C 0.32746 0.23994 0.06949 0.0
C977 C 0.33732 0.28235 0.06039 0.0
C978 C 0.25678 0.24681 0.15069 0.0
C979 C 0.25347 0.23776 0.18714 0.0
N980 N 0.27488 0.23537 0.18603 0.0
C981 C 0.27878 0.24426 0.14992 0.0
C982 C 0.24404 0.24357 0.16945 0.0
C983 C 0.28761 0.23848 0.16795 0.0
C984 C 0.30275 0.30986 0.15121 0.0
N985 N 0.30685 0.30263 0.13236 0.0
C986 C 0.35229 0.32393 0.13852 0.0
C987 C 0.33107 0.30987 0.1257 0.0
C988 C 0.34856 0.33047 0.1585 0.0
C989 C 0.32344 0.32383 0.16463 0.0
H990 H 0.28328 0.30382 0.15618 0.0
H991 H 0.33391 0.30378 0.11081 0.0
C992 C 0.24422 0.187 0.09498 0.0
N993 N 0.24257 0.19806 0.11275 0.0
C994 C 0.24049 0.16209 0.09506 0.0
C995 C 0.23222 0.15978 0.13168 0.0
C996 C 0.2361 0.18485 0.13087 0.0
C997 C 0.23471 0.14821 0.11363 0.0
H998 H 0.24902 0.19787 0.08076 0.0
H999 H 0.2341 0.19371 0.14472 0.0
C1000 C 0.27448 0.31811 0.10452 0.0
N1001 N 0.30086 0.36776 0.11992 0.0
C1002 C 0.26446 0.32509 0.12118 0.0
C1003 C 0.29779 0.33639 0.09557 0.0
C1004 C 0.27812 0.35029 0.12877 0.0
C1005 C 0.31087 0.36139 0.10362 0.0
C1006 C 0.20294 0.21542 0.08973 0.0
C1007 C 0.18857 0.20531 0.07172 0.0
C1008 C 0.19188 0.2048 0.10882 0.0
C1009 C 0.16329 0.18468 0.07309 0.0
C1010 C 0.16654 0.18419 0.10954 0.0
N1011 N 0.15289 0.17464 0.09182 0.0
C1012 C 0.26928 0.2501 0.0428 0.0
C1013 C 0.26782 0.28901 0.04325 0.0
C1014 C 0.27181 0.25128 0.02141 0.0
N1015 N 0.26752 0.26888 0.05321 0.0
C1016 C 0.26969 0.29064 0.02178 0.0
C1017 C 0.27167 0.27155 0.01068 0.0
H1018 H 0.26837 0.23399 0.05111 0.0
H1019 H 0.266 0.30345 0.05196 0.0
C1020 C 0.18957 0.25719 0.13279 0.0
N1021 N 0.20248 0.26384 0.11456 0.0
C1022 C 0.16612 0.25689 0.13473 0.0
C1023 C 0.17008 0.27058 0.09921 0.0
C1024 C 0.19335 0.27062 0.09797 0.0
C1025 C 0.156 0.2635 0.11773 0.0
H1026 H 0.19722 0.25164 0.14566 0.0
H1027 H 0.20393 0.27544 0.0836 0.0
O1028 O 0.28497 0.25629 0.09849 0.0
O1029 O 0.24789 0.25297 0.13338 0.0
O1030 O 0.26173 0.29336 0.09726 0.0
O1031 O 0.22761 0.2358 0.0886 0.0
H1032 H 0.29762 0.22029 0.09214 0.0
H1033 H 0.3152 0.29702 0.07541 0.0
H1034 H 0.33121 0.22413 0.06767 0.0
H1035 H 0.34869 0.29965 0.05139 0.0
H1036 H 0.24379 0.23521 0.20176 0.0
H1037 H 0.289 0.24671 0.13563 0.0
H1038 H 0.22707 0.24559 0.17035 0.0
H1039 H 0.30461 0.23648 0.16757 0.0
H1040 H 0.37122 0.32827 0.13325 0.0
H1041 H 0.31973 0.32865 0.17985 0.0
H1042 H 0.24294 0.15413 0.08081 0.0
H1043 H 0.22738 0.14961 0.14626 0.0
H1044 H 0.2465 0.31109 0.12834 0.0
H1045 H 0.30574 0.33129 0.08263 0.0
H1046 H 0.27069 0.35594 0.14174 0.0
H1047 H 0.32899 0.37572 0.09693 0.0
H1048 H 0.19688 0.21337 0.05683 0.0
H1049 H 0.20268 0.21241 0.12293 0.0
H1050 H 0.15192 0.17666 0.05927 0.0
H1051 H 0.15773 0.17581 0.1242 0.0
H1052 H 0.27285 0.23602 0.01328 0.0
H1053 H 0.26937 0.30644 0.0139 0.0
H1054 H 0.15599 0.25143 0.14932 0.0
H1055 H 0.16281 0.27527 0.08557 0.0
Li1056 Li 0.68383 0.59766 0.45162 0.0
Li1057 Li 0.71417 0.58388 0.44415 0.0
Li1058 Li 0.68987 0.58728 0.41568 0.0
Li1059 Li 0.66901 0.55095 0.4422 0.0
C1060 C 0.7219 0.64068 0.43175 0.0
N1061 N 0.73563 0.69197 0.42801 0.0
C1062 C 0.74283 0.65959 0.44288 0.0
C1063 C 0.7081 0.64786 0.41857 0.0
C1064 C 0.74943 0.68542 0.44082 0.0
C1065 C 0.71529 0.67389 0.41694 0.0
C1066 C 0.70182 0.57374 0.48426 0.0
C1067 C 0.7121 0.555 0.51303 0.0
N1068 N 0.73027 0.57905 0.51928 0.0
C1069 C 0.72047 0.59826 0.491 0.0
C1070 C 0.69748 0.55191 0.49536 0.0
C1071 C 0.73471 0.60054 0.50873 0.0
C1072 C 0.64697 0.60489 0.47089 0.0
N1073 N 0.67293 0.61671 0.46834 0.0
C1074 C 0.67875 0.65154 0.49012 0.0
C1075 C 0.68894 0.63955 0.47778 0.0
C1076 C 0.65182 0.63997 0.49262 0.0
C1077 C 0.63597 0.61645 0.48248 0.0
H1078 H 0.63466 0.5863 0.4639 0.0
H1079 H 0.70959 0.64825 0.4761 0.0
C1080 C 0.76794 0.60992 0.44082 0.0
N1081 N 0.74791 0.58923 0.45008 0.0
C1082 C 0.79279 0.6134 0.44172 0.0
C1083 C 0.77617 0.57458 0.4622 0.0
C1084 C 0.75162 0.57191 0.46096 0.0
C1085 C 0.79707 0.59526 0.45211 0.0
H1086 H 0.76444 0.6232 0.432 0.0
H1087 H 0.73535 0.55528 0.4678 0.0
C1088 C 0.63616 0.57392 0.423 0.0
N1089 N 0.5931 0.57227 0.40579 0.0
C1090 C 0.61545 0.55045 0.41635 0.0
C1091 C 0.63493 0.59656 0.42094 0.0
C1092 C 0.59387 0.55001 0.40767 0.0
C1093 C 0.613 0.59532 0.4122 0.0
C1094 C 0.7108 0.54645 0.42028 0.0
C1095 C 0.73203 0.5564 0.407 0.0
C1096 C 0.70525 0.52517 0.43267 0.0
C1097 C 0.74747 0.54497 0.40643 0.0
C1098 C 0.72108 0.51421 0.43158 0.0
N1099 N 0.74172 0.52429 0.41863 0.0
C1100 C 0.71303 0.6024 0.37703 0.0
C1101 C 0.6688 0.59007 0.37633 0.0
C1102 C 0.71455 0.60494 0.35561 0.0
N1103 N 0.69025 0.59443 0.38688 0.0
C1104 C 0.66958 0.59302 0.35496 0.0
C1105 C 0.69248 0.59982 0.34414 0.0
H1106 H 0.72988 0.60604 0.38579 0.0
H1107 H 0.65083 0.58373 0.38424 0.0
C1108 C 0.62569 0.51131 0.46221 0.0
N1109 N 0.64155 0.51683 0.44569 0.0
C1110 C 0.60284 0.48756 0.46345 0.0
C1111 C 0.61373 0.47539 0.43104 0.0
C1112 C 0.63629 0.49938 0.4304 0.0
C1113 C 0.5963 0.46948 0.44746 0.0
H1114 H 0.63022 0.52583 0.47393 0.0
H1115 H 0.6491 0.50452 0.41729 0.0
O1116 O 0.71517 0.61532 0.43369 0.0
O1117 O 0.68789 0.57109 0.46685 0.0
O1118 O 0.65742 0.57466 0.4316 0.0
O1119 O 0.69583 0.55778 0.4215 0.0
H1120 H 0.75373 0.65432 0.45313 0.0
H1121 H 0.69202 0.63352 0.4097 0.0
H1122 H 0.7655 0.70025 0.44943 0.0
H1123 H 0.70473 0.67972 0.40684 0.0
H1124 H 0.70905 0.53829 0.52175 0.0
H1125 H 0.72411 0.61531 0.48247 0.0
H1126 H 0.68308 0.5328 0.49029 0.0
H1127 H 0.74932 0.61939 0.51407 0.0
H1128 H 0.69189 0.66935 0.49791 0.0
H1129 H 0.61514 0.60684 0.48336 0.0
H1130 H 0.80836 0.62981 0.43393 0.0
H1131 H 0.77845 0.5599 0.4701 0.0
H1132 H 0.61606 0.53275 0.41777 0.0
H1133 H 0.65066 0.61488 0.42614 0.0
H1134 H 0.57772 0.53198 0.40242 0.0
H1135 H 0.61178 0.61267 0.41053 0.0
H1136 H 0.73676 0.57293 0.39741 0.0
H1137 H 0.68919 0.51748 0.44331 0.0
H1138 H 0.76407 0.5526 0.39634 0.0
H1139 H 0.71709 0.49783 0.44117 0.0
H1140 H 0.73264 0.6099 0.34818 0.0
H1141 H 0.6522 0.58951 0.34705 0.0
H1142 H 0.58984 0.48398 0.47623 0.0
H1143 H 0.60961 0.46192 0.41851 0.0
Li1144 Li 0.45446 0.11207 0.45163 0.0
Li1145 Li 0.46824 0.15619 0.44417 0.0
Li1146 Li 0.46485 0.1285 0.4157 0.0
Li1147 Li 0.50118 0.14397 0.44223 0.0
C1148 C 0.41144 0.10713 0.43177 0.0
N1149 N 0.36015 0.06958 0.42804 0.0
C1150 C 0.39254 0.10916 0.44291 0.0
C1151 C 0.40426 0.08616 0.41858 0.0
C1152 C 0.36671 0.08993 0.44086 0.0
C1153 C 0.37822 0.06733 0.41695 0.0
C1154 C 0.47839 0.15399 0.48428 0.0
C1155 C 0.49713 0.18302 0.51304 0.0
N1156 N 0.47309 0.17715 0.51929 0.0
C1157 C 0.45386 0.14812 0.49102 0.0
C1158 C 0.50022 0.17147 0.49537 0.0
C1159 C 0.45159 0.16009 0.50875 0.0
C1160 C 0.44722 0.06796 0.47088 0.0
N1161 N 0.43541 0.08212 0.46836 0.0
C1162 C 0.40058 0.05312 0.49014 0.0
C1163 C 0.41258 0.0753 0.4778 0.0
C1164 C 0.41213 0.03773 0.49262 0.0
C1165 C 0.43565 0.0454 0.48246 0.0
H1166 H 0.4658 0.07423 0.46388 0.0
H1167 H 0.40389 0.08726 0.47614 0.0
C1168 C 0.44219 0.18392 0.44084 0.0
N1169 N 0.46288 0.18458 0.4501 0.0
C1170 C 0.43871 0.20528 0.44175 0.0
C1171 C 0.47753 0.22748 0.46221 0.0
C1172 C 0.48021 0.20561 0.46097 0.0
C1173 C 0.45685 0.22771 0.45213 0.0
H1174 H 0.42891 0.16714 0.43203 0.0
H1175 H 0.49684 0.20597 0.46782 0.0
C1176 C 0.47821 0.08815 0.42302 0.0
N1177 N 0.47987 0.04675 0.4058 0.0
C1178 C 0.50169 0.09091 0.41638 0.0
C1179 C 0.45557 0.06429 0.42094 0.0
C1180 C 0.50212 0.06976 0.4077 0.0
C1181 C 0.45681 0.04361 0.41219 0.0
C1182 C 0.50565 0.19025 0.42029 0.0
C1183 C 0.49569 0.20152 0.40702 0.0
C1184 C 0.52694 0.206 0.43267 0.0
C1185 C 0.5071 0.22838 0.40644 0.0
C1186 C 0.53788 0.23278 0.43158 0.0
N1187 N 0.52779 0.24332 0.41862 0.0
C1188 C 0.44969 0.13652 0.37705 0.0
C1189 C 0.4621 0.10468 0.37634 0.0
C1190 C 0.44715 0.13549 0.35563 0.0
N1191 N 0.45771 0.12174 0.3869 0.0
C1192 C 0.45915 0.10251 0.35498 0.0
C1193 C 0.4523 0.11858 0.34416 0.0
H1194 H 0.44602 0.14971 0.38581 0.0
H1195 H 0.46849 0.09308 0.38425 0.0
C1196 C 0.54082 0.14029 0.46224 0.0
N1197 N 0.5353 0.15063 0.44572 0.0
C1198 C 0.56457 0.14119 0.46348 0.0
C1199 C 0.57674 0.16425 0.43107 0.0
C1200 C 0.55275 0.16282 0.43043 0.0
C1201 C 0.58265 0.15273 0.44748 0.0
H1202 H 0.5263 0.1303 0.47395 0.0
H1203 H 0.5476 0.17049 0.41732 0.0
O1204 O 0.43681 0.12576 0.43371 0.0
O1205 O 0.48103 0.1427 0.46687 0.0
O1206 O 0.47747 0.10866 0.43162 0.0
O1207 O 0.49434 0.16395 0.42152 0.0
H1208 H 0.39782 0.12532 0.45318 0.0
H1209 H 0.41858 0.08442 0.4097 0.0
H1210 H 0.35189 0.09117 0.44948 0.0
H1211 H 0.37238 0.05094 0.40685 0.0
H1212 H 0.51384 0.19667 0.52175 0.0
H1213 H 0.43681 0.13472 0.4825 0.0
H1214 H 0.51932 0.17617 0.4903 0.0
H1215 H 0.43275 0.15587 0.51409 0.0
H1216 H 0.38278 0.04846 0.49794 0.0
H1217 H 0.44524 0.03416 0.48334 0.0
H1218 H 0.42229 0.20445 0.43396 0.0
H1219 H 0.49221 0.24445 0.47011 0.0
H1220 H 0.51939 0.1092 0.41783 0.0
H1221 H 0.43724 0.06171 0.42611 0.0
H1222 H 0.52016 0.07164 0.40247 0.0
H1223 H 0.43945 0.02505 0.4105 0.0
H1224 H 0.47915 0.1897 0.39743 0.0
H1225 H 0.53465 0.19764 0.44331 0.0
H1226 H 0.49946 0.23734 0.39634 0.0
H1227 H 0.55427 0.24518 0.44115 0.0
H1228 H 0.44215 0.1486 0.3482 0.0
H1229 H 0.46269 0.08866 0.34706 0.0
H1230 H 0.56815 0.13176 0.47626 0.0
H1231 H 0.5902 0.17359 0.41854 0.0
Li1232 Li 0.94004 0.36826 0.45162 0.0
Li1233 Li 0.89592 0.33791 0.44416 0.0
Li1234 Li 0.92362 0.36219 0.41569 0.0
Li1235 Li 0.90816 0.38308 0.44218 0.0
C1236 C 0.94503 0.33023 0.43174 0.0
N1237 N 0.98268 0.31662 0.42793 0.0
C1238 C 0.94302 0.30924 0.44278 0.0
C1239 C 0.96604 0.34414 0.41861 0.0
C1240 C 0.9623 0.30271 0.44069 0.0
C1241 C 0.98491 0.33701 0.41694 0.0
C1242 C 0.89816 0.3503 0.48427 0.0
C1243 C 0.8692 0.34005 0.51307 0.0
N1244 N 0.8751 0.32189 0.51932 0.0
C1245 C 0.90406 0.33166 0.49101 0.0
C1246 C 0.8807 0.35465 0.49539 0.0
C1247 C 0.89214 0.31744 0.50875 0.0
C1248 C 0.98409 0.40512 0.47092 0.0
N1249 N 0.96998 0.37916 0.46836 0.0
C1250 C 0.99902 0.37335 0.49011 0.0
C1251 C 0.97683 0.36315 0.47777 0.0
C1252 C 0.01436 0.40028 0.49262 0.0
C1253 C 0.00665 0.41612 0.4825 0.0
H1254 H 0.97779 0.41742 0.46393 0.0
H1255 H 0.96492 0.34251 0.47607 0.0
C1256 C 0.86818 0.28415 0.4408 0.0
N1257 N 0.86753 0.30417 0.45009 0.0
C1258 C 0.84683 0.2593 0.44171 0.0
C1259 C 0.82465 0.2759 0.46224 0.0
C1260 C 0.84652 0.30045 0.461 0.0
C1261 C 0.82441 0.25501 0.45212 0.0
H1262 H 0.88495 0.28765 0.43197 0.0
H1263 H 0.84617 0.31671 0.46787 0.0
C1264 C 0.96392 0.41592 0.42295 0.0
N1265 N 0.00521 0.45901 0.40566 0.0
C1266 C 0.96102 0.4365 0.41615 0.0
C1267 C 0.98787 0.41729 0.42099 0.0
C1268 C 0.98212 0.4581 0.40744 0.0
C1269 C 0.00849 0.43923 0.4122 0.0
C1270 C 0.86184 0.34133 0.42035 0.0
C1271 C 0.85042 0.32011 0.40707 0.0
C1272 C 0.84622 0.34695 0.43283 0.0
C1273 C 0.82355 0.30475 0.40658 0.0
C1274 C 0.81941 0.33119 0.43182 0.0
N1275 N 0.80873 0.31057 0.41885 0.0
C1276 C 0.91537 0.33902 0.37704 0.0
C1277 C 0.94763 0.38312 0.37633 0.0
C1278 C 0.91635 0.33749 0.35561 0.0
N1279 N 0.93036 0.36176 0.38689 0.0
C1280 C 0.94975 0.38231 0.35496 0.0
C1281 C 0.93346 0.35947 0.34415 0.0
H1282 H 0.90204 0.32223 0.3858 0.0
H1283 H 0.95943 0.40105 0.38424 0.0
C1284 C 0.91188 0.42642 0.46217 0.0
N1285 N 0.90151 0.41055 0.44566 0.0
C1286 C 0.91097 0.44927 0.46342 0.0
C1287 C 0.88787 0.43837 0.43103 0.0
C1288 C 0.88929 0.4158 0.43039 0.0
C1289 C 0.8994 0.4558 0.44744 0.0
H1290 H 0.92188 0.42189 0.47388 0.0
H1291 H 0.8816 0.40298 0.41728 0.0
O1292 O 0.92636 0.3369 0.43373 0.0
O1293 O 0.9094 0.3642 0.46684 0.0
O1294 O 0.94346 0.39465 0.43159 0.0
O1295 O 0.88815 0.35623 0.4215 0.0
H1296 H 0.92684 0.29827 0.453 0.0
H1297 H 0.96777 0.36027 0.40982 0.0
H1298 H 0.96108 0.28661 0.44923 0.0
H1299 H 0.00133 0.34766 0.40689 0.0
H1300 H 0.85556 0.34311 0.5218 0.0
H1301 H 0.91745 0.32801 0.48247 0.0
H1302 H 0.87597 0.36904 0.49031 0.0
H1303 H 0.89638 0.30284 0.5141 0.0
H1304 H 0.00371 0.36022 0.49788 0.0
H1305 H 0.01785 0.43695 0.4834 0.0
H1306 H 0.84765 0.24373 0.4339 0.0
H1307 H 0.8077 0.27361 0.47016 0.0
H1308 H 0.94266 0.43578 0.41749 0.0
H1309 H 0.99055 0.40165 0.42628 0.0
H1310 H 0.98013 0.47415 0.40208 0.0
H1311 H 0.02712 0.44055 0.4106 0.0
H1312 H 0.86214 0.31533 0.39741 0.0
H1313 H 0.85468 0.36299 0.44348 0.0
H1314 H 0.81448 0.28816 0.39649 0.0
H1315 H 0.80711 0.33523 0.44147 0.0
H1316 H 0.90308 0.31945 0.34819 0.0
H1317 H 0.96376 0.39962 0.34705 0.0
H1318 H 0.92041 0.46228 0.47619 0.0
H1319 H 0.8785 0.44248 0.41851 0.0
Li1320 Li 0.92066 0.35638 0.24959 0.0
Li1321 Li 0.88434 0.33554 0.22305 0.0
Li1322 Li 0.93106 0.35036 0.21366 0.0
Li1323 Li 0.91727 0.38069 0.22112 0.0
C1324 C 0.90734 0.30269 0.24224 0.0
N1325 N 0.90576 0.25965 0.25942 0.0
C1326 C 0.88386 0.2819 0.2488 0.0
C1327 C 0.93002 0.30155 0.24438 0.0
C1328 C 0.88347 0.26033 0.25747 0.0
C1329 C 0.92881 0.27963 0.25311 0.0
C1330 C 0.87991 0.37737 0.24504 0.0
C1331 C 0.8477 0.38776 0.23386 0.0
N1332 N 0.85787 0.4084 0.24681 0.0
C1333 C 0.88996 0.39861 0.25831 0.0
C1334 C 0.85859 0.37187 0.23271 0.0
C1335 C 0.8786 0.41411 0.25894 0.0
C1336 C 0.93594 0.37956 0.28824 0.0
N1337 N 0.92778 0.35674 0.27839 0.0
C1338 C 0.92618 0.336 0.31032 0.0
C1339 C 0.92323 0.33523 0.28896 0.0
C1340 C 0.93319 0.35895 0.32113 0.0
C1341 C 0.93849 0.38107 0.30966 0.0
H1342 H 0.93972 0.39645 0.27948 0.0
H1343 H 0.91671 0.31723 0.28105 0.0
C1344 C 0.84469 0.29223 0.20304 0.0
N1345 N 0.85022 0.30809 0.21956 0.0
C1346 C 0.82094 0.26938 0.2018 0.0
C1347 C 0.80879 0.28027 0.23421 0.0
C1348 C 0.83277 0.30283 0.23485 0.0
C1349 C 0.80287 0.26284 0.2178 0.0
H1350 H 0.85921 0.29676 0.19132 0.0
H1351 H 0.83792 0.31564 0.24796 0.0
C1352 C 0.97408 0.38845 0.23352 0.0
N1353 N 0.0254 0.40226 0.23722 0.0
C1354 C 0.99294 0.40936 0.22233 0.0
C1355 C 0.98131 0.37473 0.24673 0.0
C1356 C 0.01879 0.41599 0.22437 0.0
C1357 C 0.00735 0.38197 0.24835 0.0
C1358 C 0.90713 0.36837 0.18101 0.0
C1359 C 0.93165 0.38703 0.17427 0.0
C1360 C 0.8853 0.36403 0.16993 0.0
C1361 C 0.93391 0.40128 0.15655 0.0
C1362 C 0.88837 0.37867 0.15228 0.0
N1363 N 0.91241 0.39685 0.14602 0.0
C1364 C 0.93832 0.3135 0.19442 0.0
C1365 C 0.97295 0.35548 0.18749 0.0
C1366 C 0.94988 0.3025 0.18283 0.0
N1367 N 0.95012 0.33946 0.19694 0.0
C1368 C 0.98494 0.34529 0.17515 0.0
C1369 C 0.9734 0.31835 0.17267 0.0
H1370 H 0.91974 0.30118 0.20142 0.0
H1371 H 0.98163 0.37612 0.18915 0.0
C1372 C 0.94333 0.43447 0.22443 0.0
N1373 N 0.92263 0.41444 0.21519 0.0
C1374 C 0.94682 0.45932 0.22352 0.0
C1375 C 0.90796 0.44269 0.20309 0.0
C1376 C 0.90528 0.41814 0.20434 0.0
C1377 C 0.92866 0.4636 0.21316 0.0
H1378 H 0.95663 0.43098 0.23323 0.0
H1379 H 0.88864 0.40187 0.19751 0.0
O1380 O 0.90804 0.32394 0.23366 0.0
O1381 O 0.89116 0.36234 0.24376 0.0
O1382 O 0.9487 0.38169 0.2316 0.0
O1383 O 0.9045 0.35443 0.19841 0.0
H1384 H 0.86613 0.28243 0.24731 0.0
H1385 H 0.94834 0.31734 0.23925 0.0
H1386 H 0.86544 0.24412 0.26264 0.0
H1387 H 0.9462 0.27849 0.25484 0.0
H1388 H 0.83129 0.38381 0.22432 0.0
H1389 H 0.90652 0.4033 0.26786 0.0
H1390 H 0.85081 0.3558 0.22208 0.0
H1391 H 0.8863 0.43072 0.26903 0.0
H1392 H 0.92252 0.31856 0.31824 0.0
H1393 H 0.94362 0.3992 0.31709 0.0
H1394 H 0.81736 0.25638 0.18902 0.0
H1395 H 0.79533 0.27614 0.24675 0.0
H1396 H 0.98763 0.42019 0.21205 0.0
H1397 H 0.96701 0.35869 0.25566 0.0
H1398 H 0.03359 0.43203 0.21572 0.0
H1399 H 0.01323 0.37147 0.25847 0.0
H1400 H 0.9487 0.39066 0.18278 0.0
H1401 H 0.86619 0.34962 0.17501 0.0
H1402 H 0.95275 0.4159 0.1512 0.0
H1403 H 0.87165 0.37562 0.14357 0.0
H1404 H 0.9403 0.28167 0.18195 0.0
H1405 H 0.00274 0.35843 0.16735 0.0
H1406 H 0.96324 0.4749 0.23129 0.0
H1407 H 0.89327 0.44497 0.19521 0.0
Li1408 Li 0.69563 0.59016 0.24958 0.0
Li1409 Li 0.7165 0.57469 0.22308 0.0
Li1410 Li 0.70167 0.60658 0.21365 0.0
Li1411 Li 0.67134 0.56246 0.22112 0.0
C1412 C 0.74934 0.6305 0.24227 0.0
N1413 N 0.79241 0.6719 0.25949 0.0
C1414 C 0.77003 0.62772 0.24895 0.0
C1415 C 0.75059 0.65439 0.24431 0.0
C1416 C 0.79162 0.64886 0.25763 0.0
C1417 C 0.77253 0.67506 0.25306 0.0
C1418 C 0.67472 0.5284 0.24498 0.0
C1419 C 0.66446 0.4859 0.23364 0.0
N1420 N 0.64383 0.47532 0.2466 0.0
C1421 C 0.65348 0.51709 0.25826 0.0
C1422 C 0.68028 0.51269 0.23257 0.0
C1423 C 0.63806 0.49023 0.25881 0.0
C1424 C 0.67247 0.58208 0.28824 0.0
N1425 N 0.69523 0.59692 0.27838 0.0
C1426 C 0.71588 0.61621 0.31031 0.0
C1427 C 0.71667 0.61405 0.28894 0.0
C1428 C 0.693 0.60007 0.32112 0.0
C1429 C 0.67095 0.5831 0.30966 0.0
H1430 H 0.65563 0.56885 0.27948 0.0
H1431 H 0.73463 0.62571 0.28103 0.0
C1432 C 0.75982 0.57838 0.20307 0.0
N1433 N 0.74396 0.56803 0.21959 0.0
C1434 C 0.78267 0.57747 0.20183 0.0
C1435 C 0.77179 0.55441 0.23423 0.0
C1436 C 0.74922 0.55584 0.23487 0.0
C1437 C 0.78921 0.56593 0.21782 0.0
H1438 H 0.75529 0.58837 0.19136 0.0
H1439 H 0.73641 0.54817 0.24798 0.0
C1440 C 0.66361 0.61154 0.23352 0.0
N1441 N 0.64989 0.64911 0.23727 0.0
C1442 C 0.64266 0.60951 0.22241 0.0
C1443 C 0.67742 0.63252 0.24669 0.0
C1444 C 0.63607 0.62875 0.22447 0.0
C1445 C 0.67023 0.65136 0.24833 0.0
C1446 C 0.68369 0.56469 0.181 0.0
C1447 C 0.66505 0.57058 0.17427 0.0
C1448 C 0.68803 0.54721 0.1699 0.0
C1449 C 0.65081 0.55863 0.15654 0.0
C1450 C 0.67341 0.53569 0.15223 0.0
N1451 N 0.65525 0.54158 0.14598 0.0
C1452 C 0.73854 0.65065 0.19437 0.0
C1453 C 0.69657 0.64338 0.1875 0.0
C1454 C 0.74954 0.67321 0.18278 0.0
N1455 N 0.71258 0.63653 0.19692 0.0
C1456 C 0.70677 0.66556 0.17516 0.0
C1457 C 0.7337 0.68091 0.17265 0.0
H1458 H 0.75084 0.64435 0.20135 0.0
H1459 H 0.67592 0.63145 0.18919 0.0
C1460 C 0.61756 0.53473 0.22446 0.0
N1461 N 0.63759 0.53408 0.21519 0.0
C1462 C 0.59272 0.51337 0.22355 0.0
C1463 C 0.60933 0.49118 0.20306 0.0
C1464 C 0.63388 0.51305 0.20431 0.0
C1465 C 0.58843 0.49095 0.21316 0.0
H1466 H 0.62106 0.55151 0.23327 0.0
H1467 H 0.65015 0.51269 0.19745 0.0
O1468 O 0.72808 0.60999 0.23367 0.0
O1469 O 0.68967 0.5547 0.24377 0.0
O1470 O 0.67033 0.5929 0.23157 0.0
O1471 O 0.69761 0.57594 0.19842 0.0
H1472 H 0.76941 0.60941 0.24754 0.0
H1473 H 0.73487 0.65699 0.2391 0.0
H1474 H 0.80775 0.64696 0.26289 0.0
H1475 H 0.77375 0.69364 0.25471 0.0
H1476 H 0.66846 0.47353 0.22405 0.0
H1477 H 0.64874 0.52888 0.26786 0.0
H1478 H 0.69634 0.52108 0.22193 0.0
H1479 H 0.62146 0.48123 0.2689 0.0
H1480 H 0.73325 0.63011 0.31822 0.0
H1481 H 0.65287 0.56994 0.31709 0.0
H1482 H 0.79568 0.58691 0.18905 0.0
H1483 H 0.77591 0.54507 0.24677 0.0
H1484 H 0.63175 0.59334 0.21216 0.0
H1485 H 0.69351 0.63426 0.25554 0.0
H1486 H 0.61999 0.62751 0.21587 0.0
H1487 H 0.68081 0.66776 0.25841 0.0
H1488 H 0.66141 0.58398 0.1828 0.0
H1489 H 0.70243 0.54248 0.17497 0.0
H1490 H 0.6362 0.56288 0.1512 0.0
H1491 H 0.67646 0.52204 0.1435 0.0
H1492 H 0.77037 0.68442 0.18189 0.0
H1493 H 0.69363 0.67024 0.16738 0.0
H1494 H 0.57715 0.51421 0.23134 0.0
H1495 H 0.60705 0.47422 0.19516 0.0
Li1496 Li 0.46191 0.13137 0.2496 0.0
Li1497 Li 0.47737 0.1677 0.22309 0.0
Li1498 Li 0.44548 0.12099 0.21367 0.0
Li1499 Li 0.4896 0.13477 0.22113 0.0
C1500 C 0.42158 0.14476 0.24231 0.0
N1501 N 0.38023 0.14649 0.25957 0.0
C1502 C 0.42441 0.16824 0.24902 0.0
C1503 C 0.39768 0.12215 0.24434 0.0
C1504 C 0.40328 0.16871 0.25772 0.0
C1505 C 0.37703 0.12343 0.25311 0.0
C1506 C 0.52367 0.17222 0.24497 0.0
C1507 C 0.56616 0.20447 0.23361 0.0
N1508 N 0.57676 0.19445 0.24657 0.0
C1509 C 0.53501 0.16233 0.25826 0.0
C1510 C 0.53937 0.19348 0.23255 0.0
C1511 C 0.56188 0.17378 0.2588 0.0
C1512 C 0.47004 0.11632 0.28826 0.0
N1513 N 0.45516 0.12422 0.2784 0.0
C1514 C 0.43587 0.12555 0.31033 0.0
C1515 C 0.43801 0.12849 0.28896 0.0
C1516 C 0.45204 0.11883 0.32114 0.0
C1517 C 0.46904 0.1138 0.30968 0.0
H1518 H 0.48329 0.11274 0.27949 0.0
H1519 H 0.42632 0.13476 0.28106 0.0
C1520 C 0.47368 0.20734 0.20308 0.0
N1521 N 0.48403 0.20182 0.2196 0.0
C1522 C 0.47459 0.23109 0.20184 0.0
C1523 C 0.49766 0.24327 0.23424 0.0
C1524 C 0.49624 0.21928 0.23488 0.0
C1525 C 0.48614 0.24918 0.21783 0.0
H1526 H 0.46368 0.19281 0.19137 0.0
H1527 H 0.50391 0.21414 0.24799 0.0
C1528 C 0.44052 0.07798 0.23355 0.0
N1529 N 0.40292 0.0267 0.23732 0.0
C1530 C 0.44254 0.05904 0.22245 0.0
C1531 C 0.41954 0.07084 0.24671 0.0
C1532 C 0.42329 0.03322 0.22452 0.0
C1533 C 0.40069 0.04481 0.24836 0.0
C1534 C 0.48739 0.14492 0.18102 0.0
C1535 C 0.48152 0.12039 0.17428 0.0
C1536 C 0.50486 0.16674 0.16992 0.0
C1537 C 0.49347 0.11812 0.15655 0.0
C1538 C 0.51639 0.16365 0.15225 0.0
N1539 N 0.51052 0.13961 0.146 0.0
C1540 C 0.40139 0.11376 0.1944 0.0
C1541 C 0.40872 0.0791 0.18751 0.0
C1542 C 0.37883 0.1022 0.18282 0.0
N1543 N 0.41554 0.10194 0.19694 0.0
C1544 C 0.38654 0.06711 0.17517 0.0
C1545 C 0.37116 0.07867 0.17267 0.0
H1546 H 0.40767 0.13235 0.2014 0.0
H1547 H 0.42066 0.0704 0.18919 0.0
C1548 C 0.51734 0.10873 0.22448 0.0
N1549 N 0.51799 0.12941 0.2152 0.0
C1550 C 0.5387 0.10524 0.22357 0.0
C1551 C 0.56089 0.14404 0.20307 0.0
C1552 C 0.53902 0.14672 0.20432 0.0
C1553 C 0.56112 0.12337 0.21318 0.0
H1554 H 0.50056 0.09545 0.23329 0.0
H1555 H 0.53937 0.16334 0.19746 0.0
O1556 O 0.44207 0.14399 0.23369 0.0
O1557 O 0.49737 0.16087 0.24378 0.0
O1558 O 0.45917 0.10333 0.23159 0.0
O1559 O 0.47612 0.14756 0.19844 0.0
H1560 H 0.44273 0.18592 0.24761 0.0
H1561 H 0.39506 0.10383 0.23912 0.0
H1562 H 0.40521 0.18675 0.263 0.0
H1563 H 0.35844 0.1061 0.25476 0.0
H1564 H 0.57851 0.22084 0.224 0.0
H1565 H 0.52324 0.14581 0.26788 0.0
H1566 H 0.53096 0.20114 0.22191 0.0
H1567 H 0.57089 0.1662 0.26889 0.0
H1568 H 0.42195 0.12898 0.31825 0.0
H1569 H 0.48222 0.1089 0.3171 0.0
H1570 H 0.46515 0.23467 0.18906 0.0
H1571 H 0.50702 0.25674 0.24677 0.0
H1572 H 0.45871 0.06428 0.21221 0.0
H1573 H 0.4178 0.08519 0.25555 0.0
H1574 H 0.42452 0.01837 0.21594 0.0
H1575 H 0.38429 0.03901 0.25844 0.0
H1576 H 0.46812 0.10335 0.18281 0.0
H1577 H 0.50957 0.18585 0.175 0.0
H1578 H 0.48924 0.09927 0.1512 0.0
H1579 H 0.53004 0.18036 0.14353 0.0
H1580 H 0.3676 0.1118 0.18193 0.0
H1581 H 0.38187 0.0493 0.16738 0.0
H1582 H 0.53787 0.08883 0.23137 0.0
H1583 H 0.57784 0.15871 0.19517 0.0
Li1584 Li 0.66341 0.1233 0.22208 0.0
Li1585 Li 0.68993 0.12033 0.24988 0.0
Li1586 Li 0.70996 0.15257 0.22271 0.0
Li1587 Li 0.69178 0.10653 0.21583 0.0
C1588 C 0.68013 0.16985 0.24222 0.0
N1589 N 0.67084 0.21062 0.24013 0.0
C1590 C 0.67588 0.17996 0.26023 0.0
C1591 C 0.67968 0.18046 0.22313 0.0
C1592 C 0.67121 0.20059 0.25886 0.0
C1593 C 0.67495 0.20107 0.22241 0.0
C1594 C 0.64901 0.06716 0.22745 0.0
C1595 C 0.64214 0.02388 0.22835 0.0
N1596 N 0.62576 0.01751 0.21205 0.0
C1597 C 0.63202 0.06018 0.21079 0.0
C1598 C 0.65405 0.04889 0.2364 0.0
C1599 C 0.62048 0.03497 0.2032 0.0
C1600 C 0.625 0.12805 0.19916 0.0
N1601 N 0.63126 0.12142 0.2174 0.0
C1602 C 0.59213 0.1147 0.23276 0.0
C1603 C 0.61537 0.11466 0.23399 0.0
C1604 C 0.58513 0.12177 0.21423 0.0
C1605 C 0.60184 0.12835 0.19722 0.0
H1606 H 0.63819 0.13359 0.18629 0.0
H1607 H 0.62113 0.10986 0.24837 0.0
C1608 C 0.71183 0.13519 0.28916 0.0
N1609 N 0.69129 0.11641 0.27875 0.0
C1610 C 0.71318 0.13401 0.31054 0.0
C1611 C 0.67172 0.09467 0.31019 0.0
C1612 C 0.67146 0.09628 0.28871 0.0
C1613 C 0.69279 0.11375 0.32128 0.0
H1614 H 0.72702 0.15129 0.28084 0.0
H1615 H 0.6552 0.08185 0.28001 0.0
C1616 C 0.70258 0.13845 0.18127 0.0
N1617 N 0.73212 0.14989 0.14592 0.0
C1618 C 0.72714 0.14102 0.18204 0.0
C1619 C 0.69308 0.14168 0.1625 0.0
C1620 C 0.74175 0.14679 0.16401 0.0
C1621 C 0.70831 0.14749 0.14482 0.0
C1622 C 0.73812 0.12699 0.24666 0.0
C1623 C 0.76335 0.14756 0.24876 0.0
C1624 C 0.73025 0.1044 0.25802 0.0
C1625 C 0.78017 0.14534 0.26244 0.0
C1626 C 0.74763 0.10294 0.27156 0.0
N1627 N 0.77201 0.12328 0.27349 0.0
C1628 C 0.74984 0.19828 0.23696 0.0
C1629 C 0.74384 0.20042 0.20107 0.0
C1630 C 0.77103 0.22319 0.23687 0.0
N1631 N 0.73712 0.18721 0.21919 0.0
C1632 C 0.76502 0.22549 0.20025 0.0
C1633 C 0.7791 0.23707 0.2183 0.0
H1634 H 0.74379 0.1874 0.25118 0.0
H1635 H 0.73297 0.19156 0.18723 0.0
C1636 C 0.68553 0.07541 0.18075 0.0
N1637 N 0.69686 0.08264 0.1996 0.0
C1638 C 0.69226 0.06145 0.16733 0.0
C1639 C 0.72101 0.06135 0.19344 0.0
C1640 C 0.71384 0.07541 0.20626 0.0
C1641 C 0.71075 0.05482 0.17346 0.0
H1642 H 0.6721 0.08145 0.17579 0.0
H1643 H 0.72278 0.0815 0.22115 0.0
O1644 O 0.68444 0.14947 0.24336 0.0
O1645 O 0.66102 0.09192 0.23471 0.0
O1646 O 0.68755 0.1323 0.19858 0.0
O1647 O 0.72131 0.12899 0.23347 0.0
H1648 H 0.67613 0.17191 0.27512 0.0
H1649 H 0.68288 0.17285 0.20902 0.0
H1650 H 0.66786 0.20861 0.27268 0.0
H1651 H 0.67451 0.20945 0.20774 0.0
H1652 H 0.64594 0.00955 0.23505 0.0
H1653 H 0.62804 0.07417 0.20363 0.0
H1654 H 0.6671 0.05399 0.24935 0.0
H1655 H 0.6074 0.02932 0.19023 0.0
H1656 H 0.58019 0.11003 0.2464 0.0
H1657 H 0.59716 0.1338 0.18263 0.0
H1658 H 0.7295 0.14928 0.31867 0.0
H1659 H 0.6556 0.07887 0.31807 0.0
H1660 H 0.73491 0.13857 0.19633 0.0
H1661 H 0.67409 0.13966 0.16161 0.0
H1662 H 0.76075 0.1488 0.16439 0.0
H1663 H 0.70119 0.15004 0.13019 0.0
H1664 H 0.76997 0.16499 0.2398 0.0
H1665 H 0.71083 0.08827 0.25656 0.0
H1666 H 0.79972 0.16115 0.26425 0.0
H1667 H 0.74171 0.08565 0.28056 0.0
H1668 H 0.78144 0.23114 0.25112 0.0
H1669 H 0.77034 0.23566 0.18568 0.0
H1670 H 0.68373 0.05663 0.15211 0.0
H1671 H 0.73561 0.05702 0.19871 0.0
Li1672 Li 0.93172 0.59546 0.24986 0.0
Li1673 Li 0.92874 0.56597 0.22207 0.0
Li1674 Li 0.94552 0.6111 0.21582 0.0
Li1675 Li 0.89948 0.58326 0.2227 0.0
C1676 C 0.98489 0.60769 0.22743 0.0
N1677 N 0.03454 0.63408 0.21202 0.0
C1678 C 0.99186 0.59768 0.21076 0.0
C1679 C 0.00316 0.631 0.23637 0.0
C1680 C 0.01707 0.61134 0.20318 0.0
C1681 C 0.02816 0.64409 0.22832 0.0
C1682 C 0.8822 0.53615 0.24221 0.0
C1683 C 0.85097 0.49976 0.2224 0.0
N1684 N 0.84142 0.4861 0.24013 0.0
C1685 C 0.87209 0.52179 0.26023 0.0
C1686 C 0.87157 0.5251 0.22313 0.0
C1687 C 0.85146 0.4965 0.25886 0.0
C1688 C 0.91687 0.6025 0.28915 0.0
N1689 N 0.93566 0.60074 0.27873 0.0
C1690 C 0.95741 0.60292 0.31017 0.0
C1691 C 0.95579 0.60104 0.28869 0.0
C1692 C 0.93833 0.6049 0.32126 0.0
C1693 C 0.91806 0.60504 0.31053 0.0
H1694 H 0.90077 0.60159 0.28083 0.0
H1695 H 0.97022 0.59922 0.27999 0.0
C1696 C 0.92394 0.52278 0.19915 0.0
N1697 N 0.93061 0.5357 0.21739 0.0
C1698 C 0.92364 0.49933 0.19721 0.0
C1699 C 0.93737 0.5033 0.23273 0.0
C1700 C 0.93741 0.52658 0.23397 0.0
C1701 C 0.93026 0.48921 0.21421 0.0
H1702 H 0.91837 0.53042 0.18629 0.0
H1703 H 0.94225 0.53716 0.24834 0.0
C1704 C 0.92507 0.63699 0.24664 0.0
N1705 N 0.92878 0.67459 0.27348 0.0
C1706 C 0.9045 0.64165 0.24875 0.0
C1707 C 0.94766 0.65171 0.258 0.0
C1708 C 0.90672 0.66068 0.26244 0.0
C1709 C 0.94913 0.67055 0.27155 0.0
C1710 C 0.91359 0.58999 0.18126 0.0
C1711 C 0.91103 0.61199 0.18203 0.0
C1712 C 0.91035 0.57726 0.16249 0.0
C1713 C 0.90525 0.62083 0.16399 0.0
C1714 C 0.90454 0.58669 0.1448 0.0
N1715 N 0.90214 0.6081 0.14591 0.0
C1716 C 0.97664 0.63597 0.18073 0.0
C1717 C 0.97665 0.66429 0.20624 0.0
C1718 C 0.99061 0.65666 0.16732 0.0
N1719 N 0.96941 0.64007 0.19958 0.0
C1720 C 0.99071 0.68551 0.19342 0.0
C1721 C 0.99724 0.68177 0.17344 0.0
H1722 H 0.97059 0.6165 0.17576 0.0
H1723 H 0.97056 0.66713 0.22113 0.0
C1724 C 0.85378 0.57744 0.23696 0.0
N1725 N 0.86484 0.57579 0.21919 0.0
C1726 C 0.82886 0.57372 0.23688 0.0
C1727 C 0.82656 0.56543 0.20026 0.0
C1728 C 0.85163 0.56932 0.20107 0.0
C1729 C 0.81498 0.56793 0.21832 0.0
H1730 H 0.86465 0.58225 0.25118 0.0
H1731 H 0.86048 0.56731 0.18722 0.0
O1732 O 0.96013 0.59495 0.23469 0.0
O1733 O 0.90258 0.56083 0.24335 0.0
O1734 O 0.92307 0.61819 0.23346 0.0
O1735 O 0.91974 0.58111 0.19857 0.0
H1736 H 0.97787 0.57972 0.20361 0.0
H1737 H 0.99807 0.63895 0.24932 0.0
H1738 H 0.02272 0.60391 0.1902 0.0
H1739 H 0.0425 0.66221 0.23502 0.0
H1740 H 0.84258 0.49094 0.20774 0.0
H1741 H 0.88016 0.5301 0.27511 0.0
H1742 H 0.87918 0.53589 0.20901 0.0
H1743 H 0.84345 0.48514 0.27268 0.0
H1744 H 0.97321 0.6026 0.31805 0.0
H1745 H 0.9028 0.60608 0.31866 0.0
H1746 H 0.91816 0.48919 0.18263 0.0
H1747 H 0.94207 0.49603 0.24637 0.0
H1748 H 0.88707 0.63085 0.23979 0.0
H1749 H 0.96379 0.64842 0.25654 0.0
H1750 H 0.89091 0.66444 0.26425 0.0
H1751 H 0.96642 0.68192 0.28055 0.0
H1752 H 0.91348 0.62221 0.19631 0.0
H1753 H 0.91237 0.56029 0.16159 0.0
H1754 H 0.90325 0.63782 0.16437 0.0
H1755 H 0.90198 0.57701 0.13018 0.0
H1756 H 0.99543 0.65295 0.15209 0.0
H1757 H 0.99505 0.70444 0.19869 0.0
H1758 H 0.82091 0.57617 0.25113 0.0
H1759 H 0.81638 0.56059 0.18569 0.0
Li1760 Li 0.48608 0.38867 0.22207 0.0
Li1761 Li 0.4566 0.36216 0.24986 0.0
Li1762 Li 0.4688 0.34212 0.22271 0.0
Li1763 Li 0.44095 0.3603 0.21582 0.0
C1764 C 0.51591 0.37194 0.24221 0.0
N1765 N 0.56596 0.38122 0.24012 0.0
C1766 C 0.53028 0.3762 0.26023 0.0
C1767 C 0.52697 0.37238 0.22313 0.0
C1768 C 0.55556 0.38086 0.25885 0.0
C1769 C 0.5523 0.37711 0.2224 0.0
C1770 C 0.44435 0.40307 0.22743 0.0
C1771 C 0.40794 0.40995 0.22833 0.0
N1772 N 0.41795 0.42633 0.21203 0.0
C1773 C 0.45435 0.42006 0.21076 0.0
C1774 C 0.42103 0.39804 0.23638 0.0
C1775 C 0.44069 0.4316 0.20318 0.0
C1776 C 0.52925 0.42707 0.19915 0.0
N1777 N 0.51635 0.42081 0.21739 0.0
C1778 C 0.54876 0.45994 0.23274 0.0
C1779 C 0.52548 0.4367 0.23398 0.0
C1780 C 0.56283 0.46694 0.21421 0.0
C1781 C 0.55269 0.45022 0.1972 0.0
H1782 H 0.52159 0.41387 0.18628 0.0
H1783 H 0.51491 0.43094 0.24835 0.0
C1784 C 0.44957 0.34026 0.28915 0.0
N1785 N 0.45132 0.3608 0.27874 0.0
C1786 C 0.44704 0.33892 0.31054 0.0
C1787 C 0.44915 0.38038 0.31017 0.0
C1788 C 0.45102 0.38064 0.2887 0.0
C1789 C 0.44717 0.35932 0.32127 0.0
H1790 H 0.45048 0.32507 0.28084 0.0
H1791 H 0.45284 0.39689 0.27999 0.0
C1792 C 0.46206 0.34949 0.18126 0.0
N1793 N 0.44396 0.31994 0.14592 0.0
C1794 C 0.44007 0.32493 0.18203 0.0
C1795 C 0.47479 0.35898 0.16249 0.0
C1796 C 0.43123 0.31031 0.164 0.0
C1797 C 0.46536 0.34374 0.14481 0.0
C1798 C 0.41508 0.31397 0.24665 0.0
C1799 C 0.41042 0.28874 0.24876 0.0
C1800 C 0.40035 0.32183 0.25801 0.0
C1801 C 0.39139 0.27193 0.26245 0.0
C1802 C 0.38152 0.30447 0.27156 0.0
N1803 N 0.37748 0.28008 0.2735 0.0
C1804 C 0.47463 0.30224 0.23697 0.0
C1805 C 0.48275 0.30821 0.20107 0.0
C1806 C 0.47836 0.28105 0.23689 0.0
N1807 N 0.47628 0.31495 0.2192 0.0
C1808 C 0.48663 0.28702 0.20027 0.0
C1809 C 0.48414 0.27295 0.21832 0.0
H1810 H 0.46983 0.30831 0.25119 0.0
H1811 H 0.48476 0.31907 0.18723 0.0
C1812 C 0.41607 0.36654 0.18073 0.0
N1813 N 0.41198 0.35522 0.19959 0.0
C1814 C 0.39538 0.35981 0.16732 0.0
C1815 C 0.36654 0.33107 0.19343 0.0
C1816 C 0.38776 0.33824 0.20625 0.0
C1817 C 0.37027 0.34132 0.17345 0.0
H1818 H 0.43554 0.37997 0.17577 0.0
H1819 H 0.38492 0.32931 0.22114 0.0
O1820 O 0.49123 0.36764 0.24335 0.0
O1821 O 0.4571 0.39107 0.23469 0.0
O1822 O 0.47094 0.36452 0.19857 0.0
O1823 O 0.43387 0.33077 0.23347 0.0
H1824 H 0.52197 0.37595 0.27511 0.0
H1825 H 0.51617 0.36919 0.20901 0.0
H1826 H 0.56693 0.38421 0.27267 0.0
H1827 H 0.56112 0.37754 0.20774 0.0
H1828 H 0.38982 0.40615 0.23502 0.0
H1829 H 0.47232 0.42403 0.20361 0.0
H1830 H 0.41309 0.38499 0.24933 0.0
H1831 H 0.44811 0.44467 0.1902 0.0
H1832 H 0.55603 0.47189 0.24638 0.0
H1833 H 0.56282 0.4549 0.18261 0.0
H1834 H 0.446 0.32261 0.31867 0.0
H1835 H 0.44947 0.3965 0.31805 0.0
H1836 H 0.42985 0.31716 0.19632 0.0
H1837 H 0.49176 0.37797 0.1616 0.0
H1838 H 0.41424 0.29132 0.16438 0.0
H1839 H 0.47504 0.35086 0.13019 0.0
H1840 H 0.42123 0.28212 0.2398 0.0
H1841 H 0.40364 0.34126 0.25655 0.0
H1842 H 0.38764 0.25237 0.26426 0.0
H1843 H 0.37015 0.31039 0.28056 0.0
H1844 H 0.47591 0.27064 0.25114 0.0
H1845 H 0.49147 0.28168 0.18569 0.0
H1846 H 0.39908 0.36834 0.15209 0.0
H1847 H 0.34761 0.31647 0.1987 0.0
Li1848 Li 0.48604 0.37655 0.44257 0.0
Li1849 Li 0.44 0.35836 0.44946 0.0
Li1850 Li 0.45677 0.33 0.44321 0.0
Li1851 Li 0.45379 0.35651 0.41542 0.0
C1852 C 0.47193 0.36918 0.48402 0.0
N1853 N 0.48338 0.39873 0.51936 0.0
C1854 C 0.47449 0.39373 0.48325 0.0
C1855 C 0.47517 0.35969 0.50278 0.0
C1856 C 0.48027 0.40835 0.50128 0.0
C1857 C 0.48098 0.37492 0.52047 0.0
C1858 C 0.46045 0.40469 0.41863 0.0
C1859 C 0.43639 0.4142 0.39372 0.0
N1860 N 0.45673 0.43858 0.39179 0.0
C1861 C 0.48102 0.42992 0.41652 0.0
C1862 C 0.43786 0.39683 0.40727 0.0
C1863 C 0.47879 0.44674 0.40283 0.0
C1864 C 0.53174 0.41643 0.42831 0.0
N1865 N 0.52068 0.40372 0.44608 0.0
C1866 C 0.55896 0.43163 0.46501 0.0
C1867 C 0.53389 0.41045 0.46421 0.0
C1868 C 0.57053 0.44571 0.44696 0.0
C1869 C 0.55665 0.43762 0.42839 0.0
H1870 H 0.52087 0.41037 0.41409 0.0
H1871 H 0.52504 0.39958 0.47805 0.0
C1872 C 0.40889 0.35212 0.48455 0.0
N1873 N 0.41612 0.36345 0.46569 0.0
C1874 C 0.39492 0.35885 0.49796 0.0
C1875 C 0.39482 0.38759 0.47186 0.0
C1876 C 0.40887 0.38043 0.45903 0.0
C1877 C 0.38829 0.37733 0.49184 0.0
H1878 H 0.41493 0.33869 0.48951 0.0
H1879 H 0.41496 0.38936 0.44414 0.0
C1880 C 0.50332 0.34672 0.42307 0.0
N1881 N 0.5441 0.33744 0.42515 0.0
C1882 C 0.51343 0.34247 0.40505 0.0
C1883 C 0.51394 0.34628 0.44215 0.0
C1884 C 0.53406 0.33781 0.40643 0.0
C1885 C 0.53455 0.34155 0.44288 0.0
C1886 C 0.40063 0.31559 0.43785 0.0
C1887 C 0.39366 0.29861 0.45452 0.0
C1888 C 0.38236 0.32063 0.42891 0.0
C1889 C 0.36845 0.28706 0.46211 0.0
C1890 C 0.35735 0.30871 0.43696 0.0
N1891 N 0.35098 0.29233 0.45326 0.0
C1892 C 0.46155 0.2916 0.46613 0.0
C1893 C 0.44813 0.28195 0.43131 0.0
C1894 C 0.46185 0.26845 0.46808 0.0
N1895 N 0.4549 0.29786 0.44789 0.0
C1896 C 0.44816 0.25871 0.43255 0.0
C1897 C 0.45525 0.25172 0.45107 0.0
H1898 H 0.4671 0.3048 0.479 0.0
H1899 H 0.44331 0.28771 0.41694 0.0
C1900 C 0.46865 0.3784 0.37613 0.0
N1901 N 0.44986 0.35786 0.38654 0.0
C1902 C 0.46746 0.37975 0.35474 0.0
C1903 C 0.42811 0.33828 0.35511 0.0
C1904 C 0.42973 0.33803 0.37658 0.0
C1905 C 0.44719 0.35935 0.34401 0.0
H1906 H 0.48475 0.39359 0.38444 0.0
H1907 H 0.4153 0.32178 0.38529 0.0
O1908 O 0.46578 0.35414 0.46671 0.0
O1909 O 0.46245 0.3879 0.43182 0.0
O1910 O 0.48294 0.35102 0.42193 0.0
O1911 O 0.42539 0.3276 0.43059 0.0
H1912 H 0.47204 0.4015 0.46896 0.0
H1913 H 0.47315 0.3407 0.50368 0.0
H1914 H 0.48228 0.42735 0.5009 0.0
H1915 H 0.48354 0.3678 0.53509 0.0
H1916 H 0.41909 0.40827 0.38473 0.0
H1917 H 0.49845 0.43655 0.42548 0.0
H1918 H 0.42173 0.3774 0.40874 0.0
H1919 H 0.4946 0.4663 0.40102 0.0
H1920 H 0.56914 0.43696 0.47959 0.0
H1921 H 0.5646 0.44803 0.41414 0.0
H1922 H 0.39011 0.35032 0.51319 0.0
H1923 H 0.39049 0.40219 0.46658 0.0
H1924 H 0.50537 0.34271 0.39017 0.0
H1925 H 0.50634 0.34948 0.45627 0.0
H1926 H 0.54208 0.33446 0.39261 0.0
H1927 H 0.54293 0.34112 0.45754 0.0
H1928 H 0.40765 0.29463 0.46167 0.0
H1929 H 0.38745 0.33367 0.41596 0.0
H1930 H 0.36281 0.27399 0.47508 0.0
H1931 H 0.34302 0.31251 0.43026 0.0
H1932 H 0.46731 0.26377 0.48267 0.0
H1933 H 0.44348 0.24676 0.41891 0.0
H1934 H 0.48272 0.39606 0.34661 0.0
H1935 H 0.41231 0.32216 0.34723 0.0
Li1936 Li 0.67558 0.13538 0.44259 0.0
Li1937 Li 0.69376 0.10752 0.44947 0.0
Li1938 Li 0.72213 0.15266 0.44322 0.0
Li1939 Li 0.69561 0.12317 0.41543 0.0
C1940 C 0.68295 0.12864 0.48403 0.0
N1941 N 0.6534 0.11054 0.51938 0.0
C1942 C 0.6584 0.10665 0.48326 0.0
C1943 C 0.69245 0.14137 0.5028 0.0
C1944 C 0.64378 0.09781 0.5013 0.0
C1945 C 0.67721 0.13195 0.52048 0.0
C1946 C 0.64742 0.08165 0.41865 0.0
C1947 C 0.63791 0.04809 0.39374 0.0
N1948 N 0.61353 0.04406 0.39181 0.0
C1949 C 0.62219 0.077 0.41654 0.0
C1950 C 0.65529 0.06693 0.40728 0.0
C1951 C 0.60538 0.05796 0.40286 0.0
C1952 C 0.6357 0.14121 0.42833 0.0
N1953 N 0.64841 0.14287 0.4461 0.0
C1954 C 0.6205 0.15323 0.46504 0.0
C1955 C 0.64168 0.14934 0.46423 0.0
C1956 C 0.60642 0.15073 0.44698 0.0
C1957 C 0.61451 0.14494 0.42842 0.0
H1958 H 0.64176 0.1364 0.41411 0.0
H1959 H 0.65255 0.15135 0.47807 0.0
C1960 C 0.7 0.08265 0.48456 0.0
N1961 N 0.68868 0.07855 0.4657 0.0
C1962 C 0.69327 0.06196 0.49797 0.0
C1963 C 0.66453 0.03311 0.47186 0.0
C1964 C 0.6717 0.05434 0.45904 0.0
C1965 C 0.67479 0.03684 0.49185 0.0
H1966 H 0.71343 0.10211 0.48953 0.0
H1967 H 0.66277 0.0515 0.44415 0.0
C1968 C 0.7054 0.18248 0.42308 0.0
N1969 N 0.71469 0.23254 0.42517 0.0
C1970 C 0.70965 0.19685 0.40507 0.0
C1971 C 0.70585 0.19355 0.44217 0.0
C1972 C 0.71432 0.22214 0.40644 0.0
C1973 C 0.71058 0.21889 0.44289 0.0
C1974 C 0.73653 0.11092 0.43786 0.0
C1975 C 0.75351 0.12092 0.45453 0.0
C1976 C 0.73149 0.0876 0.42891 0.0
C1977 C 0.76506 0.10725 0.46211 0.0
C1978 C 0.7434 0.07451 0.43696 0.0
N1979 N 0.75978 0.08452 0.45326 0.0
C1980 C 0.76055 0.19581 0.46614 0.0
C1981 C 0.77015 0.19206 0.4313 0.0
C1982 C 0.7837 0.21926 0.46809 0.0
N1983 N 0.75427 0.18292 0.4479 0.0
C1984 C 0.79339 0.21534 0.43254 0.0
C1985 C 0.80041 0.2294 0.45107 0.0
H1986 H 0.74736 0.18815 0.47902 0.0
H1987 H 0.76438 0.1815 0.41693 0.0
C1988 C 0.67371 0.11614 0.37614 0.0
N1989 N 0.69425 0.11789 0.38655 0.0
C1990 C 0.67236 0.11361 0.35476 0.0
C1991 C 0.71382 0.11571 0.35512 0.0
C1992 C 0.71409 0.11759 0.37659 0.0
C1993 C 0.69276 0.11374 0.34402 0.0
H1994 H 0.65852 0.11705 0.38446 0.0
H1995 H 0.73034 0.11941 0.3853 0.0
O1996 O 0.69799 0.13752 0.46672 0.0
O1997 O 0.66423 0.10045 0.43183 0.0
O1998 O 0.7011 0.15781 0.42194 0.0
O1999 O 0.72452 0.12367 0.4306 0.0
H2000 H 0.65063 0.09643 0.46898 0.0
H2001 H 0.71144 0.15834 0.5037 0.0
H2002 H 0.62478 0.08082 0.50091 0.0
H2003 H 0.68434 0.14163 0.5351 0.0
H2004 H 0.64383 0.03672 0.38474 0.0
H2005 H 0.61557 0.0878 0.4255 0.0
H2006 H 0.67471 0.07022 0.40875 0.0
H2007 H 0.58582 0.05421 0.40105 0.0
H2008 H 0.61517 0.15807 0.47961 0.0
H2009 H 0.6041 0.14248 0.41417 0.0
H2010 H 0.7018 0.06566 0.5132 0.0
H2011 H 0.64993 0.01419 0.46659 0.0
H2012 H 0.7094 0.18854 0.39018 0.0
H2013 H 0.70266 0.18275 0.45628 0.0
H2014 H 0.71767 0.23351 0.39262 0.0
H2015 H 0.71102 0.2277 0.45755 0.0
H2016 H 0.75749 0.13889 0.46168 0.0
H2017 H 0.71844 0.07966 0.41596 0.0
H2018 H 0.77813 0.11468 0.47508 0.0
H2019 H 0.7396 0.05638 0.43026 0.0
H2020 H 0.78839 0.22937 0.48268 0.0
H2021 H 0.80532 0.22262 0.41889 0.0
H2022 H 0.65605 0.11256 0.34663 0.0
H2023 H 0.72995 0.11603 0.34723 0.0
Li2024 Li 0.94457 0.61211 0.44945 0.0
Li2025 Li 0.91673 0.56607 0.44257 0.0
Li2026 Li 0.92892 0.59831 0.41541 0.0
Li2027 Li 0.89943 0.59533 0.4432 0.0
C2028 C 0.97045 0.59165 0.41862 0.0
N2029 N 0.00804 0.59535 0.39177 0.0
C2030 C 0.9751 0.57107 0.41651 0.0
C2031 C 0.98517 0.61424 0.40726 0.0
C2032 C 0.99413 0.57329 0.40282 0.0
C2033 C 0.004 0.6157 0.39371 0.0
C2034 C 0.92346 0.58018 0.48401 0.0
C2035 C 0.92015 0.57112 0.52046 0.0
N2036 N 0.94157 0.56873 0.51936 0.0
C2037 C 0.94546 0.57762 0.48325 0.0
C2038 C 0.91072 0.57693 0.50278 0.0
C2039 C 0.9543 0.57184 0.50128 0.0
C2040 C 0.96944 0.64323 0.48454 0.0
N2041 N 0.97353 0.63599 0.46568 0.0
C2042 C 0.01897 0.65729 0.47185 0.0
C2043 C 0.99775 0.64323 0.45903 0.0
C2044 C 0.01524 0.66382 0.49183 0.0
C2045 C 0.99012 0.65719 0.49795 0.0
H2046 H 0.94997 0.63718 0.4895 0.0
H2047 H 0.00059 0.63714 0.44413 0.0
C2048 C 0.91089 0.52036 0.4283 0.0
N2049 N 0.90925 0.53142 0.44608 0.0
C2050 C 0.90717 0.49545 0.42838 0.0
C2051 C 0.89891 0.49315 0.46501 0.0
C2052 C 0.9028 0.51822 0.4642 0.0
C2053 C 0.9014 0.48157 0.44695 0.0
H2054 H 0.91568 0.53123 0.41408 0.0
H2055 H 0.9008 0.52707 0.47805 0.0
C2056 C 0.94116 0.65147 0.43784 0.0
N2057 N 0.96754 0.70112 0.45324 0.0
C2058 C 0.93115 0.65845 0.4545 0.0
C2059 C 0.96447 0.66975 0.42889 0.0
C2060 C 0.94481 0.68366 0.46209 0.0
C2061 C 0.97755 0.69475 0.43694 0.0
C2062 C 0.86962 0.54878 0.42306 0.0
C2063 C 0.85525 0.53867 0.40505 0.0
C2064 C 0.85856 0.53816 0.44215 0.0
C2065 C 0.82997 0.51804 0.40642 0.0
C2066 C 0.83322 0.51756 0.44287 0.0
N2067 N 0.81957 0.50801 0.42515 0.0
C2068 C 0.93596 0.58344 0.37612 0.0
C2069 C 0.9345 0.62237 0.37657 0.0
C2070 C 0.93848 0.58463 0.35474 0.0
N2071 N 0.9342 0.60223 0.38654 0.0
C2072 C 0.93637 0.62398 0.3551 0.0
C2073 C 0.93835 0.60489 0.34401 0.0
H2074 H 0.93504 0.56734 0.38444 0.0
H2075 H 0.93268 0.6368 0.38528 0.0
C2076 C 0.85626 0.59056 0.46612 0.0
N2077 N 0.86916 0.5972 0.44788 0.0
C2078 C 0.83281 0.59026 0.46806 0.0
C2079 C 0.83675 0.60394 0.43253 0.0
C2080 C 0.86003 0.60397 0.43129 0.0
C2081 C 0.82268 0.59686 0.45105 0.0
H2082 H 0.86391 0.58501 0.47899 0.0
H2083 H 0.87061 0.60879 0.41692 0.0
O2084 O 0.95165 0.58965 0.43181 0.0
O2085 O 0.91458 0.58633 0.4667 0.0
O2086 O 0.92842 0.62672 0.43058 0.0
O2087 O 0.89429 0.56916 0.42192 0.0
H2088 H 0.9643 0.55364 0.42547 0.0
H2089 H 0.98188 0.63037 0.40873 0.0
H2090 H 0.99788 0.55748 0.401 0.0
H2091 H 0.01537 0.63299 0.38472 0.0
H2092 H 0.91047 0.56857 0.53508 0.0
H2093 H 0.95569 0.58008 0.46896 0.0
H2094 H 0.89375 0.57895 0.50367 0.0
H2095 H 0.97129 0.56984 0.5009 0.0
H2096 H 0.0379 0.66162 0.46658 0.0
H2097 H 0.98642 0.66202 0.51318 0.0
H2098 H 0.90961 0.48749 0.41413 0.0
H2099 H 0.89409 0.48298 0.47958 0.0
H2100 H 0.91318 0.64446 0.46166 0.0
H2101 H 0.97242 0.66465 0.41595 0.0
H2102 H 0.93738 0.68931 0.47506 0.0
H2103 H 0.99568 0.70908 0.43024 0.0
H2104 H 0.86356 0.54673 0.39016 0.0
H2105 H 0.86936 0.54577 0.45626 0.0
H2106 H 0.8186 0.51003 0.3926 0.0
H2107 H 0.82441 0.50917 0.45753 0.0
H2108 H 0.93952 0.56936 0.34661 0.0
H2109 H 0.93605 0.63978 0.34722 0.0
H2110 H 0.82268 0.58481 0.48265 0.0
H2111 H 0.82948 0.60862 0.41889 0.0
Li2112 Li 0.35046 0.93096 0.78496 0.0
Li2113 Li 0.38079 0.91717 0.7775 0.0
Li2114 Li 0.35648 0.92056 0.74903 0.0
Li2115 Li 0.33564 0.88423 0.77557 0.0
C2116 C 0.38856 0.97397 0.7651 0.0
N2117 N 0.40237 0.0253 0.7614 0.0
C2118 C 0.40946 0.99284 0.77629 0.0
C2119 C 0.37485 0.98121 0.75188 0.0
C2120 C 0.4161 0.01869 0.77425 0.0
C2121 C 0.38208 0.00726 0.75027 0.0
C2122 C 0.36847 0.90703 0.81761 0.0
C2123 C 0.37878 0.88827 0.84634 0.0
N2124 N 0.39695 0.9123 0.85259 0.0
C2125 C 0.38713 0.93155 0.82435 0.0
C2126 C 0.36413 0.88519 0.82869 0.0
C2127 C 0.40139 0.93381 0.84206 0.0
C2128 C 0.3136 0.93822 0.8042 0.0
N2129 N 0.33956 0.95002 0.80167 0.0
C2130 C 0.34539 0.98484 0.82347 0.0
C2131 C 0.35558 0.97284 0.81113 0.0
C2132 C 0.31846 0.97329 0.82595 0.0
C2133 C 0.30261 0.94978 0.81579 0.0
H2134 H 0.30129 0.91964 0.7972 0.0
H2135 H 0.37623 0.98153 0.80947 0.0
C2136 C 0.43458 0.94323 0.77419 0.0
N2137 N 0.41454 0.92252 0.78343 0.0
C2138 C 0.45942 0.94671 0.7751 0.0
C2139 C 0.44279 0.90786 0.79552 0.0
C2140 C 0.41824 0.90518 0.79428 0.0
C2141 C 0.4637 0.92856 0.78546 0.0
H2142 H 0.43109 0.95653 0.76539 0.0
H2143 H 0.40197 0.88854 0.8011 0.0
C2144 C 0.3028 0.90724 0.75637 0.0
N2145 N 0.25975 0.90566 0.7392 0.0
C2146 C 0.282 0.88376 0.74982 0.0
C2147 C 0.30166 0.92992 0.75424 0.0
C2148 C 0.26043 0.88337 0.74116 0.0
C2149 C 0.27974 0.92872 0.74551 0.0
C2150 C 0.37748 0.87981 0.75358 0.0
C2151 C 0.39872 0.88986 0.7403 0.0
C2152 C 0.37197 0.85848 0.7659 0.0
C2153 C 0.41422 0.8785 0.73968 0.0
C2154 C 0.38787 0.8476 0.76476 0.0
N2155 N 0.40851 0.85777 0.75181 0.0
C2156 C 0.37966 0.93585 0.71037 0.0
C2157 C 0.33533 0.92312 0.70966 0.0
C2158 C 0.38117 0.93839 0.68895 0.0
N2159 N 0.35685 0.92768 0.72023 0.0
C2160 C 0.3361 0.92607 0.6883 0.0
C2161 C 0.35905 0.93309 0.67749 0.0
H2162 H 0.39656 0.93962 0.71914 0.0
H2163 H 0.31733 0.9166 0.71757 0.0
C2164 C 0.29233 0.84459 0.79558 0.0
N2165 N 0.3082 0.85011 0.77906 0.0
C2166 C 0.26949 0.82084 0.79682 0.0
C2167 C 0.28037 0.80868 0.7644 0.0
C2168 C 0.30293 0.83267 0.76377 0.0
C2169 C 0.26295 0.80277 0.78082 0.0
H2170 H 0.29687 0.85911 0.8073 0.0
H2171 H 0.31574 0.83782 0.75065 0.0
O2172 O 0.3818 0.9486 0.76702 0.0
O2173 O 0.35453 0.9044 0.8002 0.0
O2174 O 0.32404 0.90794 0.76495 0.0
O2175 O 0.36244 0.89106 0.75485 0.0
H2176 H 0.42029 0.98753 0.78657 0.0
H2177 H 0.3588 0.96691 0.74296 0.0
H2178 H 0.43214 0.03348 0.7829 0.0
H2179 H 0.37158 0.01313 0.74014 0.0
H2180 H 0.37573 0.87155 0.85505 0.0
H2181 H 0.39077 0.9486 0.81584 0.0
H2182 H 0.34973 0.86609 0.82361 0.0
H2183 H 0.41601 0.95265 0.84741 0.0
H2184 H 0.35853 0.00264 0.83127 0.0
H2185 H 0.28178 0.94019 0.81666 0.0
H2186 H 0.475 0.96314 0.76732 0.0
H2187 H 0.44507 0.89316 0.8034 0.0
H2188 H 0.28253 0.86603 0.75131 0.0
H2189 H 0.31746 0.94824 0.75936 0.0
H2190 H 0.24422 0.86534 0.73599 0.0
H2191 H 0.2786 0.94611 0.74378 0.0
H2192 H 0.4034 0.90642 0.73076 0.0
H2193 H 0.3559 0.8507 0.77653 0.0
H2194 H 0.43082 0.88621 0.72959 0.0
H2195 H 0.38391 0.83119 0.77429 0.0
H2196 H 0.3993 0.94352 0.68153 0.0
H2197 H 0.31867 0.92241 0.68038 0.0
H2198 H 0.25648 0.81725 0.8096 0.0
H2199 H 0.27625 0.79522 0.75186 0.0
Li2200 Li 0.1211 0.44538 0.78495 0.0
Li2201 Li 0.13488 0.4895 0.77749 0.0
Li2202 Li 0.13148 0.46181 0.74902 0.0
Li2203 Li 0.16781 0.47727 0.77553 0.0
C2204 C 0.07809 0.44042 0.76507 0.0
N2205 N 0.02681 0.40283 0.76131 0.0
C2206 C 0.05916 0.44244 0.77618 0.0
C2207 C 0.07094 0.41944 0.7519 0.0
C2208 C 0.03333 0.42319 0.77411 0.0
C2209 C 0.04491 0.40059 0.75026 0.0
C2210 C 0.14502 0.48729 0.8176 0.0
C2211 C 0.16376 0.5163 0.84636 0.0
N2212 N 0.13972 0.51043 0.85261 0.0
C2213 C 0.1205 0.48142 0.82434 0.0
C2214 C 0.16685 0.50477 0.82869 0.0
C2215 C 0.11823 0.49338 0.84207 0.0
C2216 C 0.11386 0.40128 0.80421 0.0
N2217 N 0.10205 0.41543 0.80167 0.0
C2218 C 0.06722 0.38643 0.82345 0.0
C2219 C 0.07921 0.40861 0.81111 0.0
C2220 C 0.07877 0.37105 0.82594 0.0
C2221 C 0.1023 0.37872 0.8158 0.0
H2222 H 0.13245 0.40755 0.79721 0.0
H2223 H 0.07051 0.42056 0.80944 0.0
C2224 C 0.10883 0.51723 0.77415 0.0
N2225 N 0.12952 0.51789 0.78342 0.0
C2226 C 0.10534 0.53859 0.77505 0.0
C2227 C 0.14415 0.56079 0.79554 0.0
C2228 C 0.14683 0.53892 0.7943 0.0
C2229 C 0.12347 0.56101 0.78544 0.0
H2230 H 0.09555 0.50045 0.76533 0.0
H2231 H 0.16346 0.53927 0.80115 0.0
C2232 C 0.14486 0.42148 0.75631 0.0
N2233 N 0.14658 0.38012 0.73906 0.0
C2234 C 0.16835 0.42429 0.74962 0.0
C2235 C 0.12225 0.39759 0.75427 0.0
C2236 C 0.16881 0.40316 0.74093 0.0
C2237 C 0.12352 0.37693 0.7455 0.0
C2238 C 0.17232 0.52357 0.75364 0.0
C2239 C 0.16241 0.53489 0.74035 0.0
C2240 C 0.19359 0.53927 0.76605 0.0
C2241 C 0.17385 0.56175 0.73981 0.0
C2242 C 0.20456 0.56606 0.76498 0.0
N2243 N 0.19452 0.57665 0.75202 0.0
C2244 C 0.11641 0.46991 0.71036 0.0
C2245 C 0.12863 0.43793 0.70965 0.0
C2246 C 0.11388 0.4689 0.68894 0.0
N2247 N 0.12433 0.45506 0.72022 0.0
C2248 C 0.12569 0.43578 0.68829 0.0
C2249 C 0.11894 0.45193 0.67748 0.0
H2250 H 0.11281 0.48315 0.71913 0.0
H2251 H 0.13493 0.42626 0.71756 0.0
C2252 C 0.20745 0.47358 0.79554 0.0
N2253 N 0.20193 0.48393 0.77902 0.0
C2254 C 0.2312 0.47449 0.79678 0.0
C2255 C 0.24338 0.49756 0.76438 0.0
C2256 C 0.21939 0.49614 0.76374 0.0
C2257 C 0.24929 0.48604 0.78079 0.0
H2258 H 0.19292 0.46358 0.80725 0.0
H2259 H 0.21425 0.50381 0.75063 0.0
O2260 O 0.10344 0.45907 0.76703 0.0
O2261 O 0.14767 0.47601 0.80018 0.0
O2262 O 0.1441 0.44197 0.76493 0.0
O2263 O 0.16098 0.49726 0.75484 0.0
H2264 H 0.0644 0.4586 0.78643 0.0
H2265 H 0.08529 0.41771 0.74305 0.0
H2266 H 0.01849 0.42442 0.7827 0.0
H2267 H 0.0391 0.3842 0.74017 0.0
H2268 H 0.18048 0.52995 0.85508 0.0
H2269 H 0.10345 0.46802 0.81581 0.0
H2270 H 0.18596 0.50947 0.82362 0.0
H2271 H 0.09938 0.48915 0.84741 0.0
H2272 H 0.04941 0.38177 0.83124 0.0
H2273 H 0.11189 0.36749 0.81668 0.0
H2274 H 0.08894 0.53776 0.76726 0.0
H2275 H 0.15882 0.57774 0.80344 0.0
H2276 H 0.18603 0.4426 0.75104 0.0
H2277 H 0.10392 0.39497 0.75948 0.0
H2278 H 0.18685 0.40508 0.73565 0.0
H2279 H 0.10619 0.35834 0.74384 0.0
H2280 H 0.14589 0.5231 0.73074 0.0
H2281 H 0.20126 0.53088 0.77669 0.0
H2282 H 0.16625 0.57075 0.72971 0.0
H2283 H 0.22093 0.57843 0.77459 0.0
H2284 H 0.10896 0.48207 0.68152 0.0
H2285 H 0.12915 0.42188 0.68037 0.0
H2286 H 0.23478 0.46505 0.80956 0.0
H2287 H 0.25685 0.50692 0.75185 0.0
Li2288 Li 0.60669 0.70157 0.78497 0.0
Li2289 Li 0.56257 0.67123 0.7775 0.0
Li2290 Li 0.59027 0.69553 0.74903 0.0
Li2291 Li 0.5748 0.71639 0.77554 0.0
C2292 C 0.61165 0.66351 0.7651 0.0
N2293 N 0.64922 0.64979 0.76135 0.0
C2294 C 0.60962 0.64256 0.77621 0.0
C2295 C 0.63263 0.67732 0.75193 0.0
C2296 C 0.62886 0.63597 0.77415 0.0
C2297 C 0.65147 0.67013 0.75029 0.0
C2298 C 0.56479 0.68359 0.81761 0.0
C2299 C 0.53579 0.67331 0.84639 0.0
N2300 N 0.54168 0.65514 0.85264 0.0
C2301 C 0.57068 0.66494 0.82435 0.0
C2302 C 0.54731 0.68793 0.82872 0.0
C2303 C 0.55874 0.65071 0.84208 0.0
C2304 C 0.65076 0.73844 0.80425 0.0
N2305 N 0.63663 0.71247 0.80169 0.0
C2306 C 0.66566 0.70667 0.82346 0.0
C2307 C 0.64348 0.69647 0.81112 0.0
C2308 C 0.68101 0.7336 0.82596 0.0
C2309 C 0.67332 0.74944 0.81583 0.0
H2310 H 0.64446 0.75074 0.79726 0.0
H2311 H 0.63155 0.67582 0.80944 0.0
C2312 C 0.53484 0.61746 0.77416 0.0
N2313 N 0.53418 0.63749 0.78343 0.0
C2314 C 0.51348 0.59262 0.77507 0.0
C2315 C 0.49129 0.60923 0.79555 0.0
C2316 C 0.51315 0.63378 0.79431 0.0
C2317 C 0.49106 0.58833 0.78546 0.0
H2318 H 0.55162 0.62096 0.76535 0.0
H2319 H 0.5128 0.65005 0.80116 0.0
C2320 C 0.63061 0.74924 0.75634 0.0
N2321 N 0.672 0.79231 0.73913 0.0
C2322 C 0.62782 0.76993 0.74966 0.0
C2323 C 0.65449 0.75049 0.7543 0.0
C2324 C 0.64896 0.79152 0.74099 0.0
C2325 C 0.67517 0.77243 0.74556 0.0
C2326 C 0.52851 0.67461 0.75364 0.0
C2327 C 0.5172 0.65338 0.74036 0.0
C2328 C 0.51279 0.68017 0.76604 0.0
C2329 C 0.49034 0.63795 0.73981 0.0
C2330 C 0.486 0.66435 0.76497 0.0
N2331 N 0.47542 0.64372 0.75201 0.0
C2332 C 0.58219 0.67236 0.71038 0.0
C2333 C 0.61415 0.71657 0.70968 0.0
C2334 C 0.58321 0.67085 0.68895 0.0
N2335 N 0.59703 0.69513 0.72023 0.0
C2336 C 0.61631 0.71578 0.68831 0.0
C2337 C 0.60018 0.69289 0.67749 0.0
H2338 H 0.56896 0.65552 0.71914 0.0
H2339 H 0.62581 0.73453 0.71759 0.0
C2340 C 0.57849 0.75972 0.79555 0.0
N2341 N 0.56814 0.74386 0.77903 0.0
C2342 C 0.57758 0.78257 0.79679 0.0
C2343 C 0.55452 0.77168 0.76439 0.0
C2344 C 0.55594 0.74912 0.76374 0.0
C2345 C 0.56603 0.78911 0.7808 0.0
H2346 H 0.58848 0.75518 0.80726 0.0
H2347 H 0.54827 0.73631 0.75064 0.0
O2348 O 0.59301 0.67023 0.76705 0.0
O2349 O 0.57605 0.69751 0.80019 0.0
O2350 O 0.6101 0.72798 0.76495 0.0
O2351 O 0.55481 0.68957 0.75485 0.0
H2352 H 0.59345 0.63166 0.78646 0.0
H2353 H 0.63437 0.69341 0.74307 0.0
H2354 H 0.62762 0.61989 0.78275 0.0
H2355 H 0.66787 0.68071 0.7402 0.0
H2356 H 0.52214 0.67636 0.85512 0.0
H2357 H 0.58408 0.6613 0.81581 0.0
H2358 H 0.54259 0.70232 0.82365 0.0
H2359 H 0.56298 0.6361 0.84742 0.0
H2360 H 0.67035 0.69353 0.83124 0.0
H2361 H 0.68453 0.77027 0.81672 0.0
H2362 H 0.51431 0.57704 0.76728 0.0
H2363 H 0.47433 0.60695 0.80346 0.0
H2364 H 0.60951 0.76931 0.75108 0.0
H2365 H 0.65709 0.73477 0.75951 0.0
H2366 H 0.64706 0.80765 0.73573 0.0
H2367 H 0.69374 0.77365 0.7439 0.0
H2368 H 0.52899 0.64864 0.73076 0.0
H2369 H 0.52118 0.69623 0.77668 0.0
H2370 H 0.48134 0.62135 0.72972 0.0
H2371 H 0.47363 0.66836 0.77457 0.0
H2372 H 0.57006 0.65277 0.68153 0.0
H2373 H 0.63021 0.73315 0.6804 0.0
H2374 H 0.58701 0.79558 0.80957 0.0
H2375 H 0.54517 0.77581 0.75185 0.0
Li2376 Li 0.58739 0.68976 0.58293 0.0
Li2377 Li 0.55105 0.6689 0.55642 0.0
Li2378 Li 0.59777 0.68372 0.547 0.0
Li2379 Li 0.58398 0.71406 0.55447 0.0
C2380 C 0.57403 0.63606 0.57562 0.0
N2381 N 0.57237 0.59299 0.59283 0.0
C2382 C 0.55055 0.61535 0.58228 0.0
C2383 C 0.59666 0.63482 0.57767 0.0
C2384 C 0.55011 0.59376 0.59095 0.0
C2385 C 0.59541 0.61289 0.58642 0.0
C2386 C 0.54656 0.71069 0.57834 0.0
C2387 C 0.51431 0.72098 0.56703 0.0
N2388 N 0.52439 0.74161 0.57999 0.0
C2389 C 0.5565 0.73193 0.59162 0.0
C2390 C 0.52527 0.70514 0.56595 0.0
C2391 C 0.54507 0.74736 0.59218 0.0
C2392 C 0.6025 0.71293 0.62159 0.0
N2393 N 0.59453 0.69015 0.61173 0.0
C2394 C 0.59313 0.66948 0.64366 0.0
C2395 C 0.59018 0.6687 0.62229 0.0
C2396 C 0.59992 0.69238 0.65447 0.0
C2397 C 0.60504 0.71444 0.64301 0.0
H2398 H 0.60614 0.72978 0.61283 0.0
H2399 H 0.58385 0.65073 0.61438 0.0
C2400 C 0.51142 0.62558 0.53641 0.0
N2401 N 0.51693 0.64145 0.55293 0.0
C2402 C 0.48766 0.60274 0.53517 0.0
C2403 C 0.47549 0.61362 0.56758 0.0
C2404 C 0.49948 0.63619 0.56822 0.0
C2405 C 0.46958 0.5962 0.55116 0.0
H2406 H 0.52594 0.63012 0.52469 0.0
H2407 H 0.50462 0.649 0.58133 0.0
C2408 C 0.64078 0.72179 0.56687 0.0
N2409 N 0.69208 0.73552 0.57061 0.0
C2410 C 0.65969 0.74273 0.55575 0.0
C2411 C 0.64796 0.70799 0.58004 0.0
C2412 C 0.68552 0.74932 0.5578 0.0
C2413 C 0.67399 0.71518 0.58168 0.0
C2414 C 0.57384 0.70172 0.51435 0.0
C2415 C 0.59837 0.72036 0.50762 0.0
C2416 C 0.55202 0.69737 0.50326 0.0
C2417 C 0.60065 0.7346 0.48989 0.0
C2418 C 0.55511 0.712 0.48559 0.0
N2419 N 0.57915 0.73017 0.47934 0.0
C2420 C 0.60499 0.64686 0.52773 0.0
C2421 C 0.63966 0.68884 0.52084 0.0
C2422 C 0.61655 0.63586 0.51614 0.0
N2423 N 0.61681 0.67283 0.53027 0.0
C2424 C 0.65164 0.67865 0.5085 0.0
C2425 C 0.64008 0.65171 0.506 0.0
H2426 H 0.5864 0.63456 0.53472 0.0
H2427 H 0.64836 0.70948 0.52252 0.0
C2428 C 0.61002 0.76784 0.5578 0.0
N2429 N 0.58933 0.74781 0.54854 0.0
C2430 C 0.6135 0.79268 0.55689 0.0
C2431 C 0.57469 0.77607 0.53642 0.0
C2432 C 0.57201 0.75152 0.53766 0.0
C2433 C 0.59537 0.79697 0.54651 0.0
H2434 H 0.62331 0.76434 0.56661 0.0
H2435 H 0.55538 0.73525 0.53081 0.0
O2436 O 0.57477 0.65731 0.56702 0.0
O2437 O 0.55789 0.69572 0.57712 0.0
O2438 O 0.61542 0.71507 0.56492 0.0
O2439 O 0.57119 0.68779 0.53177 0.0
H2440 H 0.53285 0.61596 0.58085 0.0
H2441 H 0.61498 0.65055 0.57248 0.0
H2442 H 0.53208 0.57762 0.5962 0.0
H2443 H 0.61277 0.61167 0.58809 0.0
H2444 H 0.49794 0.71698 0.55744 0.0
H2445 H 0.57303 0.73665 0.60121 0.0
H2446 H 0.51758 0.68908 0.55531 0.0
H2447 H 0.55269 0.76397 0.60227 0.0
H2448 H 0.58963 0.6521 0.65157 0.0
H2449 H 0.61 0.73253 0.65044 0.0
H2450 H 0.48408 0.58973 0.52239 0.0
H2451 H 0.46203 0.6095 0.58011 0.0
H2452 H 0.65442 0.75363 0.54549 0.0
H2453 H 0.63362 0.69191 0.58891 0.0
H2454 H 0.70035 0.7654 0.5492 0.0
H2455 H 0.67982 0.70462 0.59178 0.0
H2456 H 0.61541 0.72401 0.51615 0.0
H2457 H 0.53291 0.68297 0.50833 0.0
H2458 H 0.61949 0.74922 0.48455 0.0
H2459 H 0.5384 0.70895 0.47687 0.0
H2460 H 0.60694 0.61504 0.51525 0.0
H2461 H 0.66945 0.69179 0.50071 0.0
H2462 H 0.62991 0.80826 0.56468 0.0
H2463 H 0.56001 0.77835 0.52852 0.0
Li2464 Li 0.36229 0.92351 0.58293 0.0
Li2465 Li 0.38318 0.90805 0.55644 0.0
Li2466 Li 0.36836 0.93994 0.54699 0.0
Li2467 Li 0.33801 0.89581 0.55446 0.0
C2468 C 0.41602 0.96382 0.57567 0.0
N2469 N 0.45911 0.00512 0.59295 0.0
C2470 C 0.4366 0.96092 0.58247 0.0
C2471 C 0.41739 0.98776 0.57763 0.0
C2472 C 0.4582 0.98202 0.59118 0.0
C2473 C 0.43933 0.00839 0.58641 0.0
C2474 C 0.34144 0.86173 0.57826 0.0
C2475 C 0.33129 0.81931 0.5668 0.0
N2476 N 0.31067 0.80863 0.57976 0.0
C2477 C 0.32021 0.85031 0.59155 0.0
C2478 C 0.34705 0.84611 0.56579 0.0
C2479 C 0.30485 0.82344 0.59204 0.0
C2480 C 0.33913 0.91526 0.62158 0.0
N2481 N 0.36186 0.93026 0.61173 0.0
C2482 C 0.38241 0.94965 0.64365 0.0
C2483 C 0.38322 0.94753 0.62228 0.0
C2484 C 0.35957 0.93336 0.65447 0.0
C2485 C 0.33759 0.91625 0.643 0.0
H2486 H 0.32233 0.90193 0.61282 0.0
H2487 H 0.40115 0.95933 0.61437 0.0
C2488 C 0.42652 0.91177 0.53645 0.0
N2489 N 0.41065 0.9014 0.55296 0.0
C2490 C 0.44937 0.91086 0.5352 0.0
C2491 C 0.43847 0.88776 0.56759 0.0
C2492 C 0.41591 0.88919 0.56823 0.0
C2493 C 0.4559 0.8993 0.55118 0.0
H2494 H 0.42199 0.92177 0.52474 0.0
H2495 H 0.40309 0.8815 0.58134 0.0
C2496 C 0.33033 0.94492 0.56688 0.0
N2497 N 0.31672 0.98257 0.57068 0.0
C2498 C 0.30934 0.94291 0.55583 0.0
C2499 C 0.34424 0.96593 0.58 0.0
C2500 C 0.30281 0.96219 0.55792 0.0
C2501 C 0.3371 0.98481 0.58167 0.0
C2502 C 0.3504 0.89806 0.51435 0.0
C2503 C 0.33176 0.90396 0.50761 0.0
C2504 C 0.35475 0.88059 0.50323 0.0
C2505 C 0.31755 0.89204 0.48987 0.0
C2506 C 0.34015 0.8691 0.48555 0.0
N2507 N 0.32199 0.875 0.4793 0.0
C2508 C 0.40522 0.98398 0.5277 0.0
C2509 C 0.36325 0.97673 0.52085 0.0
C2510 C 0.41623 0.00654 0.51611 0.0
N2511 N 0.37926 0.96987 0.53026 0.0
C2512 C 0.37345 0.99891 0.50851 0.0
C2513 C 0.40038 0.01425 0.50599 0.0
H2514 H 0.41751 0.97768 0.53468 0.0
H2515 H 0.34261 0.96481 0.52255 0.0
C2516 C 0.28425 0.86807 0.55782 0.0
N2517 N 0.30427 0.86743 0.54853 0.0
C2518 C 0.2594 0.84672 0.55691 0.0
C2519 C 0.276 0.82454 0.53638 0.0
C2520 C 0.30055 0.84641 0.53762 0.0
C2521 C 0.25511 0.82431 0.5465 0.0
H2522 H 0.28775 0.88484 0.56665 0.0
H2523 H 0.31681 0.84606 0.53075 0.0
O2524 O 0.39475 0.94336 0.56703 0.0
O2525 O 0.35633 0.88805 0.57712 0.0
O2526 O 0.337 0.92626 0.56489 0.0
O2527 O 0.3643 0.90929 0.53178 0.0
H2528 H 0.43589 0.94256 0.58112 0.0
H2529 H 0.40175 0.99045 0.57234 0.0
H2530 H 0.47425 0.98004 0.59653 0.0
H2531 H 0.44064 0.02701 0.58801 0.0
H2532 H 0.33534 0.80701 0.55715 0.0
H2533 H 0.31543 0.86203 0.60121 0.0
H2534 H 0.36309 0.85458 0.55514 0.0
H2535 H 0.28826 0.81437 0.60213 0.0
H2536 H 0.39972 0.96366 0.65157 0.0
H2537 H 0.31955 0.90297 0.65043 0.0
H2538 H 0.46238 0.92031 0.52242 0.0
H2539 H 0.44259 0.8784 0.58011 0.0
H2540 H 0.29837 0.92673 0.54561 0.0
H2541 H 0.36036 0.96767 0.5888 0.0
H2542 H 0.2867 0.96096 0.54938 0.0
H2543 H 0.34775 0.00122 0.59173 0.0
H2544 H 0.32811 0.91734 0.51615 0.0
H2545 H 0.36914 0.87586 0.5083 0.0
H2546 H 0.30294 0.89629 0.48452 0.0
H2547 H 0.34321 0.85546 0.47681 0.0
H2548 H 0.43705 0.01774 0.51521 0.0
H2549 H 0.36032 0.00361 0.50074 0.0
H2550 H 0.24384 0.84754 0.56472 0.0
H2551 H 0.27372 0.80759 0.52846 0.0
Li2552 Li 0.14407 0.50107 0.5564 0.0
Li2553 Li 0.1286 0.46474 0.58292 0.0
Li2554 Li 0.15629 0.46813 0.55445 0.0
Li2555 Li 0.11217 0.45435 0.54698 0.0
C2556 C 0.19035 0.50555 0.57832 0.0
N2557 N 0.24343 0.52771 0.57998 0.0
C2558 C 0.20164 0.4956 0.5916 0.0
C2559 C 0.20609 0.52684 0.56593 0.0
C2560 C 0.2285 0.50703 0.59217 0.0
C2561 C 0.23288 0.53779 0.56702 0.0
C2562 C 0.08826 0.4781 0.5756 0.0
C2563 C 0.04371 0.45671 0.58643 0.0
N2564 N 0.04686 0.47977 0.59283 0.0
C2565 C 0.09103 0.50158 0.58226 0.0
C2566 C 0.06439 0.45546 0.57767 0.0
C2567 C 0.06988 0.50202 0.59094 0.0
C2568 C 0.14038 0.54071 0.53639 0.0
N2569 N 0.15073 0.53519 0.5529 0.0
C2570 C 0.16435 0.57663 0.56755 0.0
C2571 C 0.16293 0.55264 0.56819 0.0
C2572 C 0.15283 0.58254 0.55114 0.0
C2573 C 0.14129 0.56446 0.53514 0.0
H2574 H 0.1304 0.52618 0.52467 0.0
H2575 H 0.17059 0.54749 0.5813 0.0
C2576 C 0.13664 0.4496 0.62157 0.0
N2577 N 0.12185 0.45759 0.61172 0.0
C2578 C 0.13563 0.44707 0.64299 0.0
C2579 C 0.1026 0.45901 0.64364 0.0
C2580 C 0.10476 0.46196 0.62228 0.0
C2581 C 0.11869 0.45219 0.65446 0.0
H2582 H 0.14985 0.44596 0.6128 0.0
H2583 H 0.09314 0.46831 0.61437 0.0
C2584 C 0.15409 0.47828 0.51433 0.0
N2585 N 0.17724 0.47297 0.47932 0.0
C2586 C 0.14822 0.45375 0.5076 0.0
C2587 C 0.17157 0.50011 0.50324 0.0
C2588 C 0.16018 0.45148 0.48987 0.0
C2589 C 0.18311 0.49701 0.48558 0.0
C2590 C 0.10723 0.41134 0.56685 0.0
C2591 C 0.10926 0.39243 0.55572 0.0
C2592 C 0.08626 0.40415 0.58003 0.0
C2593 C 0.09003 0.3666 0.55777 0.0
C2594 C 0.06743 0.37812 0.58166 0.0
N2595 N 0.06967 0.36004 0.57058 0.0
C2596 C 0.18403 0.44209 0.55778 0.0
C2597 C 0.20572 0.4801 0.53764 0.0
C2598 C 0.20539 0.4386 0.55687 0.0
N2599 N 0.18469 0.46277 0.54852 0.0
C2600 C 0.22759 0.47742 0.5364 0.0
C2601 C 0.22781 0.45674 0.54649 0.0
H2602 H 0.16725 0.4288 0.56659 0.0
H2603 H 0.20608 0.49673 0.5308 0.0
C2604 C 0.06807 0.44711 0.52773 0.0
N2605 N 0.08223 0.4353 0.53026 0.0
C2606 C 0.04551 0.43555 0.51615 0.0
C2607 C 0.05322 0.40048 0.50848 0.0
C2608 C 0.07541 0.41247 0.52082 0.0
C2609 C 0.03784 0.41203 0.506 0.0
H2610 H 0.07435 0.4657 0.53473 0.0
H2611 H 0.08736 0.40377 0.52248 0.0
O2612 O 0.16405 0.49423 0.5771 0.0
O2613 O 0.10877 0.47736 0.567 0.0
O2614 O 0.14281 0.48092 0.53175 0.0
O2615 O 0.12586 0.4367 0.56491 0.0
H2616 H 0.18983 0.47907 0.60119 0.0
H2617 H 0.19772 0.53453 0.55529 0.0
H2618 H 0.23748 0.4994 0.60226 0.0
H2619 H 0.24526 0.55417 0.55743 0.0
H2620 H 0.02515 0.43936 0.58811 0.0
H2621 H 0.10932 0.51928 0.58082 0.0
H2622 H 0.0618 0.43714 0.57249 0.0
H2623 H 0.07177 0.52005 0.59618 0.0
H2624 H 0.17369 0.59009 0.58009 0.0
H2625 H 0.13186 0.56804 0.52236 0.0
H2626 H 0.14875 0.44209 0.65042 0.0
H2627 H 0.08873 0.46252 0.65156 0.0
H2628 H 0.13482 0.43671 0.51612 0.0
H2629 H 0.17627 0.51921 0.50832 0.0
H2630 H 0.15596 0.43263 0.48452 0.0
H2631 H 0.19676 0.51373 0.47686 0.0
H2632 H 0.12542 0.3977 0.54546 0.0
H2633 H 0.08452 0.41849 0.58891 0.0
H2634 H 0.09127 0.35177 0.54916 0.0
H2635 H 0.05104 0.37229 0.59176 0.0
H2636 H 0.20456 0.42219 0.56466 0.0
H2637 H 0.24455 0.4921 0.5285 0.0
H2638 H 0.03427 0.44514 0.51527 0.0
H2639 H 0.04856 0.38267 0.50068 0.0
Li2640 Li 0.3301 0.45667 0.55541 0.0
Li2641 Li 0.35661 0.45369 0.5832 0.0
Li2642 Li 0.37665 0.48593 0.55605 0.0
Li2643 Li 0.35847 0.43989 0.54916 0.0
C2644 C 0.34683 0.50321 0.57555 0.0
N2645 N 0.33755 0.54399 0.57347 0.0
C2646 C 0.34258 0.51333 0.59357 0.0
C2647 C 0.34639 0.51383 0.55647 0.0
C2648 C 0.33792 0.53396 0.59219 0.0
C2649 C 0.34166 0.53444 0.55574 0.0
C2650 C 0.3157 0.40053 0.56077 0.0
C2651 C 0.30882 0.35725 0.56166 0.0
N2652 N 0.29244 0.35088 0.54536 0.0
C2653 C 0.29871 0.39355 0.5441 0.0
C2654 C 0.32074 0.38225 0.56971 0.0
C2655 C 0.28717 0.36835 0.53651 0.0
C2656 C 0.2917 0.46144 0.53249 0.0
N2657 N 0.29796 0.4548 0.55073 0.0
C2658 C 0.25882 0.44806 0.56607 0.0
C2659 C 0.28206 0.44803 0.56731 0.0
C2660 C 0.25182 0.45514 0.54755 0.0
C2661 C 0.26855 0.46174 0.53054 0.0
H2662 H 0.3049 0.46699 0.51962 0.0
H2663 H 0.28782 0.44321 0.58169 0.0
C2664 C 0.37851 0.46854 0.62249 0.0
N2665 N 0.35797 0.44976 0.61208 0.0
C2666 C 0.37985 0.46735 0.64387 0.0
C2667 C 0.33839 0.42801 0.64351 0.0
C2668 C 0.33813 0.42963 0.62204 0.0
C2669 C 0.35946 0.44709 0.65461 0.0
H2670 H 0.3937 0.48464 0.61418 0.0
H2671 H 0.32188 0.4152 0.61333 0.0
C2672 C 0.36929 0.47183 0.5146 0.0
N2673 N 0.39884 0.48327 0.47926 0.0
C2674 C 0.39384 0.47439 0.51537 0.0
C2675 C 0.35979 0.47507 0.49583 0.0
C2676 C 0.40846 0.48017 0.49734 0.0
C2677 C 0.37503 0.48088 0.47815 0.0
C2678 C 0.4048 0.46035 0.57999 0.0
C2679 C 0.43003 0.48091 0.5821 0.0
C2680 C 0.39694 0.43775 0.59135 0.0
C2681 C 0.44684 0.47869 0.59579 0.0
C2682 C 0.4143 0.43628 0.60489 0.0
N2683 N 0.43869 0.45663 0.60683 0.0
C2684 C 0.41654 0.53163 0.57031 0.0
C2685 C 0.41056 0.53379 0.53441 0.0
C2686 C 0.43773 0.55655 0.57022 0.0
N2687 N 0.40382 0.52058 0.55253 0.0
C2688 C 0.43174 0.55886 0.5336 0.0
C2689 C 0.44581 0.57043 0.55166 0.0
H2690 H 0.41047 0.52076 0.58453 0.0
H2691 H 0.39969 0.52494 0.52057 0.0
C2692 C 0.35223 0.40878 0.51407 0.0
N2693 N 0.36355 0.41601 0.53293 0.0
C2694 C 0.35895 0.39482 0.50066 0.0
C2695 C 0.3877 0.39471 0.52676 0.0
C2696 C 0.38053 0.40877 0.53958 0.0
C2697 C 0.37744 0.38819 0.50678 0.0
H2698 H 0.3388 0.41482 0.50911 0.0
H2699 H 0.38946 0.41486 0.55448 0.0
O2700 O 0.35113 0.48284 0.57669 0.0
O2701 O 0.3277 0.42528 0.56803 0.0
O2702 O 0.35425 0.46567 0.53191 0.0
O2703 O 0.388 0.46235 0.5668 0.0
H2704 H 0.34282 0.50527 0.60845 0.0
H2705 H 0.34958 0.50623 0.54235 0.0
H2706 H 0.33457 0.54197 0.60601 0.0
H2707 H 0.34122 0.54283 0.54108 0.0
H2708 H 0.31262 0.34292 0.56836 0.0
H2709 H 0.29474 0.40754 0.53695 0.0
H2710 H 0.33378 0.38735 0.58266 0.0
H2711 H 0.27409 0.3627 0.52354 0.0
H2712 H 0.24687 0.44338 0.57971 0.0
H2713 H 0.26388 0.46719 0.51595 0.0
H2714 H 0.39617 0.48262 0.65201 0.0
H2715 H 0.32227 0.41221 0.65139 0.0
H2716 H 0.40161 0.47193 0.52966 0.0
H2717 H 0.3408 0.47305 0.49494 0.0
H2718 H 0.42746 0.48217 0.49772 0.0
H2719 H 0.3679 0.48343 0.46353 0.0
H2720 H 0.43666 0.49834 0.57314 0.0
H2721 H 0.37751 0.42162 0.58988 0.0
H2722 H 0.4664 0.49449 0.5976 0.0
H2723 H 0.40838 0.41899 0.61389 0.0
H2724 H 0.44813 0.5645 0.58447 0.0
H2725 H 0.43707 0.56903 0.51903 0.0
H2726 H 0.35042 0.39 0.48543 0.0
H2727 H 0.4023 0.39038 0.53203 0.0
Li2728 Li 0.59841 0.92882 0.58321 0.0
Li2729 Li 0.59543 0.89933 0.55542 0.0
Li2730 Li 0.61221 0.94447 0.54917 0.0
Li2731 Li 0.56617 0.91662 0.55605 0.0
C2732 C 0.65157 0.94106 0.56078 0.0
N2733 N 0.70122 0.96744 0.54538 0.0
C2734 C 0.65855 0.93104 0.54412 0.0
C2735 C 0.66985 0.96437 0.56972 0.0
C2736 C 0.68376 0.9447 0.53653 0.0
C2737 C 0.69485 0.97745 0.56168 0.0
C2738 C 0.54889 0.86951 0.57556 0.0
C2739 C 0.51766 0.83312 0.55575 0.0
N2740 N 0.50811 0.81946 0.57347 0.0
C2741 C 0.53878 0.85515 0.59357 0.0
C2742 C 0.53827 0.85846 0.55647 0.0
C2743 C 0.51815 0.82986 0.5922 0.0
C2744 C 0.58355 0.93585 0.6225 0.0
N2745 N 0.60233 0.9341 0.61208 0.0
C2746 C 0.62408 0.93627 0.64352 0.0
C2747 C 0.62247 0.93439 0.62204 0.0
C2748 C 0.605 0.93825 0.65461 0.0
C2749 C 0.58473 0.93838 0.64388 0.0
H2750 H 0.56745 0.93494 0.61418 0.0
H2751 H 0.6369 0.93258 0.61334 0.0
C2752 C 0.59066 0.85616 0.5325 0.0
N2753 N 0.5973 0.86906 0.55074 0.0
C2754 C 0.59037 0.83271 0.53056 0.0
C2755 C 0.60404 0.83665 0.56609 0.0
C2756 C 0.60407 0.85993 0.56732 0.0
C2757 C 0.59696 0.82257 0.54757 0.0
H2758 H 0.58511 0.86381 0.51963 0.0
H2759 H 0.60889 0.8705 0.5817 0.0
C2760 C 0.59175 0.97034 0.58 0.0
N2761 N 0.59546 0.00794 0.60684 0.0
C2762 C 0.57118 0.975 0.58211 0.0
C2763 C 0.61434 0.98507 0.59136 0.0
C2764 C 0.57339 0.99403 0.5958 0.0
C2765 C 0.6158 0.0039 0.6049 0.0
C2766 C 0.58028 0.92335 0.5146 0.0
C2767 C 0.57772 0.94535 0.51537 0.0
C2768 C 0.57703 0.91062 0.49584 0.0
C2769 C 0.57194 0.95419 0.49734 0.0
C2770 C 0.57122 0.92005 0.47815 0.0
N2771 N 0.56883 0.94146 0.47926 0.0
C2772 C 0.64333 0.96933 0.51408 0.0
C2773 C 0.64334 0.99765 0.53959 0.0
C2774 C 0.65729 0.99002 0.50067 0.0
N2775 N 0.63609 0.97343 0.53293 0.0
C2776 C 0.6574 0.01887 0.52677 0.0
C2777 C 0.66392 0.01513 0.50679 0.0
H2778 H 0.63728 0.94986 0.50912 0.0
H2779 H 0.63724 0.00049 0.55448 0.0
C2780 C 0.52046 0.91079 0.57032 0.0
N2781 N 0.53152 0.90915 0.55254 0.0
C2782 C 0.49555 0.90707 0.57024 0.0
C2783 C 0.49325 0.89881 0.53361 0.0
C2784 C 0.51832 0.90269 0.53442 0.0
C2785 C 0.48167 0.9013 0.55167 0.0
H2786 H 0.53133 0.91558 0.58454 0.0
H2787 H 0.52717 0.90069 0.52057 0.0
O2788 O 0.62682 0.92831 0.56804 0.0
O2789 O 0.56926 0.89419 0.57669 0.0
O2790 O 0.58975 0.95155 0.56681 0.0
O2791 O 0.58643 0.91447 0.53192 0.0
H2792 H 0.64456 0.91308 0.53696 0.0
H2793 H 0.66475 0.97232 0.58267 0.0
H2794 H 0.68941 0.93728 0.52356 0.0
H2795 H 0.70918 0.99558 0.56837 0.0
H2796 H 0.50927 0.82431 0.54109 0.0
H2797 H 0.54684 0.86345 0.60846 0.0
H2798 H 0.54587 0.86926 0.54236 0.0
H2799 H 0.51013 0.81849 0.60602 0.0
H2800 H 0.63988 0.93595 0.6514 0.0
H2801 H 0.56946 0.93942 0.65201 0.0
H2802 H 0.58491 0.82258 0.51597 0.0
H2803 H 0.60872 0.82938 0.57973 0.0
H2804 H 0.55375 0.96419 0.57315 0.0
H2805 H 0.63047 0.98178 0.58989 0.0
H2806 H 0.55758 0.99778 0.59761 0.0
H2807 H 0.6331 0.01527 0.6139 0.0
H2808 H 0.58018 0.95558 0.52966 0.0
H2809 H 0.57905 0.89365 0.49494 0.0
H2810 H 0.56994 0.97119 0.49772 0.0
H2811 H 0.56866 0.91037 0.46353 0.0
H2812 H 0.66212 0.98631 0.48544 0.0
H2813 H 0.66173 0.0378 0.53204 0.0
H2814 H 0.4876 0.90951 0.58449 0.0
H2815 H 0.48308 0.89398 0.51904 0.0
Li2816 Li 0.15276 0.72202 0.5554 0.0
Li2817 Li 0.12328 0.6955 0.58319 0.0
Li2818 Li 0.13548 0.67547 0.55603 0.0
Li2819 Li 0.10762 0.69366 0.54915 0.0
C2820 C 0.18258 0.70529 0.57554 0.0
N2821 N 0.23264 0.71457 0.57345 0.0
C2822 C 0.19695 0.70954 0.59356 0.0
C2823 C 0.19365 0.70574 0.55645 0.0
C2824 C 0.22224 0.7142 0.59218 0.0
C2825 C 0.21898 0.71047 0.55573 0.0
C2826 C 0.11102 0.73642 0.56076 0.0
C2827 C 0.07462 0.7433 0.56166 0.0
N2828 N 0.08462 0.75968 0.54536 0.0
C2829 C 0.12103 0.75341 0.54409 0.0
C2830 C 0.08771 0.73138 0.56971 0.0
C2831 C 0.10736 0.76495 0.53651 0.0
C2832 C 0.19591 0.76044 0.53248 0.0
N2833 N 0.18302 0.75416 0.55072 0.0
C2834 C 0.21545 0.79328 0.56608 0.0
C2835 C 0.19217 0.77004 0.56732 0.0
C2836 C 0.22951 0.8003 0.54755 0.0
C2837 C 0.21936 0.78359 0.53053 0.0
H2838 H 0.18825 0.74725 0.5196 0.0
H2839 H 0.18161 0.76427 0.58169 0.0
C2840 C 0.11624 0.6736 0.62248 0.0
N2841 N 0.11799 0.69414 0.61206 0.0
C2842 C 0.11371 0.67226 0.64386 0.0
C2843 C 0.11582 0.71372 0.6435 0.0
C2844 C 0.11769 0.71398 0.62203 0.0
C2845 C 0.11384 0.69265 0.6546 0.0
H2846 H 0.11715 0.65841 0.61416 0.0
H2847 H 0.11951 0.73023 0.61332 0.0
C2848 C 0.12874 0.68284 0.51459 0.0
N2849 N 0.11064 0.6533 0.47924 0.0
C2850 C 0.10675 0.65829 0.51536 0.0
C2851 C 0.14147 0.69234 0.49582 0.0
C2852 C 0.09792 0.64367 0.49732 0.0
C2853 C 0.13205 0.6771 0.47813 0.0
C2854 C 0.08175 0.64732 0.57997 0.0
C2855 C 0.0771 0.62209 0.58208 0.0
C2856 C 0.06703 0.65518 0.59134 0.0
C2857 C 0.05806 0.60527 0.59576 0.0
C2858 C 0.04819 0.63781 0.60488 0.0
N2859 N 0.04415 0.61342 0.60681 0.0
C2860 C 0.14131 0.63559 0.57029 0.0
C2861 C 0.14944 0.64157 0.53439 0.0
C2862 C 0.14504 0.6144 0.5702 0.0
N2863 N 0.14297 0.6483 0.55252 0.0
C2864 C 0.15333 0.62039 0.53358 0.0
C2865 C 0.15083 0.60631 0.55164 0.0
H2866 H 0.1365 0.64165 0.58451 0.0
H2867 H 0.15145 0.65244 0.52055 0.0
C2868 C 0.08275 0.6999 0.51406 0.0
N2869 N 0.07866 0.68857 0.53291 0.0
C2870 C 0.06206 0.69317 0.50064 0.0
C2871 C 0.03322 0.66443 0.52675 0.0
C2872 C 0.05444 0.67159 0.53957 0.0
C2873 C 0.03695 0.67468 0.50677 0.0
H2874 H 0.10222 0.71332 0.50909 0.0
H2875 H 0.0516 0.66266 0.55447 0.0
O2876 O 0.15791 0.70099 0.57668 0.0
O2877 O 0.12377 0.72442 0.56802 0.0
O2878 O 0.13762 0.69788 0.5319 0.0
O2879 O 0.10055 0.66412 0.56679 0.0
H2880 H 0.18864 0.70929 0.60844 0.0
H2881 H 0.18285 0.70255 0.54234 0.0
H2882 H 0.2336 0.71755 0.606 0.0
H2883 H 0.2278 0.71091 0.54107 0.0
H2884 H 0.05649 0.7395 0.56836 0.0
H2885 H 0.13899 0.75738 0.53694 0.0
H2886 H 0.07976 0.71834 0.58266 0.0
H2887 H 0.11478 0.77803 0.52354 0.0
H2888 H 0.22273 0.80521 0.57973 0.0
H2889 H 0.22948 0.78828 0.51594 0.0
H2890 H 0.11266 0.65594 0.65199 0.0
H2891 H 0.11614 0.72984 0.65138 0.0
H2892 H 0.09653 0.65052 0.52964 0.0
H2893 H 0.15844 0.71133 0.49492 0.0
H2894 H 0.08093 0.62467 0.4977 0.0
H2895 H 0.14173 0.68423 0.46351 0.0
H2896 H 0.0879 0.61546 0.57312 0.0
H2897 H 0.07032 0.6746 0.58987 0.0
H2898 H 0.05431 0.58571 0.59757 0.0
H2899 H 0.03682 0.64373 0.61388 0.0
H2900 H 0.14258 0.60399 0.58445 0.0
H2901 H 0.15817 0.61506 0.51901 0.0
H2902 H 0.06577 0.70169 0.48542 0.0
H2903 H 0.01429 0.64983 0.53202 0.0
Li2904 Li 0.15267 0.70985 0.77591 0.0
Li2905 Li 0.10663 0.69167 0.78279 0.0
Li2906 Li 0.1234 0.6633 0.77654 0.0
Li2907 Li 0.12044 0.68982 0.74874 0.0
C2908 C 0.13856 0.70248 0.81735 0.0
N2909 N 0.15 0.73202 0.85269 0.0
C2910 C 0.14112 0.72703 0.81658 0.0
C2911 C 0.14179 0.69298 0.83612 0.0
C2912 C 0.1469 0.74165 0.83461 0.0
C2913 C 0.1476 0.70821 0.8538 0.0
C2914 C 0.1271 0.73801 0.75196 0.0
C2915 C 0.10304 0.74752 0.72706 0.0
N2916 N 0.12338 0.77191 0.72513 0.0
C2917 C 0.14766 0.76324 0.74986 0.0
C2918 C 0.1045 0.73015 0.7406 0.0
C2919 C 0.14544 0.78006 0.73617 0.0
C2920 C 0.19838 0.74974 0.76166 0.0
N2921 N 0.18732 0.73701 0.77942 0.0
C2922 C 0.22559 0.76492 0.79836 0.0
C2923 C 0.20052 0.74374 0.79755 0.0
C2924 C 0.23717 0.779 0.78031 0.0
C2925 C 0.22329 0.77093 0.76175 0.0
H2926 H 0.18751 0.74368 0.74744 0.0
H2927 H 0.19167 0.73287 0.81139 0.0
C2928 C 0.07552 0.68542 0.81787 0.0
N2929 N 0.08275 0.69676 0.79902 0.0
C2930 C 0.06155 0.69215 0.83128 0.0
C2931 C 0.06146 0.7209 0.80518 0.0
C2932 C 0.07551 0.71374 0.79236 0.0
C2933 C 0.05493 0.71064 0.82516 0.0
H2934 H 0.08156 0.672 0.82283 0.0
H2935 H 0.0816 0.72267 0.77747 0.0
C2936 C 0.16995 0.68003 0.7564 0.0
N2937 N 0.21072 0.67074 0.75849 0.0
C2938 C 0.18007 0.67577 0.73838 0.0
C2939 C 0.18057 0.67958 0.77548 0.0
C2940 C 0.20069 0.67111 0.73976 0.0
C2941 C 0.20117 0.67484 0.77621 0.0
C2942 C 0.06727 0.64891 0.77117 0.0
C2943 C 0.06029 0.63192 0.78783 0.0
C2944 C 0.04899 0.65395 0.76222 0.0
C2945 C 0.03508 0.62037 0.79542 0.0
C2946 C 0.02399 0.64203 0.77027 0.0
N2947 N 0.01761 0.62565 0.78657 0.0
C2948 C 0.12816 0.6249 0.79946 0.0
C2949 C 0.11477 0.61526 0.76463 0.0
C2950 C 0.12846 0.60174 0.8014 0.0
N2951 N 0.12153 0.63116 0.78122 0.0
C2952 C 0.1148 0.59202 0.76586 0.0
C2953 C 0.12188 0.58502 0.78439 0.0
H2954 H 0.13371 0.63809 0.81233 0.0
H2955 H 0.10995 0.62103 0.75025 0.0
C2956 C 0.1353 0.71173 0.70946 0.0
N2957 N 0.11651 0.69118 0.71987 0.0
C2958 C 0.13411 0.71307 0.68807 0.0
C2959 C 0.09477 0.67161 0.68843 0.0
C2960 C 0.09638 0.67135 0.70991 0.0
C2961 C 0.11385 0.69268 0.67734 0.0
H2962 H 0.1514 0.72691 0.71778 0.0
H2963 H 0.08195 0.6551 0.71861 0.0
O2964 O 0.13241 0.68744 0.80004 0.0
O2965 O 0.1291 0.72121 0.76515 0.0
O2966 O 0.14958 0.68433 0.75526 0.0
O2967 O 0.09202 0.66091 0.76391 0.0
H2968 H 0.13867 0.73481 0.80229 0.0
H2969 H 0.13976 0.67398 0.83701 0.0
H2970 H 0.14891 0.76065 0.83423 0.0
H2971 H 0.15014 0.70108 0.86842 0.0
H2972 H 0.08575 0.7416 0.71806 0.0
H2973 H 0.16509 0.76986 0.75882 0.0
H2974 H 0.08838 0.71072 0.74206 0.0
H2975 H 0.16125 0.79962 0.73437 0.0
H2976 H 0.23577 0.77024 0.81294 0.0
H2977 H 0.23125 0.78134 0.7475 0.0
H2978 H 0.05673 0.68362 0.84651 0.0
H2979 H 0.05713 0.73551 0.79991 0.0
H2980 H 0.17201 0.67602 0.7235 0.0
H2981 H 0.17296 0.68277 0.7896 0.0
H2982 H 0.20871 0.66776 0.72594 0.0
H2983 H 0.20955 0.67441 0.79087 0.0
H2984 H 0.07428 0.62794 0.79499 0.0
H2985 H 0.05409 0.66699 0.74927 0.0
H2986 H 0.02943 0.6073 0.80839 0.0
H2987 H 0.00966 0.64583 0.76357 0.0
H2988 H 0.13391 0.59706 0.81599 0.0
H2989 H 0.11013 0.58008 0.75222 0.0
H2990 H 0.14938 0.72939 0.67994 0.0
H2991 H 0.07897 0.65549 0.68055 0.0
Li2992 Li 0.34222 0.4687 0.77591 0.0
Li2993 Li 0.36041 0.44084 0.7828 0.0
Li2994 Li 0.38878 0.48598 0.77655 0.0
Li2995 Li 0.36226 0.4565 0.74875 0.0
C2996 C 0.34959 0.46196 0.81736 0.0
N2997 N 0.32004 0.44385 0.8527 0.0
C2998 C 0.32504 0.43997 0.81659 0.0
C2999 C 0.35908 0.47469 0.83612 0.0
C3000 C 0.31042 0.43113 0.83462 0.0
C3001 C 0.34385 0.46526 0.85381 0.0
C3002 C 0.31408 0.41498 0.75197 0.0
C3003 C 0.30457 0.38142 0.72706 0.0
N3004 N 0.28019 0.37738 0.72512 0.0
C3005 C 0.28885 0.41032 0.74986 0.0
C3006 C 0.32194 0.40025 0.7406 0.0
C3007 C 0.27203 0.39129 0.73617 0.0
C3008 C 0.30235 0.47453 0.76165 0.0
N3009 N 0.31506 0.47618 0.77942 0.0
C3010 C 0.28713 0.48654 0.79835 0.0
C3011 C 0.30832 0.48265 0.79755 0.0
C3012 C 0.27306 0.48404 0.7803 0.0
C3013 C 0.28115 0.47826 0.76173 0.0
H3014 H 0.30842 0.46973 0.74743 0.0
H3015 H 0.31918 0.48466 0.81139 0.0
C3016 C 0.36665 0.41597 0.81789 0.0
N3017 N 0.35532 0.41188 0.79903 0.0
C3018 C 0.35991 0.39528 0.8313 0.0
C3019 C 0.33117 0.36643 0.80519 0.0
C3020 C 0.33834 0.38766 0.79237 0.0
C3021 C 0.34143 0.37017 0.82517 0.0
H3022 H 0.38007 0.43543 0.82285 0.0
H3023 H 0.32942 0.38482 0.77747 0.0
C3024 C 0.37205 0.51581 0.75641 0.0
N3025 N 0.38133 0.56586 0.75849 0.0
C3026 C 0.37631 0.53018 0.73839 0.0
C3027 C 0.37249 0.52687 0.77549 0.0
C3028 C 0.38097 0.55546 0.73977 0.0
C3029 C 0.37722 0.5522 0.77622 0.0
C3030 C 0.40318 0.44424 0.77119 0.0
C3031 C 0.42016 0.45425 0.78786 0.0
C3032 C 0.39814 0.42093 0.76224 0.0
C3033 C 0.43171 0.44058 0.79544 0.0
C3034 C 0.41005 0.40784 0.77029 0.0
N3035 N 0.42643 0.41784 0.78659 0.0
C3036 C 0.42718 0.52914 0.79947 0.0
C3037 C 0.43681 0.52538 0.76464 0.0
C3038 C 0.45033 0.55259 0.80141 0.0
N3039 N 0.42091 0.51625 0.78123 0.0
C3040 C 0.46005 0.54865 0.76588 0.0
C3041 C 0.46705 0.56273 0.7844 0.0
H3042 H 0.41398 0.52149 0.81234 0.0
H3043 H 0.43105 0.51481 0.75027 0.0
C3044 C 0.34037 0.44947 0.70947 0.0
N3045 N 0.36091 0.45122 0.71988 0.0
C3046 C 0.33903 0.44694 0.68808 0.0
C3047 C 0.38049 0.44905 0.68844 0.0
C3048 C 0.38075 0.45092 0.70992 0.0
C3049 C 0.35942 0.44707 0.67735 0.0
H3050 H 0.32518 0.45038 0.71778 0.0
H3051 H 0.39699 0.45273 0.71863 0.0
O3052 O 0.36463 0.47084 0.80005 0.0
O3053 O 0.33087 0.43377 0.76515 0.0
O3054 O 0.36775 0.49113 0.75527 0.0
O3055 O 0.39117 0.45699 0.76393 0.0
H3056 H 0.31727 0.42974 0.8023 0.0
H3057 H 0.37808 0.49166 0.83702 0.0
H3058 H 0.29142 0.41414 0.83424 0.0
H3059 H 0.35097 0.47494 0.86843 0.0
H3060 H 0.3105 0.37005 0.71806 0.0
H3061 H 0.28222 0.42113 0.75882 0.0
H3062 H 0.34137 0.40354 0.74207 0.0
H3063 H 0.25248 0.38754 0.73436 0.0
H3064 H 0.2818 0.49137 0.81293 0.0
H3065 H 0.27075 0.47581 0.74748 0.0
H3066 H 0.36844 0.39898 0.84653 0.0
H3067 H 0.31657 0.34751 0.79992 0.0
H3068 H 0.37606 0.52187 0.72351 0.0
H3069 H 0.36929 0.51606 0.78961 0.0
H3070 H 0.38432 0.56683 0.72595 0.0
H3071 H 0.37765 0.56102 0.79088 0.0
H3072 H 0.42414 0.47221 0.79501 0.0
H3073 H 0.3851 0.41299 0.74929 0.0
H3074 H 0.44478 0.448 0.80842 0.0
H3075 H 0.40626 0.38971 0.7636 0.0
H3076 H 0.45501 0.56272 0.81601 0.0
H3077 H 0.472 0.55593 0.75224 0.0
H3078 H 0.32271 0.4459 0.67995 0.0
H3079 H 0.39661 0.44937 0.68056 0.0
Li3080 Li 0.61121 0.94542 0.7828 0.0
Li3081 Li 0.58336 0.89938 0.77592 0.0
Li3082 Li 0.59556 0.93162 0.74876 0.0
Li3083 Li 0.56607 0.92864 0.77655 0.0
C3084 C 0.63709 0.92496 0.75197 0.0
N3085 N 0.67469 0.92868 0.72513 0.0
C3086 C 0.64175 0.9044 0.74987 0.0
C3087 C 0.65182 0.94756 0.74061 0.0
C3088 C 0.66079 0.90661 0.73617 0.0
C3089 C 0.67065 0.94902 0.72707 0.0
C3090 C 0.5901 0.91348 0.81736 0.0
C3091 C 0.58679 0.90444 0.85381 0.0
N3092 N 0.6082 0.90204 0.85271 0.0
C3093 C 0.61209 0.91093 0.81659 0.0
C3094 C 0.57736 0.91024 0.83613 0.0
C3095 C 0.62093 0.90515 0.83463 0.0
C3096 C 0.63607 0.97653 0.81789 0.0
N3097 N 0.64017 0.9693 0.79904 0.0
C3098 C 0.68561 0.99061 0.8052 0.0
C3099 C 0.66439 0.97655 0.79238 0.0
C3100 C 0.68188 0.99713 0.82518 0.0
C3101 C 0.65676 0.9905 0.8313 0.0
H3102 H 0.6166 0.97049 0.82285 0.0
H3103 H 0.66723 0.97046 0.77749 0.0
C3104 C 0.57755 0.85367 0.76166 0.0
N3105 N 0.57589 0.86473 0.77943 0.0
C3106 C 0.57382 0.82876 0.76174 0.0
C3107 C 0.56554 0.82645 0.79836 0.0
C3108 C 0.56942 0.85152 0.79755 0.0
C3109 C 0.56804 0.81488 0.7803 0.0
H3110 H 0.58235 0.86455 0.74743 0.0
H3111 H 0.56741 0.86038 0.81139 0.0
C3112 C 0.6078 0.98478 0.77119 0.0
N3113 N 0.63418 0.03443 0.7866 0.0
C3114 C 0.59778 0.99176 0.78786 0.0
C3115 C 0.63111 0.00306 0.76225 0.0
C3116 C 0.61144 0.01696 0.79544 0.0
C3117 C 0.64419 0.02806 0.7703 0.0
C3118 C 0.53626 0.8821 0.7564 0.0
C3119 C 0.52189 0.87199 0.73839 0.0
C3120 C 0.5252 0.87147 0.77549 0.0
C3121 C 0.49661 0.85136 0.73976 0.0
C3122 C 0.49986 0.85086 0.77621 0.0
N3123 N 0.48621 0.84132 0.75849 0.0
C3124 C 0.60261 0.91677 0.70947 0.0
C3125 C 0.60114 0.95569 0.70993 0.0
C3126 C 0.60514 0.91796 0.68809 0.0
N3127 N 0.60085 0.93555 0.71989 0.0
C3128 C 0.60303 0.95731 0.68845 0.0
C3129 C 0.60501 0.93823 0.67736 0.0
H3130 H 0.60169 0.90067 0.71779 0.0
H3131 H 0.59933 0.97012 0.71863 0.0
C3132 C 0.52288 0.92384 0.79946 0.0
N3133 N 0.5358 0.93051 0.78123 0.0
C3134 C 0.49943 0.92354 0.80141 0.0
C3135 C 0.5034 0.93727 0.76589 0.0
C3136 C 0.52668 0.93731 0.76465 0.0
C3137 C 0.48931 0.93016 0.7844 0.0
H3138 H 0.53053 0.91827 0.81233 0.0
H3139 H 0.53727 0.94215 0.75028 0.0
O3140 O 0.61829 0.92296 0.76516 0.0
O3141 O 0.58121 0.91964 0.80005 0.0
O3142 O 0.59505 0.96003 0.76393 0.0
O3143 O 0.56093 0.90247 0.75527 0.0
H3144 H 0.63095 0.88696 0.75882 0.0
H3145 H 0.64852 0.96369 0.74208 0.0
H3146 H 0.66454 0.89081 0.73436 0.0
H3147 H 0.68202 0.96632 0.71807 0.0
H3148 H 0.57711 0.90188 0.86843 0.0
H3149 H 0.62232 0.91338 0.80231 0.0
H3150 H 0.56039 0.91226 0.83702 0.0
H3151 H 0.63793 0.90314 0.83425 0.0
H3152 H 0.70454 0.99494 0.79993 0.0
H3153 H 0.65305 0.99532 0.84653 0.0
H3154 H 0.57628 0.82081 0.74749 0.0
H3155 H 0.5607 0.81628 0.81293 0.0
H3156 H 0.57982 0.97777 0.79501 0.0
H3157 H 0.63906 0.99796 0.7493 0.0
H3158 H 0.60401 0.02261 0.80841 0.0
H3159 H 0.66232 0.0424 0.7636 0.0
H3160 H 0.5302 0.88005 0.72351 0.0
H3161 H 0.536 0.87907 0.78961 0.0
H3162 H 0.48524 0.84334 0.72594 0.0
H3163 H 0.49105 0.84248 0.79087 0.0
H3164 H 0.60619 0.90269 0.67996 0.0
H3165 H 0.6027 0.97311 0.68057 0.0
H3166 H 0.48929 0.91806 0.81599 0.0
H3167 H 0.49614 0.94197 0.75225 0.0
loop_
_geom_bond_atom_site_label_1
_geom_bond_atom_site_label_2
_geom_bond_distance
_geom_bond_site_symmetry_2
_ccdc_geom_bond_type
Li0 N17 1.990 . S
Li0 O60 1.956 . S
Li0 O61 1.970 . S
Li0 O62 1.965 . S
Li1 N25 1.990 . S
Li1 O60 1.970 . S
Li1 O61 1.956 . S
Li1 O63 1.961 . S
Li2 N47 1.990 . S
Li2 O60 1.961 . S
Li2 O62 1.962 . S
Li2 O63 1.970 . S
Li3 N53 1.990 1_455 S
Li3 O61 1.961 . S
Li3 O62 1.975 . S
Li3 O63 1.956 . S
C4 C6 1.348 . S
C4 C7 1.356 . S
C4 O60 1.325 . S
N5 C8 1.314 . S
N5 C9 1.279 . S
C6 C4 1.348 . S
C6 C8 1.353 . S
C6 H64 0.929 . S
C7 C4 1.356 . S
C7 C9 1.358 . S
C7 H65 0.930 . S
C8 N5 1.314 . S
C8 C6 1.353 . S
C8 H66 0.930 . S
C9 N5 1.279 . S
C9 C7 1.358 . S
C9 H67 0.930 . S
C10 C13 1.348 . S
C10 C14 1.356 . S
C10 O61 1.325 . S
C11 N12 1.279 . S
C11 C14 1.358 . S
C11 H68 0.930 . S
N12 C11 1.279 . S
N12 C15 1.314 . S
C13 C10 1.348 . S
C13 C15 1.353 . S
C13 H69 0.929 . S
C14 C10 1.356 . S
C14 C11 1.358 . S
C14 H70 0.930 . S
C15 N12 1.314 . S
C15 C13 1.353 . S
C15 H71 0.930 . S
C16 N17 1.288 1_655 S
C16 C21 1.370 . S
C16 H22 0.940 . S
N17 Li0 1.990 . S
N17 C16 1.288 1_455 S
N17 C19 1.279 . S
C18 C19 1.358 . S
C18 C20 1.356 . S
C18 H72 0.930 . S
C19 N17 1.279 . S
C19 C18 1.358 . S
C19 H23 0.930 . S
C20 C18 1.356 . S
C20 C21 1.348 1_455 S
C21 C16 1.370 . S
C21 C20 1.348 1_655 S
C21 H73 0.929 . S
H22 C16 0.940 . S
H23 C19 0.930 . S
C24 N25 1.314 . S
C24 C26 1.353 . S
C24 H30 0.930 . S
N25 Li1 1.990 . S
N25 C24 1.314 . S
N25 C28 1.279 . S
C26 C24 1.353 . S
C26 C29 1.348 . S
C26 H74 0.929 . S
C27 C28 1.358 . S
C27 C29 1.356 . S
C27 H75 0.930 . S
C28 N25 1.279 . S
C28 C27 1.358 . S
C28 H31 0.930 . S
C29 C26 1.348 . S
C29 C27 1.356 . S
H30 C24 0.930 . S
H31 C28 0.930 . S
C32 C34 1.348 . S
C32 C35 1.356 . S
C32 O62 1.317 1_655 S
N33 C36 1.314 . S
N33 C37 1.279 . S
C34 C32 1.348 . S
C34 C36 1.353 . S
C34 H76 0.929 . S
C35 C32 1.356 . S
C35 C37 1.358 . S
C35 H77 0.930 . S
C36 N33 1.314 . S
C36 C34 1.353 . S
C36 H78 0.930 . S
C37 N33 1.279 . S
C37 C35 1.358 . S
C37 H79 0.930 . S
C38 C39 1.348 . S
C38 C40 1.356 . S
C38 O63 1.325 . S
C39 C38 1.348 . S
C39 C41 1.353 . S
C39 H80 0.929 . S
C40 C38 1.356 . S
C40 C42 1.358 . S
C40 H81 0.930 . S
C41 C39 1.353 . S
C41 N43 1.314 . S
C41 H82 0.930 . S
C42 C40 1.358 . S
C42 N43 1.279 . S
C42 H83 0.930 . S
N43 C41 1.314 . S
N43 C42 1.279 . S
C44 C46 1.353 . S
C44 N47 1.314 . S
C44 H50 0.930 . S
C45 N47 1.279 . S
C45 C48 1.358 . S
C45 H51 0.930 1_455 S
C46 C44 1.353 . S
C46 C49 1.348 . S
C46 H84 0.929 . S
N47 Li2 1.990 . S
N47 C44 1.314 . S
N47 C45 1.279 . S
C48 C45 1.358 . S
C48 C49 1.356 . S
C48 H85 0.930 1_455 S
C49 C46 1.348 . S
C49 C48 1.356 . S
H50 C44 0.930 . S
H51 C45 0.930 1_655 S
C52 N53 1.314 . S
C52 C54 1.353 . S
C52 H58 0.930 . S
N53 Li3 1.990 1_655 S
N53 C52 1.314 . S
N53 C56 1.279 . S
C54 C52 1.353 . S
C54 C57 1.348 . S
C54 H86 0.929 . S
C55 C56 1.358 . S
C55 C57 1.356 . S
C55 H87 0.930 . S
C56 N53 1.279 . S
C56 C55 1.358 . S
C56 H59 0.930 . S
C57 C54 1.348 . S
C57 C55 1.356 . S
H58 C52 0.930 . S
H59 C56 0.930 . S
O60 Li0 1.956 . S
O60 Li1 1.970 . S
O60 Li2 1.961 . S
O60 C4 1.325 . S
O61 Li0 1.970 . S
O61 Li1 1.956 . S
O61 Li3 1.961 . S
O61 C10 1.325 . S
O62 Li0 1.965 . S
O62 Li2 1.962 . S
O62 Li3 1.975 . S
O62 C32 1.317 1_455 S
O63 Li1 1.961 . S
O63 Li2 1.970 . S
O63 Li3 1.956 . S
O63 C38 1.325 . S
H64 C6 0.929 . S
H65 C7 0.930 . S
H66 C8 0.930 . S
H67 C9 0.930 . S
H68 C11 0.930 . S
H69 C13 0.929 . S
H70 C14 0.930 . S
H71 C15 0.930 . S
H72 C18 0.930 . S
H73 C21 0.929 . S
H74 C26 0.929 . S
H75 C27 0.930 . S
H76 C34 0.929 . S
H77 C35 0.930 . S
H78 C36 0.930 . S
H79 C37 0.930 . S
H80 C39 0.929 . S
H81 C40 0.930 . S
H82 C41 0.930 . S
H83 C42 0.930 . S
H84 C46 0.929 . S
H85 C48 0.930 1_655 S
H86 C54 0.929 . S
H87 C55 0.930 . S
Li88 N105 1.990 . S
Li88 O148 1.956 . S
Li88 O149 1.970 . S
Li88 O150 1.961 . S
Li89 N113 1.990 . S
Li89 O148 1.970 . S
Li89 O149 1.956 . S
Li89 O151 1.961 . S
Li90 N135 1.990 . S
Li90 O148 1.961 . S
Li90 O150 1.956 . S
Li90 O151 1.970 . S
Li91 N141 1.990 . S
Li91 O149 1.961 . S
Li91 O150 1.970 . S
Li91 O151 1.956 . S
C92 C94 1.348 . S
C92 C95 1.356 . S
C92 O148 1.325 . S
N93 C96 1.314 . S
N93 C97 1.279 . S
C94 C92 1.348 . S
C94 C96 1.353 . S
C94 H152 0.929 . S
C95 C92 1.356 . S
C95 C97 1.358 . S
C95 H153 0.930 . S
C96 N93 1.314 . S
C96 C94 1.353 . S
C96 H154 0.930 . S
C97 N93 1.279 . S
C97 C95 1.358 . S
C97 H155 0.930 . S
C98 C101 1.348 . S
C98 C102 1.356 . S
C98 O149 1.325 . S
C99 N100 1.279 . S
C99 C102 1.358 . S
C99 H156 0.930 . S
N100 C99 1.279 . S
N100 C103 1.314 . S
C101 C98 1.348 . S
C101 C103 1.353 . S
C101 H157 0.929 . S
C102 C98 1.356 . S
C102 C99 1.358 . S
C102 H158 0.930 . S
C103 N100 1.314 . S
C103 C101 1.353 . S
C103 H159 0.930 . S
C104 N105 1.314 . S
C104 C109 1.353 . S
C104 H110 0.930 . S
N105 Li88 1.990 . S
N105 C104 1.314 . S
N105 C107 1.279 . S
C106 C107 1.358 . S
C106 C108 1.356 . S
C106 H160 0.930 . S
C107 N105 1.279 . S
C107 C106 1.358 . S
C107 H111 0.930 . S
C108 C106 1.356 . S
C108 C109 1.348 . S
C109 C104 1.353 . S
C109 C108 1.348 . S
C109 H161 0.929 . S
H110 C104 0.930 . S
H111 C107 0.930 . S
C112 N113 1.314 . S
C112 C114 1.353 . S
C112 H118 0.930 . S
N113 Li89 1.990 . S
N113 C112 1.314 . S
N113 C116 1.279 . S
C114 C112 1.353 . S
C114 C117 1.348 . S
C114 H162 0.929 . S
C115 C116 1.358 . S
C115 C117 1.356 . S
C115 H163 0.930 . S
C116 N113 1.279 . S
C116 C115 1.358 . S
C116 H119 0.930 . S
C117 C114 1.348 . S
C117 C115 1.356 . S
H118 C112 0.930 . S
H119 C116 0.930 . S
C120 C122 1.348 . S
C120 C123 1.356 . S
C120 O150 1.325 . S
N121 C124 1.314 . S
N121 C125 1.279 . S
C122 C120 1.348 . S
C122 C124 1.353 . S
C122 H164 0.929 . S
C123 C120 1.356 . S
C123 C125 1.358 . S
C123 H165 0.930 . S
C124 N121 1.314 . S
C124 C122 1.353 . S
C124 H166 0.930 . S
C125 N121 1.279 . S
C125 C123 1.358 . S
C125 H167 0.930 . S
C126 C127 1.348 . S
C126 C128 1.356 . S
C126 O151 1.325 . S
C127 C126 1.348 . S
C127 C129 1.353 . S
C127 H168 0.929 . S
C128 C126 1.356 . S
C128 C130 1.358 . S
C128 H169 0.930 . S
C129 C127 1.353 . S
C129 N131 1.314 . S
C129 H170 0.930 . S
C130 C128 1.358 . S
C130 N131 1.279 . S
C130 H171 0.930 . S
N131 C129 1.314 . S
N131 C130 1.279 . S
C132 C134 1.353 . S
C132 N135 1.314 . S
C132 H138 0.930 . S
C133 N135 1.279 . S
C133 C136 1.358 . S
C133 H139 0.930 . S
C134 C132 1.353 . S
C134 C137 1.348 . S
C134 H172 0.929 . S
N135 Li90 1.990 . S
N135 C132 1.314 . S
N135 C133 1.279 . S
C136 C133 1.358 . S
C136 C137 1.356 . S
C136 H173 0.930 . S
C137 C134 1.348 . S
C137 C136 1.356 . S
H138 C132 0.930 . S
H139 C133 0.930 . S
C140 N141 1.314 . S
C140 C142 1.353 . S
C140 H146 0.930 . S
N141 Li91 1.990 . S
N141 C140 1.314 . S
N141 C144 1.279 . S
C142 C140 1.353 . S
C142 C145 1.348 . S
C142 H174 0.929 . S
C143 C144 1.358 . S
C143 C145 1.356 . S
C143 H175 0.930 . S
C144 N141 1.279 . S
C144 C143 1.358 . S
C144 H147 0.930 . S
C145 C142 1.348 . S
C145 C143 1.356 . S
H146 C140 0.930 . S
H147 C144 0.930 . S
O148 Li88 1.956 . S
O148 Li89 1.970 . S
O148 Li90 1.961 . S
O148 C92 1.325 . S
O149 Li88 1.970 . S
O149 Li89 1.956 . S
O149 Li91 1.961 . S
O149 C98 1.325 . S
O150 Li88 1.961 . S
O150 Li90 1.956 . S
O150 Li91 1.970 . S
O150 C120 1.325 . S
O151 Li89 1.961 . S
O151 Li90 1.970 . S
O151 Li91 1.956 . S
O151 C126 1.325 . S
H152 C94 0.929 . S
H153 C95 0.930 . S
H154 C96 0.930 . S
H155 C97 0.930 . S
H156 C99 0.930 . S
H157 C101 0.929 . S
H158 C102 0.930 . S
H159 C103 0.930 . S
H160 C106 0.930 . S
H161 C109 0.929 . S
H162 C114 0.929 . S
H163 C115 0.930 . S
H164 C122 0.929 . S
H165 C123 0.930 . S
H166 C124 0.930 . S
H167 C125 0.930 . S
H168 C127 0.929 . S
H169 C128 0.930 . S
H170 C129 0.930 . S
H171 C130 0.930 . S
H172 C134 0.929 . S
H173 C136 0.930 . S
H174 C142 0.929 . S
H175 C143 0.930 . S
Li176 N193 1.990 . S
Li176 O236 1.956 1_565 S
Li176 O237 1.970 . S
Li176 O238 1.961 1_565 S
Li177 N201 1.990 . S
Li177 O236 1.970 . S
Li177 O237 1.956 1_545 S
Li177 O239 1.961 . S
Li178 N223 1.990 . S
Li178 O236 1.961 . S
Li178 O238 1.956 . S
Li178 O239 1.970 . S
Li179 N229 1.990 . S
Li179 O237 1.961 1_545 S
Li179 O238 1.970 . S
Li179 O239 1.956 . S
C180 C182 1.348 . S
C180 C183 1.356 . S
C180 O236 1.325 . S
N181 C184 1.314 . S
N181 C185 1.279 . S
C182 C180 1.348 . S
C182 C184 1.353 . S
C182 H240 0.929 . S
C183 C180 1.356 . S
C183 C185 1.358 . S
C183 H241 0.930 . S
C184 N181 1.314 . S
C184 C182 1.353 . S
C184 H242 0.930 . S
C185 N181 1.279 . S
C185 C183 1.358 . S
C185 H243 0.930 . S
C186 C189 1.348 . S
C186 C190 1.356 . S
C186 O237 1.325 . S
C187 N188 1.279 . S
C187 C190 1.358 . S
C187 H244 0.930 . S
N188 C187 1.279 . S
N188 C191 1.314 . S
C189 C186 1.348 . S
C189 C191 1.353 . S
C189 H245 0.929 . S
C190 C186 1.356 . S
C190 C187 1.358 . S
C190 H246 0.930 . S
C191 N188 1.314 . S
C191 C189 1.353 . S
C191 H247 0.930 . S
C192 N193 1.314 . S
C192 C197 1.353 . S
C192 H198 0.930 . S
N193 Li176 1.990 . S
N193 C192 1.314 . S
N193 C195 1.279 . S
C194 C195 1.358 . S
C194 C196 1.356 . S
C194 H248 0.930 . S
C195 N193 1.279 . S
C195 C194 1.358 . S
C195 H199 0.930 . S
C196 C194 1.356 . S
C196 C197 1.348 . S
C197 C192 1.353 . S
C197 C196 1.348 . S
C197 H249 0.929 . S
H198 C192 0.930 . S
H199 C195 0.930 . S
C200 N201 1.314 . S
C200 C202 1.353 . S
C200 H206 0.930 . S
N201 Li177 1.990 . S
N201 C200 1.314 . S
N201 C204 1.279 . S
C202 C200 1.353 . S
C202 C205 1.348 . S
C202 H250 0.929 . S
C203 C204 1.358 . S
C203 C205 1.356 . S
C203 H251 0.930 . S
C204 N201 1.279 . S
C204 C203 1.358 . S
C204 H207 0.930 1_545 S
C205 C202 1.348 . S
C205 C203 1.356 . S
H206 C200 0.930 . S
H207 C204 0.930 1_565 S
C208 C210 1.348 . S
C208 C211 1.356 . S
C208 O238 1.325 . S
N209 C212 1.314 . S
N209 C213 1.279 . S
C210 C208 1.348 . S
C210 C212 1.353 . S
C210 H252 0.929 . S
C211 C208 1.356 . S
C211 C213 1.358 . S
C211 H253 0.930 . S
C212 N209 1.314 . S
C212 C210 1.353 . S
C212 H254 0.930 . S
C213 N209 1.279 . S
C213 C211 1.358 . S
C213 H255 0.939 1_545 S
C214 C215 1.348 . S
C214 C216 1.356 . S
C214 O239 1.325 . S
C215 C214 1.348 . S
C215 C217 1.353 . S
C215 H256 0.929 . S
C216 C214 1.356 . S
C216 C218 1.358 . S
C216 H257 0.930 . S
C217 C215 1.353 . S
C217 N219 1.314 . S
C217 H258 0.930 . S
C218 C216 1.358 . S
C218 N219 1.279 . S
C218 H259 0.930 . S
N219 C217 1.314 . S
N219 C218 1.279 . S
C220 C222 1.353 . S
C220 N223 1.314 . S
C220 H226 0.930 . S
C221 N223 1.279 . S
C221 C224 1.358 . S
C221 H227 0.930 . S
C222 C220 1.353 . S
C222 C225 1.348 . S
C222 H260 0.929 . S
N223 Li178 1.990 . S
N223 C220 1.314 . S
N223 C221 1.279 . S
C224 C221 1.358 . S
C224 C225 1.356 . S
C224 H261 0.930 . S
C225 C222 1.348 . S
C225 C224 1.356 . S
H226 C220 0.930 . S
H227 C221 0.930 . S
C228 N229 1.314 1_565 S
C228 C230 1.353 . S
C228 H234 0.930 . S
N229 Li179 1.990 . S
N229 C228 1.314 1_545 S
N229 C232 1.279 . S
C230 C228 1.353 . S
C230 C233 1.348 1_565 S
C230 H262 0.929 . S
C231 C232 1.358 . S
C231 C233 1.356 . S
C231 H263 0.930 . S
C232 N229 1.279 . S
C232 C231 1.358 . S
C232 H235 0.930 . S
C233 C230 1.348 1_545 S
C233 C231 1.356 . S
H234 C228 0.930 . S
H235 C232 0.930 . S
O236 Li176 1.956 1_545 S
O236 Li177 1.970 . S
O236 Li178 1.961 . S
O236 C180 1.325 . S
O237 Li176 1.970 . S
O237 Li177 1.956 1_565 S
O237 Li179 1.961 1_565 S
O237 C186 1.325 . S
O238 Li176 1.961 1_545 S
O238 Li178 1.956 . S
O238 Li179 1.970 . S
O238 C208 1.325 . S
O239 Li177 1.961 . S
O239 Li178 1.970 . S
O239 Li179 1.956 . S
O239 C214 1.325 . S
H240 C182 0.929 . S
H241 C183 0.930 . S
H242 C184 0.930 . S
H243 C185 0.930 . S
H244 C187 0.930 . S
H245 C189 0.929 . S
H246 C190 0.930 . S
H247 C191 0.930 . S
H248 C194 0.930 . S
H249 C197 0.929 . S
H250 C202 0.929 . S
H251 C203 0.930 . S
H252 C210 0.929 . S
H253 C211 0.930 . S
H254 C212 0.930 . S
H255 C213 0.939 1_565 S
H256 C215 0.929 . S
H257 C216 0.930 . S
H258 C217 0.930 . S
H259 C218 0.930 . S
H260 C222 0.929 . S
H261 C224 0.930 . S
H262 C230 0.929 . S
H263 C231 0.930 . S
Li264 N281 1.990 1_545 S
Li264 O324 1.956 . S
Li264 O325 1.975 . S
Li264 O326 1.961 . S
Li265 N289 1.990 . S
Li265 O324 1.970 . S
Li265 O325 1.962 . S
Li265 O327 1.961 . S
Li266 N311 1.990 . S
Li266 O324 1.961 . S
Li266 O326 1.956 . S
Li266 O327 1.970 . S
Li267 N317 1.990 . S
Li267 O325 1.965 . S
Li267 O326 1.970 . S
Li267 O327 1.956 . S
C268 C270 1.348 . S
C268 C271 1.356 . S
C268 O324 1.325 . S
N269 C272 1.314 . S
N269 C273 1.279 . S
C270 C268 1.348 . S
C270 C272 1.353 . S
C270 H328 0.929 . S
C271 C268 1.356 . S
C271 C273 1.358 . S
C271 H329 0.930 . S
C272 N269 1.314 . S
C272 C270 1.353 . S
C272 H330 0.930 . S
C273 N269 1.279 . S
C273 C271 1.358 . S
C273 H331 0.930 . S
C274 C277 1.348 . S
C274 C278 1.356 . S
C274 O325 1.317 1_565 S
C275 N276 1.279 . S
C275 C278 1.358 . S
C275 H332 0.930 . S
N276 C275 1.279 . S
N276 C279 1.314 . S
C277 C274 1.348 . S
C277 C279 1.353 . S
C277 H333 0.929 . S
C278 C274 1.356 . S
C278 C275 1.358 . S
C278 H334 0.930 . S
C279 N276 1.314 . S
C279 C277 1.353 . S
C279 H335 0.930 . S
C280 N281 1.314 . S
C280 C285 1.353 . S
C280 H286 0.930 . S
N281 Li264 1.990 1_565 S
N281 C280 1.314 . S
N281 C283 1.279 . S
C282 C283 1.358 . S
C282 C284 1.356 . S
C282 H336 0.930 . S
C283 N281 1.279 . S
C283 C282 1.358 . S
C283 H287 0.930 . S
C284 C282 1.356 . S
C284 C285 1.348 . S
C285 C280 1.353 . S
C285 C284 1.348 . S
C285 H337 0.929 . S
H286 C280 0.930 . S
H287 C283 0.930 . S
C288 N289 1.314 . S
C288 C290 1.353 . S
C288 H294 0.930 . S
N289 Li265 1.990 . S
N289 C288 1.314 . S
N289 C292 1.279 . S
C290 C288 1.353 . S
C290 C293 1.348 . S
C290 H338 0.929 . S
C291 C292 1.358 . S
C291 C293 1.356 . S
C291 H339 0.930 1_545 S
C292 N289 1.279 . S
C292 C291 1.358 . S
C292 H295 0.930 1_545 S
C293 C290 1.348 . S
C293 C291 1.356 . S
H294 C288 0.930 . S
H295 C292 0.930 1_565 S
C296 C298 1.348 . S
C296 C299 1.356 . S
C296 O326 1.325 . S
N297 C300 1.314 . S
N297 C301 1.279 . S
C298 C296 1.348 . S
C298 C300 1.353 . S
C298 H340 0.929 . S
C299 C296 1.356 . S
C299 C301 1.358 . S
C299 H341 0.930 . S
C300 N297 1.314 . S
C300 C298 1.353 . S
C300 H342 0.930 . S
C301 N297 1.279 . S
C301 C299 1.358 . S
C301 H343 0.930 . S
C302 C303 1.348 . S
C302 C304 1.356 . S
C302 O327 1.325 . S
C303 C302 1.348 . S
C303 C305 1.353 . S
C303 H344 0.929 . S
C304 C302 1.356 . S
C304 C306 1.358 . S
C304 H345 0.930 . S
C305 C303 1.353 . S
C305 N307 1.314 . S
C305 H346 0.930 . S
C306 C304 1.358 . S
C306 N307 1.279 . S
C306 H347 0.930 . S
N307 C305 1.314 . S
N307 C306 1.279 . S
C308 C310 1.353 . S
C308 N311 1.314 . S
C308 H314 0.930 . S
C309 N311 1.279 . S
C309 C312 1.358 . S
C309 H315 0.930 . S
C310 C308 1.353 . S
C310 C313 1.348 . S
C310 H348 0.929 . S
N311 Li266 1.990 . S
N311 C308 1.314 . S
N311 C309 1.279 . S
C312 C309 1.358 . S
C312 C313 1.356 . S
C312 H349 0.930 . S
C313 C310 1.348 . S
C313 C312 1.356 . S
H314 C308 0.930 . S
H315 C309 0.930 . S
C316 N317 1.288 1_565 S
C316 C318 1.370 . S
C316 H322 0.940 . S
N317 Li267 1.990 . S
N317 C316 1.288 1_545 S
N317 C320 1.279 . S
C318 C316 1.370 . S
C318 C321 1.348 1_565 S
C318 H350 0.929 . S
C319 C320 1.358 . S
C319 C321 1.356 . S
C319 H351 0.930 . S
C320 N317 1.279 . S
C320 C319 1.358 . S
C320 H323 0.930 . S
C321 C318 1.348 1_545 S
C321 C319 1.356 . S
H322 C316 0.940 . S
H323 C320 0.930 . S
O324 Li264 1.956 . S
O324 Li265 1.970 . S
O324 Li266 1.961 . S
O324 C268 1.325 . S
O325 Li264 1.975 . S
O325 Li265 1.962 . S
O325 Li267 1.965 . S
O325 C274 1.317 1_545 S
O326 Li264 1.961 . S
O326 Li266 1.956 . S
O326 Li267 1.970 . S
O326 C296 1.325 . S
O327 Li265 1.961 . S
O327 Li266 1.970 . S
O327 Li267 1.956 . S
O327 C302 1.325 . S
H328 C270 0.929 . S
H329 C271 0.930 . S
H330 C272 0.930 . S
H331 C273 0.930 . S
H332 C275 0.930 . S
H333 C277 0.929 . S
H334 C278 0.930 . S
H335 C279 0.930 . S
H336 C282 0.930 . S
H337 C285 0.929 . S
H338 C290 0.929 . S
H339 C291 0.930 1_565 S
H340 C298 0.929 . S
H341 C299 0.930 . S
H342 C300 0.930 . S
H343 C301 0.930 . S
H344 C303 0.929 . S
H345 C304 0.930 . S
H346 C305 0.930 . S
H347 C306 0.930 . S
H348 C310 0.929 . S
H349 C312 0.930 . S
H350 C318 0.929 . S
H351 C319 0.930 . S
Li352 N369 1.990 . S
Li352 O412 1.956 . S
Li352 O413 1.970 . S
Li352 O414 1.961 1_455 S
Li353 N377 1.990 . S
Li353 O412 1.970 . S
Li353 O413 1.956 . S
Li353 O415 1.961 . S
Li354 N399 1.990 . S
Li354 O412 1.961 . S
Li354 O414 1.956 1_455 S
Li354 O415 1.970 . S
Li355 N405 1.990 . S
Li355 O413 1.961 1_655 S
Li355 O414 1.970 . S
Li355 O415 1.956 1_655 S
C356 C358 1.348 . S
C356 C359 1.356 . S
C356 O412 1.325 . S
N357 C360 1.314 . S
N357 C361 1.279 . S
C358 C356 1.348 . S
C358 C360 1.353 . S
C358 H416 0.929 . S
C359 C356 1.356 . S
C359 C361 1.358 . S
C359 H417 0.930 . S
C360 N357 1.314 . S
C360 C358 1.353 . S
C360 H418 0.930 . S
C361 N357 1.279 . S
C361 C359 1.358 . S
C361 H419 0.930 . S
C362 C365 1.348 . S
C362 C366 1.356 . S
C362 O413 1.325 . S
C363 N364 1.279 . S
C363 C366 1.358 . S
C363 H420 0.939 1_455 S
N364 C363 1.279 . S
N364 C367 1.314 . S
C365 C362 1.348 . S
C365 C367 1.353 . S
C365 H421 0.929 . S
C366 C362 1.356 . S
C366 C363 1.358 . S
C366 H422 0.930 . S
C367 N364 1.314 . S
C367 C365 1.353 . S
C367 H423 0.930 . S
C368 N369 1.314 1_655 S
C368 C373 1.353 . S
C368 H374 0.930 . S
N369 Li352 1.990 . S
N369 C368 1.314 1_455 S
N369 C371 1.279 . S
C370 C371 1.358 . S
C370 C372 1.356 . S
C370 H424 0.930 . S
C371 N369 1.279 . S
C371 C370 1.358 . S
C371 H375 0.930 . S
C372 C370 1.356 . S
C372 C373 1.348 1_455 S
C373 C368 1.353 . S
C373 C372 1.348 1_655 S
C373 H425 0.929 . S
H374 C368 0.930 . S
H375 C371 0.930 . S
C376 N377 1.314 . S
C376 C378 1.353 . S
C376 H382 0.930 . S
N377 Li353 1.990 . S
N377 C376 1.314 . S
N377 C380 1.279 . S
C378 C376 1.353 . S
C378 C381 1.348 . S
C378 H426 0.929 . S
C379 C380 1.358 . S
C379 C381 1.356 . S
C379 H427 0.930 . S
C380 N377 1.279 . S
C380 C379 1.358 . S
C380 H383 0.930 . S
C381 C378 1.348 . S
C381 C379 1.356 . S
H382 C376 0.930 . S
H383 C380 0.930 . S
C384 C386 1.348 . S
C384 C387 1.356 . S
C384 O414 1.325 . S
N385 C388 1.314 . S
N385 C389 1.279 . S
C386 C384 1.348 . S
C386 C388 1.353 . S
C386 H428 0.929 . S
C387 C384 1.356 . S
C387 C389 1.358 . S
C387 H429 0.930 . S
C388 N385 1.314 . S
C388 C386 1.353 . S
C388 H430 0.930 . S
C389 N385 1.279 . S
C389 C387 1.358 . S
C389 H431 0.930 . S
C390 C391 1.348 . S
C390 C392 1.356 . S
C390 O415 1.325 . S
C391 C390 1.348 . S
C391 C393 1.353 . S
C391 H432 0.929 . S
C392 C390 1.356 . S
C392 C394 1.358 . S
C392 H433 0.930 . S
C393 C391 1.353 . S
C393 N395 1.314 . S
C393 H434 0.930 . S
C394 C392 1.358 . S
C394 N395 1.279 . S
C394 H435 0.930 . S
N395 C393 1.314 . S
N395 C394 1.279 . S
C396 C398 1.353 . S
C396 N399 1.314 . S
C396 H402 0.930 . S
C397 N399 1.279 . S
C397 C400 1.358 . S
C397 H403 0.930 1_455 S
C398 C396 1.353 . S
C398 C401 1.348 . S
C398 H436 0.929 . S
N399 Li354 1.990 . S
N399 C396 1.314 . S
N399 C397 1.279 . S
C400 C397 1.358 . S
C400 C401 1.356 . S
C400 H437 0.930 . S
C401 C398 1.348 . S
C401 C400 1.356 . S
H402 C396 0.930 . S
H403 C397 0.930 1_655 S
C404 N405 1.314 . S
C404 C406 1.353 . S
C404 H410 0.930 . S
N405 Li355 1.990 . S
N405 C404 1.314 . S
N405 C408 1.279 . S
C406 C404 1.353 . S
C406 C409 1.348 . S
C406 H438 0.929 . S
C407 C408 1.358 . S
C407 C409 1.356 . S
C407 H439 0.930 . S
C408 N405 1.279 . S
C408 C407 1.358 . S
C408 H411 0.930 . S
C409 C406 1.348 . S
C409 C407 1.356 . S
H410 C404 0.930 . S
H411 C408 0.930 . S
O412 Li352 1.956 . S
O412 Li353 1.970 . S
O412 Li354 1.961 . S
O412 C356 1.325 . S
O413 Li352 1.970 . S
O413 Li353 1.956 . S
O413 Li355 1.961 1_455 S
O413 C362 1.325 . S
O414 Li352 1.961 1_655 S
O414 Li354 1.956 1_655 S
O414 Li355 1.970 . S
O414 C384 1.325 . S
O415 Li353 1.961 . S
O415 Li354 1.970 . S
O415 Li355 1.956 1_455 S
O415 C390 1.325 . S
H416 C358 0.929 . S
H417 C359 0.930 . S
H418 C360 0.930 . S
H419 C361 0.930 . S
H420 C363 0.939 1_655 S
H421 C365 0.929 . S
H422 C366 0.930 . S
H423 C367 0.930 . S
H424 C370 0.930 . S
H425 C373 0.929 . S
H426 C378 0.929 . S
H427 C379 0.930 . S
H428 C386 0.929 . S
H429 C387 0.930 . S
H430 C388 0.930 . S
H431 C389 0.930 . S
H432 C391 0.929 . S
H433 C392 0.930 . S
H434 C393 0.930 . S
H435 C394 0.930 . S
H436 C398 0.929 . S
H437 C400 0.930 . S
H438 C406 0.929 . S
H439 C407 0.930 . S
Li440 N457 1.990 . S
Li440 O500 1.956 . S
Li440 O501 1.970 . S
Li440 O502 1.961 . S
Li441 N465 1.990 . S
Li441 O500 1.970 . S
Li441 O501 1.956 . S
Li441 O503 1.961 . S
Li442 N487 1.990 . S
Li442 O500 1.961 . S
Li442 O502 1.956 . S
Li442 O503 1.970 . S
Li443 N493 1.990 . S
Li443 O501 1.961 . S
Li443 O502 1.970 . S
Li443 O503 1.956 . S
C444 C446 1.348 . S
C444 C447 1.356 . S
C444 O500 1.325 . S
N445 C448 1.314 . S
N445 C449 1.279 . S
C446 C444 1.348 . S
C446 C448 1.353 . S
C446 H504 0.929 . S
C447 C444 1.356 . S
C447 C449 1.358 . S
C447 H505 0.930 . S
C448 N445 1.314 . S
C448 C446 1.353 . S
C448 H506 0.930 . S
C449 N445 1.279 . S
C449 C447 1.358 . S
C449 H507 0.930 . S
C450 C453 1.348 . S
C450 C454 1.356 . S
C450 O501 1.325 . S
C451 N452 1.279 . S
C451 C454 1.358 . S
C451 H508 0.930 . S
N452 C451 1.279 . S
N452 C455 1.314 . S
C453 C450 1.348 . S
C453 C455 1.353 . S
C453 H509 0.929 . S
C454 C450 1.356 . S
C454 C451 1.358 . S
C454 H510 0.930 . S
C455 N452 1.314 . S
C455 C453 1.353 . S
C455 H511 0.930 . S
C456 N457 1.314 . S
C456 C461 1.353 . S
C456 H462 0.930 . S
N457 Li440 1.990 . S
N457 C456 1.314 . S
N457 C459 1.279 . S
C458 C459 1.358 . S
C458 C460 1.356 . S
C458 H512 0.930 . S
C459 N457 1.279 . S
C459 C458 1.358 . S
C459 H463 0.930 . S
C460 C458 1.356 . S
C460 C461 1.348 . S
C461 C456 1.353 . S
C461 C460 1.348 . S
C461 H513 0.929 . S
H462 C456 0.930 . S
H463 C459 0.930 . S
C464 N465 1.314 . S
C464 C466 1.353 . S
C464 H470 0.930 . S
N465 Li441 1.990 . S
N465 C464 1.314 . S
N465 C468 1.279 . S
C466 C464 1.353 . S
C466 C469 1.348 . S
C466 H514 0.929 . S
C467 C468 1.358 . S
C467 C469 1.356 . S
C467 H515 0.930 . S
C468 N465 1.279 . S
C468 C467 1.358 . S
C468 H471 0.930 . S
C469 C466 1.348 . S
C469 C467 1.356 . S
H470 C464 0.930 . S
H471 C468 0.930 . S
C472 C474 1.348 . S
C472 C475 1.356 . S
C472 O502 1.325 . S
N473 C476 1.314 . S
N473 C477 1.279 . S
C474 C472 1.348 . S
C474 C476 1.353 . S
C474 H516 0.929 . S
C475 C472 1.356 . S
C475 C477 1.358 . S
C475 H517 0.930 . S
C476 N473 1.314 . S
C476 C474 1.353 . S
C476 H518 0.930 . S
C477 N473 1.279 . S
C477 C475 1.358 . S
C477 H519 0.930 . S
C478 C479 1.348 . S
C478 C480 1.356 . S
C478 O503 1.325 . S
C479 C478 1.348 . S
C479 C481 1.353 . S
C479 H520 0.929 . S
C480 C478 1.356 . S
C480 C482 1.358 . S
C480 H521 0.930 . S
C481 C479 1.353 . S
C481 N483 1.314 . S
C481 H522 0.930 . S
C482 C480 1.358 . S
C482 N483 1.279 . S
C482 H523 0.930 . S
N483 C481 1.314 . S
N483 C482 1.279 . S
C484 C486 1.353 . S
C484 N487 1.314 . S
C484 H490 0.930 . S
C485 N487 1.279 . S
C485 C488 1.358 . S
C485 H491 0.930 . S
C486 C484 1.353 . S
C486 C489 1.348 . S
C486 H524 0.929 . S
N487 Li442 1.990 . S
N487 C484 1.314 . S
N487 C485 1.279 . S
C488 C485 1.358 . S
C488 C489 1.356 . S
C488 H525 0.930 . S
C489 C486 1.348 . S
C489 C488 1.356 . S
H490 C484 0.930 . S
H491 C485 0.930 . S
C492 N493 1.314 . S
C492 C494 1.353 . S
C492 H498 0.930 . S
N493 Li443 1.990 . S
N493 C492 1.314 . S
N493 C496 1.279 . S
C494 C492 1.353 . S
C494 C497 1.348 . S
C494 H526 0.929 . S
C495 C496 1.358 . S
C495 C497 1.356 . S
C495 H527 0.930 . S
C496 N493 1.279 . S
C496 C495 1.358 . S
C496 H499 0.930 . S
C497 C494 1.348 . S
C497 C495 1.356 . S
H498 C492 0.930 . S
H499 C496 0.930 . S
O500 Li440 1.956 . S
O500 Li441 1.970 . S
O500 Li442 1.961 . S
O500 C444 1.325 . S
O501 Li440 1.970 . S
O501 Li441 1.956 . S
O501 Li443 1.961 . S
O501 C450 1.325 . S
O502 Li440 1.961 . S
O502 Li442 1.956 . S
O502 Li443 1.970 . S
O502 C472 1.325 . S
O503 Li441 1.961 . S
O503 Li442 1.970 . S
O503 Li443 1.956 . S
O503 C478 1.325 . S
H504 C446 0.929 . S
H505 C447 0.930 . S
H506 C448 0.930 . S
H507 C449 0.930 . S
H508 C451 0.930 . S
H509 C453 0.929 . S
H510 C454 0.930 . S
H511 C455 0.930 . S
H512 C458 0.930 . S
H513 C461 0.929 . S
H514 C466 0.929 . S
H515 C467 0.930 . S
H516 C474 0.929 . S
H517 C475 0.930 . S
H518 C476 0.930 . S
H519 C477 0.930 . S
H520 C479 0.929 . S
H521 C480 0.930 . S
H522 C481 0.930 . S
H523 C482 0.930 . S
H524 C486 0.929 . S
H525 C488 0.930 . S
H526 C494 0.929 . S
H527 C495 0.930 . S
Li528 N545 1.990 . S
Li528 O588 1.956 . S
Li528 O589 1.970 . S
Li528 O590 1.961 1_455 S
Li529 N553 1.990 . S
Li529 O588 1.970 . S
Li529 O589 1.956 . S
Li529 O591 1.961 . S
Li530 N575 1.990 . S
Li530 O588 1.961 . S
Li530 O590 1.956 1_455 S
Li530 O591 1.970 . S
Li531 N581 1.990 . S
Li531 O589 1.961 1_655 S
Li531 O590 1.970 . S
Li531 O591 1.956 1_655 S
C532 C534 1.348 . S
C532 C535 1.356 . S
C532 O588 1.325 . S
N533 C536 1.314 . S
N533 C537 1.279 . S
C534 C532 1.348 . S
C534 C536 1.353 . S
C534 H592 0.929 . S
C535 C532 1.356 . S
C535 C537 1.358 . S
C535 H593 0.930 . S
C536 N533 1.314 . S
C536 C534 1.353 . S
C536 H594 0.930 . S
C537 N533 1.279 . S
C537 C535 1.358 . S
C537 H595 0.930 . S
C538 C541 1.348 . S
C538 C542 1.356 . S
C538 O589 1.325 . S
C539 N540 1.279 . S
C539 C542 1.358 . S
C539 H596 0.930 . S
N540 C539 1.279 . S
N540 C543 1.314 . S
C541 C538 1.348 . S
C541 C543 1.353 . S
C541 H597 0.929 . S
C542 C538 1.356 . S
C542 C539 1.358 . S
C542 H598 0.930 . S
C543 N540 1.314 . S
C543 C541 1.353 . S
C543 H599 0.930 . S
C544 N545 1.314 . S
C544 C549 1.353 . S
C544 H550 0.930 1_455 S
N545 Li528 1.990 . S
N545 C544 1.314 . S
N545 C547 1.279 . S
C546 C547 1.358 . S
C546 C548 1.356 . S
C546 H600 0.930 . S
C547 N545 1.279 . S
C547 C546 1.358 . S
C547 H551 0.930 . S
C548 C546 1.356 . S
C548 C549 1.348 . S
C549 C544 1.353 . S
C549 C548 1.348 . S
C549 H601 0.939 . S
H550 C544 0.930 1_655 S
H551 C547 0.930 . S
C552 N553 1.314 . S
C552 C554 1.353 . S
C552 H558 0.930 . S
N553 Li529 1.990 . S
N553 C552 1.314 . S
N553 C556 1.279 . S
C554 C552 1.353 . S
C554 C557 1.348 . S
C554 H602 0.929 . S
C555 C556 1.358 . S
C555 C557 1.356 . S
C555 H603 0.930 . S
C556 N553 1.279 . S
C556 C555 1.358 . S
C556 H559 0.930 . S
C557 C554 1.348 . S
C557 C555 1.356 . S
H558 C552 0.930 . S
H559 C556 0.930 . S
C560 C562 1.348 . S
C560 C563 1.356 . S
C560 O590 1.325 . S
N561 C564 1.314 . S
N561 C565 1.279 . S
C562 C560 1.348 . S
C562 C564 1.353 . S
C562 H604 0.929 . S
C563 C560 1.356 . S
C563 C565 1.358 . S
C563 H605 0.930 . S
C564 N561 1.314 . S
C564 C562 1.353 . S
C564 H606 0.930 . S
C565 N561 1.279 . S
C565 C563 1.358 . S
C565 H607 0.930 . S
C566 C567 1.348 . S
C566 C568 1.356 . S
C566 O591 1.325 . S
C567 C566 1.348 . S
C567 C569 1.353 . S
C567 H608 0.924 . S
C568 C566 1.356 . S
C568 C570 1.358 . S
C568 H609 0.930 . S
C569 C567 1.353 . S
C569 N571 1.314 . S
C569 H610 0.930 1_455 S
C570 C568 1.358 . S
C570 N571 1.279 . S
C570 H611 0.930 . S
N571 C569 1.314 . S
N571 C570 1.279 . S
C572 C574 1.353 . S
C572 N575 1.314 . S
C572 H578 0.930 . S
C573 N575 1.279 1_655 S
C573 C576 1.358 . S
C573 H579 0.930 . S
C574 C572 1.353 . S
C574 C577 1.348 . S
C574 H612 0.929 . S
N575 Li530 1.990 . S
N575 C572 1.314 . S
N575 C573 1.279 1_455 S
C576 C573 1.358 . S
C576 C577 1.356 1_655 S
C576 H613 0.930 . S
C577 C574 1.348 . S
C577 C576 1.356 1_455 S
H578 C572 0.930 . S
H579 C573 0.930 . S
C580 N581 1.314 . S
C580 C582 1.353 . S
C580 H586 0.930 . S
N581 Li531 1.990 . S
N581 C580 1.314 . S
N581 C584 1.279 . S
C582 C580 1.353 . S
C582 C585 1.348 . S
C582 H614 0.929 . S
C583 C584 1.358 . S
C583 C585 1.356 . S
C583 H615 0.930 . S
C584 N581 1.279 . S
C584 C583 1.358 . S
C584 H587 0.930 . S
C585 C582 1.348 . S
C585 C583 1.356 . S
H586 C580 0.930 . S
H587 C584 0.930 . S
O588 Li528 1.956 . S
O588 Li529 1.970 . S
O588 Li530 1.961 . S
O588 C532 1.325 . S
O589 Li528 1.970 . S
O589 Li529 1.956 . S
O589 Li531 1.961 1_455 S
O589 C538 1.325 . S
O590 Li528 1.961 1_655 S
O590 Li530 1.956 1_655 S
O590 Li531 1.970 . S
O590 C560 1.325 . S
O591 Li529 1.961 . S
O591 Li530 1.970 . S
O591 Li531 1.956 1_455 S
O591 C566 1.325 . S
H592 C534 0.929 . S
H593 C535 0.930 . S
H594 C536 0.930 . S
H595 C537 0.930 . S
H596 C539 0.930 . S
H597 C541 0.929 . S
H598 C542 0.930 . S
H599 C543 0.930 . S
H600 C546 0.930 . S
H601 C549 0.939 . S
H602 C554 0.929 . S
H603 C555 0.930 . S
H604 C562 0.929 . S
H605 C563 0.930 . S
H606 C564 0.930 . S
H607 C565 0.930 . S
H608 C567 0.924 . S
H609 C568 0.930 . S
H610 C569 0.930 1_655 S
H611 C570 0.930 . S
H612 C574 0.929 . S
H613 C576 0.930 . S
H614 C582 0.929 . S
H615 C583 0.930 . S
Li616 N633 1.990 . S
Li616 O676 1.956 . S
Li616 O677 1.970 . S
Li616 O678 1.961 . S
Li617 N641 1.990 . S
Li617 O676 1.970 . S
Li617 O677 1.956 . S
Li617 O679 1.961 . S
Li618 N663 1.990 . S
Li618 O676 1.961 . S
Li618 O678 1.956 . S
Li618 O679 1.970 . S
Li619 N669 1.990 . S
Li619 O677 1.961 . S
Li619 O678 1.970 . S
Li619 O679 1.956 . S
C620 C622 1.348 . S
C620 C623 1.356 . S
C620 O676 1.325 . S
N621 C624 1.314 . S
N621 C625 1.279 . S
C622 C620 1.348 . S
C622 C624 1.353 . S
C622 H680 0.929 . S
C623 C620 1.356 . S
C623 C625 1.358 . S
C623 H681 0.930 . S
C624 N621 1.314 . S
C624 C622 1.353 . S
C624 H682 0.930 . S
C625 N621 1.279 . S
C625 C623 1.358 . S
C625 H683 0.930 . S
C626 C629 1.348 . S
C626 C630 1.356 . S
C626 O677 1.325 . S
C627 N628 1.279 . S
C627 C630 1.358 . S
C627 H684 0.930 . S
N628 C627 1.279 . S
N628 C631 1.314 . S
C629 C626 1.348 . S
C629 C631 1.353 . S
C629 H685 0.929 . S
C630 C626 1.356 . S
C630 C627 1.358 . S
C630 H686 0.930 . S
C631 N628 1.314 . S
C631 C629 1.353 . S
C631 H687 0.930 . S
C632 N633 1.314 . S
C632 C637 1.353 . S
C632 H638 0.930 . S
N633 Li616 1.990 . S
N633 C632 1.314 . S
N633 C635 1.279 . S
C634 C635 1.358 . S
C634 C636 1.356 . S
C634 H688 0.930 . S
C635 N633 1.279 . S
C635 C634 1.358 . S
C635 H639 0.930 . S
C636 C634 1.356 . S
C636 C637 1.348 . S
C637 C632 1.353 . S
C637 C636 1.348 . S
C637 H689 0.929 . S
H638 C632 0.930 . S
H639 C635 0.930 . S
C640 N641 1.314 . S
C640 C642 1.353 . S
C640 H646 0.930 . S
N641 Li617 1.990 . S
N641 C640 1.314 . S
N641 C644 1.279 . S
C642 C640 1.353 . S
C642 C645 1.348 . S
C642 H690 0.929 . S
C643 C644 1.358 . S
C643 C645 1.356 . S
C643 H691 0.930 . S
C644 N641 1.279 . S
C644 C643 1.358 . S
C644 H647 0.930 . S
C645 C642 1.348 . S
C645 C643 1.356 . S
H646 C640 0.930 . S
H647 C644 0.930 . S
C648 C650 1.348 . S
C648 C651 1.356 . S
C648 O678 1.325 . S
N649 C652 1.314 . S
N649 C653 1.279 . S
C650 C648 1.348 . S
C650 C652 1.353 . S
C650 H692 0.929 . S
C651 C648 1.356 . S
C651 C653 1.358 . S
C651 H693 0.930 . S
C652 N649 1.314 . S
C652 C650 1.353 . S
C652 H694 0.930 . S
C653 N649 1.279 . S
C653 C651 1.358 . S
C653 H695 0.930 . S
C654 C655 1.348 . S
C654 C656 1.356 . S
C654 O679 1.325 . S
C655 C654 1.348 . S
C655 C657 1.353 . S
C655 H696 0.929 . S
C656 C654 1.356 . S
C656 C658 1.358 . S
C656 H697 0.930 . S
C657 C655 1.353 . S
C657 N659 1.314 . S
C657 H698 0.930 . S
C658 C656 1.358 . S
C658 N659 1.279 . S
C658 H699 0.930 . S
N659 C657 1.314 . S
N659 C658 1.279 . S
C660 C662 1.353 . S
C660 N663 1.314 . S
C660 H666 0.930 . S
C661 N663 1.279 . S
C661 C664 1.358 . S
C661 H667 0.930 . S
C662 C660 1.353 . S
C662 C665 1.348 . S
C662 H700 0.929 . S
N663 Li618 1.990 . S
N663 C660 1.314 . S
N663 C661 1.279 . S
C664 C661 1.358 . S
C664 C665 1.356 . S
C664 H701 0.930 . S
C665 C662 1.348 . S
C665 C664 1.356 . S
H666 C660 0.930 . S
H667 C661 0.930 . S
C668 N669 1.314 . S
C668 C670 1.353 . S
C668 H674 0.930 . S
N669 Li619 1.990 . S
N669 C668 1.314 . S
N669 C672 1.279 . S
C670 C668 1.353 . S
C670 C673 1.348 . S
C670 H702 0.929 . S
C671 C672 1.358 . S
C671 C673 1.356 . S
C671 H703 0.930 . S
C672 N669 1.279 . S
C672 C671 1.358 . S
C672 H675 0.930 . S
C673 C670 1.348 . S
C673 C671 1.356 . S
H674 C668 0.930 . S
H675 C672 0.930 . S
O676 Li616 1.956 . S
O676 Li617 1.970 . S
O676 Li618 1.961 . S
O676 C620 1.325 . S
O677 Li616 1.970 . S
O677 Li617 1.956 . S
O677 Li619 1.961 . S
O677 C626 1.325 . S
O678 Li616 1.961 . S
O678 Li618 1.956 . S
O678 Li619 1.970 . S
O678 C648 1.325 . S
O679 Li617 1.961 . S
O679 Li618 1.970 . S
O679 Li619 1.956 . S
O679 C654 1.325 . S
H680 C622 0.929 . S
H681 C623 0.930 . S
H682 C624 0.930 . S
H683 C625 0.930 . S
H684 C627 0.930 . S
H685 C629 0.929 . S
H686 C630 0.930 . S
H687 C631 0.930 . S
H688 C634 0.930 . S
H689 C637 0.929 . S
H690 C642 0.929 . S
H691 C643 0.930 . S
H692 C650 0.929 . S
H693 C651 0.930 . S
H694 C652 0.930 . S
H695 C653 0.930 . S
H696 C655 0.929 . S
H697 C656 0.930 . S
H698 C657 0.930 . S
H699 C658 0.930 . S
H700 C662 0.929 . S
H701 C664 0.930 . S
H702 C670 0.929 . S
H703 C671 0.930 . S
Li704 N721 1.990 . S
Li704 O764 1.956 . S
Li704 O765 1.970 . S
Li704 O766 1.961 . S
Li705 N729 1.990 . S
Li705 O764 1.970 . S
Li705 O765 1.956 . S
Li705 O767 1.982 . S
Li706 N751 1.990 1_545 S
Li706 O764 1.961 . S
Li706 O766 1.956 . S
Li706 O767 1.960 . S
Li707 N757 1.990 . S
Li707 O765 1.961 . S
Li707 O766 1.970 . S
Li707 O767 1.980 . S
C708 C710 1.348 . S
C708 C711 1.356 . S
C708 O764 1.325 . S
N709 C712 1.314 . S
N709 C713 1.279 . S
C710 C708 1.348 . S
C710 C712 1.353 . S
C710 H768 0.929 . S
C711 C708 1.356 . S
C711 C713 1.358 . S
C711 H769 0.930 . S
C712 N709 1.314 . S
C712 C710 1.353 . S
C712 H770 0.930 . S
C713 N709 1.279 . S
C713 C711 1.358 . S
C713 H771 0.930 . S
C714 C717 1.348 . S
C714 C718 1.356 . S
C714 O765 1.325 . S
C715 N716 1.279 . S
C715 C718 1.358 . S
C715 H772 0.930 . S
N716 C715 1.279 . S
N716 C719 1.314 . S
C717 C714 1.348 . S
C717 C719 1.353 . S
C717 H773 0.929 . S
C718 C714 1.356 . S
C718 C715 1.358 . S
C718 H774 0.930 . S
C719 N716 1.314 . S
C719 C717 1.353 . S
C719 H775 0.930 . S
C720 N721 1.314 . S
C720 C725 1.353 . S
C720 H726 0.930 . S
N721 Li704 1.990 . S
N721 C720 1.314 . S
N721 C723 1.279 . S
C722 C723 1.358 . S
C722 C724 1.356 . S
C722 H776 0.930 . S
C723 N721 1.279 . S
C723 C722 1.358 . S
C723 H727 0.930 . S
C724 C722 1.356 . S
C724 C725 1.348 . S
C725 C720 1.353 . S
C725 C724 1.348 . S
C725 H777 0.929 . S
H726 C720 0.930 . S
H727 C723 0.930 . S
C728 N729 1.314 . S
C728 C730 1.353 . S
C728 H734 0.914 1_545 S
N729 Li705 1.990 . S
N729 C728 1.314 . S
N729 C732 1.279 . S
C730 C728 1.353 . S
C730 C733 1.348 . S
C730 H778 0.929 1_545 S
C731 C732 1.358 . S
C731 C733 1.356 . S
C731 H779 0.930 . S
C732 N729 1.279 . S
C732 C731 1.358 . S
C732 H735 0.930 . S
C733 C730 1.348 . S
C733 C731 1.356 . S
H734 C728 0.914 1_565 S
H735 C732 0.930 . S
C736 C738 1.348 . S
C736 C739 1.356 . S
C736 O766 1.325 . S
N737 C740 1.314 . S
N737 C741 1.279 . S
C738 C736 1.348 . S
C738 C740 1.353 . S
C738 H780 0.929 . S
C739 C736 1.356 . S
C739 C741 1.358 . S
C739 H781 0.930 . S
C740 N737 1.314 . S
C740 C738 1.353 . S
C740 H782 0.930 . S
C741 N737 1.279 . S
C741 C739 1.358 . S
C741 H783 0.930 . S
C742 C743 1.348 . S
C742 C744 1.356 . S
C742 O767 1.309 1_565 S
C743 C742 1.348 . S
C743 C745 1.353 . S
C743 H784 0.929 . S
C744 C742 1.356 . S
C744 C746 1.358 . S
C744 H785 0.930 . S
C745 C743 1.353 . S
C745 N747 1.314 . S
C745 H786 0.930 . S
C746 C744 1.358 . S
C746 N747 1.279 . S
C746 H787 0.930 . S
N747 C745 1.314 . S
N747 C746 1.279 . S
C748 C750 1.353 . S
C748 N751 1.314 . S
C748 H754 0.930 . S
C749 N751 1.279 . S
C749 C752 1.358 . S
C749 H755 0.930 . S
C750 C748 1.353 . S
C750 C753 1.348 . S
C750 H788 0.929 . S
N751 Li706 1.990 1_565 S
N751 C748 1.314 . S
N751 C749 1.279 . S
C752 C749 1.358 . S
C752 C753 1.356 . S
C752 H789 0.930 . S
C753 C750 1.348 . S
C753 C752 1.356 . S
H754 C748 0.930 . S
H755 C749 0.930 . S
C756 N757 1.314 . S
C756 C758 1.353 . S
C756 H762 0.930 . S
N757 Li707 1.990 . S
N757 C756 1.314 . S
N757 C760 1.279 1_545 S
C758 C756 1.353 . S
C758 C761 1.348 . S
C758 H790 0.929 . S
C759 C760 1.358 . S
C759 C761 1.356 1_565 S
C759 H791 0.930 . S
C760 N757 1.279 1_565 S
C760 C759 1.358 . S
C760 H763 0.930 . S
C761 C758 1.348 . S
C761 C759 1.356 1_545 S
H762 C756 0.930 . S
H763 C760 0.930 . S
O764 Li704 1.956 . S
O764 Li705 1.970 . S
O764 Li706 1.961 . S
O764 C708 1.325 . S
O765 Li704 1.970 . S
O765 Li705 1.956 . S
O765 Li707 1.961 . S
O765 C714 1.325 . S
O766 Li704 1.961 . S
O766 Li706 1.956 . S
O766 Li707 1.970 . S
O766 C736 1.325 . S
O767 Li705 1.982 . S
O767 Li706 1.960 . S
O767 Li707 1.980 . S
O767 C742 1.309 1_545 S
H768 C710 0.929 . S
H769 C711 0.930 . S
H770 C712 0.930 . S
H771 C713 0.930 . S
H772 C715 0.930 . S
H773 C717 0.929 . S
H774 C718 0.930 . S
H775 C719 0.930 . S
H776 C722 0.930 . S
H777 C725 0.929 . S
H778 C730 0.929 1_565 S
H779 C731 0.930 . S
H780 C738 0.929 . S
H781 C739 0.930 . S
H782 C740 0.930 . S
H783 C741 0.930 . S
H784 C743 0.929 . S
H785 C744 0.930 . S
H786 C745 0.930 . S
H787 C746 0.930 . S
H788 C750 0.929 . S
H789 C752 0.930 . S
H790 C758 0.929 . S
H791 C759 0.930 . S
Li792 N809 1.990 . S
Li792 O852 1.956 . S
Li792 O853 1.970 . S
Li792 O854 1.961 . S
Li793 N817 1.990 . S
Li793 O852 1.970 . S
Li793 O853 1.956 . S
Li793 O855 1.961 1_545 S
Li794 N839 1.990 . S
Li794 O852 1.961 1_565 S
Li794 O854 1.956 1_565 S
Li794 O855 1.970 . S
Li795 N845 1.990 . S
Li795 O853 1.961 . S
Li795 O854 1.970 . S
Li795 O855 1.956 1_545 S
C796 C798 1.348 . S
C796 C799 1.356 . S
C796 O852 1.325 . S
N797 C800 1.314 . S
N797 C801 1.279 . S
C798 C796 1.348 . S
C798 C800 1.353 . S
C798 H856 0.929 . S
C799 C796 1.356 . S
C799 C801 1.358 . S
C799 H857 0.930 . S
C800 N797 1.314 . S
C800 C798 1.353 . S
C800 H858 0.930 . S
C801 N797 1.279 . S
C801 C799 1.358 . S
C801 H859 0.930 . S
C802 C805 1.348 . S
C802 C806 1.356 . S
C802 O853 1.325 . S
C803 N804 1.279 . S
C803 C806 1.358 . S
C803 H860 0.930 . S
N804 C803 1.279 . S
N804 C807 1.314 . S
C805 C802 1.348 . S
C805 C807 1.353 . S
C805 H861 0.929 . S
C806 C802 1.356 . S
C806 C803 1.358 . S
C806 H862 0.930 . S
C807 N804 1.314 . S
C807 C805 1.353 . S
C807 H863 0.930 . S
C808 N809 1.314 . S
C808 C813 1.353 . S
C808 H814 0.930 . S
N809 Li792 1.990 . S
N809 C808 1.314 . S
N809 C811 1.279 . S
C810 C811 1.358 . S
C810 C812 1.356 . S
C810 H864 0.930 . S
C811 N809 1.279 . S
C811 C810 1.358 . S
C811 H815 0.930 . S
C812 C810 1.356 . S
C812 C813 1.348 . S
C813 C808 1.353 . S
C813 C812 1.348 . S
C813 H865 0.929 . S
H814 C808 0.930 . S
H815 C811 0.930 . S
C816 N817 1.314 . S
C816 C818 1.353 . S
C816 H822 0.930 1_545 S
N817 Li793 1.990 . S
N817 C816 1.314 . S
N817 C820 1.279 . S
C818 C816 1.353 . S
C818 C821 1.348 . S
C818 H866 0.939 . S
C819 C820 1.358 . S
C819 C821 1.356 . S
C819 H867 0.930 . S
C820 N817 1.279 . S
C820 C819 1.358 . S
C820 H823 0.930 . S
C821 C818 1.348 . S
C821 C819 1.356 . S
H822 C816 0.930 1_565 S
H823 C820 0.930 . S
C824 C826 1.348 . S
C824 C827 1.356 . S
C824 O854 1.325 . S
N825 C828 1.314 . S
N825 C829 1.279 . S
C826 C824 1.348 . S
C826 C828 1.353 . S
C826 H868 0.924 . S
C827 C824 1.356 . S
C827 C829 1.358 . S
C827 H869 0.930 . S
C828 N825 1.314 . S
C828 C826 1.353 . S
C828 H870 0.930 1_545 S
C829 N825 1.279 . S
C829 C827 1.358 . S
C829 H871 0.930 . S
C830 C831 1.348 . S
C830 C832 1.356 . S
C830 O855 1.325 . S
C831 C830 1.348 . S
C831 C833 1.353 . S
C831 H872 0.929 . S
C832 C830 1.356 . S
C832 C834 1.358 . S
C832 H873 0.930 . S
C833 C831 1.353 . S
C833 N835 1.314 . S
C833 H874 0.930 . S
C834 C832 1.358 . S
C834 N835 1.279 . S
C834 H875 0.930 . S
N835 C833 1.314 . S
N835 C834 1.279 . S
C836 C838 1.353 . S
C836 N839 1.314 . S
C836 H842 0.930 . S
C837 N839 1.279 . S
C837 C840 1.358 . S
C837 H843 0.930 . S
C838 C836 1.353 . S
C838 C841 1.348 . S
C838 H876 0.929 . S
N839 Li794 1.990 . S
N839 C836 1.314 . S
N839 C837 1.279 . S
C840 C837 1.358 . S
C840 C841 1.356 . S
C840 H877 0.930 . S
C841 C838 1.348 . S
C841 C840 1.356 . S
H842 C836 0.930 . S
H843 C837 0.930 . S
C844 N845 1.314 . S
C844 C846 1.353 . S
C844 H850 0.930 . S
N845 Li795 1.990 . S
N845 C844 1.314 . S
N845 C848 1.279 1_545 S
C846 C844 1.353 . S
C846 C849 1.348 . S
C846 H878 0.929 . S
C847 C848 1.358 . S
C847 C849 1.356 1_565 S
C847 H879 0.930 . S
C848 N845 1.279 1_565 S
C848 C847 1.358 . S
C848 H851 0.930 . S
C849 C846 1.348 . S
C849 C847 1.356 1_545 S
H850 C844 0.930 . S
H851 C848 0.930 . S
O852 Li792 1.956 . S
O852 Li793 1.970 . S
O852 Li794 1.961 1_545 S
O852 C796 1.325 . S
O853 Li792 1.970 . S
O853 Li793 1.956 . S
O853 Li795 1.961 . S
O853 C802 1.325 . S
O854 Li792 1.961 . S
O854 Li794 1.956 1_545 S
O854 Li795 1.970 . S
O854 C824 1.325 . S
O855 Li793 1.961 1_565 S
O855 Li794 1.970 . S
O855 Li795 1.956 1_565 S
O855 C830 1.325 . S
H856 C798 0.929 . S
H857 C799 0.930 . S
H858 C800 0.930 . S
H859 C801 0.930 . S
H860 C803 0.930 . S
H861 C805 0.929 . S
H862 C806 0.930 . S
H863 C807 0.930 . S
H864 C810 0.930 . S
H865 C813 0.929 . S
H866 C818 0.939 . S
H867 C819 0.930 . S
H868 C826 0.924 . S
H869 C827 0.930 . S
H870 C828 0.930 1_565 S
H871 C829 0.930 . S
H872 C831 0.929 . S
H873 C832 0.930 . S
H874 C833 0.930 . S
H875 C834 0.930 . S
H876 C838 0.929 . S
H877 C840 0.930 . S
H878 C846 0.929 . S
H879 C847 0.930 . S
Li880 N897 1.990 1_455 S
Li880 O940 1.956 . S
Li880 O941 1.960 . S
Li880 O942 1.961 . S
Li881 N905 1.990 . S
Li881 O940 1.970 . S
Li881 O941 1.980 . S
Li881 O943 1.961 . S
Li882 N927 1.990 . S
Li882 O940 1.961 . S
Li882 O942 1.956 . S
Li882 O943 1.970 . S
Li883 N933 1.990 . S
Li883 O941 1.982 . S
Li883 O942 1.970 . S
Li883 O943 1.956 . S
C884 C886 1.348 . S
C884 C887 1.356 . S
C884 O940 1.325 . S
N885 C888 1.314 . S
N885 C889 1.279 . S
C886 C884 1.348 . S
C886 C888 1.353 . S
C886 H944 0.929 . S
C887 C884 1.356 . S
C887 C889 1.358 . S
C887 H945 0.930 . S
C888 N885 1.314 . S
C888 C886 1.353 . S
C888 H946 0.930 . S
C889 N885 1.279 . S
C889 C887 1.358 . S
C889 H947 0.930 . S
C890 C893 1.348 . S
C890 C894 1.356 . S
C890 O941 1.309 1_655 S
C891 N892 1.279 . S
C891 C894 1.358 . S
C891 H948 0.930 . S
N892 C891 1.279 . S
N892 C895 1.314 . S
C893 C890 1.348 . S
C893 C895 1.353 . S
C893 H949 0.929 . S
C894 C890 1.356 . S
C894 C891 1.358 . S
C894 H950 0.930 . S
C895 N892 1.314 . S
C895 C893 1.353 . S
C895 H951 0.930 . S
C896 N897 1.314 . S
C896 C901 1.353 . S
C896 H902 0.930 . S
N897 Li880 1.990 1_655 S
N897 C896 1.314 . S
N897 C899 1.279 . S
C898 C899 1.358 . S
C898 C900 1.356 . S
C898 H952 0.930 . S
C899 N897 1.279 . S
C899 C898 1.358 . S
C899 H903 0.930 . S
C900 C898 1.356 . S
C900 C901 1.348 . S
C901 C896 1.353 . S
C901 C900 1.348 . S
C901 H953 0.929 . S
H902 C896 0.930 . S
H903 C899 0.930 . S
C904 N905 1.314 . S
C904 C906 1.353 . S
C904 H910 0.930 . S
N905 Li881 1.990 . S
N905 C904 1.314 . S
N905 C908 1.279 1_455 S
C906 C904 1.353 . S
C906 C909 1.348 . S
C906 H954 0.929 . S
C907 C908 1.358 . S
C907 C909 1.356 1_655 S
C907 H955 0.930 . S
C908 N905 1.279 1_655 S
C908 C907 1.358 . S
C908 H911 0.930 . S
C909 C906 1.348 . S
C909 C907 1.356 1_455 S
H910 C904 0.930 . S
H911 C908 0.930 . S
C912 C914 1.348 . S
C912 C915 1.356 . S
C912 O942 1.325 . S
N913 C916 1.314 . S
N913 C917 1.279 . S
C914 C912 1.348 . S
C914 C916 1.353 . S
C914 H956 0.929 . S
C915 C912 1.356 . S
C915 C917 1.358 . S
C915 H957 0.930 . S
C916 N913 1.314 . S
C916 C914 1.353 . S
C916 H958 0.930 . S
C917 N913 1.279 . S
C917 C915 1.358 . S
C917 H959 0.930 . S
C918 C919 1.348 . S
C918 C920 1.356 . S
C918 O943 1.325 . S
C919 C918 1.348 . S
C919 C921 1.353 . S
C919 H960 0.929 . S
C920 C918 1.356 . S
C920 C922 1.358 . S
C920 H961 0.930 . S
C921 C919 1.353 . S
C921 N923 1.314 . S
C921 H962 0.930 . S
C922 C920 1.358 . S
C922 N923 1.279 . S
C922 H963 0.930 . S
N923 C921 1.314 . S
N923 C922 1.279 . S
C924 C926 1.353 . S
C924 N927 1.314 . S
C924 H930 0.930 . S
C925 N927 1.279 . S
C925 C928 1.358 . S
C925 H931 0.930 . S
C926 C924 1.353 . S
C926 C929 1.348 . S
C926 H964 0.929 . S
N927 Li882 1.990 . S
N927 C924 1.314 . S
N927 C925 1.279 . S
C928 C925 1.358 . S
C928 C929 1.356 . S
C928 H965 0.930 . S
C929 C926 1.348 . S
C929 C928 1.356 . S
H930 C924 0.930 . S
H931 C925 0.930 . S
C932 N933 1.314 . S
C932 C934 1.353 . S
C932 H938 0.914 1_455 S
N933 Li883 1.990 . S
N933 C932 1.314 . S
N933 C936 1.279 . S
C934 C932 1.353 . S
C934 C937 1.348 . S
C934 H966 0.929 1_455 S
C935 C936 1.358 . S
C935 C937 1.356 . S
C935 H967 0.930 . S
C936 N933 1.279 . S
C936 C935 1.358 . S
C936 H939 0.930 . S
C937 C934 1.348 . S
C937 C935 1.356 . S
H938 C932 0.914 1_655 S
H939 C936 0.930 . S
O940 Li880 1.956 . S
O940 Li881 1.970 . S
O940 Li882 1.961 . S
O940 C884 1.325 . S
O941 Li880 1.960 . S
O941 Li881 1.980 . S
O941 Li883 1.982 . S
O941 C890 1.309 1_455 S
O942 Li880 1.961 . S
O942 Li882 1.956 . S
O942 Li883 1.970 . S
O942 C912 1.325 . S
O943 Li881 1.961 . S
O943 Li882 1.970 . S
O943 Li883 1.956 . S
O943 C918 1.325 . S
H944 C886 0.929 . S
H945 C887 0.930 . S
H946 C888 0.930 . S
H947 C889 0.930 . S
H948 C891 0.930 . S
H949 C893 0.929 . S
H950 C894 0.930 . S
H951 C895 0.930 . S
H952 C898 0.930 . S
H953 C901 0.929 . S
H954 C906 0.929 . S
H955 C907 0.930 . S
H956 C914 0.929 . S
H957 C915 0.930 . S
H958 C916 0.930 . S
H959 C917 0.930 . S
H960 C919 0.929 . S
H961 C920 0.930 . S
H962 C921 0.930 . S
H963 C922 0.930 . S
H964 C926 0.929 . S
H965 C928 0.930 . S
H966 C934 0.929 1_655 S
H967 C935 0.930 . S
Li968 N985 1.990 . S
Li968 O1028 1.956 . S
Li968 O1029 1.970 . S
Li968 O1030 1.961 . S
Li969 N993 1.990 . S
Li969 O1028 1.970 . S
Li969 O1029 1.956 . S
Li969 O1031 1.961 . S
Li970 N1015 1.990 . S
Li970 O1028 1.961 . S
Li970 O1030 1.956 . S
Li970 O1031 1.970 . S
Li971 N1021 1.990 . S
Li971 O1029 1.961 . S
Li971 O1030 1.970 . S
Li971 O1031 1.956 . S
C972 C974 1.348 . S
C972 C975 1.356 . S
C972 O1028 1.325 . S
N973 C976 1.314 . S
N973 C977 1.279 . S
C974 C972 1.348 . S
C974 C976 1.353 . S
C974 H1032 0.929 . S
C975 C972 1.356 . S
C975 C977 1.358 . S
C975 H1033 0.930 . S
C976 N973 1.314 . S
C976 C974 1.353 . S
C976 H1034 0.930 . S
C977 N973 1.279 . S
C977 C975 1.358 . S
C977 H1035 0.930 . S
C978 C981 1.348 . S
C978 C982 1.356 . S
C978 O1029 1.325 . S
C979 N980 1.279 . S
C979 C982 1.358 . S
C979 H1036 0.930 . S
N980 C979 1.279 . S
N980 C983 1.314 . S
C981 C978 1.348 . S
C981 C983 1.353 . S
C981 H1037 0.929 . S
C982 C978 1.356 . S
C982 C979 1.358 . S
C982 H1038 0.930 . S
C983 N980 1.314 . S
C983 C981 1.353 . S
C983 H1039 0.930 . S
C984 N985 1.314 . S
C984 C989 1.353 . S
C984 H990 0.930 . S
N985 Li968 1.990 . S
N985 C984 1.314 . S
N985 C987 1.279 . S
C986 C987 1.358 . S
C986 C988 1.356 . S
C986 H1040 0.930 . S
C987 N985 1.279 . S
C987 C986 1.358 . S
C987 H991 0.930 . S
C988 C986 1.356 . S
C988 C989 1.348 . S
C989 C984 1.353 . S
C989 C988 1.348 . S
C989 H1041 0.929 . S
H990 C984 0.930 . S
H991 C987 0.930 . S
C992 N993 1.314 . S
C992 C994 1.353 . S
C992 H998 0.930 . S
N993 Li969 1.990 . S
N993 C992 1.314 . S
N993 C996 1.279 . S
C994 C992 1.353 . S
C994 C997 1.348 . S
C994 H1042 0.929 . S
C995 C996 1.358 . S
C995 C997 1.356 . S
C995 H1043 0.930 . S
C996 N993 1.279 . S
C996 C995 1.358 . S
C996 H999 0.930 . S
C997 C994 1.348 . S
C997 C995 1.356 . S
H998 C992 0.930 . S
H999 C996 0.930 . S
C1000 C1002 1.348 . S
C1000 C1003 1.356 . S
C1000 O1030 1.325 . S
N1001 C1004 1.314 . S
N1001 C1005 1.279 . S
C1002 C1000 1.348 . S
C1002 C1004 1.353 . S
C1002 H1044 0.929 . S
C1003 C1000 1.356 . S
C1003 C1005 1.358 . S
C1003 H1045 0.930 . S
C1004 N1001 1.314 . S
C1004 C1002 1.353 . S
C1004 H1046 0.930 . S
C1005 N1001 1.279 . S
C1005 C1003 1.358 . S
C1005 H1047 0.930 . S
C1006 C1007 1.348 . S
C1006 C1008 1.356 . S
C1006 O1031 1.325 . S
C1007 C1006 1.348 . S
C1007 C1009 1.353 . S
C1007 H1048 0.929 . S
C1008 C1006 1.356 . S
C1008 C1010 1.358 . S
C1008 H1049 0.930 . S
C1009 C1007 1.353 . S
C1009 N1011 1.314 . S
C1009 H1050 0.930 . S
C1010 C1008 1.358 . S
C1010 N1011 1.279 . S
C1010 H1051 0.930 . S
N1011 C1009 1.314 . S
N1011 C1010 1.279 . S
C1012 C1014 1.353 . S
C1012 N1015 1.314 . S
C1012 H1018 0.930 . S
C1013 N1015 1.279 . S
C1013 C1016 1.358 . S
C1013 H1019 0.930 . S
C1014 C1012 1.353 . S
C1014 C1017 1.348 . S
C1014 H1052 0.929 . S
N1015 Li970 1.990 . S
N1015 C1012 1.314 . S
N1015 C1013 1.279 . S
C1016 C1013 1.358 . S
C1016 C1017 1.356 . S
C1016 H1053 0.930 . S
C1017 C1014 1.348 . S
C1017 C1016 1.356 . S
H1018 C1012 0.930 . S
H1019 C1013 0.930 . S
C1020 N1021 1.314 . S
C1020 C1022 1.353 . S
C1020 H1026 0.930 . S
N1021 Li971 1.990 . S
N1021 C1020 1.314 . S
N1021 C1024 1.279 . S
C1022 C1020 1.353 . S
C1022 C1025 1.348 . S
C1022 H1054 0.929 . S
C1023 C1024 1.358 . S
C1023 C1025 1.356 . S
C1023 H1055 0.930 . S
C1024 N1021 1.279 . S
C1024 C1023 1.358 . S
C1024 H1027 0.930 . S
C1025 C1022 1.348 . S
C1025 C1023 1.356 . S
H1026 C1020 0.930 . S
H1027 C1024 0.930 . S
O1028 Li968 1.956 . S
O1028 Li969 1.970 . S
O1028 Li970 1.961 . S
O1028 C972 1.325 . S
O1029 Li968 1.970 . S
O1029 Li969 1.956 . S
O1029 Li971 1.961 . S
O1029 C978 1.325 . S
O1030 Li968 1.961 . S
O1030 Li970 1.956 . S
O1030 Li971 1.970 . S
O1030 C1000 1.325 . S
O1031 Li969 1.961 . S
O1031 Li970 1.970 . S
O1031 Li971 1.956 . S
O1031 C1006 1.325 . S
H1032 C974 0.929 . S
H1033 C975 0.930 . S
H1034 C976 0.930 . S
H1035 C977 0.930 . S
H1036 C979 0.930 . S
H1037 C981 0.929 . S
H1038 C982 0.930 . S
H1039 C983 0.930 . S
H1040 C986 0.930 . S
H1041 C989 0.929 . S
H1042 C994 0.929 . S
H1043 C995 0.930 . S
H1044 C1002 0.929 . S
H1045 C1003 0.930 . S
H1046 C1004 0.930 . S
H1047 C1005 0.930 . S
H1048 C1007 0.929 . S
H1049 C1008 0.930 . S
H1050 C1009 0.930 . S
H1051 C1010 0.930 . S
H1052 C1014 0.929 . S
H1053 C1016 0.930 . S
H1054 C1022 0.929 . S
H1055 C1023 0.930 . S
Li1056 N1073 1.990 . S
Li1056 O1116 1.956 . S
Li1056 O1117 1.970 . S
Li1056 O1118 1.961 . S
Li1057 N1081 1.990 . S
Li1057 O1116 1.970 . S
Li1057 O1117 1.956 . S
Li1057 O1119 1.961 . S
Li1058 N1103 1.990 . S
Li1058 O1116 1.961 . S
Li1058 O1118 1.956 . S
Li1058 O1119 1.970 . S
Li1059 N1109 1.990 . S
Li1059 O1117 1.961 . S
Li1059 O1118 1.970 . S
Li1059 O1119 1.956 . S
C1060 C1062 1.348 . S
C1060 C1063 1.356 . S
C1060 O1116 1.325 . S
N1061 C1064 1.314 . S
N1061 C1065 1.279 . S
C1062 C1060 1.348 . S
C1062 C1064 1.353 . S
C1062 H1120 0.929 . S
C1063 C1060 1.356 . S
C1063 C1065 1.358 . S
C1063 H1121 0.930 . S
C1064 N1061 1.314 . S
C1064 C1062 1.353 . S
C1064 H1122 0.930 . S
C1065 N1061 1.279 . S
C1065 C1063 1.358 . S
C1065 H1123 0.930 . S
C1066 C1069 1.348 . S
C1066 C1070 1.356 . S
C1066 O1117 1.325 . S
C1067 N1068 1.279 . S
C1067 C1070 1.358 . S
C1067 H1124 0.930 . S
N1068 C1067 1.279 . S
N1068 C1071 1.314 . S
C1069 C1066 1.348 . S
C1069 C1071 1.353 . S
C1069 H1125 0.929 . S
C1070 C1066 1.356 . S
C1070 C1067 1.358 . S
C1070 H1126 0.930 . S
C1071 N1068 1.314 . S
C1071 C1069 1.353 . S
C1071 H1127 0.930 . S
C1072 N1073 1.314 . S
C1072 C1077 1.353 . S
C1072 H1078 0.930 . S
N1073 Li1056 1.990 . S
N1073 C1072 1.314 . S
N1073 C1075 1.279 . S
C1074 C1075 1.358 . S
C1074 C1076 1.356 . S
C1074 H1128 0.930 . S
C1075 N1073 1.279 . S
C1075 C1074 1.358 . S
C1075 H1079 0.930 . S
C1076 C1074 1.356 . S
C1076 C1077 1.348 . S
C1077 C1072 1.353 . S
C1077 C1076 1.348 . S
C1077 H1129 0.929 . S
H1078 C1072 0.930 . S
H1079 C1075 0.930 . S
C1080 N1081 1.314 . S
C1080 C1082 1.353 . S
C1080 H1086 0.930 . S
N1081 Li1057 1.990 . S
N1081 C1080 1.314 . S
N1081 C1084 1.279 . S
C1082 C1080 1.353 . S
C1082 C1085 1.348 . S
C1082 H1130 0.929 . S
C1083 C1084 1.358 . S
C1083 C1085 1.356 . S
C1083 H1131 0.930 . S
C1084 N1081 1.279 . S
C1084 C1083 1.358 . S
C1084 H1087 0.930 . S
C1085 C1082 1.348 . S
C1085 C1083 1.356 . S
H1086 C1080 0.930 . S
H1087 C1084 0.930 . S
C1088 C1090 1.348 . S
C1088 C1091 1.356 . S
C1088 O1118 1.325 . S
N1089 C1092 1.314 . S
N1089 C1093 1.279 . S
C1090 C1088 1.348 . S
C1090 C1092 1.353 . S
C1090 H1132 0.929 . S
C1091 C1088 1.356 . S
C1091 C1093 1.358 . S
C1091 H1133 0.930 . S
C1092 N1089 1.314 . S
C1092 C1090 1.353 . S
C1092 H1134 0.930 . S
C1093 N1089 1.279 . S
C1093 C1091 1.358 . S
C1093 H1135 0.930 . S
C1094 C1095 1.348 . S
C1094 C1096 1.356 . S
C1094 O1119 1.325 . S
C1095 C1094 1.348 . S
C1095 C1097 1.353 . S
C1095 H1136 0.929 . S
C1096 C1094 1.356 . S
C1096 C1098 1.358 . S
C1096 H1137 0.930 . S
C1097 C1095 1.353 . S
C1097 N1099 1.314 . S
C1097 H1138 0.930 . S
C1098 C1096 1.358 . S
C1098 N1099 1.279 . S
C1098 H1139 0.930 . S
N1099 C1097 1.314 . S
N1099 C1098 1.279 . S
C1100 C1102 1.353 . S
C1100 N1103 1.314 . S
C1100 H1106 0.930 . S
C1101 N1103 1.279 . S
C1101 C1104 1.358 . S
C1101 H1107 0.930 . S
C1102 C1100 1.353 . S
C1102 C1105 1.348 . S
C1102 H1140 0.929 . S
N1103 Li1058 1.990 . S
N1103 C1100 1.314 . S
N1103 C1101 1.279 . S
C1104 C1101 1.358 . S
C1104 C1105 1.356 . S
C1104 H1141 0.930 . S
C1105 C1102 1.348 . S
C1105 C1104 1.356 . S
H1106 C1100 0.930 . S
H1107 C1101 0.930 . S
C1108 N1109 1.314 . S
C1108 C1110 1.353 . S
C1108 H1114 0.930 . S
N1109 Li1059 1.990 . S
N1109 C1108 1.314 . S
N1109 C1112 1.279 . S
C1110 C1108 1.353 . S
C1110 C1113 1.348 . S
C1110 H1142 0.929 . S
C1111 C1112 1.358 . S
C1111 C1113 1.356 . S
C1111 H1143 0.930 . S
C1112 N1109 1.279 . S
C1112 C1111 1.358 . S
C1112 H1115 0.930 . S
C1113 C1110 1.348 . S
C1113 C1111 1.356 . S
H1114 C1108 0.930 . S
H1115 C1112 0.930 . S
O1116 Li1056 1.956 . S
O1116 Li1057 1.970 . S
O1116 Li1058 1.961 . S
O1116 C1060 1.325 . S
O1117 Li1056 1.970 . S
O1117 Li1057 1.956 . S
O1117 Li1059 1.961 . S
O1117 C1066 1.325 . S
O1118 Li1056 1.961 . S
O1118 Li1058 1.956 . S
O1118 Li1059 1.970 . S
O1118 C1088 1.325 . S
O1119 Li1057 1.961 . S
O1119 Li1058 1.970 . S
O1119 Li1059 1.956 . S
O1119 C1094 1.325 . S
H1120 C1062 0.929 . S
H1121 C1063 0.930 . S
H1122 C1064 0.930 . S
H1123 C1065 0.930 . S
H1124 C1067 0.930 . S
H1125 C1069 0.929 . S
H1126 C1070 0.930 . S
H1127 C1071 0.930 . S
H1128 C1074 0.930 . S
H1129 C1077 0.929 . S
H1130 C1082 0.929 . S
H1131 C1083 0.930 . S
H1132 C1090 0.929 . S
H1133 C1091 0.930 . S
H1134 C1092 0.930 . S
H1135 C1093 0.930 . S
H1136 C1095 0.929 . S
H1137 C1096 0.930 . S
H1138 C1097 0.930 . S
H1139 C1098 0.930 . S
H1140 C1102 0.929 . S
H1141 C1104 0.930 . S
H1142 C1110 0.929 . S
H1143 C1111 0.930 . S
Li1144 N1161 1.990 . S
Li1144 O1204 1.956 . S
Li1144 O1205 1.970 . S
Li1144 O1206 1.961 . S
Li1145 N1169 1.990 . S
Li1145 O1204 1.970 . S
Li1145 O1205 1.956 . S
Li1145 O1207 1.961 . S
Li1146 N1191 1.990 . S
Li1146 O1204 1.961 . S
Li1146 O1206 1.956 . S
Li1146 O1207 1.970 . S
Li1147 N1197 1.990 . S
Li1147 O1205 1.961 . S
Li1147 O1206 1.970 . S
Li1147 O1207 1.956 . S
C1148 C1150 1.348 . S
C1148 C1151 1.356 . S
C1148 O1204 1.325 . S
N1149 C1152 1.314 . S
N1149 C1153 1.279 . S
C1150 C1148 1.348 . S
C1150 C1152 1.353 . S
C1150 H1208 0.929 . S
C1151 C1148 1.356 . S
C1151 C1153 1.358 . S
C1151 H1209 0.930 . S
C1152 N1149 1.314 . S
C1152 C1150 1.353 . S
C1152 H1210 0.930 . S
C1153 N1149 1.279 . S
C1153 C1151 1.358 . S
C1153 H1211 0.930 . S
C1154 C1157 1.348 . S
C1154 C1158 1.356 . S
C1154 O1205 1.325 . S
C1155 N1156 1.279 . S
C1155 C1158 1.358 . S
C1155 H1212 0.930 . S
N1156 C1155 1.279 . S
N1156 C1159 1.314 . S
C1157 C1154 1.348 . S
C1157 C1159 1.353 . S
C1157 H1213 0.929 . S
C1158 C1154 1.356 . S
C1158 C1155 1.358 . S
C1158 H1214 0.930 . S
C1159 N1156 1.314 . S
C1159 C1157 1.353 . S
C1159 H1215 0.930 . S
C1160 N1161 1.314 . S
C1160 C1165 1.353 . S
C1160 H1166 0.930 . S
N1161 Li1144 1.990 . S
N1161 C1160 1.314 . S
N1161 C1163 1.279 . S
C1162 C1163 1.358 . S
C1162 C1164 1.356 . S
C1162 H1216 0.930 . S
C1163 N1161 1.279 . S
C1163 C1162 1.358 . S
C1163 H1167 0.930 . S
C1164 C1162 1.356 . S
C1164 C1165 1.348 . S
C1165 C1160 1.353 . S
C1165 C1164 1.348 . S
C1165 H1217 0.929 . S
H1166 C1160 0.930 . S
H1167 C1163 0.930 . S
C1168 N1169 1.314 . S
C1168 C1170 1.353 . S
C1168 H1174 0.930 . S
N1169 Li1145 1.990 . S
N1169 C1168 1.314 . S
N1169 C1172 1.279 . S
C1170 C1168 1.353 . S
C1170 C1173 1.348 . S
C1170 H1218 0.929 . S
C1171 C1172 1.358 . S
C1171 C1173 1.356 . S
C1171 H1219 0.930 . S
C1172 N1169 1.279 . S
C1172 C1171 1.358 . S
C1172 H1175 0.930 . S
C1173 C1170 1.348 . S
C1173 C1171 1.356 . S
H1174 C1168 0.930 . S
H1175 C1172 0.930 . S
C1176 C1178 1.348 . S
C1176 C1179 1.356 . S
C1176 O1206 1.325 . S
N1177 C1180 1.314 . S
N1177 C1181 1.279 . S
C1178 C1176 1.348 . S
C1178 C1180 1.353 . S
C1178 H1220 0.929 . S
C1179 C1176 1.356 . S
C1179 C1181 1.358 . S
C1179 H1221 0.930 . S
C1180 N1177 1.314 . S
C1180 C1178 1.353 . S
C1180 H1222 0.930 . S
C1181 N1177 1.279 . S
C1181 C1179 1.358 . S
C1181 H1223 0.930 . S
C1182 C1183 1.348 . S
C1182 C1184 1.356 . S
C1182 O1207 1.325 . S
C1183 C1182 1.348 . S
C1183 C1185 1.353 . S
C1183 H1224 0.929 . S
C1184 C1182 1.356 . S
C1184 C1186 1.358 . S
C1184 H1225 0.930 . S
C1185 C1183 1.353 . S
C1185 N1187 1.314 . S
C1185 H1226 0.930 . S
C1186 C1184 1.358 . S
C1186 N1187 1.279 . S
C1186 H1227 0.930 . S
N1187 C1185 1.314 . S
N1187 C1186 1.279 . S
C1188 C1190 1.353 . S
C1188 N1191 1.314 . S
C1188 H1194 0.930 . S
C1189 N1191 1.279 . S
C1189 C1192 1.358 . S
C1189 H1195 0.930 . S
C1190 C1188 1.353 . S
C1190 C1193 1.348 . S
C1190 H1228 0.929 . S
N1191 Li1146 1.990 . S
N1191 C1188 1.314 . S
N1191 C1189 1.279 . S
C1192 C1189 1.358 . S
C1192 C1193 1.356 . S
C1192 H1229 0.930 . S
C1193 C1190 1.348 . S
C1193 C1192 1.356 . S
H1194 C1188 0.930 . S
H1195 C1189 0.930 . S
C1196 N1197 1.314 . S
C1196 C1198 1.353 . S
C1196 H1202 0.930 . S
N1197 Li1147 1.990 . S
N1197 C1196 1.314 . S
N1197 C1200 1.279 . S
C1198 C1196 1.353 . S
C1198 C1201 1.348 . S
C1198 H1230 0.929 . S
C1199 C1200 1.358 . S
C1199 C1201 1.356 . S
C1199 H1231 0.930 . S
C1200 N1197 1.279 . S
C1200 C1199 1.358 . S
C1200 H1203 0.930 . S
C1201 C1198 1.348 . S
C1201 C1199 1.356 . S
H1202 C1196 0.930 . S
H1203 C1200 0.930 . S
O1204 Li1144 1.956 . S
O1204 Li1145 1.970 . S
O1204 Li1146 1.961 . S
O1204 C1148 1.325 . S
O1205 Li1144 1.970 . S
O1205 Li1145 1.956 . S
O1205 Li1147 1.961 . S
O1205 C1154 1.325 . S
O1206 Li1144 1.961 . S
O1206 Li1146 1.956 . S
O1206 Li1147 1.970 . S
O1206 C1176 1.325 . S
O1207 Li1145 1.961 . S
O1207 Li1146 1.970 . S
O1207 Li1147 1.956 . S
O1207 C1182 1.325 . S
H1208 C1150 0.929 . S
H1209 C1151 0.930 . S
H1210 C1152 0.930 . S
H1211 C1153 0.930 . S
H1212 C1155 0.930 . S
H1213 C1157 0.929 . S
H1214 C1158 0.930 . S
H1215 C1159 0.930 . S
H1216 C1162 0.930 . S
H1217 C1165 0.929 . S
H1218 C1170 0.929 . S
H1219 C1171 0.930 . S
H1220 C1178 0.929 . S
H1221 C1179 0.930 . S
H1222 C1180 0.930 . S
H1223 C1181 0.930 . S
H1224 C1183 0.929 . S
H1225 C1184 0.930 . S
H1226 C1185 0.930 . S
H1227 C1186 0.930 . S
H1228 C1190 0.929 . S
H1229 C1192 0.930 . S
H1230 C1198 0.929 . S
H1231 C1199 0.930 . S
Li1232 N1249 1.990 . S
Li1232 O1292 1.956 . S
Li1232 O1293 1.970 . S
Li1232 O1294 1.961 . S
Li1233 N1257 1.990 . S
Li1233 O1292 1.970 . S
Li1233 O1293 1.956 . S
Li1233 O1295 1.961 . S
Li1234 N1279 1.990 . S
Li1234 O1292 1.961 . S
Li1234 O1294 1.956 . S
Li1234 O1295 1.970 . S
Li1235 N1285 1.990 . S
Li1235 O1293 1.961 . S
Li1235 O1294 1.970 . S
Li1235 O1295 1.956 . S
C1236 C1238 1.348 . S
C1236 C1239 1.356 . S
C1236 O1292 1.325 . S
N1237 C1240 1.314 . S
N1237 C1241 1.279 . S
C1238 C1236 1.348 . S
C1238 C1240 1.353 . S
C1238 H1296 0.929 . S
C1239 C1236 1.356 . S
C1239 C1241 1.358 . S
C1239 H1297 0.930 . S
C1240 N1237 1.314 . S
C1240 C1238 1.353 . S
C1240 H1298 0.930 . S
C1241 N1237 1.279 . S
C1241 C1239 1.358 . S
C1241 H1299 0.930 . S
C1242 C1245 1.348 . S
C1242 C1246 1.356 . S
C1242 O1293 1.325 . S
C1243 N1244 1.279 . S
C1243 C1246 1.358 . S
C1243 H1300 0.930 . S
N1244 C1243 1.279 . S
N1244 C1247 1.314 . S
C1245 C1242 1.348 . S
C1245 C1247 1.353 . S
C1245 H1301 0.929 . S
C1246 C1242 1.356 . S
C1246 C1243 1.358 . S
C1246 H1302 0.930 . S
C1247 N1244 1.314 . S
C1247 C1245 1.353 . S
C1247 H1303 0.930 . S
C1248 N1249 1.314 . S
C1248 C1253 1.353 1_655 S
C1248 H1254 0.930 . S
N1249 Li1232 1.990 . S
N1249 C1248 1.314 . S
N1249 C1251 1.279 . S
C1250 C1251 1.358 1_455 S
C1250 C1252 1.356 . S
C1250 H1304 0.930 . S
C1251 N1249 1.279 . S
C1251 C1250 1.358 1_655 S
C1251 H1255 0.930 . S
C1252 C1250 1.356 . S
C1252 C1253 1.348 . S
C1253 C1248 1.353 1_455 S
C1253 C1252 1.348 . S
C1253 H1305 0.929 . S
H1254 C1248 0.930 . S
H1255 C1251 0.930 . S
C1256 N1257 1.314 . S
C1256 C1258 1.353 . S
C1256 H1262 0.930 . S
N1257 Li1233 1.990 . S
N1257 C1256 1.314 . S
N1257 C1260 1.279 . S
C1258 C1256 1.353 . S
C1258 C1261 1.348 . S
C1258 H1306 0.929 . S
C1259 C1260 1.358 . S
C1259 C1261 1.356 . S
C1259 H1307 0.930 . S
C1260 N1257 1.279 . S
C1260 C1259 1.358 . S
C1260 H1263 0.930 . S
C1261 C1258 1.348 . S
C1261 C1259 1.356 . S
H1262 C1256 0.930 . S
H1263 C1260 0.930 . S
C1264 C1266 1.348 . S
C1264 C1267 1.356 . S
C1264 O1294 1.325 . S
N1265 C1268 1.314 1_455 S
N1265 C1269 1.279 . S
C1266 C1264 1.348 . S
C1266 C1268 1.353 . S
C1266 H1308 0.929 . S
C1267 C1264 1.356 . S
C1267 C1269 1.358 1_655 S
C1267 H1309 0.930 . S
C1268 N1265 1.314 1_655 S
C1268 C1266 1.353 . S
C1268 H1310 0.930 . S
C1269 N1265 1.279 . S
C1269 C1267 1.358 1_455 S
C1269 H1311 0.930 . S
C1270 C1271 1.348 . S
C1270 C1272 1.356 . S
C1270 O1295 1.325 . S
C1271 C1270 1.348 . S
C1271 C1273 1.353 . S
C1271 H1312 0.929 . S
C1272 C1270 1.356 . S
C1272 C1274 1.358 . S
C1272 H1313 0.930 . S
C1273 C1271 1.353 . S
C1273 N1275 1.314 . S
C1273 H1314 0.930 . S
C1274 C1272 1.358 . S
C1274 N1275 1.279 . S
C1274 H1315 0.930 . S
N1275 C1273 1.314 . S
N1275 C1274 1.279 . S
C1276 C1278 1.353 . S
C1276 N1279 1.314 . S
C1276 H1282 0.930 . S
C1277 N1279 1.279 . S
C1277 C1280 1.358 . S
C1277 H1283 0.930 . S
C1278 C1276 1.353 . S
C1278 C1281 1.348 . S
C1278 H1316 0.929 . S
N1279 Li1234 1.990 . S
N1279 C1276 1.314 . S
N1279 C1277 1.279 . S
C1280 C1277 1.358 . S
C1280 C1281 1.356 . S
C1280 H1317 0.930 . S
C1281 C1278 1.348 . S
C1281 C1280 1.356 . S
H1282 C1276 0.930 . S
H1283 C1277 0.930 . S
C1284 N1285 1.314 . S
C1284 C1286 1.353 . S
C1284 H1290 0.930 . S
N1285 Li1235 1.990 . S
N1285 C1284 1.314 . S
N1285 C1288 1.279 . S
C1286 C1284 1.353 . S
C1286 C1289 1.348 . S
C1286 H1318 0.929 . S
C1287 C1288 1.358 . S
C1287 C1289 1.356 . S
C1287 H1319 0.930 . S
C1288 N1285 1.279 . S
C1288 C1287 1.358 . S
C1288 H1291 0.930 . S
C1289 C1286 1.348 . S
C1289 C1287 1.356 . S
H1290 C1284 0.930 . S
H1291 C1288 0.930 . S
O1292 Li1232 1.956 . S
O1292 Li1233 1.970 . S
O1292 Li1234 1.961 . S
O1292 C1236 1.325 . S
O1293 Li1232 1.970 . S
O1293 Li1233 1.956 . S
O1293 Li1235 1.961 . S
O1293 C1242 1.325 . S
O1294 Li1232 1.961 . S
O1294 Li1234 1.956 . S
O1294 Li1235 1.970 . S
O1294 C1264 1.325 . S
O1295 Li1233 1.961 . S
O1295 Li1234 1.970 . S
O1295 Li1235 1.956 . S
O1295 C1270 1.325 . S
H1296 C1238 0.929 . S
H1297 C1239 0.930 . S
H1298 C1240 0.930 . S
H1299 C1241 0.930 . S
H1300 C1243 0.930 . S
H1301 C1245 0.929 . S
H1302 C1246 0.930 . S
H1303 C1247 0.930 . S
H1304 C1250 0.930 . S
H1305 C1253 0.929 . S
H1306 C1258 0.929 . S
H1307 C1259 0.930 . S
H1308 C1266 0.929 . S
H1309 C1267 0.930 . S
H1310 C1268 0.930 . S
H1311 C1269 0.930 . S
H1312 C1271 0.929 . S
H1313 C1272 0.930 . S
H1314 C1273 0.930 . S
H1315 C1274 0.930 . S
H1316 C1278 0.929 . S
H1317 C1280 0.930 . S
H1318 C1286 0.929 . S
H1319 C1287 0.930 . S
Li1320 N1337 1.990 . S
Li1320 O1380 1.956 . S
Li1320 O1381 1.970 . S
Li1320 O1382 1.961 . S
Li1321 N1345 1.990 . S
Li1321 O1380 1.970 . S
Li1321 O1381 1.956 . S
Li1321 O1383 1.961 . S
Li1322 N1367 1.990 . S
Li1322 O1380 1.961 . S
Li1322 O1382 1.956 . S
Li1322 O1383 1.970 . S
Li1323 N1373 1.990 . S
Li1323 O1381 1.961 . S
Li1323 O1382 1.970 . S
Li1323 O1383 1.956 . S
C1324 C1326 1.348 . S
C1324 C1327 1.356 . S
C1324 O1380 1.325 . S
N1325 C1328 1.314 . S
N1325 C1329 1.279 . S
C1326 C1324 1.348 . S
C1326 C1328 1.353 . S
C1326 H1384 0.929 . S
C1327 C1324 1.356 . S
C1327 C1329 1.358 . S
C1327 H1385 0.930 . S
C1328 N1325 1.314 . S
C1328 C1326 1.353 . S
C1328 H1386 0.930 . S
C1329 N1325 1.279 . S
C1329 C1327 1.358 . S
C1329 H1387 0.930 . S
C1330 C1333 1.348 . S
C1330 C1334 1.356 . S
C1330 O1381 1.325 . S
C1331 N1332 1.279 . S
C1331 C1334 1.358 . S
C1331 H1388 0.930 . S
N1332 C1331 1.279 . S
N1332 C1335 1.314 . S
C1333 C1330 1.348 . S
C1333 C1335 1.353 . S
C1333 H1389 0.929 . S
C1334 C1330 1.356 . S
C1334 C1331 1.358 . S
C1334 H1390 0.930 . S
C1335 N1332 1.314 . S
C1335 C1333 1.353 . S
C1335 H1391 0.930 . S
C1336 N1337 1.314 . S
C1336 C1341 1.353 . S
C1336 H1342 0.930 . S
N1337 Li1320 1.990 . S
N1337 C1336 1.314 . S
N1337 C1339 1.279 . S
C1338 C1339 1.358 . S
C1338 C1340 1.356 . S
C1338 H1392 0.930 . S
C1339 N1337 1.279 . S
C1339 C1338 1.358 . S
C1339 H1343 0.930 . S
C1340 C1338 1.356 . S
C1340 C1341 1.348 . S
C1341 C1336 1.353 . S
C1341 C1340 1.348 . S
C1341 H1393 0.929 . S
H1342 C1336 0.930 . S
H1343 C1339 0.930 . S
C1344 N1345 1.314 . S
C1344 C1346 1.353 . S
C1344 H1350 0.930 . S
N1345 Li1321 1.990 . S
N1345 C1344 1.314 . S
N1345 C1348 1.279 . S
C1346 C1344 1.353 . S
C1346 C1349 1.348 . S
C1346 H1394 0.929 . S
C1347 C1348 1.358 . S
C1347 C1349 1.356 . S
C1347 H1395 0.930 . S
C1348 N1345 1.279 . S
C1348 C1347 1.358 . S
C1348 H1351 0.930 . S
C1349 C1346 1.348 . S
C1349 C1347 1.356 . S
H1350 C1344 0.930 . S
H1351 C1348 0.930 . S
C1352 C1354 1.348 . S
C1352 C1355 1.356 . S
C1352 O1382 1.325 . S
N1353 C1356 1.314 . S
N1353 C1357 1.279 . S
C1354 C1352 1.348 . S
C1354 C1356 1.353 1_655 S
C1354 H1396 0.929 . S
C1355 C1352 1.356 . S
C1355 C1357 1.358 1_655 S
C1355 H1397 0.930 . S
C1356 N1353 1.314 . S
C1356 C1354 1.353 1_455 S
C1356 H1398 0.930 . S
C1357 N1353 1.279 . S
C1357 C1355 1.358 1_455 S
C1357 H1399 0.930 . S
C1358 C1359 1.348 . S
C1358 C1360 1.356 . S
C1358 O1383 1.325 . S
C1359 C1358 1.348 . S
C1359 C1361 1.353 . S
C1359 H1400 0.929 . S
C1360 C1358 1.356 . S
C1360 C1362 1.358 . S
C1360 H1401 0.930 . S
C1361 C1359 1.353 . S
C1361 N1363 1.314 . S
C1361 H1402 0.930 . S
C1362 C1360 1.358 . S
C1362 N1363 1.279 . S
C1362 H1403 0.930 . S
N1363 C1361 1.314 . S
N1363 C1362 1.279 . S
C1364 C1366 1.353 . S
C1364 N1367 1.314 . S
C1364 H1370 0.930 . S
C1365 N1367 1.279 . S
C1365 C1368 1.358 1_655 S
C1365 H1371 0.935 1_655 S
C1366 C1364 1.353 . S
C1366 C1369 1.348 1_655 S
C1366 H1404 0.929 . S
N1367 Li1322 1.990 . S
N1367 C1364 1.314 . S
N1367 C1365 1.279 . S
C1368 C1365 1.358 1_455 S
C1368 C1369 1.356 . S
C1368 H1405 0.930 . S
C1369 C1366 1.348 1_455 S
C1369 C1368 1.356 . S
H1370 C1364 0.930 . S
H1371 C1365 0.935 1_455 S
C1372 N1373 1.314 . S
C1372 C1374 1.353 . S
C1372 H1378 0.930 . S
N1373 Li1323 1.990 . S
N1373 C1372 1.314 . S
N1373 C1376 1.279 . S
C1374 C1372 1.353 . S
C1374 C1377 1.348 . S
C1374 H1406 0.929 . S
C1375 C1376 1.358 . S
C1375 C1377 1.356 . S
C1375 H1407 0.930 . S
C1376 N1373 1.279 . S
C1376 C1375 1.358 . S
C1376 H1379 0.930 . S
C1377 C1374 1.348 . S
C1377 C1375 1.356 . S
H1378 C1372 0.930 . S
H1379 C1376 0.930 . S
O1380 Li1320 1.956 . S
O1380 Li1321 1.970 . S
O1380 Li1322 1.961 . S
O1380 C1324 1.325 . S
O1381 Li1320 1.970 . S
O1381 Li1321 1.956 . S
O1381 Li1323 1.961 . S
O1381 C1330 1.325 . S
O1382 Li1320 1.961 . S
O1382 Li1322 1.956 . S
O1382 Li1323 1.970 . S
O1382 C1352 1.325 . S
O1383 Li1321 1.961 . S
O1383 Li1322 1.970 . S
O1383 Li1323 1.956 . S
O1383 C1358 1.325 . S
H1384 C1326 0.929 . S
H1385 C1327 0.930 . S
H1386 C1328 0.930 . S
H1387 C1329 0.930 . S
H1388 C1331 0.930 . S
H1389 C1333 0.929 . S
H1390 C1334 0.930 . S
H1391 C1335 0.930 . S
H1392 C1338 0.930 . S
H1393 C1341 0.929 . S
H1394 C1346 0.929 . S
H1395 C1347 0.930 . S
H1396 C1354 0.929 . S
H1397 C1355 0.930 . S
H1398 C1356 0.930 . S
H1399 C1357 0.930 . S
H1400 C1359 0.929 . S
H1401 C1360 0.930 . S
H1402 C1361 0.930 . S
H1403 C1362 0.930 . S
H1404 C1366 0.929 . S
H1405 C1368 0.930 . S
H1406 C1374 0.929 . S
H1407 C1375 0.930 . S
Li1408 N1425 1.990 . S
Li1408 O1468 1.956 . S
Li1408 O1469 1.970 . S
Li1408 O1470 1.961 . S
Li1409 N1433 1.990 . S
Li1409 O1468 1.970 . S
Li1409 O1469 1.956 . S
Li1409 O1471 1.961 . S
Li1410 N1455 1.990 . S
Li1410 O1468 1.961 . S
Li1410 O1470 1.956 . S
Li1410 O1471 1.970 . S
Li1411 N1461 1.990 . S
Li1411 O1469 1.961 . S
Li1411 O1470 1.970 . S
Li1411 O1471 1.956 . S
C1412 C1414 1.348 . S
C1412 C1415 1.356 . S
C1412 O1468 1.325 . S
N1413 C1416 1.314 . S
N1413 C1417 1.279 . S
C1414 C1412 1.348 . S
C1414 C1416 1.353 . S
C1414 H1472 0.929 . S
C1415 C1412 1.356 . S
C1415 C1417 1.358 . S
C1415 H1473 0.930 . S
C1416 N1413 1.314 . S
C1416 C1414 1.353 . S
C1416 H1474 0.930 . S
C1417 N1413 1.279 . S
C1417 C1415 1.358 . S
C1417 H1475 0.930 . S
C1418 C1421 1.348 . S
C1418 C1422 1.356 . S
C1418 O1469 1.325 . S
C1419 N1420 1.279 . S
C1419 C1422 1.358 . S
C1419 H1476 0.930 . S
N1420 C1419 1.279 . S
N1420 C1423 1.314 . S
C1421 C1418 1.348 . S
C1421 C1423 1.353 . S
C1421 H1477 0.929 . S
C1422 C1418 1.356 . S
C1422 C1419 1.358 . S
C1422 H1478 0.930 . S
C1423 N1420 1.314 . S
C1423 C1421 1.353 . S
C1423 H1479 0.930 . S
C1424 N1425 1.314 . S
C1424 C1429 1.353 . S
C1424 H1430 0.930 . S
N1425 Li1408 1.990 . S
N1425 C1424 1.314 . S
N1425 C1427 1.279 . S
C1426 C1427 1.358 . S
C1426 C1428 1.356 . S
C1426 H1480 0.930 . S
C1427 N1425 1.279 . S
C1427 C1426 1.358 . S
C1427 H1431 0.930 . S
C1428 C1426 1.356 . S
C1428 C1429 1.348 . S
C1429 C1424 1.353 . S
C1429 C1428 1.348 . S
C1429 H1481 0.929 . S
H1430 C1424 0.930 . S
H1431 C1427 0.930 . S
C1432 N1433 1.314 . S
C1432 C1434 1.353 . S
C1432 H1438 0.930 . S
N1433 Li1409 1.990 . S
N1433 C1432 1.314 . S
N1433 C1436 1.279 . S
C1434 C1432 1.353 . S
C1434 C1437 1.348 . S
C1434 H1482 0.929 . S
C1435 C1436 1.358 . S
C1435 C1437 1.356 . S
C1435 H1483 0.930 . S
C1436 N1433 1.279 . S
C1436 C1435 1.358 . S
C1436 H1439 0.930 . S
C1437 C1434 1.348 . S
C1437 C1435 1.356 . S
H1438 C1432 0.930 . S
H1439 C1436 0.930 . S
C1440 C1442 1.348 . S
C1440 C1443 1.356 . S
C1440 O1470 1.325 . S
N1441 C1444 1.314 . S
N1441 C1445 1.279 . S
C1442 C1440 1.348 . S
C1442 C1444 1.353 . S
C1442 H1484 0.929 . S
C1443 C1440 1.356 . S
C1443 C1445 1.358 . S
C1443 H1485 0.930 . S
C1444 N1441 1.314 . S
C1444 C1442 1.353 . S
C1444 H1486 0.930 . S
C1445 N1441 1.279 . S
C1445 C1443 1.358 . S
C1445 H1487 0.930 . S
C1446 C1447 1.348 . S
C1446 C1448 1.356 . S
C1446 O1471 1.325 . S
C1447 C1446 1.348 . S
C1447 C1449 1.353 . S
C1447 H1488 0.929 . S
C1448 C1446 1.356 . S
C1448 C1450 1.358 . S
C1448 H1489 0.930 . S
C1449 C1447 1.353 . S
C1449 N1451 1.314 . S
C1449 H1490 0.930 . S
C1450 C1448 1.358 . S
C1450 N1451 1.279 . S
C1450 H1491 0.930 . S
N1451 C1449 1.314 . S
N1451 C1450 1.279 . S
C1452 C1454 1.353 . S
C1452 N1455 1.314 . S
C1452 H1458 0.930 . S
C1453 N1455 1.279 . S
C1453 C1456 1.358 . S
C1453 H1459 0.930 . S
C1454 C1452 1.353 . S
C1454 C1457 1.348 . S
C1454 H1492 0.929 . S
N1455 Li1410 1.990 . S
N1455 C1452 1.314 . S
N1455 C1453 1.279 . S
C1456 C1453 1.358 . S
C1456 C1457 1.356 . S
C1456 H1493 0.930 . S
C1457 C1454 1.348 . S
C1457 C1456 1.356 . S
H1458 C1452 0.930 . S
H1459 C1453 0.930 . S
C1460 N1461 1.314 . S
C1460 C1462 1.353 . S
C1460 H1466 0.930 . S
N1461 Li1411 1.990 . S
N1461 C1460 1.314 . S
N1461 C1464 1.279 . S
C1462 C1460 1.353 . S
C1462 C1465 1.348 . S
C1462 H1494 0.929 . S
C1463 C1464 1.358 . S
C1463 C1465 1.356 . S
C1463 H1495 0.930 . S
C1464 N1461 1.279 . S
C1464 C1463 1.358 . S
C1464 H1467 0.930 . S
C1465 C1462 1.348 . S
C1465 C1463 1.356 . S
H1466 C1460 0.930 . S
H1467 C1464 0.930 . S
O1468 Li1408 1.956 . S
O1468 Li1409 1.970 . S
O1468 Li1410 1.961 . S
O1468 C1412 1.325 . S
O1469 Li1408 1.970 . S
O1469 Li1409 1.956 . S
O1469 Li1411 1.961 . S
O1469 C1418 1.325 . S
O1470 Li1408 1.961 . S
O1470 Li1410 1.956 . S
O1470 Li1411 1.970 . S
O1470 C1440 1.325 . S
O1471 Li1409 1.961 . S
O1471 Li1410 1.970 . S
O1471 Li1411 1.956 . S
O1471 C1446 1.325 . S
H1472 C1414 0.929 . S
H1473 C1415 0.930 . S
H1474 C1416 0.930 . S
H1475 C1417 0.930 . S
H1476 C1419 0.930 . S
H1477 C1421 0.929 . S
H1478 C1422 0.930 . S
H1479 C1423 0.930 . S
H1480 C1426 0.930 . S
H1481 C1429 0.929 . S
H1482 C1434 0.929 . S
H1483 C1435 0.930 . S
H1484 C1442 0.929 . S
H1485 C1443 0.930 . S
H1486 C1444 0.930 . S
H1487 C1445 0.930 . S
H1488 C1447 0.929 . S
H1489 C1448 0.930 . S
H1490 C1449 0.930 . S
H1491 C1450 0.930 . S
H1492 C1454 0.929 . S
H1493 C1456 0.930 . S
H1494 C1462 0.929 . S
H1495 C1463 0.930 . S
Li1496 N1513 1.990 . S
Li1496 O1556 1.956 . S
Li1496 O1557 1.970 . S
Li1496 O1558 1.961 . S
Li1497 N1521 1.990 . S
Li1497 O1556 1.970 . S
Li1497 O1557 1.956 . S
Li1497 O1559 1.961 . S
Li1498 N1543 1.990 . S
Li1498 O1556 1.961 . S
Li1498 O1558 1.956 . S
Li1498 O1559 1.970 . S
Li1499 N1549 1.990 . S
Li1499 O1557 1.961 . S
Li1499 O1558 1.970 . S
Li1499 O1559 1.956 . S
C1500 C1502 1.348 . S
C1500 C1503 1.356 . S
C1500 O1556 1.325 . S
N1501 C1504 1.314 . S
N1501 C1505 1.279 . S
C1502 C1500 1.348 . S
C1502 C1504 1.353 . S
C1502 H1560 0.929 . S
C1503 C1500 1.356 . S
C1503 C1505 1.358 . S
C1503 H1561 0.930 . S
C1504 N1501 1.314 . S
C1504 C1502 1.353 . S
C1504 H1562 0.930 . S
C1505 N1501 1.279 . S
C1505 C1503 1.358 . S
C1505 H1563 0.930 . S
C1506 C1509 1.348 . S
C1506 C1510 1.356 . S
C1506 O1557 1.325 . S
C1507 N1508 1.279 . S
C1507 C1510 1.358 . S
C1507 H1564 0.930 . S
N1508 C1507 1.279 . S
N1508 C1511 1.314 . S
C1509 C1506 1.348 . S
C1509 C1511 1.353 . S
C1509 H1565 0.929 . S
C1510 C1506 1.356 . S
C1510 C1507 1.358 . S
C1510 H1566 0.930 . S
C1511 N1508 1.314 . S
C1511 C1509 1.353 . S
C1511 H1567 0.930 . S
C1512 N1513 1.314 . S
C1512 C1517 1.353 . S
C1512 H1518 0.930 . S
N1513 Li1496 1.990 . S
N1513 C1512 1.314 . S
N1513 C1515 1.279 . S
C1514 C1515 1.358 . S
C1514 C1516 1.356 . S
C1514 H1568 0.930 . S
C1515 N1513 1.279 . S
C1515 C1514 1.358 . S
C1515 H1519 0.930 . S
C1516 C1514 1.356 . S
C1516 C1517 1.348 . S
C1517 C1512 1.353 . S
C1517 C1516 1.348 . S
C1517 H1569 0.929 . S
H1518 C1512 0.930 . S
H1519 C1515 0.930 . S
C1520 N1521 1.314 . S
C1520 C1522 1.353 . S
C1520 H1526 0.930 . S
N1521 Li1497 1.990 . S
N1521 C1520 1.314 . S
N1521 C1524 1.279 . S
C1522 C1520 1.353 . S
C1522 C1525 1.348 . S
C1522 H1570 0.929 . S
C1523 C1524 1.358 . S
C1523 C1525 1.356 . S
C1523 H1571 0.930 . S
C1524 N1521 1.279 . S
C1524 C1523 1.358 . S
C1524 H1527 0.930 . S
C1525 C1522 1.348 . S
C1525 C1523 1.356 . S
H1526 C1520 0.930 . S
H1527 C1524 0.930 . S
C1528 C1530 1.348 . S
C1528 C1531 1.356 . S
C1528 O1558 1.325 . S
N1529 C1532 1.314 . S
N1529 C1533 1.279 . S
C1530 C1528 1.348 . S
C1530 C1532 1.353 . S
C1530 H1572 0.929 . S
C1531 C1528 1.356 . S
C1531 C1533 1.358 . S
C1531 H1573 0.930 . S
C1532 N1529 1.314 . S
C1532 C1530 1.353 . S
C1532 H1574 0.930 . S
C1533 N1529 1.279 . S
C1533 C1531 1.358 . S
C1533 H1575 0.930 . S
C1534 C1535 1.348 . S
C1534 C1536 1.356 . S
C1534 O1559 1.325 . S
C1535 C1534 1.348 . S
C1535 C1537 1.353 . S
C1535 H1576 0.929 . S
C1536 C1534 1.356 . S
C1536 C1538 1.358 . S
C1536 H1577 0.930 . S
C1537 C1535 1.353 . S
C1537 N1539 1.314 . S
C1537 H1578 0.930 . S
C1538 C1536 1.358 . S
C1538 N1539 1.279 . S
C1538 H1579 0.930 . S
N1539 C1537 1.314 . S
N1539 C1538 1.279 . S
C1540 C1542 1.353 . S
C1540 N1543 1.314 . S
C1540 H1546 0.930 . S
C1541 N1543 1.279 . S
C1541 C1544 1.358 . S
C1541 H1547 0.930 . S
C1542 C1540 1.353 . S
C1542 C1545 1.348 . S
C1542 H1580 0.929 . S
N1543 Li1498 1.990 . S
N1543 C1540 1.314 . S
N1543 C1541 1.279 . S
C1544 C1541 1.358 . S
C1544 C1545 1.356 . S
C1544 H1581 0.930 . S
C1545 C1542 1.348 . S
C1545 C1544 1.356 . S
H1546 C1540 0.930 . S
H1547 C1541 0.930 . S
C1548 N1549 1.314 . S
C1548 C1550 1.353 . S
C1548 H1554 0.930 . S
N1549 Li1499 1.990 . S
N1549 C1548 1.314 . S
N1549 C1552 1.279 . S
C1550 C1548 1.353 . S
C1550 C1553 1.348 . S
C1550 H1582 0.929 . S
C1551 C1552 1.358 . S
C1551 C1553 1.356 . S
C1551 H1583 0.930 . S
C1552 N1549 1.279 . S
C1552 C1551 1.358 . S
C1552 H1555 0.930 . S
C1553 C1550 1.348 . S
C1553 C1551 1.356 . S
H1554 C1548 0.930 . S
H1555 C1552 0.930 . S
O1556 Li1496 1.956 . S
O1556 Li1497 1.970 . S
O1556 Li1498 1.961 . S
O1556 C1500 1.325 . S
O1557 Li1496 1.970 . S
O1557 Li1497 1.956 . S
O1557 Li1499 1.961 . S
O1557 C1506 1.325 . S
O1558 Li1496 1.961 . S
O1558 Li1498 1.956 . S
O1558 Li1499 1.970 . S
O1558 C1528 1.325 . S
O1559 Li1497 1.961 . S
O1559 Li1498 1.970 . S
O1559 Li1499 1.956 . S
O1559 C1534 1.325 . S
H1560 C1502 0.929 . S
H1561 C1503 0.930 . S
H1562 C1504 0.930 . S
H1563 C1505 0.930 . S
H1564 C1507 0.930 . S
H1565 C1509 0.929 . S
H1566 C1510 0.930 . S
H1567 C1511 0.930 . S
H1568 C1514 0.930 . S
H1569 C1517 0.929 . S
H1570 C1522 0.929 . S
H1571 C1523 0.930 . S
H1572 C1530 0.929 . S
H1573 C1531 0.930 . S
H1574 C1532 0.930 . S
H1575 C1533 0.930 . S
H1576 C1535 0.929 . S
H1577 C1536 0.930 . S
H1578 C1537 0.930 . S
H1579 C1538 0.930 . S
H1580 C1542 0.929 . S
H1581 C1544 0.930 . S
H1582 C1550 0.929 . S
H1583 C1551 0.930 . S
Li1584 N1601 1.990 . S
Li1584 O1644 1.956 . S
Li1584 O1645 1.970 . S
Li1584 O1646 1.961 . S
Li1585 N1609 1.990 . S
Li1585 O1644 1.970 . S
Li1585 O1645 1.956 . S
Li1585 O1647 1.961 . S
Li1586 N1631 1.990 . S
Li1586 O1644 1.961 . S
Li1586 O1646 1.956 . S
Li1586 O1647 1.970 . S
Li1587 N1637 1.990 . S
Li1587 O1645 1.961 . S
Li1587 O1646 1.970 . S
Li1587 O1647 1.956 . S
C1588 C1590 1.348 . S
C1588 C1591 1.356 . S
C1588 O1644 1.325 . S
N1589 C1592 1.314 . S
N1589 C1593 1.279 . S
C1590 C1588 1.348 . S
C1590 C1592 1.353 . S
C1590 H1648 0.929 . S
C1591 C1588 1.356 . S
C1591 C1593 1.358 . S
C1591 H1649 0.930 . S
C1592 N1589 1.314 . S
C1592 C1590 1.353 . S
C1592 H1650 0.930 . S
C1593 N1589 1.279 . S
C1593 C1591 1.358 . S
C1593 H1651 0.930 . S
C1594 C1597 1.348 . S
C1594 C1598 1.356 . S
C1594 O1645 1.325 . S
C1595 N1596 1.279 . S
C1595 C1598 1.358 . S
C1595 H1652 0.930 . S
N1596 C1595 1.279 . S
N1596 C1599 1.314 . S
C1597 C1594 1.348 . S
C1597 C1599 1.353 . S
C1597 H1653 0.929 . S
C1598 C1594 1.356 . S
C1598 C1595 1.358 . S
C1598 H1654 0.930 . S
C1599 N1596 1.314 . S
C1599 C1597 1.353 . S
C1599 H1655 0.930 . S
C1600 N1601 1.314 . S
C1600 C1605 1.353 . S
C1600 H1606 0.930 . S
N1601 Li1584 1.990 . S
N1601 C1600 1.314 . S
N1601 C1603 1.279 . S
C1602 C1603 1.358 . S
C1602 C1604 1.356 . S
C1602 H1656 0.930 . S
C1603 N1601 1.279 . S
C1603 C1602 1.358 . S
C1603 H1607 0.930 . S
C1604 C1602 1.356 . S
C1604 C1605 1.348 . S
C1605 C1600 1.353 . S
C1605 C1604 1.348 . S
C1605 H1657 0.929 . S
H1606 C1600 0.930 . S
H1607 C1603 0.930 . S
C1608 N1609 1.314 . S
C1608 C1610 1.353 . S
C1608 H1614 0.930 . S
N1609 Li1585 1.990 . S
N1609 C1608 1.314 . S
N1609 C1612 1.279 . S
C1610 C1608 1.353 . S
C1610 C1613 1.348 . S
C1610 H1658 0.929 . S
C1611 C1612 1.358 . S
C1611 C1613 1.356 . S
C1611 H1659 0.930 . S
C1612 N1609 1.279 . S
C1612 C1611 1.358 . S
C1612 H1615 0.930 . S
C1613 C1610 1.348 . S
C1613 C1611 1.356 . S
H1614 C1608 0.930 . S
H1615 C1612 0.930 . S
C1616 C1618 1.348 . S
C1616 C1619 1.356 . S
C1616 O1646 1.325 . S
N1617 C1620 1.314 . S
N1617 C1621 1.279 . S
C1618 C1616 1.348 . S
C1618 C1620 1.353 . S
C1618 H1660 0.929 . S
C1619 C1616 1.356 . S
C1619 C1621 1.358 . S
C1619 H1661 0.930 . S
C1620 N1617 1.314 . S
C1620 C1618 1.353 . S
C1620 H1662 0.930 . S
C1621 N1617 1.279 . S
C1621 C1619 1.358 . S
C1621 H1663 0.930 . S
C1622 C1623 1.348 . S
C1622 C1624 1.356 . S
C1622 O1647 1.325 . S
C1623 C1622 1.348 . S
C1623 C1625 1.353 . S
C1623 H1664 0.929 . S
C1624 C1622 1.356 . S
C1624 C1626 1.358 . S
C1624 H1665 0.930 . S
C1625 C1623 1.353 . S
C1625 N1627 1.314 . S
C1625 H1666 0.930 . S
C1626 C1624 1.358 . S
C1626 N1627 1.279 . S
C1626 H1667 0.930 . S
N1627 C1625 1.314 . S
N1627 C1626 1.279 . S
C1628 C1630 1.353 . S
C1628 N1631 1.314 . S
C1628 H1634 0.930 . S
C1629 N1631 1.279 . S
C1629 C1632 1.358 . S
C1629 H1635 0.930 . S
C1630 C1628 1.353 . S
C1630 C1633 1.348 . S
C1630 H1668 0.929 . S
N1631 Li1586 1.990 . S
N1631 C1628 1.314 . S
N1631 C1629 1.279 . S
C1632 C1629 1.358 . S
C1632 C1633 1.356 . S
C1632 H1669 0.930 . S
C1633 C1630 1.348 . S
C1633 C1632 1.356 . S
H1634 C1628 0.930 . S
H1635 C1629 0.930 . S
C1636 N1637 1.314 . S
C1636 C1638 1.353 . S
C1636 H1642 0.930 . S
N1637 Li1587 1.990 . S
N1637 C1636 1.314 . S
N1637 C1640 1.279 . S
C1638 C1636 1.353 . S
C1638 C1641 1.348 . S
C1638 H1670 0.929 . S
C1639 C1640 1.358 . S
C1639 C1641 1.356 . S
C1639 H1671 0.930 . S
C1640 N1637 1.279 . S
C1640 C1639 1.358 . S
C1640 H1643 0.930 . S
C1641 C1638 1.348 . S
C1641 C1639 1.356 . S
H1642 C1636 0.930 . S
H1643 C1640 0.930 . S
O1644 Li1584 1.956 . S
O1644 Li1585 1.970 . S
O1644 Li1586 1.961 . S
O1644 C1588 1.325 . S
O1645 Li1584 1.970 . S
O1645 Li1585 1.956 . S
O1645 Li1587 1.961 . S
O1645 C1594 1.325 . S
O1646 Li1584 1.961 . S
O1646 Li1586 1.956 . S
O1646 Li1587 1.970 . S
O1646 C1616 1.325 . S
O1647 Li1585 1.961 . S
O1647 Li1586 1.970 . S
O1647 Li1587 1.956 . S
O1647 C1622 1.325 . S
H1648 C1590 0.929 . S
H1649 C1591 0.930 . S
H1650 C1592 0.930 . S
H1651 C1593 0.930 . S
H1652 C1595 0.930 . S
H1653 C1597 0.929 . S
H1654 C1598 0.930 . S
H1655 C1599 0.930 . S
H1656 C1602 0.930 . S
H1657 C1605 0.929 . S
H1658 C1610 0.929 . S
H1659 C1611 0.930 . S
H1660 C1618 0.929 . S
H1661 C1619 0.930 . S
H1662 C1620 0.930 . S
H1663 C1621 0.930 . S
H1664 C1623 0.929 . S
H1665 C1624 0.930 . S
H1666 C1625 0.930 . S
H1667 C1626 0.930 . S
H1668 C1630 0.929 . S
H1669 C1632 0.930 . S
H1670 C1638 0.929 . S
H1671 C1639 0.930 . S
Li1672 N1689 1.990 . S
Li1672 O1732 1.956 . S
Li1672 O1733 1.970 . S
Li1672 O1734 1.961 . S
Li1673 N1697 1.990 . S
Li1673 O1732 1.970 . S
Li1673 O1733 1.956 . S
Li1673 O1735 1.961 . S
Li1674 N1719 1.990 . S
Li1674 O1732 1.961 . S
Li1674 O1734 1.956 . S
Li1674 O1735 1.970 . S
Li1675 N1725 1.990 . S
Li1675 O1733 1.961 . S
Li1675 O1734 1.970 . S
Li1675 O1735 1.956 . S
C1676 C1678 1.348 . S
C1676 C1679 1.357 1_655 S
C1676 O1732 1.325 . S
N1677 C1680 1.314 . S
N1677 C1681 1.279 . S
C1678 C1676 1.348 . S
C1678 C1680 1.353 1_655 S
C1678 H1736 0.929 . S
C1679 C1676 1.357 1_455 S
C1679 C1681 1.355 . S
C1679 H1737 0.932 1_455 S
C1680 N1677 1.314 . S
C1680 C1678 1.353 1_455 S
C1680 H1738 0.930 . S
C1681 N1677 1.279 . S
C1681 C1679 1.355 . S
C1681 H1739 0.930 . S
C1682 C1685 1.348 . S
C1682 C1686 1.356 . S
C1682 O1733 1.325 . S
C1683 N1684 1.279 . S
C1683 C1686 1.358 . S
C1683 H1740 0.930 . S
N1684 C1683 1.279 . S
N1684 C1687 1.314 . S
C1685 C1682 1.348 . S
C1685 C1687 1.353 . S
C1685 H1741 0.929 . S
C1686 C1682 1.356 . S
C1686 C1683 1.358 . S
C1686 H1742 0.930 . S
C1687 N1684 1.314 . S
C1687 C1685 1.353 . S
C1687 H1743 0.930 . S
C1688 N1689 1.314 . S
C1688 C1693 1.353 . S
C1688 H1694 0.930 . S
N1689 Li1672 1.990 . S
N1689 C1688 1.314 . S
N1689 C1691 1.279 . S
C1690 C1691 1.358 . S
C1690 C1692 1.356 . S
C1690 H1744 0.930 . S
C1691 N1689 1.279 . S
C1691 C1690 1.358 . S
C1691 H1695 0.930 . S
C1692 C1690 1.356 . S
C1692 C1693 1.348 . S
C1693 C1688 1.353 . S
C1693 C1692 1.348 . S
C1693 H1745 0.929 . S
H1694 C1688 0.930 . S
H1695 C1691 0.930 . S
C1696 N1697 1.314 . S
C1696 C1698 1.353 . S
C1696 H1702 0.930 . S
N1697 Li1673 1.990 . S
N1697 C1696 1.314 . S
N1697 C1700 1.279 . S
C1698 C1696 1.353 . S
C1698 C1701 1.348 . S
C1698 H1746 0.929 . S
C1699 C1700 1.358 . S
C1699 C1701 1.356 . S
C1699 H1747 0.930 . S
C1700 N1697 1.279 . S
C1700 C1699 1.358 . S
C1700 H1703 0.930 . S
C1701 C1698 1.348 . S
C1701 C1699 1.356 . S
H1702 C1696 0.930 . S
H1703 C1700 0.930 . S
C1704 C1706 1.348 . S
C1704 C1707 1.356 . S
C1704 O1734 1.325 . S
N1705 C1708 1.314 . S
N1705 C1709 1.279 . S
C1706 C1704 1.348 . S
C1706 C1708 1.353 . S
C1706 H1748 0.929 . S
C1707 C1704 1.356 . S
C1707 C1709 1.358 . S
C1707 H1749 0.930 . S
C1708 N1705 1.314 . S
C1708 C1706 1.353 . S
C1708 H1750 0.930 . S
C1709 N1705 1.279 . S
C1709 C1707 1.358 . S
C1709 H1751 0.930 . S
C1710 C1711 1.348 . S
C1710 C1712 1.356 . S
C1710 O1735 1.325 . S
C1711 C1710 1.348 . S
C1711 C1713 1.353 . S
C1711 H1752 0.929 . S
C1712 C1710 1.356 . S
C1712 C1714 1.358 . S
C1712 H1753 0.930 . S
C1713 C1711 1.353 . S
C1713 N1715 1.314 . S
C1713 H1754 0.930 . S
C1714 C1712 1.358 . S
C1714 N1715 1.279 . S
C1714 H1755 0.930 . S
N1715 C1713 1.314 . S
N1715 C1714 1.279 . S
C1716 C1718 1.353 1_655 S
C1716 N1719 1.314 . S
C1716 H1722 0.930 . S
C1717 N1719 1.279 . S
C1717 C1720 1.358 . S
C1717 H1723 0.930 . S
C1718 C1716 1.353 1_455 S
C1718 C1721 1.348 . S
C1718 H1756 0.929 . S
N1719 Li1674 1.990 . S
N1719 C1716 1.314 . S
N1719 C1717 1.279 . S
C1720 C1717 1.358 . S
C1720 C1721 1.356 1_655 S
C1720 H1757 0.930 . S
C1721 C1718 1.348 . S
C1721 C1720 1.356 1_455 S
H1722 C1716 0.930 . S
H1723 C1717 0.930 . S
C1724 N1725 1.314 . S
C1724 C1726 1.353 . S
C1724 H1730 0.930 . S
N1725 Li1675 1.990 . S
N1725 C1724 1.314 . S
N1725 C1728 1.279 . S
C1726 C1724 1.353 . S
C1726 C1729 1.348 . S
C1726 H1758 0.929 . S
C1727 C1728 1.358 . S
C1727 C1729 1.356 . S
C1727 H1759 0.930 . S
C1728 N1725 1.279 . S
C1728 C1727 1.358 . S
C1728 H1731 0.930 . S
C1729 C1726 1.348 . S
C1729 C1727 1.356 . S
H1730 C1724 0.930 . S
H1731 C1728 0.930 . S
O1732 Li1672 1.956 . S
O1732 Li1673 1.970 . S
O1732 Li1674 1.961 . S
O1732 C1676 1.325 . S
O1733 Li1672 1.970 . S
O1733 Li1673 1.956 . S
O1733 Li1675 1.961 . S
O1733 C1682 1.325 . S
O1734 Li1672 1.961 . S
O1734 Li1674 1.956 . S
O1734 Li1675 1.970 . S
O1734 C1704 1.325 . S
O1735 Li1673 1.961 . S
O1735 Li1674 1.970 . S
O1735 Li1675 1.956 . S
O1735 C1710 1.325 . S
H1736 C1678 0.929 . S
H1737 C1679 0.932 1_655 S
H1738 C1680 0.930 . S
H1739 C1681 0.930 . S
H1740 C1683 0.930 . S
H1741 C1685 0.929 . S
H1742 C1686 0.930 . S
H1743 C1687 0.930 . S
H1744 C1690 0.930 . S
H1745 C1693 0.929 . S
H1746 C1698 0.929 . S
H1747 C1699 0.930 . S
H1748 C1706 0.929 . S
H1749 C1707 0.930 . S
H1750 C1708 0.930 . S
H1751 C1709 0.930 . S
H1752 C1711 0.929 . S
H1753 C1712 0.930 . S
H1754 C1713 0.930 . S
H1755 C1714 0.930 . S
H1756 C1718 0.929 . S
H1757 C1720 0.930 . S
H1758 C1726 0.929 . S
H1759 C1727 0.930 . S
Li1760 N1777 1.990 . S
Li1760 O1820 1.956 . S
Li1760 O1821 1.970 . S
Li1760 O1822 1.961 . S
Li1761 N1785 1.990 . S
Li1761 O1820 1.970 . S
Li1761 O1821 1.956 . S
Li1761 O1823 1.961 . S
Li1762 N1807 1.990 . S
Li1762 O1820 1.961 . S
Li1762 O1822 1.956 . S
Li1762 O1823 1.970 . S
Li1763 N1813 1.990 . S
Li1763 O1821 1.961 . S
Li1763 O1822 1.970 . S
Li1763 O1823 1.956 . S
C1764 C1766 1.348 . S
C1764 C1767 1.356 . S
C1764 O1820 1.325 . S
N1765 C1768 1.314 . S
N1765 C1769 1.279 . S
C1766 C1764 1.348 . S
C1766 C1768 1.353 . S
C1766 H1824 0.929 . S
C1767 C1764 1.356 . S
C1767 C1769 1.358 . S
C1767 H1825 0.930 . S
C1768 N1765 1.314 . S
C1768 C1766 1.353 . S
C1768 H1826 0.930 . S
C1769 N1765 1.279 . S
C1769 C1767 1.358 . S
C1769 H1827 0.930 . S
C1770 C1773 1.348 . S
C1770 C1774 1.356 . S
C1770 O1821 1.325 . S
C1771 N1772 1.279 . S
C1771 C1774 1.358 . S
C1771 H1828 0.930 . S
N1772 C1771 1.279 . S
N1772 C1775 1.314 . S
C1773 C1770 1.348 . S
C1773 C1775 1.353 . S
C1773 H1829 0.929 . S
C1774 C1770 1.356 . S
C1774 C1771 1.358 . S
C1774 H1830 0.930 . S
C1775 N1772 1.314 . S
C1775 C1773 1.353 . S
C1775 H1831 0.930 . S
C1776 N1777 1.314 . S
C1776 C1781 1.353 . S
C1776 H1782 0.930 . S
N1777 Li1760 1.990 . S
N1777 C1776 1.314 . S
N1777 C1779 1.279 . S
C1778 C1779 1.358 . S
C1778 C1780 1.356 . S
C1778 H1832 0.930 . S
C1779 N1777 1.279 . S
C1779 C1778 1.358 . S
C1779 H1783 0.930 . S
C1780 C1778 1.356 . S
C1780 C1781 1.348 . S
C1781 C1776 1.353 . S
C1781 C1780 1.348 . S
C1781 H1833 0.929 . S
H1782 C1776 0.930 . S
H1783 C1779 0.930 . S
C1784 N1785 1.314 . S
C1784 C1786 1.353 . S
C1784 H1790 0.930 . S
N1785 Li1761 1.990 . S
N1785 C1784 1.314 . S
N1785 C1788 1.279 . S
C1786 C1784 1.353 . S
C1786 C1789 1.348 . S
C1786 H1834 0.929 . S
C1787 C1788 1.358 . S
C1787 C1789 1.356 . S
C1787 H1835 0.930 . S
C1788 N1785 1.279 . S
C1788 C1787 1.358 . S
C1788 H1791 0.930 . S
C1789 C1786 1.348 . S
C1789 C1787 1.356 . S
H1790 C1784 0.930 . S
H1791 C1788 0.930 . S
C1792 C1794 1.348 . S
C1792 C1795 1.356 . S
C1792 O1822 1.325 . S
N1793 C1796 1.314 . S
N1793 C1797 1.279 . S
C1794 C1792 1.348 . S
C1794 C1796 1.353 . S
C1794 H1836 0.929 . S
C1795 C1792 1.356 . S
C1795 C1797 1.358 . S
C1795 H1837 0.930 . S
C1796 N1793 1.314 . S
C1796 C1794 1.353 . S
C1796 H1838 0.930 . S
C1797 N1793 1.279 . S
C1797 C1795 1.358 . S
C1797 H1839 0.930 . S
C1798 C1799 1.348 . S
C1798 C1800 1.356 . S
C1798 O1823 1.325 . S
C1799 C1798 1.348 . S
C1799 C1801 1.353 . S
C1799 H1840 0.929 . S
C1800 C1798 1.356 . S
C1800 C1802 1.358 . S
C1800 H1841 0.930 . S
C1801 C1799 1.353 . S
C1801 N1803 1.314 . S
C1801 H1842 0.930 . S
C1802 C1800 1.358 . S
C1802 N1803 1.279 . S
C1802 H1843 0.930 . S
N1803 C1801 1.314 . S
N1803 C1802 1.279 . S
C1804 C1806 1.353 . S
C1804 N1807 1.314 . S
C1804 H1810 0.930 . S
C1805 N1807 1.279 . S
C1805 C1808 1.358 . S
C1805 H1811 0.930 . S
C1806 C1804 1.353 . S
C1806 C1809 1.348 . S
C1806 H1844 0.929 . S
N1807 Li1762 1.990 . S
N1807 C1804 1.314 . S
N1807 C1805 1.279 . S
C1808 C1805 1.358 . S
C1808 C1809 1.356 . S
C1808 H1845 0.930 . S
C1809 C1806 1.348 . S
C1809 C1808 1.356 . S
H1810 C1804 0.930 . S
H1811 C1805 0.930 . S
C1812 N1813 1.314 . S
C1812 C1814 1.353 . S
C1812 H1818 0.930 . S
N1813 Li1763 1.990 . S
N1813 C1812 1.314 . S
N1813 C1816 1.279 . S
C1814 C1812 1.353 . S
C1814 C1817 1.348 . S
C1814 H1846 0.929 . S
C1815 C1816 1.358 . S
C1815 C1817 1.356 . S
C1815 H1847 0.930 . S
C1816 N1813 1.279 . S
C1816 C1815 1.358 . S
C1816 H1819 0.930 . S
C1817 C1814 1.348 . S
C1817 C1815 1.356 . S
H1818 C1812 0.930 . S
H1819 C1816 0.930 . S
O1820 Li1760 1.956 . S
O1820 Li1761 1.970 . S
O1820 Li1762 1.961 . S
O1820 C1764 1.325 . S
O1821 Li1760 1.970 . S
O1821 Li1761 1.956 . S
O1821 Li1763 1.961 . S
O1821 C1770 1.325 . S
O1822 Li1760 1.961 . S
O1822 Li1762 1.956 . S
O1822 Li1763 1.970 . S
O1822 C1792 1.325 . S
O1823 Li1761 1.961 . S
O1823 Li1762 1.970 . S
O1823 Li1763 1.956 . S
O1823 C1798 1.325 . S
H1824 C1766 0.929 . S
H1825 C1767 0.930 . S
H1826 C1768 0.930 . S
H1827 C1769 0.930 . S
H1828 C1771 0.930 . S
H1829 C1773 0.929 . S
H1830 C1774 0.930 . S
H1831 C1775 0.930 . S
H1832 C1778 0.930 . S
H1833 C1781 0.929 . S
H1834 C1786 0.929 . S
H1835 C1787 0.930 . S
H1836 C1794 0.929 . S
H1837 C1795 0.930 . S
H1838 C1796 0.930 . S
H1839 C1797 0.930 . S
H1840 C1799 0.929 . S
H1841 C1800 0.930 . S
H1842 C1801 0.930 . S
H1843 C1802 0.930 . S
H1844 C1806 0.929 . S
H1845 C1808 0.930 . S
H1846 C1814 0.929 . S
H1847 C1815 0.930 . S
Li1848 N1865 1.990 . S
Li1848 O1908 1.956 . S
Li1848 O1909 1.970 . S
Li1848 O1910 1.961 . S
Li1849 N1873 1.990 . S
Li1849 O1908 1.970 . S
Li1849 O1909 1.956 . S
Li1849 O1911 1.961 . S
Li1850 N1895 1.990 . S
Li1850 O1908 1.961 . S
Li1850 O1910 1.956 . S
Li1850 O1911 1.970 . S
Li1851 N1901 1.990 . S
Li1851 O1909 1.961 . S
Li1851 O1910 1.970 . S
Li1851 O1911 1.956 . S
C1852 C1854 1.348 . S
C1852 C1855 1.356 . S
C1852 O1908 1.325 . S
N1853 C1856 1.314 . S
N1853 C1857 1.279 . S
C1854 C1852 1.348 . S
C1854 C1856 1.353 . S
C1854 H1912 0.929 . S
C1855 C1852 1.356 . S
C1855 C1857 1.358 . S
C1855 H1913 0.930 . S
C1856 N1853 1.314 . S
C1856 C1854 1.353 . S
C1856 H1914 0.930 . S
C1857 N1853 1.279 . S
C1857 C1855 1.358 . S
C1857 H1915 0.930 . S
C1858 C1861 1.348 . S
C1858 C1862 1.356 . S
C1858 O1909 1.325 . S
C1859 N1860 1.279 . S
C1859 C1862 1.358 . S
C1859 H1916 0.930 . S
N1860 C1859 1.279 . S
N1860 C1863 1.314 . S
C1861 C1858 1.348 . S
C1861 C1863 1.353 . S
C1861 H1917 0.929 . S
C1862 C1858 1.356 . S
C1862 C1859 1.358 . S
C1862 H1918 0.930 . S
C1863 N1860 1.314 . S
C1863 C1861 1.353 . S
C1863 H1919 0.930 . S
C1864 N1865 1.314 . S
C1864 C1869 1.353 . S
C1864 H1870 0.930 . S
N1865 Li1848 1.990 . S
N1865 C1864 1.314 . S
N1865 C1867 1.279 . S
C1866 C1867 1.358 . S
C1866 C1868 1.356 . S
C1866 H1920 0.930 . S
C1867 N1865 1.279 . S
C1867 C1866 1.358 . S
C1867 H1871 0.930 . S
C1868 C1866 1.356 . S
C1868 C1869 1.348 . S
C1869 C1864 1.353 . S
C1869 C1868 1.348 . S
C1869 H1921 0.929 . S
H1870 C1864 0.930 . S
H1871 C1867 0.930 . S
C1872 N1873 1.314 . S
C1872 C1874 1.353 . S
C1872 H1878 0.930 . S
N1873 Li1849 1.990 . S
N1873 C1872 1.314 . S
N1873 C1876 1.279 . S
C1874 C1872 1.353 . S
C1874 C1877 1.348 . S
C1874 H1922 0.929 . S
C1875 C1876 1.358 . S
C1875 C1877 1.356 . S
C1875 H1923 0.930 . S
C1876 N1873 1.279 . S
C1876 C1875 1.358 . S
C1876 H1879 0.930 . S
C1877 C1874 1.348 . S
C1877 C1875 1.356 . S
H1878 C1872 0.930 . S
H1879 C1876 0.930 . S
C1880 C1882 1.348 . S
C1880 C1883 1.356 . S
C1880 O1910 1.325 . S
N1881 C1884 1.314 . S
N1881 C1885 1.279 . S
C1882 C1880 1.348 . S
C1882 C1884 1.353 . S
C1882 H1924 0.929 . S
C1883 C1880 1.356 . S
C1883 C1885 1.358 . S
C1883 H1925 0.930 . S
C1884 N1881 1.314 . S
C1884 C1882 1.353 . S
C1884 H1926 0.930 . S
C1885 N1881 1.279 . S
C1885 C1883 1.358 . S
C1885 H1927 0.930 . S
C1886 C1887 1.348 . S
C1886 C1888 1.356 . S
C1886 O1911 1.325 . S
C1887 C1886 1.348 . S
C1887 C1889 1.353 . S
C1887 H1928 0.929 . S
C1888 C1886 1.356 . S
C1888 C1890 1.358 . S
C1888 H1929 0.930 . S
C1889 C1887 1.353 . S
C1889 N1891 1.314 . S
C1889 H1930 0.930 . S
C1890 C1888 1.358 . S
C1890 N1891 1.279 . S
C1890 H1931 0.930 . S
N1891 C1889 1.314 . S
N1891 C1890 1.279 . S
C1892 C1894 1.353 . S
C1892 N1895 1.314 . S
C1892 H1898 0.930 . S
C1893 N1895 1.279 . S
C1893 C1896 1.358 . S
C1893 H1899 0.930 . S
C1894 C1892 1.353 . S
C1894 C1897 1.348 . S
C1894 H1932 0.929 . S
N1895 Li1850 1.990 . S
N1895 C1892 1.314 . S
N1895 C1893 1.279 . S
C1896 C1893 1.358 . S
C1896 C1897 1.356 . S
C1896 H1933 0.930 . S
C1897 C1894 1.348 . S
C1897 C1896 1.356 . S
H1898 C1892 0.930 . S
H1899 C1893 0.930 . S
C1900 N1901 1.314 . S
C1900 C1902 1.353 . S
C1900 H1906 0.930 . S
N1901 Li1851 1.990 . S
N1901 C1900 1.314 . S
N1901 C1904 1.279 . S
C1902 C1900 1.353 . S
C1902 C1905 1.348 . S
C1902 H1934 0.929 . S
C1903 C1904 1.358 . S
C1903 C1905 1.356 . S
C1903 H1935 0.930 . S
C1904 N1901 1.279 . S
C1904 C1903 1.358 . S
C1904 H1907 0.930 . S
C1905 C1902 1.348 . S
C1905 C1903 1.356 . S
H1906 C1900 0.930 . S
H1907 C1904 0.930 . S
O1908 Li1848 1.956 . S
O1908 Li1849 1.970 . S
O1908 Li1850 1.961 . S
O1908 C1852 1.325 . S
O1909 Li1848 1.970 . S
O1909 Li1849 1.956 . S
O1909 Li1851 1.961 . S
O1909 C1858 1.325 . S
O1910 Li1848 1.961 . S
O1910 Li1850 1.956 . S
O1910 Li1851 1.970 . S
O1910 C1880 1.325 . S
O1911 Li1849 1.961 . S
O1911 Li1850 1.970 . S
O1911 Li1851 1.956 . S
O1911 C1886 1.325 . S
H1912 C1854 0.929 . S
H1913 C1855 0.930 . S
H1914 C1856 0.930 . S
H1915 C1857 0.930 . S
H1916 C1859 0.930 . S
H1917 C1861 0.929 . S
H1918 C1862 0.930 . S
H1919 C1863 0.930 . S
H1920 C1866 0.930 . S
H1921 C1869 0.929 . S
H1922 C1874 0.929 . S
H1923 C1875 0.930 . S
H1924 C1882 0.929 . S
H1925 C1883 0.930 . S
H1926 C1884 0.930 . S
H1927 C1885 0.930 . S
H1928 C1887 0.929 . S
H1929 C1888 0.930 . S
H1930 C1889 0.930 . S
H1931 C1890 0.930 . S
H1932 C1894 0.929 . S
H1933 C1896 0.930 . S
H1934 C1902 0.929 . S
H1935 C1903 0.930 . S
Li1936 N1953 1.990 . S
Li1936 O1996 1.956 . S
Li1936 O1997 1.970 . S
Li1936 O1998 1.961 . S
Li1937 N1961 1.990 . S
Li1937 O1996 1.970 . S
Li1937 O1997 1.956 . S
Li1937 O1999 1.961 . S
Li1938 N1983 1.990 . S
Li1938 O1996 1.961 . S
Li1938 O1998 1.956 . S
Li1938 O1999 1.970 . S
Li1939 N1989 1.990 . S
Li1939 O1997 1.961 . S
Li1939 O1998 1.970 . S
Li1939 O1999 1.956 . S
C1940 C1942 1.348 . S
C1940 C1943 1.356 . S
C1940 O1996 1.325 . S
N1941 C1944 1.314 . S
N1941 C1945 1.279 . S
C1942 C1940 1.348 . S
C1942 C1944 1.353 . S
C1942 H2000 0.929 . S
C1943 C1940 1.356 . S
C1943 C1945 1.358 . S
C1943 H2001 0.930 . S
C1944 N1941 1.314 . S
C1944 C1942 1.353 . S
C1944 H2002 0.930 . S
C1945 N1941 1.279 . S
C1945 C1943 1.358 . S
C1945 H2003 0.930 . S
C1946 C1949 1.348 . S
C1946 C1950 1.356 . S
C1946 O1997 1.325 . S
C1947 N1948 1.279 . S
C1947 C1950 1.358 . S
C1947 H2004 0.930 . S
N1948 C1947 1.279 . S
N1948 C1951 1.314 . S
C1949 C1946 1.348 . S
C1949 C1951 1.353 . S
C1949 H2005 0.929 . S
C1950 C1946 1.356 . S
C1950 C1947 1.358 . S
C1950 H2006 0.930 . S
C1951 N1948 1.314 . S
C1951 C1949 1.353 . S
C1951 H2007 0.930 . S
C1952 N1953 1.314 . S
C1952 C1957 1.353 . S
C1952 H1958 0.930 . S
N1953 Li1936 1.990 . S
N1953 C1952 1.314 . S
N1953 C1955 1.279 . S
C1954 C1955 1.358 . S
C1954 C1956 1.356 . S
C1954 H2008 0.930 . S
C1955 N1953 1.279 . S
C1955 C1954 1.358 . S
C1955 H1959 0.930 . S
C1956 C1954 1.356 . S
C1956 C1957 1.348 . S
C1957 C1952 1.353 . S
C1957 C1956 1.348 . S
C1957 H2009 0.929 . S
H1958 C1952 0.930 . S
H1959 C1955 0.930 . S
C1960 N1961 1.314 . S
C1960 C1962 1.353 . S
C1960 H1966 0.930 . S
N1961 Li1937 1.990 . S
N1961 C1960 1.314 . S
N1961 C1964 1.279 . S
C1962 C1960 1.353 . S
C1962 C1965 1.348 . S
C1962 H2010 0.929 . S
C1963 C1964 1.358 . S
C1963 C1965 1.356 . S
C1963 H2011 0.930 . S
C1964 N1961 1.279 . S
C1964 C1963 1.358 . S
C1964 H1967 0.930 . S
C1965 C1962 1.348 . S
C1965 C1963 1.356 . S
H1966 C1960 0.930 . S
H1967 C1964 0.930 . S
C1968 C1970 1.348 . S
C1968 C1971 1.356 . S
C1968 O1998 1.325 . S
N1969 C1972 1.314 . S
N1969 C1973 1.279 . S
C1970 C1968 1.348 . S
C1970 C1972 1.353 . S
C1970 H2012 0.929 . S
C1971 C1968 1.356 . S
C1971 C1973 1.358 . S
C1971 H2013 0.930 . S
C1972 N1969 1.314 . S
C1972 C1970 1.353 . S
C1972 H2014 0.930 . S
C1973 N1969 1.279 . S
C1973 C1971 1.358 . S
C1973 H2015 0.930 . S
C1974 C1975 1.348 . S
C1974 C1976 1.356 . S
C1974 O1999 1.325 . S
C1975 C1974 1.348 . S
C1975 C1977 1.353 . S
C1975 H2016 0.929 . S
C1976 C1974 1.356 . S
C1976 C1978 1.358 . S
C1976 H2017 0.930 . S
C1977 C1975 1.353 . S
C1977 N1979 1.314 . S
C1977 H2018 0.930 . S
C1978 C1976 1.358 . S
C1978 N1979 1.279 . S
C1978 H2019 0.930 . S
N1979 C1977 1.314 . S
N1979 C1978 1.279 . S
C1980 C1982 1.353 . S
C1980 N1983 1.314 . S
C1980 H1986 0.930 . S
C1981 N1983 1.279 . S
C1981 C1984 1.358 . S
C1981 H1987 0.930 . S
C1982 C1980 1.353 . S
C1982 C1985 1.348 . S
C1982 H2020 0.929 . S
N1983 Li1938 1.990 . S
N1983 C1980 1.314 . S
N1983 C1981 1.279 . S
C1984 C1981 1.358 . S
C1984 C1985 1.356 . S
C1984 H2021 0.930 . S
C1985 C1982 1.348 . S
C1985 C1984 1.356 . S
H1986 C1980 0.930 . S
H1987 C1981 0.930 . S
C1988 N1989 1.314 . S
C1988 C1990 1.353 . S
C1988 H1994 0.930 . S
N1989 Li1939 1.990 . S
N1989 C1988 1.314 . S
N1989 C1992 1.279 . S
C1990 C1988 1.353 . S
C1990 C1993 1.348 . S
C1990 H2022 0.929 . S
C1991 C1992 1.358 . S
C1991 C1993 1.356 . S
C1991 H2023 0.930 . S
C1992 N1989 1.279 . S
C1992 C1991 1.358 . S
C1992 H1995 0.930 . S
C1993 C1990 1.348 . S
C1993 C1991 1.356 . S
H1994 C1988 0.930 . S
H1995 C1992 0.930 . S
O1996 Li1936 1.956 . S
O1996 Li1937 1.970 . S
O1996 Li1938 1.961 . S
O1996 C1940 1.325 . S
O1997 Li1936 1.970 . S
O1997 Li1937 1.956 . S
O1997 Li1939 1.961 . S
O1997 C1946 1.325 . S
O1998 Li1936 1.961 . S
O1998 Li1938 1.956 . S
O1998 Li1939 1.970 . S
O1998 C1968 1.325 . S
O1999 Li1937 1.961 . S
O1999 Li1938 1.970 . S
O1999 Li1939 1.956 . S
O1999 C1974 1.325 . S
H2000 C1942 0.929 . S
H2001 C1943 0.930 . S
H2002 C1944 0.930 . S
H2003 C1945 0.930 . S
H2004 C1947 0.930 . S
H2005 C1949 0.929 . S
H2006 C1950 0.930 . S
H2007 C1951 0.930 . S
H2008 C1954 0.930 . S
H2009 C1957 0.929 . S
H2010 C1962 0.929 . S
H2011 C1963 0.930 . S
H2012 C1970 0.929 . S
H2013 C1971 0.930 . S
H2014 C1972 0.930 . S
H2015 C1973 0.930 . S
H2016 C1975 0.929 . S
H2017 C1976 0.930 . S
H2018 C1977 0.930 . S
H2019 C1978 0.930 . S
H2020 C1982 0.929 . S
H2021 C1984 0.930 . S
H2022 C1990 0.929 . S
H2023 C1991 0.930 . S
Li2024 N2041 1.990 . S
Li2024 O2084 1.956 . S
Li2024 O2085 1.970 . S
Li2024 O2086 1.961 . S
Li2025 N2049 1.990 . S
Li2025 O2084 1.970 . S
Li2025 O2085 1.956 . S
Li2025 O2087 1.961 . S
Li2026 N2071 1.990 . S
Li2026 O2084 1.961 . S
Li2026 O2086 1.956 . S
Li2026 O2087 1.970 . S
Li2027 N2077 1.990 . S
Li2027 O2085 1.961 . S
Li2027 O2086 1.970 . S
Li2027 O2087 1.956 . S
C2028 C2030 1.348 . S
C2028 C2031 1.356 . S
C2028 O2084 1.325 . S
N2029 C2032 1.314 1_455 S
N2029 C2033 1.279 . S
C2030 C2028 1.348 . S
C2030 C2032 1.353 . S
C2030 H2088 0.929 . S
C2031 C2028 1.356 . S
C2031 C2033 1.358 1_655 S
C2031 H2089 0.930 . S
C2032 N2029 1.314 1_655 S
C2032 C2030 1.353 . S
C2032 H2090 0.930 . S
C2033 N2029 1.279 . S
C2033 C2031 1.358 1_455 S
C2033 H2091 0.930 . S
C2034 C2037 1.348 . S
C2034 C2038 1.356 . S
C2034 O2085 1.325 . S
C2035 N2036 1.279 . S
C2035 C2038 1.358 . S
C2035 H2092 0.930 . S
N2036 C2035 1.279 . S
N2036 C2039 1.314 . S
C2037 C2034 1.348 . S
C2037 C2039 1.353 . S
C2037 H2093 0.929 . S
C2038 C2034 1.356 . S
C2038 C2035 1.358 . S
C2038 H2094 0.930 . S
C2039 N2036 1.314 . S
C2039 C2037 1.353 . S
C2039 H2095 0.930 . S
C2040 N2041 1.314 . S
C2040 C2045 1.353 . S
C2040 H2046 0.930 . S
N2041 Li2024 1.990 . S
N2041 C2040 1.314 . S
N2041 C2043 1.279 . S
C2042 C2043 1.358 1_455 S
C2042 C2044 1.356 . S
C2042 H2096 0.930 . S
C2043 N2041 1.279 . S
C2043 C2042 1.358 1_655 S
C2043 H2047 0.935 . S
C2044 C2042 1.356 . S
C2044 C2045 1.348 1_455 S
C2045 C2040 1.353 . S
C2045 C2044 1.348 1_655 S
C2045 H2097 0.929 . S
H2046 C2040 0.930 . S
H2047 C2043 0.935 . S
C2048 N2049 1.314 . S
C2048 C2050 1.353 . S
C2048 H2054 0.930 . S
N2049 Li2025 1.990 . S
N2049 C2048 1.314 . S
N2049 C2052 1.279 . S
C2050 C2048 1.353 . S
C2050 C2053 1.348 . S
C2050 H2098 0.929 . S
C2051 C2052 1.358 . S
C2051 C2053 1.356 . S
C2051 H2099 0.930 . S
C2052 N2049 1.279 . S
C2052 C2051 1.358 . S
C2052 H2055 0.930 . S
C2053 C2050 1.348 . S
C2053 C2051 1.356 . S
H2054 C2048 0.930 . S
H2055 C2052 0.930 . S
C2056 C2058 1.348 . S
C2056 C2059 1.356 . S
C2056 O2086 1.325 . S
N2057 C2060 1.314 . S
N2057 C2061 1.279 . S
C2058 C2056 1.348 . S
C2058 C2060 1.353 . S
C2058 H2100 0.929 . S
C2059 C2056 1.356 . S
C2059 C2061 1.358 . S
C2059 H2101 0.930 . S
C2060 N2057 1.314 . S
C2060 C2058 1.353 . S
C2060 H2102 0.930 . S
C2061 N2057 1.279 . S
C2061 C2059 1.358 . S
C2061 H2103 0.930 . S
C2062 C2063 1.348 . S
C2062 C2064 1.356 . S
C2062 O2087 1.325 . S
C2063 C2062 1.348 . S
C2063 C2065 1.353 . S
C2063 H2104 0.929 . S
C2064 C2062 1.356 . S
C2064 C2066 1.358 . S
C2064 H2105 0.930 . S
C2065 C2063 1.353 . S
C2065 N2067 1.314 . S
C2065 H2106 0.930 . S
C2066 C2064 1.358 . S
C2066 N2067 1.279 . S
C2066 H2107 0.930 . S
N2067 C2065 1.314 . S
N2067 C2066 1.279 . S
C2068 C2070 1.353 . S
C2068 N2071 1.314 . S
C2068 H2074 0.930 . S
C2069 N2071 1.279 . S
C2069 C2072 1.358 . S
C2069 H2075 0.930 . S
C2070 C2068 1.353 . S
C2070 C2073 1.348 . S
C2070 H2108 0.929 . S
N2071 Li2026 1.990 . S
N2071 C2068 1.314 . S
N2071 C2069 1.279 . S
C2072 C2069 1.358 . S
C2072 C2073 1.356 . S
C2072 H2109 0.930 . S
C2073 C2070 1.348 . S
C2073 C2072 1.356 . S
H2074 C2068 0.930 . S
H2075 C2069 0.930 . S
C2076 N2077 1.314 . S
C2076 C2078 1.353 . S
C2076 H2082 0.930 . S
N2077 Li2027 1.990 . S
N2077 C2076 1.314 . S
N2077 C2080 1.279 . S
C2078 C2076 1.353 . S
C2078 C2081 1.348 . S
C2078 H2110 0.929 . S
C2079 C2080 1.358 . S
C2079 C2081 1.356 . S
C2079 H2111 0.930 . S
C2080 N2077 1.279 . S
C2080 C2079 1.358 . S
C2080 H2083 0.930 . S
C2081 C2078 1.348 . S
C2081 C2079 1.356 . S
H2082 C2076 0.930 . S
H2083 C2080 0.930 . S
O2084 Li2024 1.956 . S
O2084 Li2025 1.970 . S
O2084 Li2026 1.961 . S
O2084 C2028 1.325 . S
O2085 Li2024 1.970 . S
O2085 Li2025 1.956 . S
O2085 Li2027 1.961 . S
O2085 C2034 1.325 . S
O2086 Li2024 1.961 . S
O2086 Li2026 1.956 . S
O2086 Li2027 1.970 . S
O2086 C2056 1.325 . S
O2087 Li2025 1.961 . S
O2087 Li2026 1.970 . S
O2087 Li2027 1.956 . S
O2087 C2062 1.325 . S
H2088 C2030 0.929 . S
H2089 C2031 0.930 . S
H2090 C2032 0.930 . S
H2091 C2033 0.930 . S
H2092 C2035 0.930 . S
H2093 C2037 0.929 . S
H2094 C2038 0.930 . S
H2095 C2039 0.930 . S
H2096 C2042 0.930 . S
H2097 C2045 0.929 . S
H2098 C2050 0.929 . S
H2099 C2051 0.930 . S
H2100 C2058 0.929 . S
H2101 C2059 0.930 . S
H2102 C2060 0.930 . S
H2103 C2061 0.930 . S
H2104 C2063 0.929 . S
H2105 C2064 0.930 . S
H2106 C2065 0.930 . S
H2107 C2066 0.930 . S
H2108 C2070 0.929 . S
H2109 C2072 0.930 . S
H2110 C2078 0.929 . S
H2111 C2079 0.930 . S
Li2112 N2129 1.990 . S
Li2112 O2172 1.956 . S
Li2112 O2173 1.970 . S
Li2112 O2174 1.961 . S
Li2113 N2137 1.990 . S
Li2113 O2172 1.970 . S
Li2113 O2173 1.956 . S
Li2113 O2175 1.961 . S
Li2114 N2159 1.990 . S
Li2114 O2172 1.961 . S
Li2114 O2174 1.956 . S
Li2114 O2175 1.970 . S
Li2115 N2165 1.990 . S
Li2115 O2173 1.961 . S
Li2115 O2174 1.970 . S
Li2115 O2175 1.956 . S
C2116 C2118 1.348 . S
C2116 C2119 1.356 . S
C2116 O2172 1.325 . S
N2117 C2120 1.314 . S
N2117 C2121 1.279 . S
C2118 C2116 1.348 . S
C2118 C2120 1.353 1_565 S
C2118 H2176 0.929 . S
C2119 C2116 1.356 . S
C2119 C2121 1.358 1_565 S
C2119 H2177 0.930 . S
C2120 N2117 1.314 . S
C2120 C2118 1.353 1_545 S
C2120 H2178 0.930 . S
C2121 N2117 1.279 . S
C2121 C2119 1.358 1_545 S
C2121 H2179 0.930 . S
C2122 C2125 1.348 . S
C2122 C2126 1.356 . S
C2122 O2173 1.325 . S
C2123 N2124 1.279 . S
C2123 C2126 1.358 . S
C2123 H2180 0.930 . S
N2124 C2123 1.279 . S
N2124 C2127 1.314 . S
C2125 C2122 1.348 . S
C2125 C2127 1.353 . S
C2125 H2181 0.929 . S
C2126 C2122 1.356 . S
C2126 C2123 1.358 . S
C2126 H2182 0.930 . S
C2127 N2124 1.314 . S
C2127 C2125 1.353 . S
C2127 H2183 0.930 . S
C2128 N2129 1.314 . S
C2128 C2133 1.353 . S
C2128 H2134 0.930 . S
N2129 Li2112 1.990 . S
N2129 C2128 1.314 . S
N2129 C2131 1.279 . S
C2130 C2131 1.358 1_545 S
C2130 C2132 1.356 . S
C2130 H2184 0.930 . S
C2131 N2129 1.279 . S
C2131 C2130 1.358 1_565 S
C2131 H2135 0.935 1_565 S
C2132 C2130 1.356 . S
C2132 C2133 1.348 1_545 S
C2133 C2128 1.353 . S
C2133 C2132 1.348 1_565 S
C2133 H2185 0.929 . S
H2134 C2128 0.930 . S
H2135 C2131 0.935 1_545 S
C2136 N2137 1.314 . S
C2136 C2138 1.353 . S
C2136 H2142 0.930 . S
N2137 Li2113 1.990 . S
N2137 C2136 1.314 . S
N2137 C2140 1.279 . S
C2138 C2136 1.353 . S
C2138 C2141 1.348 . S
C2138 H2186 0.929 . S
C2139 C2140 1.358 . S
C2139 C2141 1.356 . S
C2139 H2187 0.930 . S
C2140 N2137 1.279 . S
C2140 C2139 1.358 . S
C2140 H2143 0.930 . S
C2141 C2138 1.348 . S
C2141 C2139 1.356 . S
H2142 C2136 0.930 . S
H2143 C2140 0.930 . S
C2144 C2146 1.348 . S
C2144 C2147 1.356 . S
C2144 O2174 1.325 . S
N2145 C2148 1.314 . S
N2145 C2149 1.279 . S
C2146 C2144 1.348 . S
C2146 C2148 1.353 . S
C2146 H2188 0.929 . S
C2147 C2144 1.356 . S
C2147 C2149 1.358 . S
C2147 H2189 0.930 . S
C2148 N2145 1.314 . S
C2148 C2146 1.353 . S
C2148 H2190 0.930 . S
C2149 N2145 1.279 . S
C2149 C2147 1.358 . S
C2149 H2191 0.930 . S
C2150 C2151 1.348 . S
C2150 C2152 1.356 . S
C2150 O2175 1.325 . S
C2151 C2150 1.348 . S
C2151 C2153 1.353 . S
C2151 H2192 0.929 . S
C2152 C2150 1.356 . S
C2152 C2154 1.358 . S
C2152 H2193 0.930 . S
C2153 C2151 1.353 . S
C2153 N2155 1.314 . S
C2153 H2194 0.930 . S
C2154 C2152 1.358 . S
C2154 N2155 1.279 . S
C2154 H2195 0.930 . S
N2155 C2153 1.314 . S
N2155 C2154 1.279 . S
C2156 C2158 1.353 . S
C2156 N2159 1.314 . S
C2156 H2162 0.930 . S
C2157 N2159 1.279 . S
C2157 C2160 1.358 . S
C2157 H2163 0.930 . S
C2158 C2156 1.353 . S
C2158 C2161 1.348 . S
C2158 H2196 0.929 . S
N2159 Li2114 1.990 . S
N2159 C2156 1.314 . S
N2159 C2157 1.279 . S
C2160 C2157 1.358 . S
C2160 C2161 1.356 . S
C2160 H2197 0.930 . S
C2161 C2158 1.348 . S
C2161 C2160 1.356 . S
H2162 C2156 0.930 . S
H2163 C2157 0.930 . S
C2164 N2165 1.314 . S
C2164 C2166 1.353 . S
C2164 H2170 0.930 . S
N2165 Li2115 1.990 . S
N2165 C2164 1.314 . S
N2165 C2168 1.279 . S
C2166 C2164 1.353 . S
C2166 C2169 1.348 . S
C2166 H2198 0.929 . S
C2167 C2168 1.358 . S
C2167 C2169 1.356 . S
C2167 H2199 0.930 . S
C2168 N2165 1.279 . S
C2168 C2167 1.358 . S
C2168 H2171 0.930 . S
C2169 C2166 1.348 . S
C2169 C2167 1.356 . S
H2170 C2164 0.930 . S
H2171 C2168 0.930 . S
O2172 Li2112 1.956 . S
O2172 Li2113 1.970 . S
O2172 Li2114 1.961 . S
O2172 C2116 1.325 . S
O2173 Li2112 1.970 . S
O2173 Li2113 1.956 . S
O2173 Li2115 1.961 . S
O2173 C2122 1.325 . S
O2174 Li2112 1.961 . S
O2174 Li2114 1.956 . S
O2174 Li2115 1.970 . S
O2174 C2144 1.325 . S
O2175 Li2113 1.961 . S
O2175 Li2114 1.970 . S
O2175 Li2115 1.956 . S
O2175 C2150 1.325 . S
H2176 C2118 0.929 . S
H2177 C2119 0.930 . S
H2178 C2120 0.930 . S
H2179 C2121 0.930 . S
H2180 C2123 0.930 . S
H2181 C2125 0.929 . S
H2182 C2126 0.930 . S
H2183 C2127 0.930 . S
H2184 C2130 0.930 . S
H2185 C2133 0.929 . S
H2186 C2138 0.929 . S
H2187 C2139 0.930 . S
H2188 C2146 0.929 . S
H2189 C2147 0.930 . S
H2190 C2148 0.930 . S
H2191 C2149 0.930 . S
H2192 C2151 0.929 . S
H2193 C2152 0.930 . S
H2194 C2153 0.930 . S
H2195 C2154 0.930 . S
H2196 C2158 0.929 . S
H2197 C2160 0.930 . S
H2198 C2166 0.929 . S
H2199 C2167 0.930 . S
Li2200 N2217 1.990 . S
Li2200 O2260 1.956 . S
Li2200 O2261 1.970 . S
Li2200 O2262 1.961 . S
Li2201 N2225 1.990 . S
Li2201 O2260 1.970 . S
Li2201 O2261 1.956 . S
Li2201 O2263 1.961 . S
Li2202 N2247 1.990 . S
Li2202 O2260 1.961 . S
Li2202 O2262 1.956 . S
Li2202 O2263 1.970 . S
Li2203 N2253 1.990 . S
Li2203 O2261 1.961 . S
Li2203 O2262 1.970 . S
Li2203 O2263 1.956 . S
C2204 C2206 1.348 . S
C2204 C2207 1.356 . S
C2204 O2260 1.325 . S
N2205 C2208 1.314 . S
N2205 C2209 1.279 . S
C2206 C2204 1.348 . S
C2206 C2208 1.353 . S
C2206 H2264 0.929 . S
C2207 C2204 1.356 . S
C2207 C2209 1.358 . S
C2207 H2265 0.930 . S
C2208 N2205 1.314 . S
C2208 C2206 1.353 . S
C2208 H2266 0.930 . S
C2209 N2205 1.279 . S
C2209 C2207 1.358 . S
C2209 H2267 0.930 . S
C2210 C2213 1.348 . S
C2210 C2214 1.356 . S
C2210 O2261 1.325 . S
C2211 N2212 1.279 . S
C2211 C2214 1.358 . S
C2211 H2268 0.930 . S
N2212 C2211 1.279 . S
N2212 C2215 1.314 . S
C2213 C2210 1.348 . S
C2213 C2215 1.353 . S
C2213 H2269 0.929 . S
C2214 C2210 1.356 . S
C2214 C2211 1.358 . S
C2214 H2270 0.930 . S
C2215 N2212 1.314 . S
C2215 C2213 1.353 . S
C2215 H2271 0.930 . S
C2216 N2217 1.314 . S
C2216 C2221 1.353 . S
C2216 H2222 0.930 . S
N2217 Li2200 1.990 . S
N2217 C2216 1.314 . S
N2217 C2219 1.279 . S
C2218 C2219 1.358 . S
C2218 C2220 1.356 . S
C2218 H2272 0.930 . S
C2219 N2217 1.279 . S
C2219 C2218 1.358 . S
C2219 H2223 0.930 . S
C2220 C2218 1.356 . S
C2220 C2221 1.348 . S
C2221 C2216 1.353 . S
C2221 C2220 1.348 . S
C2221 H2273 0.929 . S
H2222 C2216 0.930 . S
H2223 C2219 0.930 . S
C2224 N2225 1.314 . S
C2224 C2226 1.353 . S
C2224 H2230 0.930 . S
N2225 Li2201 1.990 . S
N2225 C2224 1.314 . S
N2225 C2228 1.279 . S
C2226 C2224 1.353 . S
C2226 C2229 1.348 . S
C2226 H2274 0.929 . S
C2227 C2228 1.358 . S
C2227 C2229 1.356 . S
C2227 H2275 0.930 . S
C2228 N2225 1.279 . S
C2228 C2227 1.358 . S
C2228 H2231 0.930 . S
C2229 C2226 1.348 . S
C2229 C2227 1.356 . S
H2230 C2224 0.930 . S
H2231 C2228 0.930 . S
C2232 C2234 1.348 . S
C2232 C2235 1.356 . S
C2232 O2262 1.325 . S
N2233 C2236 1.314 . S
N2233 C2237 1.279 . S
C2234 C2232 1.348 . S
C2234 C2236 1.353 . S
C2234 H2276 0.929 . S
C2235 C2232 1.356 . S
C2235 C2237 1.358 . S
C2235 H2277 0.930 . S
C2236 N2233 1.314 . S
C2236 C2234 1.353 . S
C2236 H2278 0.930 . S
C2237 N2233 1.279 . S
C2237 C2235 1.358 . S
C2237 H2279 0.930 . S
C2238 C2239 1.348 . S
C2238 C2240 1.356 . S
C2238 O2263 1.325 . S
C2239 C2238 1.348 . S
C2239 C2241 1.353 . S
C2239 H2280 0.929 . S
C2240 C2238 1.356 . S
C2240 C2242 1.358 . S
C2240 H2281 0.930 . S
C2241 C2239 1.353 . S
C2241 N2243 1.314 . S
C2241 H2282 0.930 . S
C2242 C2240 1.358 . S
C2242 N2243 1.279 . S
C2242 H2283 0.930 . S
N2243 C2241 1.314 . S
N2243 C2242 1.279 . S
C2244 C2246 1.353 . S
C2244 N2247 1.314 . S
C2244 H2250 0.930 . S
C2245 N2247 1.279 . S
C2245 C2248 1.358 . S
C2245 H2251 0.930 . S
C2246 C2244 1.353 . S
C2246 C2249 1.348 . S
C2246 H2284 0.929 . S
N2247 Li2202 1.990 . S
N2247 C2244 1.314 . S
N2247 C2245 1.279 . S
C2248 C2245 1.358 . S
C2248 C2249 1.356 . S
C2248 H2285 0.930 . S
C2249 C2246 1.348 . S
C2249 C2248 1.356 . S
H2250 C2244 0.930 . S
H2251 C2245 0.930 . S
C2252 N2253 1.314 . S
C2252 C2254 1.353 . S
C2252 H2258 0.930 . S
N2253 Li2203 1.990 . S
N2253 C2252 1.314 . S
N2253 C2256 1.279 . S
C2254 C2252 1.353 . S
C2254 C2257 1.348 . S
C2254 H2286 0.929 . S
C2255 C2256 1.358 . S
C2255 C2257 1.356 . S
C2255 H2287 0.930 . S
C2256 N2253 1.279 . S
C2256 C2255 1.358 . S
C2256 H2259 0.930 . S
C2257 C2254 1.348 . S
C2257 C2255 1.356 . S
H2258 C2252 0.930 . S
H2259 C2256 0.930 . S
O2260 Li2200 1.956 . S
O2260 Li2201 1.970 . S
O2260 Li2202 1.961 . S
O2260 C2204 1.325 . S
O2261 Li2200 1.970 . S
O2261 Li2201 1.956 . S
O2261 Li2203 1.961 . S
O2261 C2210 1.325 . S
O2262 Li2200 1.961 . S
O2262 Li2202 1.956 . S
O2262 Li2203 1.970 . S
O2262 C2232 1.325 . S
O2263 Li2201 1.961 . S
O2263 Li2202 1.970 . S
O2263 Li2203 1.956 . S
O2263 C2238 1.325 . S
H2264 C2206 0.929 . S
H2265 C2207 0.930 . S
H2266 C2208 0.930 . S
H2267 C2209 0.930 . S
H2268 C2211 0.930 . S
H2269 C2213 0.929 . S
H2270 C2214 0.930 . S
H2271 C2215 0.930 . S
H2272 C2218 0.930 . S
H2273 C2221 0.929 . S
H2274 C2226 0.929 . S
H2275 C2227 0.930 . S
H2276 C2234 0.929 . S
H2277 C2235 0.930 . S
H2278 C2236 0.930 . S
H2279 C2237 0.930 . S
H2280 C2239 0.929 . S
H2281 C2240 0.930 . S
H2282 C2241 0.930 . S
H2283 C2242 0.930 . S
H2284 C2246 0.929 . S
H2285 C2248 0.930 . S
H2286 C2254 0.929 . S
H2287 C2255 0.930 . S
Li2288 N2305 1.990 . S
Li2288 O2348 1.956 . S
Li2288 O2349 1.970 . S
Li2288 O2350 1.961 . S
Li2289 N2313 1.990 . S
Li2289 O2348 1.970 . S
Li2289 O2349 1.956 . S
Li2289 O2351 1.961 . S
Li2290 N2335 1.990 . S
Li2290 O2348 1.961 . S
Li2290 O2350 1.956 . S
Li2290 O2351 1.970 . S
Li2291 N2341 1.990 . S
Li2291 O2349 1.961 . S
Li2291 O2350 1.970 . S
Li2291 O2351 1.956 . S
C2292 C2294 1.348 . S
C2292 C2295 1.356 . S
C2292 O2348 1.325 . S
N2293 C2296 1.314 . S
N2293 C2297 1.279 . S
C2294 C2292 1.348 . S
C2294 C2296 1.353 . S
C2294 H2352 0.929 . S
C2295 C2292 1.356 . S
C2295 C2297 1.358 . S
C2295 H2353 0.930 . S
C2296 N2293 1.314 . S
C2296 C2294 1.353 . S
C2296 H2354 0.930 . S
C2297 N2293 1.279 . S
C2297 C2295 1.358 . S
C2297 H2355 0.930 . S
C2298 C2301 1.348 . S
C2298 C2302 1.356 . S
C2298 O2349 1.325 . S
C2299 N2300 1.279 . S
C2299 C2302 1.358 . S
C2299 H2356 0.930 . S
N2300 C2299 1.279 . S
N2300 C2303 1.314 . S
C2301 C2298 1.348 . S
C2301 C2303 1.353 . S
C2301 H2357 0.929 . S
C2302 C2298 1.356 . S
C2302 C2299 1.358 . S
C2302 H2358 0.930 . S
C2303 N2300 1.314 . S
C2303 C2301 1.353 . S
C2303 H2359 0.930 . S
C2304 N2305 1.314 . S
C2304 C2309 1.353 . S
C2304 H2310 0.930 . S
N2305 Li2288 1.990 . S
N2305 C2304 1.314 . S
N2305 C2307 1.279 . S
C2306 C2307 1.358 . S
C2306 C2308 1.356 . S
C2306 H2360 0.930 . S
C2307 N2305 1.279 . S
C2307 C2306 1.358 . S
C2307 H2311 0.930 . S
C2308 C2306 1.356 . S
C2308 C2309 1.348 . S
C2309 C2304 1.353 . S
C2309 C2308 1.348 . S
C2309 H2361 0.929 . S
H2310 C2304 0.930 . S
H2311 C2307 0.930 . S
C2312 N2313 1.314 . S
C2312 C2314 1.353 . S
C2312 H2318 0.930 . S
N2313 Li2289 1.990 . S
N2313 C2312 1.314 . S
N2313 C2316 1.279 . S
C2314 C2312 1.353 . S
C2314 C2317 1.348 . S
C2314 H2362 0.929 . S
C2315 C2316 1.358 . S
C2315 C2317 1.356 . S
C2315 H2363 0.930 . S
C2316 N2313 1.279 . S
C2316 C2315 1.358 . S
C2316 H2319 0.930 . S
C2317 C2314 1.348 . S
C2317 C2315 1.356 . S
H2318 C2312 0.930 . S
H2319 C2316 0.930 . S
C2320 C2322 1.348 . S
C2320 C2323 1.356 . S
C2320 O2350 1.325 . S
N2321 C2324 1.314 . S
N2321 C2325 1.279 . S
C2322 C2320 1.348 . S
C2322 C2324 1.353 . S
C2322 H2364 0.929 . S
C2323 C2320 1.356 . S
C2323 C2325 1.358 . S
C2323 H2365 0.930 . S
C2324 N2321 1.314 . S
C2324 C2322 1.353 . S
C2324 H2366 0.930 . S
C2325 N2321 1.279 . S
C2325 C2323 1.358 . S
C2325 H2367 0.930 . S
C2326 C2327 1.348 . S
C2326 C2328 1.356 . S
C2326 O2351 1.325 . S
C2327 C2326 1.348 . S
C2327 C2329 1.353 . S
C2327 H2368 0.929 . S
C2328 C2326 1.356 . S
C2328 C2330 1.358 . S
C2328 H2369 0.930 . S
C2329 C2327 1.353 . S
C2329 N2331 1.314 . S
C2329 H2370 0.930 . S
C2330 C2328 1.358 . S
C2330 N2331 1.279 . S
C2330 H2371 0.930 . S
N2331 C2329 1.314 . S
N2331 C2330 1.279 . S
C2332 C2334 1.353 . S
C2332 N2335 1.314 . S
C2332 H2338 0.930 . S
C2333 N2335 1.279 . S
C2333 C2336 1.358 . S
C2333 H2339 0.930 . S
C2334 C2332 1.353 . S
C2334 C2337 1.348 . S
C2334 H2372 0.929 . S
N2335 Li2290 1.990 . S
N2335 C2332 1.314 . S
N2335 C2333 1.279 . S
C2336 C2333 1.358 . S
C2336 C2337 1.356 . S
C2336 H2373 0.930 . S
C2337 C2334 1.348 . S
C2337 C2336 1.356 . S
H2338 C2332 0.930 . S
H2339 C2333 0.930 . S
C2340 N2341 1.314 . S
C2340 C2342 1.353 . S
C2340 H2346 0.930 . S
N2341 Li2291 1.990 . S
N2341 C2340 1.314 . S
N2341 C2344 1.279 . S
C2342 C2340 1.353 . S
C2342 C2345 1.348 . S
C2342 H2374 0.929 . S
C2343 C2344 1.358 . S
C2343 C2345 1.356 . S
C2343 H2375 0.930 . S
C2344 N2341 1.279 . S
C2344 C2343 1.358 . S
C2344 H2347 0.930 . S
C2345 C2342 1.348 . S
C2345 C2343 1.356 . S
H2346 C2340 0.930 . S
H2347 C2344 0.930 . S
O2348 Li2288 1.956 . S
O2348 Li2289 1.970 . S
O2348 Li2290 1.961 . S
O2348 C2292 1.325 . S
O2349 Li2288 1.970 . S
O2349 Li2289 1.956 . S
O2349 Li2291 1.961 . S
O2349 C2298 1.325 . S
O2350 Li2288 1.961 . S
O2350 Li2290 1.956 . S
O2350 Li2291 1.970 . S
O2350 C2320 1.325 . S
O2351 Li2289 1.961 . S
O2351 Li2290 1.970 . S
O2351 Li2291 1.956 . S
O2351 C2326 1.325 . S
H2352 C2294 0.929 . S
H2353 C2295 0.930 . S
H2354 C2296 0.930 . S
H2355 C2297 0.930 . S
H2356 C2299 0.930 . S
H2357 C2301 0.929 . S
H2358 C2302 0.930 . S
H2359 C2303 0.930 . S
H2360 C2306 0.930 . S
H2361 C2309 0.929 . S
H2362 C2314 0.929 . S
H2363 C2315 0.930 . S
H2364 C2322 0.929 . S
H2365 C2323 0.930 . S
H2366 C2324 0.930 . S
H2367 C2325 0.930 . S
H2368 C2327 0.929 . S
H2369 C2328 0.930 . S
H2370 C2329 0.930 . S
H2371 C2330 0.930 . S
H2372 C2334 0.929 . S
H2373 C2336 0.930 . S
H2374 C2342 0.929 . S
H2375 C2343 0.930 . S
Li2376 N2393 1.990 . S
Li2376 O2436 1.956 . S
Li2376 O2437 1.970 . S
Li2376 O2438 1.961 . S
Li2377 N2401 1.990 . S
Li2377 O2436 1.970 . S
Li2377 O2437 1.956 . S
Li2377 O2439 1.961 . S
Li2378 N2423 1.990 . S
Li2378 O2436 1.961 . S
Li2378 O2438 1.956 . S
Li2378 O2439 1.970 . S
Li2379 N2429 1.990 . S
Li2379 O2437 1.961 . S
Li2379 O2438 1.970 . S
Li2379 O2439 1.956 . S
C2380 C2382 1.348 . S
C2380 C2383 1.356 . S
C2380 O2436 1.325 . S
N2381 C2384 1.314 . S
N2381 C2385 1.279 . S
C2382 C2380 1.348 . S
C2382 C2384 1.353 . S
C2382 H2440 0.929 . S
C2383 C2380 1.356 . S
C2383 C2385 1.358 . S
C2383 H2441 0.930 . S
C2384 N2381 1.314 . S
C2384 C2382 1.353 . S
C2384 H2442 0.930 . S
C2385 N2381 1.279 . S
C2385 C2383 1.358 . S
C2385 H2443 0.930 . S
C2386 C2389 1.348 . S
C2386 C2390 1.356 . S
C2386 O2437 1.325 . S
C2387 N2388 1.279 . S
C2387 C2390 1.358 . S
C2387 H2444 0.930 . S
N2388 C2387 1.279 . S
N2388 C2391 1.314 . S
C2389 C2386 1.348 . S
C2389 C2391 1.353 . S
C2389 H2445 0.929 . S
C2390 C2386 1.356 . S
C2390 C2387 1.358 . S
C2390 H2446 0.930 . S
C2391 N2388 1.314 . S
C2391 C2389 1.353 . S
C2391 H2447 0.930 . S
C2392 N2393 1.314 . S
C2392 C2397 1.353 . S
C2392 H2398 0.930 . S
N2393 Li2376 1.990 . S
N2393 C2392 1.314 . S
N2393 C2395 1.279 . S
C2394 C2395 1.358 . S
C2394 C2396 1.356 . S
C2394 H2448 0.930 . S
C2395 N2393 1.279 . S
C2395 C2394 1.358 . S
C2395 H2399 0.930 . S
C2396 C2394 1.356 . S
C2396 C2397 1.348 . S
C2397 C2392 1.353 . S
C2397 C2396 1.348 . S
C2397 H2449 0.929 . S
H2398 C2392 0.930 . S
H2399 C2395 0.930 . S
C2400 N2401 1.314 . S
C2400 C2402 1.353 . S
C2400 H2406 0.930 . S
N2401 Li2377 1.990 . S
N2401 C2400 1.314 . S
N2401 C2404 1.279 . S
C2402 C2400 1.353 . S
C2402 C2405 1.348 . S
C2402 H2450 0.929 . S
C2403 C2404 1.358 . S
C2403 C2405 1.356 . S
C2403 H2451 0.930 . S
C2404 N2401 1.279 . S
C2404 C2403 1.358 . S
C2404 H2407 0.930 . S
C2405 C2402 1.348 . S
C2405 C2403 1.356 . S
H2406 C2400 0.930 . S
H2407 C2404 0.930 . S
C2408 C2410 1.348 . S
C2408 C2411 1.356 . S
C2408 O2438 1.325 . S
N2409 C2412 1.314 . S
N2409 C2413 1.279 . S
C2410 C2408 1.348 . S
C2410 C2412 1.353 . S
C2410 H2452 0.929 . S
C2411 C2408 1.356 . S
C2411 C2413 1.358 . S
C2411 H2453 0.930 . S
C2412 N2409 1.314 . S
C2412 C2410 1.353 . S
C2412 H2454 0.930 . S
C2413 N2409 1.279 . S
C2413 C2411 1.358 . S
C2413 H2455 0.930 . S
C2414 C2415 1.348 . S
C2414 C2416 1.356 . S
C2414 O2439 1.325 . S
C2415 C2414 1.348 . S
C2415 C2417 1.353 . S
C2415 H2456 0.929 . S
C2416 C2414 1.356 . S
C2416 C2418 1.358 . S
C2416 H2457 0.930 . S
C2417 C2415 1.353 . S
C2417 N2419 1.314 . S
C2417 H2458 0.930 . S
C2418 C2416 1.358 . S
C2418 N2419 1.279 . S
C2418 H2459 0.930 . S
N2419 C2417 1.314 . S
N2419 C2418 1.279 . S
C2420 C2422 1.353 . S
C2420 N2423 1.314 . S
C2420 H2426 0.930 . S
C2421 N2423 1.279 . S
C2421 C2424 1.358 . S
C2421 H2427 0.930 . S
C2422 C2420 1.353 . S
C2422 C2425 1.348 . S
C2422 H2460 0.929 . S
N2423 Li2378 1.990 . S
N2423 C2420 1.314 . S
N2423 C2421 1.279 . S
C2424 C2421 1.358 . S
C2424 C2425 1.356 . S
C2424 H2461 0.930 . S
C2425 C2422 1.348 . S
C2425 C2424 1.356 . S
H2426 C2420 0.930 . S
H2427 C2421 0.930 . S
C2428 N2429 1.314 . S
C2428 C2430 1.353 . S
C2428 H2434 0.930 . S
N2429 Li2379 1.990 . S
N2429 C2428 1.314 . S
N2429 C2432 1.279 . S
C2430 C2428 1.353 . S
C2430 C2433 1.348 . S
C2430 H2462 0.929 . S
C2431 C2432 1.358 . S
C2431 C2433 1.356 . S
C2431 H2463 0.930 . S
C2432 N2429 1.279 . S
C2432 C2431 1.358 . S
C2432 H2435 0.930 . S
C2433 C2430 1.348 . S
C2433 C2431 1.356 . S
H2434 C2428 0.930 . S
H2435 C2432 0.930 . S
O2436 Li2376 1.956 . S
O2436 Li2377 1.970 . S
O2436 Li2378 1.961 . S
O2436 C2380 1.325 . S
O2437 Li2376 1.970 . S
O2437 Li2377 1.956 . S
O2437 Li2379 1.961 . S
O2437 C2386 1.325 . S
O2438 Li2376 1.961 . S
O2438 Li2378 1.956 . S
O2438 Li2379 1.970 . S
O2438 C2408 1.325 . S
O2439 Li2377 1.961 . S
O2439 Li2378 1.970 . S
O2439 Li2379 1.956 . S
O2439 C2414 1.325 . S
H2440 C2382 0.929 . S
H2441 C2383 0.930 . S
H2442 C2384 0.930 . S
H2443 C2385 0.930 . S
H2444 C2387 0.930 . S
H2445 C2389 0.929 . S
H2446 C2390 0.930 . S
H2447 C2391 0.930 . S
H2448 C2394 0.930 . S
H2449 C2397 0.929 . S
H2450 C2402 0.929 . S
H2451 C2403 0.930 . S
H2452 C2410 0.929 . S
H2453 C2411 0.930 . S
H2454 C2412 0.930 . S
H2455 C2413 0.930 . S
H2456 C2415 0.929 . S
H2457 C2416 0.930 . S
H2458 C2417 0.930 . S
H2459 C2418 0.930 . S
H2460 C2422 0.929 . S
H2461 C2424 0.930 . S
H2462 C2430 0.929 . S
H2463 C2431 0.930 . S
Li2464 N2481 1.990 . S
Li2464 O2524 1.956 . S
Li2464 O2525 1.970 . S
Li2464 O2526 1.961 . S
Li2465 N2489 1.990 . S
Li2465 O2524 1.970 . S
Li2465 O2525 1.956 . S
Li2465 O2527 1.961 . S
Li2466 N2511 1.990 . S
Li2466 O2524 1.961 . S
Li2466 O2526 1.956 . S
Li2466 O2527 1.970 . S
Li2467 N2517 1.990 . S
Li2467 O2525 1.961 . S
Li2467 O2526 1.970 . S
Li2467 O2527 1.956 . S
C2468 C2470 1.348 . S
C2468 C2471 1.356 . S
C2468 O2524 1.325 . S
N2469 C2472 1.314 1_545 S
N2469 C2473 1.279 . S
C2470 C2468 1.348 . S
C2470 C2472 1.353 . S
C2470 H2528 0.929 . S
C2471 C2468 1.356 . S
C2471 C2473 1.358 1_565 S
C2471 H2529 0.930 . S
C2472 N2469 1.314 1_565 S
C2472 C2470 1.353 . S
C2472 H2530 0.930 . S
C2473 N2469 1.279 . S
C2473 C2471 1.358 1_545 S
C2473 H2531 0.930 . S
C2474 C2477 1.348 . S
C2474 C2478 1.356 . S
C2474 O2525 1.325 . S
C2475 N2476 1.279 . S
C2475 C2478 1.358 . S
C2475 H2532 0.930 . S
N2476 C2475 1.279 . S
N2476 C2479 1.314 . S
C2477 C2474 1.348 . S
C2477 C2479 1.353 . S
C2477 H2533 0.929 . S
C2478 C2474 1.356 . S
C2478 C2475 1.358 . S
C2478 H2534 0.930 . S
C2479 N2476 1.314 . S
C2479 C2477 1.353 . S
C2479 H2535 0.930 . S
C2480 N2481 1.314 . S
C2480 C2485 1.353 . S
C2480 H2486 0.930 . S
N2481 Li2464 1.990 . S
N2481 C2480 1.314 . S
N2481 C2483 1.279 . S
C2482 C2483 1.358 . S
C2482 C2484 1.356 . S
C2482 H2536 0.930 . S
C2483 N2481 1.279 . S
C2483 C2482 1.358 . S
C2483 H2487 0.930 . S
C2484 C2482 1.356 . S
C2484 C2485 1.348 . S
C2485 C2480 1.353 . S
C2485 C2484 1.348 . S
C2485 H2537 0.929 . S
H2486 C2480 0.930 . S
H2487 C2483 0.930 . S
C2488 N2489 1.314 . S
C2488 C2490 1.353 . S
C2488 H2494 0.930 . S
N2489 Li2465 1.990 . S
N2489 C2488 1.314 . S
N2489 C2492 1.279 . S
C2490 C2488 1.353 . S
C2490 C2493 1.348 . S
C2490 H2538 0.929 . S
C2491 C2492 1.358 . S
C2491 C2493 1.356 . S
C2491 H2539 0.930 . S
C2492 N2489 1.279 . S
C2492 C2491 1.358 . S
C2492 H2495 0.930 . S
C2493 C2490 1.348 . S
C2493 C2491 1.356 . S
H2494 C2488 0.930 . S
H2495 C2492 0.930 . S
C2496 C2498 1.348 . S
C2496 C2499 1.356 . S
C2496 O2526 1.325 . S
N2497 C2500 1.314 . S
N2497 C2501 1.279 . S
C2498 C2496 1.348 . S
C2498 C2500 1.353 . S
C2498 H2540 0.929 . S
C2499 C2496 1.356 . S
C2499 C2501 1.358 . S
C2499 H2541 0.930 . S
C2500 N2497 1.314 . S
C2500 C2498 1.353 . S
C2500 H2542 0.930 . S
C2501 N2497 1.279 . S
C2501 C2499 1.358 . S
C2501 H2543 0.930 . S
C2502 C2503 1.348 . S
C2502 C2504 1.356 . S
C2502 O2527 1.325 . S
C2503 C2502 1.348 . S
C2503 C2505 1.353 . S
C2503 H2544 0.929 . S
C2504 C2502 1.356 . S
C2504 C2506 1.358 . S
C2504 H2545 0.930 . S
C2505 C2503 1.353 . S
C2505 N2507 1.314 . S
C2505 H2546 0.930 . S
C2506 C2504 1.358 . S
C2506 N2507 1.279 . S
C2506 H2547 0.930 . S
N2507 C2505 1.314 . S
N2507 C2506 1.279 . S
C2508 C2510 1.353 1_565 S
C2508 N2511 1.314 . S
C2508 H2514 0.930 . S
C2509 N2511 1.279 . S
C2509 C2512 1.358 1_565 S
C2509 H2515 0.930 . S
C2510 C2508 1.353 1_545 S
C2510 C2513 1.348 . S
C2510 H2548 0.929 . S
N2511 Li2466 1.990 . S
N2511 C2508 1.314 . S
N2511 C2509 1.279 . S
C2512 C2509 1.358 1_545 S
C2512 C2513 1.356 . S
C2512 H2549 0.930 . S
C2513 C2510 1.348 . S
C2513 C2512 1.356 . S
H2514 C2508 0.930 . S
H2515 C2509 0.930 . S
C2516 N2517 1.314 . S
C2516 C2518 1.353 . S
C2516 H2522 0.930 . S
N2517 Li2467 1.990 . S
N2517 C2516 1.314 . S
N2517 C2520 1.279 . S
C2518 C2516 1.353 . S
C2518 C2521 1.348 . S
C2518 H2550 0.929 . S
C2519 C2520 1.358 . S
C2519 C2521 1.356 . S
C2519 H2551 0.930 . S
C2520 N2517 1.279 . S
C2520 C2519 1.358 . S
C2520 H2523 0.930 . S
C2521 C2518 1.348 . S
C2521 C2519 1.356 . S
H2522 C2516 0.930 . S
H2523 C2520 0.930 . S
O2524 Li2464 1.956 . S
O2524 Li2465 1.970 . S
O2524 Li2466 1.961 . S
O2524 C2468 1.325 . S
O2525 Li2464 1.970 . S
O2525 Li2465 1.956 . S
O2525 Li2467 1.961 . S
O2525 C2474 1.325 . S
O2526 Li2464 1.961 . S
O2526 Li2466 1.956 . S
O2526 Li2467 1.970 . S
O2526 C2496 1.325 . S
O2527 Li2465 1.961 . S
O2527 Li2466 1.970 . S
O2527 Li2467 1.956 . S
O2527 C2502 1.325 . S
H2528 C2470 0.929 . S
H2529 C2471 0.930 . S
H2530 C2472 0.930 . S
H2531 C2473 0.930 . S
H2532 C2475 0.930 . S
H2533 C2477 0.929 . S
H2534 C2478 0.930 . S
H2535 C2479 0.930 . S
H2536 C2482 0.930 . S
H2537 C2485 0.929 . S
H2538 C2490 0.929 . S
H2539 C2491 0.930 . S
H2540 C2498 0.929 . S
H2541 C2499 0.930 . S
H2542 C2500 0.930 . S
H2543 C2501 0.930 . S
H2544 C2503 0.929 . S
H2545 C2504 0.930 . S
H2546 C2505 0.930 . S
H2547 C2506 0.930 . S
H2548 C2510 0.929 . S
H2549 C2512 0.930 . S
H2550 C2518 0.929 . S
H2551 C2519 0.930 . S
Li2552 N2569 1.990 . S
Li2552 O2612 1.956 . S
Li2552 O2613 1.970 . S
Li2552 O2614 1.961 . S
Li2553 N2577 1.990 . S
Li2553 O2612 1.970 . S
Li2553 O2613 1.956 . S
Li2553 O2615 1.961 . S
Li2554 N2599 1.990 . S
Li2554 O2612 1.961 . S
Li2554 O2614 1.956 . S
Li2554 O2615 1.970 . S
Li2555 N2605 1.990 . S
Li2555 O2613 1.961 . S
Li2555 O2614 1.970 . S
Li2555 O2615 1.956 . S
C2556 C2558 1.348 . S
C2556 C2559 1.356 . S
C2556 O2612 1.325 . S
N2557 C2560 1.314 . S
N2557 C2561 1.279 . S
C2558 C2556 1.348 . S
C2558 C2560 1.353 . S
C2558 H2616 0.929 . S
C2559 C2556 1.356 . S
C2559 C2561 1.358 . S
C2559 H2617 0.930 . S
C2560 N2557 1.314 . S
C2560 C2558 1.353 . S
C2560 H2618 0.930 . S
C2561 N2557 1.279 . S
C2561 C2559 1.358 . S
C2561 H2619 0.930 . S
C2562 C2565 1.348 . S
C2562 C2566 1.356 . S
C2562 O2613 1.325 . S
C2563 N2564 1.279 . S
C2563 C2566 1.358 . S
C2563 H2620 0.930 . S
N2564 C2563 1.279 . S
N2564 C2567 1.314 . S
C2565 C2562 1.348 . S
C2565 C2567 1.353 . S
C2565 H2621 0.929 . S
C2566 C2562 1.356 . S
C2566 C2563 1.358 . S
C2566 H2622 0.930 . S
C2567 N2564 1.314 . S
C2567 C2565 1.353 . S
C2567 H2623 0.930 . S
C2568 N2569 1.314 . S
C2568 C2573 1.353 . S
C2568 H2574 0.930 . S
N2569 Li2552 1.990 . S
N2569 C2568 1.314 . S
N2569 C2571 1.279 . S
C2570 C2571 1.358 . S
C2570 C2572 1.356 . S
C2570 H2624 0.930 . S
C2571 N2569 1.279 . S
C2571 C2570 1.358 . S
C2571 H2575 0.930 . S
C2572 C2570 1.356 . S
C2572 C2573 1.348 . S
C2573 C2568 1.353 . S
C2573 C2572 1.348 . S
C2573 H2625 0.929 . S
H2574 C2568 0.930 . S
H2575 C2571 0.930 . S
C2576 N2577 1.314 . S
C2576 C2578 1.353 . S
C2576 H2582 0.930 . S
N2577 Li2553 1.990 . S
N2577 C2576 1.314 . S
N2577 C2580 1.279 . S
C2578 C2576 1.353 . S
C2578 C2581 1.348 . S
C2578 H2626 0.929 . S
C2579 C2580 1.358 . S
C2579 C2581 1.356 . S
C2579 H2627 0.930 . S
C2580 N2577 1.279 . S
C2580 C2579 1.358 . S
C2580 H2583 0.930 . S
C2581 C2578 1.348 . S
C2581 C2579 1.356 . S
H2582 C2576 0.930 . S
H2583 C2580 0.930 . S
C2584 C2586 1.348 . S
C2584 C2587 1.356 . S
C2584 O2614 1.325 . S
N2585 C2588 1.314 . S
N2585 C2589 1.279 . S
C2586 C2584 1.348 . S
C2586 C2588 1.353 . S
C2586 H2628 0.929 . S
C2587 C2584 1.356 . S
C2587 C2589 1.358 . S
C2587 H2629 0.930 . S
C2588 N2585 1.314 . S
C2588 C2586 1.353 . S
C2588 H2630 0.930 . S
C2589 N2585 1.279 . S
C2589 C2587 1.358 . S
C2589 H2631 0.930 . S
C2590 C2591 1.348 . S
C2590 C2592 1.356 . S
C2590 O2615 1.325 . S
C2591 C2590 1.348 . S
C2591 C2593 1.353 . S
C2591 H2632 0.929 . S
C2592 C2590 1.356 . S
C2592 C2594 1.358 . S
C2592 H2633 0.930 . S
C2593 C2591 1.353 . S
C2593 N2595 1.314 . S
C2593 H2634 0.930 . S
C2594 C2592 1.358 . S
C2594 N2595 1.279 . S
C2594 H2635 0.930 . S
N2595 C2593 1.314 . S
N2595 C2594 1.279 . S
C2596 C2598 1.353 . S
C2596 N2599 1.314 . S
C2596 H2602 0.930 . S
C2597 N2599 1.279 . S
C2597 C2600 1.358 . S
C2597 H2603 0.930 . S
C2598 C2596 1.353 . S
C2598 C2601 1.348 . S
C2598 H2636 0.929 . S
N2599 Li2554 1.990 . S
N2599 C2596 1.314 . S
N2599 C2597 1.279 . S
C2600 C2597 1.358 . S
C2600 C2601 1.356 . S
C2600 H2637 0.930 . S
C2601 C2598 1.348 . S
C2601 C2600 1.356 . S
H2602 C2596 0.930 . S
H2603 C2597 0.930 . S
C2604 N2605 1.314 . S
C2604 C2606 1.353 . S
C2604 H2610 0.930 . S
N2605 Li2555 1.990 . S
N2605 C2604 1.314 . S
N2605 C2608 1.279 . S
C2606 C2604 1.353 . S
C2606 C2609 1.348 . S
C2606 H2638 0.929 . S
C2607 C2608 1.358 . S
C2607 C2609 1.356 . S
C2607 H2639 0.930 . S
C2608 N2605 1.279 . S
C2608 C2607 1.358 . S
C2608 H2611 0.930 . S
C2609 C2606 1.348 . S
C2609 C2607 1.356 . S
H2610 C2604 0.930 . S
H2611 C2608 0.930 . S
O2612 Li2552 1.956 . S
O2612 Li2553 1.970 . S
O2612 Li2554 1.961 . S
O2612 C2556 1.325 . S
O2613 Li2552 1.970 . S
O2613 Li2553 1.956 . S
O2613 Li2555 1.961 . S
O2613 C2562 1.325 . S
O2614 Li2552 1.961 . S
O2614 Li2554 1.956 . S
O2614 Li2555 1.970 . S
O2614 C2584 1.325 . S
O2615 Li2553 1.961 . S
O2615 Li2554 1.970 . S
O2615 Li2555 1.956 . S
O2615 C2590 1.325 . S
H2616 C2558 0.929 . S
H2617 C2559 0.930 . S
H2618 C2560 0.930 . S
H2619 C2561 0.930 . S
H2620 C2563 0.930 . S
H2621 C2565 0.929 . S
H2622 C2566 0.930 . S
H2623 C2567 0.930 . S
H2624 C2570 0.930 . S
H2625 C2573 0.929 . S
H2626 C2578 0.929 . S
H2627 C2579 0.930 . S
H2628 C2586 0.929 . S
H2629 C2587 0.930 . S
H2630 C2588 0.930 . S
H2631 C2589 0.930 . S
H2632 C2591 0.929 . S
H2633 C2592 0.930 . S
H2634 C2593 0.930 . S
H2635 C2594 0.930 . S
H2636 C2598 0.929 . S
H2637 C2600 0.930 . S
H2638 C2606 0.929 . S
H2639 C2607 0.930 . S
Li2640 N2657 1.990 . S
Li2640 O2700 1.956 . S
Li2640 O2701 1.970 . S
Li2640 O2702 1.961 . S
Li2641 N2665 1.990 . S
Li2641 O2700 1.970 . S
Li2641 O2701 1.956 . S
Li2641 O2703 1.961 . S
Li2642 N2687 1.990 . S
Li2642 O2700 1.961 . S
Li2642 O2702 1.956 . S
Li2642 O2703 1.970 . S
Li2643 N2693 1.990 . S
Li2643 O2701 1.961 . S
Li2643 O2702 1.970 . S
Li2643 O2703 1.956 . S
C2644 C2646 1.348 . S
C2644 C2647 1.356 . S
C2644 O2700 1.325 . S
N2645 C2648 1.314 . S
N2645 C2649 1.279 . S
C2646 C2644 1.348 . S
C2646 C2648 1.353 . S
C2646 H2704 0.929 . S
C2647 C2644 1.356 . S
C2647 C2649 1.358 . S
C2647 H2705 0.930 . S
C2648 N2645 1.314 . S
C2648 C2646 1.353 . S
C2648 H2706 0.930 . S
C2649 N2645 1.279 . S
C2649 C2647 1.358 . S
C2649 H2707 0.930 . S
C2650 C2653 1.348 . S
C2650 C2654 1.356 . S
C2650 O2701 1.325 . S
C2651 N2652 1.279 . S
C2651 C2654 1.358 . S
C2651 H2708 0.930 . S
N2652 C2651 1.279 . S
N2652 C2655 1.314 . S
C2653 C2650 1.348 . S
C2653 C2655 1.353 . S
C2653 H2709 0.929 . S
C2654 C2650 1.356 . S
C2654 C2651 1.358 . S
C2654 H2710 0.930 . S
C2655 N2652 1.314 . S
C2655 C2653 1.353 . S
C2655 H2711 0.930 . S
C2656 N2657 1.314 . S
C2656 C2661 1.353 . S
C2656 H2662 0.930 . S
N2657 Li2640 1.990 . S
N2657 C2656 1.314 . S
N2657 C2659 1.279 . S
C2658 C2659 1.358 . S
C2658 C2660 1.356 . S
C2658 H2712 0.930 . S
C2659 N2657 1.279 . S
C2659 C2658 1.358 . S
C2659 H2663 0.930 . S
C2660 C2658 1.356 . S
C2660 C2661 1.348 . S
C2661 C2656 1.353 . S
C2661 C2660 1.348 . S
C2661 H2713 0.929 . S
H2662 C2656 0.930 . S
H2663 C2659 0.930 . S
C2664 N2665 1.314 . S
C2664 C2666 1.353 . S
C2664 H2670 0.930 . S
N2665 Li2641 1.990 . S
N2665 C2664 1.314 . S
N2665 C2668 1.279 . S
C2666 C2664 1.353 . S
C2666 C2669 1.348 . S
C2666 H2714 0.929 . S
C2667 C2668 1.358 . S
C2667 C2669 1.356 . S
C2667 H2715 0.930 . S
C2668 N2665 1.279 . S
C2668 C2667 1.358 . S
C2668 H2671 0.930 . S
C2669 C2666 1.348 . S
C2669 C2667 1.356 . S
H2670 C2664 0.930 . S
H2671 C2668 0.930 . S
C2672 C2674 1.348 . S
C2672 C2675 1.356 . S
C2672 O2702 1.325 . S
N2673 C2676 1.314 . S
N2673 C2677 1.279 . S
C2674 C2672 1.348 . S
C2674 C2676 1.353 . S
C2674 H2716 0.929 . S
C2675 C2672 1.356 . S
C2675 C2677 1.358 . S
C2675 H2717 0.930 . S
C2676 N2673 1.314 . S
C2676 C2674 1.353 . S
C2676 H2718 0.930 . S
C2677 N2673 1.279 . S
C2677 C2675 1.358 . S
C2677 H2719 0.930 . S
C2678 C2679 1.348 . S
C2678 C2680 1.356 . S
C2678 O2703 1.325 . S
C2679 C2678 1.348 . S
C2679 C2681 1.353 . S
C2679 H2720 0.929 . S
C2680 C2678 1.356 . S
C2680 C2682 1.358 . S
C2680 H2721 0.930 . S
C2681 C2679 1.353 . S
C2681 N2683 1.314 . S
C2681 H2722 0.930 . S
C2682 C2680 1.358 . S
C2682 N2683 1.279 . S
C2682 H2723 0.930 . S
N2683 C2681 1.314 . S
N2683 C2682 1.279 . S
C2684 C2686 1.353 . S
C2684 N2687 1.314 . S
C2684 H2690 0.930 . S
C2685 N2687 1.279 . S
C2685 C2688 1.358 . S
C2685 H2691 0.930 . S
C2686 C2684 1.353 . S
C2686 C2689 1.348 . S
C2686 H2724 0.929 . S
N2687 Li2642 1.990 . S
N2687 C2684 1.314 . S
N2687 C2685 1.279 . S
C2688 C2685 1.358 . S
C2688 C2689 1.356 . S
C2688 H2725 0.930 . S
C2689 C2686 1.348 . S
C2689 C2688 1.356 . S
H2690 C2684 0.930 . S
H2691 C2685 0.930 . S
C2692 N2693 1.314 . S
C2692 C2694 1.353 . S
C2692 H2698 0.930 . S
N2693 Li2643 1.990 . S
N2693 C2692 1.314 . S
N2693 C2696 1.279 . S
C2694 C2692 1.353 . S
C2694 C2697 1.348 . S
C2694 H2726 0.929 . S
C2695 C2696 1.358 . S
C2695 C2697 1.356 . S
C2695 H2727 0.930 . S
C2696 N2693 1.279 . S
C2696 C2695 1.358 . S
C2696 H2699 0.930 . S
C2697 C2694 1.348 . S
C2697 C2695 1.356 . S
H2698 C2692 0.930 . S
H2699 C2696 0.930 . S
O2700 Li2640 1.956 . S
O2700 Li2641 1.970 . S
O2700 Li2642 1.961 . S
O2700 C2644 1.325 . S
O2701 Li2640 1.970 . S
O2701 Li2641 1.956 . S
O2701 Li2643 1.961 . S
O2701 C2650 1.325 . S
O2702 Li2640 1.961 . S
O2702 Li2642 1.956 . S
O2702 Li2643 1.970 . S
O2702 C2672 1.325 . S
O2703 Li2641 1.961 . S
O2703 Li2642 1.970 . S
O2703 Li2643 1.956 . S
O2703 C2678 1.325 . S
H2704 C2646 0.929 . S
H2705 C2647 0.930 . S
H2706 C2648 0.930 . S
H2707 C2649 0.930 . S
H2708 C2651 0.930 . S
H2709 C2653 0.929 . S
H2710 C2654 0.930 . S
H2711 C2655 0.930 . S
H2712 C2658 0.930 . S
H2713 C2661 0.929 . S
H2714 C2666 0.929 . S
H2715 C2667 0.930 . S
H2716 C2674 0.929 . S
H2717 C2675 0.930 . S
H2718 C2676 0.930 . S
H2719 C2677 0.930 . S
H2720 C2679 0.929 . S
H2721 C2680 0.930 . S
H2722 C2681 0.930 . S
H2723 C2682 0.930 . S
H2724 C2686 0.929 . S
H2725 C2688 0.930 . S
H2726 C2694 0.929 . S
H2727 C2695 0.930 . S
Li2728 N2745 1.990 . S
Li2728 O2788 1.956 . S
Li2728 O2789 1.970 . S
Li2728 O2790 1.961 . S
Li2729 N2753 1.990 . S
Li2729 O2788 1.970 . S
Li2729 O2789 1.956 . S
Li2729 O2791 1.961 . S
Li2730 N2775 1.990 . S
Li2730 O2788 1.961 . S
Li2730 O2790 1.956 . S
Li2730 O2791 1.970 . S
Li2731 N2781 1.990 . S
Li2731 O2789 1.961 . S
Li2731 O2790 1.970 . S
Li2731 O2791 1.956 . S
C2732 C2734 1.348 . S
C2732 C2735 1.356 . S
C2732 O2788 1.325 . S
N2733 C2736 1.314 . S
N2733 C2737 1.279 . S
C2734 C2732 1.348 . S
C2734 C2736 1.353 . S
C2734 H2792 0.929 . S
C2735 C2732 1.356 . S
C2735 C2737 1.358 . S
C2735 H2793 0.930 . S
C2736 N2733 1.314 . S
C2736 C2734 1.353 . S
C2736 H2794 0.930 . S
C2737 N2733 1.279 . S
C2737 C2735 1.358 . S
C2737 H2795 0.930 . S
C2738 C2741 1.348 . S
C2738 C2742 1.356 . S
C2738 O2789 1.325 . S
C2739 N2740 1.279 . S
C2739 C2742 1.358 . S
C2739 H2796 0.930 . S
N2740 C2739 1.279 . S
N2740 C2743 1.314 . S
C2741 C2738 1.348 . S
C2741 C2743 1.353 . S
C2741 H2797 0.929 . S
C2742 C2738 1.356 . S
C2742 C2739 1.358 . S
C2742 H2798 0.930 . S
C2743 N2740 1.314 . S
C2743 C2741 1.353 . S
C2743 H2799 0.930 . S
C2744 N2745 1.314 . S
C2744 C2749 1.353 . S
C2744 H2750 0.930 . S
N2745 Li2728 1.990 . S
N2745 C2744 1.314 . S
N2745 C2747 1.279 . S
C2746 C2747 1.358 . S
C2746 C2748 1.356 . S
C2746 H2800 0.930 . S
C2747 N2745 1.279 . S
C2747 C2746 1.358 . S
C2747 H2751 0.930 . S
C2748 C2746 1.356 . S
C2748 C2749 1.348 . S
C2749 C2744 1.353 . S
C2749 C2748 1.348 . S
C2749 H2801 0.929 . S
H2750 C2744 0.930 . S
H2751 C2747 0.930 . S
C2752 N2753 1.314 . S
C2752 C2754 1.353 . S
C2752 H2758 0.930 . S
N2753 Li2729 1.990 . S
N2753 C2752 1.314 . S
N2753 C2756 1.279 . S
C2754 C2752 1.353 . S
C2754 C2757 1.348 . S
C2754 H2802 0.929 . S
C2755 C2756 1.358 . S
C2755 C2757 1.356 . S
C2755 H2803 0.930 . S
C2756 N2753 1.279 . S
C2756 C2755 1.358 . S
C2756 H2759 0.930 . S
C2757 C2754 1.348 . S
C2757 C2755 1.356 . S
H2758 C2752 0.930 . S
H2759 C2756 0.930 . S
C2760 C2762 1.348 . S
C2760 C2763 1.356 . S
C2760 O2790 1.325 . S
N2761 C2764 1.314 1_545 S
N2761 C2765 1.279 . S
C2762 C2760 1.348 . S
C2762 C2764 1.353 . S
C2762 H2804 0.929 . S
C2763 C2760 1.356 . S
C2763 C2765 1.358 1_565 S
C2763 H2805 0.930 . S
C2764 N2761 1.314 1_565 S
C2764 C2762 1.353 . S
C2764 H2806 0.930 . S
C2765 N2761 1.279 . S
C2765 C2763 1.358 1_545 S
C2765 H2807 0.930 . S
C2766 C2767 1.348 . S
C2766 C2768 1.356 . S
C2766 O2791 1.325 . S
C2767 C2766 1.348 . S
C2767 C2769 1.353 . S
C2767 H2808 0.929 . S
C2768 C2766 1.356 . S
C2768 C2770 1.358 . S
C2768 H2809 0.930 . S
C2769 C2767 1.353 . S
C2769 N2771 1.314 . S
C2769 H2810 0.930 . S
C2770 C2768 1.358 . S
C2770 N2771 1.279 . S
C2770 H2811 0.930 . S
N2771 C2769 1.314 . S
N2771 C2770 1.279 . S
C2772 C2774 1.353 . S
C2772 N2775 1.314 . S
C2772 H2778 0.930 . S
C2773 N2775 1.279 . S
C2773 C2776 1.358 1_565 S
C2773 H2779 0.935 . S
C2774 C2772 1.353 . S
C2774 C2777 1.348 1_565 S
C2774 H2812 0.929 . S
N2775 Li2730 1.990 . S
N2775 C2772 1.314 . S
N2775 C2773 1.279 . S
C2776 C2773 1.358 1_545 S
C2776 C2777 1.356 . S
C2776 H2813 0.930 . S
C2777 C2774 1.348 1_545 S
C2777 C2776 1.356 . S
H2778 C2772 0.930 . S
H2779 C2773 0.935 . S
C2780 N2781 1.314 . S
C2780 C2782 1.353 . S
C2780 H2786 0.930 . S
N2781 Li2731 1.990 . S
N2781 C2780 1.314 . S
N2781 C2784 1.279 . S
C2782 C2780 1.353 . S
C2782 C2785 1.348 . S
C2782 H2814 0.929 . S
C2783 C2784 1.358 . S
C2783 C2785 1.356 . S
C2783 H2815 0.930 . S
C2784 N2781 1.279 . S
C2784 C2783 1.358 . S
C2784 H2787 0.930 . S
C2785 C2782 1.348 . S
C2785 C2783 1.356 . S
H2786 C2780 0.930 . S
H2787 C2784 0.930 . S
O2788 Li2728 1.956 . S
O2788 Li2729 1.970 . S
O2788 Li2730 1.961 . S
O2788 C2732 1.325 . S
O2789 Li2728 1.970 . S
O2789 Li2729 1.956 . S
O2789 Li2731 1.961 . S
O2789 C2738 1.325 . S
O2790 Li2728 1.961 . S
O2790 Li2730 1.956 . S
O2790 Li2731 1.970 . S
O2790 C2760 1.325 . S
O2791 Li2729 1.961 . S
O2791 Li2730 1.970 . S
O2791 Li2731 1.956 . S
O2791 C2766 1.325 . S
H2792 C2734 0.929 . S
H2793 C2735 0.930 . S
H2794 C2736 0.930 . S
H2795 C2737 0.930 . S
H2796 C2739 0.930 . S
H2797 C2741 0.929 . S
H2798 C2742 0.930 . S
H2799 C2743 0.930 . S
H2800 C2746 0.930 . S
H2801 C2749 0.929 . S
H2802 C2754 0.929 . S
H2803 C2755 0.930 . S
H2804 C2762 0.929 . S
H2805 C2763 0.930 . S
H2806 C2764 0.930 . S
H2807 C2765 0.930 . S
H2808 C2767 0.929 . S
H2809 C2768 0.930 . S
H2810 C2769 0.930 . S
H2811 C2770 0.930 . S
H2812 C2774 0.929 . S
H2813 C2776 0.930 . S
H2814 C2782 0.929 . S
H2815 C2783 0.930 . S
Li2816 N2833 1.990 . S
Li2816 O2876 1.956 . S
Li2816 O2877 1.970 . S
Li2816 O2878 1.961 . S
Li2817 N2841 1.990 . S
Li2817 O2876 1.970 . S
Li2817 O2877 1.956 . S
Li2817 O2879 1.961 . S
Li2818 N2863 1.990 . S
Li2818 O2876 1.961 . S
Li2818 O2878 1.956 . S
Li2818 O2879 1.970 . S
Li2819 N2869 1.990 . S
Li2819 O2877 1.961 . S
Li2819 O2878 1.970 . S
Li2819 O2879 1.956 . S
C2820 C2822 1.348 . S
C2820 C2823 1.356 . S
C2820 O2876 1.325 . S
N2821 C2824 1.314 . S
N2821 C2825 1.279 . S
C2822 C2820 1.348 . S
C2822 C2824 1.353 . S
C2822 H2880 0.929 . S
C2823 C2820 1.356 . S
C2823 C2825 1.358 . S
C2823 H2881 0.930 . S
C2824 N2821 1.314 . S
C2824 C2822 1.353 . S
C2824 H2882 0.930 . S
C2825 N2821 1.279 . S
C2825 C2823 1.358 . S
C2825 H2883 0.930 . S
C2826 C2829 1.348 . S
C2826 C2830 1.356 . S
C2826 O2877 1.325 . S
C2827 N2828 1.279 . S
C2827 C2830 1.358 . S
C2827 H2884 0.930 . S
N2828 C2827 1.279 . S
N2828 C2831 1.314 . S
C2829 C2826 1.348 . S
C2829 C2831 1.353 . S
C2829 H2885 0.929 . S
C2830 C2826 1.356 . S
C2830 C2827 1.358 . S
C2830 H2886 0.930 . S
C2831 N2828 1.314 . S
C2831 C2829 1.353 . S
C2831 H2887 0.930 . S
C2832 N2833 1.314 . S
C2832 C2837 1.353 . S
C2832 H2838 0.930 . S
N2833 Li2816 1.990 . S
N2833 C2832 1.314 . S
N2833 C2835 1.279 . S
C2834 C2835 1.358 . S
C2834 C2836 1.356 . S
C2834 H2888 0.930 . S
C2835 N2833 1.279 . S
C2835 C2834 1.358 . S
C2835 H2839 0.930 . S
C2836 C2834 1.356 . S
C2836 C2837 1.348 . S
C2837 C2832 1.353 . S
C2837 C2836 1.348 . S
C2837 H2889 0.929 . S
H2838 C2832 0.930 . S
H2839 C2835 0.930 . S
C2840 N2841 1.314 . S
C2840 C2842 1.353 . S
C2840 H2846 0.930 . S
N2841 Li2817 1.990 . S
N2841 C2840 1.314 . S
N2841 C2844 1.279 . S
C2842 C2840 1.353 . S
C2842 C2845 1.348 . S
C2842 H2890 0.929 . S
C2843 C2844 1.358 . S
C2843 C2845 1.356 . S
C2843 H2891 0.930 . S
C2844 N2841 1.279 . S
C2844 C2843 1.358 . S
C2844 H2847 0.930 . S
C2845 C2842 1.348 . S
C2845 C2843 1.356 . S
H2846 C2840 0.930 . S
H2847 C2844 0.930 . S
C2848 C2850 1.348 . S
C2848 C2851 1.356 . S
C2848 O2878 1.325 . S
N2849 C2852 1.314 . S
N2849 C2853 1.279 . S
C2850 C2848 1.348 . S
C2850 C2852 1.353 . S
C2850 H2892 0.929 . S
C2851 C2848 1.356 . S
C2851 C2853 1.358 . S
C2851 H2893 0.930 . S
C2852 N2849 1.314 . S
C2852 C2850 1.353 . S
C2852 H2894 0.930 . S
C2853 N2849 1.279 . S
C2853 C2851 1.358 . S
C2853 H2895 0.930 . S
C2854 C2855 1.348 . S
C2854 C2856 1.356 . S
C2854 O2879 1.325 . S
C2855 C2854 1.348 . S
C2855 C2857 1.353 . S
C2855 H2896 0.929 . S
C2856 C2854 1.356 . S
C2856 C2858 1.358 . S
C2856 H2897 0.930 . S
C2857 C2855 1.353 . S
C2857 N2859 1.314 . S
C2857 H2898 0.930 . S
C2858 C2856 1.358 . S
C2858 N2859 1.279 . S
C2858 H2899 0.930 . S
N2859 C2857 1.314 . S
N2859 C2858 1.279 . S
C2860 C2862 1.353 . S
C2860 N2863 1.314 . S
C2860 H2866 0.930 . S
C2861 N2863 1.279 . S
C2861 C2864 1.358 . S
C2861 H2867 0.930 . S
C2862 C2860 1.353 . S
C2862 C2865 1.348 . S
C2862 H2900 0.929 . S
N2863 Li2818 1.990 . S
N2863 C2860 1.314 . S
N2863 C2861 1.279 . S
C2864 C2861 1.358 . S
C2864 C2865 1.356 . S
C2864 H2901 0.930 . S
C2865 C2862 1.348 . S
C2865 C2864 1.356 . S
H2866 C2860 0.930 . S
H2867 C2861 0.930 . S
C2868 N2869 1.314 . S
C2868 C2870 1.353 . S
C2868 H2874 0.930 . S
N2869 Li2819 1.990 . S
N2869 C2868 1.314 . S
N2869 C2872 1.279 . S
C2870 C2868 1.353 . S
C2870 C2873 1.348 . S
C2870 H2902 0.929 . S
C2871 C2872 1.358 . S
C2871 C2873 1.356 . S
C2871 H2903 0.930 . S
C2872 N2869 1.279 . S
C2872 C2871 1.358 . S
C2872 H2875 0.930 . S
C2873 C2870 1.348 . S
C2873 C2871 1.356 . S
H2874 C2868 0.930 . S
H2875 C2872 0.930 . S
O2876 Li2816 1.956 . S
O2876 Li2817 1.970 . S
O2876 Li2818 1.961 . S
O2876 C2820 1.325 . S
O2877 Li2816 1.970 . S
O2877 Li2817 1.956 . S
O2877 Li2819 1.961 . S
O2877 C2826 1.325 . S
O2878 Li2816 1.961 . S
O2878 Li2818 1.956 . S
O2878 Li2819 1.970 . S
O2878 C2848 1.325 . S
O2879 Li2817 1.961 . S
O2879 Li2818 1.970 . S
O2879 Li2819 1.956 . S
O2879 C2854 1.325 . S
H2880 C2822 0.929 . S
H2881 C2823 0.930 . S
H2882 C2824 0.930 . S
H2883 C2825 0.930 . S
H2884 C2827 0.930 . S
H2885 C2829 0.929 . S
H2886 C2830 0.930 . S
H2887 C2831 0.930 . S
H2888 C2834 0.930 . S
H2889 C2837 0.929 . S
H2890 C2842 0.929 . S
H2891 C2843 0.930 . S
H2892 C2850 0.929 . S
H2893 C2851 0.930 . S
H2894 C2852 0.930 . S
H2895 C2853 0.930 . S
H2896 C2855 0.929 . S
H2897 C2856 0.930 . S
H2898 C2857 0.930 . S
H2899 C2858 0.930 . S
H2900 C2862 0.929 . S
H2901 C2864 0.930 . S
H2902 C2870 0.929 . S
H2903 C2871 0.930 . S
Li2904 N2921 1.990 . S
Li2904 O2964 1.956 . S
Li2904 O2965 1.970 . S
Li2904 O2966 1.961 . S
Li2905 N2929 1.990 . S
Li2905 O2964 1.970 . S
Li2905 O2965 1.956 . S
Li2905 O2967 1.961 . S
Li2906 N2951 1.990 . S
Li2906 O2964 1.961 . S
Li2906 O2966 1.956 . S
Li2906 O2967 1.970 . S
Li2907 N2957 1.990 . S
Li2907 O2965 1.961 . S
Li2907 O2966 1.970 . S
Li2907 O2967 1.956 . S
C2908 C2910 1.348 . S
C2908 C2911 1.356 . S
C2908 O2964 1.325 . S
N2909 C2912 1.314 . S
N2909 C2913 1.279 . S
C2910 C2908 1.348 . S
C2910 C2912 1.353 . S
C2910 H2968 0.929 . S
C2911 C2908 1.356 . S
C2911 C2913 1.358 . S
C2911 H2969 0.930 . S
C2912 N2909 1.314 . S
C2912 C2910 1.353 . S
C2912 H2970 0.930 . S
C2913 N2909 1.279 . S
C2913 C2911 1.358 . S
C2913 H2971 0.930 . S
C2914 C2917 1.348 . S
C2914 C2918 1.356 . S
C2914 O2965 1.325 . S
C2915 N2916 1.279 . S
C2915 C2918 1.358 . S
C2915 H2972 0.930 . S
N2916 C2915 1.279 . S
N2916 C2919 1.314 . S
C2917 C2914 1.348 . S
C2917 C2919 1.353 . S
C2917 H2973 0.929 . S
C2918 C2914 1.356 . S
C2918 C2915 1.358 . S
C2918 H2974 0.930 . S
C2919 N2916 1.314 . S
C2919 C2917 1.353 . S
C2919 H2975 0.930 . S
C2920 N2921 1.314 . S
C2920 C2925 1.353 . S
C2920 H2926 0.930 . S
N2921 Li2904 1.990 . S
N2921 C2920 1.314 . S
N2921 C2923 1.279 . S
C2922 C2923 1.358 . S
C2922 C2924 1.356 . S
C2922 H2976 0.930 . S
C2923 N2921 1.279 . S
C2923 C2922 1.358 . S
C2923 H2927 0.930 . S
C2924 C2922 1.356 . S
C2924 C2925 1.348 . S
C2925 C2920 1.353 . S
C2925 C2924 1.348 . S
C2925 H2977 0.929 . S
H2926 C2920 0.930 . S
H2927 C2923 0.930 . S
C2928 N2929 1.314 . S
C2928 C2930 1.353 . S
C2928 H2934 0.930 . S
N2929 Li2905 1.990 . S
N2929 C2928 1.314 . S
N2929 C2932 1.279 . S
C2930 C2928 1.353 . S
C2930 C2933 1.348 . S
C2930 H2978 0.929 . S
C2931 C2932 1.358 . S
C2931 C2933 1.356 . S
C2931 H2979 0.930 . S
C2932 N2929 1.279 . S
C2932 C2931 1.358 . S
C2932 H2935 0.930 . S
C2933 C2930 1.348 . S
C2933 C2931 1.356 . S
H2934 C2928 0.930 . S
H2935 C2932 0.930 . S
C2936 C2938 1.348 . S
C2936 C2939 1.356 . S
C2936 O2966 1.325 . S
N2937 C2940 1.314 . S
N2937 C2941 1.279 . S
C2938 C2936 1.348 . S
C2938 C2940 1.353 . S
C2938 H2980 0.929 . S
C2939 C2936 1.356 . S
C2939 C2941 1.358 . S
C2939 H2981 0.930 . S
C2940 N2937 1.314 . S
C2940 C2938 1.353 . S
C2940 H2982 0.930 . S
C2941 N2937 1.279 . S
C2941 C2939 1.358 . S
C2941 H2983 0.930 . S
C2942 C2943 1.348 . S
C2942 C2944 1.356 . S
C2942 O2967 1.325 . S
C2943 C2942 1.348 . S
C2943 C2945 1.353 . S
C2943 H2984 0.929 . S
C2944 C2942 1.356 . S
C2944 C2946 1.358 . S
C2944 H2985 0.930 . S
C2945 C2943 1.353 . S
C2945 N2947 1.314 . S
C2945 H2986 0.930 . S
C2946 C2944 1.358 . S
C2946 N2947 1.279 . S
C2946 H2987 0.930 . S
N2947 C2945 1.314 . S
N2947 C2946 1.279 . S
C2948 C2950 1.353 . S
C2948 N2951 1.314 . S
C2948 H2954 0.930 . S
C2949 N2951 1.279 . S
C2949 C2952 1.358 . S
C2949 H2955 0.930 . S
C2950 C2948 1.353 . S
C2950 C2953 1.348 . S
C2950 H2988 0.929 . S
N2951 Li2906 1.990 . S
N2951 C2948 1.314 . S
N2951 C2949 1.279 . S
C2952 C2949 1.358 . S
C2952 C2953 1.356 . S
C2952 H2989 0.930 . S
C2953 C2950 1.348 . S
C2953 C2952 1.356 . S
H2954 C2948 0.930 . S
H2955 C2949 0.930 . S
C2956 N2957 1.314 . S
C2956 C2958 1.353 . S
C2956 H2962 0.930 . S
N2957 Li2907 1.990 . S
N2957 C2956 1.314 . S
N2957 C2960 1.279 . S
C2958 C2956 1.353 . S
C2958 C2961 1.348 . S
C2958 H2990 0.929 . S
C2959 C2960 1.358 . S
C2959 C2961 1.356 . S
C2959 H2991 0.930 . S
C2960 N2957 1.279 . S
C2960 C2959 1.358 . S
C2960 H2963 0.930 . S
C2961 C2958 1.348 . S
C2961 C2959 1.356 . S
H2962 C2956 0.930 . S
H2963 C2960 0.930 . S
O2964 Li2904 1.956 . S
O2964 Li2905 1.970 . S
O2964 Li2906 1.961 . S
O2964 C2908 1.325 . S
O2965 Li2904 1.970 . S
O2965 Li2905 1.956 . S
O2965 Li2907 1.961 . S
O2965 C2914 1.325 . S
O2966 Li2904 1.961 . S
O2966 Li2906 1.956 . S
O2966 Li2907 1.970 . S
O2966 C2936 1.325 . S
O2967 Li2905 1.961 . S
O2967 Li2906 1.970 . S
O2967 Li2907 1.956 . S
O2967 C2942 1.325 . S
H2968 C2910 0.929 . S
H2969 C2911 0.930 . S
H2970 C2912 0.930 . S
H2971 C2913 0.930 . S
H2972 C2915 0.930 . S
H2973 C2917 0.929 . S
H2974 C2918 0.930 . S
H2975 C2919 0.930 . S
H2976 C2922 0.930 . S
H2977 C2925 0.929 . S
H2978 C2930 0.929 . S
H2979 C2931 0.930 . S
H2980 C2938 0.929 . S
H2981 C2939 0.930 . S
H2982 C2940 0.930 . S
H2983 C2941 0.930 . S
H2984 C2943 0.929 . S
H2985 C2944 0.930 . S
H2986 C2945 0.930 . S
H2987 C2946 0.930 . S
H2988 C2950 0.929 . S
H2989 C2952 0.930 . S
H2990 C2958 0.929 . S
H2991 C2959 0.930 . S
Li2992 N3009 1.990 . S
Li2992 O3052 1.956 . S
Li2992 O3053 1.970 . S
Li2992 O3054 1.961 . S
Li2993 N3017 1.990 . S
Li2993 O3052 1.970 . S
Li2993 O3053 1.956 . S
Li2993 O3055 1.961 . S
Li2994 N3039 1.990 . S
Li2994 O3052 1.961 . S
Li2994 O3054 1.956 . S
Li2994 O3055 1.970 . S
Li2995 N3045 1.990 . S
Li2995 O3053 1.961 . S
Li2995 O3054 1.970 . S
Li2995 O3055 1.956 . S
C2996 C2998 1.348 . S
C2996 C2999 1.356 . S
C2996 O3052 1.325 . S
N2997 C3000 1.314 . S
N2997 C3001 1.279 . S
C2998 C2996 1.348 . S
C2998 C3000 1.353 . S
C2998 H3056 0.929 . S
C2999 C2996 1.356 . S
C2999 C3001 1.358 . S
C2999 H3057 0.930 . S
C3000 N2997 1.314 . S
C3000 C2998 1.353 . S
C3000 H3058 0.930 . S
C3001 N2997 1.279 . S
C3001 C2999 1.358 . S
C3001 H3059 0.930 . S
C3002 C3005 1.348 . S
C3002 C3006 1.356 . S
C3002 O3053 1.325 . S
C3003 N3004 1.279 . S
C3003 C3006 1.358 . S
C3003 H3060 0.930 . S
N3004 C3003 1.279 . S
N3004 C3007 1.314 . S
C3005 C3002 1.348 . S
C3005 C3007 1.353 . S
C3005 H3061 0.929 . S
C3006 C3002 1.356 . S
C3006 C3003 1.358 . S
C3006 H3062 0.930 . S
C3007 N3004 1.314 . S
C3007 C3005 1.353 . S
C3007 H3063 0.930 . S
C3008 N3009 1.314 . S
C3008 C3013 1.353 . S
C3008 H3014 0.930 . S
N3009 Li2992 1.990 . S
N3009 C3008 1.314 . S
N3009 C3011 1.279 . S
C3010 C3011 1.358 . S
C3010 C3012 1.356 . S
C3010 H3064 0.930 . S
C3011 N3009 1.279 . S
C3011 C3010 1.358 . S
C3011 H3015 0.930 . S
C3012 C3010 1.356 . S
C3012 C3013 1.348 . S
C3013 C3008 1.353 . S
C3013 C3012 1.348 . S
C3013 H3065 0.929 . S
H3014 C3008 0.930 . S
H3015 C3011 0.930 . S
C3016 N3017 1.314 . S
C3016 C3018 1.353 . S
C3016 H3022 0.930 . S
N3017 Li2993 1.990 . S
N3017 C3016 1.314 . S
N3017 C3020 1.279 . S
C3018 C3016 1.353 . S
C3018 C3021 1.348 . S
C3018 H3066 0.929 . S
C3019 C3020 1.358 . S
C3019 C3021 1.356 . S
C3019 H3067 0.930 . S
C3020 N3017 1.279 . S
C3020 C3019 1.358 . S
C3020 H3023 0.930 . S
C3021 C3018 1.348 . S
C3021 C3019 1.356 . S
H3022 C3016 0.930 . S
H3023 C3020 0.930 . S
C3024 C3026 1.348 . S
C3024 C3027 1.356 . S
C3024 O3054 1.325 . S
N3025 C3028 1.314 . S
N3025 C3029 1.279 . S
C3026 C3024 1.348 . S
C3026 C3028 1.353 . S
C3026 H3068 0.929 . S
C3027 C3024 1.356 . S
C3027 C3029 1.358 . S
C3027 H3069 0.930 . S
C3028 N3025 1.314 . S
C3028 C3026 1.353 . S
C3028 H3070 0.930 . S
C3029 N3025 1.279 . S
C3029 C3027 1.358 . S
C3029 H3071 0.930 . S
C3030 C3031 1.348 . S
C3030 C3032 1.356 . S
C3030 O3055 1.325 . S
C3031 C3030 1.348 . S
C3031 C3033 1.353 . S
C3031 H3072 0.929 . S
C3032 C3030 1.356 . S
C3032 C3034 1.358 . S
C3032 H3073 0.930 . S
C3033 C3031 1.353 . S
C3033 N3035 1.314 . S
C3033 H3074 0.930 . S
C3034 C3032 1.358 . S
C3034 N3035 1.279 . S
C3034 H3075 0.930 . S
N3035 C3033 1.314 . S
N3035 C3034 1.279 . S
C3036 C3038 1.353 . S
C3036 N3039 1.314 . S
C3036 H3042 0.930 . S
C3037 N3039 1.279 . S
C3037 C3040 1.358 . S
C3037 H3043 0.930 . S
C3038 C3036 1.353 . S
C3038 C3041 1.348 . S
C3038 H3076 0.929 . S
N3039 Li2994 1.990 . S
N3039 C3036 1.314 . S
N3039 C3037 1.279 . S
C3040 C3037 1.358 . S
C3040 C3041 1.356 . S
C3040 H3077 0.930 . S
C3041 C3038 1.348 . S
C3041 C3040 1.356 . S
H3042 C3036 0.930 . S
H3043 C3037 0.930 . S
C3044 N3045 1.314 . S
C3044 C3046 1.353 . S
C3044 H3050 0.930 . S
N3045 Li2995 1.990 . S
N3045 C3044 1.314 . S
N3045 C3048 1.279 . S
C3046 C3044 1.353 . S
C3046 C3049 1.348 . S
C3046 H3078 0.929 . S
C3047 C3048 1.358 . S
C3047 C3049 1.356 . S
C3047 H3079 0.930 . S
C3048 N3045 1.279 . S
C3048 C3047 1.358 . S
C3048 H3051 0.930 . S
C3049 C3046 1.348 . S
C3049 C3047 1.356 . S
H3050 C3044 0.930 . S
H3051 C3048 0.930 . S
O3052 Li2992 1.956 . S
O3052 Li2993 1.970 . S
O3052 Li2994 1.961 . S
O3052 C2996 1.325 . S
O3053 Li2992 1.970 . S
O3053 Li2993 1.956 . S
O3053 Li2995 1.961 . S
O3053 C3002 1.325 . S
O3054 Li2992 1.961 . S
O3054 Li2994 1.956 . S
O3054 Li2995 1.970 . S
O3054 C3024 1.325 . S
O3055 Li2993 1.961 . S
O3055 Li2994 1.970 . S
O3055 Li2995 1.956 . S
O3055 C3030 1.325 . S
H3056 C2998 0.929 . S
H3057 C2999 0.930 . S
H3058 C3000 0.930 . S
H3059 C3001 0.930 . S
H3060 C3003 0.930 . S
H3061 C3005 0.929 . S
H3062 C3006 0.930 . S
H3063 C3007 0.930 . S
H3064 C3010 0.930 . S
H3065 C3013 0.929 . S
H3066 C3018 0.929 . S
H3067 C3019 0.930 . S
H3068 C3026 0.929 . S
H3069 C3027 0.930 . S
H3070 C3028 0.930 . S
H3071 C3029 0.930 . S
H3072 C3031 0.929 . S
H3073 C3032 0.930 . S
H3074 C3033 0.930 . S
H3075 C3034 0.930 . S
H3076 C3038 0.929 . S
H3077 C3040 0.930 . S
H3078 C3046 0.929 . S
H3079 C3047 0.930 . S
Li3080 N3097 1.990 . S
Li3080 O3140 1.956 . S
Li3080 O3141 1.970 . S
Li3080 O3142 1.961 . S
Li3081 N3105 1.990 . S
Li3081 O3140 1.970 . S
Li3081 O3141 1.956 . S
Li3081 O3143 1.961 . S
Li3082 N3127 1.990 . S
Li3082 O3140 1.961 . S
Li3082 O3142 1.956 . S
Li3082 O3143 1.970 . S
Li3083 N3133 1.990 . S
Li3083 O3141 1.961 . S
Li3083 O3142 1.970 . S
Li3083 O3143 1.956 . S
C3084 C3086 1.348 . S
C3084 C3087 1.356 . S
C3084 O3140 1.325 . S
N3085 C3088 1.314 . S
N3085 C3089 1.279 . S
C3086 C3084 1.348 . S
C3086 C3088 1.353 . S
C3086 H3144 0.929 . S
C3087 C3084 1.356 . S
C3087 C3089 1.358 . S
C3087 H3145 0.930 . S
C3088 N3085 1.314 . S
C3088 C3086 1.353 . S
C3088 H3146 0.930 . S
C3089 N3085 1.279 . S
C3089 C3087 1.358 . S
C3089 H3147 0.930 . S
C3090 C3093 1.348 . S
C3090 C3094 1.356 . S
C3090 O3141 1.325 . S
C3091 N3092 1.279 . S
C3091 C3094 1.358 . S
C3091 H3148 0.930 . S
N3092 C3091 1.279 . S
N3092 C3095 1.314 . S
C3093 C3090 1.348 . S
C3093 C3095 1.353 . S
C3093 H3149 0.929 . S
C3094 C3090 1.356 . S
C3094 C3091 1.358 . S
C3094 H3150 0.930 . S
C3095 N3092 1.314 . S
C3095 C3093 1.353 . S
C3095 H3151 0.930 . S
C3096 N3097 1.314 . S
C3096 C3101 1.353 1_565 S
C3096 H3102 0.930 . S
N3097 Li3080 1.990 . S
N3097 C3096 1.314 . S
N3097 C3099 1.279 . S
C3098 C3099 1.358 . S
C3098 C3100 1.356 1_565 S
C3098 H3152 0.930 . S
C3099 N3097 1.279 . S
C3099 C3098 1.358 . S
C3099 H3103 0.930 . S
C3100 C3098 1.356 1_545 S
C3100 C3101 1.348 . S
C3101 C3096 1.353 1_545 S
C3101 C3100 1.348 . S
C3101 H3153 0.929 . S
H3102 C3096 0.930 . S
H3103 C3099 0.930 . S
C3104 N3105 1.314 . S
C3104 C3106 1.353 . S
C3104 H3110 0.930 . S
N3105 Li3081 1.990 . S
N3105 C3104 1.314 . S
N3105 C3108 1.279 . S
C3106 C3104 1.353 . S
C3106 C3109 1.348 . S
C3106 H3154 0.929 . S
C3107 C3108 1.358 . S
C3107 C3109 1.356 . S
C3107 H3155 0.930 . S
C3108 N3105 1.279 . S
C3108 C3107 1.358 . S
C3108 H3111 0.930 . S
C3109 C3106 1.348 . S
C3109 C3107 1.356 . S
H3110 C3104 0.930 . S
H3111 C3108 0.930 . S
C3112 C3114 1.348 . S
C3112 C3115 1.357 1_565 S
C3112 O3142 1.325 . S
N3113 C3116 1.314 . S
N3113 C3117 1.279 . S
C3114 C3112 1.348 . S
C3114 C3116 1.353 1_565 S
C3114 H3156 0.929 . S
C3115 C3112 1.357 1_545 S
C3115 C3117 1.355 . S
C3115 H3157 0.932 1_545 S
C3116 N3113 1.314 . S
C3116 C3114 1.353 1_545 S
C3116 H3158 0.930 . S
C3117 N3113 1.279 . S
C3117 C3115 1.355 . S
C3117 H3159 0.930 . S
C3118 C3119 1.348 . S
C3118 C3120 1.356 . S
C3118 O3143 1.325 . S
C3119 C3118 1.348 . S
C3119 C3121 1.353 . S
C3119 H3160 0.929 . S
C3120 C3118 1.356 . S
C3120 C3122 1.358 . S
C3120 H3161 0.930 . S
C3121 C3119 1.353 . S
C3121 N3123 1.314 . S
C3121 H3162 0.930 . S
C3122 C3120 1.358 . S
C3122 N3123 1.279 . S
C3122 H3163 0.930 . S
N3123 C3121 1.314 . S
N3123 C3122 1.279 . S
C3124 C3126 1.353 . S
C3124 N3127 1.314 . S
C3124 H3130 0.930 . S
C3125 N3127 1.279 . S
C3125 C3128 1.358 . S
C3125 H3131 0.930 . S
C3126 C3124 1.353 . S
C3126 C3129 1.348 . S
C3126 H3164 0.929 . S
N3127 Li3082 1.990 . S
N3127 C3124 1.314 . S
N3127 C3125 1.279 . S
C3128 C3125 1.358 . S
C3128 C3129 1.356 . S
C3128 H3165 0.930 . S
C3129 C3126 1.348 . S
C3129 C3128 1.356 . S
H3130 C3124 0.930 . S
H3131 C3125 0.930 . S
C3132 N3133 1.314 . S
C3132 C3134 1.353 . S
C3132 H3138 0.930 . S
N3133 Li3083 1.990 . S
N3133 C3132 1.314 . S
N3133 C3136 1.279 . S
C3134 C3132 1.353 . S
C3134 C3137 1.348 . S
C3134 H3166 0.929 . S
C3135 C3136 1.358 . S
C3135 C3137 1.356 . S
C3135 H3167 0.930 . S
C3136 N3133 1.279 . S
C3136 C3135 1.358 . S
C3136 H3139 0.930 . S
C3137 C3134 1.348 . S
C3137 C3135 1.356 . S
H3138 C3132 0.930 . S
H3139 C3136 0.930 . S
O3140 Li3080 1.956 . S
O3140 Li3081 1.970 . S
O3140 Li3082 1.961 . S
O3140 C3084 1.325 . S
O3141 Li3080 1.970 . S
O3141 Li3081 1.956 . S
O3141 Li3083 1.961 . S
O3141 C3090 1.325 . S
O3142 Li3080 1.961 . S
O3142 Li3082 1.956 . S
O3142 Li3083 1.970 . S
O3142 C3112 1.325 . S
O3143 Li3081 1.961 . S
O3143 Li3082 1.970 . S
O3143 Li3083 1.956 . S
O3143 C3118 1.325 . S
H3144 C3086 0.929 . S
H3145 C3087 0.930 . S
H3146 C3088 0.930 . S
H3147 C3089 0.930 . S
H3148 C3091 0.930 . S
H3149 C3093 0.929 . S
H3150 C3094 0.930 . S
H3151 C3095 0.930 . S
H3152 C3098 0.930 . S
H3153 C3101 0.929 . S
H3154 C3106 0.929 . S
H3155 C3107 0.930 . S
H3156 C3114 0.929 . S
H3157 C3115 0.932 1_565 S
H3158 C3116 0.930 . S
H3159 C3117 0.930 . S
H3160 C3119 0.929 . S
H3161 C3120 0.930 . S
H3162 C3121 0.930 . S
H3163 C3122 0.930 . S
H3164 C3126 0.929 . S
H3165 C3128 0.930 . S
H3166 C3134 0.929 . S
H3167 C3135 0.930 . S
C29 C1025 1.010 . S
C841 C108 1.010 . S
C929 C196 1.011 . S
C313 C636 1.010 . S
C409 C724 1.011 . S
C489 C585 1.010 . S
C1085 C2081 1.011 . S
C1897 C1173 1.010 . S
C1261 C1985 1.011 . S
C1377 C1701 1.010 . S
C1465 C1780 1.011 . S
C1553 C1604 1.010 . S
C2141 C3137 1.010 . S
C2229 C2953 1.010 . S
C3041 C2317 1.011 . S
C2433 C2757 1.011 . S
C2836 C2521 1.011 . S
C2660 C2601 1.010 . S
C20 C1369 0.970 . S
C117 C1457 0.971 . S
C205 C1545 0.971 . S
C321 C2132 0.970 . S
C2220 C401 0.971 . S
C2308 C497 0.971 . S
C548 C2933 0.965 . S
C3021 C673 0.965 . S
C761 C3100 0.964 . S
C821 C1641 0.965 . S
C909 C1721 0.964 . S
C988 C1817 0.965 . S
C2425 C1076 0.970 . S
C1164 C2513 0.971 . S
C1252 C2609 0.971 . S
C2697 C1877 0.964 . S
C2777 C1965 0.965 . S
C2044 C2873 0.965 . S
C49 C372 1.839 1_554 S
C469 C145 1.838 1_556 S
C293 C233 1.839 1_556 S
C577 C937 1.853 1_556 S
C1017 C645 1.853 1_554 S
C733 C849 1.853 1_556 S
C1428 C1105 1.839 . S
C1193 C1516 1.839 . S
C1281 C1340 1.839 . S
C1993 C1613 1.854 . S
C2073 C1692 1.853 . S
C1905 C1789 1.853 . S
C2161 C2484 1.839 . S
C2249 C2581 1.839 . S
C2337 C2396 1.839 . S
C3049 C2669 1.853 . S
C3129 C2748 1.853 . S
C2961 C2845 1.854 . S
C812 C57 1.603 . S
C900 C137 1.603 . S
C225 C997 1.603 . S
C284 C557 1.603 . S
C665 C381 1.603 . S
C460 C753 1.603 . S
C1868 C1113 1.603 . S
C1956 C1201 1.603 . S
C1289 C2053 1.603 . S
C1633 C1349 1.603 . S
C1729 C1437 1.603 . S
C1809 C1525 1.603 . S
C2169 C2924 1.603 . S
C3012 C2257 1.603 . S
C2345 C3109 1.603 . S
C2405 C2689 1.603 . S
C2493 C2785 1.603 . S
C2865 C2572 1.603 . S
