# Generated by pormake.
# Topology fcm, (5)-cn, num edge types: 1
# Building blocks:
#     Node 0, Type 0, BuildingBlock: BEQFEK_clean_sbu_0, # of connection points: 5
#     Node 1, Type 0, BuildingBlock: BEQFEK_clean_sbu_0, # of connection points: 5
#     Node 2, Type 0, BuildingBlock: BEQFEK_clean_sbu_0, # of connection points: 5
#     Node 3, Type 0, BuildingBlock: BEQFEK_clean_sbu_0, # of connection points: 5
#     Node 4, Type 0, BuildingBlock: BEQFEK_clean_sbu_0, # of connection points: 5
#     Node 5, Type 0, BuildingBlock: BEQFEK_clean_sbu_0, # of connection points: 5
#     Node 6, Type 0, BuildingBlock: BEQFEK_clean_sbu_0, # of connection points: 5
#     Node 7, Type 0, BuildingBlock: BEQFEK_clean_sbu_0, # of connection points: 5
#     Node 8, Type 0, BuildingBlock: BEQFEK_clean_sbu_0, # of connection points: 5
#     Node 9, Type 0, BuildingBlock: BEQFEK_clean_sbu_0, # of connection points: 5
#     Node 10, Type 0, BuildingBlock: BEQFEK_clean_sbu_0, # of connection points: 5
#     Node 11, Type 0, BuildingBlock: BEQFEK_clean_sbu_0, # of connection points: 5
#     Node 12, Type 0, BuildingBlock: BEQFEK_clean_sbu_0, # of connection points: 5
#     Node 13, Type 0, BuildingBlock: BEQFEK_clean_sbu_0, # of connection points: 5
#     Node 14, Type 0, BuildingBlock: BEQFEK_clean_sbu_0, # of connection points: 5
#     Node 15, Type 0, BuildingBlock: BEQFEK_clean_sbu_0, # of connection points: 5
#     Node 16, Type 0, BuildingBlock: BEQFEK_clean_sbu_0, # of connection points: 5
#     Node 17, Type 0, BuildingBlock: BEQFEK_clean_sbu_0, # of connection points: 5
#     Node 18, Type 0, BuildingBlock: BEQFEK_clean_sbu_0, # of connection points: 5
#     Node 19, Type 0, BuildingBlock: BEQFEK_clean_sbu_0, # of connection points: 5
#     Node 20, Type 0, BuildingBlock: BEQFEK_clean_sbu_0, # of connection points: 5
#     Node 21, Type 0, BuildingBlock: BEQFEK_clean_sbu_0, # of connection points: 5
#     Node 22, Type 0, BuildingBlock: BEQFEK_clean_sbu_0, # of connection points: 5
#     Node 23, Type 0, BuildingBlock: BEQFEK_clean_sbu_0, # of connection points: 5
#     Node 24, Type 0, BuildingBlock: BEQFEK_clean_sbu_0, # of connection points: 5
#     Node 25, Type 0, BuildingBlock: BEQFEK_clean_sbu_0, # of connection points: 5
#     Node 26, Type 0, BuildingBlock: BEQFEK_clean_sbu_0, # of connection points: 5
#     Node 27, Type 0, BuildingBlock: BEQFEK_clean_sbu_0, # of connection points: 5
#     Node 28, Type 0, BuildingBlock: BEQFEK_clean_sbu_0, # of connection points: 5
#     Node 29, Type 0, BuildingBlock: BEQFEK_clean_sbu_0, # of connection points: 5
#     Node 30, Type 0, BuildingBlock: BEQFEK_clean_sbu_0, # of connection points: 5
#     Node 31, Type 0, BuildingBlock: BEQFEK_clean_sbu_0, # of connection points: 5
#     Node 32, Type 0, BuildingBlock: BEQFEK_clean_sbu_0, # of connection points: 5
#     Node 33, Type 0, BuildingBlock: BEQFEK_clean_sbu_0, # of connection points: 5
#     Node 34, Type 0, BuildingBlock: BEQFEK_clean_sbu_0, # of connection points: 5
#     Node 35, Type 0, BuildingBlock: BEQFEK_clean_sbu_0, # of connection points: 5
#     Node 36, Type 0, BuildingBlock: BEQFEK_clean_sbu_0, # of connection points: 5
#     Node 37, Type 0, BuildingBlock: BEQFEK_clean_sbu_0, # of connection points: 5
#     Node 38, Type 0, BuildingBlock: BEQFEK_clean_sbu_0, # of connection points: 5
#     Node 39, Type 0, BuildingBlock: BEQFEK_clean_sbu_0, # of connection points: 5
#     Node 40, Type 0, BuildingBlock: BEQFEK_clean_sbu_0, # of connection points: 5
#     Node 41, Type 0, BuildingBlock: BEQFEK_clean_sbu_0, # of connection points: 5
#     Node 42, Type 0, BuildingBlock: BEQFEK_clean_sbu_0, # of connection points: 5
#     Node 43, Type 0, BuildingBlock: BEQFEK_clean_sbu_0, # of connection points: 5
#     Node 44, Type 0, BuildingBlock: BEQFEK_clean_sbu_0, # of connection points: 5
#     Node 45, Type 0, BuildingBlock: BEQFEK_clean_sbu_0, # of connection points: 5
#     Node 46, Type 0, BuildingBlock: BEQFEK_clean_sbu_0, # of connection points: 5
#     Node 47, Type 0, BuildingBlock: BEQFEK_clean_sbu_0, # of connection points: 5
#     Edge 48, Type (0, 0), BuildingBlock: EZIPEK_clean_linker_0, # of connection points: 2
#     Edge 49, Type (0, 0), BuildingBlock: EZIPEK_clean_linker_0, # of connection points: 2
#     Edge 50, Type (0, 0), BuildingBlock: EZIPEK_clean_linker_0, # of connection points: 2
#     Edge 51, Type (0, 0), BuildingBlock: EZIPEK_clean_linker_0, # of connection points: 2
#     Edge 52, Type (0, 0), BuildingBlock: EZIPEK_clean_linker_0, # of connection points: 2
#     Edge 53, Type (0, 0), BuildingBlock: EZIPEK_clean_linker_0, # of connection points: 2
#     Edge 54, Type (0, 0), BuildingBlock: EZIPEK_clean_linker_0, # of connection points: 2
#     Edge 55, Type (0, 0), BuildingBlock: EZIPEK_clean_linker_0, # of connection points: 2
#     Edge 56, Type (0, 0), BuildingBlock: EZIPEK_clean_linker_0, # of connection points: 2
#     Edge 57, Type (0, 0), BuildingBlock: EZIPEK_clean_linker_0, # of connection points: 2
#     Edge 58, Type (0, 0), BuildingBlock: EZIPEK_clean_linker_0, # of connection points: 2
#     Edge 59, Type (0, 0), BuildingBlock: EZIPEK_clean_linker_0, # of connection points: 2
#     Edge 60, Type (0, 0), BuildingBlock: EZIPEK_clean_linker_0, # of connection points: 2
#     Edge 61, Type (0, 0), BuildingBlock: EZIPEK_clean_linker_0, # of connection points: 2
#     Edge 62, Type (0, 0), BuildingBlock: EZIPEK_clean_linker_0, # of connection points: 2
#     Edge 63, Type (0, 0), BuildingBlock: EZIPEK_clean_linker_0, # of connection points: 2
#     Edge 64, Type (0, 0), BuildingBlock: EZIPEK_clean_linker_0, # of connection points: 2
#     Edge 65, Type (0, 0), BuildingBlock: EZIPEK_clean_linker_0, # of connection points: 2
#     Edge 66, Type (0, 0), BuildingBlock: EZIPEK_clean_linker_0, # of connection points: 2
#     Edge 67, Type (0, 0), BuildingBlock: EZIPEK_clean_linker_0, # of connection points: 2
#     Edge 68, Type (0, 0), BuildingBlock: EZIPEK_clean_linker_0, # of connection points: 2
#     Edge 69, Type (0, 0), BuildingBlock: EZIPEK_clean_linker_0, # of connection points: 2
#     Edge 70, Type (0, 0), BuildingBlock: EZIPEK_clean_linker_0, # of connection points: 2
#     Edge 71, Type (0, 0), BuildingBlock: EZIPEK_clean_linker_0, # of connection points: 2
#     Edge 72, Type (0, 0), BuildingBlock: EZIPEK_clean_linker_0, # of connection points: 2
#     Edge 73, Type (0, 0), BuildingBlock: EZIPEK_clean_linker_0, # of connection points: 2
#     Edge 74, Type (0, 0), BuildingBlock: EZIPEK_clean_linker_0, # of connection points: 2
#     Edge 75, Type (0, 0), BuildingBlock: EZIPEK_clean_linker_0, # of connection points: 2
#     Edge 76, Type (0, 0), BuildingBlock: EZIPEK_clean_linker_0, # of connection points: 2
#     Edge 77, Type (0, 0), BuildingBlock: EZIPEK_clean_linker_0, # of connection points: 2
#     Edge 78, Type (0, 0), BuildingBlock: EZIPEK_clean_linker_0, # of connection points: 2
#     Edge 79, Type (0, 0), BuildingBlock: EZIPEK_clean_linker_0, # of connection points: 2
#     Edge 80, Type (0, 0), BuildingBlock: EZIPEK_clean_linker_0, # of connection points: 2
#     Edge 81, Type (0, 0), BuildingBlock: EZIPEK_clean_linker_0, # of connection points: 2
#     Edge 82, Type (0, 0), BuildingBlock: EZIPEK_clean_linker_0, # of connection points: 2
#     Edge 83, Type (0, 0), BuildingBlock: EZIPEK_clean_linker_0, # of connection points: 2
#     Edge 84, Type (0, 0), BuildingBlock: EZIPEK_clean_linker_0, # of connection points: 2
#     Edge 85, Type (0, 0), BuildingBlock: EZIPEK_clean_linker_0, # of connection points: 2
#     Edge 86, Type (0, 0), BuildingBlock: EZIPEK_clean_linker_0, # of connection points: 2
#     Edge 87, Type (0, 0), BuildingBlock: EZIPEK_clean_linker_0, # of connection points: 2
#     Edge 88, Type (0, 0), BuildingBlock: EZIPEK_clean_linker_0, # of connection points: 2
#     Edge 89, Type (0, 0), BuildingBlock: EZIPEK_clean_linker_0, # of connection points: 2
#     Edge 90, Type (0, 0), BuildingBlock: EZIPEK_clean_linker_0, # of connection points: 2
#     Edge 91, Type (0, 0), BuildingBlock: EZIPEK_clean_linker_0, # of connection points: 2
#     Edge 92, Type (0, 0), BuildingBlock: EZIPEK_clean_linker_0, # of connection points: 2
#     Edge 93, Type (0, 0), BuildingBlock: EZIPEK_clean_linker_0, # of connection points: 2
#     Edge 94, Type (0, 0), BuildingBlock: EZIPEK_clean_linker_0, # of connection points: 2
#     Edge 95, Type (0, 0), BuildingBlock: EZIPEK_clean_linker_0, # of connection points: 2
#     Edge 96, Type (0, 0), BuildingBlock: EZIPEK_clean_linker_0, # of connection points: 2
#     Edge 97, Type (0, 0), BuildingBlock: EZIPEK_clean_linker_0, # of connection points: 2
#     Edge 98, Type (0, 0), BuildingBlock: EZIPEK_clean_linker_0, # of connection points: 2
#     Edge 99, Type (0, 0), BuildingBlock: EZIPEK_clean_linker_0, # of connection points: 2
#     Edge 100, Type (0, 0), BuildingBlock: EZIPEK_clean_linker_0, # of connection points: 2
#     Edge 101, Type (0, 0), BuildingBlock: EZIPEK_clean_linker_0, # of connection points: 2
#     Edge 102, Type (0, 0), BuildingBlock: EZIPEK_clean_linker_0, # of connection points: 2
#     Edge 103, Type (0, 0), BuildingBlock: EZIPEK_clean_linker_0, # of connection points: 2
#     Edge 104, Type (0, 0), BuildingBlock: EZIPEK_clean_linker_0, # of connection points: 2
#     Edge 105, Type (0, 0), BuildingBlock: EZIPEK_clean_linker_0, # of connection points: 2
#     Edge 106, Type (0, 0), BuildingBlock: EZIPEK_clean_linker_0, # of connection points: 2
#     Edge 107, Type (0, 0), BuildingBlock: EZIPEK_clean_linker_0, # of connection points: 2
#     Edge 108, Type (0, 0), BuildingBlock: EZIPEK_clean_linker_0, # of connection points: 2
#     Edge 109, Type (0, 0), BuildingBlock: EZIPEK_clean_linker_0, # of connection points: 2
#     Edge 110, Type (0, 0), BuildingBlock: EZIPEK_clean_linker_0, # of connection points: 2
#     Edge 111, Type (0, 0), BuildingBlock: EZIPEK_clean_linker_0, # of connection points: 2
#     Edge 112, Type (0, 0), BuildingBlock: EZIPEK_clean_linker_0, # of connection points: 2
#     Edge 113, Type (0, 0), BuildingBlock: EZIPEK_clean_linker_0, # of connection points: 2
#     Edge 114, Type (0, 0), BuildingBlock: EZIPEK_clean_linker_0, # of connection points: 2
#     Edge 115, Type (0, 0), BuildingBlock: EZIPEK_clean_linker_0, # of connection points: 2
#     Edge 116, Type (0, 0), BuildingBlock: EZIPEK_clean_linker_0, # of connection points: 2
#     Edge 117, Type (0, 0), BuildingBlock: EZIPEK_clean_linker_0, # of connection points: 2
#     Edge 118, Type (0, 0), BuildingBlock: EZIPEK_clean_linker_0, # of connection points: 2
#     Edge 119, Type (0, 0), BuildingBlock: EZIPEK_clean_linker_0, # of connection points: 2
#     Edge 120, Type (0, 0), BuildingBlock: EZIPEK_clean_linker_0, # of connection points: 2
#     Edge 121, Type (0, 0), BuildingBlock: EZIPEK_clean_linker_0, # of connection points: 2
#     Edge 122, Type (0, 0), BuildingBlock: EZIPEK_clean_linker_0, # of connection points: 2
#     Edge 123, Type (0, 0), BuildingBlock: EZIPEK_clean_linker_0, # of connection points: 2
#     Edge 124, Type (0, 0), BuildingBlock: EZIPEK_clean_linker_0, # of connection points: 2
#     Edge 125, Type (0, 0), BuildingBlock: EZIPEK_clean_linker_0, # of connection points: 2
#     Edge 126, Type (0, 0), BuildingBlock: EZIPEK_clean_linker_0, # of connection points: 2
#     Edge 127, Type (0, 0), BuildingBlock: EZIPEK_clean_linker_0, # of connection points: 2
#     Edge 128, Type (0, 0), BuildingBlock: EZIPEK_clean_linker_0, # of connection points: 2
#     Edge 129, Type (0, 0), BuildingBlock: EZIPEK_clean_linker_0, # of connection points: 2
#     Edge 130, Type (0, 0), BuildingBlock: EZIPEK_clean_linker_0, # of connection points: 2
#     Edge 131, Type (0, 0), BuildingBlock: EZIPEK_clean_linker_0, # of connection points: 2
#     Edge 132, Type (0, 0), BuildingBlock: EZIPEK_clean_linker_0, # of connection points: 2
#     Edge 133, Type (0, 0), BuildingBlock: EZIPEK_clean_linker_0, # of connection points: 2
#     Edge 134, Type (0, 0), BuildingBlock: EZIPEK_clean_linker_0, # of connection points: 2
#     Edge 135, Type (0, 0), BuildingBlock: EZIPEK_clean_linker_0, # of connection points: 2
#     Edge 136, Type (0, 0), BuildingBlock: EZIPEK_clean_linker_0, # of connection points: 2
#     Edge 137, Type (0, 0), BuildingBlock: EZIPEK_clean_linker_0, # of connection points: 2
#     Edge 138, Type (0, 0), BuildingBlock: EZIPEK_clean_linker_0, # of connection points: 2
#     Edge 139, Type (0, 0), BuildingBlock: EZIPEK_clean_linker_0, # of connection points: 2
#     Edge 140, Type (0, 0), BuildingBlock: EZIPEK_clean_linker_0, # of connection points: 2
#     Edge 141, Type (0, 0), BuildingBlock: EZIPEK_clean_linker_0, # of connection points: 2
#     Edge 142, Type (0, 0), BuildingBlock: EZIPEK_clean_linker_0, # of connection points: 2
#     Edge 143, Type (0, 0), BuildingBlock: EZIPEK_clean_linker_0, # of connection points: 2
#     Edge 144, Type (0, 0), BuildingBlock: EZIPEK_clean_linker_0, # of connection points: 2
#     Edge 145, Type (0, 0), BuildingBlock: EZIPEK_clean_linker_0, # of connection points: 2
#     Edge 146, Type (0, 0), BuildingBlock: EZIPEK_clean_linker_0, # of connection points: 2
#     Edge 147, Type (0, 0), BuildingBlock: EZIPEK_clean_linker_0, # of connection points: 2
#     Edge 148, Type (0, 0), BuildingBlock: EZIPEK_clean_linker_0, # of connection points: 2
#     Edge 149, Type (0, 0), BuildingBlock: EZIPEK_clean_linker_0, # of connection points: 2
#     Edge 150, Type (0, 0), BuildingBlock: EZIPEK_clean_linker_0, # of connection points: 2
#     Edge 151, Type (0, 0), BuildingBlock: EZIPEK_clean_linker_0, # of connection points: 2
#     Edge 152, Type (0, 0), BuildingBlock: EZIPEK_clean_linker_0, # of connection points: 2
#     Edge 153, Type (0, 0), BuildingBlock: EZIPEK_clean_linker_0, # of connection points: 2
#     Edge 154, Type (0, 0), BuildingBlock: EZIPEK_clean_linker_0, # of connection points: 2
#     Edge 155, Type (0, 0), BuildingBlock: EZIPEK_clean_linker_0, # of connection points: 2
#     Edge 156, Type (0, 0), BuildingBlock: EZIPEK_clean_linker_0, # of connection points: 2
#     Edge 157, Type (0, 0), BuildingBlock: EZIPEK_clean_linker_0, # of connection points: 2
#     Edge 158, Type (0, 0), BuildingBlock: EZIPEK_clean_linker_0, # of connection points: 2
#     Edge 159, Type (0, 0), BuildingBlock: EZIPEK_clean_linker_0, # of connection points: 2
#     Edge 160, Type (0, 0), BuildingBlock: EZIPEK_clean_linker_0, # of connection points: 2
#     Edge 161, Type (0, 0), BuildingBlock: EZIPEK_clean_linker_0, # of connection points: 2
#     Edge 162, Type (0, 0), BuildingBlock: EZIPEK_clean_linker_0, # of connection points: 2
#     Edge 163, Type (0, 0), BuildingBlock: EZIPEK_clean_linker_0, # of connection points: 2
#     Edge 164, Type (0, 0), BuildingBlock: EZIPEK_clean_linker_0, # of connection points: 2
#     Edge 165, Type (0, 0), BuildingBlock: EZIPEK_clean_linker_0, # of connection points: 2
#     Edge 166, Type (0, 0), BuildingBlock: EZIPEK_clean_linker_0, # of connection points: 2
#     Edge 167, Type (0, 0), BuildingBlock: EZIPEK_clean_linker_0, # of connection points: 2
# Relax obj value: 0.522
# Max RMSD: 0.212
# Mean RMSD: 0.212
data_MOF--net-fcm--node1-BEQFEK_clean_sbu_0--edge1-EZIPEK_clean_linker_0
_symmetry_space_group_name_H-M    P1
_symmetry_Int_Tables_number       1
_symmetry_cell_setting            triclinic
loop_
_symmetry_equiv_pos_as_xyz
'x, y, z'
_cell_length_a     53.695542
_cell_length_b     53.705124
_cell_length_c     53.697295
_cell_angle_alpha  89.994704
_cell_angle_beta   89.993414
_cell_angle_gamma 90.016943
loop_
_atom_site_label
_atom_site_type_symbol
_atom_site_fract_x
_atom_site_fract_y
_atom_site_fract_z
_atom_type_partial_charge
Co0 Co 0.02464 0.06711 0.32309 0.0
Co1 Co 0.98301 0.0361 0.35112 0.0
C2 C 0.99884 0.023 0.29962 0.0
O3 O 0.01405 0.04096 0.3002 0.0
O4 O 0.98576 0.01747 0.31862 0.0
C5 C 0.07063 0.06329 0.29802 0.0
O6 O 0.06002 0.0439 0.28765 0.0
C7 C 0.9623 0.99157 0.37534 0.0
C8 C 0.94697 0.00739 0.41001 0.0
C9 C 0.95342 0.98503 0.39881 0.0
N10 N 0.9626 0.01663 0.3735 0.0
N11 N 0.95255 0.02589 0.39397 0.0
C12 C 0.97192 0.97443 0.3556 0.0
H13 H 0.99194 0.97835 0.35234 0.0
H14 H 0.96944 0.95461 0.36091 0.0
H15 H 0.96186 0.97805 0.33792 0.0
C16 C 0.04919 0.06339 0.37139 0.0
N17 N 0.03045 0.0569 0.35596 0.0
N18 N 0.01434 0.04289 0.36791 0.0
C19 C 0.02304 0.03956 0.39145 0.0
C20 C 0.0455 0.05218 0.39424 0.0
C21 C 0.06865 0.08247 0.36547 0.0
H22 H 0.06046 0.09767 0.35414 0.0
H23 H 0.08385 0.07365 0.35469 0.0
H24 H 0.07677 0.09049 0.3827 0.0
O25 O 0.99684 0.09085 0.32231 0.0
O26 O 0.96677 0.06885 0.34139 0.0
H27 H 0.99539 0.03896 0.41997 0.0
H28 H 0.02249 0.02031 0.42676 0.0
C29 C 0.00956 0.02635 0.41182 0.0
H30 H 1.00004 0.01007 0.40424 0.0
H31 H 0.95142 0.04489 0.39788 0.0
O32 O 0.05766 0.07843 0.31086 0.0
C33 C 0.97428 0.08821 0.32951 0.0
Co34 Co 0.18175 0.77203 0.57392 0.0
Co35 Co 0.21575 0.73193 0.59987 0.0
C36 C 0.22755 0.74996 0.54896 0.0
O37 O 0.20854 0.76394 0.5501 0.0
O38 O 0.23403 0.73652 0.56742 0.0
C39 C 0.18704 0.82012 0.56193 0.0
O40 O 0.20899 0.81236 0.56944 0.0
C41 C 0.25983 0.70847 0.62268 0.0
C42 C 0.24394 0.69606 0.65852 0.0
C43 C 0.26636 0.69978 0.64624 0.0
N44 N 0.23489 0.71114 0.6218 0.0
N45 N 0.2255 0.7028 0.64296 0.0
C46 C 0.27693 0.71525 0.60173 0.0
H47 H 0.27129 0.7049 0.58475 0.0
H48 H 0.27511 0.7354 0.59755 0.0
H49 H 0.2966 0.71078 0.60628 0.0
C50 C 0.18551 0.79506 0.62348 0.0
N51 N 0.1923 0.77736 0.60703 0.0
N52 N 0.2088 0.76256 0.61738 0.0
C53 C 0.21382 0.77149 0.6405 0.0
C54 C 0.19939 0.79246 0.6449 0.0
C55 C 0.16422 0.81256 0.62014 0.0
H56 H 0.15128 0.80556 0.60568 0.0
H57 H 0.17167 0.83105 0.61492 0.0
H58 H 0.15395 0.81485 0.63794 0.0
O59 O 0.15905 0.74339 0.5731 0.0
O60 O 0.18308 0.71504 0.59166 0.0
H61 H 0.2211 0.7461 0.67016 0.0
H62 H 0.23912 0.77431 0.67148 0.0
C63 C 0.23124 0.76002 0.65878 0.0
H64 H 0.24632 0.7507 0.64876 0.0
H65 H 0.20663 0.70368 0.64757 0.0
O66 O 0.1691 0.8046 0.56151 0.0
C67 C 0.16274 0.72116 0.58084 0.0
Co68 Co 0.47623 0.93276 0.82245 0.0
Co69 Co 0.51827 0.96508 0.84739 0.0
C70 C 0.49754 0.97861 0.79777 0.0
O71 O 0.4836 0.95959 0.79866 0.0
O72 O 0.51125 0.98454 0.81618 0.0
C73 C 0.42789 0.93804 0.81093 0.0
O74 O 0.43573 0.96005 0.81815 0.0
C75 C 0.53363 0.00795 0.8761 0.0
C76 C 0.5689 0.99603 0.89355 0.0
C77 C 0.55151 0.01517 0.89326 0.0
N78 N 0.53967 0.98533 0.86727 0.0
N79 N 0.56101 0.97845 0.87743 0.0
C80 C 0.51019 0.02149 0.86936 0.0
H81 H 0.49578 0.00826 0.86271 0.0
H82 H 0.50305 0.03232 0.88546 0.0
H83 H 0.51423 0.03468 0.85399 0.0
C84 C 0.45519 0.93631 0.87314 0.0
N85 N 0.4725 0.94274 0.85612 0.0
N86 N 0.4895 0.95674 0.86685 0.0
C87 C 0.4831 0.95977 0.89111 0.0
C88 C 0.46099 0.94726 0.89554 0.0
C89 C 0.43425 0.91863 0.86882 0.0
H90 H 0.43987 0.90444 0.85499 0.0
H91 H 0.41794 0.92933 0.86215 0.0
H92 H 0.4287 0.90909 0.88628 0.0
O93 O 0.50493 0.91005 0.81975 0.0
O94 O 0.53517 0.9333 0.83686 0.0
H95 H 0.51859 0.96762 0.90768 0.0
H96 H 0.49322 0.96558 0.92956 0.0
C97 C 0.49868 0.972 0.91068 0.0
H98 H 0.49588 0.99241 0.90997 0.0
H99 H 0.56961 0.96133 0.87419 0.0
O100 O 0.44338 0.92009 0.81075 0.0
C101 C 0.52772 0.91351 0.82579 0.0
Co102 Co 0.31113 0.22499 0.07629 0.0
Co103 Co 0.28269 0.26952 0.10127 0.0
C104 C 0.26677 0.24791 0.05176 0.0
O105 O 0.28455 0.23253 0.05275 0.0
O106 O 0.26251 0.26277 0.06981 0.0
C107 C 0.31271 0.17797 0.05319 0.0
O108 O 0.29019 0.18525 0.04718 0.0
C109 C 0.23996 0.29027 0.12768 0.0
C110 C 0.25518 0.32414 0.14526 0.0
C111 C 0.23401 0.30932 0.14414 0.0
N112 N 0.26379 0.29298 0.12047 0.0
N113 N 0.27263 0.31359 0.13059 0.0
C114 C 0.22382 0.2688 0.12002 0.0
H115 H 0.2354 0.25292 0.11362 0.0
H116 H 0.21163 0.26287 0.13563 0.0
H117 H 0.2118 0.27462 0.10427 0.0
C118 C 0.30566 0.2034 0.12642 0.0
N119 N 0.3009 0.2218 0.11007 0.0
N120 N 0.29052 0.24056 0.12168 0.0
C121 C 0.28922 0.23485 0.14631 0.0
C122 C 0.30115 0.21174 0.15079 0.0
C123 C 0.30802 0.17691 0.11796 0.0
H124 H 0.29635 0.17395 0.10121 0.0
H125 H 0.30159 0.16354 0.1323 0.0
H126 H 0.32758 0.17306 0.11291 0.0
O127 O 0.33463 0.25309 0.07225 0.0
O128 O 0.31495 0.28518 0.08986 0.0
H129 H 0.28156 0.26679 0.16923 0.0
H130 H 0.26755 0.23785 0.1805 0.0
C131 C 0.27272 0.24889 0.16391 0.0
H132 H 0.25501 0.25308 0.15465 0.0
H133 H 0.29081 0.32001 0.12816 0.0
O134 O 0.3262 0.19286 0.06573 0.0
C135 C 0.33347 0.27619 0.07782 0.0
Co136 Co 0.02225 0.9362 0.17504 0.0
Co137 Co 0.97843 0.96591 0.1503 0.0
C138 C 0.99783 0.97812 0.20171 0.0
O139 O 0.01411 0.96117 0.20008 0.0
O140 O 0.98324 0.98288 0.18358 0.0
C141 C 0.0695 0.93633 0.19504 0.0
O142 O 0.06299 0.95987 0.19631 0.0
C143 C 0.96372 0.00907 0.12121 0.0
C144 C 0.92611 0.99926 0.10777 0.0
C145 C 0.94461 0.01722 0.10587 0.0
N146 N 0.95718 0.98702 0.13111 0.0
N147 N 0.93452 0.9814 0.12331 0.0
C148 C 0.98835 0.0215 0.12556 0.0
H149 H 0.00211 0.00823 0.1333 0.0
H150 H 0.99547 0.02984 0.10804 0.0
H151 H 0.98598 0.03669 0.13934 0.0
C152 C 0.04611 0.94655 0.12644 0.0
N153 N 0.02711 0.94924 0.14267 0.0
N154 N 0.00811 0.95953 0.13119 0.0
C155 C 0.01416 0.96249 0.10685 0.0
C156 C 0.03861 0.95482 0.10325 0.0
C157 C 0.07073 0.93523 0.13263 0.0
H158 H 0.06766 0.9161 0.13964 0.0
H159 H 0.07985 0.94658 0.1472 0.0
H160 H 0.08342 0.9345 0.11637 0.0
O161 O 0.99361 0.91269 0.17587 0.0
O162 O 0.96202 0.93385 0.1587 0.0
H163 H 0.00125 0.96013 0.06897 0.0
H164 H 0.9975 0.98996 0.08329 0.0
C165 C 0.99632 0.96964 0.08666 0.0
H166 H 0.977 0.96466 0.09191 0.0
H167 H 0.92512 0.96504 0.12796 0.0
O168 O 0.05382 0.92092 0.18627 0.0
C169 C 0.97072 0.91457 0.1696 0.0
Co170 Co 0.31839 0.77345 0.42502 0.0
Co171 Co 0.28417 0.73347 0.39991 0.0
C172 C 0.27161 0.752 0.45014 0.0
O173 O 0.29157 0.76469 0.44939 0.0
O174 O 0.26422 0.74006 0.43102 0.0
C175 C 0.30935 0.82116 0.43427 0.0
O176 O 0.2877 0.81032 0.43138 0.0
C177 C 0.24062 0.70916 0.3769 0.0
C178 C 0.25699 0.69651 0.34138 0.0
C179 C 0.2344 0.70004 0.35341 0.0
N180 N 0.26553 0.71211 0.37802 0.0
N181 N 0.27521 0.70366 0.35704 0.0
C182 C 0.22321 0.71597 0.39758 0.0
H183 H 0.22947 0.70686 0.41504 0.0
H184 H 0.22381 0.73639 0.40068 0.0
H185 H 0.20383 0.71013 0.39338 0.0
C186 C 0.31728 0.79455 0.37481 0.0
N187 N 0.30943 0.7774 0.39143 0.0
N188 N 0.29274 0.76288 0.38109 0.0
C189 C 0.28852 0.77146 0.35767 0.0
C190 C 0.30367 0.792 0.35316 0.0
C191 C 0.33861 0.81209 0.37893 0.0
H192 H 0.35161 0.80447 0.39305 0.0
H193 H 0.33159 0.83038 0.38532 0.0
H194 H 0.34894 0.81533 0.36134 0.0
O195 O 0.34166 0.74555 0.42728 0.0
O196 O 0.31608 0.7164 0.41155 0.0
H197 H 0.28109 0.74585 0.32834 0.0
H198 H 0.26386 0.77435 0.32611 0.0
C199 C 0.27104 0.76017 0.33931 0.0
H200 H 0.25539 0.75144 0.34917 0.0
H201 H 0.2941 0.70472 0.35259 0.0
O202 O 0.32888 0.80761 0.43443 0.0
C203 C 0.33671 0.72291 0.4218 0.0
Co204 Co 0.47743 0.06866 0.67399 0.0
Co205 Co 0.51984 0.03533 0.65036 0.0
C206 C 0.49708 0.02226 0.69909 0.0
O207 O 0.48391 0.0418 0.69801 0.0
O208 O 0.51067 0.01567 0.68081 0.0
C209 C 0.42888 0.06408 0.68527 0.0
O210 O 0.43648 0.04183 0.67857 0.0
C211 C 0.53415 0.99219 0.62081 0.0
C212 C 0.5725 1.00053 0.60869 0.0
C213 C 0.55333 0.98338 0.60577 0.0
N214 N 0.54127 0.01385 0.63124 0.0
N215 N 0.56439 0.01855 0.62423 0.0
C216 C 0.50893 0.98078 0.6246 0.0
H217 H 0.49511 0.9951 0.63002 0.0
H218 H 0.50266 0.97088 0.60757 0.0
H219 H 0.5099 0.96715 0.64008 0.0
C220 C 0.45748 0.06453 0.62281 0.0
N221 N 0.47467 0.05865 0.64017 0.0
N222 N 0.49228 0.04516 0.62974 0.0
C223 C 0.48664 0.04235 0.60524 0.0
C224 C 0.46414 0.054 0.60044 0.0
C225 C 0.43562 0.0811 0.62694 0.0
H226 H 0.44081 0.0961 0.64006 0.0
H227 H 0.42012 0.06981 0.63453 0.0
H228 H 0.42909 0.08964 0.60932 0.0
O229 O 0.50652 0.09073 0.67831 0.0
O230 O 0.5371 0.06613 0.66375 0.0
H231 H 0.52303 0.03371 0.59081 0.0
H232 H 0.49973 0.03995 0.56745 0.0
C233 C 0.5032 0.03114 0.58584 0.0
H234 H 0.49894 0.01106 0.58388 0.0
H235 H 0.57437 0.03439 0.62946 0.0
O236 O 0.44453 0.08191 0.68503 0.0
C237 C 0.52956 0.08628 0.67419 0.0
Co238 Co 0.17768 0.22564 0.92542 0.0
Co239 Co 0.21454 0.26435 0.90168 0.0
C240 C 0.22446 0.24665 0.95208 0.0
O241 O 0.20447 0.23401 0.95014 0.0
O242 O 0.23297 0.25889 0.93358 0.0
C243 C 0.18463 0.17733 0.9334 0.0
O244 O 0.20616 0.18684 0.92679 0.0
C245 C 0.25755 0.28877 0.87711 0.0
C246 C 0.24087 0.29588 0.84019 0.0
C247 C 0.26345 0.29513 0.85261 0.0
N248 N 0.23283 0.28457 0.87849 0.0
N249 N 0.22295 0.28973 0.85656 0.0
C250 C 0.27498 0.2859 0.89867 0.0
H251 H 0.26838 0.29765 0.91434 0.0
H252 H 0.27471 0.26631 0.90524 0.0
H253 H 0.29425 0.29134 0.89352 0.0
C254 C 0.18009 0.20604 0.87443 0.0
N255 N 0.18783 0.22197 0.89217 0.0
N256 N 0.20742 0.23411 0.88422 0.0
C257 C 0.21404 0.22447 0.86187 0.0
C258 C 0.19688 0.20643 0.85498 0.0
C259 C 0.15506 0.19401 0.87394 0.0
H260 H 0.14488 0.1974 0.89157 0.0
H261 H 0.15701 0.17389 0.86992 0.0
H262 H 0.1441 0.20209 0.85839 0.0
O263 O 0.15523 0.25387 0.92707 0.0
O264 O 0.18192 0.28182 0.91114 0.0
H265 H 0.23175 0.2446 0.83252 0.0
H266 H 0.24511 0.21468 0.83878 0.0
C267 C 0.23674 0.23141 0.84758 0.0
H268 H 0.25021 0.24002 0.86034 0.0
H269 H 0.20423 0.28688 0.85216 0.0
O270 O 0.16589 0.19177 0.93551 0.0
C271 C 0.16086 0.27619 0.92104 0.0
Co272 Co 0.32888 0.02503 0.06726 0.0
Co273 Co 0.3532 0.98295 0.03467 0.0
C274 C 0.30325 0.00216 0.02193 0.0
O275 O 0.30461 0.01595 0.04107 0.0
O276 O 0.32179 0.98906 0.01501 0.0
C277 C 0.31738 0.07257 0.06017 0.0
O278 O 0.32458 0.06355 0.0386 0.0
C279 C 0.37652 0.95985 0.99083 0.0
C280 C 0.41091 0.94469 0.00741 0.0
C281 C 0.39987 0.95031 0.98473 0.0
N282 N 0.37463 0.96117 0.01585 0.0
N283 N 0.39491 0.95122 0.02559 0.0
C284 C 0.35672 0.96865 0.97328 0.0
H285 H 0.35367 0.98892 0.97589 0.0
H286 H 0.3618 0.96482 0.95361 0.0
H287 H 0.33895 0.95909 0.97774 0.0
C288 C 0.3783 0.04674 0.06359 0.0
N289 N 0.36179 0.02912 0.05694 0.0
N290 N 0.37246 0.01295 0.04202 0.0
C291 C 0.39619 0.02094 0.03789 0.0
C292 C 0.40034 0.0428 0.05121 0.0
C293 C 0.3744 0.06544 0.08377 0.0
H294 H 0.35984 0.05902 0.09689 0.0
H295 H 0.3691 0.08337 0.07512 0.0
H296 H 0.39193 0.0686 0.09427 0.0
O297 O 0.32794 0.9979 0.091 0.0
O298 O 0.34017 0.96636 0.06658 0.0
H299 H 0.42391 0.99268 0.03486 0.0
H300 H 0.43039 0.02026 0.01689 0.0
C301 C 0.41544 0.00743 0.02318 0.0
H302 H 0.40668 0.9986 0.00706 0.0
H303 H 0.39878 0.95089 0.04463 0.0
O304 O 0.31684 0.05802 0.07886 0.0
C305 C 0.33091 0.97463 0.08704 0.0
Co306 Co 0.22451 0.07439 0.31496 0.0
Co307 Co 0.2682 0.10088 0.28583 0.0
C308 C 0.25011 0.05131 0.27007 0.0
O309 O 0.23602 0.05124 0.28895 0.0
O310 O 0.26273 0.07053 0.26425 0.0
C311 C 0.17728 0.05474 0.30524 0.0
O312 O 0.18835 0.04822 0.28447 0.0
C313 C 0.28618 0.13238 0.24484 0.0
C314 C 0.31974 0.1502 0.26042 0.0
C315 C 0.30425 0.15013 0.23975 0.0
N316 N 0.29042 0.1227 0.26763 0.0
N317 N 0.31074 0.13326 0.2767 0.0
C318 C 0.26433 0.12588 0.22885 0.0
H319 H 0.25002 0.11573 0.23977 0.0
H320 H 0.25618 0.143 0.22059 0.0
H321 H 0.27073 0.11386 0.21331 0.0
C322 C 0.20268 0.12442 0.31166 0.0
N323 N 0.22067 0.10794 0.30549 0.0
N324 N 0.23875 0.11953 0.29376 0.0
C325 C 0.23279 0.14398 0.29241 0.0
C326 C 0.20953 0.14777 0.30314 0.0
C327 C 0.18048 0.11837 0.32745 0.0
H328 H 0.16799 0.10579 0.31725 0.0
H329 H 0.16948 0.13506 0.33244 0.0
H330 H 0.18663 0.1087 0.34464 0.0
O331 O 0.25083 0.07228 0.34065 0.0
O332 O 0.2828 0.08736 0.31815 0.0
H333 H 0.2439 0.18261 0.29053 0.0
H334 H 0.24937 0.16467 0.26286 0.0
C335 C 0.24981 0.1641 0.28347 0.0
H336 H 0.26905 0.16044 0.28986 0.0
H337 H 0.31794 0.1296 0.29438 0.0
O338 O 0.19015 0.06332 0.32329 0.0
C339 C 0.27406 0.07703 0.33791 0.0
Co340 Co 0.17477 0.97498 0.56338 0.0
Co341 Co 0.15144 0.02044 0.53451 0.0
C342 C 0.20236 0.99962 0.52208 0.0
O343 O 0.19963 0.98205 0.53758 0.0
O344 O 0.18508 0.01549 0.51855 0.0
C345 C 0.18698 0.92627 0.5584 0.0
O346 O 0.18188 0.93403 0.53576 0.0
C347 C 0.12454 0.03668 0.49031 0.0
C348 C 0.11049 0.07391 0.5005 0.0
C349 C 0.10948 0.05595 0.48191 0.0
N350 N 0.13335 0.04259 0.51302 0.0
N351 N 0.1252 0.06506 0.51885 0.0
C352 C 0.12951 0.01238 0.47751 0.0
H353 H 0.13592 0.99811 0.49096 0.0
H354 H 0.11263 0.00579 0.46755 0.0
H355 H 0.14453 0.015 0.46358 0.0
C356 C 0.12402 0.9548 0.55599 0.0
N357 N 0.14151 0.97237 0.55181 0.0
N358 N 0.13131 0.9912 0.53992 0.0
C359 C 0.10681 0.986 0.53638 0.0
C360 C 0.10171 0.96256 0.54597 0.0
C361 C 0.12783 0.9319 0.57123 0.0
H362 H 0.13964 0.93649 0.58746 0.0
H363 H 0.13688 0.91757 0.55951 0.0
H364 H 0.11005 0.92395 0.57805 0.0
O365 O 0.17783 0.00335 0.58723 0.0
O366 O 0.15982 0.03553 0.56755 0.0
H367 H 0.09272 0.02326 0.53209 0.0
H368 H 0.06905 0.99951 0.53474 0.0
C369 C 0.08768 0.00394 0.52694 0.0
H370 H 0.08635 0.00239 0.50642 0.0
H371 H 0.12897 0.074 0.53569 0.0
O372 O 0.1853 0.94182 0.57622 0.0
C373 C 0.17156 0.02635 0.58619 0.0
Co374 Co 0.27389 0.9242 0.81524 0.0
Co375 Co 0.23045 0.90059 0.78371 0.0
C376 C 0.25175 0.95059 0.77103 0.0
O377 O 0.26625 0.94906 0.78957 0.0
O378 O 0.23767 0.93245 0.76506 0.0
C379 C 0.32206 0.93745 0.81055 0.0
O380 O 0.31436 0.93195 0.788 0.0
C381 C 0.21491 0.87266 0.74007 0.0
C382 C 0.17798 0.85786 0.75041 0.0
C383 C 0.19601 0.85707 0.73188 0.0
N384 N 0.20872 0.88169 0.76261 0.0
N385 N 0.18643 0.87309 0.76854 0.0
C386 C 0.23919 0.87781 0.72732 0.0
H387 H 0.25332 0.88448 0.74082 0.0
H388 H 0.24602 0.86092 0.71756 0.0
H389 H 0.23641 0.89264 0.71322 0.0
C390 C 0.29499 0.87364 0.80837 0.0
N391 N 0.27736 0.89091 0.8036 0.0
N392 N 0.25908 0.88044 0.7911 0.0
C393 C 0.26455 0.85597 0.78797 0.0
C394 C 0.28771 0.85114 0.79834 0.0
C395 C 0.31782 0.87808 0.82354 0.0
H396 H 0.31295 0.8898 0.83976 0.0
H397 H 0.33181 0.88752 0.81173 0.0
H398 H 0.32634 0.86058 0.83032 0.0
O399 O 0.24548 0.92642 0.83862 0.0
O400 O 0.21409 0.9106 0.81606 0.0
H401 H 0.25166 0.81803 0.7856 0.0
H402 H 0.24921 0.83559 0.75739 0.0
C403 C 0.24716 0.83667 0.77789 0.0
H404 H 0.22765 0.84137 0.78264 0.0
H405 H 0.17738 0.87689 0.78531 0.0
O406 O 0.30666 0.93547 0.82845 0.0
C407 C 0.22242 0.92108 0.83585 0.0
Co408 Co 0.3242 0.97531 0.43441 0.0
Co409 Co 0.35207 0.01753 0.46362 0.0
C410 C 0.30063 0.00141 0.47786 0.0
O411 O 0.30087 0.98595 0.46011 0.0
O412 O 0.31963 0.01478 0.48277 0.0
C413 C 0.30296 0.9283 0.43937 0.0
O414 O 0.29514 0.93764 0.46056 0.0
C415 C 0.37759 0.03896 0.5072 0.0
C416 C 0.41094 0.05537 0.48964 0.0
C417 C 0.401 0.04886 0.5126 0.0
N418 N 0.37462 0.03842 0.48224 0.0
N419 N 0.3943 0.04902 0.47195 0.0
C420 C 0.35884 0.0289 0.52521 0.0
H421 H 0.35572 0.00883 0.52139 0.0
H422 H 0.36495 0.03149 0.54479 0.0
H423 H 0.34081 0.03858 0.52238 0.0
C424 C 0.37254 0.95095 0.438 0.0
N425 N 0.35701 0.96957 0.44454 0.0
N426 N 0.36908 0.98615 0.45787 0.0
C427 C 0.39279 0.97781 0.46085 0.0
C428 C 0.39555 0.95509 0.44869 0.0
C429 C 0.36686 0.93157 0.41875 0.0
H430 H 0.35509 0.9396 0.4038 0.0
H431 H 0.3568 0.9159 0.42756 0.0
H432 H 0.38418 0.9241 0.4103 0.0
O433 O 0.3239 0.00205 0.40993 0.0
O434 O 0.343 0.03288 0.42996 0.0
H435 H 0.42066 0.00611 0.45959 0.0
H436 H 0.42886 0.9796 0.47859 0.0
C437 C 0.41339 0.99204 0.47285 0.0
H438 H 0.40627 0.00177 0.48919 0.0
H439 H 0.39728 0.05011 0.45278 0.0
O440 O 0.31265 0.94252 0.42307 0.0
C441 C 0.33185 0.02448 0.41056 0.0
Co442 Co 0.27467 0.07637 0.68484 0.0
Co443 Co 0.23103 0.09984 0.71598 0.0
C444 C 0.25238 0.05031 0.72942 0.0
O445 O 0.26667 0.05159 0.71066 0.0
O446 O 0.23868 0.0687 0.73551 0.0
C447 C 0.32309 0.06298 0.68903 0.0
O448 O 0.31571 0.06783 0.71183 0.0
C449 C 0.21437 0.12777 0.75914 0.0
C450 C 0.17846 0.14388 0.74735 0.0
C451 C 0.19565 0.14385 0.76665 0.0
N452 N 0.20887 0.11907 0.73632 0.0
N453 N 0.18717 0.12849 0.72947 0.0
C454 C 0.23802 0.12208 0.77276 0.0
H455 H 0.25231 0.11464 0.75984 0.0
H456 H 0.24513 0.13899 0.78229 0.0
H457 H 0.2342 0.1078 0.7872 0.0
C458 C 0.29569 0.12713 0.69179 0.0
N459 N 0.27806 0.10976 0.69636 0.0
N460 N 0.25948 0.12021 0.70841 0.0
C461 C 0.26464 0.14476 0.7113 0.0
C462 C 0.28796 0.14977 0.70129 0.0
C463 C 0.31905 0.12254 0.67746 0.0
H464 H 0.33229 0.11237 0.68953 0.0
H465 H 0.32839 0.13994 0.67157 0.0
H466 H 0.31458 0.11136 0.66075 0.0
O467 O 0.24659 0.07383 0.66107 0.0
O468 O 0.21483 0.08824 0.68405 0.0
H469 H 0.25164 0.1827 0.71387 0.0
H470 H 0.24791 0.16445 0.74155 0.0
C471 C 0.24684 0.16388 0.72096 0.0
H472 H 0.22758 0.15924 0.71523 0.0
H473 H 0.17879 0.12519 0.71226 0.0
O474 O 0.30735 0.06526 0.67149 0.0
C475 C 0.22339 0.07826 0.66412 0.0
Co476 Co 0.179 0.02441 0.93459 0.0
Co477 Co 0.15264 0.98251 0.96631 0.0
C478 C 0.20369 0.00198 0.97964 0.0
O479 O 0.20303 0.01612 0.96077 0.0
O480 O 0.18478 0.98883 0.98559 0.0
C481 C 0.19438 0.07229 0.93782 0.0
O482 O 0.18933 0.06529 0.9607 0.0
C483 C 0.12408 0.96748 0.01034 0.0
C484 C 0.10058 0.93702 0.99592 0.0
C485 C 0.10387 0.95237 0.01649 0.0
N486 N 0.13162 0.96192 0.98704 0.0
N487 N 0.11789 0.94324 0.97879 0.0
C488 C 0.13515 0.98804 0.02556 0.0
H489 H 0.13157 0.00613 0.01623 0.0
H490 H 0.12738 0.98838 0.0447 0.0
H491 H 0.15563 0.98558 0.02653 0.0
C492 C 0.12969 0.04841 0.94013 0.0
N493 N 0.14581 0.02986 0.9456 0.0
N494 N 0.1338 0.01194 0.95731 0.0
C495 C 0.10939 0.01854 0.95869 0.0
C496 C 0.10642 0.04203 0.94862 0.0
C497 C 0.13555 0.07102 0.9251 0.0
H498 H 0.14765 0.06582 0.90929 0.0
H499 H 0.14488 0.08475 0.9373 0.0
H500 H 0.11852 0.07998 0.91763 0.0
O501 O 0.17991 0.99552 0.91168 0.0
O502 O 0.16293 0.96505 0.93473 0.0
H503 H 0.07901 0.9967 0.94567 0.0
H504 H 0.07366 0.01126 0.97501 0.0
C505 C 0.08795 0.00153 0.96368 0.0
H506 H 0.09365 0.98421 0.97268 0.0
H507 H 0.11918 0.93588 0.96085 0.0
O508 O 0.19162 0.0563 0.92057 0.0
C509 C 0.1737 0.97274 0.91485 0.0
Co510 Co 0.22327 0.92244 0.18259 0.0
Co511 Co 0.26772 0.90206 0.21515 0.0
C512 C 0.24582 0.95239 0.2253 0.0
O513 O 0.2299 0.94761 0.20861 0.0
O514 O 0.26197 0.93588 0.23126 0.0
C515 C 0.17509 0.93052 0.18987 0.0
O516 O 0.18456 0.92389 0.21144 0.0
C517 C 0.29433 0.88046 0.25903 0.0
C518 C 0.30412 0.84389 0.24316 0.0
C519 C 0.30178 0.85634 0.26567 0.0
N520 N 0.29059 0.88128 0.23414 0.0
N521 N 0.2976 0.85964 0.22478 0.0
C522 C 0.29032 0.90221 0.27593 0.0
H523 H 0.30023 0.91869 0.26835 0.0
H524 H 0.27023 0.90685 0.27641 0.0
H525 H 0.29704 0.89818 0.29506 0.0
C526 C 0.20492 0.87214 0.18826 0.0
N527 N 0.22159 0.88999 0.19379 0.0
N528 N 0.23772 0.88172 0.2102 0.0
C529 C 0.23022 0.85843 0.21684 0.0
C530 C 0.2094 0.85185 0.20304 0.0
C531 C 0.18563 0.87383 0.16834 0.0
H532 H 0.19085 0.88818 0.15448 0.0
H533 H 0.16749 0.87822 0.17711 0.0
H534 H 0.18349 0.85575 0.15862 0.0
O535 O 0.25046 0.92445 0.1586 0.0
O536 O 0.28297 0.91221 0.18167 0.0
H537 H 0.25554 0.82949 0.22638 0.0
H538 H 0.22817 0.83055 0.24548 0.0
C539 C 0.24224 0.84218 0.23577 0.0
H540 H 0.25197 0.85374 0.24944 0.0
H541 H 0.29549 0.85474 0.20609 0.0
O542 O 0.18949 0.93196 0.17109 0.0
C543 C 0.27387 0.92104 0.16138 0.0
Co544 Co 0.06826 0.32355 0.02357 0.0
Co545 Co 0.03348 0.34932 0.98393 0.0
C546 C 0.02176 0.29869 0.00221 0.0
O547 O 0.04135 0.29956 0.01544 0.0
O548 O 0.01463 0.3176 0.98979 0.0
C549 C 0.06326 0.31256 0.07207 0.0
O550 O 0.04123 0.31968 0.06419 0.0
C551 C 0.98912 0.37282 0.96205 0.0
C552 C 0.00575 0.40484 0.94233 0.0
C553 C 0.98312 0.39506 0.95009 0.0
N554 N 0.01409 0.37039 0.96241 0.0
N555 N 0.02385 0.38917 0.94985 0.0
C556 C 0.97164 0.35493 0.97439 0.0
H557 H 0.9761 0.35374 0.99454 0.0
H558 H 0.95192 0.36054 0.97185 0.0
H559 H 0.9744 0.33612 0.96632 0.0
C560 C 0.06627 0.37346 0.04551 0.0
N561 N 0.05844 0.35701 0.02827 0.0
N562 N 0.04153 0.36754 0.01401 0.0
C563 C 0.03722 0.39078 0.02313 0.0
C564 C 0.05256 0.39496 0.04349 0.0
C565 C 0.08846 0.37018 0.06183 0.0
H566 H 0.10018 0.35454 0.05526 0.0
H567 H 0.08198 0.3671 0.08113 0.0
H568 H 0.09978 0.38749 0.06195 0.0
O569 O 0.09067 0.32198 0.995 0.0
O570 O 0.06561 0.33933 0.96644 0.0
H571 H 0.02589 0.42829 0.01436 0.0
H572 H 0.00191 0.40827 0.02559 0.0
C573 C 0.01862 0.40901 0.01349 0.0
H574 H 0.0135 0.40487 0.99423 0.0
H575 H 0.04294 0.39231 0.94806 0.0
O576 O 0.08109 0.31175 0.05644 0.0
C577 C 0.08604 0.32856 0.9726 0.0
Co578 Co 0.5717 0.17073 0.97547 0.0
Co579 Co 0.535 0.15121 0.01595 0.0
C580 C 0.52971 0.20234 0.99791 0.0
O581 O 0.54918 0.19778 0.98553 0.0
O582 O 0.51877 0.18444 0.00908 0.0
C583 C 0.56482 0.18078 0.92704 0.0
O584 O 0.54258 0.17692 0.93653 0.0
C585 C 0.49128 0.12611 0.03814 0.0
C586 C 0.5086 0.10629 0.06945 0.0
C587 C 0.48597 0.10877 0.05716 0.0
N588 N 0.51545 0.13276 0.03956 0.0
N589 N 0.52556 0.1211 0.05862 0.0
C590 C 0.47489 0.1347 0.01722 0.0
H591 H 0.48638 0.14097 0.00122 0.0
H592 H 0.46199 0.11977 0.01113 0.0
H593 H 0.46391 0.15106 0.02337 0.0
C594 C 0.56334 0.12127 0.95523 0.0
N595 N 0.55764 0.13896 0.97196 0.0
N596 N 0.54006 0.13085 0.9869 0.0
C597 C 0.53317 0.10779 0.97903 0.0
C598 C 0.5476 0.10131 0.95846 0.0
C599 C 0.58544 0.12192 0.93832 0.0
H600 H 0.5991 0.13606 0.94455 0.0
H601 H 0.57907 0.12602 0.91917 0.0
H602 H 0.5946 0.10339 0.93787 0.0
O603 O 0.59593 0.16954 0.00207 0.0
O604 O 0.56899 0.15892 0.03175 0.0
H605 H 0.51756 0.09072 0.01158 0.0
H606 H 0.51429 0.0724 0.98363 0.0
C607 C 0.51411 0.09157 0.99128 0.0
H608 H 0.49538 0.09932 0.98779 0.0
H609 H 0.54435 0.12225 0.06343 0.0
O610 O 0.58341 0.18026 0.94173 0.0
C611 C 0.59104 0.16515 0.02493 0.0
Co612 Co 0.0738 0.32136 0.2259 0.0
Co613 Co 0.10051 0.28564 0.26496 0.0
C614 C 0.05088 0.27278 0.24611 0.0
O615 O 0.05137 0.29299 0.23379 0.0
O616 O 0.06985 0.26537 0.25834 0.0
C617 C 0.06357 0.31574 0.17758 0.0
O618 O 0.07151 0.29411 0.18575 0.0
C619 C 0.13071 0.24312 0.28429 0.0
C620 C 0.15471 0.26143 0.31214 0.0
C621 C 0.15051 0.23877 0.30052 0.0
N622 N 0.12368 0.26719 0.28611 0.0
N623 N 0.13799 0.27788 0.30308 0.0
C624 C 0.11891 0.2247 0.26702 0.0
H625 H 0.10779 0.23436 0.25255 0.0
H626 H 0.1332 0.21283 0.25804 0.0
H627 H 0.10644 0.21234 0.27793 0.0
C628 C 0.12407 0.32144 0.20475 0.0
N629 N 0.10742 0.31302 0.22153 0.0
N630 N 0.11771 0.29552 0.23512 0.0
C631 C 0.14082 0.29132 0.22606 0.0
C632 C 0.14548 0.30745 0.20642 0.0
C633 C 0.12118 0.34456 0.18969 0.0
H634 H 0.1043 0.35497 0.19531 0.0
H635 H 0.12064 0.3395 0.16974 0.0
H636 H 0.13775 0.35665 0.19232 0.0
O637 O 0.07066 0.34295 0.25481 0.0
O638 O 0.08714 0.31663 0.28288 0.0
H639 H 0.17566 0.27131 0.22501 0.0
H640 H 0.1493 0.2546 0.23731 0.0
C641 C 0.15855 0.27298 0.23646 0.0
H642 H 0.16365 0.27908 0.25551 0.0
H643 H 0.13702 0.29671 0.30777 0.0
O644 O 0.0618 0.33373 0.19294 0.0
C645 C 0.07626 0.3372 0.2772 0.0
Co646 Co 0.93764 0.82216 0.47381 0.0
Co647 Co 0.96534 0.84862 0.5183 0.0
C648 C 0.98017 0.79747 0.50016 0.0
O649 O 0.96285 0.79827 0.48421 0.0
O650 O 0.98463 0.81608 0.5143 0.0
C651 C 0.93911 0.79682 0.42735 0.0
O652 O 0.95679 0.78365 0.43783 0.0
C653 C 0.00872 0.87646 0.53577 0.0
C654 C 0.9916 0.90545 0.55927 0.0
C655 C 0.01383 0.89894 0.54772 0.0
N656 N 0.98449 0.87077 0.53913 0.0
N657 N 0.97459 0.88779 0.55387 0.0
C658 C 0.0261 0.861 0.52041 0.0
H659 H 0.02623 0.84168 0.52773 0.0
H660 H 0.01919 0.86015 0.50095 0.0
H661 H 0.04535 0.8685 0.52078 0.0
C662 C 0.94597 0.87067 0.45001 0.0
N663 N 0.94987 0.8546 0.46895 0.0
N664 N 0.95923 0.86669 0.48806 0.0
C665 C 0.96023 0.89121 0.48216 0.0
C666 C 0.9528 0.89419 0.45764 0.0
C667 C 0.93305 0.86448 0.42613 0.0
H668 H 0.9441 0.85052 0.41593 0.0
H669 H 0.93077 0.88106 0.41402 0.0
H670 H 0.91442 0.85654 0.43019 0.0
O671 O 0.91213 0.82272 0.50077 0.0
O672 O 0.93203 0.84002 0.5328 0.0
H673 H 0.95774 0.93025 0.49199 0.0
H674 H 0.98098 0.91292 0.50838 0.0
C675 C 0.96211 0.91198 0.50061 0.0
H676 H 0.94886 0.90856 0.51608 0.0
H677 H 0.95575 0.88844 0.55862 0.0
O678 O 0.92589 0.81147 0.44047 0.0
C679 C 0.91242 0.83022 0.52344 0.0
Co680 Co 0.9272 0.18456 0.22439 0.0
Co681 Co 0.90154 0.21594 0.26698 0.0
C682 C 0.95189 0.22968 0.24682 0.0
O683 O 0.95122 0.21087 0.23262 0.0
O684 O 0.93317 0.23544 0.26025 0.0
C685 C 0.94219 0.18905 0.1764 0.0
O686 O 0.93649 0.21166 0.18372 0.0
C687 C 0.87564 0.2602 0.28516 0.0
C688 C 0.85014 0.24477 0.31345 0.0
C689 C 0.85533 0.26631 0.3001 0.0
N690 N 0.88137 0.23605 0.28878 0.0
N691 N 0.86653 0.22714 0.30629 0.0
C692 C 0.88853 0.27643 0.26651 0.0
H693 H 0.88643 0.26823 0.24765 0.0
H694 H 0.88113 0.29571 0.26669 0.0
H695 H 0.90872 0.277 0.2708 0.0
C696 C 0.87753 0.19048 0.20123 0.0
N697 N 0.89383 0.19563 0.2197 0.0
N698 N 0.88219 0.20772 0.2376 0.0
C699 C 0.85785 0.20995 0.23089 0.0
C700 C 0.85451 0.19974 0.20749 0.0
C701 C 0.88318 0.17536 0.17868 0.0
H702 H 0.89516 0.15949 0.18401 0.0
H703 H 0.89263 0.18746 0.16495 0.0
H704 H 0.86614 0.16803 0.16966 0.0
O705 O 0.92894 0.1612 0.253 0.0
O706 O 0.91244 0.18421 0.28371 0.0
H707 H 0.82563 0.20022 0.25184 0.0
H708 H 0.82409 0.23014 0.23755 0.0
C709 C 0.8367 0.21712 0.24746 0.0
H710 H 0.84302 0.22534 0.26495 0.0
H711 H 0.86638 0.20858 0.31202 0.0
O712 O 0.93972 0.17135 0.19198 0.0
C713 C 0.92315 0.16437 0.2759 0.0
Co714 Co 0.43269 0.67637 0.52365 0.0
Co715 Co 0.4645 0.64887 0.48265 0.0
C716 C 0.47729 0.70026 0.49873 0.0
O717 O 0.45858 0.70012 0.51307 0.0
O718 O 0.48338 0.68102 0.48628 0.0
C719 C 0.4375 0.69829 0.57079 0.0
O720 O 0.45796 0.70715 0.5608 0.0
C721 C 0.50845 0.62592 0.45931 0.0
C722 C 0.49257 0.59078 0.4451 0.0
C723 C 0.51499 0.60282 0.44955 0.0
N724 N 0.48347 0.62684 0.4617 0.0
N725 N 0.47409 0.6061 0.45237 0.0
C726 C 0.52565 0.64629 0.46749 0.0
H727 H 0.52059 0.66378 0.45772 0.0
H728 H 0.52332 0.64957 0.48776 0.0
H729 H 0.54537 0.6417 0.46336 0.0
C730 C 0.43648 0.62755 0.54775 0.0
N731 N 0.44312 0.64333 0.52935 0.0
N732 N 0.4579 0.63183 0.51363 0.0
C733 C 0.46181 0.60841 0.52234 0.0
C734 C 0.44845 0.60501 0.54429 0.0
C735 C 0.4168 0.63285 0.56679 0.0
H736 H 0.40188 0.6445 0.55853 0.0
H737 H 0.42519 0.64302 0.58264 0.0
H738 H 0.40852 0.61535 0.57403 0.0
O739 O 0.40884 0.67695 0.49589 0.0
O740 O 0.43167 0.65817 0.46639 0.0
H741 H 0.46553 0.57936 0.4955 0.0
H742 H 0.48396 0.57493 0.52317 0.0
C743 C 0.47705 0.58897 0.50967 0.0
H744 H 0.49289 0.59779 0.50031 0.0
H745 H 0.45519 0.60158 0.45273 0.0
O746 O 0.42133 0.6877 0.55701 0.0
C747 C 0.41195 0.66969 0.4734 0.0
Co748 Co 0.07227 0.68007 0.27596 0.0
Co749 Co 0.09832 0.71399 0.23549 0.0
C750 C 0.04772 0.72621 0.25291 0.0
O751 O 0.04857 0.70679 0.26642 0.0
O752 O 0.0669 0.73349 0.24099 0.0
C753 C 0.06277 0.68716 0.32458 0.0
O754 O 0.07017 0.70868 0.31559 0.0
C755 C 0.12306 0.75775 0.21334 0.0
C756 C 0.158 0.74049 0.20029 0.0
C757 C 0.14709 0.76341 0.20517 0.0
N758 N 0.1207 0.73276 0.21467 0.0
N759 N 0.14133 0.72263 0.20592 0.0
C760 C 0.10293 0.77558 0.22068 0.0
H761 H 0.08562 0.7709 0.21041 0.0
H762 H 0.09884 0.7735 0.24084 0.0
H763 H 0.10828 0.79512 0.21658 0.0
C764 C 0.12265 0.68166 0.29722 0.0
N765 N 0.10587 0.68937 0.28019 0.0
N766 N 0.11632 0.70583 0.26541 0.0
C767 C 0.13983 0.70991 0.27379 0.0
C768 C 0.14434 0.69482 0.29413 0.0
C769 C 0.11903 0.66082 0.31513 0.0
H770 H 0.10291 0.64923 0.30965 0.0
H771 H 0.1167 0.66882 0.33398 0.0
H772 H 0.13586 0.64886 0.31574 0.0
O773 O 0.07038 0.65711 0.24775 0.0
O774 O 0.08748 0.68178 0.21856 0.0
H775 H 0.16931 0.71593 0.24801 0.0
H776 H 0.17212 0.73362 0.27621 0.0
C777 C 0.15869 0.72656 0.26217 0.0
H778 H 0.1493 0.74232 0.25339 0.0
H779 H 0.14491 0.70354 0.20595 0.0
O780 O 0.06068 0.66885 0.30961 0.0
C781 C 0.07659 0.66152 0.22516 0.0
Co782 Co 0.42304 0.31162 0.77614 0.0
Co783 Co 0.39757 0.28781 0.72905 0.0
C784 C 0.44728 0.26999 0.74908 0.0
O785 O 0.44721 0.28604 0.7664 0.0
O786 O 0.42892 0.26769 0.73421 0.0
C787 C 0.44818 0.31299 0.82348 0.0
O788 O 0.46729 0.30214 0.81274 0.0
C789 C 0.36993 0.245 0.71152 0.0
C790 C 0.34542 0.26034 0.68238 0.0
C791 C 0.34941 0.23919 0.69678 0.0
N792 N 0.37701 0.2686 0.70676 0.0
N793 N 0.36271 0.27745 0.68878 0.0
C794 C 0.38182 0.22907 0.73109 0.0
H795 H 0.37957 0.23804 0.74958 0.0
H796 H 0.37379 0.21005 0.73147 0.0
H797 H 0.40208 0.22764 0.72733 0.0
C798 C 0.37408 0.30262 0.79796 0.0
N799 N 0.39018 0.30028 0.77883 0.0
N800 N 0.37799 0.29388 0.75859 0.0
C801 C 0.35332 0.29338 0.76423 0.0
C802 C 0.35039 0.29845 0.78932 0.0
C803 C 0.38077 0.30978 0.82402 0.0
H804 H 0.38761 0.32926 0.82426 0.0
H805 H 0.39551 0.29713 0.83085 0.0
H806 H 0.36458 0.30849 0.8368 0.0
O807 O 0.42504 0.33798 0.75025 0.0
O808 O 0.41082 0.32001 0.71537 0.0
H809 H 0.32607 0.31158 0.74199 0.0
H810 H 0.31622 0.28218 0.75423 0.0
C811 C 0.33229 0.2923 0.74606 0.0
H812 H 0.33782 0.28358 0.72849 0.0
H813 H 0.36344 0.29576 0.6823 0.0
O814 O 0.43143 0.3229 0.81004 0.0
C815 C 0.4216 0.33809 0.72665 0.0
Co816 Co 0.52442 0.56752 0.82692 0.0
Co817 Co 0.48106 0.53546 0.85096 0.0
C818 C 0.50237 0.524 0.80031 0.0
O819 O 0.51786 0.54153 0.80272 0.0
O820 O 0.48742 0.51839 0.81791 0.0
C821 C 0.57233 0.56225 0.81333 0.0
O822 O 0.56454 0.53991 0.81957 0.0
C823 C 0.46463 0.49007 0.87598 0.0
C824 C 0.4352 0.50367 0.9012 0.0
C825 C 0.44991 0.48301 0.89612 0.0
N826 N 0.45968 0.51399 0.87028 0.0
N827 N 0.4415 0.52177 0.88495 0.0
C828 C 0.48404 0.4749 0.863 0.0
H829 H 0.50189 0.48533 0.86256 0.0
H830 H 0.48671 0.45648 0.87194 0.0
H831 H 0.47803 0.47194 0.84348 0.0
C832 C 0.54584 0.56174 0.87698 0.0
N833 N 0.52803 0.55631 0.86009 0.0
N834 N 0.51001 0.54373 0.871 0.0
C835 C 0.51597 0.54144 0.89552 0.0
C836 C 0.53904 0.55208 0.89964 0.0
C837 C 0.56798 0.5778 0.87231 0.0
H838 H 0.56261 0.59339 0.85996 0.0
H839 H 0.58267 0.5663 0.86357 0.0
H840 H 0.57575 0.58556 0.88978 0.0
O841 O 0.49486 0.58979 0.82378 0.0
O842 O 0.46418 0.56689 0.84077 0.0
H843 H 0.49327 0.55162 0.92637 0.0
H844 H 0.50848 0.5223 0.92975 0.0
C845 C 0.49873 0.53448 0.91619 0.0
H846 H 0.48183 0.52544 0.90947 0.0
H847 H 0.43475 0.53999 0.88518 0.0
O848 O 0.55718 0.58042 0.81514 0.0
C849 C 0.47193 0.58642 0.8295 0.0
Co850 Co 0.68142 0.27293 0.07422 0.0
Co851 Co 0.71542 0.23179 0.09843 0.0
C852 C 0.72701 0.25126 0.04808 0.0
O853 O 0.70727 0.26414 0.04939 0.0
O854 O 0.73476 0.23919 0.06698 0.0
C855 C 0.69256 0.32081 0.06665 0.0
O856 O 0.71369 0.30924 0.07053 0.0
C857 C 0.7601 0.2122 0.12284 0.0
C858 C 0.74419 0.18742 0.15148 0.0
C859 C 0.76622 0.19894 0.14431 0.0
N860 N 0.7355 0.20968 0.11848 0.0
N861 N 0.72629 0.19413 0.13519 0.0
C862 C 0.77689 0.22834 0.1075 0.0
H863 H 0.7698 0.24775 0.10764 0.0
H864 H 0.79637 0.22785 0.11437 0.0
H865 H 0.77654 0.22177 0.08791 0.0
C866 C 0.68246 0.29269 0.12456 0.0
N867 N 0.69071 0.27586 0.10781 0.0
N868 N 0.70628 0.26031 0.11851 0.0
C869 C 0.70881 0.2676 0.14263 0.0
C870 C 0.69444 0.2886 0.14685 0.0
C871 C 0.66162 0.31074 0.12004 0.0
H872 H 0.64863 0.30326 0.10583 0.0
H873 H 0.66909 0.32876 0.11348 0.0
H874 H 0.65109 0.31456 0.13735 0.0
O875 O 0.65771 0.24497 0.07161 0.0
O876 O 0.68346 0.2154 0.0865 0.0
H877 H 0.70854 0.24977 0.17814 0.0
H878 H 0.73661 0.266 0.17102 0.0
C879 C 0.72192 0.25393 0.16293 0.0
H880 H 0.73001 0.23651 0.15638 0.0
H881 H 0.70741 0.18976 0.13676 0.0
O882 O 0.67258 0.30789 0.06529 0.0
C883 C 0.66268 0.22219 0.07674 0.0
Co884 Co 0.97422 0.43529 0.32375 0.0
Co885 Co 0.01843 0.4627 0.35073 0.0
C886 C 0.00207 0.47709 0.29938 0.0
O887 O 0.98637 0.45957 0.29931 0.0
O888 O 0.01518 0.48176 0.31856 0.0
C889 C 0.92724 0.44683 0.30588 0.0
O890 O 0.9388 0.468 0.30198 0.0
C891 C 0.03802 0.50589 0.37698 0.0
C892 C 0.0645 0.48933 0.40367 0.0
C893 C 0.05223 0.5114 0.39798 0.0
N894 N 0.04088 0.48161 0.37139 0.0
N895 N 0.05738 0.472 0.38692 0.0
C896 C 0.02063 0.52285 0.36329 0.0
H897 H 0.00138 0.51541 0.3645 0.0
H898 H 0.02126 0.54212 0.37071 0.0
H899 H 0.02585 0.52323 0.34331 0.0
C900 C 0.9512 0.44049 0.37272 0.0
N901 N 0.9697 0.4465 0.35675 0.0
N902 N 0.98784 0.45763 0.36891 0.0
C903 C 0.9811 0.45897 0.39327 0.0
C904 C 0.95753 0.44893 0.39614 0.0
C905 C 0.93015 0.42313 0.36673 0.0
H906 H 0.91617 0.43277 0.35532 0.0
H907 H 0.92041 0.41636 0.38357 0.0
H908 H 0.93728 0.40695 0.35604 0.0
O909 O 0.9999 0.40857 0.32443 0.0
O910 O 0.03173 0.42878 0.34194 0.0
H911 H 0.00201 0.44608 0.42446 0.0
H912 H 0.98876 0.4763 0.42847 0.0
C913 C 0.99804 0.46391 0.41479 0.0
H914 H 0.01569 0.47212 0.40899 0.0
H915 H 0.06226 0.4532 0.38737 0.0
O916 O 0.93972 0.42768 0.31249 0.0
C917 C 0.0225 0.40902 0.33226 0.0
Co918 Co 0.81648 0.72539 0.57222 0.0
Co919 Co 0.78578 0.76871 0.59803 0.0
C920 C 0.7717 0.74857 0.5478 0.0
O921 O 0.7903 0.73411 0.54854 0.0
O922 O 0.76598 0.76212 0.56647 0.0
C923 C 0.81135 0.6779 0.55669 0.0
O924 O 0.78884 0.68571 0.56212 0.0
C925 C 0.74146 0.7849 0.62546 0.0
C926 C 0.75711 0.81087 0.65315 0.0
C927 C 0.73551 0.79794 0.64711 0.0
N928 N 0.76556 0.78913 0.61974 0.0
N929 N 0.77458 0.80522 0.63602 0.0
C930 C 0.72499 0.76777 0.61088 0.0
H931 H 0.73311 0.74876 0.61093 0.0
H932 H 0.70579 0.76729 0.6185 0.0
H933 H 0.72428 0.77414 0.59125 0.0
C934 C 0.80962 0.70254 0.62205 0.0
N935 N 0.80528 0.72091 0.60542 0.0
N936 N 0.79466 0.73973 0.61694 0.0
C937 C 0.79332 0.73427 0.64154 0.0
C938 C 0.80189 0.71025 0.64528 0.0
C939 C 0.82251 0.67863 0.61638 0.0
H940 H 0.80963 0.66651 0.60582 0.0
H941 H 0.82805 0.66841 0.63341 0.0
H942 H 0.83936 0.68266 0.60526 0.0
O943 O 0.83976 0.75412 0.57001 0.0
O944 O 0.81712 0.78537 0.58622 0.0
H945 H 0.79333 0.7449 0.68045 0.0
H946 H 0.7701 0.75964 0.66161 0.0
C947 C 0.78938 0.75293 0.66181 0.0
H948 H 0.80186 0.76909 0.65869 0.0
H949 H 0.79313 0.811 0.63648 0.0
O950 O 0.82943 0.69294 0.55965 0.0
C951 C 0.83679 0.77713 0.57548 0.0
Co952 Co 0.52694 0.43859 0.67403 0.0
Co953 Co 0.48058 0.4669 0.65231 0.0
C954 C 0.50267 0.48054 0.70163 0.0
O955 O 0.51837 0.46292 0.70001 0.0
O956 O 0.48789 0.48567 0.68378 0.0
C957 C 0.57931 0.41322 0.69062 0.0
O958 O 0.57909 0.39216 0.70304 0.0
C959 C 0.46356 0.50972 0.62404 0.0
C960 C 0.4265 0.49879 0.61009 0.0
C961 C 0.44431 0.51752 0.60864 0.0
N962 N 0.45778 0.48727 0.63359 0.0
N963 N 0.43542 0.48096 0.62544 0.0
C964 C 0.48783 0.52277 0.62845 0.0
H965 H 0.50193 0.50982 0.63614 0.0
H966 H 0.49476 0.53129 0.61093 0.0
H967 H 0.48503 0.5379 0.64221 0.0
C968 C 0.54757 0.44986 0.62502 0.0
N969 N 0.52942 0.45207 0.64212 0.0
N970 N 0.50927 0.46108 0.63155 0.0
C971 C 0.51392 0.46402 0.60692 0.0
C972 C 0.53842 0.45724 0.60223 0.0
C973 C 0.57294 0.43988 0.63022 0.0
H974 H 0.57134 0.42001 0.63558 0.0
H975 H 0.58107 0.45048 0.64593 0.0
H976 H 0.58544 0.44149 0.61385 0.0
O977 O 0.50043 0.41323 0.67421 0.0
O978 O 0.46599 0.43463 0.66513 0.0
H979 H 0.49954 0.46196 0.56954 0.0
H980 H 0.49514 0.49125 0.5848 0.0
C981 C 0.49497 0.47081 0.58766 0.0
H982 H 0.47612 0.46488 0.5936 0.0
H983 H 0.42663 0.46414 0.62961 0.0
O984 O 0.55887 0.42318 0.68411 0.0
C985 C 0.47676 0.41493 0.67324 0.0
Co986 Co 0.81395 0.27393 0.92604 0.0
Co987 Co 0.78532 0.23056 0.89856 0.0
C988 C 0.76919 0.24936 0.94874 0.0
O989 O 0.78721 0.26452 0.94864 0.0
O990 O 0.76473 0.23562 0.92991 0.0
C991 C 0.81306 0.3196 0.953 0.0
O992 O 0.79622 0.30852 0.96679 0.0
C993 C 0.74162 0.21643 0.8702 0.0
C994 C 0.75603 0.18918 0.84305 0.0
C995 C 0.73516 0.20332 0.84885 0.0
N996 N 0.76537 0.21099 0.87619 0.0
N997 N 0.77373 0.19429 0.86016 0.0
C998 C 0.72611 0.23502 0.88401 0.0
H999 H 0.7361 0.2531 0.88479 0.0
H1000 H 0.70756 0.23756 0.87528 0.0
H1001 H 0.72347 0.22851 0.90344 0.0
C1002 C 0.80817 0.2978 0.87694 0.0
N1003 N 0.80346 0.27897 0.89294 0.0
N1004 N 0.79397 0.26011 0.88063 0.0
C1005 C 0.79388 0.26584 0.85608 0.0
C1006 C 0.80188 0.29024 0.85314 0.0
C1007 C 0.82054 0.32178 0.88386 0.0
H1008 H 0.80938 0.33118 0.89826 0.0
H1009 H 0.82239 0.33456 0.86776 0.0
H1010 H 0.83927 0.31788 0.89164 0.0
O1011 O 0.83807 0.24556 0.92773 0.0
O1012 O 0.81682 0.21421 0.90985 0.0
H1013 H 0.7973 0.25538 0.81724 0.0
H1014 H 0.77369 0.23913 0.83435 0.0
C1015 C 0.79246 0.24707 0.83554 0.0
H1016 H 0.8055 0.23157 0.83961 0.0
H1017 H 0.79196 0.18757 0.85994 0.0
O1018 O 0.82584 0.30704 0.93747 0.0
C1019 C 0.83606 0.2227 0.92114 0.0
Co1020 Co 0.9763 0.56346 0.17364 0.0
Co1021 Co 0.02071 0.53424 0.14955 0.0
C1022 C 0.00269 0.52338 0.20185 0.0
O1023 O 0.98455 0.53822 0.19902 0.0
O1024 O 0.01704 0.51902 0.18355 0.0
C1025 C 0.92825 0.55756 0.18589 0.0
O1026 O 0.93667 0.53529 0.18023 0.0
C1027 C 0.03749 0.49008 0.12298 0.0
C1028 C 0.07427 0.50106 0.10827 0.0
C1029 C 0.05674 0.48204 0.10774 0.0
N1030 N 0.04293 0.51303 0.1314 0.0
N1031 N 0.06516 0.51933 0.12291 0.0
C1032 C 0.0137 0.47662 0.12865 0.0
H1033 H 0.99909 0.48979 0.13489 0.0
H1034 H 0.00722 0.46598 0.11215 0.0
H1035 H 0.01704 0.46321 0.14399 0.0
C1036 C 0.95478 0.55619 0.12345 0.0
N1037 N 0.97271 0.55178 0.14053 0.0
N1038 N 0.99092 0.5392 0.13004 0.0
C1039 C 0.98482 0.53516 0.10582 0.0
C1040 C 0.96151 0.54536 0.10118 0.0
C1041 C 0.93258 0.57243 0.12747 0.0
H1042 H 0.93762 0.58805 0.13992 0.0
H1043 H 0.91748 0.56113 0.1358 0.0
H1044 H 0.9254 0.58021 0.10977 0.0
O1045 O 0.00428 0.58765 0.17558 0.0
O1046 O 0.03594 0.56727 0.15742 0.0
H1047 H 0.02139 0.52945 0.09053 0.0
H1048 H 0.99681 0.53167 0.06767 0.0
C1049 C 0.00178 0.52455 0.08644 0.0
H1050 H 0.99976 0.50403 0.08605 0.0
H1051 H 0.07373 0.53642 0.12639 0.0
O1052 O 0.94333 0.57581 0.18487 0.0
C1053 C 0.02712 0.58621 0.16892 0.0
Co1054 Co 0.68253 0.7255 0.42607 0.0
Co1055 Co 0.71566 0.76574 0.39851 0.0
C1056 C 0.72958 0.74811 0.44868 0.0
O1057 O 0.71006 0.73479 0.44859 0.0
O1058 O 0.73611 0.76034 0.42943 0.0
C1059 C 0.68402 0.67858 0.45004 0.0
O1060 O 0.70296 0.6884 0.46181 0.0
C1061 C 0.75912 0.78862 0.37351 0.0
C1062 C 0.74177 0.80344 0.33934 0.0
C1063 C 0.7647 0.79863 0.35021 0.0
N1064 N 0.73417 0.78653 0.37566 0.0
N1065 N 0.72396 0.79619 0.35546 0.0
C1066 C 0.77716 0.78 0.39292 0.0
H1067 H 0.77288 0.78939 0.41083 0.0
H1068 H 0.77493 0.75967 0.39586 0.0
H1069 H 0.79668 0.78419 0.38753 0.0
C1070 C 0.68431 0.70188 0.37729 0.0
N1071 N 0.69188 0.72002 0.39289 0.0
N1072 N 0.70701 0.73526 0.38116 0.0
C1073 C 0.71016 0.7264 0.35766 0.0
C1074 C 0.69596 0.70492 0.35458 0.0
C1075 C 0.66414 0.68348 0.383 0.0
H1076 H 0.6496 0.69227 0.39473 0.0
H1077 H 0.6722 0.66746 0.39318 0.0
H1078 H 0.65538 0.67633 0.36569 0.0
O1079 O 0.6596 0.75383 0.42772 0.0
O1080 O 0.68411 0.78319 0.41077 0.0
H1081 H 0.71406 0.75343 0.32879 0.0
H1082 H 0.73103 0.72501 0.3234 0.0
C1083 C 0.72526 0.73863 0.33783 0.0
H1084 H 0.74174 0.74723 0.34626 0.0
H1085 H 0.70486 0.79614 0.35186 0.0
O1086 O 0.66979 0.69246 0.43716 0.0
C1087 C 0.66391 0.77643 0.42169 0.0
Co1088 Co 0.82415 0.52424 0.56129 0.0
Co1089 Co 0.84908 0.47791 0.53518 0.0
C1090 C 0.79749 0.49738 0.52121 0.0
O1091 O 0.79984 0.51553 0.53602 0.0
O1092 O 0.81511 0.48164 0.51835 0.0
C1093 C 0.80827 0.57215 0.55539 0.0
O1094 O 0.81128 0.5638 0.53259 0.0
C1095 C 0.8767 0.46102 0.49176 0.0
C1096 C 0.89888 0.42961 0.50611 0.0
C1097 C 0.89605 0.44496 0.48546 0.0
N1098 N 0.86901 0.45585 0.51505 0.0
N1099 N 0.88197 0.43664 0.52334 0.0
C1100 C 0.86683 0.48229 0.47676 0.0
H1101 H 0.8745 0.50005 0.48402 0.0
H1102 H 0.87159 0.48033 0.45674 0.0
H1103 H 0.84644 0.48319 0.47896 0.0
C1104 C 0.87376 0.54615 0.55233 0.0
N1105 N 0.85707 0.52759 0.54923 0.0
N1106 N 0.86855 0.50776 0.54058 0.0
C1107 C 0.8933 0.51297 0.53934 0.0
C1108 C 0.89703 0.5376 0.5459 0.0
C1109 C 0.86829 0.57083 0.56382 0.0
H1110 H 0.85819 0.56779 0.5815 0.0
H1111 H 0.85685 0.58185 0.55073 0.0
H1112 H 0.88536 0.58173 0.56775 0.0
O1113 O 0.82177 0.49645 0.58621 0.0
O1114 O 0.8403 0.46365 0.56807 0.0
H1115 H 0.92012 0.49048 0.5579 0.0
H1116 H 0.93009 0.50175 0.52824 0.0
C1117 C 0.91384 0.4942 0.53856 0.0
H1118 H 0.90788 0.4765 0.5304 0.0
H1119 H 0.88052 0.42946 0.54134 0.0
O1120 O 0.8127 0.55732 0.57334 0.0
C1121 C 0.82829 0.47348 0.58614 0.0
Co1122 Co 0.72636 0.5738 0.81574 0.0
Co1123 Co 0.76858 0.60048 0.78434 0.0
C1124 C 0.74952 0.5497 0.77099 0.0
O1125 O 0.73436 0.55064 0.789 0.0
O1126 O 0.76356 0.56812 0.76579 0.0
C1127 C 0.67819 0.56111 0.80982 0.0
O1128 O 0.68599 0.56832 0.78777 0.0
C1129 C 0.78676 0.62628 0.73974 0.0
C1130 C 0.81221 0.65435 0.75569 0.0
C1131 C 0.8002 0.64767 0.73378 0.0
N1132 N 0.78979 0.62138 0.76419 0.0
N1133 N 0.8056 0.63784 0.77342 0.0
C1134 C 0.76977 0.61175 0.72312 0.0
H1135 H 0.75073 0.61157 0.7312 0.0
H1136 H 0.76928 0.61952 0.70398 0.0
H1137 H 0.77632 0.59219 0.72227 0.0
C1138 C 0.70431 0.62339 0.81366 0.0
N1139 N 0.72204 0.60726 0.80631 0.0
N1140 N 0.73863 0.61901 0.79261 0.0
C1141 C 0.73124 0.64319 0.79068 0.0
C1142 C 0.70893 0.64628 0.80331 0.0
C1143 C 0.68508 0.61834 0.83303 0.0
H1144 H 0.69173 0.60386 0.84609 0.0
H1145 H 0.66778 0.6124 0.82357 0.0
H1146 H 0.68072 0.63547 0.84375 0.0
O1147 O 0.755 0.57128 0.83839 0.0
O1148 O 0.78528 0.58997 0.81634 0.0
H1149 H 0.75481 0.67493 0.79543 0.0
H1150 H 0.73396 0.67693 0.7694 0.0
C1151 C 0.74615 0.66414 0.78013 0.0
H1152 H 0.76118 0.65732 0.76844 0.0
H1153 H 0.81045 0.63891 0.79221 0.0
O1154 O 0.69366 0.56124 0.8278 0.0
C1155 C 0.77771 0.57794 0.83555 0.0
Co1156 Co 0.67533 0.47525 0.06521 0.0
Co1157 Co 0.64781 0.51963 0.03843 0.0
C1158 C 0.69819 0.50138 0.02158 0.0
O1159 O 0.69861 0.4853 0.03883 0.0
O1160 O 0.6791 0.51503 0.018 0.0
C1161 C 0.69989 0.42836 0.06302 0.0
O1162 O 0.71233 0.43837 0.04452 0.0
C1163 C 0.62176 0.53938 0.99509 0.0
C1164 C 0.59137 0.56116 0.0121 0.0
C1165 C 0.59944 0.55134 0.98957 0.0
N1166 N 0.62595 0.54104 0.01977 0.0
N1167 N 0.60812 0.55478 0.0297 0.0
C1168 C 0.63836 0.52553 0.97748 0.0
H1169 H 0.65731 0.53373 0.9782 0.0
H1170 H 0.63985 0.50581 0.98348 0.0
H1171 H 0.63146 0.52651 0.95803 0.0
C1172 C 0.62613 0.45145 0.05856 0.0
N1173 N 0.642 0.47061 0.05462 0.0
N1174 N 0.62966 0.48948 0.04512 0.0
C1175 C 0.60527 0.48308 0.04369 0.0
C1176 C 0.60243 0.4586 0.05147 0.0
C1177 C 0.63302 0.42728 0.07056 0.0
H1178 H 0.64696 0.4178 0.05886 0.0
H1179 H 0.61681 0.41468 0.07267 0.0
H1180 H 0.64126 0.43086 0.08916 0.0
O1181 O 0.67718 0.50243 0.09045 0.0
O1182 O 0.6592 0.53459 0.0707 0.0
H1183 H 0.56591 0.49169 0.04127 0.0
H1184 H 0.58576 0.50919 0.0209 0.0
C1185 C 0.58433 0.50091 0.03953 0.0
H1186 H 0.58551 0.5161 0.05347 0.0
H1187 H 0.60634 0.55821 0.04874 0.0
O1188 O 0.68611 0.44192 0.07673 0.0
C1189 C 0.67076 0.52537 0.08942 0.0
Co1190 Co 0.77378 0.42634 0.31409 0.0
Co1191 Co 0.73043 0.3985 0.28506 0.0
C1192 C 0.74743 0.44966 0.27083 0.0
O1193 O 0.76327 0.44901 0.28818 0.0
O1194 O 0.73357 0.43097 0.2661 0.0
C1195 C 0.81989 0.45177 0.31 0.0
O1196 O 0.80911 0.46242 0.29085 0.0
C1197 C 0.70979 0.37301 0.24134 0.0
C1198 C 0.68949 0.34169 0.25852 0.0
C1199 C 0.69797 0.35058 0.23576 0.0
N1200 N 0.7093 0.37645 0.2662 0.0
N1201 N 0.69641 0.35805 0.27625 0.0
C1202 C 0.72236 0.39047 0.2236 0.0
H1203 H 0.74241 0.39192 0.22842 0.0
H1204 H 0.72022 0.38434 0.20399 0.0
H1205 H 0.71412 0.4093 0.22566 0.0
C1206 C 0.79786 0.37774 0.30869 0.0
N1207 N 0.77888 0.39338 0.3035 0.0
N1208 N 0.76111 0.38118 0.29188 0.0
C1209 C 0.76827 0.35706 0.28984 0.0
C1210 C 0.79193 0.35434 0.29985 0.0
C1211 C 0.82023 0.38444 0.32393 0.0
H1212 H 0.83184 0.39773 0.31346 0.0
H1213 H 0.83191 0.36804 0.32837 0.0
H1214 H 0.8142 0.39348 0.3415 0.0
O1215 O 0.7457 0.428 0.33812 0.0
O1216 O 0.71507 0.40823 0.31755 0.0
H1217 H 0.7618 0.31805 0.28174 0.0
H1218 H 0.74329 0.33975 0.26429 0.0
C1219 C 0.75162 0.33601 0.28255 0.0
H1220 H 0.73642 0.33434 0.29643 0.0
H1221 H 0.69388 0.35571 0.29537 0.0
O1222 O 0.80709 0.43848 0.32496 0.0
C1223 C 0.72302 0.42076 0.33622 0.0
Co1224 Co 0.82256 0.47295 0.93119 0.0
Co1225 Co 0.84735 0.51483 0.96423 0.0
C1226 C 0.79495 0.49992 0.97271 0.0
O1227 O 0.79831 0.48569 0.95444 0.0
O1228 O 0.81384 0.51087 0.98215 0.0
C1229 C 0.80651 0.42653 0.94398 0.0
O1230 O 0.80415 0.43879 0.96498 0.0
C1231 C 0.87349 0.53379 0.00868 0.0
C1232 C 0.90461 0.55441 0.99155 0.0
C1233 C 0.89648 0.54475 0.01414 0.0
N1234 N 0.86918 0.53574 0.98398 0.0
N1235 N 0.8875 0.54884 0.97406 0.0
C1236 C 0.85627 0.5207 0.02625 0.0
H1237 H 0.85436 0.50092 0.02055 0.0
H1238 H 0.86298 0.52186 0.04576 0.0
H1239 H 0.8375 0.52925 0.02496 0.0
C1240 C 0.87109 0.45067 0.93552 0.0
N1241 N 0.85477 0.46836 0.94261 0.0
N1242 N 0.8659 0.48494 0.9567 0.0
C1243 C 0.89011 0.478 0.95889 0.0
C1244 C 0.89378 0.45584 0.94617 0.0
C1245 C 0.86598 0.4311 0.91628 0.0
H1246 H 0.85687 0.41489 0.92504 0.0
H1247 H 0.88336 0.42435 0.90744 0.0
H1248 H 0.85346 0.43862 0.90168 0.0
O1249 O 0.82294 0.49992 0.90638 0.0
O1250 O 0.83796 0.53036 0.93114 0.0
H1251 H 0.92853 0.48368 0.96972 0.0
H1252 H 0.90599 0.50203 0.9861 0.0
C1253 C 0.91079 0.49415 0.968 0.0
H1254 H 0.91361 0.50964 0.95463 0.0
H1255 H 0.88938 0.5522 0.95501 0.0
O1256 O 0.81124 0.43846 0.92392 0.0
C1257 C 0.82848 0.52281 0.91049 0.0
Co1258 Co 0.774 0.57604 0.18795 0.0
Co1259 Co 0.72924 0.59974 0.21801 0.0
C1260 C 0.7491 0.54909 0.23017 0.0
O1261 O 0.76585 0.55153 0.21373 0.0
O1262 O 0.73396 0.56672 0.23495 0.0
C1263 C 0.82199 0.55717 0.19015 0.0
O1264 O 0.81491 0.55655 0.21356 0.0
C1265 C 0.70568 0.62363 0.26165 0.0
C1266 C 0.67774 0.64754 0.24372 0.0
C1267 C 0.68778 0.64212 0.26698 0.0
N1268 N 0.70571 0.61906 0.23695 0.0
N1269 N 0.68861 0.63312 0.22644 0.0
C1270 C 0.72503 0.61259 0.27858 0.0
H1271 H 0.74115 0.60577 0.26758 0.0
H1272 H 0.73169 0.62641 0.2924 0.0
H1273 H 0.71717 0.59622 0.2884 0.0
C1274 C 0.79351 0.62722 0.19282 0.0
N1275 N 0.77668 0.60956 0.19868 0.0
N1276 N 0.7587 0.61958 0.21175 0.0
C1277 C 0.7638 0.6441 0.21493 0.0
C1278 C 0.78508 0.65055 0.20086 0.0
C1279 C 0.81895 0.62096 0.1833 0.0
H1280 H 0.82641 0.60524 0.19419 0.0
H1281 H 0.8325 0.6363 0.18564 0.0
H1282 H 0.81764 0.61548 0.16346 0.0
O1283 O 0.74596 0.57278 0.16434 0.0
O1284 O 0.71416 0.58993 0.18523 0.0
H1285 H 0.73454 0.66762 0.22897 0.0
H1286 H 0.76501 0.67244 0.24368 0.0
C1287 C 0.75201 0.65875 0.23548 0.0
H1288 H 0.74742 0.64619 0.2509 0.0
H1289 H 0.68526 0.6338 0.20731 0.0
O1290 O 0.80654 0.56509 0.17403 0.0
C1291 C 0.72291 0.57845 0.16625 0.0
Co1292 Co 0.67694 0.52438 0.43342 0.0
Co1293 Co 0.64809 0.48251 0.46335 0.0
C1294 C 0.69912 0.4989 0.47807 0.0
O1295 O 0.6995 0.51388 0.45992 0.0
O1296 O 0.67982 0.48605 0.48299 0.0
C1297 C 0.69502 0.57228 0.4419 0.0
O1298 O 0.7004 0.56207 0.46343 0.0
C1299 C 0.62128 0.46544 0.50718 0.0
C1300 C 0.59264 0.44058 0.49135 0.0
C1301 C 0.59941 0.45287 0.51308 0.0
N1302 N 0.62638 0.4618 0.48289 0.0
N1303 N 0.60963 0.44625 0.47372 0.0
C1304 C 0.63629 0.48209 0.52377 0.0
H1305 H 0.63741 0.50097 0.51541 0.0
H1306 H 0.62831 0.4832 0.54279 0.0
H1307 H 0.65555 0.47474 0.52505 0.0
C1308 C 0.62805 0.54773 0.43438 0.0
N1309 N 0.64341 0.52935 0.44203 0.0
N1310 N 0.63082 0.513 0.45528 0.0
C1311 C 0.60689 0.52116 0.45668 0.0
C1312 C 0.60478 0.54346 0.44407 0.0
C1313 C 0.63424 0.5669 0.41509 0.0
H1314 H 0.64747 0.55914 0.40126 0.0
H1315 H 0.64266 0.58335 0.42407 0.0
H1316 H 0.61726 0.57329 0.40522 0.0
O1317 O 0.679 0.49618 0.40982 0.0
O1318 O 0.65861 0.46644 0.43118 0.0
H1319 H 0.57242 0.50282 0.44953 0.0
H1320 H 0.5739 0.51842 0.47879 0.0
C1321 C 0.5848 0.50685 0.46559 0.0
H1322 H 0.59 0.48928 0.47428 0.0
H1323 H 0.60864 0.44112 0.45501 0.0
O1324 O 0.68832 0.55845 0.42375 0.0
C1325 C 0.67144 0.47366 0.41235 0.0
Co1326 Co 0.72464 0.42457 0.68576 0.0
Co1327 Co 0.76997 0.39988 0.7143 0.0
C1328 C 0.74872 0.45128 0.72717 0.0
O1329 O 0.73153 0.44935 0.71112 0.0
O1330 O 0.76421 0.43357 0.73099 0.0
C1331 C 0.67751 0.44869 0.67871 0.0
O1332 O 0.68489 0.46106 0.69847 0.0
C1333 C 0.78691 0.37296 0.75864 0.0
C1334 C 0.81806 0.3504 0.74425 0.0
C1335 C 0.80301 0.35365 0.76503 0.0
N1336 N 0.79172 0.38015 0.7351 0.0
N1337 N 0.8108 0.36698 0.72682 0.0
C1338 C 0.76626 0.38358 0.774 0.0
H1339 H 0.74817 0.37986 0.76473 0.0
H1340 H 0.76611 0.37579 0.79314 0.0
H1341 H 0.76862 0.40404 0.77505 0.0
C1342 C 0.70157 0.3763 0.69702 0.0
N1343 N 0.72079 0.39233 0.69911 0.0
N1344 N 0.74037 0.38047 0.7078 0.0
C1345 C 0.73445 0.35595 0.70966 0.0
C1346 C 0.70959 0.35282 0.70348 0.0
C1347 C 0.67624 0.38291 0.68772 0.0
H1348 H 0.67733 0.3863 0.6674 0.0
H1349 H 0.66972 0.40001 0.69722 0.0
H1350 H 0.66262 0.36775 0.69116 0.0
O1351 O 0.75374 0.42662 0.66259 0.0
O1352 O 0.78601 0.409 0.68229 0.0
H1353 H 0.75594 0.32724 0.69285 0.0
H1354 H 0.74475 0.31977 0.72325 0.0
C1355 C 0.75265 0.335 0.71172 0.0
H1356 H 0.77063 0.34113 0.71925 0.0
H1357 H 0.81776 0.3681 0.70871 0.0
O1358 O 0.69274 0.43334 0.669 0.0
C1359 C 0.77677 0.42063 0.6637 0.0
Co1360 Co 0.56399 0.82529 0.52445 0.0
Co1361 Co 0.53562 0.8497 0.4796 0.0
C1362 C 0.52295 0.79822 0.49815 0.0
O1363 O 0.53829 0.80101 0.51576 0.0
O1364 O 0.51947 0.81574 0.48256 0.0
C1365 C 0.55584 0.80899 0.57272 0.0
O1366 O 0.5339 0.80482 0.56283 0.0
C1367 C 0.49178 0.87641 0.46272 0.0
C1368 C 0.50301 0.89205 0.42643 0.0
C1369 C 0.48378 0.89208 0.44375 0.0
N1370 N 0.51489 0.86837 0.45736 0.0
N1371 N 0.52136 0.87742 0.43541 0.0
C1372 C 0.47815 0.86984 0.4862 0.0
H1373 H 0.49133 0.86399 0.50096 0.0
H1374 H 0.46664 0.88572 0.49273 0.0
H1375 H 0.46558 0.85389 0.48251 0.0
C1376 C 0.55913 0.87532 0.54504 0.0
N1377 N 0.55343 0.85845 0.52736 0.0
N1378 N 0.54028 0.86911 0.50971 0.0
C1379 C 0.53669 0.89335 0.51619 0.0
C1380 C 0.54818 0.89779 0.53906 0.0
C1381 C 0.578 0.87134 0.56521 0.0
H1382 H 0.593 0.85881 0.55857 0.0
H1383 H 0.56896 0.86282 0.58163 0.0
H1384 H 0.58641 0.88927 0.57118 0.0
O1385 O 0.58869 0.82244 0.49686 0.0
O1386 O 0.5694 0.84195 0.46531 0.0
H1387 H 0.52941 0.90975 0.48042 0.0
H1388 H 0.52952 0.9317 0.50588 0.0
C1389 C 0.52431 0.91256 0.50021 0.0
H1390 H 0.50387 0.91102 0.50226 0.0
H1391 H 0.53857 0.87427 0.42694 0.0
O1392 O 0.57394 0.81572 0.55884 0.0
C1393 C 0.5879 0.82963 0.47408 0.0
Co1394 Co 0.06876 0.67244 0.4776 0.0
Co1395 Co 0.03601 0.64758 0.51966 0.0
C1396 C 0.02395 0.69851 0.49973 0.0
O1397 O 0.04306 0.69744 0.48585 0.0
O1398 O 0.01728 0.67968 0.51259 0.0
C1399 C 0.0662 0.68792 0.42995 0.0
O1400 O 0.0433 0.68308 0.43695 0.0
C1401 C 0.99134 0.62125 0.5359 0.0
C1402 C 0.00579 0.59619 0.56508 0.0
C1403 C 0.98494 0.60075 0.55047 0.0
N1404 N 0.01509 0.62761 0.54087 0.0
N1405 N 0.02336 0.61306 0.55892 0.0
C1406 C 0.97588 0.63371 0.51634 0.0
H1407 H 0.98503 0.63152 0.49793 0.0
H1408 H 0.95672 0.62601 0.51567 0.0
H1409 H 0.97489 0.65395 0.52035 0.0
C1410 C 0.06135 0.6229 0.45415 0.0
N1411 N 0.05662 0.63938 0.47258 0.0
N1412 N 0.04458 0.62795 0.49065 0.0
C1413 C 0.04235 0.60352 0.48432 0.0
C1414 C 0.05211 0.59995 0.46077 0.0
C1415 C 0.07623 0.62826 0.4314 0.0
H1416 H 0.09286 0.63916 0.43675 0.0
H1417 H 0.0644 0.63878 0.41825 0.0
H1418 H 0.08238 0.61112 0.42172 0.0
O1419 O 0.09158 0.67348 0.5066 0.0
O1420 O 0.06737 0.65808 0.53699 0.0
H1421 H 0.05437 0.57309 0.50666 0.0
H1422 H 0.02491 0.56838 0.49206 0.0
C1423 C 0.03667 0.58247 0.50158 0.0
H1424 H 0.02769 0.5887 0.5187 0.0
H1425 H 0.0416 0.61332 0.56562 0.0
O1426 O 0.08362 0.68452 0.44563 0.0
C1427 C 0.08769 0.66805 0.52946 0.0
Co1428 Co 0.57516 0.81234 0.72736 0.0
Co1429 Co 0.60098 0.7831 0.77088 0.0
C1430 C 0.55024 0.76924 0.75277 0.0
O1431 O 0.55095 0.78707 0.73743 0.0
O1432 O 0.56895 0.76406 0.76637 0.0
C1433 C 0.55393 0.80736 0.67993 0.0
O1434 O 0.54542 0.78661 0.68962 0.0
C1435 C 0.6304 0.74108 0.78745 0.0
C1436 C 0.64229 0.75161 0.82537 0.0
C1437 C 0.64485 0.73321 0.80738 0.0
N1438 N 0.62052 0.76337 0.79303 0.0
N1439 N 0.6274 0.76946 0.81585 0.0
C1440 C 0.62626 0.72785 0.76319 0.0
H1441 H 0.62041 0.74102 0.74846 0.0
H1442 H 0.6433 0.71771 0.75737 0.0
H1443 H 0.61099 0.71413 0.76544 0.0
C1444 C 0.62472 0.80659 0.70475 0.0
N1445 N 0.60836 0.80145 0.72315 0.0
N1446 N 0.61988 0.78961 0.74121 0.0
C1447 C 0.64419 0.7871 0.73478 0.0
C1448 C 0.64778 0.79717 0.71122 0.0
C1449 C 0.61909 0.8225 0.68254 0.0
H1450 H 0.60681 0.8122 0.66975 0.0
H1451 H 0.63606 0.82766 0.67204 0.0
H1452 H 0.60935 0.83968 0.68857 0.0
O1453 O 0.57342 0.8369 0.7548 0.0
O1454 O 0.59127 0.81572 0.78609 0.0
H1455 H 0.68246 0.78726 0.74681 0.0
H1456 H 0.66698 0.75788 0.74935 0.0
C1457 C 0.6645 0.77822 0.75167 0.0
H1458 H 0.65996 0.78243 0.77134 0.0
H1459 H 0.62227 0.78595 0.82477 0.0
O1460 O 0.56457 0.82341 0.6938 0.0
C1461 C 0.57976 0.83484 0.7777 0.0
Co1462 Co 0.43633 0.32258 0.97452 0.0
Co1463 Co 0.46374 0.34871 0.01991 0.0
C1464 C 0.47972 0.29853 0.99925 0.0
O1465 O 0.46217 0.29834 0.98345 0.0
O1466 O 0.48345 0.31729 0.01337 0.0
C1467 C 0.43356 0.29764 0.92735 0.0
O1468 O 0.45428 0.28782 0.9358 0.0
C1469 C 0.50744 0.37613 0.037 0.0
C1470 C 0.49282 0.39933 0.06757 0.0
C1471 C 0.51375 0.39572 0.05277 0.0
N1472 N 0.4838 0.36912 0.04171 0.0
N1473 N 0.47538 0.38267 0.06045 0.0
C1474 C 0.52297 0.3651 0.01663 0.0
H1475 H 0.51395 0.36876 0.99839 0.0
H1476 H 0.54216 0.37275 0.01662 0.0
H1477 H 0.52389 0.34462 0.01908 0.0
C1478 C 0.44754 0.3712 0.95125 0.0
N1479 N 0.44916 0.35538 0.97069 0.0
N1480 N 0.45705 0.36769 0.99035 0.0
C1481 C 0.4588 0.39215 0.9842 0.0
C1482 C 0.45332 0.39489 0.95916 0.0
C1483 C 0.43916 0.36428 0.92578 0.0
H1484 H 0.41874 0.36165 0.92638 0.0
H1485 H 0.44847 0.34683 0.92002 0.0
H1486 H 0.44353 0.37906 0.91201 0.0
O1487 O 0.41159 0.32103 0.00245 0.0
O1488 O 0.43157 0.33749 0.03521 0.0
H1489 H 0.44155 0.42107 0.00506 0.0
H1490 H 0.47207 0.42857 0.9942 0.0
C1491 C 0.46051 0.41338 0.00212 0.0
H1492 H 0.46785 0.4076 0.02027 0.0
H1493 H 0.4572 0.38172 0.06727 0.0
O1494 O 0.42167 0.31243 0.94159 0.0
C1495 C 0.41257 0.32678 0.02556 0.0
Co1496 Co 0.4265 0.68288 0.72584 0.0
Co1497 Co 0.39936 0.7134 0.7684 0.0
C1498 C 0.45174 0.72529 0.75231 0.0
O1499 O 0.45018 0.70833 0.73607 0.0
O1500 O 0.4331 0.73053 0.76611 0.0
C1501 C 0.44282 0.69222 0.67789 0.0
O1502 O 0.44659 0.71399 0.68833 0.0
C1503 C 0.37275 0.75741 0.78685 0.0
C1504 C 0.34426 0.74073 0.81129 0.0
C1505 C 0.35084 0.76289 0.79967 0.0
N1506 N 0.37801 0.73303 0.78976 0.0
N1507 N 0.36133 0.72338 0.80508 0.0
C1508 C 0.38797 0.7746 0.77108 0.0
H1509 H 0.39111 0.76608 0.75251 0.0
H1510 H 0.37915 0.79316 0.76909 0.0
H1511 H 0.4064 0.77706 0.78005 0.0
C1512 C 0.37795 0.68598 0.70287 0.0
N1513 N 0.39368 0.69321 0.72108 0.0
N1514 N 0.38172 0.70687 0.73756 0.0
C1515 C 0.35775 0.70895 0.72961 0.0
C1516 C 0.35509 0.69641 0.70731 0.0
C1517 C 0.38323 0.6661 0.68401 0.0
H1518 H 0.39601 0.65195 0.69192 0.0
H1519 H 0.39182 0.67443 0.66729 0.0
H1520 H 0.36585 0.65672 0.67796 0.0
O1521 O 0.42703 0.65841 0.75371 0.0
O1522 O 0.40735 0.68019 0.78332 0.0
H1523 H 0.32357 0.70175 0.74847 0.0
H1524 H 0.32492 0.73119 0.73312 0.0
C1525 C 0.33595 0.7178 0.74437 0.0
H1526 H 0.34149 0.72627 0.76194 0.0
H1527 H 0.36041 0.70452 0.80968 0.0
O1528 O 0.43729 0.67352 0.69153 0.0
C1529 C 0.41883 0.66061 0.77609 0.0
Co1530 Co 0.93281 0.17499 0.0226 0.0
Co1531 Co 0.96517 0.14942 0.98048 0.0
C1532 C 0.97773 0.20007 0.99993 0.0
O1533 O 0.95916 0.19887 0.01442 0.0
O1534 O 0.98358 0.18178 0.98599 0.0
C1535 C 0.93928 0.18671 0.07072 0.0
O1536 O 0.96106 0.17944 0.0623 0.0
C1537 C 0.01053 0.12618 0.96035 0.0
C1538 C 0.9951 0.09337 0.94104 0.0
C1539 C 0.01729 0.10354 0.94959 0.0
N1540 N 0.98551 0.12844 0.95945 0.0
N1541 N 0.97653 0.10913 0.94713 0.0
C1542 C 0.02731 0.14475 0.97264 0.0
H1543 H 0.0218 0.14699 0.99244 0.0
H1544 H 0.04714 0.13905 0.97143 0.0
H1545 H 0.02497 0.16311 0.96345 0.0
C1546 C 0.93662 0.12515 0.04432 0.0
N1547 N 0.94333 0.14177 0.02679 0.0
N1548 N 0.95802 0.13089 0.01048 0.0
C1549 C 0.96151 0.10696 0.01796 0.0
C1550 C 0.94857 0.10295 0.03995 0.0
C1551 C 0.91664 0.12899 0.06317 0.0
H1552 H 0.9035 0.14357 0.05687 0.0
H1553 H 0.92552 0.13419 0.081 0.0
H1554 H 0.90617 0.11145 0.06638 0.0
O1555 O 0.90959 0.1763 0.9944 0.0
O1556 O 0.9321 0.15845 0.96432 0.0
H1557 H 0.96145 0.08023 0.98861 0.0
H1558 H 0.97994 0.07131 0.01524 0.0
C1559 C 0.97425 0.08716 0.00326 0.0
H1560 H 0.99064 0.09488 0.99414 0.0
H1561 H 0.95757 0.10568 0.94464 0.0
O1562 O 0.92087 0.18693 0.05575 0.0
C1563 C 0.91205 0.16905 0.97181 0.0
Co1564 Co 0.57448 0.18972 0.77545 0.0
Co1565 Co 0.59813 0.21442 0.72854 0.0
C1566 C 0.54562 0.22683 0.74791 0.0
O1567 O 0.5487 0.21318 0.76689 0.0
O1568 O 0.56301 0.22942 0.73176 0.0
C1569 C 0.55638 0.16231 0.82281 0.0
O1570 O 0.54582 0.14238 0.81338 0.0
C1571 C 0.62462 0.25882 0.71207 0.0
C1572 C 0.65222 0.24358 0.68579 0.0
C1573 C 0.64625 0.2649 0.69915 0.0
N1574 N 0.61869 0.2349 0.70732 0.0
N1575 N 0.63498 0.22608 0.69111 0.0
C1576 C 0.61013 0.27511 0.7294 0.0
H1577 H 0.6046 0.26442 0.74622 0.0
H1578 H 0.62062 0.29207 0.73474 0.0
H1579 H 0.59292 0.2811 0.71972 0.0
C1580 C 0.62198 0.20375 0.79787 0.0
N1581 N 0.60553 0.20484 0.77895 0.0
N1582 N 0.61711 0.21124 0.75845 0.0
C1583 C 0.64185 0.21219 0.76323 0.0
C1584 C 0.64547 0.20827 0.78853 0.0
C1585 C 0.61593 0.19601 0.82395 0.0
H1586 H 0.61311 0.17556 0.82441 0.0
H1587 H 0.59862 0.20535 0.83025 0.0
H1588 H 0.63126 0.20077 0.83697 0.0
O1589 O 0.57546 0.16295 0.74898 0.0
O1590 O 0.59261 0.18041 0.71554 0.0
H1591 H 0.67925 0.20251 0.75171 0.0
H1592 H 0.66558 0.2279 0.73504 0.0
C1593 C 0.66163 0.20975 0.7437 0.0
H1594 H 0.65513 0.19693 0.72886 0.0
H1595 H 0.63552 0.20758 0.6852 0.0
O1596 O 0.56625 0.1786 0.80899 0.0
C1597 C 0.58317 0.16144 0.72638 0.0
Co1598 Co 0.92637 0.81416 0.27235 0.0
Co1599 Co 0.89874 0.78465 0.22953 0.0
C1600 C 0.94901 0.76907 0.24762 0.0
O1601 O 0.94905 0.78755 0.26219 0.0
O1602 O 0.92996 0.76397 0.23444 0.0
C1603 C 0.93952 0.80276 0.31997 0.0
O1604 O 0.93894 0.78108 0.30883 0.0
C1605 C 0.86883 0.74202 0.21351 0.0
C1606 C 0.84872 0.75633 0.18069 0.0
C1607 C 0.85029 0.73596 0.19652 0.0
N1608 N 0.87738 0.76506 0.20833 0.0
N1609 N 0.86558 0.77332 0.18837 0.0
C1610 C 0.87714 0.72702 0.23546 0.0
H1611 H 0.87479 0.73816 0.25271 0.0
H1612 H 0.86654 0.70934 0.23702 0.0
H1613 H 0.89727 0.72281 0.23354 0.0
C1614 C 0.87691 0.81351 0.29432 0.0
N1615 N 0.89277 0.80567 0.27646 0.0
N1616 N 0.88044 0.7934 0.25921 0.0
C1617 C 0.85605 0.79324 0.26593 0.0
C1618 C 0.85344 0.80506 0.28866 0.0
C1619 C 0.88284 0.83272 0.31369 0.0
H1620 H 0.89654 0.84628 0.30628 0.0
H1621 H 0.8907 0.82377 0.33043 0.0
H1622 H 0.86584 0.8429 0.31954 0.0
O1623 O 0.92864 0.83846 0.24471 0.0
O1624 O 0.91008 0.81692 0.21387 0.0
H1625 H 0.82493 0.80631 0.24521 0.0
H1626 H 0.82067 0.7765 0.25891 0.0
C1627 C 0.83445 0.78839 0.24915 0.0
H1628 H 0.8401 0.78026 0.23129 0.0
H1629 H 0.86811 0.79101 0.18075 0.0
O1630 O 0.93724 0.82254 0.30693 0.0
C1631 C 0.92189 0.83611 0.2219 0.0
C1632 C 0.0525 0.06296 0.43965 0.0
C1633 C 0.06193 0.05388 0.41671 0.0
C1634 C 0.10349 0.05146 0.4355 0.0
C1635 C 0.09317 0.05617 0.45935 0.0
N1636 N 0.05591 0.06071 0.4844 0.0
N1637 N 0.09591 0.03425 0.39467 0.0
C1638 C 0.06711 0.0604 0.46157 0.0
C1639 C 0.08733 0.04663 0.41513 0.0
N1640 N 0.03005 0.07485 0.44047 0.0
N1641 N 0.12864 0.05251 0.43197 0.0
H1642 H 0.08438 0.02913 0.37993 0.0
H1643 H 0.11377 0.02671 0.3937 0.0
H1644 H 0.14098 0.05735 0.44618 0.0
H1645 H 0.13685 0.0513 0.41442 0.0
H1646 H 0.0234 0.08361 0.45647 0.0
H1647 H 0.01947 0.07832 0.42456 0.0
H1648 H 0.03663 0.06151 0.48659 0.0
H1649 H 0.06546 0.05729 0.50094 0.0
C1650 C 0.19951 0.85074 0.68548 0.0
C1651 C 0.1963 0.84046 0.7096 0.0
C1652 C 0.19173 0.79902 0.69089 0.0
C1653 C 0.19861 0.80884 0.66737 0.0
N1654 N 0.21435 0.84365 0.64357 0.0
N1655 N 0.19517 0.80358 0.73551 0.0
C1656 C 0.20405 0.83461 0.66501 0.0
C1657 C 0.19402 0.81423 0.71243 0.0
N1658 N 0.19726 0.87581 0.68186 0.0
N1659 N 0.18204 0.77557 0.69266 0.0
H1660 H 0.19809 0.81378 0.75175 0.0
H1661 H 0.19597 0.78437 0.73818 0.0
H1662 H 0.17901 0.76427 0.67716 0.0
H1663 H 0.17461 0.76847 0.70912 0.0
H1664 H 0.1971 0.88395 0.66423 0.0
H1665 H 0.1929 0.88813 0.69623 0.0
H1666 H 0.22074 0.8619 0.64182 0.0
H1667 H 0.21883 0.83235 0.62842 0.0
C1668 C 0.41652 0.97097 0.9452 0.0
C1669 C 0.41309 0.94923 0.96017 0.0
C1670 C 0.44331 0.92696 0.93391 0.0
C1671 C 0.44501 0.94798 0.9181 0.0
N1672 N 0.42885 0.98783 0.90528 0.0
N1673 N 0.41887 0.90489 0.96474 0.0
C1674 C 0.43026 0.96929 0.92269 0.0
C1675 C 0.42525 0.92672 0.95331 0.0
N1676 N 0.40805 0.99367 0.95285 0.0
N1677 N 0.45924 0.90739 0.93067 0.0
H1678 H 0.40494 0.9038 0.97824 0.0
H1679 H 0.4254 0.88757 0.95898 0.0
H1680 H 0.47252 0.90692 0.91648 0.0
H1681 H 0.46067 0.89267 0.94321 0.0
H1682 H 0.41331 0.01033 0.94439 0.0
H1683 H 0.39731 0.99639 0.96858 0.0
H1684 H 0.41596 0.0023 0.90628 0.0
H1685 H 0.43891 0.98765 0.88866 0.0
C1686 C 0.29924 0.19258 0.21981 0.0
C1687 C 0.30612 0.16707 0.21778 0.0
C1688 C 0.3213 0.17582 0.1757 0.0
C1689 C 0.30757 0.19839 0.17529 0.0
N1690 N 0.30741 0.23339 0.20301 0.0
N1691 N 0.32567 0.1347 0.19338 0.0
C1692 C 0.30294 0.20874 0.1991 0.0
C1693 C 0.3177 0.15871 0.19557 0.0
N1694 N 0.28926 0.20158 0.24136 0.0
N1695 N 0.34119 0.17306 0.16019 0.0
H1696 H 0.32419 0.12175 0.2078 0.0
H1697 H 0.33229 0.12748 0.1766 0.0
H1698 H 0.34727 0.1877 0.14892 0.0
H1699 H 0.35337 0.15797 0.16119 0.0
H1700 H 0.28174 0.21944 0.24264 0.0
H1701 H 0.28726 0.19076 0.25733 0.0
H1702 H 0.30671 0.24163 0.22058 0.0
H1703 H 0.31519 0.24452 0.18909 0.0
C1704 C 0.08134 0.93115 0.05193 0.0
C1705 C 0.08693 0.95341 0.03872 0.0
C1706 C 0.06079 0.97687 0.0682 0.0
C1707 C 0.0535 0.95432 0.07978 0.0
N1708 N 0.05198 0.90949 0.07849 0.0
N1709 N 0.07596 0.99646 0.03082 0.0
C1710 C 0.06221 0.93128 0.07025 0.0
C1711 C 0.07495 0.97602 0.04585 0.0
N1712 N 0.09509 0.91012 0.04793 0.0
N1713 N 0.05501 0.99922 0.07893 0.0
H1714 H 0.08555 0.99664 0.01407 0.0
H1715 H 0.06528 0.01238 0.03379 0.0
H1716 H 0.04476 1.00078 0.09535 0.0
H1717 H 0.06231 0.01609 0.07271 0.0
H1718 H 0.09333 0.89413 0.05879 0.0
H1719 H 0.11011 0.90949 0.03564 0.0
H1720 H 0.05598 0.89227 0.07051 0.0
H1721 H 0.03763 0.90895 0.09158 0.0
C1722 C 0.28288 0.82605 0.32828 0.0
C1723 C 0.30329 0.80951 0.33147 0.0
C1724 C 0.32437 0.82827 0.29547 0.0
C1725 C 0.30311 0.84328 0.29052 0.0
N1726 N 0.26186 0.85693 0.30292 0.0
N1727 N 0.34127 0.79167 0.31577 0.0
C1728 C 0.28233 0.84248 0.30726 0.0
C1729 C 0.32347 0.80982 0.31448 0.0
N1730 N 0.26348 0.82514 0.34486 0.0
N1731 N 0.34591 0.83235 0.28251 0.0
H1732 H 0.3412 0.77778 0.32936 0.0
H1733 H 0.35482 0.78903 0.30215 0.0
H1734 H 0.34766 0.84642 0.26922 0.0
H1735 H 0.36275 0.82375 0.28678 0.0
H1736 H 0.24724 0.83554 0.34379 0.0
H1737 H 0.26326 0.81355 0.3604 0.0
H1738 H 0.24706 0.85938 0.31508 0.0
H1739 H 0.25906 0.86691 0.28674 0.0
C1740 C 0.4201 0.02834 0.55113 0.0
C1741 C 0.41508 0.05013 0.5367 0.0
C1742 C 0.44513 0.07342 0.56229 0.0
C1743 C 0.44831 0.05233 0.57777 0.0
N1744 N 0.43484 0.01134 0.59018 0.0
N1745 N 0.41865 0.09475 0.53268 0.0
C1746 C 0.43463 0.03029 0.57315 0.0
C1747 C 0.42645 0.07307 0.5435 0.0
N1748 N 0.41221 0.00544 0.54345 0.0
N1749 N 0.46023 0.09368 0.56531 0.0
H1750 H 0.4042 0.0954 0.51971 0.0
H1751 H 0.42456 0.11227 0.53851 0.0
H1752 H 0.47399 0.09454 0.57902 0.0
H1753 H 0.46056 0.10862 0.55295 0.0
H1754 H 0.41861 0.98886 0.55125 0.0
H1755 H 0.40062 0.00261 0.52836 0.0
H1756 H 0.42273 0.99619 0.58932 0.0
H1757 H 0.44553 0.01167 0.60639 0.0
C1758 C 0.19513 0.14898 0.81324 0.0
C1759 C 0.19543 0.15999 0.78922 0.0
C1760 C 0.19398 0.20149 0.80836 0.0
C1761 C 0.1966 0.19052 0.83224 0.0
N1762 N 0.2048 0.15386 0.85699 0.0
N1763 N 0.20053 0.19696 0.76403 0.0
C1764 C 0.19863 0.16425 0.83458 0.0
C1765 C 0.19635 0.18633 0.78677 0.0
N1766 N 0.19062 0.12407 0.81577 0.0
N1767 N 0.18827 0.22619 0.80623 0.0
H1768 H 0.20287 0.18664 0.74777 0.0
H1769 H 0.20409 0.21589 0.7617 0.0
H1770 H 0.18572 0.23779 0.82159 0.0
H1771 H 0.18368 0.23458 0.78934 0.0
H1772 H 0.18769 0.11551 0.83293 0.0
H1773 H 0.1874 0.11236 0.80061 0.0
H1774 H 0.20905 0.13506 0.85914 0.0
H1775 H 0.20804 0.16436 0.873 0.0
C1776 C 0.44449 0.05081 0.06577 0.0
C1777 C 0.42284 0.0591 0.05306 0.0
C1778 C 0.43951 0.10159 0.05285 0.0
C1779 C 0.46294 0.09275 0.0609 0.0
N1780 N 0.48212 0.06206 0.08787 0.0
N1781 N 0.401 0.09215 0.03176 0.0
C1782 C 0.46417 0.06806 0.07085 0.0
C1783 C 0.42071 0.08444 0.04589 0.0
N1784 N 0.44594 0.02665 0.07367 0.0
N1785 N 0.43432 0.12638 0.05448 0.0
H1786 H 0.3871 0.08007 0.02556 0.0
H1787 H 0.39987 0.11001 0.02423 0.0
H1788 H 0.44697 0.1389 0.06234 0.0
H1789 H 0.4167 0.13378 0.05107 0.0
H1790 H 0.46236 0.01817 0.07949 0.0
H1791 H 0.43082 0.0145 0.07339 0.0
H1792 H 0.48388 0.04472 0.09629 0.0
H1793 H 0.4925 0.07541 0.09725 0.0
C1794 C 0.18949 0.18336 0.2805 0.0
C1795 C 0.19463 0.17126 0.30334 0.0
C1796 C 0.16965 0.20293 0.32506 0.0
C1797 C 0.16674 0.21613 0.30234 0.0
N1798 N 0.18492 0.22375 0.26215 0.0
N1799 N 0.19541 0.17395 0.34825 0.0
C1800 C 0.17973 0.20772 0.28101 0.0
C1801 C 0.18644 0.18233 0.32599 0.0
N1802 N 0.19365 0.17177 0.25825 0.0
N1803 N 0.15616 0.2096 0.34554 0.0
H1804 H 0.20839 0.15955 0.34949 0.0
H1805 H 0.19171 0.18281 0.36511 0.0
H1806 H 0.14367 0.22446 0.34546 0.0
H1807 H 0.15592 0.19907 0.36184 0.0
H1808 H 0.18844 0.17972 0.24131 0.0
H1809 H 0.19974 0.15339 0.25689 0.0
H1810 H 0.19563 0.21885 0.2467 0.0
H1811 H 0.18238 0.24273 0.26462 0.0
C1812 C 0.04761 0.92229 0.52354 0.0
C1813 C 0.03667 0.91508 0.54671 0.0
C1814 C 0.06483 0.94415 0.56819 0.0
C1815 C 0.07791 0.94828 0.54567 0.0
N1816 N 0.08416 0.93813 0.5024 0.0
N1817 N 0.03884 0.91586 0.59168 0.0
C1818 C 0.06998 0.93648 0.52349 0.0
C1819 C 0.04632 0.92522 0.56922 0.0
N1820 N 0.03624 0.91683 0.50147 0.0
N1821 N 0.07009 0.95836 0.58862 0.0
H1822 H 0.02652 0.90095 0.59334 0.0
H1823 H 0.04698 0.92098 0.60853 0.0
H1824 H 0.08358 0.97236 0.58841 0.0
H1825 H 0.0595 0.95786 0.60488 0.0
H1826 H 0.04193 0.92433 0.48449 0.0
H1827 H 0.01989 0.90669 0.50009 0.0
H1828 H 0.08089 0.92733 0.48661 0.0
H1829 H 0.10038 0.94877 0.50131 0.0
C1830 C 0.30745 0.81509 0.82093 0.0
C1831 C 0.30228 0.82751 0.79823 0.0
C1832 C 0.32663 0.79615 0.7758 0.0
C1833 C 0.33496 0.78588 0.79888 0.0
N1834 N 0.33651 0.7893 0.84371 0.0
N1835 N 0.31041 0.83226 0.7543 0.0
C1836 C 0.32617 0.79635 0.82156 0.0
C1837 C 0.31281 0.8187 0.77572 0.0
N1838 N 0.29431 0.82106 0.84188 0.0
N1839 N 0.33079 0.78398 0.75389 0.0
H1840 H 0.30037 0.84883 0.75325 0.0
H1841 H 0.32023 0.82815 0.73806 0.0
H1842 H 0.34088 0.76761 0.75266 0.0
H1843 H 0.32236 0.78907 0.73717 0.0
H1844 H 0.2956 0.811 0.85841 0.0
H1845 H 0.28038 0.83462 0.84197 0.0
H1846 H 0.33248 0.79807 0.86054 0.0
H1847 H 0.35111 0.77656 0.84495 0.0
C1848 C 0.43729 0.89754 0.44818 0.0
C1849 C 0.46103 0.90813 0.44344 0.0
C1850 C 0.44076 0.94853 0.4369 0.0
C1851 C 0.41814 0.93892 0.44653 0.0
N1852 N 0.39679 0.90456 0.46635 0.0
N1853 N 0.48552 0.94583 0.43895 0.0
C1854 C 0.41691 0.91346 0.45362 0.0
C1855 C 0.46289 0.93425 0.43929 0.0
N1856 N 0.43388 0.87241 0.44656 0.0
N1857 N 0.44111 0.97081 0.42469 0.0
H1858 H 0.50221 0.93665 0.44257 0.0
H1859 H 0.48734 0.96515 0.43803 0.0
H1860 H 0.42497 0.98105 0.42122 0.0
H1861 H 0.45691 0.97754 0.41562 0.0
H1862 H 0.41639 0.86409 0.44795 0.0
H1863 H 0.44805 0.86033 0.44102 0.0
H1864 H 0.39606 0.88656 0.47359 0.0
H1865 H 0.38214 0.91595 0.47204 0.0
C1866 C 0.30774 0.18479 0.67699 0.0
C1867 C 0.30166 0.17398 0.70031 0.0
C1868 C 0.32255 0.2087 0.72123 0.0
C1869 C 0.33267 0.21683 0.69806 0.0
N1870 N 0.33773 0.20923 0.65396 0.0
N1871 N 0.30679 0.17383 0.74498 0.0
C1872 C 0.32592 0.20403 0.67589 0.0
C1873 C 0.31 0.18544 0.72256 0.0
N1874 N 0.29599 0.17684 0.65588 0.0
N1875 N 0.32381 0.22356 0.7418 0.0
H1876 H 0.29795 0.15665 0.74687 0.0
H1877 H 0.31495 0.18024 0.76139 0.0
H1878 H 0.33177 0.24117 0.74151 0.0
H1879 H 0.31458 0.21948 0.75839 0.0
H1880 H 0.29808 0.18563 0.6387 0.0
H1881 H 0.28231 0.16303 0.6561 0.0
H1882 H 0.33515 0.19871 0.63786 0.0
H1883 H 0.35206 0.22224 0.65248 0.0
C1884 C 0.07664 0.06975 0.97133 0.0
C1885 C 0.08376 0.05797 0.94886 0.0
C1886 C 0.05101 0.08068 0.92656 0.0
C1887 C 0.04181 0.09015 0.94952 0.0
N1888 N 0.0444 0.09006 0.99473 0.0
N1889 N 0.07578 0.04917 0.90566 0.0
C1890 C 0.05427 0.08383 0.97217 0.0
C1891 C 0.07035 0.06254 0.92662 0.0
N1892 N 0.09166 0.06814 0.99186 0.0
N1893 N 0.04188 0.08974 0.90459 0.0
H1894 H 0.08993 0.03586 0.90509 0.0
H1895 H 0.06497 0.04976 0.88956 0.0
H1896 H 0.02843 0.10373 0.9038 0.0
H1897 H 0.04945 0.08535 0.88729 0.0
H1898 H 0.08905 0.07891 0.00779 0.0
H1899 H 0.10802 0.05769 0.99233 0.0
H1900 H 0.05047 0.08235 0.01147 0.0
H1901 H 0.02934 0.10181 0.99696 0.0
C1902 C 0.17587 0.79293 0.18321 0.0
C1903 C 0.16096 0.78765 0.20447 0.0
C1904 C 0.1766 0.82604 0.22405 0.0
C1905 C 0.19388 0.82901 0.2044 0.0
N1906 N 0.21319 0.81273 0.16737 0.0
N1907 N 0.15192 0.79734 0.24785 0.0
C1908 C 0.19454 0.81161 0.18464 0.0
C1909 C 0.16247 0.80374 0.22564 0.0
N1910 N 0.17153 0.7808 0.16127 0.0
N1911 N 0.17325 0.8447 0.24104 0.0
H1912 H 0.14162 0.78132 0.2506 0.0
H1913 H 0.15531 0.80702 0.26433 0.0
H1914 H 0.18355 0.86117 0.24088 0.0
H1915 H 0.15876 0.84469 0.25397 0.0
H1916 H 0.18039 0.78549 0.14465 0.0
H1917 H 0.15702 0.76807 0.159 0.0
H1918 H 0.21601 0.79898 0.15397 0.0
H1919 H 0.22718 0.82621 0.16791 0.0
C1920 C 0.04876 0.41508 0.08574 0.0
C1921 C 0.0542 0.41728 0.05994 0.0
C1922 C 0.05989 0.46218 0.06513 0.0
C1923 C 0.057 0.45961 0.09134 0.0
N1924 N 0.05572 0.4321 0.12686 0.0
N1925 N 0.07222 0.44182 0.02689 0.0
C1926 C 0.05352 0.43558 0.10176 0.0
C1927 C 0.06204 0.44049 0.05017 0.0
N1928 N 0.03832 0.39375 0.09489 0.0
N1929 N 0.05921 0.48513 0.05418 0.0
H1930 H 0.07458 0.42621 0.01557 0.0
H1931 H 0.08044 0.45797 0.01993 0.0
H1932 H 0.05604 0.50152 0.06404 0.0
H1933 H 0.05897 0.48755 0.03492 0.0
H1934 H 0.03192 0.39214 0.11315 0.0
H1935 H 0.03388 0.37851 0.0837 0.0
H1936 H 0.05564 0.41454 0.13513 0.0
H1937 H 0.06031 0.44652 0.13905 0.0
C1938 C 0.55093 0.03369 0.93656 0.0
C1939 C 0.55054 0.03705 0.91028 0.0
C1940 C 0.54297 0.08153 0.91643 0.0
C1941 C 0.5469 0.07868 0.94243 0.0
N1942 N 0.56076 0.0525 0.97627 0.0
N1943 N 0.5525 0.06548 0.8755 0.0
C1944 C 0.55265 0.05489 0.95228 0.0
C1945 C 0.54835 0.06137 0.90026 0.0
N1946 N 0.54856 0.01048 0.94668 0.0
N1947 N 0.53362 0.10331 0.90716 0.0
H1948 H 0.55764 0.05132 0.86323 0.0
H1949 H 0.55347 0.08327 0.86778 0.0
H1950 H 0.52864 0.11827 0.9185 0.0
H1951 H 0.5285 0.10552 0.88857 0.0
H1952 H 0.54636 0.00753 0.96575 0.0
H1953 H 0.54605 0.99447 0.93603 0.0
H1954 H 0.5675 0.03578 0.98346 0.0
H1955 H 0.56297 0.06765 0.9882 0.0
C1956 C 0.21342 0.31264 0.18659 0.0
C1957 C 0.21134 0.31124 0.16017 0.0
C1958 C 0.16628 0.30562 0.16436 0.0
C1959 C 0.16812 0.30947 0.19045 0.0
N1960 N 0.19282 0.32384 0.2251 0.0
N1961 N 0.18461 0.31433 0.12418 0.0
C1962 C 0.1915 0.31533 0.20117 0.0
C1963 C 0.18738 0.31019 0.14911 0.0
N1964 N 0.23597 0.30986 0.19806 0.0
N1965 N 0.1448 0.2966 0.15412 0.0
H1966 H 0.19956 0.31896 0.11266 0.0
H1967 H 0.16724 0.31586 0.11564 0.0
H1968 H 0.12913 0.29207 0.16468 0.0
H1969 H 0.14344 0.29135 0.13548 0.0
H1970 H 0.23786 0.30856 0.21733 0.0
H1971 H 0.25239 0.30596 0.18853 0.0
H1972 H 0.20922 0.33063 0.23295 0.0
H1973 H 0.17708 0.32651 0.23618 0.0
C1974 C 0.9762 0.94782 0.41752 0.0
C1975 C 0.95342 0.96032 0.41177 0.0
C1976 C 0.93024 0.92963 0.43679 0.0
C1977 C 0.95291 0.91734 0.44242 0.0
N1978 N 0.99769 0.9156 0.44093 0.0
N1979 N 0.90854 0.96027 0.41162 0.0
C1980 C 0.97592 0.92662 0.43344 0.0
C1981 C 0.93038 0.95045 0.42032 0.0
N1982 N 0.99811 0.95558 0.40717 0.0
N1983 N 0.90874 0.92202 0.44813 0.0
H1984 H 0.90791 0.97502 0.39899 0.0
H1985 H 0.89111 0.95251 0.41496 0.0
H1986 H 0.90801 0.90686 0.46026 0.0
H1987 H 0.89201 0.93175 0.4472 0.0
H1988 H 0.01464 0.94552 0.40774 0.0
H1989 H 0.9998 0.97124 0.39613 0.0
H1990 H 0.01525 0.9234 0.43854 0.0
H1991 H 0.99838 0.89908 0.4511 0.0
C1992 C 0.81906 0.17704 0.18658 0.0
C1993 C 0.83154 0.19967 0.19189 0.0
C1994 C 0.80031 0.22243 0.16773 0.0
C1995 C 0.78964 0.19947 0.15957 0.0
N1996 N 0.79273 0.15464 0.15766 0.0
N1997 N 0.83688 0.24347 0.18349 0.0
C1998 C 0.8001 0.17667 0.16805 0.0
C1999 C 0.82302 0.22222 0.18126 0.0
N2000 N 0.82502 0.15596 0.19951 0.0
N2001 N 0.78829 0.24447 0.16393 0.0
H2002 H 0.85357 0.24431 0.19337 0.0
H2003 H 0.83292 0.25972 0.17365 0.0
H2004 H 0.77156 0.2459 0.15446 0.0
H2005 H 0.79379 0.26113 0.17223 0.0
H2006 H 0.81484 0.1395 0.19818 0.0
H2007 H 0.83876 0.15565 0.21325 0.0
H2008 H 0.80141 0.13772 0.16147 0.0
H2009 H 0.77978 0.15362 0.14322 0.0
C2010 C 0.43864 0.55923 0.55094 0.0
C2011 C 0.44691 0.58239 0.5606 0.0
C2012 C 0.44798 0.5639 0.60236 0.0
C2013 C 0.44395 0.53992 0.59208 0.0
N2014 N 0.44076 0.51447 0.55499 0.0
N2015 N 0.46506 0.60482 0.5951 0.0
C2016 C 0.4407 0.53744 0.56589 0.0
C2017 C 0.45316 0.5842 0.58623 0.0
N2018 N 0.42793 0.55806 0.52791 0.0
N2019 N 0.44602 0.56758 0.62744 0.0
H2020 H 0.47069 0.61933 0.58353 0.0
H2021 H 0.47185 0.60607 0.61324 0.0
H2022 H 0.44107 0.55337 0.63973 0.0
H2023 H 0.44666 0.58521 0.63554 0.0
H2024 H 0.41966 0.54193 0.52097 0.0
H2025 H 0.4249 0.57382 0.51696 0.0
H2026 H 0.44081 0.51201 0.53573 0.0
H2027 H 0.4435 0.49803 0.56493 0.0
C2028 C 0.19259 0.71813 0.33997 0.0
C2029 C 0.20954 0.69769 0.34102 0.0
C2030 C 0.18401 0.67554 0.31016 0.0
C2031 C 0.16629 0.69502 0.31093 0.0
N2032 N 0.15038 0.73149 0.33169 0.0
N2033 N 0.21751 0.65443 0.3317 0.0
C2034 C 0.16946 0.71515 0.32759 0.0
C2035 C 0.20405 0.6756 0.32749 0.0
N2036 N 0.19901 0.74102 0.34894 0.0
N2037 N 0.18217 0.65738 0.29244 0.0
H2038 H 0.23156 0.65343 0.34508 0.0
H2039 H 0.21293 0.63724 0.32394 0.0
H2040 H 0.16766 0.65674 0.27953 0.0
H2041 H 0.19607 0.64421 0.28931 0.0
H2042 H 0.1883 0.75693 0.34593 0.0
H2043 H 0.21604 0.7449 0.35709 0.0
H2044 H 0.15089 0.74494 0.34568 0.0
H2045 H 0.13314 0.73005 0.32285 0.0
C2046 C 0.29409 0.31963 0.82712 0.0
C2047 C 0.288 0.29705 0.83962 0.0
C2048 C 0.32044 0.27518 0.81585 0.0
C2049 C 0.3274 0.29791 0.80459 0.0
N2050 N 0.32323 0.34235 0.80092 0.0
N2051 N 0.29979 0.25469 0.8499 0.0
C2052 C 0.3149 0.32034 0.81064 0.0
C2053 C 0.30247 0.27524 0.83521 0.0
N2054 N 0.27975 0.34032 0.83088 0.0
N2055 N 0.33076 0.25333 0.80773 0.0
H2056 H 0.28763 0.25383 0.86477 0.0
H2057 H 0.31173 0.23944 0.84928 0.0
H2058 H 0.34442 0.25249 0.79396 0.0
H2059 H 0.32417 0.23584 0.81292 0.0
H2060 H 0.28097 0.35637 0.82008 0.0
H2061 H 0.26585 0.34115 0.84444 0.0
H2062 H 0.31688 0.35974 0.80662 0.0
H2063 H 0.3376 0.3433 0.78786 0.0
C2064 C 0.55754 0.57396 0.93679 0.0
C2065 C 0.55401 0.55182 0.92292 0.0
C2066 C 0.57844 0.52864 0.95359 0.0
C2067 C 0.58474 0.55136 0.96587 0.0
N2068 N 0.58402 0.59636 0.96556 0.0
N2069 N 0.5652 0.509 0.91529 0.0
C2070 C 0.57527 0.57425 0.95648 0.0
C2071 C 0.5657 0.52945 0.93046 0.0
N2072 N 0.54372 0.59461 0.93138 0.0
N2073 N 0.58328 0.50614 0.96439 0.0
H2074 H 0.55587 0.50861 0.89826 0.0
H2075 H 0.57594 0.49318 0.91857 0.0
H2076 H 0.59229 0.50414 0.98133 0.0
H2077 H 0.57628 0.48938 0.95754 0.0
H2078 H 0.54364 0.61051 0.9425 0.0
H2079 H 0.53065 0.595 0.91701 0.0
H2080 H 0.57948 0.61354 0.95779 0.0
H2081 H 0.5979 0.59745 0.9791 0.0
C2082 C 0.67382 0.30762 0.18463 0.0
C2083 C 0.695 0.3051 0.16914 0.0
C2084 C 0.719 0.33106 0.19791 0.0
C2085 C 0.69696 0.33636 0.21176 0.0
N2086 N 0.65209 0.33365 0.21426 0.0
N2087 N 0.73642 0.31894 0.15827 0.0
C2088 C 0.67396 0.32578 0.20392 0.0
C2089 C 0.71712 0.3183 0.17488 0.0
N2090 N 0.6539 0.29211 0.18156 0.0
N2091 N 0.742 0.33657 0.20724 0.0
H2092 H 0.73616 0.30958 0.14128 0.0
H2093 H 0.75174 0.33067 0.16041 0.0
H2094 H 0.74483 0.34518 0.22426 0.0
H2095 H 0.75848 0.3303 0.19912 0.0
H2096 H 0.63899 0.29149 0.19399 0.0
H2097 H 0.65336 0.27835 0.16785 0.0
H2098 H 0.63471 0.3281 0.20765 0.0
H2099 H 0.65124 0.34781 0.22753 0.0
C2100 C 0.92323 0.46858 0.45481 0.0
C2101 C 0.9127 0.44568 0.46303 0.0
C2102 C 0.93661 0.42428 0.43045 0.0
C2103 C 0.94267 0.44753 0.41954 0.0
N2104 N 0.93763 0.49225 0.41945 0.0
N2105 N 0.90655 0.4017 0.45518 0.0
C2106 C 0.9347 0.46982 0.43111 0.0
C2107 C 0.91869 0.42342 0.44995 0.0
N2108 N 0.92384 0.4888 0.47013 0.0
N2109 N 0.94828 0.4031 0.42262 0.0
H2110 H 0.89227 0.40043 0.46825 0.0
H2111 H 0.90884 0.3856 0.44457 0.0
H2112 H 0.96184 0.40321 0.40869 0.0
H2113 H 0.94615 0.386 0.43156 0.0
H2114 H 0.93328 0.50518 0.46568 0.0
H2115 H 0.91757 0.48809 0.48839 0.0
H2116 H 0.92991 0.50869 0.42633 0.0
H2117 H 0.94567 0.4941 0.40186 0.0
C2118 C 0.77758 0.673 0.70055 0.0
C2119 C 0.80012 0.66288 0.71037 0.0
C2120 C 0.82383 0.68776 0.6801 0.0
C2121 C 0.80132 0.69521 0.66856 0.0
N2122 N 0.75666 0.69149 0.66521 0.0
N2123 N 0.84449 0.65711 0.70589 0.0
C2124 C 0.77817 0.6869 0.67807 0.0
C2125 C 0.82322 0.66934 0.69915 0.0
N2126 N 0.75561 0.6704 0.71305 0.0
N2127 N 0.84579 0.69857 0.67313 0.0
H2128 H 0.84469 0.64279 0.71902 0.0
H2129 H 0.86139 0.65931 0.69662 0.0
H2130 H 0.84682 0.71219 0.65931 0.0
H2131 H 0.86249 0.6957 0.68256 0.0
H2132 H 0.73961 0.68044 0.70861 0.0
H2133 H 0.75365 0.65969 0.72893 0.0
H2134 H 0.73965 0.68331 0.66973 0.0
H2135 H 0.75604 0.70171 0.64871 0.0
C2136 C 0.57624 0.43213 0.54816 0.0
C2137 C 0.58385 0.45445 0.53616 0.0
C2138 C 0.56115 0.47884 0.56767 0.0
C2139 C 0.55199 0.45651 0.57817 0.0
N2140 N 0.54643 0.41211 0.57557 0.0
N2141 N 0.57872 0.49914 0.53179 0.0
C2142 C 0.55815 0.4332 0.56748 0.0
C2143 C 0.57498 0.47786 0.54515 0.0
N2144 N 0.58716 0.40998 0.54197 0.0
N2145 N 0.5574 0.50101 0.57963 0.0
H2146 H 0.58902 0.49971 0.51551 0.0
H2147 H 0.56993 0.51595 0.53583 0.0
H2148 H 0.5468 0.50268 0.59583 0.0
H2149 H 0.56638 0.51744 0.57458 0.0
H2150 H 0.58415 0.39354 0.5518 0.0
H2151 H 0.60122 0.40849 0.52866 0.0
H2152 H 0.54825 0.39491 0.56679 0.0
H2153 H 0.53299 0.41231 0.5896 0.0
C2154 C 0.82498 0.33294 0.80122 0.0
C2155 C 0.80267 0.33717 0.78757 0.0
C2156 C 0.77977 0.31143 0.81772 0.0
C2157 C 0.80241 0.30539 0.82986 0.0
N2158 N 0.84727 0.30565 0.82947 0.0
N2159 N 0.76027 0.32412 0.77939 0.0
C2160 C 0.82527 0.31466 0.82043 0.0
C2161 C 0.78045 0.3246 0.79482 0.0
N2162 N 0.84562 0.34711 0.79667 0.0
N2163 N 0.75744 0.30538 0.82839 0.0
H2164 H 0.76012 0.33276 0.76212 0.0
H2165 H 0.74468 0.313 0.78262 0.0
H2166 H 0.7559 0.296 0.84531 0.0
H2167 H 0.74043 0.31178 0.82157 0.0
H2168 H 0.86156 0.34642 0.80772 0.0
H2169 H 0.84594 0.3614 0.78353 0.0
H2170 H 0.86449 0.30995 0.82161 0.0
H2171 H 0.84811 0.29201 0.84328 0.0
C2172 C 0.91809 0.52172 0.05005 0.0
C2173 C 0.91188 0.54442 0.03757 0.0
C2174 C 0.94247 0.56633 0.06382 0.0
C2175 C 0.94617 0.54444 0.07803 0.0
N2176 N 0.93415 0.50225 0.08743 0.0
N2177 N 0.91456 0.58933 0.03697 0.0
C2178 C 0.93301 0.52243 0.07194 0.0
C2179 C 0.92314 0.56701 0.04569 0.0
N2180 N 0.91103 0.49923 0.04057 0.0
N2181 N 0.95758 0.58646 0.06754 0.0
H2182 H 0.89947 0.59078 0.02483 0.0
H2183 H 0.92051 0.60643 0.04393 0.0
H2184 H 0.97187 0.58652 0.08071 0.0
H2185 H 0.95742 0.60209 0.05604 0.0
H2186 H 0.91804 0.48234 0.04707 0.0
H2187 H 0.89978 0.49717 0.02508 0.0
H2188 H 0.92246 0.48686 0.08562 0.0
H2189 H 0.94532 0.50165 0.10331 0.0
C2190 C 0.67975 0.69826 0.3107 0.0
C2191 C 0.69233 0.68891 0.33204 0.0
C2192 C 0.69095 0.64703 0.31396 0.0
C2193 C 0.68371 0.65699 0.29075 0.0
N2194 N 0.65722 0.68869 0.27283 0.0
N2195 N 0.71227 0.65432 0.35277 0.0
C2196 C 0.67425 0.68185 0.29044 0.0
C2197 C 0.69845 0.66323 0.33338 0.0
N2198 N 0.67248 0.72264 0.31003 0.0
N2199 N 0.68796 0.62222 0.31835 0.0
H2200 H 0.71912 0.66575 0.36688 0.0
H2201 H 0.71898 0.63612 0.35331 0.0
H2202 H 0.67952 0.6106 0.30523 0.0
H2203 H 0.69086 0.61412 0.33576 0.0
H2204 H 0.66684 0.73173 0.29388 0.0
H2205 H 0.67304 0.73427 0.32555 0.0
H2206 H 0.64891 0.70615 0.27186 0.0
H2207 H 0.64786 0.67575 0.26188 0.0
C2208 C 0.93236 0.55964 0.52468 0.0
C2209 C 0.92085 0.55173 0.54703 0.0
C2210 C 0.94949 0.57783 0.57116 0.0
C2211 C 0.96244 0.58428 0.54896 0.0
N2212 N 0.9696 0.5753 0.50526 0.0
N2213 N 0.92207 0.54839 0.59171 0.0
C2214 C 0.95486 0.5735 0.52588 0.0
C2215 C 0.93066 0.55921 0.57034 0.0
N2216 N 0.92151 0.55456 0.50221 0.0
N2217 N 0.95421 0.59034 0.59281 0.0
H2218 H 0.90835 0.53462 0.59167 0.0
H2219 H 0.9302 0.55132 0.60908 0.0
H2220 H 0.96692 0.60498 0.594 0.0
H2221 H 0.94365 0.58801 0.60892 0.0
H2222 H 0.9275 0.5625 0.48555 0.0
H2223 H 0.90532 0.54399 0.50036 0.0
H2224 H 0.96633 0.56535 0.48892 0.0
H2225 H 0.98639 0.58479 0.50513 0.0
C2226 C 0.6868 0.71275 0.81477 0.0
C2227 C 0.66112 0.71075 0.80851 0.0
C2228 C 0.66768 0.66732 0.79666 0.0
C2229 C 0.69265 0.66865 0.80521 0.0
N2230 N 0.72265 0.69051 0.83051 0.0
N2231 N 0.62605 0.68329 0.8023 0.0
C2232 C 0.70129 0.69073 0.81674 0.0
C2233 C 0.65118 0.68715 0.80212 0.0
N2234 N 0.69783 0.73548 0.81766 0.0
N2235 N 0.65976 0.64756 0.78274 0.0
H2236 H 0.61347 0.69703 0.80783 0.0
H2237 H 0.61809 0.66577 0.79973 0.0
H2238 H 0.67146 0.63301 0.77743 0.0
H2239 H 0.64223 0.647 0.7744 0.0
H2240 H 0.71698 0.73754 0.82017 0.0
H2241 H 0.68853 0.75225 0.81482 0.0
H2242 H 0.72849 0.70575 0.84103 0.0
H2243 H 0.73287 0.67428 0.8336 0.0
C2244 C 0.56933 0.43463 0.07488 0.0
C2245 C 0.57918 0.4433 0.05196 0.0
C2246 C 0.54417 0.42398 0.02998 0.0
C2247 C 0.53647 0.41201 0.05238 0.0
N2248 N 0.54495 0.40289 0.09563 0.0
N2249 N 0.57826 0.4424 0.00701 0.0
C2250 C 0.54991 0.41656 0.07474 0.0
C2251 C 0.56727 0.43687 0.0293 0.0
N2252 N 0.57812 0.44406 0.09682 0.0
N2253 N 0.52896 0.42424 0.00962 0.0
H2254 H 0.59526 0.45168 0.00556 0.0
H2255 H 0.57162 0.43571 0.99004 0.0
H2256 H 0.51147 0.41601 0.00953 0.0
H2257 H 0.53258 0.43485 0.99378 0.0
H2258 H 0.56993 0.44026 0.11399 0.0
H2259 H 0.59207 0.45757 0.09758 0.0
H2260 H 0.55582 0.4038 0.11167 0.0
H2261 H 0.53165 0.38876 0.0961 0.0
C2262 C 0.8148 0.32023 0.3228 0.0
C2263 C 0.80785 0.33162 0.30002 0.0
C2264 C 0.82932 0.29859 0.27718 0.0
C2265 C 0.83951 0.2893 0.29985 0.0
N2266 N 0.84534 0.2949 0.34413 0.0
N2267 N 0.81282 0.33434 0.25541 0.0
C2268 C 0.83316 0.30112 0.32268 0.0
C2269 C 0.81642 0.32163 0.27718 0.0
N2270 N 0.8035 0.32723 0.34448 0.0
N2271 N 0.8306 0.28495 0.25578 0.0
H2272 H 0.8037 0.35145 0.25449 0.0
H2273 H 0.82104 0.32902 0.23865 0.0
H2274 H 0.83901 0.26761 0.25488 0.0
H2275 H 0.82104 0.28973 0.23958 0.0
H2276 H 0.80611 0.31785 0.36127 0.0
H2277 H 0.78975 0.34094 0.34517 0.0
H2278 H 0.84302 0.3046 0.36078 0.0
H2279 H 0.8597 0.28185 0.3447 0.0
C2280 C 0.92217 0.42709 0.96915 0.0
C2281 C 0.9161 0.43955 0.94675 0.0
C2282 C 0.95065 0.41848 0.92573 0.0
C2283 C 0.95883 0.40867 0.94893 0.0
N2284 N 0.95464 0.40908 0.99396 0.0
N2285 N 0.92701 0.4507 0.9047 0.0
C2286 C 0.94517 0.41433 0.971 0.0
C2287 C 0.93105 0.4363 0.92528 0.0
N2288 N 0.90582 0.42707 0.98869 0.0
N2289 N 0.96103 0.41018 0.90404 0.0
H2290 H 0.91285 0.46397 0.90383 0.0
H2291 H 0.93897 0.45092 0.88942 0.0
H2292 H 0.97471 0.3964 0.90355 0.0
H2293 H 0.95422 0.41499 0.88652 0.0
H2294 H 0.90817 0.41588 0.00438 0.0
H2295 H 0.88876 0.43633 0.98832 0.0
H2296 H 0.94689 0.41579 0.01044 0.0
H2297 H 0.97141 0.40002 0.99664 0.0
C2298 C 0.79265 0.69713 0.2093 0.0
C2299 C 0.79711 0.67566 0.19509 0.0
C2300 C 0.83304 0.69708 0.17644 0.0
C2301 C 0.83271 0.71439 0.19649 0.0
N2302 N 0.81163 0.72909 0.23366 0.0
N2303 N 0.8095 0.66618 0.1532 0.0
C2304 C 0.81247 0.71378 0.21354 0.0
C2305 C 0.81382 0.67876 0.17484 0.0
N2306 N 0.7689 0.70514 0.21284 0.0
N2307 N 0.85213 0.69743 0.15964 0.0
H2308 H 0.79384 0.65486 0.15103 0.0
H2309 H 0.81956 0.66915 0.13688 0.0
H2310 H 0.86658 0.7104 0.16047 0.0
H2311 H 0.85464 0.68369 0.14619 0.0
H2312 H 0.7648 0.72219 0.22123 0.0
H2313 H 0.75401 0.69626 0.20406 0.0
H2314 H 0.79721 0.7282 0.24667 0.0
H2315 H 0.82659 0.74021 0.23861 0.0
C2316 C 0.55569 0.58767 0.46859 0.0
C2317 C 0.54001 0.59078 0.44735 0.0
C2318 C 0.56696 0.56235 0.42363 0.0
C2319 C 0.58318 0.56067 0.44434 0.0
N2320 N 0.59623 0.57613 0.4844 0.0
N2321 N 0.53429 0.58571 0.40307 0.0
C2322 C 0.5786 0.57484 0.46606 0.0
C2323 C 0.54676 0.5795 0.42436 0.0
N2324 N 0.5482 0.59529 0.49165 0.0
N2325 N 0.57038 0.54703 0.40361 0.0
H2326 H 0.51999 0.59886 0.40277 0.0
H2327 H 0.53977 0.57984 0.38542 0.0
H2328 H 0.58519 0.53451 0.40239 0.0
H2329 H 0.55756 0.5454 0.38915 0.0
H2330 H 0.55733 0.59024 0.50801 0.0
H2331 H 0.5319 0.60498 0.49496 0.0
H2332 H 0.59525 0.5887 0.49916 0.0
H2333 H 0.61293 0.56626 0.4838 0.0
C2334 C 0.67242 0.29583 0.72392 0.0
C2335 C 0.66207 0.28787 0.70076 0.0
C2336 C 0.68703 0.31971 0.67923 0.0
C2337 C 0.69482 0.32936 0.70251 0.0
N2338 N 0.69215 0.32899 0.74731 0.0
N2339 N 0.65638 0.2954 0.65679 0.0
C2340 C 0.6868 0.31805 0.72493 0.0
C2341 C 0.6686 0.30066 0.6785 0.0
N2342 N 0.66949 0.28182 0.74493 0.0
N2343 N 0.69767 0.32838 0.65779 0.0
H2344 H 0.64211 0.28229 0.65561 0.0
H2345 H 0.65859 0.30579 0.64056 0.0
H2346 H 0.71137 0.34216 0.65771 0.0
H2347 H 0.69469 0.32029 0.64042 0.0
H2348 H 0.67962 0.28486 0.76119 0.0
H2349 H 0.65825 0.26615 0.74581 0.0
H2350 H 0.68413 0.32338 0.76406 0.0
H2351 H 0.70308 0.34496 0.749 0.0
C2352 C 0.53843 0.91932 0.57936 0.0
C2353 C 0.54842 0.92068 0.55496 0.0
C2354 C 0.55959 0.96425 0.56276 0.0
C2355 C 0.55276 0.9616 0.5883 0.0
N2356 N 0.54343 0.93307 0.6218 0.0
N2357 N 0.57444 0.94295 0.52586 0.0
C2358 C 0.54444 0.93808 0.5969 0.0
C2359 C 0.56082 0.9427 0.54732 0.0
N2360 N 0.52261 0.90049 0.58567 0.0
N2361 N 0.56369 0.98726 0.55276 0.0
H2362 H 0.57614 0.92739 0.51436 0.0
H2363 H 0.58578 0.95787 0.52081 0.0
H2364 H 0.56126 0.00373 0.5627 0.0
H2365 H 0.56667 0.99004 0.53377 0.0
H2366 H 0.51335 0.89991 0.60274 0.0
H2367 H 0.51655 0.88728 0.57278 0.0
H2368 H 0.5393 0.91541 0.62877 0.0
H2369 H 0.54957 0.94571 0.63521 0.0
C2370 C 0.02918 0.54438 0.42307 0.0
C2371 C 0.052 0.53432 0.41394 0.0
C2372 C 0.07477 0.56448 0.4398 0.0
C2373 C 0.05211 0.57668 0.44561 0.0
N2374 N 0.00784 0.58073 0.43889 0.0
N2375 N 0.0967 0.53829 0.41043 0.0
C2376 C 0.02934 0.56738 0.43609 0.0
C2377 C 0.07489 0.5453 0.4215 0.0
N2378 N 0.0074 0.53151 0.42064 0.0
N2379 N 0.09612 0.57092 0.45203 0.0
H2380 H 0.09754 0.5252 0.39611 0.0
H2381 H 0.11356 0.54737 0.41358 0.0
H2382 H 0.0966 0.58478 0.46564 0.0
H2383 H 0.1127 0.56099 0.45031 0.0
H2384 H 0.9909 0.53682 0.4294 0.0
H2385 H 0.00627 0.51425 0.4121 0.0
H2386 H 0.99131 0.57605 0.42986 0.0
H2387 H 0.007 0.59766 0.44834 0.0
C2388 C 0.68283 0.81977 0.6896 0.0
C2389 C 0.67084 0.79708 0.69572 0.0
C2390 C 0.70232 0.77427 0.67178 0.0
C2391 C 0.71234 0.79721 0.66279 0.0
N2392 N 0.7079 0.84187 0.65941 0.0
N2393 N 0.66644 0.75292 0.68875 0.0
C2394 C 0.70142 0.82001 0.67072 0.0
C2395 C 0.6798 0.77439 0.68571 0.0
N2396 N 0.67671 0.84108 0.70207 0.0
N2397 N 0.71469 0.75235 0.66822 0.0
H2398 H 0.64984 0.75204 0.6988 0.0
H2399 H 0.67065 0.73646 0.67937 0.0
H2400 H 0.73107 0.75087 0.65815 0.0
H2401 H 0.70974 0.73584 0.67715 0.0
H2402 H 0.68655 0.85769 0.70008 0.0
H2403 H 0.6633 0.84149 0.71613 0.0
H2404 H 0.69881 0.85865 0.66287 0.0
H2405 H 0.72038 0.84276 0.64455 0.0
C2406 C 0.47494 0.43026 0.93752 0.0
C2407 C 0.45247 0.41816 0.94412 0.0
C2408 C 0.42916 0.44623 0.91663 0.0
C2409 C 0.45128 0.45997 0.91181 0.0
N2410 N 0.49446 0.46775 0.92256 0.0
N2411 N 0.40762 0.41766 0.94419 0.0
C2412 C 0.47398 0.45273 0.92359 0.0
C2413 C 0.42938 0.42708 0.93494 0.0
N2414 N 0.49733 0.41993 0.94387 0.0
N2415 N 0.40816 0.45073 0.90297 0.0
H2416 H 0.40712 0.40385 0.95785 0.0
H2417 H 0.39022 0.42519 0.94011 0.0
H2418 H 0.40746 0.46391 0.88873 0.0
H2419 H 0.39226 0.43966 0.90398 0.0
H2420 H 0.5143 0.42633 0.93696 0.0
H2421 H 0.49895 0.40369 0.95439 0.0
H2422 H 0.51031 0.46493 0.9334 0.0
H2423 H 0.495 0.48419 0.91249 0.0
C2424 C 0.29744 0.67574 0.6714 0.0
C2425 C 0.29126 0.69808 0.65858 0.0
C2426 C 0.32926 0.71759 0.67509 0.0
C2427 C 0.33327 0.69656 0.69041 0.0
N2428 N 0.31977 0.65668 0.70577 0.0
N2429 N 0.30006 0.74197 0.65166 0.0
C2430 C 0.31698 0.67588 0.68929 0.0
C2431 C 0.30695 0.71941 0.6611 0.0
N2432 N 0.28505 0.65419 0.66592 0.0
N2433 N 0.34692 0.73591 0.67368 0.0
H2434 H 0.28468 0.74468 0.64044 0.0
H2435 H 0.30884 0.75861 0.6564 0.0
H2436 H 0.36305 0.73601 0.68447 0.0
H2437 H 0.34657 0.74996 0.6603 0.0
H2438 H 0.29016 0.63687 0.67299 0.0
H2439 H 0.27128 0.65322 0.65224 0.0
H2440 H 0.30683 0.64236 0.70771 0.0
H2441 H 0.33408 0.65613 0.7189 0.0
C2442 C 0.95529 0.08282 0.08163 0.0
C2443 C 0.9479 0.08055 0.05634 0.0
C2444 C 0.94071 0.03604 0.06283 0.0
C2445 C 0.94487 0.03911 0.08882 0.0
N2446 N 0.94887 0.06756 0.12341 0.0
N2447 N 0.92694 0.05613 0.02495 0.0
C2448 C 0.95005 0.06314 0.0984 0.0
C2449 C 0.93863 0.05748 0.04748 0.0
N2450 N 0.96792 0.10342 0.08959 0.0
N2451 N 0.93985 0.01283 0.05249 0.0
H2452 H 0.92392 0.07172 0.01378 0.0
H2453 H 0.91794 0.04008 0.01874 0.0
H2454 H 0.94277 0.99657 0.06268 0.0
H2455 H 0.93903 0.00994 0.03331 0.0
H2456 H 0.97548 0.10484 0.10742 0.0
H2457 H 0.9731 0.11788 0.07769 0.0
H2458 H 0.95035 0.08536 0.13102 0.0
H2459 H 0.94365 0.05389 0.1362 0.0
C2460 C 0.67825 0.18365 0.81107 0.0
C2461 C 0.66928 0.20694 0.80254 0.0
C2462 C 0.70432 0.22802 0.8227 0.0
C2463 C 0.71191 0.20499 0.83359 0.0
N2464 N 0.70298 0.16167 0.8417 0.0
N2465 N 0.67117 0.25174 0.80342 0.0
C2466 C 0.69804 0.18298 0.82867 0.0
C2467 C 0.68163 0.22924 0.80917 0.0
N2468 N 0.66812 0.16213 0.802 0.0
N2469 N 0.71905 0.24867 0.82445 0.0
H2470 H 0.65476 0.25352 0.79319 0.0
H2471 H 0.67765 0.2686 0.81049 0.0
H2472 H 0.7351 0.2494 0.83511 0.0
H2473 H 0.71617 0.26472 0.81394 0.0
H2474 H 0.67553 0.14457 0.80553 0.0
H2475 H 0.65365 0.162 0.78902 0.0
H2476 H 0.69186 0.14581 0.84077 0.0
H2477 H 0.71669 0.1606 0.85541 0.0
C2478 C 0.79583 0.82397 0.32594 0.0
C2479 C 0.7892 0.80081 0.337 0.0
C2480 C 0.82693 0.78198 0.31912 0.0
C2481 C 0.83153 0.80411 0.30555 0.0
N2482 N 0.81896 0.84535 0.29345 0.0
N2483 N 0.7969 0.75636 0.34018 0.0
C2484 C 0.8156 0.82492 0.30824 0.0
C2485 C 0.80444 0.77947 0.33274 0.0
N2486 N 0.78376 0.84523 0.33299 0.0
N2487 N 0.84422 0.76326 0.31926 0.0
H2488 H 0.78102 0.75313 0.35057 0.0
H2489 H 0.80548 0.73997 0.33434 0.0
H2490 H 0.86052 0.76371 0.30874 0.0
H2491 H 0.84341 0.7482 0.33146 0.0
H2492 H 0.78923 0.86296 0.32735 0.0
H2493 H 0.76983 0.84538 0.34654 0.0
H2494 H 0.80634 0.86004 0.29256 0.0
H2495 H 0.83347 0.84671 0.28059 0.0
C2496 C 0.13929 0.07594 0.28832 0.0
C2497 C 0.14997 0.05815 0.30492 0.0
C2498 C 0.10844 0.04432 0.3174 0.0
C2499 C 0.09785 0.06271 0.30151 0.0
N2500 N 0.10248 0.0989 0.27558 0.0
N2501 N 0.14532 0.02819 0.33796 0.0
C2502 C 0.11308 0.07944 0.28813 0.0
C2503 C 0.13471 0.04325 0.32037 0.0
N2504 N 0.15417 0.08946 0.27265 0.0
N2505 N 0.09337 0.02759 0.32932 0.0
H2506 H 0.16454 0.02618 0.33997 0.0
H2507 H 0.13525 0.01892 0.35168 0.0
H2508 H 0.074 0.02895 0.32953 0.0
H2509 H 0.09994 0.01166 0.33819 0.0
H2510 H 0.14738 0.10007 0.25792 0.0
H2511 H 0.17355 0.0895 0.27367 0.0
H2512 H 0.11263 0.11347 0.26779 0.0
H2513 H 0.08327 0.1016 0.27461 0.0
C2514 C 0.20286 0.85942 0.54282 0.0
C2515 C 0.18404 0.84712 0.55678 0.0
C2516 C 0.17431 0.88587 0.57806 0.0
C2517 C 0.19072 0.89908 0.56223 0.0
N2518 N 0.22179 0.89847 0.52987 0.0
N2519 N 0.14551 0.85159 0.57951 0.0
C2520 C 0.20539 0.88578 0.54465 0.0
C2521 C 0.16769 0.86122 0.57179 0.0
N2522 N 0.21815 0.84575 0.52776 0.0
N2523 N 0.16567 0.89623 0.59957 0.0
H2524 H 0.139 0.83435 0.57348 0.0
H2525 H 0.13242 0.86213 0.58925 0.0
H2526 H 0.17217 0.9132 0.6063 0.0
H2527 H 0.15478 0.88631 0.61225 0.0
H2528 H 0.23417 0.85269 0.51934 0.0
H2529 H 0.21478 0.82699 0.52396 0.0
H2530 H 0.23095 0.89069 0.51467 0.0
H2531 H 0.22599 0.91723 0.53275 0.0
C2532 C 0.36183 0.95665 0.79632 0.0
C2533 C 0.34915 0.94175 0.81413 0.0
C2534 C 0.38718 0.91853 0.82211 0.0
C2535 C 0.40075 0.93487 0.8066 0.0
N2536 N 0.40112 0.96843 0.777 0.0
N2537 N 0.35307 0.91638 0.85104 0.0
C2538 C 0.38801 0.95371 0.7931 0.0
C2539 C 0.36281 0.92518 0.82932 0.0
N2540 N 0.34864 0.97368 0.78276 0.0
N2541 N 0.39701 0.89628 0.82935 0.0
H2542 H 0.33625 0.92282 0.85824 0.0
H2543 H 0.3633 0.90534 0.86332 0.0
H2544 H 0.41385 0.88965 0.82242 0.0
H2545 H 0.38683 0.88322 0.83952 0.0
H2546 H 0.35575 0.98358 0.76771 0.0
H2547 H 0.33011 0.97791 0.78684 0.0
H2548 H 0.394 0.98418 0.76828 0.0
H2549 H 0.41957 0.96453 0.77231 0.0
C2550 C 0.29936 0.11063 0.04163 0.0
C2551 C 0.31251 0.09968 0.06169 0.0
C2552 C 0.333 0.13926 0.07019 0.0
C2553 C 0.3184 0.15086 0.05156 0.0
N2554 N 0.29503 0.14587 0.01371 0.0
N2555 N 0.33418 0.10627 0.10052 0.0
C2556 C 0.30361 0.13598 0.03553 0.0
C2557 C 0.32702 0.11475 0.07769 0.0
N2558 N 0.28178 0.09691 0.02939 0.0
N2559 N 0.35378 0.15069 0.07928 0.0
H2560 H 0.3283 0.08921 0.1076 0.0
H2561 H 0.34324 0.11755 0.11349 0.0
H2562 H 0.36067 0.1672 0.07175 0.0
H2563 H 0.36596 0.14197 0.09164 0.0
H2564 H 0.26993 0.10411 0.01585 0.0
H2565 H 0.27729 0.07883 0.03493 0.0
H2566 H 0.2857 0.13565 1.00014 0.0
H2567 H 0.29986 0.16381 0.00797 0.0
C2568 C 0.10818 0.9144 0.18033 0.0
C2569 C 0.09639 0.9302 0.19781 0.0
C2570 C 0.13681 0.94881 0.2081 0.0
C2571 C 0.14788 0.93477 0.18863 0.0
N2572 N 0.14175 0.91113 0.15084 0.0
N2573 N 0.1003 0.95635 0.23383 0.0
C2574 C 0.13292 0.91965 0.17307 0.0
C2575 C 0.11103 0.94573 0.21334 0.0
N2576 N 0.09654 0.89348 0.17184 0.0
N2577 N 0.15085 0.96601 0.22057 0.0
H2578 H 0.08184 0.95274 0.23878 0.0
H2579 H 0.10995 0.96656 0.24716 0.0
H2580 H 0.16943 0.96953 0.21601 0.0
H2581 H 0.14381 0.97834 0.23374 0.0
H2582 H 0.10534 0.88054 0.16034 0.0
H2583 H 0.07969 0.88723 0.17915 0.0
H2584 H 0.1306 0.90159 0.13812 0.0
H2585 H 0.15898 0.91641 0.14373 0.0
C2586 C 0.2967 0.86214 0.41561 0.0
C2587 C 0.31035 0.8488 0.43419 0.0
C2588 C 0.32066 0.88809 0.45508 0.0
C2589 C 0.30609 0.90109 0.43708 0.0
N2590 N 0.28343 0.90175 0.39842 0.0
N2591 N 0.33645 0.84866 0.4708 0.0
C2592 C 0.29512 0.88847 0.41679 0.0
C2593 C 0.32282 0.86169 0.45362 0.0
N2594 N 0.28462 0.84956 0.39705 0.0
N2595 N 0.33252 0.90117 0.4735 0.0
H2596 H 0.33659 0.82932 0.47193 0.0
H2597 H 0.34814 0.85664 0.48397 0.0
H2598 H 0.33426 0.92049 0.47339 0.0
H2599 H 0.34102 0.89327 0.48897 0.0
H2600 H 0.27097 0.85736 0.38576 0.0
H2601 H 0.28761 0.83088 0.39315 0.0
H2602 H 0.27829 0.89438 0.38125 0.0
H2603 H 0.27983 0.92078 0.39962 0.0
C2604 C 0.36305 0.0756 0.66834 0.0
C2605 C 0.35024 0.05947 0.68478 0.0
C2606 C 0.38985 0.0496 0.70548 0.0
C2607 C 0.4019 0.06744 0.69018 0.0
N2608 N 0.39733 0.1043 0.66502 0.0
N2609 N 0.35167 0.0273 0.71582 0.0
C2610 C 0.38774 0.0826 0.67405 0.0
C2611 C 0.3638 0.04537 0.70258 0.0
N2612 N 0.35232 0.08337 0.64668 0.0
N2613 N 0.40343 0.03761 0.72336 0.0
H2614 H 0.33312 0.02268 0.71226 0.0
H2615 H 0.35996 0.0158 0.72899 0.0
H2616 H 0.42202 0.04214 0.72681 0.0
H2617 H 0.39632 0.02457 0.73577 0.0
H2618 H 0.36193 0.09386 0.63345 0.0
H2619 H 0.3353 0.07655 0.6404 0.0
H2620 H 0.38684 0.11679 0.65447 0.0
H2621 H 0.41444 0.11127 0.67092 0.0
C2622 C 0.20014 0.13956 0.95495 0.0
C2623 C 0.18354 0.1501 0.9374 0.0
C2624 C 0.18248 0.11102 0.91433 0.0
C2625 C 0.19697 0.09951 0.93308 0.0
N2626 N 0.22563 0.10412 0.96707 0.0
N2627 N 0.15208 0.14307 0.90649 0.0
C2628 C 0.20759 0.11427 0.95228 0.0
C2629 C 0.17273 0.13506 0.9188 0.0
N2630 N 0.20752 0.15358 0.97484 0.0
N2631 N 0.17875 0.09965 0.89194 0.0
H2632 H 0.14298 0.1594 0.91162 0.0
H2633 H 0.14229 0.13195 0.89394 0.0
H2634 H 0.18787 0.08329 0.88693 0.0
H2635 H 0.1694 0.10825 0.87726 0.0
H2636 H 0.2183 0.14694 0.98949 0.0
H2637 H 0.20081 0.1716 0.97768 0.0
H2638 H 0.23542 0.11386 0.98064 0.0
H2639 H 0.23242 0.08616 0.96401 0.0
C2640 C 0.04459 0.29976 0.13843 0.0
C2641 C 0.05911 0.31827 0.15046 0.0
C2642 C 0.08268 0.32483 0.11242 0.0
C2643 C 0.06654 0.3088 0.09928 0.0
N2644 N 0.03334 0.27884 0.09982 0.0
N2645 N 0.08379 0.3553 0.14518 0.0
C2646 C 0.04774 0.29559 0.11241 0.0
C2647 C 0.07568 0.33296 0.13638 0.0
N2648 N 0.02768 0.28652 0.15207 0.0
N2649 N 0.10514 0.3315 0.10271 0.0
H2650 H 0.077 0.36286 0.16172 0.0
H2651 H 0.09477 0.3673 0.13454 0.0
H2652 H 0.11188 0.32398 0.08615 0.0
H2653 H 0.11803 0.34207 0.11272 0.0
H2654 H 0.01787 0.27119 0.14545 0.0
H2655 H 0.02345 0.29123 0.17046 0.0
H2656 H 0.01766 0.27016 0.10717 0.0
H2657 H 0.03753 0.27353 0.0816 0.0
C2658 C 0.58417 0.1658 0.88701 0.0
C2659 C 0.56716 0.18172 0.89939 0.0
C2660 C 0.54372 0.18655 0.86037 0.0
C2661 C 0.55779 0.16675 0.84989 0.0
N2662 N 0.59013 0.13588 0.85386 0.0
N2663 N 0.53331 0.21095 0.89706 0.0
C2664 C 0.57757 0.15581 0.86346 0.0
C2665 C 0.54777 0.19336 0.88567 0.0
N2666 N 0.60711 0.16124 0.89695 0.0
N2667 N 0.52675 0.19896 0.84597 0.0
H2668 H 0.53781 0.21827 0.91451 0.0
H2669 H 0.51695 0.21812 0.88958 0.0
H2670 H 0.52219 0.19342 0.82791 0.0
H2671 H 0.51781 0.21527 0.85138 0.0
H2672 H 0.62087 0.15121 0.88766 0.0
H2673 H 0.61364 0.17024 0.91281 0.0
H2674 H 0.60296 0.12556 0.86413 0.0
H2675 H 0.58609 0.1283 0.83644 0.0
C2676 C 0.91877 0.79049 0.36005 0.0
C2677 C 0.93851 0.8032 0.34753 0.0
C2678 C 0.95915 0.81071 0.38749 0.0
C2679 C 0.93871 0.79924 0.39995 0.0
N2680 N 0.8973 0.7821 0.39885 0.0
N2681 N 0.97586 0.82803 0.3492 0.0
C2682 C 0.91796 0.79039 0.38645 0.0
C2683 C 0.95816 0.81421 0.36124 0.0
N2684 N 0.90094 0.77803 0.34678 0.0
N2685 N 0.97959 0.81822 0.40076 0.0
H2686 H 0.97661 0.82986 0.32989 0.0
H2687 H 0.98893 0.83907 0.35831 0.0
H2688 H 0.98027 0.81834 0.42015 0.0
H2689 H 0.99637 0.82348 0.39261 0.0
H2690 H 0.88849 0.76549 0.35476 0.0
H2691 H 0.89913 0.77916 0.32753 0.0
H2692 H 0.88034 0.7785 0.39017 0.0
H2693 H 0.89645 0.78051 0.41819 0.0
C2694 C 0.95973 0.20336 0.13579 0.0
C2695 C 0.94619 0.18503 0.14927 0.0
C2696 C 0.92199 0.1755 0.11227 0.0
C2697 C 0.93703 0.19149 0.09785 0.0
N2698 N 0.96966 0.22207 0.09571 0.0
N2699 N 0.92305 0.14655 0.14637 0.0
C2700 C 0.95584 0.20588 0.10965 0.0
C2701 C 0.93011 0.16874 0.1363 0.0
N2702 N 0.97634 0.21814 0.14817 0.0
N2703 N 0.89952 0.16748 0.10365 0.0
H2704 H 0.93058 0.13981 0.16292 0.0
H2705 H 0.91229 0.13368 0.13655 0.0
H2706 H 0.89192 0.174 0.08704 0.0
H2707 H 0.88741 0.15686 0.11453 0.0
H2708 H 0.98497 0.23368 0.14047 0.0
H2709 H 0.98138 0.21468 0.16663 0.0
H2710 H 0.98541 0.23131 0.10216 0.0
H2711 H 0.96514 0.22612 0.07724 0.0
C2712 C 0.45571 0.67649 0.63581 0.0
C2713 C 0.4396 0.6913 0.65048 0.0
C2714 C 0.41882 0.70686 0.61264 0.0
C2715 C 0.43688 0.69448 0.59807 0.0
N2716 N 0.47288 0.66763 0.59507 0.0
N2717 N 0.40617 0.7215 0.65326 0.0
C2718 C 0.45536 0.67922 0.60946 0.0
C2719 C 0.4212 0.70668 0.63899 0.0
N2720 N 0.47132 0.65979 0.64705 0.0
N2721 N 0.39928 0.71863 0.60129 0.0
H2722 H 0.40529 0.72034 0.67259 0.0
H2723 H 0.3952 0.73575 0.64605 0.0
H2724 H 0.39754 0.72004 0.582 0.0
H2725 H 0.38382 0.7254 0.61081 0.0
H2726 H 0.48149 0.6464 0.63743 0.0
H2727 H 0.473 0.65814 0.66631 0.0
H2728 H 0.48902 0.65959 0.60217 0.0
H2729 H 0.47177 0.66658 0.57571 0.0
C2730 C 0.05343 0.70867 0.39078 0.0
C2731 C 0.07048 0.69273 0.40307 0.0
C2732 C 0.0755 0.66832 0.36531 0.0
C2733 C 0.06007 0.68501 0.3521 0.0
N2734 N 0.03139 0.71923 0.35261 0.0
N2735 N 0.10579 0.66555 0.39826 0.0
C2736 C 0.04829 0.70488 0.36502 0.0
C2737 C 0.08419 0.6752 0.38915 0.0
N2738 N 0.04239 0.72737 0.40407 0.0
N2739 N 0.08078 0.64534 0.35597 0.0
H2740 H 0.11368 0.67188 0.41483 0.0
H2741 H 0.11707 0.65364 0.38784 0.0
H2742 H 0.07253 0.63864 0.33975 0.0
H2743 H 0.09079 0.63208 0.36603 0.0
H2744 H 0.02886 0.73934 0.39715 0.0
H2745 H 0.04758 0.73127 0.4224 0.0
H2746 H 0.02292 0.73508 0.35977 0.0
H2747 H 0.02507 0.71418 0.33497 0.0
C2748 C 0.4439 0.28249 0.85923 0.0
C2749 C 0.44178 0.3073 0.8499 0.0
C2750 C 0.41899 0.31806 0.88776 0.0
C2751 C 0.42886 0.29692 0.89986 0.0
N2752 N 0.44608 0.25577 0.89558 0.0
N2753 N 0.42775 0.34961 0.85713 0.0
C2754 C 0.43997 0.27808 0.88508 0.0
C2755 C 0.42933 0.32538 0.86466 0.0
N2756 N 0.44751 0.26293 0.84334 0.0
N2757 N 0.39901 0.33029 0.89746 0.0
H2758 H 0.43623 0.35619 0.84094 0.0
H2759 H 0.42015 0.36348 0.86841 0.0
H2760 H 0.38956 0.32371 0.91311 0.0
H2761 H 0.39025 0.34492 0.88816 0.0
H2762 H 0.44712 0.2444 0.84906 0.0
H2763 H 0.44761 0.26478 0.82403 0.0
H2764 H 0.45724 0.24258 0.88675 0.0
H2765 H 0.44012 0.25078 0.91341 0.0
C2766 C 0.61371 0.57996 0.82447 0.0
C2767 C 0.59929 0.56534 0.80809 0.0
C2768 C 0.63757 0.54445 0.79418 0.0
C2769 C 0.65101 0.55705 0.81322 0.0
N2770 N 0.64806 0.57791 0.85301 0.0
N2771 N 0.59729 0.53344 0.77663 0.0
C2772 C 0.63795 0.57196 0.83051 0.0
C2773 C 0.61124 0.54747 0.79265 0.0
N2774 N 0.60477 0.60178 0.83382 0.0
N2775 N 0.65005 0.52951 0.7778 0.0
H2776 H 0.57843 0.537 0.77346 0.0
H2777 H 0.60411 0.5181 0.76695 0.0
H2778 H 0.66878 0.52487 0.7802 0.0
H2779 H 0.64212 0.52212 0.76173 0.0
H2780 H 0.6156 0.61353 0.84488 0.0
H2781 H 0.58801 0.6095 0.82782 0.0
H2782 H 0.63817 0.58779 0.86652 0.0
H2783 H 0.66473 0.57027 0.85928 0.0
C2784 C 0.70505 0.38817 0.08595 0.0
C2785 C 0.69727 0.40094 0.06431 0.0
C2786 C 0.68291 0.36156 0.0456 0.0
C2787 C 0.69253 0.3485 0.06647 0.0
N2788 N 0.715 0.34915 0.10573 0.0
N2789 N 0.67893 0.40057 0.02317 0.0
C2790 C 0.70417 0.36175 0.08643 0.0
C2791 C 0.68625 0.38783 0.04402 0.0
N2792 N 0.71306 0.40133 0.10626 0.0
N2793 N 0.67061 0.34886 0.02723 0.0
H2794 H 0.67812 0.41993 0.0222 0.0
H2795 H 0.67421 0.39212 0.00639 0.0
H2796 H 0.66971 0.32952 0.02634 0.0
H2797 H 0.6602 0.35736 0.01329 0.0
H2798 H 0.71553 0.39353 0.12383 0.0
H2799 H 0.71578 0.42055 0.10611 0.0
H2800 H 0.72708 0.35734 0.1185 0.0
H2801 H 0.71302 0.33014 0.10862 0.0
C2802 C 0.86153 0.46222 0.32795 0.0
C2803 C 0.84729 0.44948 0.30988 0.0
C2804 C 0.88538 0.43236 0.2911 0.0
C2805 C 0.89972 0.447 0.30768 0.0
N2806 N 0.9018 0.47775 0.34073 0.0
N2807 N 0.84499 0.42381 0.27292 0.0
C2808 C 0.88788 0.46256 0.32571 0.0
C2809 C 0.85904 0.43497 0.29104 0.0
N2810 N 0.84986 0.47363 0.34751 0.0
N2811 N 0.89692 0.41584 0.27552 0.0
H2812 H 0.82559 0.42325 0.27328 0.0
H2813 H 0.85246 0.41589 0.25689 0.0
H2814 H 0.91622 0.41439 0.274 0.0
H2815 H 0.88749 0.4024 0.26522 0.0
H2816 H 0.8592 0.48065 0.36298 0.0
H2817 H 0.83053 0.47446 0.34926 0.0
H2818 H 0.89423 0.49192 0.35157 0.0
H2819 H 0.92114 0.47697 0.34184 0.0
C2820 C 0.82961 0.63669 0.56805 0.0
C2821 C 0.81456 0.65086 0.55183 0.0
C2822 C 0.79157 0.61292 0.54052 0.0
C2823 C 0.80535 0.59954 0.55876 0.0
N2824 N 0.82894 0.60265 0.59703 0.0
N2825 N 0.78415 0.65235 0.51916 0.0
C2826 C 0.82176 0.61254 0.57478 0.0
C2827 C 0.7963 0.63882 0.53699 0.0
N2828 N 0.85178 0.64574 0.57644 0.0
N2829 N 0.77337 0.60081 0.52746 0.0
H2830 H 0.78901 0.67076 0.51523 0.0
H2831 H 0.77034 0.64545 0.50751 0.0
H2832 H 0.76817 0.58253 0.53158 0.0
H2833 H 0.76253 0.60881 0.51357 0.0
H2834 H 0.864 0.63507 0.58713 0.0
H2835 H 0.85927 0.66244 0.57002 0.0
H2836 H 0.83973 0.61254 0.60981 0.0
H2837 H 0.82135 0.58629 0.60415 0.0
C2838 C 0.64132 0.42624 0.65891 0.0
C2839 C 0.65016 0.44611 0.67375 0.0
C2840 C 0.60989 0.44834 0.69504 0.0
C2841 C 0.60322 0.42522 0.68399 0.0
N2842 N 0.61227 0.39201 0.65499 0.0
N2843 N 0.63839 0.48354 0.69506 0.0
C2844 C 0.61876 0.4142 0.66562 0.0
C2845 C 0.63299 0.45958 0.68852 0.0
N2846 N 0.65379 0.41997 0.63767 0.0
N2847 N 0.59492 0.45876 0.7128 0.0
H2848 H 0.65425 0.49259 0.68835 0.0
H2849 H 0.62604 0.49526 0.70431 0.0
H2850 H 0.57791 0.45105 0.71815 0.0
H2851 H 0.60007 0.47407 0.72352 0.0
H2852 H 0.64734 0.40683 0.62496 0.0
H2853 H 0.66898 0.43032 0.63132 0.0
H2854 H 0.62431 0.38169 0.64383 0.0
H2855 H 0.59533 0.38315 0.65848 0.0
C2856 C 0.79089 0.38392 0.93319 0.0
C2857 C 0.80884 0.3991 0.94509 0.0
C2858 C 0.83098 0.36192 0.96011 0.0
C2859 C 0.81183 0.34691 0.95016 0.0
N2860 N 0.77212 0.34309 0.92922 0.0
N2861 N 0.84453 0.40294 0.97256 0.0
C2862 C 0.7913 0.35778 0.93734 0.0
C2863 C 0.82844 0.38822 0.95939 0.0
N2864 N 0.77355 0.39446 0.91779 0.0
N2865 N 0.85182 0.35102 0.96989 0.0
H2866 H 0.84495 0.42226 0.97121 0.0
H2867 H 0.85681 0.39608 0.9859 0.0
H2868 H 0.85389 0.33178 0.97155 0.0
H2869 H 0.86784 0.36087 0.97465 0.0
H2870 H 0.76186 0.38423 0.90619 0.0
H2871 H 0.77188 0.41364 0.91526 0.0
H2872 H 0.75524 0.35009 0.92274 0.0
H2873 H 0.77252 0.3237 0.92993 0.0
C2874 C 0.88695 0.57732 0.17555 0.0
C2875 C 0.90102 0.56038 0.1901 0.0
C2876 C 0.86274 0.53741 0.20011 0.0
C2877 C 0.84904 0.55398 0.18478 0.0
N2878 N 0.85086 0.58163 0.14932 0.0
N2879 N 0.90178 0.52795 0.22095 0.0
C2880 C 0.86186 0.57158 0.16989 0.0
C2881 C 0.8887 0.54131 0.20365 0.0
N2882 N 0.89692 0.59943 0.16797 0.0
N2883 N 0.85095 0.51714 0.21003 0.0
H2884 H 0.92046 0.53162 0.22492 0.0
H2885 H 0.89382 0.51507 0.23303 0.0
H2886 H 0.83231 0.51316 0.2062 0.0
H2887 H 0.85993 0.50303 0.21981 0.0
H2888 H 0.88647 0.61307 0.15893 0.0
H2889 H 0.91433 0.60565 0.17372 0.0
H2890 H 0.86037 0.59316 0.13691 0.0
H2891 H 0.83372 0.5756 0.14259 0.0
C2892 C 0.70501 0.6152 0.42624 0.0
C2893 C 0.69017 0.59945 0.44129 0.0
C2894 C 0.66744 0.63579 0.45753 0.0
C2895 C 0.68449 0.65151 0.44519 0.0
N2896 N 0.72 0.65701 0.41812 0.0
N2897 N 0.65755 0.59438 0.47206 0.0
C2898 C 0.70333 0.64144 0.42947 0.0
C2899 C 0.67142 0.60966 0.45713 0.0
N2900 N 0.7207 0.60506 0.40892 0.0
N2901 N 0.64725 0.64588 0.46934 0.0
H2902 H 0.65785 0.57503 0.47076 0.0
H2903 H 0.64639 0.60086 0.48653 0.0
H2904 H 0.64413 0.66503 0.47031 0.0
H2905 H 0.63254 0.63536 0.47634 0.0
H2906 H 0.73011 0.61546 0.39555 0.0
H2907 H 0.72305 0.58592 0.40674 0.0
H2908 H 0.73614 0.65088 0.4093 0.0
H2909 H 0.71833 0.67635 0.41838 0.0
C2910 C 0.57074 0.79133 0.63941 0.0
C2911 C 0.55617 0.80921 0.65258 0.0
C2912 C 0.54244 0.82752 0.61332 0.0
C2913 C 0.55768 0.81027 0.60013 0.0
N2914 N 0.58914 0.77832 0.60022 0.0
N2915 N 0.53199 0.84701 0.65263 0.0
C2916 C 0.5728 0.79303 0.61308 0.0
C2917 C 0.54331 0.8282 0.6397 0.0
N2918 N 0.58249 0.77258 0.65206 0.0
N2919 N 0.5265 0.84283 0.6007 0.0
H2920 H 0.53098 0.84749 0.67201 0.0
H2921 H 0.52514 0.8631 0.64423 0.0
H2922 H 0.52662 0.84481 0.58141 0.0
H2923 H 0.51217 0.85266 0.6093 0.0
H2924 H 0.59028 0.75706 0.64347 0.0
H2925 H 0.58387 0.77195 0.67141 0.0
H2926 H 0.6028 0.76748 0.60868 0.0
H2927 H 0.59028 0.77814 0.58084 0.0
C2928 C 0.92334 0.12065 0.29216 0.0
C2929 C 0.93187 0.14551 0.29417 0.0
C2930 C 0.96129 0.13265 0.3267 0.0
C2931 C 0.95616 0.10739 0.32119 0.0
N2932 N 0.93314 0.07698 0.29709 0.0
N2933 N 0.96072 0.17516 0.31196 0.0
C2934 C 0.93704 0.10121 0.30386 0.0
C2935 C 0.95102 0.15164 0.31141 0.0
N2936 N 0.9021 0.11569 0.27906 0.0
N2937 N 0.97616 0.13839 0.34654 0.0
H2938 H 0.95409 0.18958 0.30087 0.0
H2939 H 0.97668 0.17989 0.32192 0.0
H2940 H 0.98372 0.12473 0.35813 0.0
H2941 H 0.97885 0.1565 0.35294 0.0
H2942 H 0.89351 0.0983 0.27889 0.0
H2943 H 0.89173 0.12964 0.27036 0.0
H2944 H 0.92176 0.07179 0.28227 0.0
H2945 H 0.94256 0.062 0.30498 0.0
C2946 C 0.11779 0.71065 0.57709 0.0
C2947 C 0.14277 0.70236 0.5758 0.0
C2948 C 0.1295 0.66658 0.55041 0.0
C2949 C 0.1056 0.67758 0.54815 0.0
N2950 N 0.07695 0.71078 0.55823 0.0
N2951 N 0.17043 0.66724 0.56966 0.0
C2952 C 0.09951 0.69947 0.56168 0.0
C2953 C 0.14813 0.67864 0.56512 0.0
N2954 N 0.11162 0.72904 0.59358 0.0
N2955 N 0.13452 0.64513 0.53761 0.0
H2956 H 0.18373 0.67419 0.58183 0.0
H2957 H 0.17489 0.64936 0.56376 0.0
H2958 H 0.12083 0.6353 0.52792 0.0
H2959 H 0.15218 0.63745 0.53566 0.0
H2960 H 0.09339 0.73458 0.59716 0.0
H2961 H 0.12467 0.73676 0.60576 0.0
H2962 H 0.07265 0.72842 0.56504 0.0
H2963 H 0.06304 0.70345 0.54689 0.0
C2964 C 0.54222 0.86936 0.82704 0.0
C2965 C 0.546 0.89408 0.81856 0.0
C2966 C 0.5785 0.8796 0.78987 0.0
C2967 C 0.57164 0.8547 0.79513 0.0
N2968 N 0.54878 0.82509 0.82033 0.0
N2969 N 0.56773 0.92328 0.79204 0.0
C2970 C 0.55436 0.84929 0.81457 0.0
C2971 C 0.56457 0.89945 0.80043 0.0
N2972 N 0.52664 0.86532 0.84683 0.0
N2973 N 0.59861 0.88411 0.77489 0.0
H2974 H 0.55848 0.93851 0.79958 0.0
H2975 H 0.5785 0.92795 0.77661 0.0
H2976 H 0.60928 0.86981 0.76717 0.0
H2977 H 0.6062 0.9017 0.77201 0.0
H2978 H 0.52298 0.84805 0.85474 0.0
H2979 H 0.51825 0.87985 0.85664 0.0
H2980 H 0.53553 0.81961 0.83331 0.0
H2981 H 0.55694 0.80981 0.8117 0.0
C2982 C 0.36945 0.32808 0.04395 0.0
C2983 C 0.39305 0.31651 0.04226 0.0
C2984 C 0.3789 0.28382 0.0708 0.0
C2985 C 0.35407 0.29266 0.0688 0.0
N2986 N 0.32528 0.3224 0.05057 0.0
N2987 N 0.41935 0.2812 0.05125 0.0
C2988 C 0.34919 0.31484 0.05494 0.0
C2989 C 0.39761 0.29387 0.05507 0.0
N2990 N 0.36638 0.35168 0.03498 0.0
N2991 N 0.38469 0.26603 0.08805 0.0
H2992 H 0.43336 0.28769 0.03951 0.0
H2993 H 0.42245 0.26324 0.0579 0.0
H2994 H 0.37162 0.25903 0.10063 0.0
H2995 H 0.40288 0.26037 0.09172 0.0
H2996 H 0.35034 0.36216 0.038 0.0
H2997 H 0.38084 0.36159 0.02655 0.0
H2998 H 0.32079 0.33671 0.03827 0.0
H2999 H 0.30966 0.31321 0.05736 0.0
C3000 C 0.92315 0.88096 0.2098 0.0
C3001 C 0.92942 0.85597 0.20417 0.0
C3002 C 0.95591 0.87053 0.1698 0.0
C3003 C 0.95335 0.89518 0.17864 0.0
N3004 N 0.93553 0.92422 0.20812 0.0
N3005 N 0.95274 0.82661 0.17911 0.0
C3006 C 0.93689 0.90062 0.19865 0.0
C3007 C 0.94567 0.85057 0.1839 0.0
N3008 N 0.90387 0.88581 0.2257 0.0
N3009 N 0.96813 0.86629 0.14788 0.0
H3010 H 0.9457 0.81133 0.18867 0.0
H3011 H 0.96689 0.82192 0.16671 0.0
H3012 H 0.97577 0.88069 0.13728 0.0
H3013 H 0.96858 0.84903 0.13906 0.0
H3014 H 0.89683 0.90361 0.22879 0.0
H3015 H 0.89323 0.8717 0.23382 0.0
H3016 H 0.92638 0.92852 0.22468 0.0
H3017 H 0.94499 0.93935 0.20051 0.0
C3018 C 0.39863 0.69232 0.43411 0.0
C3019 C 0.39258 0.67694 0.45491 0.0
C3020 C 0.34846 0.68768 0.45035 0.0
C3021 C 0.3546 0.70358 0.43011 0.0
N3022 N 0.38352 0.71509 0.39802 0.0
N3023 N 0.36142 0.65369 0.47714 0.0
C3024 C 0.37907 0.7038 0.42039 0.0
C3025 C 0.3673 0.67248 0.46102 0.0
N3026 N 0.42288 0.69758 0.42846 0.0
N3027 N 0.32516 0.68835 0.46058 0.0
H3028 H 0.37496 0.64206 0.48486 0.0
H3029 H 0.34322 0.64804 0.48074 0.0
H3030 H 0.31079 0.69924 0.45345 0.0
H3031 H 0.32056 0.67949 0.47721 0.0
H3032 H 0.4281 0.71127 0.41575 0.0
H3033 H 0.43804 0.68958 0.43744 0.0
H3034 H 0.40044 0.71384 0.38862 0.0
H3035 H 0.36941 0.72359 0.38769 0.0
C3036 C 0.56031 0.12169 0.67259 0.0
C3037 C 0.54811 0.10274 0.68631 0.0
C3038 C 0.56921 0.11659 0.72443 0.0
C3039 C 0.57759 0.13814 0.7117 0.0
N3040 N 0.59314 0.15264 0.67203 0.0
N3041 N 0.54107 0.08133 0.72525 0.0
C3042 C 0.57676 0.13831 0.68518 0.0
C3043 C 0.5529 0.09972 0.71217 0.0
N3044 N 0.55543 0.12438 0.64776 0.0
N3045 N 0.57833 0.11147 0.74762 0.0
H3046 H 0.52967 0.06804 0.71686 0.0
H3047 H 0.5413 0.08011 0.7446 0.0
H3048 H 0.59238 0.12219 0.75572 0.0
H3049 H 0.5746 0.0951 0.75731 0.0
H3050 H 0.56124 0.13967 0.63734 0.0
H3051 H 0.54413 0.11202 0.6379 0.0
H3052 H 0.59444 0.15243 0.65269 0.0
H3053 H 0.60812 0.16165 0.68044 0.0
C3054 C 0.149 0.31424 0.94604 0.0
C3055 C 0.14278 0.29599 0.92786 0.0
C3056 C 0.09838 0.30412 0.93435 0.0
C3057 C 0.10457 0.32157 0.9533 0.0
N3058 N 0.13496 0.34911 0.97117 0.0
N3059 N 0.11269 0.27983 0.89899 0.0
C3060 C 0.12969 0.32866 0.95698 0.0
C3061 C 0.11778 0.29321 0.92003 0.0
N3062 N 0.17294 0.31656 0.95432 0.0
N3063 N 0.07432 0.29644 0.93125 0.0
H3064 H 0.12674 0.27185 0.88817 0.0
H3065 H 0.09505 0.27887 0.89097 0.0
H3066 H 0.0594 0.30397 0.94101 0.0
H3067 H 0.06929 0.28142 0.92005 0.0
H3068 H 0.17787 0.32709 0.96984 0.0
H3069 H 0.18781 0.30685 0.94665 0.0
H3070 H 0.15276 0.35663 0.97283 0.0
H3071 H 0.12101 0.36002 0.97919 0.0
C3072 C 0.31253 0.92232 0.1329 0.0
C3073 C 0.29039 0.93328 0.14259 0.0
C3074 C 0.29275 0.96552 0.11097 0.0
C3075 C 0.31693 0.95775 0.10405 0.0
N3076 N 0.35123 0.92943 0.11021 0.0
N3077 N 0.26686 0.9715 0.14656 0.0
C3078 C 0.32732 0.9362 0.11542 0.0
C3079 C 0.28263 0.95669 0.13327 0.0
N3080 N 0.31907 0.89875 0.13972 0.0
N3081 N 0.27919 0.98121 0.09624 0.0
H3082 H 0.26201 0.9673 0.16485 0.0
H3083 H 0.26198 0.98941 0.14082 0.0
H3084 H 0.28514 0.98669 0.07856 0.0
H3085 H 0.26083 0.98605 0.1004 0.0
H3086 H 0.33381 0.88911 0.13159 0.0
H3087 H 0.30845 0.88812 0.15201 0.0
H3088 H 0.36053 0.91531 0.11972 0.0
H3089 H 0.3623 0.93919 0.09758 0.0
C3090 C 0.30566 0.07967 0.37298 0.0
C3091 C 0.29184 0.06532 0.35559 0.0
C3092 C 0.31591 0.02869 0.36732 0.0
C3093 C 0.32483 0.04095 0.38887 0.0
N3094 N 0.33241 0.0804 0.40946 0.0
N3095 N 0.28143 0.02461 0.33922 0.0
C3096 C 0.32119 0.06725 0.39085 0.0
C3097 C 0.2963 0.03941 0.35357 0.0
N3098 N 0.30404 0.10505 0.37227 0.0
N3099 N 0.3266 0.00693 0.35967 0.0
H3100 H 0.26654 0.03136 0.32878 0.0
H3101 H 0.28264 0.00523 0.33952 0.0
H3102 H 0.34238 0.99965 0.36841 0.0
H3103 H 0.32178 0.99813 0.34304 0.0
H3104 H 0.31541 0.11685 0.38262 0.0
H3105 H 0.29224 0.11442 0.35999 0.0
H3106 H 0.32726 0.09842 0.41441 0.0
H3107 H 0.34755 0.07365 0.41947 0.0
C3108 C 0.19696 0.0633 0.60058 0.0
C3109 C 0.18066 0.04313 0.60628 0.0
C3110 C 0.19038 0.04778 0.65064 0.0
C3111 C 0.20588 0.06851 0.64503 0.0
N3112 N 0.21881 0.09984 0.61579 0.0
N3113 N 0.15702 0.02057 0.63698 0.0
C3114 C 0.20737 0.07757 0.62033 0.0
C3115 C 0.17577 0.03687 0.63144 0.0
N3116 N 0.20412 0.06772 0.57654 0.0
N3117 N 0.19085 0.03738 0.67385 0.0
H3118 H 0.14577 0.01255 0.62331 0.0
H3119 H 0.15104 0.017 0.65509 0.0
H3120 H 0.20156 0.04447 0.68836 0.0
H3121 H 0.18227 0.02051 0.67815 0.0
H3122 H 0.21808 0.08033 0.57179 0.0
H3123 H 0.19793 0.05731 0.5614 0.0
H3124 H 0.21835 0.10868 0.59852 0.0
H3125 H 0.22659 0.11064 0.62996 0.0
C3126 C 0.17253 0.95779 0.87083 0.0
C3127 C 0.18139 0.95462 0.89544 0.0
C3128 C 0.21024 0.92238 0.88073 0.0
C3129 C 0.20495 0.9292 0.85579 0.0
N3130 N 0.18161 0.95477 0.82687 0.0
N3131 N 0.21 0.93484 0.92402 0.0
C3132 C 0.18586 0.9469 0.85069 0.0
C3133 C 0.20029 0.93681 0.90058 0.0
N3134 N 0.15133 0.97126 0.86678 0.0
N3135 N 0.22479 0.90203 0.88536 0.0
H3136 H 0.20337 0.94499 0.93915 0.0
H3137 H 0.22585 0.92446 0.92814 0.0
H3138 H 0.232 0.89095 0.8711 0.0
H3139 H 0.22752 0.89471 0.90311 0.0
H3140 H 0.14249 0.9723 0.84955 0.0
H3141 H 0.1412 0.97933 0.88129 0.0
H3142 H 0.17031 0.96991 0.82251 0.0
H3143 H 0.19063 0.94737 0.81144 0.0
C3144 C 0.6527 0.18944 0.04521 0.0
C3145 C 0.64576 0.20265 0.06705 0.0
C3146 C 0.60552 0.18079 0.06752 0.0
C3147 C 0.6111 0.17091 0.04358 0.0
N3148 N 0.64357 0.1553 0.01714 0.0
N3149 N 0.61652 0.21037 0.10011 0.0
C3150 C 0.63596 0.17184 0.0349 0.0
C3151 C 0.62252 0.19792 0.07874 0.0
N3152 N 0.67442 0.1951 0.03316 0.0
N3153 N 0.58506 0.17252 0.08015 0.0
H3154 H 0.62907 0.22205 0.10928 0.0
H3155 H 0.59889 0.21015 0.10815 0.0
H3156 H 0.57454 0.15741 0.0741 0.0
H3157 H 0.58052 0.17797 0.09818 0.0
H3158 H 0.67899 0.18822 0.01561 0.0
H3159 H 0.68698 0.20838 0.03965 0.0
H3160 H 0.66199 0.15352 0.01134 0.0
H3161 H 0.63178 0.14134 0.01046 0.0
C3162 C 0.03971 0.34751 0.30397 0.0
C3163 C 0.06484 0.35233 0.2972 0.0
C3164 C 0.06512 0.38905 0.32437 0.0
C3165 C 0.03882 0.38681 0.32704 0.0
N3166 N 0.00528 0.35753 0.33142 0.0
N3167 N 0.10215 0.37674 0.30135 0.0
C3168 C 0.02738 0.36396 0.32056 0.0
C3169 C 0.07789 0.37264 0.30784 0.0
N3170 N 0.02716 0.32804 0.29339 0.0
N3171 N 0.07807 0.40534 0.33898 0.0
H3172 H 0.11219 0.36443 0.29014 0.0
H3173 H 0.11188 0.39289 0.30589 0.0
H3174 H 0.06998 0.41448 0.35404 0.0
H3175 H 0.0974 0.40684 0.33888 0.0
H3176 H 0.00803 0.32542 0.29513 0.0
H3177 H 0.03561 0.3153 0.28143 0.0
H3178 H 0.99681 0.34025 0.32914 0.0
H3179 H 0.99712 0.36845 0.34529 0.0
C3180 C 0.86714 0.81922 0.52746 0.0
C3181 C 0.89002 0.82471 0.53941 0.0
C3182 C 0.87474 0.80465 0.57766 0.0
C3183 C 0.85411 0.79533 0.56411 0.0
N3184 N 0.83018 0.79348 0.52606 0.0
N3185 N 0.90868 0.8344 0.57924 0.0
C3186 C 0.84995 0.80287 0.5391 0.0
C3187 C 0.89195 0.82095 0.56561 0.0
N3188 N 0.86133 0.83095 0.50564 0.0
N3189 N 0.87832 0.79721 0.60173 0.0
H3190 H 0.9185 0.8494 0.57187 0.0
H3191 H 0.90998 0.83353 0.59855 0.0
H3192 H 0.86555 0.78606 0.61126 0.0
H3193 H 0.89452 0.80077 0.61176 0.0
H3194 H 0.8441 0.82946 0.49687 0.0
H3195 H 0.87272 0.84477 0.49805 0.0
H3196 H 0.82793 0.79576 0.50693 0.0
H3197 H 0.81675 0.78192 0.53401 0.0
C3198 C 0.0758 0.61781 0.20956 0.0
C3199 C 0.06895 0.64302 0.20606 0.0
C3200 C 0.04125 0.63049 0.17186 0.0
C3201 C 0.04449 0.60528 0.17874 0.0
N3202 N 0.06322 0.57476 0.20617 0.0
N3203 N 0.04338 0.67354 0.18487 0.0
C3204 C 0.06167 0.59878 0.19784 0.0
C3205 C 0.05156 0.64954 0.18713 0.0
N3206 N 0.09583 0.61213 0.22418 0.0
N3207 N 0.02821 0.63615 0.15076 0.0
H3208 H 0.05 0.68811 0.19577 0.0
H3209 H 0.02858 0.67871 0.17346 0.0
H3210 H 0.0205 0.62245 0.13932 0.0
H3211 H 0.02718 0.65406 0.14338 0.0
H3212 H 0.10317 0.59423 0.22565 0.0
H3213 H 0.10667 0.6258 0.23277 0.0
H3214 H 0.0731 0.56966 0.22206 0.0
H3215 H 0.05306 0.56009 0.19855 0.0
C3216 C 0.47133 0.38475 0.70871 0.0
C3217 C 0.46202 0.39508 0.6861 0.0
C3218 C 0.42407 0.36979 0.69128 0.0
C3219 C 0.43512 0.3574 0.71192 0.0
N3220 N 0.47353 0.34802 0.73394 0.0
N3221 N 0.43134 0.39308 0.65323 0.0
C3222 C 0.46 0.3633 0.71868 0.0
C3223 C 0.43884 0.38639 0.67658 0.0
N3224 N 0.49025 0.39583 0.72171 0.0
N3225 N 0.39939 0.36645 0.68615 0.0
H3226 H 0.4421 0.4042 0.6415 0.0
H3227 H 0.41575 0.38544 0.64456 0.0
H3228 H 0.38787 0.35508 0.69688 0.0
H3229 H 0.3899 0.37683 0.67279 0.0
H3230 H 0.49547 0.39 0.73949 0.0
H3231 H 0.49878 0.41242 0.71662 0.0
H3232 H 0.49255 0.35053 0.73701 0.0
H3233 H 0.4669 0.33128 0.74109 0.0
C3234 C 0.43972 0.59723 0.79759 0.0
C3235 C 0.45327 0.60397 0.81933 0.0
C3236 C 0.4347 0.64566 0.81831 0.0
C3237 C 0.42478 0.64029 0.79425 0.0
N3238 N 0.40926 0.60912 0.76624 0.0
N3239 N 0.46393 0.63394 0.85082 0.0
C3240 C 0.42467 0.61539 0.78553 0.0
C3241 C 0.45059 0.62792 0.82997 0.0
N3242 N 0.44246 0.57393 0.78764 0.0
N3243 N 0.42809 0.66691 0.83067 0.0
H3244 H 0.47456 0.62096 0.86061 0.0
H3245 H 0.46569 0.65201 0.8576 0.0
H3246 H 0.41458 0.67923 0.82444 0.0
H3247 H 0.43324 0.6707 0.84896 0.0
H3248 H 0.4359 0.56877 0.77016 0.0
H3249 H 0.45251 0.55978 0.79633 0.0
H3250 H 0.40653 0.59103 0.75989 0.0
H3251 H 0.39709 0.62196 0.75816 0.0
C3252 C 0.89511 0.18383 0.92962 0.0
C3253 C 0.89102 0.1749 0.9543 0.0
C3254 C 0.84907 0.19285 0.95425 0.0
C3255 C 0.85432 0.20463 0.93119 0.0
N3256 N 0.88126 0.21116 0.89606 0.0
N3257 N 0.86055 0.16089 0.98393 0.0
C3258 C 0.87693 0.19978 0.91843 0.0
C3259 C 0.86677 0.17626 0.96461 0.0
N3260 N 0.91542 0.17606 0.91642 0.0
N3261 N 0.82785 0.19872 0.96706 0.0
H3262 H 0.8729 0.14753 0.99082 0.0
H3263 H 0.84258 0.1593 0.99104 0.0
H3264 H 0.81438 0.21089 0.9602 0.0
H3265 H 0.82449 0.19312 0.98532 0.0
H3266 H 0.91881 0.18077 0.89795 0.0
H3267 H 0.92737 0.16215 0.92258 0.0
H3268 H 0.89831 0.21096 0.88687 0.0
H3269 H 0.86788 0.22204 0.8871 0.0
C3270 C 0.63329 0.82317 0.46521 0.0
C3271 C 0.60823 0.8212 0.45708 0.0
C3272 C 0.62258 0.79776 0.42038 0.0
C3273 C 0.6464 0.79552 0.43128 0.0
N3274 N 0.67431 0.80451 0.46533 0.0
N3275 N 0.57863 0.80352 0.42771 0.0
C3276 C 0.65187 0.8081 0.45388 0.0
C3277 C 0.60272 0.80811 0.43457 0.0
N3278 N 0.63935 0.83963 0.48364 0.0
N3279 N 0.61892 0.78964 0.39656 0.0
H3280 H 0.56319 0.80915 0.43795 0.0
H3281 H 0.57387 0.79185 0.41297 0.0
H3282 H 0.63324 0.78184 0.38596 0.0
H3283 H 0.60261 0.79299 0.38661 0.0
H3284 H 0.65764 0.8434 0.48893 0.0
H3285 H 0.62625 0.85147 0.49178 0.0
H3286 H 0.6782 0.8107 0.4833 0.0
H3287 H 0.68845 0.79375 0.45756 0.0
C3288 C 0.8008 0.43817 0.59995 0.0
C3289 C 0.81837 0.45708 0.60604 0.0
C3290 C 0.81039 0.4504 0.65046 0.0
C3291 C 0.79362 0.4308 0.64435 0.0
N3292 N 0.7774 0.40215 0.61402 0.0
N3293 N 0.84396 0.47739 0.63671 0.0
C3294 C 0.79038 0.4234 0.61929 0.0
C3295 C 0.82449 0.46194 0.63122 0.0
N3296 N 0.79268 0.4354 0.57596 0.0
N3297 N 0.81178 0.45909 0.67437 0.0
H3298 H 0.85466 0.48604 0.62297 0.0
H3299 H 0.85096 0.47976 0.65464 0.0
H3300 H 0.80192 0.45129 0.68915 0.0
H3301 H 0.82124 0.47529 0.67926 0.0
H3302 H 0.77785 0.42392 0.57103 0.0
H3303 H 0.7991 0.44618 0.56116 0.0
H3304 H 0.7765 0.39436 0.59628 0.0
H3305 H 0.76959 0.39098 0.62789 0.0
C3306 C 0.82841 0.53969 0.86708 0.0
C3307 C 0.82005 0.54149 0.89201 0.0
C3308 C 0.79101 0.57452 0.87976 0.0
C3309 C 0.79582 0.56914 0.85443 0.0
N3310 N 0.81812 0.54496 0.82357 0.0
N3311 N 0.79109 0.55895 0.92194 0.0
C3312 C 0.81462 0.55164 0.84788 0.0
C3313 C 0.80104 0.5588 0.89849 0.0
N3314 N 0.84951 0.5265 0.86182 0.0
N3315 N 0.77659 0.59459 0.88584 0.0
H3316 H 0.79713 0.54737 0.93627 0.0
H3317 H 0.77524 0.56909 0.92666 0.0
H3318 H 0.76917 0.60649 0.87237 0.0
H3319 H 0.77422 0.60085 0.90405 0.0
H3320 H 0.85792 0.52642 0.84434 0.0
H3321 H 0.85996 0.51765 0.87562 0.0
H3322 H 0.8293 0.53005 0.81817 0.0
H3323 H 0.80853 0.55298 0.80876 0.0
C3324 C 0.70064 0.5588 0.10266 0.0
C3325 C 0.68075 0.54243 0.10873 0.0
C3326 C 0.68652 0.55167 0.15301 0.0
C3327 C 0.70574 0.56892 0.14678 0.0
N3328 N 0.72647 0.5935 0.11554 0.0
N3329 N 0.65087 0.52779 0.13869 0.0
C3330 C 0.7112 0.57402 0.1215 0.0
C3331 C 0.67237 0.54043 0.13362 0.0
N3332 N 0.71062 0.55863 0.07927 0.0
N3333 N 0.68297 0.54449 0.17719 0.0
H3334 H 0.64026 0.51928 0.1248 0.0
H3335 H 0.64241 0.5278 0.15615 0.0
H3336 H 0.69325 0.55145 0.19208 0.0
H3337 H 0.67123 0.52992 0.1823 0.0
H3338 H 0.72696 0.56798 0.07455 0.0
H3339 H 0.70386 0.54726 0.06513 0.0
H3340 H 0.72936 0.59954 0.09733 0.0
H3341 H 0.7342 0.6052 0.12899 0.0
C3342 C 0.70925 0.423 0.38069 0.0
C3343 C 0.70507 0.42939 0.35541 0.0
C3344 C 0.6734 0.46003 0.36792 0.0
C3345 C 0.67928 0.45528 0.39321 0.0
N3346 N 0.69848 0.42871 0.42418 0.0
N3347 N 0.68023 0.45053 0.32426 0.0
C3348 C 0.69566 0.43545 0.39977 0.0
C3349 C 0.68598 0.44661 0.34879 0.0
N3350 N 0.72696 0.40556 0.38633 0.0
N3351 N 0.65628 0.47808 0.36235 0.0
H3352 H 0.68995 0.44264 0.30949 0.0
H3353 H 0.66502 0.46079 0.31813 0.0
H3354 H 0.64528 0.4866 0.37593 0.0
H3355 H 0.65305 0.48512 0.34461 0.0
H3356 H 0.73366 0.40213 0.40417 0.0
H3357 H 0.73569 0.39472 0.37277 0.0
H3358 H 0.70798 0.4129 0.43005 0.0
H3359 H 0.69011 0.43797 0.43898 0.0
C3360 C 0.99359 0.01606 0.22947 0.0
C3361 C 0.9942 0.98986 0.22658 0.0
C3362 C 0.99638 0.98477 0.27207 0.0
C3363 C 0.9946 0.01089 0.27502 0.0
N3364 N 0.98343 0.05049 0.25668 0.0
N3365 N 0.98772 0.94948 0.24552 0.0
C3366 C 0.99065 0.02626 0.25373 0.0
C3367 C 0.99293 0.97426 0.24803 0.0
N3368 N 0.99707 0.0313 0.20939 0.0
N3369 N 0.0027 0.97002 0.2918 0.0
H3370 H 0.98393 0.9412 0.22836 0.0
H3371 H 0.98434 0.93781 0.26066 0.0
H3372 H 0.00622 0.97708 0.30952 0.0
H3373 H 0.00678 0.95114 0.28999 0.0
H3374 H 0.99951 0.05048 0.211 0.0
H3375 H 0.99975 0.02464 0.19135 0.0
H3376 H 0.97812 0.06182 0.24185 0.0
H3377 H 0.98003 0.0584 0.27409 0.0
C3378 C 0.25236 0.72723 0.48597 0.0
C3379 C 0.25805 0.75052 0.47455 0.0
C3380 C 0.24965 0.77153 0.51426 0.0
C3381 C 0.24108 0.74895 0.52477 0.0
N3382 N 0.22968 0.70586 0.51869 0.0
N3383 N 0.25388 0.79511 0.47632 0.0
C3384 C 0.24118 0.72689 0.51012 0.0
C3385 C 0.25443 0.77277 0.48834 0.0
N3386 N 0.2584 0.70539 0.47443 0.0
N3387 N 0.25348 0.79181 0.52911 0.0
H3388 H 0.25372 0.7961 0.45696 0.0
H3389 H 0.24975 0.81187 0.48521 0.0
H3390 H 0.25078 0.79128 0.54835 0.0
H3391 H 0.26185 0.8081 0.52266 0.0
H3392 H 0.25727 0.68815 0.48327 0.0
H3393 H 0.26639 0.70446 0.45682 0.0
H3394 H 0.22661 0.69025 0.50759 0.0
H3395 H 0.22138 0.7047 0.5362 0.0
C3396 C 0.52127 0.00622 0.73633 0.0
C3397 C 0.49826 0.00907 0.72347 0.0
C3398 C 0.47599 0.99888 0.76193 0.0
C3399 C 0.49867 0.99242 0.77372 0.0
N3400 N 0.54315 0.98593 0.77004 0.0
N3401 N 0.45401 0.00172 0.72285 0.0
C3402 C 0.52144 0.995 0.76039 0.0
C3403 C 0.47569 0.00353 0.73596 0.0
N3404 N 0.54289 0.01521 0.72633 0.0
N3405 N 0.45481 0.0015 0.77571 0.0
H3406 H 0.4534 0.00363 0.70353 0.0
H3407 H 0.43744 0.99543 0.7308 0.0
H3408 H 0.4547 0.99944 0.79503 0.0
H3409 H 0.43831 0.00856 0.7683 0.0
H3410 H 0.55951 0.01613 0.73633 0.0
H3411 H 0.54392 0.02386 0.70902 0.0
H3412 H 0.55951 0.98457 0.75969 0.0
H3413 H 0.54446 0.97797 0.78764 0.0
C3414 C 0.24032 0.22559 0.99071 0.0
C3415 C 0.23664 0.24793 0.97715 0.0
C3416 C 0.25236 0.27148 0.0133 0.0
C3417 C 0.25277 0.24924 0.02773 0.0
N3418 N 0.24086 0.20613 0.03127 0.0
N3419 N 0.23499 0.293 0.97774 0.0
C3420 C 0.24473 0.22663 0.01674 0.0
C3421 C 0.24147 0.27117 0.98904 0.0
N3422 N 0.24105 0.20332 0.97852 0.0
N3423 N 0.26352 0.29264 0.02198 0.0
H3424 H 0.22723 0.29393 0.96002 0.0
H3425 H 0.23543 0.31012 0.98687 0.0
H3426 H 0.27183 0.29392 0.03943 0.0
H3427 H 0.26639 0.30833 0.01092 0.0
H3428 H 0.24647 0.18683 0.98721 0.0
H3429 H 0.23935 0.20197 0.95922 0.0
H3430 H 0.23309 0.18971 0.02442 0.0
H3431 H 0.24295 0.20657 0.0506 0.0
C3432 C 0.24052 0.9777 0.99765 0.0
C3433 C 0.22787 1.00067 0.99353 0.0
C3434 C 0.26678 0.02303 0.00201 0.0
C3435 C 0.27862 1.00062 0.00913 0.0
N3436 N 0.27463 0.95679 0.01861 0.0
N3437 N 0.22773 0.04507 0.9999 0.0
C3438 C 0.26493 0.97793 0.00832 0.0
C3439 C 0.24069 0.0233 0.99814 0.0
N3440 N 0.22994 0.95571 0.99051 0.0
N3441 N 0.28057 0.04402 0.99815 0.0
H3442 H 0.20832 0.04551 0.99932 0.0
H3443 H 0.23601 0.06183 0.00518 0.0
H3444 H 0.29993 0.04418 0.99984 0.0
H3445 H 0.27303 0.06021 0.99053 0.0
H3446 H 0.23965 0.9389 0.99045 0.0
H3447 H 0.21222 0.9544 0.98281 0.0
H3448 H 0.26429 0.94054 0.021 0.0
H3449 H 0.29226 0.95606 0.0267 0.0
C3450 C 0.2643 0.00721 0.26701 0.0
C3451 C 0.25212 0.02766 0.25582 0.0
C3452 C 0.2381 1.00002 0.22236 0.0
C3453 C 0.24674 0.97851 0.23606 0.0
N3454 N 0.2607 0.96353 0.27622 0.0
N3455 N 0.22367 0.0428 0.22482 0.0
C3456 C 0.2579 0.98263 0.25972 0.0
C3457 C 0.23786 0.02384 0.23412 0.0
N3458 N 0.2822 0.01123 0.28452 0.0
N3459 N 0.23128 0.99865 0.19787 0.0
H3460 H 0.22392 0.06075 0.23226 0.0
H3461 H 0.21036 0.04016 0.21093 0.0
H3462 H 0.23126 0.98269 0.18711 0.0
H3463 H 0.22796 0.01442 0.18706 0.0
H3464 H 0.29295 0.99687 0.29197 0.0
H3465 H 0.28808 0.02917 0.2892 0.0
H3466 H 0.2674 0.96616 0.29427 0.0
H3467 H 0.25276 0.94609 0.27328 0.0
C3468 C 0.23092 0.0086 0.48536 0.0
C3469 C 0.22768 0.00339 0.51107 0.0
C3470 C 0.27312 0.99916 0.51593 0.0
C3471 C 0.27635 0.00538 0.49056 0.0
N3472 N 0.25902 0.02301 0.45308 0.0
N3473 N 0.24655 0.00253 0.55207 0.0
C3474 C 0.25542 0.01239 0.47593 0.0
C3475 C 0.24905 0.00129 0.52676 0.0
N3476 N 0.21092 0.00857 0.46963 0.0
N3477 N 0.29273 0.99032 0.5295 0.0
H3478 H 0.22961 0.00615 0.56084 0.0
H3479 H 0.26172 0.00309 0.56417 0.0
H3480 H 0.3107 0.98881 0.52228 0.0
H3481 H 0.29068 0.9827 0.54723 0.0
H3482 H 0.21261 0.0098 0.45035 0.0
H3483 H 0.19278 0.00497 0.47552 0.0
H3484 H 0.24464 0.03073 0.44259 0.0
H3485 H 0.27673 0.02649 0.44582 0.0
C3486 C 0.22785 0.01318 0.74603 0.0
C3487 C 0.25093 0.02589 0.74274 0.0
C3488 C 0.27312 0.98703 0.75157 0.0
C3489 C 0.25048 0.97509 0.75793 0.0
N3490 N 0.20619 0.97882 0.76552 0.0
N3491 N 0.29519 0.02612 0.74999 0.0
C3492 C 0.22776 0.98867 0.75631 0.0
C3493 C 0.27347 0.01313 0.74778 0.0
N3494 N 0.206 0.02384 0.73854 0.0
N3495 N 0.29424 0.97329 0.74832 0.0
H3496 H 0.2957 0.04552 0.7492 0.0
H3497 H 0.31183 0.01792 0.75573 0.0
H3498 H 0.29423 0.9539 0.74948 0.0
H3499 H 0.31078 0.98089 0.74155 0.0
H3500 H 0.18931 0.014 0.73747 0.0
H3501 H 0.20465 0.04188 0.73168 0.0
H3502 H 0.18995 0.9892 0.76776 0.0
H3503 H 0.20488 0.9609 0.77272 0.0
C3504 C 0.00386 0.26253 0.97719 0.0
C3505 C 0.0084 0.27433 1.00053 0.0
C3506 C 0.99908 0.23506 0.02172 0.0
C3507 C 0.99142 0.22418 0.99897 0.0
N3508 N 0.9819 0.22971 0.95531 0.0
N3509 N 0.00267 0.27325 0.04501 0.0
C3510 C 0.99255 0.23846 0.9767 0.0
C3511 C 0.00378 0.26098 0.0228 0.0
N3512 N 0.01113 0.27362 0.95549 0.0
N3513 N 0.00262 0.22049 0.04224 0.0
H3514 H 0.00455 0.29254 0.0463 0.0
H3515 H 0.9968 0.26464 0.0614 0.0
H3516 H 1.00049 0.20119 0.04174 0.0
H3517 H 0.01042 0.2273 0.05867 0.0
H3518 H 0.01085 0.26448 0.93837 0.0
H3519 H 0.01933 0.29115 0.95471 0.0
H3520 H 0.97973 0.24061 0.9394 0.0
H3521 H 0.97331 0.21236 0.95404 0.0
C3522 C 0.52503 0.24704 0.98093 0.0
C3523 C 0.52067 0.22905 1.00021 0.0
C3524 C 0.49565 0.26081 0.0225 0.0
C3525 C 0.49589 0.27604 1.00087 0.0
N3526 N 0.50972 0.28312 0.95876 0.0
N3527 N 0.50626 0.22165 0.04228 0.0
C3528 C 0.51008 0.26885 0.97986 0.0
C3529 C 0.5072 0.2368 0.02185 0.0
N3530 N 0.54463 0.24495 0.96474 0.0
N3531 N 0.48486 0.26951 0.04388 0.0
H3532 H 0.51912 0.20747 0.04543 0.0
H3533 H 0.49318 0.22343 0.05647 0.0
H3534 H 0.47627 0.28681 0.04516 0.0
H3535 H 0.48579 0.26055 0.06103 0.0
H3536 H 0.54921 0.25868 0.95183 0.0
H3537 H 0.55919 0.23242 0.96647 0.0
H3538 H 0.51638 0.27679 0.94165 0.0
H3539 H 0.50147 0.30068 0.95789 0.0
C3540 C 0.98923 0.24642 0.27087 0.0
C3541 C 0.97592 0.24372 0.24807 0.0
C3542 C 0.01395 0.25403 0.22501 0.0
C3543 C 0.02656 0.25943 0.24751 0.0
N3544 N 0.02453 0.2647 0.29222 0.0
N3545 N 0.97418 0.25242 0.20414 0.0
C3546 C 0.01379 0.25666 0.27059 0.0
C3547 C 0.98791 0.24975 0.22535 0.0
N3548 N 0.97899 0.23842 0.29274 0.0
N3549 N 0.02703 0.25211 0.20331 0.0
H3550 H 0.95479 0.25114 0.20421 0.0
H3551 H 0.98171 0.25891 0.18746 0.0
H3552 H 0.04633 0.25419 0.20259 0.0
H3553 H 0.01906 0.24564 0.18683 0.0
H3554 H 0.98914 0.23677 0.30919 0.0
H3555 H 0.96081 0.23196 0.29427 0.0
H3556 H 0.01482 0.26614 0.30896 0.0
H3557 H 0.04256 0.27177 0.2932 0.0
C3558 C 0.00684 0.73646 0.47874 0.0
C3559 C 0.01051 0.72298 0.50115 0.0
C3560 C 0.9943 0.75922 0.52433 0.0
C3561 C 0.99421 0.77353 0.50203 0.0
N3562 N 0.0071 0.77693 0.45917 0.0
N3563 N 0.01137 0.72375 0.5463 0.0
C3564 C 0.0027 0.76248 0.47964 0.0
C3565 C 0.00525 0.73493 0.5243 0.0
N3566 N 0.00586 0.72414 0.45655 0.0
N3567 N 0.98292 0.76811 0.54527 0.0
H3568 H 0.01895 0.70598 0.54754 0.0
H3569 H 0.01067 0.733 0.56335 0.0
H3570 H 0.97465 0.78563 0.54623 0.0
H3571 H 0.97989 0.75723 0.56106 0.0
H3572 H 0.00115 0.73289 0.43987 0.0
H3573 H 0.00628 0.70476 0.45558 0.0
H3574 H 0.01519 0.76995 0.44295 0.0
H3575 H 0.00506 0.79626 0.45946 0.0
C3576 C 0.52639 0.75141 0.50104 0.0
C3577 C 0.51177 0.77277 0.49472 0.0
C3578 C 0.47747 0.7445 0.48381 0.0
C3579 C 0.4904 0.72434 0.49504 0.0
N3580 N 0.52614 0.70952 0.51767 0.0
N3581 N 0.47156 0.78912 0.48236 0.0
C3582 C 0.51459 0.72802 0.5046 0.0
C3583 C 0.48687 0.76921 0.48638 0.0
N3584 N 0.55177 0.75301 0.50223 0.0
N3585 N 0.45626 0.74 0.47051 0.0
H3586 H 0.47689 0.80749 0.48539 0.0
H3587 H 0.45265 0.78731 0.47844 0.0
H3588 H 0.44881 0.72218 0.46845 0.0
H3589 H 0.44757 0.75346 0.45956 0.0
H3590 H 0.56317 0.73758 0.50515 0.0
H3591 H 0.5616 0.76888 0.49686 0.0
H3592 H 0.54261 0.71239 0.52755 0.0
H3593 H 0.51824 0.69197 0.52032 0.0
C3594 C 0.01262 0.74482 0.22644 0.0
C3595 C 0.02301 0.73893 0.25021 0.0
C3596 C 0.98187 0.74476 0.26895 0.0
C3597 C 0.9724 0.75424 0.24637 0.0
N3598 N 0.98008 0.76662 0.2039 0.0
N3599 N 0.01828 0.74166 0.29476 0.0
C3600 C 0.98813 0.75519 0.22511 0.0
C3601 C 0.00781 0.74126 0.27166 0.0
N3602 N 0.02537 0.73962 0.20505 0.0
N3603 N 0.96596 0.73869 0.2878 0.0
H3604 H 0.0375 0.74093 0.29745 0.0
H3605 H 0.00803 0.74615 0.31064 0.0
H3606 H 0.94665 0.73968 0.28561 0.0
H3607 H 0.9719 0.73006 0.30415 0.0
H3608 H 0.0174 0.74114 0.18742 0.0
H3609 H 0.04307 0.73181 0.20473 0.0
H3610 H 0.99184 0.77084 0.18904 0.0
H3611 H 0.96195 0.77316 0.20181 0.0
C3612 C 0.51564 0.26163 0.73548 0.0
C3613 C 0.51992 0.23691 0.74381 0.0
C3614 C 0.47519 0.23255 0.7532 0.0
C3615 C 0.47101 0.2568 0.74403 0.0
N3616 N 0.48553 0.29048 0.71827 0.0
N3617 N 0.50169 0.19627 0.75137 0.0
C3618 C 0.49071 0.27005 0.73245 0.0
C3619 C 0.49903 0.22154 0.7499 0.0
N3620 N 0.53505 0.27765 0.73198 0.0
N3621 N 0.45665 0.22018 0.76544 0.0
H3622 H 0.51823 0.18718 0.74681 0.0
H3623 H 0.4867 0.18421 0.75396 0.0
H3624 H 0.43872 0.22743 0.76737 0.0
H3625 H 0.45963 0.20356 0.77502 0.0
H3626 H 0.53258 0.29651 0.7281 0.0
H3627 H 0.55343 0.27279 0.73558 0.0
H3628 H 0.49898 0.29974 0.70777 0.0
H3629 H 0.4673 0.29629 0.71484 0.0
C3630 C 0.49397 0.47736 0.74726 0.0
C3631 C 0.49935 0.49257 0.72631 0.0
C3632 C 0.4998 0.52887 0.75366 0.0
C3633 C 0.4998 0.51289 0.77498 0.0
N3634 N 0.50095 0.47097 0.79121 0.0
N3635 N 0.50959 0.53298 0.70977 0.0
C3636 C 0.49787 0.48683 0.7716 0.0
C3637 C 0.5028 0.51844 0.72951 0.0
N3638 N 0.48401 0.45424 0.74388 0.0
N3639 N 0.49581 0.55388 0.75625 0.0
H3640 H 0.5117 0.526 0.69177 0.0
H3641 H 0.51503 0.55151 0.71171 0.0
H3642 H 0.492 0.56231 0.77329 0.0
H3643 H 0.49337 0.5658 0.74114 0.0
H3644 H 0.47808 0.44303 0.75858 0.0
H3645 H 0.47863 0.44795 0.72632 0.0
H3646 H 0.50175 0.45169 0.78909 0.0
H3647 H 0.50547 0.47712 0.80905 0.0
C3648 C 0.7441 0.22613 0.01145 0.0
C3649 C 0.73959 0.24953 0.02319 0.0
C3650 C 0.74644 0.27037 0.98309 0.0
C3651 C 0.75449 0.24774 0.97227 0.0
N3652 N 0.76385 0.20402 0.9774 0.0
N3653 N 0.74375 0.29412 0.02105 0.0
C3654 C 0.754 0.22553 0.98673 0.0
C3655 C 0.74273 0.27171 0.00917 0.0
N3656 N 0.73812 0.20443 0.0233 0.0
N3657 N 0.74229 0.29066 0.96833 0.0
H3658 H 0.7443 0.2953 0.04039 0.0
H3659 H 0.7477 0.31082 0.01197 0.0
H3660 H 0.74423 0.28996 0.94899 0.0
H3661 H 0.73447 0.30712 0.97499 0.0
H3662 H 0.7381 0.18719 0.01439 0.0
H3663 H 0.73132 0.20362 0.04142 0.0
H3664 H 0.76715 0.18831 0.98829 0.0
H3665 H 0.77018 0.20228 0.95916 0.0
C3666 C 0.02014 0.47949 0.25632 0.0
C3667 C 0.00615 0.49079 0.27572 0.0
C3668 C 0.99745 0.52633 0.24865 0.0
C3669 C 0.00775 0.51334 0.22781 0.0
N3670 N 0.03973 0.48352 0.21595 0.0
N3671 N 0.97918 0.52369 0.28978 0.0
C3672 C 0.02226 0.49155 0.23265 0.0
C3673 C 0.99429 0.51391 0.27178 0.0
N3674 N 0.03083 0.4567 0.26031 0.0
N3675 N 0.99314 0.55138 0.2472 0.0
H3676 H 0.97696 0.51555 0.3073 0.0
H3677 H 0.96741 0.53878 0.2866 0.0
H3678 H 0.99911 0.56215 0.23217 0.0
H3679 H 0.98739 0.56209 0.26232 0.0
H3680 H 0.03801 0.44557 0.24617 0.0
H3681 H 0.03113 0.44807 0.27772 0.0
H3682 H 0.05226 0.46921 0.21959 0.0
H3683 H 0.04477 0.49312 0.19998 0.0
C3684 C 0.75231 0.72752 0.51134 0.0
C3685 C 0.75818 0.75014 0.52356 0.0
C3686 C 0.74651 0.77284 0.48541 0.0
C3687 C 0.74355 0.74978 0.47264 0.0
N3688 N 0.75169 0.70574 0.47203 0.0
N3689 N 0.76517 0.79457 0.52028 0.0
C3690 C 0.74897 0.72729 0.48521 0.0
C3691 C 0.75642 0.77295 0.51011 0.0
N3692 N 0.74901 0.70628 0.52489 0.0
N3693 N 0.73919 0.79459 0.47446 0.0
H3694 H 0.7723 0.7958 0.53826 0.0
H3695 H 0.76715 0.81097 0.51011 0.0
H3696 H 0.7329 0.79571 0.45616 0.0
H3697 H 0.73788 0.81136 0.48414 0.0
H3698 H 0.74275 0.68967 0.51703 0.0
H3699 H 0.7495 0.70631 0.54432 0.0
H3700 H 0.75764 0.68914 0.48015 0.0
H3701 H 0.75044 0.70525 0.45263 0.0
C3702 C 0.76822 0.48774 0.48503 0.0
C3703 C 0.77205 0.49313 0.51061 0.0
C3704 C 0.72696 0.49984 0.5159 0.0
C3705 C 0.72321 0.4938 0.49059 0.0
N3706 N 0.73907 0.47448 0.45327 0.0
N3707 N 0.75371 0.4952 0.55179 0.0
C3708 C 0.74349 0.4852 0.47592 0.0
C3709 C 0.75097 0.49638 0.52651 0.0
N3710 N 0.78791 0.48669 0.46903 0.0
N3711 N 0.70799 0.50982 0.5296 0.0
H3712 H 0.77059 0.49077 0.56032 0.0
H3713 H 0.7387 0.49556 0.56408 0.0
H3714 H 0.69009 0.51234 0.52249 0.0
H3715 H 0.71059 0.51729 0.54732 0.0
H3716 H 0.78593 0.48521 0.44978 0.0
H3717 H 0.80612 0.48983 0.47469 0.0
H3718 H 0.75283 0.46556 0.4429 0.0
H3719 H 0.72116 0.47225 0.44607 0.0
C3720 C 0.75718 0.50381 0.7745 0.0
C3721 C 0.75316 0.52497 0.759 0.0
C3722 C 0.75351 0.49759 0.72261 0.0
C3723 C 0.75251 0.47632 0.7385 0.0
N3724 N 0.75004 0.45967 0.78012 0.0
N3725 N 0.74464 0.5416 0.71818 0.0
C3726 C 0.75367 0.47951 0.76463 0.0
C3727 C 0.75075 0.52182 0.73296 0.0
N3728 N 0.76497 0.5069 0.79853 0.0
N3729 N 0.75785 0.49472 0.69769 0.0
H3730 H 0.74205 0.55953 0.72514 0.0
H3731 H 0.74 0.53975 0.69943 0.0
H3732 H 0.76107 0.47741 0.68948 0.0
H3733 H 0.76102 0.50965 0.68571 0.0
H3734 H 0.77035 0.49211 0.80988 0.0
H3735 H 0.76875 0.52435 0.80619 0.0
H3736 H 0.74819 0.46147 0.79935 0.0
H3737 H 0.74639 0.44179 0.77356 0.0
C3738 C 0.76121 0.52396 0.99732 0.0
C3739 C 0.76838 0.50343 0.98197 0.0
C3740 C 0.72778 0.48364 0.99016 0.0
C3741 C 0.72077 0.50371 0.00561 0.0
N3742 N 0.7275 0.5464 0.01757 0.0
N3743 N 0.75004 0.47339 0.953 0.0
C3744 C 0.7365 0.52493 0.00734 0.0
C3745 C 0.74937 0.48588 0.97518 0.0
N3746 N 0.77733 0.54318 0.00147 0.0
N3747 N 0.71338 0.4627 0.98885 0.0
H3748 H 0.76101 0.47892 0.93803 0.0
H3749 H 0.73606 0.46114 0.94737 0.0
H3750 H 0.69613 0.46106 0.99765 0.0
H3751 H 0.71944 0.44645 0.98009 0.0
H3752 H 0.77506 0.55598 0.01586 0.0
H3753 H 0.79267 0.5468 0.9902 0.0
H3754 H 0.73713 0.56322 0.01759 0.0
H3755 H 0.70917 0.54818 0.0236 0.0
C3756 C 0.73804 0.49497 0.2752 0.0
C3757 C 0.74302 0.47438 0.25925 0.0
C3758 C 0.74474 0.50288 0.22386 0.0
C3759 C 0.74498 0.52364 0.24048 0.0
N3760 N 0.74415 0.539 0.28272 0.0
N3761 N 0.75361 0.45897 0.21849 0.0
C3762 C 0.74194 0.51963 0.26637 0.0
C3763 C 0.74688 0.47833 0.23354 0.0
N3764 N 0.72925 0.49092 0.29874 0.0
N3765 N 0.74138 0.50649 0.19888 0.0
H3766 H 0.75516 0.44071 0.22491 0.0
H3767 H 0.7595 0.46141 0.20016 0.0
H3768 H 0.7379 0.52396 0.19113 0.0
H3769 H 0.73902 0.4919 0.18631 0.0
H3770 H 0.72298 0.50517 0.31032 0.0
H3771 H 0.72575 0.47312 0.30568 0.0
H3772 H 0.74465 0.53661 0.30197 0.0
H3773 H 0.74782 0.55721 0.27713 0.0
C3774 C 0.48046 0.76232 0.7606 0.0
C3775 C 0.47702 0.73643 0.75648 0.0
C3776 C 0.52238 0.73141 0.75139 0.0
C3777 C 0.52578 0.75692 0.75678 0.0
N3778 N 0.5088 0.79476 0.77404 0.0
N3779 N 0.49606 0.69546 0.75726 0.0
C3780 C 0.50503 0.77172 0.76391 0.0
C3781 C 0.49841 0.72068 0.75468 0.0
N3782 N 0.4607 0.77827 0.75967 0.0
N3783 N 0.54168 0.71757 0.74229 0.0
H3784 H 0.47931 0.6869 0.76212 0.0
H3785 H 0.5113 0.68346 0.7578 0.0
H3786 H 0.55957 0.72474 0.73986 0.0
H3787 H 0.53933 0.69961 0.7353 0.0
H3788 H 0.46263 0.79756 0.76044 0.0
H3789 H 0.44271 0.77252 0.75536 0.0
H3790 H 0.49453 0.80526 0.78196 0.0
H3791 H 0.52653 0.80217 0.77686 0.0
loop_
_geom_bond_atom_site_label_1
_geom_bond_atom_site_label_2
_geom_bond_distance
_geom_bond_site_symmetry_2
_ccdc_geom_bond_type
Co0 O3 1.970 . S
Co0 N17 1.989 . S
Co0 O25 1.967 1_455 S
Co0 O32 1.920 . S
Co1 O4 1.966 . S
Co1 N10 2.022 . S
Co1 N18 1.993 1_655 S
Co1 O26 1.941 . S
C2 O3 1.258 1_655 S
C2 O4 1.263 . S
O3 Co0 1.970 . S
O3 C2 1.258 1_455 S
O4 Co1 1.966 . S
O4 C2 1.263 . S
C5 O6 1.235 . S
C5 O32 1.289 . S
O6 C5 1.235 . S
C7 C9 1.400 . S
C7 N10 1.351 1_565 S
C7 C12 1.501 . S
C8 C9 1.387 1_545 S
C8 N11 1.341 . S
C9 C7 1.400 . S
C9 C8 1.387 1_565 S
N10 Co1 2.022 . S
N10 C7 1.351 1_545 S
N10 N11 1.365 . S
N11 C8 1.341 . S
N11 N10 1.365 . S
N11 H31 0.862 . S
C12 C7 1.501 . S
C12 H13 0.961 . S
C12 H14 0.961 . S
C12 H15 0.960 . S
H13 C12 0.961 . S
H14 C12 0.961 . S
H15 C12 0.960 . S
C16 N17 1.342 . S
C16 C20 1.401 . S
C16 C21 1.499 . S
N17 Co0 1.989 . S
N17 C16 1.342 . S
N17 N18 1.388 . S
N18 Co1 1.993 1_455 S
N18 N17 1.388 . S
N18 C19 1.346 . S
C19 N18 1.346 . S
C19 C20 1.396 . S
C19 C29 1.510 1_455 S
C20 C16 1.401 . S
C20 C19 1.396 . S
C21 C16 1.499 . S
C21 H22 0.959 . S
C21 H23 0.960 . S
C21 H24 0.961 . S
H22 C21 0.959 . S
H23 C21 0.960 . S
H24 C21 0.961 . S
O25 Co0 1.967 1_655 S
O25 C33 1.258 . S
O26 Co1 1.941 . S
O26 C33 1.266 . S
H27 C29 0.959 . S
H28 C29 0.961 1_455 S
C29 C19 1.510 1_655 S
C29 H27 0.959 . S
C29 H28 0.961 1_655 S
C29 H30 0.960 . S
H30 C29 0.960 . S
H31 N11 0.862 . S
O32 Co0 1.920 . S
O32 C5 1.289 . S
C33 O25 1.258 . S
C33 O26 1.266 . S
Co34 O37 1.970 . S
Co34 N51 1.989 . S
Co34 O59 1.967 . S
Co34 O66 1.920 . S
Co35 O38 1.966 . S
Co35 N44 2.022 . S
Co35 N52 1.993 . S
Co35 O60 1.941 . S
C36 O37 1.258 . S
C36 O38 1.263 . S
O37 Co34 1.970 . S
O37 C36 1.258 . S
O38 Co35 1.966 . S
O38 C36 1.263 . S
C39 O40 1.235 . S
C39 O66 1.289 . S
O40 C39 1.235 . S
C41 C43 1.400 . S
C41 N44 1.351 . S
C41 C46 1.501 . S
C42 C43 1.387 . S
C42 N45 1.341 . S
C43 C41 1.400 . S
C43 C42 1.387 . S
N44 Co35 2.022 . S
N44 C41 1.351 . S
N44 N45 1.365 . S
N45 C42 1.341 . S
N45 N44 1.365 . S
N45 H65 0.862 . S
C46 C41 1.501 . S
C46 H47 0.961 . S
C46 H48 0.961 . S
C46 H49 0.960 . S
H47 C46 0.961 . S
H48 C46 0.961 . S
H49 C46 0.960 . S
C50 N51 1.342 . S
C50 C54 1.401 . S
C50 C55 1.499 . S
N51 Co34 1.989 . S
N51 C50 1.342 . S
N51 N52 1.388 . S
N52 Co35 1.993 . S
N52 N51 1.388 . S
N52 C53 1.346 . S
C53 N52 1.346 . S
C53 C54 1.396 . S
C53 C63 1.510 . S
C54 C50 1.401 . S
C54 C53 1.396 . S
C55 C50 1.499 . S
C55 H56 0.959 . S
C55 H57 0.960 . S
C55 H58 0.961 . S
H56 C55 0.959 . S
H57 C55 0.960 . S
H58 C55 0.961 . S
O59 Co34 1.967 . S
O59 C67 1.258 . S
O60 Co35 1.941 . S
O60 C67 1.266 . S
H61 C63 0.959 . S
H62 C63 0.961 . S
C63 C53 1.510 . S
C63 H61 0.959 . S
C63 H62 0.961 . S
C63 H64 0.960 . S
H64 C63 0.960 . S
H65 N45 0.862 . S
O66 Co34 1.920 . S
O66 C39 1.289 . S
C67 O59 1.258 . S
C67 O60 1.266 . S
Co68 O71 1.970 . S
Co68 N85 1.989 . S
Co68 O93 1.967 . S
Co68 O100 1.920 . S
Co69 O72 1.966 . S
Co69 N78 2.022 . S
Co69 N86 1.993 . S
Co69 O94 1.941 . S
C70 O71 1.258 . S
C70 O72 1.263 . S
O71 Co68 1.970 . S
O71 C70 1.258 . S
O72 Co69 1.966 . S
O72 C70 1.263 . S
C73 O74 1.235 . S
C73 O100 1.289 . S
O74 C73 1.235 . S
C75 C77 1.400 . S
C75 N78 1.351 1_545 S
C75 C80 1.501 . S
C76 C77 1.387 1_565 S
C76 N79 1.341 . S
C77 C75 1.400 . S
C77 C76 1.387 1_545 S
N78 Co69 2.022 . S
N78 C75 1.351 1_565 S
N78 N79 1.365 . S
N79 C76 1.341 . S
N79 N78 1.365 . S
N79 H99 0.862 . S
C80 C75 1.501 . S
C80 H81 0.961 . S
C80 H82 0.961 . S
C80 H83 0.960 . S
H81 C80 0.961 . S
H82 C80 0.961 . S
H83 C80 0.960 . S
C84 N85 1.342 . S
C84 C88 1.401 . S
C84 C89 1.499 . S
N85 Co68 1.989 . S
N85 C84 1.342 . S
N85 N86 1.388 . S
N86 Co69 1.993 . S
N86 N85 1.388 . S
N86 C87 1.346 . S
C87 N86 1.346 . S
C87 C88 1.396 . S
C87 C97 1.510 . S
C88 C84 1.401 . S
C88 C87 1.396 . S
C89 C84 1.499 . S
C89 H90 0.959 . S
C89 H91 0.960 . S
C89 H92 0.961 . S
H90 C89 0.959 . S
H91 C89 0.960 . S
H92 C89 0.961 . S
O93 Co68 1.967 . S
O93 C101 1.258 . S
O94 Co69 1.941 . S
O94 C101 1.266 . S
H95 C97 0.959 . S
H96 C97 0.961 . S
C97 C87 1.510 . S
C97 H95 0.959 . S
C97 H96 0.961 . S
C97 H98 0.960 . S
H98 C97 0.960 . S
H99 N79 0.862 . S
O100 Co68 1.920 . S
O100 C73 1.289 . S
C101 O93 1.258 . S
C101 O94 1.266 . S
Co102 O105 1.970 . S
Co102 N119 1.989 . S
Co102 O127 1.967 . S
Co102 O134 1.920 . S
Co103 O106 1.966 . S
Co103 N112 2.022 . S
Co103 N120 1.993 . S
Co103 O128 1.941 . S
C104 O105 1.258 . S
C104 O106 1.263 . S
O105 Co102 1.970 . S
O105 C104 1.258 . S
O106 Co103 1.966 . S
O106 C104 1.263 . S
C107 O108 1.235 . S
C107 O134 1.289 . S
O108 C107 1.235 . S
C109 C111 1.400 . S
C109 N112 1.351 . S
C109 C114 1.501 . S
C110 C111 1.387 . S
C110 N113 1.341 . S
C111 C109 1.400 . S
C111 C110 1.387 . S
N112 Co103 2.022 . S
N112 C109 1.351 . S
N112 N113 1.365 . S
N113 C110 1.341 . S
N113 N112 1.365 . S
N113 H133 0.862 . S
C114 C109 1.501 . S
C114 H115 0.961 . S
C114 H116 0.961 . S
C114 H117 0.960 . S
H115 C114 0.961 . S
H116 C114 0.961 . S
H117 C114 0.960 . S
C118 N119 1.342 . S
C118 C122 1.401 . S
C118 C123 1.499 . S
N119 Co102 1.989 . S
N119 C118 1.342 . S
N119 N120 1.388 . S
N120 Co103 1.993 . S
N120 N119 1.388 . S
N120 C121 1.346 . S
C121 N120 1.346 . S
C121 C122 1.396 . S
C121 C131 1.510 . S
C122 C118 1.401 . S
C122 C121 1.396 . S
C123 C118 1.499 . S
C123 H124 0.959 . S
C123 H125 0.960 . S
C123 H126 0.961 . S
H124 C123 0.959 . S
H125 C123 0.960 . S
H126 C123 0.961 . S
O127 Co102 1.967 . S
O127 C135 1.258 . S
O128 Co103 1.941 . S
O128 C135 1.266 . S
H129 C131 0.959 . S
H130 C131 0.961 . S
C131 C121 1.510 . S
C131 H129 0.959 . S
C131 H130 0.961 . S
C131 H132 0.960 . S
H132 C131 0.960 . S
H133 N113 0.862 . S
O134 Co102 1.920 . S
O134 C107 1.289 . S
C135 O127 1.258 . S
C135 O128 1.266 . S
Co136 O139 1.970 . S
Co136 N153 1.989 . S
Co136 O161 1.967 1_455 S
Co136 O168 1.920 . S
Co137 O140 1.966 . S
Co137 N146 2.022 . S
Co137 N154 1.993 1_655 S
Co137 O162 1.941 . S
C138 O139 1.258 1_655 S
C138 O140 1.263 . S
O139 Co136 1.970 . S
O139 C138 1.258 1_455 S
O140 Co137 1.966 . S
O140 C138 1.263 . S
C141 O142 1.235 . S
C141 O168 1.289 . S
O142 C141 1.235 . S
C143 C145 1.400 . S
C143 N146 1.351 1_545 S
C143 C148 1.501 . S
C144 C145 1.387 1_565 S
C144 N147 1.341 . S
C145 C143 1.400 . S
C145 C144 1.387 1_545 S
N146 Co137 2.022 . S
N146 C143 1.351 1_565 S
N146 N147 1.365 . S
N147 C144 1.341 . S
N147 N146 1.365 . S
N147 H167 0.862 . S
C148 C143 1.501 . S
C148 H149 0.961 . S
C148 H150 0.961 . S
C148 H151 0.960 . S
H149 C148 0.961 . S
H150 C148 0.961 . S
H151 C148 0.960 . S
C152 N153 1.342 . S
C152 C156 1.401 . S
C152 C157 1.499 . S
N153 Co136 1.989 . S
N153 C152 1.342 . S
N153 N154 1.388 . S
N154 Co137 1.993 1_455 S
N154 N153 1.388 . S
N154 C155 1.346 . S
C155 N154 1.346 . S
C155 C156 1.396 . S
C155 C165 1.510 1_455 S
C156 C152 1.401 . S
C156 C155 1.396 . S
C157 C152 1.499 . S
C157 H158 0.959 . S
C157 H159 0.960 . S
C157 H160 0.961 . S
H158 C157 0.959 . S
H159 C157 0.960 . S
H160 C157 0.961 . S
O161 Co136 1.967 1_655 S
O161 C169 1.258 . S
O162 Co137 1.941 . S
O162 C169 1.266 . S
H163 C165 0.959 . S
H164 C165 0.961 1_455 S
C165 C155 1.510 1_655 S
C165 H163 0.959 . S
C165 H164 0.961 1_655 S
C165 H166 0.960 . S
H166 C165 0.960 . S
H167 N147 0.862 . S
O168 Co136 1.920 . S
O168 C141 1.289 . S
C169 O161 1.258 . S
C169 O162 1.266 . S
Co170 O173 1.970 . S
Co170 N187 1.989 . S
Co170 O195 1.967 . S
Co170 O202 1.920 . S
Co171 O174 1.966 . S
Co171 N180 2.022 . S
Co171 N188 1.993 . S
Co171 O196 1.941 . S
C172 O173 1.258 . S
C172 O174 1.263 . S
O173 Co170 1.970 . S
O173 C172 1.258 . S
O174 Co171 1.966 . S
O174 C172 1.263 . S
C175 O176 1.235 . S
C175 O202 1.289 . S
O176 C175 1.235 . S
C177 C179 1.400 . S
C177 N180 1.351 . S
C177 C182 1.501 . S
C178 C179 1.387 . S
C178 N181 1.341 . S
C179 C177 1.400 . S
C179 C178 1.387 . S
N180 Co171 2.022 . S
N180 C177 1.351 . S
N180 N181 1.365 . S
N181 C178 1.341 . S
N181 N180 1.365 . S
N181 H201 0.862 . S
C182 C177 1.501 . S
C182 H183 0.961 . S
C182 H184 0.961 . S
C182 H185 0.960 . S
H183 C182 0.961 . S
H184 C182 0.961 . S
H185 C182 0.960 . S
C186 N187 1.342 . S
C186 C190 1.401 . S
C186 C191 1.499 . S
N187 Co170 1.989 . S
N187 C186 1.342 . S
N187 N188 1.388 . S
N188 Co171 1.993 . S
N188 N187 1.388 . S
N188 C189 1.346 . S
C189 N188 1.346 . S
C189 C190 1.396 . S
C189 C199 1.510 . S
C190 C186 1.401 . S
C190 C189 1.396 . S
C191 C186 1.499 . S
C191 H192 0.959 . S
C191 H193 0.960 . S
C191 H194 0.961 . S
H192 C191 0.959 . S
H193 C191 0.960 . S
H194 C191 0.961 . S
O195 Co170 1.967 . S
O195 C203 1.258 . S
O196 Co171 1.941 . S
O196 C203 1.266 . S
H197 C199 0.959 . S
H198 C199 0.961 . S
C199 C189 1.510 . S
C199 H197 0.959 . S
C199 H198 0.961 . S
C199 H200 0.960 . S
H200 C199 0.960 . S
H201 N181 0.862 . S
O202 Co170 1.920 . S
O202 C175 1.289 . S
C203 O195 1.258 . S
C203 O196 1.266 . S
Co204 O207 1.970 . S
Co204 N221 1.989 . S
Co204 O229 1.967 . S
Co204 O236 1.920 . S
Co205 O208 1.966 . S
Co205 N214 2.022 . S
Co205 N222 1.993 . S
Co205 O230 1.941 . S
C206 O207 1.258 . S
C206 O208 1.263 . S
O207 Co204 1.970 . S
O207 C206 1.258 . S
O208 Co205 1.966 . S
O208 C206 1.263 . S
C209 O210 1.235 . S
C209 O236 1.289 . S
O210 C209 1.235 . S
C211 C213 1.400 . S
C211 N214 1.351 1_565 S
C211 C216 1.501 . S
C212 C213 1.387 1_545 S
C212 N215 1.341 . S
C213 C211 1.400 . S
C213 C212 1.387 1_565 S
N214 Co205 2.022 . S
N214 C211 1.351 1_545 S
N214 N215 1.365 . S
N215 C212 1.341 . S
N215 N214 1.365 . S
N215 H235 0.862 . S
C216 C211 1.501 . S
C216 H217 0.961 . S
C216 H218 0.961 . S
C216 H219 0.960 . S
H217 C216 0.961 . S
H218 C216 0.961 . S
H219 C216 0.960 . S
C220 N221 1.342 . S
C220 C224 1.401 . S
C220 C225 1.499 . S
N221 Co204 1.989 . S
N221 C220 1.342 . S
N221 N222 1.388 . S
N222 Co205 1.993 . S
N222 N221 1.388 . S
N222 C223 1.346 . S
C223 N222 1.346 . S
C223 C224 1.396 . S
C223 C233 1.510 . S
C224 C220 1.401 . S
C224 C223 1.396 . S
C225 C220 1.499 . S
C225 H226 0.959 . S
C225 H227 0.960 . S
C225 H228 0.961 . S
H226 C225 0.959 . S
H227 C225 0.960 . S
H228 C225 0.961 . S
O229 Co204 1.967 . S
O229 C237 1.258 . S
O230 Co205 1.941 . S
O230 C237 1.266 . S
H231 C233 0.959 . S
H232 C233 0.961 . S
C233 C223 1.510 . S
C233 H231 0.959 . S
C233 H232 0.961 . S
C233 H234 0.960 . S
H234 C233 0.960 . S
H235 N215 0.862 . S
O236 Co204 1.920 . S
O236 C209 1.289 . S
C237 O229 1.258 . S
C237 O230 1.266 . S
Co238 O241 1.970 . S
Co238 N255 1.989 . S
Co238 O263 1.967 . S
Co238 O270 1.920 . S
Co239 O242 1.966 . S
Co239 N248 2.022 . S
Co239 N256 1.993 . S
Co239 O264 1.941 . S
C240 O241 1.258 . S
C240 O242 1.263 . S
O241 Co238 1.970 . S
O241 C240 1.258 . S
O242 Co239 1.966 . S
O242 C240 1.263 . S
C243 O244 1.235 . S
C243 O270 1.289 . S
O244 C243 1.235 . S
C245 C247 1.400 . S
C245 N248 1.351 . S
C245 C250 1.501 . S
C246 C247 1.387 . S
C246 N249 1.341 . S
C247 C245 1.400 . S
C247 C246 1.387 . S
N248 Co239 2.022 . S
N248 C245 1.351 . S
N248 N249 1.365 . S
N249 C246 1.341 . S
N249 N248 1.365 . S
N249 H269 0.862 . S
C250 C245 1.501 . S
C250 H251 0.961 . S
C250 H252 0.961 . S
C250 H253 0.960 . S
H251 C250 0.961 . S
H252 C250 0.961 . S
H253 C250 0.960 . S
C254 N255 1.342 . S
C254 C258 1.401 . S
C254 C259 1.499 . S
N255 Co238 1.989 . S
N255 C254 1.342 . S
N255 N256 1.388 . S
N256 Co239 1.993 . S
N256 N255 1.388 . S
N256 C257 1.346 . S
C257 N256 1.346 . S
C257 C258 1.396 . S
C257 C267 1.510 . S
C258 C254 1.401 . S
C258 C257 1.396 . S
C259 C254 1.499 . S
C259 H260 0.959 . S
C259 H261 0.960 . S
C259 H262 0.961 . S
H260 C259 0.959 . S
H261 C259 0.960 . S
H262 C259 0.961 . S
O263 Co238 1.967 . S
O263 C271 1.258 . S
O264 Co239 1.941 . S
O264 C271 1.266 . S
H265 C267 0.959 . S
H266 C267 0.961 . S
C267 C257 1.510 . S
C267 H265 0.959 . S
C267 H266 0.961 . S
C267 H268 0.960 . S
H268 C267 0.960 . S
H269 N249 0.862 . S
O270 Co238 1.920 . S
O270 C243 1.289 . S
C271 O263 1.258 . S
C271 O264 1.266 . S
Co272 O275 1.970 . S
Co272 N289 1.989 . S
Co272 O297 1.967 1_545 S
Co272 O304 1.920 . S
Co273 O276 1.966 . S
Co273 N282 2.022 . S
Co273 N290 1.993 1_565 S
Co273 O298 1.941 . S
C274 O275 1.258 1_565 S
C274 O276 1.263 . S
O275 Co272 1.970 . S
O275 C274 1.258 1_545 S
O276 Co273 1.966 . S
O276 C274 1.263 . S
C277 O278 1.235 . S
C277 O304 1.289 . S
O278 C277 1.235 . S
C279 C281 1.400 . S
C279 N282 1.351 1_556 S
C279 C284 1.501 . S
C280 C281 1.387 1_554 S
C280 N283 1.341 . S
C281 C279 1.400 . S
C281 C280 1.387 1_556 S
N282 Co273 2.022 . S
N282 C279 1.351 1_554 S
N282 N283 1.365 . S
N283 C280 1.341 . S
N283 N282 1.365 . S
N283 H303 0.862 . S
C284 C279 1.501 . S
C284 H285 0.961 . S
C284 H286 0.961 . S
C284 H287 0.960 . S
H285 C284 0.961 . S
H286 C284 0.961 . S
H287 C284 0.960 . S
C288 N289 1.342 . S
C288 C292 1.401 . S
C288 C293 1.499 . S
N289 Co272 1.989 . S
N289 C288 1.342 . S
N289 N290 1.388 . S
N290 Co273 1.993 1_545 S
N290 N289 1.388 . S
N290 C291 1.346 . S
C291 N290 1.346 . S
C291 C292 1.396 . S
C291 C301 1.510 1_545 S
C292 C288 1.401 . S
C292 C291 1.396 . S
C293 C288 1.499 . S
C293 H294 0.959 . S
C293 H295 0.960 . S
C293 H296 0.961 . S
H294 C293 0.959 . S
H295 C293 0.960 . S
H296 C293 0.961 . S
O297 Co272 1.967 1_565 S
O297 C305 1.258 . S
O298 Co273 1.941 . S
O298 C305 1.266 . S
H299 C301 0.959 . S
H300 C301 0.961 1_545 S
C301 C291 1.510 1_565 S
C301 H299 0.959 . S
C301 H300 0.961 1_565 S
C301 H302 0.960 . S
H302 C301 0.960 . S
H303 N283 0.862 . S
O304 Co272 1.920 . S
O304 C277 1.289 . S
C305 O297 1.258 . S
C305 O298 1.266 . S
Co306 O309 1.970 . S
Co306 N323 1.989 . S
Co306 O331 1.967 . S
Co306 O338 1.920 . S
Co307 O310 1.966 . S
Co307 N316 2.022 . S
Co307 N324 1.993 . S
Co307 O332 1.941 . S
C308 O309 1.258 . S
C308 O310 1.263 . S
O309 Co306 1.970 . S
O309 C308 1.258 . S
O310 Co307 1.966 . S
O310 C308 1.263 . S
C311 O312 1.235 . S
C311 O338 1.289 . S
O312 C311 1.235 . S
C313 C315 1.400 . S
C313 N316 1.351 . S
C313 C318 1.501 . S
C314 C315 1.387 . S
C314 N317 1.341 . S
C315 C313 1.400 . S
C315 C314 1.387 . S
N316 Co307 2.022 . S
N316 C313 1.351 . S
N316 N317 1.365 . S
N317 C314 1.341 . S
N317 N316 1.365 . S
N317 H337 0.862 . S
C318 C313 1.501 . S
C318 H319 0.961 . S
C318 H320 0.961 . S
C318 H321 0.960 . S
H319 C318 0.961 . S
H320 C318 0.961 . S
H321 C318 0.960 . S
C322 N323 1.342 . S
C322 C326 1.401 . S
C322 C327 1.499 . S
N323 Co306 1.989 . S
N323 C322 1.342 . S
N323 N324 1.388 . S
N324 Co307 1.993 . S
N324 N323 1.388 . S
N324 C325 1.346 . S
C325 N324 1.346 . S
C325 C326 1.396 . S
C325 C335 1.510 . S
C326 C322 1.401 . S
C326 C325 1.396 . S
C327 C322 1.499 . S
C327 H328 0.959 . S
C327 H329 0.960 . S
C327 H330 0.961 . S
H328 C327 0.959 . S
H329 C327 0.960 . S
H330 C327 0.961 . S
O331 Co306 1.967 . S
O331 C339 1.258 . S
O332 Co307 1.941 . S
O332 C339 1.266 . S
H333 C335 0.959 . S
H334 C335 0.961 . S
C335 C325 1.510 . S
C335 H333 0.959 . S
C335 H334 0.961 . S
C335 H336 0.960 . S
H336 C335 0.960 . S
H337 N317 0.862 . S
O338 Co306 1.920 . S
O338 C311 1.289 . S
C339 O331 1.258 . S
C339 O332 1.266 . S
Co340 O343 1.970 . S
Co340 N357 1.989 . S
Co340 O365 1.967 1_565 S
Co340 O372 1.920 . S
Co341 O344 1.966 . S
Co341 N350 2.022 . S
Co341 N358 1.993 1_545 S
Co341 O366 1.941 . S
C342 O343 1.227 1_545 S
C342 O344 1.290 . S
O343 Co340 1.970 . S
O343 C342 1.227 1_565 S
O344 Co341 1.966 . S
O344 C342 1.290 . S
C345 O346 1.235 . S
C345 O372 1.289 . S
O346 C345 1.235 . S
C347 C349 1.400 . S
C347 N350 1.351 . S
C347 C352 1.501 . S
C348 C349 1.387 . S
C348 N351 1.341 . S
C349 C347 1.400 . S
C349 C348 1.387 . S
N350 Co341 2.022 . S
N350 C347 1.351 . S
N350 N351 1.365 . S
N351 C348 1.341 . S
N351 N350 1.365 . S
N351 H371 0.862 . S
C352 C347 1.501 . S
C352 H353 0.961 . S
C352 H354 0.961 . S
C352 H355 0.960 . S
H353 C352 0.961 . S
H354 C352 0.961 . S
H355 C352 0.960 . S
C356 N357 1.342 . S
C356 C360 1.401 . S
C356 C361 1.499 . S
N357 Co340 1.989 . S
N357 C356 1.342 . S
N357 N358 1.388 . S
N358 Co341 1.993 1_565 S
N358 N357 1.388 . S
N358 C359 1.346 . S
C359 N358 1.346 . S
C359 C360 1.396 . S
C359 C369 1.510 1_565 S
C360 C356 1.401 . S
C360 C359 1.396 . S
C361 C356 1.499 . S
C361 H362 0.959 . S
C361 H363 0.960 . S
C361 H364 0.961 . S
H362 C361 0.959 . S
H363 C361 0.960 . S
H364 C361 0.961 . S
O365 Co340 1.967 1_545 S
O365 C373 1.258 . S
O366 Co341 1.941 . S
O366 C373 1.266 . S
H367 C369 0.959 . S
H368 C369 0.961 1_565 S
C369 C359 1.510 1_545 S
C369 H367 0.959 . S
C369 H368 0.961 1_545 S
C369 H370 0.960 . S
H370 C369 0.960 . S
H371 N351 0.862 . S
O372 Co340 1.920 . S
O372 C345 1.289 . S
C373 O365 1.258 . S
C373 O366 1.266 . S
Co374 O377 1.970 . S
Co374 N391 1.989 . S
Co374 O399 1.967 . S
Co374 O406 1.920 . S
Co375 O378 1.966 . S
Co375 N384 2.022 . S
Co375 N392 1.993 . S
Co375 O400 1.941 . S
C376 O377 1.258 . S
C376 O378 1.263 . S
O377 Co374 1.970 . S
O377 C376 1.258 . S
O378 Co375 1.966 . S
O378 C376 1.263 . S
C379 O380 1.235 . S
C379 O406 1.289 . S
O380 C379 1.235 . S
C381 C383 1.400 . S
C381 N384 1.351 . S
C381 C386 1.501 . S
C382 C383 1.387 . S
C382 N385 1.341 . S
C383 C381 1.400 . S
C383 C382 1.387 . S
N384 Co375 2.022 . S
N384 C381 1.351 . S
N384 N385 1.365 . S
N385 C382 1.341 . S
N385 N384 1.365 . S
N385 H405 0.862 . S
C386 C381 1.501 . S
C386 H387 0.961 . S
C386 H388 0.961 . S
C386 H389 0.960 . S
H387 C386 0.961 . S
H388 C386 0.961 . S
H389 C386 0.960 . S
C390 N391 1.342 . S
C390 C394 1.401 . S
C390 C395 1.499 . S
N391 Co374 1.989 . S
N391 C390 1.342 . S
N391 N392 1.388 . S
N392 Co375 1.993 . S
N392 N391 1.388 . S
N392 C393 1.346 . S
C393 N392 1.346 . S
C393 C394 1.396 . S
C393 C403 1.510 . S
C394 C390 1.401 . S
C394 C393 1.396 . S
C395 C390 1.499 . S
C395 H396 0.959 . S
C395 H397 0.960 . S
C395 H398 0.961 . S
H396 C395 0.959 . S
H397 C395 0.960 . S
H398 C395 0.961 . S
O399 Co374 1.967 . S
O399 C407 1.258 . S
O400 Co375 1.941 . S
O400 C407 1.266 . S
H401 C403 0.959 . S
H402 C403 0.961 . S
C403 C393 1.510 . S
C403 H401 0.959 . S
C403 H402 0.961 . S
C403 H404 0.960 . S
H404 C403 0.960 . S
H405 N385 0.862 . S
O406 Co374 1.920 . S
O406 C379 1.289 . S
C407 O399 1.258 . S
C407 O400 1.266 . S
Co408 O411 1.970 . S
Co408 N425 1.989 . S
Co408 O433 1.967 1_565 S
Co408 O440 1.920 . S
Co409 O412 1.966 . S
Co409 N418 2.022 . S
Co409 N426 1.993 1_545 S
Co409 O434 1.941 . S
C410 O411 1.227 1_545 S
C410 O412 1.290 . S
O411 Co408 1.970 . S
O411 C410 1.227 1_565 S
O412 Co409 1.966 . S
O412 C410 1.290 . S
C413 O414 1.235 . S
C413 O440 1.289 . S
O414 C413 1.235 . S
C415 C417 1.400 . S
C415 N418 1.351 . S
C415 C420 1.501 . S
C416 C417 1.387 . S
C416 N419 1.341 . S
C417 C415 1.400 . S
C417 C416 1.387 . S
N418 Co409 2.022 . S
N418 C415 1.351 . S
N418 N419 1.365 . S
N419 C416 1.341 . S
N419 N418 1.365 . S
N419 H439 0.862 . S
C420 C415 1.501 . S
C420 H421 0.961 . S
C420 H422 0.961 . S
C420 H423 0.960 . S
H421 C420 0.961 . S
H422 C420 0.961 . S
H423 C420 0.960 . S
C424 N425 1.342 . S
C424 C428 1.401 . S
C424 C429 1.499 . S
N425 Co408 1.989 . S
N425 C424 1.342 . S
N425 N426 1.388 . S
N426 Co409 1.993 1_565 S
N426 N425 1.388 . S
N426 C427 1.346 . S
C427 N426 1.346 . S
C427 C428 1.396 . S
C427 C437 1.510 1_565 S
C428 C424 1.401 . S
C428 C427 1.396 . S
C429 C424 1.499 . S
C429 H430 0.959 . S
C429 H431 0.960 . S
C429 H432 0.961 . S
H430 C429 0.959 . S
H431 C429 0.960 . S
H432 C429 0.961 . S
O433 Co408 1.967 1_545 S
O433 C441 1.258 . S
O434 Co409 1.941 . S
O434 C441 1.266 . S
H435 C437 0.959 . S
H436 C437 0.961 1_565 S
C437 C427 1.510 1_545 S
C437 H435 0.959 . S
C437 H436 0.961 1_545 S
C437 H438 0.960 . S
H438 C437 0.960 . S
H439 N419 0.862 . S
O440 Co408 1.920 . S
O440 C413 1.289 . S
C441 O433 1.258 . S
C441 O434 1.266 . S
Co442 O445 1.970 . S
Co442 N459 1.989 . S
Co442 O467 1.967 . S
Co442 O474 1.920 . S
Co443 O446 1.966 . S
Co443 N452 2.022 . S
Co443 N460 1.993 . S
Co443 O468 1.941 . S
C444 O445 1.258 . S
C444 O446 1.263 . S
O445 Co442 1.970 . S
O445 C444 1.258 . S
O446 Co443 1.966 . S
O446 C444 1.263 . S
C447 O448 1.235 . S
C447 O474 1.289 . S
O448 C447 1.235 . S
C449 C451 1.400 . S
C449 N452 1.351 . S
C449 C454 1.501 . S
C450 C451 1.387 . S
C450 N453 1.341 . S
C451 C449 1.400 . S
C451 C450 1.387 . S
N452 Co443 2.022 . S
N452 C449 1.351 . S
N452 N453 1.365 . S
N453 C450 1.341 . S
N453 N452 1.365 . S
N453 H473 0.862 . S
C454 C449 1.501 . S
C454 H455 0.961 . S
C454 H456 0.961 . S
C454 H457 0.960 . S
H455 C454 0.961 . S
H456 C454 0.961 . S
H457 C454 0.960 . S
C458 N459 1.342 . S
C458 C462 1.401 . S
C458 C463 1.499 . S
N459 Co442 1.989 . S
N459 C458 1.342 . S
N459 N460 1.388 . S
N460 Co443 1.993 . S
N460 N459 1.388 . S
N460 C461 1.346 . S
C461 N460 1.346 . S
C461 C462 1.396 . S
C461 C471 1.510 . S
C462 C458 1.401 . S
C462 C461 1.396 . S
C463 C458 1.499 . S
C463 H464 0.959 . S
C463 H465 0.960 . S
C463 H466 0.961 . S
H464 C463 0.959 . S
H465 C463 0.960 . S
H466 C463 0.961 . S
O467 Co442 1.967 . S
O467 C475 1.258 . S
O468 Co443 1.941 . S
O468 C475 1.266 . S
H469 C471 0.959 . S
H470 C471 0.961 . S
C471 C461 1.510 . S
C471 H469 0.959 . S
C471 H470 0.961 . S
C471 H472 0.960 . S
H472 C471 0.960 . S
H473 N453 0.862 . S
O474 Co442 1.920 . S
O474 C447 1.289 . S
C475 O467 1.258 . S
C475 O468 1.266 . S
Co476 O479 1.970 . S
Co476 N493 1.989 . S
Co476 O501 1.967 1_545 S
Co476 O508 1.920 . S
Co477 O480 1.966 . S
Co477 N486 2.022 . S
Co477 N494 1.993 1_565 S
Co477 O502 1.941 . S
C478 O479 1.258 1_565 S
C478 O480 1.263 . S
O479 Co476 1.970 . S
O479 C478 1.258 1_545 S
O480 Co477 1.966 . S
O480 C478 1.263 . S
C481 O482 1.235 . S
C481 O508 1.289 . S
O482 C481 1.235 . S
C483 C485 1.400 . S
C483 N486 1.351 1_554 S
C483 C488 1.501 . S
C484 C485 1.387 1_556 S
C484 N487 1.341 . S
C485 C483 1.400 . S
C485 C484 1.387 1_554 S
N486 Co477 2.022 . S
N486 C483 1.351 1_556 S
N486 N487 1.365 . S
N487 C484 1.341 . S
N487 N486 1.365 . S
N487 H507 0.862 . S
C488 C483 1.501 . S
C488 H489 0.961 . S
C488 H490 0.961 . S
C488 H491 0.960 . S
H489 C488 0.961 . S
H490 C488 0.961 . S
H491 C488 0.960 . S
C492 N493 1.342 . S
C492 C496 1.401 . S
C492 C497 1.499 . S
N493 Co476 1.989 . S
N493 C492 1.342 . S
N493 N494 1.388 . S
N494 Co477 1.993 1_545 S
N494 N493 1.388 . S
N494 C495 1.346 . S
C495 N494 1.346 . S
C495 C496 1.396 . S
C495 C505 1.510 1_545 S
C496 C492 1.401 . S
C496 C495 1.396 . S
C497 C492 1.499 . S
C497 H498 0.959 . S
C497 H499 0.960 . S
C497 H500 0.961 . S
H498 C497 0.959 . S
H499 C497 0.960 . S
H500 C497 0.961 . S
O501 Co476 1.967 1_565 S
O501 C509 1.258 . S
O502 Co477 1.941 . S
O502 C509 1.266 . S
H503 C505 0.959 . S
H504 C505 0.961 1_545 S
C505 C495 1.510 1_565 S
C505 H503 0.959 . S
C505 H504 0.961 1_565 S
C505 H506 0.960 . S
H506 C505 0.960 . S
H507 N487 0.862 . S
O508 Co476 1.920 . S
O508 C481 1.289 . S
C509 O501 1.258 . S
C509 O502 1.266 . S
Co510 O513 1.970 . S
Co510 N527 1.989 . S
Co510 O535 1.967 . S
Co510 O542 1.920 . S
Co511 O514 1.966 . S
Co511 N520 2.022 . S
Co511 N528 1.993 . S
Co511 O536 1.941 . S
C512 O513 1.258 . S
C512 O514 1.263 . S
O513 Co510 1.970 . S
O513 C512 1.258 . S
O514 Co511 1.966 . S
O514 C512 1.263 . S
C515 O516 1.235 . S
C515 O542 1.289 . S
O516 C515 1.235 . S
C517 C519 1.400 . S
C517 N520 1.351 . S
C517 C522 1.501 . S
C518 C519 1.387 . S
C518 N521 1.341 . S
C519 C517 1.400 . S
C519 C518 1.387 . S
N520 Co511 2.022 . S
N520 C517 1.351 . S
N520 N521 1.365 . S
N521 C518 1.341 . S
N521 N520 1.365 . S
N521 H541 0.862 . S
C522 C517 1.501 . S
C522 H523 0.961 . S
C522 H524 0.961 . S
C522 H525 0.960 . S
H523 C522 0.961 . S
H524 C522 0.961 . S
H525 C522 0.960 . S
C526 N527 1.342 . S
C526 C530 1.401 . S
C526 C531 1.499 . S
N527 Co510 1.989 . S
N527 C526 1.342 . S
N527 N528 1.388 . S
N528 Co511 1.993 . S
N528 N527 1.388 . S
N528 C529 1.346 . S
C529 N528 1.346 . S
C529 C530 1.396 . S
C529 C539 1.510 . S
C530 C526 1.401 . S
C530 C529 1.396 . S
C531 C526 1.499 . S
C531 H532 0.959 . S
C531 H533 0.960 . S
C531 H534 0.961 . S
H532 C531 0.959 . S
H533 C531 0.960 . S
H534 C531 0.961 . S
O535 Co510 1.967 . S
O535 C543 1.258 . S
O536 Co511 1.941 . S
O536 C543 1.266 . S
H537 C539 0.959 . S
H538 C539 0.961 . S
C539 C529 1.510 . S
C539 H537 0.959 . S
C539 H538 0.961 . S
C539 H540 0.960 . S
H540 C539 0.960 . S
H541 N521 0.862 . S
O542 Co510 1.920 . S
O542 C515 1.289 . S
C543 O535 1.258 . S
C543 O536 1.266 . S
Co544 O547 1.970 . S
Co544 N561 1.989 . S
Co544 O569 1.967 1_554 S
Co544 O576 1.920 . S
Co545 O548 1.966 . S
Co545 N554 2.022 . S
Co545 N562 1.993 1_556 S
Co545 O570 1.941 . S
C546 O547 1.258 1_556 S
C546 O548 1.263 . S
O547 Co544 1.970 . S
O547 C546 1.258 1_554 S
O548 Co545 1.966 . S
O548 C546 1.263 . S
C549 O550 1.235 . S
C549 O576 1.289 . S
O550 C549 1.235 . S
C551 C553 1.400 . S
C551 N554 1.351 1_655 S
C551 C556 1.501 . S
C552 C553 1.387 1_455 S
C552 N555 1.341 . S
C553 C551 1.400 . S
C553 C552 1.387 1_655 S
N554 Co545 2.022 . S
N554 C551 1.351 1_455 S
N554 N555 1.365 . S
N555 C552 1.341 . S
N555 N554 1.365 . S
N555 H575 0.862 . S
C556 C551 1.501 . S
C556 H557 0.961 . S
C556 H558 0.961 . S
C556 H559 0.960 . S
H557 C556 0.961 . S
H558 C556 0.961 . S
H559 C556 0.960 . S
C560 N561 1.342 . S
C560 C564 1.401 . S
C560 C565 1.499 . S
N561 Co544 1.989 . S
N561 C560 1.342 . S
N561 N562 1.388 . S
N562 Co545 1.993 1_554 S
N562 N561 1.388 . S
N562 C563 1.346 . S
C563 N562 1.346 . S
C563 C564 1.396 . S
C563 C573 1.510 1_554 S
C564 C560 1.401 . S
C564 C563 1.396 . S
C565 C560 1.499 . S
C565 H566 0.959 . S
C565 H567 0.960 . S
C565 H568 0.961 . S
H566 C565 0.959 . S
H567 C565 0.960 . S
H568 C565 0.961 . S
O569 Co544 1.967 1_556 S
O569 C577 1.258 . S
O570 Co545 1.941 . S
O570 C577 1.266 . S
H571 C573 0.959 . S
H572 C573 0.961 1_554 S
C573 C563 1.510 1_556 S
C573 H571 0.959 . S
C573 H572 0.961 1_556 S
C573 H574 0.960 . S
H574 C573 0.960 . S
H575 N555 0.862 . S
O576 Co544 1.920 . S
O576 C549 1.289 . S
C577 O569 1.258 . S
C577 O570 1.266 . S
Co578 O581 1.970 . S
Co578 N595 1.989 . S
Co578 O603 1.967 1_556 S
Co578 O610 1.920 . S
Co579 O582 1.966 . S
Co579 N588 2.022 . S
Co579 N596 1.993 1_554 S
Co579 O604 1.941 . S
C580 O581 1.227 1_554 S
C580 O582 1.290 . S
O581 Co578 1.970 . S
O581 C580 1.227 1_556 S
O582 Co579 1.966 . S
O582 C580 1.290 . S
C583 O584 1.235 . S
C583 O610 1.289 . S
O584 C583 1.235 . S
C585 C587 1.400 . S
C585 N588 1.351 . S
C585 C590 1.501 . S
C586 C587 1.387 . S
C586 N589 1.341 . S
C587 C585 1.400 . S
C587 C586 1.387 . S
N588 Co579 2.022 . S
N588 C585 1.351 . S
N588 N589 1.365 . S
N589 C586 1.341 . S
N589 N588 1.365 . S
N589 H609 0.862 . S
C590 C585 1.501 . S
C590 H591 0.961 . S
C590 H592 0.961 . S
C590 H593 0.960 . S
H591 C590 0.961 . S
H592 C590 0.961 . S
H593 C590 0.960 . S
C594 N595 1.342 . S
C594 C598 1.401 . S
C594 C599 1.499 . S
N595 Co578 1.989 . S
N595 C594 1.342 . S
N595 N596 1.388 . S
N596 Co579 1.993 1_556 S
N596 N595 1.388 . S
N596 C597 1.346 . S
C597 N596 1.346 . S
C597 C598 1.396 . S
C597 C607 1.510 1_556 S
C598 C594 1.401 . S
C598 C597 1.396 . S
C599 C594 1.499 . S
C599 H600 0.959 . S
C599 H601 0.960 . S
C599 H602 0.961 . S
H600 C599 0.959 . S
H601 C599 0.960 . S
H602 C599 0.961 . S
O603 Co578 1.967 1_554 S
O603 C611 1.258 . S
O604 Co579 1.941 . S
O604 C611 1.266 . S
H605 C607 0.959 . S
H606 C607 0.961 1_556 S
C607 C597 1.510 1_554 S
C607 H605 0.959 . S
C607 H606 0.961 1_554 S
C607 H608 0.960 . S
H608 C607 0.960 . S
H609 N589 0.862 . S
O610 Co578 1.920 . S
O610 C583 1.289 . S
C611 O603 1.258 . S
C611 O604 1.266 . S
Co612 O615 1.970 . S
Co612 N629 1.989 . S
Co612 O637 1.967 . S
Co612 O644 1.920 . S
Co613 O616 1.966 . S
Co613 N622 2.022 . S
Co613 N630 1.993 . S
Co613 O638 1.941 . S
C614 O615 1.258 . S
C614 O616 1.263 . S
O615 Co612 1.970 . S
O615 C614 1.258 . S
O616 Co613 1.966 . S
O616 C614 1.263 . S
C617 O618 1.235 . S
C617 O644 1.289 . S
O618 C617 1.235 . S
C619 C621 1.400 . S
C619 N622 1.351 . S
C619 C624 1.501 . S
C620 C621 1.387 . S
C620 N623 1.341 . S
C621 C619 1.400 . S
C621 C620 1.387 . S
N622 Co613 2.022 . S
N622 C619 1.351 . S
N622 N623 1.365 . S
N623 C620 1.341 . S
N623 N622 1.365 . S
N623 H643 0.862 . S
C624 C619 1.501 . S
C624 H625 0.961 . S
C624 H626 0.961 . S
C624 H627 0.960 . S
H625 C624 0.961 . S
H626 C624 0.961 . S
H627 C624 0.960 . S
C628 N629 1.342 . S
C628 C632 1.401 . S
C628 C633 1.499 . S
N629 Co612 1.989 . S
N629 C628 1.342 . S
N629 N630 1.388 . S
N630 Co613 1.993 . S
N630 N629 1.388 . S
N630 C631 1.346 . S
C631 N630 1.346 . S
C631 C632 1.396 . S
C631 C641 1.510 . S
C632 C628 1.401 . S
C632 C631 1.396 . S
C633 C628 1.499 . S
C633 H634 0.959 . S
C633 H635 0.960 . S
C633 H636 0.961 . S
H634 C633 0.959 . S
H635 C633 0.960 . S
H636 C633 0.961 . S
O637 Co612 1.967 . S
O637 C645 1.258 . S
O638 Co613 1.941 . S
O638 C645 1.266 . S
H639 C641 0.959 . S
H640 C641 0.961 . S
C641 C631 1.510 . S
C641 H639 0.959 . S
C641 H640 0.961 . S
C641 H642 0.960 . S
H642 C641 0.960 . S
H643 N623 0.862 . S
O644 Co612 1.920 . S
O644 C617 1.289 . S
C645 O637 1.258 . S
C645 O638 1.266 . S
Co646 O649 1.970 . S
Co646 N663 1.989 . S
Co646 O671 1.967 . S
Co646 O678 1.920 . S
Co647 O650 1.966 . S
Co647 N656 2.022 . S
Co647 N664 1.993 . S
Co647 O672 1.941 . S
C648 O649 1.258 . S
C648 O650 1.263 . S
O649 Co646 1.970 . S
O649 C648 1.258 . S
O650 Co647 1.966 . S
O650 C648 1.263 . S
C651 O652 1.235 . S
C651 O678 1.289 . S
O652 C651 1.235 . S
C653 C655 1.400 . S
C653 N656 1.351 1_455 S
C653 C658 1.501 . S
C654 C655 1.387 1_655 S
C654 N657 1.341 . S
C655 C653 1.400 . S
C655 C654 1.387 1_455 S
N656 Co647 2.022 . S
N656 C653 1.351 1_655 S
N656 N657 1.365 . S
N657 C654 1.341 . S
N657 N656 1.365 . S
N657 H677 0.862 . S
C658 C653 1.501 . S
C658 H659 0.961 . S
C658 H660 0.961 . S
C658 H661 0.960 . S
H659 C658 0.961 . S
H660 C658 0.961 . S
H661 C658 0.960 . S
C662 N663 1.342 . S
C662 C666 1.401 . S
C662 C667 1.499 . S
N663 Co646 1.989 . S
N663 C662 1.342 . S
N663 N664 1.388 . S
N664 Co647 1.993 . S
N664 N663 1.388 . S
N664 C665 1.346 . S
C665 N664 1.346 . S
C665 C666 1.396 . S
C665 C675 1.510 . S
C666 C662 1.401 . S
C666 C665 1.396 . S
C667 C662 1.499 . S
C667 H668 0.959 . S
C667 H669 0.960 . S
C667 H670 0.961 . S
H668 C667 0.959 . S
H669 C667 0.960 . S
H670 C667 0.961 . S
O671 Co646 1.967 . S
O671 C679 1.258 . S
O672 Co647 1.941 . S
O672 C679 1.266 . S
H673 C675 0.959 . S
H674 C675 0.961 . S
C675 C665 1.510 . S
C675 H673 0.959 . S
C675 H674 0.961 . S
C675 H676 0.960 . S
H676 C675 0.960 . S
H677 N657 0.862 . S
O678 Co646 1.920 . S
O678 C651 1.289 . S
C679 O671 1.258 . S
C679 O672 1.266 . S
Co680 O683 1.970 . S
Co680 N697 1.989 . S
Co680 O705 1.967 . S
Co680 O712 1.920 . S
Co681 O684 1.966 . S
Co681 N690 2.022 . S
Co681 N698 1.993 . S
Co681 O706 1.941 . S
C682 O683 1.258 . S
C682 O684 1.263 . S
O683 Co680 1.970 . S
O683 C682 1.258 . S
O684 Co681 1.966 . S
O684 C682 1.263 . S
C685 O686 1.235 . S
C685 O712 1.289 . S
O686 C685 1.235 . S
C687 C689 1.400 . S
C687 N690 1.351 . S
C687 C692 1.501 . S
C688 C689 1.387 . S
C688 N691 1.341 . S
C689 C687 1.400 . S
C689 C688 1.387 . S
N690 Co681 2.022 . S
N690 C687 1.351 . S
N690 N691 1.365 . S
N691 C688 1.341 . S
N691 N690 1.365 . S
N691 H711 0.862 . S
C692 C687 1.501 . S
C692 H693 0.961 . S
C692 H694 0.961 . S
C692 H695 0.960 . S
H693 C692 0.961 . S
H694 C692 0.961 . S
H695 C692 0.960 . S
C696 N697 1.342 . S
C696 C700 1.401 . S
C696 C701 1.499 . S
N697 Co680 1.989 . S
N697 C696 1.342 . S
N697 N698 1.388 . S
N698 Co681 1.993 . S
N698 N697 1.388 . S
N698 C699 1.346 . S
C699 N698 1.346 . S
C699 C700 1.396 . S
C699 C709 1.510 . S
C700 C696 1.401 . S
C700 C699 1.396 . S
C701 C696 1.499 . S
C701 H702 0.959 . S
C701 H703 0.960 . S
C701 H704 0.961 . S
H702 C701 0.959 . S
H703 C701 0.960 . S
H704 C701 0.961 . S
O705 Co680 1.967 . S
O705 C713 1.258 . S
O706 Co681 1.941 . S
O706 C713 1.266 . S
H707 C709 0.959 . S
H708 C709 0.961 . S
C709 C699 1.510 . S
C709 H707 0.959 . S
C709 H708 0.961 . S
C709 H710 0.960 . S
H710 C709 0.960 . S
H711 N691 0.862 . S
O712 Co680 1.920 . S
O712 C685 1.289 . S
C713 O705 1.258 . S
C713 O706 1.266 . S
Co714 O717 1.970 . S
Co714 N731 1.989 . S
Co714 O739 1.967 . S
Co714 O746 1.920 . S
Co715 O718 1.966 . S
Co715 N724 2.022 . S
Co715 N732 1.993 . S
Co715 O740 1.941 . S
C716 O717 1.258 . S
C716 O718 1.263 . S
O717 Co714 1.970 . S
O717 C716 1.258 . S
O718 Co715 1.966 . S
O718 C716 1.263 . S
C719 O720 1.235 . S
C719 O746 1.289 . S
O720 C719 1.235 . S
C721 C723 1.400 . S
C721 N724 1.351 . S
C721 C726 1.501 . S
C722 C723 1.387 . S
C722 N725 1.341 . S
C723 C721 1.400 . S
C723 C722 1.387 . S
N724 Co715 2.022 . S
N724 C721 1.351 . S
N724 N725 1.365 . S
N725 C722 1.341 . S
N725 N724 1.365 . S
N725 H745 0.862 . S
C726 C721 1.501 . S
C726 H727 0.961 . S
C726 H728 0.961 . S
C726 H729 0.960 . S
H727 C726 0.961 . S
H728 C726 0.961 . S
H729 C726 0.960 . S
C730 N731 1.342 . S
C730 C734 1.401 . S
C730 C735 1.499 . S
N731 Co714 1.989 . S
N731 C730 1.342 . S
N731 N732 1.388 . S
N732 Co715 1.993 . S
N732 N731 1.388 . S
N732 C733 1.346 . S
C733 N732 1.346 . S
C733 C734 1.396 . S
C733 C743 1.510 . S
C734 C730 1.401 . S
C734 C733 1.396 . S
C735 C730 1.499 . S
C735 H736 0.959 . S
C735 H737 0.960 . S
C735 H738 0.961 . S
H736 C735 0.959 . S
H737 C735 0.960 . S
H738 C735 0.961 . S
O739 Co714 1.967 . S
O739 C747 1.258 . S
O740 Co715 1.941 . S
O740 C747 1.266 . S
H741 C743 0.959 . S
H742 C743 0.961 . S
C743 C733 1.510 . S
C743 H741 0.959 . S
C743 H742 0.961 . S
C743 H744 0.960 . S
H744 C743 0.960 . S
H745 N725 0.862 . S
O746 Co714 1.920 . S
O746 C719 1.289 . S
C747 O739 1.258 . S
C747 O740 1.266 . S
Co748 O751 1.970 . S
Co748 N765 1.989 . S
Co748 O773 1.967 . S
Co748 O780 1.920 . S
Co749 O752 1.966 . S
Co749 N758 2.022 . S
Co749 N766 1.993 . S
Co749 O774 1.941 . S
C750 O751 1.258 . S
C750 O752 1.263 . S
O751 Co748 1.970 . S
O751 C750 1.258 . S
O752 Co749 1.966 . S
O752 C750 1.263 . S
C753 O754 1.235 . S
C753 O780 1.289 . S
O754 C753 1.235 . S
C755 C757 1.400 . S
C755 N758 1.351 . S
C755 C760 1.501 . S
C756 C757 1.387 . S
C756 N759 1.341 . S
C757 C755 1.400 . S
C757 C756 1.387 . S
N758 Co749 2.022 . S
N758 C755 1.351 . S
N758 N759 1.365 . S
N759 C756 1.341 . S
N759 N758 1.365 . S
N759 H779 0.862 . S
C760 C755 1.501 . S
C760 H761 0.961 . S
C760 H762 0.961 . S
C760 H763 0.960 . S
H761 C760 0.961 . S
H762 C760 0.961 . S
H763 C760 0.960 . S
C764 N765 1.342 . S
C764 C768 1.401 . S
C764 C769 1.499 . S
N765 Co748 1.989 . S
N765 C764 1.342 . S
N765 N766 1.388 . S
N766 Co749 1.993 . S
N766 N765 1.388 . S
N766 C767 1.346 . S
C767 N766 1.346 . S
C767 C768 1.396 . S
C767 C777 1.510 . S
C768 C764 1.401 . S
C768 C767 1.396 . S
C769 C764 1.499 . S
C769 H770 0.959 . S
C769 H771 0.960 . S
C769 H772 0.961 . S
H770 C769 0.959 . S
H771 C769 0.960 . S
H772 C769 0.961 . S
O773 Co748 1.967 . S
O773 C781 1.258 . S
O774 Co749 1.941 . S
O774 C781 1.266 . S
H775 C777 0.959 . S
H776 C777 0.961 . S
C777 C767 1.510 . S
C777 H775 0.959 . S
C777 H776 0.961 . S
C777 H778 0.960 . S
H778 C777 0.960 . S
H779 N759 0.862 . S
O780 Co748 1.920 . S
O780 C753 1.289 . S
C781 O773 1.258 . S
C781 O774 1.266 . S
Co782 O785 1.970 . S
Co782 N799 1.989 . S
Co782 O807 1.967 . S
Co782 O814 1.920 . S
Co783 O786 1.966 . S
Co783 N792 2.022 . S
Co783 N800 1.993 . S
Co783 O808 1.941 . S
C784 O785 1.258 . S
C784 O786 1.263 . S
O785 Co782 1.970 . S
O785 C784 1.258 . S
O786 Co783 1.966 . S
O786 C784 1.263 . S
C787 O788 1.235 . S
C787 O814 1.289 . S
O788 C787 1.235 . S
C789 C791 1.400 . S
C789 N792 1.351 . S
C789 C794 1.501 . S
C790 C791 1.387 . S
C790 N793 1.341 . S
C791 C789 1.400 . S
C791 C790 1.387 . S
N792 Co783 2.022 . S
N792 C789 1.351 . S
N792 N793 1.365 . S
N793 C790 1.341 . S
N793 N792 1.365 . S
N793 H813 0.862 . S
C794 C789 1.501 . S
C794 H795 0.961 . S
C794 H796 0.961 . S
C794 H797 0.960 . S
H795 C794 0.961 . S
H796 C794 0.961 . S
H797 C794 0.960 . S
C798 N799 1.342 . S
C798 C802 1.401 . S
C798 C803 1.499 . S
N799 Co782 1.989 . S
N799 C798 1.342 . S
N799 N800 1.388 . S
N800 Co783 1.993 . S
N800 N799 1.388 . S
N800 C801 1.346 . S
C801 N800 1.346 . S
C801 C802 1.396 . S
C801 C811 1.510 . S
C802 C798 1.401 . S
C802 C801 1.396 . S
C803 C798 1.499 . S
C803 H804 0.959 . S
C803 H805 0.960 . S
C803 H806 0.961 . S
H804 C803 0.959 . S
H805 C803 0.960 . S
H806 C803 0.961 . S
O807 Co782 1.967 . S
O807 C815 1.258 . S
O808 Co783 1.941 . S
O808 C815 1.266 . S
H809 C811 0.959 . S
H810 C811 0.961 . S
C811 C801 1.510 . S
C811 H809 0.959 . S
C811 H810 0.961 . S
C811 H812 0.960 . S
H812 C811 0.960 . S
H813 N793 0.862 . S
O814 Co782 1.920 . S
O814 C787 1.289 . S
C815 O807 1.258 . S
C815 O808 1.266 . S
Co816 O819 1.970 . S
Co816 N833 1.989 . S
Co816 O841 1.967 . S
Co816 O848 1.920 . S
Co817 O820 1.966 . S
Co817 N826 2.022 . S
Co817 N834 1.993 . S
Co817 O842 1.941 . S
C818 O819 1.258 . S
C818 O820 1.263 . S
O819 Co816 1.970 . S
O819 C818 1.258 . S
O820 Co817 1.966 . S
O820 C818 1.263 . S
C821 O822 1.235 . S
C821 O848 1.289 . S
O822 C821 1.235 . S
C823 C825 1.400 . S
C823 N826 1.351 . S
C823 C828 1.501 . S
C824 C825 1.387 . S
C824 N827 1.341 . S
C825 C823 1.400 . S
C825 C824 1.387 . S
N826 Co817 2.022 . S
N826 C823 1.351 . S
N826 N827 1.365 . S
N827 C824 1.341 . S
N827 N826 1.365 . S
N827 H847 0.862 . S
C828 C823 1.501 . S
C828 H829 0.961 . S
C828 H830 0.961 . S
C828 H831 0.960 . S
H829 C828 0.961 . S
H830 C828 0.961 . S
H831 C828 0.960 . S
C832 N833 1.342 . S
C832 C836 1.401 . S
C832 C837 1.499 . S
N833 Co816 1.989 . S
N833 C832 1.342 . S
N833 N834 1.388 . S
N834 Co817 1.993 . S
N834 N833 1.388 . S
N834 C835 1.346 . S
C835 N834 1.346 . S
C835 C836 1.396 . S
C835 C845 1.510 . S
C836 C832 1.401 . S
C836 C835 1.396 . S
C837 C832 1.499 . S
C837 H838 0.959 . S
C837 H839 0.960 . S
C837 H840 0.961 . S
H838 C837 0.959 . S
H839 C837 0.960 . S
H840 C837 0.961 . S
O841 Co816 1.967 . S
O841 C849 1.258 . S
O842 Co817 1.941 . S
O842 C849 1.266 . S
H843 C845 0.959 . S
H844 C845 0.961 . S
C845 C835 1.510 . S
C845 H843 0.959 . S
C845 H844 0.961 . S
C845 H846 0.960 . S
H846 C845 0.960 . S
H847 N827 0.862 . S
O848 Co816 1.920 . S
O848 C821 1.289 . S
C849 O841 1.258 . S
C849 O842 1.266 . S
Co850 O853 1.970 . S
Co850 N867 1.989 . S
Co850 O875 1.967 . S
Co850 O882 1.920 . S
Co851 O854 1.966 . S
Co851 N860 2.022 . S
Co851 N868 1.993 . S
Co851 O876 1.941 . S
C852 O853 1.258 . S
C852 O854 1.263 . S
O853 Co850 1.970 . S
O853 C852 1.258 . S
O854 Co851 1.966 . S
O854 C852 1.263 . S
C855 O856 1.235 . S
C855 O882 1.289 . S
O856 C855 1.235 . S
C857 C859 1.400 . S
C857 N860 1.351 . S
C857 C862 1.501 . S
C858 C859 1.387 . S
C858 N861 1.341 . S
C859 C857 1.400 . S
C859 C858 1.387 . S
N860 Co851 2.022 . S
N860 C857 1.351 . S
N860 N861 1.365 . S
N861 C858 1.341 . S
N861 N860 1.365 . S
N861 H881 0.862 . S
C862 C857 1.501 . S
C862 H863 0.961 . S
C862 H864 0.961 . S
C862 H865 0.960 . S
H863 C862 0.961 . S
H864 C862 0.961 . S
H865 C862 0.960 . S
C866 N867 1.342 . S
C866 C870 1.401 . S
C866 C871 1.499 . S
N867 Co850 1.989 . S
N867 C866 1.342 . S
N867 N868 1.388 . S
N868 Co851 1.993 . S
N868 N867 1.388 . S
N868 C869 1.346 . S
C869 N868 1.346 . S
C869 C870 1.396 . S
C869 C879 1.510 . S
C870 C866 1.401 . S
C870 C869 1.396 . S
C871 C866 1.499 . S
C871 H872 0.959 . S
C871 H873 0.960 . S
C871 H874 0.961 . S
H872 C871 0.959 . S
H873 C871 0.960 . S
H874 C871 0.961 . S
O875 Co850 1.967 . S
O875 C883 1.258 . S
O876 Co851 1.941 . S
O876 C883 1.266 . S
H877 C879 0.959 . S
H878 C879 0.961 . S
C879 C869 1.510 . S
C879 H877 0.959 . S
C879 H878 0.961 . S
C879 H880 0.960 . S
H880 C879 0.960 . S
H881 N861 0.862 . S
O882 Co850 1.920 . S
O882 C855 1.289 . S
C883 O875 1.258 . S
C883 O876 1.266 . S
Co884 O887 1.970 . S
Co884 N901 1.989 . S
Co884 O909 1.967 1_655 S
Co884 O916 1.920 . S
Co885 O888 1.966 . S
Co885 N894 2.022 . S
Co885 N902 1.993 1_455 S
Co885 O910 1.941 . S
C886 O887 1.227 1_455 S
C886 O888 1.290 . S
O887 Co884 1.970 . S
O887 C886 1.227 1_655 S
O888 Co885 1.966 . S
O888 C886 1.290 . S
C889 O890 1.235 . S
C889 O916 1.289 . S
O890 C889 1.235 . S
C891 C893 1.400 . S
C891 N894 1.351 . S
C891 C896 1.501 . S
C892 C893 1.387 . S
C892 N895 1.341 . S
C893 C891 1.400 . S
C893 C892 1.387 . S
N894 Co885 2.022 . S
N894 C891 1.351 . S
N894 N895 1.365 . S
N895 C892 1.341 . S
N895 N894 1.365 . S
N895 H915 0.862 . S
C896 C891 1.501 . S
C896 H897 0.961 . S
C896 H898 0.961 . S
C896 H899 0.960 . S
H897 C896 0.961 . S
H898 C896 0.961 . S
H899 C896 0.960 . S
C900 N901 1.342 . S
C900 C904 1.401 . S
C900 C905 1.499 . S
N901 Co884 1.989 . S
N901 C900 1.342 . S
N901 N902 1.388 . S
N902 Co885 1.993 1_655 S
N902 N901 1.388 . S
N902 C903 1.346 . S
C903 N902 1.346 . S
C903 C904 1.396 . S
C903 C913 1.510 1_655 S
C904 C900 1.401 . S
C904 C903 1.396 . S
C905 C900 1.499 . S
C905 H906 0.959 . S
C905 H907 0.960 . S
C905 H908 0.961 . S
H906 C905 0.959 . S
H907 C905 0.960 . S
H908 C905 0.961 . S
O909 Co884 1.967 1_455 S
O909 C917 1.258 . S
O910 Co885 1.941 . S
O910 C917 1.266 . S
H911 C913 0.959 . S
H912 C913 0.961 1_655 S
C913 C903 1.510 1_455 S
C913 H911 0.959 . S
C913 H912 0.961 1_455 S
C913 H914 0.960 . S
H914 C913 0.960 . S
H915 N895 0.862 . S
O916 Co884 1.920 . S
O916 C889 1.289 . S
C917 O909 1.258 . S
C917 O910 1.266 . S
Co918 O921 1.970 . S
Co918 N935 1.989 . S
Co918 O943 1.967 . S
Co918 O950 1.920 . S
Co919 O922 1.966 . S
Co919 N928 2.022 . S
Co919 N936 1.993 . S
Co919 O944 1.941 . S
C920 O921 1.258 . S
C920 O922 1.263 . S
O921 Co918 1.970 . S
O921 C920 1.258 . S
O922 Co919 1.966 . S
O922 C920 1.263 . S
C923 O924 1.235 . S
C923 O950 1.289 . S
O924 C923 1.235 . S
C925 C927 1.400 . S
C925 N928 1.351 . S
C925 C930 1.501 . S
C926 C927 1.387 . S
C926 N929 1.341 . S
C927 C925 1.400 . S
C927 C926 1.387 . S
N928 Co919 2.022 . S
N928 C925 1.351 . S
N928 N929 1.365 . S
N929 C926 1.341 . S
N929 N928 1.365 . S
N929 H949 0.862 . S
C930 C925 1.501 . S
C930 H931 0.961 . S
C930 H932 0.961 . S
C930 H933 0.960 . S
H931 C930 0.961 . S
H932 C930 0.961 . S
H933 C930 0.960 . S
C934 N935 1.342 . S
C934 C938 1.401 . S
C934 C939 1.499 . S
N935 Co918 1.989 . S
N935 C934 1.342 . S
N935 N936 1.388 . S
N936 Co919 1.993 . S
N936 N935 1.388 . S
N936 C937 1.346 . S
C937 N936 1.346 . S
C937 C938 1.396 . S
C937 C947 1.510 . S
C938 C934 1.401 . S
C938 C937 1.396 . S
C939 C934 1.499 . S
C939 H940 0.959 . S
C939 H941 0.960 . S
C939 H942 0.961 . S
H940 C939 0.959 . S
H941 C939 0.960 . S
H942 C939 0.961 . S
O943 Co918 1.967 . S
O943 C951 1.258 . S
O944 Co919 1.941 . S
O944 C951 1.266 . S
H945 C947 0.959 . S
H946 C947 0.961 . S
C947 C937 1.510 . S
C947 H945 0.959 . S
C947 H946 0.961 . S
C947 H948 0.960 . S
H948 C947 0.960 . S
H949 N929 0.862 . S
O950 Co918 1.920 . S
O950 C923 1.289 . S
C951 O943 1.258 . S
C951 O944 1.266 . S
Co952 O955 1.970 . S
Co952 N969 1.989 . S
Co952 O977 1.967 . S
Co952 O984 1.920 . S
Co953 O956 1.966 . S
Co953 N962 2.022 . S
Co953 N970 1.993 . S
Co953 O978 1.941 . S
C954 O955 1.258 . S
C954 O956 1.263 . S
O955 Co952 1.970 . S
O955 C954 1.258 . S
O956 Co953 1.966 . S
O956 C954 1.263 . S
C957 O958 1.235 . S
C957 O984 1.289 . S
O958 C957 1.235 . S
C959 C961 1.400 . S
C959 N962 1.351 . S
C959 C964 1.501 . S
C960 C961 1.387 . S
C960 N963 1.341 . S
C961 C959 1.400 . S
C961 C960 1.387 . S
N962 Co953 2.022 . S
N962 C959 1.351 . S
N962 N963 1.365 . S
N963 C960 1.341 . S
N963 N962 1.365 . S
N963 H983 0.862 . S
C964 C959 1.501 . S
C964 H965 0.961 . S
C964 H966 0.961 . S
C964 H967 0.960 . S
H965 C964 0.961 . S
H966 C964 0.961 . S
H967 C964 0.960 . S
C968 N969 1.342 . S
C968 C972 1.401 . S
C968 C973 1.499 . S
N969 Co952 1.989 . S
N969 C968 1.342 . S
N969 N970 1.388 . S
N970 Co953 1.993 . S
N970 N969 1.388 . S
N970 C971 1.346 . S
C971 N970 1.346 . S
C971 C972 1.396 . S
C971 C981 1.510 . S
C972 C968 1.401 . S
C972 C971 1.396 . S
C973 C968 1.499 . S
C973 H974 0.959 . S
C973 H975 0.960 . S
C973 H976 0.961 . S
H974 C973 0.959 . S
H975 C973 0.960 . S
H976 C973 0.961 . S
O977 Co952 1.967 . S
O977 C985 1.258 . S
O978 Co953 1.941 . S
O978 C985 1.266 . S
H979 C981 0.959 . S
H980 C981 0.961 . S
C981 C971 1.510 . S
C981 H979 0.959 . S
C981 H980 0.961 . S
C981 H982 0.960 . S
H982 C981 0.960 . S
H983 N963 0.862 . S
O984 Co952 1.920 . S
O984 C957 1.289 . S
C985 O977 1.258 . S
C985 O978 1.266 . S
Co986 O989 1.970 . S
Co986 N1003 1.989 . S
Co986 O1011 1.967 . S
Co986 O1018 1.920 . S
Co987 O990 1.966 . S
Co987 N996 2.022 . S
Co987 N1004 1.993 . S
Co987 O1012 1.941 . S
C988 O989 1.258 . S
C988 O990 1.263 . S
O989 Co986 1.970 . S
O989 C988 1.258 . S
O990 Co987 1.966 . S
O990 C988 1.263 . S
C991 O992 1.235 . S
C991 O1018 1.289 . S
O992 C991 1.235 . S
C993 C995 1.400 . S
C993 N996 1.351 . S
C993 C998 1.501 . S
C994 C995 1.387 . S
C994 N997 1.341 . S
C995 C993 1.400 . S
C995 C994 1.387 . S
N996 Co987 2.022 . S
N996 C993 1.351 . S
N996 N997 1.365 . S
N997 C994 1.341 . S
N997 N996 1.365 . S
N997 H1017 0.862 . S
C998 C993 1.501 . S
C998 H999 0.961 . S
C998 H1000 0.961 . S
C998 H1001 0.960 . S
H999 C998 0.961 . S
H1000 C998 0.961 . S
H1001 C998 0.960 . S
C1002 N1003 1.342 . S
C1002 C1006 1.401 . S
C1002 C1007 1.499 . S
N1003 Co986 1.989 . S
N1003 C1002 1.342 . S
N1003 N1004 1.388 . S
N1004 Co987 1.993 . S
N1004 N1003 1.388 . S
N1004 C1005 1.346 . S
C1005 N1004 1.346 . S
C1005 C1006 1.396 . S
C1005 C1015 1.510 . S
C1006 C1002 1.401 . S
C1006 C1005 1.396 . S
C1007 C1002 1.499 . S
C1007 H1008 0.959 . S
C1007 H1009 0.960 . S
C1007 H1010 0.961 . S
H1008 C1007 0.959 . S
H1009 C1007 0.960 . S
H1010 C1007 0.961 . S
O1011 Co986 1.967 . S
O1011 C1019 1.258 . S
O1012 Co987 1.941 . S
O1012 C1019 1.266 . S
H1013 C1015 0.959 . S
H1014 C1015 0.961 . S
C1015 C1005 1.510 . S
C1015 H1013 0.959 . S
C1015 H1014 0.961 . S
C1015 H1016 0.960 . S
H1016 C1015 0.960 . S
H1017 N997 0.862 . S
O1018 Co986 1.920 . S
O1018 C991 1.289 . S
C1019 O1011 1.258 . S
C1019 O1012 1.266 . S
Co1020 O1023 1.970 . S
Co1020 N1037 1.989 . S
Co1020 O1045 1.967 1_655 S
Co1020 O1052 1.920 . S
Co1021 O1024 1.966 . S
Co1021 N1030 2.022 . S
Co1021 N1038 1.993 1_455 S
Co1021 O1046 1.941 . S
C1022 O1023 1.227 1_455 S
C1022 O1024 1.290 . S
O1023 Co1020 1.970 . S
O1023 C1022 1.227 1_655 S
O1024 Co1021 1.966 . S
O1024 C1022 1.290 . S
C1025 O1026 1.235 . S
C1025 O1052 1.289 . S
O1026 C1025 1.235 . S
C1027 C1029 1.400 . S
C1027 N1030 1.351 . S
C1027 C1032 1.501 . S
C1028 C1029 1.387 . S
C1028 N1031 1.341 . S
C1029 C1027 1.400 . S
C1029 C1028 1.387 . S
N1030 Co1021 2.022 . S
N1030 C1027 1.351 . S
N1030 N1031 1.365 . S
N1031 C1028 1.341 . S
N1031 N1030 1.365 . S
N1031 H1051 0.862 . S
C1032 C1027 1.501 . S
C1032 H1033 0.961 . S
C1032 H1034 0.961 . S
C1032 H1035 0.960 . S
H1033 C1032 0.961 . S
H1034 C1032 0.961 . S
H1035 C1032 0.960 . S
C1036 N1037 1.342 . S
C1036 C1040 1.401 . S
C1036 C1041 1.499 . S
N1037 Co1020 1.989 . S
N1037 C1036 1.342 . S
N1037 N1038 1.388 . S
N1038 Co1021 1.993 1_655 S
N1038 N1037 1.388 . S
N1038 C1039 1.346 . S
C1039 N1038 1.346 . S
C1039 C1040 1.396 . S
C1039 C1049 1.510 1_655 S
C1040 C1036 1.401 . S
C1040 C1039 1.396 . S
C1041 C1036 1.499 . S
C1041 H1042 0.959 . S
C1041 H1043 0.960 . S
C1041 H1044 0.961 . S
H1042 C1041 0.959 . S
H1043 C1041 0.960 . S
H1044 C1041 0.961 . S
O1045 Co1020 1.967 1_455 S
O1045 C1053 1.258 . S
O1046 Co1021 1.941 . S
O1046 C1053 1.266 . S
H1047 C1049 0.959 . S
H1048 C1049 0.961 1_655 S
C1049 C1039 1.510 1_455 S
C1049 H1047 0.959 . S
C1049 H1048 0.961 1_455 S
C1049 H1050 0.960 . S
H1050 C1049 0.960 . S
H1051 N1031 0.862 . S
O1052 Co1020 1.920 . S
O1052 C1025 1.289 . S
C1053 O1045 1.258 . S
C1053 O1046 1.266 . S
Co1054 O1057 1.970 . S
Co1054 N1071 1.989 . S
Co1054 O1079 1.967 . S
Co1054 O1086 1.920 . S
Co1055 O1058 1.966 . S
Co1055 N1064 2.022 . S
Co1055 N1072 1.993 . S
Co1055 O1080 1.941 . S
C1056 O1057 1.258 . S
C1056 O1058 1.263 . S
O1057 Co1054 1.970 . S
O1057 C1056 1.258 . S
O1058 Co1055 1.966 . S
O1058 C1056 1.263 . S
C1059 O1060 1.235 . S
C1059 O1086 1.289 . S
O1060 C1059 1.235 . S
C1061 C1063 1.400 . S
C1061 N1064 1.351 . S
C1061 C1066 1.501 . S
C1062 C1063 1.387 . S
C1062 N1065 1.341 . S
C1063 C1061 1.400 . S
C1063 C1062 1.387 . S
N1064 Co1055 2.022 . S
N1064 C1061 1.351 . S
N1064 N1065 1.365 . S
N1065 C1062 1.341 . S
N1065 N1064 1.365 . S
N1065 H1085 0.862 . S
C1066 C1061 1.501 . S
C1066 H1067 0.961 . S
C1066 H1068 0.961 . S
C1066 H1069 0.960 . S
H1067 C1066 0.961 . S
H1068 C1066 0.961 . S
H1069 C1066 0.960 . S
C1070 N1071 1.342 . S
C1070 C1074 1.401 . S
C1070 C1075 1.499 . S
N1071 Co1054 1.989 . S
N1071 C1070 1.342 . S
N1071 N1072 1.388 . S
N1072 Co1055 1.993 . S
N1072 N1071 1.388 . S
N1072 C1073 1.346 . S
C1073 N1072 1.346 . S
C1073 C1074 1.396 . S
C1073 C1083 1.510 . S
C1074 C1070 1.401 . S
C1074 C1073 1.396 . S
C1075 C1070 1.499 . S
C1075 H1076 0.959 . S
C1075 H1077 0.960 . S
C1075 H1078 0.961 . S
H1076 C1075 0.959 . S
H1077 C1075 0.960 . S
H1078 C1075 0.961 . S
O1079 Co1054 1.967 . S
O1079 C1087 1.258 . S
O1080 Co1055 1.941 . S
O1080 C1087 1.266 . S
H1081 C1083 0.959 . S
H1082 C1083 0.961 . S
C1083 C1073 1.510 . S
C1083 H1081 0.959 . S
C1083 H1082 0.961 . S
C1083 H1084 0.960 . S
H1084 C1083 0.960 . S
H1085 N1065 0.862 . S
O1086 Co1054 1.920 . S
O1086 C1059 1.289 . S
C1087 O1079 1.258 . S
C1087 O1080 1.266 . S
Co1088 O1091 1.970 . S
Co1088 N1105 1.989 . S
Co1088 O1113 1.967 . S
Co1088 O1120 1.920 . S
Co1089 O1092 1.966 . S
Co1089 N1098 2.022 . S
Co1089 N1106 1.993 . S
Co1089 O1114 1.941 . S
C1090 O1091 1.258 . S
C1090 O1092 1.263 . S
O1091 Co1088 1.970 . S
O1091 C1090 1.258 . S
O1092 Co1089 1.966 . S
O1092 C1090 1.263 . S
C1093 O1094 1.235 . S
C1093 O1120 1.289 . S
O1094 C1093 1.235 . S
C1095 C1097 1.400 . S
C1095 N1098 1.351 . S
C1095 C1100 1.501 . S
C1096 C1097 1.387 . S
C1096 N1099 1.341 . S
C1097 C1095 1.400 . S
C1097 C1096 1.387 . S
N1098 Co1089 2.022 . S
N1098 C1095 1.351 . S
N1098 N1099 1.365 . S
N1099 C1096 1.341 . S
N1099 N1098 1.365 . S
N1099 H1119 0.862 . S
C1100 C1095 1.501 . S
C1100 H1101 0.961 . S
C1100 H1102 0.961 . S
C1100 H1103 0.960 . S
H1101 C1100 0.961 . S
H1102 C1100 0.961 . S
H1103 C1100 0.960 . S
C1104 N1105 1.342 . S
C1104 C1108 1.401 . S
C1104 C1109 1.499 . S
N1105 Co1088 1.989 . S
N1105 C1104 1.342 . S
N1105 N1106 1.388 . S
N1106 Co1089 1.993 . S
N1106 N1105 1.388 . S
N1106 C1107 1.346 . S
C1107 N1106 1.346 . S
C1107 C1108 1.396 . S
C1107 C1117 1.510 . S
C1108 C1104 1.401 . S
C1108 C1107 1.396 . S
C1109 C1104 1.499 . S
C1109 H1110 0.959 . S
C1109 H1111 0.960 . S
C1109 H1112 0.961 . S
H1110 C1109 0.959 . S
H1111 C1109 0.960 . S
H1112 C1109 0.961 . S
O1113 Co1088 1.967 . S
O1113 C1121 1.258 . S
O1114 Co1089 1.941 . S
O1114 C1121 1.266 . S
H1115 C1117 0.959 . S
H1116 C1117 0.961 . S
C1117 C1107 1.510 . S
C1117 H1115 0.959 . S
C1117 H1116 0.961 . S
C1117 H1118 0.960 . S
H1118 C1117 0.960 . S
H1119 N1099 0.862 . S
O1120 Co1088 1.920 . S
O1120 C1093 1.289 . S
C1121 O1113 1.258 . S
C1121 O1114 1.266 . S
Co1122 O1125 1.970 . S
Co1122 N1139 1.989 . S
Co1122 O1147 1.967 . S
Co1122 O1154 1.920 . S
Co1123 O1126 1.966 . S
Co1123 N1132 2.022 . S
Co1123 N1140 1.993 . S
Co1123 O1148 1.941 . S
C1124 O1125 1.258 . S
C1124 O1126 1.263 . S
O1125 Co1122 1.970 . S
O1125 C1124 1.258 . S
O1126 Co1123 1.966 . S
O1126 C1124 1.263 . S
C1127 O1128 1.235 . S
C1127 O1154 1.289 . S
O1128 C1127 1.235 . S
C1129 C1131 1.400 . S
C1129 N1132 1.351 . S
C1129 C1134 1.501 . S
C1130 C1131 1.387 . S
C1130 N1133 1.341 . S
C1131 C1129 1.400 . S
C1131 C1130 1.387 . S
N1132 Co1123 2.022 . S
N1132 C1129 1.351 . S
N1132 N1133 1.365 . S
N1133 C1130 1.341 . S
N1133 N1132 1.365 . S
N1133 H1153 0.862 . S
C1134 C1129 1.501 . S
C1134 H1135 0.961 . S
C1134 H1136 0.961 . S
C1134 H1137 0.960 . S
H1135 C1134 0.961 . S
H1136 C1134 0.961 . S
H1137 C1134 0.960 . S
C1138 N1139 1.342 . S
C1138 C1142 1.401 . S
C1138 C1143 1.499 . S
N1139 Co1122 1.989 . S
N1139 C1138 1.342 . S
N1139 N1140 1.388 . S
N1140 Co1123 1.993 . S
N1140 N1139 1.388 . S
N1140 C1141 1.346 . S
C1141 N1140 1.346 . S
C1141 C1142 1.396 . S
C1141 C1151 1.510 . S
C1142 C1138 1.401 . S
C1142 C1141 1.396 . S
C1143 C1138 1.499 . S
C1143 H1144 0.959 . S
C1143 H1145 0.960 . S
C1143 H1146 0.961 . S
H1144 C1143 0.959 . S
H1145 C1143 0.960 . S
H1146 C1143 0.961 . S
O1147 Co1122 1.967 . S
O1147 C1155 1.258 . S
O1148 Co1123 1.941 . S
O1148 C1155 1.266 . S
H1149 C1151 0.959 . S
H1150 C1151 0.961 . S
C1151 C1141 1.510 . S
C1151 H1149 0.959 . S
C1151 H1150 0.961 . S
C1151 H1152 0.960 . S
H1152 C1151 0.960 . S
H1153 N1133 0.862 . S
O1154 Co1122 1.920 . S
O1154 C1127 1.289 . S
C1155 O1147 1.258 . S
C1155 O1148 1.266 . S
Co1156 O1159 1.970 . S
Co1156 N1173 1.989 . S
Co1156 O1181 1.967 . S
Co1156 O1188 1.920 . S
Co1157 O1160 1.966 . S
Co1157 N1166 2.022 . S
Co1157 N1174 1.993 . S
Co1157 O1182 1.941 . S
C1158 O1159 1.258 . S
C1158 O1160 1.263 . S
O1159 Co1156 1.970 . S
O1159 C1158 1.258 . S
O1160 Co1157 1.966 . S
O1160 C1158 1.263 . S
C1161 O1162 1.235 . S
C1161 O1188 1.289 . S
O1162 C1161 1.235 . S
C1163 C1165 1.400 . S
C1163 N1166 1.351 1_556 S
C1163 C1168 1.501 . S
C1164 C1165 1.387 1_554 S
C1164 N1167 1.341 . S
C1165 C1163 1.400 . S
C1165 C1164 1.387 1_556 S
N1166 Co1157 2.022 . S
N1166 C1163 1.351 1_554 S
N1166 N1167 1.365 . S
N1167 C1164 1.341 . S
N1167 N1166 1.365 . S
N1167 H1187 0.862 . S
C1168 C1163 1.501 . S
C1168 H1169 0.961 . S
C1168 H1170 0.961 . S
C1168 H1171 0.960 . S
H1169 C1168 0.961 . S
H1170 C1168 0.961 . S
H1171 C1168 0.960 . S
C1172 N1173 1.342 . S
C1172 C1176 1.401 . S
C1172 C1177 1.499 . S
N1173 Co1156 1.989 . S
N1173 C1172 1.342 . S
N1173 N1174 1.388 . S
N1174 Co1157 1.993 . S
N1174 N1173 1.388 . S
N1174 C1175 1.346 . S
C1175 N1174 1.346 . S
C1175 C1176 1.396 . S
C1175 C1185 1.510 . S
C1176 C1172 1.401 . S
C1176 C1175 1.396 . S
C1177 C1172 1.499 . S
C1177 H1178 0.959 . S
C1177 H1179 0.960 . S
C1177 H1180 0.961 . S
H1178 C1177 0.959 . S
H1179 C1177 0.960 . S
H1180 C1177 0.961 . S
O1181 Co1156 1.967 . S
O1181 C1189 1.258 . S
O1182 Co1157 1.941 . S
O1182 C1189 1.266 . S
H1183 C1185 0.959 . S
H1184 C1185 0.961 . S
C1185 C1175 1.510 . S
C1185 H1183 0.959 . S
C1185 H1184 0.961 . S
C1185 H1186 0.960 . S
H1186 C1185 0.960 . S
H1187 N1167 0.862 . S
O1188 Co1156 1.920 . S
O1188 C1161 1.289 . S
C1189 O1181 1.258 . S
C1189 O1182 1.266 . S
Co1190 O1193 1.970 . S
Co1190 N1207 1.989 . S
Co1190 O1215 1.967 . S
Co1190 O1222 1.920 . S
Co1191 O1194 1.966 . S
Co1191 N1200 2.022 . S
Co1191 N1208 1.993 . S
Co1191 O1216 1.941 . S
C1192 O1193 1.258 . S
C1192 O1194 1.263 . S
O1193 Co1190 1.970 . S
O1193 C1192 1.258 . S
O1194 Co1191 1.966 . S
O1194 C1192 1.263 . S
C1195 O1196 1.235 . S
C1195 O1222 1.289 . S
O1196 C1195 1.235 . S
C1197 C1199 1.400 . S
C1197 N1200 1.351 . S
C1197 C1202 1.501 . S
C1198 C1199 1.387 . S
C1198 N1201 1.341 . S
C1199 C1197 1.400 . S
C1199 C1198 1.387 . S
N1200 Co1191 2.022 . S
N1200 C1197 1.351 . S
N1200 N1201 1.365 . S
N1201 C1198 1.341 . S
N1201 N1200 1.365 . S
N1201 H1221 0.862 . S
C1202 C1197 1.501 . S
C1202 H1203 0.961 . S
C1202 H1204 0.961 . S
C1202 H1205 0.960 . S
H1203 C1202 0.961 . S
H1204 C1202 0.961 . S
H1205 C1202 0.960 . S
C1206 N1207 1.342 . S
C1206 C1210 1.401 . S
C1206 C1211 1.499 . S
N1207 Co1190 1.989 . S
N1207 C1206 1.342 . S
N1207 N1208 1.388 . S
N1208 Co1191 1.993 . S
N1208 N1207 1.388 . S
N1208 C1209 1.346 . S
C1209 N1208 1.346 . S
C1209 C1210 1.396 . S
C1209 C1219 1.510 . S
C1210 C1206 1.401 . S
C1210 C1209 1.396 . S
C1211 C1206 1.499 . S
C1211 H1212 0.959 . S
C1211 H1213 0.960 . S
C1211 H1214 0.961 . S
H1212 C1211 0.959 . S
H1213 C1211 0.960 . S
H1214 C1211 0.961 . S
O1215 Co1190 1.967 . S
O1215 C1223 1.258 . S
O1216 Co1191 1.941 . S
O1216 C1223 1.266 . S
H1217 C1219 0.959 . S
H1218 C1219 0.961 . S
C1219 C1209 1.510 . S
C1219 H1217 0.959 . S
C1219 H1218 0.961 . S
C1219 H1220 0.960 . S
H1220 C1219 0.960 . S
H1221 N1201 0.862 . S
O1222 Co1190 1.920 . S
O1222 C1195 1.289 . S
C1223 O1215 1.258 . S
C1223 O1216 1.266 . S
Co1224 O1227 1.970 . S
Co1224 N1241 1.989 . S
Co1224 O1249 1.967 . S
Co1224 O1256 1.920 . S
Co1225 O1228 1.966 . S
Co1225 N1234 2.022 . S
Co1225 N1242 1.993 . S
Co1225 O1250 1.941 . S
C1226 O1227 1.258 . S
C1226 O1228 1.263 . S
O1227 Co1224 1.970 . S
O1227 C1226 1.258 . S
O1228 Co1225 1.966 . S
O1228 C1226 1.263 . S
C1229 O1230 1.235 . S
C1229 O1256 1.289 . S
O1230 C1229 1.235 . S
C1231 C1233 1.400 . S
C1231 N1234 1.351 1_554 S
C1231 C1236 1.501 . S
C1232 C1233 1.387 1_556 S
C1232 N1235 1.341 . S
C1233 C1231 1.400 . S
C1233 C1232 1.387 1_554 S
N1234 Co1225 2.022 . S
N1234 C1231 1.351 1_556 S
N1234 N1235 1.365 . S
N1235 C1232 1.341 . S
N1235 N1234 1.365 . S
N1235 H1255 0.862 . S
C1236 C1231 1.501 . S
C1236 H1237 0.961 . S
C1236 H1238 0.961 . S
C1236 H1239 0.960 . S
H1237 C1236 0.961 . S
H1238 C1236 0.961 . S
H1239 C1236 0.960 . S
C1240 N1241 1.342 . S
C1240 C1244 1.401 . S
C1240 C1245 1.499 . S
N1241 Co1224 1.989 . S
N1241 C1240 1.342 . S
N1241 N1242 1.388 . S
N1242 Co1225 1.993 . S
N1242 N1241 1.388 . S
N1242 C1243 1.346 . S
C1243 N1242 1.346 . S
C1243 C1244 1.396 . S
C1243 C1253 1.510 . S
C1244 C1240 1.401 . S
C1244 C1243 1.396 . S
C1245 C1240 1.499 . S
C1245 H1246 0.959 . S
C1245 H1247 0.960 . S
C1245 H1248 0.961 . S
H1246 C1245 0.959 . S
H1247 C1245 0.960 . S
H1248 C1245 0.961 . S
O1249 Co1224 1.967 . S
O1249 C1257 1.258 . S
O1250 Co1225 1.941 . S
O1250 C1257 1.266 . S
H1251 C1253 0.959 . S
H1252 C1253 0.961 . S
C1253 C1243 1.510 . S
C1253 H1251 0.959 . S
C1253 H1252 0.961 . S
C1253 H1254 0.960 . S
H1254 C1253 0.960 . S
H1255 N1235 0.862 . S
O1256 Co1224 1.920 . S
O1256 C1229 1.289 . S
C1257 O1249 1.258 . S
C1257 O1250 1.266 . S
Co1258 O1261 1.970 . S
Co1258 N1275 1.989 . S
Co1258 O1283 1.967 . S
Co1258 O1290 1.920 . S
Co1259 O1262 1.966 . S
Co1259 N1268 2.022 . S
Co1259 N1276 1.993 . S
Co1259 O1284 1.941 . S
C1260 O1261 1.258 . S
C1260 O1262 1.263 . S
O1261 Co1258 1.970 . S
O1261 C1260 1.258 . S
O1262 Co1259 1.966 . S
O1262 C1260 1.263 . S
C1263 O1264 1.235 . S
C1263 O1290 1.289 . S
O1264 C1263 1.235 . S
C1265 C1267 1.400 . S
C1265 N1268 1.351 . S
C1265 C1270 1.501 . S
C1266 C1267 1.387 . S
C1266 N1269 1.341 . S
C1267 C1265 1.400 . S
C1267 C1266 1.387 . S
N1268 Co1259 2.022 . S
N1268 C1265 1.351 . S
N1268 N1269 1.365 . S
N1269 C1266 1.341 . S
N1269 N1268 1.365 . S
N1269 H1289 0.862 . S
C1270 C1265 1.501 . S
C1270 H1271 0.961 . S
C1270 H1272 0.961 . S
C1270 H1273 0.960 . S
H1271 C1270 0.961 . S
H1272 C1270 0.961 . S
H1273 C1270 0.960 . S
C1274 N1275 1.342 . S
C1274 C1278 1.401 . S
C1274 C1279 1.499 . S
N1275 Co1258 1.989 . S
N1275 C1274 1.342 . S
N1275 N1276 1.388 . S
N1276 Co1259 1.993 . S
N1276 N1275 1.388 . S
N1276 C1277 1.346 . S
C1277 N1276 1.346 . S
C1277 C1278 1.396 . S
C1277 C1287 1.510 . S
C1278 C1274 1.401 . S
C1278 C1277 1.396 . S
C1279 C1274 1.499 . S
C1279 H1280 0.959 . S
C1279 H1281 0.960 . S
C1279 H1282 0.961 . S
H1280 C1279 0.959 . S
H1281 C1279 0.960 . S
H1282 C1279 0.961 . S
O1283 Co1258 1.967 . S
O1283 C1291 1.258 . S
O1284 Co1259 1.941 . S
O1284 C1291 1.266 . S
H1285 C1287 0.959 . S
H1286 C1287 0.961 . S
C1287 C1277 1.510 . S
C1287 H1285 0.959 . S
C1287 H1286 0.961 . S
C1287 H1288 0.960 . S
H1288 C1287 0.960 . S
H1289 N1269 0.862 . S
O1290 Co1258 1.920 . S
O1290 C1263 1.289 . S
C1291 O1283 1.258 . S
C1291 O1284 1.266 . S
Co1292 O1295 1.970 . S
Co1292 N1309 1.989 . S
Co1292 O1317 1.967 . S
Co1292 O1324 1.920 . S
Co1293 O1296 1.966 . S
Co1293 N1302 2.022 . S
Co1293 N1310 1.993 . S
Co1293 O1318 1.941 . S
C1294 O1295 1.258 . S
C1294 O1296 1.263 . S
O1295 Co1292 1.970 . S
O1295 C1294 1.258 . S
O1296 Co1293 1.966 . S
O1296 C1294 1.263 . S
C1297 O1298 1.235 . S
C1297 O1324 1.289 . S
O1298 C1297 1.235 . S
C1299 C1301 1.400 . S
C1299 N1302 1.351 . S
C1299 C1304 1.501 . S
C1300 C1301 1.387 . S
C1300 N1303 1.341 . S
C1301 C1299 1.400 . S
C1301 C1300 1.387 . S
N1302 Co1293 2.022 . S
N1302 C1299 1.351 . S
N1302 N1303 1.365 . S
N1303 C1300 1.341 . S
N1303 N1302 1.365 . S
N1303 H1323 0.862 . S
C1304 C1299 1.501 . S
C1304 H1305 0.961 . S
C1304 H1306 0.961 . S
C1304 H1307 0.960 . S
H1305 C1304 0.961 . S
H1306 C1304 0.961 . S
H1307 C1304 0.960 . S
C1308 N1309 1.342 . S
C1308 C1312 1.401 . S
C1308 C1313 1.499 . S
N1309 Co1292 1.989 . S
N1309 C1308 1.342 . S
N1309 N1310 1.388 . S
N1310 Co1293 1.993 . S
N1310 N1309 1.388 . S
N1310 C1311 1.346 . S
C1311 N1310 1.346 . S
C1311 C1312 1.396 . S
C1311 C1321 1.510 . S
C1312 C1308 1.401 . S
C1312 C1311 1.396 . S
C1313 C1308 1.499 . S
C1313 H1314 0.959 . S
C1313 H1315 0.960 . S
C1313 H1316 0.961 . S
H1314 C1313 0.959 . S
H1315 C1313 0.960 . S
H1316 C1313 0.961 . S
O1317 Co1292 1.967 . S
O1317 C1325 1.258 . S
O1318 Co1293 1.941 . S
O1318 C1325 1.266 . S
H1319 C1321 0.959 . S
H1320 C1321 0.961 . S
C1321 C1311 1.510 . S
C1321 H1319 0.959 . S
C1321 H1320 0.961 . S
C1321 H1322 0.960 . S
H1322 C1321 0.960 . S
H1323 N1303 0.862 . S
O1324 Co1292 1.920 . S
O1324 C1297 1.289 . S
C1325 O1317 1.258 . S
C1325 O1318 1.266 . S
Co1326 O1329 1.970 . S
Co1326 N1343 1.989 . S
Co1326 O1351 1.967 . S
Co1326 O1358 1.920 . S
Co1327 O1330 1.966 . S
Co1327 N1336 2.022 . S
Co1327 N1344 1.993 . S
Co1327 O1352 1.941 . S
C1328 O1329 1.258 . S
C1328 O1330 1.263 . S
O1329 Co1326 1.970 . S
O1329 C1328 1.258 . S
O1330 Co1327 1.966 . S
O1330 C1328 1.263 . S
C1331 O1332 1.235 . S
C1331 O1358 1.289 . S
O1332 C1331 1.235 . S
C1333 C1335 1.400 . S
C1333 N1336 1.351 . S
C1333 C1338 1.501 . S
C1334 C1335 1.387 . S
C1334 N1337 1.341 . S
C1335 C1333 1.400 . S
C1335 C1334 1.387 . S
N1336 Co1327 2.022 . S
N1336 C1333 1.351 . S
N1336 N1337 1.365 . S
N1337 C1334 1.341 . S
N1337 N1336 1.365 . S
N1337 H1357 0.862 . S
C1338 C1333 1.501 . S
C1338 H1339 0.961 . S
C1338 H1340 0.961 . S
C1338 H1341 0.960 . S
H1339 C1338 0.961 . S
H1340 C1338 0.961 . S
H1341 C1338 0.960 . S
C1342 N1343 1.342 . S
C1342 C1346 1.401 . S
C1342 C1347 1.499 . S
N1343 Co1326 1.989 . S
N1343 C1342 1.342 . S
N1343 N1344 1.388 . S
N1344 Co1327 1.993 . S
N1344 N1343 1.388 . S
N1344 C1345 1.346 . S
C1345 N1344 1.346 . S
C1345 C1346 1.396 . S
C1345 C1355 1.510 . S
C1346 C1342 1.401 . S
C1346 C1345 1.396 . S
C1347 C1342 1.499 . S
C1347 H1348 0.959 . S
C1347 H1349 0.960 . S
C1347 H1350 0.961 . S
H1348 C1347 0.959 . S
H1349 C1347 0.960 . S
H1350 C1347 0.961 . S
O1351 Co1326 1.967 . S
O1351 C1359 1.258 . S
O1352 Co1327 1.941 . S
O1352 C1359 1.266 . S
H1353 C1355 0.959 . S
H1354 C1355 0.961 . S
C1355 C1345 1.510 . S
C1355 H1353 0.959 . S
C1355 H1354 0.961 . S
C1355 H1356 0.960 . S
H1356 C1355 0.960 . S
H1357 N1337 0.862 . S
O1358 Co1326 1.920 . S
O1358 C1331 1.289 . S
C1359 O1351 1.258 . S
C1359 O1352 1.266 . S
Co1360 O1363 1.970 . S
Co1360 N1377 1.989 . S
Co1360 O1385 1.967 . S
Co1360 O1392 1.920 . S
Co1361 O1364 1.966 . S
Co1361 N1370 2.022 . S
Co1361 N1378 1.993 . S
Co1361 O1386 1.941 . S
C1362 O1363 1.258 . S
C1362 O1364 1.263 . S
O1363 Co1360 1.970 . S
O1363 C1362 1.258 . S
O1364 Co1361 1.966 . S
O1364 C1362 1.263 . S
C1365 O1366 1.235 . S
C1365 O1392 1.289 . S
O1366 C1365 1.235 . S
C1367 C1369 1.400 . S
C1367 N1370 1.351 . S
C1367 C1372 1.501 . S
C1368 C1369 1.387 . S
C1368 N1371 1.341 . S
C1369 C1367 1.400 . S
C1369 C1368 1.387 . S
N1370 Co1361 2.022 . S
N1370 C1367 1.351 . S
N1370 N1371 1.365 . S
N1371 C1368 1.341 . S
N1371 N1370 1.365 . S
N1371 H1391 0.862 . S
C1372 C1367 1.501 . S
C1372 H1373 0.961 . S
C1372 H1374 0.961 . S
C1372 H1375 0.960 . S
H1373 C1372 0.961 . S
H1374 C1372 0.961 . S
H1375 C1372 0.960 . S
C1376 N1377 1.342 . S
C1376 C1380 1.401 . S
C1376 C1381 1.499 . S
N1377 Co1360 1.989 . S
N1377 C1376 1.342 . S
N1377 N1378 1.388 . S
N1378 Co1361 1.993 . S
N1378 N1377 1.388 . S
N1378 C1379 1.346 . S
C1379 N1378 1.346 . S
C1379 C1380 1.396 . S
C1379 C1389 1.510 . S
C1380 C1376 1.401 . S
C1380 C1379 1.396 . S
C1381 C1376 1.499 . S
C1381 H1382 0.959 . S
C1381 H1383 0.960 . S
C1381 H1384 0.961 . S
H1382 C1381 0.959 . S
H1383 C1381 0.960 . S
H1384 C1381 0.961 . S
O1385 Co1360 1.967 . S
O1385 C1393 1.258 . S
O1386 Co1361 1.941 . S
O1386 C1393 1.266 . S
H1387 C1389 0.959 . S
H1388 C1389 0.961 . S
C1389 C1379 1.510 . S
C1389 H1387 0.959 . S
C1389 H1388 0.961 . S
C1389 H1390 0.960 . S
H1390 C1389 0.960 . S
H1391 N1371 0.862 . S
O1392 Co1360 1.920 . S
O1392 C1365 1.289 . S
C1393 O1385 1.258 . S
C1393 O1386 1.266 . S
Co1394 O1397 1.970 . S
Co1394 N1411 1.989 . S
Co1394 O1419 1.967 . S
Co1394 O1426 1.920 . S
Co1395 O1398 1.966 . S
Co1395 N1404 2.022 . S
Co1395 N1412 1.993 . S
Co1395 O1420 1.941 . S
C1396 O1397 1.258 . S
C1396 O1398 1.263 . S
O1397 Co1394 1.970 . S
O1397 C1396 1.258 . S
O1398 Co1395 1.966 . S
O1398 C1396 1.263 . S
C1399 O1400 1.235 . S
C1399 O1426 1.289 . S
O1400 C1399 1.235 . S
C1401 C1403 1.400 . S
C1401 N1404 1.351 1_655 S
C1401 C1406 1.501 . S
C1402 C1403 1.387 1_455 S
C1402 N1405 1.341 . S
C1403 C1401 1.400 . S
C1403 C1402 1.387 1_655 S
N1404 Co1395 2.022 . S
N1404 C1401 1.351 1_455 S
N1404 N1405 1.365 . S
N1405 C1402 1.341 . S
N1405 N1404 1.365 . S
N1405 H1425 0.862 . S
C1406 C1401 1.501 . S
C1406 H1407 0.961 . S
C1406 H1408 0.961 . S
C1406 H1409 0.960 . S
H1407 C1406 0.961 . S
H1408 C1406 0.961 . S
H1409 C1406 0.960 . S
C1410 N1411 1.342 . S
C1410 C1414 1.401 . S
C1410 C1415 1.499 . S
N1411 Co1394 1.989 . S
N1411 C1410 1.342 . S
N1411 N1412 1.388 . S
N1412 Co1395 1.993 . S
N1412 N1411 1.388 . S
N1412 C1413 1.346 . S
C1413 N1412 1.346 . S
C1413 C1414 1.396 . S
C1413 C1423 1.510 . S
C1414 C1410 1.401 . S
C1414 C1413 1.396 . S
C1415 C1410 1.499 . S
C1415 H1416 0.959 . S
C1415 H1417 0.960 . S
C1415 H1418 0.961 . S
H1416 C1415 0.959 . S
H1417 C1415 0.960 . S
H1418 C1415 0.961 . S
O1419 Co1394 1.967 . S
O1419 C1427 1.258 . S
O1420 Co1395 1.941 . S
O1420 C1427 1.266 . S
H1421 C1423 0.959 . S
H1422 C1423 0.961 . S
C1423 C1413 1.510 . S
C1423 H1421 0.959 . S
C1423 H1422 0.961 . S
C1423 H1424 0.960 . S
H1424 C1423 0.960 . S
H1425 N1405 0.862 . S
O1426 Co1394 1.920 . S
O1426 C1399 1.289 . S
C1427 O1419 1.258 . S
C1427 O1420 1.266 . S
Co1428 O1431 1.970 . S
Co1428 N1445 1.989 . S
Co1428 O1453 1.967 . S
Co1428 O1460 1.920 . S
Co1429 O1432 1.966 . S
Co1429 N1438 2.022 . S
Co1429 N1446 1.993 . S
Co1429 O1454 1.941 . S
C1430 O1431 1.258 . S
C1430 O1432 1.263 . S
O1431 Co1428 1.970 . S
O1431 C1430 1.258 . S
O1432 Co1429 1.966 . S
O1432 C1430 1.263 . S
C1433 O1434 1.235 . S
C1433 O1460 1.289 . S
O1434 C1433 1.235 . S
C1435 C1437 1.400 . S
C1435 N1438 1.351 . S
C1435 C1440 1.501 . S
C1436 C1437 1.387 . S
C1436 N1439 1.341 . S
C1437 C1435 1.400 . S
C1437 C1436 1.387 . S
N1438 Co1429 2.022 . S
N1438 C1435 1.351 . S
N1438 N1439 1.365 . S
N1439 C1436 1.341 . S
N1439 N1438 1.365 . S
N1439 H1459 0.862 . S
C1440 C1435 1.501 . S
C1440 H1441 0.961 . S
C1440 H1442 0.961 . S
C1440 H1443 0.960 . S
H1441 C1440 0.961 . S
H1442 C1440 0.961 . S
H1443 C1440 0.960 . S
C1444 N1445 1.342 . S
C1444 C1448 1.401 . S
C1444 C1449 1.499 . S
N1445 Co1428 1.989 . S
N1445 C1444 1.342 . S
N1445 N1446 1.388 . S
N1446 Co1429 1.993 . S
N1446 N1445 1.388 . S
N1446 C1447 1.346 . S
C1447 N1446 1.346 . S
C1447 C1448 1.396 . S
C1447 C1457 1.510 . S
C1448 C1444 1.401 . S
C1448 C1447 1.396 . S
C1449 C1444 1.499 . S
C1449 H1450 0.959 . S
C1449 H1451 0.960 . S
C1449 H1452 0.961 . S
H1450 C1449 0.959 . S
H1451 C1449 0.960 . S
H1452 C1449 0.961 . S
O1453 Co1428 1.967 . S
O1453 C1461 1.258 . S
O1454 Co1429 1.941 . S
O1454 C1461 1.266 . S
H1455 C1457 0.959 . S
H1456 C1457 0.961 . S
C1457 C1447 1.510 . S
C1457 H1455 0.959 . S
C1457 H1456 0.961 . S
C1457 H1458 0.960 . S
H1458 C1457 0.960 . S
H1459 N1439 0.862 . S
O1460 Co1428 1.920 . S
O1460 C1433 1.289 . S
C1461 O1453 1.258 . S
C1461 O1454 1.266 . S
Co1462 O1465 1.970 . S
Co1462 N1479 1.989 . S
Co1462 O1487 1.967 1_556 S
Co1462 O1494 1.920 . S
Co1463 O1466 1.966 . S
Co1463 N1472 2.022 . S
Co1463 N1480 1.993 1_554 S
Co1463 O1488 1.941 . S
C1464 O1465 1.227 1_554 S
C1464 O1466 1.290 . S
O1465 Co1462 1.970 . S
O1465 C1464 1.227 1_556 S
O1466 Co1463 1.966 . S
O1466 C1464 1.290 . S
C1467 O1468 1.235 . S
C1467 O1494 1.289 . S
O1468 C1467 1.235 . S
C1469 C1471 1.400 . S
C1469 N1472 1.351 . S
C1469 C1474 1.501 . S
C1470 C1471 1.387 . S
C1470 N1473 1.341 . S
C1471 C1469 1.400 . S
C1471 C1470 1.387 . S
N1472 Co1463 2.022 . S
N1472 C1469 1.351 . S
N1472 N1473 1.365 . S
N1473 C1470 1.341 . S
N1473 N1472 1.365 . S
N1473 H1493 0.862 . S
C1474 C1469 1.501 . S
C1474 H1475 0.961 . S
C1474 H1476 0.961 . S
C1474 H1477 0.960 . S
H1475 C1474 0.961 . S
H1476 C1474 0.961 . S
H1477 C1474 0.960 . S
C1478 N1479 1.342 . S
C1478 C1482 1.401 . S
C1478 C1483 1.499 . S
N1479 Co1462 1.989 . S
N1479 C1478 1.342 . S
N1479 N1480 1.388 . S
N1480 Co1463 1.993 1_556 S
N1480 N1479 1.388 . S
N1480 C1481 1.346 . S
C1481 N1480 1.346 . S
C1481 C1482 1.396 . S
C1481 C1491 1.510 1_556 S
C1482 C1478 1.401 . S
C1482 C1481 1.396 . S
C1483 C1478 1.499 . S
C1483 H1484 0.959 . S
C1483 H1485 0.960 . S
C1483 H1486 0.961 . S
H1484 C1483 0.959 . S
H1485 C1483 0.960 . S
H1486 C1483 0.961 . S
O1487 Co1462 1.967 1_554 S
O1487 C1495 1.258 . S
O1488 Co1463 1.941 . S
O1488 C1495 1.266 . S
H1489 C1491 0.959 . S
H1490 C1491 0.961 1_556 S
C1491 C1481 1.510 1_554 S
C1491 H1489 0.959 . S
C1491 H1490 0.961 1_554 S
C1491 H1492 0.960 . S
H1492 C1491 0.960 . S
H1493 N1473 0.862 . S
O1494 Co1462 1.920 . S
O1494 C1467 1.289 . S
C1495 O1487 1.258 . S
C1495 O1488 1.266 . S
Co1496 O1499 1.970 . S
Co1496 N1513 1.989 . S
Co1496 O1521 1.967 . S
Co1496 O1528 1.920 . S
Co1497 O1500 1.966 . S
Co1497 N1506 2.022 . S
Co1497 N1514 1.993 . S
Co1497 O1522 1.941 . S
C1498 O1499 1.258 . S
C1498 O1500 1.263 . S
O1499 Co1496 1.970 . S
O1499 C1498 1.258 . S
O1500 Co1497 1.966 . S
O1500 C1498 1.263 . S
C1501 O1502 1.235 . S
C1501 O1528 1.289 . S
O1502 C1501 1.235 . S
C1503 C1505 1.400 . S
C1503 N1506 1.351 . S
C1503 C1508 1.501 . S
C1504 C1505 1.387 . S
C1504 N1507 1.341 . S
C1505 C1503 1.400 . S
C1505 C1504 1.387 . S
N1506 Co1497 2.022 . S
N1506 C1503 1.351 . S
N1506 N1507 1.365 . S
N1507 C1504 1.341 . S
N1507 N1506 1.365 . S
N1507 H1527 0.862 . S
C1508 C1503 1.501 . S
C1508 H1509 0.961 . S
C1508 H1510 0.961 . S
C1508 H1511 0.960 . S
H1509 C1508 0.961 . S
H1510 C1508 0.961 . S
H1511 C1508 0.960 . S
C1512 N1513 1.342 . S
C1512 C1516 1.401 . S
C1512 C1517 1.499 . S
N1513 Co1496 1.989 . S
N1513 C1512 1.342 . S
N1513 N1514 1.388 . S
N1514 Co1497 1.993 . S
N1514 N1513 1.388 . S
N1514 C1515 1.346 . S
C1515 N1514 1.346 . S
C1515 C1516 1.396 . S
C1515 C1525 1.510 . S
C1516 C1512 1.401 . S
C1516 C1515 1.396 . S
C1517 C1512 1.499 . S
C1517 H1518 0.959 . S
C1517 H1519 0.960 . S
C1517 H1520 0.961 . S
H1518 C1517 0.959 . S
H1519 C1517 0.960 . S
H1520 C1517 0.961 . S
O1521 Co1496 1.967 . S
O1521 C1529 1.258 . S
O1522 Co1497 1.941 . S
O1522 C1529 1.266 . S
H1523 C1525 0.959 . S
H1524 C1525 0.961 . S
C1525 C1515 1.510 . S
C1525 H1523 0.959 . S
C1525 H1524 0.961 . S
C1525 H1526 0.960 . S
H1526 C1525 0.960 . S
H1527 N1507 0.862 . S
O1528 Co1496 1.920 . S
O1528 C1501 1.289 . S
C1529 O1521 1.258 . S
C1529 O1522 1.266 . S
Co1530 O1533 1.970 . S
Co1530 N1547 1.989 . S
Co1530 O1555 1.967 1_554 S
Co1530 O1562 1.920 . S
Co1531 O1534 1.966 . S
Co1531 N1540 2.022 . S
Co1531 N1548 1.993 1_556 S
Co1531 O1556 1.941 . S
C1532 O1533 1.258 1_556 S
C1532 O1534 1.263 . S
O1533 Co1530 1.970 . S
O1533 C1532 1.258 1_554 S
O1534 Co1531 1.966 . S
O1534 C1532 1.263 . S
C1535 O1536 1.235 . S
C1535 O1562 1.289 . S
O1536 C1535 1.235 . S
C1537 C1539 1.400 . S
C1537 N1540 1.351 1_455 S
C1537 C1542 1.501 . S
C1538 C1539 1.387 1_655 S
C1538 N1541 1.341 . S
C1539 C1537 1.400 . S
C1539 C1538 1.387 1_455 S
N1540 Co1531 2.022 . S
N1540 C1537 1.351 1_655 S
N1540 N1541 1.365 . S
N1541 C1538 1.341 . S
N1541 N1540 1.365 . S
N1541 H1561 0.862 . S
C1542 C1537 1.501 . S
C1542 H1543 0.961 . S
C1542 H1544 0.961 . S
C1542 H1545 0.960 . S
H1543 C1542 0.961 . S
H1544 C1542 0.961 . S
H1545 C1542 0.960 . S
C1546 N1547 1.342 . S
C1546 C1550 1.401 . S
C1546 C1551 1.499 . S
N1547 Co1530 1.989 . S
N1547 C1546 1.342 . S
N1547 N1548 1.388 . S
N1548 Co1531 1.993 1_554 S
N1548 N1547 1.388 . S
N1548 C1549 1.346 . S
C1549 N1548 1.346 . S
C1549 C1550 1.396 . S
C1549 C1559 1.510 1_554 S
C1550 C1546 1.401 . S
C1550 C1549 1.396 . S
C1551 C1546 1.499 . S
C1551 H1552 0.959 . S
C1551 H1553 0.960 . S
C1551 H1554 0.961 . S
H1552 C1551 0.959 . S
H1553 C1551 0.960 . S
H1554 C1551 0.961 . S
O1555 Co1530 1.967 1_556 S
O1555 C1563 1.258 . S
O1556 Co1531 1.941 . S
O1556 C1563 1.266 . S
H1557 C1559 0.959 . S
H1558 C1559 0.961 1_554 S
C1559 C1549 1.510 1_556 S
C1559 H1557 0.959 . S
C1559 H1558 0.961 1_556 S
C1559 H1560 0.960 . S
H1560 C1559 0.960 . S
H1561 N1541 0.862 . S
O1562 Co1530 1.920 . S
O1562 C1535 1.289 . S
C1563 O1555 1.258 . S
C1563 O1556 1.266 . S
Co1564 O1567 1.970 . S
Co1564 N1581 1.989 . S
Co1564 O1589 1.967 . S
Co1564 O1596 1.920 . S
Co1565 O1568 1.966 . S
Co1565 N1574 2.022 . S
Co1565 N1582 1.993 . S
Co1565 O1590 1.941 . S
C1566 O1567 1.258 . S
C1566 O1568 1.263 . S
O1567 Co1564 1.970 . S
O1567 C1566 1.258 . S
O1568 Co1565 1.966 . S
O1568 C1566 1.263 . S
C1569 O1570 1.235 . S
C1569 O1596 1.289 . S
O1570 C1569 1.235 . S
C1571 C1573 1.400 . S
C1571 N1574 1.351 . S
C1571 C1576 1.501 . S
C1572 C1573 1.387 . S
C1572 N1575 1.341 . S
C1573 C1571 1.400 . S
C1573 C1572 1.387 . S
N1574 Co1565 2.022 . S
N1574 C1571 1.351 . S
N1574 N1575 1.365 . S
N1575 C1572 1.341 . S
N1575 N1574 1.365 . S
N1575 H1595 0.862 . S
C1576 C1571 1.501 . S
C1576 H1577 0.961 . S
C1576 H1578 0.961 . S
C1576 H1579 0.960 . S
H1577 C1576 0.961 . S
H1578 C1576 0.961 . S
H1579 C1576 0.960 . S
C1580 N1581 1.342 . S
C1580 C1584 1.401 . S
C1580 C1585 1.499 . S
N1581 Co1564 1.989 . S
N1581 C1580 1.342 . S
N1581 N1582 1.388 . S
N1582 Co1565 1.993 . S
N1582 N1581 1.388 . S
N1582 C1583 1.346 . S
C1583 N1582 1.346 . S
C1583 C1584 1.396 . S
C1583 C1593 1.510 . S
C1584 C1580 1.401 . S
C1584 C1583 1.396 . S
C1585 C1580 1.499 . S
C1585 H1586 0.959 . S
C1585 H1587 0.960 . S
C1585 H1588 0.961 . S
H1586 C1585 0.959 . S
H1587 C1585 0.960 . S
H1588 C1585 0.961 . S
O1589 Co1564 1.967 . S
O1589 C1597 1.258 . S
O1590 Co1565 1.941 . S
O1590 C1597 1.266 . S
H1591 C1593 0.959 . S
H1592 C1593 0.961 . S
C1593 C1583 1.510 . S
C1593 H1591 0.959 . S
C1593 H1592 0.961 . S
C1593 H1594 0.960 . S
H1594 C1593 0.960 . S
H1595 N1575 0.862 . S
O1596 Co1564 1.920 . S
O1596 C1569 1.289 . S
C1597 O1589 1.258 . S
C1597 O1590 1.266 . S
Co1598 O1601 1.970 . S
Co1598 N1615 1.989 . S
Co1598 O1623 1.967 . S
Co1598 O1630 1.920 . S
Co1599 O1602 1.966 . S
Co1599 N1608 2.022 . S
Co1599 N1616 1.993 . S
Co1599 O1624 1.941 . S
C1600 O1601 1.258 . S
C1600 O1602 1.263 . S
O1601 Co1598 1.970 . S
O1601 C1600 1.258 . S
O1602 Co1599 1.966 . S
O1602 C1600 1.263 . S
C1603 O1604 1.235 . S
C1603 O1630 1.289 . S
O1604 C1603 1.235 . S
C1605 C1607 1.400 . S
C1605 N1608 1.351 . S
C1605 C1610 1.501 . S
C1606 C1607 1.387 . S
C1606 N1609 1.341 . S
C1607 C1605 1.400 . S
C1607 C1606 1.387 . S
N1608 Co1599 2.022 . S
N1608 C1605 1.351 . S
N1608 N1609 1.365 . S
N1609 C1606 1.341 . S
N1609 N1608 1.365 . S
N1609 H1629 0.862 . S
C1610 C1605 1.501 . S
C1610 H1611 0.961 . S
C1610 H1612 0.961 . S
C1610 H1613 0.960 . S
H1611 C1610 0.961 . S
H1612 C1610 0.961 . S
H1613 C1610 0.960 . S
C1614 N1615 1.342 . S
C1614 C1618 1.401 . S
C1614 C1619 1.499 . S
N1615 Co1598 1.989 . S
N1615 C1614 1.342 . S
N1615 N1616 1.388 . S
N1616 Co1599 1.993 . S
N1616 N1615 1.388 . S
N1616 C1617 1.346 . S
C1617 N1616 1.346 . S
C1617 C1618 1.396 . S
C1617 C1627 1.510 . S
C1618 C1614 1.401 . S
C1618 C1617 1.396 . S
C1619 C1614 1.499 . S
C1619 H1620 0.959 . S
C1619 H1621 0.960 . S
C1619 H1622 0.961 . S
H1620 C1619 0.959 . S
H1621 C1619 0.960 . S
H1622 C1619 0.961 . S
O1623 Co1598 1.967 . S
O1623 C1631 1.258 . S
O1624 Co1599 1.941 . S
O1624 C1631 1.266 . S
H1625 C1627 0.959 . S
H1626 C1627 0.961 . S
C1627 C1617 1.510 . S
C1627 H1625 0.959 . S
C1627 H1626 0.961 . S
C1627 H1628 0.960 . S
H1628 C1627 0.960 . S
H1629 N1609 0.862 . S
O1630 Co1598 1.920 . S
O1630 C1603 1.289 . S
C1631 O1623 1.258 . S
C1631 O1624 1.266 . S
C1632 C1633 1.363 . S
C1632 C1638 1.379 . S
C1632 N1640 1.356 . S
C1633 C1632 1.363 . S
C1633 C1639 1.363 . S
C1634 C1635 1.363 . S
C1634 C1639 1.379 . S
C1634 N1641 1.356 . S
C1635 C1634 1.363 . S
C1635 C1638 1.363 . S
N1636 C1638 1.356 . S
N1636 H1648 0.984 . S
N1636 H1649 0.985 . S
N1637 C1639 1.356 . S
N1637 H1642 0.984 . S
N1637 H1643 0.985 . S
C1638 C1632 1.379 . S
C1638 C1635 1.363 . S
C1638 N1636 1.356 . S
C1639 C1633 1.363 . S
C1639 C1634 1.379 . S
C1639 N1637 1.356 . S
N1640 C1632 1.356 . S
N1640 H1646 0.984 . S
N1640 H1647 0.984 . S
N1641 C1634 1.356 . S
N1641 H1644 0.984 . S
N1641 H1645 0.985 . S
H1642 N1637 0.984 . S
H1643 N1637 0.985 . S
H1644 N1641 0.984 . S
H1645 N1641 0.985 . S
H1646 N1640 0.984 . S
H1647 N1640 0.984 . S
H1648 N1636 0.984 . S
H1649 N1636 0.985 . S
C1650 C1651 1.363 . S
C1650 C1656 1.379 . S
C1650 N1658 1.356 . S
C1651 C1650 1.363 . S
C1651 C1657 1.363 . S
C1652 C1653 1.363 . S
C1652 C1657 1.379 . S
C1652 N1659 1.356 . S
C1653 C1652 1.363 . S
C1653 C1656 1.363 . S
N1654 C1656 1.356 . S
N1654 H1666 0.984 . S
N1654 H1667 0.985 . S
N1655 C1657 1.356 . S
N1655 H1660 0.984 . S
N1655 H1661 0.985 . S
C1656 C1650 1.379 . S
C1656 C1653 1.363 . S
C1656 N1654 1.356 . S
C1657 C1651 1.363 . S
C1657 C1652 1.379 . S
C1657 N1655 1.356 . S
N1658 C1650 1.356 . S
N1658 H1664 0.984 . S
N1658 H1665 0.984 . S
N1659 C1652 1.356 . S
N1659 H1662 0.984 . S
N1659 H1663 0.985 . S
H1660 N1655 0.984 . S
H1661 N1655 0.985 . S
H1662 N1659 0.984 . S
H1663 N1659 0.985 . S
H1664 N1658 0.984 . S
H1665 N1658 0.984 . S
H1666 N1654 0.984 . S
H1667 N1654 0.985 . S
C1668 C1669 1.363 . S
C1668 C1674 1.379 . S
C1668 N1676 1.356 . S
C1669 C1668 1.363 . S
C1669 C1675 1.363 . S
C1670 C1671 1.363 . S
C1670 C1675 1.379 . S
C1670 N1677 1.356 . S
C1671 C1670 1.363 . S
C1671 C1674 1.363 . S
N1672 C1674 1.356 . S
N1672 H1684 0.984 . S
N1672 H1685 0.985 . S
N1673 C1675 1.356 . S
N1673 H1678 0.984 . S
N1673 H1679 0.985 . S
C1674 C1668 1.379 . S
C1674 C1671 1.363 . S
C1674 N1672 1.356 . S
C1675 C1669 1.363 . S
C1675 C1670 1.379 . S
C1675 N1673 1.356 . S
N1676 C1668 1.356 . S
N1676 H1682 0.984 . S
N1676 H1683 0.984 . S
N1677 C1670 1.356 . S
N1677 H1680 0.984 . S
N1677 H1681 0.985 . S
H1678 N1673 0.984 . S
H1679 N1673 0.985 . S
H1680 N1677 0.984 . S
H1681 N1677 0.985 . S
H1682 N1676 0.984 . S
H1683 N1676 0.984 . S
H1684 N1672 0.984 . S
H1685 N1672 0.985 . S
C1686 C1687 1.363 . S
C1686 C1692 1.379 . S
C1686 N1694 1.356 . S
C1687 C1686 1.363 . S
C1687 C1693 1.363 . S
C1688 C1689 1.363 . S
C1688 C1693 1.379 . S
C1688 N1695 1.356 . S
C1689 C1688 1.363 . S
C1689 C1692 1.363 . S
N1690 C1692 1.356 . S
N1690 H1702 0.984 . S
N1690 H1703 0.985 . S
N1691 C1693 1.356 . S
N1691 H1696 0.984 . S
N1691 H1697 0.985 . S
C1692 C1686 1.379 . S
C1692 C1689 1.363 . S
C1692 N1690 1.356 . S
C1693 C1687 1.363 . S
C1693 C1688 1.379 . S
C1693 N1691 1.356 . S
N1694 C1686 1.356 . S
N1694 H1700 0.984 . S
N1694 H1701 0.984 . S
N1695 C1688 1.356 . S
N1695 H1698 0.984 . S
N1695 H1699 0.985 . S
H1696 N1691 0.984 . S
H1697 N1691 0.985 . S
H1698 N1695 0.984 . S
H1699 N1695 0.985 . S
H1700 N1694 0.984 . S
H1701 N1694 0.984 . S
H1702 N1690 0.984 . S
H1703 N1690 0.985 . S
C1704 C1705 1.363 . S
C1704 C1710 1.379 . S
C1704 N1712 1.356 . S
C1705 C1704 1.363 . S
C1705 C1711 1.363 . S
C1706 C1707 1.363 . S
C1706 C1711 1.379 . S
C1706 N1713 1.356 . S
C1707 C1706 1.363 . S
C1707 C1710 1.363 . S
N1708 C1710 1.356 . S
N1708 H1720 0.984 . S
N1708 H1721 0.985 . S
N1709 C1711 1.356 . S
N1709 H1714 0.968 1_554 S
N1709 H1715 0.982 1_554 S
C1710 C1704 1.379 . S
C1710 C1707 1.363 . S
C1710 N1708 1.356 . S
C1711 C1705 1.363 . S
C1711 C1706 1.379 . S
C1711 N1709 1.356 . S
N1712 C1704 1.356 . S
N1712 H1718 0.984 . S
N1712 H1719 0.984 . S
N1713 C1706 1.356 . S
N1713 H1716 0.984 . S
N1713 H1717 0.985 . S
H1714 N1709 0.968 1_556 S
H1715 N1709 0.982 1_556 S
H1716 N1713 0.984 . S
H1717 N1713 0.985 . S
H1718 N1712 0.984 . S
H1719 N1712 0.984 . S
H1720 N1708 0.984 . S
H1721 N1708 0.985 . S
C1722 C1723 1.363 . S
C1722 C1728 1.379 . S
C1722 N1730 1.356 . S
C1723 C1722 1.363 . S
C1723 C1729 1.363 . S
C1724 C1725 1.363 . S
C1724 C1729 1.379 . S
C1724 N1731 1.356 . S
C1725 C1724 1.363 . S
C1725 C1728 1.363 . S
N1726 C1728 1.356 . S
N1726 H1738 0.984 . S
N1726 H1739 0.985 . S
N1727 C1729 1.356 . S
N1727 H1732 0.984 . S
N1727 H1733 0.985 . S
C1728 C1722 1.379 . S
C1728 C1725 1.363 . S
C1728 N1726 1.356 . S
C1729 C1723 1.363 . S
C1729 C1724 1.379 . S
C1729 N1727 1.356 . S
N1730 C1722 1.356 . S
N1730 H1736 0.984 . S
N1730 H1737 0.984 . S
N1731 C1724 1.356 . S
N1731 H1734 0.984 . S
N1731 H1735 0.985 . S
H1732 N1727 0.984 . S
H1733 N1727 0.985 . S
H1734 N1731 0.984 . S
H1735 N1731 0.985 . S
H1736 N1730 0.984 . S
H1737 N1730 0.984 . S
H1738 N1726 0.984 . S
H1739 N1726 0.985 . S
C1740 C1741 1.363 . S
C1740 C1746 1.379 . S
C1740 N1748 1.356 . S
C1741 C1740 1.363 . S
C1741 C1747 1.363 . S
C1742 C1743 1.363 . S
C1742 C1747 1.379 . S
C1742 N1749 1.356 . S
C1743 C1742 1.363 . S
C1743 C1746 1.363 . S
N1744 C1746 1.356 . S
N1744 H1756 0.984 1_545 S
N1744 H1757 0.985 . S
N1745 C1747 1.356 . S
N1745 H1750 0.984 . S
N1745 H1751 0.985 . S
C1746 C1740 1.379 . S
C1746 C1743 1.363 . S
C1746 N1744 1.356 . S
C1747 C1741 1.363 . S
C1747 C1742 1.379 . S
C1747 N1745 1.356 . S
N1748 C1740 1.356 . S
N1748 H1754 0.984 . S
N1748 H1755 0.984 . S
N1749 C1742 1.356 . S
N1749 H1752 0.984 . S
N1749 H1753 0.985 . S
H1750 N1745 0.984 . S
H1751 N1745 0.985 . S
H1752 N1749 0.984 . S
H1753 N1749 0.985 . S
H1754 N1748 0.984 . S
H1755 N1748 0.984 . S
H1756 N1744 0.984 1_565 S
H1757 N1744 0.985 . S
C1758 C1759 1.363 . S
C1758 C1764 1.379 . S
C1758 N1766 1.356 . S
C1759 C1758 1.363 . S
C1759 C1765 1.363 . S
C1760 C1761 1.363 . S
C1760 C1765 1.379 . S
C1760 N1767 1.356 . S
C1761 C1760 1.363 . S
C1761 C1764 1.363 . S
N1762 C1764 1.356 . S
N1762 H1774 0.984 . S
N1762 H1775 0.985 . S
N1763 C1765 1.356 . S
N1763 H1768 0.984 . S
N1763 H1769 0.985 . S
C1764 C1758 1.379 . S
C1764 C1761 1.363 . S
C1764 N1762 1.356 . S
C1765 C1759 1.363 . S
C1765 C1760 1.379 . S
C1765 N1763 1.356 . S
N1766 C1758 1.356 . S
N1766 H1772 0.984 . S
N1766 H1773 0.984 . S
N1767 C1760 1.356 . S
N1767 H1770 0.984 . S
N1767 H1771 0.985 . S
H1768 N1763 0.984 . S
H1769 N1763 0.985 . S
H1770 N1767 0.984 . S
H1771 N1767 0.985 . S
H1772 N1766 0.984 . S
H1773 N1766 0.984 . S
H1774 N1762 0.984 . S
H1775 N1762 0.985 . S
C1776 C1777 1.363 . S
C1776 C1782 1.379 . S
C1776 N1784 1.356 . S
C1777 C1776 1.363 . S
C1777 C1783 1.363 . S
C1778 C1779 1.363 . S
C1778 C1783 1.379 . S
C1778 N1785 1.356 . S
C1779 C1778 1.363 . S
C1779 C1782 1.363 . S
N1780 C1782 1.356 . S
N1780 H1792 0.984 . S
N1780 H1793 0.985 . S
N1781 C1783 1.356 . S
N1781 H1786 0.984 . S
N1781 H1787 0.985 . S
C1782 C1776 1.379 . S
C1782 C1779 1.363 . S
C1782 N1780 1.356 . S
C1783 C1777 1.363 . S
C1783 C1778 1.379 . S
C1783 N1781 1.356 . S
N1784 C1776 1.356 . S
N1784 H1790 0.984 . S
N1784 H1791 0.984 . S
N1785 C1778 1.356 . S
N1785 H1788 0.984 . S
N1785 H1789 0.985 . S
H1786 N1781 0.984 . S
H1787 N1781 0.985 . S
H1788 N1785 0.984 . S
H1789 N1785 0.985 . S
H1790 N1784 0.984 . S
H1791 N1784 0.984 . S
H1792 N1780 0.984 . S
H1793 N1780 0.985 . S
C1794 C1795 1.363 . S
C1794 C1800 1.379 . S
C1794 N1802 1.356 . S
C1795 C1794 1.363 . S
C1795 C1801 1.363 . S
C1796 C1797 1.363 . S
C1796 C1801 1.379 . S
C1796 N1803 1.356 . S
C1797 C1796 1.363 . S
C1797 C1800 1.363 . S
N1798 C1800 1.356 . S
N1798 H1810 0.984 . S
N1798 H1811 0.985 . S
N1799 C1801 1.356 . S
N1799 H1804 0.984 . S
N1799 H1805 0.985 . S
C1800 C1794 1.379 . S
C1800 C1797 1.363 . S
C1800 N1798 1.356 . S
C1801 C1795 1.363 . S
C1801 C1796 1.379 . S
C1801 N1799 1.356 . S
N1802 C1794 1.356 . S
N1802 H1808 0.984 . S
N1802 H1809 0.984 . S
N1803 C1796 1.356 . S
N1803 H1806 0.984 . S
N1803 H1807 0.985 . S
H1804 N1799 0.984 . S
H1805 N1799 0.985 . S
H1806 N1803 0.984 . S
H1807 N1803 0.985 . S
H1808 N1802 0.984 . S
H1809 N1802 0.984 . S
H1810 N1798 0.984 . S
H1811 N1798 0.985 . S
C1812 C1813 1.363 . S
C1812 C1818 1.379 . S
C1812 N1820 1.356 . S
C1813 C1812 1.363 . S
C1813 C1819 1.363 . S
C1814 C1815 1.363 . S
C1814 C1819 1.379 . S
C1814 N1821 1.356 . S
C1815 C1814 1.363 . S
C1815 C1818 1.363 . S
N1816 C1818 1.356 . S
N1816 H1828 0.984 . S
N1816 H1829 0.985 . S
N1817 C1819 1.356 . S
N1817 H1822 0.984 . S
N1817 H1823 0.985 . S
C1818 C1812 1.379 . S
C1818 C1815 1.363 . S
C1818 N1816 1.356 . S
C1819 C1813 1.363 . S
C1819 C1814 1.379 . S
C1819 N1817 1.356 . S
N1820 C1812 1.356 . S
N1820 H1826 0.984 . S
N1820 H1827 0.984 . S
N1821 C1814 1.356 . S
N1821 H1824 0.984 . S
N1821 H1825 0.985 . S
H1822 N1817 0.984 . S
H1823 N1817 0.985 . S
H1824 N1821 0.984 . S
H1825 N1821 0.985 . S
H1826 N1820 0.984 . S
H1827 N1820 0.984 . S
H1828 N1816 0.984 . S
H1829 N1816 0.985 . S
C1830 C1831 1.363 . S
C1830 C1836 1.379 . S
C1830 N1838 1.356 . S
C1831 C1830 1.363 . S
C1831 C1837 1.363 . S
C1832 C1833 1.363 . S
C1832 C1837 1.379 . S
C1832 N1839 1.356 . S
C1833 C1832 1.363 . S
C1833 C1836 1.363 . S
N1834 C1836 1.356 . S
N1834 H1846 0.984 . S
N1834 H1847 0.985 . S
N1835 C1837 1.356 . S
N1835 H1840 0.984 . S
N1835 H1841 0.985 . S
C1836 C1830 1.379 . S
C1836 C1833 1.363 . S
C1836 N1834 1.356 . S
C1837 C1831 1.363 . S
C1837 C1832 1.379 . S
C1837 N1835 1.356 . S
N1838 C1830 1.356 . S
N1838 H1844 0.984 . S
N1838 H1845 0.984 . S
N1839 C1832 1.356 . S
N1839 H1842 0.984 . S
N1839 H1843 0.985 . S
H1840 N1835 0.984 . S
H1841 N1835 0.985 . S
H1842 N1839 0.984 . S
H1843 N1839 0.985 . S
H1844 N1838 0.984 . S
H1845 N1838 0.984 . S
H1846 N1834 0.984 . S
H1847 N1834 0.985 . S
C1848 C1849 1.363 . S
C1848 C1854 1.379 . S
C1848 N1856 1.356 . S
C1849 C1848 1.363 . S
C1849 C1855 1.363 . S
C1850 C1851 1.363 . S
C1850 C1855 1.379 . S
C1850 N1857 1.356 . S
C1851 C1850 1.363 . S
C1851 C1854 1.363 . S
N1852 C1854 1.356 . S
N1852 H1864 0.984 . S
N1852 H1865 0.985 . S
N1853 C1855 1.356 . S
N1853 H1858 0.984 . S
N1853 H1859 0.985 . S
C1854 C1848 1.379 . S
C1854 C1851 1.363 . S
C1854 N1852 1.356 . S
C1855 C1849 1.363 . S
C1855 C1850 1.379 . S
C1855 N1853 1.356 . S
N1856 C1848 1.356 . S
N1856 H1862 0.984 . S
N1856 H1863 0.984 . S
N1857 C1850 1.356 . S
N1857 H1860 0.984 . S
N1857 H1861 0.985 . S
H1858 N1853 0.984 . S
H1859 N1853 0.985 . S
H1860 N1857 0.984 . S
H1861 N1857 0.985 . S
H1862 N1856 0.984 . S
H1863 N1856 0.984 . S
H1864 N1852 0.984 . S
H1865 N1852 0.985 . S
C1866 C1867 1.363 . S
C1866 C1872 1.379 . S
C1866 N1874 1.356 . S
C1867 C1866 1.363 . S
C1867 C1873 1.363 . S
C1868 C1869 1.363 . S
C1868 C1873 1.379 . S
C1868 N1875 1.356 . S
C1869 C1868 1.363 . S
C1869 C1872 1.363 . S
N1870 C1872 1.356 . S
N1870 H1882 0.984 . S
N1870 H1883 0.985 . S
N1871 C1873 1.356 . S
N1871 H1876 0.984 . S
N1871 H1877 0.985 . S
C1872 C1866 1.379 . S
C1872 C1869 1.363 . S
C1872 N1870 1.356 . S
C1873 C1867 1.363 . S
C1873 C1868 1.379 . S
C1873 N1871 1.356 . S
N1874 C1866 1.356 . S
N1874 H1880 0.984 . S
N1874 H1881 0.984 . S
N1875 C1868 1.356 . S
N1875 H1878 0.984 . S
N1875 H1879 0.985 . S
H1876 N1871 0.984 . S
H1877 N1871 0.985 . S
H1878 N1875 0.984 . S
H1879 N1875 0.985 . S
H1880 N1874 0.984 . S
H1881 N1874 0.984 . S
H1882 N1870 0.984 . S
H1883 N1870 0.985 . S
C1884 C1885 1.363 . S
C1884 C1890 1.379 . S
C1884 N1892 1.356 . S
C1885 C1884 1.363 . S
C1885 C1891 1.363 . S
C1886 C1887 1.363 . S
C1886 C1891 1.379 . S
C1886 N1893 1.356 . S
C1887 C1886 1.363 . S
C1887 C1890 1.363 . S
N1888 C1890 1.356 . S
N1888 H1900 0.984 . S
N1888 H1901 0.985 . S
N1889 C1891 1.356 . S
N1889 H1894 0.984 . S
N1889 H1895 0.985 . S
C1890 C1884 1.379 . S
C1890 C1887 1.363 . S
C1890 N1888 1.356 . S
C1891 C1885 1.363 . S
C1891 C1886 1.379 . S
C1891 N1889 1.356 . S
N1892 C1884 1.356 . S
N1892 H1898 0.984 . S
N1892 H1899 0.984 . S
N1893 C1886 1.356 . S
N1893 H1896 0.984 . S
N1893 H1897 0.985 . S
H1894 N1889 0.984 . S
H1895 N1889 0.985 . S
H1896 N1893 0.984 . S
H1897 N1893 0.985 . S
H1898 N1892 0.984 . S
H1899 N1892 0.984 . S
H1900 N1888 0.984 . S
H1901 N1888 0.985 . S
C1902 C1903 1.363 . S
C1902 C1908 1.379 . S
C1902 N1910 1.356 . S
C1903 C1902 1.363 . S
C1903 C1909 1.363 . S
C1904 C1905 1.363 . S
C1904 C1909 1.379 . S
C1904 N1911 1.356 . S
C1905 C1904 1.363 . S
C1905 C1908 1.363 . S
N1906 C1908 1.356 . S
N1906 H1918 0.984 . S
N1906 H1919 0.985 . S
N1907 C1909 1.356 . S
N1907 H1912 0.984 . S
N1907 H1913 0.985 . S
C1908 C1902 1.379 . S
C1908 C1905 1.363 . S
C1908 N1906 1.356 . S
C1909 C1903 1.363 . S
C1909 C1904 1.379 . S
C1909 N1907 1.356 . S
N1910 C1902 1.356 . S
N1910 H1916 0.984 . S
N1910 H1917 0.984 . S
N1911 C1904 1.356 . S
N1911 H1914 0.984 . S
N1911 H1915 0.985 . S
H1912 N1907 0.984 . S
H1913 N1907 0.985 . S
H1914 N1911 0.984 . S
H1915 N1911 0.985 . S
H1916 N1910 0.984 . S
H1917 N1910 0.984 . S
H1918 N1906 0.984 . S
H1919 N1906 0.985 . S
C1920 C1921 1.363 . S
C1920 C1926 1.379 . S
C1920 N1928 1.356 . S
C1921 C1920 1.363 . S
C1921 C1927 1.363 . S
C1922 C1923 1.363 . S
C1922 C1927 1.379 . S
C1922 N1929 1.356 . S
C1923 C1922 1.363 . S
C1923 C1926 1.363 . S
N1924 C1926 1.356 . S
N1924 H1936 0.984 . S
N1924 H1937 0.985 . S
N1925 C1927 1.356 . S
N1925 H1930 0.984 . S
N1925 H1931 0.985 . S
C1926 C1920 1.379 . S
C1926 C1923 1.363 . S
C1926 N1924 1.356 . S
C1927 C1921 1.363 . S
C1927 C1922 1.379 . S
C1927 N1925 1.356 . S
N1928 C1920 1.356 . S
N1928 H1934 0.984 . S
N1928 H1935 0.984 . S
N1929 C1922 1.356 . S
N1929 H1932 0.984 . S
N1929 H1933 0.985 . S
H1930 N1925 0.984 . S
H1931 N1925 0.985 . S
H1932 N1929 0.984 . S
H1933 N1929 0.985 . S
H1934 N1928 0.984 . S
H1935 N1928 0.984 . S
H1936 N1924 0.984 . S
H1937 N1924 0.985 . S
C1938 C1939 1.363 . S
C1938 C1944 1.379 . S
C1938 N1946 1.389 . S
C1939 C1938 1.363 . S
C1939 C1945 1.363 . S
C1940 C1941 1.363 . S
C1940 C1945 1.379 . S
C1940 N1947 1.356 . S
C1941 C1940 1.363 . S
C1941 C1944 1.363 . S
N1942 C1944 1.356 . S
N1942 H1954 0.984 . S
N1942 H1955 0.985 . S
N1943 C1945 1.356 . S
N1943 H1948 0.984 . S
N1943 H1949 0.985 . S
C1944 C1938 1.379 . S
C1944 C1941 1.363 . S
C1944 N1942 1.356 . S
C1945 C1939 1.363 . S
C1945 C1940 1.379 . S
C1945 N1943 1.356 . S
N1946 C1938 1.389 . S
N1946 H1952 0.966 1_545 S
N1946 H1953 0.972 1_545 S
N1947 C1940 1.356 . S
N1947 H1950 0.984 . S
N1947 H1951 0.985 . S
H1948 N1943 0.984 . S
H1949 N1943 0.985 . S
H1950 N1947 0.984 . S
H1951 N1947 0.985 . S
H1952 N1946 0.966 1_565 S
H1953 N1946 0.972 1_565 S
H1954 N1942 0.984 . S
H1955 N1942 0.985 . S
C1956 C1957 1.363 . S
C1956 C1962 1.379 . S
C1956 N1964 1.356 . S
C1957 C1956 1.363 . S
C1957 C1963 1.363 . S
C1958 C1959 1.363 . S
C1958 C1963 1.379 . S
C1958 N1965 1.356 . S
C1959 C1958 1.363 . S
C1959 C1962 1.363 . S
N1960 C1962 1.356 . S
N1960 H1972 0.984 . S
N1960 H1973 0.985 . S
N1961 C1963 1.356 . S
N1961 H1966 0.984 . S
N1961 H1967 0.985 . S
C1962 C1956 1.379 . S
C1962 C1959 1.363 . S
C1962 N1960 1.356 . S
C1963 C1957 1.363 . S
C1963 C1958 1.379 . S
C1963 N1961 1.356 . S
N1964 C1956 1.356 . S
N1964 H1970 0.984 . S
N1964 H1971 0.984 . S
N1965 C1958 1.356 . S
N1965 H1968 0.984 . S
N1965 H1969 0.985 . S
H1966 N1961 0.984 . S
H1967 N1961 0.985 . S
H1968 N1965 0.984 . S
H1969 N1965 0.985 . S
H1970 N1964 0.984 . S
H1971 N1964 0.984 . S
H1972 N1960 0.984 . S
H1973 N1960 0.985 . S
C1974 C1975 1.363 . S
C1974 C1980 1.379 . S
C1974 N1982 1.356 . S
C1975 C1974 1.363 . S
C1975 C1981 1.363 . S
C1976 C1977 1.363 . S
C1976 C1981 1.379 . S
C1976 N1983 1.356 . S
C1977 C1976 1.363 . S
C1977 C1980 1.363 . S
N1978 C1980 1.356 . S
N1978 H1990 0.984 . S
N1978 H1991 0.985 . S
N1979 C1981 1.356 . S
N1979 H1984 0.984 . S
N1979 H1985 0.985 . S
C1980 C1974 1.379 . S
C1980 C1977 1.363 . S
C1980 N1978 1.356 . S
C1981 C1975 1.363 . S
C1981 C1976 1.379 . S
C1981 N1979 1.356 . S
N1982 C1974 1.356 . S
N1982 H1988 0.984 . S
N1982 H1989 0.984 . S
N1983 C1976 1.356 . S
N1983 H1986 0.984 . S
N1983 H1987 0.985 . S
H1984 N1979 0.984 . S
H1985 N1979 0.985 . S
H1986 N1983 0.984 . S
H1987 N1983 0.985 . S
H1988 N1982 0.984 . S
H1989 N1982 0.984 . S
H1990 N1978 0.984 . S
H1991 N1978 0.985 . S
C1992 C1993 1.363 . S
C1992 C1998 1.379 . S
C1992 N2000 1.356 . S
C1993 C1992 1.363 . S
C1993 C1999 1.363 . S
C1994 C1995 1.363 . S
C1994 C1999 1.379 . S
C1994 N2001 1.356 . S
C1995 C1994 1.363 . S
C1995 C1998 1.363 . S
N1996 C1998 1.356 . S
N1996 H2008 0.984 . S
N1996 H2009 0.985 . S
N1997 C1999 1.356 . S
N1997 H2002 0.984 . S
N1997 H2003 0.985 . S
C1998 C1992 1.379 . S
C1998 C1995 1.363 . S
C1998 N1996 1.356 . S
C1999 C1993 1.363 . S
C1999 C1994 1.379 . S
C1999 N1997 1.356 . S
N2000 C1992 1.356 . S
N2000 H2006 0.984 . S
N2000 H2007 0.984 . S
N2001 C1994 1.356 . S
N2001 H2004 0.984 . S
N2001 H2005 0.985 . S
H2002 N1997 0.984 . S
H2003 N1997 0.985 . S
H2004 N2001 0.984 . S
H2005 N2001 0.985 . S
H2006 N2000 0.984 . S
H2007 N2000 0.984 . S
H2008 N1996 0.984 . S
H2009 N1996 0.985 . S
C2010 C2011 1.363 . S
C2010 C2016 1.379 . S
C2010 N2018 1.356 . S
C2011 C2010 1.363 . S
C2011 C2017 1.363 . S
C2012 C2013 1.363 . S
C2012 C2017 1.379 . S
C2012 N2019 1.356 . S
C2013 C2012 1.363 . S
C2013 C2016 1.363 . S
N2014 C2016 1.356 . S
N2014 H2026 0.984 . S
N2014 H2027 0.985 . S
N2015 C2017 1.356 . S
N2015 H2020 0.984 . S
N2015 H2021 0.985 . S
C2016 C2010 1.379 . S
C2016 C2013 1.363 . S
C2016 N2014 1.356 . S
C2017 C2011 1.363 . S
C2017 C2012 1.379 . S
C2017 N2015 1.356 . S
N2018 C2010 1.356 . S
N2018 H2024 0.984 . S
N2018 H2025 0.984 . S
N2019 C2012 1.356 . S
N2019 H2022 0.984 . S
N2019 H2023 0.985 . S
H2020 N2015 0.984 . S
H2021 N2015 0.985 . S
H2022 N2019 0.984 . S
H2023 N2019 0.985 . S
H2024 N2018 0.984 . S
H2025 N2018 0.984 . S
H2026 N2014 0.984 . S
H2027 N2014 0.985 . S
C2028 C2029 1.363 . S
C2028 C2034 1.379 . S
C2028 N2036 1.356 . S
C2029 C2028 1.363 . S
C2029 C2035 1.363 . S
C2030 C2031 1.363 . S
C2030 C2035 1.379 . S
C2030 N2037 1.356 . S
C2031 C2030 1.363 . S
C2031 C2034 1.363 . S
N2032 C2034 1.356 . S
N2032 H2044 0.984 . S
N2032 H2045 0.985 . S
N2033 C2035 1.356 . S
N2033 H2038 0.984 . S
N2033 H2039 0.985 . S
C2034 C2028 1.379 . S
C2034 C2031 1.363 . S
C2034 N2032 1.356 . S
C2035 C2029 1.363 . S
C2035 C2030 1.379 . S
C2035 N2033 1.356 . S
N2036 C2028 1.356 . S
N2036 H2042 0.984 . S
N2036 H2043 0.984 . S
N2037 C2030 1.356 . S
N2037 H2040 0.984 . S
N2037 H2041 0.985 . S
H2038 N2033 0.984 . S
H2039 N2033 0.985 . S
H2040 N2037 0.984 . S
H2041 N2037 0.985 . S
H2042 N2036 0.984 . S
H2043 N2036 0.984 . S
H2044 N2032 0.984 . S
H2045 N2032 0.985 . S
C2046 C2047 1.363 . S
C2046 C2052 1.379 . S
C2046 N2054 1.356 . S
C2047 C2046 1.363 . S
C2047 C2053 1.363 . S
C2048 C2049 1.363 . S
C2048 C2053 1.379 . S
C2048 N2055 1.356 . S
C2049 C2048 1.363 . S
C2049 C2052 1.363 . S
N2050 C2052 1.356 . S
N2050 H2062 0.984 . S
N2050 H2063 0.985 . S
N2051 C2053 1.356 . S
N2051 H2056 0.984 . S
N2051 H2057 0.985 . S
C2052 C2046 1.379 . S
C2052 C2049 1.363 . S
C2052 N2050 1.356 . S
C2053 C2047 1.363 . S
C2053 C2048 1.379 . S
C2053 N2051 1.356 . S
N2054 C2046 1.356 . S
N2054 H2060 0.984 . S
N2054 H2061 0.984 . S
N2055 C2048 1.356 . S
N2055 H2058 0.984 . S
N2055 H2059 0.985 . S
H2056 N2051 0.984 . S
H2057 N2051 0.985 . S
H2058 N2055 0.984 . S
H2059 N2055 0.985 . S
H2060 N2054 0.984 . S
H2061 N2054 0.984 . S
H2062 N2050 0.984 . S
H2063 N2050 0.985 . S
C2064 C2065 1.363 . S
C2064 C2070 1.379 . S
C2064 N2072 1.356 . S
C2065 C2064 1.363 . S
C2065 C2071 1.363 . S
C2066 C2067 1.363 . S
C2066 C2071 1.379 . S
C2066 N2073 1.356 . S
C2067 C2066 1.363 . S
C2067 C2070 1.363 . S
N2068 C2070 1.356 . S
N2068 H2080 0.984 . S
N2068 H2081 0.985 . S
N2069 C2071 1.356 . S
N2069 H2074 0.984 . S
N2069 H2075 0.985 . S
C2070 C2064 1.379 . S
C2070 C2067 1.363 . S
C2070 N2068 1.356 . S
C2071 C2065 1.363 . S
C2071 C2066 1.379 . S
C2071 N2069 1.356 . S
N2072 C2064 1.356 . S
N2072 H2078 0.984 . S
N2072 H2079 0.984 . S
N2073 C2066 1.356 . S
N2073 H2076 0.984 . S
N2073 H2077 0.985 . S
H2074 N2069 0.984 . S
H2075 N2069 0.985 . S
H2076 N2073 0.984 . S
H2077 N2073 0.985 . S
H2078 N2072 0.984 . S
H2079 N2072 0.984 . S
H2080 N2068 0.984 . S
H2081 N2068 0.985 . S
C2082 C2083 1.363 . S
C2082 C2088 1.379 . S
C2082 N2090 1.356 . S
C2083 C2082 1.363 . S
C2083 C2089 1.363 . S
C2084 C2085 1.363 . S
C2084 C2089 1.379 . S
C2084 N2091 1.356 . S
C2085 C2084 1.363 . S
C2085 C2088 1.363 . S
N2086 C2088 1.356 . S
N2086 H2098 0.984 . S
N2086 H2099 0.985 . S
N2087 C2089 1.356 . S
N2087 H2092 0.984 . S
N2087 H2093 0.985 . S
C2088 C2082 1.379 . S
C2088 C2085 1.363 . S
C2088 N2086 1.356 . S
C2089 C2083 1.363 . S
C2089 C2084 1.379 . S
C2089 N2087 1.356 . S
N2090 C2082 1.356 . S
N2090 H2096 0.984 . S
N2090 H2097 0.984 . S
N2091 C2084 1.356 . S
N2091 H2094 0.984 . S
N2091 H2095 0.985 . S
H2092 N2087 0.984 . S
H2093 N2087 0.985 . S
H2094 N2091 0.984 . S
H2095 N2091 0.985 . S
H2096 N2090 0.984 . S
H2097 N2090 0.984 . S
H2098 N2086 0.984 . S
H2099 N2086 0.985 . S
C2100 C2101 1.363 . S
C2100 C2106 1.379 . S
C2100 N2108 1.356 . S
C2101 C2100 1.363 . S
C2101 C2107 1.363 . S
C2102 C2103 1.363 . S
C2102 C2107 1.379 . S
C2102 N2109 1.356 . S
C2103 C2102 1.363 . S
C2103 C2106 1.363 . S
N2104 C2106 1.356 . S
N2104 H2116 0.984 . S
N2104 H2117 0.985 . S
N2105 C2107 1.356 . S
N2105 H2110 0.984 . S
N2105 H2111 0.985 . S
C2106 C2100 1.379 . S
C2106 C2103 1.363 . S
C2106 N2104 1.356 . S
C2107 C2101 1.363 . S
C2107 C2102 1.379 . S
C2107 N2105 1.356 . S
N2108 C2100 1.356 . S
N2108 H2114 0.984 . S
N2108 H2115 0.984 . S
N2109 C2102 1.356 . S
N2109 H2112 0.984 . S
N2109 H2113 0.985 . S
H2110 N2105 0.984 . S
H2111 N2105 0.985 . S
H2112 N2109 0.984 . S
H2113 N2109 0.985 . S
H2114 N2108 0.984 . S
H2115 N2108 0.984 . S
H2116 N2104 0.984 . S
H2117 N2104 0.985 . S
C2118 C2119 1.363 . S
C2118 C2124 1.379 . S
C2118 N2126 1.356 . S
C2119 C2118 1.363 . S
C2119 C2125 1.363 . S
C2120 C2121 1.363 . S
C2120 C2125 1.379 . S
C2120 N2127 1.356 . S
C2121 C2120 1.363 . S
C2121 C2124 1.363 . S
N2122 C2124 1.356 . S
N2122 H2134 0.984 . S
N2122 H2135 0.985 . S
N2123 C2125 1.356 . S
N2123 H2128 0.984 . S
N2123 H2129 0.985 . S
C2124 C2118 1.379 . S
C2124 C2121 1.363 . S
C2124 N2122 1.356 . S
C2125 C2119 1.363 . S
C2125 C2120 1.379 . S
C2125 N2123 1.356 . S
N2126 C2118 1.356 . S
N2126 H2132 0.984 . S
N2126 H2133 0.984 . S
N2127 C2120 1.356 . S
N2127 H2130 0.984 . S
N2127 H2131 0.985 . S
H2128 N2123 0.984 . S
H2129 N2123 0.985 . S
H2130 N2127 0.984 . S
H2131 N2127 0.985 . S
H2132 N2126 0.984 . S
H2133 N2126 0.984 . S
H2134 N2122 0.984 . S
H2135 N2122 0.985 . S
C2136 C2137 1.363 . S
C2136 C2142 1.379 . S
C2136 N2144 1.356 . S
C2137 C2136 1.363 . S
C2137 C2143 1.363 . S
C2138 C2139 1.363 . S
C2138 C2143 1.379 . S
C2138 N2145 1.356 . S
C2139 C2138 1.363 . S
C2139 C2142 1.363 . S
N2140 C2142 1.356 . S
N2140 H2152 0.984 . S
N2140 H2153 0.985 . S
N2141 C2143 1.356 . S
N2141 H2146 0.984 . S
N2141 H2147 0.985 . S
C2142 C2136 1.379 . S
C2142 C2139 1.363 . S
C2142 N2140 1.356 . S
C2143 C2137 1.363 . S
C2143 C2138 1.379 . S
C2143 N2141 1.356 . S
N2144 C2136 1.356 . S
N2144 H2150 0.984 . S
N2144 H2151 0.984 . S
N2145 C2138 1.356 . S
N2145 H2148 0.984 . S
N2145 H2149 0.985 . S
H2146 N2141 0.984 . S
H2147 N2141 0.985 . S
H2148 N2145 0.984 . S
H2149 N2145 0.985 . S
H2150 N2144 0.984 . S
H2151 N2144 0.984 . S
H2152 N2140 0.984 . S
H2153 N2140 0.985 . S
C2154 C2155 1.363 . S
C2154 C2160 1.379 . S
C2154 N2162 1.356 . S
C2155 C2154 1.363 . S
C2155 C2161 1.363 . S
C2156 C2157 1.363 . S
C2156 C2161 1.379 . S
C2156 N2163 1.356 . S
C2157 C2156 1.363 . S
C2157 C2160 1.363 . S
N2158 C2160 1.356 . S
N2158 H2170 0.984 . S
N2158 H2171 0.985 . S
N2159 C2161 1.356 . S
N2159 H2164 0.984 . S
N2159 H2165 0.985 . S
C2160 C2154 1.379 . S
C2160 C2157 1.363 . S
C2160 N2158 1.356 . S
C2161 C2155 1.363 . S
C2161 C2156 1.379 . S
C2161 N2159 1.356 . S
N2162 C2154 1.356 . S
N2162 H2168 0.984 . S
N2162 H2169 0.984 . S
N2163 C2156 1.356 . S
N2163 H2166 0.984 . S
N2163 H2167 0.985 . S
H2164 N2159 0.984 . S
H2165 N2159 0.985 . S
H2166 N2163 0.984 . S
H2167 N2163 0.985 . S
H2168 N2162 0.984 . S
H2169 N2162 0.984 . S
H2170 N2158 0.984 . S
H2171 N2158 0.985 . S
C2172 C2173 1.363 . S
C2172 C2178 1.379 . S
C2172 N2180 1.356 . S
C2173 C2172 1.363 . S
C2173 C2179 1.363 . S
C2174 C2175 1.363 . S
C2174 C2179 1.379 . S
C2174 N2181 1.356 . S
C2175 C2174 1.363 . S
C2175 C2178 1.363 . S
N2176 C2178 1.356 . S
N2176 H2188 0.984 . S
N2176 H2189 0.985 . S
N2177 C2179 1.356 . S
N2177 H2182 0.984 . S
N2177 H2183 0.985 . S
C2178 C2172 1.379 . S
C2178 C2175 1.363 . S
C2178 N2176 1.356 . S
C2179 C2173 1.363 . S
C2179 C2174 1.379 . S
C2179 N2177 1.356 . S
N2180 C2172 1.356 . S
N2180 H2186 0.984 . S
N2180 H2187 0.984 . S
N2181 C2174 1.356 . S
N2181 H2184 0.984 . S
N2181 H2185 0.985 . S
H2182 N2177 0.984 . S
H2183 N2177 0.985 . S
H2184 N2181 0.984 . S
H2185 N2181 0.985 . S
H2186 N2180 0.984 . S
H2187 N2180 0.984 . S
H2188 N2176 0.984 . S
H2189 N2176 0.985 . S
C2190 C2191 1.363 . S
C2190 C2196 1.379 . S
C2190 N2198 1.356 . S
C2191 C2190 1.363 . S
C2191 C2197 1.363 . S
C2192 C2193 1.363 . S
C2192 C2197 1.379 . S
C2192 N2199 1.356 . S
C2193 C2192 1.363 . S
C2193 C2196 1.363 . S
N2194 C2196 1.356 . S
N2194 H2206 0.984 . S
N2194 H2207 0.985 . S
N2195 C2197 1.356 . S
N2195 H2200 0.984 . S
N2195 H2201 0.985 . S
C2196 C2190 1.379 . S
C2196 C2193 1.363 . S
C2196 N2194 1.356 . S
C2197 C2191 1.363 . S
C2197 C2192 1.379 . S
C2197 N2195 1.356 . S
N2198 C2190 1.356 . S
N2198 H2204 0.984 . S
N2198 H2205 0.984 . S
N2199 C2192 1.356 . S
N2199 H2202 0.984 . S
N2199 H2203 0.985 . S
H2200 N2195 0.984 . S
H2201 N2195 0.985 . S
H2202 N2199 0.984 . S
H2203 N2199 0.985 . S
H2204 N2198 0.984 . S
H2205 N2198 0.984 . S
H2206 N2194 0.984 . S
H2207 N2194 0.985 . S
C2208 C2209 1.363 . S
C2208 C2214 1.379 . S
C2208 N2216 1.356 . S
C2209 C2208 1.363 . S
C2209 C2215 1.363 . S
C2210 C2211 1.363 . S
C2210 C2215 1.379 . S
C2210 N2217 1.356 . S
C2211 C2210 1.363 . S
C2211 C2214 1.363 . S
N2212 C2214 1.356 . S
N2212 H2224 0.984 . S
N2212 H2225 0.985 . S
N2213 C2215 1.356 . S
N2213 H2218 0.984 . S
N2213 H2219 0.985 . S
C2214 C2208 1.379 . S
C2214 C2211 1.363 . S
C2214 N2212 1.356 . S
C2215 C2209 1.363 . S
C2215 C2210 1.379 . S
C2215 N2213 1.356 . S
N2216 C2208 1.356 . S
N2216 H2222 0.984 . S
N2216 H2223 0.984 . S
N2217 C2210 1.356 . S
N2217 H2220 0.984 . S
N2217 H2221 0.985 . S
H2218 N2213 0.984 . S
H2219 N2213 0.985 . S
H2220 N2217 0.984 . S
H2221 N2217 0.985 . S
H2222 N2216 0.984 . S
H2223 N2216 0.984 . S
H2224 N2212 0.984 . S
H2225 N2212 0.985 . S
C2226 C2227 1.363 . S
C2226 C2232 1.379 . S
C2226 N2234 1.356 . S
C2227 C2226 1.363 . S
C2227 C2233 1.363 . S
C2228 C2229 1.363 . S
C2228 C2233 1.379 . S
C2228 N2235 1.356 . S
C2229 C2228 1.363 . S
C2229 C2232 1.363 . S
N2230 C2232 1.356 . S
N2230 H2242 0.984 . S
N2230 H2243 0.985 . S
N2231 C2233 1.356 . S
N2231 H2236 0.984 . S
N2231 H2237 0.985 . S
C2232 C2226 1.379 . S
C2232 C2229 1.363 . S
C2232 N2230 1.356 . S
C2233 C2227 1.363 . S
C2233 C2228 1.379 . S
C2233 N2231 1.356 . S
N2234 C2226 1.356 . S
N2234 H2240 0.984 . S
N2234 H2241 0.984 . S
N2235 C2228 1.356 . S
N2235 H2238 0.984 . S
N2235 H2239 0.985 . S
H2236 N2231 0.984 . S
H2237 N2231 0.985 . S
H2238 N2235 0.984 . S
H2239 N2235 0.985 . S
H2240 N2234 0.984 . S
H2241 N2234 0.984 . S
H2242 N2230 0.984 . S
H2243 N2230 0.985 . S
C2244 C2245 1.363 . S
C2244 C2250 1.379 . S
C2244 N2252 1.356 . S
C2245 C2244 1.363 . S
C2245 C2251 1.363 . S
C2246 C2247 1.363 . S
C2246 C2251 1.379 . S
C2246 N2253 1.356 . S
C2247 C2246 1.363 . S
C2247 C2250 1.363 . S
N2248 C2250 1.356 . S
N2248 H2260 0.984 . S
N2248 H2261 0.985 . S
N2249 C2251 1.356 . S
N2249 H2254 0.984 . S
N2249 H2255 0.985 . S
C2250 C2244 1.379 . S
C2250 C2247 1.363 . S
C2250 N2248 1.356 . S
C2251 C2245 1.363 . S
C2251 C2246 1.379 . S
C2251 N2249 1.356 . S
N2252 C2244 1.356 . S
N2252 H2258 0.984 . S
N2252 H2259 0.984 . S
N2253 C2246 1.356 . S
N2253 H2256 0.984 . S
N2253 H2257 0.985 . S
H2254 N2249 0.984 . S
H2255 N2249 0.985 . S
H2256 N2253 0.984 . S
H2257 N2253 0.985 . S
H2258 N2252 0.984 . S
H2259 N2252 0.984 . S
H2260 N2248 0.984 . S
H2261 N2248 0.985 . S
C2262 C2263 1.363 . S
C2262 C2268 1.379 . S
C2262 N2270 1.356 . S
C2263 C2262 1.363 . S
C2263 C2269 1.363 . S
C2264 C2265 1.363 . S
C2264 C2269 1.379 . S
C2264 N2271 1.356 . S
C2265 C2264 1.363 . S
C2265 C2268 1.363 . S
N2266 C2268 1.356 . S
N2266 H2278 0.984 . S
N2266 H2279 0.985 . S
N2267 C2269 1.356 . S
N2267 H2272 0.984 . S
N2267 H2273 0.985 . S
C2268 C2262 1.379 . S
C2268 C2265 1.363 . S
C2268 N2266 1.356 . S
C2269 C2263 1.363 . S
C2269 C2264 1.379 . S
C2269 N2267 1.356 . S
N2270 C2262 1.356 . S
N2270 H2276 0.984 . S
N2270 H2277 0.984 . S
N2271 C2264 1.356 . S
N2271 H2274 0.984 . S
N2271 H2275 0.985 . S
H2272 N2267 0.984 . S
H2273 N2267 0.985 . S
H2274 N2271 0.984 . S
H2275 N2271 0.985 . S
H2276 N2270 0.984 . S
H2277 N2270 0.984 . S
H2278 N2266 0.984 . S
H2279 N2266 0.985 . S
C2280 C2281 1.363 . S
C2280 C2286 1.379 . S
C2280 N2288 1.356 . S
C2281 C2280 1.363 . S
C2281 C2287 1.363 . S
C2282 C2283 1.363 . S
C2282 C2287 1.379 . S
C2282 N2289 1.356 . S
C2283 C2282 1.363 . S
C2283 C2286 1.363 . S
N2284 C2286 1.356 . S
N2284 H2296 0.974 1_655 S
N2284 H2297 0.984 1_655 S
N2285 C2287 1.356 . S
N2285 H2290 0.984 . S
N2285 H2291 0.985 . S
C2286 C2280 1.379 . S
C2286 C2283 1.363 . S
C2286 N2284 1.356 . S
C2287 C2281 1.363 . S
C2287 C2282 1.379 . S
C2287 N2285 1.356 . S
N2288 C2280 1.356 . S
N2288 H2294 0.984 . S
N2288 H2295 0.984 . S
N2289 C2282 1.356 . S
N2289 H2292 0.984 . S
N2289 H2293 0.985 . S
H2290 N2285 0.984 . S
H2291 N2285 0.985 . S
H2292 N2289 0.984 . S
H2293 N2289 0.985 . S
H2294 N2288 0.984 . S
H2295 N2288 0.984 . S
H2296 N2284 0.974 1_455 S
H2297 N2284 0.984 1_455 S
C2298 C2299 1.363 . S
C2298 C2304 1.379 . S
C2298 N2306 1.356 . S
C2299 C2298 1.363 . S
C2299 C2305 1.363 . S
C2300 C2301 1.363 . S
C2300 C2305 1.379 . S
C2300 N2307 1.356 . S
C2301 C2300 1.363 . S
C2301 C2304 1.363 . S
N2302 C2304 1.356 . S
N2302 H2314 0.984 . S
N2302 H2315 0.985 . S
N2303 C2305 1.356 . S
N2303 H2308 0.984 . S
N2303 H2309 0.985 . S
C2304 C2298 1.379 . S
C2304 C2301 1.363 . S
C2304 N2302 1.356 . S
C2305 C2299 1.363 . S
C2305 C2300 1.379 . S
C2305 N2303 1.356 . S
N2306 C2298 1.356 . S
N2306 H2312 0.984 . S
N2306 H2313 0.984 . S
N2307 C2300 1.356 . S
N2307 H2310 0.984 . S
N2307 H2311 0.985 . S
H2308 N2303 0.984 . S
H2309 N2303 0.985 . S
H2310 N2307 0.984 . S
H2311 N2307 0.985 . S
H2312 N2306 0.984 . S
H2313 N2306 0.984 . S
H2314 N2302 0.984 . S
H2315 N2302 0.985 . S
C2316 C2317 1.363 . S
C2316 C2322 1.379 . S
C2316 N2324 1.356 . S
C2317 C2316 1.363 . S
C2317 C2323 1.363 . S
C2318 C2319 1.363 . S
C2318 C2323 1.379 . S
C2318 N2325 1.356 . S
C2319 C2318 1.363 . S
C2319 C2322 1.363 . S
N2320 C2322 1.356 . S
N2320 H2332 0.984 . S
N2320 H2333 0.985 . S
N2321 C2323 1.356 . S
N2321 H2326 0.984 . S
N2321 H2327 0.985 . S
C2322 C2316 1.379 . S
C2322 C2319 1.363 . S
C2322 N2320 1.356 . S
C2323 C2317 1.363 . S
C2323 C2318 1.379 . S
C2323 N2321 1.356 . S
N2324 C2316 1.356 . S
N2324 H2330 0.984 . S
N2324 H2331 0.984 . S
N2325 C2318 1.356 . S
N2325 H2328 0.984 . S
N2325 H2329 0.985 . S
H2326 N2321 0.984 . S
H2327 N2321 0.985 . S
H2328 N2325 0.984 . S
H2329 N2325 0.985 . S
H2330 N2324 0.984 . S
H2331 N2324 0.984 . S
H2332 N2320 0.984 . S
H2333 N2320 0.985 . S
C2334 C2335 1.363 . S
C2334 C2340 1.379 . S
C2334 N2342 1.356 . S
C2335 C2334 1.363 . S
C2335 C2341 1.363 . S
C2336 C2337 1.363 . S
C2336 C2341 1.379 . S
C2336 N2343 1.356 . S
C2337 C2336 1.363 . S
C2337 C2340 1.363 . S
N2338 C2340 1.356 . S
N2338 H2350 0.984 . S
N2338 H2351 0.985 . S
N2339 C2341 1.356 . S
N2339 H2344 0.984 . S
N2339 H2345 0.985 . S
C2340 C2334 1.379 . S
C2340 C2337 1.363 . S
C2340 N2338 1.356 . S
C2341 C2335 1.363 . S
C2341 C2336 1.379 . S
C2341 N2339 1.356 . S
N2342 C2334 1.356 . S
N2342 H2348 0.984 . S
N2342 H2349 0.984 . S
N2343 C2336 1.356 . S
N2343 H2346 0.984 . S
N2343 H2347 0.985 . S
H2344 N2339 0.984 . S
H2345 N2339 0.985 . S
H2346 N2343 0.984 . S
H2347 N2343 0.985 . S
H2348 N2342 0.984 . S
H2349 N2342 0.984 . S
H2350 N2338 0.984 . S
H2351 N2338 0.985 . S
C2352 C2353 1.363 . S
C2352 C2358 1.379 . S
C2352 N2360 1.356 . S
C2353 C2352 1.363 . S
C2353 C2359 1.363 . S
C2354 C2355 1.363 . S
C2354 C2359 1.379 . S
C2354 N2361 1.356 . S
C2355 C2354 1.363 . S
C2355 C2358 1.363 . S
N2356 C2358 1.356 . S
N2356 H2368 0.984 . S
N2356 H2369 0.985 . S
N2357 C2359 1.356 . S
N2357 H2362 0.984 . S
N2357 H2363 0.985 . S
C2358 C2352 1.379 . S
C2358 C2355 1.363 . S
C2358 N2356 1.356 . S
C2359 C2353 1.363 . S
C2359 C2354 1.379 . S
C2359 N2357 1.356 . S
N2360 C2352 1.356 . S
N2360 H2366 0.984 . S
N2360 H2367 0.984 . S
N2361 C2354 1.356 . S
N2361 H2364 0.984 . S
N2361 H2365 0.985 . S
H2362 N2357 0.984 . S
H2363 N2357 0.985 . S
H2364 N2361 0.984 . S
H2365 N2361 0.985 . S
H2366 N2360 0.984 . S
H2367 N2360 0.984 . S
H2368 N2356 0.984 . S
H2369 N2356 0.985 . S
C2370 C2371 1.363 . S
C2370 C2376 1.379 . S
C2370 N2378 1.356 . S
C2371 C2370 1.363 . S
C2371 C2377 1.363 . S
C2372 C2373 1.363 . S
C2372 C2377 1.379 . S
C2372 N2379 1.356 . S
C2373 C2372 1.363 . S
C2373 C2376 1.363 . S
N2374 C2376 1.356 . S
N2374 H2386 0.984 1_455 S
N2374 H2387 0.985 . S
N2375 C2377 1.356 . S
N2375 H2380 0.984 . S
N2375 H2381 0.985 . S
C2376 C2370 1.379 . S
C2376 C2373 1.363 . S
C2376 N2374 1.356 . S
C2377 C2371 1.363 . S
C2377 C2372 1.379 . S
C2377 N2375 1.356 . S
N2378 C2370 1.356 . S
N2378 H2384 0.984 . S
N2378 H2385 0.984 . S
N2379 C2372 1.356 . S
N2379 H2382 0.984 . S
N2379 H2383 0.985 . S
H2380 N2375 0.984 . S
H2381 N2375 0.985 . S
H2382 N2379 0.984 . S
H2383 N2379 0.985 . S
H2384 N2378 0.984 . S
H2385 N2378 0.984 . S
H2386 N2374 0.984 1_655 S
H2387 N2374 0.985 . S
C2388 C2389 1.363 . S
C2388 C2394 1.379 . S
C2388 N2396 1.356 . S
C2389 C2388 1.363 . S
C2389 C2395 1.363 . S
C2390 C2391 1.363 . S
C2390 C2395 1.379 . S
C2390 N2397 1.356 . S
C2391 C2390 1.363 . S
C2391 C2394 1.363 . S
N2392 C2394 1.356 . S
N2392 H2404 0.984 . S
N2392 H2405 0.985 . S
N2393 C2395 1.356 . S
N2393 H2398 0.984 . S
N2393 H2399 0.985 . S
C2394 C2388 1.379 . S
C2394 C2391 1.363 . S
C2394 N2392 1.356 . S
C2395 C2389 1.363 . S
C2395 C2390 1.379 . S
C2395 N2393 1.356 . S
N2396 C2388 1.356 . S
N2396 H2402 0.984 . S
N2396 H2403 0.984 . S
N2397 C2390 1.356 . S
N2397 H2400 0.984 . S
N2397 H2401 0.985 . S
H2398 N2393 0.984 . S
H2399 N2393 0.985 . S
H2400 N2397 0.984 . S
H2401 N2397 0.985 . S
H2402 N2396 0.984 . S
H2403 N2396 0.984 . S
H2404 N2392 0.984 . S
H2405 N2392 0.985 . S
C2406 C2407 1.363 . S
C2406 C2412 1.379 . S
C2406 N2414 1.356 . S
C2407 C2406 1.363 . S
C2407 C2413 1.363 . S
C2408 C2409 1.363 . S
C2408 C2413 1.379 . S
C2408 N2415 1.356 . S
C2409 C2408 1.363 . S
C2409 C2412 1.363 . S
N2410 C2412 1.356 . S
N2410 H2422 0.984 . S
N2410 H2423 0.985 . S
N2411 C2413 1.356 . S
N2411 H2416 0.984 . S
N2411 H2417 0.985 . S
C2412 C2406 1.379 . S
C2412 C2409 1.363 . S
C2412 N2410 1.356 . S
C2413 C2407 1.363 . S
C2413 C2408 1.379 . S
C2413 N2411 1.356 . S
N2414 C2406 1.356 . S
N2414 H2420 0.984 . S
N2414 H2421 0.984 . S
N2415 C2408 1.356 . S
N2415 H2418 0.984 . S
N2415 H2419 0.985 . S
H2416 N2411 0.984 . S
H2417 N2411 0.985 . S
H2418 N2415 0.984 . S
H2419 N2415 0.985 . S
H2420 N2414 0.984 . S
H2421 N2414 0.984 . S
H2422 N2410 0.984 . S
H2423 N2410 0.985 . S
C2424 C2425 1.363 . S
C2424 C2430 1.379 . S
C2424 N2432 1.356 . S
C2425 C2424 1.363 . S
C2425 C2431 1.363 . S
C2426 C2427 1.363 . S
C2426 C2431 1.379 . S
C2426 N2433 1.356 . S
C2427 C2426 1.363 . S
C2427 C2430 1.363 . S
N2428 C2430 1.356 . S
N2428 H2440 0.984 . S
N2428 H2441 0.985 . S
N2429 C2431 1.356 . S
N2429 H2434 0.984 . S
N2429 H2435 0.985 . S
C2430 C2424 1.379 . S
C2430 C2427 1.363 . S
C2430 N2428 1.356 . S
C2431 C2425 1.363 . S
C2431 C2426 1.379 . S
C2431 N2429 1.356 . S
N2432 C2424 1.356 . S
N2432 H2438 0.984 . S
N2432 H2439 0.984 . S
N2433 C2426 1.356 . S
N2433 H2436 0.984 . S
N2433 H2437 0.985 . S
H2434 N2429 0.984 . S
H2435 N2429 0.985 . S
H2436 N2433 0.984 . S
H2437 N2433 0.985 . S
H2438 N2432 0.984 . S
H2439 N2432 0.984 . S
H2440 N2428 0.984 . S
H2441 N2428 0.985 . S
C2442 C2443 1.363 . S
C2442 C2448 1.379 . S
C2442 N2450 1.356 . S
C2443 C2442 1.363 . S
C2443 C2449 1.363 . S
C2444 C2445 1.363 . S
C2444 C2449 1.379 . S
C2444 N2451 1.356 . S
C2445 C2444 1.363 . S
C2445 C2448 1.363 . S
N2446 C2448 1.356 . S
N2446 H2458 0.984 . S
N2446 H2459 0.985 . S
N2447 C2449 1.356 . S
N2447 H2452 0.984 . S
N2447 H2453 0.985 . S
C2448 C2442 1.379 . S
C2448 C2445 1.363 . S
C2448 N2446 1.356 . S
C2449 C2443 1.363 . S
C2449 C2444 1.379 . S
C2449 N2447 1.356 . S
N2450 C2442 1.356 . S
N2450 H2456 0.984 . S
N2450 H2457 0.984 . S
N2451 C2444 1.356 . S
N2451 H2454 0.984 1_545 S
N2451 H2455 0.985 1_545 S
H2452 N2447 0.984 . S
H2453 N2447 0.985 . S
H2454 N2451 0.984 1_565 S
H2455 N2451 0.985 1_565 S
H2456 N2450 0.984 . S
H2457 N2450 0.984 . S
H2458 N2446 0.984 . S
H2459 N2446 0.985 . S
C2460 C2461 1.363 . S
C2460 C2466 1.379 . S
C2460 N2468 1.356 . S
C2461 C2460 1.363 . S
C2461 C2467 1.363 . S
C2462 C2463 1.363 . S
C2462 C2467 1.379 . S
C2462 N2469 1.356 . S
C2463 C2462 1.363 . S
C2463 C2466 1.363 . S
N2464 C2466 1.356 . S
N2464 H2476 0.984 . S
N2464 H2477 0.985 . S
N2465 C2467 1.356 . S
N2465 H2470 0.984 . S
N2465 H2471 0.985 . S
C2466 C2460 1.379 . S
C2466 C2463 1.363 . S
C2466 N2464 1.356 . S
C2467 C2461 1.363 . S
C2467 C2462 1.379 . S
C2467 N2465 1.356 . S
N2468 C2460 1.356 . S
N2468 H2474 0.984 . S
N2468 H2475 0.984 . S
N2469 C2462 1.356 . S
N2469 H2472 0.984 . S
N2469 H2473 0.985 . S
H2470 N2465 0.984 . S
H2471 N2465 0.985 . S
H2472 N2469 0.984 . S
H2473 N2469 0.985 . S
H2474 N2468 0.984 . S
H2475 N2468 0.984 . S
H2476 N2464 0.984 . S
H2477 N2464 0.985 . S
C2478 C2479 1.363 . S
C2478 C2484 1.379 . S
C2478 N2486 1.356 . S
C2479 C2478 1.363 . S
C2479 C2485 1.363 . S
C2480 C2481 1.363 . S
C2480 C2485 1.379 . S
C2480 N2487 1.356 . S
C2481 C2480 1.363 . S
C2481 C2484 1.363 . S
N2482 C2484 1.356 . S
N2482 H2494 0.984 . S
N2482 H2495 0.985 . S
N2483 C2485 1.356 . S
N2483 H2488 0.984 . S
N2483 H2489 0.985 . S
C2484 C2478 1.379 . S
C2484 C2481 1.363 . S
C2484 N2482 1.356 . S
C2485 C2479 1.363 . S
C2485 C2480 1.379 . S
C2485 N2483 1.356 . S
N2486 C2478 1.356 . S
N2486 H2492 0.984 . S
N2486 H2493 0.984 . S
N2487 C2480 1.356 . S
N2487 H2490 0.984 . S
N2487 H2491 0.985 . S
H2488 N2483 0.984 . S
H2489 N2483 0.985 . S
H2490 N2487 0.984 . S
H2491 N2487 0.985 . S
H2492 N2486 0.984 . S
H2493 N2486 0.984 . S
H2494 N2482 0.984 . S
H2495 N2482 0.985 . S
C2496 C2497 1.363 . S
C2496 C2502 1.379 . S
C2496 N2504 1.356 . S
C2497 C2496 1.363 . S
C2497 C2503 1.363 . S
C2498 C2499 1.363 . S
C2498 C2503 1.379 . S
C2498 N2505 1.356 . S
C2499 C2498 1.363 . S
C2499 C2502 1.363 . S
N2500 C2502 1.356 . S
N2500 H2512 0.984 . S
N2500 H2513 0.985 . S
N2501 C2503 1.356 . S
N2501 H2506 0.984 . S
N2501 H2507 0.985 . S
C2502 C2496 1.379 . S
C2502 C2499 1.363 . S
C2502 N2500 1.356 . S
C2503 C2497 1.363 . S
C2503 C2498 1.379 . S
C2503 N2501 1.356 . S
N2504 C2496 1.356 . S
N2504 H2510 0.984 . S
N2504 H2511 0.984 . S
N2505 C2498 1.356 . S
N2505 H2508 0.984 . S
N2505 H2509 0.985 . S
H2506 N2501 0.984 . S
H2507 N2501 0.985 . S
H2508 N2505 0.984 . S
H2509 N2505 0.985 . S
H2510 N2504 0.984 . S
H2511 N2504 0.984 . S
H2512 N2500 0.984 . S
H2513 N2500 0.985 . S
C2514 C2515 1.363 . S
C2514 C2520 1.379 . S
C2514 N2522 1.356 . S
C2515 C2514 1.363 . S
C2515 C2521 1.363 . S
C2516 C2517 1.363 . S
C2516 C2521 1.379 . S
C2516 N2523 1.356 . S
C2517 C2516 1.363 . S
C2517 C2520 1.363 . S
N2518 C2520 1.356 . S
N2518 H2530 0.984 . S
N2518 H2531 0.985 . S
N2519 C2521 1.356 . S
N2519 H2524 0.984 . S
N2519 H2525 0.985 . S
C2520 C2514 1.379 . S
C2520 C2517 1.363 . S
C2520 N2518 1.356 . S
C2521 C2515 1.363 . S
C2521 C2516 1.379 . S
C2521 N2519 1.356 . S
N2522 C2514 1.356 . S
N2522 H2528 0.984 . S
N2522 H2529 0.984 . S
N2523 C2516 1.356 . S
N2523 H2526 0.984 . S
N2523 H2527 0.985 . S
H2524 N2519 0.984 . S
H2525 N2519 0.985 . S
H2526 N2523 0.984 . S
H2527 N2523 0.985 . S
H2528 N2522 0.984 . S
H2529 N2522 0.984 . S
H2530 N2518 0.984 . S
H2531 N2518 0.985 . S
C2532 C2533 1.363 . S
C2532 C2538 1.379 . S
C2532 N2540 1.356 . S
C2533 C2532 1.363 . S
C2533 C2539 1.363 . S
C2534 C2535 1.363 . S
C2534 C2539 1.379 . S
C2534 N2541 1.356 . S
C2535 C2534 1.363 . S
C2535 C2538 1.363 . S
N2536 C2538 1.356 . S
N2536 H2548 0.984 . S
N2536 H2549 0.985 . S
N2537 C2539 1.356 . S
N2537 H2542 0.984 . S
N2537 H2543 0.985 . S
C2538 C2532 1.379 . S
C2538 C2535 1.363 . S
C2538 N2536 1.356 . S
C2539 C2533 1.363 . S
C2539 C2534 1.379 . S
C2539 N2537 1.356 . S
N2540 C2532 1.356 . S
N2540 H2546 0.984 . S
N2540 H2547 0.984 . S
N2541 C2534 1.356 . S
N2541 H2544 0.984 . S
N2541 H2545 0.985 . S
H2542 N2537 0.984 . S
H2543 N2537 0.985 . S
H2544 N2541 0.984 . S
H2545 N2541 0.985 . S
H2546 N2540 0.984 . S
H2547 N2540 0.984 . S
H2548 N2536 0.984 . S
H2549 N2536 0.985 . S
C2550 C2551 1.363 . S
C2550 C2556 1.379 . S
C2550 N2558 1.356 . S
C2551 C2550 1.363 . S
C2551 C2557 1.363 . S
C2552 C2553 1.363 . S
C2552 C2557 1.379 . S
C2552 N2559 1.356 . S
C2553 C2552 1.363 . S
C2553 C2556 1.363 . S
N2554 C2556 1.356 . S
N2554 H2566 0.984 . S
N2554 H2567 0.985 . S
N2555 C2557 1.356 . S
N2555 H2560 0.984 . S
N2555 H2561 0.985 . S
C2556 C2550 1.379 . S
C2556 C2553 1.363 . S
C2556 N2554 1.356 . S
C2557 C2551 1.363 . S
C2557 C2552 1.379 . S
C2557 N2555 1.356 . S
N2558 C2550 1.356 . S
N2558 H2564 0.984 . S
N2558 H2565 0.984 . S
N2559 C2552 1.356 . S
N2559 H2562 0.984 . S
N2559 H2563 0.985 . S
H2560 N2555 0.984 . S
H2561 N2555 0.985 . S
H2562 N2559 0.984 . S
H2563 N2559 0.985 . S
H2564 N2558 0.984 . S
H2565 N2558 0.984 . S
H2566 N2554 0.984 . S
H2567 N2554 0.985 . S
C2568 C2569 1.363 . S
C2568 C2574 1.379 . S
C2568 N2576 1.356 . S
C2569 C2568 1.363 . S
C2569 C2575 1.363 . S
C2570 C2571 1.363 . S
C2570 C2575 1.379 . S
C2570 N2577 1.356 . S
C2571 C2570 1.363 . S
C2571 C2574 1.363 . S
N2572 C2574 1.356 . S
N2572 H2584 0.984 . S
N2572 H2585 0.985 . S
N2573 C2575 1.356 . S
N2573 H2578 0.984 . S
N2573 H2579 0.985 . S
C2574 C2568 1.379 . S
C2574 C2571 1.363 . S
C2574 N2572 1.356 . S
C2575 C2569 1.363 . S
C2575 C2570 1.379 . S
C2575 N2573 1.356 . S
N2576 C2568 1.356 . S
N2576 H2582 0.984 . S
N2576 H2583 0.984 . S
N2577 C2570 1.356 . S
N2577 H2580 0.984 . S
N2577 H2581 0.985 . S
H2578 N2573 0.984 . S
H2579 N2573 0.985 . S
H2580 N2577 0.984 . S
H2581 N2577 0.985 . S
H2582 N2576 0.984 . S
H2583 N2576 0.984 . S
H2584 N2572 0.984 . S
H2585 N2572 0.985 . S
C2586 C2587 1.363 . S
C2586 C2592 1.379 . S
C2586 N2594 1.356 . S
C2587 C2586 1.363 . S
C2587 C2593 1.363 . S
C2588 C2589 1.363 . S
C2588 C2593 1.379 . S
C2588 N2595 1.356 . S
C2589 C2588 1.363 . S
C2589 C2592 1.363 . S
N2590 C2592 1.356 . S
N2590 H2602 0.984 . S
N2590 H2603 0.985 . S
N2591 C2593 1.356 . S
N2591 H2596 0.984 . S
N2591 H2597 0.985 . S
C2592 C2586 1.379 . S
C2592 C2589 1.363 . S
C2592 N2590 1.356 . S
C2593 C2587 1.363 . S
C2593 C2588 1.379 . S
C2593 N2591 1.356 . S
N2594 C2586 1.356 . S
N2594 H2600 0.984 . S
N2594 H2601 0.984 . S
N2595 C2588 1.356 . S
N2595 H2598 0.984 . S
N2595 H2599 0.985 . S
H2596 N2591 0.984 . S
H2597 N2591 0.985 . S
H2598 N2595 0.984 . S
H2599 N2595 0.985 . S
H2600 N2594 0.984 . S
H2601 N2594 0.984 . S
H2602 N2590 0.984 . S
H2603 N2590 0.985 . S
C2604 C2605 1.363 . S
C2604 C2610 1.379 . S
C2604 N2612 1.356 . S
C2605 C2604 1.363 . S
C2605 C2611 1.363 . S
C2606 C2607 1.363 . S
C2606 C2611 1.379 . S
C2606 N2613 1.356 . S
C2607 C2606 1.363 . S
C2607 C2610 1.363 . S
N2608 C2610 1.356 . S
N2608 H2620 0.984 . S
N2608 H2621 0.985 . S
N2609 C2611 1.356 . S
N2609 H2614 0.984 . S
N2609 H2615 0.985 . S
C2610 C2604 1.379 . S
C2610 C2607 1.363 . S
C2610 N2608 1.356 . S
C2611 C2605 1.363 . S
C2611 C2606 1.379 . S
C2611 N2609 1.356 . S
N2612 C2604 1.356 . S
N2612 H2618 0.984 . S
N2612 H2619 0.984 . S
N2613 C2606 1.356 . S
N2613 H2616 0.984 . S
N2613 H2617 0.985 . S
H2614 N2609 0.984 . S
H2615 N2609 0.985 . S
H2616 N2613 0.984 . S
H2617 N2613 0.985 . S
H2618 N2612 0.984 . S
H2619 N2612 0.984 . S
H2620 N2608 0.984 . S
H2621 N2608 0.985 . S
C2622 C2623 1.363 . S
C2622 C2628 1.379 . S
C2622 N2630 1.356 . S
C2623 C2622 1.363 . S
C2623 C2629 1.363 . S
C2624 C2625 1.363 . S
C2624 C2629 1.379 . S
C2624 N2631 1.356 . S
C2625 C2624 1.363 . S
C2625 C2628 1.363 . S
N2626 C2628 1.356 . S
N2626 H2638 0.984 . S
N2626 H2639 0.985 . S
N2627 C2629 1.356 . S
N2627 H2632 0.984 . S
N2627 H2633 0.985 . S
C2628 C2622 1.379 . S
C2628 C2625 1.363 . S
C2628 N2626 1.356 . S
C2629 C2623 1.363 . S
C2629 C2624 1.379 . S
C2629 N2627 1.356 . S
N2630 C2622 1.356 . S
N2630 H2636 0.984 . S
N2630 H2637 0.984 . S
N2631 C2624 1.356 . S
N2631 H2634 0.984 . S
N2631 H2635 0.985 . S
H2632 N2627 0.984 . S
H2633 N2627 0.985 . S
H2634 N2631 0.984 . S
H2635 N2631 0.985 . S
H2636 N2630 0.984 . S
H2637 N2630 0.984 . S
H2638 N2626 0.984 . S
H2639 N2626 0.985 . S
C2640 C2641 1.363 . S
C2640 C2646 1.379 . S
C2640 N2648 1.356 . S
C2641 C2640 1.363 . S
C2641 C2647 1.363 . S
C2642 C2643 1.363 . S
C2642 C2647 1.379 . S
C2642 N2649 1.356 . S
C2643 C2642 1.363 . S
C2643 C2646 1.363 . S
N2644 C2646 1.356 . S
N2644 H2656 0.984 . S
N2644 H2657 0.985 . S
N2645 C2647 1.356 . S
N2645 H2650 0.984 . S
N2645 H2651 0.985 . S
C2646 C2640 1.379 . S
C2646 C2643 1.363 . S
C2646 N2644 1.356 . S
C2647 C2641 1.363 . S
C2647 C2642 1.379 . S
C2647 N2645 1.356 . S
N2648 C2640 1.356 . S
N2648 H2654 0.984 . S
N2648 H2655 0.984 . S
N2649 C2642 1.356 . S
N2649 H2652 0.984 . S
N2649 H2653 0.985 . S
H2650 N2645 0.984 . S
H2651 N2645 0.985 . S
H2652 N2649 0.984 . S
H2653 N2649 0.985 . S
H2654 N2648 0.984 . S
H2655 N2648 0.984 . S
H2656 N2644 0.984 . S
H2657 N2644 0.985 . S
C2658 C2659 1.363 . S
C2658 C2664 1.379 . S
C2658 N2666 1.356 . S
C2659 C2658 1.363 . S
C2659 C2665 1.363 . S
C2660 C2661 1.363 . S
C2660 C2665 1.379 . S
C2660 N2667 1.356 . S
C2661 C2660 1.363 . S
C2661 C2664 1.363 . S
N2662 C2664 1.356 . S
N2662 H2674 0.984 . S
N2662 H2675 0.985 . S
N2663 C2665 1.356 . S
N2663 H2668 0.984 . S
N2663 H2669 0.985 . S
C2664 C2658 1.379 . S
C2664 C2661 1.363 . S
C2664 N2662 1.356 . S
C2665 C2659 1.363 . S
C2665 C2660 1.379 . S
C2665 N2663 1.356 . S
N2666 C2658 1.356 . S
N2666 H2672 0.984 . S
N2666 H2673 0.984 . S
N2667 C2660 1.356 . S
N2667 H2670 0.984 . S
N2667 H2671 0.985 . S
H2668 N2663 0.984 . S
H2669 N2663 0.985 . S
H2670 N2667 0.984 . S
H2671 N2667 0.985 . S
H2672 N2666 0.984 . S
H2673 N2666 0.984 . S
H2674 N2662 0.984 . S
H2675 N2662 0.985 . S
C2676 C2677 1.363 . S
C2676 C2682 1.379 . S
C2676 N2684 1.356 . S
C2677 C2676 1.363 . S
C2677 C2683 1.363 . S
C2678 C2679 1.363 . S
C2678 C2683 1.379 . S
C2678 N2685 1.356 . S
C2679 C2678 1.363 . S
C2679 C2682 1.363 . S
N2680 C2682 1.356 . S
N2680 H2692 0.984 . S
N2680 H2693 0.985 . S
N2681 C2683 1.356 . S
N2681 H2686 0.984 . S
N2681 H2687 0.985 . S
C2682 C2676 1.379 . S
C2682 C2679 1.363 . S
C2682 N2680 1.356 . S
C2683 C2677 1.363 . S
C2683 C2678 1.379 . S
C2683 N2681 1.356 . S
N2684 C2676 1.356 . S
N2684 H2690 0.984 . S
N2684 H2691 0.984 . S
N2685 C2678 1.356 . S
N2685 H2688 0.984 . S
N2685 H2689 0.985 . S
H2686 N2681 0.984 . S
H2687 N2681 0.985 . S
H2688 N2685 0.984 . S
H2689 N2685 0.985 . S
H2690 N2684 0.984 . S
H2691 N2684 0.984 . S
H2692 N2680 0.984 . S
H2693 N2680 0.985 . S
C2694 C2695 1.363 . S
C2694 C2700 1.379 . S
C2694 N2702 1.356 . S
C2695 C2694 1.363 . S
C2695 C2701 1.363 . S
C2696 C2697 1.363 . S
C2696 C2701 1.379 . S
C2696 N2703 1.356 . S
C2697 C2696 1.363 . S
C2697 C2700 1.363 . S
N2698 C2700 1.356 . S
N2698 H2710 0.984 . S
N2698 H2711 0.985 . S
N2699 C2701 1.356 . S
N2699 H2704 0.984 . S
N2699 H2705 0.985 . S
C2700 C2694 1.379 . S
C2700 C2697 1.363 . S
C2700 N2698 1.356 . S
C2701 C2695 1.363 . S
C2701 C2696 1.379 . S
C2701 N2699 1.356 . S
N2702 C2694 1.356 . S
N2702 H2708 0.984 . S
N2702 H2709 0.984 . S
N2703 C2696 1.356 . S
N2703 H2706 0.984 . S
N2703 H2707 0.985 . S
H2704 N2699 0.984 . S
H2705 N2699 0.985 . S
H2706 N2703 0.984 . S
H2707 N2703 0.985 . S
H2708 N2702 0.984 . S
H2709 N2702 0.984 . S
H2710 N2698 0.984 . S
H2711 N2698 0.985 . S
C2712 C2713 1.363 . S
C2712 C2718 1.379 . S
C2712 N2720 1.356 . S
C2713 C2712 1.363 . S
C2713 C2719 1.363 . S
C2714 C2715 1.363 . S
C2714 C2719 1.379 . S
C2714 N2721 1.356 . S
C2715 C2714 1.363 . S
C2715 C2718 1.363 . S
N2716 C2718 1.356 . S
N2716 H2728 0.984 . S
N2716 H2729 0.985 . S
N2717 C2719 1.356 . S
N2717 H2722 0.984 . S
N2717 H2723 0.985 . S
C2718 C2712 1.379 . S
C2718 C2715 1.363 . S
C2718 N2716 1.356 . S
C2719 C2713 1.363 . S
C2719 C2714 1.379 . S
C2719 N2717 1.356 . S
N2720 C2712 1.356 . S
N2720 H2726 0.984 . S
N2720 H2727 0.984 . S
N2721 C2714 1.356 . S
N2721 H2724 0.984 . S
N2721 H2725 0.985 . S
H2722 N2717 0.984 . S
H2723 N2717 0.985 . S
H2724 N2721 0.984 . S
H2725 N2721 0.985 . S
H2726 N2720 0.984 . S
H2727 N2720 0.984 . S
H2728 N2716 0.984 . S
H2729 N2716 0.985 . S
C2730 C2731 1.363 . S
C2730 C2736 1.379 . S
C2730 N2738 1.356 . S
C2731 C2730 1.363 . S
C2731 C2737 1.363 . S
C2732 C2733 1.363 . S
C2732 C2737 1.379 . S
C2732 N2739 1.356 . S
C2733 C2732 1.363 . S
C2733 C2736 1.363 . S
N2734 C2736 1.356 . S
N2734 H2746 0.984 . S
N2734 H2747 0.985 . S
N2735 C2737 1.356 . S
N2735 H2740 0.984 . S
N2735 H2741 0.985 . S
C2736 C2730 1.379 . S
C2736 C2733 1.363 . S
C2736 N2734 1.356 . S
C2737 C2731 1.363 . S
C2737 C2732 1.379 . S
C2737 N2735 1.356 . S
N2738 C2730 1.356 . S
N2738 H2744 0.984 . S
N2738 H2745 0.984 . S
N2739 C2732 1.356 . S
N2739 H2742 0.984 . S
N2739 H2743 0.985 . S
H2740 N2735 0.984 . S
H2741 N2735 0.985 . S
H2742 N2739 0.984 . S
H2743 N2739 0.985 . S
H2744 N2738 0.984 . S
H2745 N2738 0.984 . S
H2746 N2734 0.984 . S
H2747 N2734 0.985 . S
C2748 C2749 1.363 . S
C2748 C2754 1.379 . S
C2748 N2756 1.356 . S
C2749 C2748 1.363 . S
C2749 C2755 1.363 . S
C2750 C2751 1.363 . S
C2750 C2755 1.379 . S
C2750 N2757 1.356 . S
C2751 C2750 1.363 . S
C2751 C2754 1.363 . S
N2752 C2754 1.356 . S
N2752 H2764 0.984 . S
N2752 H2765 0.985 . S
N2753 C2755 1.356 . S
N2753 H2758 0.984 . S
N2753 H2759 0.985 . S
C2754 C2748 1.379 . S
C2754 C2751 1.363 . S
C2754 N2752 1.356 . S
C2755 C2749 1.363 . S
C2755 C2750 1.379 . S
C2755 N2753 1.356 . S
N2756 C2748 1.356 . S
N2756 H2762 0.984 . S
N2756 H2763 0.984 . S
N2757 C2750 1.356 . S
N2757 H2760 0.984 . S
N2757 H2761 0.985 . S
H2758 N2753 0.984 . S
H2759 N2753 0.985 . S
H2760 N2757 0.984 . S
H2761 N2757 0.985 . S
H2762 N2756 0.984 . S
H2763 N2756 0.984 . S
H2764 N2752 0.984 . S
H2765 N2752 0.985 . S
C2766 C2767 1.363 . S
C2766 C2772 1.379 . S
C2766 N2774 1.356 . S
C2767 C2766 1.363 . S
C2767 C2773 1.363 . S
C2768 C2769 1.363 . S
C2768 C2773 1.379 . S
C2768 N2775 1.356 . S
C2769 C2768 1.363 . S
C2769 C2772 1.363 . S
N2770 C2772 1.356 . S
N2770 H2782 0.984 . S
N2770 H2783 0.985 . S
N2771 C2773 1.356 . S
N2771 H2776 0.984 . S
N2771 H2777 0.985 . S
C2772 C2766 1.379 . S
C2772 C2769 1.363 . S
C2772 N2770 1.356 . S
C2773 C2767 1.363 . S
C2773 C2768 1.379 . S
C2773 N2771 1.356 . S
N2774 C2766 1.356 . S
N2774 H2780 0.984 . S
N2774 H2781 0.984 . S
N2775 C2768 1.356 . S
N2775 H2778 0.984 . S
N2775 H2779 0.985 . S
H2776 N2771 0.984 . S
H2777 N2771 0.985 . S
H2778 N2775 0.984 . S
H2779 N2775 0.985 . S
H2780 N2774 0.984 . S
H2781 N2774 0.984 . S
H2782 N2770 0.984 . S
H2783 N2770 0.985 . S
C2784 C2785 1.363 . S
C2784 C2790 1.379 . S
C2784 N2792 1.356 . S
C2785 C2784 1.363 . S
C2785 C2791 1.363 . S
C2786 C2787 1.363 . S
C2786 C2791 1.379 . S
C2786 N2793 1.356 . S
C2787 C2786 1.363 . S
C2787 C2790 1.363 . S
N2788 C2790 1.356 . S
N2788 H2800 0.984 . S
N2788 H2801 0.985 . S
N2789 C2791 1.356 . S
N2789 H2794 0.984 . S
N2789 H2795 0.985 . S
C2790 C2784 1.379 . S
C2790 C2787 1.363 . S
C2790 N2788 1.356 . S
C2791 C2785 1.363 . S
C2791 C2786 1.379 . S
C2791 N2789 1.356 . S
N2792 C2784 1.356 . S
N2792 H2798 0.984 . S
N2792 H2799 0.984 . S
N2793 C2786 1.356 . S
N2793 H2796 0.984 . S
N2793 H2797 0.985 . S
H2794 N2789 0.984 . S
H2795 N2789 0.985 . S
H2796 N2793 0.984 . S
H2797 N2793 0.985 . S
H2798 N2792 0.984 . S
H2799 N2792 0.984 . S
H2800 N2788 0.984 . S
H2801 N2788 0.985 . S
C2802 C2803 1.363 . S
C2802 C2808 1.379 . S
C2802 N2810 1.356 . S
C2803 C2802 1.363 . S
C2803 C2809 1.363 . S
C2804 C2805 1.363 . S
C2804 C2809 1.379 . S
C2804 N2811 1.356 . S
C2805 C2804 1.363 . S
C2805 C2808 1.363 . S
N2806 C2808 1.356 . S
N2806 H2818 0.984 . S
N2806 H2819 0.985 . S
N2807 C2809 1.356 . S
N2807 H2812 0.984 . S
N2807 H2813 0.985 . S
C2808 C2802 1.379 . S
C2808 C2805 1.363 . S
C2808 N2806 1.356 . S
C2809 C2803 1.363 . S
C2809 C2804 1.379 . S
C2809 N2807 1.356 . S
N2810 C2802 1.356 . S
N2810 H2816 0.984 . S
N2810 H2817 0.984 . S
N2811 C2804 1.356 . S
N2811 H2814 0.984 . S
N2811 H2815 0.985 . S
H2812 N2807 0.984 . S
H2813 N2807 0.985 . S
H2814 N2811 0.984 . S
H2815 N2811 0.985 . S
H2816 N2810 0.984 . S
H2817 N2810 0.984 . S
H2818 N2806 0.984 . S
H2819 N2806 0.985 . S
C2820 C2821 1.363 . S
C2820 C2826 1.379 . S
C2820 N2828 1.356 . S
C2821 C2820 1.363 . S
C2821 C2827 1.363 . S
C2822 C2823 1.363 . S
C2822 C2827 1.379 . S
C2822 N2829 1.356 . S
C2823 C2822 1.363 . S
C2823 C2826 1.363 . S
N2824 C2826 1.356 . S
N2824 H2836 0.984 . S
N2824 H2837 0.985 . S
N2825 C2827 1.356 . S
N2825 H2830 0.984 . S
N2825 H2831 0.985 . S
C2826 C2820 1.379 . S
C2826 C2823 1.363 . S
C2826 N2824 1.356 . S
C2827 C2821 1.363 . S
C2827 C2822 1.379 . S
C2827 N2825 1.356 . S
N2828 C2820 1.356 . S
N2828 H2834 0.984 . S
N2828 H2835 0.984 . S
N2829 C2822 1.356 . S
N2829 H2832 0.984 . S
N2829 H2833 0.985 . S
H2830 N2825 0.984 . S
H2831 N2825 0.985 . S
H2832 N2829 0.984 . S
H2833 N2829 0.985 . S
H2834 N2828 0.984 . S
H2835 N2828 0.984 . S
H2836 N2824 0.984 . S
H2837 N2824 0.985 . S
C2838 C2839 1.363 . S
C2838 C2844 1.379 . S
C2838 N2846 1.356 . S
C2839 C2838 1.363 . S
C2839 C2845 1.363 . S
C2840 C2841 1.363 . S
C2840 C2845 1.379 . S
C2840 N2847 1.356 . S
C2841 C2840 1.363 . S
C2841 C2844 1.363 . S
N2842 C2844 1.356 . S
N2842 H2854 0.984 . S
N2842 H2855 0.985 . S
N2843 C2845 1.356 . S
N2843 H2848 0.984 . S
N2843 H2849 0.985 . S
C2844 C2838 1.379 . S
C2844 C2841 1.363 . S
C2844 N2842 1.356 . S
C2845 C2839 1.363 . S
C2845 C2840 1.379 . S
C2845 N2843 1.356 . S
N2846 C2838 1.356 . S
N2846 H2852 0.984 . S
N2846 H2853 0.984 . S
N2847 C2840 1.356 . S
N2847 H2850 0.984 . S
N2847 H2851 0.985 . S
H2848 N2843 0.984 . S
H2849 N2843 0.985 . S
H2850 N2847 0.984 . S
H2851 N2847 0.985 . S
H2852 N2846 0.984 . S
H2853 N2846 0.984 . S
H2854 N2842 0.984 . S
H2855 N2842 0.985 . S
C2856 C2857 1.363 . S
C2856 C2862 1.379 . S
C2856 N2864 1.356 . S
C2857 C2856 1.363 . S
C2857 C2863 1.363 . S
C2858 C2859 1.363 . S
C2858 C2863 1.379 . S
C2858 N2865 1.356 . S
C2859 C2858 1.363 . S
C2859 C2862 1.363 . S
N2860 C2862 1.356 . S
N2860 H2872 0.984 . S
N2860 H2873 0.985 . S
N2861 C2863 1.356 . S
N2861 H2866 0.984 . S
N2861 H2867 0.985 . S
C2862 C2856 1.379 . S
C2862 C2859 1.363 . S
C2862 N2860 1.356 . S
C2863 C2857 1.363 . S
C2863 C2858 1.379 . S
C2863 N2861 1.356 . S
N2864 C2856 1.356 . S
N2864 H2870 0.984 . S
N2864 H2871 0.984 . S
N2865 C2858 1.356 . S
N2865 H2868 0.984 . S
N2865 H2869 0.985 . S
H2866 N2861 0.984 . S
H2867 N2861 0.985 . S
H2868 N2865 0.984 . S
H2869 N2865 0.985 . S
H2870 N2864 0.984 . S
H2871 N2864 0.984 . S
H2872 N2860 0.984 . S
H2873 N2860 0.985 . S
C2874 C2875 1.363 . S
C2874 C2880 1.379 . S
C2874 N2882 1.356 . S
C2875 C2874 1.363 . S
C2875 C2881 1.363 . S
C2876 C2877 1.363 . S
C2876 C2881 1.379 . S
C2876 N2883 1.356 . S
C2877 C2876 1.363 . S
C2877 C2880 1.363 . S
N2878 C2880 1.356 . S
N2878 H2890 0.984 . S
N2878 H2891 0.985 . S
N2879 C2881 1.356 . S
N2879 H2884 0.984 . S
N2879 H2885 0.985 . S
C2880 C2874 1.379 . S
C2880 C2877 1.363 . S
C2880 N2878 1.356 . S
C2881 C2875 1.363 . S
C2881 C2876 1.379 . S
C2881 N2879 1.356 . S
N2882 C2874 1.356 . S
N2882 H2888 0.984 . S
N2882 H2889 0.984 . S
N2883 C2876 1.356 . S
N2883 H2886 0.984 . S
N2883 H2887 0.985 . S
H2884 N2879 0.984 . S
H2885 N2879 0.985 . S
H2886 N2883 0.984 . S
H2887 N2883 0.985 . S
H2888 N2882 0.984 . S
H2889 N2882 0.984 . S
H2890 N2878 0.984 . S
H2891 N2878 0.985 . S
C2892 C2893 1.363 . S
C2892 C2898 1.379 . S
C2892 N2900 1.356 . S
C2893 C2892 1.363 . S
C2893 C2899 1.363 . S
C2894 C2895 1.363 . S
C2894 C2899 1.379 . S
C2894 N2901 1.356 . S
C2895 C2894 1.363 . S
C2895 C2898 1.363 . S
N2896 C2898 1.356 . S
N2896 H2908 0.984 . S
N2896 H2909 0.985 . S
N2897 C2899 1.356 . S
N2897 H2902 0.984 . S
N2897 H2903 0.985 . S
C2898 C2892 1.379 . S
C2898 C2895 1.363 . S
C2898 N2896 1.356 . S
C2899 C2893 1.363 . S
C2899 C2894 1.379 . S
C2899 N2897 1.356 . S
N2900 C2892 1.356 . S
N2900 H2906 0.984 . S
N2900 H2907 0.984 . S
N2901 C2894 1.356 . S
N2901 H2904 0.984 . S
N2901 H2905 0.985 . S
H2902 N2897 0.984 . S
H2903 N2897 0.985 . S
H2904 N2901 0.984 . S
H2905 N2901 0.985 . S
H2906 N2900 0.984 . S
H2907 N2900 0.984 . S
H2908 N2896 0.984 . S
H2909 N2896 0.985 . S
C2910 C2911 1.363 . S
C2910 C2916 1.379 . S
C2910 N2918 1.356 . S
C2911 C2910 1.363 . S
C2911 C2917 1.363 . S
C2912 C2913 1.363 . S
C2912 C2917 1.379 . S
C2912 N2919 1.356 . S
C2913 C2912 1.363 . S
C2913 C2916 1.363 . S
N2914 C2916 1.356 . S
N2914 H2926 0.984 . S
N2914 H2927 0.985 . S
N2915 C2917 1.356 . S
N2915 H2920 0.984 . S
N2915 H2921 0.985 . S
C2916 C2910 1.379 . S
C2916 C2913 1.363 . S
C2916 N2914 1.356 . S
C2917 C2911 1.363 . S
C2917 C2912 1.379 . S
C2917 N2915 1.356 . S
N2918 C2910 1.356 . S
N2918 H2924 0.984 . S
N2918 H2925 0.984 . S
N2919 C2912 1.356 . S
N2919 H2922 0.984 . S
N2919 H2923 0.985 . S
H2920 N2915 0.984 . S
H2921 N2915 0.985 . S
H2922 N2919 0.984 . S
H2923 N2919 0.985 . S
H2924 N2918 0.984 . S
H2925 N2918 0.984 . S
H2926 N2914 0.984 . S
H2927 N2914 0.985 . S
C2928 C2929 1.363 . S
C2928 C2934 1.379 . S
C2928 N2936 1.356 . S
C2929 C2928 1.363 . S
C2929 C2935 1.363 . S
C2930 C2931 1.363 . S
C2930 C2935 1.379 . S
C2930 N2937 1.356 . S
C2931 C2930 1.363 . S
C2931 C2934 1.363 . S
N2932 C2934 1.356 . S
N2932 H2944 0.984 . S
N2932 H2945 0.985 . S
N2933 C2935 1.356 . S
N2933 H2938 0.984 . S
N2933 H2939 0.985 . S
C2934 C2928 1.379 . S
C2934 C2931 1.363 . S
C2934 N2932 1.356 . S
C2935 C2929 1.363 . S
C2935 C2930 1.379 . S
C2935 N2933 1.356 . S
N2936 C2928 1.356 . S
N2936 H2942 0.984 . S
N2936 H2943 0.984 . S
N2937 C2930 1.356 . S
N2937 H2940 0.984 . S
N2937 H2941 0.985 . S
H2938 N2933 0.984 . S
H2939 N2933 0.985 . S
H2940 N2937 0.984 . S
H2941 N2937 0.985 . S
H2942 N2936 0.984 . S
H2943 N2936 0.984 . S
H2944 N2932 0.984 . S
H2945 N2932 0.985 . S
C2946 C2947 1.363 . S
C2946 C2952 1.379 . S
C2946 N2954 1.356 . S
C2947 C2946 1.363 . S
C2947 C2953 1.363 . S
C2948 C2949 1.363 . S
C2948 C2953 1.379 . S
C2948 N2955 1.356 . S
C2949 C2948 1.363 . S
C2949 C2952 1.363 . S
N2950 C2952 1.356 . S
N2950 H2962 0.984 . S
N2950 H2963 0.985 . S
N2951 C2953 1.356 . S
N2951 H2956 0.984 . S
N2951 H2957 0.985 . S
C2952 C2946 1.379 . S
C2952 C2949 1.363 . S
C2952 N2950 1.356 . S
C2953 C2947 1.363 . S
C2953 C2948 1.379 . S
C2953 N2951 1.356 . S
N2954 C2946 1.356 . S
N2954 H2960 0.984 . S
N2954 H2961 0.984 . S
N2955 C2948 1.356 . S
N2955 H2958 0.984 . S
N2955 H2959 0.985 . S
H2956 N2951 0.984 . S
H2957 N2951 0.985 . S
H2958 N2955 0.984 . S
H2959 N2955 0.985 . S
H2960 N2954 0.984 . S
H2961 N2954 0.984 . S
H2962 N2950 0.984 . S
H2963 N2950 0.985 . S
C2964 C2965 1.363 . S
C2964 C2970 1.379 . S
C2964 N2972 1.356 . S
C2965 C2964 1.363 . S
C2965 C2971 1.363 . S
C2966 C2967 1.363 . S
C2966 C2971 1.379 . S
C2966 N2973 1.356 . S
C2967 C2966 1.363 . S
C2967 C2970 1.363 . S
N2968 C2970 1.356 . S
N2968 H2980 0.984 . S
N2968 H2981 0.985 . S
N2969 C2971 1.356 . S
N2969 H2974 0.984 . S
N2969 H2975 0.985 . S
C2970 C2964 1.379 . S
C2970 C2967 1.363 . S
C2970 N2968 1.356 . S
C2971 C2965 1.363 . S
C2971 C2966 1.379 . S
C2971 N2969 1.356 . S
N2972 C2964 1.356 . S
N2972 H2978 0.984 . S
N2972 H2979 0.984 . S
N2973 C2966 1.356 . S
N2973 H2976 0.984 . S
N2973 H2977 0.985 . S
H2974 N2969 0.984 . S
H2975 N2969 0.985 . S
H2976 N2973 0.984 . S
H2977 N2973 0.985 . S
H2978 N2972 0.984 . S
H2979 N2972 0.984 . S
H2980 N2968 0.984 . S
H2981 N2968 0.985 . S
C2982 C2983 1.363 . S
C2982 C2988 1.379 . S
C2982 N2990 1.356 . S
C2983 C2982 1.363 . S
C2983 C2989 1.363 . S
C2984 C2985 1.363 . S
C2984 C2989 1.379 . S
C2984 N2991 1.356 . S
C2985 C2984 1.363 . S
C2985 C2988 1.363 . S
N2986 C2988 1.356 . S
N2986 H2998 0.984 . S
N2986 H2999 0.985 . S
N2987 C2989 1.356 . S
N2987 H2992 0.984 . S
N2987 H2993 0.985 . S
C2988 C2982 1.379 . S
C2988 C2985 1.363 . S
C2988 N2986 1.356 . S
C2989 C2983 1.363 . S
C2989 C2984 1.379 . S
C2989 N2987 1.356 . S
N2990 C2982 1.356 . S
N2990 H2996 0.984 . S
N2990 H2997 0.984 . S
N2991 C2984 1.356 . S
N2991 H2994 0.984 . S
N2991 H2995 0.985 . S
H2992 N2987 0.984 . S
H2993 N2987 0.985 . S
H2994 N2991 0.984 . S
H2995 N2991 0.985 . S
H2996 N2990 0.984 . S
H2997 N2990 0.984 . S
H2998 N2986 0.984 . S
H2999 N2986 0.985 . S
C3000 C3001 1.363 . S
C3000 C3006 1.379 . S
C3000 N3008 1.356 . S
C3001 C3000 1.363 . S
C3001 C3007 1.363 . S
C3002 C3003 1.363 . S
C3002 C3007 1.379 . S
C3002 N3009 1.356 . S
C3003 C3002 1.363 . S
C3003 C3006 1.363 . S
N3004 C3006 1.356 . S
N3004 H3016 0.984 . S
N3004 H3017 0.985 . S
N3005 C3007 1.356 . S
N3005 H3010 0.984 . S
N3005 H3011 0.985 . S
C3006 C3000 1.379 . S
C3006 C3003 1.363 . S
C3006 N3004 1.356 . S
C3007 C3001 1.363 . S
C3007 C3002 1.379 . S
C3007 N3005 1.356 . S
N3008 C3000 1.356 . S
N3008 H3014 0.984 . S
N3008 H3015 0.984 . S
N3009 C3002 1.356 . S
N3009 H3012 0.984 . S
N3009 H3013 0.985 . S
H3010 N3005 0.984 . S
H3011 N3005 0.985 . S
H3012 N3009 0.984 . S
H3013 N3009 0.985 . S
H3014 N3008 0.984 . S
H3015 N3008 0.984 . S
H3016 N3004 0.984 . S
H3017 N3004 0.985 . S
C3018 C3019 1.363 . S
C3018 C3024 1.379 . S
C3018 N3026 1.356 . S
C3019 C3018 1.363 . S
C3019 C3025 1.363 . S
C3020 C3021 1.363 . S
C3020 C3025 1.379 . S
C3020 N3027 1.356 . S
C3021 C3020 1.363 . S
C3021 C3024 1.363 . S
N3022 C3024 1.356 . S
N3022 H3034 0.984 . S
N3022 H3035 0.985 . S
N3023 C3025 1.356 . S
N3023 H3028 0.984 . S
N3023 H3029 0.985 . S
C3024 C3018 1.379 . S
C3024 C3021 1.363 . S
C3024 N3022 1.356 . S
C3025 C3019 1.363 . S
C3025 C3020 1.379 . S
C3025 N3023 1.356 . S
N3026 C3018 1.356 . S
N3026 H3032 0.984 . S
N3026 H3033 0.984 . S
N3027 C3020 1.356 . S
N3027 H3030 0.984 . S
N3027 H3031 0.985 . S
H3028 N3023 0.984 . S
H3029 N3023 0.985 . S
H3030 N3027 0.984 . S
H3031 N3027 0.985 . S
H3032 N3026 0.984 . S
H3033 N3026 0.984 . S
H3034 N3022 0.984 . S
H3035 N3022 0.985 . S
C3036 C3037 1.363 . S
C3036 C3042 1.379 . S
C3036 N3044 1.356 . S
C3037 C3036 1.363 . S
C3037 C3043 1.363 . S
C3038 C3039 1.363 . S
C3038 C3043 1.379 . S
C3038 N3045 1.356 . S
C3039 C3038 1.363 . S
C3039 C3042 1.363 . S
N3040 C3042 1.356 . S
N3040 H3052 0.984 . S
N3040 H3053 0.985 . S
N3041 C3043 1.356 . S
N3041 H3046 0.984 . S
N3041 H3047 0.985 . S
C3042 C3036 1.379 . S
C3042 C3039 1.363 . S
C3042 N3040 1.356 . S
C3043 C3037 1.363 . S
C3043 C3038 1.379 . S
C3043 N3041 1.356 . S
N3044 C3036 1.356 . S
N3044 H3050 0.984 . S
N3044 H3051 0.984 . S
N3045 C3038 1.356 . S
N3045 H3048 0.984 . S
N3045 H3049 0.985 . S
H3046 N3041 0.984 . S
H3047 N3041 0.985 . S
H3048 N3045 0.984 . S
H3049 N3045 0.985 . S
H3050 N3044 0.984 . S
H3051 N3044 0.984 . S
H3052 N3040 0.984 . S
H3053 N3040 0.985 . S
C3054 C3055 1.363 . S
C3054 C3060 1.379 . S
C3054 N3062 1.356 . S
C3055 C3054 1.363 . S
C3055 C3061 1.363 . S
C3056 C3057 1.363 . S
C3056 C3061 1.379 . S
C3056 N3063 1.356 . S
C3057 C3056 1.363 . S
C3057 C3060 1.363 . S
N3058 C3060 1.356 . S
N3058 H3070 0.984 . S
N3058 H3071 0.985 . S
N3059 C3061 1.356 . S
N3059 H3064 0.984 . S
N3059 H3065 0.985 . S
C3060 C3054 1.379 . S
C3060 C3057 1.363 . S
C3060 N3058 1.356 . S
C3061 C3055 1.363 . S
C3061 C3056 1.379 . S
C3061 N3059 1.356 . S
N3062 C3054 1.356 . S
N3062 H3068 0.984 . S
N3062 H3069 0.984 . S
N3063 C3056 1.356 . S
N3063 H3066 0.984 . S
N3063 H3067 0.985 . S
H3064 N3059 0.984 . S
H3065 N3059 0.985 . S
H3066 N3063 0.984 . S
H3067 N3063 0.985 . S
H3068 N3062 0.984 . S
H3069 N3062 0.984 . S
H3070 N3058 0.984 . S
H3071 N3058 0.985 . S
C3072 C3073 1.363 . S
C3072 C3078 1.379 . S
C3072 N3080 1.356 . S
C3073 C3072 1.363 . S
C3073 C3079 1.363 . S
C3074 C3075 1.363 . S
C3074 C3079 1.379 . S
C3074 N3081 1.356 . S
C3075 C3074 1.363 . S
C3075 C3078 1.363 . S
N3076 C3078 1.356 . S
N3076 H3088 0.984 . S
N3076 H3089 0.985 . S
N3077 C3079 1.356 . S
N3077 H3082 0.984 . S
N3077 H3083 0.985 . S
C3078 C3072 1.379 . S
C3078 C3075 1.363 . S
C3078 N3076 1.356 . S
C3079 C3073 1.363 . S
C3079 C3074 1.379 . S
C3079 N3077 1.356 . S
N3080 C3072 1.356 . S
N3080 H3086 0.984 . S
N3080 H3087 0.984 . S
N3081 C3074 1.356 . S
N3081 H3084 0.984 . S
N3081 H3085 0.985 . S
H3082 N3077 0.984 . S
H3083 N3077 0.985 . S
H3084 N3081 0.984 . S
H3085 N3081 0.985 . S
H3086 N3080 0.984 . S
H3087 N3080 0.984 . S
H3088 N3076 0.984 . S
H3089 N3076 0.985 . S
C3090 C3091 1.363 . S
C3090 C3096 1.379 . S
C3090 N3098 1.356 . S
C3091 C3090 1.363 . S
C3091 C3097 1.363 . S
C3092 C3093 1.363 . S
C3092 C3097 1.379 . S
C3092 N3099 1.356 . S
C3093 C3092 1.363 . S
C3093 C3096 1.363 . S
N3094 C3096 1.356 . S
N3094 H3106 0.984 . S
N3094 H3107 0.985 . S
N3095 C3097 1.356 . S
N3095 H3100 0.984 . S
N3095 H3101 0.985 . S
C3096 C3090 1.379 . S
C3096 C3093 1.363 . S
C3096 N3094 1.356 . S
C3097 C3091 1.363 . S
C3097 C3092 1.379 . S
C3097 N3095 1.356 . S
N3098 C3090 1.356 . S
N3098 H3104 0.984 . S
N3098 H3105 0.984 . S
N3099 C3092 1.356 . S
N3099 H3102 0.984 . S
N3099 H3103 0.985 . S
H3100 N3095 0.984 . S
H3101 N3095 0.985 . S
H3102 N3099 0.984 . S
H3103 N3099 0.985 . S
H3104 N3098 0.984 . S
H3105 N3098 0.984 . S
H3106 N3094 0.984 . S
H3107 N3094 0.985 . S
C3108 C3109 1.363 . S
C3108 C3114 1.379 . S
C3108 N3116 1.356 . S
C3109 C3108 1.363 . S
C3109 C3115 1.363 . S
C3110 C3111 1.363 . S
C3110 C3115 1.379 . S
C3110 N3117 1.356 . S
C3111 C3110 1.363 . S
C3111 C3114 1.363 . S
N3112 C3114 1.356 . S
N3112 H3124 0.984 . S
N3112 H3125 0.985 . S
N3113 C3115 1.356 . S
N3113 H3118 0.984 . S
N3113 H3119 0.985 . S
C3114 C3108 1.379 . S
C3114 C3111 1.363 . S
C3114 N3112 1.356 . S
C3115 C3109 1.363 . S
C3115 C3110 1.379 . S
C3115 N3113 1.356 . S
N3116 C3108 1.356 . S
N3116 H3122 0.984 . S
N3116 H3123 0.984 . S
N3117 C3110 1.356 . S
N3117 H3120 0.984 . S
N3117 H3121 0.985 . S
H3118 N3113 0.984 . S
H3119 N3113 0.985 . S
H3120 N3117 0.984 . S
H3121 N3117 0.985 . S
H3122 N3116 0.984 . S
H3123 N3116 0.984 . S
H3124 N3112 0.984 . S
H3125 N3112 0.985 . S
C3126 C3127 1.363 . S
C3126 C3132 1.379 . S
C3126 N3134 1.356 . S
C3127 C3126 1.363 . S
C3127 C3133 1.363 . S
C3128 C3129 1.363 . S
C3128 C3133 1.379 . S
C3128 N3135 1.356 . S
C3129 C3128 1.363 . S
C3129 C3132 1.363 . S
N3130 C3132 1.356 . S
N3130 H3142 0.984 . S
N3130 H3143 0.985 . S
N3131 C3133 1.356 . S
N3131 H3136 0.984 . S
N3131 H3137 0.985 . S
C3132 C3126 1.379 . S
C3132 C3129 1.363 . S
C3132 N3130 1.356 . S
C3133 C3127 1.363 . S
C3133 C3128 1.379 . S
C3133 N3131 1.356 . S
N3134 C3126 1.356 . S
N3134 H3140 0.984 . S
N3134 H3141 0.984 . S
N3135 C3128 1.356 . S
N3135 H3138 0.984 . S
N3135 H3139 0.985 . S
H3136 N3131 0.984 . S
H3137 N3131 0.985 . S
H3138 N3135 0.984 . S
H3139 N3135 0.985 . S
H3140 N3134 0.984 . S
H3141 N3134 0.984 . S
H3142 N3130 0.984 . S
H3143 N3130 0.985 . S
C3144 C3145 1.363 . S
C3144 C3150 1.379 . S
C3144 N3152 1.356 . S
C3145 C3144 1.363 . S
C3145 C3151 1.363 . S
C3146 C3147 1.363 . S
C3146 C3151 1.379 . S
C3146 N3153 1.356 . S
C3147 C3146 1.363 . S
C3147 C3150 1.363 . S
N3148 C3150 1.356 . S
N3148 H3160 0.985 1_554 S
N3148 H3161 0.985 . S
N3149 C3151 1.356 . S
N3149 H3154 0.984 . S
N3149 H3155 0.985 . S
C3150 C3144 1.379 . S
C3150 C3147 1.363 . S
C3150 N3148 1.356 . S
C3151 C3145 1.363 . S
C3151 C3146 1.379 . S
C3151 N3149 1.356 . S
N3152 C3144 1.356 . S
N3152 H3158 0.984 . S
N3152 H3159 0.984 . S
N3153 C3146 1.356 . S
N3153 H3156 0.984 . S
N3153 H3157 0.985 . S
H3154 N3149 0.984 . S
H3155 N3149 0.985 . S
H3156 N3153 0.984 . S
H3157 N3153 0.985 . S
H3158 N3152 0.984 . S
H3159 N3152 0.984 . S
H3160 N3148 0.985 1_556 S
H3161 N3148 0.985 . S
C3162 C3163 1.363 . S
C3162 C3168 1.379 . S
C3162 N3170 1.356 . S
C3163 C3162 1.363 . S
C3163 C3169 1.363 . S
C3164 C3165 1.363 . S
C3164 C3169 1.379 . S
C3164 N3171 1.356 . S
C3165 C3164 1.363 . S
C3165 C3168 1.363 . S
N3166 C3168 1.356 . S
N3166 H3178 0.985 1_455 S
N3166 H3179 0.985 . S
N3167 C3169 1.356 . S
N3167 H3172 0.984 . S
N3167 H3173 0.985 . S
C3168 C3162 1.379 . S
C3168 C3165 1.363 . S
C3168 N3166 1.356 . S
C3169 C3163 1.363 . S
C3169 C3164 1.379 . S
C3169 N3167 1.356 . S
N3170 C3162 1.356 . S
N3170 H3176 0.984 . S
N3170 H3177 0.984 . S
N3171 C3164 1.356 . S
N3171 H3174 0.984 . S
N3171 H3175 0.985 . S
H3172 N3167 0.984 . S
H3173 N3167 0.985 . S
H3174 N3171 0.984 . S
H3175 N3171 0.985 . S
H3176 N3170 0.984 . S
H3177 N3170 0.984 . S
H3178 N3166 0.985 1_655 S
H3179 N3166 0.985 . S
C3180 C3181 1.363 . S
C3180 C3186 1.379 . S
C3180 N3188 1.356 . S
C3181 C3180 1.363 . S
C3181 C3187 1.363 . S
C3182 C3183 1.363 . S
C3182 C3187 1.379 . S
C3182 N3189 1.356 . S
C3183 C3182 1.363 . S
C3183 C3186 1.363 . S
N3184 C3186 1.356 . S
N3184 H3196 0.984 . S
N3184 H3197 0.985 . S
N3185 C3187 1.356 . S
N3185 H3190 0.984 . S
N3185 H3191 0.985 . S
C3186 C3180 1.379 . S
C3186 C3183 1.363 . S
C3186 N3184 1.356 . S
C3187 C3181 1.363 . S
C3187 C3182 1.379 . S
C3187 N3185 1.356 . S
N3188 C3180 1.356 . S
N3188 H3194 0.984 . S
N3188 H3195 0.984 . S
N3189 C3182 1.356 . S
N3189 H3192 0.984 . S
N3189 H3193 0.985 . S
H3190 N3185 0.984 . S
H3191 N3185 0.985 . S
H3192 N3189 0.984 . S
H3193 N3189 0.985 . S
H3194 N3188 0.984 . S
H3195 N3188 0.984 . S
H3196 N3184 0.984 . S
H3197 N3184 0.985 . S
C3198 C3199 1.363 . S
C3198 C3204 1.379 . S
C3198 N3206 1.356 . S
C3199 C3198 1.363 . S
C3199 C3205 1.363 . S
C3200 C3201 1.363 . S
C3200 C3205 1.379 . S
C3200 N3207 1.356 . S
C3201 C3200 1.363 . S
C3201 C3204 1.363 . S
N3202 C3204 1.356 . S
N3202 H3214 0.984 . S
N3202 H3215 0.985 . S
N3203 C3205 1.356 . S
N3203 H3208 0.984 . S
N3203 H3209 0.985 . S
C3204 C3198 1.379 . S
C3204 C3201 1.363 . S
C3204 N3202 1.356 . S
C3205 C3199 1.363 . S
C3205 C3200 1.379 . S
C3205 N3203 1.356 . S
N3206 C3198 1.356 . S
N3206 H3212 0.984 . S
N3206 H3213 0.984 . S
N3207 C3200 1.356 . S
N3207 H3210 0.984 . S
N3207 H3211 0.985 . S
H3208 N3203 0.984 . S
H3209 N3203 0.985 . S
H3210 N3207 0.984 . S
H3211 N3207 0.985 . S
H3212 N3206 0.984 . S
H3213 N3206 0.984 . S
H3214 N3202 0.984 . S
H3215 N3202 0.985 . S
C3216 C3217 1.363 . S
C3216 C3222 1.379 . S
C3216 N3224 1.356 . S
C3217 C3216 1.363 . S
C3217 C3223 1.363 . S
C3218 C3219 1.363 . S
C3218 C3223 1.379 . S
C3218 N3225 1.356 . S
C3219 C3218 1.363 . S
C3219 C3222 1.363 . S
N3220 C3222 1.356 . S
N3220 H3232 0.984 . S
N3220 H3233 0.985 . S
N3221 C3223 1.356 . S
N3221 H3226 0.984 . S
N3221 H3227 0.985 . S
C3222 C3216 1.379 . S
C3222 C3219 1.363 . S
C3222 N3220 1.356 . S
C3223 C3217 1.363 . S
C3223 C3218 1.379 . S
C3223 N3221 1.356 . S
N3224 C3216 1.356 . S
N3224 H3230 0.984 . S
N3224 H3231 0.984 . S
N3225 C3218 1.356 . S
N3225 H3228 0.984 . S
N3225 H3229 0.985 . S
H3226 N3221 0.984 . S
H3227 N3221 0.985 . S
H3228 N3225 0.984 . S
H3229 N3225 0.985 . S
H3230 N3224 0.984 . S
H3231 N3224 0.984 . S
H3232 N3220 0.984 . S
H3233 N3220 0.985 . S
C3234 C3235 1.363 . S
C3234 C3240 1.379 . S
C3234 N3242 1.356 . S
C3235 C3234 1.363 . S
C3235 C3241 1.363 . S
C3236 C3237 1.363 . S
C3236 C3241 1.379 . S
C3236 N3243 1.356 . S
C3237 C3236 1.363 . S
C3237 C3240 1.363 . S
N3238 C3240 1.356 . S
N3238 H3250 0.984 . S
N3238 H3251 0.985 . S
N3239 C3241 1.356 . S
N3239 H3244 0.984 . S
N3239 H3245 0.985 . S
C3240 C3234 1.379 . S
C3240 C3237 1.363 . S
C3240 N3238 1.356 . S
C3241 C3235 1.363 . S
C3241 C3236 1.379 . S
C3241 N3239 1.356 . S
N3242 C3234 1.356 . S
N3242 H3248 0.984 . S
N3242 H3249 0.984 . S
N3243 C3236 1.356 . S
N3243 H3246 0.984 . S
N3243 H3247 0.985 . S
H3244 N3239 0.984 . S
H3245 N3239 0.985 . S
H3246 N3243 0.984 . S
H3247 N3243 0.985 . S
H3248 N3242 0.984 . S
H3249 N3242 0.984 . S
H3250 N3238 0.984 . S
H3251 N3238 0.985 . S
C3252 C3253 1.363 . S
C3252 C3258 1.379 . S
C3252 N3260 1.356 . S
C3253 C3252 1.363 . S
C3253 C3259 1.363 . S
C3254 C3255 1.363 . S
C3254 C3259 1.379 . S
C3254 N3261 1.356 . S
C3255 C3254 1.363 . S
C3255 C3258 1.363 . S
N3256 C3258 1.356 . S
N3256 H3268 0.984 . S
N3256 H3269 0.985 . S
N3257 C3259 1.356 . S
N3257 H3262 0.984 . S
N3257 H3263 0.985 . S
C3258 C3252 1.379 . S
C3258 C3255 1.363 . S
C3258 N3256 1.356 . S
C3259 C3253 1.363 . S
C3259 C3254 1.379 . S
C3259 N3257 1.356 . S
N3260 C3252 1.356 . S
N3260 H3266 0.984 . S
N3260 H3267 0.984 . S
N3261 C3254 1.356 . S
N3261 H3264 0.984 . S
N3261 H3265 0.985 . S
H3262 N3257 0.984 . S
H3263 N3257 0.985 . S
H3264 N3261 0.984 . S
H3265 N3261 0.985 . S
H3266 N3260 0.984 . S
H3267 N3260 0.984 . S
H3268 N3256 0.984 . S
H3269 N3256 0.985 . S
C3270 C3271 1.363 . S
C3270 C3276 1.379 . S
C3270 N3278 1.356 . S
C3271 C3270 1.363 . S
C3271 C3277 1.363 . S
C3272 C3273 1.363 . S
C3272 C3277 1.379 . S
C3272 N3279 1.356 . S
C3273 C3272 1.363 . S
C3273 C3276 1.363 . S
N3274 C3276 1.356 . S
N3274 H3286 0.984 . S
N3274 H3287 0.985 . S
N3275 C3277 1.356 . S
N3275 H3280 0.984 . S
N3275 H3281 0.985 . S
C3276 C3270 1.379 . S
C3276 C3273 1.363 . S
C3276 N3274 1.356 . S
C3277 C3271 1.363 . S
C3277 C3272 1.379 . S
C3277 N3275 1.356 . S
N3278 C3270 1.356 . S
N3278 H3284 0.984 . S
N3278 H3285 0.984 . S
N3279 C3272 1.356 . S
N3279 H3282 0.984 . S
N3279 H3283 0.985 . S
H3280 N3275 0.984 . S
H3281 N3275 0.985 . S
H3282 N3279 0.984 . S
H3283 N3279 0.985 . S
H3284 N3278 0.984 . S
H3285 N3278 0.984 . S
H3286 N3274 0.984 . S
H3287 N3274 0.985 . S
C3288 C3289 1.363 . S
C3288 C3294 1.379 . S
C3288 N3296 1.356 . S
C3289 C3288 1.363 . S
C3289 C3295 1.363 . S
C3290 C3291 1.363 . S
C3290 C3295 1.379 . S
C3290 N3297 1.356 . S
C3291 C3290 1.363 . S
C3291 C3294 1.363 . S
N3292 C3294 1.356 . S
N3292 H3304 0.984 . S
N3292 H3305 0.985 . S
N3293 C3295 1.356 . S
N3293 H3298 0.984 . S
N3293 H3299 0.985 . S
C3294 C3288 1.379 . S
C3294 C3291 1.363 . S
C3294 N3292 1.356 . S
C3295 C3289 1.363 . S
C3295 C3290 1.379 . S
C3295 N3293 1.356 . S
N3296 C3288 1.356 . S
N3296 H3302 0.984 . S
N3296 H3303 0.984 . S
N3297 C3290 1.356 . S
N3297 H3300 0.984 . S
N3297 H3301 0.985 . S
H3298 N3293 0.984 . S
H3299 N3293 0.985 . S
H3300 N3297 0.984 . S
H3301 N3297 0.985 . S
H3302 N3296 0.984 . S
H3303 N3296 0.984 . S
H3304 N3292 0.984 . S
H3305 N3292 0.985 . S
C3306 C3307 1.363 . S
C3306 C3312 1.379 . S
C3306 N3314 1.356 . S
C3307 C3306 1.363 . S
C3307 C3313 1.363 . S
C3308 C3309 1.363 . S
C3308 C3313 1.379 . S
C3308 N3315 1.356 . S
C3309 C3308 1.363 . S
C3309 C3312 1.363 . S
N3310 C3312 1.356 . S
N3310 H3322 0.984 . S
N3310 H3323 0.985 . S
N3311 C3313 1.356 . S
N3311 H3316 0.984 . S
N3311 H3317 0.985 . S
C3312 C3306 1.379 . S
C3312 C3309 1.363 . S
C3312 N3310 1.356 . S
C3313 C3307 1.363 . S
C3313 C3308 1.379 . S
C3313 N3311 1.356 . S
N3314 C3306 1.356 . S
N3314 H3320 0.984 . S
N3314 H3321 0.984 . S
N3315 C3308 1.356 . S
N3315 H3318 0.984 . S
N3315 H3319 0.985 . S
H3316 N3311 0.984 . S
H3317 N3311 0.985 . S
H3318 N3315 0.984 . S
H3319 N3315 0.985 . S
H3320 N3314 0.984 . S
H3321 N3314 0.984 . S
H3322 N3310 0.984 . S
H3323 N3310 0.985 . S
C3324 C3325 1.363 . S
C3324 C3330 1.379 . S
C3324 N3332 1.356 . S
C3325 C3324 1.363 . S
C3325 C3331 1.363 . S
C3326 C3327 1.363 . S
C3326 C3331 1.379 . S
C3326 N3333 1.356 . S
C3327 C3326 1.363 . S
C3327 C3330 1.363 . S
N3328 C3330 1.356 . S
N3328 H3340 0.984 . S
N3328 H3341 0.985 . S
N3329 C3331 1.356 . S
N3329 H3334 0.984 . S
N3329 H3335 0.985 . S
C3330 C3324 1.379 . S
C3330 C3327 1.363 . S
C3330 N3328 1.356 . S
C3331 C3325 1.363 . S
C3331 C3326 1.379 . S
C3331 N3329 1.356 . S
N3332 C3324 1.356 . S
N3332 H3338 0.984 . S
N3332 H3339 0.984 . S
N3333 C3326 1.356 . S
N3333 H3336 0.984 . S
N3333 H3337 0.985 . S
H3334 N3329 0.984 . S
H3335 N3329 0.985 . S
H3336 N3333 0.984 . S
H3337 N3333 0.985 . S
H3338 N3332 0.984 . S
H3339 N3332 0.984 . S
H3340 N3328 0.984 . S
H3341 N3328 0.985 . S
C3342 C3343 1.363 . S
C3342 C3348 1.379 . S
C3342 N3350 1.356 . S
C3343 C3342 1.363 . S
C3343 C3349 1.363 . S
C3344 C3345 1.363 . S
C3344 C3349 1.379 . S
C3344 N3351 1.356 . S
C3345 C3344 1.363 . S
C3345 C3348 1.363 . S
N3346 C3348 1.356 . S
N3346 H3358 0.984 . S
N3346 H3359 0.985 . S
N3347 C3349 1.356 . S
N3347 H3352 0.984 . S
N3347 H3353 0.985 . S
C3348 C3342 1.379 . S
C3348 C3345 1.363 . S
C3348 N3346 1.356 . S
C3349 C3343 1.363 . S
C3349 C3344 1.379 . S
C3349 N3347 1.356 . S
N3350 C3342 1.356 . S
N3350 H3356 0.984 . S
N3350 H3357 0.984 . S
N3351 C3344 1.356 . S
N3351 H3354 0.984 . S
N3351 H3355 0.985 . S
H3352 N3347 0.984 . S
H3353 N3347 0.985 . S
H3354 N3351 0.984 . S
H3355 N3351 0.985 . S
H3356 N3350 0.984 . S
H3357 N3350 0.984 . S
H3358 N3346 0.984 . S
H3359 N3346 0.985 . S
C3360 C3361 1.363 1_545 S
C3360 C3366 1.379 . S
C3360 N3368 1.356 1_655 S
C3361 C3360 1.363 1_565 S
C3361 C3367 1.363 . S
C3362 C3363 1.363 1_565 S
C3362 C3367 1.379 . S
C3362 N3369 1.356 . S
C3363 C3362 1.363 1_545 S
C3363 C3366 1.363 . S
N3364 C3366 1.356 1_455 S
N3364 H3376 0.984 . S
N3364 H3377 0.985 . S
N3365 C3367 1.356 . S
N3365 H3370 0.984 . S
N3365 H3371 0.985 . S
C3366 C3360 1.379 . S
C3366 C3363 1.363 . S
C3366 N3364 1.356 1_655 S
C3367 C3361 1.363 . S
C3367 C3362 1.379 . S
C3367 N3365 1.356 . S
N3368 C3360 1.356 1_455 S
N3368 H3374 0.984 . S
N3368 H3375 0.984 . S
N3369 C3362 1.356 . S
N3369 H3372 0.984 . S
N3369 H3373 0.985 . S
H3370 N3365 0.984 . S
H3371 N3365 0.985 . S
H3372 N3369 0.984 . S
H3373 N3369 0.985 . S
H3374 N3368 0.984 . S
H3375 N3368 0.984 . S
H3376 N3364 0.984 . S
H3377 N3364 0.985 . S
C3378 C3379 1.363 . S
C3378 C3384 1.379 . S
C3378 N3386 1.356 . S
C3379 C3378 1.363 . S
C3379 C3385 1.363 . S
C3380 C3381 1.363 . S
C3380 C3385 1.379 . S
C3380 N3387 1.356 . S
C3381 C3380 1.363 . S
C3381 C3384 1.363 . S
N3382 C3384 1.356 . S
N3382 H3394 0.984 . S
N3382 H3395 0.985 . S
N3383 C3385 1.356 . S
N3383 H3388 0.984 . S
N3383 H3389 0.985 . S
C3384 C3378 1.379 . S
C3384 C3381 1.363 . S
C3384 N3382 1.356 . S
C3385 C3379 1.363 . S
C3385 C3380 1.379 . S
C3385 N3383 1.356 . S
N3386 C3378 1.356 . S
N3386 H3392 0.984 . S
N3386 H3393 0.984 . S
N3387 C3380 1.356 . S
N3387 H3390 0.984 . S
N3387 H3391 0.985 . S
H3388 N3383 0.984 . S
H3389 N3383 0.985 . S
H3390 N3387 0.984 . S
H3391 N3387 0.985 . S
H3392 N3386 0.984 . S
H3393 N3386 0.984 . S
H3394 N3382 0.984 . S
H3395 N3382 0.985 . S
C3396 C3397 1.363 1_565 S
C3396 C3402 1.379 . S
C3396 N3404 1.357 . S
C3397 C3396 1.363 1_545 S
C3397 C3403 1.363 . S
C3398 C3399 1.356 1_545 S
C3398 C3403 1.385 . S
C3398 N3405 1.355 1_545 S
C3399 C3398 1.356 1_565 S
C3399 C3402 1.363 . S
N3400 C3402 1.356 . S
N3400 H3412 0.984 . S
N3400 H3413 0.985 . S
N3401 C3403 1.356 . S
N3401 H3406 0.984 . S
N3401 H3407 0.985 . S
C3402 C3396 1.379 . S
C3402 C3399 1.363 . S
C3402 N3400 1.356 . S
C3403 C3397 1.363 . S
C3403 C3398 1.385 . S
C3403 N3401 1.356 . S
N3404 C3396 1.357 . S
N3404 H3410 0.986 . S
N3404 H3411 0.983 1_565 S
N3405 C3398 1.355 1_565 S
N3405 H3408 0.984 . S
N3405 H3409 0.985 1_565 S
H3406 N3401 0.984 . S
H3407 N3401 0.985 . S
H3408 N3405 0.984 . S
H3409 N3405 0.985 1_545 S
H3410 N3404 0.986 . S
H3411 N3404 0.983 1_545 S
H3412 N3400 0.984 . S
H3413 N3400 0.985 . S
C3414 C3415 1.363 . S
C3414 C3420 1.379 1_556 S
C3414 N3422 1.356 . S
C3415 C3414 1.363 . S
C3415 C3421 1.363 . S
C3416 C3417 1.363 . S
C3416 C3421 1.379 1_554 S
C3416 N3423 1.356 . S
C3417 C3416 1.363 . S
C3417 C3420 1.363 . S
N3418 C3420 1.356 . S
N3418 H3430 0.984 . S
N3418 H3431 0.985 . S
N3419 C3421 1.356 . S
N3419 H3424 0.984 . S
N3419 H3425 0.985 . S
C3420 C3414 1.379 1_554 S
C3420 C3417 1.363 . S
C3420 N3418 1.356 . S
C3421 C3415 1.363 . S
C3421 C3416 1.379 1_556 S
C3421 N3419 1.356 . S
N3422 C3414 1.356 . S
N3422 H3428 0.984 . S
N3422 H3429 0.984 . S
N3423 C3416 1.356 . S
N3423 H3426 0.984 . S
N3423 H3427 0.985 . S
H3424 N3419 0.984 . S
H3425 N3419 0.985 . S
H3426 N3423 0.984 . S
H3427 N3423 0.985 . S
H3428 N3422 0.984 . S
H3429 N3422 0.984 . S
H3430 N3418 0.984 . S
H3431 N3418 0.985 . S
C3432 C3433 1.363 1_554 S
C3432 C3438 1.379 . S
C3432 N3440 1.356 . S
C3433 C3432 1.363 1_556 S
C3433 C3439 1.363 1_565 S
C3434 C3435 1.363 1_546 S
C3434 C3439 1.379 . S
C3434 N3441 1.356 . S
C3435 C3434 1.363 1_564 S
C3435 C3438 1.363 . S
N3436 C3438 1.356 . S
N3436 H3448 0.984 . S
N3436 H3449 0.985 . S
N3437 C3439 1.356 . S
N3437 H3442 0.984 . S
N3437 H3443 0.985 . S
C3438 C3432 1.379 . S
C3438 C3435 1.363 . S
C3438 N3436 1.356 . S
C3439 C3433 1.363 1_545 S
C3439 C3434 1.379 . S
C3439 N3437 1.356 . S
N3440 C3432 1.356 . S
N3440 H3446 0.984 . S
N3440 H3447 0.984 1_554 S
N3441 C3434 1.356 . S
N3441 H3444 0.984 1_556 S
N3441 H3445 0.985 . S
H3442 N3437 0.984 . S
H3443 N3437 0.985 . S
H3444 N3441 0.984 1_554 S
H3445 N3441 0.985 . S
H3446 N3440 0.984 . S
H3447 N3440 0.984 1_556 S
H3448 N3436 0.984 . S
H3449 N3436 0.985 . S
C3450 C3451 1.363 . S
C3450 C3456 1.379 1_545 S
C3450 N3458 1.356 . S
C3451 C3450 1.363 . S
C3451 C3457 1.363 . S
C3452 C3453 1.363 . S
C3452 C3457 1.379 1_565 S
C3452 N3459 1.356 . S
C3453 C3452 1.363 . S
C3453 C3456 1.363 . S
N3454 C3456 1.356 . S
N3454 H3466 0.984 . S
N3454 H3467 0.985 . S
N3455 C3457 1.356 . S
N3455 H3460 0.984 . S
N3455 H3461 0.985 . S
C3456 C3450 1.379 1_565 S
C3456 C3453 1.363 . S
C3456 N3454 1.356 . S
C3457 C3451 1.363 . S
C3457 C3452 1.379 1_545 S
C3457 N3455 1.356 . S
N3458 C3450 1.356 . S
N3458 H3464 0.993 . S
N3458 H3465 0.984 . S
N3459 C3452 1.356 . S
N3459 H3462 0.984 . S
N3459 H3463 0.985 . S
H3460 N3455 0.984 . S
H3461 N3455 0.985 . S
H3462 N3459 0.984 . S
H3463 N3459 0.985 . S
H3464 N3458 0.993 . S
H3465 N3458 0.984 . S
H3466 N3454 0.984 . S
H3467 N3454 0.985 . S
C3468 C3469 1.363 . S
C3468 C3474 1.379 . S
C3468 N3476 1.356 . S
C3469 C3468 1.363 . S
C3469 C3475 1.363 1_545 S
C3470 C3471 1.363 1_565 S
C3470 C3475 1.379 . S
C3470 N3477 1.356 . S
C3471 C3470 1.363 1_545 S
C3471 C3474 1.363 . S
N3472 C3474 1.356 . S
N3472 H3484 0.984 . S
N3472 H3485 0.985 . S
N3473 C3475 1.356 . S
N3473 H3478 0.984 . S
N3473 H3479 0.985 . S
C3474 C3468 1.379 . S
C3474 C3471 1.363 . S
C3474 N3472 1.356 . S
C3475 C3469 1.363 1_565 S
C3475 C3470 1.379 . S
C3475 N3473 1.356 . S
N3476 C3468 1.356 . S
N3476 H3482 0.984 . S
N3476 H3483 0.984 . S
N3477 C3470 1.356 . S
N3477 H3480 0.984 . S
N3477 H3481 0.985 . S
H3478 N3473 0.984 . S
H3479 N3473 0.985 . S
H3480 N3477 0.984 . S
H3481 N3477 0.985 . S
H3482 N3476 0.984 . S
H3483 N3476 0.984 . S
H3484 N3472 0.984 . S
H3485 N3472 0.985 . S
C3486 C3487 1.363 . S
C3486 C3492 1.379 1_545 S
C3486 N3494 1.356 . S
C3487 C3486 1.363 . S
C3487 C3493 1.363 . S
C3488 C3489 1.363 . S
C3488 C3493 1.379 1_565 S
C3488 N3495 1.356 . S
C3489 C3488 1.363 . S
C3489 C3492 1.363 . S
N3490 C3492 1.356 . S
N3490 H3502 0.984 . S
N3490 H3503 0.985 . S
N3491 C3493 1.356 . S
N3491 H3496 0.984 . S
N3491 H3497 0.985 . S
C3492 C3486 1.379 1_565 S
C3492 C3489 1.363 . S
C3492 N3490 1.356 . S
C3493 C3487 1.363 . S
C3493 C3488 1.379 1_545 S
C3493 N3491 1.356 . S
N3494 C3486 1.356 . S
N3494 H3500 0.984 . S
N3494 H3501 0.984 . S
N3495 C3488 1.356 . S
N3495 H3498 0.984 . S
N3495 H3499 0.985 . S
H3496 N3491 0.984 . S
H3497 N3491 0.985 . S
H3498 N3495 0.984 . S
H3499 N3495 0.985 . S
H3500 N3494 0.984 . S
H3501 N3494 0.984 . S
H3502 N3490 0.984 . S
H3503 N3490 0.985 . S
C3504 C3505 1.363 1_655 S
C3504 C3510 1.379 . S
C3504 N3512 1.356 . S
C3505 C3504 1.363 1_455 S
C3505 C3511 1.363 1_556 S
C3506 C3507 1.363 1_454 S
C3506 C3511 1.379 . S
C3506 N3513 1.356 . S
C3507 C3506 1.363 1_656 S
C3507 C3510 1.363 . S
N3508 C3510 1.356 . S
N3508 H3520 0.984 . S
N3508 H3521 0.985 . S
N3509 C3511 1.356 . S
N3509 H3514 0.984 . S
N3509 H3515 0.985 . S
C3510 C3504 1.379 . S
C3510 C3507 1.363 . S
C3510 N3508 1.356 . S
C3511 C3505 1.363 1_554 S
C3511 C3506 1.379 . S
C3511 N3509 1.356 . S
N3512 C3504 1.356 . S
N3512 H3518 0.984 . S
N3512 H3519 0.984 1_655 S
N3513 C3506 1.356 . S
N3513 H3516 0.984 1_455 S
N3513 H3517 0.985 . S
H3514 N3509 0.984 . S
H3515 N3509 0.985 . S
H3516 N3513 0.984 1_655 S
H3517 N3513 0.985 . S
H3518 N3512 0.984 . S
H3519 N3512 0.984 1_455 S
H3520 N3508 0.984 . S
H3521 N3508 0.985 . S
C3522 C3523 1.363 1_556 S
C3522 C3528 1.379 . S
C3522 N3530 1.356 . S
C3523 C3522 1.363 1_554 S
C3523 C3529 1.363 . S
C3524 C3525 1.363 . S
C3524 C3529 1.379 . S
C3524 N3531 1.356 . S
C3525 C3524 1.363 . S
C3525 C3528 1.363 1_554 S
N3526 C3528 1.356 . S
N3526 H3538 0.984 . S
N3526 H3539 0.985 . S
N3527 C3529 1.356 . S
N3527 H3532 0.984 . S
N3527 H3533 0.985 . S
C3528 C3522 1.379 . S
C3528 C3525 1.363 1_556 S
C3528 N3526 1.356 . S
C3529 C3523 1.363 . S
C3529 C3524 1.379 . S
C3529 N3527 1.356 . S
N3530 C3522 1.356 . S
N3530 H3536 0.984 . S
N3530 H3537 0.984 . S
N3531 C3524 1.356 . S
N3531 H3534 0.984 . S
N3531 H3535 0.985 . S
H3532 N3527 0.984 . S
H3533 N3527 0.985 . S
H3534 N3531 0.984 . S
H3535 N3531 0.985 . S
H3536 N3530 0.984 . S
H3537 N3530 0.984 . S
H3538 N3526 0.984 . S
H3539 N3526 0.985 . S
C3540 C3541 1.363 . S
C3540 C3546 1.379 1_655 S
C3540 N3548 1.356 . S
C3541 C3540 1.363 . S
C3541 C3547 1.363 . S
C3542 C3543 1.363 . S
C3542 C3547 1.379 1_455 S
C3542 N3549 1.356 . S
C3543 C3542 1.363 . S
C3543 C3546 1.363 . S
N3544 C3546 1.356 . S
N3544 H3556 0.984 . S
N3544 H3557 0.985 . S
N3545 C3547 1.356 . S
N3545 H3550 0.984 . S
N3545 H3551 0.985 . S
C3546 C3540 1.379 1_455 S
C3546 C3543 1.363 . S
C3546 N3544 1.356 . S
C3547 C3541 1.363 . S
C3547 C3542 1.379 1_655 S
C3547 N3545 1.356 . S
N3548 C3540 1.356 . S
N3548 H3554 0.984 . S
N3548 H3555 0.984 . S
N3549 C3542 1.356 . S
N3549 H3552 0.984 . S
N3549 H3553 0.985 . S
H3550 N3545 0.984 . S
H3551 N3545 0.985 . S
H3552 N3549 0.984 . S
H3553 N3549 0.985 . S
H3554 N3548 0.984 . S
H3555 N3548 0.984 . S
H3556 N3544 0.984 . S
H3557 N3544 0.985 . S
C3558 C3559 1.363 . S
C3558 C3564 1.379 . S
C3558 N3566 1.356 . S
C3559 C3558 1.363 . S
C3559 C3565 1.363 1_455 S
C3560 C3561 1.363 . S
C3560 C3565 1.379 . S
C3560 N3567 1.356 . S
C3561 C3560 1.363 . S
C3561 C3564 1.363 1_655 S
N3562 C3564 1.356 . S
N3562 H3574 0.984 . S
N3562 H3575 0.985 1_455 S
N3563 C3565 1.356 . S
N3563 H3568 0.984 1_655 S
N3563 H3569 0.985 . S
C3564 C3558 1.379 . S
C3564 C3561 1.363 1_455 S
C3564 N3562 1.356 . S
C3565 C3559 1.363 1_655 S
C3565 C3560 1.379 . S
C3565 N3563 1.356 . S
N3566 C3558 1.356 . S
N3566 H3572 0.984 . S
N3566 H3573 0.984 . S
N3567 C3560 1.356 . S
N3567 H3570 0.984 . S
N3567 H3571 0.985 . S
H3568 N3563 0.984 1_455 S
H3569 N3563 0.985 . S
H3570 N3567 0.984 . S
H3571 N3567 0.985 . S
H3572 N3566 0.984 . S
H3573 N3566 0.984 . S
H3574 N3562 0.984 . S
H3575 N3562 0.985 1_655 S
C3576 C3577 1.363 . S
C3576 C3582 1.379 . S
C3576 N3584 1.356 . S
C3577 C3576 1.363 . S
C3577 C3583 1.363 . S
C3578 C3579 1.363 . S
C3578 C3583 1.379 . S
C3578 N3585 1.356 . S
C3579 C3578 1.363 . S
C3579 C3582 1.363 . S
N3580 C3582 1.356 . S
N3580 H3592 0.984 . S
N3580 H3593 0.985 . S
N3581 C3583 1.356 . S
N3581 H3586 0.984 . S
N3581 H3587 0.985 . S
C3582 C3576 1.379 . S
C3582 C3579 1.363 . S
C3582 N3580 1.356 . S
C3583 C3577 1.363 . S
C3583 C3578 1.379 . S
C3583 N3581 1.356 . S
N3584 C3576 1.356 . S
N3584 H3590 0.984 . S
N3584 H3591 0.984 . S
N3585 C3578 1.356 . S
N3585 H3588 0.984 . S
N3585 H3589 0.985 . S
H3586 N3581 0.984 . S
H3587 N3581 0.985 . S
H3588 N3585 0.984 . S
H3589 N3585 0.985 . S
H3590 N3584 0.984 . S
H3591 N3584 0.984 . S
H3592 N3580 0.984 . S
H3593 N3580 0.985 . S
C3594 C3595 1.363 . S
C3594 C3600 1.379 1_455 S
C3594 N3602 1.356 . S
C3595 C3594 1.363 . S
C3595 C3601 1.363 . S
C3596 C3597 1.363 . S
C3596 C3601 1.379 1_655 S
C3596 N3603 1.356 . S
C3597 C3596 1.363 . S
C3597 C3600 1.363 . S
N3598 C3600 1.356 . S
N3598 H3610 0.984 . S
N3598 H3611 0.985 . S
N3599 C3601 1.356 . S
N3599 H3604 0.984 . S
N3599 H3605 0.985 . S
C3600 C3594 1.379 1_655 S
C3600 C3597 1.363 . S
C3600 N3598 1.356 . S
C3601 C3595 1.363 . S
C3601 C3596 1.379 1_455 S
C3601 N3599 1.356 . S
N3602 C3594 1.356 . S
N3602 H3608 0.984 . S
N3602 H3609 0.984 . S
N3603 C3596 1.356 . S
N3603 H3606 0.984 . S
N3603 H3607 0.985 . S
H3604 N3599 0.984 . S
H3605 N3599 0.985 . S
H3606 N3603 0.984 . S
H3607 N3603 0.985 . S
H3608 N3602 0.984 . S
H3609 N3602 0.984 . S
H3610 N3598 0.984 . S
H3611 N3598 0.985 . S
C3612 C3613 1.363 . S
C3612 C3618 1.379 . S
C3612 N3620 1.356 . S
C3613 C3612 1.363 . S
C3613 C3619 1.363 . S
C3614 C3615 1.363 . S
C3614 C3619 1.379 . S
C3614 N3621 1.356 . S
C3615 C3614 1.363 . S
C3615 C3618 1.363 . S
N3616 C3618 1.356 . S
N3616 H3628 0.984 . S
N3616 H3629 0.985 . S
N3617 C3619 1.356 . S
N3617 H3622 0.984 . S
N3617 H3623 0.985 . S
C3618 C3612 1.379 . S
C3618 C3615 1.363 . S
C3618 N3616 1.356 . S
C3619 C3613 1.363 . S
C3619 C3614 1.379 . S
C3619 N3617 1.356 . S
N3620 C3612 1.356 . S
N3620 H3626 0.984 . S
N3620 H3627 0.984 . S
N3621 C3614 1.356 . S
N3621 H3624 0.984 . S
N3621 H3625 0.985 . S
H3622 N3617 0.984 . S
H3623 N3617 0.985 . S
H3624 N3621 0.984 . S
H3625 N3621 0.985 . S
H3626 N3620 0.984 . S
H3627 N3620 0.984 . S
H3628 N3616 0.984 . S
H3629 N3616 0.985 . S
C3630 C3631 1.363 . S
C3630 C3636 1.379 . S
C3630 N3638 1.356 . S
C3631 C3630 1.363 . S
C3631 C3637 1.363 . S
C3632 C3633 1.363 . S
C3632 C3637 1.379 . S
C3632 N3639 1.356 . S
C3633 C3632 1.363 . S
C3633 C3636 1.363 . S
N3634 C3636 1.356 . S
N3634 H3646 0.984 . S
N3634 H3647 0.985 . S
N3635 C3637 1.356 . S
N3635 H3640 0.984 . S
N3635 H3641 0.985 . S
C3636 C3630 1.379 . S
C3636 C3633 1.363 . S
C3636 N3634 1.356 . S
C3637 C3631 1.363 . S
C3637 C3632 1.379 . S
C3637 N3635 1.356 . S
N3638 C3630 1.356 . S
N3638 H3644 0.984 . S
N3638 H3645 0.984 . S
N3639 C3632 1.356 . S
N3639 H3642 0.984 . S
N3639 H3643 0.985 . S
H3640 N3635 0.984 . S
H3641 N3635 0.985 . S
H3642 N3639 0.984 . S
H3643 N3639 0.985 . S
H3644 N3638 0.984 . S
H3645 N3638 0.984 . S
H3646 N3634 0.984 . S
H3647 N3634 0.985 . S
C3648 C3649 1.363 . S
C3648 C3654 1.379 1_554 S
C3648 N3656 1.356 . S
C3649 C3648 1.363 . S
C3649 C3655 1.363 . S
C3650 C3651 1.363 . S
C3650 C3655 1.379 1_556 S
C3650 N3657 1.356 . S
C3651 C3650 1.363 . S
C3651 C3654 1.363 . S
N3652 C3654 1.356 . S
N3652 H3664 0.984 . S
N3652 H3665 0.985 . S
N3653 C3655 1.356 . S
N3653 H3658 0.984 . S
N3653 H3659 0.985 . S
C3654 C3648 1.379 1_556 S
C3654 C3651 1.363 . S
C3654 N3652 1.356 . S
C3655 C3649 1.363 . S
C3655 C3650 1.379 1_554 S
C3655 N3653 1.356 . S
N3656 C3648 1.356 . S
N3656 H3662 0.984 . S
N3656 H3663 0.984 . S
N3657 C3650 1.356 . S
N3657 H3660 0.984 . S
N3657 H3661 0.985 . S
H3658 N3653 0.984 . S
H3659 N3653 0.985 . S
H3660 N3657 0.984 . S
H3661 N3657 0.985 . S
H3662 N3656 0.984 . S
H3663 N3656 0.984 . S
H3664 N3652 0.984 . S
H3665 N3652 0.985 . S
C3666 C3667 1.363 . S
C3666 C3672 1.379 . S
C3666 N3674 1.356 . S
C3667 C3666 1.363 . S
C3667 C3673 1.363 1_455 S
C3668 C3669 1.363 1_655 S
C3668 C3673 1.379 . S
C3668 N3675 1.356 . S
C3669 C3668 1.363 1_455 S
C3669 C3672 1.363 . S
N3670 C3672 1.356 . S
N3670 H3682 0.984 . S
N3670 H3683 0.985 . S
N3671 C3673 1.356 . S
N3671 H3676 0.984 . S
N3671 H3677 0.985 . S
C3672 C3666 1.379 . S
C3672 C3669 1.363 . S
C3672 N3670 1.356 . S
C3673 C3667 1.363 1_655 S
C3673 C3668 1.379 . S
C3673 N3671 1.356 . S
N3674 C3666 1.356 . S
N3674 H3680 0.984 . S
N3674 H3681 0.984 . S
N3675 C3668 1.356 . S
N3675 H3678 0.984 . S
N3675 H3679 0.985 . S
H3676 N3671 0.984 . S
H3677 N3671 0.985 . S
H3678 N3675 0.984 . S
H3679 N3675 0.985 . S
H3680 N3674 0.984 . S
H3681 N3674 0.984 . S
H3682 N3670 0.984 . S
H3683 N3670 0.985 . S
C3684 C3685 1.363 . S
C3684 C3690 1.379 . S
C3684 N3692 1.356 . S
C3685 C3684 1.363 . S
C3685 C3691 1.363 . S
C3686 C3687 1.363 . S
C3686 C3691 1.379 . S
C3686 N3693 1.356 . S
C3687 C3686 1.363 . S
C3687 C3690 1.363 . S
N3688 C3690 1.356 . S
N3688 H3700 0.984 . S
N3688 H3701 0.985 . S
N3689 C3691 1.356 . S
N3689 H3694 0.984 . S
N3689 H3695 0.985 . S
C3690 C3684 1.379 . S
C3690 C3687 1.363 . S
C3690 N3688 1.356 . S
C3691 C3685 1.363 . S
C3691 C3686 1.379 . S
C3691 N3689 1.356 . S
N3692 C3684 1.356 . S
N3692 H3698 0.984 . S
N3692 H3699 0.984 . S
N3693 C3686 1.356 . S
N3693 H3696 0.984 . S
N3693 H3697 0.985 . S
H3694 N3689 0.984 . S
H3695 N3689 0.985 . S
H3696 N3693 0.984 . S
H3697 N3693 0.985 . S
H3698 N3692 0.984 . S
H3699 N3692 0.984 . S
H3700 N3688 0.984 . S
H3701 N3688 0.985 . S
C3702 C3703 1.363 . S
C3702 C3708 1.379 . S
C3702 N3710 1.356 . S
C3703 C3702 1.363 . S
C3703 C3709 1.363 . S
C3704 C3705 1.363 . S
C3704 C3709 1.379 . S
C3704 N3711 1.356 . S
C3705 C3704 1.363 . S
C3705 C3708 1.363 . S
N3706 C3708 1.356 . S
N3706 H3718 0.984 . S
N3706 H3719 0.985 . S
N3707 C3709 1.356 . S
N3707 H3712 0.984 . S
N3707 H3713 0.985 . S
C3708 C3702 1.379 . S
C3708 C3705 1.363 . S
C3708 N3706 1.356 . S
C3709 C3703 1.363 . S
C3709 C3704 1.379 . S
C3709 N3707 1.356 . S
N3710 C3702 1.356 . S
N3710 H3716 0.984 . S
N3710 H3717 0.984 . S
N3711 C3704 1.356 . S
N3711 H3714 0.984 . S
N3711 H3715 0.985 . S
H3712 N3707 0.984 . S
H3713 N3707 0.985 . S
H3714 N3711 0.984 . S
H3715 N3711 0.985 . S
H3716 N3710 0.984 . S
H3717 N3710 0.984 . S
H3718 N3706 0.984 . S
H3719 N3706 0.985 . S
C3720 C3721 1.363 . S
C3720 C3726 1.379 . S
C3720 N3728 1.356 . S
C3721 C3720 1.363 . S
C3721 C3727 1.363 . S
C3722 C3723 1.363 . S
C3722 C3727 1.379 . S
C3722 N3729 1.356 . S
C3723 C3722 1.363 . S
C3723 C3726 1.363 . S
N3724 C3726 1.356 . S
N3724 H3736 0.984 . S
N3724 H3737 0.985 . S
N3725 C3727 1.356 . S
N3725 H3730 0.984 . S
N3725 H3731 0.985 . S
C3726 C3720 1.379 . S
C3726 C3723 1.363 . S
C3726 N3724 1.356 . S
C3727 C3721 1.363 . S
C3727 C3722 1.379 . S
C3727 N3725 1.356 . S
N3728 C3720 1.356 . S
N3728 H3734 0.984 . S
N3728 H3735 0.984 . S
N3729 C3722 1.356 . S
N3729 H3732 0.984 . S
N3729 H3733 0.985 . S
H3730 N3725 0.984 . S
H3731 N3725 0.985 . S
H3732 N3729 0.984 . S
H3733 N3729 0.985 . S
H3734 N3728 0.984 . S
H3735 N3728 0.984 . S
H3736 N3724 0.984 . S
H3737 N3724 0.985 . S
C3738 C3739 1.363 1_554 S
C3738 C3744 1.379 . S
C3738 N3746 1.356 . S
C3739 C3738 1.363 1_556 S
C3739 C3745 1.363 . S
C3740 C3741 1.363 1_556 S
C3740 C3745 1.379 . S
C3740 N3747 1.356 . S
C3741 C3740 1.363 1_554 S
C3741 C3744 1.363 . S
N3742 C3744 1.356 . S
N3742 H3754 0.984 . S
N3742 H3755 0.985 . S
N3743 C3745 1.356 . S
N3743 H3748 0.984 . S
N3743 H3749 0.985 . S
C3744 C3738 1.379 . S
C3744 C3741 1.363 . S
C3744 N3742 1.356 . S
C3745 C3739 1.363 . S
C3745 C3740 1.379 . S
C3745 N3743 1.356 . S
N3746 C3738 1.356 . S
N3746 H3752 0.984 . S
N3746 H3753 0.984 1_554 S
N3747 C3740 1.356 . S
N3747 H3750 0.984 1_556 S
N3747 H3751 0.985 . S
H3748 N3743 0.984 . S
H3749 N3743 0.985 . S
H3750 N3747 0.984 1_554 S
H3751 N3747 0.985 . S
H3752 N3746 0.984 . S
H3753 N3746 0.984 1_556 S
H3754 N3742 0.984 . S
H3755 N3742 0.985 . S
C3756 C3757 1.363 . S
C3756 C3762 1.379 . S
C3756 N3764 1.356 . S
C3757 C3756 1.363 . S
C3757 C3763 1.363 . S
C3758 C3759 1.363 . S
C3758 C3763 1.379 . S
C3758 N3765 1.356 . S
C3759 C3758 1.363 . S
C3759 C3762 1.363 . S
N3760 C3762 1.356 . S
N3760 H3772 0.984 . S
N3760 H3773 0.985 . S
N3761 C3763 1.356 . S
N3761 H3766 0.984 . S
N3761 H3767 0.985 . S
C3762 C3756 1.379 . S
C3762 C3759 1.363 . S
C3762 N3760 1.356 . S
C3763 C3757 1.363 . S
C3763 C3758 1.379 . S
C3763 N3761 1.356 . S
N3764 C3756 1.356 . S
N3764 H3770 0.984 . S
N3764 H3771 0.984 . S
N3765 C3758 1.356 . S
N3765 H3768 0.984 . S
N3765 H3769 0.985 . S
H3766 N3761 0.984 . S
H3767 N3761 0.985 . S
H3768 N3765 0.984 . S
H3769 N3765 0.985 . S
H3770 N3764 0.984 . S
H3771 N3764 0.984 . S
H3772 N3760 0.984 . S
H3773 N3760 0.985 . S
C3774 C3775 1.363 . S
C3774 C3780 1.379 . S
C3774 N3782 1.356 . S
C3775 C3774 1.363 . S
C3775 C3781 1.363 . S
C3776 C3777 1.363 . S
C3776 C3781 1.379 . S
C3776 N3783 1.356 . S
C3777 C3776 1.363 . S
C3777 C3780 1.363 . S
N3778 C3780 1.356 . S
N3778 H3790 0.984 . S
N3778 H3791 0.985 . S
N3779 C3781 1.356 . S
N3779 H3784 0.984 . S
N3779 H3785 0.985 . S
C3780 C3774 1.379 . S
C3780 C3777 1.363 . S
C3780 N3778 1.356 . S
C3781 C3775 1.363 . S
C3781 C3776 1.379 . S
C3781 N3779 1.356 . S
N3782 C3774 1.356 . S
N3782 H3788 0.984 . S
N3782 H3789 0.984 . S
N3783 C3776 1.356 . S
N3783 H3786 0.984 . S
N3783 H3787 0.985 . S
H3784 N3779 0.984 . S
H3785 N3779 0.985 . S
H3786 N3783 0.984 . S
H3787 N3783 0.985 . S
H3788 N3782 0.984 . S
H3789 N3782 0.984 . S
H3790 N3778 0.984 . S
H3791 N3778 0.985 . S
C1633 C20 1.449 . S
C1635 C349 1.371 . S
C1651 C383 1.371 . S
C1653 C54 1.448 . S
C1669 C281 1.371 . S
C1671 C88 1.449 . S
C1687 C315 1.371 . S
C1689 C122 1.449 . S
C1705 C485 1.371 . S
C1707 C156 1.449 . S
C1723 C190 1.449 . S
C1725 C519 1.371 . S
C1741 C417 1.371 . S
C1743 C224 1.448 . S
C1759 C451 1.371 . S
C1761 C258 1.449 . S
C1777 C292 1.449 . S
C1779 C587 1.371 . S
C1795 C326 1.449 . S
C1797 C621 1.371 . S
C1813 C655 1.371 . S
C1815 C360 1.449 . S
C1831 C394 1.449 . S
C1833 C1505 1.371 . S
C1849 C1369 1.371 . S
C1851 C428 1.449 . S
C1867 C462 1.448 . S
C1869 C791 1.371 . S
C1885 C496 1.449 . S
C1887 C1539 1.371 . S
C1903 C757 1.371 . S
C1905 C530 1.449 . S
C1921 C564 1.449 . S
C1923 C1029 1.371 . S
C1939 C77 1.371 . S
C1941 C598 1.449 . S
C1957 C111 1.371 . S
C1959 C632 1.449 . S
C1975 C9 1.371 . S
C1977 C666 1.449 . S
C1993 C700 1.449 . S
C1995 C859 1.371 . S
C2011 C734 1.449 . S
C2013 C961 1.371 . S
C2029 C179 1.371 . S
C2031 C768 1.448 . S
C2047 C247 1.371 . S
C2049 C802 1.449 . S
C2065 C836 1.449 . S
C2067 C1165 1.371 . S
C2083 C870 1.448 . S
C2085 C1199 1.371 . S
C2101 C1097 1.371 . S
C2103 C904 1.449 . S
C2119 C1131 1.371 . S
C2121 C938 1.449 . S
C2137 C1301 1.371 . S
C2139 C972 1.449 . S
C2155 C1335 1.371 . S
C2157 C1006 1.449 . S
C2173 C1233 1.371 . S
C2175 C1040 1.449 . S
C2191 C1074 1.448 . S
C2193 C1267 1.371 . S
C2209 C1108 1.449 . S
C2211 C1403 1.371 . S
C2227 C1437 1.371 . S
C2229 C1142 1.449 . S
C2245 C1176 1.448 . S
C2247 C1471 1.371 . S
C2263 C1210 1.449 . S
C2265 C689 1.371 . S
C2281 C1244 1.449 . S
C2283 C553 1.371 . S
C2299 C1278 1.448 . S
C2301 C1607 1.371 . S
C2317 C723 1.371 . S
C2319 C1312 1.449 . S
C2335 C1573 1.371 . S
C2337 C1346 1.448 . S
C2353 C1380 1.449 . S
C2355 C213 1.371 . S
C2371 C893 1.371 . S
C2373 C1414 1.448 . S
C2389 C1448 1.449 . S
C2391 C927 1.371 . S
C2407 C1482 1.449 . S
C2409 C825 1.371 . S
C2425 C43 1.371 . S
C2427 C1516 1.448 . S
C2443 C1550 1.449 . S
C2445 C145 1.371 . S
C2461 C1584 1.448 . S
C2463 C995 1.371 . S
C2479 C1063 1.371 . S
C2481 C1618 1.449 . S
C2497 C311 1.682 . S
C2499 C5 1.682 . S
C2515 C39 1.681 . S
C2517 C345 1.681 . S
C2533 C379 1.681 . S
C2535 C73 1.681 . S
C2551 C277 1.682 . S
C2553 C107 1.682 . S
C2569 C141 1.682 . S
C2571 C515 1.682 . S
C2587 C175 1.682 . S
C2589 C413 1.682 . S
C2605 C447 1.682 . S
C2607 C209 1.682 . S
C2623 C243 1.682 . S
C2625 C481 1.682 . S
C2641 C617 1.682 . S
C2643 C549 1.682 . S
C2659 C583 1.681 . S
C2661 C1569 1.681 . S
C2677 C1603 1.681 . S
C2679 C651 1.681 . S
C2695 C685 1.682 . S
C2697 C1535 1.682 . S
C2713 C1501 1.681 . S
C2715 C719 1.681 . S
C2731 C1399 1.682 . S
C2733 C753 1.682 . S
C2749 C787 1.682 . S
C2751 C1467 1.682 . S
C2767 C821 1.682 . S
C2769 C1127 1.682 . S
C2785 C1161 1.682 . S
C2787 C855 1.682 . S
C2803 C1195 1.682 . S
C2805 C889 1.682 . S
C2821 C923 1.682 . S
C2823 C1093 1.682 . S
C2839 C1331 1.681 . S
C2841 C957 1.681 . S
C2857 C1229 1.681 . S
C2859 C991 1.681 . S
C2875 C1025 1.681 . S
C2877 C1263 1.681 . S
C2893 C1297 1.681 . S
C2895 C1059 1.681 . S
C2911 C1433 1.682 . S
C2913 C1365 1.682 . S
C2929 C713 1.546 . S
C2931 C33 1.546 . S
C2947 C67 1.546 . S
C2949 C1427 1.546 . S
C2965 C101 1.546 . S
C2967 C1461 1.546 . S
C2983 C1495 1.546 . S
C2985 C135 1.546 . S
C3001 C1631 1.546 . S
C3003 C169 1.546 . S
C3019 C747 1.546 . S
C3021 C203 1.546 . S
C3037 C237 1.546 . S
C3039 C1597 1.546 . S
C3055 C271 1.546 . S
C3057 C577 1.546 . S
C3073 C543 1.546 . S
C3075 C305 1.546 . S
C3091 C339 1.546 . S
C3093 C441 1.546 . S
C3109 C373 1.546 . S
C3111 C475 1.546 . S
C3127 C509 1.546 . S
C3129 C407 1.546 . S
C3145 C883 1.546 . S
C3147 C611 1.546 . S
C3163 C645 1.546 . S
C3165 C917 1.546 . S
C3181 C679 1.546 . S
C3183 C951 1.546 . S
C3199 C781 1.546 . S
C3201 C1053 1.546 . S
C3217 C985 1.546 . S
C3219 C815 1.546 . S
C3235 C849 1.546 . S
C3237 C1529 1.546 . S
C3253 C1563 1.546 . S
C3255 C1019 1.546 . S
C3271 C1393 1.546 . S
C3273 C1087 1.546 . S
C3289 C1121 1.546 . S
C3291 C1359 1.546 . S
C3307 C1257 1.546 . S
C3309 C1155 1.546 . S
C3325 C1189 1.546 . S
C3327 C1291 1.546 . S
C3343 C1223 1.546 . S
C3345 C1325 1.546 . S
C3361 C138 2.314 . S
C3363 C2 2.314 . S
C3379 C172 2.314 . S
C3381 C36 2.314 . S
C3397 C206 2.314 . S
C3399 C70 2.314 . S
C3415 C240 2.314 . S
C3417 C104 2.314 . S
C3433 C478 2.314 . S
C3435 C274 2.314 . S
C3451 C308 2.314 . S
C3453 C512 2.314 . S
C3469 C342 2.316 . S
C3471 C410 2.316 . S
C3487 C444 2.314 . S
C3489 C376 2.314 . S
C3505 C546 2.314 . S
C3507 C1532 2.314 . S
C3523 C580 2.316 . S
C3525 C1464 2.316 . S
C3541 C682 2.314 . S
C3543 C614 2.314 . S
C3559 C1396 2.314 . S
C3561 C648 2.314 . S
C3577 C1362 2.314 . S
C3579 C716 2.314 . S
C3595 C750 2.314 . S
C3597 C1600 2.314 . S
C3613 C1566 2.314 . S
C3615 C784 2.314 . S
C3631 C954 2.314 . S
C3633 C818 2.314 . S
C3649 C852 2.314 . S
C3651 C988 2.314 . S
C3667 C886 2.316 . S
C3669 C1022 2.316 . S
C3685 C920 2.314 . S
C3687 C1056 2.314 . S
C3703 C1090 2.314 . S
C3705 C1294 2.314 . S
C3721 C1124 2.314 . S
C3723 C1328 2.314 . S
C3739 C1226 2.314 . S
C3741 C1158 2.314 . S
C3757 C1192 2.314 . S
C3759 C1260 2.314 . S
C3775 C1498 2.314 . S
C3777 C1430 2.314 . S
