# Generated by pormake.
# Topology vmp, (7)-cn, num edge types: 1
# Building blocks:
#     Node 0, Type 0, BuildingBlock: HICVOG_clean_sbu_0, # of connection points: 7
#     Node 1, Type 0, BuildingBlock: HICVOG_clean_sbu_0, # of connection points: 7
#     Node 2, Type 0, BuildingBlock: HICVOG_clean_sbu_0, # of connection points: 7
#     Node 3, Type 0, BuildingBlock: HICVOG_clean_sbu_0, # of connection points: 7
#     Node 4, Type 0, BuildingBlock: HICVOG_clean_sbu_0, # of connection points: 7
#     Node 5, Type 0, BuildingBlock: HICVOG_clean_sbu_0, # of connection points: 7
#     Node 6, Type 0, BuildingBlock: HICVOG_clean_sbu_0, # of connection points: 7
#     Node 7, Type 0, BuildingBlock: HICVOG_clean_sbu_0, # of connection points: 7
#     Edge 8, Type (0, 0), BuildingBlock: KIFKEQ_clean_linker_1, # of connection points: 2
#     Edge 9, Type (0, 0), BuildingBlock: KIFKEQ_clean_linker_1, # of connection points: 2
#     Edge 10, Type (0, 0), BuildingBlock: KIFKEQ_clean_linker_1, # of connection points: 2
#     Edge 11, Type (0, 0), BuildingBlock: KIFKEQ_clean_linker_1, # of connection points: 2
#     Edge 12, Type (0, 0), BuildingBlock: KIFKEQ_clean_linker_1, # of connection points: 2
#     Edge 13, Type (0, 0), BuildingBlock: KIFKEQ_clean_linker_1, # of connection points: 2
#     Edge 14, Type (0, 0), BuildingBlock: KIFKEQ_clean_linker_1, # of connection points: 2
#     Edge 15, Type (0, 0), BuildingBlock: KIFKEQ_clean_linker_1, # of connection points: 2
#     Edge 16, Type (0, 0), BuildingBlock: KIFKEQ_clean_linker_1, # of connection points: 2
#     Edge 17, Type (0, 0), BuildingBlock: KIFKEQ_clean_linker_1, # of connection points: 2
#     Edge 18, Type (0, 0), BuildingBlock: KIFKEQ_clean_linker_1, # of connection points: 2
#     Edge 19, Type (0, 0), BuildingBlock: KIFKEQ_clean_linker_1, # of connection points: 2
#     Edge 20, Type (0, 0), BuildingBlock: KIFKEQ_clean_linker_1, # of connection points: 2
#     Edge 21, Type (0, 0), BuildingBlock: KIFKEQ_clean_linker_1, # of connection points: 2
#     Edge 22, Type (0, 0), BuildingBlock: KIFKEQ_clean_linker_1, # of connection points: 2
#     Edge 23, Type (0, 0), BuildingBlock: KIFKEQ_clean_linker_1, # of connection points: 2
#     Edge 24, Type (0, 0), BuildingBlock: KIFKEQ_clean_linker_1, # of connection points: 2
#     Edge 25, Type (0, 0), BuildingBlock: KIFKEQ_clean_linker_1, # of connection points: 2
#     Edge 26, Type (0, 0), BuildingBlock: KIFKEQ_clean_linker_1, # of connection points: 2
#     Edge 27, Type (0, 0), BuildingBlock: KIFKEQ_clean_linker_1, # of connection points: 2
#     Edge 28, Type (0, 0), BuildingBlock: KIFKEQ_clean_linker_1, # of connection points: 2
#     Edge 29, Type (0, 0), BuildingBlock: KIFKEQ_clean_linker_1, # of connection points: 2
#     Edge 30, Type (0, 0), BuildingBlock: KIFKEQ_clean_linker_1, # of connection points: 2
#     Edge 31, Type (0, 0), BuildingBlock: KIFKEQ_clean_linker_1, # of connection points: 2
#     Edge 32, Type (0, 0), BuildingBlock: KIFKEQ_clean_linker_1, # of connection points: 2
#     Edge 33, Type (0, 0), BuildingBlock: KIFKEQ_clean_linker_1, # of connection points: 2
#     Edge 34, Type (0, 0), BuildingBlock: KIFKEQ_clean_linker_1, # of connection points: 2
#     Edge 35, Type (0, 0), BuildingBlock: KIFKEQ_clean_linker_1, # of connection points: 2
# Relax obj value: 0.157
# Max RMSD: 0.203
# Mean RMSD: 0.203
data_MOF--net-vmp--node1-HICVOG_clean_sbu_0--edge1-KIFKEQ_clean_linker_1
_symmetry_space_group_name_H-M    P1
_symmetry_Int_Tables_number       1
_symmetry_cell_setting            triclinic
loop_
_symmetry_equiv_pos_as_xyz
'x, y, z'
_cell_length_a     18.0912
_cell_length_b     81.041195
_cell_length_c     28.045851
_cell_angle_alpha  90.162295
_cell_angle_beta   110.75939
_cell_angle_gamma 90.086834
loop_
_atom_site_label
_atom_site_type_symbol
_atom_site_fract_x
_atom_site_fract_y
_atom_site_fract_z
_atom_type_partial_charge
Zn0 Zn 0.31903 0.15465 0.22768 0.0
C1 C 0.38491 0.12998 0.12349 0.0
N2 N 0.32193 0.13774 0.09095 0.0
C3 C 0.29219 0.14551 0.12229 0.0
N4 N 0.33428 0.14254 0.1719 0.0
N5 N 0.39389 0.13284 0.17277 0.0
C6 C 0.6181 0.1335 0.24093 0.0
O7 O 0.58699 0.14644 0.25495 0.0
O8 O 0.20387 0.15397 0.22403 0.0
Zn9 Zn 0.46433 0.11993 0.22915 0.0
N10 N 0.3517 0.17709 0.22161 0.0
C11 C 0.43984 0.19414 0.19772 0.0
C12 C 0.41236 0.17857 0.20398 0.0
C13 C 0.31796 0.19065 0.23418 0.0
N14 N 0.40631 0.20766 0.21003 0.0
C15 C 0.34622 0.20649 0.22845 0.0
O16 O 0.47002 0.1267 0.30066 0.0
C17 C 0.4391 0.13688 0.32285 0.0
O18 O 0.38566 0.14694 0.29783 0.0
H19 H 0.43923 0.16769 0.1948 0.0
H20 H 0.26951 0.18905 0.24784 0.0
C21 C 0.46225 0.08365 0.22031 0.0
C22 C 0.42134 0.06854 0.20595 0.0
C23 C 0.29935 0.08282 0.18487 0.0
C24 C 0.33981 0.09764 0.19948 0.0
N25 N 0.42012 0.09786 0.21625 0.0
N26 N 0.34085 0.0687 0.18839 0.0
H27 H 0.52614 0.08416 0.23359 0.0
C28 C 0.17871 0.14147 0.24131 0.0
O29 O 0.22772 0.12926 0.26081 0.0
O30 O 0.57682 0.12037 0.22805 0.0
H31 H 0.30733 0.10899 0.19681 0.0
H32 H 0.48775 0.19549 0.18343 0.0
H33 H 0.23543 0.0825 0.17092 0.0
Zn34 Zn 0.72517 0.15061 0.80648 0.0
C35 C 0.66893 0.12081 0.90454 0.0
N36 N 0.73569 0.12734 0.93751 0.0
C37 C 0.76247 0.13642 0.90725 0.0
N38 N 0.71453 0.13565 0.85788 0.0
N39 N 0.65475 0.12582 0.85607 0.0
C40 C 0.42373 0.13106 0.79133 0.0
O41 O 0.45584 0.14408 0.77857 0.0
O42 O 0.83912 0.15074 0.80894 0.0
Zn43 Zn 0.57228 0.11681 0.79589 0.0
N44 N 0.69608 0.17231 0.82305 0.0
C45 C 0.62009 0.18795 0.86087 0.0
C46 C 0.64349 0.1728 0.84762 0.0
C47 C 0.72578 0.18643 0.81055 0.0
N48 N 0.64937 0.20203 0.84838 0.0
C49 C 0.70144 0.20186 0.82322 0.0
O50 O 0.56443 0.12687 0.72815 0.0
C51 C 0.59786 0.13689 0.70728 0.0
O52 O 0.65698 0.14558 0.73349 0.0
H53 H 0.61982 0.1615 0.85687 0.0
H54 H 0.76817 0.18553 0.79151 0.0
C55 C 0.56669 0.08035 0.79615 0.0
C56 C 0.59285 0.06496 0.78472 0.0
C57 C 0.69054 0.07861 0.7607 0.0
C58 C 0.66446 0.09375 0.77178 0.0
N59 N 0.60284 0.09438 0.78869 0.0
N60 N 0.65405 0.06465 0.76717 0.0
H61 H 0.51744 0.0812 0.80939 0.0
C62 C 0.86341 0.13872 0.78911 0.0
O63 O 0.81368 0.12677 0.76725 0.0
O64 O 0.46283 0.11765 0.80121 0.0
H65 H 0.6922 0.10504 0.76618 0.0
H66 H 0.57859 0.18853 0.88068 0.0
H67 H 0.73909 0.07794 0.74677 0.0
Zn68 Zn 0.72602 0.86319 0.83658 0.0
C69 C 0.66053 0.88723 0.94157 0.0
N70 N 0.72379 0.87951 0.97391 0.0
C71 C 0.75391 0.87195 0.94242 0.0
N72 N 0.71172 0.87503 0.89288 0.0
N73 N 0.65173 0.88457 0.89225 0.0
C74 C 0.42019 0.88549 0.81124 0.0
O75 O 0.44358 0.87576 0.78183 0.0
O76 O 0.84215 0.86332 0.84044 0.0
Zn77 Zn 0.58054 0.89774 0.8367 0.0
N78 N 0.68662 0.84119 0.83982 0.0
C79 C 0.58056 0.82597 0.84966 0.0
C80 C 0.6165 0.84096 0.84739 0.0
C81 C 0.72232 0.82696 0.83378 0.0
N82 N 0.61565 0.81178 0.84351 0.0
C83 C 0.68553 0.81167 0.83532 0.0
O84 O 0.57537 0.89188 0.76433 0.0
C85 C 0.60662 0.88172 0.74227 0.0
O86 O 0.65929 0.87156 0.76744 0.0
H87 H 0.58856 0.8524 0.85144 0.0
H88 H 0.77837 0.82766 0.8282 0.0
C89 C 0.57953 0.9341 0.8452 0.0
C90 C 0.61885 0.94927 0.86167 0.0
C91 C 0.74195 0.93526 0.88992 0.0
C92 C 0.70321 0.92038 0.8731 0.0
N93 N 0.62296 0.91997 0.85194 0.0
N94 N 0.69908 0.94928 0.88388 0.0
H95 H 0.51575 0.93349 0.82811 0.0
C96 C 0.86206 0.87244 0.80992 0.0
O97 O 0.80753 0.88131 0.77636 0.0
O98 O 0.46818 0.89631 0.83828 0.0
H99 H 0.73704 0.90915 0.87751 0.0
H100 H 0.52487 0.8256 0.85585 0.0
H101 H 0.80568 0.9357 0.90746 0.0
Zn102 Zn 0.48 0.90083 0.27035 0.0
C103 C 0.28276 0.88339 0.15977 0.0
N104 N 0.30909 0.89274 0.12985 0.0
C105 C 0.37767 0.89863 0.16252 0.0
N106 N 0.39326 0.89299 0.21049 0.0
N107 N 0.33287 0.88335 0.20869 0.0
C108 C 0.19357 0.87984 0.28144 0.0
O109 O 0.2486 0.89081 0.30377 0.0
O110 O 0.58782 0.89857 0.26277 0.0
Zn111 Zn 0.32403 0.86749 0.25849 0.0
N112 N 0.45625 0.92354 0.28072 0.0
C113 C 0.37989 0.93977 0.31683 0.0
C114 C 0.40081 0.92451 0.303 0.0
C115 C 0.49058 0.9374 0.27022 0.0
N116 N 0.41474 0.95355 0.30737 0.0
C117 C 0.4694 0.95292 0.28427 0.0
O118 O 0.39399 0.87168 0.33186 0.0
C119 C 0.45354 0.88026 0.35811 0.0
O120 O 0.48658 0.89036 0.33728 0.0
H121 H 0.37379 0.9134 0.31058 0.0
H122 H 0.53452 0.93632 0.25239 0.0
C123 C 0.32892 0.83153 0.25352 0.0
C124 C 0.35287 0.81645 0.23816 0.0
C125 C 0.42064 0.83146 0.1934 0.0
C126 C 0.39704 0.84624 0.20876 0.0
N127 N 0.35146 0.84605 0.23826 0.0
N128 N 0.3982 0.81701 0.20842 0.0
H129 H 0.29438 0.83188 0.27803 0.0
C130 C 0.65099 0.89816 0.30184 0.0
O131 O 0.64599 0.89994 0.34717 0.0
O132 O 0.21102 0.86778 0.25818 0.0
H133 H 0.41564 0.85781 0.19752 0.0
H134 H 0.33642 0.9407 0.33506 0.0
H135 H 0.45688 0.83145 0.16991 0.0
Zn136 Zn 0.82194 0.64888 0.75018 0.0
C137 C 0.88537 0.62652 0.64169 0.0
N138 N 0.8234 0.63482 0.61023 0.0
C139 C 0.79337 0.6419 0.64257 0.0
N140 N 0.8345 0.638 0.69173 0.0
N141 N 0.89379 0.62846 0.69116 0.0
C142 C 0.12114 0.62777 0.76216 0.0
O143 O 0.09411 0.63976 0.783 0.0
O144 O 0.70614 0.64947 0.7448 0.0
Zn145 Zn 0.96429 0.61467 0.74481 0.0
N146 N 0.86603 0.67074 0.75114 0.0
C147 C 0.97109 0.68583 0.73945 0.0
C148 C 0.93291 0.67097 0.7396 0.0
C149 C 0.83577 0.68489 0.76311 0.0
N150 N 0.94119 0.69993 0.75123 0.0
C151 C 0.87447 0.70006 0.7632 0.0
O152 O 0.97078 0.61979 0.81722 0.0
C153 C 0.93734 0.62858 0.84139 0.0
O154 O 0.88302 0.6388 0.81864 0.0
H155 H 0.95674 0.65962 0.73084 0.0
H156 H 0.78359 0.68415 0.77332 0.0
C157 C 0.96109 0.57858 0.73109 0.0
C158 C 0.92004 0.56362 0.71423 0.0
C159 C 0.79817 0.57798 0.69236 0.0
C160 C 0.83875 0.59265 0.70957 0.0
N161 N 0.91913 0.59277 0.7279 0.0
N162 N 0.83955 0.56389 0.69507 0.0
H163 H 0.02503 0.57902 0.74575 0.0
C164 C 0.67761 0.6363 0.75627 0.0
O165 O 0.72337 0.62327 0.76983 0.0
O166 O 0.0765 0.6154 0.74349 0.0
H167 H 0.80629 0.60395 0.70775 0.0
H168 H 0.02434 0.68619 0.73029 0.0
H169 H 0.73424 0.57775 0.67713 0.0
Zn170 Zn 0.23554 0.65125 0.31565 0.0
C171 C 0.17354 0.62993 0.4261 0.0
N172 N 0.23573 0.63844 0.45681 0.0
C173 C 0.26487 0.64532 0.4238 0.0
N174 N 0.22313 0.64105 0.37494 0.0
N175 N 0.16432 0.63147 0.37642 0.0
C176 C 0.93188 0.62926 0.29582 0.0
O177 O 0.95443 0.63812 0.26423 0.0
O178 O 0.35184 0.65194 0.32063 0.0
Zn179 Zn 0.09286 0.61713 0.32427 0.0
N180 N 0.18954 0.67298 0.31219 0.0
C181 C 0.07407 0.68696 0.3122 0.0
C182 C 0.11635 0.67246 0.31536 0.0
C183 C 0.22267 0.68756 0.30587 0.0
N184 N 0.1064 0.70146 0.30555 0.0
C185 C 0.17964 0.70233 0.30224 0.0
O186 O 0.08735 0.62099 0.25136 0.0
C187 C 0.1197 0.62975 0.2265 0.0
O188 O 0.17268 0.64039 0.24846 0.0
H189 H 0.0908 0.66076 0.31991 0.0
H190 H 0.28039 0.68752 0.30247 0.0
C191 C 0.09041 0.58106 0.33819 0.0
C192 C 0.12849 0.566 0.35712 0.0
C193 C 0.25217 0.57994 0.38647 0.0
C194 C 0.21468 0.59468 0.3671 0.0
N195 N 0.13468 0.59509 0.34412 0.0
N196 N 0.20844 0.56603 0.38103 0.0
H197 H 0.02687 0.5817 0.31969 0.0
C198 C 0.37458 0.64145 0.29474 0.0
O199 O 0.32313 0.63076 0.26615 0.0
O200 O 0.98053 0.61907 0.32509 0.0
H201 H 0.24929 0.60581 0.37086 0.0
H202 H 1.01569 0.6867 0.31459 0.0
H203 H 0.31565 0.57951 0.40542 0.0
Zn204 Zn 0.05667 0.39789 0.3051 0.0
C205 C 0.25253 0.38395 0.42143 0.0
N206 N 0.22206 0.39343 0.44898 0.0
C207 C 0.15269 0.39811 0.41444 0.0
N208 N 0.14079 0.39158 0.3678 0.0
N209 N 0.20417 0.38262 0.37241 0.0
C210 C 0.35429 0.37707 0.30545 0.0
O211 O 0.30267 0.38792 0.27835 0.0
O212 O 0.9504 0.39774 0.31388 0.0
Zn213 Zn 0.21819 0.36609 0.32646 0.0
N214 N 0.08317 0.41981 0.28881 0.0
C215 C 0.15914 0.43413 0.24811 0.0
C216 C 0.1368 0.41952 0.26501 0.0
C217 C 0.05203 0.43431 0.29774 0.0
N218 N 0.12759 0.44854 0.25619 0.0
C219 C 0.07477 0.4492 0.28072 0.0
O220 O 0.15111 0.36879 0.25276 0.0
C221 C 0.08714 0.37521 0.2235 0.0
O222 O 0.04657 0.38486 0.24051 0.0
H223 H 0.1615 0.40793 0.25881 0.0
H224 H 1.0095 0.4342 0.31683 0.0
C225 C 0.2133 0.33067 0.3296 0.0
C226 C 0.19255 0.31526 0.34458 0.0
C227 C 0.13214 0.32919 0.39591 0.0
C228 C 0.15282 0.34435 0.38094 0.0
N229 N 0.19305 0.3448 0.3482 0.0
N230 N 0.15219 0.31507 0.37738 0.0
H231 H 0.24346 0.33155 0.30261 0.0
C232 C 0.91612 0.38394 0.31256 0.0
O233 O 0.95192 0.37038 0.30685 0.0
O234 O 0.33179 0.36612 0.32981 0.0
H235 H 0.13621 0.35566 0.39497 0.0
H236 H 0.20124 0.43405 0.2287 0.0
H237 H 0.09998 0.32862 0.42185 0.0
Zn238 Zn 0.81845 0.36396 0.7385 0.0
C239 C 0.88216 0.39652 0.65133 0.0
N240 N 0.81194 0.39205 0.6171 0.0
C241 C 0.78217 0.38234 0.64445 0.0
N242 N 0.83173 0.38068 0.69303 0.0
N243 N 0.89522 0.38964 0.69754 0.0
C244 C 0.11981 0.38133 0.751 0.0
O245 O 0.08333 0.36779 0.75617 0.0
O246 O 0.70478 0.36367 0.73492 0.0
Zn247 Zn 0.98074 0.39566 0.75994 0.0
N248 N 0.84435 0.34282 0.71596 0.0
C249 C 0.90467 0.32778 0.66665 0.0
C250 C 0.88394 0.34274 0.68284 0.0
C251 C 0.82486 0.32848 0.73384 0.0
N252 N 0.88526 0.31347 0.68436 0.0
C253 C 0.84563 0.31325 0.71759 0.0
O254 O 0.99017 0.38276 0.82431 0.0
C255 C 0.94936 0.37326 0.84152 0.0
O256 O 0.88509 0.3668 0.81243 0.0
H257 H 0.89989 0.3542 0.66934 0.0
H258 H 0.79513 0.32908 0.76112 0.0
C259 C 0.98892 0.43198 0.76743 0.0
C260 C 0.96903 0.44702 0.78525 0.0
C261 C 0.8858 0.4325 0.82 0.0
C262 C 0.90532 0.41772 0.8023 0.0
N263 N 0.95713 0.41767 0.77711 0.0
N264 N 0.91815 0.44672 0.81123 0.0
H265 H 0.02984 0.43161 0.74715 0.0
C266 C 0.68229 0.3745 0.75972 0.0
O267 O 0.73392 0.38537 0.78724 0.0
O268 O 0.08647 0.39517 0.75053 0.0
H269 H 0.87989 0.40628 0.809 0.0
H270 H 0.93628 0.32751 0.64035 0.0
H271 H 0.84524 0.4327 0.84054 0.0
H272 H 0.51173 0.11371 0.63888 0.0
H273 H 0.62572 0.16109 0.64763 0.0
H274 H 0.4757 0.11371 0.54623 0.0
H275 H 0.58861 0.16113 0.55482 0.0
H276 H 0.42174 0.16179 0.38379 0.0
H277 H 0.4597 0.16199 0.47644 0.0
H278 H 0.55107 0.11257 0.48299 0.0
H279 H 0.51401 0.11238 0.39004 0.0
C280 C 0.52842 0.12421 0.62104 0.0
C281 C 0.57142 0.13744 0.65073 0.0
C282 C 0.50837 0.12412 0.56801 0.0
C283 C 0.52962 0.13738 0.54331 0.0
C284 C 0.57119 0.15076 0.5728 0.0
C285 C 0.5925 0.15073 0.62594 0.0
C286 C 0.45016 0.15096 0.4049 0.0
C287 C 0.46479 0.13705 0.37941 0.0
C288 C 0.47219 0.15113 0.45802 0.0
C289 C 0.50815 0.13729 0.48694 0.0
C290 C 0.52289 0.12337 0.46161 0.0
C291 C 0.50212 0.1233 0.40845 0.0
H292 H 0.42405 0.85639 0.41826 0.0
H293 H 0.5402 0.90348 0.42607 0.0
H294 H 0.45937 0.85681 0.51097 0.0
H295 H 0.57432 0.90394 0.51854 0.0
H296 H 0.53311 0.90618 0.6741 0.0
H297 H 0.49736 0.90565 0.58114 0.0
H298 H 0.58761 0.85607 0.58986 0.0
H299 H 0.62426 0.85661 0.68232 0.0
C300 C 0.45745 0.86677 0.43972 0.0
C301 C 0.47965 0.87984 0.41469 0.0
C302 C 0.47765 0.86701 0.4928 0.0
C303 C 0.51918 0.88046 0.52195 0.0
C304 C 0.54162 0.8935 0.49702 0.0
C305 C 0.52271 0.89313 0.44409 0.0
C306 C 0.54504 0.89516 0.65614 0.0
C307 C 0.58171 0.88146 0.68572 0.0
C308 C 0.52501 0.89489 0.60299 0.0
C309 C 0.53977 0.88081 0.57827 0.0
C310 C 0.57507 0.86704 0.60777 0.0
C311 C 0.59638 0.86741 0.6608 0.0
H312 H 0.85636 0.63795 0.90287 0.0
H313 H 0.07679 0.6162 0.90772 0.0
H314 H 0.90049 0.63676 0.99582 0.0
H315 H 0.1211 0.61521 1.0009 0.0
H316 H 0.2001 0.63886 0.16459 0.0
H317 H 0.15579 0.63717 0.07174 0.0
H318 H 0.93619 0.61518 0.06761 0.0
H319 H 0.98078 0.61668 0.16081 0.0
C320 C 0.91415 0.63287 0.92373 0.0
C321 C 0.96313 0.62721 0.89779 0.0
C322 C 0.93916 0.6321 0.97697 0.0
C323 C 1.01426 0.6259 1.00565 0.0
C324 C 0.06308 0.62013 0.9798 0.0
C325 C 0.03753 0.62063 0.92644 0.0
C326 C 0.14254 0.63356 0.14399 0.0
C327 C 0.09394 0.62792 0.1702 0.0
C328 C 0.1174 0.63251 0.09079 0.0
C329 C 0.04251 0.62606 0.06239 0.0
C330 C 0.99405 0.6203 0.0885 0.0
C331 C 1.01978 0.62108 0.14186 0.0
H332 H 0.0901 0.38143 0.9167 0.0
H333 H 0.85963 0.36071 0.89363 0.0
H334 H 0.12195 0.3804 1.00895 0.0
H335 H 0.8916 0.3598 0.98569 0.0
H336 H 0.94703 0.38331 0.1478 0.0
H337 H 0.91483 0.38126 0.05559 0.0
H338 H 0.14343 0.35975 0.08019 0.0
H339 H 0.17572 0.36167 0.17211 0.0
C340 C 0.04657 0.37649 0.93122 0.0
C341 C 0.97234 0.37115 0.89759 0.0
C342 C 0.0649 0.37587 0.98409 0.0
C343 C 1.00909 0.37009 1.00458 0.0
C344 C 0.93551 0.36446 0.97106 0.0
C345 C 0.91755 0.36487 0.91826 0.0
C346 C 0.99011 0.37798 0.13359 0.0
C347 C 0.06395 0.37266 0.16753 0.0
C348 C 0.97156 0.37676 0.08075 0.0
C349 C 0.02679 0.37041 0.06064 0.0
C350 C 0.09997 0.36484 0.09451 0.0
C351 C 0.11813 0.36585 0.14725 0.0
H352 H 0.49232 0.96285 0.19678 0.0
H353 H 0.51554 0.97897 0.34818 0.0
H354 H 0.51099 0.99137 0.17421 0.0
H355 H 0.53295 1.00724 0.32588 0.0
H356 H 0.55664 0.0579 0.28201 0.0
H357 H 0.60066 0.02928 0.2994 0.0
H358 H 0.41678 0.0139 0.15986 0.0
H359 H 0.37432 0.04234 0.1422 0.0
C360 C 0.5043 0.97238 0.22574 0.0
C361 C 0.50181 0.96876 0.27409 0.0
C362 C 0.5143 0.98873 0.21275 0.0
C363 C 0.52249 1.00166 0.24802 0.0
C364 C 0.52751 0.99767 0.2978 0.0
C365 C 0.5169 0.98144 0.31054 0.0
C366 C 0.52769 0.04848 0.25416 0.0
C367 C 0.46141 0.05234 0.211 0.0
C368 C 0.55246 0.03205 0.2643 0.0
C369 C 0.51162 0.01923 0.23139 0.0
C370 C 0.45013 0.02339 0.18593 0.0
C371 C 0.4252 0.03972 0.176 0.0
H372 H 0.65265 0.97515 0.92703 0.0
H373 H 0.49582 0.96008 0.77766 0.0
H374 H 0.61454 1.00372 0.90671 0.0
H375 H 0.45622 0.98884 0.75732 0.0
H376 H 0.56291 0.03862 0.72149 0.0
H377 H 0.53757 0.01044 0.74048 0.0
H378 H 0.52091 0.02662 0.88326 0.0
H379 H 0.54751 0.05505 0.86417 0.0
C380 C 0.60784 0.97791 0.89039 0.0
C381 C 0.57795 0.96541 0.85375 0.0
C382 C 0.58544 0.99432 0.87883 0.0
C383 C 0.53304 0.99864 0.8301 0.0
C384 C 0.49747 0.98593 0.79502 0.0
C385 C 0.51959 0.96943 0.80679 0.0
C386 C 0.55165 0.03624 0.75631 0.0
C387 C 0.55798 0.04899 0.79155 0.0
C388 C 0.53636 0.02007 0.76704 0.0
C389 C 0.52782 0.0162 0.81363 0.0
C390 C 0.5279 0.02918 0.84721 0.0
C391 C 0.54255 0.04548 0.83616 0.0
H392 H 0.05346 0.55243 0.79077 0.0
H393 H 0.87422 0.53793 0.64827 0.0
H394 H 0.09645 0.52373 0.80643 0.0
H395 H 0.9155 0.50938 0.66431 0.0
H396 H 0.99095 0.4581 0.69836 0.0
H397 H 1.00911 0.48685 0.67807 0.0
H398 H 0.02732 0.50141 0.83018 0.0
H399 H 1.01085 0.47288 0.85042 0.0
C400 C 0.02498 0.54324 0.762 0.0
C401 C 0.95981 0.54741 0.71854 0.0
C402 C 0.04913 0.52675 0.77117 0.0
C403 C 1.00872 0.51418 0.737 0.0
C404 C 0.94847 0.51867 0.69135 0.0
C405 C 0.92421 0.53507 0.68235 0.0
C406 C 1.00181 0.46738 0.72793 0.0
C407 C 0.99873 0.46328 0.77584 0.0
C408 C 1.01155 0.48387 0.71622 0.0
C409 C 1.01879 0.4965 0.75229 0.0
C410 C 1.02266 0.49208 0.80153 0.0
C411 C 1.01245 0.4757 0.81305 0.0
H412 H 0.16371 0.54025 0.42263 0.0
H413 H 1.00125 0.55505 0.27494 0.0
H414 H 0.12156 0.51179 0.4038 0.0
H415 H 0.95697 0.52645 0.25645 0.0
H416 H 0.04271 0.47522 0.21657 0.0
H417 H 0.02719 0.50383 0.2365 0.0
H418 H 0.0272 0.48943 0.38476 0.0
H419 H 0.04489 0.46059 0.36496 0.0
C420 C 0.11705 0.53748 0.38667 0.0
C421 C 0.08669 0.54989 0.35005 0.0
C422 C 0.09224 0.52113 0.37602 0.0
C423 C 0.03654 0.51673 0.32828 0.0
C424 C 1.00088 0.52938 0.29333 0.0
C425 C 0.02567 0.54582 0.30411 0.0
C426 C 0.03751 0.47809 0.25301 0.0
C427 C 0.04598 0.46566 0.28937 0.0
C428 C 0.02777 0.49454 0.26431 0.0
C429 C 0.02669 0.49903 0.31249 0.0
C430 C 0.02877 0.48642 0.34749 0.0
C431 C 0.03818 0.46987 0.336 0.0
H432 H 0.78685 0.16068 0.97705 0.0
H433 H 0.90065 0.13278 0.89178 0.0
H434 H 0.91634 0.17035 0.03472 0.0
H435 H 0.02899 0.14351 0.94633 0.0
H436 H 0.24882 0.16935 0.05081 0.0
H437 H 0.11303 0.17425 0.99274 0.0
H438 H 0.02553 0.14341 0.0862 0.0
H439 H 0.16076 0.13731 0.14081 0.0
C440 C 0.83918 0.15751 0.96871 0.0
C441 C 0.83387 0.14657 0.92866 0.0
C442 C 0.91289 0.16302 1.00163 0.0
C443 C 0.98197 0.15788 0.99423 0.0
C444 C 0.97615 0.14801 0.95178 0.0
C445 C 0.90267 0.1421 0.9199 0.0
C446 C 0.20017 0.16435 0.06029 0.0
C447 C 0.21489 0.1536 0.10184 0.0
C448 C 0.12283 0.16712 1.02705 0.0
C449 C 0.05933 0.15941 0.03566 0.0
C450 C 0.07361 0.14988 0.07975 0.0
C451 C 0.15098 0.1467 0.11192 0.0
H452 H 0.1442 0.88577 0.17597 0.0
H453 H 0.26063 0.85977 0.0884 0.0
H454 H 1.01684 0.87481 0.12038 0.0
H455 H 0.13226 0.84978 1.03019 0.0
H456 H 0.79974 0.84858 1.01511 0.0
H457 H 0.93582 0.8446 0.07376 0.0
H458 H 1.02012 0.87527 0.97836 0.0
H459 H 0.88429 0.88014 0.92197 0.0
C460 C 0.14304 0.87685 0.14692 0.0
C461 C 0.21223 0.87302 0.13774 0.0
C462 C 0.07012 0.87079 0.11454 0.0
C463 C 0.0653 0.86136 0.07139 0.0
C464 C 0.13491 0.85681 0.06368 0.0
C465 C 0.20799 0.86249 0.09695 0.0
C466 C 0.84783 0.85371 1.00531 0.0
C467 C 0.8319 0.86413 0.96287 0.0
C468 C 0.92535 0.8515 0.03897 0.0
C469 C 0.98796 0.85948 1.03004 0.0
C470 C 0.97274 0.86864 0.98515 0.0
C471 C 0.89508 0.87117 0.9522 0.0
H472 H 0.76423 0.66782 0.57874 0.0
H473 H 0.65521 0.63494 0.6548 0.0
H474 H 0.63332 0.67556 0.51888 0.0
H475 H 0.52475 0.64367 0.59804 0.0
H476 H 0.30235 0.67083 0.48978 0.0
H477 H 0.43585 0.67673 0.54977 0.0
H478 H 0.5324 0.64416 0.46515 0.0
H479 H 0.39905 0.63745 0.40734 0.0
C480 C 0.71216 0.66316 0.5849 0.0
C481 C 0.71959 0.65133 0.62292 0.0
C482 C 0.63761 0.66753 0.55055 0.0
C483 C 0.56961 0.66035 0.55452 0.0
C484 C 0.57665 0.64967 0.59524 0.0
C485 C 0.65124 0.64496 0.62864 0.0
C486 C 0.35251 0.66568 0.48239 0.0
C487 C 0.34071 0.65414 0.44279 0.0
C488 C 0.42855 0.66898 0.51687 0.0
C489 C 0.49375 0.66101 0.5115 0.0
C490 C 0.48275 0.65073 0.46912 0.0
C491 C 0.40656 0.64714 0.43533 0.0
H492 H 0.28312 0.36157 0.49674 0.0
H493 H 0.38932 0.38831 0.40488 0.0
H494 H 0.41483 0.35377 0.55545 0.0
H495 H 0.52021 0.37959 0.46101 0.0
H496 H 0.74794 0.36013 0.56807 0.0
H497 H 0.61484 0.35321 0.50908 0.0
H498 H 0.5145 0.37934 0.60587 0.0
H499 H 0.64691 0.38719 0.66238 0.0
C500 C 0.33454 0.36493 0.48757 0.0
C501 C 0.32657 0.375 0.44541 0.0
C502 C 0.40947 0.36048 0.52102 0.0
C503 C 0.47711 0.36591 0.5122 0.0
C504 C 0.46869 0.37489 0.4678 0.0
C505 C 0.39389 0.3797 0.43522 0.0
C506 C 0.69724 0.36372 0.5777 0.0
C507 C 0.7071 0.37366 0.6206 0.0
C508 C 0.62151 0.35978 0.54408 0.0
C509 C 0.55496 0.36558 0.55345 0.0
C510 C 0.56509 0.37437 0.5986 0.0
C511 C 0.64075 0.37868 0.63139 0.0
H512 H 0.69883 0.09521 0.96995 0.0
H513 H 0.5207 0.13059 0.89086 0.0
H514 H 0.63132 0.09046 1.03066 0.0
H515 H 0.44947 0.12474 0.94805 0.0
H516 H 0.53935 0.13439 0.13716 0.0
H517 H 0.60506 0.12394 0.08079 0.0
H518 H 0.39955 0.09453 1.00058 0.0
H519 H 0.33629 0.10403 0.05984 0.0
C520 C 0.64206 0.101 0.96317 0.0
C521 C 0.61272 0.11269 0.92401 0.0
C522 C 0.60395 0.09835 0.99806 0.0
C523 C 0.53501 0.10709 0.99341 0.0
C524 C 0.50152 0.11754 0.95144 0.0
C525 C 0.54097 0.12056 0.91761 0.0
C526 C 0.51132 0.12457 0.11071 0.0
C527 C 0.43438 0.11948 0.1043 0.0
C528 C 0.5481 0.11884 0.07765 0.0
C529 C 0.50721 0.10837 0.03672 0.0
C530 C 0.43248 0.10237 1.03239 0.0
C531 C 0.39665 0.10777 0.06634 0.0
H532 H 0.7099 0.91315 1.00513 0.0
H533 H 0.50572 0.88303 0.9278 0.0
H534 H 0.6472 0.92281 0.06451 0.0
H535 H 0.44117 0.89345 0.98511 0.0
H536 H 0.52355 0.88741 0.17514 0.0
H537 H 0.59385 0.89215 0.11666 0.0
H538 H 0.41912 0.928 0.03572 0.0
H539 H 0.352 0.9242 0.09712 0.0
C540 C 0.64955 0.90945 0.99883 0.0
C541 C 0.61141 0.89774 0.96096 0.0
C542 C 0.61406 0.91493 0.03285 0.0
C543 C 0.5394 0.90897 1.02879 0.0
C544 C 0.49817 0.89847 0.98804 0.0
C545 C 0.53441 0.89272 0.95468 0.0
C546 C 0.50456 0.89745 0.1482 0.0
C547 C 0.43476 0.90605 0.14242 0.0
C548 C 0.54353 0.89986 0.11377 0.0
C549 C 0.51179 0.91049 0.07211 0.0
C550 C 0.44509 0.91993 0.06807 0.0
C551 C 0.40728 0.91784 0.10339 0.0
H552 H 0.22338 0.60563 0.49536 0.0
H553 H 1.01852 0.6341 0.40999 0.0
H554 H 0.15718 0.59689 0.55377 0.0
H555 H 0.95039 0.62447 0.46583 0.0
H556 H 0.84342 0.60204 0.57203 0.0
H557 H 0.91306 0.59511 0.51392 0.0
H558 H 0.11183 0.62458 0.60513 0.0
H559 H 0.03941 0.63262 0.65998 0.0
C560 C 0.16232 0.60912 0.4872 0.0
C561 C 0.12461 0.62003 0.44712 0.0
C562 C 0.12475 0.60414 0.52055 0.0
C563 C 0.04854 0.60981 0.51358 0.0
C564 C 1.00834 0.61954 0.47089 0.0
C565 C 0.04669 0.62486 0.43837 0.0
C566 C 0.90367 0.6063 0.58101 0.0
C567 C 0.93775 0.61731 0.62174 0.0
C568 C 0.94321 0.60236 0.54781 0.0
C569 C 1.01789 0.60915 0.55566 0.0
C570 C 0.05511 0.61883 0.59924 0.0
C571 C 1.0145 0.62318 0.63141 0.0
H572 H 1.02329 0.382 0.41471 0.0
H573 H 0.15438 0.42725 0.46248 0.0
H574 H 0.9642 0.38577 0.47978 0.0
H575 H 0.09515 0.43105 0.52816 0.0
H576 H 0.87891 0.42597 0.60516 0.0
H577 H 0.93748 0.43063 0.53957 0.0
H578 H 0.06975 0.3855 0.58373 0.0
H579 H 1.01135 0.38088 0.64876 0.0
C580 C 0.03502 0.39336 0.43659 0.0
C581 C 0.09155 0.40457 0.43254 0.0
C582 C 1.00295 0.39529 0.4748 0.0
C583 C 0.02661 0.40853 0.50942 0.0
C584 C 0.07632 0.42074 0.50193 0.0
C585 C 0.1091 0.4187 0.46389 0.0
C586 C 0.92425 0.41762 0.60283 0.0
C587 C 0.94246 0.4033 0.63299 0.0
C588 C 0.95668 0.42016 0.56486 0.0
C589 C 1.00664 0.40825 0.5562 0.0
C590 C 0.0308 0.3948 0.58961 0.0
C591 C 0.9991 0.39237 0.62779 0.0
H592 H 0.34181 0.23676 0.1863 0.0
H593 H 0.28043 0.21148 0.30268 0.0
H594 H 0.30136 0.26283 0.21234 0.0
H595 H 0.24041 0.23766 0.32895 0.0
H596 H 0.11235 0.28617 0.33321 0.0
H597 H 0.14349 0.25976 0.30318 0.0
H598 H 0.34898 0.2816 0.28392 0.0
H599 H 0.31802 0.30797 0.31371 0.0
C600 C 0.31934 0.23673 0.21734 0.0
C601 C 0.31417 0.22195 0.24217 0.0
C602 C 0.29652 0.25172 0.23244 0.0
C603 C 0.26826 0.25239 0.27303 0.0
C604 C 0.2611 0.23757 0.29714 0.0
C605 C 0.28383 0.22251 0.28192 0.0
C606 C 0.1642 0.28536 0.32253 0.0
C607 C 0.21187 0.29933 0.32524 0.0
C608 C 0.18215 0.27018 0.30546 0.0
C609 C 0.24848 0.26855 0.29086 0.0
C610 C 0.29644 0.28249 0.29381 0.0
C611 C 0.27846 0.29768 0.31081 0.0
H612 H 0.70942 0.23141 0.87114 0.0
H613 H 0.75437 0.20896 0.744 0.0
H614 H 0.74631 0.2582 0.84752 0.0
H615 H 0.7915 0.23579 0.72072 0.0
H616 H 0.92344 0.28419 0.72277 0.0
H617 H 0.89285 0.25731 0.74965 0.0
H618 H 0.69424 0.2784 0.77924 0.0
H619 H 0.72423 0.30527 0.75221 0.0
C620 C 0.72744 0.23213 0.83826 0.0
C621 C 0.72942 0.21789 0.80988 0.0
C622 C 0.74829 0.24754 0.82463 0.0
C623 C 0.77165 0.24917 0.78216 0.0
C624 C 0.77486 0.23493 0.75412 0.0
C625 C 0.75382 0.21948 0.7677 0.0
C626 C 0.87317 0.28315 0.73501 0.0
C627 C 0.82706 0.29705 0.73578 0.0
C628 C 0.85555 0.26768 0.75029 0.0
C629 C 0.79122 0.26569 0.7667 0.0
C630 C 0.74512 0.27956 0.76767 0.0
C631 C 0.76263 0.29505 0.75229 0.0
H632 H 0.78905 0.8047 0.78469 0.0
H633 H 0.6551 0.78161 0.86729 0.0
H634 H 0.83479 0.77768 0.76924 0.0
H635 H 0.70033 0.75467 0.85108 0.0
H636 H 0.72355 0.70916 0.75787 0.0
H637 H 0.68131 0.73607 0.77723 0.0
H638 H 0.91921 0.75467 0.81602 0.0
H639 H 0.96219 0.72782 0.79742 0.0
C640 C 0.77035 0.79399 0.80044 0.0
C641 C 0.71873 0.79548 0.82778 0.0
C642 C 0.79634 0.77845 0.79126 0.0
C643 C 0.77091 0.76404 0.80879 0.0
C644 C 0.72006 0.76551 0.83643 0.0
C645 C 0.69444 0.78101 0.84586 0.0
C646 C 0.76744 0.71881 0.77142 0.0
C647 C 0.84673 0.71614 0.77647 0.0
C648 C 0.74297 0.73431 0.7823 0.0
C649 C 0.79694 0.7475 0.79806 0.0
C650 C 0.87599 0.74483 0.80329 0.0
C651 C 0.90055 0.72937 0.79272 0.0
H652 H 0.22577 0.80787 0.26686 0.0
H653 H 0.42971 0.78734 0.24186 0.0
H654 H 0.18949 0.78048 0.28606 0.0
H655 H 0.39096 0.7599 0.25862 0.0
H656 H 0.33396 0.71382 0.33376 0.0
H657 H 0.37827 0.74154 0.32254 0.0
H658 H 0.1363 0.75573 0.24043 0.0
H659 H 0.09217 0.72828 0.25223 0.0
C660 C 0.26363 0.79764 0.26603 0.0
C661 C 0.33121 0.79998 0.25301 0.0
C662 C 0.24201 0.78182 0.27633 0.0
C663 C 0.28697 0.76792 0.27358 0.0
C664 C 0.35533 0.7703 0.26166 0.0
C665 C 0.37709 0.78609 0.25154 0.0
C666 C 0.29036 0.72278 0.31278 0.0
C667 C 0.20945 0.71875 0.29368 0.0
C668 C 0.31573 0.73872 0.30649 0.0
C669 C 0.26081 0.75096 0.28091 0.0
C670 C 0.18018 0.74679 0.26136 0.0
C671 C 0.15491 0.73096 0.26783 0.0
H672 H 0.71709 0.16023 0.2619 0.0
H673 H 0.7022 0.10927 0.21384 0.0
H674 H 0.84994 0.16212 0.25919 0.0
H675 H 0.83531 0.11122 0.21069 0.0
H676 H 0.1077 0.11594 0.27216 0.0
H677 H 0.97196 0.11397 0.26944 0.0
H678 H 0.92302 0.16221 0.20047 0.0
H679 H 0.05962 0.16426 0.20361 0.0
C680 C 0.74199 0.14942 0.25058 0.0
C681 C 0.69889 0.13455 0.23843 0.0
C682 C 0.81816 0.15055 0.24867 0.0
C683 C 0.85365 0.13683 0.23475 0.0
C684 C 0.8103 0.12199 0.22218 0.0
C685 C 0.73381 0.12087 0.22383 0.0
C686 C 0.06812 0.12614 0.25629 0.0
C687 C 0.095 0.14031 0.23841 0.0
C688 C 0.9899 0.12495 0.25441 0.0
C689 C 0.93625 0.13792 0.23477 0.0
C690 C 0.9629 0.15206 0.21643 0.0
C691 C 0.04121 0.15322 0.21808 0.0
H692 H 0.33725 0.10649 0.81437 0.0
H693 H 0.3293 0.15828 0.7769 0.0
H694 H 0.20426 0.1084 0.81758 0.0
H695 H 0.19646 0.16013 0.77967 0.0
H696 H 0.98418 0.16081 0.83302 0.0
H697 H 0.12147 0.15887 0.83758 0.0
H698 H 0.06915 0.11229 0.75725 0.0
H699 H 0.93273 0.11414 0.75308 0.0
C700 C 0.30724 0.11828 0.80684 0.0
C701 C 0.34386 0.1322 0.79497 0.0
C702 C 0.23086 0.11936 0.80851 0.0
C703 C 0.18939 0.13441 0.79868 0.0
C704 C 0.22681 0.14839 0.78793 0.0
C705 C 0.30292 0.14729 0.786 0.0
C706 C 1.00199 0.15017 0.8163 0.0
C707 C 0.94715 0.13769 0.79238 0.0
C708 C 0.08067 0.14907 0.81882 0.0
C709 C 0.10648 0.13542 0.79777 0.0
C710 C 0.05173 0.12287 0.77444 0.0
C711 C 0.97317 0.124 0.77171 0.0
H712 H 0.3619 0.89702 0.88351 0.0
H713 H 0.29497 0.86943 0.74251 0.0
H714 H 0.22867 0.89293 0.88589 0.0
H715 H 0.16207 0.8658 0.74432 0.0
H716 H 0.91333 0.884 0.73611 0.0
H717 H 0.04872 0.8869 0.73856 0.0
H718 H 0.13584 0.86685 0.89066 0.0
H719 H 0.99919 0.86343 0.88775 0.0
C720 C 0.31895 0.89012 0.85306 0.0
C721 C 0.33927 0.88354 0.81286 0.0
C722 C 0.24286 0.88771 0.85459 0.0
C723 C 0.18507 0.87902 0.81532 0.0
C724 C 0.20531 0.87257 0.77504 0.0
C725 C 0.28155 0.87466 0.77408 0.0
C726 C 0.9611 0.88013 0.77011 0.0
C727 C 0.94523 0.87352 0.81184 0.0
C728 C 0.03872 0.88178 0.7714 0.0
C729 C 0.10285 0.87717 0.81482 0.0
C730 C 0.08748 0.87062 0.85682 0.0
C731 C 1.00933 0.86861 0.85508 0.0
H732 H 0.68431 0.89222 0.21475 0.0
H733 H 0.7952 0.89714 0.37817 0.0
H734 H 0.8139 0.88728 0.20814 0.0
H735 H 0.92361 0.89204 0.37162 0.0
H736 H 0.14626 0.90215 0.33732 0.0
H737 H 1.01486 0.90635 0.33987 0.0
H738 H 0.92465 0.86685 0.23088 0.0
H739 H 0.05727 0.8627 0.22787 0.0
C740 C 0.73614 0.89224 0.24922 0.0
C741 C 0.72919 0.8952 0.29696 0.0
C742 C 0.81036 0.88929 0.24546 0.0
C743 C 0.87934 0.88934 0.28932 0.0
C744 C 0.87202 0.89217 0.33695 0.0
C745 C 0.79812 0.89504 0.34072 0.0
C746 C 0.09865 0.89431 0.31384 0.0
C747 C 0.11262 0.88201 0.28262 0.0
C748 C 1.02316 0.89668 0.31553 0.0
C749 C 0.95912 0.88687 0.2859 0.0
C750 C 0.97259 0.87468 0.25403 0.0
C751 C 0.04866 0.87222 0.25259 0.0
H752 H 0.2277 0.65302 0.79576 0.0
H753 H 0.1954 0.60575 0.71946 0.0
H754 H 0.35913 0.65531 0.79085 0.0
H755 H 0.32695 0.60814 0.71411 0.0
H756 H 0.59986 0.60933 0.77314 0.0
H757 H 0.4648 0.60747 0.77153 0.0
H758 H 0.42935 0.65898 0.731 0.0
H759 H 0.56556 0.6609 0.73306 0.0
C760 C 0.24847 0.64312 0.77778 0.0
C761 C 0.20102 0.62912 0.75842 0.0
C762 C 0.32379 0.64451 0.77461 0.0
C763 C 0.35395 0.63191 0.75216 0.0
C764 C 0.30612 0.61798 0.73227 0.0
C765 C 0.23055 0.61662 0.73524 0.0
C766 C 0.56341 0.62029 0.76372 0.0
C767 C 0.59399 0.63531 0.75354 0.0
C768 C 0.48553 0.61918 0.76244 0.0
C769 C 0.43591 0.63306 0.75115 0.0
C770 C 0.46615 0.64807 0.74041 0.0
C771 C 0.54416 0.64917 0.7414 0.0
H772 H 0.42664 0.62849 0.22306 0.0
H773 H 0.51001 0.65294 0.36961 0.0
H774 H 0.56221 0.62617 0.22532 0.0
H775 H 0.64696 0.65009 0.37249 0.0
H776 H 0.87436 0.6189 0.36944 0.0
H777 H 0.74138 0.6232 0.37177 0.0
H778 H 0.67331 0.64835 0.22734 0.0
H779 H 0.80624 0.6446 0.22563 0.0
C780 C 0.47396 0.63335 0.25587 0.0
C781 C 0.45747 0.64087 0.29625 0.0
C782 C 0.55159 0.63204 0.25705 0.0
C783 C 0.61503 0.63789 0.29912 0.0
C784 C 0.59903 0.64539 0.33973 0.0
C785 C 0.52078 0.64708 0.33798 0.0
C786 C 0.83127 0.62547 0.33844 0.0
C787 C 0.85117 0.63145 0.29745 0.0
C788 C 0.75532 0.62799 0.33991 0.0
C789 C 0.69723 0.63615 0.2998 0.0
C790 C 0.71696 0.64202 0.25875 0.0
C791 C 0.79315 0.63985 0.25783 0.0
H792 H 0.47852 0.35764 0.36171 0.0
H793 H 0.4201 0.39905 0.25838 0.0
H794 H 0.61639 0.35962 0.36785 0.0
H795 H 0.55726 0.40086 0.26398 0.0
H796 H 0.82283 0.40954 0.32134 0.0
H797 H 0.68917 0.40802 0.32337 0.0
H798 H 0.69529 0.35487 0.31386 0.0
H799 H 0.82904 0.35636 0.31251 0.0
C800 C 0.49496 0.36712 0.34016 0.0
C801 C 0.43812 0.37813 0.30933 0.0
C802 C 0.57395 0.36823 0.3436 0.0
C803 C 0.59794 0.38041 0.31641 0.0
C804 C 0.54111 0.39148 0.28597 0.0
C805 C 0.46224 0.39035 0.28246 0.0
C806 C 0.79582 0.39753 0.31994 0.0
C807 C 0.83648 0.38308 0.31638 0.0
C808 C 0.71905 0.39666 0.32087 0.0
C809 C 0.68128 0.38132 0.31848 0.0
C810 C 0.72281 0.36687 0.31624 0.0
C811 C 0.7994 0.36774 0.31513 0.0
H812 H 0.55788 0.35509 0.70242 0.0
H813 H 0.61651 0.39631 0.80742 0.0
H814 H 0.41979 0.35704 0.69578 0.0
H815 H 0.47916 0.39808 0.80132 0.0
H816 H 0.21415 0.4069 0.74322 0.0
H817 H 0.34797 0.40535 0.74156 0.0
H818 H 0.33979 0.35219 0.74912 0.0
H819 H 0.20581 0.3537 0.7501 0.0
C820 C 0.54145 0.36452 0.72425 0.0
C821 C 0.5984 0.37549 0.75567 0.0
C822 C 0.46233 0.36561 0.72051 0.0
C823 C 0.43835 0.37773 0.748 0.0
C824 C 0.49531 0.38876 0.77908 0.0
C825 C 0.57429 0.38765 0.78288 0.0
C826 C 0.24072 0.39488 0.74425 0.0
C827 C 0.19943 0.38044 0.74719 0.0
C828 C 0.31758 0.39399 0.74354 0.0
C829 C 0.35485 0.37865 0.74554 0.0
C830 C 0.31267 0.3642 0.74708 0.0
C831 C 0.23595 0.36508 0.74796 0.0
loop_
_geom_bond_atom_site_label_1
_geom_bond_atom_site_label_2
_geom_bond_distance
_geom_bond_site_symmetry_2
_ccdc_geom_bond_type
Zn0 N4 2.020 . S
Zn0 O8 2.019 . S
Zn0 N10 2.119 . S
Zn0 O18 1.975 . S
C1 N2 1.334 . S
C1 N5 1.336 . S
N2 C1 1.334 . S
N2 C3 1.334 . S
C3 N2 1.334 . S
C3 N4 1.336 . S
N4 Zn0 2.020 . S
N4 C3 1.336 . S
N4 N5 1.354 . S
N5 C1 1.336 . S
N5 N4 1.354 . S
N5 Zn9 2.020 . S
C6 O7 1.244 . S
C6 O30 1.257 . S
O7 C6 1.244 . S
O8 Zn0 2.019 . S
O8 C28 1.257 . S
Zn9 N5 2.020 . S
Zn9 O16 1.975 . S
Zn9 N25 2.119 . S
Zn9 O30 2.019 . S
N10 Zn0 2.119 . S
N10 C12 1.334 . S
N10 C13 1.328 . S
C11 C12 1.391 . S
C11 N14 1.329 . S
C11 H32 0.930 . S
C12 N10 1.334 . S
C12 C11 1.391 . S
C12 H19 0.930 . S
C13 N10 1.328 . S
C13 C15 1.392 . S
C13 H20 0.930 . S
N14 C11 1.329 . S
N14 C15 1.331 . S
C15 C13 1.392 . S
C15 N14 1.331 . S
O16 Zn9 1.975 . S
O16 C17 1.252 . S
C17 O16 1.252 . S
C17 O18 1.252 . S
O18 Zn0 1.975 . S
O18 C17 1.252 . S
H19 C12 0.930 . S
H20 C13 0.930 . S
C21 C22 1.392 . S
C21 N25 1.328 . S
C21 H27 0.930 . S
C22 C21 1.392 . S
C22 N26 1.331 . S
C23 C24 1.391 . S
C23 N26 1.329 . S
C23 H33 0.930 . S
C24 C23 1.391 . S
C24 N25 1.334 . S
C24 H31 0.930 . S
N25 Zn9 2.119 . S
N25 C21 1.328 . S
N25 C24 1.334 . S
N26 C22 1.331 . S
N26 C23 1.329 . S
H27 C21 0.930 . S
C28 O8 1.257 . S
C28 O29 1.244 . S
O29 C28 1.244 . S
O30 C6 1.257 . S
O30 Zn9 2.019 . S
H31 C24 0.930 . S
H32 C11 0.930 . S
H33 C23 0.930 . S
Zn34 N38 2.020 . S
Zn34 O42 2.019 . S
Zn34 N44 2.119 . S
Zn34 O52 1.975 . S
C35 N36 1.334 . S
C35 N39 1.336 . S
N36 C35 1.334 . S
N36 C37 1.334 . S
C37 N36 1.334 . S
C37 N38 1.336 . S
N38 Zn34 2.020 . S
N38 C37 1.336 . S
N38 N39 1.354 . S
N39 C35 1.336 . S
N39 N38 1.354 . S
N39 Zn43 2.020 . S
C40 O41 1.244 . S
C40 O64 1.257 . S
O41 C40 1.244 . S
O42 Zn34 2.019 . S
O42 C62 1.257 . S
Zn43 N39 2.020 . S
Zn43 O50 1.975 . S
Zn43 N59 2.119 . S
Zn43 O64 2.019 . S
N44 Zn34 2.119 . S
N44 C46 1.334 . S
N44 C47 1.328 . S
C45 C46 1.391 . S
C45 N48 1.329 . S
C45 H66 0.930 . S
C46 N44 1.334 . S
C46 C45 1.391 . S
C46 H53 0.930 . S
C47 N44 1.328 . S
C47 C49 1.392 . S
C47 H54 0.930 . S
N48 C45 1.329 . S
N48 C49 1.331 . S
C49 C47 1.392 . S
C49 N48 1.331 . S
O50 Zn43 1.975 . S
O50 C51 1.252 . S
C51 O50 1.252 . S
C51 O52 1.252 . S
O52 Zn34 1.975 . S
O52 C51 1.252 . S
H53 C46 0.930 . S
H54 C47 0.930 . S
C55 C56 1.392 . S
C55 N59 1.328 . S
C55 H61 0.930 . S
C56 C55 1.392 . S
C56 N60 1.331 . S
C57 C58 1.391 . S
C57 N60 1.329 . S
C57 H67 0.930 . S
C58 C57 1.391 . S
C58 N59 1.334 . S
C58 H65 0.930 . S
N59 Zn43 2.119 . S
N59 C55 1.328 . S
N59 C58 1.334 . S
N60 C56 1.331 . S
N60 C57 1.329 . S
H61 C55 0.930 . S
C62 O42 1.257 . S
C62 O63 1.244 . S
O63 C62 1.244 . S
O64 C40 1.257 . S
O64 Zn43 2.019 . S
H65 C58 0.930 . S
H66 C45 0.930 . S
H67 C57 0.930 . S
Zn68 N72 2.020 . S
Zn68 O76 2.019 . S
Zn68 N78 2.119 . S
Zn68 O86 1.975 . S
C69 N70 1.334 . S
C69 N73 1.336 . S
N70 C69 1.334 . S
N70 C71 1.334 . S
C71 N70 1.334 . S
C71 N72 1.336 . S
N72 Zn68 2.020 . S
N72 C71 1.336 . S
N72 N73 1.354 . S
N73 C69 1.336 . S
N73 N72 1.354 . S
N73 Zn77 2.020 . S
C74 O75 1.244 . S
C74 O98 1.257 . S
O75 C74 1.244 . S
O76 Zn68 2.019 . S
O76 C96 1.257 . S
Zn77 N73 2.020 . S
Zn77 O84 1.975 . S
Zn77 N93 2.119 . S
Zn77 O98 2.019 . S
N78 Zn68 2.119 . S
N78 C80 1.334 . S
N78 C81 1.328 . S
C79 C80 1.391 . S
C79 N82 1.329 . S
C79 H100 0.930 . S
C80 N78 1.334 . S
C80 C79 1.391 . S
C80 H87 0.930 . S
C81 N78 1.328 . S
C81 C83 1.392 . S
C81 H88 0.930 . S
N82 C79 1.329 . S
N82 C83 1.331 . S
C83 C81 1.392 . S
C83 N82 1.331 . S
O84 Zn77 1.975 . S
O84 C85 1.252 . S
C85 O84 1.252 . S
C85 O86 1.252 . S
O86 Zn68 1.975 . S
O86 C85 1.252 . S
H87 C80 0.930 . S
H88 C81 0.930 . S
C89 C90 1.392 . S
C89 N93 1.328 . S
C89 H95 0.930 . S
C90 C89 1.392 . S
C90 N94 1.331 . S
C91 C92 1.391 . S
C91 N94 1.329 . S
C91 H101 0.930 . S
C92 C91 1.391 . S
C92 N93 1.334 . S
C92 H99 0.930 . S
N93 Zn77 2.119 . S
N93 C89 1.328 . S
N93 C92 1.334 . S
N94 C90 1.331 . S
N94 C91 1.329 . S
H95 C89 0.930 . S
C96 O76 1.257 . S
C96 O97 1.244 . S
O97 C96 1.244 . S
O98 C74 1.257 . S
O98 Zn77 2.019 . S
H99 C92 0.930 . S
H100 C79 0.930 . S
H101 C91 0.930 . S
Zn102 N106 2.020 . S
Zn102 O110 2.019 . S
Zn102 N112 2.119 . S
Zn102 O120 1.975 . S
C103 N104 1.334 . S
C103 N107 1.336 . S
N104 C103 1.334 . S
N104 C105 1.334 . S
C105 N104 1.334 . S
C105 N106 1.336 . S
N106 Zn102 2.020 . S
N106 C105 1.336 . S
N106 N107 1.354 . S
N107 C103 1.336 . S
N107 N106 1.354 . S
N107 Zn111 2.020 . S
C108 O109 1.244 . S
C108 O132 1.257 . S
O109 C108 1.244 . S
O110 Zn102 2.019 . S
O110 C130 1.257 . S
Zn111 N107 2.020 . S
Zn111 O118 1.975 . S
Zn111 N127 2.119 . S
Zn111 O132 2.019 . S
N112 Zn102 2.119 . S
N112 C114 1.334 . S
N112 C115 1.328 . S
C113 C114 1.391 . S
C113 N116 1.329 . S
C113 H134 0.930 . S
C114 N112 1.334 . S
C114 C113 1.391 . S
C114 H121 0.930 . S
C115 N112 1.328 . S
C115 C117 1.392 . S
C115 H122 0.930 . S
N116 C113 1.329 . S
N116 C117 1.331 . S
C117 C115 1.392 . S
C117 N116 1.331 . S
O118 Zn111 1.975 . S
O118 C119 1.252 . S
C119 O118 1.252 . S
C119 O120 1.252 . S
O120 Zn102 1.975 . S
O120 C119 1.252 . S
H121 C114 0.930 . S
H122 C115 0.930 . S
C123 C124 1.392 . S
C123 N127 1.328 . S
C123 H129 0.930 . S
C124 C123 1.392 . S
C124 N128 1.331 . S
C125 C126 1.391 . S
C125 N128 1.329 . S
C125 H135 0.930 . S
C126 C125 1.391 . S
C126 N127 1.334 . S
C126 H133 0.930 . S
N127 Zn111 2.119 . S
N127 C123 1.328 . S
N127 C126 1.334 . S
N128 C124 1.331 . S
N128 C125 1.329 . S
H129 C123 0.930 . S
C130 O110 1.257 . S
C130 O131 1.244 . S
O131 C130 1.244 . S
O132 C108 1.257 . S
O132 Zn111 2.019 . S
H133 C126 0.930 . S
H134 C113 0.930 . S
H135 C125 0.930 . S
Zn136 N140 2.020 . S
Zn136 O144 2.019 . S
Zn136 N146 2.119 . S
Zn136 O154 1.975 . S
C137 N138 1.334 . S
C137 N141 1.336 . S
N138 C137 1.334 . S
N138 C139 1.334 . S
C139 N138 1.334 . S
C139 N140 1.336 . S
N140 Zn136 2.020 . S
N140 C139 1.336 . S
N140 N141 1.354 . S
N141 C137 1.336 . S
N141 N140 1.354 . S
N141 Zn145 2.020 . S
C142 O143 1.244 . S
C142 O166 1.257 . S
O143 C142 1.244 . S
O144 Zn136 2.019 . S
O144 C164 1.257 . S
Zn145 N141 2.020 . S
Zn145 O152 1.975 . S
Zn145 N161 2.119 . S
Zn145 O166 2.019 1_655 S
N146 Zn136 2.119 . S
N146 C148 1.334 . S
N146 C149 1.328 . S
C147 C148 1.391 . S
C147 N150 1.329 . S
C147 H168 0.930 . S
C148 N146 1.334 . S
C148 C147 1.391 . S
C148 H155 0.930 . S
C149 N146 1.328 . S
C149 C151 1.392 . S
C149 H156 0.930 . S
N150 C147 1.329 . S
N150 C151 1.331 . S
C151 C149 1.392 . S
C151 N150 1.331 . S
O152 Zn145 1.975 . S
O152 C153 1.252 . S
C153 O152 1.252 . S
C153 O154 1.252 . S
O154 Zn136 1.975 . S
O154 C153 1.252 . S
H155 C148 0.930 . S
H156 C149 0.930 . S
C157 C158 1.392 1_455 S
C157 N161 1.328 1_455 S
C157 H163 0.930 . S
C158 C157 1.392 1_655 S
C158 N162 1.331 . S
C159 C160 1.391 . S
C159 N162 1.329 . S
C159 H169 0.930 . S
C160 C159 1.391 . S
C160 N161 1.334 . S
C160 H167 0.930 . S
N161 Zn145 2.119 . S
N161 C157 1.328 1_655 S
N161 C160 1.334 . S
N162 C158 1.331 . S
N162 C159 1.329 . S
H163 C157 0.930 . S
C164 O144 1.257 . S
C164 O165 1.244 . S
O165 C164 1.244 . S
O166 C142 1.257 . S
O166 Zn145 2.019 1_455 S
H167 C160 0.930 . S
H168 C147 0.930 . S
H169 C159 0.930 . S
Zn170 N174 2.020 . S
Zn170 O178 2.019 . S
Zn170 N180 2.119 . S
Zn170 O188 1.975 . S
C171 N172 1.334 . S
C171 N175 1.336 . S
N172 C171 1.334 . S
N172 C173 1.334 . S
C173 N172 1.334 . S
C173 N174 1.336 . S
N174 Zn170 2.020 . S
N174 C173 1.336 . S
N174 N175 1.354 . S
N175 C171 1.336 . S
N175 N174 1.354 . S
N175 Zn179 2.020 . S
C176 O177 1.244 . S
C176 O200 1.257 . S
O177 C176 1.244 . S
O178 Zn170 2.019 . S
O178 C198 1.257 . S
Zn179 N175 2.020 . S
Zn179 O186 1.975 . S
Zn179 N195 2.119 . S
Zn179 O200 2.019 1_455 S
N180 Zn170 2.119 . S
N180 C182 1.334 . S
N180 C183 1.328 . S
C181 C182 1.391 . S
C181 N184 1.329 . S
C181 H202 0.930 . S
C182 N180 1.334 . S
C182 C181 1.391 . S
C182 H189 0.930 . S
C183 N180 1.328 . S
C183 C185 1.392 . S
C183 H190 0.930 . S
N184 C181 1.329 . S
N184 C185 1.331 . S
C185 C183 1.392 . S
C185 N184 1.331 . S
O186 Zn179 1.975 . S
O186 C187 1.252 . S
C187 O186 1.252 . S
C187 O188 1.252 . S
O188 Zn170 1.975 . S
O188 C187 1.252 . S
H189 C182 0.930 . S
H190 C183 0.930 . S
C191 C192 1.392 1_655 S
C191 N195 1.328 1_655 S
C191 H197 0.930 . S
C192 C191 1.392 1_455 S
C192 N196 1.331 . S
C193 C194 1.391 . S
C193 N196 1.329 . S
C193 H203 0.930 . S
C194 C193 1.391 . S
C194 N195 1.334 . S
C194 H201 0.930 . S
N195 Zn179 2.119 . S
N195 C191 1.328 1_455 S
N195 C194 1.334 . S
N196 C192 1.331 . S
N196 C193 1.329 . S
H197 C191 0.930 . S
C198 O178 1.257 . S
C198 O199 1.244 . S
O199 C198 1.244 . S
O200 C176 1.257 . S
O200 Zn179 2.019 1_655 S
H201 C194 0.930 . S
H202 C181 0.930 . S
H203 C193 0.930 . S
Zn204 N208 2.020 . S
Zn204 O212 2.019 1_455 S
Zn204 N214 2.119 . S
Zn204 O222 1.975 . S
C205 N206 1.334 . S
C205 N209 1.336 . S
N206 C205 1.334 . S
N206 C207 1.334 . S
C207 N206 1.334 . S
C207 N208 1.336 . S
N208 Zn204 2.020 . S
N208 C207 1.336 . S
N208 N209 1.354 . S
N209 C205 1.336 . S
N209 N208 1.354 . S
N209 Zn213 2.020 . S
C210 O211 1.244 . S
C210 O234 1.257 . S
O211 C210 1.244 . S
O212 Zn204 2.019 1_655 S
O212 C232 1.257 . S
Zn213 N209 2.020 . S
Zn213 O220 1.975 . S
Zn213 N229 2.119 . S
Zn213 O234 2.019 . S
N214 Zn204 2.119 . S
N214 C216 1.334 . S
N214 C217 1.328 1_455 S
C215 C216 1.391 . S
C215 N218 1.329 . S
C215 H236 0.930 . S
C216 N214 1.334 . S
C216 C215 1.391 . S
C216 H223 0.930 . S
C217 N214 1.328 1_655 S
C217 C219 1.392 1_655 S
C217 H224 0.930 . S
N218 C215 1.329 . S
N218 C219 1.331 . S
C219 C217 1.392 1_455 S
C219 N218 1.331 . S
O220 Zn213 1.975 . S
O220 C221 1.252 . S
C221 O220 1.252 . S
C221 O222 1.252 . S
O222 Zn204 1.975 . S
O222 C221 1.252 . S
H223 C216 0.930 . S
H224 C217 0.930 . S
C225 C226 1.392 . S
C225 N229 1.328 . S
C225 H231 0.930 . S
C226 C225 1.392 . S
C226 N230 1.331 . S
C227 C228 1.391 . S
C227 N230 1.329 . S
C227 H237 0.930 . S
C228 C227 1.391 . S
C228 N229 1.334 . S
C228 H235 0.930 . S
N229 Zn213 2.119 . S
N229 C225 1.328 . S
N229 C228 1.334 . S
N230 C226 1.331 . S
N230 C227 1.329 . S
H231 C225 0.930 . S
C232 O212 1.257 . S
C232 O233 1.244 . S
O233 C232 1.244 . S
O234 C210 1.257 . S
O234 Zn213 2.019 . S
H235 C228 0.930 . S
H236 C215 0.930 . S
H237 C227 0.930 . S
Zn238 N242 2.020 . S
Zn238 O246 2.019 . S
Zn238 N248 2.119 . S
Zn238 O256 1.975 . S
C239 N240 1.334 . S
C239 N243 1.336 . S
N240 C239 1.334 . S
N240 C241 1.334 . S
C241 N240 1.334 . S
C241 N242 1.336 . S
N242 Zn238 2.020 . S
N242 C241 1.336 . S
N242 N243 1.354 . S
N243 C239 1.336 . S
N243 N242 1.354 . S
N243 Zn247 2.020 . S
C244 O245 1.244 . S
C244 O268 1.257 . S
O245 C244 1.244 . S
O246 Zn238 2.019 . S
O246 C266 1.257 . S
Zn247 N243 2.020 . S
Zn247 O254 1.975 . S
Zn247 N263 2.119 . S
Zn247 O268 2.019 1_655 S
N248 Zn238 2.119 . S
N248 C250 1.334 . S
N248 C251 1.328 . S
C249 C250 1.391 . S
C249 N252 1.329 . S
C249 H270 0.930 . S
C250 N248 1.334 . S
C250 C249 1.391 . S
C250 H257 0.930 . S
C251 N248 1.328 . S
C251 C253 1.392 . S
C251 H258 0.930 . S
N252 C249 1.329 . S
N252 C253 1.331 . S
C253 C251 1.392 . S
C253 N252 1.331 . S
O254 Zn247 1.975 . S
O254 C255 1.252 . S
C255 O254 1.252 . S
C255 O256 1.252 . S
O256 Zn238 1.975 . S
O256 C255 1.252 . S
H257 C250 0.930 . S
H258 C251 0.930 . S
C259 C260 1.392 1_455 S
C259 N263 1.328 1_455 S
C259 H265 0.930 . S
C260 C259 1.392 1_655 S
C260 N264 1.331 . S
C261 C262 1.391 . S
C261 N264 1.329 . S
C261 H271 0.930 . S
C262 C261 1.391 . S
C262 N263 1.334 . S
C262 H269 0.930 . S
N263 Zn247 2.119 . S
N263 C259 1.328 1_655 S
N263 C262 1.334 . S
N264 C260 1.331 . S
N264 C261 1.329 . S
H265 C259 0.930 . S
C266 O246 1.257 . S
C266 O267 1.244 . S
O267 C266 1.244 . S
O268 C244 1.257 . S
O268 Zn247 2.019 1_455 S
H269 C262 0.930 . S
H270 C249 0.930 . S
H271 C261 0.930 . S
H272 C280 0.950 . S
H273 C285 0.950 . S
H274 C282 0.950 . S
H275 C284 0.950 . S
H276 C286 0.950 . S
H277 C288 0.950 . S
H278 C290 0.950 . S
H279 C291 0.950 . S
C280 H272 0.950 . S
C280 C281 1.386 . S
C280 C282 1.391 . S
C281 C280 1.386 . S
C281 C285 1.393 . S
C282 H274 0.950 . S
C282 C280 1.391 . S
C282 C283 1.400 . S
C283 C282 1.400 . S
C283 C284 1.398 . S
C283 C289 1.491 . S
C284 H275 0.950 . S
C284 C283 1.398 . S
C284 C285 1.391 . S
C285 H273 0.950 . S
C285 C281 1.393 . S
C285 C284 1.391 . S
C286 H276 0.950 . S
C286 C287 1.386 . S
C286 C288 1.391 . S
C287 C286 1.386 . S
C287 C291 1.393 . S
C288 H277 0.950 . S
C288 C286 1.391 . S
C288 C289 1.400 . S
C289 C283 1.491 . S
C289 C288 1.400 . S
C289 C290 1.398 . S
C290 H278 0.950 . S
C290 C289 1.398 . S
C290 C291 1.391 . S
C291 H279 0.950 . S
C291 C287 1.393 . S
C291 C290 1.391 . S
H292 C300 0.950 . S
H293 C305 0.950 . S
H294 C302 0.950 . S
H295 C304 0.950 . S
H296 C306 0.950 . S
H297 C308 0.950 . S
H298 C310 0.950 . S
H299 C311 0.950 . S
C300 H292 0.950 . S
C300 C301 1.386 . S
C300 C302 1.391 . S
C301 C300 1.386 . S
C301 C305 1.393 . S
C302 H294 0.950 . S
C302 C300 1.391 . S
C302 C303 1.400 . S
C303 C302 1.400 . S
C303 C304 1.398 . S
C303 C309 1.491 . S
C304 H295 0.950 . S
C304 C303 1.398 . S
C304 C305 1.391 . S
C305 H293 0.950 . S
C305 C301 1.393 . S
C305 C304 1.391 . S
C306 H296 0.950 . S
C306 C307 1.386 . S
C306 C308 1.391 . S
C307 C306 1.386 . S
C307 C311 1.393 . S
C308 H297 0.950 . S
C308 C306 1.391 . S
C308 C309 1.400 . S
C309 C303 1.491 . S
C309 C308 1.400 . S
C309 C310 1.398 . S
C310 H298 0.950 . S
C310 C309 1.398 . S
C310 C311 1.391 . S
C311 H299 0.950 . S
C311 C307 1.393 . S
C311 C310 1.391 . S
H312 C320 0.950 . S
H313 C325 0.950 . S
H314 C322 0.950 . S
H315 C324 0.950 . S
H316 C326 0.950 . S
H317 C328 0.950 . S
H318 C330 0.950 . S
H319 C331 0.950 . S
C320 H312 0.950 . S
C320 C321 1.386 . S
C320 C322 1.391 . S
C321 C320 1.386 . S
C321 C325 1.393 1_655 S
C322 H314 0.950 . S
C322 C320 1.391 . S
C322 C323 1.400 . S
C323 C322 1.400 . S
C323 C324 1.398 1_655 S
C323 C329 1.491 1_656 S
C324 H315 0.950 . S
C324 C323 1.398 1_455 S
C324 C325 1.391 . S
C325 H313 0.950 . S
C325 C321 1.393 1_455 S
C325 C324 1.391 . S
C326 H316 0.950 . S
C326 C327 1.386 . S
C326 C328 1.391 . S
C327 C326 1.386 . S
C327 C331 1.393 1_455 S
C328 H317 0.950 . S
C328 C326 1.391 . S
C328 C329 1.400 . S
C329 C323 1.491 1_454 S
C329 C328 1.400 . S
C329 C330 1.398 1_455 S
C330 H318 0.950 . S
C330 C329 1.398 1_655 S
C330 C331 1.391 . S
C331 H319 0.950 . S
C331 C327 1.393 1_655 S
C331 C330 1.391 . S
H332 C340 0.950 . S
H333 C345 0.950 . S
H334 C342 0.950 . S
H335 C344 0.950 . S
H336 C346 0.950 . S
H337 C348 0.950 . S
H338 C350 0.950 . S
H339 C351 0.950 . S
C340 H332 0.950 . S
C340 C341 1.386 1_455 S
C340 C342 1.391 . S
C341 C340 1.386 1_655 S
C341 C345 1.393 . S
C342 H334 0.950 . S
C342 C340 1.391 . S
C342 C343 1.400 1_455 S
C343 C342 1.400 1_655 S
C343 C344 1.398 . S
C343 C349 1.491 1_656 S
C344 H335 0.950 . S
C344 C343 1.398 . S
C344 C345 1.391 . S
C345 H333 0.950 . S
C345 C341 1.393 . S
C345 C344 1.391 . S
C346 H336 0.950 . S
C346 C347 1.386 1_655 S
C346 C348 1.391 . S
C347 C346 1.386 1_455 S
C347 C351 1.393 . S
C348 H337 0.950 . S
C348 C346 1.391 . S
C348 C349 1.400 1_655 S
C349 C343 1.491 1_454 S
C349 C348 1.400 1_455 S
C349 C350 1.398 . S
C350 H338 0.950 . S
C350 C349 1.398 . S
C350 C351 1.391 . S
C351 H339 0.950 . S
C351 C347 1.393 . S
C351 C350 1.391 . S
H352 C360 0.950 . S
H353 C365 0.950 . S
H354 C362 0.950 . S
H355 C364 0.950 . S
H356 C366 0.950 . S
H357 C368 0.950 . S
H358 C370 0.950 . S
H359 C371 0.950 . S
C360 H352 0.950 . S
C360 C361 1.386 . S
C360 C362 1.391 . S
C361 C360 1.386 . S
C361 C365 1.393 . S
C362 H354 0.950 . S
C362 C360 1.391 . S
C362 C363 1.400 . S
C363 C362 1.400 . S
C363 C364 1.398 . S
C363 C369 1.491 1_565 S
C364 H355 0.950 . S
C364 C363 1.398 . S
C364 C365 1.391 . S
C365 H353 0.950 . S
C365 C361 1.393 . S
C365 C364 1.391 . S
C366 H356 0.950 . S
C366 C367 1.386 . S
C366 C368 1.391 . S
C367 C366 1.386 . S
C367 C371 1.393 . S
C368 H357 0.950 . S
C368 C366 1.391 . S
C368 C369 1.400 . S
C369 C363 1.491 1_545 S
C369 C368 1.400 . S
C369 C370 1.398 . S
C370 H358 0.950 . S
C370 C369 1.398 . S
C370 C371 1.391 . S
C371 H359 0.950 . S
C371 C367 1.393 . S
C371 C370 1.391 . S
H372 C380 0.950 . S
H373 C385 0.950 . S
H374 C382 0.950 . S
H375 C384 0.950 . S
H376 C386 0.950 . S
H377 C388 0.950 . S
H378 C390 0.950 . S
H379 C391 0.950 . S
C380 H372 0.950 . S
C380 C381 1.386 . S
C380 C382 1.391 . S
C381 C380 1.386 . S
C381 C385 1.393 . S
C382 H374 0.950 . S
C382 C380 1.391 . S
C382 C383 1.400 . S
C383 C382 1.400 . S
C383 C384 1.398 . S
C383 C389 1.491 1_565 S
C384 H375 0.950 . S
C384 C383 1.398 . S
C384 C385 1.391 . S
C385 H373 0.950 . S
C385 C381 1.393 . S
C385 C384 1.391 . S
C386 H376 0.950 . S
C386 C387 1.386 . S
C386 C388 1.391 . S
C387 C386 1.386 . S
C387 C391 1.393 . S
C388 H377 0.950 . S
C388 C386 1.391 . S
C388 C389 1.400 . S
C389 C383 1.491 1_545 S
C389 C388 1.400 . S
C389 C390 1.398 . S
C390 H378 0.950 . S
C390 C389 1.398 . S
C390 C391 1.391 . S
C391 H379 0.950 . S
C391 C387 1.393 . S
C391 C390 1.391 . S
H392 C400 0.950 . S
H393 C405 0.950 . S
H394 C402 0.950 . S
H395 C404 0.950 . S
H396 C406 0.950 . S
H397 C408 0.950 . S
H398 C410 0.950 . S
H399 C411 0.950 . S
C400 H392 0.950 . S
C400 C401 1.386 . S
C400 C402 1.391 . S
C401 C400 1.386 . S
C401 C405 1.393 1_455 S
C402 H394 0.950 . S
C402 C400 1.391 . S
C402 C403 1.400 . S
C403 C402 1.400 . S
C403 C404 1.398 1_455 S
C403 C409 1.491 . S
C404 H395 0.950 . S
C404 C403 1.398 1_655 S
C404 C405 1.391 . S
C405 H393 0.950 . S
C405 C401 1.393 1_655 S
C405 C404 1.391 . S
C406 H396 0.950 . S
C406 C407 1.386 1_655 S
C406 C408 1.391 . S
C407 C406 1.386 1_455 S
C407 C411 1.393 . S
C408 H397 0.950 . S
C408 C406 1.391 . S
C408 C409 1.400 1_655 S
C409 C403 1.491 . S
C409 C408 1.400 1_455 S
C409 C410 1.398 . S
C410 H398 0.950 . S
C410 C409 1.398 . S
C410 C411 1.391 . S
C411 H399 0.950 . S
C411 C407 1.393 . S
C411 C410 1.391 . S
H412 C420 0.950 . S
H413 C425 0.950 . S
H414 C422 0.950 . S
H415 C424 0.950 . S
H416 C426 0.950 . S
H417 C428 0.950 . S
H418 C430 0.950 . S
H419 C431 0.950 . S
C420 H412 0.950 . S
C420 C421 1.386 . S
C420 C422 1.391 . S
C421 C420 1.386 . S
C421 C425 1.393 1_655 S
C422 H414 0.950 . S
C422 C420 1.391 . S
C422 C423 1.400 . S
C423 C422 1.400 . S
C423 C424 1.398 1_655 S
C423 C429 1.491 . S
C424 H415 0.950 . S
C424 C423 1.398 1_455 S
C424 C425 1.391 . S
C425 H413 0.950 . S
C425 C421 1.393 1_455 S
C425 C424 1.391 . S
C426 H416 0.950 . S
C426 C427 1.386 1_455 S
C426 C428 1.391 . S
C427 C426 1.386 1_655 S
C427 C431 1.393 . S
C428 H417 0.950 . S
C428 C426 1.391 . S
C428 C429 1.400 1_455 S
C429 C423 1.491 . S
C429 C428 1.400 1_655 S
C429 C430 1.398 . S
C430 H418 0.950 . S
C430 C429 1.398 . S
C430 C431 1.391 . S
C431 H419 0.950 . S
C431 C427 1.393 . S
C431 C430 1.391 . S
H432 C440 0.950 . S
H433 C445 0.950 . S
H434 C442 0.950 1_554 S
H435 C444 0.950 . S
H436 C446 0.950 . S
H437 C448 0.950 1_556 S
H438 C450 0.950 . S
H439 C451 0.950 . S
C440 H432 0.950 . S
C440 C441 1.386 . S
C440 C442 1.391 . S
C441 C440 1.386 . S
C441 C445 1.393 . S
C442 H434 0.950 1_556 S
C442 C440 1.391 . S
C442 C443 1.400 . S
C443 C442 1.400 . S
C443 C444 1.398 . S
C443 C449 1.491 1_656 S
C444 H435 0.950 . S
C444 C443 1.398 . S
C444 C445 1.391 . S
C445 H433 0.950 . S
C445 C441 1.393 . S
C445 C444 1.391 . S
C446 H436 0.950 . S
C446 C447 1.386 . S
C446 C448 1.391 . S
C447 C446 1.386 . S
C447 C451 1.393 . S
C448 H437 0.950 1_554 S
C448 C446 1.391 . S
C448 C449 1.400 . S
C449 C443 1.491 1_454 S
C449 C448 1.400 . S
C449 C450 1.398 . S
C450 H438 0.950 . S
C450 C449 1.398 . S
C450 C451 1.391 . S
C451 H439 0.950 . S
C451 C447 1.393 . S
C451 C450 1.391 . S
H452 C460 0.950 . S
H453 C465 0.950 . S
H454 C462 0.950 . S
H455 C464 0.950 1_556 S
H456 C466 0.950 . S
H457 C468 0.950 . S
H458 C470 0.950 1_554 S
H459 C471 0.950 . S
C460 H452 0.950 . S
C460 C461 1.386 . S
C460 C462 1.391 . S
C461 C460 1.386 . S
C461 C465 1.393 . S
C462 H454 0.950 . S
C462 C460 1.391 . S
C462 C463 1.400 . S
C463 C462 1.400 . S
C463 C464 1.398 . S
C463 C469 1.491 1_454 S
C464 H455 0.950 1_554 S
C464 C463 1.398 . S
C464 C465 1.391 . S
C465 H453 0.950 . S
C465 C461 1.393 . S
C465 C464 1.391 . S
C466 H456 0.950 . S
C466 C467 1.386 . S
C466 C468 1.391 . S
C467 C466 1.386 . S
C467 C471 1.393 . S
C468 H457 0.950 . S
C468 C466 1.391 . S
C468 C469 1.400 . S
C469 C463 1.491 1_656 S
C469 C468 1.400 . S
C469 C470 1.398 . S
C470 H458 0.950 1_556 S
C470 C469 1.398 . S
C470 C471 1.391 . S
C471 H459 0.950 . S
C471 C467 1.393 . S
C471 C470 1.391 . S
H472 C480 0.950 . S
H473 C485 0.950 . S
H474 C482 0.950 . S
H475 C484 0.950 . S
H476 C486 0.950 . S
H477 C488 0.950 . S
H478 C490 0.950 . S
H479 C491 0.950 . S
C480 H472 0.950 . S
C480 C481 1.386 . S
C480 C482 1.391 . S
C481 C480 1.386 . S
C481 C485 1.393 . S
C482 H474 0.950 . S
C482 C480 1.391 . S
C482 C483 1.400 . S
C483 C482 1.400 . S
C483 C484 1.398 . S
C483 C489 1.491 . S
C484 H475 0.950 . S
C484 C483 1.398 . S
C484 C485 1.391 . S
C485 H473 0.950 . S
C485 C481 1.393 . S
C485 C484 1.391 . S
C486 H476 0.950 . S
C486 C487 1.386 . S
C486 C488 1.391 . S
C487 C486 1.386 . S
C487 C491 1.393 . S
C488 H477 0.950 . S
C488 C486 1.391 . S
C488 C489 1.400 . S
C489 C483 1.491 . S
C489 C488 1.400 . S
C489 C490 1.398 . S
C490 H478 0.950 . S
C490 C489 1.398 . S
C490 C491 1.391 . S
C491 H479 0.950 . S
C491 C487 1.393 . S
C491 C490 1.391 . S
H492 C500 0.950 . S
H493 C505 0.950 . S
H494 C502 0.950 . S
H495 C504 0.950 . S
H496 C506 0.950 . S
H497 C508 0.950 . S
H498 C510 0.950 . S
H499 C511 0.950 . S
C500 H492 0.950 . S
C500 C501 1.386 . S
C500 C502 1.391 . S
C501 C500 1.386 . S
C501 C505 1.393 . S
C502 H494 0.950 . S
C502 C500 1.391 . S
C502 C503 1.400 . S
C503 C502 1.400 . S
C503 C504 1.398 . S
C503 C509 1.491 . S
C504 H495 0.950 . S
C504 C503 1.398 . S
C504 C505 1.391 . S
C505 H493 0.950 . S
C505 C501 1.393 . S
C505 C504 1.391 . S
C506 H496 0.950 . S
C506 C507 1.386 . S
C506 C508 1.391 . S
C507 C506 1.386 . S
C507 C511 1.393 . S
C508 H497 0.950 . S
C508 C506 1.391 . S
C508 C509 1.400 . S
C509 C503 1.491 . S
C509 C508 1.400 . S
C509 C510 1.398 . S
C510 H498 0.950 . S
C510 C509 1.398 . S
C510 C511 1.391 . S
C511 H499 0.950 . S
C511 C507 1.393 . S
C511 C510 1.391 . S
H512 C520 0.950 . S
H513 C525 0.950 . S
H514 C522 0.950 . S
H515 C524 0.950 1_554 S
H516 C526 0.950 . S
H517 C528 0.950 . S
H518 C530 0.950 1_556 S
H519 C531 0.950 . S
C520 H512 0.950 . S
C520 C521 1.386 . S
C520 C522 1.391 . S
C521 C520 1.386 . S
C521 C525 1.393 . S
C522 H514 0.950 . S
C522 C520 1.391 . S
C522 C523 1.400 . S
C523 C522 1.400 . S
C523 C524 1.398 . S
C523 C529 1.491 1_556 S
C524 H515 0.950 1_556 S
C524 C523 1.398 . S
C524 C525 1.391 . S
C525 H513 0.950 . S
C525 C521 1.393 . S
C525 C524 1.391 . S
C526 H516 0.950 . S
C526 C527 1.386 . S
C526 C528 1.391 . S
C527 C526 1.386 . S
C527 C531 1.393 . S
C528 H517 0.950 . S
C528 C526 1.391 . S
C528 C529 1.400 . S
C529 C523 1.491 1_554 S
C529 C528 1.400 . S
C529 C530 1.398 . S
C530 H518 0.950 1_554 S
C530 C529 1.398 . S
C530 C531 1.391 . S
C531 H519 0.950 . S
C531 C527 1.393 . S
C531 C530 1.391 . S
H532 C540 0.950 . S
H533 C545 0.950 . S
H534 C542 0.950 . S
H535 C544 0.950 . S
H536 C546 0.950 . S
H537 C548 0.950 . S
H538 C550 0.950 . S
H539 C551 0.950 . S
C540 H532 0.950 . S
C540 C541 1.386 . S
C540 C542 1.391 . S
C541 C540 1.386 . S
C541 C545 1.393 . S
C542 H534 0.950 . S
C542 C540 1.391 . S
C542 C543 1.400 . S
C543 C542 1.400 . S
C543 C544 1.398 . S
C543 C549 1.491 1_556 S
C544 H535 0.950 . S
C544 C543 1.398 . S
C544 C545 1.391 . S
C545 H533 0.950 . S
C545 C541 1.393 . S
C545 C544 1.391 . S
C546 H536 0.950 . S
C546 C547 1.386 . S
C546 C548 1.391 . S
C547 C546 1.386 . S
C547 C551 1.393 . S
C548 H537 0.950 . S
C548 C546 1.391 . S
C548 C549 1.400 . S
C549 C543 1.491 1_554 S
C549 C548 1.400 . S
C549 C550 1.398 . S
C550 H538 0.950 . S
C550 C549 1.398 . S
C550 C551 1.391 . S
C551 H539 0.950 . S
C551 C547 1.393 . S
C551 C550 1.391 . S
H552 C560 0.950 . S
H553 C565 0.950 . S
H554 C562 0.950 . S
H555 C564 0.950 . S
H556 C566 0.950 . S
H557 C568 0.950 . S
H558 C570 0.950 . S
H559 C571 0.950 . S
C560 H552 0.950 . S
C560 C561 1.386 . S
C560 C562 1.391 . S
C561 C560 1.386 . S
C561 C565 1.393 1_455 S
C562 H554 0.950 . S
C562 C560 1.391 . S
C562 C563 1.400 . S
C563 C562 1.400 . S
C563 C564 1.398 1_455 S
C563 C569 1.491 1_455 S
C564 H555 0.950 . S
C564 C563 1.398 1_655 S
C564 C565 1.391 . S
C565 H553 0.950 . S
C565 C561 1.393 1_655 S
C565 C564 1.391 . S
C566 H556 0.950 . S
C566 C567 1.386 . S
C566 C568 1.391 . S
C567 C566 1.386 . S
C567 C571 1.393 1_655 S
C568 H557 0.950 . S
C568 C566 1.391 . S
C568 C569 1.400 . S
C569 C563 1.491 1_655 S
C569 C568 1.400 . S
C569 C570 1.398 1_655 S
C570 H558 0.950 . S
C570 C569 1.398 1_455 S
C570 C571 1.391 . S
C571 H559 0.950 . S
C571 C567 1.393 1_455 S
C571 C570 1.391 . S
H572 C580 0.950 . S
H573 C585 0.950 . S
H574 C582 0.950 1_655 S
H575 C584 0.950 . S
H576 C586 0.950 . S
H577 C588 0.950 1_455 S
H578 C590 0.950 . S
H579 C591 0.950 . S
C580 H572 0.950 . S
C580 C581 1.386 . S
C580 C582 1.391 . S
C581 C580 1.386 . S
C581 C585 1.393 . S
C582 H574 0.950 1_455 S
C582 C580 1.391 . S
C582 C583 1.400 . S
C583 C582 1.400 . S
C583 C584 1.398 . S
C583 C589 1.491 1_455 S
C584 H575 0.950 . S
C584 C583 1.398 . S
C584 C585 1.391 . S
C585 H573 0.950 . S
C585 C581 1.393 . S
C585 C584 1.391 . S
C586 H576 0.950 . S
C586 C587 1.386 . S
C586 C588 1.391 . S
C587 C586 1.386 . S
C587 C591 1.393 . S
C588 H577 0.950 1_655 S
C588 C586 1.391 . S
C588 C589 1.400 . S
C589 C583 1.491 1_655 S
C589 C588 1.400 . S
C589 C590 1.398 . S
C590 H578 0.950 . S
C590 C589 1.398 . S
C590 C591 1.391 . S
C591 H579 0.950 . S
C591 C587 1.393 . S
C591 C590 1.391 . S
H592 C600 0.950 . S
H593 C605 0.950 . S
H594 C602 0.950 . S
H595 C604 0.950 . S
H596 C606 0.950 . S
H597 C608 0.950 . S
H598 C610 0.950 . S
H599 C611 0.950 . S
C600 H592 0.950 . S
C600 C601 1.386 . S
C600 C602 1.391 . S
C601 C600 1.386 . S
C601 C605 1.393 . S
C602 H594 0.950 . S
C602 C600 1.391 . S
C602 C603 1.400 . S
C603 C602 1.400 . S
C603 C604 1.398 . S
C603 C609 1.491 . S
C604 H595 0.950 . S
C604 C603 1.398 . S
C604 C605 1.391 . S
C605 H593 0.950 . S
C605 C601 1.393 . S
C605 C604 1.391 . S
C606 H596 0.950 . S
C606 C607 1.386 . S
C606 C608 1.391 . S
C607 C606 1.386 . S
C607 C611 1.393 . S
C608 H597 0.950 . S
C608 C606 1.391 . S
C608 C609 1.400 . S
C609 C603 1.491 . S
C609 C608 1.400 . S
C609 C610 1.398 . S
C610 H598 0.950 . S
C610 C609 1.398 . S
C610 C611 1.391 . S
C611 H599 0.950 . S
C611 C607 1.393 . S
C611 C610 1.391 . S
H612 C620 0.950 . S
H613 C625 0.950 . S
H614 C622 0.950 . S
H615 C624 0.950 . S
H616 C626 0.950 . S
H617 C628 0.950 . S
H618 C630 0.950 . S
H619 C631 0.950 . S
C620 H612 0.950 . S
C620 C621 1.386 . S
C620 C622 1.391 . S
C621 C620 1.386 . S
C621 C625 1.393 . S
C622 H614 0.950 . S
C622 C620 1.391 . S
C622 C623 1.400 . S
C623 C622 1.400 . S
C623 C624 1.398 . S
C623 C629 1.491 . S
C624 H615 0.950 . S
C624 C623 1.398 . S
C624 C625 1.391 . S
C625 H613 0.950 . S
C625 C621 1.393 . S
C625 C624 1.391 . S
C626 H616 0.950 . S
C626 C627 1.386 . S
C626 C628 1.391 . S
C627 C626 1.386 . S
C627 C631 1.393 . S
C628 H617 0.950 . S
C628 C626 1.391 . S
C628 C629 1.400 . S
C629 C623 1.491 . S
C629 C628 1.400 . S
C629 C630 1.398 . S
C630 H618 0.950 . S
C630 C629 1.398 . S
C630 C631 1.391 . S
C631 H619 0.950 . S
C631 C627 1.393 . S
C631 C630 1.391 . S
H632 C640 0.950 . S
H633 C645 0.950 . S
H634 C642 0.950 . S
H635 C644 0.950 . S
H636 C646 0.950 . S
H637 C648 0.950 . S
H638 C650 0.950 . S
H639 C651 0.950 . S
C640 H632 0.950 . S
C640 C641 1.386 . S
C640 C642 1.391 . S
C641 C640 1.386 . S
C641 C645 1.393 . S
C642 H634 0.950 . S
C642 C640 1.391 . S
C642 C643 1.400 . S
C643 C642 1.400 . S
C643 C644 1.398 . S
C643 C649 1.491 . S
C644 H635 0.950 . S
C644 C643 1.398 . S
C644 C645 1.391 . S
C645 H633 0.950 . S
C645 C641 1.393 . S
C645 C644 1.391 . S
C646 H636 0.950 . S
C646 C647 1.386 . S
C646 C648 1.391 . S
C647 C646 1.386 . S
C647 C651 1.393 . S
C648 H637 0.950 . S
C648 C646 1.391 . S
C648 C649 1.400 . S
C649 C643 1.491 . S
C649 C648 1.400 . S
C649 C650 1.398 . S
C650 H638 0.950 . S
C650 C649 1.398 . S
C650 C651 1.391 . S
C651 H639 0.950 . S
C651 C647 1.393 . S
C651 C650 1.391 . S
H652 C660 0.950 . S
H653 C665 0.950 . S
H654 C662 0.950 . S
H655 C664 0.950 . S
H656 C666 0.950 . S
H657 C668 0.950 . S
H658 C670 0.950 . S
H659 C671 0.950 . S
C660 H652 0.950 . S
C660 C661 1.386 . S
C660 C662 1.391 . S
C661 C660 1.386 . S
C661 C665 1.393 . S
C662 H654 0.950 . S
C662 C660 1.391 . S
C662 C663 1.400 . S
C663 C662 1.400 . S
C663 C664 1.398 . S
C663 C669 1.491 . S
C664 H655 0.950 . S
C664 C663 1.398 . S
C664 C665 1.391 . S
C665 H653 0.950 . S
C665 C661 1.393 . S
C665 C664 1.391 . S
C666 H656 0.950 . S
C666 C667 1.386 . S
C666 C668 1.391 . S
C667 C666 1.386 . S
C667 C671 1.393 . S
C668 H657 0.950 . S
C668 C666 1.391 . S
C668 C669 1.400 . S
C669 C663 1.491 . S
C669 C668 1.400 . S
C669 C670 1.398 . S
C670 H658 0.950 . S
C670 C669 1.398 . S
C670 C671 1.391 . S
C671 H659 0.950 . S
C671 C667 1.393 . S
C671 C670 1.391 . S
H672 C680 0.950 . S
H673 C685 0.950 . S
H674 C682 0.950 . S
H675 C684 0.950 . S
H676 C686 0.950 . S
H677 C688 0.950 1_655 S
H678 C690 0.950 . S
H679 C691 0.950 . S
C680 H672 0.950 . S
C680 C681 1.386 . S
C680 C682 1.391 . S
C681 C680 1.386 . S
C681 C685 1.393 . S
C682 H674 0.950 . S
C682 C680 1.391 . S
C682 C683 1.400 . S
C683 C682 1.400 . S
C683 C684 1.398 . S
C683 C689 1.491 . S
C684 H675 0.950 . S
C684 C683 1.398 . S
C684 C685 1.391 . S
C685 H673 0.950 . S
C685 C681 1.393 . S
C685 C684 1.391 . S
C686 H676 0.950 . S
C686 C687 1.386 . S
C686 C688 1.391 . S
C687 C686 1.386 . S
C687 C691 1.393 . S
C688 H677 0.950 1_455 S
C688 C686 1.391 . S
C688 C689 1.400 1_455 S
C689 C683 1.491 . S
C689 C688 1.400 1_655 S
C689 C690 1.398 . S
C690 H678 0.950 . S
C690 C689 1.398 . S
C690 C691 1.391 1_655 S
C691 H679 0.950 . S
C691 C687 1.393 . S
C691 C690 1.391 1_455 S
H692 C700 0.950 . S
H693 C705 0.950 . S
H694 C702 0.950 . S
H695 C704 0.950 . S
H696 C706 0.950 . S
H697 C708 0.950 . S
H698 C710 0.950 . S
H699 C711 0.950 . S
C700 H692 0.950 . S
C700 C701 1.386 . S
C700 C702 1.391 . S
C701 C700 1.386 . S
C701 C705 1.393 . S
C702 H694 0.950 . S
C702 C700 1.391 . S
C702 C703 1.400 . S
C703 C702 1.400 . S
C703 C704 1.398 . S
C703 C709 1.491 . S
C704 H695 0.950 . S
C704 C703 1.398 . S
C704 C705 1.391 . S
C705 H693 0.950 . S
C705 C701 1.393 . S
C705 C704 1.391 . S
C706 H696 0.950 . S
C706 C707 1.386 . S
C706 C708 1.391 1_655 S
C707 C706 1.386 . S
C707 C711 1.393 . S
C708 H697 0.950 . S
C708 C706 1.391 1_455 S
C708 C709 1.400 . S
C709 C703 1.491 . S
C709 C708 1.400 . S
C709 C710 1.398 . S
C710 H698 0.950 . S
C710 C709 1.398 . S
C710 C711 1.391 1_455 S
C711 H699 0.950 . S
C711 C707 1.393 . S
C711 C710 1.391 1_655 S
H712 C720 0.950 . S
H713 C725 0.950 . S
H714 C722 0.950 . S
H715 C724 0.950 . S
H716 C726 0.950 . S
H717 C728 0.950 . S
H718 C730 0.950 . S
H719 C731 0.950 . S
C720 H712 0.950 . S
C720 C721 1.386 . S
C720 C722 1.391 . S
C721 C720 1.386 . S
C721 C725 1.393 . S
C722 H714 0.950 . S
C722 C720 1.391 . S
C722 C723 1.400 . S
C723 C722 1.400 . S
C723 C724 1.398 . S
C723 C729 1.491 . S
C724 H715 0.950 . S
C724 C723 1.398 . S
C724 C725 1.391 . S
C725 H713 0.950 . S
C725 C721 1.393 . S
C725 C724 1.391 . S
C726 H716 0.950 . S
C726 C727 1.386 . S
C726 C728 1.391 . S
C727 C726 1.386 . S
C727 C731 1.393 . S
C728 H717 0.950 . S
C728 C726 1.391 . S
C728 C729 1.400 1_655 S
C729 C723 1.491 . S
C729 C728 1.400 1_455 S
C729 C730 1.398 . S
C730 H718 0.950 . S
C730 C729 1.398 . S
C730 C731 1.391 1_455 S
C731 H719 0.950 . S
C731 C727 1.393 . S
C731 C730 1.391 1_655 S
H732 C740 0.950 . S
H733 C745 0.950 . S
H734 C742 0.950 . S
H735 C744 0.950 . S
H736 C746 0.950 . S
H737 C748 0.950 . S
H738 C750 0.950 . S
H739 C751 0.950 . S
C740 H732 0.950 . S
C740 C741 1.386 . S
C740 C742 1.391 . S
C741 C740 1.386 . S
C741 C745 1.393 . S
C742 H734 0.950 . S
C742 C740 1.391 . S
C742 C743 1.400 . S
C743 C742 1.400 . S
C743 C744 1.398 . S
C743 C749 1.491 . S
C744 H735 0.950 . S
C744 C743 1.398 . S
C744 C745 1.391 . S
C745 H733 0.950 . S
C745 C741 1.393 . S
C745 C744 1.391 . S
C746 H736 0.950 . S
C746 C747 1.386 . S
C746 C748 1.391 . S
C747 C746 1.386 . S
C747 C751 1.393 . S
C748 H737 0.950 . S
C748 C746 1.391 . S
C748 C749 1.400 1_455 S
C749 C743 1.491 . S
C749 C748 1.400 1_655 S
C749 C750 1.398 . S
C750 H738 0.950 . S
C750 C749 1.398 . S
C750 C751 1.391 1_655 S
C751 H739 0.950 . S
C751 C747 1.393 . S
C751 C750 1.391 1_455 S
H752 C760 0.950 . S
H753 C765 0.950 . S
H754 C762 0.950 . S
H755 C764 0.950 . S
H756 C766 0.950 . S
H757 C768 0.950 . S
H758 C770 0.950 . S
H759 C771 0.950 . S
C760 H752 0.950 . S
C760 C761 1.386 . S
C760 C762 1.391 . S
C761 C760 1.386 . S
C761 C765 1.393 . S
C762 H754 0.950 . S
C762 C760 1.391 . S
C762 C763 1.400 . S
C763 C762 1.400 . S
C763 C764 1.398 . S
C763 C769 1.491 . S
C764 H755 0.950 . S
C764 C763 1.398 . S
C764 C765 1.391 . S
C765 H753 0.950 . S
C765 C761 1.393 . S
C765 C764 1.391 . S
C766 H756 0.950 . S
C766 C767 1.386 . S
C766 C768 1.391 . S
C767 C766 1.386 . S
C767 C771 1.393 . S
C768 H757 0.950 . S
C768 C766 1.391 . S
C768 C769 1.400 . S
C769 C763 1.491 . S
C769 C768 1.400 . S
C769 C770 1.398 . S
C770 H758 0.950 . S
C770 C769 1.398 . S
C770 C771 1.391 . S
C771 H759 0.950 . S
C771 C767 1.393 . S
C771 C770 1.391 . S
H772 C780 0.950 . S
H773 C785 0.950 . S
H774 C782 0.950 . S
H775 C784 0.950 . S
H776 C786 0.950 . S
H777 C788 0.950 . S
H778 C790 0.950 . S
H779 C791 0.950 . S
C780 H772 0.950 . S
C780 C781 1.386 . S
C780 C782 1.391 . S
C781 C780 1.386 . S
C781 C785 1.393 . S
C782 H774 0.950 . S
C782 C780 1.391 . S
C782 C783 1.400 . S
C783 C782 1.400 . S
C783 C784 1.398 . S
C783 C789 1.491 . S
C784 H775 0.950 . S
C784 C783 1.398 . S
C784 C785 1.391 . S
C785 H773 0.950 . S
C785 C781 1.393 . S
C785 C784 1.391 . S
C786 H776 0.950 . S
C786 C787 1.386 . S
C786 C788 1.391 . S
C787 C786 1.386 . S
C787 C791 1.393 . S
C788 H777 0.950 . S
C788 C786 1.391 . S
C788 C789 1.400 . S
C789 C783 1.491 . S
C789 C788 1.400 . S
C789 C790 1.398 . S
C790 H778 0.950 . S
C790 C789 1.398 . S
C790 C791 1.391 . S
C791 H779 0.950 . S
C791 C787 1.393 . S
C791 C790 1.391 . S
H792 C800 0.950 . S
H793 C805 0.950 . S
H794 C802 0.950 . S
H795 C804 0.950 . S
H796 C806 0.950 . S
H797 C808 0.950 . S
H798 C810 0.950 . S
H799 C811 0.950 . S
C800 H792 0.950 . S
C800 C801 1.386 . S
C800 C802 1.391 . S
C801 C800 1.386 . S
C801 C805 1.393 . S
C802 H794 0.950 . S
C802 C800 1.391 . S
C802 C803 1.400 . S
C803 C802 1.400 . S
C803 C804 1.398 . S
C803 C809 1.491 . S
C804 H795 0.950 . S
C804 C803 1.398 . S
C804 C805 1.391 . S
C805 H793 0.950 . S
C805 C801 1.393 . S
C805 C804 1.391 . S
C806 H796 0.950 . S
C806 C807 1.386 . S
C806 C808 1.391 . S
C807 C806 1.386 . S
C807 C811 1.393 . S
C808 H797 0.950 . S
C808 C806 1.391 . S
C808 C809 1.400 . S
C809 C803 1.491 . S
C809 C808 1.400 . S
C809 C810 1.398 . S
C810 H798 0.950 . S
C810 C809 1.398 . S
C810 C811 1.391 . S
C811 H799 0.950 . S
C811 C807 1.393 . S
C811 C810 1.391 . S
H812 C820 0.950 . S
H813 C825 0.950 . S
H814 C822 0.950 . S
H815 C824 0.950 . S
H816 C826 0.950 . S
H817 C828 0.950 . S
H818 C830 0.950 . S
H819 C831 0.950 . S
C820 H812 0.950 . S
C820 C821 1.386 . S
C820 C822 1.391 . S
C821 C820 1.386 . S
C821 C825 1.393 . S
C822 H814 0.950 . S
C822 C820 1.391 . S
C822 C823 1.400 . S
C823 C822 1.400 . S
C823 C824 1.398 . S
C823 C829 1.491 . S
C824 H815 0.950 . S
C824 C823 1.398 . S
C824 C825 1.391 . S
C825 H813 0.950 . S
C825 C821 1.393 . S
C825 C824 1.391 . S
C826 H816 0.950 . S
C826 C827 1.386 . S
C826 C828 1.391 . S
C827 C826 1.386 . S
C827 C831 1.393 . S
C828 H817 0.950 . S
C828 C826 1.391 . S
C828 C829 1.400 . S
C829 C823 1.491 . S
C829 C828 1.400 . S
C829 C830 1.398 . S
C830 H818 0.950 . S
C830 C829 1.398 . S
C830 C831 1.391 . S
C831 H819 0.950 . S
C831 C827 1.393 . S
C831 C830 1.391 . S
C281 C51 1.737 . S
C287 C17 1.737 . S
C301 C119 1.736 . S
C307 C85 1.736 . S
C321 C153 1.735 . S
C327 C187 1.735 . S
C341 C255 1.730 . S
C347 C221 1.730 . S
C361 C117 1.788 . S
C367 C22 1.817 . S
C381 C90 1.792 . S
C387 C56 1.813 . S
C401 C158 1.791 1_455 S
C407 C260 1.815 1_455 S
C421 C192 1.805 1_655 S
C427 C219 1.800 1_655 S
C441 C37 1.948 . S
C447 C3 1.962 . S
C461 C103 1.940 . S
C467 C71 1.953 . S
C481 C139 1.943 . S
C487 C173 1.959 . S
C501 C205 1.962 . S
C507 C241 1.948 . S
C521 C35 1.461 . S
C527 C1 1.448 . S
C541 C69 1.481 . S
C547 C105 1.474 . S
C561 C171 1.457 . S
C567 C137 1.479 . S
C581 C207 1.451 . S
C587 C239 1.454 . S
C601 C15 1.524 . S
C607 C226 1.524 . S
C621 C49 1.542 . S
C627 C253 1.542 . S
C641 C83 1.518 . S
C647 C151 1.518 . S
C661 C124 1.515 . S
C667 C185 1.515 . S
C681 C6 1.381 . S
C687 C28 1.378 . S
C701 C40 1.373 . S
C707 C62 1.382 . S
C721 C74 1.380 . S
C727 C96 1.381 . S
C741 C130 1.379 . S
C747 C108 1.382 . S
C761 C142 1.379 . S
C767 C164 1.378 . S
C781 C198 1.381 . S
C787 C176 1.380 . S
C801 C210 1.382 . S
C807 C232 1.373 . S
C821 C266 1.382 . S
C827 C244 1.374 . S
