# Generated by pormake.
# Topology sml, (6)-cn, num edge types: 1
# Building blocks:
#     Node 0, Type 0, BuildingBlock: MIFKUJ_clean_sbu_0, # of connection points: 6
#     Node 1, Type 0, BuildingBlock: MIFKUJ_clean_sbu_0, # of connection points: 6
#     Node 2, Type 0, BuildingBlock: MIFKUJ_clean_sbu_0, # of connection points: 6
#     Node 3, Type 0, BuildingBlock: MIFKUJ_clean_sbu_0, # of connection points: 6
#     Node 4, Type 0, BuildingBlock: MIFKUJ_clean_sbu_0, # of connection points: 6
#     Node 5, Type 0, BuildingBlock: MIFKUJ_clean_sbu_0, # of connection points: 6
#     Edge 6, Type (0, 0), BuildingBlock: FUNLAD_clean_linker_0, # of connection points: 2
#     Edge 7, Type (0, 0), BuildingBlock: FUNLAD_clean_linker_0, # of connection points: 2
#     Edge 8, Type (0, 0), BuildingBlock: FUNLAD_clean_linker_0, # of connection points: 2
#     Edge 9, Type (0, 0), BuildingBlock: FUNLAD_clean_linker_0, # of connection points: 2
#     Edge 10, Type (0, 0), BuildingBlock: FUNLAD_clean_linker_0, # of connection points: 2
#     Edge 11, Type (0, 0), BuildingBlock: FUNLAD_clean_linker_0, # of connection points: 2
#     Edge 12, Type (0, 0), BuildingBlock: FUNLAD_clean_linker_0, # of connection points: 2
#     Edge 13, Type (0, 0), BuildingBlock: FUNLAD_clean_linker_0, # of connection points: 2
#     Edge 14, Type (0, 0), BuildingBlock: FUNLAD_clean_linker_0, # of connection points: 2
#     Edge 15, Type (0, 0), BuildingBlock: FUNLAD_clean_linker_0, # of connection points: 2
#     Edge 16, Type (0, 0), BuildingBlock: FUNLAD_clean_linker_0, # of connection points: 2
#     Edge 17, Type (0, 0), BuildingBlock: FUNLAD_clean_linker_0, # of connection points: 2
#     Edge 18, Type (0, 0), BuildingBlock: FUNLAD_clean_linker_0, # of connection points: 2
#     Edge 19, Type (0, 0), BuildingBlock: FUNLAD_clean_linker_0, # of connection points: 2
#     Edge 20, Type (0, 0), BuildingBlock: FUNLAD_clean_linker_0, # of connection points: 2
#     Edge 21, Type (0, 0), BuildingBlock: FUNLAD_clean_linker_0, # of connection points: 2
#     Edge 22, Type (0, 0), BuildingBlock: FUNLAD_clean_linker_0, # of connection points: 2
#     Edge 23, Type (0, 0), BuildingBlock: FUNLAD_clean_linker_0, # of connection points: 2
# Relax obj value: 0.138
# Max RMSD: 0.176
# Mean RMSD: 0.176
data_MOF--net-sml--node1-MIFKUJ_clean_sbu_0--edge1-FUNLAD_clean_linker_0
_symmetry_space_group_name_H-M    P1
_symmetry_Int_Tables_number       1
_symmetry_cell_setting            triclinic
loop_
_symmetry_equiv_pos_as_xyz
'x, y, z'
_cell_length_a     44.457061
_cell_length_b     44.484792
_cell_length_c     20.605894
_cell_angle_alpha  89.922025
_cell_angle_beta   90.107422
_cell_angle_gamma 120.03049
loop_
_atom_site_label
_atom_site_type_symbol
_atom_site_fract_x
_atom_site_fract_y
_atom_site_fract_z
_atom_type_partial_charge
Zn0 Zn 0.22495 0.43283 0.07302 0.0
Zn1 Zn 0.20701 0.41742 0.92972 0.0
C2 C 0.23131 0.49847 0.08573 0.0
O3 O 0.26324 0.50516 0.09609 0.0
C4 C 0.21335 0.35684 0.91791 0.0
O5 O 0.18208 0.34463 0.89332 0.0
O6 O 0.23448 0.43155 0.16808 0.0
O7 O 0.18547 0.38399 0.05518 0.0
O8 O 0.16166 0.39875 0.97762 0.0
C9 C 0.20739 0.42343 0.20144 0.0
O10 O 0.17865 0.4166 0.171 0.0
O11 O 0.20808 0.46767 0.07107 0.0
C12 C 0.22629 0.42215 0.80109 0.0
O13 O 0.2551 0.43037 0.83266 0.0
O14 O 0.19911 0.415 0.83334 0.0
O15 O 0.2436 0.46679 0.94506 0.0
O16 O 0.26969 0.45317 0.02035 0.0
O17 O 0.22837 0.38699 0.94304 0.0
C18 C 0.15841 0.37997 0.02648 0.0
C19 C 0.27145 0.47182 0.97198 0.0
Zn20 Zn 0.79705 0.21776 0.39675 0.0
Zn21 Zn 0.79131 0.20041 0.25247 0.0
C22 C 0.74117 0.22423 0.43448 0.0
O23 O 0.76862 0.25435 0.44821 0.0
C24 C 0.85945 0.2094 0.24081 0.0
O25 O 0.84145 0.17849 0.21439 0.0
O26 O 0.81275 0.22751 0.49014 0.0
O27 O 0.80481 0.17768 0.37351 0.0
O28 O 0.76478 0.15456 0.29839 0.0
C29 C 0.79586 0.20011 0.5241 0.0
O30 O 0.77343 0.17123 0.49485 0.0
O31 O 0.74567 0.20147 0.40577 0.0
C32 C 0.80645 0.22131 0.12416 0.0
O33 O 0.82591 0.25017 0.15639 0.0
O34 O 0.78685 0.19369 0.15574 0.0
O35 O 0.7767 0.23526 0.27054 0.0
O36 O 0.81794 0.26239 0.34293 0.0
O37 O 0.84322 0.22304 0.26687 0.0
C38 C 0.78067 0.15085 0.34612 0.0
C39 C 0.79923 0.26338 0.29698 0.0
Zn40 Zn 0.58246 0.79688 0.74159 0.0
Zn41 Zn 0.58863 0.78609 0.59592 0.0
C42 C 0.5252 0.74057 0.79715 0.0
O43 O 0.52255 0.76742 0.81556 0.0
C44 C 0.6456 0.85393 0.57484 0.0
O45 O 0.6583 0.8352 0.55103 0.0
O46 O 0.5912 0.81641 0.83291 0.0
O47 O 0.63 0.80532 0.71265 0.0
O48 O 0.61207 0.76345 0.64115 0.0
C49 C 0.60569 0.80359 0.86786 0.0
O50 O 0.61505 0.78289 0.84049 0.0
O51 O 0.54976 0.74553 0.75895 0.0
C52 C 0.57421 0.79369 0.46732 0.0
O53 O 0.56042 0.80936 0.49932 0.0
O54 O 0.58774 0.7789 0.49925 0.0
O55 O 0.53957 0.76876 0.62246 0.0
O56 O 0.55398 0.8128 0.68808 0.0
O57 O 0.61621 0.8385 0.60297 0.0
C58 C 0.6328 0.78101 0.68639 0.0
C59 C 0.53239 0.79021 0.64865 0.0
Zn60 Zn 0.78894 0.5775 0.06403 0.0
Zn61 Zn 0.80505 0.58863 0.9168 0.0
C62 C 0.78137 0.51622 0.11564 0.0
O63 O 0.7531 0.51606 0.13471 0.0
C64 C 0.79931 0.64965 0.90671 0.0
O65 O 0.82966 0.66114 0.8787 0.0
O66 O 0.77984 0.5869 0.15562 0.0
O67 O 0.83152 0.62361 0.03878 0.0
O68 O 0.85105 0.60514 0.9601 0.0
C69 C 0.80693 0.59695 0.19037 0.0
O70 O 0.83527 0.60079 0.16285 0.0
O71 O 0.80236 0.54048 0.07823 0.0
C72 C 0.78341 0.58424 0.78887 0.0
O73 O 0.75472 0.57522 0.82136 0.0
O74 O 0.81088 0.5912 0.82005 0.0
O75 O 0.76894 0.53967 0.93505 0.0
O76 O 0.74407 0.55468 0.01041 0.0
O77 O 0.78489 0.61988 0.93349 0.0
C78 C 0.85695 0.62432 0.00937 0.0
C79 C 0.74162 0.53487 0.96361 0.0
Zn80 Zn 0.20593 0.78336 0.41582 0.0
Zn81 Zn 0.21652 0.80073 0.26871 0.0
C82 C 0.26142 0.77788 0.46309 0.0
O83 O 0.23392 0.74825 0.47907 0.0
C84 C 0.15029 0.79513 0.25019 0.0
O85 O 0.17049 0.82739 0.23136 0.0
O86 O 0.18748 0.77281 0.50778 0.0
O87 O 0.19966 0.82395 0.38868 0.0
O88 O 0.24064 0.84656 0.315 0.0
C89 C 0.20126 0.7998 0.54349 0.0
O90 O 0.22304 0.82983 0.51698 0.0
O91 O 0.25705 0.79959 0.43001 0.0
C92 C 0.20987 0.77892 0.1403 0.0
O93 O 0.19203 0.74959 0.17214 0.0
O94 O 0.22527 0.80718 0.17226 0.0
O95 O 0.23095 0.76673 0.29624 0.0
O96 O 0.18629 0.73898 0.36119 0.0
O97 O 0.16416 0.77846 0.27361 0.0
C98 C 0.22423 0.85053 0.36142 0.0
C99 C 0.20742 0.73837 0.32024 0.0
Zn100 Zn 0.42801 0.2097 0.73906 0.0
Zn101 Zn 0.41777 0.21816 0.59342 0.0
C102 C 0.48632 0.26592 0.79251 0.0
O103 O 0.48899 0.23894 0.81003 0.0
C104 C 0.36067 0.14995 0.57741 0.0
O105 O 0.3475 0.16826 0.55333 0.0
O106 O 0.42013 0.19047 0.83056 0.0
O107 O 0.37991 0.20109 0.7129 0.0
O108 O 0.39502 0.24129 0.63847 0.0
C109 C 0.40666 0.20434 0.86529 0.0
O110 O 0.39849 0.22592 0.83761 0.0
O111 O 0.46131 0.26112 0.75549 0.0
C112 C 0.43012 0.20815 0.46543 0.0
O113 O 0.44337 0.19216 0.49823 0.0
O114 O 0.41742 0.22392 0.49655 0.0
O115 O 0.46724 0.23659 0.6177 0.0
O116 O 0.45522 0.19316 0.68333 0.0
O117 O 0.39056 0.16587 0.60374 0.0
C118 C 0.37589 0.22458 0.68605 0.0
C119 C 0.47518 0.21512 0.6413 0.0
C120 C 0.3534 0.26591 0.69816 0.0
C121 C 0.35104 0.23404 0.71388 0.0
C122 C 0.33209 0.2763 0.72897 0.0
C123 C 0.30775 0.25489 0.77585 0.0
C124 C 0.30444 0.22248 0.78966 0.0
C125 C 0.32609 0.21229 0.75955 0.0
C126 C 0.28502 0.26545 0.80974 0.0
C127 C 0.29588 0.29875 0.82541 0.0
C128 C 0.27349 0.31063 0.85664 0.0
C129 C 0.28939 0.34264 0.88925 0.0
C130 C 0.26961 0.35671 0.9129 0.0
C131 C 0.23343 0.33924 0.90364 0.0
H132 H 0.22383 0.26798 0.82409 0.0
C133 C 0.21731 0.30655 0.8733 0.0
C134 C 0.23708 0.29237 0.85 0.0
H135 H 0.1895 0.29247 0.86513 0.0
H136 H 0.37229 0.28324 0.66313 0.0
H137 H 0.33459 0.30101 0.71573 0.0
H138 H 0.2856 0.20533 0.82498 0.0
H139 H 0.32353 0.18751 0.77258 0.0
H140 H 0.25944 0.24506 0.82465 0.0
H141 H 0.32272 0.31835 0.81587 0.0
H142 H 0.31737 0.35732 0.89493 0.0
H143 H 0.28293 0.38202 0.93576 0.0
C144 C 0.09432 0.35742 0.03531 0.0
C145 C 0.1237 0.35523 0.05306 0.0
C146 C 0.06206 0.33557 0.06406 0.0
C147 C 0.05849 0.31088 0.11077 0.0
C148 C 0.08758 0.30796 0.12691 0.0
C149 C 0.11993 0.33014 0.09896 0.0
C150 C 0.02456 0.28716 0.14188 0.0
C151 C 1.00095 0.29682 0.15528 0.0
C152 C 0.96629 0.27325 0.18425 0.0
C153 C 0.9488 0.2878 0.21648 0.0
C154 C 0.91475 0.26682 0.23854 0.0
C155 C 0.89722 0.23076 0.22793 0.0
H156 H 0.9615 0.22477 0.15032 0.0
C157 C 0.91511 0.21601 0.19772 0.0
C158 C 0.94926 0.23698 0.17608 0.0
H159 H 0.9023 0.18835 0.18849 0.0
H160 H 0.09635 0.37643 6e-05 0.0
H161 H 0.03991 0.33784 0.04913 0.0
H162 H 0.08544 0.2889 0.16217 0.0
H163 H 0.14204 0.3277 0.11353 0.0
H164 H 0.0198 0.26174 0.15688 0.0
H165 H 0.0075 0.32347 0.14591 0.0
H166 H 0.96122 0.31565 0.22328 0.0
H167 H 0.9017 0.2791 0.26127 0.0
C168 C 0.73733 0.08731 0.35709 0.0
C169 C 0.76968 0.11604 0.3735 0.0
C170 C 0.72586 0.05512 0.38705 0.0
C171 C 0.74666 0.05096 0.43374 0.0
C172 C 0.77943 0.07937 0.44849 0.0
C173 C 0.79068 0.11165 0.41926 0.0
C174 C 0.73539 0.01711 0.46625 0.0
C175 C 0.70187 0.99429 0.47987 0.0
C176 C 0.68992 0.95979 0.51047 0.0
C177 C 0.65779 0.94325 0.54272 0.0
C178 C 0.64417 0.9095 0.56693 0.0
C179 C 0.66222 0.89134 0.55855 0.0
H180 H 0.73301 0.95348 0.47839 0.0
C181 C 0.69485 0.90824 0.52798 0.0
C182 C 0.70856 0.94205 0.50416 0.0
H183 H 0.70935 0.89493 0.52041 0.0
H184 H 0.72054 0.08982 0.32201 0.0
H185 H 0.70088 0.03349 0.3731 0.0
H186 H 0.79612 0.07676 0.48369 0.0
H187 H 0.81579 0.13324 0.43287 0.0
H188 H 0.75556 0.01179 0.48211 0.0
H189 H 0.68225 1.00141 0.4696 0.0
H190 H 0.6428 0.95621 0.54805 0.0
H191 H 0.61886 0.89719 0.58985 0.0
C192 C 0.65442 0.73894 0.69865 0.0
C193 C 0.65795 0.77146 0.71273 0.0
C194 C 0.67622 0.72864 0.72806 0.0
C195 C 0.70222 0.75079 0.77189 0.0
C196 C 0.70659 0.78378 0.78406 0.0
C197 C 0.68447 0.79389 0.75538 0.0
C198 C 0.72566 0.74046 0.804 0.0
C199 C 0.71501 0.70741 0.82141 0.0
C200 C 0.73811 0.69574 0.85073 0.0
C201 C 0.72299 0.66428 0.8852 0.0
C202 C 0.74323 0.65032 0.90717 0.0
C203 C 0.77908 0.66733 0.89432 0.0
H204 H 0.78689 0.73754 0.81308 0.0
C205 C 0.79448 0.69953 0.86211 0.0
C206 C 0.77426 0.7136 0.8405 0.0
H207 H 0.822 0.71324 0.85116 0.0
H208 H 0.6343 0.72106 0.66596 0.0
H209 H 0.6728 0.70344 0.71603 0.0
H210 H 0.7267 0.80149 0.81697 0.0
H211 H 0.68796 0.81918 0.76709 0.0
H212 H 0.75176 0.76091 0.81605 0.0
H213 H 0.68786 0.68784 0.81478 0.0
H214 H 0.69522 0.64991 0.89366 0.0
H215 H 0.73045 0.62539 0.93152 0.0
C216 C 0.09324 0.74064 0.23173 0.0
C217 C 0.11271 0.7771 0.23457 0.0
C218 C 0.05901 0.72383 0.20865 0.0
C219 C 0.04348 0.74315 0.18836 0.0
C220 C 0.06234 0.77943 0.19451 0.0
C221 C 0.09669 0.79627 0.21671 0.0
C222 C 0.00781 0.72631 0.16053 0.0
C223 C 0.99449 0.69713 0.1245 0.0
C224 C 0.95948 0.68058 0.09359 0.0
C225 C 0.95293 0.65877 0.0398 0.0
C226 C 0.92 0.64144 0.01102 0.0
C227 C 0.89265 0.6452 0.03591 0.0
H228 H 0.93589 0.70065 0.16023 0.0
C229 C 0.89927 0.66736 0.0893 0.0
C230 C 0.93225 0.6848 0.11794 0.0
H231 H 0.87875 0.67071 0.10998 0.0
H232 H 0.1048 0.72511 0.24525 0.0
H233 H 0.04486 0.69574 0.2065 0.0
H234 H 0.05085 0.7949 0.18005 0.0
H235 H 0.11093 0.82437 0.21867 0.0
H236 H 0.99336 0.7399 0.16584 0.0
H237 H 0.01058 0.68568 0.11425 0.0
H238 H 0.97333 0.65489 0.02016 0.0
H239 H 0.91581 0.62445 0.97023 0.0
C240 C 0.31082 0.09496 0.53391 0.0
C241 C 0.34379 0.11228 0.56332 0.0
C242 C 0.29679 0.06079 0.51195 0.0
C243 C 0.31544 0.04309 0.51904 0.0
C244 C 0.3479 0.06005 0.55028 0.0
C245 C 0.36185 0.09417 0.57259 0.0
C246 C 0.30321 0.00818 0.4901 0.0
C247 C 0.26964 0.98534 0.47662 0.0
C248 C 0.25824 0.9512 0.44528 0.0
C249 C 0.22533 0.92302 0.45999 0.0
C250 C 0.21402 0.89048 0.4319 0.0
C251 C 0.23514 0.88559 0.38738 0.0
H252 H 0.30417 0.96799 0.38564 0.0
C253 C 0.2676 0.91411 0.3709 0.0
C254 C 0.2791 0.94656 0.39966 0.0
H255 H 0.28448 0.91125 0.33672 0.0
H256 H 0.29628 0.1082 0.52573 0.0
H257 H 0.27208 0.04905 0.48691 0.0
H258 H 0.36291 0.04713 0.5562 0.0
H259 H 0.3874 0.10679 0.59469 0.0
H260 H 0.32271 1.00082 0.48075 0.0
H261 H 0.24954 0.99093 0.49156 0.0
H262 H 0.20858 0.926 0.49433 0.0
H263 H 0.18882 0.86907 0.44551 0.0
C264 C 0.19552 0.41194 0.69431 0.0
C265 C 0.22592 0.42083 0.72949 0.0
C266 C 0.1956 0.41076 0.62652 0.0
C267 C 0.22622 0.41869 0.59265 0.0
C268 C 0.25634 0.42698 0.62802 0.0
C269 C 0.25629 0.42821 0.69563 0.0
C270 C 0.22771 0.41795 0.52075 0.0
C271 C 0.20631 0.42305 0.48192 0.0
C272 C 0.20764 0.42256 0.41002 0.0
C273 C 0.17759 0.41521 0.3753 0.0
C274 C 0.17757 0.41509 0.3077 0.0
C275 C 0.20779 0.42271 0.27307 0.0
H276 H 0.26205 0.43713 0.4004 0.0
C277 C 0.23804 0.43028 0.30759 0.0
C278 C 0.23803 0.43028 0.3755 0.0
H279 H 0.26179 0.43656 0.28221 0.0
H280 H 0.17163 0.40573 0.71908 0.0
H281 H 0.17148 0.40305 0.60121 0.0
H282 H 0.28017 0.43288 0.60325 0.0
H283 H 0.28014 0.43497 0.72128 0.0
H284 H 0.24768 0.4138 0.49962 0.0
H285 H 0.18646 0.42734 0.5032 0.0
H286 H 0.15393 0.40941 0.40058 0.0
H287 H 0.15381 0.40926 0.28267 0.0
C288 C 0.79101 0.19013 0.01743 0.0
C289 C 0.80869 0.2212 0.05268 0.0
C290 C 0.79403 0.19028 0.94991 0.0
C291 C 0.81455 0.22166 0.9162 0.0
C292 C 0.83246 0.25258 0.95172 0.0
C293 C 0.8295 0.25242 0.01912 0.0
C294 C 0.81853 0.22328 0.84447 0.0
C295 C 0.79505 0.19901 0.80435 0.0
C296 C 0.79821 0.20046 0.73257 0.0
C297 C 0.7794 0.1694 0.6979 0.0
C298 C 0.77968 0.16937 0.63034 0.0
C299 C 0.79856 0.20055 0.59558 0.0
H300 H 0.83189 0.25639 0.72273 0.0
C301 C 0.81794 0.23172 0.62999 0.0
C302 C 0.81773 0.23173 0.69795 0.0
H303 H 0.8325 0.25617 0.6045 0.0
H304 H 0.77517 0.16561 0.04201 0.0
H305 H 0.78076 0.16564 0.92486 0.0
H306 H 0.84864 0.27706 0.92719 0.0
H307 H 0.84362 0.27684 0.04487 0.0
H308 H 0.84127 0.24569 0.82448 0.0
H309 H 0.77222 0.17672 0.8244 0.0
H310 H 0.7641 0.14498 0.72321 0.0
H311 H 0.76448 0.14484 0.60541 0.0
C312 C 0.5977 0.78665 0.36137 0.0
C313 C 0.57666 0.79634 0.39576 0.0
C314 C 0.60193 0.79173 0.29424 0.0
C315 C 0.58479 0.80628 0.25985 0.0
C316 C 0.56355 0.81563 0.29447 0.0
C317 C 0.55949 0.81072 0.36151 0.0
C318 C 0.58881 0.81301 0.18859 0.0
C319 C 0.60151 0.79845 0.14774 0.0
C320 C 0.60467 0.80411 0.07626 0.0
C321 C 0.62596 0.79468 0.04213 0.0
C322 C 0.62752 0.79626 0.97458 0.0
C323 C 0.6077 0.80725 0.93925 0.0
H324 H 0.56838 0.82325 0.06494 0.0
C325 C 0.58736 0.81804 0.9731 0.0
C326 C 0.58569 0.81635 0.04101 0.0
H327 H 0.57151 0.82626 0.9471 0.0
H328 H 0.61165 0.77594 0.38651 0.0
H329 H 0.61935 0.78497 0.27043 0.0
H330 H 0.55009 0.82696 0.26961 0.0
H331 H 0.54314 0.81857 0.38656 0.0
H332 H 0.58045 0.83038 0.16947 0.0
H333 H 0.60987 0.78109 0.16673 0.0
H334 H 0.6409 0.78523 0.06775 0.0
H335 H 0.64356 0.78787 0.94996 0.0
C336 C 0.81505 0.60244 0.68294 0.0
C337 C 0.78371 0.58768 0.71759 0.0
C338 C 0.8152 0.60645 0.61568 0.0
C339 C 0.78386 0.59528 0.58152 0.0
C340 C 0.75265 0.58095 0.61647 0.0
C341 C 0.75252 0.57711 0.68371 0.0
C342 C 0.78255 0.59839 0.50987 0.0
C343 C 0.80754 0.60061 0.47004 0.0
C344 C 0.80623 0.60227 0.39823 0.0
C345 C 0.83749 0.61506 0.36401 0.0
C346 C 0.83763 0.61454 0.29647 0.0
C347 C 0.80641 0.60095 0.26136 0.0
H348 H 0.75015 0.57872 0.38759 0.0
C349 C 0.77508 0.58904 0.29523 0.0
C350 C 0.77493 0.58956 0.36316 0.0
H351 H 0.75059 0.57816 0.26942 0.0
H352 H 0.83955 0.61136 0.70784 0.0
H353 H 0.84003 0.61886 0.59125 0.0
H354 H 0.72818 0.57239 0.5916 0.0
H355 H 0.72792 0.56579 0.70907 0.0
H356 H 0.75971 0.5978 0.48965 0.0
H357 H 0.83024 0.60095 0.49033 0.0
H358 H 0.86195 0.62497 0.38967 0.0
H359 H 0.86228 0.62409 0.27185 0.0
C360 C 0.18352 0.76613 0.64796 0.0
C361 C 0.19629 0.79774 0.61459 0.0
C362 C 0.18295 0.76543 0.71594 0.0
C363 C 0.19508 0.79641 0.75163 0.0
C364 C 0.20611 0.82761 0.71797 0.0
C365 C 0.20696 0.82834 0.65031 0.0
C366 C 0.19696 0.79757 0.82369 0.0
C367 C 0.20067 0.77439 0.8599 0.0
C368 C 0.20424 0.77671 0.93172 0.0
C369 C 0.19341 0.7461 0.96729 0.0
C370 C 0.1958 0.747 0.0349 0.0
C371 C 0.2096 0.77868 0.06851 0.0
H372 H 0.22874 0.83291 0.93933 0.0
C373 C 0.22157 0.80953 0.03292 0.0
C374 C 0.21893 0.80859 0.96516 0.0
H375 H 0.23252 0.83435 0.0574 0.0
H376 H 0.17497 0.74211 0.62168 0.0
H377 H 0.1731 0.74066 0.74009 0.0
H378 H 0.21513 0.85175 0.74413 0.0
H379 H 0.21665 0.8531 0.62601 0.0
H380 H 0.19677 0.81929 0.84726 0.0
H381 H 0.20073 0.75255 0.83664 0.0
H382 H 0.18247 0.72128 0.94277 0.0
H383 H 0.18657 0.72276 0.06083 0.0
C384 C 0.40803 0.21623 0.35855 0.0
C385 C 0.42782 0.20526 0.39392 0.0
C386 C 0.40433 0.21147 0.29132 0.0
C387 C 0.42078 0.19598 0.25789 0.0
C388 C 0.44056 0.18512 0.29352 0.0
C389 C 0.4441 0.18973 0.36066 0.0
C390 C 0.41749 0.18994 0.18649 0.0
C391 C 0.40777 0.207 0.14518 0.0
C392 C 0.40531 0.20211 0.0736 0.0
C393 C 0.38603 0.2138 0.03871 0.0
C394 C 0.38526 0.21287 0.97115 0.0
C395 C 0.40393 0.20035 0.93657 0.0
H396 H 0.43891 0.17975 0.06385 0.0
C397 C 0.42229 0.18741 0.97114 0.0
C398 C 0.42312 0.18839 0.03912 0.0
H399 H 0.43721 0.17794 0.94572 0.0
H400 H 0.39475 0.22783 0.38293 0.0
H401 H 0.38788 0.21926 0.26655 0.0
H402 H 0.45338 0.17297 0.26934 0.0
H403 H 0.45946 0.18085 0.38651 0.0
H404 H 0.42398 0.17113 0.1677 0.0
H405 H 0.40142 0.22591 0.16394 0.0
H406 H 0.37203 0.22444 0.06378 0.0
H407 H 0.3707 0.2229 0.94598 0.0
C408 C 0.19146 0.51893 0.12666 0.0
C409 C 0.2228 0.52611 0.09692 0.0
C410 C 0.1862 0.54617 0.14611 0.0
C411 C 0.21199 0.5809 0.1348 0.0
C412 C 0.24233 0.58772 0.10173 0.0
C413 C 0.24792 0.56068 0.08387 0.0
C414 C 0.2091 0.61098 0.15766 0.0
C415 C 0.19335 0.61126 0.21342 0.0
C416 C 0.19701 0.64385 0.24132 0.0
C417 C 0.17142 0.64244 0.28333 0.0
C418 C 0.17476 0.67295 0.31034 0.0
C419 C 0.20395 0.70538 0.29614 0.0
H420 H 0.24788 0.67854 0.19982 0.0
C421 C 0.22996 0.70652 0.25578 0.0
C422 C 0.22668 0.67627 0.22912 0.0
H423 H 0.25309 0.73094 0.2445 0.0
H424 H 0.17177 0.49242 0.13751 0.0
H425 H 0.16218 0.54004 0.17024 0.0
H426 H 0.26248 0.6142 0.09196 0.0
H427 H 0.27225 0.56688 0.06083 0.0
H428 H 0.22336 0.63481 0.12996 0.0
H429 H 0.17854 0.5874 0.24084 0.0
H430 H 0.14861 0.61776 0.29459 0.0
H431 H 0.15432 0.67118 0.34143 0.0
C432 C 0.70355 0.24268 0.49077 0.0
C433 C 0.70654 0.21675 0.45752 0.0
C434 C 0.67175 0.23606 0.51588 0.0
C435 C 0.64176 0.2034 0.50768 0.0
C436 C 0.64469 0.1772 0.47522 0.0
C437 C 0.67677 0.18384 0.45004 0.0
C438 C 0.60755 0.19634 0.53361 0.0
C439 C 0.59943 0.22169 0.5378 0.0
C440 C 0.56648 0.21756 0.56414 0.0
C441 C 0.55786 0.24287 0.54745 0.0
C442 C 0.52841 0.24183 0.57289 0.0
C443 C 0.50666 0.21552 0.61642 0.0
H444 H 0.55104 0.17142 0.62271 0.0
C445 C 0.51512 0.19001 0.6336 0.0
C446 C 0.54482 0.19098 0.60762 0.0
H447 H 0.49886 0.1694 0.66697 0.0
H448 H 0.72597 0.26819 0.49835 0.0
H449 H 0.67101 0.25657 0.54275 0.0
H450 H 0.62209 0.15168 0.46887 0.0
H451 H 0.67832 0.16318 0.42532 0.0
H452 H 0.58854 0.16986 0.54673 0.0
H453 H 0.61761 0.24717 0.51839 0.0
H454 H 0.5741 0.26376 0.51446 0.0
H455 H 0.52283 0.26195 0.55831 0.0
C456 C 0.33609 0.51173 0.98199 0.0
C457 C 0.30526 0.49897 0.9458 0.0
C458 C 0.36755 0.53834 0.95699 0.0
C459 C 0.36872 0.55233 0.89504 0.0
C460 C 0.33815 0.53861 0.85818 0.0
C461 C 0.30675 0.51256 0.88346 0.0
C462 C 0.40089 0.58191 0.86786 0.0
C463 C 0.42456 0.60782 0.90509 0.0
C464 C 0.45226 0.64105 0.87743 0.0
C465 C 0.46145 0.67181 0.91114 0.0
C466 C 0.48528 0.70392 0.8848 0.0
C467 C 0.50116 0.70604 0.82476 0.0
H468 H 0.46271 0.61958 0.79147 0.0
C469 C 0.49327 0.67524 0.79211 0.0
C470 C 0.46874 0.64294 0.81797 0.0
H471 H 0.50535 0.67617 0.74598 0.0
H472 H 0.33579 0.50161 0.02996 0.0
H473 H 0.39084 0.54784 0.98613 0.0
H474 H 0.33834 0.54878 0.81026 0.0
H475 H 0.28356 0.50313 0.85397 0.0
H476 H 0.40272 0.5847 0.81538 0.0
H477 H 0.42078 0.60668 0.95732 0.0
H478 H 0.44934 0.67108 0.95716 0.0
H479 H 0.49123 0.7272 0.91161 0.0
C480 C 0.8214 0.32759 0.30693 0.0
C481 C 0.80453 0.29671 0.27074 0.0
C482 C 0.82505 0.35853 0.28155 0.0
C483 C 0.81239 0.35914 0.2191 0.0
C484 C 0.79667 0.32855 0.18237 0.0
C485 C 0.79234 0.29763 0.20813 0.0
C486 C 0.81423 0.39079 0.19105 0.0
C487 C 0.80965 0.41336 0.22709 0.0
C488 C 0.80414 0.44077 0.19784 0.0
C489 C 0.78091 0.44886 0.22821 0.0
C490 C 0.77345 0.47309 0.20084 0.0
C491 C 0.78969 0.49048 0.14311 0.0
H492 H 0.83943 0.45322 0.11649 0.0
C493 C 0.81386 0.48329 0.11354 0.0
C494 C 0.82084 0.45841 0.14039 0.0
H495 H 0.82698 0.49653 0.06934 0.0
H496 H 0.83119 0.3277 0.35515 0.0
H497 H 0.83789 0.38191 0.31061 0.0
H498 H 0.78681 0.32833 0.13412 0.0
H499 H 0.77943 0.27439 0.17867 0.0
H500 H 0.81482 0.39304 0.13848 0.0
H501 H 0.80541 0.40894 0.27901 0.0
H502 H 0.76785 0.43581 0.27261 0.0
H503 H 0.75507 0.47839 0.22541 0.0
C504 C 0.29873 0.76278 0.53004 0.0
C505 C 0.29613 0.78584 0.48683 0.0
C506 C 0.33093 0.76957 0.55363 0.0
C507 C 0.36164 0.79943 0.5339 0.0
C508 C 0.35908 0.82305 0.49203 0.0
C509 C 0.32662 0.8163 0.46851 0.0
C510 C 0.39636 0.80619 0.55647 0.0
C511 C 0.40238 0.78003 0.57045 0.0
C512 C 0.43642 0.78447 0.59107 0.0
C513 C 0.44226 0.75669 0.58053 0.0
C514 C 0.47326 0.75875 0.59983 0.0
C515 C 0.49924 0.78854 0.63118 0.0
H516 H 0.45824 0.83598 0.63318 0.0
C517 C 0.49335 0.8163 0.64304 0.0
C518 C 0.4622 0.81437 0.6229 0.0
H519 H 0.51289 0.83959 0.66712 0.0
H520 H 0.27578 0.73939 0.54627 0.0
H521 H 0.33152 0.75142 0.5879 0.0
H522 H 0.38227 0.84646 0.47665 0.0
H523 H 0.32545 0.83476 0.43581 0.0
H524 H 0.4176 0.83287 0.55773 0.0
H525 H 0.38168 0.75347 0.56269 0.0
H526 H 0.42279 0.73322 0.55671 0.0
H527 H 0.47677 0.73676 0.59018 0.0
C528 C 0.67711 0.49471 0.97635 0.0
C529 C 0.70743 0.50764 0.93873 0.0
C530 C 0.64533 0.46802 0.95234 0.0
C531 C 0.64333 0.45423 0.8899 0.0
C532 C 0.67338 0.46813 0.85171 0.0
C533 C 0.70509 0.49415 0.87603 0.0
C534 C 0.61084 0.4247 0.86342 0.0
C535 C 0.5879 0.39838 0.90078 0.0
C536 C 0.56003 0.3652 0.8731 0.0
C537 C 0.55163 0.33426 0.9055 0.0
C538 C 0.52762 0.30225 0.87902 0.0
C539 C 0.51074 0.30038 0.82016 0.0
H540 H 0.54801 0.38703 0.78936 0.0
C541 C 0.51789 0.33133 0.78886 0.0
C542 C 0.5426 0.36354 0.81483 0.0
H543 H 0.50505 0.33061 0.74369 0.0
H544 H 0.67806 0.50473 0.02465 0.0
H545 H 0.62243 0.45832 0.98254 0.0
H546 H 0.67256 0.45811 0.80342 0.0
H547 H 0.72785 0.50369 0.84542 0.0
H548 H 0.60824 0.42231 0.81095 0.0
H549 H 0.59248 0.39917 0.95274 0.0
H550 H 0.56448 0.33479 0.95059 0.0
H551 H 0.52228 0.27886 0.90485 0.0
loop_
_geom_bond_atom_site_label_1
_geom_bond_atom_site_label_2
_geom_bond_distance
_geom_bond_site_symmetry_2
_ccdc_geom_bond_type
Zn0 O6 1.969 . S
Zn0 O7 1.965 . S
Zn0 O11 2.024 . S
Zn0 O16 1.969 . S
Zn1 O8 1.969 . S
Zn1 O14 1.969 . S
Zn1 O15 1.965 . S
Zn1 O17 2.024 . S
C2 O3 1.229 . S
C2 O11 1.058 . S
O3 C2 1.229 . S
C4 O5 1.229 . S
C4 O17 1.058 . S
O5 C4 1.229 . S
O6 Zn0 1.969 . S
O6 C9 1.267 . S
O7 Zn0 1.965 . S
O7 C18 1.260 . S
O8 Zn1 1.969 . S
O8 C18 1.258 1_556 S
C9 O6 1.267 . S
C9 O10 1.228 . S
O10 C9 1.228 . S
O11 Zn0 2.024 . S
O11 C2 1.058 . S
C12 O13 1.228 . S
C12 O14 1.267 . S
O13 C12 1.228 . S
O14 Zn1 1.969 . S
O14 C12 1.267 . S
O15 Zn1 1.965 . S
O15 C19 1.260 . S
O16 Zn0 1.969 . S
O16 C19 1.258 1_554 S
O17 Zn1 2.024 . S
O17 C4 1.058 . S
C18 O7 1.260 . S
C18 O8 1.258 1_554 S
C19 O15 1.260 . S
C19 O16 1.258 1_556 S
Zn20 O26 1.969 . S
Zn20 O27 1.965 . S
Zn20 O31 2.024 . S
Zn20 O36 1.969 . S
Zn21 O28 1.969 . S
Zn21 O34 1.969 . S
Zn21 O35 1.965 . S
Zn21 O37 2.024 . S
C22 O23 1.229 . S
C22 O31 1.058 . S
O23 C22 1.229 . S
C24 O25 1.229 . S
C24 O37 1.058 . S
O25 C24 1.229 . S
O26 Zn20 1.969 . S
O26 C29 1.267 . S
O27 Zn20 1.965 . S
O27 C38 1.260 . S
O28 Zn21 1.969 . S
O28 C38 1.258 . S
C29 O26 1.267 . S
C29 O30 1.228 . S
O30 C29 1.228 . S
O31 Zn20 2.024 . S
O31 C22 1.058 . S
C32 O33 1.228 . S
C32 O34 1.267 . S
O33 C32 1.228 . S
O34 Zn21 1.969 . S
O34 C32 1.267 . S
O35 Zn21 1.965 . S
O35 C39 1.260 . S
O36 Zn20 1.969 . S
O36 C39 1.258 . S
O37 Zn21 2.024 . S
O37 C24 1.058 . S
C38 O27 1.260 . S
C38 O28 1.258 . S
C39 O35 1.260 . S
C39 O36 1.258 . S
Zn40 O46 1.969 . S
Zn40 O47 1.965 . S
Zn40 O51 2.024 . S
Zn40 O56 1.969 . S
Zn41 O48 1.969 . S
Zn41 O54 1.969 . S
Zn41 O55 1.965 . S
Zn41 O57 2.024 . S
C42 O43 1.229 . S
C42 O51 1.058 . S
O43 C42 1.229 . S
C44 O45 1.229 . S
C44 O57 1.058 . S
O45 C44 1.229 . S
O46 Zn40 1.969 . S
O46 C49 1.267 . S
O47 Zn40 1.965 . S
O47 C58 1.260 . S
O48 Zn41 1.969 . S
O48 C58 1.258 . S
C49 O46 1.267 . S
C49 O50 1.228 . S
O50 C49 1.228 . S
O51 Zn40 2.024 . S
O51 C42 1.058 . S
C52 O53 1.228 . S
C52 O54 1.267 . S
O53 C52 1.228 . S
O54 Zn41 1.969 . S
O54 C52 1.267 . S
O55 Zn41 1.965 . S
O55 C59 1.260 . S
O56 Zn40 1.969 . S
O56 C59 1.258 . S
O57 Zn41 2.024 . S
O57 C44 1.058 . S
C58 O47 1.260 . S
C58 O48 1.258 . S
C59 O55 1.260 . S
C59 O56 1.258 . S
Zn60 O66 1.969 . S
Zn60 O67 1.965 . S
Zn60 O71 2.024 . S
Zn60 O76 1.969 . S
Zn61 O68 1.969 . S
Zn61 O74 1.969 . S
Zn61 O75 1.965 . S
Zn61 O77 2.024 . S
C62 O63 1.229 . S
C62 O71 1.058 . S
O63 C62 1.229 . S
C64 O65 1.229 . S
C64 O77 1.058 . S
O65 C64 1.229 . S
O66 Zn60 1.969 . S
O66 C69 1.267 . S
O67 Zn60 1.965 . S
O67 C78 1.260 . S
O68 Zn61 1.969 . S
O68 C78 1.258 1_556 S
C69 O66 1.267 . S
C69 O70 1.228 . S
O70 C69 1.228 . S
O71 Zn60 2.024 . S
O71 C62 1.058 . S
C72 O73 1.228 . S
C72 O74 1.267 . S
O73 C72 1.228 . S
O74 Zn61 1.969 . S
O74 C72 1.267 . S
O75 Zn61 1.965 . S
O75 C79 1.260 . S
O76 Zn60 1.969 . S
O76 C79 1.258 1_554 S
O77 Zn61 2.024 . S
O77 C64 1.058 . S
C78 O67 1.260 . S
C78 O68 1.258 1_554 S
C79 O75 1.260 . S
C79 O76 1.258 1_556 S
Zn80 O86 1.969 . S
Zn80 O87 1.965 . S
Zn80 O91 2.024 . S
Zn80 O96 1.969 . S
Zn81 O88 1.969 . S
Zn81 O94 1.969 . S
Zn81 O95 1.965 . S
Zn81 O97 2.024 . S
C82 O83 1.229 . S
C82 O91 1.058 . S
O83 C82 1.229 . S
C84 O85 1.229 . S
C84 O97 1.058 . S
O85 C84 1.229 . S
O86 Zn80 1.969 . S
O86 C89 1.267 . S
O87 Zn80 1.965 . S
O87 C98 1.260 . S
O88 Zn81 1.969 . S
O88 C98 1.258 . S
C89 O86 1.267 . S
C89 O90 1.228 . S
O90 C89 1.228 . S
O91 Zn80 2.024 . S
O91 C82 1.058 . S
C92 O93 1.228 . S
C92 O94 1.267 . S
O93 C92 1.228 . S
O94 Zn81 1.969 . S
O94 C92 1.267 . S
O95 Zn81 1.965 . S
O95 C99 1.260 . S
O96 Zn80 1.969 . S
O96 C99 1.258 . S
O97 Zn81 2.024 . S
O97 C84 1.058 . S
C98 O87 1.260 . S
C98 O88 1.258 . S
C99 O95 1.260 . S
C99 O96 1.258 . S
Zn100 O106 1.969 . S
Zn100 O107 1.965 . S
Zn100 O111 2.024 . S
Zn100 O116 1.969 . S
Zn101 O108 1.969 . S
Zn101 O114 1.969 . S
Zn101 O115 1.965 . S
Zn101 O117 2.024 . S
C102 O103 1.229 . S
C102 O111 1.058 . S
O103 C102 1.229 . S
C104 O105 1.229 . S
C104 O117 1.058 . S
O105 C104 1.229 . S
O106 Zn100 1.969 . S
O106 C109 1.267 . S
O107 Zn100 1.965 . S
O107 C118 1.260 . S
O108 Zn101 1.969 . S
O108 C118 1.258 . S
C109 O106 1.267 . S
C109 O110 1.228 . S
O110 C109 1.228 . S
O111 Zn100 2.024 . S
O111 C102 1.058 . S
C112 O113 1.228 . S
C112 O114 1.267 . S
O113 C112 1.228 . S
O114 Zn101 1.969 . S
O114 C112 1.267 . S
O115 Zn101 1.965 . S
O115 C119 1.260 . S
O116 Zn100 1.969 . S
O116 C119 1.258 . S
O117 Zn101 2.024 . S
O117 C104 1.058 . S
C118 O107 1.260 . S
C118 O108 1.258 . S
C119 O115 1.260 . S
C119 O116 1.258 . S
C120 C121 1.386 . S
C120 C122 1.383 . S
C120 H136 0.951 . S
C121 C120 1.386 . S
C121 C125 1.383 . S
C122 C120 1.383 . S
C122 C123 1.402 . S
C122 H137 0.951 . S
C123 C122 1.402 . S
C123 C124 1.375 . S
C123 C126 1.481 . S
C124 C123 1.375 . S
C124 C125 1.367 . S
C124 H138 0.951 . S
C125 C121 1.383 . S
C125 C124 1.367 . S
C125 H139 0.950 . S
C126 C123 1.481 . S
C126 C127 1.297 . S
C126 H140 0.950 . S
C127 C126 1.297 . S
C127 C128 1.479 . S
C127 H141 0.950 . S
C128 C127 1.479 . S
C128 C129 1.375 . S
C128 C134 1.404 . S
C129 C128 1.375 . S
C129 C130 1.369 . S
C129 H142 0.950 . S
C130 C129 1.369 . S
C130 C131 1.392 . S
C130 H143 0.951 . S
C131 C130 1.392 . S
C131 C133 1.384 . S
H132 C134 0.949 . S
C133 C131 1.384 . S
C133 C134 1.385 . S
C133 H135 0.950 . S
C134 C128 1.404 . S
C134 H132 0.949 . S
C134 C133 1.385 . S
H135 C133 0.950 . S
H136 C120 0.951 . S
H137 C122 0.951 . S
H138 C124 0.951 . S
H139 C125 0.950 . S
H140 C126 0.950 . S
H141 C127 0.950 . S
H142 C129 0.950 . S
H143 C130 0.951 . S
C144 C145 1.386 . S
C144 C146 1.383 . S
C144 H160 0.951 . S
C145 C144 1.386 . S
C145 C149 1.383 . S
C146 C144 1.383 . S
C146 C147 1.402 . S
C146 H161 0.951 . S
C147 C146 1.402 . S
C147 C148 1.375 . S
C147 C150 1.481 . S
C148 C147 1.375 . S
C148 C149 1.367 . S
C148 H162 0.951 . S
C149 C145 1.383 . S
C149 C148 1.367 . S
C149 H163 0.950 . S
C150 C147 1.481 . S
C150 C151 1.297 . S
C150 H164 0.950 . S
C151 C150 1.297 . S
C151 C152 1.479 1_455 S
C151 H165 0.950 . S
C152 C151 1.479 1_655 S
C152 C153 1.375 . S
C152 C158 1.404 . S
C153 C152 1.375 . S
C153 C154 1.369 . S
C153 H166 0.950 . S
C154 C153 1.369 . S
C154 C155 1.392 . S
C154 H167 0.951 . S
C155 C154 1.392 . S
C155 C157 1.384 . S
H156 C158 0.949 . S
C157 C155 1.384 . S
C157 C158 1.385 . S
C157 H159 0.950 . S
C158 C152 1.404 . S
C158 H156 0.949 . S
C158 C157 1.385 . S
H159 C157 0.950 . S
H160 C144 0.951 . S
H161 C146 0.951 . S
H162 C148 0.951 . S
H163 C149 0.950 . S
H164 C150 0.950 . S
H165 C151 0.950 . S
H166 C153 0.950 . S
H167 C154 0.951 . S
C168 C169 1.386 . S
C168 C170 1.383 . S
C168 H184 0.951 . S
C169 C168 1.386 . S
C169 C173 1.383 . S
C170 C168 1.383 . S
C170 C171 1.402 . S
C170 H185 0.951 . S
C171 C170 1.402 . S
C171 C172 1.375 . S
C171 C174 1.481 . S
C172 C171 1.375 . S
C172 C173 1.367 . S
C172 H186 0.951 . S
C173 C169 1.383 . S
C173 C172 1.367 . S
C173 H187 0.950 . S
C174 C171 1.481 . S
C174 C175 1.297 . S
C174 H188 0.950 . S
C175 C174 1.297 . S
C175 C176 1.479 1_545 S
C175 H189 0.950 . S
C176 C175 1.479 1_565 S
C176 C177 1.375 . S
C176 C182 1.404 . S
C177 C176 1.375 . S
C177 C178 1.369 . S
C177 H190 0.950 . S
C178 C177 1.369 . S
C178 C179 1.392 . S
C178 H191 0.951 . S
C179 C178 1.392 . S
C179 C181 1.384 . S
H180 C182 0.949 . S
C181 C179 1.384 . S
C181 C182 1.385 . S
C181 H183 0.950 . S
C182 C176 1.404 . S
C182 H180 0.949 . S
C182 C181 1.385 . S
H183 C181 0.950 . S
H184 C168 0.951 . S
H185 C170 0.951 . S
H186 C172 0.951 . S
H187 C173 0.950 . S
H188 C174 0.950 . S
H189 C175 0.950 . S
H190 C177 0.950 . S
H191 C178 0.951 . S
C192 C193 1.386 . S
C192 C194 1.383 . S
C192 H208 0.951 . S
C193 C192 1.386 . S
C193 C197 1.383 . S
C194 C192 1.383 . S
C194 C195 1.402 . S
C194 H209 0.951 . S
C195 C194 1.402 . S
C195 C196 1.375 . S
C195 C198 1.481 . S
C196 C195 1.375 . S
C196 C197 1.367 . S
C196 H210 0.951 . S
C197 C193 1.383 . S
C197 C196 1.367 . S
C197 H211 0.950 . S
C198 C195 1.481 . S
C198 C199 1.297 . S
C198 H212 0.950 . S
C199 C198 1.297 . S
C199 C200 1.479 . S
C199 H213 0.950 . S
C200 C199 1.479 . S
C200 C201 1.375 . S
C200 C206 1.404 . S
C201 C200 1.375 . S
C201 C202 1.369 . S
C201 H214 0.950 . S
C202 C201 1.369 . S
C202 C203 1.392 . S
C202 H215 0.951 . S
C203 C202 1.392 . S
C203 C205 1.384 . S
H204 C206 0.949 . S
C205 C203 1.384 . S
C205 C206 1.385 . S
C205 H207 0.950 . S
C206 C200 1.404 . S
C206 H204 0.949 . S
C206 C205 1.385 . S
H207 C205 0.950 . S
H208 C192 0.951 . S
H209 C194 0.951 . S
H210 C196 0.951 . S
H211 C197 0.950 . S
H212 C198 0.950 . S
H213 C199 0.950 . S
H214 C201 0.950 . S
H215 C202 0.951 . S
C216 C217 1.386 . S
C216 C218 1.383 . S
C216 H232 0.951 . S
C217 C216 1.386 . S
C217 C221 1.383 . S
C218 C216 1.383 . S
C218 C219 1.402 . S
C218 H233 0.951 . S
C219 C218 1.402 . S
C219 C220 1.375 . S
C219 C222 1.481 1_455 S
C220 C219 1.375 . S
C220 C221 1.367 . S
C220 H234 0.951 . S
C221 C217 1.383 . S
C221 C220 1.367 . S
C221 H235 0.950 . S
C222 C219 1.481 1_655 S
C222 C223 1.297 . S
C222 H236 0.950 . S
C223 C222 1.297 . S
C223 C224 1.479 . S
C223 H237 0.950 . S
C224 C223 1.479 . S
C224 C225 1.375 . S
C224 C230 1.404 . S
C225 C224 1.375 . S
C225 C226 1.369 . S
C225 H238 0.950 . S
C226 C225 1.369 . S
C226 C227 1.392 . S
C226 H239 0.951 . S
C227 C226 1.392 . S
C227 C229 1.384 . S
H228 C230 0.949 . S
C229 C227 1.384 . S
C229 C230 1.385 . S
C229 H231 0.950 . S
C230 C224 1.404 . S
C230 H228 0.949 . S
C230 C229 1.385 . S
H231 C229 0.950 . S
H232 C216 0.951 . S
H233 C218 0.951 . S
H234 C220 0.951 . S
H235 C221 0.950 . S
H236 C222 0.950 . S
H237 C223 0.950 . S
H238 C225 0.950 . S
H239 C226 0.951 . S
C240 C241 1.386 . S
C240 C242 1.383 . S
C240 H256 0.951 . S
C241 C240 1.386 . S
C241 C245 1.383 . S
C242 C240 1.383 . S
C242 C243 1.402 . S
C242 H257 0.951 . S
C243 C242 1.402 . S
C243 C244 1.375 . S
C243 C246 1.481 1_545 S
C244 C243 1.375 . S
C244 C245 1.367 . S
C244 H258 0.951 . S
C245 C241 1.383 . S
C245 C244 1.367 . S
C245 H259 0.950 . S
C246 C243 1.481 1_565 S
C246 C247 1.297 . S
C246 H260 0.950 1_565 S
C247 C246 1.297 . S
C247 C248 1.479 . S
C247 H261 0.950 . S
C248 C247 1.479 . S
C248 C249 1.375 . S
C248 C254 1.404 . S
C249 C248 1.375 . S
C249 C250 1.369 . S
C249 H262 0.950 . S
C250 C249 1.369 . S
C250 C251 1.392 . S
C250 H263 0.951 . S
C251 C250 1.392 . S
C251 C253 1.384 . S
H252 C254 0.949 . S
C253 C251 1.384 . S
C253 C254 1.385 . S
C253 H255 0.950 . S
C254 C248 1.404 . S
C254 H252 0.949 . S
C254 C253 1.385 . S
H255 C253 0.950 . S
H256 C240 0.951 . S
H257 C242 0.951 . S
H258 C244 0.951 . S
H259 C245 0.950 . S
H260 C246 0.950 1_545 S
H261 C247 0.950 . S
H262 C249 0.950 . S
H263 C250 0.951 . S
C264 C265 1.386 . S
C264 C266 1.383 . S
C264 H280 0.951 . S
C265 C264 1.386 . S
C265 C269 1.383 . S
C266 C264 1.383 . S
C266 C267 1.402 . S
C266 H281 0.951 . S
C267 C266 1.402 . S
C267 C268 1.375 . S
C267 C270 1.481 . S
C268 C267 1.375 . S
C268 C269 1.367 . S
C268 H282 0.951 . S
C269 C265 1.383 . S
C269 C268 1.367 . S
C269 H283 0.950 . S
C270 C267 1.481 . S
C270 C271 1.297 . S
C270 H284 0.950 . S
C271 C270 1.297 . S
C271 C272 1.479 . S
C271 H285 0.950 . S
C272 C271 1.479 . S
C272 C273 1.375 . S
C272 C278 1.404 . S
C273 C272 1.375 . S
C273 C274 1.369 . S
C273 H286 0.950 . S
C274 C273 1.369 . S
C274 C275 1.392 . S
C274 H287 0.951 . S
C275 C274 1.392 . S
C275 C277 1.384 . S
H276 C278 0.949 . S
C277 C275 1.384 . S
C277 C278 1.385 . S
C277 H279 0.950 . S
C278 C272 1.404 . S
C278 H276 0.949 . S
C278 C277 1.385 . S
H279 C277 0.950 . S
H280 C264 0.951 . S
H281 C266 0.951 . S
H282 C268 0.951 . S
H283 C269 0.950 . S
H284 C270 0.950 . S
H285 C271 0.950 . S
H286 C273 0.950 . S
H287 C274 0.951 . S
C288 C289 1.386 . S
C288 C290 1.383 1_554 S
C288 H304 0.951 . S
C289 C288 1.386 . S
C289 C293 1.383 . S
C290 C288 1.383 1_556 S
C290 C291 1.402 . S
C290 H305 0.951 . S
C291 C290 1.402 . S
C291 C292 1.375 . S
C291 C294 1.481 . S
C292 C291 1.375 . S
C292 C293 1.367 1_556 S
C292 H306 0.951 . S
C293 C289 1.383 . S
C293 C292 1.367 1_554 S
C293 H307 0.950 . S
C294 C291 1.481 . S
C294 C295 1.297 . S
C294 H308 0.950 . S
C295 C294 1.297 . S
C295 C296 1.479 . S
C295 H309 0.950 . S
C296 C295 1.479 . S
C296 C297 1.375 . S
C296 C302 1.404 . S
C297 C296 1.375 . S
C297 C298 1.369 . S
C297 H310 0.950 . S
C298 C297 1.369 . S
C298 C299 1.392 . S
C298 H311 0.951 . S
C299 C298 1.392 . S
C299 C301 1.384 . S
H300 C302 0.949 . S
C301 C299 1.384 . S
C301 C302 1.385 . S
C301 H303 0.950 . S
C302 C296 1.404 . S
C302 H300 0.949 . S
C302 C301 1.385 . S
H303 C301 0.950 . S
H304 C288 0.951 . S
H305 C290 0.951 . S
H306 C292 0.951 . S
H307 C293 0.950 . S
H308 C294 0.950 . S
H309 C295 0.950 . S
H310 C297 0.950 . S
H311 C298 0.951 . S
C312 C313 1.386 . S
C312 C314 1.383 . S
C312 H328 0.951 . S
C313 C312 1.386 . S
C313 C317 1.383 . S
C314 C312 1.383 . S
C314 C315 1.402 . S
C314 H329 0.951 . S
C315 C314 1.402 . S
C315 C316 1.375 . S
C315 C318 1.481 . S
C316 C315 1.375 . S
C316 C317 1.367 . S
C316 H330 0.951 . S
C317 C313 1.383 . S
C317 C316 1.367 . S
C317 H331 0.950 . S
C318 C315 1.481 . S
C318 C319 1.297 . S
C318 H332 0.950 . S
C319 C318 1.297 . S
C319 C320 1.479 . S
C319 H333 0.950 . S
C320 C319 1.479 . S
C320 C321 1.375 . S
C320 C326 1.404 . S
C321 C320 1.375 . S
C321 C322 1.369 1_554 S
C321 H334 0.950 . S
C322 C321 1.369 1_556 S
C322 C323 1.392 . S
C322 H335 0.951 . S
C323 C322 1.392 . S
C323 C325 1.384 . S
H324 C326 0.949 . S
C325 C323 1.384 . S
C325 C326 1.385 1_556 S
C325 H327 0.950 . S
C326 C320 1.404 . S
C326 H324 0.949 . S
C326 C325 1.385 1_554 S
H327 C325 0.950 . S
H328 C312 0.951 . S
H329 C314 0.951 . S
H330 C316 0.951 . S
H331 C317 0.950 . S
H332 C318 0.950 . S
H333 C319 0.950 . S
H334 C321 0.950 . S
H335 C322 0.951 . S
C336 C337 1.386 . S
C336 C338 1.383 . S
C336 H352 0.951 . S
C337 C336 1.386 . S
C337 C341 1.383 . S
C338 C336 1.383 . S
C338 C339 1.402 . S
C338 H353 0.951 . S
C339 C338 1.402 . S
C339 C340 1.375 . S
C339 C342 1.481 . S
C340 C339 1.375 . S
C340 C341 1.367 . S
C340 H354 0.951 . S
C341 C337 1.383 . S
C341 C340 1.367 . S
C341 H355 0.950 . S
C342 C339 1.481 . S
C342 C343 1.297 . S
C342 H356 0.950 . S
C343 C342 1.297 . S
C343 C344 1.479 . S
C343 H357 0.950 . S
C344 C343 1.479 . S
C344 C345 1.375 . S
C344 C350 1.404 . S
C345 C344 1.375 . S
C345 C346 1.369 . S
C345 H358 0.950 . S
C346 C345 1.369 . S
C346 C347 1.392 . S
C346 H359 0.951 . S
C347 C346 1.392 . S
C347 C349 1.384 . S
H348 C350 0.949 . S
C349 C347 1.384 . S
C349 C350 1.385 . S
C349 H351 0.950 . S
C350 C344 1.404 . S
C350 H348 0.949 . S
C350 C349 1.385 . S
H351 C349 0.950 . S
H352 C336 0.951 . S
H353 C338 0.951 . S
H354 C340 0.951 . S
H355 C341 0.950 . S
H356 C342 0.950 . S
H357 C343 0.950 . S
H358 C345 0.950 . S
H359 C346 0.951 . S
C360 C361 1.386 . S
C360 C362 1.383 . S
C360 H376 0.951 . S
C361 C360 1.386 . S
C361 C365 1.383 . S
C362 C360 1.383 . S
C362 C363 1.402 . S
C362 H377 0.951 . S
C363 C362 1.402 . S
C363 C364 1.375 . S
C363 C366 1.481 . S
C364 C363 1.375 . S
C364 C365 1.367 . S
C364 H378 0.951 . S
C365 C361 1.383 . S
C365 C364 1.367 . S
C365 H379 0.950 . S
C366 C363 1.481 . S
C366 C367 1.297 . S
C366 H380 0.950 . S
C367 C366 1.297 . S
C367 C368 1.479 . S
C367 H381 0.950 . S
C368 C367 1.479 . S
C368 C369 1.375 . S
C368 C374 1.404 . S
C369 C368 1.375 . S
C369 C370 1.369 1_556 S
C369 H382 0.950 . S
C370 C369 1.369 1_554 S
C370 C371 1.392 . S
C370 H383 0.951 . S
C371 C370 1.392 . S
C371 C373 1.384 . S
H372 C374 0.949 . S
C373 C371 1.384 . S
C373 C374 1.385 1_554 S
C373 H375 0.950 . S
C374 C368 1.404 . S
C374 H372 0.949 . S
C374 C373 1.385 1_556 S
H375 C373 0.950 . S
H376 C360 0.951 . S
H377 C362 0.951 . S
H378 C364 0.951 . S
H379 C365 0.950 . S
H380 C366 0.950 . S
H381 C367 0.950 . S
H382 C369 0.950 . S
H383 C370 0.951 . S
C384 C385 1.386 . S
C384 C386 1.383 . S
C384 H400 0.951 . S
C385 C384 1.386 . S
C385 C389 1.383 . S
C386 C384 1.383 . S
C386 C387 1.402 . S
C386 H401 0.951 . S
C387 C386 1.402 . S
C387 C388 1.375 . S
C387 C390 1.481 . S
C388 C387 1.375 . S
C388 C389 1.367 . S
C388 H402 0.951 . S
C389 C385 1.383 . S
C389 C388 1.367 . S
C389 H403 0.950 . S
C390 C387 1.481 . S
C390 C391 1.297 . S
C390 H404 0.950 . S
C391 C390 1.297 . S
C391 C392 1.479 . S
C391 H405 0.950 . S
C392 C391 1.479 . S
C392 C393 1.375 . S
C392 C398 1.404 . S
C393 C392 1.375 . S
C393 C394 1.369 1_554 S
C393 H406 0.950 . S
C394 C393 1.369 1_556 S
C394 C395 1.392 . S
C394 H407 0.951 . S
C395 C394 1.392 . S
C395 C397 1.384 . S
H396 C398 0.949 . S
C397 C395 1.384 . S
C397 C398 1.385 1_556 S
C397 H399 0.950 . S
C398 C392 1.404 . S
C398 H396 0.949 . S
C398 C397 1.385 1_554 S
H399 C397 0.950 . S
H400 C384 0.951 . S
H401 C386 0.951 . S
H402 C388 0.951 . S
H403 C389 0.950 . S
H404 C390 0.950 . S
H405 C391 0.950 . S
H406 C393 0.950 . S
H407 C394 0.951 . S
C408 C409 1.386 . S
C408 C410 1.383 . S
C408 H424 0.951 . S
C409 C408 1.386 . S
C409 C413 1.383 . S
C410 C408 1.383 . S
C410 C411 1.402 . S
C410 H425 0.951 . S
C411 C410 1.402 . S
C411 C412 1.375 . S
C411 C414 1.481 . S
C412 C411 1.375 . S
C412 C413 1.367 . S
C412 H426 0.951 . S
C413 C409 1.383 . S
C413 C412 1.367 . S
C413 H427 0.950 . S
C414 C411 1.481 . S
C414 C415 1.297 . S
C414 H428 0.950 . S
C415 C414 1.297 . S
C415 C416 1.479 . S
C415 H429 0.950 . S
C416 C415 1.479 . S
C416 C417 1.375 . S
C416 C422 1.404 . S
C417 C416 1.375 . S
C417 C418 1.369 . S
C417 H430 0.950 . S
C418 C417 1.369 . S
C418 C419 1.392 . S
C418 H431 0.951 . S
C419 C418 1.392 . S
C419 C421 1.384 . S
H420 C422 0.949 . S
C421 C419 1.384 . S
C421 C422 1.385 . S
C421 H423 0.950 . S
C422 C416 1.404 . S
C422 H420 0.949 . S
C422 C421 1.385 . S
H423 C421 0.950 . S
H424 C408 0.951 . S
H425 C410 0.951 . S
H426 C412 0.951 . S
H427 C413 0.950 . S
H428 C414 0.950 . S
H429 C415 0.950 . S
H430 C417 0.950 . S
H431 C418 0.951 . S
C432 C433 1.386 . S
C432 C434 1.383 . S
C432 H448 0.951 . S
C433 C432 1.386 . S
C433 C437 1.383 . S
C434 C432 1.383 . S
C434 C435 1.402 . S
C434 H449 0.951 . S
C435 C434 1.402 . S
C435 C436 1.375 . S
C435 C438 1.481 . S
C436 C435 1.375 . S
C436 C437 1.367 . S
C436 H450 0.951 . S
C437 C433 1.383 . S
C437 C436 1.367 . S
C437 H451 0.950 . S
C438 C435 1.481 . S
C438 C439 1.297 . S
C438 H452 0.950 . S
C439 C438 1.297 . S
C439 C440 1.479 . S
C439 H453 0.950 . S
C440 C439 1.479 . S
C440 C441 1.375 . S
C440 C446 1.404 . S
C441 C440 1.375 . S
C441 C442 1.369 . S
C441 H454 0.950 . S
C442 C441 1.369 . S
C442 C443 1.392 . S
C442 H455 0.951 . S
C443 C442 1.392 . S
C443 C445 1.384 . S
H444 C446 0.949 . S
C445 C443 1.384 . S
C445 C446 1.385 . S
C445 H447 0.950 . S
C446 C440 1.404 . S
C446 H444 0.949 . S
C446 C445 1.385 . S
H447 C445 0.950 . S
H448 C432 0.951 . S
H449 C434 0.951 . S
H450 C436 0.951 . S
H451 C437 0.950 . S
H452 C438 0.950 . S
H453 C439 0.950 . S
H454 C441 0.950 . S
H455 C442 0.951 . S
C456 C457 1.386 . S
C456 C458 1.383 . S
C456 H472 0.951 1_556 S
C457 C456 1.386 . S
C457 C461 1.383 . S
C458 C456 1.383 . S
C458 C459 1.402 . S
C458 H473 0.951 . S
C459 C458 1.402 . S
C459 C460 1.375 . S
C459 C462 1.481 . S
C460 C459 1.375 . S
C460 C461 1.367 . S
C460 H474 0.951 . S
C461 C457 1.383 . S
C461 C460 1.367 . S
C461 H475 0.950 . S
C462 C459 1.481 . S
C462 C463 1.297 . S
C462 H476 0.950 . S
C463 C462 1.297 . S
C463 C464 1.479 . S
C463 H477 0.950 . S
C464 C463 1.479 . S
C464 C465 1.375 . S
C464 C470 1.404 . S
C465 C464 1.375 . S
C465 C466 1.369 . S
C465 H478 0.950 . S
C466 C465 1.369 . S
C466 C467 1.392 . S
C466 H479 0.951 . S
C467 C466 1.392 . S
C467 C469 1.384 . S
H468 C470 0.949 . S
C469 C467 1.384 . S
C469 C470 1.385 . S
C469 H471 0.950 . S
C470 C464 1.404 . S
C470 H468 0.949 . S
C470 C469 1.385 . S
H471 C469 0.950 . S
H472 C456 0.951 1_554 S
H473 C458 0.951 . S
H474 C460 0.951 . S
H475 C461 0.950 . S
H476 C462 0.950 . S
H477 C463 0.950 . S
H478 C465 0.950 . S
H479 C466 0.951 . S
C480 C481 1.386 . S
C480 C482 1.383 . S
C480 H496 0.951 . S
C481 C480 1.386 . S
C481 C485 1.383 . S
C482 C480 1.383 . S
C482 C483 1.402 . S
C482 H497 0.951 . S
C483 C482 1.402 . S
C483 C484 1.375 . S
C483 C486 1.481 . S
C484 C483 1.375 . S
C484 C485 1.367 . S
C484 H498 0.951 . S
C485 C481 1.383 . S
C485 C484 1.367 . S
C485 H499 0.950 . S
C486 C483 1.481 . S
C486 C487 1.297 . S
C486 H500 0.950 . S
C487 C486 1.297 . S
C487 C488 1.479 . S
C487 H501 0.950 . S
C488 C487 1.479 . S
C488 C489 1.375 . S
C488 C494 1.404 . S
C489 C488 1.375 . S
C489 C490 1.369 . S
C489 H502 0.950 . S
C490 C489 1.369 . S
C490 C491 1.392 . S
C490 H503 0.951 . S
C491 C490 1.392 . S
C491 C493 1.384 . S
H492 C494 0.949 . S
C493 C491 1.384 . S
C493 C494 1.385 . S
C493 H495 0.950 . S
C494 C488 1.404 . S
C494 H492 0.949 . S
C494 C493 1.385 . S
H495 C493 0.950 . S
H496 C480 0.951 . S
H497 C482 0.951 . S
H498 C484 0.951 . S
H499 C485 0.950 . S
H500 C486 0.950 . S
H501 C487 0.950 . S
H502 C489 0.950 . S
H503 C490 0.951 . S
C504 C505 1.386 . S
C504 C506 1.383 . S
C504 H520 0.951 . S
C505 C504 1.386 . S
C505 C509 1.383 . S
C506 C504 1.383 . S
C506 C507 1.402 . S
C506 H521 0.951 . S
C507 C506 1.402 . S
C507 C508 1.375 . S
C507 C510 1.481 . S
C508 C507 1.375 . S
C508 C509 1.367 . S
C508 H522 0.951 . S
C509 C505 1.383 . S
C509 C508 1.367 . S
C509 H523 0.950 . S
C510 C507 1.481 . S
C510 C511 1.297 . S
C510 H524 0.950 . S
C511 C510 1.297 . S
C511 C512 1.479 . S
C511 H525 0.950 . S
C512 C511 1.479 . S
C512 C513 1.375 . S
C512 C518 1.404 . S
C513 C512 1.375 . S
C513 C514 1.369 . S
C513 H526 0.950 . S
C514 C513 1.369 . S
C514 C515 1.392 . S
C514 H527 0.951 . S
C515 C514 1.392 . S
C515 C517 1.384 . S
H516 C518 0.949 . S
C517 C515 1.384 . S
C517 C518 1.385 . S
C517 H519 0.950 . S
C518 C512 1.404 . S
C518 H516 0.949 . S
C518 C517 1.385 . S
H519 C517 0.950 . S
H520 C504 0.951 . S
H521 C506 0.951 . S
H522 C508 0.951 . S
H523 C509 0.950 . S
H524 C510 0.950 . S
H525 C511 0.950 . S
H526 C513 0.950 . S
H527 C514 0.951 . S
C528 C529 1.386 . S
C528 C530 1.383 . S
C528 H544 0.951 1_556 S
C529 C528 1.386 . S
C529 C533 1.383 . S
C530 C528 1.383 . S
C530 C531 1.402 . S
C530 H545 0.951 . S
C531 C530 1.402 . S
C531 C532 1.375 . S
C531 C534 1.481 . S
C532 C531 1.375 . S
C532 C533 1.367 . S
C532 H546 0.951 . S
C533 C529 1.383 . S
C533 C532 1.367 . S
C533 H547 0.950 . S
C534 C531 1.481 . S
C534 C535 1.297 . S
C534 H548 0.950 . S
C535 C534 1.297 . S
C535 C536 1.479 . S
C535 H549 0.950 . S
C536 C535 1.479 . S
C536 C537 1.375 . S
C536 C542 1.404 . S
C537 C536 1.375 . S
C537 C538 1.369 . S
C537 H550 0.950 . S
C538 C537 1.369 . S
C538 C539 1.392 . S
C538 H551 0.951 . S
C539 C538 1.392 . S
C539 C541 1.384 . S
H540 C542 0.949 . S
C541 C539 1.384 . S
C541 C542 1.385 . S
C541 H543 0.950 . S
C542 C536 1.404 . S
C542 H540 0.949 . S
C542 C541 1.385 . S
H543 C541 0.950 . S
H544 C528 0.951 1_554 S
H545 C530 0.951 . S
H546 C532 0.951 . S
H547 C533 0.950 . S
H548 C534 0.950 . S
H549 C535 0.950 . S
H550 C537 0.950 . S
H551 C538 0.951 . S
C121 C118 1.362 . S
C131 C4 1.239 . S
C145 C18 1.362 . S
C155 C24 1.238 . S
C169 C38 1.362 . S
C179 C44 1.279 . S
C193 C58 1.362 . S
C203 C64 1.264 . S
C217 C84 1.325 . S
C227 C78 1.356 . S
C241 C104 1.264 . S
C251 C98 1.353 . S
C265 C12 1.224 . S
C275 C9 1.167 . S
C289 C32 1.193 . S
C299 C29 1.219 . S
C313 C52 1.239 . S
C323 C49 1.157 . S
C337 C72 1.204 . S
C347 C69 1.194 . S
C361 C89 1.195 . S
C371 C92 1.274 . S
C385 C112 1.191 . S
C395 C109 1.268 . S
C409 C2 1.386 . S
C419 C99 1.458 . S
C433 C22 1.454 . S
C443 C119 1.483 . S
C457 C19 1.512 . S
C467 C42 1.423 . S
C481 C39 1.513 . S
C491 C62 1.407 . S
C505 C82 1.430 . S
C515 C59 1.517 . S
C529 C79 1.512 . S
C539 C102 1.415 . S
