# Generated by pormake.
# Topology tsi, (8)-cn, num edge types: 1
# Building blocks:
#     Node 0, Type 0, BuildingBlock: AJUNOK_clean_sbu_0, # of connection points: 8
#     Node 1, Type 0, BuildingBlock: AJUNOK_clean_sbu_0, # of connection points: 8
#     Node 2, Type 0, BuildingBlock: AJUNOK_clean_sbu_0, # of connection points: 8
#     Node 3, Type 0, BuildingBlock: AJUNOK_clean_sbu_0, # of connection points: 8
#     Edge 4, Type (0, 0), BuildingBlock: EZIPEK_clean_linker_0, # of connection points: 2
#     Edge 5, Type (0, 0), BuildingBlock: EZIPEK_clean_linker_0, # of connection points: 2
#     Edge 6, Type (0, 0), BuildingBlock: EZIPEK_clean_linker_0, # of connection points: 2
#     Edge 7, Type (0, 0), BuildingBlock: EZIPEK_clean_linker_0, # of connection points: 2
#     Edge 8, Type (0, 0), BuildingBlock: EZIPEK_clean_linker_0, # of connection points: 2
#     Edge 9, Type (0, 0), BuildingBlock: EZIPEK_clean_linker_0, # of connection points: 2
#     Edge 10, Type (0, 0), BuildingBlock: EZIPEK_clean_linker_0, # of connection points: 2
#     Edge 11, Type (0, 0), BuildingBlock: EZIPEK_clean_linker_0, # of connection points: 2
#     Edge 12, Type (0, 0), BuildingBlock: EZIPEK_clean_linker_0, # of connection points: 2
#     Edge 13, Type (0, 0), BuildingBlock: EZIPEK_clean_linker_0, # of connection points: 2
#     Edge 14, Type (0, 0), BuildingBlock: EZIPEK_clean_linker_0, # of connection points: 2
#     Edge 15, Type (0, 0), BuildingBlock: EZIPEK_clean_linker_0, # of connection points: 2
#     Edge 16, Type (0, 0), BuildingBlock: EZIPEK_clean_linker_0, # of connection points: 2
#     Edge 17, Type (0, 0), BuildingBlock: EZIPEK_clean_linker_0, # of connection points: 2
#     Edge 18, Type (0, 0), BuildingBlock: EZIPEK_clean_linker_0, # of connection points: 2
#     Edge 19, Type (0, 0), BuildingBlock: EZIPEK_clean_linker_0, # of connection points: 2
# Relax obj value: 0.186
# Max RMSD: 0.217
# Mean RMSD: 0.217
data_MOF--net-tsi--node1-AJUNOK_clean_sbu_0--edge1-EZIPEK_clean_linker_0
_symmetry_space_group_name_H-M    P1
_symmetry_Int_Tables_number       1
_symmetry_cell_setting            triclinic
loop_
_symmetry_equiv_pos_as_xyz
'x, y, z'
_cell_length_a     11.996742
_cell_length_b     12.008801
_cell_length_c     60.218856
_cell_angle_alpha  89.916391
_cell_angle_beta   90.975363
_cell_angle_gamma 90.299249
loop_
_atom_site_label
_atom_site_type_symbol
_atom_site_fract_x
_atom_site_fract_y
_atom_site_fract_z
_atom_type_partial_charge
Cd0 Cd 0.09589 0.24701 0.42255 0.0
Cd1 Cd 0.07686 0.46092 0.37678 0.0
C2 C 0.24634 0.14623 0.38213 0.0
N3 N 0.14483 0.19305 0.38574 0.0
C4 C 0.09389 0.16488 0.34748 0.0
C5 C 0.2031 0.13352 0.34287 0.0
C6 C 0.27814 0.11772 0.36062 0.0
C7 C 0.06649 0.19538 0.36918 0.0
H8 H 0.30432 0.13389 0.39584 0.0
H9 H 0.98319 0.22167 0.37282 0.0
C10 C 0.83809 0.36189 0.40558 0.0
C11 C 0.95355 0.61071 0.41459 0.0
C12 C 0.92943 0.65884 0.43513 0.0
C13 C 0.99532 0.63287 0.4539 0.0
C14 C 0.08612 0.56153 0.45138 0.0
C15 C 0.10697 0.51536 0.43056 0.0
N16 N 0.04013 0.53841 0.41267 0.0
H17 H 0.9018 0.62988 0.40023 0.0
H18 H 0.17657 0.46133 0.42884 0.0
C19 C 0.9152 0.3593 0.33603 0.0
N20 N 0.01691 0.40774 0.33983 0.0
C21 C 0.04152 0.42801 0.30046 0.0
C22 C 0.939 0.37441 0.29621 0.0
C23 C 0.8759 0.33955 0.31436 0.0
C24 C 0.07848 0.44458 0.32246 0.0
H25 H 0.86369 0.33549 0.3497 0.0
H26 H 0.15517 0.48983 0.32569 0.0
C27 C 0.34285 0.3683 0.40146 0.0
C28 C 0.05547 0.02125 0.42038 0.0
N29 N 0.13207 0.2416 0.46118 0.0
C30 C 0.23991 0.23841 0.46855 0.0
C31 C 0.26519 0.2087 0.49051 0.0
C32 C 0.17887 0.18129 0.50496 0.0
C33 C 0.06816 0.18977 0.49731 0.0
C34 C 0.04645 0.21981 0.47514 0.0
C35 C 0.09692 0.68094 0.36224 0.0
O36 O 0.89719 0.32482 0.42181 0.0
O37 O 0.88562 0.39789 0.3882 0.0
O38 O 0.28518 0.40988 0.38531 0.0
O39 O 0.29293 0.3187 0.41721 0.0
O40 O 0.97974 0.09118 0.41577 0.0
O41 O 0.142 0.05944 0.4301 0.0
O42 O 0.18213 0.62292 0.36688 0.0
O43 O 1.00472 0.6294 0.36156 0.0
H44 H 0.3069 0.25257 0.45712 0.0
H45 H 0.96161 0.21986 0.46876 0.0
H46 H 0.03229 0.16976 0.33421 0.0
H47 H 0.36182 0.08822 0.35775 0.0
H48 H 0.85885 0.71417 0.43645 0.0
H49 H 0.13933 0.54042 0.46546 0.0
H50 H 0.09162 0.45813 0.28689 0.0
H51 H 0.79565 0.2994 0.31179 0.0
H52 H 0.35152 0.20244 0.49592 0.0
H53 H 0.99981 0.16906 0.50811 0.0
Cd54 Cd 0.1004 0.87811 0.67101 0.0
Cd55 Cd 0.88461 0.86674 0.62693 0.0
C56 C 0.2108 0.03495 0.63345 0.0
N57 N 0.15878 0.93464 0.63517 0.0
C58 C 0.1872 0.90203 0.59649 0.0
C59 C 0.2356 0.00897 0.59357 0.0
C60 C 0.24508 0.07531 0.61291 0.0
C61 C 0.15089 0.86633 0.61733 0.0
H62 H 0.22312 0.08614 0.64804 0.0
H63 H 0.1148 0.78448 0.61917 0.0
C64 C 0.98856 0.62143 0.65146 0.0
C65 C 0.74543 0.73775 0.666 0.0
C66 C 0.70098 0.7113 0.6868 0.0
C67 C 0.72998 0.77614 0.7054 0.0
C68 C 0.80043 0.86809 0.70248 0.0
C69 C 0.84214 0.89177 0.68141 0.0
N70 N 0.81672 0.82579 0.66366 0.0
H71 H 0.72378 0.68687 0.65176 0.0
H72 H 0.89433 0.96317 0.6794 0.0
C73 C 0.94859 0.73051 0.58231 0.0
N74 N 0.93814 0.83703 0.58953 0.0
C75 C 0.94405 0.90261 0.55189 0.0
C76 C 0.93714 0.79211 0.54365 0.0
C77 C 0.9522 0.70694 0.55965 0.0
C78 C 0.93989 0.92302 0.57483 0.0
H79 H 0.94904 0.66241 0.59399 0.0
H80 H 0.93521 0.00766 0.58087 0.0
C81 C 0.98374 0.12729 0.64981 0.0
C82 C 0.32646 0.83769 0.67293 0.0
N83 N 0.08742 0.90462 0.70933 0.0
C84 C 0.09944 0.00753 0.71836 0.0
C85 C 0.11517 0.02029 0.74132 0.0
C86 C 0.11417 0.92668 0.7557 0.0
C87 C 0.10782 0.82115 0.74515 0.0
C88 C 0.09287 0.8122 0.72218 0.0
C89 C 0.66152 0.88197 0.61381 0.0
O90 O 0.02761 0.67803 0.6678 0.0
O91 O 0.94897 0.67177 0.63451 0.0
O92 O 0.93725 0.07026 0.63428 0.0
O93 O 0.03517 0.07717 0.66558 0.0
O94 O 0.25691 0.76223 0.6676 0.0
O95 O 0.28642 0.9245 0.6816 0.0
O96 O 0.7197 0.96767 0.61822 0.0
O97 O 0.71421 0.79134 0.61236 0.0
H98 H 0.10397 0.07962 0.70763 0.0
H99 H 0.09199 0.73102 0.71441 0.0
H100 H 0.1711 0.84661 0.58271 0.0
H101 H 0.27376 0.15997 0.61294 0.0
H102 H 0.64615 0.63994 0.68842 0.0
H103 H 0.82374 0.92061 0.71643 0.0
H104 H 0.95191 0.97445 0.54139 0.0
H105 H 0.96225 0.62084 0.55487 0.0
H106 H 0.13468 0.10316 0.74695 0.0
H107 H 0.12051 0.74418 0.75407 0.0
Cd108 Cd 0.48917 0.57364 0.87667 0.0
Cd109 Cd 0.48352 0.79973 0.91944 0.0
C110 C 0.63229 0.68669 0.83496 0.0
N111 N 0.5346 0.63373 0.83971 0.0
C112 C 0.4908 0.61928 0.8007 0.0
C113 C 0.58853 0.67789 0.79554 0.0
C114 C 0.65963 0.71182 0.81301 0.0
C115 C 0.46593 0.59732 0.82296 0.0
H116 H 0.68984 0.70979 0.84807 0.0
H117 H 0.39232 0.54931 0.82687 0.0
C118 C 0.22986 0.67467 0.89875 0.0
C119 C 0.34135 0.7726 0.96461 0.0
C120 C 0.30761 0.79918 0.98594 0.0
C121 C 0.3806 0.85709 1.0002 0.0
C122 C 0.48896 0.88134 0.99319 0.0
C123 C 0.5193 0.85341 0.97157 0.0
N124 N 0.44444 0.80283 0.95759 0.0
H125 H 0.28265 0.73277 0.95346 0.0
H126 H 0.60002 0.87826 0.96548 0.0
C127 C 0.31391 0.91589 0.88292 0.0
N128 N 0.41275 0.86047 0.88409 0.0
C129 C 0.4318 0.87746 0.84463 0.0
C130 C 0.32364 0.92039 0.84279 0.0
C131 C 0.26756 0.94661 0.86232 0.0
C132 C 0.4753 0.84867 0.86567 0.0
H133 H 0.26879 0.93269 0.89793 0.0
H134 H 0.55805 0.81525 0.86748 0.0
C135 C 0.73541 0.67289 0.90302 0.0
C136 C 0.46332 0.35633 0.86107 0.0
N137 N 0.52362 0.50077 0.91416 0.0
C138 C 0.58003 0.40321 0.91698 0.0
C139 C 0.59481 0.35577 0.93824 0.0
C140 C 0.5568 0.412 0.95715 0.0
C141 C 0.50243 0.514 0.95376 0.0
C142 C 0.48327 0.55419 0.93219 0.0
C143 C 0.54314 0.02025 0.91742 0.0
O144 O 0.28344 0.62782 0.88312 0.0
O145 O 0.28375 0.72817 0.91373 0.0
O146 O 0.67986 0.71492 0.91885 0.0
O147 O 0.68439 0.63371 0.88604 0.0
O148 O 0.37989 0.416 0.86546 0.0
O149 O 0.55726 0.40486 0.86149 0.0
O150 O 0.60784 0.9446 0.9108 0.0
O151 O 0.46194 0.98838 0.92911 0.0
H152 H 0.61244 0.36081 0.90271 0.0
H153 H 0.43485 0.62741 0.92997 0.0
H154 H 0.43519 0.58952 0.78763 0.0
H155 H 0.73699 0.75511 0.80964 0.0
H156 H 0.22342 0.7794 0.99092 0.0
H157 H 0.54687 0.92658 1.00388 0.0
H158 H 0.47943 0.86215 0.82987 0.0
H159 H 0.18543 0.98362 0.86158 0.0
H160 H 0.63657 0.27638 0.9399 0.0
H161 H 0.47118 0.56043 0.96773 0.0
Cd162 Cd 0.62399 0.12486 0.13134 0.0
Cd163 Cd 0.38741 0.09841 0.16764 0.0
C164 C 0.65963 0.28109 0.08728 0.0
N165 N 0.62769 0.17572 0.09282 0.0
C166 C 0.5781 0.13809 0.05468 0.0
C167 C 0.6089 0.24688 0.04863 0.0
C168 C 0.65127 0.31832 0.0652 0.0
C169 C 0.58867 0.1039 0.07695 0.0
H170 H 0.68948 0.3373 0.1001 0.0
H171 H 0.56216 0.02108 0.0817 0.0
C172 C 0.50657 0.87041 0.14798 0.0
C173 C 0.43368 0.04889 0.21928 0.0
C174 C 0.41428 0.04828 0.24207 0.0
C175 C 0.34744 0.13115 0.25124 0.0
C176 C 0.30802 0.21746 0.23746 0.0
C177 C 0.33119 0.21598 0.21476 0.0
N178 N 0.39189 0.13165 0.20612 0.0
H179 H 0.4779 0.98041 0.21189 0.0
H180 H 0.29506 0.27814 0.20384 0.0
C181 C 0.28732 0.98473 0.12537 0.0
N182 N 0.33691 0.0843 0.1293 0.0
C183 C 0.32638 0.1256 0.09038 0.0
C184 C 0.27436 0.02164 0.08573 0.0
C185 C 0.25616 0.95167 0.1041 0.0
C186 C 0.35575 0.15559 0.11224 0.0
H187 H 0.28045 0.92615 0.13863 0.0
H188 H 0.39753 0.23336 0.11523 0.0
C189 C 0.48207 0.37136 0.14929 0.0
C190 C 0.81269 0.99771 0.1418 0.0
N191 N 0.67042 0.21121 0.16641 0.0
C192 C 0.74737 0.29528 0.16734 0.0
C193 C 0.78799 0.33507 0.18789 0.0
C194 C 0.75193 0.28534 0.20767 0.0
C195 C 0.67071 0.20129 0.20623 0.0
C196 C 0.63001 0.16669 0.18539 0.0
C197 C 0.19617 0.97555 0.17797 0.0
O198 O 0.52321 0.93165 0.13089 0.0
O199 O 0.49824 0.92071 0.16648 0.0
O200 O 0.42199 0.31314 0.1625 0.0
O201 O 0.5496 0.32193 0.13649 0.0
O202 O 0.71576 0.95727 0.14136 0.0
O203 O 0.82583 0.09697 0.13465 0.0
O204 O 0.18963 0.0776 0.17215 0.0
O205 O 0.29182 0.93293 0.17976 0.0
H206 H 0.77976 0.32933 0.1521 0.0
H207 H 0.57309 0.09769 0.18424 0.0
H208 H 0.54489 0.08074 0.04234 0.0
H209 H 0.67573 0.40279 0.06115 0.0
H210 H 0.44623 0.98085 0.25227 0.0
H211 H 0.25636 0.28287 0.24406 0.0
H212 H 0.35084 0.18183 0.0773 0.0
H213 H 0.22631 0.86768 0.1028 0.0
H214 H 0.85064 0.4003 0.18833 0.0
H215 H 0.64215 0.16021 0.22111 0.0
C216 C 0.97865 0.79285 0.48084 0.0
C217 C 0.96677 0.67742 0.47624 0.0
C218 C 0.88587 0.65147 0.51307 0.0
C219 C 0.92028 0.76105 0.51912 0.0
N220 N 0.90141 0.94177 0.5021 0.0
N221 N 0.90362 0.49542 0.48799 0.0
C222 C 0.94052 0.83566 0.50132 0.0
C223 C 0.91812 0.60628 0.49232 0.0
N224 N 0.02699 0.86206 0.46579 0.0
N225 N 0.81009 0.5968 0.52584 0.0
H226 H 0.92006 0.45964 0.47264 0.0
H227 H 0.88175 0.43779 0.50013 0.0
H228 H 0.77339 0.63496 0.53944 0.0
H229 H 0.77315 0.52123 0.52136 0.0
H230 H 0.04377 0.94573 0.46911 0.0
H231 H 0.05828 0.83341 0.45083 0.0
H232 H 0.90688 0.99701 0.48879 0.0
H233 H 0.84321 0.96512 0.51386 0.0
C234 C 0.71673 0.64674 0.76341 0.0
C235 C 0.62025 0.69859 0.77194 0.0
C236 C 0.58667 0.78809 0.73563 0.0
C237 C 0.68997 0.7465 0.72807 0.0
N238 N 0.86143 0.64891 0.73585 0.0
N239 N 0.47059 0.83052 0.76715 0.0
C240 C 0.75731 0.67945 0.74229 0.0
C241 C 0.55661 0.77209 0.75826 0.0
N242 N 0.76725 0.56282 0.77512 0.0
N243 N 0.51697 0.84227 0.72111 0.0
H244 H 0.44708 0.8225 0.78367 0.0
H245 H 0.42812 0.89359 0.75874 0.0
H246 H 0.53798 0.85791 0.70467 0.0
H247 H 0.43541 0.86393 0.72479 0.0
H248 H 0.83077 0.51406 0.76878 0.0
H249 H 0.73843 0.53422 0.79036 0.0
H250 H 0.91965 0.61179 0.7465 0.0
H251 H 0.89319 0.66892 0.72036 0.0
C252 C 0.47616 0.35554 0.99441 0.0
C253 C 0.57037 0.36448 0.98037 0.0
C254 C 0.68695 0.28365 1.01049 0.0
C255 C 0.59547 0.28676 0.02509 0.0
N256 N 0.40841 0.34742 0.03215 0.0
N257 N 0.77105 0.35917 0.97747 0.0
C258 C 0.49176 0.32966 1.01741 0.0
C259 C 0.67736 0.33393 0.98904 0.0
N260 N 0.37104 0.36679 0.98558 0.0
N261 N 0.78332 0.23208 1.01705 0.0
H262 H 0.76864 0.40028 0.96228 0.0
H263 H 0.85149 0.34999 0.98397 0.0
H264 H 0.7945 0.19696 0.03279 0.0
H265 H 0.84841 0.21614 1.00629 0.0
H266 H 0.29877 0.35651 0.99471 0.0
H267 H 0.35525 0.3748 0.96857 0.0
H268 H 0.33581 0.39061 0.02806 0.0
H269 H 0.4158 0.32722 0.04896 0.0
C270 C 0.79425 0.4097 0.26598 0.0
C271 C 0.89524 0.35784 0.27292 0.0
C272 C 0.91137 0.2756 0.23569 0.0
C273 C 0.80326 0.31517 0.2298 0.0
N274 N 0.63433 0.40666 0.24089 0.0
N275 N 0.03959 0.22467 0.26545 0.0
C276 C 0.74246 0.37831 0.24542 0.0
C277 C 0.95158 0.28695 0.258 0.0
N278 N 0.74961 0.4919 0.27869 0.0
N279 N 0.97607 0.22663 0.22006 0.0
H280 H 0.0704 0.22822 0.28173 0.0
H281 H 0.07484 0.16161 0.25607 0.0
H282 H 0.94803 0.20919 0.20396 0.0
H283 H 0.06034 0.20957 0.22269 0.0
H284 H 0.68249 0.54059 0.27347 0.0
H285 H 0.78669 0.51939 0.2935 0.0
H286 H 0.58239 0.44269 0.25252 0.0
H287 H 0.59328 0.38574 0.2261 0.0
C288 C 0.24512 0.03946 0.28295 0.0
C289 C 0.31564 0.12627 0.27507 0.0
C290 C 0.30266 0.22089 0.31084 0.0
C291 C 0.24164 0.12941 0.31948 0.0
N292 N 0.1671 0.94437 0.3148 0.0
N293 N 0.43278 0.28509 0.28331 0.0
C294 C 0.21681 0.03622 0.30584 0.0
C295 C 0.35096 0.21255 0.28959 0.0
N296 N 0.20038 0.96355 0.26841 0.0
N297 N 0.30967 0.31827 0.32243 0.0
H298 H 0.47199 0.27976 0.26803 0.0
H299 H 0.46962 0.34274 0.29411 0.0
H300 H 0.26897 0.33001 0.33738 0.0
H301 H 0.34454 0.39095 0.31604 0.0
H302 H 0.13878 0.90641 0.2727 0.0
H303 H 0.21752 0.96372 0.25152 0.0
H304 H 0.15776 0.86908 0.30639 0.0
H305 H 0.14269 0.94104 0.33131 0.0
C306 C 0.1699 0.03537 0.79154 0.0
C307 C 0.13618 0.93513 0.78076 0.0
C308 C 0.20931 0.82908 0.81239 0.0
C309 C 0.26315 0.9261 0.82089 0.0
N310 N 0.29626 0.12367 0.81802 0.0
N311 N 0.04913 0.76317 0.79152 0.0
C312 C 0.24345 0.03014 0.81036 0.0
C313 C 0.13377 0.83854 0.79421 0.0
N314 N 0.11556 0.13198 0.7867 0.0
N315 N 0.23127 0.72691 0.82125 0.0
H316 H 0.98367 0.77683 0.78019 0.0
H317 H 0.03697 0.69641 0.80233 0.0
H318 H 0.28586 0.71546 0.83466 0.0
H319 H 0.20124 0.65333 0.81411 0.0
H320 H 0.13008 0.20615 0.79526 0.0
H321 H 0.04324 0.13213 0.7768 0.0
H322 H 0.29272 0.19973 0.80968 0.0
H323 H 0.35121 0.12214 0.83161 0.0
C324 C 0.30972 0.01518 1.02339 0.0
C325 C 0.33826 0.9006 1.02148 0.0
C326 C 0.25186 0.86562 0.05705 0.0
C327 C 0.25758 0.98073 0.062 0.0
N328 N 0.2167 0.15692 0.04523 0.0
N329 N 0.33497 0.71484 0.03711 0.0
C330 C 0.26477 0.05452 0.04372 0.0
C331 C 0.30926 0.82514 0.03852 0.0
N332 N 0.32574 0.08566 1.0059 0.0
N333 N 0.17382 0.79998 0.06681 0.0
H334 H 0.37793 0.68122 0.02379 0.0
H335 H 0.32086 0.65958 0.05017 0.0
H336 H 0.11091 0.83481 0.07631 0.0
H337 H 0.16091 0.71681 0.06243 0.0
H338 H 0.31436 0.17101 1.00681 0.0
H339 H 0.35323 0.05926 0.99046 0.0
H340 H 0.20884 0.21276 0.03209 0.0
H341 H 0.17323 0.18032 0.05935 0.0
C342 C 0.22892 0.21127 0.54526 0.0
C343 C 0.20631 0.13683 0.52751 0.0
C344 C 0.26091 0.98072 0.55172 0.0
C345 C 0.26086 0.05315 0.57031 0.0
N346 N 0.34127 0.23305 0.57831 0.0
N347 N 0.20479 0.94862 0.51342 0.0
C348 C 0.27111 0.16873 0.56571 0.0
C349 C 0.22445 0.02083 0.53055 0.0
N350 N 0.21135 0.32278 0.54269 0.0
N351 N 0.30977 0.87879 0.55377 0.0
H352 H 0.20348 0.86244 0.51546 0.0
H353 H 0.18252 0.97516 0.49748 0.0
H354 H 0.35011 0.85466 0.56851 0.0
H355 H 0.3222 0.8253 0.54045 0.0
H356 H 0.2176 0.37835 0.55597 0.0
H357 H 0.18239 0.35779 0.52782 0.0
H358 H 0.35809 0.31637 0.57472 0.0
H359 H 0.39744 0.19706 0.58958 0.0
C360 C 0.17082 0.88014 0.40152 0.0
C361 C 0.06288 0.9201 0.40654 0.0
C362 C 0.99213 0.84732 0.37117 0.0
C363 C 0.09747 0.80067 0.36745 0.0
N364 N 0.29421 0.82485 0.37214 0.0
N365 N 0.86498 0.91131 0.39906 0.0
C366 C 0.18957 0.83725 0.38017 0.0
C367 C 0.97136 0.89546 0.39208 0.0
N368 N 0.25258 0.87524 0.41752 0.0
N369 N 0.91217 0.84075 0.35488 0.0
H370 H 0.84832 0.93591 0.41529 0.0
H371 H 0.79463 0.88784 0.3898 0.0
H372 H 0.92943 0.80463 0.33954 0.0
H373 H 0.83486 0.87937 0.35589 0.0
H374 H 0.33055 0.84048 0.41476 0.0
H375 H 0.23684 0.89101 0.4342 0.0
H376 H 0.36512 0.85642 0.38022 0.0
H377 H 0.30653 0.79273 0.35625 0.0
C378 C 0.45572 0.75306 0.64647 0.0
C379 C 0.43007 0.84525 0.66012 0.0
C380 C 0.50952 0.97127 0.6329 0.0
C381 C 0.544 0.87898 0.62049 0.0
N382 N 0.50519 0.69116 0.60961 0.0
N383 N 0.47285 0.03613 0.66986 0.0
C384 C 0.50062 0.77265 0.62529 0.0
C385 C 0.46875 0.95317 0.6544 0.0
N386 N 0.44165 0.64741 0.65435 0.0
N387 N 0.52084 0.07566 0.62431 0.0
H388 H 0.45599 0.02142 0.68655 0.0
H389 H 0.50698 0.11446 0.66672 0.0
H390 H 0.55055 0.08777 0.60826 0.0
H391 H 0.49055 0.1466 0.63208 0.0
H392 H 0.46618 0.57664 0.64577 0.0
H393 H 0.4167 0.63248 0.67063 0.0
H394 H 0.46848 0.61296 0.61148 0.0
H395 H 0.53706 0.70761 0.59388 0.0
C396 C 0.38194 0.20681 0.88174 0.0
C397 C 0.45946 0.2362 0.86556 0.0
C398 C 0.60424 0.13446 0.88542 0.0
C399 C 0.5302 0.12047 0.90344 0.0
N400 N 0.36324 0.18513 0.92119 0.0
N401 N 0.62441 0.18627 0.84658 0.0
C402 C 0.42276 0.16893 0.90237 0.0
C403 C 0.5635 0.1829 0.86545 0.0
N404 N 0.27116 0.2233 0.87781 0.0
N405 N 0.7144 0.10907 0.88817 0.0
H406 H 0.5931 0.22526 0.83226 0.0
H407 H 0.69911 0.14383 0.84468 0.0
H408 H 0.7476 0.08528 0.90359 0.0
H409 H 0.77395 0.123 0.87609 0.0
H410 H 0.21019 0.19825 0.88893 0.0
H411 H 0.24213 0.25193 0.86237 0.0
H412 H 0.28694 0.22636 0.92114 0.0
H413 H 0.39782 0.17087 0.93696 0.0
C414 C 0.07792 0.84867 0.15701 0.0
C415 C 0.097 0.905 0.1772 0.0
C416 C 0.90312 0.95465 0.17825 0.0
C417 C 0.8996 0.94092 0.15478 0.0
N418 N 0.97092 0.84927 0.12246 0.0
N419 N 0.02354 0.97082 0.21111 0.0
C420 C 0.98229 0.87768 0.14429 0.0
C421 C 1.00658 0.94197 0.18943 0.0
N422 N 0.15277 0.77183 0.1501 0.0
N423 N 0.80901 0.97972 0.18944 0.0
H424 H 0.1017 0.96079 0.21874 0.0
H425 H 0.96249 1.00324 0.22127 0.0
H426 H 0.73161 0.98025 0.18149 0.0
H427 H 0.80561 0.98792 0.20661 0.0
H428 H 0.14119 0.72378 0.13584 0.0
H429 H 0.22274 0.752 0.15986 0.0
H430 H 0.03318 0.8095 0.11368 0.0
H431 H 0.89935 0.86824 0.11313 0.0
C432 C 0.94151 0.31258 0.66882 0.0
C433 C 0.97976 0.25414 0.64977 0.0
C434 C 0.03624 0.43558 0.63353 0.0
C435 C 0.98995 0.49453 0.65168 0.0
N436 N 0.88501 0.48739 0.6854 0.0
N437 N 0.04532 0.26549 0.61202 0.0
C438 C 0.93986 0.43229 0.66908 0.0
C439 C 0.02093 0.31736 0.63152 0.0
N440 N 0.90474 0.25369 0.68674 0.0
N441 N 0.10133 0.49169 0.61877 0.0
H442 H 0.03967 0.17993 0.60969 0.0
H443 H 0.06248 0.30838 0.59742 0.0
H444 H 0.11895 0.57653 0.62013 0.0
H445 H 0.14807 0.45246 0.60667 0.0
H446 H 0.89253 0.28895 0.70228 0.0
H447 H 0.89005 0.16813 0.68641 0.0
H448 H 0.83423 0.4486 0.69696 0.0
H449 H 0.88342 0.57365 0.68645 0.0
C450 C 0.92774 0.61589 0.91887 0.0
C451 C 0.86223 0.67698 0.90317 0.0
C452 C 0.03475 0.72295 0.88311 0.0
C453 C 0.10235 0.66978 0.89966 0.0
N454 N 0.111 0.57238 0.93467 0.0
N455 N 0.85925 0.81274 0.87377 0.0
C456 C 0.04789 0.61901 0.91803 0.0
C457 C 0.91763 0.73697 0.88624 0.0
N458 N 0.87507 0.55057 0.93404 0.0
N459 N 0.08182 0.75907 0.86402 0.0
H460 H 0.77513 0.82941 0.87628 0.0
H461 H 0.89661 0.86779 0.86274 0.0
H462 H 0.16633 0.75124 0.86136 0.0
H463 H 0.03612 0.78687 0.85024 0.0
H464 H 0.91645 0.49383 0.94427 0.0
H465 H 0.78852 0.54755 0.93529 0.0
H466 H 0.07887 0.54725 0.94984 0.0
H467 H 0.19722 0.56341 0.93375 0.0
C468 C 0.43776 0.55993 0.1308 0.0
C469 C 0.48062 0.49919 0.14937 0.0
C470 C 0.55071 0.67801 0.16521 0.0
C471 C 0.50412 0.74109 0.14709 0.0
N472 N 0.42671 0.73164 0.10958 0.0
N473 N 0.55898 0.50529 0.18629 0.0
C474 C 0.45403 0.67909 0.12905 0.0
C475 C 0.53097 0.56005 0.16713 0.0
N476 N 0.37452 0.50409 0.1153 0.0
N477 N 0.62469 0.72848 0.17951 0.0
H478 H 0.54887 0.41965 0.18819 0.0
H479 H 0.58222 0.54595 0.20092 0.0
H480 H 0.65233 0.80979 0.17734 0.0
H481 H 0.6711 0.68612 0.19156 0.0
H482 H 0.32763 0.54266 0.10283 0.0
H483 H 0.35907 0.41887 0.11632 0.0
H484 H 0.40429 0.69012 0.09502 0.0
H485 H 0.43628 0.81615 0.10684 0.0
C486 C 0.64923 0.41739 0.42222 0.0
C487 C 0.71114 0.35918 0.40595 0.0
C488 C 0.53489 0.32302 0.38519 0.0
C489 C 0.47063 0.37331 0.40216 0.0
N490 N 0.46943 0.46246 0.43805 0.0
N491 N 0.70573 0.22875 0.3757 0.0
C492 C 0.52895 0.41802 0.4211 0.0
C493 C 0.65172 0.30461 0.38849 0.0
N494 N 0.70531 0.47594 0.43834 0.0
N495 N 0.48535 0.29336 0.36557 0.0
H496 H 0.7889 0.20748 0.37851 0.0
H497 H 0.66511 0.17733 0.36419 0.0
H498 H 0.40114 0.30408 0.36253 0.0
H499 H 0.52949 0.2685 0.35169 0.0
H500 H 0.66756 0.53167 0.44905 0.0
H501 H 0.79163 0.47367 0.44022 0.0
H502 H 0.50404 0.48207 0.45353 0.0
H503 H 0.38378 0.47601 0.43699 0.0
loop_
_geom_bond_atom_site_label_1
_geom_bond_atom_site_label_2
_geom_bond_distance
_geom_bond_site_symmetry_2
_ccdc_geom_bond_type
Cd0 N3 2.334 . S
Cd0 N29 2.304 . S
Cd0 O36 2.268 1_455 S
Cd0 O39 2.273 . S
Cd0 O40 2.417 1_445 S
Cd0 O41 2.330 1_545 S
Cd1 N16 2.304 . S
Cd1 N20 2.334 . S
Cd1 O37 2.273 . S
Cd1 O38 2.268 1_655 S
Cd1 O42 2.417 1_655 S
Cd1 O43 2.330 . S
C2 N3 1.332 . S
C2 C6 1.381 . S
C2 H8 0.931 . S
N3 Cd0 2.334 . S
N3 C2 1.332 . S
N3 C7 1.328 1_455 S
C4 C5 1.396 1_655 S
C4 C7 1.378 . S
C4 H46 0.931 . S
C5 C4 1.396 1_455 S
C5 C6 1.382 . S
C6 C2 1.381 . S
C6 C5 1.382 . S
C6 H47 0.930 . S
C7 N3 1.328 1_655 S
C7 C4 1.378 . S
C7 H9 0.930 . S
H8 C2 0.931 . S
H9 C7 0.930 . S
C10 O36 1.238 . S
C10 O37 1.253 . S
C11 C12 1.379 . S
C11 N16 1.337 . S
C11 H17 0.929 . S
C12 C11 1.379 . S
C12 C13 1.380 . S
C12 H48 0.929 . S
C13 C12 1.380 . S
C13 C14 1.399 1_655 S
C14 C13 1.399 1_455 S
C14 C15 1.376 . S
C14 H49 0.931 . S
C15 C14 1.376 . S
C15 N16 1.338 1_455 S
C15 H18 0.930 . S
N16 Cd1 2.304 . S
N16 C11 1.337 . S
N16 C15 1.338 1_655 S
H17 C11 0.929 . S
H18 C15 0.930 . S
C19 N20 1.332 . S
C19 C23 1.381 . S
C19 H25 0.931 . S
N20 Cd1 2.334 . S
N20 C19 1.332 . S
N20 C24 1.328 1_655 S
C21 C22 1.396 1_455 S
C21 C24 1.378 . S
C21 H50 0.931 . S
C22 C21 1.396 1_655 S
C22 C23 1.382 . S
C23 C19 1.381 . S
C23 C22 1.382 . S
C23 H51 0.930 . S
C24 N20 1.328 1_455 S
C24 C21 1.378 . S
C24 H26 0.930 . S
H25 C19 0.931 . S
H26 C24 0.930 . S
C27 O38 1.238 . S
C27 O39 1.253 . S
C28 O40 1.239 1_455 S
C28 O41 1.230 . S
N29 Cd0 2.304 . S
N29 C30 1.337 . S
N29 C34 1.338 1_455 S
C30 N29 1.337 . S
C30 C31 1.379 . S
C30 H44 0.929 . S
C31 C30 1.379 . S
C31 C32 1.380 . S
C31 H52 0.929 . S
C32 C31 1.380 . S
C32 C33 1.399 1_455 S
C33 C32 1.399 1_655 S
C33 C34 1.376 . S
C33 H53 0.931 . S
C34 N29 1.338 1_655 S
C34 C33 1.376 . S
C34 H45 0.930 . S
C35 O42 1.239 1_655 S
C35 O43 1.230 . S
O36 Cd0 2.268 1_655 S
O36 C10 1.238 . S
O37 Cd1 2.273 . S
O37 C10 1.253 . S
O38 Cd1 2.268 1_455 S
O38 C27 1.238 . S
O39 Cd0 2.273 . S
O39 C27 1.253 . S
O40 Cd0 2.417 1_665 S
O40 C28 1.239 1_655 S
O41 Cd0 2.330 1_565 S
O41 C28 1.230 . S
O42 Cd1 2.417 1_455 S
O42 C35 1.239 1_455 S
O43 Cd1 2.330 . S
O43 C35 1.230 . S
H44 C30 0.929 . S
H45 C34 0.930 . S
H46 C4 0.931 . S
H47 C6 0.930 . S
H48 C12 0.929 . S
H49 C14 0.931 . S
H50 C21 0.931 . S
H51 C23 0.930 . S
H52 C31 0.929 . S
H53 C33 0.931 . S
Cd54 N57 2.334 . S
Cd54 N83 2.304 . S
Cd54 O90 2.268 . S
Cd54 O93 2.273 . S
Cd54 O94 2.417 . S
Cd54 O95 2.330 . S
Cd55 N70 2.304 . S
Cd55 N74 2.334 . S
Cd55 O91 2.273 . S
Cd55 O92 2.268 . S
Cd55 O96 2.417 . S
Cd55 O97 2.330 . S
C56 N57 1.332 . S
C56 C60 1.381 . S
C56 H62 0.931 . S
N57 Cd54 2.334 . S
N57 C56 1.332 . S
N57 C61 1.328 . S
C58 C59 1.396 . S
C58 C61 1.378 . S
C58 H100 0.931 . S
C59 C58 1.396 . S
C59 C60 1.382 . S
C60 C56 1.381 . S
C60 C59 1.382 . S
C60 H101 0.930 . S
C61 N57 1.328 . S
C61 C58 1.378 . S
C61 H63 0.930 . S
H62 C56 0.931 . S
H63 C61 0.930 . S
C64 O90 1.238 1_655 S
C64 O91 1.253 . S
C65 C66 1.379 . S
C65 N70 1.337 . S
C65 H71 0.929 . S
C66 C65 1.379 . S
C66 C67 1.380 . S
C66 H102 0.929 . S
C67 C66 1.380 . S
C67 C68 1.399 . S
C68 C67 1.399 . S
C68 C69 1.376 . S
C68 H103 0.931 . S
C69 C68 1.376 . S
C69 N70 1.338 . S
C69 H72 0.930 . S
N70 Cd55 2.304 . S
N70 C65 1.337 . S
N70 C69 1.338 . S
H71 C65 0.929 . S
H72 C69 0.930 . S
C73 N74 1.332 . S
C73 C77 1.381 . S
C73 H79 0.931 . S
N74 Cd55 2.334 . S
N74 C73 1.332 . S
N74 C78 1.328 . S
C75 C76 1.396 . S
C75 C78 1.378 . S
C75 H104 0.931 . S
C76 C75 1.396 . S
C76 C77 1.382 . S
C77 C73 1.381 . S
C77 C76 1.382 . S
C77 H105 0.930 . S
C78 N74 1.328 . S
C78 C75 1.378 . S
C78 H80 0.930 . S
H79 C73 0.931 . S
H80 C78 0.930 . S
C81 O92 1.238 1_455 S
C81 O93 1.253 . S
C82 O94 1.239 . S
C82 O95 1.230 . S
N83 Cd54 2.304 . S
N83 C84 1.337 . S
N83 C88 1.338 . S
C84 N83 1.337 . S
C84 C85 1.379 . S
C84 H98 0.929 . S
C85 C84 1.379 . S
C85 C86 1.380 . S
C85 H106 0.929 . S
C86 C85 1.380 . S
C86 C87 1.399 . S
C87 C86 1.399 . S
C87 C88 1.376 . S
C87 H107 0.931 . S
C88 N83 1.338 . S
C88 C87 1.376 . S
C88 H99 0.930 . S
C89 O96 1.239 . S
C89 O97 1.230 . S
O90 Cd54 2.268 . S
O90 C64 1.238 1_455 S
O91 Cd55 2.273 . S
O91 C64 1.253 . S
O92 Cd55 2.268 . S
O92 C81 1.238 1_655 S
O93 Cd54 2.273 . S
O93 C81 1.253 . S
O94 Cd54 2.417 . S
O94 C82 1.239 . S
O95 Cd54 2.330 . S
O95 C82 1.230 . S
O96 Cd55 2.417 . S
O96 C89 1.239 . S
O97 Cd55 2.330 . S
O97 C89 1.230 . S
H98 C84 0.929 . S
H99 C88 0.930 . S
H100 C58 0.931 . S
H101 C60 0.930 . S
H102 C66 0.929 . S
H103 C68 0.931 . S
H104 C75 0.931 . S
H105 C77 0.930 . S
H106 C85 0.929 . S
H107 C87 0.931 . S
Cd108 N111 2.334 . S
Cd108 N137 2.304 . S
Cd108 O144 2.268 . S
Cd108 O147 2.273 . S
Cd108 O148 2.417 . S
Cd108 O149 2.330 . S
Cd109 N124 2.304 . S
Cd109 N128 2.334 . S
Cd109 O145 2.273 . S
Cd109 O146 2.268 . S
Cd109 O150 2.417 1_565 S
Cd109 O151 2.330 1_565 S
C110 N111 1.332 . S
C110 C114 1.381 . S
C110 H116 0.931 . S
N111 Cd108 2.334 . S
N111 C110 1.332 . S
N111 C115 1.328 . S
C112 C113 1.396 . S
C112 C115 1.378 . S
C112 H154 0.931 . S
C113 C112 1.396 . S
C113 C114 1.382 . S
C114 C110 1.381 . S
C114 C113 1.382 . S
C114 H155 0.930 . S
C115 N111 1.328 . S
C115 C112 1.378 . S
C115 H117 0.930 . S
H116 C110 0.931 . S
H117 C115 0.930 . S
C118 O144 1.238 . S
C118 O145 1.253 . S
C119 C120 1.379 . S
C119 N124 1.337 . S
C119 H125 0.929 . S
C120 C119 1.379 . S
C120 C121 1.380 . S
C120 H156 0.929 . S
C121 C120 1.380 . S
C121 C122 1.399 . S
C122 C121 1.399 . S
C122 C123 1.376 . S
C122 H157 0.931 . S
C123 C122 1.376 . S
C123 N124 1.338 . S
C123 H126 0.930 . S
N124 Cd109 2.304 . S
N124 C119 1.337 . S
N124 C123 1.338 . S
H125 C119 0.929 . S
H126 C123 0.930 . S
C127 N128 1.332 . S
C127 C131 1.381 . S
C127 H133 0.931 . S
N128 Cd109 2.334 . S
N128 C127 1.332 . S
N128 C132 1.328 . S
C129 C130 1.396 . S
C129 C132 1.378 . S
C129 H158 0.931 . S
C130 C129 1.396 . S
C130 C131 1.382 . S
C131 C127 1.381 . S
C131 C130 1.382 . S
C131 H159 0.930 . S
C132 N128 1.328 . S
C132 C129 1.378 . S
C132 H134 0.930 . S
H133 C127 0.931 . S
H134 C132 0.930 . S
C135 O146 1.238 . S
C135 O147 1.253 . S
C136 O148 1.239 . S
C136 O149 1.230 . S
N137 Cd108 2.304 . S
N137 C138 1.337 . S
N137 C142 1.338 . S
C138 N137 1.337 . S
C138 C139 1.379 . S
C138 H152 0.929 . S
C139 C138 1.379 . S
C139 C140 1.380 . S
C139 H160 0.929 . S
C140 C139 1.380 . S
C140 C141 1.399 . S
C141 C140 1.399 . S
C141 C142 1.376 . S
C141 H161 0.931 . S
C142 N137 1.338 . S
C142 C141 1.376 . S
C142 H153 0.930 . S
C143 O150 1.239 . S
C143 O151 1.230 . S
O144 Cd108 2.268 . S
O144 C118 1.238 . S
O145 Cd109 2.273 . S
O145 C118 1.253 . S
O146 Cd109 2.268 . S
O146 C135 1.238 . S
O147 Cd108 2.273 . S
O147 C135 1.253 . S
O148 Cd108 2.417 . S
O148 C136 1.239 . S
O149 Cd108 2.330 . S
O149 C136 1.230 . S
O150 Cd109 2.417 1_545 S
O150 C143 1.239 . S
O151 Cd109 2.330 1_545 S
O151 C143 1.230 . S
H152 C138 0.929 . S
H153 C142 0.930 . S
H154 C112 0.931 . S
H155 C114 0.930 . S
H156 C120 0.929 . S
H157 C122 0.931 . S
H158 C129 0.931 . S
H159 C131 0.930 . S
H160 C139 0.929 . S
H161 C141 0.931 . S
Cd162 N165 2.334 . S
Cd162 N191 2.304 . S
Cd162 O198 2.268 . S
Cd162 O201 2.273 . S
Cd162 O202 2.417 . S
Cd162 O203 2.330 . S
Cd163 N178 2.304 . S
Cd163 N182 2.334 . S
Cd163 O199 2.273 . S
Cd163 O200 2.268 . S
Cd163 O204 2.417 . S
Cd163 O205 2.330 . S
C164 N165 1.332 . S
C164 C168 1.381 . S
C164 H170 0.931 . S
N165 Cd162 2.334 . S
N165 C164 1.332 . S
N165 C169 1.328 . S
C166 C167 1.396 . S
C166 C169 1.378 . S
C166 H208 0.931 . S
C167 C166 1.396 . S
C167 C168 1.382 . S
C168 C164 1.381 . S
C168 C167 1.382 . S
C168 H209 0.930 . S
C169 N165 1.328 . S
C169 C166 1.378 . S
C169 H171 0.930 . S
H170 C164 0.931 . S
H171 C169 0.930 . S
C172 O198 1.238 . S
C172 O199 1.253 . S
C173 C174 1.379 . S
C173 N178 1.337 . S
C173 H179 0.929 . S
C174 C173 1.379 . S
C174 C175 1.380 . S
C174 H210 0.929 . S
C175 C174 1.380 . S
C175 C176 1.399 . S
C176 C175 1.399 . S
C176 C177 1.376 . S
C176 H211 0.931 . S
C177 C176 1.376 . S
C177 N178 1.338 . S
C177 H180 0.930 . S
N178 Cd163 2.304 . S
N178 C173 1.337 . S
N178 C177 1.338 . S
H179 C173 0.929 . S
H180 C177 0.930 . S
C181 N182 1.332 . S
C181 C185 1.381 . S
C181 H187 0.931 . S
N182 Cd163 2.334 . S
N182 C181 1.332 . S
N182 C186 1.328 . S
C183 C184 1.396 . S
C183 C186 1.378 . S
C183 H212 0.931 . S
C184 C183 1.396 . S
C184 C185 1.382 . S
C185 C181 1.381 . S
C185 C184 1.382 . S
C185 H213 0.930 . S
C186 N182 1.328 . S
C186 C183 1.378 . S
C186 H188 0.930 . S
H187 C181 0.931 . S
H188 C186 0.930 . S
C189 O200 1.238 . S
C189 O201 1.253 . S
C190 O202 1.239 . S
C190 O203 1.230 . S
N191 Cd162 2.304 . S
N191 C192 1.337 . S
N191 C196 1.338 . S
C192 N191 1.337 . S
C192 C193 1.379 . S
C192 H206 0.929 . S
C193 C192 1.379 . S
C193 C194 1.380 . S
C193 H214 0.929 . S
C194 C193 1.380 . S
C194 C195 1.399 . S
C195 C194 1.399 . S
C195 C196 1.376 . S
C195 H215 0.931 . S
C196 N191 1.338 . S
C196 C195 1.376 . S
C196 H207 0.930 . S
C197 O204 1.239 . S
C197 O205 1.230 . S
O198 Cd162 2.268 . S
O198 C172 1.238 . S
O199 Cd163 2.273 . S
O199 C172 1.253 . S
O200 Cd163 2.268 . S
O200 C189 1.238 . S
O201 Cd162 2.273 . S
O201 C189 1.253 . S
O202 Cd162 2.417 . S
O202 C190 1.239 . S
O203 Cd162 2.330 . S
O203 C190 1.230 . S
O204 Cd163 2.417 . S
O204 C197 1.239 . S
O205 Cd163 2.330 . S
O205 C197 1.230 . S
H206 C192 0.929 . S
H207 C196 0.930 . S
H208 C166 0.931 . S
H209 C168 0.930 . S
H210 C174 0.929 . S
H211 C176 0.931 . S
H212 C183 0.931 . S
H213 C185 0.930 . S
H214 C193 0.929 . S
H215 C195 0.931 . S
C216 C217 1.363 . S
C216 C222 1.379 . S
C216 N224 1.356 1_655 S
C217 C216 1.363 . S
C217 C223 1.363 . S
C218 C219 1.363 . S
C218 C223 1.379 . S
C218 N225 1.356 . S
C219 C218 1.363 . S
C219 C222 1.363 . S
N220 C222 1.356 . S
N220 H232 0.984 1_655 S
N220 H233 0.985 . S
N221 C223 1.356 . S
N221 H226 0.984 . S
N221 H227 0.985 . S
C222 C216 1.379 . S
C222 C219 1.363 . S
C222 N220 1.356 . S
C223 C217 1.363 . S
C223 C218 1.379 . S
C223 N221 1.356 . S
N224 C216 1.356 1_455 S
N224 H230 0.984 . S
N224 H231 0.984 . S
N225 C218 1.356 . S
N225 H228 0.984 . S
N225 H229 0.985 . S
H226 N221 0.984 . S
H227 N221 0.985 . S
H228 N225 0.984 . S
H229 N225 0.985 . S
H230 N224 0.984 . S
H231 N224 0.984 . S
H232 N220 0.984 1_455 S
H233 N220 0.985 . S
C234 C235 1.363 . S
C234 C240 1.379 . S
C234 N242 1.356 . S
C235 C234 1.363 . S
C235 C241 1.363 . S
C236 C237 1.363 . S
C236 C241 1.379 . S
C236 N243 1.356 . S
C237 C236 1.363 . S
C237 C240 1.363 . S
N238 C240 1.356 . S
N238 H250 0.984 . S
N238 H251 0.985 . S
N239 C241 1.356 . S
N239 H244 0.984 . S
N239 H245 0.985 . S
C240 C234 1.379 . S
C240 C237 1.363 . S
C240 N238 1.356 . S
C241 C235 1.363 . S
C241 C236 1.379 . S
C241 N239 1.356 . S
N242 C234 1.356 . S
N242 H248 0.984 . S
N242 H249 0.984 . S
N243 C236 1.356 . S
N243 H246 0.984 . S
N243 H247 0.985 . S
H244 N239 0.984 . S
H245 N239 0.985 . S
H246 N243 0.984 . S
H247 N243 0.985 . S
H248 N242 0.984 . S
H249 N242 0.984 . S
H250 N238 0.984 . S
H251 N238 0.985 . S
C252 C253 1.363 . S
C252 C258 1.379 1_556 S
C252 N260 1.356 . S
C253 C252 1.363 . S
C253 C259 1.363 . S
C254 C255 1.363 . S
C254 C259 1.379 1_554 S
C254 N261 1.356 . S
C255 C254 1.363 . S
C255 C258 1.363 . S
N256 C258 1.356 . S
N256 H268 0.984 . S
N256 H269 0.985 . S
N257 C259 1.356 . S
N257 H262 0.984 . S
N257 H263 0.985 . S
C258 C252 1.379 1_554 S
C258 C255 1.363 . S
C258 N256 1.356 . S
C259 C253 1.363 . S
C259 C254 1.379 1_556 S
C259 N257 1.356 . S
N260 C252 1.356 . S
N260 H266 0.984 . S
N260 H267 0.984 . S
N261 C254 1.356 . S
N261 H264 0.984 . S
N261 H265 0.985 . S
H262 N257 0.984 . S
H263 N257 0.985 . S
H264 N261 0.984 . S
H265 N261 0.985 . S
H266 N260 0.984 . S
H267 N260 0.984 . S
H268 N256 0.984 . S
H269 N256 0.985 . S
C270 C271 1.363 . S
C270 C276 1.379 . S
C270 N278 1.356 . S
C271 C270 1.363 . S
C271 C277 1.363 . S
C272 C273 1.363 . S
C272 C277 1.379 . S
C272 N279 1.356 . S
C273 C272 1.363 . S
C273 C276 1.363 . S
N274 C276 1.356 . S
N274 H286 0.984 . S
N274 H287 0.985 . S
N275 C277 1.356 . S
N275 H280 0.984 1_655 S
N275 H281 0.985 1_655 S
C276 C270 1.379 . S
C276 C273 1.363 . S
C276 N274 1.356 . S
C277 C271 1.363 . S
C277 C272 1.379 . S
C277 N275 1.356 . S
N278 C270 1.356 . S
N278 H284 0.984 . S
N278 H285 0.984 . S
N279 C272 1.356 . S
N279 H282 0.984 . S
N279 H283 0.985 . S
H280 N275 0.984 1_455 S
H281 N275 0.985 1_455 S
H282 N279 0.984 . S
H283 N279 0.985 . S
H284 N278 0.984 . S
H285 N278 0.984 . S
H286 N274 0.984 . S
H287 N274 0.985 . S
C288 C289 1.363 . S
C288 C294 1.379 . S
C288 N296 1.356 . S
C289 C288 1.363 . S
C289 C295 1.363 . S
C290 C291 1.363 . S
C290 C295 1.379 . S
C290 N297 1.356 . S
C291 C290 1.363 . S
C291 C294 1.363 . S
N292 C294 1.356 1_655 S
N292 H304 0.984 . S
N292 H305 0.985 . S
N293 C295 1.356 . S
N293 H298 0.984 . S
N293 H299 0.985 . S
C294 C288 1.379 . S
C294 C291 1.363 . S
C294 N292 1.356 1_455 S
C295 C289 1.363 . S
C295 C290 1.379 . S
C295 N293 1.356 . S
N296 C288 1.356 . S
N296 H302 0.984 . S
N296 H303 0.984 . S
N297 C290 1.356 . S
N297 H300 0.984 . S
N297 H301 0.985 . S
H298 N293 0.984 . S
H299 N293 0.985 . S
H300 N297 0.984 . S
H301 N297 0.985 . S
H302 N296 0.984 . S
H303 N296 0.984 . S
H304 N292 0.984 . S
H305 N292 0.985 . S
C306 C307 1.363 . S
C306 C312 1.379 . S
C306 N314 1.356 . S
C307 C306 1.363 . S
C307 C313 1.363 . S
C308 C309 1.363 . S
C308 C313 1.379 . S
C308 N315 1.356 . S
C309 C308 1.363 . S
C309 C312 1.363 . S
N310 C312 1.356 1_545 S
N310 H322 0.984 . S
N310 H323 0.985 . S
N311 C313 1.356 . S
N311 H316 0.984 . S
N311 H317 0.985 . S
C312 C306 1.379 . S
C312 C309 1.363 . S
C312 N310 1.356 1_565 S
C313 C307 1.363 . S
C313 C308 1.379 . S
C313 N311 1.356 . S
N314 C306 1.356 . S
N314 H320 0.984 1_565 S
N314 H321 0.984 . S
N315 C308 1.356 . S
N315 H318 0.984 . S
N315 H319 0.985 . S
H316 N311 0.984 . S
H317 N311 0.985 . S
H318 N315 0.984 . S
H319 N315 0.985 . S
H320 N314 0.984 1_545 S
H321 N314 0.984 . S
H322 N310 0.984 . S
H323 N310 0.985 . S
C324 C325 1.363 1_545 S
C324 C330 1.379 . S
C324 N332 1.356 . S
C325 C324 1.363 1_565 S
C325 C331 1.363 1_556 S
C326 C327 1.363 . S
C326 C331 1.379 1_545 S
C326 N333 1.356 . S
C327 C326 1.363 . S
C327 C330 1.363 1_554 S
N328 C330 1.356 . S
N328 H340 0.984 . S
N328 H341 0.985 1_556 S
N329 C331 1.356 . S
N329 H334 0.984 1_554 S
N329 H335 0.985 . S
C330 C324 1.379 . S
C330 C327 1.363 1_556 S
C330 N328 1.356 . S
C331 C325 1.363 1_554 S
C331 C326 1.379 1_565 S
C331 N329 1.356 . S
N332 C324 1.356 . S
N332 H338 0.984 . S
N332 H339 0.984 . S
N333 C326 1.356 . S
N333 H336 0.984 . S
N333 H337 0.985 1_545 S
H334 N329 0.984 1_556 S
H335 N329 0.985 . S
H336 N333 0.984 . S
H337 N333 0.985 1_565 S
H338 N332 0.984 . S
H339 N332 0.984 . S
H340 N328 0.984 . S
H341 N328 0.985 1_554 S
C342 C343 1.363 . S
C342 C348 1.379 1_545 S
C342 N350 1.356 . S
C343 C342 1.363 . S
C343 C349 1.363 1_545 S
C344 C345 1.363 . S
C344 C349 1.379 . S
C344 N351 1.356 . S
C345 C344 1.363 . S
C345 C348 1.363 . S
N346 C348 1.356 . S
N346 H358 0.984 1_565 S
N346 H359 0.985 . S
N347 C349 1.356 1_655 S
N347 H352 0.984 . S
N347 H353 0.985 . S
C348 C342 1.379 1_565 S
C348 C345 1.363 . S
C348 N346 1.356 . S
C349 C343 1.363 1_565 S
C349 C344 1.379 . S
C349 N347 1.356 1_455 S
N350 C342 1.356 . S
N350 H356 0.984 . S
N350 H357 0.984 . S
N351 C344 1.356 . S
N351 H354 0.984 . S
N351 H355 0.985 1_455 S
H352 N347 0.984 . S
H353 N347 0.985 . S
H354 N351 0.984 . S
H355 N351 0.985 1_655 S
H356 N350 0.984 . S
H357 N350 0.984 . S
H358 N346 0.984 1_545 S
H359 N346 0.985 . S
C360 C361 1.363 . S
C360 C366 1.379 . S
C360 N368 1.356 . S
C361 C360 1.363 . S
C361 C367 1.363 1_455 S
C362 C363 1.363 . S
C362 C367 1.379 . S
C362 N369 1.356 . S
C363 C362 1.363 . S
C363 C366 1.363 1_655 S
N364 C366 1.356 . S
N364 H376 0.984 . S
N364 H377 0.985 . S
N365 C367 1.356 . S
N365 H370 0.984 . S
N365 H371 0.985 . S
C366 C360 1.379 . S
C366 C363 1.363 1_455 S
C366 N364 1.356 . S
C367 C361 1.363 1_655 S
C367 C362 1.379 . S
C367 N365 1.356 . S
N368 C360 1.356 . S
N368 H374 0.984 . S
N368 H375 0.984 . S
N369 C362 1.356 . S
N369 H372 0.984 . S
N369 H373 0.985 . S
H370 N365 0.984 . S
H371 N365 0.985 . S
H372 N369 0.984 . S
H373 N369 0.985 . S
H374 N368 0.984 . S
H375 N368 0.984 . S
H376 N364 0.984 . S
H377 N364 0.985 . S
C378 C379 1.363 . S
C378 C384 1.379 . S
C378 N386 1.356 . S
C379 C378 1.363 . S
C379 C385 1.363 . S
C380 C381 1.363 . S
C380 C385 1.379 . S
C380 N387 1.356 . S
C381 C380 1.363 . S
C381 C384 1.363 . S
N382 C384 1.356 . S
N382 H394 0.984 . S
N382 H395 0.985 . S
N383 C385 1.356 . S
N383 H388 0.984 . S
N383 H389 0.985 . S
C384 C378 1.379 . S
C384 C381 1.363 . S
C384 N382 1.356 . S
C385 C379 1.363 . S
C385 C380 1.379 . S
C385 N383 1.356 . S
N386 C378 1.356 . S
N386 H392 0.984 . S
N386 H393 0.984 . S
N387 C380 1.356 . S
N387 H390 0.984 . S
N387 H391 0.985 . S
H388 N383 0.984 . S
H389 N383 0.985 . S
H390 N387 0.984 . S
H391 N387 0.985 . S
H392 N386 0.984 . S
H393 N386 0.984 . S
H394 N382 0.984 . S
H395 N382 0.985 . S
C396 C397 1.363 . S
C396 C402 1.379 . S
C396 N404 1.356 . S
C397 C396 1.363 . S
C397 C403 1.363 . S
C398 C399 1.363 . S
C398 C403 1.379 . S
C398 N405 1.356 . S
C399 C398 1.363 . S
C399 C402 1.363 . S
N400 C402 1.356 . S
N400 H412 0.984 . S
N400 H413 0.985 . S
N401 C403 1.356 . S
N401 H406 0.984 . S
N401 H407 0.985 . S
C402 C396 1.379 . S
C402 C399 1.363 . S
C402 N400 1.356 . S
C403 C397 1.363 . S
C403 C398 1.379 . S
C403 N401 1.356 . S
N404 C396 1.356 . S
N404 H410 0.984 . S
N404 H411 0.984 . S
N405 C398 1.356 . S
N405 H408 0.984 . S
N405 H409 0.985 . S
H406 N401 0.984 . S
H407 N401 0.985 . S
H408 N405 0.984 . S
H409 N405 0.985 . S
H410 N404 0.984 . S
H411 N404 0.984 . S
H412 N400 0.984 . S
H413 N400 0.985 . S
C414 C415 1.363 . S
C414 C420 1.379 1_455 S
C414 N422 1.356 . S
C415 C414 1.363 . S
C415 C421 1.363 . S
C416 C417 1.363 . S
C416 C421 1.379 1_655 S
C416 N423 1.356 . S
C417 C416 1.363 . S
C417 C420 1.363 . S
N418 C420 1.356 . S
N418 H430 0.984 . S
N418 H431 0.985 . S
N419 C421 1.356 . S
N419 H424 0.984 . S
N419 H425 0.985 . S
C420 C414 1.379 1_655 S
C420 C417 1.363 . S
C420 N418 1.356 . S
C421 C415 1.363 . S
C421 C416 1.379 1_455 S
C421 N419 1.356 . S
N422 C414 1.356 . S
N422 H428 0.984 . S
N422 H429 0.984 . S
N423 C416 1.356 . S
N423 H426 0.984 . S
N423 H427 0.985 . S
H424 N419 0.984 . S
H425 N419 0.985 . S
H426 N423 0.984 . S
H427 N423 0.985 . S
H428 N422 0.984 . S
H429 N422 0.984 . S
H430 N418 0.984 . S
H431 N418 0.985 . S
C432 C433 1.363 . S
C432 C438 1.379 . S
C432 N440 1.356 . S
C433 C432 1.363 . S
C433 C439 1.363 1_655 S
C434 C435 1.363 . S
C434 C439 1.379 . S
C434 N441 1.356 . S
C435 C434 1.363 . S
C435 C438 1.363 1_455 S
N436 C438 1.356 . S
N436 H448 0.984 . S
N436 H449 0.985 . S
N437 C439 1.356 . S
N437 H442 0.984 . S
N437 H443 0.985 . S
C438 C432 1.379 . S
C438 C435 1.363 1_655 S
C438 N436 1.356 . S
C439 C433 1.363 1_455 S
C439 C434 1.379 . S
C439 N437 1.356 . S
N440 C432 1.356 . S
N440 H446 0.984 . S
N440 H447 0.984 . S
N441 C434 1.356 . S
N441 H444 0.984 . S
N441 H445 0.985 . S
H442 N437 0.984 . S
H443 N437 0.985 . S
H444 N441 0.984 . S
H445 N441 0.985 . S
H446 N440 0.984 . S
H447 N440 0.984 . S
H448 N436 0.984 . S
H449 N436 0.985 . S
C450 C451 1.363 . S
C450 C456 1.379 1_655 S
C450 N458 1.356 . S
C451 C450 1.363 . S
C451 C457 1.363 . S
C452 C453 1.363 . S
C452 C457 1.379 1_455 S
C452 N459 1.356 . S
C453 C452 1.363 . S
C453 C456 1.363 . S
N454 C456 1.356 . S
N454 H466 0.984 . S
N454 H467 0.985 . S
N455 C457 1.356 . S
N455 H460 0.984 . S
N455 H461 0.985 . S
C456 C450 1.379 1_455 S
C456 C453 1.363 . S
C456 N454 1.356 . S
C457 C451 1.363 . S
C457 C452 1.379 1_655 S
C457 N455 1.356 . S
N458 C450 1.356 . S
N458 H464 0.984 . S
N458 H465 0.984 . S
N459 C452 1.356 . S
N459 H462 0.984 . S
N459 H463 0.985 . S
H460 N455 0.984 . S
H461 N455 0.985 . S
H462 N459 0.984 . S
H463 N459 0.985 . S
H464 N458 0.984 . S
H465 N458 0.984 . S
H466 N454 0.984 . S
H467 N454 0.985 . S
C468 C469 1.363 . S
C468 C474 1.379 . S
C468 N476 1.356 . S
C469 C468 1.363 . S
C469 C475 1.363 . S
C470 C471 1.363 . S
C470 C475 1.379 . S
C470 N477 1.356 . S
C471 C470 1.363 . S
C471 C474 1.363 . S
N472 C474 1.356 . S
N472 H484 0.984 . S
N472 H485 0.985 . S
N473 C475 1.356 . S
N473 H478 0.984 . S
N473 H479 0.985 . S
C474 C468 1.379 . S
C474 C471 1.363 . S
C474 N472 1.356 . S
C475 C469 1.363 . S
C475 C470 1.379 . S
C475 N473 1.356 . S
N476 C468 1.356 . S
N476 H482 0.984 . S
N476 H483 0.984 . S
N477 C470 1.356 . S
N477 H480 0.984 . S
N477 H481 0.985 . S
H478 N473 0.984 . S
H479 N473 0.985 . S
H480 N477 0.984 . S
H481 N477 0.985 . S
H482 N476 0.984 . S
H483 N476 0.984 . S
H484 N472 0.984 . S
H485 N472 0.985 . S
C486 C487 1.363 . S
C486 C492 1.379 . S
C486 N494 1.356 . S
C487 C486 1.363 . S
C487 C493 1.363 . S
C488 C489 1.363 . S
C488 C493 1.379 . S
C488 N495 1.356 . S
C489 C488 1.363 . S
C489 C492 1.363 . S
N490 C492 1.356 . S
N490 H502 0.984 . S
N490 H503 0.985 . S
N491 C493 1.356 . S
N491 H496 0.984 . S
N491 H497 0.985 . S
C492 C486 1.379 . S
C492 C489 1.363 . S
C492 N490 1.356 . S
C493 C487 1.363 . S
C493 C488 1.379 . S
C493 N491 1.356 . S
N494 C486 1.356 . S
N494 H500 0.984 . S
N494 H501 0.984 . S
N495 C488 1.356 . S
N495 H498 0.984 . S
N495 H499 0.985 . S
H496 N491 0.984 . S
H497 N491 0.985 . S
H498 N495 0.984 . S
H499 N495 0.985 . S
H500 N494 0.984 . S
H501 N494 0.984 . S
H502 N490 0.984 . S
H503 N490 0.985 . S
C217 C13 2.094 . S
C219 C76 2.100 . S
C235 C113 2.100 . S
C237 C67 2.095 . S
C253 C140 2.095 . S
C255 C167 2.100 . S
C271 C22 2.100 . S
C273 C194 2.095 . S
C289 C175 2.095 . S
C291 C5 2.099 . S
C307 C86 2.095 . S
C309 C130 2.099 . S
C325 C121 2.095 . S
C327 C184 2.100 . S
C343 C32 2.094 . S
C345 C59 2.100 . S
C361 C28 0.021 . S
C363 C35 0.021 . S
C379 C82 0.021 . S
C381 C89 0.021 . S
C397 C136 0.021 . S
C399 C143 0.021 . S
C415 C197 0.021 . S
C417 C190 0.021 . S
C433 C81 2.131 1_645 S
C435 C64 2.131 1_455 S
C451 C135 2.131 . S
C453 C118 2.131 . S
C469 C189 2.131 . S
C471 C172 2.131 1_565 S
C487 C10 2.131 . S
C489 C27 2.131 . S
