# Generated by pormake.
# Topology uoc, (4)-cn, num edge types: 1
# Building blocks:
#     Node 0, Type 0, BuildingBlock: NAHDIM_clean_sbu_0, # of connection points: 4
#     Node 1, Type 0, BuildingBlock: NAHDIM_clean_sbu_0, # of connection points: 4
#     Node 2, Type 0, BuildingBlock: NAHDIM_clean_sbu_0, # of connection points: 4
#     Node 3, Type 0, BuildingBlock: NAHDIM_clean_sbu_0, # of connection points: 4
#     Node 4, Type 0, BuildingBlock: NAHDIM_clean_sbu_0, # of connection points: 4
#     Node 5, Type 0, BuildingBlock: NAHDIM_clean_sbu_0, # of connection points: 4
#     Node 6, Type 0, BuildingBlock: NAHDIM_clean_sbu_0, # of connection points: 4
#     Node 7, Type 0, BuildingBlock: NAHDIM_clean_sbu_0, # of connection points: 4
#     Edge 8, Type (0, 0), BuildingBlock: FUNLAD_clean_linker_0, # of connection points: 2
#     Edge 9, Type (0, 0), BuildingBlock: FUNLAD_clean_linker_0, # of connection points: 2
#     Edge 10, Type (0, 0), BuildingBlock: FUNLAD_clean_linker_0, # of connection points: 2
#     Edge 11, Type (0, 0), BuildingBlock: FUNLAD_clean_linker_0, # of connection points: 2
#     Edge 12, Type (0, 0), BuildingBlock: FUNLAD_clean_linker_0, # of connection points: 2
#     Edge 13, Type (0, 0), BuildingBlock: FUNLAD_clean_linker_0, # of connection points: 2
#     Edge 14, Type (0, 0), BuildingBlock: FUNLAD_clean_linker_0, # of connection points: 2
#     Edge 15, Type (0, 0), BuildingBlock: FUNLAD_clean_linker_0, # of connection points: 2
#     Edge 16, Type (0, 0), BuildingBlock: FUNLAD_clean_linker_0, # of connection points: 2
#     Edge 17, Type (0, 0), BuildingBlock: FUNLAD_clean_linker_0, # of connection points: 2
#     Edge 18, Type (0, 0), BuildingBlock: FUNLAD_clean_linker_0, # of connection points: 2
#     Edge 19, Type (0, 0), BuildingBlock: FUNLAD_clean_linker_0, # of connection points: 2
#     Edge 20, Type (0, 0), BuildingBlock: FUNLAD_clean_linker_0, # of connection points: 2
#     Edge 21, Type (0, 0), BuildingBlock: FUNLAD_clean_linker_0, # of connection points: 2
#     Edge 22, Type (0, 0), BuildingBlock: FUNLAD_clean_linker_0, # of connection points: 2
#     Edge 23, Type (0, 0), BuildingBlock: FUNLAD_clean_linker_0, # of connection points: 2
# Relax obj value: 0.202
# Max RMSD: 0.199
# Mean RMSD: 0.199
data_MOF--net-uoc--node1-NAHDIM_clean_sbu_0--edge1-FUNLAD_clean_linker_0
_symmetry_space_group_name_H-M    P1
_symmetry_Int_Tables_number       1
_symmetry_cell_setting            triclinic
loop_
_symmetry_equiv_pos_as_xyz
'x, y, z'
_cell_length_a     31.509812
_cell_length_b     31.172703
_cell_length_c     61.622189
_cell_angle_alpha  90.179399
_cell_angle_beta   90.253362
_cell_angle_gamma 94.44535
loop_
_atom_site_label
_atom_site_type_symbol
_atom_site_fract_x
_atom_site_fract_y
_atom_site_fract_z
_atom_type_partial_charge
C0 C 0.07593 0.31956 0.11671 0.0
O1 O 0.06226 0.29185 0.10166 0.0
O2 O 0.17498 0.26467 0.0968 0.0
Zn3 Zn 0.13872 0.25829 0.12357 0.0
O4 O 0.17593 0.25053 0.14958 0.0
C5 C 0.10319 0.17619 0.10742 0.0
O6 O 0.13874 0.17836 0.09628 0.0
O7 O 0.10795 0.31168 0.12821 0.0
C8 C 0.18022 0.21438 0.15848 0.0
O9 O 0.16028 0.17947 0.15024 0.0
C10 C 0.18077 0.29913 0.08587 0.0
O11 O 0.1633 0.33386 0.0923 0.0
O12 O 0.096 0.2069 0.12018 0.0
C13 C 0.85992 0.59722 0.35451 0.0
O14 O 0.85973 0.63467 0.3448 0.0
O15 O 0.78486 0.66074 0.38873 0.0
Zn16 Zn 0.77557 0.61684 0.36498 0.0
O17 O 0.76883 0.64514 0.33606 0.0
C18 C 0.68839 0.59607 0.37552 0.0
O19 O 0.68851 0.63823 0.37522 0.0
O20 O 0.82655 0.58211 0.36421 0.0
C21 C 0.74881 0.62466 0.32084 0.0
O22 O 0.73208 0.58544 0.32448 0.0
C23 C 0.78078 0.70073 0.38658 0.0
O24 O 0.77002 0.71571 0.3676 0.0
O25 O 0.72279 0.57876 0.37164 0.0
C26 C 0.41031 0.20099 0.59092 0.0
O27 O 0.39844 0.2198 0.57308 0.0
O28 O 0.31087 0.2537 0.59219 0.0
Zn29 Zn 0.36138 0.26402 0.61202 0.0
O30 O 0.34339 0.26722 0.643 0.0
C31 C 0.37373 0.35051 0.59627 0.0
O32 O 0.33247 0.34445 0.593 0.0
O33 O 0.39898 0.21516 0.60919 0.0
C34 C 0.31454 0.29008 0.64983 0.0
O35 O 0.29368 0.31259 0.63595 0.0
C36 C 0.29516 0.21665 0.58638 0.0
O37 O 0.31071 0.18222 0.5945 0.0
O38 O 0.39355 0.32007 0.60413 0.0
C39 C 0.62851 0.89816 0.85076 0.0
O40 O 0.62118 0.85828 0.85743 0.0
O41 O 0.70975 0.84585 0.87765 0.0
Zn42 Zn 0.71317 0.87234 0.84808 0.0
O43 O 0.70712 0.82854 0.82405 0.0
C44 C 0.80149 0.89697 0.85582 0.0
O45 O 0.79919 0.86045 0.8665 0.0
O46 O 0.6661 0.91161 0.84547 0.0
C47 C 0.73839 0.81317 0.81459 0.0
O48 O 0.77729 0.82449 0.82128 0.0
C49 C 0.70186 0.80641 0.88232 0.0
O50 O 0.69461 0.778 0.86669 0.0
O51 O 0.76863 0.90836 0.84604 0.0
C52 C 0.60145 0.86879 0.59926 0.0
O53 O 0.64097 0.86778 0.60602 0.0
O54 O 0.65565 0.78978 0.5655 0.0
Zn55 Zn 0.61572 0.78235 0.59067 0.0
O56 O 0.64543 0.77728 0.61931 0.0
C57 C 0.593 0.69567 0.57789 0.0
O58 O 0.63272 0.69919 0.57132 0.0
O59 O 0.58217 0.83453 0.59178 0.0
C60 C 0.67512 0.75338 0.62383 0.0
O61 O 0.69095 0.73004 0.60851 0.0
C62 C 0.69478 0.80317 0.56559 0.0
O63 O 0.71413 0.81335 0.58403 0.0
O64 O 0.57747 0.72818 0.5864 0.0
C65 C 0.3202 0.12111 0.86152 0.0
O66 O 0.32835 0.16053 0.86884 0.0
O67 O 0.23751 0.16602 0.89344 0.0
Zn68 Zn 0.23373 0.14435 0.86283 0.0
O69 O 0.2371 0.19252 0.84115 0.0
C70 C 0.1458 0.11487 0.86915 0.0
O71 O 0.14614 0.14922 0.88158 0.0
O72 O 0.28192 0.10741 0.85764 0.0
C73 C 0.20488 0.20484 0.83113 0.0
O74 O 0.16686 0.18688 0.83558 0.0
C75 C 0.25233 0.20324 0.89943 0.0
O76 O 0.26646 0.23137 0.88482 0.0
O77 O 0.17953 0.10677 0.85923 0.0
C78 C 0.9079 0.6664 0.11674 0.0
O79 O 0.89815 0.68252 0.13563 0.0
O80 O 0.82407 0.73491 0.07349 0.0
Zn81 Zn 0.86291 0.73694 0.09959 0.0
O82 O 0.82814 0.73653 0.12673 0.0
C83 C 0.88635 0.82729 0.09785 0.0
O84 O 0.84477 0.82853 0.09727 0.0
O85 O 0.89717 0.685 0.09947 0.0
C86 C 0.7991 0.70665 0.12988 0.0
O87 O 0.79131 0.67718 0.11479 0.0
C88 C 0.82158 0.70323 0.06037 0.0
O89 O 0.84461 0.67059 0.06393 0.0
O90 O 0.90205 0.791 0.09882 0.0
C91 C 0.18516 0.40772 0.38636 0.0
O92 O 0.20156 0.40283 0.40575 0.0
O93 O 0.24468 0.32302 0.40136 0.0
Zn94 Zn 0.2538 0.3578 0.3742 0.0
O95 O 0.25834 0.31948 0.34817 0.0
C96 C 0.33777 0.3904 0.38868 0.0
O97 O 0.33594 0.3543 0.39971 0.0
O98 O 0.20274 0.39168 0.37003 0.0
C99 C 0.29323 0.31346 0.33878 0.0
O100 O 0.32898 0.33198 0.34656 0.0
C101 C 0.24482 0.28237 0.40267 0.0
O102 O 0.25261 0.25982 0.3853 0.0
O103 O 0.30626 0.39875 0.3769 0.0
C104 C 0.22733 0.26394 0.05964 0.0
C105 C 0.20305 0.29841 0.06486 0.0
C106 C 0.24396 0.26013 0.03885 0.0
C107 C 0.23585 0.29028 0.02268 0.0
C108 C 0.21417 0.32633 0.02836 0.0
C109 C 0.19789 0.33041 0.04928 0.0
C110 C 0.24695 0.28364 -0.00044 0.0
C111 C 0.24872 0.244 -0.00902 0.0
C112 C 0.25199 0.23491 0.96741 0.0
C113 C 0.23885 0.1933 0.96011 0.0
C114 C 0.23925 0.18314 0.9381 0.0
C115 C 0.25317 0.21434 0.92277 0.0
H116 H 0.27848 0.29813 0.95715 0.0
C117 C 0.26745 0.25578 0.93003 0.0
C118 C 0.26696 0.26602 0.95216 0.0
H119 H 0.27877 0.28039 0.91862 0.0
H120 H 0.23268 0.23929 0.07148 0.0
H121 H 0.26232 0.23298 0.03543 0.0
H122 H 0.20802 0.35037 0.01632 0.0
H123 H 0.17962 0.35757 0.05289 0.0
H124 H 0.24859 0.31157 -0.01095 0.0
H125 H 0.24329 0.21615 0.00142 0.0
H126 H 0.22743 0.16859 0.97146 0.0
H127 H 0.22831 0.15079 0.93312 0.0
C128 C 0.72707 0.61988 0.28175 0.0
C129 C 0.7472 0.64344 0.29888 0.0
C130 C 0.72867 0.63597 0.26061 0.0
C131 C 0.75026 0.67623 0.25618 0.0
C132 C 0.76929 0.70024 0.27345 0.0
C133 C 0.76767 0.68415 0.29458 0.0
C134 C 0.75738 0.69235 0.23372 0.0
C135 C 0.73418 0.67803 0.21636 0.0
C136 C 0.7468 0.68895 0.19373 0.0
C137 C 0.73555 0.65915 0.17716 0.0
C138 C 0.75116 0.66565 0.15615 0.0
C139 C 0.77815 0.70232 0.15126 0.0
H140 H 0.77934 0.75171 0.20054 0.0
C141 C 0.78714 0.73352 0.16749 0.0
C142 C 0.77148 0.72705 0.18848 0.0
H143 H 0.8072 0.76253 0.16414 0.0
H144 H 0.71111 0.58835 0.28453 0.0
H145 H 0.71451 0.61575 0.24782 0.0
H146 H 0.78635 0.7312 0.27052 0.0
H147 H 0.78345 0.70318 0.30742 0.0
H148 H 0.78456 0.71545 0.23144 0.0
H149 H 0.70709 0.65479 0.21849 0.0
H150 H 0.71613 0.6298 0.18069 0.0
H151 H 0.74329 0.64118 0.14396 0.0
C152 C 0.26369 0.17664 0.55417 0.0
C153 C 0.26564 0.21311 0.56771 0.0
C154 C 0.24311 0.17725 0.53403 0.0
C155 C 0.22388 0.21425 0.52728 0.0
C156 C 0.22222 0.24885 0.54178 0.0
C157 C 0.24328 0.24851 0.56172 0.0
C158 C 0.20985 0.22037 0.5046 0.0
C159 C 0.23101 0.20536 0.48757 0.0
C160 C 0.22859 0.2235 0.46539 0.0
C161 C 0.24165 0.19949 0.44764 0.0
C162 C 0.24567 0.21802 0.42702 0.0
C163 C 0.23736 0.26121 0.42388 0.0
H164 H 0.21026 0.28658 0.4753 0.0
C165 C 0.22327 0.28487 0.44152 0.0
C166 C 0.21898 0.26634 0.46202 0.0
H167 H 0.21653 0.31822 0.43964 0.0
H168 H 0.28036 0.14874 0.55846 0.0
H169 H 0.24378 0.1495 0.52347 0.0
H170 H 0.20721 0.27754 0.53705 0.0
H171 H 0.2438 0.27684 0.57198 0.0
H172 H 0.18618 0.24335 0.50192 0.0
H173 H 0.2545 0.18216 0.4902 0.0
H174 H 0.24981 0.16665 0.44984 0.0
H175 H 0.25661 0.19896 0.41374 0.0
C176 C 0.76512 0.77982 0.78072 0.0
C177 C 0.73103 0.78801 0.79437 0.0
C178 C 0.75746 0.76229 0.76002 0.0
C179 C 0.71543 0.75259 0.75261 0.0
C180 C 0.68171 0.75768 0.76698 0.0
C181 C 0.68934 0.77533 0.78758 0.0
C182 C 0.70452 0.74124 0.72969 0.0
C183 C 0.73186 0.74584 0.71294 0.0
C184 C 0.7165 0.74579 0.69017 0.0
C185 C 0.74123 0.73004 0.67347 0.0
C186 C 0.72776 0.73194 0.65181 0.0
C187 C 0.68987 0.75067 0.64653 0.0
H188 H 0.65961 0.77843 0.69718 0.0
C189 C 0.66559 0.76698 0.66327 0.0
C190 C 0.67868 0.76453 0.68481 0.0
H191 H 0.63631 0.78172 0.65978 0.0
H192 H 0.79768 0.78873 0.78562 0.0
H193 H 0.78457 0.75779 0.74982 0.0
H194 H 0.64902 0.75007 0.76187 0.0
H195 H 0.66237 0.78062 0.79782 0.0
H196 H 0.67108 0.7328 0.72611 0.0
H197 H 0.76576 0.75233 0.71562 0.0
H198 H 0.77086 0.71614 0.67719 0.0
H199 H 0.74724 0.71933 0.63922 0.0
C200 C 0.25504 0.26723 0.31062 0.0
C201 C 0.29266 0.28995 0.31792 0.0
C202 C 0.25245 0.24982 0.28974 0.0
C203 C 0.28756 0.25468 0.27567 0.0
C204 C 0.32575 0.27572 0.28332 0.0
C205 C 0.32842 0.29291 0.30431 0.0
C206 C 0.28339 0.24377 0.25226 0.0
C207 C 0.25301 0.2152 0.24428 0.0
C208 C 0.2407 0.21319 0.22101 0.0
C209 C 0.21777 0.17605 0.21298 0.0
C210 C 0.1998 0.17559 0.19219 0.0
C211 C 0.20387 0.2126 0.17917 0.0
H212 H 0.26284 0.27923 0.21325 0.0
C213 C 0.22824 0.24919 0.18685 0.0
C214 C 0.24643 0.24954 0.20753 0.0
H215 H 0.23204 0.2782 0.17719 0.0
H216 H 0.22695 0.2643 0.32075 0.0
H217 H 0.22207 0.23488 0.28437 0.0
H218 H 0.35314 0.28023 0.27277 0.0
H219 H 0.35789 0.31023 0.30946 0.0
H220 H 0.30463 0.26187 0.24118 0.0
H221 H 0.23464 0.19398 0.25529 0.0
H222 H 0.21254 0.14777 0.22309 0.0
H223 H 0.18118 0.14689 0.18673 0.0
C224 C 0.69537 0.80453 0.52524 0.0
C225 C 0.71816 0.80532 0.54488 0.0
C226 C 0.71639 0.80224 0.50549 0.0
C227 C 0.76087 0.80065 0.50489 0.0
C228 C 0.78386 0.80276 0.52451 0.0
C229 C 0.76274 0.80554 0.54435 0.0
C230 C 0.78272 0.79066 0.48441 0.0
C231 C 0.76681 0.79944 0.46473 0.0
C232 C 0.77854 0.77753 0.44443 0.0
C233 C 0.76604 0.79415 0.42443 0.0
C234 C 0.76884 0.77022 0.40533 0.0
C235 C 0.78374 0.72893 0.40594 0.0
H236 H 0.80497 0.72262 0.4598 0.0
C237 C 0.79842 0.71329 0.42573 0.0
C238 C 0.79582 0.73723 0.44477 0.0
H239 H 0.81031 0.68166 0.42672 0.0
H240 H 0.66097 0.80445 0.5251 0.0
H241 H 0.69724 0.79933 0.49087 0.0
H242 H 0.81807 0.80102 0.5245 0.0
H243 H 0.78111 0.806 0.55926 0.0
H244 H 0.81087 0.77283 0.48571 0.0
H245 H 0.74143 0.82102 0.46354 0.0
H246 H 0.75233 0.82494 0.42371 0.0
H247 H 0.7574 0.78323 0.39031 0.0
C248 C 0.27106 0.3132 0.68124 0.0
C249 C 0.3051 0.29124 0.67328 0.0
C250 C 0.2619 0.31303 0.70345 0.0
C251 C 0.28671 0.29081 0.71806 0.0
C252 C 0.32143 0.27009 0.7101 0.0
C253 C 0.33042 0.27008 0.688 0.0
C254 C 0.27728 0.28712 0.74158 0.0
C255 C 0.23844 0.29052 0.75018 0.0
C256 C 0.22827 0.27626 0.77266 0.0
C257 C 0.18725 0.25773 0.77714 0.0
C258 C 0.17873 0.23668 0.79681 0.0
C259 C 0.21118 0.23389 0.81234 0.0
H260 H 0.29093 0.29289 0.78663 0.0
C261 C 0.25112 0.2558 0.80866 0.0
C262 C 0.25951 0.27712 0.78909 0.0
H263 H 0.27647 0.25511 0.82056 0.0
H264 H 0.25126 0.3302 0.67031 0.0
H265 H 0.23556 0.33037 0.70903 0.0
H266 H 0.34124 0.25295 0.72098 0.0
H267 H 0.35715 0.25319 0.68246 0.0
H268 H 0.30241 0.27598 0.75174 0.0
H269 H 0.21208 0.29785 0.73978 0.0
H270 H 0.16242 0.25721 0.7649 0.0
H271 H 0.14745 0.22052 0.79928 0.0
C272 C 0.76601 0.7358 0.03804 0.0
C273 C 0.7956 0.70469 0.04042 0.0
C274 C 0.74424 0.73971 0.01845 0.0
C275 C 0.75233 0.71312 0.00064 0.0
C276 C 0.78008 0.68044 0.0035 0.0
C277 C 0.80148 0.6762 0.02318 0.0
C278 C 0.73468 0.71988 0.97858 0.0
C279 C 0.7218 0.758 0.97201 0.0
C280 C 0.71268 0.76859 0.94904 0.0
C281 C 0.71467 0.81217 0.94324 0.0
C282 C 0.71018 0.82426 0.92167 0.0
C283 C 0.70328 0.793 0.90529 0.0
H284 H 0.70063 0.70326 0.93663 0.0
C285 C 0.69929 0.74934 0.91111 0.0
C286 C 0.70383 0.73717 0.9328 0.0
H287 H 0.69342 0.72452 0.89889 0.0
H288 H 0.76009 0.75759 0.05123 0.0
H289 H 0.72164 0.76401 0.01737 0.0
H290 H 0.78655 0.65912 -0.00981 0.0
H291 H 0.8238 0.65161 0.02458 0.0
H292 H 0.73718 0.69419 0.96685 0.0
H293 H 0.72239 0.78457 0.98343 0.0
H294 H 0.72102 0.83712 0.95537 0.0
H295 H 0.71298 0.85824 0.91782 0.0
C296 C 0.08099 0.10369 0.09171 0.0
C297 C 0.07284 0.13761 0.10578 0.0
C298 C 0.0531 0.06665 0.09057 0.0
C299 C 0.01651 0.06255 0.10366 0.0
C300 C 0.00785 0.09691 0.11732 0.0
C301 C 0.03576 0.13397 0.11845 0.0
C302 C 0.98633 0.0234 0.10323 0.0
C303 C -0.00228 0.98424 0.09731 0.0
C304 C 0.96817 0.94463 0.09746 0.0
C305 C 0.98541 0.90447 0.09844 0.0
C306 C 0.95892 0.86639 0.09856 0.0
C307 C 0.91447 0.8676 0.09755 0.0
H308 H 0.90903 0.97596 0.09462 0.0
C309 C 0.89714 0.90773 0.09625 0.0
C310 C 0.92365 0.94584 0.09612 0.0
H311 H 0.86304 0.90979 0.09523 0.0
H312 H 0.10901 0.10566 0.08153 0.0
H313 H 0.06019 0.04166 0.07924 0.0
H314 H 0.97968 0.09485 0.1274 0.0
H315 H 0.0284 0.15961 0.12939 0.0
H316 H 0.95443 0.02679 0.10923 0.0
H317 H 0.03068 0.98025 0.09327 0.0
H318 H 0.01957 0.90252 0.09928 0.0
H319 H 0.97335 0.83602 0.09949 0.0
C320 C 0.12861 0.43616 0.36291 0.0
C321 C 0.1457 0.43 0.38367 0.0
C322 C 0.09062 0.456 0.36042 0.0
C323 C 0.06899 0.47026 0.3787 0.0
C324 C 0.08601 0.46391 0.39942 0.0
C325 C 0.12407 0.44424 0.4019 0.0
C326 C 0.0279 0.49029 0.37686 0.0
C327 C 0.01602 0.51148 0.3591 0.0
C328 C 0.97525 0.53218 0.35773 0.0
C329 C 0.97282 0.56851 0.34454 0.0
C330 C 0.93525 0.58944 0.34332 0.0
C331 C 0.8991 0.57403 0.35506 0.0
H332 H 0.93899 0.48727 0.3788 0.0
C333 C 0.9011 0.53682 0.36773 0.0
C334 C 0.93876 0.51608 0.36905 0.0
H335 H 0.8737 0.5239 0.37681 0.0
H336 H 0.14433 0.42524 0.34853 0.0
H337 H 0.07792 0.45912 0.34421 0.0
H338 H 0.06983 0.47428 0.41377 0.0
H339 H 0.13625 0.43979 0.41814 0.0
H340 H 0.00776 0.48935 0.39115 0.0
H341 H 0.03787 0.51629 0.34559 0.0
H342 H 0.00033 0.58125 0.33546 0.0
H343 H 0.93466 0.61786 0.33329 0.0
C344 C 0.44018 0.40018 0.59606 0.0
C345 C 0.3964 0.39285 0.59173 0.0
C346 C 0.46116 0.44072 0.59262 0.0
C347 C 0.43882 0.4748 0.58461 0.0
C348 C 0.39512 0.46735 0.58024 0.0
C349 C 0.37414 0.42682 0.58366 0.0
C350 C 0.45936 0.51898 0.58182 0.0
C351 C 0.50154 0.52743 0.57896 0.0
C352 C 0.52272 0.57164 0.57752 0.0
C353 C 0.56345 0.57709 0.56833 0.0
C354 C 0.58578 0.61756 0.56794 0.0
C355 C 0.56796 0.65355 0.57689 0.0
H356 H 0.47385 0.60498 0.59405 0.0
C357 C 0.52694 0.64834 0.58582 0.0
C358 C 0.5046 0.60782 0.58623 0.0
H359 H 0.51244 0.67537 0.59301 0.0
H360 H 0.45819 0.37479 0.60245 0.0
H361 H 0.49454 0.44535 0.59688 0.0
H362 H 0.37704 0.49307 0.57424 0.0
H363 H 0.34035 0.42231 0.58022 0.0
H364 H 0.4386 0.54518 0.58158 0.0
H365 H 0.52166 0.50093 0.57713 0.0
H366 H 0.57831 0.5498 0.56164 0.0
H367 H 0.61735 0.62042 0.56096 0.0
C368 C 0.55316 0.91387 0.85791 0.0
C369 C 0.59391 0.92756 0.85029 0.0
C370 C 0.52087 0.94212 0.85825 0.0
C371 C 0.52854 0.98464 0.85074 0.0
C372 C 0.56928 0.99822 0.84313 0.0
C373 C 0.6016 0.97 0.84283 0.0
C374 C 0.49564 0.01627 0.85159 0.0
C375 C 0.45355 0.00488 0.85225 0.0
C376 C 0.42054 0.03626 0.85394 0.0
C377 C 0.37856 0.02289 0.84795 0.0
C378 C 0.34611 0.05062 0.85014 0.0
C379 C 0.3549 0.09237 0.8585 0.0
H380 H 0.46096 0.08935 0.8678 0.0
C381 C 0.3969 0.1059 0.86446 0.0
C382 C 0.42938 0.07812 0.86232 0.0
H383 H 0.40464 0.13775 0.87114 0.0
H384 H 0.54633 0.88151 0.86397 0.0
H385 H 0.49042 0.93067 0.86494 0.0
H386 H 0.5762 0.03085 0.83743 0.0
H387 H 0.6327 0.98161 0.83692 0.0
H388 H 0.50677 0.05007 0.85095 0.0
H389 H 0.44234 0.97118 0.85081 0.0
H390 H 0.37076 0.99076 0.84162 0.0
H391 H 0.31406 0.03913 0.84542 0.0
C392 C 0.9368 0.60239 0.13439 0.0
C393 C 0.92866 0.6255 0.11548 0.0
C394 C 0.95441 0.56266 0.13309 0.0
C395 C 0.96466 0.54536 0.1128 0.0
C396 C 0.95663 0.56861 0.09395 0.0
C397 C 0.93895 0.60825 0.09524 0.0
C398 C 0.98209 0.50259 0.11047 0.0
C399 C 0.00195 0.48281 0.12658 0.0
C400 C 0.01973 0.44033 0.12388 0.0
C401 C 0.05321 0.42994 0.1375 0.0
C402 C 0.07122 0.39061 0.1353 0.0
C403 C 0.05584 0.36057 0.11953 0.0
H404 H 0.97686 0.41592 0.09813 0.0
C405 C 0.02162 0.37046 0.10624 0.0
C406 C 0.00363 0.40984 0.10842 0.0
H407 H 0.00873 0.34784 0.09408 0.0
H408 H 0.92883 0.61457 0.15022 0.0
H409 H 0.95883 0.54534 0.148 0.0
H410 H 0.96391 0.55601 0.0781 0.0
H411 H 0.93295 0.62513 0.08033 0.0
H412 H 0.97999 0.48785 0.09447 0.0
H413 H 0.00769 0.49911 0.14202 0.0
H414 H 0.06591 0.45258 0.1497 0.0
H415 H 0.09741 0.38393 0.14589 0.0
C416 C 0.41267 0.40985 0.40113 0.0
C417 C 0.37696 0.41982 0.38894 0.0
C418 C 0.4503 0.43672 0.4006 0.0
C419 C 0.45307 0.47407 0.38773 0.0
C420 C 0.41697 0.48462 0.37608 0.0
C421 C 0.37939 0.45775 0.37658 0.0
C422 C 0.49273 0.50298 0.38613 0.0
C423 C 0.53193 0.4898 0.38963 0.0
C424 C 0.57174 0.51798 0.38658 0.0
C425 C 0.60976 0.4988 0.38243 0.0
C426 C 0.64771 0.52407 0.37897 0.0
C427 C 0.64851 0.56918 0.37975 0.0
H428 H 0.54456 0.57923 0.39183 0.0
C429 C 0.6107 0.58842 0.38443 0.0
C430 C 0.57276 0.56315 0.3879 0.0
H431 H 0.61033 0.62309 0.38541 0.0
H432 H 0.4117 0.38111 0.41101 0.0
H433 H 0.47687 0.42819 0.41043 0.0
H434 H 0.41803 0.5134 0.36622 0.0
H435 H 0.3524 0.46655 0.3671 0.0
H436 H 0.48942 0.53542 0.38035 0.0
H437 H 0.53544 0.45627 0.39343 0.0
H438 H 0.61003 0.4641 0.38153 0.0
H439 H 0.67633 0.5082 0.37552 0.0
C440 C 0.44681 0.14217 0.60902 0.0
C441 C 0.43366 0.16166 0.58985 0.0
C442 C 0.46694 0.10386 0.60821 0.0
C443 C 0.47461 0.08424 0.58816 0.0
C444 C 0.46143 0.10368 0.56901 0.0
C445 C 0.44139 0.14214 0.56982 0.0
C446 C 0.49453 0.04268 0.58676 0.0
C447 C 0.52154 0.02963 0.60194 0.0
C448 C 0.5413 0.98801 0.60077 0.0
C449 C 0.58058 0.98442 0.61113 0.0
C450 C 0.60007 0.94571 0.61061 0.0
C451 C 0.58032 0.90949 0.59998 0.0
H452 H 0.49031 0.95281 0.58272 0.0
C453 C 0.54057 0.91276 0.58994 0.0
C454 C 0.52123 0.95164 0.59031 0.0
H455 H 0.52443 0.88534 0.58173 0.0
H456 H 0.44101 0.15615 0.62475 0.0
H457 H 0.47537 0.08925 0.62338 0.0
H458 H 0.46661 0.08905 0.55337 0.0
H459 H 0.4314 0.15617 0.55476 0.0
H460 H 0.48804 0.0232 0.5723 0.0
H461 H 0.53137 0.05106 0.61527 0.0
H462 H 0.59649 0.0118 0.61951 0.0
H463 H 0.63058 0.94421 0.61862 0.0
C464 C 0.87835 0.9117 0.86563 0.0
C465 C 0.84128 0.92535 0.85597 0.0
C466 C 0.91549 0.93916 0.86661 0.0
C467 C 0.91629 0.98088 0.85788 0.0
C468 C 0.87924 0.99449 0.84825 0.0
C469 C 0.84218 0.96693 0.84715 0.0
C470 C 0.95452 0.01161 0.8595 0.0
C471 C 0.99438 0.99903 0.86038 0.0
C472 C 0.03248 0.02979 0.86241 0.0
C473 C 0.07126 0.01834 0.85392 0.0
C474 C 0.10797 0.04618 0.85589 0.0
C475 C 0.10676 0.08581 0.86673 0.0
H476 H 0.00217 0.07869 0.88066 0.0
C477 C 0.06804 0.09709 0.87547 0.0
C478 C 0.03124 0.06938 0.87333 0.0
H479 H 0.06614 0.12727 0.88403 0.0
H480 H 0.87861 0.87995 0.87271 0.0
H481 H 0.94306 0.92796 0.87473 0.0
H482 H 0.87894 0.02659 0.84157 0.0
H483 H 0.81406 0.97852 0.83969 0.0
H484 H 0.94959 0.04571 0.85906 0.0
H485 H -0.00038 0.96517 0.85858 0.0
H486 H 0.07312 0.98784 0.84562 0.0
H487 H 0.13738 0.03642 0.84909 0.0
loop_
_geom_bond_atom_site_label_1
_geom_bond_atom_site_label_2
_geom_bond_distance
_geom_bond_site_symmetry_2
_ccdc_geom_bond_type
C0 O1 1.160 . S
C0 O7 1.185 . S
O1 C0 1.160 . S
O2 Zn3 1.899 . S
O2 C10 1.284 . S
Zn3 O2 1.899 . S
Zn3 O4 2.032 . S
Zn3 O7 2.086 . S
Zn3 O12 1.977 . S
O4 Zn3 2.032 . S
O4 C8 1.278 . S
C5 O6 1.203 . S
C5 O12 1.267 . S
O6 C5 1.203 . S
O7 C0 1.185 . S
O7 Zn3 2.086 . S
C8 O4 1.278 . S
C8 O9 1.211 . S
O9 C8 1.211 . S
C10 O2 1.284 . S
C10 O11 1.273 . S
O11 C10 1.273 . S
O12 Zn3 1.977 . S
O12 C5 1.267 . S
C13 O14 1.160 . S
C13 O20 1.185 . S
O14 C13 1.160 . S
O15 Zn16 1.899 . S
O15 C23 1.284 . S
Zn16 O15 1.899 . S
Zn16 O17 2.032 . S
Zn16 O20 2.086 . S
Zn16 O25 1.977 . S
O17 Zn16 2.032 . S
O17 C21 1.278 . S
C18 O19 1.203 . S
C18 O25 1.267 . S
O19 C18 1.203 . S
O20 C13 1.185 . S
O20 Zn16 2.086 . S
C21 O17 1.278 . S
C21 O22 1.211 . S
O22 C21 1.211 . S
C23 O15 1.284 . S
C23 O24 1.273 . S
O24 C23 1.273 . S
O25 Zn16 1.977 . S
O25 C18 1.267 . S
C26 O27 1.160 . S
C26 O33 1.185 . S
O27 C26 1.160 . S
O28 Zn29 1.899 . S
O28 C36 1.284 . S
Zn29 O28 1.899 . S
Zn29 O30 2.032 . S
Zn29 O33 2.086 . S
Zn29 O38 1.977 . S
O30 Zn29 2.032 . S
O30 C34 1.278 . S
C31 O32 1.203 . S
C31 O38 1.267 . S
O32 C31 1.203 . S
O33 C26 1.185 . S
O33 Zn29 2.086 . S
C34 O30 1.278 . S
C34 O35 1.211 . S
O35 C34 1.211 . S
C36 O28 1.284 . S
C36 O37 1.273 . S
O37 C36 1.273 . S
O38 Zn29 1.977 . S
O38 C31 1.267 . S
C39 O40 1.160 . S
C39 O46 1.185 . S
O40 C39 1.160 . S
O41 Zn42 1.899 . S
O41 C49 1.284 . S
Zn42 O41 1.899 . S
Zn42 O43 2.032 . S
Zn42 O46 2.086 . S
Zn42 O51 1.977 . S
O43 Zn42 2.032 . S
O43 C47 1.278 . S
C44 O45 1.203 . S
C44 O51 1.267 . S
O45 C44 1.203 . S
O46 C39 1.185 . S
O46 Zn42 2.086 . S
C47 O43 1.278 . S
C47 O48 1.211 . S
O48 C47 1.211 . S
C49 O41 1.284 . S
C49 O50 1.273 . S
O50 C49 1.273 . S
O51 Zn42 1.977 . S
O51 C44 1.267 . S
C52 O53 1.160 . S
C52 O59 1.185 . S
O53 C52 1.160 . S
O54 Zn55 1.899 . S
O54 C62 1.284 . S
Zn55 O54 1.899 . S
Zn55 O56 2.032 . S
Zn55 O59 2.086 . S
Zn55 O64 1.977 . S
O56 Zn55 2.032 . S
O56 C60 1.278 . S
C57 O58 1.203 . S
C57 O64 1.267 . S
O58 C57 1.203 . S
O59 C52 1.185 . S
O59 Zn55 2.086 . S
C60 O56 1.278 . S
C60 O61 1.211 . S
O61 C60 1.211 . S
C62 O54 1.284 . S
C62 O63 1.273 . S
O63 C62 1.273 . S
O64 Zn55 1.977 . S
O64 C57 1.267 . S
C65 O66 1.160 . S
C65 O72 1.185 . S
O66 C65 1.160 . S
O67 Zn68 1.899 . S
O67 C75 1.284 . S
Zn68 O67 1.899 . S
Zn68 O69 2.032 . S
Zn68 O72 2.086 . S
Zn68 O77 1.977 . S
O69 Zn68 2.032 . S
O69 C73 1.278 . S
C70 O71 1.203 . S
C70 O77 1.267 . S
O71 C70 1.203 . S
O72 C65 1.185 . S
O72 Zn68 2.086 . S
C73 O69 1.278 . S
C73 O74 1.211 . S
O74 C73 1.211 . S
C75 O67 1.284 . S
C75 O76 1.273 . S
O76 C75 1.273 . S
O77 Zn68 1.977 . S
O77 C70 1.267 . S
C78 O79 1.160 . S
C78 O85 1.185 . S
O79 C78 1.160 . S
O80 Zn81 1.899 . S
O80 C88 1.284 . S
Zn81 O80 1.899 . S
Zn81 O82 2.032 . S
Zn81 O85 2.086 . S
Zn81 O90 1.977 . S
O82 Zn81 2.032 . S
O82 C86 1.278 . S
C83 O84 1.203 . S
C83 O90 1.267 . S
O84 C83 1.203 . S
O85 C78 1.185 . S
O85 Zn81 2.086 . S
C86 O82 1.278 . S
C86 O87 1.211 . S
O87 C86 1.211 . S
C88 O80 1.284 . S
C88 O89 1.273 . S
O89 C88 1.273 . S
O90 Zn81 1.977 . S
O90 C83 1.267 . S
C91 O92 1.160 . S
C91 O98 1.185 . S
O92 C91 1.160 . S
O93 Zn94 1.899 . S
O93 C101 1.284 . S
Zn94 O93 1.899 . S
Zn94 O95 2.032 . S
Zn94 O98 2.086 . S
Zn94 O103 1.977 . S
O95 Zn94 2.032 . S
O95 C99 1.278 . S
C96 O97 1.203 . S
C96 O103 1.267 . S
O97 C96 1.203 . S
O98 C91 1.185 . S
O98 Zn94 2.086 . S
C99 O95 1.278 . S
C99 O100 1.211 . S
O100 C99 1.211 . S
C101 O93 1.284 . S
C101 O102 1.273 . S
O102 C101 1.273 . S
O103 Zn94 1.977 . S
O103 C96 1.267 . S
C104 C105 1.386 . S
C104 C106 1.383 . S
C104 H120 0.951 . S
C105 C104 1.386 . S
C105 C109 1.383 . S
C106 C104 1.383 . S
C106 C107 1.402 . S
C106 H121 0.951 . S
C107 C106 1.402 . S
C107 C108 1.375 . S
C107 C110 1.481 . S
C108 C107 1.375 . S
C108 C109 1.367 . S
C108 H122 0.951 . S
C109 C105 1.383 . S
C109 C108 1.367 . S
C109 H123 0.950 . S
C110 C107 1.481 . S
C110 C111 1.297 1_554 S
C110 H124 0.950 1_554 S
C111 C110 1.297 1_556 S
C111 C112 1.479 . S
C111 H125 0.950 1_556 S
C112 C111 1.479 . S
C112 C113 1.375 . S
C112 C118 1.404 . S
C113 C112 1.375 . S
C113 C114 1.369 . S
C113 H126 0.950 . S
C114 C113 1.369 . S
C114 C115 1.392 . S
C114 H127 0.951 . S
C115 C114 1.392 . S
C115 C117 1.384 . S
H116 C118 0.949 . S
C117 C115 1.384 . S
C117 C118 1.385 . S
C117 H119 0.950 . S
C118 C112 1.404 . S
C118 H116 0.949 . S
C118 C117 1.385 . S
H119 C117 0.950 . S
H120 C104 0.951 . S
H121 C106 0.951 . S
H122 C108 0.951 . S
H123 C109 0.950 . S
H124 C110 0.950 1_556 S
H125 C111 0.950 1_554 S
H126 C113 0.950 . S
H127 C114 0.951 . S
C128 C129 1.386 . S
C128 C130 1.383 . S
C128 H144 0.951 . S
C129 C128 1.386 . S
C129 C133 1.383 . S
C130 C128 1.383 . S
C130 C131 1.402 . S
C130 H145 0.951 . S
C131 C130 1.402 . S
C131 C132 1.375 . S
C131 C134 1.481 . S
C132 C131 1.375 . S
C132 C133 1.367 . S
C132 H146 0.951 . S
C133 C129 1.383 . S
C133 C132 1.367 . S
C133 H147 0.950 . S
C134 C131 1.481 . S
C134 C135 1.297 . S
C134 H148 0.950 . S
C135 C134 1.297 . S
C135 C136 1.479 . S
C135 H149 0.950 . S
C136 C135 1.479 . S
C136 C137 1.375 . S
C136 C142 1.404 . S
C137 C136 1.375 . S
C137 C138 1.369 . S
C137 H150 0.950 . S
C138 C137 1.369 . S
C138 C139 1.392 . S
C138 H151 0.951 . S
C139 C138 1.392 . S
C139 C141 1.384 . S
H140 C142 0.949 . S
C141 C139 1.384 . S
C141 C142 1.385 . S
C141 H143 0.950 . S
C142 C136 1.404 . S
C142 H140 0.949 . S
C142 C141 1.385 . S
H143 C141 0.950 . S
H144 C128 0.951 . S
H145 C130 0.951 . S
H146 C132 0.951 . S
H147 C133 0.950 . S
H148 C134 0.950 . S
H149 C135 0.950 . S
H150 C137 0.950 . S
H151 C138 0.951 . S
C152 C153 1.386 . S
C152 C154 1.383 . S
C152 H168 0.951 . S
C153 C152 1.386 . S
C153 C157 1.383 . S
C154 C152 1.383 . S
C154 C155 1.402 . S
C154 H169 0.951 . S
C155 C154 1.402 . S
C155 C156 1.375 . S
C155 C158 1.481 . S
C156 C155 1.375 . S
C156 C157 1.367 . S
C156 H170 0.951 . S
C157 C153 1.383 . S
C157 C156 1.367 . S
C157 H171 0.950 . S
C158 C155 1.481 . S
C158 C159 1.297 . S
C158 H172 0.950 . S
C159 C158 1.297 . S
C159 C160 1.479 . S
C159 H173 0.950 . S
C160 C159 1.479 . S
C160 C161 1.375 . S
C160 C166 1.404 . S
C161 C160 1.375 . S
C161 C162 1.369 . S
C161 H174 0.950 . S
C162 C161 1.369 . S
C162 C163 1.392 . S
C162 H175 0.951 . S
C163 C162 1.392 . S
C163 C165 1.384 . S
H164 C166 0.949 . S
C165 C163 1.384 . S
C165 C166 1.385 . S
C165 H167 0.950 . S
C166 C160 1.404 . S
C166 H164 0.949 . S
C166 C165 1.385 . S
H167 C165 0.950 . S
H168 C152 0.951 . S
H169 C154 0.951 . S
H170 C156 0.951 . S
H171 C157 0.950 . S
H172 C158 0.950 . S
H173 C159 0.950 . S
H174 C161 0.950 . S
H175 C162 0.951 . S
C176 C177 1.386 . S
C176 C178 1.383 . S
C176 H192 0.951 . S
C177 C176 1.386 . S
C177 C181 1.383 . S
C178 C176 1.383 . S
C178 C179 1.402 . S
C178 H193 0.951 . S
C179 C178 1.402 . S
C179 C180 1.375 . S
C179 C182 1.481 . S
C180 C179 1.375 . S
C180 C181 1.367 . S
C180 H194 0.951 . S
C181 C177 1.383 . S
C181 C180 1.367 . S
C181 H195 0.950 . S
C182 C179 1.481 . S
C182 C183 1.297 . S
C182 H196 0.950 . S
C183 C182 1.297 . S
C183 C184 1.479 . S
C183 H197 0.950 . S
C184 C183 1.479 . S
C184 C185 1.375 . S
C184 C190 1.404 . S
C185 C184 1.375 . S
C185 C186 1.369 . S
C185 H198 0.950 . S
C186 C185 1.369 . S
C186 C187 1.392 . S
C186 H199 0.951 . S
C187 C186 1.392 . S
C187 C189 1.384 . S
H188 C190 0.949 . S
C189 C187 1.384 . S
C189 C190 1.385 . S
C189 H191 0.950 . S
C190 C184 1.404 . S
C190 H188 0.949 . S
C190 C189 1.385 . S
H191 C189 0.950 . S
H192 C176 0.951 . S
H193 C178 0.951 . S
H194 C180 0.951 . S
H195 C181 0.950 . S
H196 C182 0.950 . S
H197 C183 0.950 . S
H198 C185 0.950 . S
H199 C186 0.951 . S
C200 C201 1.386 . S
C200 C202 1.383 . S
C200 H216 0.951 . S
C201 C200 1.386 . S
C201 C205 1.383 . S
C202 C200 1.383 . S
C202 C203 1.402 . S
C202 H217 0.951 . S
C203 C202 1.402 . S
C203 C204 1.375 . S
C203 C206 1.481 . S
C204 C203 1.375 . S
C204 C205 1.367 . S
C204 H218 0.951 . S
C205 C201 1.383 . S
C205 C204 1.367 . S
C205 H219 0.950 . S
C206 C203 1.481 . S
C206 C207 1.297 . S
C206 H220 0.950 . S
C207 C206 1.297 . S
C207 C208 1.479 . S
C207 H221 0.950 . S
C208 C207 1.479 . S
C208 C209 1.375 . S
C208 C214 1.404 . S
C209 C208 1.375 . S
C209 C210 1.369 . S
C209 H222 0.950 . S
C210 C209 1.369 . S
C210 C211 1.392 . S
C210 H223 0.951 . S
C211 C210 1.392 . S
C211 C213 1.384 . S
H212 C214 0.949 . S
C213 C211 1.384 . S
C213 C214 1.385 . S
C213 H215 0.950 . S
C214 C208 1.404 . S
C214 H212 0.949 . S
C214 C213 1.385 . S
H215 C213 0.950 . S
H216 C200 0.951 . S
H217 C202 0.951 . S
H218 C204 0.951 . S
H219 C205 0.950 . S
H220 C206 0.950 . S
H221 C207 0.950 . S
H222 C209 0.950 . S
H223 C210 0.951 . S
C224 C225 1.386 . S
C224 C226 1.383 . S
C224 H240 0.951 . S
C225 C224 1.386 . S
C225 C229 1.383 . S
C226 C224 1.383 . S
C226 C227 1.402 . S
C226 H241 0.951 . S
C227 C226 1.402 . S
C227 C228 1.375 . S
C227 C230 1.481 . S
C228 C227 1.375 . S
C228 C229 1.367 . S
C228 H242 0.951 . S
C229 C225 1.383 . S
C229 C228 1.367 . S
C229 H243 0.950 . S
C230 C227 1.481 . S
C230 C231 1.297 . S
C230 H244 0.950 . S
C231 C230 1.297 . S
C231 C232 1.479 . S
C231 H245 0.950 . S
C232 C231 1.479 . S
C232 C233 1.375 . S
C232 C238 1.404 . S
C233 C232 1.375 . S
C233 C234 1.369 . S
C233 H246 0.950 . S
C234 C233 1.369 . S
C234 C235 1.392 . S
C234 H247 0.951 . S
C235 C234 1.392 . S
C235 C237 1.384 . S
H236 C238 0.949 . S
C237 C235 1.384 . S
C237 C238 1.385 . S
C237 H239 0.950 . S
C238 C232 1.404 . S
C238 H236 0.949 . S
C238 C237 1.385 . S
H239 C237 0.950 . S
H240 C224 0.951 . S
H241 C226 0.951 . S
H242 C228 0.951 . S
H243 C229 0.950 . S
H244 C230 0.950 . S
H245 C231 0.950 . S
H246 C233 0.950 . S
H247 C234 0.951 . S
C248 C249 1.386 . S
C248 C250 1.383 . S
C248 H264 0.951 . S
C249 C248 1.386 . S
C249 C253 1.383 . S
C250 C248 1.383 . S
C250 C251 1.402 . S
C250 H265 0.951 . S
C251 C250 1.402 . S
C251 C252 1.375 . S
C251 C254 1.481 . S
C252 C251 1.375 . S
C252 C253 1.367 . S
C252 H266 0.951 . S
C253 C249 1.383 . S
C253 C252 1.367 . S
C253 H267 0.950 . S
C254 C251 1.481 . S
C254 C255 1.297 . S
C254 H268 0.950 . S
C255 C254 1.297 . S
C255 C256 1.479 . S
C255 H269 0.950 . S
C256 C255 1.479 . S
C256 C257 1.375 . S
C256 C262 1.404 . S
C257 C256 1.375 . S
C257 C258 1.369 . S
C257 H270 0.950 . S
C258 C257 1.369 . S
C258 C259 1.392 . S
C258 H271 0.951 . S
C259 C258 1.392 . S
C259 C261 1.384 . S
H260 C262 0.949 . S
C261 C259 1.384 . S
C261 C262 1.385 . S
C261 H263 0.950 . S
C262 C256 1.404 . S
C262 H260 0.949 . S
C262 C261 1.385 . S
H263 C261 0.950 . S
H264 C248 0.951 . S
H265 C250 0.951 . S
H266 C252 0.951 . S
H267 C253 0.950 . S
H268 C254 0.950 . S
H269 C255 0.950 . S
H270 C257 0.950 . S
H271 C258 0.951 . S
C272 C273 1.386 . S
C272 C274 1.383 . S
C272 H288 0.951 . S
C273 C272 1.386 . S
C273 C277 1.383 . S
C274 C272 1.383 . S
C274 C275 1.402 . S
C274 H289 0.951 . S
C275 C274 1.402 . S
C275 C276 1.375 . S
C275 C278 1.481 . S
C276 C275 1.375 . S
C276 C277 1.367 . S
C276 H290 0.951 . S
C277 C273 1.383 . S
C277 C276 1.367 . S
C277 H291 0.950 . S
C278 C275 1.481 . S
C278 C279 1.297 1_554 S
C278 H292 0.950 1_554 S
C279 C278 1.297 1_556 S
C279 C280 1.479 . S
C279 H293 0.930 1_556 S
C280 C279 1.479 . S
C280 C281 1.375 . S
C280 C286 1.404 . S
C281 C280 1.375 . S
C281 C282 1.369 . S
C281 H294 0.950 . S
C282 C281 1.369 . S
C282 C283 1.392 . S
C282 H295 0.951 . S
C283 C282 1.392 . S
C283 C285 1.384 . S
H284 C286 0.949 . S
C285 C283 1.384 . S
C285 C286 1.385 . S
C285 H287 0.950 . S
C286 C280 1.404 . S
C286 H284 0.949 . S
C286 C285 1.385 . S
H287 C285 0.950 . S
H288 C272 0.951 . S
H289 C274 0.951 . S
H290 C276 0.951 . S
H291 C277 0.950 . S
H292 C278 0.950 1_556 S
H293 C279 0.930 1_554 S
H294 C281 0.950 . S
H295 C282 0.951 . S
C296 C297 1.386 . S
C296 C298 1.383 . S
C296 H312 0.951 . S
C297 C296 1.386 . S
C297 C301 1.383 . S
C298 C296 1.383 . S
C298 C299 1.402 . S
C298 H313 0.951 . S
C299 C298 1.402 . S
C299 C300 1.375 . S
C299 C302 1.481 1_455 S
C300 C299 1.375 . S
C300 C301 1.367 . S
C300 H314 0.951 1_455 S
C301 C297 1.383 . S
C301 C300 1.367 . S
C301 H315 0.950 . S
C302 C299 1.481 1_655 S
C302 C303 1.297 1_645 S
C302 H316 0.950 . S
C303 C302 1.297 1_465 S
C303 C304 1.479 1_455 S
C303 H317 0.950 . S
C304 C303 1.479 1_655 S
C304 C305 1.375 . S
C304 C310 1.404 . S
C305 C304 1.375 . S
C305 C306 1.369 . S
C305 H318 0.950 1_655 S
C306 C305 1.369 . S
C306 C307 1.392 . S
C306 H319 0.951 . S
C307 C306 1.392 . S
C307 C309 1.384 . S
H308 C310 0.949 . S
C309 C307 1.384 . S
C309 C310 1.385 . S
C309 H311 0.950 . S
C310 C304 1.404 . S
C310 H308 0.949 . S
C310 C309 1.385 . S
H311 C309 0.950 . S
H312 C296 0.951 . S
H313 C298 0.951 . S
H314 C300 0.951 1_655 S
H315 C301 0.950 . S
H316 C302 0.950 . S
H317 C303 0.950 . S
H318 C305 0.950 1_455 S
H319 C306 0.951 . S
C320 C321 1.386 . S
C320 C322 1.383 . S
C320 H336 0.951 . S
C321 C320 1.386 . S
C321 C325 1.383 . S
C322 C320 1.383 . S
C322 C323 1.402 . S
C322 H337 0.951 . S
C323 C322 1.402 . S
C323 C324 1.375 . S
C323 C326 1.481 . S
C324 C323 1.375 . S
C324 C325 1.367 . S
C324 H338 0.951 . S
C325 C321 1.383 . S
C325 C324 1.367 . S
C325 H339 0.950 . S
C326 C323 1.481 . S
C326 C327 1.297 1_455 S
C326 H340 0.950 1_455 S
C327 C326 1.297 1_655 S
C327 C328 1.479 . S
C327 H341 0.950 . S
C328 C327 1.479 . S
C328 C329 1.375 . S
C328 C334 1.404 . S
C329 C328 1.375 . S
C329 C330 1.369 . S
C329 H342 0.950 . S
C330 C329 1.369 . S
C330 C331 1.392 . S
C330 H343 0.951 . S
C331 C330 1.392 . S
C331 C333 1.384 . S
H332 C334 0.949 . S
C333 C331 1.384 . S
C333 C334 1.385 . S
C333 H335 0.950 . S
C334 C328 1.404 . S
C334 H332 0.949 . S
C334 C333 1.385 . S
H335 C333 0.950 . S
H336 C320 0.951 . S
H337 C322 0.951 . S
H338 C324 0.951 . S
H339 C325 0.950 . S
H340 C326 0.950 1_655 S
H341 C327 0.950 . S
H342 C329 0.950 . S
H343 C330 0.951 . S
C344 C345 1.386 . S
C344 C346 1.383 . S
C344 H360 0.951 . S
C345 C344 1.386 . S
C345 C349 1.383 . S
C346 C344 1.383 . S
C346 C347 1.402 . S
C346 H361 0.951 . S
C347 C346 1.402 . S
C347 C348 1.375 . S
C347 C350 1.481 . S
C348 C347 1.375 . S
C348 C349 1.367 . S
C348 H362 0.951 . S
C349 C345 1.383 . S
C349 C348 1.367 . S
C349 H363 0.950 . S
C350 C347 1.481 . S
C350 C351 1.297 . S
C350 H364 0.950 . S
C351 C350 1.297 . S
C351 C352 1.479 . S
C351 H365 0.950 . S
C352 C351 1.479 . S
C352 C353 1.375 . S
C352 C358 1.404 . S
C353 C352 1.375 . S
C353 C354 1.369 . S
C353 H366 0.950 . S
C354 C353 1.369 . S
C354 C355 1.392 . S
C354 H367 0.951 . S
C355 C354 1.392 . S
C355 C357 1.384 . S
H356 C358 0.949 . S
C357 C355 1.384 . S
C357 C358 1.385 . S
C357 H359 0.950 . S
C358 C352 1.404 . S
C358 H356 0.949 . S
C358 C357 1.385 . S
H359 C357 0.950 . S
H360 C344 0.951 . S
H361 C346 0.951 . S
H362 C348 0.951 . S
H363 C349 0.950 . S
H364 C350 0.950 . S
H365 C351 0.950 . S
H366 C353 0.950 . S
H367 C354 0.951 . S
C368 C369 1.386 . S
C368 C370 1.383 . S
C368 H384 0.951 . S
C369 C368 1.386 . S
C369 C373 1.383 . S
C370 C368 1.383 . S
C370 C371 1.402 . S
C370 H385 0.951 . S
C371 C370 1.402 . S
C371 C372 1.375 . S
C371 C374 1.481 . S
C372 C371 1.375 . S
C372 C373 1.367 . S
C372 H386 0.951 . S
C373 C369 1.383 . S
C373 C372 1.367 . S
C373 H387 0.950 . S
C374 C371 1.481 . S
C374 C375 1.297 . S
C374 H388 0.950 1_565 S
C375 C374 1.297 . S
C375 C376 1.479 1_565 S
C375 H389 0.950 . S
C376 C375 1.479 1_545 S
C376 C377 1.375 . S
C376 C382 1.404 . S
C377 C376 1.375 . S
C377 C378 1.369 . S
C377 H390 0.950 1_545 S
C378 C377 1.369 . S
C378 C379 1.392 . S
C378 H391 0.951 . S
C379 C378 1.392 . S
C379 C381 1.384 . S
H380 C382 0.949 . S
C381 C379 1.384 . S
C381 C382 1.385 . S
C381 H383 0.950 . S
C382 C376 1.404 . S
C382 H380 0.949 . S
C382 C381 1.385 . S
H383 C381 0.950 . S
H384 C368 0.951 . S
H385 C370 0.951 . S
H386 C372 0.951 . S
H387 C373 0.950 . S
H388 C374 0.950 1_545 S
H389 C375 0.950 . S
H390 C377 0.950 1_565 S
H391 C378 0.951 . S
C392 C393 1.386 . S
C392 C394 1.383 . S
C392 H408 0.951 . S
C393 C392 1.386 . S
C393 C397 1.383 . S
C394 C392 1.383 . S
C394 C395 1.402 . S
C394 H409 0.951 . S
C395 C394 1.402 . S
C395 C396 1.375 . S
C395 C398 1.481 1_655 S
C396 C395 1.375 . S
C396 C397 1.367 . S
C396 H410 0.951 1_655 S
C397 C393 1.383 . S
C397 C396 1.367 . S
C397 H411 0.950 . S
C398 C395 1.481 1_455 S
C398 C399 1.297 1_455 S
C398 H412 0.950 . S
C399 C398 1.297 1_655 S
C399 C400 1.479 1_655 S
C399 H413 0.950 . S
C400 C399 1.479 1_455 S
C400 C401 1.375 . S
C400 C406 1.404 . S
C401 C400 1.375 . S
C401 C402 1.369 . S
C401 H414 0.950 1_455 S
C402 C401 1.369 . S
C402 C403 1.392 . S
C402 H415 0.951 . S
C403 C402 1.392 . S
C403 C405 1.384 . S
H404 C406 0.949 . S
C405 C403 1.384 . S
C405 C406 1.385 . S
C405 H407 0.950 . S
C406 C400 1.404 . S
C406 H404 0.949 . S
C406 C405 1.385 . S
H407 C405 0.950 . S
H408 C392 0.951 . S
H409 C394 0.951 . S
H410 C396 0.951 1_455 S
H411 C397 0.950 . S
H412 C398 0.950 . S
H413 C399 0.950 . S
H414 C401 0.950 1_655 S
H415 C402 0.951 . S
C416 C417 1.386 . S
C416 C418 1.383 . S
C416 H432 0.951 . S
C417 C416 1.386 . S
C417 C421 1.383 . S
C418 C416 1.383 . S
C418 C419 1.402 . S
C418 H433 0.951 . S
C419 C418 1.402 . S
C419 C420 1.375 . S
C419 C422 1.481 . S
C420 C419 1.375 . S
C420 C421 1.367 . S
C420 H434 0.951 . S
C421 C417 1.383 . S
C421 C420 1.367 . S
C421 H435 0.950 . S
C422 C419 1.481 . S
C422 C423 1.297 . S
C422 H436 0.950 . S
C423 C422 1.297 . S
C423 C424 1.479 . S
C423 H437 0.950 . S
C424 C423 1.479 . S
C424 C425 1.375 . S
C424 C430 1.404 . S
C425 C424 1.375 . S
C425 C426 1.369 . S
C425 H438 0.950 . S
C426 C425 1.369 . S
C426 C427 1.392 . S
C426 H439 0.951 . S
C427 C426 1.392 . S
C427 C429 1.384 . S
H428 C430 0.949 . S
C429 C427 1.384 . S
C429 C430 1.385 . S
C429 H431 0.950 . S
C430 C424 1.404 . S
C430 H428 0.949 . S
C430 C429 1.385 . S
H431 C429 0.950 . S
H432 C416 0.951 . S
H433 C418 0.951 . S
H434 C420 0.951 . S
H435 C421 0.950 . S
H436 C422 0.950 . S
H437 C423 0.950 . S
H438 C425 0.950 . S
H439 C426 0.951 . S
C440 C441 1.386 . S
C440 C442 1.383 . S
C440 H456 0.951 . S
C441 C440 1.386 . S
C441 C445 1.383 . S
C442 C440 1.383 . S
C442 C443 1.402 . S
C442 H457 0.951 . S
C443 C442 1.402 . S
C443 C444 1.375 . S
C443 C446 1.481 . S
C444 C443 1.375 . S
C444 C445 1.367 . S
C444 H458 0.951 . S
C445 C441 1.383 . S
C445 C444 1.367 . S
C445 H459 0.950 . S
C446 C443 1.481 . S
C446 C447 1.297 1_545 S
C446 H460 0.950 1_545 S
C447 C446 1.297 1_565 S
C447 C448 1.479 . S
C447 H461 0.950 . S
C448 C447 1.479 . S
C448 C449 1.375 . S
C448 C454 1.404 . S
C449 C448 1.375 . S
C449 C450 1.369 . S
C449 H462 0.950 . S
C450 C449 1.369 . S
C450 C451 1.392 . S
C450 H463 0.951 . S
C451 C450 1.392 . S
C451 C453 1.384 . S
H452 C454 0.949 . S
C453 C451 1.384 . S
C453 C454 1.385 . S
C453 H455 0.950 . S
C454 C448 1.404 . S
C454 H452 0.949 . S
C454 C453 1.385 . S
H455 C453 0.950 . S
H456 C440 0.951 . S
H457 C442 0.951 . S
H458 C444 0.951 . S
H459 C445 0.950 . S
H460 C446 0.950 1_565 S
H461 C447 0.950 . S
H462 C449 0.950 . S
H463 C450 0.951 . S
C464 C465 1.386 . S
C464 C466 1.383 . S
C464 H480 0.951 . S
C465 C464 1.386 . S
C465 C469 1.383 . S
C466 C464 1.383 . S
C466 C467 1.402 . S
C466 H481 0.951 . S
C467 C466 1.402 . S
C467 C468 1.375 . S
C467 C470 1.481 1_565 S
C468 C467 1.375 . S
C468 C469 1.367 . S
C468 H482 0.951 1_565 S
C469 C465 1.383 . S
C469 C468 1.367 . S
C469 H483 0.950 . S
C470 C467 1.481 1_545 S
C470 C471 1.297 1_655 S
C470 H484 0.950 . S
C471 C470 1.297 1_455 S
C471 C472 1.479 . S
C471 H485 0.950 1_545 S
C472 C471 1.479 . S
C472 C473 1.375 . S
C472 C478 1.404 . S
C473 C472 1.375 . S
C473 C474 1.369 . S
C473 H486 0.950 1_545 S
C474 C473 1.369 . S
C474 C475 1.392 . S
C474 H487 0.951 . S
C475 C474 1.392 . S
C475 C477 1.384 . S
H476 C478 0.949 . S
C477 C475 1.384 . S
C477 C478 1.385 . S
C477 H479 0.950 . S
C478 C472 1.404 . S
C478 H476 0.949 . S
C478 C477 1.385 . S
H479 C477 0.950 . S
H480 C464 0.951 . S
H481 C466 0.951 . S
H482 C468 0.951 1_545 S
H483 C469 0.950 . S
H484 C470 0.950 . S
H485 C471 0.950 1_565 S
H486 C473 0.950 1_565 S
H487 C474 0.951 . S
C105 C10 0.910 . S
C115 C75 0.904 . S
C129 C21 0.969 . S
C139 C86 0.890 . S
C153 C36 0.928 . S
C163 C101 0.907 . S
C177 C47 0.969 . S
C187 C60 0.879 . S
C201 C99 0.881 . S
C211 C8 0.837 . S
C225 C62 0.948 . S
C235 C23 0.961 . S
C249 C34 0.908 . S
C259 C73 0.810 . S
C273 C88 0.911 . S
C283 C49 0.907 . S
C297 C5 1.528 . S
C307 C83 1.521 . S
C321 C91 1.509 . S
C331 C13 1.541 . S
C345 C31 1.485 . S
C355 C57 1.490 . S
C369 C39 1.509 . S
C379 C65 1.519 . S
C393 C78 1.521 . S
C403 C0 1.495 . S
C417 C96 1.518 . S
C427 C18 1.535 . S
C441 C26 1.508 . S
C451 C52 1.540 . S
C465 C44 1.527 . S
C475 C70 1.508 . S
