# Generated by pormake.
# Topology lon, (4)-cn, num edge types: 1
# Building blocks:
#     Node 0, Type 0, BuildingBlock: NAHDIM_clean_sbu_0, # of connection points: 4
#     Node 1, Type 0, BuildingBlock: NAHDIM_clean_sbu_0, # of connection points: 4
#     Node 2, Type 0, BuildingBlock: NAHDIM_clean_sbu_0, # of connection points: 4
#     Node 3, Type 0, BuildingBlock: NAHDIM_clean_sbu_0, # of connection points: 4
#     Edge 4, Type (0, 0), BuildingBlock: ZUJKAS_clean_linker_0, # of connection points: 2
#     Edge 5, Type (0, 0), BuildingBlock: ZUJKAS_clean_linker_0, # of connection points: 2
#     Edge 6, Type (0, 0), BuildingBlock: ZUJKAS_clean_linker_0, # of connection points: 2
#     Edge 7, Type (0, 0), BuildingBlock: ZUJKAS_clean_linker_0, # of connection points: 2
#     Edge 8, Type (0, 0), BuildingBlock: ZUJKAS_clean_linker_0, # of connection points: 2
#     Edge 9, Type (0, 0), BuildingBlock: ZUJKAS_clean_linker_0, # of connection points: 2
#     Edge 10, Type (0, 0), BuildingBlock: ZUJKAS_clean_linker_0, # of connection points: 2
#     Edge 11, Type (0, 0), BuildingBlock: ZUJKAS_clean_linker_0, # of connection points: 2
# Relax obj value: 0.020
# Max RMSD: 0.062
# Mean RMSD: 0.061
data_MOF--net-lon--node1-NAHDIM_clean_sbu_0--edge1-ZUJKAS_clean_linker_0
_symmetry_space_group_name_H-M    P1
_symmetry_Int_Tables_number       1
_symmetry_cell_setting            triclinic
loop_
_symmetry_equiv_pos_as_xyz
'x, y, z'
_cell_length_a     32.18043
_cell_length_b     32.095116
_cell_length_c     53.267688
_cell_angle_alpha  88.155792
_cell_angle_beta   89.976456
_cell_angle_gamma 120.04485
loop_
_atom_site_label
_atom_site_type_symbol
_atom_site_fract_x
_atom_site_fract_y
_atom_site_fract_z
_atom_type_partial_charge
C0 C 0.37503 0.62146 0.02875 0.0
O1 O 0.35675 0.6398 0.01283 0.0
O2 O 0.36924 0.72624 0.05154 0.0
Zn3 Zn 0.33457 0.65701 0.06431 0.0
O4 O 0.26714 0.62314 0.05095 0.0
C5 C 0.36264 0.68731 0.11537 0.0
O6 O 0.39774 0.72599 0.10408 0.0
O7 O 0.36997 0.62442 0.05217 0.0
C8 C 0.23142 0.61574 0.06455 0.0
O9 O 0.23865 0.63039 0.08771 0.0
C10 C 0.34924 0.75175 0.05219 0.0
O11 O 0.30533 0.7325 0.06142 0.0
O12 O 0.33212 0.65356 0.10219 0.0
C13 C 0.75695 0.37672 0.53153 0.0
O14 O 0.72243 0.36115 0.51507 0.0
O15 O 0.64213 0.36329 0.55512 0.0
Zn16 Zn 0.67649 0.32758 0.56542 0.0
O17 O 0.64747 0.26345 0.5492 0.0
C18 C 0.68642 0.35349 0.61681 0.0
O19 O 0.70505 0.39677 0.60614 0.0
O20 O 0.74602 0.36688 0.55474 0.0
C21 C 0.60601 0.2292 0.55567 0.0
O22 O 0.58152 0.23607 0.57318 0.0
C23 C 0.61855 0.35537 0.53499 0.0
O24 O 0.61575 0.32224 0.5201 0.0
O25 O 0.67158 0.31738 0.60298 0.0
C26 C 0.39885 0.63737 0.4675 0.0
O27 O 0.39548 0.66558 0.48371 0.0
O28 O 0.27693 0.62976 0.44819 0.0
Zn29 Zn 0.34557 0.66868 0.43613 0.0
O30 O 0.37561 0.73326 0.45188 0.0
C31 C 0.32067 0.64286 0.38496 0.0
O32 O 0.29001 0.60128 0.39592 0.0
O33 O 0.38045 0.63346 0.44599 0.0
C34 C 0.41695 0.7673 0.44507 0.0
O35 O 0.44092 0.75996 0.42745 0.0
C36 C 0.24839 0.64579 0.44448 0.0
O37 O 0.26435 0.6876 0.4325 0.0
O38 O 0.34832 0.67765 0.39848 0.0
C39 C 0.74952 0.37644 0.97225 0.0
O40 O 0.71365 0.3658 0.98786 0.0
O41 O 0.63788 0.26437 0.95106 0.0
Zn42 Zn 0.67271 0.33303 0.9373 0.0
O43 O 0.64001 0.36836 0.94999 0.0
C44 C 0.65673 0.29757 0.88633 0.0
O45 O 0.63664 0.25489 0.89777 0.0
O46 O 0.7407 0.3657 0.94937 0.0
C47 C 0.61834 0.38312 0.93547 0.0
O48 O 0.61711 0.37547 0.91134 0.0
C49 C 0.59289 0.24219 0.95553 0.0
O50 O 0.56868 0.26453 0.95107 0.0
O51 O 0.67424 0.33498 0.89935 0.0
H52 H 0.42015 0.75352 0.14916 0.0
H53 H 0.4128 0.74617 0.19505 0.0
H54 H 0.288 0.60493 0.19025 0.0
H55 H 0.29515 0.6117 0.14443 0.0
H56 H 0.33267 0.72977 0.22565 0.0
H57 H 0.37656 0.58372 0.23858 0.0
H58 H 0.38979 0.61952 0.20972 0.0
H59 H 0.3297 0.57157 0.21669 0.0
C60 C 0.39123 0.7208 0.15785 0.0
C61 C 0.3584 0.68308 0.14313 0.0
C62 C 0.38707 0.71673 0.18406 0.0
C63 C 0.35027 0.67477 0.196 0.0
C64 C 0.31717 0.63726 0.18139 0.0
H65 H 0.26488 0.5768 0.35077 0.0
H66 H 0.27125 0.58601 0.30495 0.0
C67 C 0.32122 0.6413 0.15519 0.0
C68 C 0.34595 0.67054 0.22375 0.0
H69 H 0.34891 0.6047 0.27462 0.0
C70 C 0.33642 0.70261 0.23642 0.0
C71 C 0.35074 0.63495 0.23765 0.0
C72 C 0.36267 0.60068 0.22505 0.0
C73 C 0.33064 0.69945 0.26266 0.0
C74 C 0.33548 0.66386 0.27658 0.0
C75 C 0.34511 0.63187 0.26389 0.0
C76 C 0.33088 0.65919 0.30435 0.0
C77 C 0.31827 0.73347 0.27518 0.0
C78 C 0.3625 0.6972 0.3192 0.0
C79 C 0.35886 0.69214 0.3454 0.0
C80 C 0.32379 0.64875 0.35723 0.0
C81 C 0.29225 0.6107 0.34228 0.0
C82 C 0.29585 0.61587 0.31609 0.0
H83 H 0.30319 0.7493 0.26168 0.0
H84 H 0.29195 0.71485 0.29087 0.0
H85 H 0.35133 0.76345 0.28298 0.0
H86 H 0.39047 0.73057 0.31053 0.0
H87 H 0.38391 0.72204 0.35635 0.0
H88 H 0.64773 0.26886 0.64476 0.0
H89 H 0.64065 0.25827 0.69056 0.0
H90 H 0.70956 0.41218 0.69732 0.0
H91 H 0.71626 0.42316 0.65159 0.0
H92 H 0.71368 0.29445 0.7258 0.0
H93 H 0.58753 0.36232 0.74055 0.0
H94 H 0.59846 0.34617 0.7101 0.0
H95 H 0.64067 0.40319 0.72267 0.0
C96 C 0.66123 0.30048 0.65597 0.0
C97 C 0.68237 0.34687 0.64451 0.0
C98 C 0.65717 0.29433 0.68213 0.0
C99 C 0.67389 0.33438 0.69729 0.0
C100 C 0.69548 0.38073 0.68594 0.0
H101 H 0.69493 0.38031 0.85689 0.0
H102 H 0.69896 0.38778 0.81101 0.0
C103 C 0.69953 0.38694 0.65979 0.0
C104 C 0.6699 0.32776 0.72501 0.0
H105 H 0.62254 0.34925 0.77706 0.0
C106 C 0.69351 0.30612 0.73703 0.0
C107 C 0.64356 0.34307 0.73956 0.0
C108 C 0.61572 0.36458 0.72759 0.0
C109 C 0.69244 0.3004 0.7633 0.0
C110 C 0.66642 0.31606 0.77785 0.0
C111 C 0.64255 0.33741 0.76583 0.0
C112 C 0.66391 0.31109 0.80563 0.0
C113 C 0.72016 0.27878 0.7753 0.0
C114 C 0.64234 0.26542 0.81777 0.0
C115 C 0.64002 0.26098 0.844 0.0
C116 C 0.65901 0.30217 0.85855 0.0
C117 C 0.68012 0.34785 0.84627 0.0
C118 C 0.68241 0.35222 0.82006 0.0
H119 H 0.74729 0.27948 0.76212 0.0
H120 H 0.73868 0.29827 0.79233 0.0
H121 H 0.69488 0.24067 0.78105 0.0
H122 H 0.62701 0.23318 0.80696 0.0
H123 H 0.62326 0.22527 0.85285 0.0
H124 H 0.41829 0.58115 0.05662 0.0
H125 H 0.46169 0.5423 0.04123 0.0
H126 H 0.43361 0.56834 0.96488 0.0
H127 H 0.39074 0.6078 0.98003 0.0
H128 H 0.42792 0.46183 0.0118 0.0
H129 H 0.57874 0.62233 0.96358 0.0
H130 H 0.53879 0.6267 0.98577 0.0
H131 H 0.52044 0.61049 0.95399 0.0
C132 C 0.42151 0.57883 0.03654 0.0
C133 C 0.40123 0.5978 0.01954 0.0
C134 C 0.4463 0.55658 0.02779 0.0
C135 C 0.4515 0.55313 0.00192 0.0
C136 C 0.4309 0.57156 0.98491 0.0
H137 H 0.57247 0.4225 0.90934 0.0
H138 H 0.53202 0.46317 0.92621 0.0
C139 C 0.40615 0.59386 0.99362 0.0
C140 C 0.47733 0.52903 0.99273 0.0
H141 H 0.57212 0.54666 0.95593 0.0
C142 C 0.45964 0.48042 -0.00027 0.0
C143 C 0.5187 0.55343 0.97698 0.0
C144 C 0.54063 0.60624 0.9698 0.0
C145 C 0.48158 0.4552 0.99092 0.0
C146 C 0.52265 0.47948 0.97498 0.0
C147 C 0.54053 0.52816 0.96811 0.0
C148 C 0.54729 0.45485 0.96499 0.0
C149 C 0.45998 0.40247 0.99821 0.0
C150 C 0.56975 0.43724 0.98123 0.0
C151 C 0.59298 0.41402 0.97166 0.0
C152 C 0.59423 0.40813 0.94566 0.0
C153 C 0.57205 0.42628 0.92946 0.0
C154 C 0.54896 0.44958 0.93904 0.0
H155 H 0.4227 0.38669 0.00573 0.0
H156 H 0.45969 0.38171 0.98186 0.0
H157 H 0.48201 0.39826 0.013 0.0
H158 H 0.56954 0.44168 0.00129 0.0
H159 H 0.60986 0.40064 0.98465 0.0
H160 H 0.17808 0.66949 0.43946 0.0
H161 H 0.0951 0.62365 0.45515 0.0
H162 H 0.12185 0.51388 0.48648 0.0
H163 H 0.20473 0.5591 0.47059 0.0
H164 H 0.03731 0.47697 0.45989 0.0
H165 H 0.04884 0.6091 0.52823 0.0
H166 H 0.06766 0.63391 0.49685 0.0
H167 H 0.10132 0.61205 0.51413 0.0
C168 C 0.16639 0.63565 0.44974 0.0
C169 C 0.19809 0.61804 0.45386 0.0
C170 C 0.11903 0.60966 0.45882 0.0
C171 C 0.1026 0.56579 0.47232 0.0
C172 C 0.13395 0.54783 0.47623 0.0
H173 H 0.83712 0.41055 0.56036 0.0
H174 H 0.9211 0.45535 0.54606 0.0
C175 C 0.18129 0.57375 0.46714 0.0
C176 C 0.05236 0.53798 0.48186 0.0
H177 H 0.97079 0.54387 0.52038 0.0
C178 C 0.02277 0.49148 0.47319 0.0
C179 C 0.03375 0.55679 0.49946 0.0
C180 C 0.06461 0.60552 0.51043 0.0
C181 C 0.97469 0.46358 0.48128 0.0
C182 C 0.95558 0.4831 0.49817 0.0
C183 C 0.98544 0.52922 0.50724 0.0
C184 C 0.90468 0.45615 0.50672 0.0
C185 C 0.94501 0.41322 0.47196 0.0
C186 C 0.86768 0.4424 0.48937 0.0
C187 C 0.81969 0.41669 0.49745 0.0
C188 C 0.80782 0.40461 0.52308 0.0
C189 C 0.84502 0.41917 0.54048 0.0
C190 C 0.89303 0.44479 0.53236 0.0
H191 H 0.96795 0.39922 0.46482 0.0
H192 H 0.92086 0.38808 0.48708 0.0
H193 H 0.92248 0.4136 0.45629 0.0
H194 H 0.87593 0.45173 0.46956 0.0
H195 H 0.79194 0.40635 0.48358 0.0
H196 H 0.63096 0.1835 0.96358 0.0
H197 H 0.58942 0.09979 0.97954 0.0
H198 H 0.45765 0.10324 0.98636 0.0
H199 H 0.49859 0.1866 0.97 0.0
H200 H 0.54255 0.06167 0.02503 0.0
H201 H 0.41632 0.98306 0.94654 0.0
H202 H 0.46791 0.043 0.94447 0.0
H203 H 0.41409 0.03191 0.96071 0.0
C204 C 0.59308 0.16641 0.96838 0.0
C205 C 0.56801 0.19165 0.96538 0.0
C206 C 0.56943 0.11858 0.97751 0.0
C207 C 0.52029 0.09506 0.98374 0.0
C208 C 0.49532 0.12034 0.98111 0.0
H209 H 0.31467 0.81398 0.04782 0.0
H210 H 0.35725 0.8976 0.03167 0.0
C211 C 0.51888 0.1681 0.97189 0.0
C212 C 0.49543 0.04442 0.99356 0.0
H213 H 0.40209 0.93196 0.9827 0.0
C214 C 0.51202 0.03324 0.01571 0.0
C215 C 0.45562 0.00741 0.98133 0.0
C216 C 0.43765 0.01673 0.95682 0.0
C217 C 0.48925 0.98617 0.02625 0.0
C218 C 0.44923 0.94933 0.01414 0.0
C219 C 0.4327 0.96042 0.99196 0.0
C220 C 0.42396 0.89893 0.02417 0.0
C221 C 0.50754 0.97636 0.05052 0.0
C222 C 0.44733 0.87195 0.02505 0.0
C223 C 0.42311 0.82413 0.0342 0.0
C224 C 0.37503 0.80244 0.04259 0.0
C225 C 0.35171 0.82962 0.04158 0.0
C226 C 0.37593 0.87736 0.03234 0.0
H227 H 0.53146 0.01007 0.06026 0.0
H228 H 0.47722 0.95212 0.06341 0.0
H229 H 0.52832 0.95822 0.04643 0.0
H230 H 0.48419 0.88776 0.01846 0.0
H231 H 0.44207 0.80418 0.03465 0.0
H232 H 0.61561 0.4248 0.56214 0.0
H233 H 0.57751 0.47208 0.55074 0.0
H234 H 0.53173 0.39866 0.48105 0.0
H235 H 0.56906 0.35065 0.49242 0.0
H236 H 0.59646 0.53406 0.50927 0.0
H237 H 0.40751 0.38416 0.51001 0.0
H238 H 0.45541 0.37785 0.52378 0.0
H239 H 0.44735 0.37498 0.49035 0.0
C240 C 0.59721 0.41848 0.54444 0.0
C241 C 0.59516 0.38376 0.52823 0.0
C242 C 0.57552 0.44559 0.53796 0.0
C243 C 0.55121 0.43838 0.51524 0.0
C244 C 0.54943 0.40406 0.49892 0.0
H245 H 0.40685 0.57176 0.43944 0.0
H246 H 0.4453 0.5249 0.45108 0.0
C247 C 0.57102 0.37684 0.5054 0.0
C248 C 0.52886 0.46771 0.50833 0.0
H249 H 0.42206 0.46012 0.49366 0.0
C250 C 0.55829 0.51796 0.50598 0.0
C251 C 0.47907 0.44654 0.50404 0.0
C252 C 0.44535 0.39297 0.50738 0.0
C253 C 0.53938 0.5476 0.49902 0.0
C254 C 0.48965 0.52639 0.49463 0.0
C255 C 0.46021 0.47618 0.49699 0.0
C256 C 0.46739 0.55568 0.48755 0.0
C257 C 0.57285 0.60125 0.49591 0.0
C258 C 0.46683 0.58823 0.50431 0.0
C259 C 0.44482 0.61504 0.49776 0.0
C260 C 0.42288 0.60963 0.47433 0.0
C261 C 0.42353 0.57691 0.4576 0.0
C262 C 0.44541 0.55004 0.46421 0.0
H263 H 0.61098 0.61055 0.49426 0.0
H264 H 0.56375 0.61607 0.47902 0.0
H265 H 0.56908 0.61908 0.51257 0.0
H266 H 0.48294 0.59249 0.52259 0.0
H267 H 0.44482 0.63979 0.51111 0.0
H268 H 0.20392 0.58363 0.01703 0.0
H269 H 0.12257 0.54417 0.0004 0.0
H270 H 0.0666 0.55254 0.07246 0.0
H271 H 0.14766 0.59255 0.08914 0.0
H272 H 0.04214 0.45814 0.01679 0.0
H273 H 0.00985 0.61168 0.02433 0.0
H274 H 0.06892 0.61858 0.02663 0.0
H275 H 0.02802 0.59559 0.05317 0.0
C276 C 0.17432 0.57725 0.02932 0.0
C277 C 0.18232 0.59148 0.05438 0.0
C278 C 0.12789 0.55468 0.01979 0.0
C279 C 0.0887 0.54617 0.03508 0.0
C280 C 0.09648 0.55975 0.06018 0.0
H281 H 0.78084 0.40689 0.0195 0.0
H282 H 0.86355 0.44726 0.03413 0.0
C283 C 0.14284 0.58237 0.06972 0.0
C284 C 0.03947 0.52201 0.02502 0.0
H285 H 0.94214 0.5359 0.01533 0.0
C286 C 0.02035 0.47522 0.01628 0.0
C287 C 0.0112 0.54445 0.0244 0.0
C288 C 0.03062 0.59551 0.03241 0.0
C289 C 0.9732 0.44975 0.00753 0.0
C290 C 0.94478 0.472 0.00719 0.0
C291 C 0.96402 0.51892 0.01573 0.0
C292 C 0.89481 0.4471 0.99821 0.0
C293 C 0.95375 0.39883 0.9993 0.0
C294 C 0.88511 0.4341 0.97309 0.0
C295 C 0.83791 0.41105 0.96464 0.0
C296 C 0.79955 0.40076 0.98117 0.0
C297 C 0.80949 0.41415 0.0063 0.0
C298 C 0.85672 0.43727 0.0147 0.0
H299 H 0.97588 0.38326 0.00615 0.0
H300 H 0.9162 0.37528 0.0062 0.0
H301 H 0.9538 0.3987 0.97847 0.0
H302 H 0.91412 0.44216 0.95996 0.0
H303 H 0.83153 0.40143 0.94515 0.0
H304 H 0.64738 0.20367 0.51888 0.0
H305 H 0.61463 0.12544 0.49967 0.0
H306 H 0.48734 0.06955 0.54661 0.0
H307 H 0.51949 0.14781 0.56575 0.0
H308 H 0.58783 0.03614 0.52357 0.0
H309 H 0.43339 0.03391 0.47583 0.0
H310 H 0.48273 0.08812 0.48779 0.0
H311 H 0.43641 0.04486 0.50882 0.0
C312 C 0.61229 0.17484 0.52505 0.0
C313 C 0.58595 0.18204 0.5438 0.0
C314 C 0.59369 0.13016 0.51406 0.0
C315 C 0.54834 0.09195 0.52149 0.0
C316 C 0.52202 0.09888 0.54027 0.0
H317 H 0.37633 0.79389 0.48173 0.0
H318 H 0.40959 0.87259 0.50045 0.0
C319 C 0.54058 0.14357 0.55128 0.0
C320 C 0.52923 0.04444 0.51008 0.0
H321 H 0.43638 0.96151 0.47604 0.0
C322 C 0.55485 0.01987 0.51306 0.0
C323 C 0.48617 0.02338 0.49643 0.0
C324 C 0.45821 0.04903 0.49178 0.0
C325 C 0.53807 0.97429 0.50314 0.0
C326 C 0.49496 0.95319 0.48954 0.0
C327 C 0.46939 0.9778 0.48652 0.0
C328 C 0.47556 0.90544 0.47837 0.0
C329 C 0.56601 0.94862 0.5078 0.0
C330 C 0.50153 0.89799 0.45961 0.0
C331 C 0.48268 0.85301 0.44888 0.0
C332 C 0.43736 0.81478 0.45663 0.0
C333 C 0.41138 0.82251 0.47536 0.0
C334 C 0.43027 0.86747 0.48607 0.0
H335 H 0.59112 0.96398 0.52362 0.0
H336 H 0.54148 0.90961 0.512 0.0
H337 H 0.5875 0.95242 0.49069 0.0
H338 H 0.53616 0.92712 0.45307 0.0
H339 H 0.50349 0.84835 0.4344 0.0
loop_
_geom_bond_atom_site_label_1
_geom_bond_atom_site_label_2
_geom_bond_distance
_geom_bond_site_symmetry_2
_ccdc_geom_bond_type
C0 O1 1.160 . S
C0 O7 1.185 . S
O1 C0 1.160 . S
O2 Zn3 1.899 . S
O2 C10 1.284 . S
Zn3 O2 1.899 . S
Zn3 O4 2.032 . S
Zn3 O7 2.086 . S
Zn3 O12 1.977 . S
O4 Zn3 2.032 . S
O4 C8 1.278 . S
C5 O6 1.203 . S
C5 O12 1.267 . S
O6 C5 1.203 . S
O7 C0 1.185 . S
O7 Zn3 2.086 . S
C8 O4 1.278 . S
C8 O9 1.211 . S
O9 C8 1.211 . S
C10 O2 1.284 . S
C10 O11 1.273 . S
O11 C10 1.273 . S
O12 Zn3 1.977 . S
O12 C5 1.267 . S
C13 O14 1.160 . S
C13 O20 1.185 . S
O14 C13 1.160 . S
O15 Zn16 1.899 . S
O15 C23 1.284 . S
Zn16 O15 1.899 . S
Zn16 O17 2.032 . S
Zn16 O20 2.086 . S
Zn16 O25 1.977 . S
O17 Zn16 2.032 . S
O17 C21 1.278 . S
C18 O19 1.203 . S
C18 O25 1.267 . S
O19 C18 1.203 . S
O20 C13 1.185 . S
O20 Zn16 2.086 . S
C21 O17 1.278 . S
C21 O22 1.211 . S
O22 C21 1.211 . S
C23 O15 1.284 . S
C23 O24 1.273 . S
O24 C23 1.273 . S
O25 Zn16 1.977 . S
O25 C18 1.267 . S
C26 O27 1.160 . S
C26 O33 1.185 . S
O27 C26 1.160 . S
O28 Zn29 1.899 . S
O28 C36 1.284 . S
Zn29 O28 1.899 . S
Zn29 O30 2.032 . S
Zn29 O33 2.086 . S
Zn29 O38 1.977 . S
O30 Zn29 2.032 . S
O30 C34 1.278 . S
C31 O32 1.203 . S
C31 O38 1.267 . S
O32 C31 1.203 . S
O33 C26 1.185 . S
O33 Zn29 2.086 . S
C34 O30 1.278 . S
C34 O35 1.211 . S
O35 C34 1.211 . S
C36 O28 1.284 . S
C36 O37 1.273 . S
O37 C36 1.273 . S
O38 Zn29 1.977 . S
O38 C31 1.267 . S
C39 O40 1.160 . S
C39 O46 1.185 . S
O40 C39 1.160 . S
O41 Zn42 1.899 . S
O41 C49 1.284 . S
Zn42 O41 1.899 . S
Zn42 O43 2.032 . S
Zn42 O46 2.086 . S
Zn42 O51 1.977 . S
O43 Zn42 2.032 . S
O43 C47 1.278 . S
C44 O45 1.203 . S
C44 O51 1.267 . S
O45 C44 1.203 . S
O46 C39 1.185 . S
O46 Zn42 2.086 . S
C47 O43 1.278 . S
C47 O48 1.211 . S
O48 C47 1.211 . S
C49 O41 1.284 . S
C49 O50 1.273 . S
O50 C49 1.273 . S
O51 Zn42 1.977 . S
O51 C44 1.267 . S
H52 C60 0.929 . S
H53 C62 0.930 . S
H54 C64 0.930 . S
H55 C67 0.929 . S
H56 C70 0.930 . S
H57 C72 0.960 . S
H58 C72 0.960 . S
H59 C72 0.960 . S
C60 H52 0.929 . S
C60 C61 1.377 . S
C60 C62 1.384 . S
C61 C60 1.377 . S
C61 C67 1.390 . S
C62 H53 0.930 . S
C62 C60 1.384 . S
C62 C63 1.372 . S
C63 C62 1.372 . S
C63 C64 1.400 . S
C63 C68 1.490 . S
C64 H54 0.930 . S
C64 C63 1.400 . S
C64 C67 1.386 . S
H65 C81 0.930 . S
H66 C82 0.931 . S
C67 H55 0.929 . S
C67 C61 1.390 . S
C67 C64 1.386 . S
C68 C63 1.490 . S
C68 C70 1.395 . S
C68 C71 1.403 . S
H69 C75 0.930 . S
C70 H56 0.930 . S
C70 C68 1.395 . S
C70 C73 1.403 . S
C71 C68 1.403 . S
C71 C72 1.524 . S
C71 C75 1.400 . S
C72 H57 0.960 . S
C72 H58 0.960 . S
C72 H59 0.960 . S
C72 C71 1.524 . S
C73 C70 1.403 . S
C73 C74 1.392 . S
C73 C77 1.495 . S
C74 C73 1.392 . S
C74 C75 1.385 . S
C74 C76 1.478 . S
C75 H69 0.930 . S
C75 C71 1.400 . S
C75 C74 1.385 . S
C76 C74 1.478 . S
C76 C78 1.381 . S
C76 C82 1.383 . S
C77 C73 1.495 . S
C77 H83 0.959 . S
C77 H84 0.961 . S
C77 H85 0.960 . S
C78 C76 1.381 . S
C78 C79 1.394 . S
C78 H86 0.930 . S
C79 C78 1.394 . S
C79 C80 1.383 . S
C79 H87 0.929 . S
C80 C79 1.383 . S
C80 C81 1.377 . S
C81 H65 0.930 . S
C81 C80 1.377 . S
C81 C82 1.379 . S
C82 H66 0.931 . S
C82 C76 1.383 . S
C82 C81 1.379 . S
H83 C77 0.959 . S
H84 C77 0.961 . S
H85 C77 0.960 . S
H86 C78 0.930 . S
H87 C79 0.929 . S
H88 C96 0.929 . S
H89 C98 0.930 . S
H90 C100 0.930 . S
H91 C103 0.929 . S
H92 C106 0.930 . S
H93 C108 0.960 . S
H94 C108 0.960 . S
H95 C108 0.960 . S
C96 H88 0.929 . S
C96 C97 1.377 . S
C96 C98 1.384 . S
C97 C96 1.377 . S
C97 C103 1.390 . S
C98 H89 0.930 . S
C98 C96 1.384 . S
C98 C99 1.372 . S
C99 C98 1.372 . S
C99 C100 1.400 . S
C99 C104 1.490 . S
C100 H90 0.930 . S
C100 C99 1.400 . S
C100 C103 1.386 . S
H101 C117 0.930 . S
H102 C118 0.931 . S
C103 H91 0.929 . S
C103 C97 1.390 . S
C103 C100 1.386 . S
C104 C99 1.490 . S
C104 C106 1.395 . S
C104 C107 1.403 . S
H105 C111 0.930 . S
C106 H92 0.930 . S
C106 C104 1.395 . S
C106 C109 1.403 . S
C107 C104 1.403 . S
C107 C108 1.524 . S
C107 C111 1.400 . S
C108 H93 0.960 . S
C108 H94 0.960 . S
C108 H95 0.960 . S
C108 C107 1.524 . S
C109 C106 1.403 . S
C109 C110 1.392 . S
C109 C113 1.495 . S
C110 C109 1.392 . S
C110 C111 1.385 . S
C110 C112 1.478 . S
C111 H105 0.930 . S
C111 C107 1.400 . S
C111 C110 1.385 . S
C112 C110 1.478 . S
C112 C114 1.381 . S
C112 C118 1.383 . S
C113 C109 1.495 . S
C113 H119 0.959 . S
C113 H120 0.961 . S
C113 H121 0.960 . S
C114 C112 1.381 . S
C114 C115 1.394 . S
C114 H122 0.930 . S
C115 C114 1.394 . S
C115 C116 1.383 . S
C115 H123 0.929 . S
C116 C115 1.383 . S
C116 C117 1.377 . S
C117 H101 0.930 . S
C117 C116 1.377 . S
C117 C118 1.379 . S
C118 H102 0.931 . S
C118 C112 1.383 . S
C118 C117 1.379 . S
H119 C113 0.959 . S
H120 C113 0.961 . S
H121 C113 0.960 . S
H122 C114 0.930 . S
H123 C115 0.929 . S
H124 C132 0.929 . S
H125 C134 0.930 . S
H126 C136 0.930 . S
H127 C139 0.929 1_556 S
H128 C142 0.930 . S
H129 C144 0.960 . S
H130 C144 0.960 1_554 S
H131 C144 0.960 . S
C132 H124 0.929 . S
C132 C133 1.377 . S
C132 C134 1.384 . S
C133 C132 1.377 . S
C133 C139 1.390 . S
C134 H125 0.930 . S
C134 C132 1.384 . S
C134 C135 1.372 . S
C135 C134 1.372 . S
C135 C136 1.400 1_554 S
C135 C140 1.490 . S
C136 H126 0.930 . S
C136 C135 1.400 1_556 S
C136 C139 1.386 1_556 S
H137 C153 0.930 . S
H138 C154 0.931 . S
C139 H127 0.929 1_554 S
C139 C133 1.390 . S
C139 C136 1.386 1_554 S
C140 C135 1.490 . S
C140 C142 1.395 . S
C140 C143 1.403 1_554 S
H141 C147 0.930 . S
C142 H128 0.930 . S
C142 C140 1.395 . S
C142 C145 1.413 . S
C143 C140 1.403 1_556 S
C143 C144 1.524 . S
C143 C147 1.400 . S
C144 H129 0.960 . S
C144 H130 0.960 1_556 S
C144 H131 0.960 . S
C144 C143 1.524 . S
C145 C142 1.413 . S
C145 C146 1.381 1_554 S
C145 C149 1.498 . S
C146 C145 1.381 1_556 S
C146 C147 1.385 . S
C146 C148 1.478 . S
C147 H141 0.930 . S
C147 C143 1.400 . S
C147 C146 1.385 . S
C148 C146 1.478 . S
C148 C150 1.381 . S
C148 C154 1.383 . S
C149 C145 1.498 . S
C149 H155 0.959 . S
C149 H156 0.961 1_554 S
C149 H157 0.960 . S
C150 C148 1.381 . S
C150 C151 1.394 . S
C150 H158 0.930 1_556 S
C151 C150 1.394 . S
C151 C152 1.383 . S
C151 H159 0.929 . S
C152 C151 1.383 . S
C152 C153 1.377 . S
C153 H137 0.930 . S
C153 C152 1.377 . S
C153 C154 1.379 . S
C154 H138 0.931 . S
C154 C148 1.383 . S
C154 C153 1.379 . S
H155 C149 0.959 . S
H156 C149 0.961 1_556 S
H157 C149 0.960 . S
H158 C150 0.930 1_554 S
H159 C151 0.929 . S
H160 C168 0.929 . S
H161 C170 0.930 . S
H162 C172 0.930 . S
H163 C175 0.929 . S
H164 C178 0.930 . S
H165 C180 0.960 . S
H166 C180 0.960 . S
H167 C180 0.960 . S
C168 H160 0.929 . S
C168 C169 1.377 . S
C168 C170 1.384 . S
C169 C168 1.377 . S
C169 C175 1.390 . S
C170 H161 0.930 . S
C170 C168 1.384 . S
C170 C171 1.372 . S
C171 C170 1.372 . S
C171 C172 1.400 . S
C171 C176 1.490 . S
C172 H162 0.930 . S
C172 C171 1.400 . S
C172 C175 1.386 . S
H173 C189 0.930 . S
H174 C190 0.931 . S
C175 H163 0.929 . S
C175 C169 1.390 . S
C175 C172 1.386 . S
C176 C171 1.490 . S
C176 C178 1.395 . S
C176 C179 1.403 . S
H177 C183 0.930 . S
C178 H164 0.930 . S
C178 C176 1.395 . S
C178 C181 1.403 1_455 S
C179 C176 1.403 . S
C179 C180 1.524 . S
C179 C183 1.400 1_455 S
C180 H165 0.960 . S
C180 H166 0.960 . S
C180 H167 0.960 . S
C180 C179 1.524 . S
C181 C178 1.403 1_655 S
C181 C182 1.392 . S
C181 C185 1.495 . S
C182 C181 1.392 . S
C182 C183 1.385 . S
C182 C184 1.478 . S
C183 H177 0.930 . S
C183 C179 1.400 1_655 S
C183 C182 1.385 . S
C184 C182 1.478 . S
C184 C186 1.381 . S
C184 C190 1.383 . S
C185 C181 1.495 . S
C185 H191 0.959 . S
C185 H192 0.961 . S
C185 H193 0.960 . S
C186 C184 1.381 . S
C186 C187 1.394 . S
C186 H194 0.930 . S
C187 C186 1.394 . S
C187 C188 1.383 . S
C187 H195 0.929 . S
C188 C187 1.383 . S
C188 C189 1.377 . S
C189 H173 0.930 . S
C189 C188 1.377 . S
C189 C190 1.379 . S
C190 H174 0.931 . S
C190 C184 1.383 . S
C190 C189 1.379 . S
H191 C185 0.959 . S
H192 C185 0.961 . S
H193 C185 0.960 . S
H194 C186 0.930 . S
H195 C187 0.929 . S
H196 C204 0.929 . S
H197 C206 0.930 . S
H198 C208 0.930 . S
H199 C211 0.929 . S
H200 C214 0.930 . S
H201 C216 0.960 1_565 S
H202 C216 0.960 . S
H203 C216 0.960 . S
C204 H196 0.929 . S
C204 C205 1.377 . S
C204 C206 1.384 . S
C205 C204 1.377 . S
C205 C211 1.390 . S
C206 H197 0.930 . S
C206 C204 1.384 . S
C206 C207 1.372 . S
C207 C206 1.372 . S
C207 C208 1.400 . S
C207 C212 1.490 . S
C208 H198 0.930 . S
C208 C207 1.400 . S
C208 C211 1.386 . S
H209 C225 0.930 . S
H210 C226 0.931 . S
C211 H199 0.929 . S
C211 C205 1.390 . S
C211 C208 1.386 . S
C212 C207 1.490 . S
C212 C214 1.395 1_556 S
C212 C215 1.403 . S
H213 C219 0.930 . S
C214 H200 0.930 . S
C214 C212 1.395 1_554 S
C214 C217 1.403 1_545 S
C215 C212 1.403 . S
C215 C216 1.524 . S
C215 C219 1.400 1_545 S
C216 H201 0.960 1_545 S
C216 H202 0.960 . S
C216 H203 0.960 . S
C216 C215 1.524 . S
C217 C214 1.403 1_565 S
C217 C218 1.392 . S
C217 C221 1.495 . S
C218 C217 1.392 . S
C218 C219 1.385 1_554 S
C218 C220 1.478 . S
C219 H213 0.930 . S
C219 C215 1.400 1_565 S
C219 C218 1.385 1_556 S
C220 C218 1.478 . S
C220 C222 1.381 . S
C220 C226 1.383 . S
C221 C217 1.495 . S
C221 H227 0.959 1_565 S
C221 H228 0.961 . S
C221 H229 0.960 . S
C222 C220 1.381 . S
C222 C223 1.394 . S
C222 H230 0.930 . S
C223 C222 1.394 . S
C223 C224 1.383 . S
C223 H231 0.929 . S
C224 C223 1.383 . S
C224 C225 1.377 . S
C225 H209 0.930 . S
C225 C224 1.377 . S
C225 C226 1.379 . S
C226 H210 0.931 . S
C226 C220 1.383 . S
C226 C225 1.379 . S
H227 C221 0.959 1_545 S
H228 C221 0.961 . S
H229 C221 0.960 . S
H230 C222 0.930 . S
H231 C223 0.929 . S
H232 C240 0.929 . S
H233 C242 0.930 . S
H234 C244 0.930 . S
H235 C247 0.929 . S
H236 C250 0.930 . S
H237 C252 0.960 . S
H238 C252 0.960 . S
H239 C252 0.960 . S
C240 H232 0.929 . S
C240 C241 1.377 . S
C240 C242 1.384 . S
C241 C240 1.377 . S
C241 C247 1.390 . S
C242 H233 0.930 . S
C242 C240 1.384 . S
C242 C243 1.372 . S
C243 C242 1.372 . S
C243 C244 1.400 . S
C243 C248 1.490 . S
C244 H234 0.930 . S
C244 C243 1.400 . S
C244 C247 1.386 . S
H245 C261 0.930 . S
H246 C262 0.931 . S
C247 H235 0.929 . S
C247 C241 1.390 . S
C247 C244 1.386 . S
C248 C243 1.490 . S
C248 C250 1.395 . S
C248 C251 1.403 . S
H249 C255 0.930 . S
C250 H236 0.930 . S
C250 C248 1.395 . S
C250 C253 1.403 . S
C251 C248 1.403 . S
C251 C252 1.524 . S
C251 C255 1.400 . S
C252 H237 0.960 . S
C252 H238 0.960 . S
C252 H239 0.960 . S
C252 C251 1.524 . S
C253 C250 1.403 . S
C253 C254 1.392 . S
C253 C257 1.495 . S
C254 C253 1.392 . S
C254 C255 1.385 . S
C254 C256 1.478 . S
C255 H249 0.930 . S
C255 C251 1.400 . S
C255 C254 1.385 . S
C256 C254 1.478 . S
C256 C258 1.381 . S
C256 C262 1.383 . S
C257 C253 1.495 . S
C257 H263 0.959 . S
C257 H264 0.961 . S
C257 H265 0.960 . S
C258 C256 1.381 . S
C258 C259 1.394 . S
C258 H266 0.930 . S
C259 C258 1.394 . S
C259 C260 1.383 . S
C259 H267 0.929 . S
C260 C259 1.383 . S
C260 C261 1.377 . S
C261 H245 0.930 . S
C261 C260 1.377 . S
C261 C262 1.379 . S
C262 H246 0.931 . S
C262 C256 1.383 . S
C262 C261 1.379 . S
H263 C257 0.959 . S
H264 C257 0.961 . S
H265 C257 0.960 . S
H266 C258 0.930 . S
H267 C259 0.929 . S
H268 C276 0.929 . S
H269 C278 0.930 1_556 S
H270 C280 0.930 . S
H271 C283 0.929 . S
H272 C286 0.927 1_556 S
H273 C288 0.960 . S
H274 C288 0.960 . S
H275 C288 0.960 . S
C276 H268 0.929 . S
C276 C277 1.377 . S
C276 C278 1.384 . S
C277 C276 1.377 . S
C277 C283 1.390 . S
C278 H269 0.930 1_554 S
C278 C276 1.384 . S
C278 C279 1.372 . S
C279 C278 1.372 . S
C279 C280 1.400 . S
C279 C284 1.490 . S
C280 H270 0.930 . S
C280 C279 1.400 . S
C280 C283 1.386 . S
H281 C297 0.930 1_554 S
H282 C298 0.931 . S
C283 H271 0.929 . S
C283 C277 1.390 . S
C283 C280 1.386 . S
C284 C279 1.490 . S
C284 C286 1.410 . S
C284 C287 1.403 . S
H285 C291 0.930 . S
C286 H272 0.927 1_554 S
C286 C284 1.410 . S
C286 C289 1.391 1_454 S
C287 C284 1.403 . S
C287 C288 1.524 . S
C287 C291 1.400 1_455 S
C288 H273 0.960 . S
C288 H274 0.960 . S
C288 H275 0.960 . S
C288 C287 1.524 . S
C289 C286 1.391 1_656 S
C289 C290 1.392 . S
C289 C293 1.495 . S
C290 C289 1.392 . S
C290 C291 1.385 1_556 S
C290 C292 1.478 . S
C291 H285 0.930 . S
C291 C287 1.400 1_655 S
C291 C290 1.385 1_554 S
C292 C290 1.478 . S
C292 C294 1.381 . S
C292 C298 1.383 1_556 S
C293 C289 1.495 . S
C293 H299 0.959 . S
C293 H300 0.961 . S
C293 H301 0.960 . S
C294 C292 1.381 . S
C294 C295 1.394 . S
C294 H302 0.930 . S
C295 C294 1.394 . S
C295 C296 1.383 . S
C295 H303 0.929 . S
C296 C295 1.383 . S
C296 C297 1.377 . S
C297 H281 0.930 1_556 S
C297 C296 1.377 . S
C297 C298 1.379 1_556 S
C298 H282 0.931 . S
C298 C292 1.383 1_554 S
C298 C297 1.379 1_554 S
H299 C293 0.959 . S
H300 C293 0.961 . S
H301 C293 0.960 . S
H302 C294 0.930 . S
H303 C295 0.929 . S
H304 C312 0.929 . S
H305 C314 0.930 . S
H306 C316 0.930 . S
H307 C319 0.929 . S
H308 C322 0.930 . S
H309 C324 0.960 . S
H310 C324 0.960 . S
H311 C324 0.960 . S
C312 H304 0.929 . S
C312 C313 1.377 . S
C312 C314 1.384 . S
C313 C312 1.377 . S
C313 C319 1.390 . S
C314 H305 0.930 . S
C314 C312 1.384 . S
C314 C315 1.372 . S
C315 C314 1.372 . S
C315 C316 1.400 . S
C315 C320 1.490 . S
C316 H306 0.930 . S
C316 C315 1.400 . S
C316 C319 1.386 . S
H317 C333 0.930 . S
H318 C334 0.931 . S
C319 H307 0.929 . S
C319 C313 1.390 . S
C319 C316 1.386 . S
C320 C315 1.490 . S
C320 C322 1.395 . S
C320 C323 1.403 . S
H321 C327 0.930 . S
C322 H308 0.930 . S
C322 C320 1.395 . S
C322 C325 1.403 1_545 S
C323 C320 1.403 . S
C323 C324 1.524 . S
C323 C327 1.400 1_545 S
C324 H309 0.960 . S
C324 H310 0.960 . S
C324 H311 0.960 . S
C324 C323 1.524 . S
C325 C322 1.403 1_565 S
C325 C326 1.392 . S
C325 C329 1.495 . S
C326 C325 1.392 . S
C326 C327 1.385 . S
C326 C328 1.478 . S
C327 H321 0.930 . S
C327 C323 1.400 1_565 S
C327 C326 1.385 . S
C328 C326 1.478 . S
C328 C330 1.381 . S
C328 C334 1.383 . S
C329 C325 1.495 . S
C329 H335 0.959 . S
C329 H336 0.961 . S
C329 H337 0.960 . S
C330 C328 1.381 . S
C330 C331 1.394 . S
C330 H338 0.930 . S
C331 C330 1.394 . S
C331 C332 1.383 . S
C331 H339 0.929 . S
C332 C331 1.383 . S
C332 C333 1.377 . S
C333 H317 0.930 . S
C333 C332 1.377 . S
C333 C334 1.379 . S
C334 H318 0.931 . S
C334 C328 1.383 . S
C334 C333 1.379 . S
H335 C329 0.959 . S
H336 C329 0.961 . S
H337 C329 0.960 . S
H338 C330 0.930 . S
H339 C331 0.929 . S
C61 C5 1.498 . S
C80 C31 1.485 . S
C97 C18 1.495 . S
C116 C44 1.494 . S
C133 C0 1.528 . S
C152 C47 1.525 . S
C169 C36 1.440 . S
C188 C13 1.427 . S
C205 C49 1.382 . S
C224 C10 1.389 . S
C241 C23 1.442 . S
C260 C26 1.440 . S
C277 C8 1.532 . S
C296 C39 1.510 . S
C313 C21 1.587 . S
C332 C34 1.593 . S
