# Generated by pormake.
# Topology wjo, (5)-cn, num edge types: 1
# Building blocks:
#     Node 0, Type 0, BuildingBlock: BEQFEK_clean_sbu_0, # of connection points: 5
#     Node 1, Type 0, BuildingBlock: BEQFEK_clean_sbu_0, # of connection points: 5
#     Node 2, Type 0, BuildingBlock: BEQFEK_clean_sbu_0, # of connection points: 5
#     Node 3, Type 0, BuildingBlock: BEQFEK_clean_sbu_0, # of connection points: 5
#     Node 4, Type 0, BuildingBlock: BEQFEK_clean_sbu_0, # of connection points: 5
#     Node 5, Type 0, BuildingBlock: BEQFEK_clean_sbu_0, # of connection points: 5
#     Node 6, Type 0, BuildingBlock: BEQFEK_clean_sbu_0, # of connection points: 5
#     Node 7, Type 0, BuildingBlock: BEQFEK_clean_sbu_0, # of connection points: 5
#     Node 8, Type 0, BuildingBlock: BEQFEK_clean_sbu_0, # of connection points: 5
#     Node 9, Type 0, BuildingBlock: BEQFEK_clean_sbu_0, # of connection points: 5
#     Node 10, Type 0, BuildingBlock: BEQFEK_clean_sbu_0, # of connection points: 5
#     Node 11, Type 0, BuildingBlock: BEQFEK_clean_sbu_0, # of connection points: 5
#     Edge 12, Type (0, 0), BuildingBlock: XIVTED_clean_linker_0, # of connection points: 2
#     Edge 13, Type (0, 0), BuildingBlock: XIVTED_clean_linker_0, # of connection points: 2
#     Edge 14, Type (0, 0), BuildingBlock: XIVTED_clean_linker_0, # of connection points: 2
#     Edge 15, Type (0, 0), BuildingBlock: XIVTED_clean_linker_0, # of connection points: 2
#     Edge 16, Type (0, 0), BuildingBlock: XIVTED_clean_linker_0, # of connection points: 2
#     Edge 17, Type (0, 0), BuildingBlock: XIVTED_clean_linker_0, # of connection points: 2
#     Edge 18, Type (0, 0), BuildingBlock: XIVTED_clean_linker_0, # of connection points: 2
#     Edge 19, Type (0, 0), BuildingBlock: XIVTED_clean_linker_0, # of connection points: 2
#     Edge 20, Type (0, 0), BuildingBlock: XIVTED_clean_linker_0, # of connection points: 2
#     Edge 21, Type (0, 0), BuildingBlock: XIVTED_clean_linker_0, # of connection points: 2
#     Edge 22, Type (0, 0), BuildingBlock: XIVTED_clean_linker_0, # of connection points: 2
#     Edge 23, Type (0, 0), BuildingBlock: XIVTED_clean_linker_0, # of connection points: 2
#     Edge 24, Type (0, 0), BuildingBlock: XIVTED_clean_linker_0, # of connection points: 2
#     Edge 25, Type (0, 0), BuildingBlock: XIVTED_clean_linker_0, # of connection points: 2
#     Edge 26, Type (0, 0), BuildingBlock: XIVTED_clean_linker_0, # of connection points: 2
#     Edge 27, Type (0, 0), BuildingBlock: XIVTED_clean_linker_0, # of connection points: 2
#     Edge 28, Type (0, 0), BuildingBlock: XIVTED_clean_linker_0, # of connection points: 2
#     Edge 29, Type (0, 0), BuildingBlock: XIVTED_clean_linker_0, # of connection points: 2
#     Edge 30, Type (0, 0), BuildingBlock: XIVTED_clean_linker_0, # of connection points: 2
#     Edge 31, Type (0, 0), BuildingBlock: XIVTED_clean_linker_0, # of connection points: 2
#     Edge 32, Type (0, 0), BuildingBlock: XIVTED_clean_linker_0, # of connection points: 2
#     Edge 33, Type (0, 0), BuildingBlock: XIVTED_clean_linker_0, # of connection points: 2
#     Edge 34, Type (0, 0), BuildingBlock: XIVTED_clean_linker_0, # of connection points: 2
#     Edge 35, Type (0, 0), BuildingBlock: XIVTED_clean_linker_0, # of connection points: 2
#     Edge 36, Type (0, 0), BuildingBlock: XIVTED_clean_linker_0, # of connection points: 2
#     Edge 37, Type (0, 0), BuildingBlock: XIVTED_clean_linker_0, # of connection points: 2
#     Edge 38, Type (0, 0), BuildingBlock: XIVTED_clean_linker_0, # of connection points: 2
#     Edge 39, Type (0, 0), BuildingBlock: XIVTED_clean_linker_0, # of connection points: 2
#     Edge 40, Type (0, 0), BuildingBlock: XIVTED_clean_linker_0, # of connection points: 2
#     Edge 41, Type (0, 0), BuildingBlock: XIVTED_clean_linker_0, # of connection points: 2
# Relax obj value: 0.788
# Max RMSD: 0.255
# Mean RMSD: 0.245
data_MOF--net-wjo--node1-BEQFEK_clean_sbu_0--edge1-XIVTED_clean_linker_0
_symmetry_space_group_name_H-M    P1
_symmetry_Int_Tables_number       1
_symmetry_cell_setting            triclinic
loop_
_symmetry_equiv_pos_as_xyz
'x, y, z'
_cell_length_a     46.177851
_cell_length_b     45.972279
_cell_length_c     27.416446
_cell_angle_alpha  90.087189
_cell_angle_beta   90.04856
_cell_angle_gamma 120.1962
loop_
_atom_site_label
_atom_site_type_symbol
_atom_site_fract_x
_atom_site_fract_y
_atom_site_fract_z
_atom_type_partial_charge
Co0 Co 0.29926 0.37277 0.90683 0.0
Co1 Co 0.28946 0.42384 0.97117 0.0
C2 C 0.30206 0.37084 0.01486 0.0
O3 O 0.30293 0.35848 0.97369 0.0
O4 O 0.29772 0.396 0.01788 0.0
C5 C 0.28688 0.3085 0.87262 0.0
O6 O 0.27162 0.29864 0.91487 0.0
C7 C 0.26268 0.44548 0.05085 0.0
C8 C 0.28721 0.50027 0.03811 0.0
C9 C 0.26722 0.47528 0.07098 0.0
N10 N 0.27939 0.45267 0.00841 0.0
N11 N 0.29345 0.48536 0.00051 0.0
C12 C 0.24577 0.41122 0.07367 0.0
H13 H 0.24754 0.39266 0.05009 0.0
H14 H 0.21874 0.4021 0.07848 0.0
H15 H 0.25685 0.41235 0.11006 0.0
C16 C 0.22753 0.35204 0.88234 0.0
N17 N 0.2579 0.37372 0.90163 0.0
N18 N 0.25515 0.39665 0.92676 0.0
C19 C 0.22378 0.39122 0.92252 0.0
C20 C 0.20486 0.36234 0.89507 0.0
C21 C 0.2192 0.31997 0.85691 0.0
H22 H 0.23912 0.32464 0.83027 0.0
H23 H 0.21775 0.3015 0.88419 0.0
H24 H 0.19474 0.30921 0.83776 0.0
O25 O 0.34115 0.41799 0.89435 0.0
O26 O 0.33075 0.45276 0.93715 0.0
H27 H 0.22982 0.43743 0.95121 0.0
H28 H 0.18757 0.40738 0.93396 0.0
C29 C 0.21079 0.41029 0.95045 0.0
H30 H 0.20507 0.40064 0.98829 0.0
H31 H 0.30889 0.49776 0.97083 0.0
O32 O 0.29995 0.33933 0.86068 0.0
C33 C 0.34944 0.44757 0.90897 0.0
Co34 Co 0.93235 0.29522 0.0753 0.0
Co35 Co 0.87172 0.28522 0.13967 0.0
C36 C 0.93809 0.29973 0.183 0.0
O37 O 0.95125 0.30024 0.142 0.0
O38 O 0.90846 0.29479 0.18574 0.0
C39 C 0.98418 0.28343 0.0404 0.0
O40 O 0.97936 0.26853 0.0829 0.0
C41 C 0.82393 0.25848 0.22022 0.0
C42 C 0.79323 0.2822 0.20707 0.0
C43 C 0.79859 0.26267 0.24028 0.0
N44 N 0.83312 0.27495 0.17751 0.0
N45 N 0.81425 0.28853 0.1694 0.0
C46 C 0.84147 0.24196 0.24314 0.0
H47 H 0.85092 0.25278 0.27989 0.0
H48 H 0.86221 0.24452 0.22001 0.0
H49 H 0.82376 0.21464 0.24719 0.0
C50 C 0.88116 0.22246 0.05264 0.0
N51 N 0.89003 0.25313 0.07126 0.0
N52 N 0.86441 0.25043 0.09617 0.0
C53 C 0.83834 0.21883 0.09241 0.0
C54 C 0.84811 0.19968 0.0655 0.0
C55 C 0.90472 0.21408 0.02741 0.0
H56 H 0.91975 0.2338 0.00023 0.0
H57 H 0.92201 0.21322 0.05469 0.0
H58 H 0.89088 0.18924 0.00892 0.0
O59 O 0.92861 0.33683 0.06209 0.0
O60 O 0.88346 0.32607 0.10475 0.0
H61 H 0.79845 0.22516 0.12042 0.0
H62 H 0.78577 0.1826 0.10391 0.0
C63 C 0.80627 0.206 0.12016 0.0
H64 H 0.81012 0.20049 0.15816 0.0
H65 H 0.81697 0.30367 0.13943 0.0
O66 O 0.9661 0.29601 0.02863 0.0
C67 C 0.90723 0.34487 0.07638 0.0
Co68 Co 0.63491 0.92773 0.24336 0.0
Co69 Co 0.58661 0.86945 0.31432 0.0
C70 C 0.64044 0.93598 0.35241 0.0
O71 O 0.64999 0.94785 0.30967 0.0
O72 O 0.61642 0.90608 0.35906 0.0
C73 C 0.699 0.97795 0.20653 0.0
O74 O 0.70921 0.97253 0.2485 0.0
C75 C 0.55622 0.82566 0.39876 0.0
C76 C 0.51054 0.78285 0.36729 0.0
C77 C 0.52744 0.79598 0.41073 0.0
N78 N 0.55624 0.8304 0.3505 0.0
N79 N 0.52889 0.80467 0.33181 0.0
C80 C 0.58396 0.84851 0.43237 0.0
H81 H 0.60843 0.85761 0.41406 0.0
H82 H 0.58361 0.83552 0.46662 0.0
H83 H 0.58114 0.87048 0.44144 0.0
C84 C 0.65363 0.87478 0.22034 0.0
N85 N 0.63343 0.88481 0.24089 0.0
N86 N 0.61255 0.86079 0.2704 0.0
C87 C 0.61857 0.83507 0.26954 0.0
C88 C 0.64475 0.84286 0.23763 0.0
C89 C 0.68294 0.89644 0.18853 0.0
H90 H 0.67634 0.9108 0.16279 0.0
H91 H 0.7041 0.91456 0.21167 0.0
H92 H 0.69104 0.881 0.16782 0.0
O93 O 0.59003 0.92429 0.23043 0.0
O94 O 0.55803 0.88235 0.28029 0.0
H95 H 0.57656 0.79028 0.29719 0.0
H96 H 0.61574 0.79105 0.30423 0.0
C97 C 0.60361 0.80659 0.30531 0.0
H98 H 0.60613 0.81677 0.34273 0.0
H99 H 0.52241 0.80236 0.29495 0.0
O100 O 0.66801 0.96073 0.19569 0.0
C101 C 0.56151 0.90415 0.24905 0.0
Co102 Co 0.71332 0.63266 0.39714 0.0
Co103 Co 0.7255 0.58486 0.46591 0.0
C104 C 0.71417 0.63929 0.5059 0.0
O105 O 0.7106 0.64849 0.46359 0.0
O106 O 0.72005 0.61525 0.51159 0.0
C107 C 0.72457 0.69604 0.3606 0.0
O108 O 0.74129 0.70705 0.40171 0.0
C109 C 0.74725 0.55954 0.54747 0.0
C110 C 0.73798 0.51027 0.52022 0.0
C111 C 0.74903 0.53135 0.56045 0.0
N112 N 0.7362 0.55567 0.50135 0.0
N113 N 0.73079 0.52622 0.48513 0.0
C114 C 0.75139 0.5876 0.57989 0.0
H115 H 0.72621 0.58406 0.58717 0.0
H116 H 0.76663 0.61201 0.56101 0.0
H117 H 0.76302 0.5883 0.61545 0.0
C118 C 0.78497 0.6535 0.37172 0.0
N119 N 0.75489 0.63198 0.39186 0.0
N120 N 0.75865 0.61074 0.41965 0.0
C121 C 0.79056 0.61756 0.41746 0.0
C122 C 0.80856 0.64506 0.38723 0.0
C123 C 0.7922 0.68409 0.34321 0.0
H124 H 0.77128 0.67806 0.31766 0.0
H125 H 0.79473 0.704 0.36869 0.0
H126 H 0.81593 0.6938 0.32248 0.0
O127 O 0.67142 0.5871 0.3872 0.0
O128 O 0.68291 0.55529 0.43495 0.0
H129 H 0.79096 0.57462 0.44656 0.0
H130 H 0.83175 0.61175 0.44468 0.0
C131 C 0.80482 0.60233 0.45125 0.0
H132 H 0.80174 0.60822 0.48945 0.0
H133 H 0.72138 0.51664 0.45051 0.0
O134 O 0.7113 0.66492 0.35001 0.0
C135 C 0.66354 0.55857 0.4056 0.0
Co136 Co 0.08216 0.71252 0.56465 0.0
Co137 Co 0.1431 0.72093 0.62705 0.0
C138 C 0.07892 0.71042 0.67285 0.0
O139 O 0.06521 0.70939 0.63204 0.0
O140 O 0.10821 0.71433 0.67507 0.0
C141 C 0.02953 0.72408 0.53007 0.0
O142 O 0.03339 0.73825 0.57307 0.0
C143 C 0.19354 0.74728 0.70413 0.0
C144 C 0.2213 0.7205 0.69034 0.0
C145 C 0.21862 0.74221 0.72258 0.0
N146 N 0.18204 0.72954 0.66266 0.0
N147 N 0.19905 0.71397 0.65419 0.0
C148 C 0.17786 0.76516 0.72851 0.0
H149 H 0.15938 0.76644 0.70416 0.0
H150 H 0.19725 0.79119 0.73827 0.0
H151 H 0.16545 0.75186 0.76271 0.0
C152 C 0.13407 0.78455 0.54211 0.0
N153 N 0.12515 0.75359 0.5593 0.0
N154 N 0.15097 0.75562 0.58291 0.0
C155 C 0.17728 0.7871 0.57932 0.0
C156 C 0.16739 0.8069 0.55439 0.0
C157 C 0.11012 0.79367 0.51999 0.0
H158 H 0.09481 0.77491 0.49169 0.0
H159 H 0.09306 0.79331 0.54874 0.0
H160 H 0.12361 0.81915 0.50348 0.0
O161 O 0.0836 0.66967 0.55149 0.0
O162 O 0.12874 0.6791 0.59315 0.0
H163 H 0.21662 0.77957 0.60668 0.0
H164 H 0.23032 0.82199 0.5883 0.0
C165 C 0.20972 0.7994 0.60597 0.0
H166 H 0.20709 0.80625 0.64381 0.0
H167 H 0.19433 0.69755 0.62502 0.0
O168 O 0.04831 0.71229 0.51838 0.0
C169 C 0.10431 0.66068 0.56546 0.0
Co170 Co 0.37452 0.07931 0.74513 0.0
Co171 Co 0.4253 0.14061 0.81006 0.0
C172 C 0.37223 0.07511 0.85371 0.0
O173 O 0.36014 0.0617 0.81241 0.0
O174 O 0.39725 0.10481 0.85698 0.0
C175 C 0.31049 0.02674 0.70993 0.0
O176 O 0.30022 0.03161 0.75221 0.0
C177 C 0.45165 0.18758 0.89197 0.0
C178 C 0.50277 0.22429 0.86737 0.0
C179 C 0.48141 0.21508 0.90693 0.0
N180 N 0.45506 0.18029 0.84569 0.0
N181 N 0.48557 0.20266 0.83089 0.0
C182 C 0.4207 0.16833 0.92199 0.0
H183 H 0.39827 0.15475 0.89838 0.0
H184 H 0.41749 0.18564 0.94672 0.0
H185 H 0.42342 0.15007 0.94499 0.0
C186 C 0.3545 0.13083 0.72008 0.0
N187 N 0.37588 0.122 0.73969 0.0
N188 N 0.39822 0.14754 0.76588 0.0
C189 C 0.39241 0.17335 0.76284 0.0
C190 C 0.36431 0.16368 0.73402 0.0
C191 C 0.32305 0.10715 0.69344 0.0
H192 H 0.3282 0.09215 0.66681 0.0
H193 H 0.30425 0.08968 0.71998 0.0
H194 H 0.31258 0.12104 0.67414 0.0
O195 O 0.4194 0.08238 0.73277 0.0
O196 O 0.45368 0.12763 0.77617 0.0
H197 H 0.43735 0.21603 0.7893 0.0
H198 H 0.40247 0.22311 0.78491 0.0
C199 C 0.40988 0.20429 0.79402 0.0
H200 H 0.40381 0.19713 0.83284 0.0
H201 H 0.49518 0.20222 0.79664 0.0
O202 O 0.34126 0.04498 0.69859 0.0
C203 C 0.44873 0.10378 0.7478 0.0
Co204 Co 0.64015 0.71347 0.91351 0.0
Co205 Co 0.59184 0.72462 0.84464 0.0
C206 C 0.64548 0.71308 0.80419 0.0
O207 O 0.65517 0.71008 0.84652 0.0
O208 O 0.62144 0.71884 0.7986 0.0
C209 C 0.70375 0.72564 0.95073 0.0
O210 O 0.71487 0.7419 0.90936 0.0
C211 C 0.56004 0.73823 0.76226 0.0
C212 C 0.51556 0.73587 0.79632 0.0
C213 C 0.53127 0.73933 0.75202 0.0
N214 N 0.5612 0.73371 0.81039 0.0
N215 N 0.53456 0.7324 0.83062 0.0
C216 C 0.58658 0.74247 0.72707 0.0
H217 H 0.61163 0.75811 0.74393 0.0
H218 H 0.5854 0.75467 0.69284 0.0
H219 H 0.58308 0.71733 0.71825 0.0
C220 C 0.65976 0.78511 0.93936 0.0
N221 N 0.63896 0.75494 0.91842 0.0
N222 N 0.61798 0.7585 0.88987 0.0
C223 C 0.62448 0.79045 0.89181 0.0
C224 C 0.65112 0.80853 0.92341 0.0
C225 C 0.68966 0.79248 0.96954 0.0
H226 H 0.68322 0.77142 0.9951 0.0
H227 H 0.71 0.7951 0.94519 0.0
H228 H 0.69881 0.81627 0.99035 0.0
O229 O 0.59523 0.67137 0.9251 0.0
O230 O 0.56338 0.68223 0.87678 0.0
H231 H 0.58286 0.79407 0.8654 0.0
H232 H 0.62241 0.83239 0.85836 0.0
C233 C 0.60976 0.80457 0.85683 0.0
H234 H 0.61173 0.797 0.81912 0.0
H235 H 0.52897 0.72838 0.86774 0.0
O236 O 0.67274 0.7124 0.96078 0.0
C237 C 0.56674 0.66319 0.90674 0.0
Co238 Co 0.93083 0.63508 0.08313 0.0
Co239 Co 0.8735 0.5881 0.00985 0.0
C240 C 0.94051 0.64328 0.97504 0.0
O241 O 0.95216 0.65199 0.0181 0.0
O242 O 0.91074 0.61939 0.96746 0.0
C243 C 0.98007 0.69816 0.12524 0.0
O244 O 0.97563 0.71004 0.08412 0.0
C245 C 0.82985 0.5635 0.92418 0.0
C246 C 0.78927 0.51363 0.94834 0.0
C247 C 0.80068 0.53516 0.90876 0.0
N248 N 0.83524 0.55921 0.97101 0.0
N249 N 0.81087 0.5294 0.98535 0.0
C250 C 0.85468 0.59233 0.8938 0.0
H251 H 0.87744 0.59023 0.88968 0.0
H252 H 0.86181 0.61636 0.91278 0.0
H253 H 0.84539 0.59277 0.85681 0.0
C254 C 0.87821 0.65428 0.1054 0.0
N255 N 0.88813 0.63386 0.08505 0.0
N256 N 0.86427 0.61299 0.05521 0.0
C257 C 0.83867 0.61906 0.05599 0.0
C258 C 0.84654 0.64554 0.08771 0.0
C259 C 0.89982 0.68391 0.13705 0.0
H260 H 0.91397 0.67737 0.1632 0.0
H261 H 0.9179 0.70499 0.11386 0.0
H262 H 0.88448 0.69227 0.15734 0.0
O263 O 0.92696 0.58951 0.09348 0.0
O264 O 0.88562 0.55838 0.04211 0.0
H265 H 0.79642 0.57628 0.02404 0.0
H266 H 0.79249 0.61328 0.02524 0.0
C267 C 0.81027 0.60404 0.02014 0.0
H268 H 0.82046 0.61031 0.98261 0.0
H269 H 0.80945 0.51947 0.02005 0.0
O270 O 0.9628 0.66666 0.13331 0.0
C271 C 0.90706 0.56124 0.07349 0.0
Co272 Co 0.29441 0.92376 0.26095 0.0
Co273 Co 0.28153 0.86768 0.18349 0.0
C274 C 0.29302 0.93493 0.15322 0.0
O275 O 0.29807 0.94614 0.19678 0.0
O276 O 0.28581 0.90498 0.14384 0.0
C277 C 0.28056 0.97215 0.30378 0.0
O278 O 0.26227 0.96544 0.26411 0.0
C279 C 0.27934 0.83495 0.09257 0.0
C280 C 0.25384 0.7808 0.11002 0.0
C281 C 0.26701 0.80343 0.07172 0.0
N282 N 0.2723 0.8312 0.14037 0.0
N283 N 0.25807 0.79883 0.15101 0.0
C284 C 0.30136 0.86831 0.06884 0.0
H285 H 0.32033 0.88594 0.09525 0.0
H286 H 0.28586 0.8791 0.05664 0.0
H287 H 0.31449 0.86566 0.03675 0.0
C288 C 0.22334 0.87048 0.28667 0.0
N289 N 0.25269 0.88069 0.26315 0.0
N290 N 0.24779 0.85781 0.22996 0.0
C291 C 0.21542 0.83326 0.23037 0.0
C292 C 0.19896 0.83997 0.26695 0.0
C293 C 0.2176 0.89086 0.32379 0.0
H294 H 0.24018 0.90499 0.34696 0.0
H295 H 0.21234 0.90901 0.30486 0.0
H296 H 0.19568 0.87441 0.34696 0.0
O297 O 0.33589 0.91972 0.26858 0.0
O298 O 0.32415 0.87978 0.21376 0.0
H299 H 0.19876 0.78474 0.19901 0.0
H300 H 0.17228 0.8016 0.18491 0.0
C301 C 0.19875 0.80821 0.18992 0.0
H302 H 0.21202 0.81847 0.15502 0.0
H303 H 0.25104 0.789 0.18608 0.0
O304 O 0.29595 0.9561 0.31153 0.0
C305 C 0.34353 0.90032 0.24573 0.0
Co306 Co 0.37242 0.2932 0.42491 0.0
Co307 Co 0.41872 0.28148 0.35259 0.0
C308 C 0.36491 0.29423 0.31623 0.0
O309 O 0.35625 0.29748 0.35912 0.0
O310 O 0.38834 0.28779 0.30911 0.0
C311 C 0.30964 0.28073 0.4648 0.0
O312 O 0.29807 0.26411 0.42368 0.0
C313 C 0.44702 0.26728 0.26666 0.0
C314 C 0.49308 0.27034 0.29587 0.0
C315 C 0.47545 0.26646 0.25322 0.0
N316 N 0.44786 0.27202 0.31505 0.0
N317 N 0.47541 0.27371 0.33239 0.0
C318 C 0.419 0.26267 0.23418 0.0
H319 H 0.39472 0.24666 0.25275 0.0
H320 H 0.41908 0.25069 0.19906 0.0
H321 H 0.42167 0.28762 0.22668 0.0
C322 C 0.35309 0.22129 0.44951 0.0
N323 N 0.3732 0.25135 0.42794 0.0
N324 N 0.39348 0.24767 0.39806 0.0
C325 C 0.38723 0.2158 0.39978 0.0
C326 C 0.36149 0.19787 0.43259 0.0
C327 C 0.32421 0.21408 0.48185 0.0
H328 H 0.33133 0.23545 0.50721 0.0
H329 H 0.30294 0.21089 0.45905 0.0
H330 H 0.31601 0.19062 0.50295 0.0
O331 O 0.41791 0.33497 0.43536 0.0
O332 O 0.44839 0.32376 0.38464 0.0
H333 H 0.42866 0.21276 0.3712 0.0
H334 H 0.38937 0.17385 0.36637 0.0
C335 C 0.40148 0.2016 0.36408 0.0
H336 H 0.39826 0.2084 0.3265 0.0
H337 H 0.48261 0.27806 0.36899 0.0
O338 O 0.34084 0.29441 0.47397 0.0
C339 C 0.44591 0.34291 0.41554 0.0
Co340 Co 0.08578 0.37436 0.59346 0.0
Co341 Co 0.14514 0.42173 0.52387 0.0
C342 C 0.07799 0.36819 0.4854 0.0
O343 O 0.06602 0.35794 0.52784 0.0
O344 O 0.10771 0.39253 0.47956 0.0
C345 C 0.03399 0.31169 0.63187 0.0
O346 O 0.0386 0.30039 0.59027 0.0
C347 C 0.19267 0.44201 0.44255 0.0
C348 C 0.22509 0.49645 0.45682 0.0
C349 C 0.21892 0.47144 0.4232 0.0
N350 N 0.18377 0.44944 0.48539 0.0
N351 N 0.20364 0.4819 0.49412 0.0
C352 C 0.17422 0.40801 0.41886 0.0
H353 H 0.16503 0.41001 0.38229 0.0
H354 H 0.15318 0.38985 0.44167 0.0
H355 H 0.19122 0.39776 0.41429 0.0
C356 C 0.13671 0.35363 0.61856 0.0
N357 N 0.12789 0.37476 0.59782 0.0
N358 N 0.15289 0.39612 0.57018 0.0
C359 C 0.17854 0.39021 0.57394 0.0
C360 C 0.16909 0.36267 0.60405 0.0
C361 C 0.11346 0.32307 0.64725 0.0
H362 H 0.09908 0.3293 0.67342 0.0
H363 H 0.09556 0.30333 0.62198 0.0
H364 H 0.12749 0.3131 0.66734 0.0
O365 O 0.08978 0.42023 0.60219 0.0
O366 O 0.13351 0.45211 0.55522 0.0
H367 H 0.22956 0.40305 0.557 0.0
H368 H 0.20307 0.39686 0.50545 0.0
C369 C 0.2094 0.40713 0.54299 0.0
H370 H 0.219 0.43457 0.5419 0.0
H371 H 0.20146 0.49444 0.5244 0.0
O372 O 0.0523 0.34282 0.642 0.0
C373 C 0.11062 0.44883 0.58405 0.0
Co374 Co 0.71635 0.08535 0.75943 0.0
Co375 Co 0.72786 0.14632 0.6937 0.0
C376 C 0.71405 0.0798 0.65135 0.0
O377 O 0.71263 0.06675 0.69284 0.0
O378 O 0.71925 0.10962 0.64766 0.0
C379 C 0.72761 0.03317 0.7949 0.0
O380 O 0.74332 0.03853 0.75305 0.0
C381 C 0.75557 0.19461 0.6136 0.0
C382 C 0.73218 0.22571 0.62617 0.0
C383 C 0.75179 0.22024 0.59336 0.0
N384 N 0.7388 0.18535 0.65602 0.0
N385 N 0.72543 0.20448 0.66381 0.0
C386 C 0.77194 0.17679 0.59101 0.0
H387 H 0.76102 0.16697 0.55445 0.0
H388 H 0.76948 0.15617 0.61452 0.0
H389 H 0.79913 0.19452 0.58668 0.0
C390 C 0.78818 0.13646 0.78488 0.0
N391 N 0.7581 0.12777 0.76481 0.0
N392 N 0.76155 0.15347 0.739 0.0
C393 C 0.7931 0.17941 0.74343 0.0
C394 C 0.81142 0.16943 0.77186 0.0
C395 C 0.79569 0.11268 0.81155 0.0
H396 H 0.7753 0.09759 0.83773 0.0
H397 H 0.79729 0.09534 0.78496 0.0
H398 H 0.81989 0.1265 0.83141 0.0
O399 O 0.67466 0.08895 0.77024 0.0
O400 O 0.68622 0.13404 0.72636 0.0
H401 H 0.78823 0.21984 0.71351 0.0
H402 H 0.83025 0.23177 0.73081 0.0
C403 C 0.80678 0.21133 0.71472 0.0
H404 H 0.81222 0.20673 0.67706 0.0
H405 H 0.71012 0.20177 0.69347 0.0
O406 O 0.71471 0.05108 0.80618 0.0
C407 C 0.66686 0.11024 0.7544 0.0
H408 H 0.23457 0.43109 0.36818 0.0
H409 H 0.30666 0.5279 0.1314 0.0
H410 H 0.23566 0.52549 0.36437 0.0
H411 H 0.21064 0.43635 0.12551 0.0
H412 H 0.2984 0.53183 0.21933 0.0
H413 H 0.24582 0.4359 0.28066 0.0
C414 C 0.23676 0.45259 0.34902 0.0
C415 C 0.23229 0.47697 0.37303 0.0
C416 C 0.27929 0.51102 0.19833 0.0
C417 C 0.2474 0.4836 0.27411 0.0
C418 C 0.2838 0.50875 0.14838 0.0
C419 C 0.25995 0.48084 0.12151 0.0
C420 C 0.25106 0.48497 0.22107 0.0
C421 C 0.23066 0.45702 0.1452 0.0
C422 C 0.24369 0.45552 0.29936 0.0
C423 C 0.23828 0.50579 0.34693 0.0
N424 N 0.22735 0.45919 0.19398 0.0
N425 N 0.24534 0.50828 0.29845 0.0
H426 H 0.78233 0.20666 0.29595 0.0
H427 H 0.71361 0.23487 0.53329 0.0
H428 H 0.78366 0.3012 0.2994 0.0
H429 H 0.80781 0.23645 0.53837 0.0
H430 H 0.72193 0.24686 0.44536 0.0
H431 H 0.77202 0.20106 0.38369 0.0
C432 C 0.78088 0.22643 0.31505 0.0
C433 C 0.78574 0.25535 0.2908 0.0
C434 C 0.74063 0.24457 0.46619 0.0
C435 C 0.77168 0.24783 0.39009 0.0
C436 C 0.73608 0.23789 0.51614 0.0
C437 C 0.75933 0.23303 0.5428 0.0
C438 C 0.76826 0.24585 0.44319 0.0
C439 C 0.78816 0.23768 0.51887 0.0
C440 C 0.77449 0.22291 0.36487 0.0
C441 C 0.78071 0.27879 0.31696 0.0
N442 N 0.79147 0.24305 0.47008 0.0
N443 N 0.77412 0.27466 0.36559 0.0
H444 H 0.50643 0.73212 0.4418 0.0
H445 H 0.51124 0.78301 0.72215 0.0
H446 H 0.52286 0.82843 0.49064 0.0
H447 H 0.52315 0.70065 0.6725 0.0
H448 H 0.49933 0.79192 0.63786 0.0
H449 H 0.49638 0.71242 0.52668 0.0
C450 C 0.50734 0.74884 0.47041 0.0
C451 C 0.51629 0.78209 0.45986 0.0
C452 C 0.50409 0.7716 0.64558 0.0
C453 C 0.50479 0.76001 0.55618 0.0
C454 C 0.51075 0.7665 0.69352 0.0
C455 C 0.51895 0.74168 0.70358 0.0
C456 C 0.50535 0.75143 0.60795 0.0
C457 C 0.51774 0.72063 0.66566 0.0
C458 C 0.50174 0.73772 0.51868 0.0
C459 C 0.51688 0.80284 0.4978 0.0
N460 N 0.51147 0.72621 0.61931 0.0
N461 N 0.5116 0.79159 0.54446 0.0
H462 H 0.71253 0.47536 0.61664 0.0
H463 H 0.78675 0.57522 0.85299 0.0
H464 H 0.80477 0.57071 0.61369 0.0
H465 H 0.78164 0.47895 0.85289 0.0
H466 H 0.77399 0.56872 0.76557 0.0
H467 H 0.72188 0.47022 0.70421 0.0
C468 C 0.73503 0.49478 0.63423 0.0
C469 C 0.75752 0.52399 0.60882 0.0
C470 C 0.77534 0.54892 0.78498 0.0
C471 C 0.76766 0.5186 0.7074 0.0
C472 C 0.7826 0.55258 0.83451 0.0
C473 C 0.78643 0.52815 0.85927 0.0
C474 C 0.7709 0.52017 0.7606 0.0
C475 C 0.77945 0.49857 0.83445 0.0
C476 C 0.74019 0.49188 0.68387 0.0
C477 C 0.78642 0.54834 0.6327 0.0
N478 N 0.77226 0.49543 0.78588 0.0
N479 N 0.79025 0.54557 0.68112 0.0
H480 H 0.22229 0.70212 0.79258 0.0
H481 H 0.25664 0.83604 -0.00323 0.0
H482 H 0.25079 0.80507 0.76217 0.0
H483 H 0.26875 0.7507 0.02723 0.0
H484 H 0.2528 0.82327 0.91069 0.0
H485 H 0.23923 0.71768 0.87804 0.0
C486 C 0.23262 0.72809 0.80384 0.0
C487 C 0.23424 0.75224 0.77104 0.0
C488 C 0.25694 0.80762 0.93592 0.0
C489 C 0.25313 0.76997 0.86789 0.0
C490 C 0.25952 0.81513 0.98529 0.0
C491 C 0.26451 0.79527 0.01918 0.0
C492 C 0.25828 0.77934 0.92006 0.0
C493 C 0.26548 0.76697 0.0021 0.0
C494 C 0.24215 0.73689 0.85246 0.0
C495 C 0.2479 0.7855 0.78696 0.0
N496 N 0.26227 0.7597 0.95352 0.0
N497 N 0.25639 0.79331 0.83448 0.0
H498 H 0.48294 0.17949 0.98418 0.0
H499 H 0.48049 0.30576 0.1762 0.0
H500 H 0.49989 0.27731 0.94349 0.0
H501 H 0.49469 0.22338 0.21758 0.0
H502 H 0.49087 0.29785 0.0911 0.0
H503 H 0.49042 0.19648 0.06991 0.0
C504 C 0.48867 0.20475 0.99355 0.0
C505 C 0.4905 0.22704 0.95732 0.0
C506 C 0.49222 0.28179 0.11877 0.0
C507 C 0.49872 0.24655 0.05486 0.0
C508 C 0.48612 0.28617 0.16718 0.0
C509 C 0.48612 0.26468 0.20336 0.0
C510 C 0.49789 0.25541 0.10653 0.0
C511 C 0.49419 0.24018 0.19038 0.0
C512 C 0.49306 0.21449 0.04233 0.0
C513 C 0.49823 0.25952 0.97075 0.0
N514 N 0.49918 0.23577 0.14273 0.0
N515 N 0.50153 0.26819 0.01872 0.0
H516 H 0.25688 0.24027 0.88319 0.0
H517 H 0.3782 0.22361 0.69407 0.0
H518 H 0.32571 0.32161 0.79054 0.0
H519 H 0.30513 0.14153 0.78097 0.0
H520 H 0.35281 0.25725 0.71799 0.0
H521 H 0.26812 0.20165 0.83698 0.0
C522 C 0.27416 0.24999 0.85282 0.0
C523 C 0.29074 0.28437 0.84121 0.0
C524 C 0.34175 0.2316 0.73092 0.0
C525 C 0.30392 0.24015 0.78809 0.0
C526 C 0.35605 0.21235 0.71684 0.0
C527 C 0.34365 0.1799 0.73566 0.0
C528 C 0.31515 0.21833 0.76448 0.0
C529 C 0.31525 0.16645 0.76555 0.0
C530 C 0.28051 0.22786 0.82631 0.0
C531 C 0.31257 0.29538 0.80107 0.0
N532 N 0.30229 0.18592 0.77974 0.0
N533 N 0.31886 0.27343 0.77639 0.0
H534 H 0.15764 0.37453 0.85557 0.0
H535 H 0.02306 0.25451 0.05078 0.0
H536 H 0.16897 0.30408 0.94526 0.0
H537 H 0.00868 0.32169 0.95737 0.0
H538 H 0.07246 0.2661 0.00356 0.0
H539 H 0.09906 0.34887 0.8818 0.0
C540 C 0.14736 0.35291 0.87957 0.0
C541 C 0.16797 0.34136 0.89843 0.0
C542 C 0.05834 0.27807 0.99296 0.0
C543 C 0.10152 0.3125 0.92968 0.0
C544 C 0.03011 0.2715 0.02004 0.0
C545 C 0.01191 0.28751 0.0085 0.0
C546 C 0.06879 0.3011 0.95418 0.0
C547 C 0.02209 0.30899 0.96787 0.0
C548 C 0.11407 0.33845 0.8949 0.0
C549 C 0.15375 0.31356 0.92975 0.0
N550 N 0.05009 0.31549 0.94258 0.0
N551 N 0.12156 0.30041 0.94504 0.0
H552 H 0.8699 0.16304 0.11466 0.0
H553 H 0.68581 1.00208 0.12263 0.0
H554 H 0.788 0.15263 0.02649 0.0
H555 H 0.76695 0.01708 0.21728 0.0
H556 H 0.72518 0.05185 0.07605 0.0
H557 H 0.8356 0.10424 0.13983 0.0
C558 C 0.84503 0.14794 0.09932 0.0
C559 C 0.83161 0.16256 0.06866 0.0
C560 C 0.73443 0.04401 0.10667 0.0
C561 C 0.79176 0.09568 0.09847 0.0
C562 C 0.71195 0.01557 0.13331 0.0
C563 C 0.72296 0.00561 0.17442 0.0
C564 C 0.76819 0.06266 0.12119 0.0
C565 C 0.75719 0.02401 0.18627 0.0
C566 C 0.82527 0.1145 0.11415 0.0
C567 C 0.79911 0.14215 0.05033 0.0
N568 N 0.77846 0.05175 0.16013 0.0
N569 N 0.78005 0.10987 0.06614 0.0
H570 H 0.68154 0.68033 0.28276 0.0
H571 H 0.70845 0.86622 0.27005 0.0
H572 H 0.75471 0.76455 0.36767 0.0
H573 H 0.62434 0.77933 0.20546 0.0
H574 H 0.73387 0.83187 0.28922 0.0
H575 H 0.66803 0.71845 0.23901 0.0
C576 C 0.6951 0.70688 0.29178 0.0
C577 C 0.71896 0.71915 0.32948 0.0
C578 C 0.71021 0.82044 0.26985 0.0
C579 C 0.70364 0.76292 0.27946 0.0
C580 C 0.69595 0.84015 0.25839 0.0
C581 C 0.66434 0.82545 0.23622 0.0
C582 C 0.69261 0.78579 0.25917 0.0
C583 C 0.64882 0.79148 0.22253 0.0
C584 C 0.68733 0.72862 0.26681 0.0
C585 C 0.73582 0.75385 0.33936 0.0
N586 N 0.66286 0.77263 0.23484 0.0
N587 N 0.72764 0.77442 0.31485 0.0
H588 H 0.00759 0.68764 0.44483 0.0
H589 H 0.84444 0.70578 0.432 0.0
H590 H 0.98835 0.75048 0.54083 0.0
H591 H 0.85578 0.63207 0.35035 0.0
H592 H 0.90319 0.73209 0.45735 0.0
H593 H 0.95801 0.6759 0.39702 0.0
C594 C 0.99322 0.69931 0.45555 0.0
C595 C 1.00192 0.7197 0.49741 0.0
C596 C 0.89314 0.71066 0.43292 0.0
C597 C 0.94514 0.70641 0.44269 0.0
C598 C 0.85975 0.69596 0.41793 0.0
C599 C 0.84545 0.66682 0.38909 0.0
C600 C 0.91223 0.69592 0.41918 0.0
C601 C 0.86609 0.65464 0.37249 0.0
C602 C 0.96488 0.69257 0.42822 0.0
C603 C 0.9824 0.73426 0.50928 0.0
N604 N 0.89833 0.6689 0.38841 0.0
N605 N 0.95484 0.72711 0.48237 0.0
H606 H 0.24266 0.98673 0.72027 0.0
H607 H 0.22705 0.85553 0.51654 0.0
H608 H 0.32425 1.00303 0.62598 0.0
H609 H 0.14584 0.84148 0.60932 0.0
H610 H 0.2605 0.91361 0.5464 0.0
H611 H 0.20481 0.93752 0.67178 0.0
C612 C 0.25261 0.98014 0.68911 0.0
C613 C 0.28684 0.99887 0.67763 0.0
C614 C 0.2351 0.89812 0.55946 0.0
C615 C 0.24346 0.94219 0.6218 0.0
C616 C 0.21596 0.86511 0.54209 0.0
C617 C 0.18376 0.84385 0.56061 0.0
C618 C 0.22195 0.90974 0.5959 0.0
C619 C 0.17052 0.85721 0.59395 0.0
C620 C 0.23092 0.952 0.66131 0.0
C621 C 0.29813 0.98922 0.63646 0.0
N622 N 0.18983 0.88912 0.61109 0.0
N623 N 0.27659 0.96134 0.6104 0.0
H624 H 0.87098 0.70792 0.04891 0.0
H625 H 0.68787 0.68534 0.03184 0.0
H626 H 0.78439 0.6287 0.12091 0.0
H627 H 0.77181 0.75407 0.94325 0.0
H628 H 0.7253 0.67249 0.07849 0.0
H629 H 0.8379 0.73389 0.02546 0.0
C630 C 0.84529 0.69672 0.06127 0.0
C631 C 0.83027 0.66624 0.08684 0.0
C632 C 0.73558 0.69067 0.0492 0.0
C633 C 0.79197 0.69503 0.05895 0.0
C634 C 0.71422 0.69806 0.02255 0.0
C635 C 0.72659 0.72048 0.98305 0.0
C636 C 0.7696 0.70589 0.03642 0.0
C637 C 0.76104 0.7363 0.97295 0.0
C638 C 0.82627 0.71125 0.04737 0.0
C639 C 0.79678 0.65232 0.10131 0.0
N640 N 0.78123 0.7285 -0.00087 0.0
N641 N 0.77857 0.66654 0.08654 0.0
H642 H 0.01557 0.76701 0.12492 0.0
H643 H 0.15658 0.77649 0.29811 0.0
H644 H 1.00542 0.68133 0.20411 0.0
H645 H 0.1584 0.8642 0.23954 0.0
H646 H 0.09738 0.74253 0.27572 0.0
H647 H 0.06389 0.80394 0.17548 0.0
C648 C 0.02328 0.75596 0.1533 0.0
C649 C 0.00669 0.72093 0.15973 0.0
C650 C 0.11032 0.76937 0.26904 0.0
C651 C 0.06231 0.76319 0.21776 0.0
C652 C 0.14399 0.78879 0.28242 0.0
C653 C 0.16212 0.82312 0.27096 0.0
C654 C 0.09498 0.78432 0.24293 0.0
C655 C 0.14505 0.83784 0.24949 0.0
C656 C 0.05085 0.77712 0.18235 0.0
C657 C 0.01761 0.70814 0.19752 0.0
N658 N 0.11259 0.81822 0.23517 0.0
N659 N 0.04503 0.7292 0.22457 0.0
H660 H 0.24653 0.00658 0.30245 0.0
H661 H 0.38134 0.15533 0.46776 0.0
H662 H 0.326 1.00204 0.37855 0.0
H663 H 0.29819 0.15661 0.39887 0.0
H664 H 0.35586 0.09536 0.44805 0.0
H665 H 0.25965 0.05735 0.34814 0.0
C666 C 0.26654 0.01604 0.32918 0.0
C667 C 0.28552 1.00024 0.3361 0.0
C668 C 0.34268 0.10844 0.43829 0.0
C669 C 0.30088 0.05875 0.38852 0.0
C670 C 0.35707 0.14256 0.45003 0.0
C671 C 0.34173 0.16071 0.43495 0.0
C672 C 0.31298 0.09258 0.41065 0.0
C673 C 0.31062 0.14333 0.41137 0.0
C674 C 0.27399 0.04507 0.35538 0.0
C675 C 0.31088 0.01351 0.37168 0.0
N676 N 0.29754 0.11036 0.39915 0.0
N677 N 0.31813 0.04225 0.39603 0.0
H678 H 0.32602 0.32105 0.54633 0.0
H679 H 0.14433 0.3015 0.5608 0.0
H680 H 0.24157 0.25226 0.45802 0.0
H681 H 0.22981 0.3765 0.64068 0.0
H682 H 0.17661 0.27481 0.53699 0.0
H683 H 0.28887 0.33403 0.59348 0.0
C684 C 0.29962 0.30834 0.53721 0.0
C685 C 0.28703 0.28589 0.49762 0.0
C686 C 0.18817 0.29667 0.56062 0.0
C687 C 0.24433 0.30065 0.55151 0.0
C688 C 0.16958 0.31162 0.57471 0.0
C689 C 0.18457 0.34123 0.60255 0.0
C690 C 0.22209 0.31164 0.57418 0.0
C691 C 0.21748 0.35367 0.61908 0.0
C692 C 0.27841 0.31579 0.56416 0.0
C693 C 0.25253 0.27006 0.48777 0.0
N694 N 0.23538 0.33917 0.60397 0.0
N695 N 0.23251 0.27798 0.51416 0.0
H696 H 0.01061 0.3276 0.71412 0.0
H697 H 0.84707 0.14521 0.72607 0.0
H698 H 0.99353 0.2435 0.62361 0.0
H699 H 0.85904 0.23013 0.80921 0.0
H700 H 0.90593 0.17782 0.70182 0.0
H701 H 0.96037 0.28996 0.76103 0.0
C702 C 0.99657 0.30117 0.70446 0.0
C703 C 1.00607 0.28882 0.66437 0.0
C704 C 0.89598 0.1892 0.72621 0.0
C705 C 0.94854 0.24559 0.71795 0.0
C706 C 0.86249 0.1704 0.74053 0.0
C707 C 0.84832 0.18516 0.76944 0.0
C708 C 0.91532 0.22308 0.7406 0.0
C709 C 0.86916 0.21801 0.78668 0.0
C710 C 0.96786 0.27969 0.73127 0.0
C711 C 0.98697 0.25428 0.65378 0.0
N712 N 0.90151 0.23612 0.77133 0.0
N713 N 0.95902 0.23401 0.68006 0.0
H714 H 0.68771 0.00737 0.87603 0.0
H715 H 0.71376 0.84824 0.88693 0.0
H716 H 0.75712 0.99464 0.78582 0.0
H717 H 0.63317 0.85254 0.95893 0.0
H718 H 0.73902 0.90797 0.86619 0.0
H719 H 0.67594 0.95671 0.9214 0.0
C720 C 0.7008 0.9942 0.86614 0.0
C721 C 0.72306 0.00501 0.82653 0.0
C722 C 0.71625 0.89612 0.88757 0.0
C723 C 0.70975 0.94706 0.87841 0.0
C724 C 0.70211 0.86218 0.89995 0.0
C725 C 0.67145 0.84568 0.92464 0.0
C726 C 0.69943 0.91352 0.89982 0.0
C727 C 0.65694 0.86458 0.93997 0.0
C728 C 0.69404 0.96526 0.89205 0.0
C729 C 0.73942 0.98701 0.81561 0.0
N730 N 0.67078 0.8974 0.92666 0.0
N731 N 0.73222 0.95882 0.84107 0.0
H732 H 0.29817 0.38848 0.10907 0.0
H733 H 0.36011 0.26995 0.22394 0.0
H734 H 0.31599 0.31968 0.02447 0.0
H735 H 0.33352 0.33137 0.31067 0.0
H736 H 0.34063 0.28527 0.15115 0.0
H737 H 0.30793 0.36573 0.18354 0.0
C738 C 0.304 0.36848 0.10608 0.0
C739 C 0.30652 0.35617 0.06029 0.0
C740 C 0.33881 0.29526 0.18607 0.0
C741 C 0.31779 0.33004 0.14568 0.0
C742 C 0.3501 0.28664 0.22768 0.0
C743 C 0.34904 0.29991 0.27331 0.0
C744 C 0.32654 0.31757 0.18995 0.0
C745 C 0.33495 0.32069 0.27615 0.0
C746 C 0.30949 0.35545 0.14872 0.0
C747 C 0.31397 0.33011 0.05887 0.0
N748 N 0.32461 0.32924 0.23489 0.0
N749 N 0.31957 0.31809 0.10092 0.0
H750 H 0.91549 0.29383 0.27651 0.0
H751 H 0.01198 0.31824 0.48234 0.0
H752 H 1.00464 0.31896 0.19389 0.0
H753 H 0.0952 0.38272 0.38917 0.0
H754 H 0.97622 0.29633 0.41041 0.0
H755 H 0.94758 0.30587 0.3514 0.0
C756 C 0.94177 0.30145 0.27409 0.0
C757 C 0.95735 0.30534 0.22868 0.0
C758 C 1.00218 0.31557 0.40569 0.0
C759 C 0.99435 0.31858 0.31496 0.0
C760 C 0.02274 0.32786 0.44679 0.0
C761 C 0.05654 0.35279 0.44195 0.0
C762 C 0.01546 0.32847 0.35939 0.0
C763 C 0.06918 0.36386 0.39479 0.0
C764 C 0.96008 0.30799 0.31713 0.0
C765 C 0.99157 0.31555 0.22804 0.0
N766 N 0.0486 0.35171 0.35538 0.0
N767 N 0.00901 0.32215 0.27057 0.0
H768 H 0.64093 0.91607 0.44605 0.0
H769 H 0.71994 0.10093 0.55668 0.0
H770 H 0.677 0.00496 0.35707 0.0
H771 H 0.69518 0.01303 0.64326 0.0
H772 H 0.70678 0.06678 0.48299 0.0
H773 H 0.66296 0.95153 0.51818 0.0
C774 C 0.65348 0.94307 0.44165 0.0
C775 C 0.65658 0.95751 0.39552 0.0
C776 C 0.70447 0.05501 0.51806 0.0
C777 C 0.68212 0.99845 0.47818 0.0
C778 C 0.71193 0.07448 0.56026 0.0
C779 C 0.7084 0.05978 0.60638 0.0
C780 C 0.69313 0.02048 0.5219 0.0
C781 C 0.6981 0.02542 0.60857 0.0
C782 C 0.66627 0.96336 0.48291 0.0
C783 C 0.67389 0.99274 0.39197 0.0
N784 N 0.69057 0.0069 0.56695 0.0
N785 N 0.6857 0.01202 0.43287 0.0
H786 H 0.73448 0.6385 0.59955 0.0
H787 H 0.64089 0.72969 0.70986 0.0
H788 H 0.68488 0.67833 0.51178 0.0
H789 H 0.68646 0.68591 0.79828 0.0
H790 H 0.6622 0.71661 0.637 0.0
H791 H 0.7225 0.66103 0.67227 0.0
C792 C 0.72098 0.65188 0.59551 0.0
C793 C 0.70999 0.65578 0.54954 0.0
C794 C 0.66771 0.70999 0.67231 0.0
C795 C 0.69653 0.68215 0.63283 0.0
C796 C 0.65539 0.71733 0.71404 0.0
C797 C 0.66128 0.70831 0.76031 0.0
C798 C 0.68608 0.6934 0.67671 0.0
C799 C 0.68105 0.6931 0.76336 0.0
C800 C 0.71434 0.66497 0.63712 0.0
C801 C 0.69358 0.67443 0.5465 0.0
N802 N 0.69247 0.68583 0.72206 0.0
N803 N 0.68706 0.68664 0.58766 0.0
H804 H 0.10103 0.71368 0.76659 0.0
H805 H 0.92119 0.65026 0.88389 0.0
H806 H 0.01433 0.6972 0.68401 0.0
H807 H 0.00902 0.67438 0.96916 0.0
H808 H 0.95591 0.67117 0.81122 0.0
H809 H 0.06894 0.70305 0.84164 0.0
C810 C 0.0753 0.70802 0.76417 0.0
C811 C 0.06029 0.70605 0.71875 0.0
C812 C 0.96772 0.67213 0.8458 0.0
C813 C 0.02336 0.69375 0.8048 0.0
C814 C 0.94782 0.65997 0.88731 0.0
C815 C 0.96212 0.65991 0.93244 0.0
C816 C 1.00224 0.68415 0.84924 0.0
C817 C 0.99696 0.6738 0.93499 0.0
C818 C 0.05701 0.702 0.80715 0.0
C819 C 0.02691 0.69879 0.71809 0.0
N820 N 0.01582 0.68499 0.89379 0.0
N821 N 0.00952 0.69265 0.76042 0.0
H822 H 0.26405 0.91744 0.06331 0.0
H823 H 0.3964 0.09236 0.9466 0.0
H824 H 0.33389 1.00335 0.14854 0.0
H825 H 0.3145 0.01384 0.86451 0.0
H826 H 0.37245 0.06084 0.02112 0.0
H827 H 0.27999 0.95292 0.99081 0.0
C828 C 0.28257 0.94389 0.06679 0.0
C829 C 0.29815 0.9574 0.11175 0.0
C830 C 0.35946 0.05062 0.98694 0.0
C831 C 0.3166 0.99812 0.02895 0.0
C832 C 0.37311 0.06871 0.94423 0.0
C833 C 0.35736 0.05596 0.8991 0.0
C834 C 0.32999 0.01918 0.98467 0.0
C835 C 0.32759 0.02465 0.89841 0.0
C836 C 0.29157 0.96415 0.02543 0.0
C837 C 0.32139 0.99193 0.11451 0.0
N838 N 0.31498 0.00723 0.94055 0.0
N839 N 0.33029 0.01104 0.07346 0.0
H840 H 0.56137 0.60087 0.91823 0.0
H841 H 0.36201 0.50978 0.88635 0.0
H842 H 0.50328 0.65056 0.91323 0.0
H843 H 0.41156 0.45271 0.90976 0.0
H844 H 0.41588 0.56145 0.88872 0.0
H845 H 0.50881 0.54604 0.91372 0.0
C846 C 0.53759 0.6002 0.91751 0.0
C847 C 0.53658 0.63022 0.91609 0.0
C848 C 0.41529 0.53774 0.8929 0.0
C849 C 0.47695 0.56819 0.90942 0.0
C850 C 0.38449 0.50818 0.89089 0.0
C851 C 0.3824 0.47701 0.89765 0.0
C852 C 0.44451 0.5364 0.9024 0.0
C853 C 0.41226 0.47633 0.90379 0.0
C854 C 0.50771 0.56902 0.91423 0.0
C855 C 0.50522 0.62805 0.91422 0.0
N856 N 0.44222 0.50573 0.9066 0.0
N857 N 0.47685 0.59772 0.91059 0.0
H858 H 0.96473 0.40718 0.07287 0.0
H859 H 0.8553 0.49794 0.0813 0.0
H860 H 0.85732 0.3576 0.05808 0.0
H861 H 0.96325 0.55502 0.08376 0.0
H862 H 0.85723 0.44624 0.07735 0.0
H863 H 0.96681 0.46187 0.07596 0.0
C864 C 0.94177 0.4079 0.06876 0.0
C865 C 0.91079 0.37791 0.06508 0.0
C866 C 0.88065 0.46991 0.07915 0.0
C867 C 0.91283 0.43977 0.07019 0.0
C868 C 0.8795 0.49948 0.08199 0.0
C869 C 0.90914 0.53075 0.08305 0.0
C870 C 0.91172 0.47134 0.07684 0.0
C871 C 0.93983 0.53131 0.08359 0.0
C872 C 0.9429 0.439 0.0713 0.0
C873 C 0.88171 0.38011 0.06098 0.0
N874 N 0.94039 0.50195 0.08 0.0
N875 N 0.88345 0.41035 0.06401 0.0
H876 H 0.55547 0.96069 0.24115 0.0
H877 H 0.35496 0.84838 0.2416 0.0
H878 H 0.49882 0.8523 0.23584 0.0
H879 H 0.40603 0.95587 0.263 0.0
H880 H 0.40861 0.85087 0.23715 0.0
H881 H 0.50236 0.96139 0.24298 0.0
C882 C 0.5319 0.93717 0.23893 0.0
C883 C 0.5314 0.90638 0.23805 0.0
C884 C 0.40837 0.87402 0.24324 0.0
C885 C 0.47103 0.90691 0.24147 0.0
C886 C 0.37763 0.87254 0.24615 0.0
C887 C 0.37604 0.90193 0.2529 0.0
C888 C 0.43814 0.90522 0.2466 0.0
C889 C 0.40622 0.93258 0.25837 0.0
C890 C 0.50168 0.93754 0.24076 0.0
C891 C 0.5003 0.87658 0.2364 0.0
N892 N 0.43618 0.93352 0.25467 0.0
N893 N 0.47152 0.87761 0.23838 0.0
H894 H 0.45205 0.40558 0.42566 0.0
H895 H 0.65122 0.49536 0.39203 0.0
H896 H 0.50927 0.355 0.42101 0.0
H897 H 0.60109 0.55278 0.40369 0.0
H898 H 0.59758 0.4437 0.39835 0.0
H899 H 0.50474 0.46005 0.41883 0.0
C900 C 0.47571 0.40602 0.42462 0.0
C901 C 0.4764 0.37583 0.42402 0.0
C902 C 0.59798 0.46745 0.39908 0.0
C903 C 0.53622 0.43745 0.4147 0.0
C904 C 0.62866 0.49698 0.39486 0.0
C905 C 0.63054 0.52832 0.39705 0.0
C906 C 0.56865 0.46899 0.40619 0.0
C907 C 0.60057 0.52902 0.40118 0.0
C908 C 0.50566 0.43699 0.41996 0.0
C909 C 0.5076 0.37767 0.42154 0.0
N910 N 0.57074 0.4997 0.40616 0.0
N911 N 0.53606 0.4078 0.41668 0.0
H912 H 0.15044 0.64733 0.52914 0.0
H913 H 0.0527 0.45163 0.5979 0.0
H914 H 0.04873 0.59869 0.58123 0.0
H915 H 0.15969 0.51403 0.58074 0.0
H916 H 0.04727 0.50197 0.58674 0.0
H917 H 0.14984 0.59426 0.5357 0.0
C918 C 0.12757 0.62506 0.54052 0.0
C919 C 0.09953 0.62722 0.55421 0.0
C920 C 0.07189 0.50452 0.58604 0.0
C921 C 0.09905 0.5665 0.56432 0.0
C922 C 0.07505 0.47596 0.5931 0.0
C923 C 0.1067 0.47866 0.59014 0.0
C924 C 0.10058 0.53567 0.57564 0.0
C925 C 0.13477 0.51068 0.58301 0.0
C926 C 0.12737 0.59485 0.54511 0.0
C927 C 0.07067 0.59779 0.56957 0.0
N928 N 0.131 0.5377 0.57558 0.0
N929 N 0.07126 0.56856 0.57488 0.0
H930 H 0.60579 0.05162 0.76419 0.0
H931 H 0.50959 0.15367 0.72098 0.0
H932 H 0.65172 0.15971 0.76022 0.0
H933 H 0.45543 0.04763 0.75345 0.0
H934 H 0.56195 0.1533 0.72535 0.0
H935 H 0.5503 0.04695 0.75696 0.0
C936 C 0.60415 0.0743 0.76316 0.0
C937 C 0.63336 0.10612 0.76274 0.0
C938 C 0.53872 0.1299 0.73103 0.0
C939 C 0.57055 0.10097 0.75283 0.0
C940 C 0.50878 0.13005 0.72779 0.0
C941 C 0.47824 0.10063 0.73658 0.0
C942 C 0.53838 0.10015 0.74384 0.0
C943 C 0.47854 0.07074 0.7458 0.0
C944 C 0.57259 0.07162 0.75833 0.0
C945 C 0.6299 0.13468 0.76043 0.0
N946 N 0.5083 0.07129 0.7498 0.0
N947 N 0.59924 0.1314 0.75515 0.0
loop_
_geom_bond_atom_site_label_1
_geom_bond_atom_site_label_2
_geom_bond_distance
_geom_bond_site_symmetry_2
_ccdc_geom_bond_type
Co0 O3 1.970 1_556 S
Co0 N17 1.989 . S
Co0 O25 1.967 . S
Co0 O32 1.920 . S
Co1 O4 1.966 . S
Co1 N10 2.022 . S
Co1 N18 1.993 1_554 S
Co1 O26 1.941 1_554 S
C2 O3 1.258 . S
C2 O4 1.263 . S
O3 Co0 1.970 1_554 S
O3 C2 1.258 . S
O4 Co1 1.966 . S
O4 C2 1.263 . S
C5 O6 1.235 . S
C5 O32 1.289 . S
O6 C5 1.235 . S
C7 C9 1.400 . S
C7 N10 1.351 . S
C7 C12 1.501 . S
C8 C9 1.387 . S
C8 N11 1.341 . S
C9 C7 1.400 . S
C9 C8 1.387 . S
N10 Co1 2.022 . S
N10 C7 1.351 . S
N10 N11 1.365 . S
N11 C8 1.341 . S
N11 N10 1.365 . S
N11 H31 0.862 . S
C12 C7 1.501 . S
C12 H13 0.961 . S
C12 H14 0.961 . S
C12 H15 0.960 . S
H13 C12 0.961 . S
H14 C12 0.961 . S
H15 C12 0.960 . S
C16 N17 1.342 . S
C16 C20 1.401 . S
C16 C21 1.499 . S
N17 Co0 1.989 . S
N17 C16 1.342 . S
N17 N18 1.388 . S
N18 Co1 1.993 1_556 S
N18 N17 1.388 . S
N18 C19 1.346 . S
C19 N18 1.346 . S
C19 C20 1.396 . S
C19 C29 1.510 1_556 S
C20 C16 1.401 . S
C20 C19 1.396 . S
C21 C16 1.499 . S
C21 H22 0.959 . S
C21 H23 0.960 . S
C21 H24 0.961 . S
H22 C21 0.959 . S
H23 C21 0.960 . S
H24 C21 0.961 . S
O25 Co0 1.967 . S
O25 C33 1.258 . S
O26 Co1 1.941 1_556 S
O26 C33 1.266 . S
H27 C29 0.959 . S
H28 C29 0.961 . S
C29 C19 1.510 1_554 S
C29 H27 0.959 . S
C29 H28 0.961 . S
C29 H30 0.960 . S
H30 C29 0.960 . S
H31 N11 0.862 . S
O32 Co0 1.920 . S
O32 C5 1.289 . S
C33 O25 1.258 . S
C33 O26 1.266 . S
Co34 O37 1.970 . S
Co34 N51 1.989 . S
Co34 O59 1.967 . S
Co34 O66 1.920 . S
Co35 O38 1.966 . S
Co35 N44 2.022 . S
Co35 N52 1.993 . S
Co35 O60 1.941 . S
C36 O37 1.258 . S
C36 O38 1.263 . S
O37 Co34 1.970 . S
O37 C36 1.258 . S
O38 Co35 1.966 . S
O38 C36 1.263 . S
C39 O40 1.235 . S
C39 O66 1.289 . S
O40 C39 1.235 . S
C41 C43 1.400 . S
C41 N44 1.351 . S
C41 C46 1.501 . S
C42 C43 1.387 . S
C42 N45 1.341 . S
C43 C41 1.400 . S
C43 C42 1.387 . S
N44 Co35 2.022 . S
N44 C41 1.351 . S
N44 N45 1.365 . S
N45 C42 1.341 . S
N45 N44 1.365 . S
N45 H65 0.862 . S
C46 C41 1.501 . S
C46 H47 0.961 . S
C46 H48 0.961 . S
C46 H49 0.960 . S
H47 C46 0.961 . S
H48 C46 0.961 . S
H49 C46 0.960 . S
C50 N51 1.342 . S
C50 C54 1.401 . S
C50 C55 1.499 . S
N51 Co34 1.989 . S
N51 C50 1.342 . S
N51 N52 1.388 . S
N52 Co35 1.993 . S
N52 N51 1.388 . S
N52 C53 1.346 . S
C53 N52 1.346 . S
C53 C54 1.396 . S
C53 C63 1.510 . S
C54 C50 1.401 . S
C54 C53 1.396 . S
C55 C50 1.499 . S
C55 H56 0.959 . S
C55 H57 0.960 . S
C55 H58 0.961 1_554 S
H56 C55 0.959 . S
H57 C55 0.960 . S
H58 C55 0.961 1_556 S
O59 Co34 1.967 . S
O59 C67 1.258 . S
O60 Co35 1.941 . S
O60 C67 1.266 . S
H61 C63 0.959 . S
H62 C63 0.961 . S
C63 C53 1.510 . S
C63 H61 0.959 . S
C63 H62 0.961 . S
C63 H64 0.960 . S
H64 C63 0.960 . S
H65 N45 0.862 . S
O66 Co34 1.920 . S
O66 C39 1.289 . S
C67 O59 1.258 . S
C67 O60 1.266 . S
Co68 O71 1.970 . S
Co68 N85 1.989 . S
Co68 O93 1.967 . S
Co68 O100 1.920 . S
Co69 O72 1.966 . S
Co69 N78 2.022 . S
Co69 N86 1.993 . S
Co69 O94 1.941 . S
C70 O71 1.258 . S
C70 O72 1.263 . S
O71 Co68 1.970 . S
O71 C70 1.258 . S
O72 Co69 1.966 . S
O72 C70 1.263 . S
C73 O74 1.235 . S
C73 O100 1.289 . S
O74 C73 1.235 . S
C75 C77 1.400 . S
C75 N78 1.351 . S
C75 C80 1.501 . S
C76 C77 1.387 . S
C76 N79 1.341 . S
C77 C75 1.400 . S
C77 C76 1.387 . S
N78 Co69 2.022 . S
N78 C75 1.351 . S
N78 N79 1.365 . S
N79 C76 1.341 . S
N79 N78 1.365 . S
N79 H99 0.862 . S
C80 C75 1.501 . S
C80 H81 0.961 . S
C80 H82 0.961 . S
C80 H83 0.960 . S
H81 C80 0.961 . S
H82 C80 0.961 . S
H83 C80 0.960 . S
C84 N85 1.342 . S
C84 C88 1.401 . S
C84 C89 1.499 . S
N85 Co68 1.989 . S
N85 C84 1.342 . S
N85 N86 1.388 . S
N86 Co69 1.993 . S
N86 N85 1.388 . S
N86 C87 1.346 . S
C87 N86 1.346 . S
C87 C88 1.396 . S
C87 C97 1.510 . S
C88 C84 1.401 . S
C88 C87 1.396 . S
C89 C84 1.499 . S
C89 H90 0.959 . S
C89 H91 0.960 . S
C89 H92 0.961 . S
H90 C89 0.959 . S
H91 C89 0.960 . S
H92 C89 0.961 . S
O93 Co68 1.967 . S
O93 C101 1.258 . S
O94 Co69 1.941 . S
O94 C101 1.266 . S
H95 C97 0.959 . S
H96 C97 0.961 . S
C97 C87 1.510 . S
C97 H95 0.959 . S
C97 H96 0.961 . S
C97 H98 0.960 . S
H98 C97 0.960 . S
H99 N79 0.862 . S
O100 Co68 1.920 . S
O100 C73 1.289 . S
C101 O93 1.258 . S
C101 O94 1.266 . S
Co102 O105 1.970 . S
Co102 N119 1.989 . S
Co102 O127 1.967 . S
Co102 O134 1.920 . S
Co103 O106 1.966 . S
Co103 N112 2.022 . S
Co103 N120 1.993 . S
Co103 O128 1.941 . S
C104 O105 1.258 . S
C104 O106 1.263 . S
O105 Co102 1.970 . S
O105 C104 1.258 . S
O106 Co103 1.966 . S
O106 C104 1.263 . S
C107 O108 1.235 . S
C107 O134 1.289 . S
O108 C107 1.235 . S
C109 C111 1.400 . S
C109 N112 1.351 . S
C109 C114 1.501 . S
C110 C111 1.387 . S
C110 N113 1.341 . S
C111 C109 1.400 . S
C111 C110 1.387 . S
N112 Co103 2.022 . S
N112 C109 1.351 . S
N112 N113 1.365 . S
N113 C110 1.341 . S
N113 N112 1.365 . S
N113 H133 0.862 . S
C114 C109 1.501 . S
C114 H115 0.961 . S
C114 H116 0.961 . S
C114 H117 0.960 . S
H115 C114 0.961 . S
H116 C114 0.961 . S
H117 C114 0.960 . S
C118 N119 1.342 . S
C118 C122 1.401 . S
C118 C123 1.499 . S
N119 Co102 1.989 . S
N119 C118 1.342 . S
N119 N120 1.388 . S
N120 Co103 1.993 . S
N120 N119 1.388 . S
N120 C121 1.346 . S
C121 N120 1.346 . S
C121 C122 1.396 . S
C121 C131 1.510 . S
C122 C118 1.401 . S
C122 C121 1.396 . S
C123 C118 1.499 . S
C123 H124 0.959 . S
C123 H125 0.960 . S
C123 H126 0.961 . S
H124 C123 0.959 . S
H125 C123 0.960 . S
H126 C123 0.961 . S
O127 Co102 1.967 . S
O127 C135 1.258 . S
O128 Co103 1.941 . S
O128 C135 1.266 . S
H129 C131 0.959 . S
H130 C131 0.961 . S
C131 C121 1.510 . S
C131 H129 0.959 . S
C131 H130 0.961 . S
C131 H132 0.960 . S
H132 C131 0.960 . S
H133 N113 0.862 . S
O134 Co102 1.920 . S
O134 C107 1.289 . S
C135 O127 1.258 . S
C135 O128 1.266 . S
Co136 O139 1.970 . S
Co136 N153 1.989 . S
Co136 O161 1.967 . S
Co136 O168 1.920 . S
Co137 O140 1.966 . S
Co137 N146 2.022 . S
Co137 N154 1.993 . S
Co137 O162 1.941 . S
C138 O139 1.258 . S
C138 O140 1.263 . S
O139 Co136 1.970 . S
O139 C138 1.258 . S
O140 Co137 1.966 . S
O140 C138 1.263 . S
C141 O142 1.235 . S
C141 O168 1.289 . S
O142 C141 1.235 . S
C143 C145 1.400 . S
C143 N146 1.351 . S
C143 C148 1.501 . S
C144 C145 1.387 . S
C144 N147 1.341 . S
C145 C143 1.400 . S
C145 C144 1.387 . S
N146 Co137 2.022 . S
N146 C143 1.351 . S
N146 N147 1.365 . S
N147 C144 1.341 . S
N147 N146 1.365 . S
N147 H167 0.862 . S
C148 C143 1.501 . S
C148 H149 0.961 . S
C148 H150 0.961 . S
C148 H151 0.960 . S
H149 C148 0.961 . S
H150 C148 0.961 . S
H151 C148 0.960 . S
C152 N153 1.342 . S
C152 C156 1.401 . S
C152 C157 1.499 . S
N153 Co136 1.989 . S
N153 C152 1.342 . S
N153 N154 1.388 . S
N154 Co137 1.993 . S
N154 N153 1.388 . S
N154 C155 1.346 . S
C155 N154 1.346 . S
C155 C156 1.396 . S
C155 C165 1.510 . S
C156 C152 1.401 . S
C156 C155 1.396 . S
C157 C152 1.499 . S
C157 H158 0.959 . S
C157 H159 0.960 . S
C157 H160 0.961 . S
H158 C157 0.959 . S
H159 C157 0.960 . S
H160 C157 0.961 . S
O161 Co136 1.967 . S
O161 C169 1.258 . S
O162 Co137 1.941 . S
O162 C169 1.266 . S
H163 C165 0.959 . S
H164 C165 0.961 . S
C165 C155 1.510 . S
C165 H163 0.959 . S
C165 H164 0.961 . S
C165 H166 0.960 . S
H166 C165 0.960 . S
H167 N147 0.862 . S
O168 Co136 1.920 . S
O168 C141 1.289 . S
C169 O161 1.258 . S
C169 O162 1.266 . S
Co170 O173 1.970 . S
Co170 N187 1.989 . S
Co170 O195 1.967 . S
Co170 O202 1.920 . S
Co171 O174 1.966 . S
Co171 N180 2.022 . S
Co171 N188 1.993 . S
Co171 O196 1.941 . S
C172 O173 1.258 . S
C172 O174 1.263 . S
O173 Co170 1.970 . S
O173 C172 1.258 . S
O174 Co171 1.966 . S
O174 C172 1.263 . S
C175 O176 1.235 . S
C175 O202 1.289 . S
O176 C175 1.235 . S
C177 C179 1.400 . S
C177 N180 1.351 . S
C177 C182 1.501 . S
C178 C179 1.387 . S
C178 N181 1.341 . S
C179 C177 1.400 . S
C179 C178 1.387 . S
N180 Co171 2.022 . S
N180 C177 1.351 . S
N180 N181 1.365 . S
N181 C178 1.341 . S
N181 N180 1.365 . S
N181 H201 0.862 . S
C182 C177 1.501 . S
C182 H183 0.961 . S
C182 H184 0.961 . S
C182 H185 0.960 . S
H183 C182 0.961 . S
H184 C182 0.961 . S
H185 C182 0.960 . S
C186 N187 1.342 . S
C186 C190 1.401 . S
C186 C191 1.499 . S
N187 Co170 1.989 . S
N187 C186 1.342 . S
N187 N188 1.388 . S
N188 Co171 1.993 . S
N188 N187 1.388 . S
N188 C189 1.346 . S
C189 N188 1.346 . S
C189 C190 1.396 . S
C189 C199 1.510 . S
C190 C186 1.401 . S
C190 C189 1.396 . S
C191 C186 1.499 . S
C191 H192 0.959 . S
C191 H193 0.960 . S
C191 H194 0.961 . S
H192 C191 0.959 . S
H193 C191 0.960 . S
H194 C191 0.961 . S
O195 Co170 1.967 . S
O195 C203 1.258 . S
O196 Co171 1.941 . S
O196 C203 1.266 . S
H197 C199 0.959 . S
H198 C199 0.961 . S
C199 C189 1.510 . S
C199 H197 0.959 . S
C199 H198 0.961 . S
C199 H200 0.960 . S
H200 C199 0.960 . S
H201 N181 0.862 . S
O202 Co170 1.920 . S
O202 C175 1.289 . S
C203 O195 1.258 . S
C203 O196 1.266 . S
Co204 O207 1.970 . S
Co204 N221 1.989 . S
Co204 O229 1.967 . S
Co204 O236 1.920 . S
Co205 O208 1.966 . S
Co205 N214 2.022 . S
Co205 N222 1.993 . S
Co205 O230 1.941 . S
C206 O207 1.258 . S
C206 O208 1.263 . S
O207 Co204 1.970 . S
O207 C206 1.258 . S
O208 Co205 1.966 . S
O208 C206 1.263 . S
C209 O210 1.235 . S
C209 O236 1.289 . S
O210 C209 1.235 . S
C211 C213 1.400 . S
C211 N214 1.351 . S
C211 C216 1.501 . S
C212 C213 1.387 . S
C212 N215 1.341 . S
C213 C211 1.400 . S
C213 C212 1.387 . S
N214 Co205 2.022 . S
N214 C211 1.351 . S
N214 N215 1.365 . S
N215 C212 1.341 . S
N215 N214 1.365 . S
N215 H235 0.862 . S
C216 C211 1.501 . S
C216 H217 0.961 . S
C216 H218 0.961 . S
C216 H219 0.960 . S
H217 C216 0.961 . S
H218 C216 0.961 . S
H219 C216 0.960 . S
C220 N221 1.342 . S
C220 C224 1.401 . S
C220 C225 1.499 . S
N221 Co204 1.989 . S
N221 C220 1.342 . S
N221 N222 1.388 . S
N222 Co205 1.993 . S
N222 N221 1.388 . S
N222 C223 1.346 . S
C223 N222 1.346 . S
C223 C224 1.396 . S
C223 C233 1.510 . S
C224 C220 1.401 . S
C224 C223 1.396 . S
C225 C220 1.499 . S
C225 H226 0.959 . S
C225 H227 0.960 . S
C225 H228 0.961 1_556 S
H226 C225 0.959 . S
H227 C225 0.960 . S
H228 C225 0.961 1_554 S
O229 Co204 1.967 . S
O229 C237 1.258 . S
O230 Co205 1.941 . S
O230 C237 1.266 . S
H231 C233 0.959 . S
H232 C233 0.961 . S
C233 C223 1.510 . S
C233 H231 0.959 . S
C233 H232 0.961 . S
C233 H234 0.960 . S
H234 C233 0.960 . S
H235 N215 0.862 . S
O236 Co204 1.920 . S
O236 C209 1.289 . S
C237 O229 1.258 . S
C237 O230 1.266 . S
Co238 O241 1.970 1_554 S
Co238 N255 1.989 . S
Co238 O263 1.967 . S
Co238 O270 1.920 . S
Co239 O242 1.966 . S
Co239 N248 2.022 . S
Co239 N256 1.993 1_556 S
Co239 O264 1.941 1_556 S
C240 O241 1.258 . S
C240 O242 1.263 . S
O241 Co238 1.970 1_556 S
O241 C240 1.258 . S
O242 Co239 1.966 . S
O242 C240 1.263 . S
C243 O244 1.235 . S
C243 O270 1.289 . S
O244 C243 1.235 . S
C245 C247 1.400 . S
C245 N248 1.351 . S
C245 C250 1.501 . S
C246 C247 1.387 . S
C246 N249 1.341 . S
C247 C245 1.400 . S
C247 C246 1.387 . S
N248 Co239 2.022 . S
N248 C245 1.351 . S
N248 N249 1.365 . S
N249 C246 1.341 . S
N249 N248 1.365 . S
N249 H269 0.862 . S
C250 C245 1.501 . S
C250 H251 0.961 . S
C250 H252 0.961 . S
C250 H253 0.960 . S
H251 C250 0.961 . S
H252 C250 0.961 . S
H253 C250 0.960 . S
C254 N255 1.342 . S
C254 C258 1.401 . S
C254 C259 1.499 . S
N255 Co238 1.989 . S
N255 C254 1.342 . S
N255 N256 1.388 . S
N256 Co239 1.993 1_554 S
N256 N255 1.388 . S
N256 C257 1.346 . S
C257 N256 1.346 . S
C257 C258 1.396 . S
C257 C267 1.510 1_554 S
C258 C254 1.401 . S
C258 C257 1.396 . S
C259 C254 1.499 . S
C259 H260 0.959 . S
C259 H261 0.960 . S
C259 H262 0.961 . S
H260 C259 0.959 . S
H261 C259 0.960 . S
H262 C259 0.961 . S
O263 Co238 1.967 . S
O263 C271 1.258 . S
O264 Co239 1.941 1_554 S
O264 C271 1.266 . S
H265 C267 0.959 . S
H266 C267 0.961 . S
C267 C257 1.510 1_556 S
C267 H265 0.959 . S
C267 H266 0.961 . S
C267 H268 0.960 . S
H268 C267 0.960 . S
H269 N249 0.862 . S
O270 Co238 1.920 . S
O270 C243 1.289 . S
C271 O263 1.258 . S
C271 O264 1.266 . S
Co272 O275 1.970 . S
Co272 N289 1.989 . S
Co272 O297 1.967 . S
Co272 O304 1.920 . S
Co273 O276 1.966 . S
Co273 N282 2.022 . S
Co273 N290 1.993 . S
Co273 O298 1.941 . S
C274 O275 1.258 . S
C274 O276 1.263 . S
O275 Co272 1.970 . S
O275 C274 1.258 . S
O276 Co273 1.966 . S
O276 C274 1.263 . S
C277 O278 1.235 . S
C277 O304 1.289 . S
O278 C277 1.235 . S
C279 C281 1.400 . S
C279 N282 1.351 . S
C279 C284 1.501 . S
C280 C281 1.387 . S
C280 N283 1.341 . S
C281 C279 1.400 . S
C281 C280 1.387 . S
N282 Co273 2.022 . S
N282 C279 1.351 . S
N282 N283 1.365 . S
N283 C280 1.341 . S
N283 N282 1.365 . S
N283 H303 0.862 . S
C284 C279 1.501 . S
C284 H285 0.961 . S
C284 H286 0.961 . S
C284 H287 0.960 . S
H285 C284 0.961 . S
H286 C284 0.961 . S
H287 C284 0.960 . S
C288 N289 1.342 . S
C288 C292 1.401 . S
C288 C293 1.499 . S
N289 Co272 1.989 . S
N289 C288 1.342 . S
N289 N290 1.388 . S
N290 Co273 1.993 . S
N290 N289 1.388 . S
N290 C291 1.346 . S
C291 N290 1.346 . S
C291 C292 1.396 . S
C291 C301 1.510 . S
C292 C288 1.401 . S
C292 C291 1.396 . S
C293 C288 1.499 . S
C293 H294 0.959 . S
C293 H295 0.960 . S
C293 H296 0.961 . S
H294 C293 0.959 . S
H295 C293 0.960 . S
H296 C293 0.961 . S
O297 Co272 1.967 . S
O297 C305 1.258 . S
O298 Co273 1.941 . S
O298 C305 1.266 . S
H299 C301 0.959 . S
H300 C301 0.961 . S
C301 C291 1.510 . S
C301 H299 0.959 . S
C301 H300 0.961 . S
C301 H302 0.960 . S
H302 C301 0.960 . S
H303 N283 0.862 . S
O304 Co272 1.920 . S
O304 C277 1.289 . S
C305 O297 1.258 . S
C305 O298 1.266 . S
Co306 O309 1.970 . S
Co306 N323 1.989 . S
Co306 O331 1.967 . S
Co306 O338 1.920 . S
Co307 O310 1.966 . S
Co307 N316 2.022 . S
Co307 N324 1.993 . S
Co307 O332 1.941 . S
C308 O309 1.258 . S
C308 O310 1.263 . S
O309 Co306 1.970 . S
O309 C308 1.258 . S
O310 Co307 1.966 . S
O310 C308 1.263 . S
C311 O312 1.235 . S
C311 O338 1.289 . S
O312 C311 1.235 . S
C313 C315 1.400 . S
C313 N316 1.351 . S
C313 C318 1.501 . S
C314 C315 1.387 . S
C314 N317 1.341 . S
C315 C313 1.400 . S
C315 C314 1.387 . S
N316 Co307 2.022 . S
N316 C313 1.351 . S
N316 N317 1.365 . S
N317 C314 1.341 . S
N317 N316 1.365 . S
N317 H337 0.862 . S
C318 C313 1.501 . S
C318 H319 0.961 . S
C318 H320 0.961 . S
C318 H321 0.960 . S
H319 C318 0.961 . S
H320 C318 0.961 . S
H321 C318 0.960 . S
C322 N323 1.342 . S
C322 C326 1.401 . S
C322 C327 1.499 . S
N323 Co306 1.989 . S
N323 C322 1.342 . S
N323 N324 1.388 . S
N324 Co307 1.993 . S
N324 N323 1.388 . S
N324 C325 1.346 . S
C325 N324 1.346 . S
C325 C326 1.396 . S
C325 C335 1.510 . S
C326 C322 1.401 . S
C326 C325 1.396 . S
C327 C322 1.499 . S
C327 H328 0.959 . S
C327 H329 0.960 . S
C327 H330 0.961 . S
H328 C327 0.959 . S
H329 C327 0.960 . S
H330 C327 0.961 . S
O331 Co306 1.967 . S
O331 C339 1.258 . S
O332 Co307 1.941 . S
O332 C339 1.266 . S
H333 C335 0.959 . S
H334 C335 0.961 . S
C335 C325 1.510 . S
C335 H333 0.959 . S
C335 H334 0.961 . S
C335 H336 0.960 . S
H336 C335 0.960 . S
H337 N317 0.862 . S
O338 Co306 1.920 . S
O338 C311 1.289 . S
C339 O331 1.258 . S
C339 O332 1.266 . S
Co340 O343 1.970 . S
Co340 N357 1.989 . S
Co340 O365 1.967 . S
Co340 O372 1.920 . S
Co341 O344 1.966 . S
Co341 N350 2.022 . S
Co341 N358 1.993 . S
Co341 O366 1.941 . S
C342 O343 1.258 . S
C342 O344 1.263 . S
O343 Co340 1.970 . S
O343 C342 1.258 . S
O344 Co341 1.966 . S
O344 C342 1.263 . S
C345 O346 1.235 . S
C345 O372 1.289 . S
O346 C345 1.235 . S
C347 C349 1.400 . S
C347 N350 1.351 . S
C347 C352 1.501 . S
C348 C349 1.387 . S
C348 N351 1.341 . S
C349 C347 1.400 . S
C349 C348 1.387 . S
N350 Co341 2.022 . S
N350 C347 1.351 . S
N350 N351 1.365 . S
N351 C348 1.341 . S
N351 N350 1.365 . S
N351 H371 0.862 . S
C352 C347 1.501 . S
C352 H353 0.961 . S
C352 H354 0.961 . S
C352 H355 0.960 . S
H353 C352 0.961 . S
H354 C352 0.961 . S
H355 C352 0.960 . S
C356 N357 1.342 . S
C356 C360 1.401 . S
C356 C361 1.499 . S
N357 Co340 1.989 . S
N357 C356 1.342 . S
N357 N358 1.388 . S
N358 Co341 1.993 . S
N358 N357 1.388 . S
N358 C359 1.346 . S
C359 N358 1.346 . S
C359 C360 1.396 . S
C359 C369 1.510 . S
C360 C356 1.401 . S
C360 C359 1.396 . S
C361 C356 1.499 . S
C361 H362 0.959 . S
C361 H363 0.960 . S
C361 H364 0.961 . S
H362 C361 0.959 . S
H363 C361 0.960 . S
H364 C361 0.961 . S
O365 Co340 1.967 . S
O365 C373 1.258 . S
O366 Co341 1.941 . S
O366 C373 1.266 . S
H367 C369 0.959 . S
H368 C369 0.961 . S
C369 C359 1.510 . S
C369 H367 0.959 . S
C369 H368 0.961 . S
C369 H370 0.960 . S
H370 C369 0.960 . S
H371 N351 0.862 . S
O372 Co340 1.920 . S
O372 C345 1.289 . S
C373 O365 1.258 . S
C373 O366 1.266 . S
Co374 O377 1.970 . S
Co374 N391 1.989 . S
Co374 O399 1.967 . S
Co374 O406 1.920 . S
Co375 O378 1.966 . S
Co375 N384 2.022 . S
Co375 N392 1.993 . S
Co375 O400 1.941 . S
C376 O377 1.258 . S
C376 O378 1.263 . S
O377 Co374 1.970 . S
O377 C376 1.258 . S
O378 Co375 1.966 . S
O378 C376 1.263 . S
C379 O380 1.235 . S
C379 O406 1.289 . S
O380 C379 1.235 . S
C381 C383 1.400 . S
C381 N384 1.351 . S
C381 C386 1.501 . S
C382 C383 1.387 . S
C382 N385 1.341 . S
C383 C381 1.400 . S
C383 C382 1.387 . S
N384 Co375 2.022 . S
N384 C381 1.351 . S
N384 N385 1.365 . S
N385 C382 1.341 . S
N385 N384 1.365 . S
N385 H405 0.862 . S
C386 C381 1.501 . S
C386 H387 0.961 . S
C386 H388 0.961 . S
C386 H389 0.960 . S
H387 C386 0.961 . S
H388 C386 0.961 . S
H389 C386 0.960 . S
C390 N391 1.342 . S
C390 C394 1.401 . S
C390 C395 1.499 . S
N391 Co374 1.989 . S
N391 C390 1.342 . S
N391 N392 1.388 . S
N392 Co375 1.993 . S
N392 N391 1.388 . S
N392 C393 1.346 . S
C393 N392 1.346 . S
C393 C394 1.396 . S
C393 C403 1.510 . S
C394 C390 1.401 . S
C394 C393 1.396 . S
C395 C390 1.499 . S
C395 H396 0.959 . S
C395 H397 0.960 . S
C395 H398 0.961 . S
H396 C395 0.959 . S
H397 C395 0.960 . S
H398 C395 0.961 . S
O399 Co374 1.967 . S
O399 C407 1.258 . S
O400 Co375 1.941 . S
O400 C407 1.266 . S
H401 C403 0.959 . S
H402 C403 0.961 . S
C403 C393 1.510 . S
C403 H401 0.959 . S
C403 H402 0.961 . S
C403 H404 0.960 . S
H404 C403 0.960 . S
H405 N385 0.862 . S
O406 Co374 1.920 . S
O406 C379 1.289 . S
C407 O399 1.258 . S
C407 O400 1.266 . S
H408 C414 0.930 . S
H409 C418 0.930 . S
H410 C423 0.929 . S
H411 C421 0.929 . S
H412 C416 0.929 . S
H413 C422 0.929 . S
C414 H408 0.930 . S
C414 C415 1.367 . S
C414 C422 1.378 . S
C415 C414 1.367 . S
C415 C423 1.433 . S
C416 H412 0.929 . S
C416 C418 1.378 . S
C416 C420 1.350 . S
C417 C420 1.463 . S
C417 C422 1.350 . S
C417 N425 1.427 . S
C418 H409 0.930 . S
C418 C416 1.378 . S
C418 C419 1.367 . S
C419 C418 1.367 . S
C419 C421 1.433 . S
C420 C416 1.350 . S
C420 C417 1.463 . S
C420 N424 1.427 . S
C421 H411 0.929 . S
C421 C419 1.433 . S
C421 N424 1.384 . S
C422 H413 0.929 . S
C422 C414 1.378 . S
C422 C417 1.350 . S
C423 H410 0.929 . S
C423 C415 1.433 . S
C423 N425 1.384 . S
N424 C420 1.427 . S
N424 C421 1.384 . S
N425 C417 1.427 . S
N425 C423 1.384 . S
H426 C432 0.930 . S
H427 C436 0.930 . S
H428 C441 0.929 . S
H429 C439 0.929 . S
H430 C434 0.929 . S
H431 C440 0.929 . S
C432 H426 0.930 . S
C432 C433 1.367 . S
C432 C440 1.378 . S
C433 C432 1.367 . S
C433 C441 1.433 . S
C434 H430 0.929 . S
C434 C436 1.378 . S
C434 C438 1.350 . S
C435 C438 1.463 . S
C435 C440 1.350 . S
C435 N443 1.427 . S
C436 H427 0.930 . S
C436 C434 1.378 . S
C436 C437 1.367 . S
C437 C436 1.367 . S
C437 C439 1.433 . S
C438 C434 1.350 . S
C438 C435 1.463 . S
C438 N442 1.427 . S
C439 H429 0.929 . S
C439 C437 1.433 . S
C439 N442 1.384 . S
C440 H431 0.929 . S
C440 C432 1.378 . S
C440 C435 1.350 . S
C441 H428 0.929 . S
C441 C433 1.433 . S
C441 N443 1.384 . S
N442 C438 1.427 . S
N442 C439 1.384 . S
N443 C435 1.427 . S
N443 C441 1.384 . S
H444 C450 0.930 . S
H445 C454 0.930 . S
H446 C459 0.929 . S
H447 C457 0.929 . S
H448 C452 0.929 . S
H449 C458 0.929 . S
C450 H444 0.930 . S
C450 C451 1.367 . S
C450 C458 1.378 . S
C451 C450 1.367 . S
C451 C459 1.433 . S
C452 H448 0.929 . S
C452 C454 1.378 . S
C452 C456 1.350 . S
C453 C456 1.463 . S
C453 C458 1.350 . S
C453 N461 1.427 . S
C454 H445 0.930 . S
C454 C452 1.378 . S
C454 C455 1.367 . S
C455 C454 1.367 . S
C455 C457 1.433 . S
C456 C452 1.350 . S
C456 C453 1.463 . S
C456 N460 1.427 . S
C457 H447 0.929 . S
C457 C455 1.433 . S
C457 N460 1.384 . S
C458 H449 0.929 . S
C458 C450 1.378 . S
C458 C453 1.350 . S
C459 H446 0.929 . S
C459 C451 1.433 . S
C459 N461 1.384 . S
N460 C456 1.427 . S
N460 C457 1.384 . S
N461 C453 1.427 . S
N461 C459 1.384 . S
H462 C468 0.930 . S
H463 C472 0.930 . S
H464 C477 0.929 . S
H465 C475 0.929 . S
H466 C470 0.929 . S
H467 C476 0.929 . S
C468 H462 0.930 . S
C468 C469 1.367 . S
C468 C476 1.378 . S
C469 C468 1.367 . S
C469 C477 1.433 . S
C470 H466 0.929 . S
C470 C472 1.378 . S
C470 C474 1.350 . S
C471 C474 1.463 . S
C471 C476 1.350 . S
C471 N479 1.427 . S
C472 H463 0.930 . S
C472 C470 1.378 . S
C472 C473 1.367 . S
C473 C472 1.367 . S
C473 C475 1.433 . S
C474 C470 1.350 . S
C474 C471 1.463 . S
C474 N478 1.427 . S
C475 H465 0.929 . S
C475 C473 1.433 . S
C475 N478 1.384 . S
C476 H467 0.929 . S
C476 C468 1.378 . S
C476 C471 1.350 . S
C477 H464 0.929 . S
C477 C469 1.433 . S
C477 N479 1.384 . S
N478 C474 1.427 . S
N478 C475 1.384 . S
N479 C471 1.427 . S
N479 C477 1.384 . S
H480 C486 0.930 . S
H481 C490 0.930 1_554 S
H482 C495 0.929 . S
H483 C493 0.929 . S
H484 C488 0.929 . S
H485 C494 0.929 . S
C486 H480 0.930 . S
C486 C487 1.367 . S
C486 C494 1.378 . S
C487 C486 1.367 . S
C487 C495 1.433 . S
C488 H484 0.929 . S
C488 C490 1.378 . S
C488 C492 1.350 . S
C489 C492 1.463 . S
C489 C494 1.350 . S
C489 N497 1.427 . S
C490 H481 0.930 1_556 S
C490 C488 1.378 . S
C490 C491 1.367 1_556 S
C491 C490 1.367 1_554 S
C491 C493 1.433 . S
C492 C488 1.350 . S
C492 C489 1.463 . S
C492 N496 1.427 . S
C493 H483 0.929 . S
C493 C491 1.433 . S
C493 N496 1.384 1_554 S
C494 H485 0.929 . S
C494 C486 1.378 . S
C494 C489 1.350 . S
C495 H482 0.929 . S
C495 C487 1.433 . S
C495 N497 1.384 . S
N496 C492 1.427 . S
N496 C493 1.384 1_556 S
N497 C489 1.427 . S
N497 C495 1.384 . S
H498 C504 0.930 . S
H499 C508 0.930 . S
H500 C513 0.929 . S
H501 C511 0.929 . S
H502 C506 0.929 . S
H503 C512 0.929 . S
C504 H498 0.930 . S
C504 C505 1.367 1_554 S
C504 C512 1.378 . S
C505 C504 1.367 1_556 S
C505 C513 1.433 . S
C506 H502 0.929 . S
C506 C508 1.378 . S
C506 C510 1.350 . S
C507 C510 1.463 . S
C507 C512 1.350 . S
C507 N515 1.427 . S
C508 H499 0.930 . S
C508 C506 1.378 . S
C508 C509 1.367 . S
C509 C508 1.367 . S
C509 C511 1.433 . S
C510 C506 1.350 . S
C510 C507 1.463 . S
C510 N514 1.427 . S
C511 H501 0.929 . S
C511 C509 1.433 . S
C511 N514 1.384 . S
C512 H503 0.929 . S
C512 C504 1.378 . S
C512 C507 1.350 . S
C513 H500 0.929 . S
C513 C505 1.433 . S
C513 N515 1.384 1_556 S
N514 C510 1.427 . S
N514 C511 1.384 . S
N515 C507 1.427 . S
N515 C513 1.384 1_554 S
H516 C522 0.930 . S
H517 C526 0.930 . S
H518 C531 0.929 . S
H519 C529 0.929 . S
H520 C524 0.929 . S
H521 C530 0.929 . S
C522 H516 0.930 . S
C522 C523 1.367 . S
C522 C530 1.378 . S
C523 C522 1.367 . S
C523 C531 1.433 . S
C524 H520 0.929 . S
C524 C526 1.378 . S
C524 C528 1.350 . S
C525 C528 1.463 . S
C525 C530 1.350 . S
C525 N533 1.427 . S
C526 H517 0.930 . S
C526 C524 1.378 . S
C526 C527 1.367 . S
C527 C526 1.367 . S
C527 C529 1.433 . S
C528 C524 1.350 . S
C528 C525 1.463 . S
C528 N532 1.427 . S
C529 H519 0.929 . S
C529 C527 1.433 . S
C529 N532 1.384 . S
C530 H521 0.929 . S
C530 C522 1.378 . S
C530 C525 1.350 . S
C531 H518 0.929 . S
C531 C523 1.433 . S
C531 N533 1.384 . S
N532 C528 1.427 . S
N532 C529 1.384 . S
N533 C525 1.427 . S
N533 C531 1.384 . S
H534 C540 0.930 1_554 S
H535 C544 0.930 1_655 S
H536 C549 0.929 . S
H537 C547 0.929 . S
H538 C542 0.929 . S
H539 C548 0.929 1_554 S
C540 H534 0.930 1_556 S
C540 C541 1.367 . S
C540 C548 1.378 . S
C541 C540 1.367 . S
C541 C549 1.433 . S
C542 H538 0.929 . S
C542 C544 1.378 . S
C542 C546 1.350 . S
C543 C546 1.463 . S
C543 C548 1.350 . S
C543 N551 1.427 . S
C544 H535 0.930 1_455 S
C544 C542 1.378 . S
C544 C545 1.367 . S
C545 C544 1.367 . S
C545 C547 1.433 1_556 S
C546 C542 1.350 . S
C546 C543 1.463 . S
C546 N550 1.427 1_556 S
C547 H537 0.929 . S
C547 C545 1.433 1_554 S
C547 N550 1.384 . S
C548 H539 0.929 1_556 S
C548 C540 1.378 . S
C548 C543 1.350 . S
C549 H536 0.929 . S
C549 C541 1.433 . S
C549 N551 1.384 . S
N550 C546 1.427 1_554 S
N550 C547 1.384 . S
N551 C543 1.427 . S
N551 C549 1.384 . S
H552 C558 0.930 . S
H553 C562 0.930 . S
H554 C567 0.929 . S
H555 C565 0.929 1_565 S
H556 C560 0.929 . S
H557 C566 0.929 . S
C558 H552 0.930 . S
C558 C559 1.367 . S
C558 C566 1.378 . S
C559 C558 1.367 . S
C559 C567 1.433 . S
C560 H556 0.929 . S
C560 C562 1.378 . S
C560 C564 1.350 . S
C561 C564 1.463 . S
C561 C566 1.350 . S
C561 N569 1.427 . S
C562 H553 0.930 . S
C562 C560 1.378 . S
C562 C563 1.390 . S
C563 C562 1.390 . S
C563 C565 1.425 . S
C564 C560 1.350 . S
C564 C561 1.463 . S
C564 N568 1.427 . S
C565 H555 0.929 1_545 S
C565 C563 1.425 . S
C565 N568 1.384 . S
C566 H557 0.929 . S
C566 C558 1.378 . S
C566 C561 1.350 . S
C567 H554 0.929 . S
C567 C559 1.433 . S
C567 N569 1.384 . S
N568 C564 1.427 . S
N568 C565 1.384 . S
N569 C561 1.427 . S
N569 C567 1.384 . S
H570 C576 0.930 . S
H571 C580 0.930 . S
H572 C585 0.929 . S
H573 C583 0.929 . S
H574 C578 0.929 . S
H575 C584 0.929 . S
C576 H570 0.930 . S
C576 C577 1.367 . S
C576 C584 1.378 . S
C577 C576 1.367 . S
C577 C585 1.433 . S
C578 H574 0.929 . S
C578 C580 1.378 . S
C578 C582 1.350 . S
C579 C582 1.463 . S
C579 C584 1.350 . S
C579 N587 1.427 . S
C580 H571 0.930 . S
C580 C578 1.378 . S
C580 C581 1.367 . S
C581 C580 1.367 . S
C581 C583 1.433 . S
C582 C578 1.350 . S
C582 C579 1.463 . S
C582 N586 1.427 . S
C583 H573 0.929 . S
C583 C581 1.433 . S
C583 N586 1.384 . S
C584 H575 0.929 . S
C584 C576 1.378 . S
C584 C579 1.350 . S
C585 H572 0.929 . S
C585 C577 1.433 . S
C585 N587 1.384 . S
N586 C582 1.427 . S
N586 C583 1.384 . S
N587 C579 1.427 . S
N587 C585 1.384 . S
H588 C594 0.930 1_455 S
H589 C598 0.930 . S
H590 C603 0.929 . S
H591 C601 0.929 . S
H592 C596 0.929 . S
H593 C602 0.929 . S
C594 H588 0.930 1_655 S
C594 C595 1.367 1_655 S
C594 C602 1.378 . S
C595 C594 1.367 1_455 S
C595 C603 1.433 1_455 S
C596 H592 0.929 . S
C596 C598 1.378 . S
C596 C600 1.350 . S
C597 C600 1.463 . S
C597 C602 1.350 . S
C597 N605 1.427 . S
C598 H589 0.930 . S
C598 C596 1.378 . S
C598 C599 1.367 . S
C599 C598 1.367 . S
C599 C601 1.433 . S
C600 C596 1.350 . S
C600 C597 1.463 . S
C600 N604 1.427 . S
C601 H591 0.929 . S
C601 C599 1.433 . S
C601 N604 1.384 . S
C602 H593 0.929 . S
C602 C594 1.378 . S
C602 C597 1.350 . S
C603 H590 0.929 . S
C603 C595 1.433 1_655 S
C603 N605 1.384 . S
N604 C600 1.427 . S
N604 C601 1.384 . S
N605 C597 1.427 . S
N605 C603 1.384 . S
H606 C612 0.930 . S
H607 C616 0.930 . S
H608 C621 0.929 1_545 S
H609 C619 0.929 . S
H610 C614 0.929 . S
H611 C620 0.929 . S
C612 H606 0.930 . S
C612 C613 1.367 1_565 S
C612 C620 1.378 . S
C613 C612 1.367 1_545 S
C613 C621 1.433 1_545 S
C614 H610 0.929 . S
C614 C616 1.378 . S
C614 C618 1.350 . S
C615 C618 1.463 . S
C615 C620 1.350 . S
C615 N623 1.427 . S
C616 H607 0.930 . S
C616 C614 1.378 . S
C616 C617 1.367 . S
C617 C616 1.367 . S
C617 C619 1.433 . S
C618 C614 1.350 . S
C618 C615 1.463 . S
C618 N622 1.427 . S
C619 H609 0.929 . S
C619 C617 1.433 . S
C619 N622 1.384 . S
C620 H611 0.929 . S
C620 C612 1.378 . S
C620 C615 1.350 . S
C621 H608 0.929 1_565 S
C621 C613 1.433 1_565 S
C621 N623 1.384 . S
N622 C618 1.427 . S
N622 C619 1.384 . S
N623 C615 1.427 . S
N623 C621 1.384 . S
H624 C630 0.930 . S
H625 C634 0.930 . S
H626 C639 0.929 1_556 S
H627 C637 0.929 . S
H628 C632 0.929 . S
H629 C638 0.929 . S
C630 H624 0.930 . S
C630 C631 1.367 . S
C630 C638 1.378 . S
C631 C630 1.367 . S
C631 C639 1.433 . S
C632 H628 0.929 . S
C632 C634 1.378 . S
C632 C636 1.350 1_556 S
C633 C636 1.463 . S
C633 C638 1.350 . S
C633 N641 1.425 1_554 S
C634 H625 0.930 . S
C634 C632 1.378 . S
C634 C635 1.367 1_556 S
C635 C634 1.367 1_554 S
C635 C637 1.433 . S
C636 C632 1.350 1_554 S
C636 C633 1.463 . S
C636 N640 1.427 . S
C637 H627 0.929 . S
C637 C635 1.433 . S
C637 N640 1.384 . S
C638 H629 0.929 . S
C638 C630 1.378 . S
C638 C633 1.350 . S
C639 H626 0.929 1_554 S
C639 C631 1.433 . S
C639 N641 1.383 1_554 S
N640 C636 1.427 . S
N640 C637 1.384 . S
N641 C633 1.425 1_556 S
N641 C639 1.383 1_556 S
H642 C648 0.930 . S
H643 C652 0.930 . S
H644 C657 0.929 1_655 S
H645 C655 0.929 . S
H646 C650 0.929 . S
H647 C656 0.929 . S
C648 H642 0.930 . S
C648 C649 1.367 . S
C648 C656 1.378 . S
C649 C648 1.367 . S
C649 C657 1.433 . S
C650 H646 0.929 . S
C650 C652 1.378 . S
C650 C654 1.350 . S
C651 C654 1.463 . S
C651 C656 1.350 . S
C651 N659 1.427 . S
C652 H643 0.930 . S
C652 C650 1.378 . S
C652 C653 1.367 . S
C653 C652 1.367 . S
C653 C655 1.433 . S
C654 C650 1.350 . S
C654 C651 1.463 . S
C654 N658 1.427 . S
C655 H645 0.929 . S
C655 C653 1.433 . S
C655 N658 1.384 . S
C656 H647 0.929 . S
C656 C648 1.378 . S
C656 C651 1.350 . S
C657 H644 0.929 1_455 S
C657 C649 1.433 . S
C657 N659 1.384 . S
N658 C654 1.427 . S
N658 C655 1.384 . S
N659 C651 1.427 . S
N659 C657 1.384 . S
H660 C666 0.930 . S
H661 C670 0.930 . S
H662 C675 0.929 1_565 S
H663 C673 0.929 . S
H664 C668 0.929 . S
H665 C674 0.929 . S
C666 H660 0.930 . S
C666 C667 1.367 1_545 S
C666 C674 1.378 . S
C667 C666 1.367 1_565 S
C667 C675 1.433 1_565 S
C668 H664 0.929 . S
C668 C670 1.378 . S
C668 C672 1.350 . S
C669 C672 1.463 . S
C669 C674 1.350 . S
C669 N677 1.427 . S
C670 H661 0.930 . S
C670 C668 1.378 . S
C670 C671 1.367 . S
C671 C670 1.367 . S
C671 C673 1.433 . S
C672 C668 1.350 . S
C672 C669 1.463 . S
C672 N676 1.427 . S
C673 H663 0.929 . S
C673 C671 1.433 . S
C673 N676 1.384 . S
C674 H665 0.929 . S
C674 C666 1.378 . S
C674 C669 1.350 . S
C675 H662 0.929 1_545 S
C675 C667 1.433 1_545 S
C675 N677 1.384 . S
N676 C672 1.427 . S
N676 C673 1.384 . S
N677 C669 1.427 . S
N677 C675 1.384 . S
H678 C684 0.930 . S
H679 C688 0.930 . S
H680 C693 0.929 . S
H681 C691 0.929 . S
H682 C686 0.929 . S
H683 C692 0.929 . S
C684 H678 0.930 . S
C684 C685 1.367 . S
C684 C692 1.378 . S
C685 C684 1.367 . S
C685 C693 1.433 . S
C686 H682 0.929 . S
C686 C688 1.378 . S
C686 C690 1.350 . S
C687 C690 1.463 . S
C687 C692 1.350 . S
C687 N695 1.427 . S
C688 H679 0.930 . S
C688 C686 1.378 . S
C688 C689 1.367 . S
C689 C688 1.367 . S
C689 C691 1.433 . S
C690 C686 1.350 . S
C690 C687 1.463 . S
C690 N694 1.427 . S
C691 H681 0.929 . S
C691 C689 1.433 . S
C691 N694 1.384 . S
C692 H683 0.929 . S
C692 C684 1.378 . S
C692 C687 1.350 . S
C693 H680 0.929 . S
C693 C685 1.433 . S
C693 N695 1.384 . S
N694 C690 1.427 . S
N694 C691 1.384 . S
N695 C687 1.427 . S
N695 C693 1.384 . S
H696 C702 0.930 . S
H697 C706 0.930 . S
H698 C711 0.929 . S
H699 C709 0.929 . S
H700 C704 0.929 . S
H701 C710 0.929 . S
C702 H696 0.930 . S
C702 C703 1.367 . S
C702 C710 1.378 . S
C703 C702 1.367 . S
C703 C711 1.433 . S
C704 H700 0.929 . S
C704 C706 1.378 . S
C704 C708 1.350 . S
C705 C708 1.463 . S
C705 C710 1.350 . S
C705 N713 1.427 . S
C706 H697 0.930 . S
C706 C704 1.378 . S
C706 C707 1.367 . S
C707 C706 1.367 . S
C707 C709 1.433 . S
C708 C704 1.350 . S
C708 C705 1.463 . S
C708 N712 1.427 . S
C709 H699 0.929 . S
C709 C707 1.433 . S
C709 N712 1.384 . S
C710 H701 0.929 . S
C710 C702 1.378 . S
C710 C705 1.350 . S
C711 H698 0.929 . S
C711 C703 1.433 . S
C711 N713 1.384 . S
N712 C708 1.427 . S
N712 C709 1.384 . S
N713 C705 1.427 . S
N713 C711 1.384 . S
H714 C720 0.930 . S
H715 C724 0.930 . S
H716 C729 0.929 1_545 S
H717 C727 0.929 . S
H718 C722 0.929 . S
H719 C728 0.929 . S
C720 H714 0.930 . S
C720 C721 1.370 . S
C720 C728 1.378 . S
C721 C720 1.370 . S
C721 C729 1.447 . S
C722 H718 0.929 . S
C722 C724 1.378 . S
C722 C726 1.350 . S
C723 C726 1.463 . S
C723 C728 1.350 . S
C723 N731 1.427 . S
C724 H715 0.930 . S
C724 C722 1.378 . S
C724 C725 1.367 . S
C725 C724 1.367 . S
C725 C727 1.433 . S
C726 C722 1.350 . S
C726 C723 1.463 . S
C726 N730 1.427 . S
C727 H717 0.929 . S
C727 C725 1.433 . S
C727 N730 1.384 . S
C728 H719 0.929 . S
C728 C720 1.378 . S
C728 C723 1.350 . S
C729 H716 0.929 1_565 S
C729 C721 1.447 . S
C729 N731 1.384 . S
N730 C726 1.427 . S
N730 C727 1.384 . S
N731 C723 1.427 . S
N731 C729 1.384 . S
H732 C738 0.930 . S
H733 C742 0.930 . S
H734 C747 0.929 . S
H735 C745 0.929 . S
H736 C740 0.929 . S
H737 C746 0.929 . S
C738 H732 0.930 . S
C738 C739 1.367 . S
C738 C746 1.378 . S
C739 C738 1.367 . S
C739 C747 1.433 . S
C740 H736 0.929 . S
C740 C742 1.378 . S
C740 C744 1.350 . S
C741 C744 1.463 . S
C741 C746 1.350 . S
C741 N749 1.427 . S
C742 H733 0.930 . S
C742 C740 1.378 . S
C742 C743 1.367 . S
C743 C742 1.367 . S
C743 C745 1.433 . S
C744 C740 1.350 . S
C744 C741 1.463 . S
C744 N748 1.427 . S
C745 H735 0.929 . S
C745 C743 1.433 . S
C745 N748 1.384 . S
C746 H737 0.929 . S
C746 C738 1.378 . S
C746 C741 1.350 . S
C747 H734 0.929 . S
C747 C739 1.433 . S
C747 N749 1.384 . S
N748 C744 1.427 . S
N748 C745 1.384 . S
N749 C741 1.427 . S
N749 C747 1.384 . S
H750 C756 0.930 . S
H751 C760 0.930 . S
H752 C765 0.929 . S
H753 C763 0.929 . S
H754 C758 0.929 . S
H755 C764 0.929 . S
C756 H750 0.930 . S
C756 C757 1.367 . S
C756 C764 1.378 . S
C757 C756 1.367 . S
C757 C765 1.433 . S
C758 H754 0.929 . S
C758 C760 1.378 . S
C758 C762 1.350 . S
C759 C762 1.463 1_655 S
C759 C764 1.350 . S
C759 N767 1.427 . S
C760 H751 0.930 . S
C760 C758 1.378 . S
C760 C761 1.367 . S
C761 C760 1.367 . S
C761 C763 1.433 . S
C762 C758 1.350 . S
C762 C759 1.463 1_455 S
C762 N766 1.427 . S
C763 H753 0.929 . S
C763 C761 1.433 . S
C763 N766 1.384 . S
C764 H755 0.929 . S
C764 C756 1.378 . S
C764 C759 1.350 . S
C765 H752 0.929 . S
C765 C757 1.433 . S
C765 N767 1.384 . S
N766 C762 1.427 . S
N766 C763 1.384 . S
N767 C759 1.427 . S
N767 C765 1.384 . S
H768 C774 0.930 . S
H769 C778 0.930 . S
H770 C783 0.929 . S
H771 C781 0.929 . S
H772 C776 0.929 . S
H773 C782 0.929 . S
C774 H768 0.930 . S
C774 C775 1.367 . S
C774 C782 1.378 . S
C775 C774 1.367 . S
C775 C783 1.433 . S
C776 H772 0.929 . S
C776 C778 1.378 . S
C776 C780 1.350 . S
C777 C780 1.463 1_565 S
C777 C782 1.350 . S
C777 N785 1.427 1_565 S
C778 H769 0.930 . S
C778 C776 1.378 . S
C778 C779 1.367 . S
C779 C778 1.367 . S
C779 C781 1.433 . S
C780 C776 1.350 . S
C780 C777 1.463 1_545 S
C780 N784 1.427 1_545 S
C781 H771 0.929 . S
C781 C779 1.433 . S
C781 N784 1.384 1_545 S
C782 H773 0.929 . S
C782 C774 1.378 . S
C782 C777 1.350 . S
C783 H770 0.929 . S
C783 C775 1.433 . S
C783 N785 1.384 1_565 S
N784 C780 1.427 1_565 S
N784 C781 1.384 1_565 S
N785 C777 1.427 1_545 S
N785 C783 1.384 1_545 S
H786 C792 0.930 . S
H787 C796 0.930 . S
H788 C801 0.929 . S
H789 C799 0.929 . S
H790 C794 0.929 . S
H791 C800 0.929 . S
C792 H786 0.930 . S
C792 C793 1.367 . S
C792 C800 1.378 . S
C793 C792 1.367 . S
C793 C801 1.433 . S
C794 H790 0.929 . S
C794 C796 1.378 . S
C794 C798 1.350 . S
C795 C798 1.463 . S
C795 C800 1.350 . S
C795 N803 1.427 . S
C796 H787 0.930 . S
C796 C794 1.378 . S
C796 C797 1.367 . S
C797 C796 1.367 . S
C797 C799 1.433 . S
C798 C794 1.350 . S
C798 C795 1.463 . S
C798 N802 1.427 . S
C799 H789 0.929 . S
C799 C797 1.433 . S
C799 N802 1.384 . S
C800 H791 0.929 . S
C800 C792 1.378 . S
C800 C795 1.350 . S
C801 H788 0.929 . S
C801 C793 1.433 . S
C801 N803 1.384 . S
N802 C798 1.427 . S
N802 C799 1.384 . S
N803 C795 1.427 . S
N803 C801 1.384 . S
H804 C810 0.930 . S
H805 C814 0.930 . S
H806 C819 0.929 . S
H807 C817 0.929 . S
H808 C812 0.929 . S
H809 C818 0.929 . S
C810 H804 0.930 . S
C810 C811 1.367 . S
C810 C818 1.378 . S
C811 C810 1.367 . S
C811 C819 1.433 . S
C812 H808 0.929 . S
C812 C814 1.378 . S
C812 C816 1.350 . S
C813 C816 1.463 1_455 S
C813 C818 1.350 . S
C813 N821 1.427 . S
C814 H805 0.930 . S
C814 C812 1.378 . S
C814 C815 1.367 . S
C815 C814 1.367 . S
C815 C817 1.433 . S
C816 C812 1.350 . S
C816 C813 1.463 1_655 S
C816 N820 1.427 1_655 S
C817 H807 0.929 . S
C817 C815 1.433 . S
C817 N820 1.384 1_655 S
C818 H809 0.929 . S
C818 C810 1.378 . S
C818 C813 1.350 . S
C819 H806 0.929 . S
C819 C811 1.433 . S
C819 N821 1.384 . S
N820 C816 1.427 1_455 S
N820 C817 1.384 1_455 S
N821 C813 1.427 . S
N821 C819 1.384 . S
H822 C828 0.930 . S
H823 C832 0.930 . S
H824 C837 0.928 1_545 S
H825 C835 0.928 1_565 S
H826 C830 0.929 1_554 S
H827 C836 0.929 1_556 S
C828 H822 0.930 . S
C828 C829 1.367 . S
C828 C836 1.378 . S
C829 C828 1.367 . S
C829 C837 1.433 . S
C830 H826 0.929 1_556 S
C830 C832 1.378 . S
C830 C834 1.350 . S
C831 C834 1.463 1_564 S
C831 C836 1.350 . S
C831 N839 1.427 1_565 S
C832 H823 0.930 . S
C832 C830 1.378 . S
C832 C833 1.367 . S
C833 C832 1.367 . S
C833 C835 1.433 . S
C834 C830 1.350 . S
C834 C831 1.463 1_546 S
C834 N838 1.427 1_545 S
C835 H825 0.928 1_545 S
C835 C833 1.433 . S
C835 N838 1.384 1_545 S
C836 H827 0.929 1_554 S
C836 C828 1.378 . S
C836 C831 1.350 . S
C837 H824 0.928 1_565 S
C837 C829 1.433 . S
C837 N839 1.384 1_565 S
N838 C834 1.427 1_565 S
N838 C835 1.384 1_565 S
N839 C831 1.427 1_545 S
N839 C837 1.384 1_545 S
H840 C846 0.930 . S
H841 C850 0.930 1_554 S
H842 C855 0.929 . S
H843 C853 0.929 . S
H844 C848 0.913 1_554 S
H845 C854 0.929 . S
C846 H840 0.930 . S
C846 C847 1.367 . S
C846 C854 1.378 . S
C847 C846 1.367 . S
C847 C855 1.433 . S
C848 H844 0.913 1_556 S
C848 C850 1.378 . S
C848 C852 1.350 . S
C849 C852 1.463 . S
C849 C854 1.350 . S
C849 N857 1.427 . S
C850 H841 0.930 1_556 S
C850 C848 1.378 . S
C850 C851 1.367 . S
C851 C850 1.367 . S
C851 C853 1.433 . S
C852 C848 1.350 . S
C852 C849 1.463 . S
C852 N856 1.427 . S
C853 H843 0.929 . S
C853 C851 1.433 . S
C853 N856 1.384 . S
C854 H845 0.929 . S
C854 C846 1.378 . S
C854 C849 1.350 . S
C855 H842 0.929 . S
C855 C847 1.433 . S
C855 N857 1.384 . S
N856 C852 1.427 . S
N856 C853 1.384 . S
N857 C849 1.427 . S
N857 C855 1.384 . S
H858 C864 0.930 . S
H859 C868 0.930 . S
H860 C873 0.929 . S
H861 C871 0.929 . S
H862 C866 0.929 . S
H863 C872 0.929 . S
C864 H858 0.930 . S
C864 C865 1.367 . S
C864 C872 1.378 . S
C865 C864 1.367 . S
C865 C873 1.433 . S
C866 H862 0.929 . S
C866 C868 1.378 . S
C866 C870 1.350 . S
C867 C870 1.463 . S
C867 C872 1.350 . S
C867 N875 1.427 . S
C868 H859 0.930 . S
C868 C866 1.378 . S
C868 C869 1.367 . S
C869 C868 1.367 . S
C869 C871 1.433 . S
C870 C866 1.350 . S
C870 C867 1.463 . S
C870 N874 1.427 . S
C871 H861 0.929 . S
C871 C869 1.433 . S
C871 N874 1.384 . S
C872 H863 0.929 . S
C872 C864 1.378 . S
C872 C867 1.350 . S
C873 H860 0.929 . S
C873 C865 1.433 . S
C873 N875 1.384 . S
N874 C870 1.427 . S
N874 C871 1.384 . S
N875 C867 1.427 . S
N875 C873 1.384 . S
H876 C882 0.930 . S
H877 C886 0.930 . S
H878 C891 0.929 . S
H879 C889 0.929 . S
H880 C884 0.929 . S
H881 C890 0.929 . S
C882 H876 0.930 . S
C882 C883 1.367 . S
C882 C890 1.378 . S
C883 C882 1.367 . S
C883 C891 1.433 . S
C884 H880 0.929 . S
C884 C886 1.378 . S
C884 C888 1.350 . S
C885 C888 1.463 . S
C885 C890 1.350 . S
C885 N893 1.427 . S
C886 H877 0.930 . S
C886 C884 1.378 . S
C886 C887 1.367 . S
C887 C886 1.367 . S
C887 C889 1.433 . S
C888 C884 1.350 . S
C888 C885 1.463 . S
C888 N892 1.427 . S
C889 H879 0.929 . S
C889 C887 1.433 . S
C889 N892 1.384 . S
C890 H881 0.929 . S
C890 C882 1.378 . S
C890 C885 1.350 . S
C891 H878 0.929 . S
C891 C883 1.433 . S
C891 N893 1.384 . S
N892 C888 1.427 . S
N892 C889 1.384 . S
N893 C885 1.427 . S
N893 C891 1.384 . S
H894 C900 0.930 . S
H895 C904 0.930 . S
H896 C909 0.929 . S
H897 C907 0.929 . S
H898 C902 0.929 . S
H899 C908 0.929 . S
C900 H894 0.930 . S
C900 C901 1.367 . S
C900 C908 1.378 . S
C901 C900 1.367 . S
C901 C909 1.433 . S
C902 H898 0.929 . S
C902 C904 1.378 . S
C902 C906 1.350 . S
C903 C906 1.463 . S
C903 C908 1.350 . S
C903 N911 1.427 . S
C904 H895 0.930 . S
C904 C902 1.378 . S
C904 C905 1.367 . S
C905 C904 1.367 . S
C905 C907 1.433 . S
C906 C902 1.350 . S
C906 C903 1.463 . S
C906 N910 1.427 . S
C907 H897 0.929 . S
C907 C905 1.433 . S
C907 N910 1.384 . S
C908 H899 0.929 . S
C908 C900 1.378 . S
C908 C903 1.350 . S
C909 H896 0.929 . S
C909 C901 1.433 . S
C909 N911 1.384 . S
N910 C906 1.427 . S
N910 C907 1.384 . S
N911 C903 1.427 . S
N911 C909 1.384 . S
H912 C918 0.930 . S
H913 C922 0.930 . S
H914 C927 0.929 . S
H915 C925 0.929 . S
H916 C920 0.929 . S
H917 C926 0.929 . S
C918 H912 0.930 . S
C918 C919 1.367 . S
C918 C926 1.378 . S
C919 C918 1.367 . S
C919 C927 1.433 . S
C920 H916 0.929 . S
C920 C922 1.378 . S
C920 C924 1.350 . S
C921 C924 1.463 . S
C921 C926 1.350 . S
C921 N929 1.427 . S
C922 H913 0.930 . S
C922 C920 1.378 . S
C922 C923 1.367 . S
C923 C922 1.367 . S
C923 C925 1.433 . S
C924 C920 1.350 . S
C924 C921 1.463 . S
C924 N928 1.427 . S
C925 H915 0.929 . S
C925 C923 1.433 . S
C925 N928 1.384 . S
C926 H917 0.929 . S
C926 C918 1.378 . S
C926 C921 1.350 . S
C927 H914 0.929 . S
C927 C919 1.433 . S
C927 N929 1.384 . S
N928 C924 1.427 . S
N928 C925 1.384 . S
N929 C921 1.427 . S
N929 C927 1.384 . S
H930 C936 0.930 . S
H931 C940 0.930 . S
H932 C945 0.929 . S
H933 C943 0.929 . S
H934 C938 0.929 . S
H935 C944 0.929 . S
C936 H930 0.930 . S
C936 C937 1.367 . S
C936 C944 1.378 . S
C937 C936 1.367 . S
C937 C945 1.433 . S
C938 H934 0.929 . S
C938 C940 1.378 . S
C938 C942 1.350 . S
C939 C942 1.463 . S
C939 C944 1.350 . S
C939 N947 1.427 . S
C940 H931 0.930 . S
C940 C938 1.378 . S
C940 C941 1.367 . S
C941 C940 1.367 . S
C941 C943 1.433 . S
C942 C938 1.350 . S
C942 C939 1.463 . S
C942 N946 1.427 . S
C943 H933 0.929 . S
C943 C941 1.433 . S
C943 N946 1.384 . S
C944 H935 0.929 . S
C944 C936 1.378 . S
C944 C939 1.350 . S
C945 H932 0.929 . S
C945 C937 1.433 . S
C945 N947 1.384 . S
N946 C942 1.427 . S
N946 C943 1.384 . S
N947 C939 1.427 . S
N947 C945 1.384 . S
C415 C349 0.291 . S
C419 C9 0.248 . S
C433 C43 0.531 . S
C437 C383 0.520 . S
C451 C77 0.527 . S
C455 C213 0.529 . S
C469 C111 0.276 . S
C473 C247 0.273 . S
C487 C145 0.484 . S
C491 C281 0.494 . S
C505 C179 0.487 . S
C509 C315 0.489 . S
C523 C5 1.788 . S
C527 C190 1.780 . S
C541 C20 1.823 . S
C545 C39 1.770 1_456 S
C559 C54 1.873 . S
C563 C73 1.823 1_545 S
C577 C107 1.809 . S
C581 C88 1.847 . S
C595 C141 1.980 . S
C599 C122 2.001 . S
C613 C175 1.873 . S
C617 C156 1.890 . S
C631 C258 1.833 . S
C635 C209 1.756 1_554 S
C649 C243 1.785 1_455 S
C653 C292 1.782 . S
C667 C277 1.873 . S
C671 C326 1.891 . S
C685 C311 1.979 . S
C689 C360 2.001 . S
C703 C345 1.812 1_655 S
C707 C394 1.844 . S
C721 C379 1.827 1_565 S
C725 C224 1.871 . S
C739 C2 1.346 . S
C743 C308 1.342 . S
C757 C36 1.666 . S
C761 C342 1.665 . S
C775 C70 1.572 . S
C779 C376 1.575 . S
C793 C104 1.665 . S
C797 C206 1.662 . S
C811 C138 1.347 . S
C815 C240 1.339 . S
C829 C274 1.480 . S
C833 C172 1.483 . S
C847 C237 1.105 . S
C851 C33 1.112 . S
C865 C67 1.111 . S
C869 C271 1.118 . S
C883 C101 1.169 . S
C887 C305 1.171 . S
C901 C339 1.266 . S
C905 C135 1.274 . S
C919 C169 1.283 . S
C923 C373 1.288 . S
C937 C407 1.171 . S
C941 C203 1.172 . S
