# Generated by pormake.
# Topology rac, (4)-cn, num edge types: 1
# Building blocks:
#     Node 0, Type 0, BuildingBlock: QUQFOY_clean_sbu_1, # of connection points: 4
#     Node 1, Type 0, BuildingBlock: QUQFOY_clean_sbu_1, # of connection points: 4
#     Node 2, Type 0, BuildingBlock: QUQFOY_clean_sbu_1, # of connection points: 4
#     Node 3, Type 0, BuildingBlock: QUQFOY_clean_sbu_1, # of connection points: 4
#     Node 4, Type 0, BuildingBlock: QUQFOY_clean_sbu_1, # of connection points: 4
#     Node 5, Type 0, BuildingBlock: QUQFOY_clean_sbu_1, # of connection points: 4
#     Node 6, Type 0, BuildingBlock: QUQFOY_clean_sbu_1, # of connection points: 4
#     Node 7, Type 0, BuildingBlock: QUQFOY_clean_sbu_1, # of connection points: 4
#     Edge 8, Type (0, 0), BuildingBlock: FUNLAD_clean_linker_1, # of connection points: 2
#     Edge 9, Type (0, 0), BuildingBlock: FUNLAD_clean_linker_1, # of connection points: 2
#     Edge 10, Type (0, 0), BuildingBlock: FUNLAD_clean_linker_1, # of connection points: 2
#     Edge 11, Type (0, 0), BuildingBlock: FUNLAD_clean_linker_1, # of connection points: 2
#     Edge 12, Type (0, 0), BuildingBlock: FUNLAD_clean_linker_1, # of connection points: 2
#     Edge 13, Type (0, 0), BuildingBlock: FUNLAD_clean_linker_1, # of connection points: 2
#     Edge 14, Type (0, 0), BuildingBlock: FUNLAD_clean_linker_1, # of connection points: 2
#     Edge 15, Type (0, 0), BuildingBlock: FUNLAD_clean_linker_1, # of connection points: 2
#     Edge 16, Type (0, 0), BuildingBlock: FUNLAD_clean_linker_1, # of connection points: 2
#     Edge 17, Type (0, 0), BuildingBlock: FUNLAD_clean_linker_1, # of connection points: 2
#     Edge 18, Type (0, 0), BuildingBlock: FUNLAD_clean_linker_1, # of connection points: 2
#     Edge 19, Type (0, 0), BuildingBlock: FUNLAD_clean_linker_1, # of connection points: 2
#     Edge 20, Type (0, 0), BuildingBlock: FUNLAD_clean_linker_1, # of connection points: 2
#     Edge 21, Type (0, 0), BuildingBlock: FUNLAD_clean_linker_1, # of connection points: 2
#     Edge 22, Type (0, 0), BuildingBlock: FUNLAD_clean_linker_1, # of connection points: 2
#     Edge 23, Type (0, 0), BuildingBlock: FUNLAD_clean_linker_1, # of connection points: 2
# Relax obj value: 0.259
# Max RMSD: 0.149
# Mean RMSD: 0.149
data_MOF--net-rac--node1-QUQFOY_clean_sbu_1--edge1-FUNLAD_clean_linker_1
_symmetry_space_group_name_H-M    P1
_symmetry_Int_Tables_number       1
_symmetry_cell_setting            triclinic
loop_
_symmetry_equiv_pos_as_xyz
'x, y, z'
_cell_length_a     42.922624
_cell_length_b     20.817884
_cell_length_c     48.175579
_cell_angle_alpha  90.163524
_cell_angle_beta   90.107946
_cell_angle_gamma 90.043726
loop_
_atom_site_label
_atom_site_type_symbol
_atom_site_fract_x
_atom_site_fract_y
_atom_site_fract_z
_atom_type_partial_charge
O0 O 0.36776 0.31582 0.04281 0.0
Cd1 Cd 0.40331 0.25887 0.05599 0.0
Cd2 Cd 0.38022 0.28903 0.10459 0.0
O3 O 0.3688 0.37005 0.08203 0.0
O4 O 0.43965 0.28003 0.03178 0.0
O5 O 0.4367 0.30664 0.07645 0.0
C6 C 0.45062 0.31198 0.05276 0.0
C7 C 0.3902 0.30109 0.15227 0.0
C8 C 0.36053 0.36512 0.05676 0.0
C9 C 0.36427 0.15972 0.07796 0.0
O10 O 0.35644 0.20555 0.09404 0.0
O11 O 0.38845 0.16516 0.0628 0.0
O12 O 0.36274 0.30822 0.14208 0.0
O13 O 0.41267 0.2883 0.13537 0.0
O14 O 0.16887 0.70764 0.027 0.0
Cd15 Cd 0.13125 0.75872 0.04044 0.0
Cd16 Cd 0.15072 0.71942 0.08869 0.0
O17 O 0.16439 0.64469 0.06329 0.0
O18 O 0.09708 0.7479 0.01263 0.0
O19 O 0.09703 0.70117 0.05408 0.0
C20 C 0.08489 0.70682 0.02956 0.0
C21 C 0.13824 0.69622 0.13507 0.0
C22 C 0.17567 0.65602 0.03941 0.0
C23 C 0.16772 0.85333 0.06926 0.0
O24 O 0.17519 0.80422 0.08341 0.0
O25 O 0.14423 0.8508 0.05305 0.0
O26 O 0.16614 0.69072 0.12577 0.0
O27 O 0.11671 0.71355 0.11792 0.0
O28 O 0.37412 0.18134 0.45943 0.0
Cd29 Cd 0.40712 0.25112 0.465 0.0
Cd30 Cd 0.39339 0.27568 0.4096 0.0
O31 O 0.37272 0.18734 0.41373 0.0
O32 O 0.43448 0.21708 0.49538 0.0
O33 O 0.45031 0.22907 0.45192 0.0
C34 C 0.45559 0.20782 0.47669 0.0
C35 C 0.41332 0.29348 0.36479 0.0
C36 C 0.36487 0.16007 0.43618 0.0
C37 C 0.3713 0.3704 0.45429 0.0
O38 O 0.37043 0.35046 0.42928 0.0
O39 O 0.38824 0.34204 0.47226 0.0
O40 O 0.3839 0.29326 0.36973 0.0
O41 O 0.43196 0.28568 0.38553 0.0
O42 O 0.17209 0.84069 0.43137 0.0
Cd43 Cd 0.14109 0.77312 0.44427 0.0
Cd44 Cd 0.14777 0.73051 0.38863 0.0
O45 O 0.17507 0.81187 0.38731 0.0
O46 O 0.11931 0.81518 0.47638 0.0
O47 O 0.0957 0.7905 0.43681 0.0
C48 C 0.09481 0.81842 0.46082 0.0
C49 C 0.12242 0.71051 0.3461 0.0
C50 C 0.18281 0.84878 0.40713 0.0
C51 C 0.17204 0.64539 0.43576 0.0
O52 O 0.16681 0.65368 0.41 0.0
O53 O 0.16245 0.68585 0.45378 0.0
O54 O 0.15187 0.70184 0.3492 0.0
O55 O 0.10666 0.72825 0.36756 0.0
O56 O 0.66636 0.68416 0.97722 0.0
Cd57 Cd 0.63073 0.74722 0.97106 0.0
Cd58 Cd 0.64416 0.72572 0.91885 0.0
O59 O 0.65728 0.63965 0.93655 0.0
O60 O 0.59845 0.72575 0.99955 0.0
O61 O 0.59291 0.70612 0.95443 0.0
C62 C 0.5831 0.69837 0.97958 0.0
C63 C 0.62137 0.72018 0.87457 0.0
C64 C 0.66974 0.63779 0.96042 0.0
C65 C 0.66757 0.84834 0.94659 0.0
O66 O 0.67168 0.80563 0.92796 0.0
O67 O 0.64637 0.8408 0.96482 0.0
O68 O 0.6507 0.71032 0.87828 0.0
O69 O 0.60469 0.73386 0.89603 0.0
O70 O 0.86625 0.31803 0.97405 0.0
Cd71 Cd 0.90209 0.25645 0.96628 0.0
Cd72 Cd 0.88464 0.28 0.91394 0.0
O73 O 0.87467 0.36534 0.93401 0.0
O74 O 0.93236 0.26859 0.99741 0.0
O75 O 0.94077 0.30359 0.95456 0.0
C76 C 0.94884 0.30258 0.98048 0.0
C77 C 0.89548 0.28891 0.86622 0.0
C78 C 0.8629 0.36587 0.95814 0.0
C79 C 0.86422 0.15601 0.94251 0.0
O80 O 0.85833 0.19973 0.92484 0.0
O81 O 0.887 0.16278 0.95927 0.0
O82 O 0.86795 0.29725 0.87595 0.0
O83 O 0.91752 0.27554 0.88352 0.0
O84 O 0.67266 0.8587 0.59721 0.0
Cd85 Cd 0.64727 0.79646 0.57328 0.0
Cd86 Cd 0.65448 0.718 0.62421 0.0
O87 O 0.67963 0.79862 0.63443 0.0
O88 O 0.63212 0.85373 0.54247 0.0
O89 O 0.60044 0.80739 0.57249 0.0
C90 C 0.60432 0.84698 0.55217 0.0
C91 C 0.63448 0.67477 0.66551 0.0
C92 C 0.68405 0.85033 0.62125 0.0
C93 C 0.68206 0.66908 0.5695 0.0
O94 O 0.67445 0.65828 0.59463 0.0
O95 O 0.67349 0.72039 0.55722 0.0
O96 O 0.66308 0.66746 0.65852 0.0
O97 O 0.61607 0.70232 0.64801 0.0
O98 O 0.87266 0.15668 0.57741 0.0
Cd99 Cd 0.90138 0.22337 0.55983 0.0
Cd100 Cd 0.89428 0.28429 0.6128 0.0
O101 O 0.86617 0.20534 0.61777 0.0
O102 O 0.92084 0.17523 0.52805 0.0
O103 O 0.94765 0.21004 0.5644 0.0
C104 C 0.94678 0.177 0.54164 0.0
C105 C 0.91908 0.30849 0.65507 0.0
C106 C 0.86052 0.1591 0.60133 0.0
C107 C 0.86936 0.35364 0.56198 0.0
O108 O 0.87596 0.35572 0.58778 0.0
O109 O 0.87787 0.30617 0.54698 0.0
O110 O 0.89015 0.32129 0.6509 0.0
O111 O 0.93493 0.28625 0.63446 0.0
H112 H 0.35123 0.06108 0.06394 0.0
C113 C 0.34323 0.10321 0.0752 0.0
H114 H 0.30587 0.1479 0.09616 0.0
H115 H 0.22513 0.92987 0.02617 0.0
H116 H 0.24444 0.98082 0.9845 0.0
H117 H 0.28395 0.06667 0.98714 0.0
H118 H 0.30498 0.10096 0.03144 0.0
C119 C 0.31368 0.10559 0.0849 0.0
C120 C 0.29057 0.05189 0.08255 0.0
C121 C 0.27753 0.03408 0.0565 0.0
C122 C 0.25349 0.98661 0.05508 0.0
C123 C 0.24237 0.96729 0.02866 0.0
C124 C 0.25339 0.99593 1.0045 0.0
C125 C 0.27572 0.04413 1.00598 0.0
C126 C 0.28771 0.06318 0.03159 0.0
H127 H 0.18041 0.95551 0.06111 0.0
C128 C 0.18861 0.91039 0.0697 0.0
H129 H 0.2263 0.85958 0.08728 0.0
H130 H 0.31063 0.07326 0.13571 0.0
H131 H 0.28982 0.02567 0.17761 0.0
H132 H 0.24642 0.94811 0.17538 0.0
H133 H 0.22365 0.91744 0.13124 0.0
C134 C 0.21833 0.90511 0.07887 0.0
C135 C 0.24146 0.95904 0.0798 0.0
C136 C 0.25425 0.97763 0.10582 0.0
C137 C 0.27887 0.02348 0.10716 0.0
C138 C 0.2915 0.03974 0.13347 0.0
C139 C 0.27987 0.01257 0.15772 0.0
C140 C 0.2555 0.9688 0.15646 0.0
C141 C 0.24274 0.95139 0.13092 0.0
H142 H 0.19553 0.55259 0.42915 0.0
C143 C 0.19373 0.59299 0.44342 0.0
H144 H 0.21628 0.64438 0.47538 0.0
H145 H 0.28825 0.35666 0.47021 0.0
H146 H 0.23957 0.31164 0.48694 0.0
H147 H 0.19329 0.38025 0.4934 0.0
H148 H 0.19525 0.49425 0.48292 0.0
C149 C 0.2162 0.60111 0.46271 0.0
C150 C 0.24505 0.56044 0.46237 0.0
C151 C 0.24384 0.4943 0.46929 0.0
C152 C 0.27074 0.45485 0.46596 0.0
C153 C 0.26855 0.38869 0.47236 0.0
C154 C 0.24079 0.36231 0.48206 0.0
C155 C 0.21472 0.40094 0.48568 0.0
C156 C 0.2161 0.46621 0.47946 0.0
H157 H 0.35152 0.44221 0.48379 0.0
C158 C 0.34934 0.42183 0.46309 0.0
H159 H 0.32173 0.41544 0.4268 0.0
H160 H 0.25637 0.68586 0.44821 0.0
H161 H 0.30524 0.73024 0.43204 0.0
H162 H 0.35203 0.6624 0.42782 0.0
H163 H 0.35001 0.5488 0.43902 0.0
C164 C 0.32479 0.43806 0.44697 0.0
C165 C 0.29906 0.48158 0.45613 0.0
C166 C 0.30079 0.54831 0.45072 0.0
C167 C 0.27381 0.58774 0.45372 0.0
C168 C 0.27609 0.6537 0.4468 0.0
C169 C 0.30404 0.67994 0.43751 0.0
C170 C 0.33036 0.64165 0.43499 0.0
C171 C 0.32888 0.57655 0.44143 0.0
H172 H 0.68233 0.94655 0.95969 0.0
C173 C 0.68931 0.904 0.94819 0.0
H174 H 0.72489 0.85739 0.9258 0.0
H175 H 0.80795 0.07908 0.88337 0.0
H176 H 0.78537 0.03868 0.84067 0.0
H177 H 0.74214 0.96065 0.84155 0.0
H178 H 0.7214 0.92212 0.88513 0.0
C179 C 0.71817 0.90059 0.93701 0.0
C180 C 0.74157 0.95432 0.93731 0.0
C181 C 0.75307 0.97788 0.91165 0.0
C182 C 0.77749 0.02437 0.91114 0.0
C183 C 0.78896 0.04513 0.88508 0.0
C184 C 0.77631 0.02209 0.86034 0.0
C185 C 0.75204 0.97805 0.86084 0.0
C186 C 0.74046 0.95608 0.88607 0.0
H187 H 0.85055 0.05757 0.95595 0.0
C188 C 0.84277 0.10004 0.94488 0.0
H189 H 0.80575 0.14597 0.92409 0.0
H190 H 0.72857 0.91426 0.99022 0.0
H191 H 0.74906 0.95909 0.03291 0.0
H192 H 0.78714 0.0478 0.03206 0.0
H193 H 0.80566 0.0909 0.9885 0.0
C194 C 0.81328 0.10301 0.93498 0.0
C195 C 0.7901 0.04901 0.93628 0.0
C196 C 0.77821 0.02647 0.96201 0.0
C197 C 0.75467 0.97779 0.96252 0.0
C198 C 0.7451 0.95319 0.98851 0.0
C199 C 0.75687 0.97821 0.01324 0.0
C200 C 0.77841 0.02797 0.01276 0.0
C201 C 0.78901 0.05201 0.98754 0.0
H202 H 0.72319 0.65284 0.54304 0.0
C203 C 0.70698 0.62899 0.55691 0.0
H204 H 0.69692 0.54697 0.58027 0.0
H205 H 0.83166 0.48413 0.51167 0.0
H206 H 0.80487 0.51035 0.46881 0.0
H207 H 0.75006 0.54584 0.46925 0.0
H208 H 0.72206 0.55774 0.51264 0.0
C209 C 0.71363 0.56975 0.56651 0.0
C210 C 0.74567 0.54057 0.56493 0.0
C211 C 0.76101 0.52922 0.53924 0.0
C212 C 0.79195 0.5037 0.53882 0.0
C213 C 0.80762 0.49922 0.51308 0.0
C214 C 0.7926 0.5147 0.48833 0.0
C215 C 0.76179 0.53504 0.48859 0.0
C216 C 0.74606 0.54225 0.51368 0.0
H217 H 0.82948 0.37992 0.53548 0.0
C218 C 0.84529 0.39846 0.55122 0.0
H219 H 0.85482 0.47151 0.57993 0.0
H220 H 0.72537 0.56193 0.61836 0.0
H221 H 0.74992 0.52588 0.66056 0.0
H222 H 0.79956 0.46658 0.65929 0.0
H223 H 0.82534 0.44486 0.61587 0.0
C224 C 0.83851 0.454 0.56436 0.0
C225 C 0.80657 0.48385 0.56388 0.0
C226 C 0.79063 0.49276 0.58948 0.0
C227 C 0.76089 0.52321 0.59008 0.0
C228 C 0.74704 0.53601 0.61627 0.0
C229 C 0.76102 0.51602 0.64085 0.0
C230 C 0.78902 0.48296 0.64014 0.0
C231 C 0.80372 0.47131 0.61491 0.0
H232 H 0.3738 0.31235 0.19513 0.0
C233 C 0.39454 0.30465 0.18262 0.0
H234 H 0.44328 0.28868 0.18372 0.0
H235 H 0.43527 0.41068 0.30784 0.0
H236 H 0.45851 0.5004 0.2833 0.0
H237 H 0.46622 0.49601 0.23259 0.0
H238 H 0.45056 0.4018 0.20602 0.0
C239 C 0.42198 0.29571 0.19548 0.0
C240 C 0.42311 0.29358 0.2264 0.0
C241 C 0.43333 0.34785 0.24173 0.0
C242 C 0.42919 0.35003 0.27106 0.0
C243 C 0.43826 0.4061 0.28565 0.0
C244 C 0.45156 0.45798 0.27179 0.0
C245 C 0.45589 0.45554 0.24322 0.0
C246 C 0.4468 0.40131 0.22823 0.0
H247 H 0.44998 0.2953 0.33232 0.0
C248 C 0.42507 0.29867 0.33602 0.0
H249 H 0.38025 0.30386 0.31814 0.0
H250 H 0.40614 0.17815 0.20376 0.0
H251 H 0.38468 0.08662 0.22837 0.0
H252 H 0.37728 0.09032 0.27913 0.0
H253 H 0.39137 0.18543 0.3056 0.0
C254 C 0.40521 0.30306 0.31445 0.0
C255 C 0.41521 0.29744 0.28496 0.0
C256 C 0.40715 0.2413 0.26982 0.0
C257 C 0.41125 0.23925 0.24055 0.0
C258 C 0.40301 0.18255 0.22597 0.0
C259 C 0.39083 0.12959 0.23985 0.0
C260 C 0.38667 0.13167 0.26843 0.0
C261 C 0.39473 0.18667 0.28335 0.0
H262 H 0.08291 0.71335 0.31627 0.0
C263 C 0.10774 0.70446 0.31839 0.0
H264 H 0.14991 0.68317 0.29786 0.0
H265 H 0.10297 0.57473 0.18546 0.0
H266 H 0.11234 0.47413 0.20957 0.0
H267 H 0.12167 0.47272 0.26013 0.0
H268 H 0.12147 0.57182 0.28693 0.0
C269 C 0.12517 0.69313 0.29569 0.0
C270 C 0.11257 0.69294 0.26685 0.0
C271 C 0.11253 0.63477 0.2515 0.0
C272 C 0.10755 0.63564 0.22231 0.0
C273 C 0.10741 0.57675 0.20756 0.0
C274 C 0.11253 0.51874 0.22117 0.0
C275 C 0.11776 0.51794 0.24965 0.0
C276 C 0.11774 0.57511 0.26476 0.0
H277 H 0.152 0.6692 0.17732 0.0
C278 C 0.13235 0.68516 0.16483 0.0
H279 H 0.08562 0.71688 0.16565 0.0
H280 H 0.10855 0.81313 0.29016 0.0
H281 H 0.09695 0.91243 0.26628 0.0
H282 H 0.08752 0.91347 0.21577 0.0
H283 H 0.08984 0.81503 0.18881 0.0
C284 C 0.10515 0.69806 0.17746 0.0
C285 C 0.1031 0.69486 0.20839 0.0
C286 C 0.10029 0.75234 0.22405 0.0
C287 C 0.10534 0.75157 0.2533 0.0
C288 C 0.10433 0.81043 0.26808 0.0
C289 C 0.0978 0.86798 0.25459 0.0
C290 C 0.09251 0.86857 0.22615 0.0
C291 C 0.0939 0.81168 0.21092 0.0
H292 H 0.58311 0.73031 0.84386 0.0
C293 C 0.60737 0.71672 0.84653 0.0
H294 H 0.64817 0.68246 0.82708 0.0
H295 H 0.58754 0.56714 0.71981 0.0
H296 H 0.58977 0.46997 0.74766 0.0
H297 H 0.60183 0.47547 0.79772 0.0
H298 H 0.61145 0.57814 0.82032 0.0
C299 C 0.62422 0.69815 0.8244 0.0
C300 C 0.61136 0.69609 0.79567 0.0
C301 C 0.60577 0.63591 0.78278 0.0
C302 C 0.59932 0.63261 0.75382 0.0
C303 C 0.59337 0.57195 0.74159 0.0
C304 C 0.59436 0.51599 0.75736 0.0
C305 C 0.60112 0.51909 0.78556 0.0
C306 C 0.60672 0.57823 0.79824 0.0
H307 H 0.64242 0.63467 0.70686 0.0
C308 C 0.62523 0.65946 0.6942 0.0
H309 H 0.58386 0.71375 0.69452 0.0
H310 H 0.61815 0.81976 0.81433 0.0
H311 H 0.61424 0.9167 0.78688 0.0
H312 H 0.60316 0.91114 0.73669 0.0
H313 H 0.59598 0.80876 0.71366 0.0
C314 C 0.60028 0.68573 0.70664 0.0
C315 C 0.59919 0.68941 0.73765 0.0
C316 C 0.60219 0.75007 0.75098 0.0
C317 C 0.60845 0.75337 0.78001 0.0
C318 C 0.61295 0.81437 0.79249 0.0
C319 C 0.61086 0.87049 0.77695 0.0
C320 C 0.60463 0.86736 0.74869 0.0
C321 C 0.60051 0.80807 0.73573 0.0
H322 H 0.95643 0.29647 0.68656 0.0
C323 C 0.93248 0.31165 0.68339 0.0
H324 H 0.88988 0.33676 0.70236 0.0
H325 H 0.91049 0.17462 0.80982 0.0
H326 H 0.88662 0.09199 0.78111 0.0
H327 H 0.87958 0.10833 0.73077 0.0
H328 H 0.89659 0.20707 0.70881 0.0
C329 C 0.91422 0.32428 0.70542 0.0
C330 C 0.92387 0.31024 0.73447 0.0
C331 C 0.91387 0.25223 0.74697 0.0
C332 C 0.91744 0.24323 0.77605 0.0
C333 C 0.90758 0.18451 0.78793 0.0
C334 C 0.89404 0.13656 0.77167 0.0
C335 C 0.89011 0.14574 0.74332 0.0
C336 C 0.89988 0.20274 0.731 0.0
H337 H 0.87981 0.30007 0.82315 0.0
C338 C 0.90043 0.29332 0.83598 0.0
H339 H 0.94956 0.28453 0.83581 0.0
H340 H 0.9487 0.42334 0.71648 0.0
H341 H 0.97405 0.50467 0.74501 0.0
H342 H 0.97995 0.48946 0.79553 0.0
H343 H 0.96053 0.39291 0.81792 0.0
C344 C 0.92838 0.28899 0.8236 0.0
C345 C 0.93044 0.2928 0.7927 0.0
C346 C 0.94267 0.34858 0.77987 0.0
C347 C 0.93929 0.35739 0.75069 0.0
C348 C 0.95073 0.41444 0.73853 0.0
C349 C 0.96532 0.46136 0.75465 0.0
C350 C 0.96865 0.45279 0.78311 0.0
C351 C 0.9574 0.39723 0.79571 0.0
H352 H 0.48664 0.37994 0.0678 0.0
C353 C 0.47572 0.36029 0.04926 0.0
H354 H 0.46859 0.37192 1.00626 0.0
H355 H 0.4982 0.66797 1.0038 0.0
H356 H 0.44191 0.66835 0.99954 0.0
H357 H 0.41162 0.56859 1.00541 0.0
H358 H 0.43739 0.46787 0.01571 0.0
C359 C 0.48135 0.38806 0.0245 0.0
C360 C 0.50007 0.44853 0.02184 0.0
C361 C 0.48478 0.50714 0.01534 0.0
C362 C 0.50231 0.56477 0.01163 0.0
C363 C 0.48618 0.62265 1.00613 0.0
C364 C 0.45383 0.62363 1.00381 0.0
C365 C 0.43677 0.56747 1.00713 0.0
C366 C 0.4519 0.50988 0.01292 0.0
H367 H 0.54446 0.63357 0.96761 0.0
C368 C 0.55766 0.65188 0.98521 0.0
H369 H 0.56892 0.63894 0.02741 0.0
H370 H 0.53691 0.34478 0.03312 0.0
H371 H 0.5932 0.34416 0.03731 0.0
H372 H 0.62362 0.4435 0.03078 0.0
H373 H 0.59803 0.54402 0.01998 0.0
C374 C 0.5542 0.62378 1.01022 0.0
C375 C 0.53526 0.56382 0.01402 0.0
C376 C 0.55053 0.50522 0.02068 0.0
C377 C 0.53297 0.44768 0.02453 0.0
C378 C 0.54901 0.3899 0.03042 0.0
C379 C 0.58135 0.3888 0.03276 0.0
C380 C 0.59848 0.44474 0.02909 0.0
C381 C 0.58342 0.50227 0.02301 0.0
H382 H 0.04966 0.67225 0.99946 0.0
C383 C 0.06041 0.66211 0.01942 0.0
H384 H 0.06611 0.59325 0.05119 0.0
H385 H 0.94214 0.44166 0.01572 0.0
H386 H 0.92153 0.50355 0.05412 0.0
H387 H 0.953 0.58826 0.07656 0.0
H388 H 1.00527 0.61214 0.06042 0.0
C389 C 0.05499 0.60491 0.03156 0.0
C390 C 0.03592 0.55352 0.01778 0.0
C391 C 1.00574 0.53871 0.02781 0.0
C392 C 0.98785 0.48863 0.01521 0.0
C393 C 0.9572 0.47745 0.02496 0.0
C394 C 0.94496 0.51301 0.04691 0.0
C395 C 0.96266 0.56078 0.05952 0.0
C396 C 0.99265 0.57387 0.0501 0.0
H397 H 0.9817 0.33697 0.01267 0.0
C398 C 0.97345 0.34561 0.99167 0.0
H399 H 0.97282 0.41079 0.95815 0.0
H400 H 0.09376 0.56577 0.99446 0.0
H401 H 0.11457 0.50367 0.95615 0.0
H402 H 0.08351 0.41767 0.93417 0.0
H403 H 0.03146 0.39287 0.95055 0.0
C404 C 0.98144 0.4008 0.97892 0.0
C405 C 1.00048 0.45196 0.99296 0.0
C406 C 0.03069 0.46681 0.98296 0.0
C407 C 0.0485 0.51712 0.99547 0.0
C408 C 0.07895 0.52916 0.98547 0.0
C409 C 0.09126 0.49364 0.96354 0.0
C410 C 0.07379 0.44518 0.95117 0.0
C411 C 0.0439 0.43157 0.96073 0.0
H412 H 0.55496 0.87802 0.55026 0.0
C413 C 0.57812 0.88748 0.54218 0.0
H414 H 0.60626 0.95124 0.51926 0.0
H415 H 0.46541 0.03923 0.47518 0.0
H416 H 0.46226 0.93366 0.45393 0.0
H417 H 0.50305 0.85257 0.46232 0.0
H418 H 0.54709 0.87621 0.49229 0.0
C419 C 0.5828 0.9395 0.52604 0.0
C420 C 0.55781 0.98818 0.52055 0.0
C421 C 0.53246 0.9741 0.50258 0.0
C422 C 0.50924 0.02158 0.49721 0.0
C423 C 0.48388 1.00548 0.47968 0.0
C424 C 0.48177 0.94502 0.46736 0.0
C425 C 0.50471 0.89931 0.47211 0.0
C426 C 0.52983 0.91343 0.48946 0.0
H427 H 0.5012 0.16399 0.46638 0.0
C428 C 0.48363 0.16823 0.48249 0.0
H429 H 0.46839 0.13461 0.52154 0.0
H430 H 0.60317 0.0319 0.55592 0.0
H431 H 0.60673 0.13818 0.57637 0.0
H432 H 0.567 0.22054 0.56643 0.0
H433 H 0.52336 0.1971 0.53588 0.0
C434 C 0.48608 0.13177 0.50549 0.0
C435 C 0.5116 0.08361 0.5094 0.0
C436 C 0.53712 0.0979 0.52707 0.0
C437 C 0.56021 0.05036 0.53262 0.0
C438 C 0.58518 0.06619 0.55067 0.0
C439 C 0.58747 0.127 0.56265 0.0
C440 C 0.56507 0.17336 0.55707 0.0
C441 C 0.54013 0.15925 0.53954 0.0
H442 H 0.99535 0.14175 0.54497 0.0
C443 C 0.9739 0.1373 0.53311 0.0
H444 H 0.95024 0.08615 0.5015 0.0
H445 H 0.07253 0.97373 0.44541 0.0
H446 H 0.06031 0.05878 0.41304 0.0
H447 H 1.01901 0.13754 0.42337 0.0
H448 H 0.98987 0.13207 0.46641 0.0
C449 C 0.97157 0.0911 0.5135 0.0
C450 C 0.99719 0.04397 0.50775 0.0
C451 C 1.01356 0.0465 0.48223 0.0
C452 C 0.03701 1.00006 0.47601 0.0
C453 C 0.05386 1.00613 0.4509 0.0
C454 C 0.04723 0.05511 0.43216 0.0
C455 C 0.024 0.09951 0.43799 0.0
C456 C 1.00739 0.09567 0.46273 0.0
H457 H 0.04685 0.85613 0.45583 0.0
C458 C 0.06756 0.85829 0.46881 0.0
H459 H 0.08978 0.905 0.50242 0.0
H460 H 0.96887 0.02141 0.55772 0.0
H461 H 0.981 0.93629 0.59013 0.0
H462 H 0.02185 0.85668 0.57959 0.0
H463 H 0.05069 0.86144 0.5364 0.0
C464 C 0.06915 0.9024 0.48936 0.0
C465 C 0.04361 0.94981 0.49506 0.0
C466 C 0.02725 0.94736 0.52061 0.0
C467 C 1.0039 0.99398 0.52686 0.0
C468 C 0.98729 0.98848 0.55213 0.0
C469 C 0.9939 0.93955 0.57089 0.0
C470 C 1.01689 0.8947 0.56495 0.0
C471 C 0.03334 0.89815 0.54011 0.0
H472 H 0.21931 0.64246 0.01685 0.0
C473 C 0.20212 0.618 0.02957 0.0
H474 H 0.19158 0.53746 0.05393 0.0
H475 H 0.33596 0.49539 1.0017 0.0
H476 H 0.31311 0.5011 0.9555 0.0
H477 H 0.25682 0.5211 0.94943 0.0
H478 H 0.22334 0.53763 0.98938 0.0
C479 C 0.20884 0.56116 0.041 0.0
C480 C 0.24177 0.54111 0.04397 0.0
C481 C 0.2604 0.52792 0.02038 0.0
C482 C 0.29231 0.51216 0.02389 0.0
C483 C 0.31117 0.50415 1.00006 0.0
C484 C 0.29841 0.5078 0.9735 0.0
C485 C 0.26675 0.51934 0.97009 0.0
C486 C 0.24783 0.52921 0.99319 0.0
H487 H 0.32098 0.39054 0.03057 0.0
C488 C 0.33782 0.40992 0.04526 0.0
H489 H 0.35177 0.48874 0.06958 0.0
H490 H 0.2139 0.57429 0.09349 0.0
H491 H 0.23661 0.5664 0.13923 0.0
H492 H 0.29049 0.52808 0.14552 0.0
H493 H 0.32208 0.49904 0.10609 0.0
C494 C 0.33467 0.46979 0.05506 0.0
C495 C 0.30471 0.50401 0.05097 0.0
C496 C 0.28645 0.51964 0.07453 0.0
C497 C 0.25506 0.53932 0.07098 0.0
C498 C 0.23757 0.55691 0.09482 0.0
C499 C 0.25036 0.55294 0.12132 0.0
C500 C 0.28069 0.53152 0.12485 0.0
C501 C 0.29861 0.51494 0.10187 0.0
H502 H 0.33301 0.09079 0.45539 0.0
C503 C 0.34238 0.10712 0.43566 0.0
H504 H 0.33967 0.10019 0.39196 0.0
H505 H 0.25752 0.85788 0.44884 0.0
H506 H 0.30686 0.81913 0.46675 0.0
H507 H 0.35555 0.87881 0.45816 0.0
H508 H 0.35495 0.97893 0.43247 0.0
C509 C 0.33113 0.083 0.41182 0.0
C510 C 0.30336 0.04075 0.41221 0.0
C511 C 0.30442 0.98089 0.42612 0.0
C512 C 0.27657 0.94552 0.43022 0.0
C513 C 0.27802 0.88678 0.445 0.0
C514 C 0.30622 0.86372 0.45527 0.0
C515 C 0.33361 0.89747 0.45055 0.0
C516 C 0.33289 0.95517 0.436 0.0
H517 H 0.21626 0.90276 0.38153 0.0
C518 C 0.2068 0.8977 0.40233 0.0
H519 H 0.21117 0.92411 0.44458 0.0
H520 H 0.29362 0.1526 0.38327 0.0
H521 H 0.24435 0.1911 0.3653 0.0
H522 H 0.19605 0.12882 0.37203 0.0
H523 H 0.19682 0.02765 0.39683 0.0
C524 C 0.21935 0.93094 0.42345 0.0
C525 C 0.24805 0.96894 0.41939 0.0
C526 C 0.24713 0.0276 0.40461 0.0
C527 C 0.27492 0.06354 0.4009 0.0
C528 C 0.27331 0.12288 0.3866 0.0
C529 C 0.24512 0.14571 0.37619 0.0
C530 C 0.21794 0.11063 0.37995 0.0
C531 C 0.21876 0.05239 0.39409 0.0
H532 H 0.68807 0.54001 0.95612 0.0
C533 C 0.69129 0.58565 0.96679 0.0
H534 H 0.72157 0.64344 0.99088 0.0
H535 H 0.81006 0.42255 0.03284 0.0
H536 H 0.79026 0.46563 0.07623 0.0
H537 H 0.74826 0.54651 0.07645 0.0
H538 H 0.72619 0.58565 0.03328 0.0
C539 C 0.71778 0.59735 0.98075 0.0
C540 C 0.74357 0.55003 0.98073 0.0
C541 C 0.7556 0.52679 1.00619 0.0
C542 C 0.7793 0.47918 1.00609 0.0
C543 C 0.79172 0.45809 0.03175 0.0
C544 C 0.78057 0.48241 0.0568 0.0
C545 C 0.75694 0.52799 0.05692 0.0
C546 C 0.74449 0.55007 0.03199 0.0
H547 H 0.84464 0.46381 0.95493 0.0
C548 C 0.84186 0.41818 0.96559 0.0
H549 H 0.81244 0.36067 0.99045 0.0
H550 H 0.73303 0.59744 0.92808 0.0
H551 H 0.74881 0.54754 0.88486 0.0
H552 H 0.7807 0.4489 0.88496 0.0
H553 H 0.79842 0.40241 0.92823 0.0
C554 C 0.81593 0.40664 0.98026 0.0
C555 C 0.79008 0.45378 0.98056 0.0
C556 C 0.77693 0.47504 0.95514 0.0
C557 C 0.75556 0.52674 0.95516 0.0
C558 C 0.74684 0.55416 0.92936 0.0
C559 C 0.7561 0.52652 0.90435 0.0
C560 C 0.77423 0.47138 0.9044 0.0
C561 C 0.78458 0.44569 0.92942 0.0
H562 H 0.71439 0.89059 0.65395 0.0
C563 C 0.70536 0.89828 0.63311 0.0
H564 H 0.70823 0.95421 0.59667 0.0
H565 H 0.77768 0.19435 0.64247 0.0
H566 H 0.72511 0.23689 0.64055 0.0
H567 H 0.68012 0.16493 0.63313 0.0
H568 H 0.68753 0.04994 0.62737 0.0
C569 C 0.71703 0.94562 0.6175 0.0
C570 C 0.74321 0.98612 0.62722 0.0
C571 C 0.73833 0.05268 0.63143 0.0
C572 C 0.76417 0.09393 0.63603 0.0
C573 C 0.75885 0.16071 0.63906 0.0
C574 C 0.72877 0.18576 0.63805 0.0
C575 C 0.70344 0.14525 0.63386 0.0
C576 C 0.70802 0.07944 0.63053 0.0
H577 H 0.83229 0.07322 0.59349 0.0
C578 C 0.83774 0.10981 0.60893 0.0
H579 H 0.82596 0.14926 0.64808 0.0
H580 H 0.76118 0.85967 0.62038 0.0
H581 H 0.81315 0.81704 0.62613 0.0
H582 H 0.85716 0.88824 0.6382 0.0
H583 H 0.84923 1.00326 0.64392 0.0
C584 C 0.82168 0.11173 0.63282 0.0
C585 C 0.79469 0.06813 0.63641 0.0
C586 C 0.79921 1.00084 0.63529 0.0
C587 C 0.77358 0.9597 0.62978 0.0
C588 C 0.77937 0.89321 0.62591 0.0
C589 C 0.80924 0.86801 0.62895 0.0
C590 C 0.83404 0.90809 0.63564 0.0
C591 C 0.82922 0.97386 0.63871 0.0
loop_
_geom_bond_atom_site_label_1
_geom_bond_atom_site_label_2
_geom_bond_distance
_geom_bond_site_symmetry_2
_ccdc_geom_bond_type
O0 Cd1 2.223 . S
O0 C8 1.315 . S
Cd1 O0 2.223 . S
Cd1 O4 2.297 . S
Cd1 O5 2.439 . S
Cd1 O11 2.240 . S
Cd2 O3 2.240 . S
Cd2 O10 2.223 . S
Cd2 O12 2.297 . S
Cd2 O13 2.439 . S
O3 Cd2 2.240 . S
O3 C8 1.279 . S
O4 Cd1 2.297 . S
O4 C6 1.247 . S
O5 Cd1 2.439 . S
O5 C6 1.208 . S
C6 O4 1.247 . S
C6 O5 1.208 . S
C7 O12 1.247 . S
C7 O13 1.208 . S
C8 O0 1.315 . S
C8 O3 1.279 . S
C9 O10 1.315 . S
C9 O11 1.279 . S
O10 Cd2 2.223 . S
O10 C9 1.315 . S
O11 Cd1 2.240 . S
O11 C9 1.279 . S
O12 Cd2 2.297 . S
O12 C7 1.247 . S
O13 Cd2 2.439 . S
O13 C7 1.208 . S
O14 Cd15 2.223 . S
O14 C22 1.315 . S
Cd15 O14 2.223 . S
Cd15 O18 2.297 . S
Cd15 O19 2.439 . S
Cd15 O25 2.240 . S
Cd16 O17 2.240 . S
Cd16 O24 2.223 . S
Cd16 O26 2.297 . S
Cd16 O27 2.439 . S
O17 Cd16 2.240 . S
O17 C22 1.279 . S
O18 Cd15 2.297 . S
O18 C20 1.247 . S
O19 Cd15 2.439 . S
O19 C20 1.208 . S
C20 O18 1.247 . S
C20 O19 1.208 . S
C21 O26 1.247 . S
C21 O27 1.208 . S
C22 O14 1.315 . S
C22 O17 1.279 . S
C23 O24 1.315 . S
C23 O25 1.279 . S
O24 Cd16 2.223 . S
O24 C23 1.315 . S
O25 Cd15 2.240 . S
O25 C23 1.279 . S
O26 Cd16 2.297 . S
O26 C21 1.247 . S
O27 Cd16 2.439 . S
O27 C21 1.208 . S
O28 Cd29 2.223 . S
O28 C36 1.315 . S
Cd29 O28 2.223 . S
Cd29 O32 2.297 . S
Cd29 O33 2.439 . S
Cd29 O39 2.240 . S
Cd30 O31 2.240 . S
Cd30 O38 2.223 . S
Cd30 O40 2.297 . S
Cd30 O41 2.439 . S
O31 Cd30 2.240 . S
O31 C36 1.279 . S
O32 Cd29 2.297 . S
O32 C34 1.247 . S
O33 Cd29 2.439 . S
O33 C34 1.208 . S
C34 O32 1.247 . S
C34 O33 1.208 . S
C35 O40 1.247 . S
C35 O41 1.208 . S
C36 O28 1.315 . S
C36 O31 1.279 . S
C37 O38 1.315 . S
C37 O39 1.279 . S
O38 Cd30 2.223 . S
O38 C37 1.315 . S
O39 Cd29 2.240 . S
O39 C37 1.279 . S
O40 Cd30 2.297 . S
O40 C35 1.247 . S
O41 Cd30 2.439 . S
O41 C35 1.208 . S
O42 Cd43 2.223 . S
O42 C50 1.315 . S
Cd43 O42 2.223 . S
Cd43 O46 2.297 . S
Cd43 O47 2.439 . S
Cd43 O53 2.240 . S
Cd44 O45 2.240 . S
Cd44 O52 2.223 . S
Cd44 O54 2.297 . S
Cd44 O55 2.439 . S
O45 Cd44 2.240 . S
O45 C50 1.279 . S
O46 Cd43 2.297 . S
O46 C48 1.247 . S
O47 Cd43 2.439 . S
O47 C48 1.208 . S
C48 O46 1.247 . S
C48 O47 1.208 . S
C49 O54 1.247 . S
C49 O55 1.208 . S
C50 O42 1.315 . S
C50 O45 1.279 . S
C51 O52 1.315 . S
C51 O53 1.279 . S
O52 Cd44 2.223 . S
O52 C51 1.315 . S
O53 Cd43 2.240 . S
O53 C51 1.279 . S
O54 Cd44 2.297 . S
O54 C49 1.247 . S
O55 Cd44 2.439 . S
O55 C49 1.208 . S
O56 Cd57 2.223 . S
O56 C64 1.315 . S
Cd57 O56 2.223 . S
Cd57 O60 2.297 . S
Cd57 O61 2.439 . S
Cd57 O67 2.240 . S
Cd58 O59 2.240 . S
Cd58 O66 2.223 . S
Cd58 O68 2.297 . S
Cd58 O69 2.439 . S
O59 Cd58 2.240 . S
O59 C64 1.279 . S
O60 Cd57 2.297 . S
O60 C62 1.247 . S
O61 Cd57 2.439 . S
O61 C62 1.208 . S
C62 O60 1.247 . S
C62 O61 1.208 . S
C63 O68 1.247 . S
C63 O69 1.208 . S
C64 O56 1.315 . S
C64 O59 1.279 . S
C65 O66 1.315 . S
C65 O67 1.279 . S
O66 Cd58 2.223 . S
O66 C65 1.315 . S
O67 Cd57 2.240 . S
O67 C65 1.279 . S
O68 Cd58 2.297 . S
O68 C63 1.247 . S
O69 Cd58 2.439 . S
O69 C63 1.208 . S
O70 Cd71 2.223 . S
O70 C78 1.315 . S
Cd71 O70 2.223 . S
Cd71 O74 2.297 . S
Cd71 O75 2.439 . S
Cd71 O81 2.240 . S
Cd72 O73 2.240 . S
Cd72 O80 2.223 . S
Cd72 O82 2.297 . S
Cd72 O83 2.439 . S
O73 Cd72 2.240 . S
O73 C78 1.279 . S
O74 Cd71 2.297 . S
O74 C76 1.247 . S
O75 Cd71 2.439 . S
O75 C76 1.208 . S
C76 O74 1.247 . S
C76 O75 1.208 . S
C77 O82 1.247 . S
C77 O83 1.208 . S
C78 O70 1.315 . S
C78 O73 1.279 . S
C79 O80 1.315 . S
C79 O81 1.279 . S
O80 Cd72 2.223 . S
O80 C79 1.315 . S
O81 Cd71 2.240 . S
O81 C79 1.279 . S
O82 Cd72 2.297 . S
O82 C77 1.247 . S
O83 Cd72 2.439 . S
O83 C77 1.208 . S
O84 Cd85 2.223 . S
O84 C92 1.315 . S
Cd85 O84 2.223 . S
Cd85 O88 2.297 . S
Cd85 O89 2.439 . S
Cd85 O95 2.240 . S
Cd86 O87 2.240 . S
Cd86 O94 2.223 . S
Cd86 O96 2.297 . S
Cd86 O97 2.439 . S
O87 Cd86 2.240 . S
O87 C92 1.279 . S
O88 Cd85 2.297 . S
O88 C90 1.247 . S
O89 Cd85 2.439 . S
O89 C90 1.208 . S
C90 O88 1.247 . S
C90 O89 1.208 . S
C91 O96 1.247 . S
C91 O97 1.208 . S
C92 O84 1.315 . S
C92 O87 1.279 . S
C93 O94 1.315 . S
C93 O95 1.279 . S
O94 Cd86 2.223 . S
O94 C93 1.315 . S
O95 Cd85 2.240 . S
O95 C93 1.279 . S
O96 Cd86 2.297 . S
O96 C91 1.247 . S
O97 Cd86 2.439 . S
O97 C91 1.208 . S
O98 Cd99 2.223 . S
O98 C106 1.315 . S
Cd99 O98 2.223 . S
Cd99 O102 2.297 . S
Cd99 O103 2.439 . S
Cd99 O109 2.240 . S
Cd100 O101 2.240 . S
Cd100 O108 2.223 . S
Cd100 O110 2.297 . S
Cd100 O111 2.439 . S
O101 Cd100 2.240 . S
O101 C106 1.279 . S
O102 Cd99 2.297 . S
O102 C104 1.247 . S
O103 Cd99 2.439 . S
O103 C104 1.208 . S
C104 O102 1.247 . S
C104 O103 1.208 . S
C105 O110 1.247 . S
C105 O111 1.208 . S
C106 O98 1.315 . S
C106 O101 1.279 . S
C107 O108 1.315 . S
C107 O109 1.279 . S
O108 Cd100 2.223 . S
O108 C107 1.315 . S
O109 Cd99 2.240 . S
O109 C107 1.279 . S
O110 Cd100 2.297 . S
O110 C105 1.247 . S
O111 Cd100 2.439 . S
O111 C105 1.208 . S
H112 C113 0.951 . S
C113 H112 0.951 . S
C113 C119 1.265 . S
H114 C119 0.950 . S
H115 C123 0.949 . S
H116 C124 0.929 1_556 S
H117 C125 0.951 . S
H118 C126 0.951 . S
C119 C113 1.265 . S
C119 H114 0.950 . S
C119 C120 1.478 . S
C120 C119 1.478 . S
C120 C121 1.397 . S
C120 C137 1.394 . S
C121 C120 1.397 . S
C121 C122 1.438 1_545 S
C121 C126 1.429 . S
C122 C121 1.438 1_565 S
C122 C123 1.428 . S
C122 C135 1.394 . S
C123 H115 0.949 . S
C123 C122 1.428 . S
C123 C124 1.345 1_565 S
C124 H116 0.929 1_554 S
C124 C123 1.345 1_545 S
C124 C125 1.424 . S
C125 H117 0.951 . S
C125 C124 1.424 . S
C125 C126 1.347 . S
C126 H118 0.951 . S
C126 C121 1.429 . S
C126 C125 1.347 . S
H127 C128 0.951 . S
C128 H127 0.951 . S
C128 C134 1.265 . S
H129 C134 0.950 . S
H130 C138 0.949 . S
H131 C139 0.950 . S
H132 C140 0.951 . S
H133 C141 0.951 . S
C134 C128 1.265 . S
C134 H129 0.950 . S
C134 C135 1.478 . S
C135 C122 1.394 . S
C135 C134 1.478 . S
C135 C136 1.397 . S
C136 C135 1.397 . S
C136 C137 1.438 1_565 S
C136 C141 1.429 . S
C137 C120 1.394 . S
C137 C136 1.438 1_545 S
C137 C138 1.428 . S
C138 H130 0.949 . S
C138 C137 1.428 . S
C138 C139 1.345 1_545 S
C139 H131 0.950 . S
C139 C138 1.345 1_565 S
C139 C140 1.424 . S
C140 H132 0.951 . S
C140 C139 1.424 . S
C140 C141 1.347 . S
C141 H133 0.951 . S
C141 C136 1.429 . S
C141 C140 1.347 . S
H142 C143 0.951 . S
C143 H142 0.951 . S
C143 C149 1.265 . S
H144 C149 0.950 . S
H145 C153 0.949 . S
H146 C154 0.950 . S
H147 C155 0.951 . S
H148 C156 0.951 . S
C149 C143 1.265 . S
C149 H144 0.950 . S
C149 C150 1.478 . S
C150 C149 1.478 . S
C150 C151 1.397 . S
C150 C167 1.394 . S
C151 C150 1.397 . S
C151 C152 1.438 . S
C151 C156 1.429 . S
C152 C151 1.438 . S
C152 C153 1.428 . S
C152 C165 1.394 . S
C153 H145 0.949 . S
C153 C152 1.428 . S
C153 C154 1.345 . S
C154 H146 0.950 . S
C154 C153 1.345 . S
C154 C155 1.424 . S
C155 H147 0.951 . S
C155 C154 1.424 . S
C155 C156 1.347 . S
C156 H148 0.951 . S
C156 C151 1.429 . S
C156 C155 1.347 . S
H157 C158 0.951 . S
C158 H157 0.951 . S
C158 C164 1.265 . S
H159 C164 0.950 . S
H160 C168 0.949 . S
H161 C169 0.950 . S
H162 C170 0.951 . S
H163 C171 0.951 . S
C164 C158 1.265 . S
C164 H159 0.950 . S
C164 C165 1.478 . S
C165 C152 1.394 . S
C165 C164 1.478 . S
C165 C166 1.397 . S
C166 C165 1.397 . S
C166 C167 1.438 . S
C166 C171 1.429 . S
C167 C150 1.394 . S
C167 C166 1.438 . S
C167 C168 1.428 . S
C168 H160 0.949 . S
C168 C167 1.428 . S
C168 C169 1.345 . S
C169 H161 0.950 . S
C169 C168 1.345 . S
C169 C170 1.424 . S
C170 H162 0.951 . S
C170 C169 1.424 . S
C170 C171 1.347 . S
C171 H163 0.951 . S
C171 C166 1.429 . S
C171 C170 1.347 . S
H172 C173 0.951 . S
C173 H172 0.951 . S
C173 C179 1.265 . S
H174 C179 0.950 . S
H175 C183 0.949 . S
H176 C184 0.950 1_545 S
H177 C185 0.951 . S
H178 C186 0.951 . S
C179 C173 1.265 . S
C179 H174 0.950 . S
C179 C180 1.478 . S
C180 C179 1.478 . S
C180 C181 1.397 . S
C180 C197 1.394 . S
C181 C180 1.397 . S
C181 C182 1.438 1_565 S
C181 C186 1.429 . S
C182 C181 1.438 1_545 S
C182 C183 1.428 . S
C182 C195 1.394 . S
C183 H175 0.949 . S
C183 C182 1.428 . S
C183 C184 1.345 1_545 S
C184 H176 0.950 1_565 S
C184 C183 1.345 1_565 S
C184 C185 1.424 . S
C185 H177 0.951 . S
C185 C184 1.424 . S
C185 C186 1.347 . S
C186 H178 0.951 . S
C186 C181 1.429 . S
C186 C185 1.347 . S
H187 C188 0.951 . S
C188 H187 0.951 . S
C188 C194 1.265 . S
H189 C194 0.950 . S
H190 C198 0.949 . S
H191 C199 0.950 1_565 S
H192 C200 0.951 . S
H193 C201 0.951 . S
C194 C188 1.265 . S
C194 H189 0.950 . S
C194 C195 1.478 . S
C195 C182 1.394 . S
C195 C194 1.478 . S
C195 C196 1.397 . S
C196 C195 1.397 . S
C196 C197 1.438 1_545 S
C196 C201 1.429 . S
C197 C180 1.394 . S
C197 C196 1.438 1_565 S
C197 C198 1.428 . S
C198 H190 0.949 . S
C198 C197 1.428 . S
C198 C199 1.345 1_566 S
C199 H191 0.950 1_545 S
C199 C198 1.345 1_544 S
C199 C200 1.424 . S
C200 H192 0.951 . S
C200 C199 1.424 . S
C200 C201 1.347 1_554 S
C201 H193 0.951 . S
C201 C196 1.429 . S
C201 C200 1.347 1_556 S
H202 C203 0.951 . S
C203 H202 0.951 . S
C203 C209 1.265 . S
H204 C209 0.950 . S
H205 C213 0.949 . S
H206 C214 0.950 . S
H207 C215 0.951 . S
H208 C216 0.951 . S
C209 C203 1.265 . S
C209 H204 0.950 . S
C209 C210 1.478 . S
C210 C209 1.478 . S
C210 C211 1.397 . S
C210 C227 1.394 . S
C211 C210 1.397 . S
C211 C212 1.438 . S
C211 C216 1.429 . S
C212 C211 1.438 . S
C212 C213 1.428 . S
C212 C225 1.394 . S
C213 H205 0.949 . S
C213 C212 1.428 . S
C213 C214 1.345 . S
C214 H206 0.950 . S
C214 C213 1.345 . S
C214 C215 1.424 . S
C215 H207 0.951 . S
C215 C214 1.424 . S
C215 C216 1.347 . S
C216 H208 0.951 . S
C216 C211 1.429 . S
C216 C215 1.347 . S
H217 C218 0.951 . S
C218 H217 0.951 . S
C218 C224 1.265 . S
H219 C224 0.950 . S
H220 C228 0.949 . S
H221 C229 0.950 . S
H222 C230 0.951 . S
H223 C231 0.951 . S
C224 C218 1.265 . S
C224 H219 0.950 . S
C224 C225 1.478 . S
C225 C212 1.394 . S
C225 C224 1.478 . S
C225 C226 1.397 . S
C226 C225 1.397 . S
C226 C227 1.438 . S
C226 C231 1.429 . S
C227 C210 1.394 . S
C227 C226 1.438 . S
C227 C228 1.428 . S
C228 H220 0.949 . S
C228 C227 1.428 . S
C228 C229 1.345 . S
C229 H221 0.950 . S
C229 C228 1.345 . S
C229 C230 1.424 . S
C230 H222 0.951 . S
C230 C229 1.424 . S
C230 C231 1.347 . S
C231 H223 0.951 . S
C231 C226 1.429 . S
C231 C230 1.347 . S
H232 C233 0.951 . S
C233 H232 0.951 . S
C233 C239 1.265 . S
H234 C239 0.950 . S
H235 C243 0.949 . S
H236 C244 0.950 . S
H237 C245 0.951 . S
H238 C246 0.951 . S
C239 C233 1.265 . S
C239 H234 0.950 . S
C239 C240 1.478 . S
C240 C239 1.478 . S
C240 C241 1.397 . S
C240 C257 1.394 . S
C241 C240 1.397 . S
C241 C242 1.438 . S
C241 C246 1.429 . S
C242 C241 1.438 . S
C242 C243 1.428 . S
C242 C255 1.394 . S
C243 H235 0.949 . S
C243 C242 1.428 . S
C243 C244 1.345 . S
C244 H236 0.950 . S
C244 C243 1.345 . S
C244 C245 1.424 . S
C245 H237 0.951 . S
C245 C244 1.424 . S
C245 C246 1.347 . S
C246 H238 0.951 . S
C246 C241 1.429 . S
C246 C245 1.347 . S
H247 C248 0.951 . S
C248 H247 0.951 . S
C248 C254 1.265 . S
H249 C254 0.950 . S
H250 C258 0.949 . S
H251 C259 0.950 . S
H252 C260 0.951 . S
H253 C261 0.951 . S
C254 C248 1.265 . S
C254 H249 0.950 . S
C254 C255 1.478 . S
C255 C242 1.394 . S
C255 C254 1.478 . S
C255 C256 1.397 . S
C256 C255 1.397 . S
C256 C257 1.438 . S
C256 C261 1.429 . S
C257 C240 1.394 . S
C257 C256 1.438 . S
C257 C258 1.428 . S
C258 H250 0.949 . S
C258 C257 1.428 . S
C258 C259 1.345 . S
C259 H251 0.950 . S
C259 C258 1.345 . S
C259 C260 1.424 . S
C260 H252 0.951 . S
C260 C259 1.424 . S
C260 C261 1.347 . S
C261 H253 0.951 . S
C261 C256 1.429 . S
C261 C260 1.347 . S
H262 C263 0.951 . S
C263 H262 0.951 . S
C263 C269 1.265 . S
H264 C269 0.950 . S
H265 C273 0.949 . S
H266 C274 0.950 . S
H267 C275 0.951 . S
H268 C276 0.951 . S
C269 C263 1.265 . S
C269 H264 0.950 . S
C269 C270 1.478 . S
C270 C269 1.478 . S
C270 C271 1.397 . S
C270 C287 1.394 . S
C271 C270 1.397 . S
C271 C272 1.438 . S
C271 C276 1.429 . S
C272 C271 1.438 . S
C272 C273 1.428 . S
C272 C285 1.394 . S
C273 H265 0.949 . S
C273 C272 1.428 . S
C273 C274 1.345 . S
C274 H266 0.950 . S
C274 C273 1.345 . S
C274 C275 1.424 . S
C275 H267 0.951 . S
C275 C274 1.424 . S
C275 C276 1.347 . S
C276 H268 0.951 . S
C276 C271 1.429 . S
C276 C275 1.347 . S
H277 C278 0.951 . S
C278 H277 0.951 . S
C278 C284 1.265 . S
H279 C284 0.950 . S
H280 C288 0.949 . S
H281 C289 0.950 . S
H282 C290 0.951 . S
H283 C291 0.951 . S
C284 C278 1.265 . S
C284 H279 0.950 . S
C284 C285 1.478 . S
C285 C272 1.394 . S
C285 C284 1.478 . S
C285 C286 1.397 . S
C286 C285 1.397 . S
C286 C287 1.438 . S
C286 C291 1.429 . S
C287 C270 1.394 . S
C287 C286 1.438 . S
C287 C288 1.428 . S
C288 H280 0.949 . S
C288 C287 1.428 . S
C288 C289 1.345 . S
C289 H281 0.950 . S
C289 C288 1.345 . S
C289 C290 1.424 . S
C290 H282 0.951 . S
C290 C289 1.424 . S
C290 C291 1.347 . S
C291 H283 0.951 . S
C291 C286 1.429 . S
C291 C290 1.347 . S
H292 C293 0.951 . S
C293 H292 0.951 . S
C293 C299 1.265 . S
H294 C299 0.950 . S
H295 C303 0.949 . S
H296 C304 0.950 . S
H297 C305 0.951 . S
H298 C306 0.951 . S
C299 C293 1.265 . S
C299 H294 0.950 . S
C299 C300 1.478 . S
C300 C299 1.478 . S
C300 C301 1.397 . S
C300 C317 1.394 . S
C301 C300 1.397 . S
C301 C302 1.438 . S
C301 C306 1.429 . S
C302 C301 1.438 . S
C302 C303 1.428 . S
C302 C315 1.394 . S
C303 H295 0.949 . S
C303 C302 1.428 . S
C303 C304 1.345 . S
C304 H296 0.950 . S
C304 C303 1.345 . S
C304 C305 1.424 . S
C305 H297 0.951 . S
C305 C304 1.424 . S
C305 C306 1.347 . S
C306 H298 0.951 . S
C306 C301 1.429 . S
C306 C305 1.347 . S
H307 C308 0.951 . S
C308 H307 0.951 . S
C308 C314 1.265 . S
H309 C314 0.950 . S
H310 C318 0.949 . S
H311 C319 0.950 . S
H312 C320 0.951 . S
H313 C321 0.951 . S
C314 C308 1.265 . S
C314 H309 0.950 . S
C314 C315 1.478 . S
C315 C302 1.394 . S
C315 C314 1.478 . S
C315 C316 1.397 . S
C316 C315 1.397 . S
C316 C317 1.438 . S
C316 C321 1.429 . S
C317 C300 1.394 . S
C317 C316 1.438 . S
C317 C318 1.428 . S
C318 H310 0.949 . S
C318 C317 1.428 . S
C318 C319 1.345 . S
C319 H311 0.950 . S
C319 C318 1.345 . S
C319 C320 1.424 . S
C320 H312 0.951 . S
C320 C319 1.424 . S
C320 C321 1.347 . S
C321 H313 0.951 . S
C321 C316 1.429 . S
C321 C320 1.347 . S
H322 C323 0.951 . S
C323 H322 0.951 . S
C323 C329 1.265 . S
H324 C329 0.950 . S
H325 C333 0.949 . S
H326 C334 0.950 . S
H327 C335 0.951 . S
H328 C336 0.951 . S
C329 C323 1.265 . S
C329 H324 0.950 . S
C329 C330 1.478 . S
C330 C329 1.478 . S
C330 C331 1.397 . S
C330 C347 1.394 . S
C331 C330 1.397 . S
C331 C332 1.438 . S
C331 C336 1.429 . S
C332 C331 1.438 . S
C332 C333 1.428 . S
C332 C345 1.394 . S
C333 H325 0.949 . S
C333 C332 1.428 . S
C333 C334 1.345 . S
C334 H326 0.950 . S
C334 C333 1.345 . S
C334 C335 1.424 . S
C335 H327 0.951 . S
C335 C334 1.424 . S
C335 C336 1.347 . S
C336 H328 0.951 . S
C336 C331 1.429 . S
C336 C335 1.347 . S
H337 C338 0.951 . S
C338 H337 0.951 . S
C338 C344 1.265 . S
H339 C344 0.950 . S
H340 C348 0.949 . S
H341 C349 0.950 . S
H342 C350 0.951 . S
H343 C351 0.951 . S
C344 C338 1.265 . S
C344 H339 0.950 . S
C344 C345 1.478 . S
C345 C332 1.394 . S
C345 C344 1.478 . S
C345 C346 1.397 . S
C346 C345 1.397 . S
C346 C347 1.438 . S
C346 C351 1.429 . S
C347 C330 1.394 . S
C347 C346 1.438 . S
C347 C348 1.428 . S
C348 H340 0.949 . S
C348 C347 1.428 . S
C348 C349 1.345 . S
C349 H341 0.950 . S
C349 C348 1.345 . S
C349 C350 1.424 . S
C350 H342 0.951 . S
C350 C349 1.424 . S
C350 C351 1.347 . S
C351 H343 0.951 . S
C351 C346 1.429 . S
C351 C350 1.347 . S
H352 C353 0.951 . S
C353 H352 0.951 . S
C353 C359 1.265 . S
H354 C359 0.947 1_556 S
H355 C363 0.949 . S
H356 C364 0.950 . S
H357 C365 0.951 . S
H358 C366 0.951 . S
C359 C353 1.265 . S
C359 H354 0.947 1_554 S
C359 C360 1.478 . S
C360 C359 1.478 . S
C360 C361 1.397 1_554 S
C360 C377 1.394 . S
C361 C360 1.397 1_556 S
C361 C362 1.438 . S
C361 C366 1.429 . S
C362 C361 1.438 . S
C362 C363 1.428 . S
C362 C375 1.394 . S
C363 H355 0.949 . S
C363 C362 1.428 . S
C363 C364 1.345 . S
C364 H356 0.950 . S
C364 C363 1.345 . S
C364 C365 1.424 . S
C365 H357 0.951 . S
C365 C364 1.424 . S
C365 C366 1.347 . S
C366 H358 0.951 . S
C366 C361 1.429 . S
C366 C365 1.347 . S
H367 C368 0.951 . S
C368 H367 0.951 . S
C368 C374 1.265 . S
H369 C374 0.947 1_554 S
H370 C378 0.949 . S
H371 C379 0.950 . S
H372 C380 0.951 . S
H373 C381 0.951 . S
C374 C368 1.265 . S
C374 H369 0.947 1_556 S
C374 C375 1.478 . S
C375 C362 1.394 . S
C375 C374 1.478 . S
C375 C376 1.397 1_556 S
C376 C375 1.397 1_554 S
C376 C377 1.438 . S
C376 C381 1.429 . S
C377 C360 1.394 . S
C377 C376 1.438 . S
C377 C378 1.428 . S
C378 H370 0.949 . S
C378 C377 1.428 . S
C378 C379 1.345 . S
C379 H371 0.950 . S
C379 C378 1.345 . S
C379 C380 1.424 . S
C380 H372 0.951 . S
C380 C379 1.424 . S
C380 C381 1.347 . S
C381 H373 0.951 . S
C381 C376 1.429 . S
C381 C380 1.347 . S
H382 C383 0.951 . S
C383 H382 0.951 . S
C383 C389 1.265 . S
H384 C389 0.950 . S
H385 C393 0.949 . S
H386 C394 0.950 . S
H387 C395 0.951 . S
H388 C396 0.951 . S
C389 C383 1.265 . S
C389 H384 0.950 . S
C389 C390 1.478 . S
C390 C389 1.478 . S
C390 C391 1.397 . S
C390 C407 1.394 1_554 S
C391 C390 1.397 . S
C391 C392 1.438 1_455 S
C391 C396 1.429 . S
C392 C391 1.438 1_655 S
C392 C393 1.428 . S
C392 C405 1.394 1_554 S
C393 H385 0.949 . S
C393 C392 1.428 . S
C393 C394 1.345 . S
C394 H386 0.950 . S
C394 C393 1.345 . S
C394 C395 1.424 1_655 S
C395 H387 0.951 . S
C395 C394 1.424 1_455 S
C395 C396 1.347 . S
C396 H388 0.951 . S
C396 C391 1.429 . S
C396 C395 1.347 . S
H397 C398 0.951 . S
C398 H397 0.951 . S
C398 C404 1.265 . S
H399 C404 0.950 . S
H400 C408 0.949 . S
H401 C409 0.950 . S
H402 C410 0.951 . S
H403 C411 0.951 . S
C404 C398 1.265 . S
C404 H399 0.950 . S
C404 C405 1.478 . S
C405 C392 1.394 1_556 S
C405 C404 1.478 . S
C405 C406 1.397 . S
C406 C405 1.397 . S
C406 C407 1.438 1_655 S
C406 C411 1.429 . S
C407 C390 1.394 1_556 S
C407 C406 1.438 1_455 S
C407 C408 1.428 . S
C408 H400 0.949 . S
C408 C407 1.428 . S
C408 C409 1.345 . S
C409 H401 0.950 . S
C409 C408 1.345 . S
C409 C410 1.424 1_455 S
C410 H402 0.951 . S
C410 C409 1.424 1_655 S
C410 C411 1.347 . S
C411 H403 0.951 . S
C411 C406 1.429 . S
C411 C410 1.347 . S
H412 C413 0.951 . S
C413 H412 0.951 . S
C413 C419 1.265 . S
H414 C419 0.950 . S
H415 C423 0.949 1_545 S
H416 C424 0.950 . S
H417 C425 0.951 . S
H418 C426 0.951 . S
C419 C413 1.265 . S
C419 H414 0.950 . S
C419 C420 1.478 . S
C420 C419 1.478 . S
C420 C421 1.397 . S
C420 C437 1.394 1_565 S
C421 C420 1.397 . S
C421 C422 1.438 . S
C421 C426 1.429 . S
C422 C421 1.438 . S
C422 C423 1.428 . S
C422 C435 1.394 1_565 S
C423 H415 0.949 1_565 S
C423 C422 1.428 . S
C423 C424 1.345 . S
C424 H416 0.950 . S
C424 C423 1.345 . S
C424 C425 1.424 . S
C425 H417 0.951 . S
C425 C424 1.424 . S
C425 C426 1.347 . S
C426 H418 0.951 . S
C426 C421 1.429 . S
C426 C425 1.347 . S
H427 C428 0.951 . S
C428 H427 0.951 . S
C428 C434 1.265 . S
H429 C434 0.950 . S
H430 C438 0.949 1_565 S
H431 C439 0.950 . S
H432 C440 0.951 . S
H433 C441 0.951 . S
C434 C428 1.265 . S
C434 H429 0.950 . S
C434 C435 1.478 . S
C435 C422 1.394 1_545 S
C435 C434 1.478 . S
C435 C436 1.397 . S
C436 C435 1.397 . S
C436 C437 1.438 . S
C436 C441 1.429 . S
C437 C420 1.394 1_545 S
C437 C436 1.438 . S
C437 C438 1.428 . S
C438 H430 0.949 1_545 S
C438 C437 1.428 . S
C438 C439 1.345 . S
C439 H431 0.950 . S
C439 C438 1.345 . S
C439 C440 1.424 . S
C440 H432 0.951 . S
C440 C439 1.424 . S
C440 C441 1.347 . S
C441 H433 0.951 . S
C441 C436 1.429 . S
C441 C440 1.347 . S
H442 C443 0.951 . S
C443 H442 0.951 . S
C443 C449 1.265 . S
H444 C449 0.950 . S
H445 C453 0.949 . S
H446 C454 0.950 . S
H447 C455 0.951 . S
H448 C456 0.951 . S
C449 C443 1.265 . S
C449 H444 0.950 . S
C449 C450 1.478 . S
C450 C449 1.478 . S
C450 C451 1.397 . S
C450 C467 1.394 . S
C451 C450 1.397 . S
C451 C452 1.438 1_645 S
C451 C456 1.429 . S
C452 C451 1.438 1_465 S
C452 C453 1.428 . S
C452 C465 1.394 . S
C453 H445 0.949 . S
C453 C452 1.428 . S
C453 C454 1.345 1_455 S
C454 H446 0.950 . S
C454 C453 1.345 1_655 S
C454 C455 1.424 1_565 S
C455 H447 0.951 . S
C455 C454 1.424 1_545 S
C455 C456 1.347 . S
C456 H448 0.951 . S
C456 C451 1.429 . S
C456 C455 1.347 . S
H457 C458 0.951 . S
C458 H457 0.951 . S
C458 C464 1.265 . S
H459 C464 0.950 . S
H460 C468 0.949 . S
H461 C469 0.950 . S
H462 C470 0.951 . S
H463 C471 0.951 . S
C464 C458 1.265 . S
C464 H459 0.950 . S
C464 C465 1.478 . S
C465 C452 1.394 . S
C465 C464 1.478 . S
C465 C466 1.397 . S
C466 C465 1.397 . S
C466 C467 1.438 1_465 S
C466 C471 1.429 . S
C467 C450 1.394 . S
C467 C466 1.438 1_645 S
C467 C468 1.428 . S
C468 H460 0.949 . S
C468 C467 1.428 . S
C468 C469 1.345 1_655 S
C469 H461 0.950 . S
C469 C468 1.345 1_455 S
C469 C470 1.424 1_545 S
C470 H462 0.951 . S
C470 C469 1.424 1_565 S
C470 C471 1.347 . S
C471 H463 0.951 . S
C471 C466 1.429 . S
C471 C470 1.347 . S
H472 C473 0.951 . S
C473 H472 0.951 . S
C473 C479 1.265 . S
H474 C479 0.950 . S
H475 C483 0.949 . S
H476 C484 0.950 . S
H477 C485 0.951 . S
H478 C486 0.951 . S
C479 C473 1.265 . S
C479 H474 0.950 . S
C479 C480 1.478 . S
C480 C479 1.478 . S
C480 C481 1.397 . S
C480 C497 1.394 . S
C481 C480 1.397 . S
C481 C482 1.438 . S
C481 C486 1.429 . S
C482 C481 1.438 . S
C482 C483 1.428 . S
C482 C495 1.394 . S
C483 H475 0.949 . S
C483 C482 1.428 . S
C483 C484 1.345 1_554 S
C484 H476 0.950 . S
C484 C483 1.345 1_556 S
C484 C485 1.424 . S
C485 H477 0.951 . S
C485 C484 1.424 . S
C485 C486 1.347 1_556 S
C486 H478 0.951 . S
C486 C481 1.429 . S
C486 C485 1.347 1_554 S
H487 C488 0.951 . S
C488 H487 0.951 . S
C488 C494 1.265 . S
H489 C494 0.950 . S
H490 C498 0.949 . S
H491 C499 0.950 . S
H492 C500 0.951 . S
H493 C501 0.951 . S
C494 C488 1.265 . S
C494 H489 0.950 . S
C494 C495 1.478 . S
C495 C482 1.394 . S
C495 C494 1.478 . S
C495 C496 1.397 . S
C496 C495 1.397 . S
C496 C497 1.438 . S
C496 C501 1.429 . S
C497 C480 1.394 . S
C497 C496 1.438 . S
C497 C498 1.428 . S
C498 H490 0.949 . S
C498 C497 1.428 . S
C498 C499 1.345 . S
C499 H491 0.950 . S
C499 C498 1.345 . S
C499 C500 1.424 . S
C500 H492 0.951 . S
C500 C499 1.424 . S
C500 C501 1.347 . S
C501 H493 0.951 . S
C501 C496 1.429 . S
C501 C500 1.347 . S
H502 C503 0.951 . S
C503 H502 0.951 . S
C503 C509 1.265 . S
H504 C509 0.950 . S
H505 C513 0.949 . S
H506 C514 0.950 . S
H507 C515 0.951 . S
H508 C516 0.951 1_545 S
C509 C503 1.265 . S
C509 H504 0.950 . S
C509 C510 1.478 . S
C510 C509 1.478 . S
C510 C511 1.397 1_545 S
C510 C527 1.394 . S
C511 C510 1.397 1_565 S
C511 C512 1.438 . S
C511 C516 1.429 . S
C512 C511 1.438 . S
C512 C513 1.428 . S
C512 C525 1.394 . S
C513 H505 0.949 . S
C513 C512 1.428 . S
C513 C514 1.345 . S
C514 H506 0.950 . S
C514 C513 1.345 . S
C514 C515 1.424 . S
C515 H507 0.951 . S
C515 C514 1.424 . S
C515 C516 1.347 . S
C516 H508 0.951 1_565 S
C516 C511 1.429 . S
C516 C515 1.347 . S
H517 C518 0.951 . S
C518 H517 0.951 . S
C518 C524 1.265 . S
H519 C524 0.950 . S
H520 C528 0.949 . S
H521 C529 0.950 . S
H522 C530 0.951 . S
H523 C531 0.951 1_565 S
C524 C518 1.265 . S
C524 H519 0.950 . S
C524 C525 1.478 . S
C525 C512 1.394 . S
C525 C524 1.478 . S
C525 C526 1.397 1_565 S
C526 C525 1.397 1_545 S
C526 C527 1.438 . S
C526 C531 1.429 . S
C527 C510 1.394 . S
C527 C526 1.438 . S
C527 C528 1.428 . S
C528 H520 0.949 . S
C528 C527 1.428 . S
C528 C529 1.345 . S
C529 H521 0.950 . S
C529 C528 1.345 . S
C529 C530 1.424 . S
C530 H522 0.951 . S
C530 C529 1.424 . S
C530 C531 1.347 . S
C531 H523 0.951 1_545 S
C531 C526 1.429 . S
C531 C530 1.347 . S
H532 C533 0.951 . S
C533 H532 0.951 . S
C533 C539 1.265 . S
H534 C539 0.950 . S
H535 C543 0.949 . S
H536 C544 0.950 . S
H537 C545 0.951 . S
H538 C546 0.955 . S
C539 C533 1.265 . S
C539 H534 0.950 . S
C539 C540 1.478 . S
C540 C539 1.478 . S
C540 C541 1.397 . S
C540 C557 1.394 . S
C541 C540 1.397 . S
C541 C542 1.438 . S
C541 C546 1.392 1_556 S
C542 C541 1.438 . S
C542 C543 1.428 . S
C542 C555 1.394 . S
C543 H535 0.949 . S
C543 C542 1.428 . S
C543 C544 1.345 1_556 S
C544 H536 0.950 . S
C544 C543 1.345 1_554 S
C544 C545 1.424 . S
C545 H537 0.951 . S
C545 C544 1.424 . S
C545 C546 1.381 . S
C546 H538 0.955 . S
C546 C541 1.392 1_554 S
C546 C545 1.381 . S
H547 C548 0.951 . S
C548 H547 0.951 . S
C548 C554 1.265 . S
H549 C554 0.950 . S
H550 C558 0.949 . S
H551 C559 0.950 . S
H552 C560 0.951 . S
H553 C561 0.951 . S
C554 C548 1.265 . S
C554 H549 0.950 . S
C554 C555 1.478 . S
C555 C542 1.394 . S
C555 C554 1.478 . S
C555 C556 1.397 . S
C556 C555 1.397 . S
C556 C557 1.438 . S
C556 C561 1.429 . S
C557 C540 1.394 . S
C557 C556 1.438 . S
C557 C558 1.428 . S
C558 H550 0.949 . S
C558 C557 1.428 . S
C558 C559 1.345 . S
C559 H551 0.950 . S
C559 C558 1.345 . S
C559 C560 1.424 . S
C560 H552 0.951 . S
C560 C559 1.424 . S
C560 C561 1.347 . S
C561 H553 0.951 . S
C561 C556 1.429 . S
C561 C560 1.347 . S
H562 C563 0.951 . S
C563 H562 0.951 . S
C563 C569 1.265 . S
H564 C569 0.950 . S
H565 C573 0.949 . S
H566 C574 0.950 . S
H567 C575 0.951 . S
H568 C576 0.951 . S
C569 C563 1.265 . S
C569 H564 0.950 . S
C569 C570 1.478 . S
C570 C569 1.478 . S
C570 C571 1.397 1_565 S
C570 C587 1.394 . S
C571 C570 1.397 1_545 S
C571 C572 1.438 . S
C571 C576 1.429 . S
C572 C571 1.438 . S
C572 C573 1.428 . S
C572 C585 1.394 . S
C573 H565 0.949 . S
C573 C572 1.428 . S
C573 C574 1.345 . S
C574 H566 0.950 . S
C574 C573 1.345 . S
C574 C575 1.424 . S
C575 H567 0.951 . S
C575 C574 1.424 . S
C575 C576 1.347 . S
C576 H568 0.951 . S
C576 C571 1.429 . S
C576 C575 1.347 . S
H577 C578 0.951 . S
C578 H577 0.951 . S
C578 C584 1.265 . S
H579 C584 0.950 . S
H580 C588 0.949 . S
H581 C589 0.950 . S
H582 C590 0.951 . S
H583 C591 0.951 . S
C584 C578 1.265 . S
C584 H579 0.950 . S
C584 C585 1.478 . S
C585 C572 1.394 . S
C585 C584 1.478 . S
C585 C586 1.397 1_545 S
C586 C585 1.397 1_565 S
C586 C587 1.438 . S
C586 C591 1.429 . S
C587 C570 1.394 . S
C587 C586 1.438 . S
C587 C588 1.428 . S
C588 H580 0.949 . S
C588 C587 1.428 . S
C588 C589 1.345 . S
C589 H581 0.950 . S
C589 C588 1.345 . S
C589 C590 1.424 . S
C590 H582 0.951 . S
C590 C589 1.424 . S
C590 C591 1.347 . S
C591 H583 0.951 . S
C591 C586 1.429 . S
C591 C590 1.347 . S
C113 C9 1.642 . S
C128 C23 1.616 . S
C143 C51 1.565 . S
C158 C37 1.625 . S
C173 C65 1.633 . S
C188 C79 1.628 . S
C203 C93 1.588 . S
C218 C107 1.587 . S
C233 C7 1.637 . S
C248 C35 1.731 . S
C263 C49 1.734 . S
C278 C21 1.641 . S
C293 C63 1.733 . S
C308 C91 1.640 . S
C323 C105 1.735 . S
C338 C77 1.641 . S
C353 C6 1.258 . S
C368 C62 1.258 . S
C383 C20 1.278 . S
C398 C76 1.278 . S
C413 C90 1.287 . S
C428 C34 1.287 . S
C443 C104 1.287 . S
C458 C48 1.287 . S
C473 C22 1.363 . S
C488 C8 1.362 . S
C503 C36 1.363 . S
C518 C50 1.362 . S
C533 C64 1.329 . S
C548 C78 1.330 . S
C563 C92 1.360 . S
C578 C106 1.363 . S
