# Generated by pormake.
# Topology snp, (6)-cn, num edge types: 1
# Building blocks:
#     Node 0, Type 0, BuildingBlock: FUNLAD_clean_sbu_0, # of connection points: 6
#     Node 1, Type 0, BuildingBlock: FUNLAD_clean_sbu_0, # of connection points: 6
#     Node 2, Type 0, BuildingBlock: FUNLAD_clean_sbu_0, # of connection points: 6
#     Node 3, Type 0, BuildingBlock: FUNLAD_clean_sbu_0, # of connection points: 6
#     Edge 4, Type (0, 0), BuildingBlock: FUNLAD_clean_linker_0, # of connection points: 2
#     Edge 5, Type (0, 0), BuildingBlock: FUNLAD_clean_linker_0, # of connection points: 2
#     Edge 6, Type (0, 0), BuildingBlock: FUNLAD_clean_linker_0, # of connection points: 2
#     Edge 7, Type (0, 0), BuildingBlock: FUNLAD_clean_linker_0, # of connection points: 2
#     Edge 8, Type (0, 0), BuildingBlock: FUNLAD_clean_linker_0, # of connection points: 2
#     Edge 9, Type (0, 0), BuildingBlock: FUNLAD_clean_linker_0, # of connection points: 2
#     Edge 10, Type (0, 0), BuildingBlock: FUNLAD_clean_linker_0, # of connection points: 2
#     Edge 11, Type (0, 0), BuildingBlock: FUNLAD_clean_linker_0, # of connection points: 2
#     Edge 12, Type (0, 0), BuildingBlock: FUNLAD_clean_linker_0, # of connection points: 2
#     Edge 13, Type (0, 0), BuildingBlock: FUNLAD_clean_linker_0, # of connection points: 2
#     Edge 14, Type (0, 0), BuildingBlock: FUNLAD_clean_linker_0, # of connection points: 2
#     Edge 15, Type (0, 0), BuildingBlock: FUNLAD_clean_linker_0, # of connection points: 2
# Relax obj value: 1.164
# Max RMSD: 0.253
# Mean RMSD: 0.253
data_MOF--net-snp--node1-FUNLAD_clean_sbu_0--edge1-FUNLAD_clean_linker_0
_symmetry_space_group_name_H-M    P1
_symmetry_Int_Tables_number       1
_symmetry_cell_setting            triclinic
loop_
_symmetry_equiv_pos_as_xyz
'x, y, z'
_cell_length_a     39.079687
_cell_length_b     39.14691
_cell_length_c     25.691226
_cell_angle_alpha  91.228958
_cell_angle_beta   89.832726
_cell_angle_gamma 89.944114
loop_
_atom_site_label
_atom_site_type_symbol
_atom_site_fract_x
_atom_site_fract_y
_atom_site_fract_z
_atom_type_partial_charge
C0 C 0.24851 0.01944 0.90936 0.0
N1 N 0.33381 0.05811 0.99521 0.0
C2 C 0.34873 0.02666 0.99329 0.0
C3 C 0.38443 0.02338 0.99302 0.0
C4 C 0.40523 0.05271 0.99468 0.0
C5 C 0.38905 0.08484 0.99638 0.0
C6 C 0.35326 0.08696 0.99666 0.0
Zn7 Zn 0.28097 0.06222 0.99636 0.0
C8 C 0.25499 0.11786 0.92572 0.0
N9 N 0.17197 0.0705 0.99568 0.0
C10 C 0.15617 0.04259 0.01514 0.0
C11 C 0.163 0.10237 0.0131 0.0
C12 C 0.14805 0.1063 0.06218 0.0
C13 C 0.14034 0.07699 0.09048 0.0
C14 C 0.14091 0.04509 0.06423 0.0
Zn15 Zn 0.22439 0.06551 0.99061 0.0
O16 O 0.27657 0.02434 0.93374 0.0
C17 C 0.2472 1.00873 0.0595 0.0
O18 O 0.22166 0.03536 0.9238 0.0
H19 H 0.17434 0.1246 0.9958 0.0
H20 H 0.3329 1.00401 0.99195 0.0
H21 H 0.16168 0.0175 0.99868 0.0
O22 O 0.27698 0.02149 0.05386 0.0
O23 O 0.22236 0.0218 0.03556 0.0
H24 H 0.34098 0.11173 0.99831 0.0
O25 O 0.22767 0.09526 0.05877 0.0
O26 O 0.28343 0.10022 0.05982 0.0
O27 O 0.22694 0.1085 0.94554 0.0
O28 O 0.2826 0.10248 0.93779 0.0
C29 C 0.25434 0.10753 0.07956 0.0
H30 H 0.39559 0.99806 0.99093 0.0
H31 H 0.40387 0.10819 0.99836 0.0
H32 H 0.14722 0.13157 0.08013 0.0
H33 H 0.13335 0.02198 0.08363 0.0
C34 C 0.08266 0.23833 0.41742 0.0
N35 N 0.05542 0.32021 0.52096 0.0
C36 C 0.08642 0.33494 0.51207 0.0
C37 C 0.08976 0.3707 0.51276 0.0
C38 C 0.0609 0.39147 0.5225 0.0
C39 C 0.02969 0.37536 0.53367 0.0
C40 C 0.02748 0.33978 0.5324 0.0
Zn41 Zn 0.0467 0.26831 0.51042 0.0
C42 C 0.98506 0.25516 0.44541 0.0
N43 N 0.02153 0.16241 0.48492 0.0
C44 C 0.03877 0.14369 0.44801 0.0
C45 C 0.98845 0.15466 0.49718 0.0
C46 C 0.97016 0.13092 0.46726 0.0
C47 C 0.98594 0.1152 0.42412 0.0
C48 C 0.02121 0.12 0.41659 0.0
Zn49 Zn 0.03617 0.21233 0.50078 0.0
O50 O 0.08108 0.2663 0.44363 0.0
C51 C 0.09723 0.22285 0.56643 0.0
O52 O 0.06544 0.21284 0.4321 0.0
H53 H 0.97444 0.16984 0.52551 0.0
H54 H 0.10833 0.31905 0.50268 0.0
H55 H 0.06508 0.14965 0.43888 0.0
O56 O 0.08889 0.25415 0.56035 0.0
O57 O 0.07979 0.19931 0.54393 0.0
H58 H 1.00297 0.32781 0.5389 0.0
O59 O 1.0073 0.21296 0.56848 0.0
O60 O 0.01246 0.26851 0.57814 0.0
O61 O 0.99315 0.22548 0.45908 0.0
O62 O 1.00379 0.28031 0.45917 0.0
C63 C 0.99994 0.24031 0.59312 0.0
H64 H 0.11433 0.38189 0.50369 0.0
H65 H 1.00687 0.39013 0.54247 0.0
H66 H 0.94301 0.12785 0.47436 0.0
H67 H 0.03439 0.10754 0.38433 0.0
C68 C 0.89094 0.10031 0.96749 0.0
N69 N 0.79713 0.05141 0.00928 0.0
C70 C 0.78099 0.08214 0.00632 0.0
C71 C 0.74552 0.08382 0.99923 0.0
C72 C 0.72618 0.05358 0.99522 0.0
C73 C 0.74369 0.0222 0.99711 0.0
C74 C 0.77924 0.0217 0.00414 0.0
Zn75 Zn 0.84865 0.05029 0.02815 0.0
C76 C 0.88955 0.99999 0.95973 0.0
N77 N 0.95447 0.04785 0.07112 0.0
C78 C 0.96952 0.07879 0.07973 0.0
C79 C 0.9678 0.01901 0.09174 0.0
C80 C 0.9944 0.02128 0.12783 0.0
C81 C 1.00804 0.05345 0.14169 0.0
C82 C 0.99674 0.08208 0.11445 0.0
Zn83 Zn 0.9046 0.04769 0.04614 0.0
O84 O 0.86015 0.09009 0.97307 0.0
C85 C 0.86637 0.09879 0.11382 0.0
O86 O 0.91454 0.0865 0.99365 0.0
H87 H 0.95577 0.99455 0.08422 0.0
H88 H 0.79552 0.10551 0.0109 0.0
H89 H 0.9585 0.10154 0.06354 0.0
O90 O 0.84012 0.08961 0.08789 0.0
O91 O 0.89476 0.08434 0.10423 0.0
H92 H 0.79244 0.9975 0.00664 0.0
O93 O 0.89419 1.00886 0.09758 0.0
O94 O 0.8389 0.0096 0.08385 0.0
O95 O 0.91422 0.01093 0.98765 0.0
O96 O 0.85941 0.01175 0.96794 0.0
C97 C 0.86479 0.99688 0.10644 0.0
H98 H 0.73328 0.10863 0.99867 0.0
H99 H 0.73004 0.99821 0.99348 0.0
H100 H 1.00205 0.99838 0.14759 0.0
H101 H 1.0072 0.10725 0.12236 0.0
C102 C 0.10679 0.86384 0.40852 0.0
N103 N 0.05095 0.94198 0.48412 0.0
C104 C 0.0677 0.95696 0.44405 0.0
C105 C 0.04903 0.97434 0.40668 0.0
C106 C 0.01347 0.97784 0.41313 0.0
C107 C 0.99899 0.96968 0.46124 0.0
C108 C 0.01845 0.95179 0.49677 0.0
Zn109 Zn 0.06029 0.89052 0.49333 0.0
C110 C 1.00613 0.85354 0.43162 0.0
N111 N 0.07212 0.78139 0.50056 0.0
C112 C 0.10363 0.76656 0.49771 0.0
C113 C 0.0435 0.76206 0.50661 0.0
C114 C 0.04583 0.7265 0.50951 0.0
C115 C 0.07795 0.71037 0.50631 0.0
C116 C 0.10714 0.731 0.50064 0.0
Zn117 Zn 0.06633 0.83371 0.49499 0.0
O118 O 0.09116 0.88966 0.42706 0.0
C119 C 0.11983 0.87389 0.55561 0.0
O120 O 0.10146 0.83469 0.42821 0.0
H121 H 0.01869 0.77425 0.50909 0.0
H122 H 0.09425 0.95101 0.43626 0.0
H123 H 0.12608 0.78231 0.4928 0.0
O124 O 0.10354 0.89901 0.53728 0.0
O125 O 0.10952 0.84337 0.54655 0.0
H126 H 1.00546 0.9413 0.52982 0.0
O127 O 0.03194 0.83437 0.56295 0.0
O128 O 0.03053 0.89027 0.56009 0.0
O129 O 0.02265 0.82653 0.44243 0.0
O130 O 0.01671 0.88208 0.44882 0.0
C131 C 0.02131 0.86297 0.58151 0.0
H132 H 0.06167 0.98144 0.37095 0.0
H133 H 0.97204 0.97384 0.46911 0.0
H134 H 0.02264 0.71182 0.5147 0.0
H135 H 0.13241 0.71975 0.49749 0.0
C136 C 0.02727 0.08676 0.22112 0.0
C137 C 0.03052 0.05764 0.18816 0.0
C138 C 0.04601 0.08965 0.26716 0.0
C139 C 0.06854 0.06369 0.28115 0.0
C140 C 0.07184 0.03449 0.24886 0.0
C141 C 0.05314 0.03153 0.20271 0.0
C142 C 0.09352 0.07014 0.32341 0.0
C143 C 0.12589 0.07923 0.31222 0.0
C144 C 0.1366 0.08306 0.2575 0.0
C145 C 0.12198 0.10904 0.228 0.0
C146 C 0.12263 0.10698 0.17375 0.0
C147 C 0.13833 0.07904 0.14811 0.0
H148 H 0.1651 0.03576 0.25446 0.0
C149 C 0.15489 0.0542 0.17802 0.0
C150 C 0.15405 0.05624 0.23229 0.0
H151 H 0.16846 0.03304 0.15956 0.0
H152 H 0.00984 0.10724 0.212 0.0
H153 H 0.04419 0.11291 0.29054 0.0
H154 H 0.08984 0.01455 0.2585 0.0
H155 H 0.05678 0.00897 0.17822 0.0
H156 H 0.0855 0.06784 0.36366 0.0
H157 H 0.14447 0.08256 0.34322 0.0
H158 H 0.10794 0.12961 0.24706 0.0
H159 H 0.1099 0.12667 0.15205 0.0
C160 C 1.00122 1.00864 0.33075 0.0
C161 C 0.99111 0.98528 0.36831 0.0
C162 C 0.97982 0.01561 0.28904 0.0
C163 C 0.94754 1.00021 0.28505 0.0
C164 C 0.93815 0.97529 0.32048 0.0
C165 C 0.95983 0.96781 0.36177 0.0
C166 C 0.92115 0.0155 0.25183 0.0
C167 C 0.9096 0.04745 0.26142 0.0
C168 C 0.92411 0.06894 0.30408 0.0
C169 C 0.94828 0.09395 0.29213 0.0
C170 C 0.96827 0.10884 0.33132 0.0
C171 C 0.96469 0.09873 0.38318 0.0
H172 H 0.90097 0.0403 0.36613 0.0
C173 C 0.93932 0.07482 0.39559 0.0
C174 C 0.91918 0.05999 0.35626 0.0
H175 H 0.93574 0.06695 0.4354 0.0
H176 H 0.0249 0.02258 0.33497 0.0
H177 H 0.98707 0.03508 0.26218 0.0
H178 H 0.91322 0.96331 0.31822 0.0
H179 H 0.95172 0.94888 0.38924 0.0
H180 H 0.91017 1.00029 0.22046 0.0
H181 H 0.89032 0.05806 0.23614 0.0
H182 H 0.95323 0.1005 0.25217 0.0
H183 H 0.98674 0.12817 0.321 0.0
C184 C 0.66723 0.03182 0.01788 0.0
C185 C 0.68801 0.05488 0.9908 0.0
C186 C 0.63143 0.03392 0.01554 0.0
C187 C 0.61533 0.05909 0.98567 0.0
C188 C 0.63616 0.08197 0.95848 0.0
C189 C 0.67192 0.07989 0.96087 0.0
C190 C 0.57723 0.06344 0.9832 0.0
C191 C 0.55421 0.03964 0.99776 0.0
C192 C 0.51611 0.04419 0.99618 0.0
C193 C 0.49548 0.02125 0.02361 0.0
C194 C 0.45974 0.02403 0.0232 0.0
C195 C 0.44344 0.0498 0.99506 0.0
H196 H 0.51429 0.08762 0.94464 0.0
C197 C 0.464 0.07268 0.96726 0.0
C198 C 0.4998 0.06989 0.96763 0.0
H199 H 0.4524 0.09246 0.94432 0.0
H200 H 0.67863 0.01265 0.04219 0.0
H201 H 0.61676 0.01627 0.03839 0.0
H202 H 0.62473 0.1017 0.93521 0.0
H203 H 0.68696 0.09788 0.93902 0.0
H204 H 0.56813 0.08757 0.9686 0.0
H205 H 0.56335 0.01549 0.01224 0.0
H206 H 0.50706 1.00112 0.04588 0.0
H207 H 0.4449 1.00617 0.04561 0.0
C208 C 0.09066 0.4484 0.53752 0.0
C209 C 0.06248 0.42952 0.51866 0.0
C210 C 0.09119 0.48423 0.53475 0.0
C211 C 0.06354 0.50202 0.51269 0.0
C212 C 0.0357 0.48297 0.49342 0.0
C213 C 0.03521 0.44737 0.49613 0.0
C214 C 0.06164 0.54014 0.5098 0.0
C215 C 0.08805 0.56191 0.51777 0.0
C216 C 0.08491 0.59993 0.5139 0.0
C217 C 0.10936 0.62096 0.53867 0.0
C218 C 0.1073 0.65666 0.53611 0.0
C219 C 0.08074 0.67232 0.50844 0.0
H220 H 0.04014 0.60071 0.46364 0.0
C221 C 0.05666 0.65129 0.48279 0.0
C222 C 0.05877 0.61565 0.48521 0.0
H223 H 0.03637 0.66238 0.46 0.0
H224 H 0.11198 0.43556 0.55552 0.0
H225 H 0.11298 0.49766 0.55089 0.0
H226 H 0.01406 0.49569 0.47601 0.0
H227 H 0.01337 0.43381 0.48012 0.0
H228 H 0.03675 0.55059 0.50048 0.0
H229 H 0.11291 0.55194 0.52835 0.0
H230 H 0.12998 0.60974 0.56067 0.0
H231 H 0.12621 0.67199 0.55659 0.0
C232 C 0.13948 0.2423 0.37145 0.0
C233 C 0.10449 0.23398 0.37067 0.0
C234 C 0.16131 0.23066 0.33108 0.0
C235 C 0.14818 0.21103 0.28898 0.0
C236 C 0.11273 0.20517 0.2869 0.0
C237 C 0.09129 0.21605 0.32743 0.0
C238 C 0.16996 0.19291 0.24924 0.0
C239 C 0.2042 0.19575 0.24322 0.0
C240 C 0.22267 0.17218 0.20636 0.0
C241 C 0.24699 0.18442 0.17079 0.0
C242 C 0.26032 0.16264 0.1313 0.0
C243 C 0.24972 0.12838 0.12762 0.0
H244 H 0.19688 0.12677 0.23292 0.0
C245 C 0.22774 0.11572 0.16592 0.0
C246 C 0.21453 0.13724 0.20492 0.0
H247 H 0.21934 0.08936 0.16401 0.0
H248 H 0.15032 0.25572 0.40482 0.0
H249 H 0.18841 0.23572 0.33441 0.0
H250 H 0.10164 0.19065 0.25481 0.0
H251 H 0.06442 0.20926 0.3259 0.0
H252 H 0.15675 0.17475 0.22378 0.0
H253 H 0.2186 0.21524 0.26425 0.0
H254 H 0.254 0.21118 0.17154 0.0
H255 H 0.27688 0.1731 0.10176 0.0
C256 C 0.98339 0.2524 0.68639 0.0
C257 C 0.97588 0.23804 0.63725 0.0
C258 C 0.964 0.24322 0.73009 0.0
C259 C 0.93671 0.21976 0.7249 0.0
C260 C 0.92768 0.20796 0.6749 0.0
C261 C 0.94725 0.21665 0.63172 0.0
C262 C 0.91868 0.20467 0.77018 0.0
C263 C 0.93401 0.19982 0.81637 0.0
C264 C 0.92057 0.17667 0.85716 0.0
C265 C 0.94377 0.16449 0.89397 0.0
C266 C 0.9338 0.14029 0.93005 0.0
C267 C 0.90012 0.12765 0.93076 0.0
H268 H 0.86729 0.17451 0.83256 0.0
C269 C 0.87629 0.14084 0.89555 0.0
C270 C 0.88636 0.16515 0.8591 0.0
H271 H 0.85005 0.13195 0.89551 0.0
H272 H 1.00538 0.26894 0.69153 0.0
H273 H 0.97107 0.25371 0.76784 0.0
H274 H 0.90663 0.19024 0.66949 0.0
H275 H 0.94079 0.20546 0.59407 0.0
H276 H 0.89412 0.19278 0.76237 0.0
H277 H 0.95966 0.20979 0.82227 0.0
H278 H 0.97017 0.17296 0.89392 0.0
H279 H 0.95283 0.1311 0.95697 0.0
C280 C 0.97473 0.84025 0.34843 0.0
C281 C 0.97482 0.85364 0.39951 0.0
C282 C 0.94871 0.84946 0.31366 0.0
C283 C 0.92237 0.8722 0.32965 0.0
C284 C 0.92105 0.8827 0.38219 0.0
C285 C 0.94714 0.87395 0.41645 0.0
C286 C 0.89764 0.8882 0.29293 0.0
C287 C 0.9035 0.89091 0.24139 0.0
C288 C 0.88443 0.91405 0.20589 0.0
C289 C 0.89203 0.91164 0.15249 0.0
C290 C 0.8817 0.93711 0.11875 0.0
C291 C 0.86319 0.96559 0.13731 0.0
H292 H 0.85674 0.94442 0.26445 0.0
C293 C 0.85251 0.96666 0.1895 0.0
C294 C 0.86312 0.94113 0.22371 0.0
H295 H 0.83898 0.98882 0.20499 0.0
H296 H 0.99593 0.82477 0.33434 0.0
H297 H 0.95017 0.83964 0.27407 0.0
H298 H 0.90106 0.89984 0.39605 0.0
H299 H 0.94673 0.8848 0.45562 0.0
H300 H 0.87581 0.90132 0.3102 0.0
H301 H 0.9254 0.87776 0.22436 0.0
H302 H 0.90816 0.89119 0.13729 0.0
H303 H 0.89064 0.93596 0.07875 0.0
C304 C 0.15589 0.86576 0.63503 0.0
C305 C 0.15047 0.8813 0.58704 0.0
C306 C 0.18037 0.87915 0.66975 0.0
C307 C 0.19999 0.90794 0.65631 0.0
C308 C 0.1965 0.92109 0.60623 0.0
C309 C 0.17188 0.90811 0.57216 0.0
C310 C 0.21961 0.92881 0.69495 0.0
C311 C 0.22593 0.9201 0.7444 0.0
C312 C 0.23489 0.94664 0.78417 0.0
C313 C 0.25797 0.93963 0.82437 0.0
C314 C 0.26409 0.96406 0.86406 0.0
C315 C 0.24626 0.99526 0.8648 0.0
H316 H 0.19931 0.98426 0.75481 0.0
C317 C 0.22345 1.00226 0.82438 0.0
C318 C 0.21796 0.97837 0.78441 0.0
H319 H 0.20928 0.02608 0.82418 0.0
H320 H 0.1395 0.84512 0.64729 0.0
H321 H 0.18202 0.8683 0.708 0.0
H322 H 0.21128 0.94308 0.59458 0.0
H323 H 0.16835 0.92029 0.53505 0.0
H324 H 0.22636 0.95454 0.68343 0.0
H325 H 0.22237 0.89408 0.75702 0.0
H326 H 0.27096 0.91519 0.82532 0.0
H327 H 0.28151 0.95798 0.89526 0.0
C328 C 0.92909 0.95952 0.91216 0.0
C329 C 0.89662 0.97493 0.91672 0.0
C330 C 0.93728 0.9384 0.86929 0.0
C331 C 0.91313 0.93205 0.82971 0.0
C332 C 0.88034 0.94661 0.83509 0.0
C333 C 0.87207 0.96761 0.87823 0.0
C334 C 0.92247 0.91402 0.77982 0.0
C335 C 0.94976 0.893 0.77373 0.0
C336 C 0.96335 0.88161 0.72175 0.0
C337 C 0.98537 0.85311 0.71783 0.0
C338 C 1.00263 0.84511 0.67101 0.0
C339 C 0.99863 0.86596 0.62767 0.0
H340 H 0.94214 0.92378 0.67837 0.0
C341 C 0.97547 0.89341 0.63094 0.0
C342 C 0.95807 0.90116 0.67717 0.0
H343 H 0.9718 0.90992 0.5981 0.0
H344 H 0.94866 0.96453 0.9411 0.0
H345 H 0.96308 0.92851 0.86634 0.0
H346 H 0.86128 0.94247 0.80508 0.0
H347 H 0.84684 0.97905 0.88044 0.0
H348 H 0.90665 0.91941 0.74631 0.0
H349 H 0.9637 0.88483 0.80777 0.0
H350 H 0.99018 0.83774 0.7516 0.0
H351 H 0.02056 0.82399 0.66972 0.0
C352 C 0.2579 0.97379 0.13984 0.0
C353 C 0.23962 0.97962 0.09387 0.0
C354 C 0.24604 0.94969 0.17565 0.0
C355 C 0.21574 0.93091 0.16582 0.0
C356 C 0.19903 0.93541 0.11823 0.0
C357 C 0.21059 0.95949 0.08305 0.0
C358 C 0.19921 0.90788 0.20435 0.0
C359 C 0.2045 0.91006 0.25617 0.0
C360 C 0.18196 0.89359 0.29566 0.0
C361 C 0.18074 0.90855 0.34572 0.0
C362 C 0.15731 0.89733 0.3826 0.0
C363 C 0.13475 0.87032 0.37103 0.0
H364 H 0.16131 0.85227 0.24709 0.0
C365 C 0.13719 0.85357 0.3223 0.0
C366 C 0.16057 0.86519 0.28471 0.0
H367 H 0.12004 0.83272 0.31245 0.0
H368 H 0.28035 0.98889 0.14923 0.0
H369 H 0.26036 0.9464 0.21114 0.0
H370 H 0.17592 0.92126 0.10903 0.0
H371 H 0.19601 0.96307 0.04776 0.0
H372 H 0.1788 0.89153 0.18981 0.0
H373 H 0.22335 0.92807 0.27104 0.0
H374 H 0.19694 0.93015 0.35575 0.0
H375 H 0.15609 0.9106 0.42004 0.0
C376 C 0.14269 0.23786 0.63286 0.0
C377 C 0.12615 0.21338 0.6009 0.0
C378 C 0.16825 0.22804 0.66787 0.0
C379 C 0.17784 0.19342 0.67166 0.0
C380 C 0.16221 0.16934 0.63814 0.0
C381 C 0.13665 0.17909 0.6035 0.0
C382 C 0.20294 0.18079 0.71074 0.0
C383 C 0.21113 0.19773 0.75533 0.0
C384 C 0.22939 0.18116 0.79913 0.0
C385 C 0.22058 0.19102 0.85029 0.0
C386 C 0.23196 0.17216 0.89246 0.0
C387 C 0.25322 0.14357 0.8846 0.0
H388 H 0.26121 0.14651 0.75274 0.0
C389 C 0.26493 0.13563 0.83404 0.0
C390 C 0.25302 0.15421 0.79153 0.0
H391 H 0.28092 0.1134 0.82688 0.0
H392 H 0.13545 0.26454 0.63157 0.0
H393 H 0.18022 0.24765 0.69183 0.0
H394 H 0.16911 0.14257 0.63968 0.0
H395 H 0.12478 0.15952 0.57923 0.0
H396 H 0.21195 0.15471 0.70515 0.0
H397 H 0.20005 0.22272 0.76335 0.0
H398 H 0.20278 0.21185 0.85749 0.0
H399 H 0.22228 0.17858 0.93103 0.0
C400 C 0.89167 0.12772 0.19116 0.0
C401 C 0.86578 0.12688 0.15344 0.0
C402 C 0.89511 0.15542 0.22551 0.0
C403 C 0.87334 0.18373 0.22222 0.0
C404 C 0.8473 0.18336 0.1845 0.0
C405 C 0.84312 0.15477 0.15083 0.0
C406 C 0.88041 0.21415 0.25597 0.0
C407 C 0.88438 0.21047 0.30758 0.0
C408 C 0.90416 0.234 0.34235 0.0
C409 C 0.89923 0.23142 0.39623 0.0
C410 C 0.92402 0.24341 0.43106 0.0
C411 C 0.95434 0.25822 0.41278 0.0
H412 H 0.93766 0.25433 0.28294 0.0
C413 C 0.95769 0.26435 0.35936 0.0
C414 C 0.93269 0.25238 0.32424 0.0
H415 H 0.98127 0.27484 0.34422 0.0
H416 H 0.91014 0.10724 0.19288 0.0
H417 H 0.91593 0.15545 0.25326 0.0
H418 H 0.8305 0.20519 0.18085 0.0
H419 H 0.82339 0.15517 0.12134 0.0
H420 H 0.88648 0.23815 0.23768 0.0
H421 H 0.87595 0.18664 0.32452 0.0
H422 H 0.87768 0.21726 0.41128 0.0
H423 H 0.92116 0.23781 0.47199 0.0
loop_
_geom_bond_atom_site_label_1
_geom_bond_atom_site_label_2
_geom_bond_distance
_geom_bond_site_symmetry_2
_ccdc_geom_bond_type
C0 O16 1.251 . S
C0 O18 1.254 . S
N1 C2 1.333 1_554 S
N1 C6 1.307 . S
N1 Zn7 2.020 . S
C2 N1 1.333 1_556 S
C2 C3 1.379 . S
C2 H20 0.952 . S
C3 C2 1.379 . S
C3 C4 1.390 1_556 S
C3 H30 0.949 . S
C4 C3 1.390 1_554 S
C4 C5 1.357 . S
C5 C4 1.357 . S
C5 C6 1.370 . S
C5 H31 0.950 . S
C6 N1 1.307 . S
C6 C5 1.370 . S
C6 H24 0.948 . S
Zn7 N1 2.020 . S
Zn7 O16 2.039 1_554 S
Zn7 O22 2.034 . S
Zn7 O26 2.025 . S
Zn7 O28 2.024 1_554 S
C8 O27 1.246 . S
C8 O28 1.249 . S
N9 C10 1.307 1_554 S
N9 C11 1.333 . S
N9 Zn15 2.020 . S
C10 N9 1.307 1_556 S
C10 C14 1.370 . S
C10 H21 0.948 . S
C11 N9 1.333 . S
C11 C12 1.379 . S
C11 H19 0.952 . S
C12 C11 1.379 . S
C12 C13 1.390 . S
C12 H32 0.949 . S
C13 C12 1.390 . S
C13 C14 1.357 1_554 S
C14 C10 1.370 . S
C14 C13 1.357 1_556 S
C14 H33 0.950 . S
Zn15 N9 2.020 . S
Zn15 O18 2.025 1_554 S
Zn15 O23 2.024 . S
Zn15 O25 2.039 . S
Zn15 O27 2.034 1_554 S
O16 C0 1.251 . S
O16 Zn7 2.039 1_556 S
C17 O22 1.246 . S
C17 O23 1.249 . S
O18 C0 1.254 . S
O18 Zn15 2.025 1_556 S
H19 C11 0.952 . S
H20 C2 0.952 . S
H21 C10 0.948 . S
O22 Zn7 2.034 . S
O22 C17 1.246 . S
O23 Zn15 2.024 . S
O23 C17 1.249 . S
H24 C6 0.948 . S
O25 Zn15 2.039 . S
O25 C29 1.251 . S
O26 Zn7 2.025 . S
O26 C29 1.254 . S
O27 C8 1.246 . S
O27 Zn15 2.034 1_556 S
O28 Zn7 2.024 1_556 S
O28 C8 1.249 . S
C29 O25 1.251 . S
C29 O26 1.254 . S
H30 C3 0.949 . S
H31 C5 0.950 . S
H32 C12 0.949 . S
H33 C14 0.950 . S
C34 O50 1.251 . S
C34 O52 1.254 . S
N35 C36 1.333 . S
N35 C40 1.307 1_455 S
N35 Zn41 2.020 . S
C36 N35 1.333 . S
C36 C37 1.379 . S
C36 H54 0.952 . S
C37 C36 1.379 . S
C37 C38 1.390 . S
C37 H64 0.949 . S
C38 C37 1.390 . S
C38 C39 1.357 1_455 S
C39 C38 1.357 1_655 S
C39 C40 1.370 . S
C39 H65 0.950 . S
C40 N35 1.307 1_655 S
C40 C39 1.370 . S
C40 H58 0.948 . S
Zn41 N35 2.020 . S
Zn41 O50 2.039 . S
Zn41 O56 2.034 . S
Zn41 O60 2.025 1_455 S
Zn41 O62 2.024 1_455 S
C42 O61 1.246 . S
C42 O62 1.249 . S
N43 C44 1.307 . S
N43 C45 1.333 . S
N43 Zn49 2.020 . S
C44 N43 1.307 . S
C44 C48 1.370 . S
C44 H55 0.948 . S
C45 N43 1.333 . S
C45 C46 1.379 . S
C45 H53 0.952 1_455 S
C46 C45 1.379 . S
C46 C47 1.390 . S
C46 H66 0.949 1_455 S
C47 C46 1.390 . S
C47 C48 1.357 . S
C48 C44 1.370 . S
C48 C47 1.357 . S
C48 H67 0.950 . S
Zn49 N43 2.020 . S
Zn49 O52 2.025 . S
Zn49 O57 2.024 . S
Zn49 O59 2.039 1_455 S
Zn49 O61 2.034 1_455 S
O50 C34 1.251 . S
O50 Zn41 2.039 . S
C51 O56 1.246 . S
C51 O57 1.249 . S
O52 C34 1.254 . S
O52 Zn49 2.025 . S
H53 C45 0.952 1_655 S
H54 C36 0.952 . S
H55 C44 0.948 . S
O56 Zn41 2.034 . S
O56 C51 1.246 . S
O57 Zn49 2.024 . S
O57 C51 1.249 . S
H58 C40 0.948 . S
O59 Zn49 2.039 1_655 S
O59 C63 1.251 . S
O60 Zn41 2.025 1_655 S
O60 C63 1.254 . S
O61 C42 1.246 . S
O61 Zn49 2.034 1_655 S
O62 Zn41 2.024 1_655 S
O62 C42 1.249 . S
C63 O59 1.251 . S
C63 O60 1.254 . S
H64 C37 0.949 . S
H65 C39 0.950 . S
H66 C46 0.949 1_655 S
H67 C48 0.950 . S
C68 O84 1.251 . S
C68 O86 1.254 . S
N69 C70 1.333 1_554 S
N69 C74 1.307 1_545 S
N69 Zn75 2.020 . S
C70 N69 1.333 1_556 S
C70 C71 1.379 . S
C70 H88 0.952 . S
C71 C70 1.379 . S
C71 C72 1.390 1_556 S
C71 H98 0.949 . S
C72 C71 1.390 1_554 S
C72 C73 1.357 1_545 S
C73 C72 1.357 1_565 S
C73 C74 1.370 . S
C73 H99 0.950 . S
C74 N69 1.307 1_565 S
C74 C73 1.370 . S
C74 H92 0.948 . S
Zn75 N69 2.020 . S
Zn75 O84 2.039 1_554 S
Zn75 O90 2.034 . S
Zn75 O94 2.025 1_545 S
Zn75 O96 2.024 1_544 S
C76 O95 1.246 . S
C76 O96 1.249 . S
N77 C78 1.307 1_554 S
N77 C79 1.333 . S
N77 Zn83 2.020 . S
C78 N77 1.307 1_556 S
C78 C82 1.370 . S
C78 H89 0.948 . S
C79 N77 1.333 . S
C79 C80 1.379 . S
C79 H87 0.952 1_545 S
C80 C79 1.379 . S
C80 C81 1.405 . S
C80 H100 0.949 1_545 S
C81 C80 1.405 . S
C81 C82 1.371 1_554 S
C82 C78 1.370 . S
C82 C81 1.371 1_556 S
C82 H101 0.950 . S
Zn83 N77 2.020 . S
Zn83 O86 2.025 1_554 S
Zn83 O91 2.024 . S
Zn83 O93 2.039 1_545 S
Zn83 O95 2.034 1_544 S
O84 C68 1.251 . S
O84 Zn75 2.039 1_556 S
C85 O90 1.246 . S
C85 O91 1.249 . S
O86 C68 1.254 . S
O86 Zn83 2.025 1_556 S
H87 C79 0.952 1_565 S
H88 C70 0.952 . S
H89 C78 0.948 . S
O90 Zn75 2.034 . S
O90 C85 1.246 . S
O91 Zn83 2.024 . S
O91 C85 1.249 . S
H92 C74 0.948 . S
O93 Zn83 2.039 1_565 S
O93 C97 1.251 . S
O94 Zn75 2.025 1_565 S
O94 C97 1.254 . S
O95 C76 1.246 . S
O95 Zn83 2.034 1_566 S
O96 Zn75 2.024 1_566 S
O96 C76 1.249 . S
C97 O93 1.251 . S
C97 O94 1.254 . S
H98 C71 0.949 . S
H99 C73 0.950 . S
H100 C80 0.949 1_565 S
H101 C82 0.950 . S
C102 O118 1.251 . S
C102 O120 1.254 . S
N103 C104 1.333 . S
N103 C108 1.307 . S
N103 Zn109 2.020 . S
C104 N103 1.333 . S
C104 C105 1.379 . S
C104 H122 0.952 . S
C105 C104 1.379 . S
C105 C106 1.402 . S
C105 H132 0.949 . S
C106 C105 1.402 . S
C106 C107 1.368 . S
C107 C106 1.368 . S
C107 C108 1.370 . S
C107 H133 0.950 . S
C108 N103 1.307 . S
C108 C107 1.370 . S
C108 H126 0.948 . S
Zn109 N103 2.020 . S
Zn109 O118 2.039 . S
Zn109 O124 2.034 . S
Zn109 O128 2.025 . S
Zn109 O130 2.024 . S
C110 O129 1.246 . S
C110 O130 1.249 . S
N111 C112 1.307 . S
N111 C113 1.333 . S
N111 Zn117 2.020 . S
C112 N111 1.307 . S
C112 C116 1.370 . S
C112 H123 0.948 . S
C113 N111 1.333 . S
C113 C114 1.379 . S
C113 H121 0.952 . S
C114 C113 1.379 . S
C114 C115 1.390 . S
C114 H134 0.949 . S
C115 C114 1.390 . S
C115 C116 1.357 . S
C116 C112 1.370 . S
C116 C115 1.357 . S
C116 H135 0.950 . S
Zn117 N111 2.020 . S
Zn117 O120 2.025 . S
Zn117 O125 2.024 . S
Zn117 O127 2.039 . S
Zn117 O129 2.034 . S
O118 C102 1.251 . S
O118 Zn109 2.039 . S
C119 O124 1.246 . S
C119 O125 1.249 . S
O120 C102 1.254 . S
O120 Zn117 2.025 . S
H121 C113 0.952 . S
H122 C104 0.952 . S
H123 C112 0.948 . S
O124 Zn109 2.034 . S
O124 C119 1.246 . S
O125 Zn117 2.024 . S
O125 C119 1.249 . S
H126 C108 0.948 . S
O127 Zn117 2.039 . S
O127 C131 1.251 . S
O128 Zn109 2.025 . S
O128 C131 1.254 . S
O129 C110 1.246 . S
O129 Zn117 2.034 . S
O130 Zn109 2.024 . S
O130 C110 1.249 . S
C131 O127 1.251 . S
C131 O128 1.254 . S
H132 C105 0.949 . S
H133 C107 0.950 . S
H134 C114 0.949 . S
H135 C116 0.950 . S
C136 C137 1.386 1_545 S
C136 C138 1.383 . S
C136 H152 0.951 . S
C137 C136 1.386 1_565 S
C137 C141 1.383 . S
C138 C136 1.383 . S
C138 C139 1.402 1_655 S
C138 H153 0.951 . S
C139 C138 1.402 1_455 S
C139 C140 1.375 1_545 S
C139 C142 1.481 . S
C140 C139 1.375 1_565 S
C140 C141 1.367 1_455 S
C140 H154 0.951 . S
C141 C137 1.383 . S
C141 C140 1.367 1_655 S
C141 H155 0.950 . S
C142 C139 1.481 . S
C142 C143 1.297 . S
C142 H156 0.950 . S
C143 C142 1.297 . S
C143 C144 1.479 . S
C143 H157 0.950 . S
C144 C143 1.479 . S
C144 C145 1.375 . S
C144 C150 1.404 . S
C145 C144 1.375 . S
C145 C146 1.369 . S
C145 H158 0.950 . S
C146 C145 1.369 . S
C146 C147 1.392 . S
C146 H159 0.951 . S
C147 C146 1.392 . S
C147 C149 1.384 . S
H148 C150 0.949 . S
C149 C147 1.384 . S
C149 C150 1.385 . S
C149 H151 0.950 . S
C150 C144 1.404 . S
C150 H148 0.949 . S
C150 C149 1.385 . S
H151 C149 0.950 . S
H152 C136 0.951 . S
H153 C138 0.951 . S
H154 C140 0.951 . S
H155 C141 0.950 . S
H156 C142 0.950 . S
H157 C143 0.950 . S
H158 C145 0.950 . S
H159 C146 0.951 . S
C160 C161 1.386 . S
C160 C162 1.383 1_565 S
C160 H176 0.951 . S
C161 C160 1.386 . S
C161 C165 1.383 . S
C162 C160 1.383 1_545 S
C162 C163 1.402 1_545 S
C162 H177 0.951 . S
C163 C162 1.402 1_565 S
C163 C164 1.375 . S
C163 C166 1.481 1_565 S
C164 C163 1.375 . S
C164 C165 1.367 . S
C164 H178 0.951 . S
C165 C161 1.383 . S
C165 C164 1.367 . S
C165 H179 0.950 . S
C166 C163 1.481 1_545 S
C166 C167 1.297 . S
C166 H180 0.950 . S
C167 C166 1.297 . S
C167 C168 1.479 . S
C167 H181 0.950 . S
C168 C167 1.479 . S
C168 C169 1.375 . S
C168 C174 1.404 1_455 S
C169 C168 1.375 . S
C169 C170 1.369 . S
C169 H182 0.950 . S
C170 C169 1.369 . S
C170 C171 1.392 1_455 S
C170 H183 0.951 . S
C171 C170 1.392 1_655 S
C171 C173 1.384 . S
H172 C174 0.949 . S
C173 C171 1.384 . S
C173 C174 1.385 . S
C173 H175 0.950 . S
C174 C168 1.404 1_655 S
C174 H172 0.949 . S
C174 C173 1.385 . S
H175 C173 0.950 . S
H176 C160 0.951 . S
H177 C162 0.951 . S
H178 C164 0.951 . S
H179 C165 0.950 . S
H180 C166 0.950 . S
H181 C167 0.950 . S
H182 C169 0.950 . S
H183 C170 0.951 . S
C184 C185 1.386 1_554 S
C184 C186 1.383 . S
C184 H200 0.951 . S
C185 C184 1.386 1_556 S
C185 C189 1.383 . S
C186 C184 1.383 . S
C186 C187 1.402 1_554 S
C186 H201 0.951 . S
C187 C186 1.402 1_556 S
C187 C188 1.375 . S
C187 C190 1.481 . S
C188 C187 1.375 . S
C188 C189 1.367 . S
C188 H202 0.951 . S
C189 C185 1.383 . S
C189 C188 1.367 . S
C189 H203 0.950 . S
C190 C187 1.481 . S
C190 C191 1.297 1_556 S
C190 H204 0.950 . S
C191 C190 1.297 1_554 S
C191 C192 1.479 . S
C191 H205 0.950 . S
C192 C191 1.479 . S
C192 C193 1.375 . S
C192 C198 1.404 1_554 S
C193 C192 1.375 . S
C193 C194 1.369 . S
C193 H206 0.950 . S
C194 C193 1.369 . S
C194 C195 1.392 . S
C194 H207 0.951 . S
C195 C194 1.392 . S
C195 C197 1.384 1_554 S
H196 C198 0.949 . S
C197 C195 1.384 1_556 S
C197 C198 1.385 . S
C197 H199 0.950 . S
C198 C192 1.404 1_556 S
C198 H196 0.949 . S
C198 C197 1.385 . S
H199 C197 0.950 . S
H200 C184 0.951 . S
H201 C186 0.951 . S
H202 C188 0.951 . S
H203 C189 0.950 . S
H204 C190 0.950 . S
H205 C191 0.950 . S
H206 C193 0.950 . S
H207 C194 0.951 . S
C208 C209 1.386 . S
C208 C210 1.383 . S
C208 H224 0.951 . S
C209 C208 1.386 . S
C209 C213 1.383 . S
C210 C208 1.383 . S
C210 C211 1.402 . S
C210 H225 0.951 . S
C211 C210 1.402 . S
C211 C212 1.375 . S
C211 C214 1.481 . S
C212 C211 1.375 . S
C212 C213 1.367 . S
C212 H226 0.951 1_455 S
C213 C209 1.383 . S
C213 C212 1.367 . S
C213 H227 0.950 1_455 S
C214 C211 1.481 . S
C214 C215 1.297 . S
C214 H228 0.950 . S
C215 C214 1.297 . S
C215 C216 1.479 . S
C215 H229 0.950 . S
C216 C215 1.479 . S
C216 C217 1.375 . S
C216 C222 1.404 . S
C217 C216 1.375 . S
C217 C218 1.369 . S
C217 H230 0.950 . S
C218 C217 1.369 . S
C218 C219 1.392 . S
C218 H231 0.951 . S
C219 C218 1.392 . S
C219 C221 1.384 . S
H220 C222 0.949 . S
C221 C219 1.384 . S
C221 C222 1.385 . S
C221 H223 0.950 . S
C222 C216 1.404 . S
C222 H220 0.949 . S
C222 C221 1.385 . S
H223 C221 0.950 . S
H224 C208 0.951 . S
H225 C210 0.951 . S
H226 C212 0.951 1_655 S
H227 C213 0.950 1_655 S
H228 C214 0.950 . S
H229 C215 0.950 . S
H230 C217 0.950 . S
H231 C218 0.951 . S
C232 C233 1.386 . S
C232 C234 1.383 . S
C232 H248 0.951 . S
C233 C232 1.386 . S
C233 C237 1.383 . S
C234 C232 1.383 . S
C234 C235 1.402 . S
C234 H249 0.951 . S
C235 C234 1.402 . S
C235 C236 1.375 . S
C235 C238 1.481 . S
C236 C235 1.375 . S
C236 C237 1.367 . S
C236 H250 0.951 . S
C237 C233 1.383 . S
C237 C236 1.367 . S
C237 H251 0.950 . S
C238 C235 1.481 . S
C238 C239 1.297 . S
C238 H252 0.950 . S
C239 C238 1.297 . S
C239 C240 1.479 . S
C239 H253 0.950 . S
C240 C239 1.479 . S
C240 C241 1.375 . S
C240 C246 1.404 . S
C241 C240 1.375 . S
C241 C242 1.369 . S
C241 H254 0.950 . S
C242 C241 1.369 . S
C242 C243 1.392 . S
C242 H255 0.951 . S
C243 C242 1.392 . S
C243 C245 1.384 . S
H244 C246 0.949 . S
C245 C243 1.384 . S
C245 C246 1.385 . S
C245 H247 0.950 . S
C246 C240 1.404 . S
C246 H244 0.949 . S
C246 C245 1.385 . S
H247 C245 0.950 . S
H248 C232 0.951 . S
H249 C234 0.951 . S
H250 C236 0.951 . S
H251 C237 0.950 . S
H252 C238 0.950 . S
H253 C239 0.950 . S
H254 C241 0.950 . S
H255 C242 0.951 . S
C256 C257 1.386 . S
C256 C258 1.383 . S
C256 H272 0.951 . S
C257 C256 1.386 . S
C257 C261 1.383 . S
C258 C256 1.383 . S
C258 C259 1.402 . S
C258 H273 0.951 . S
C259 C258 1.402 . S
C259 C260 1.375 . S
C259 C262 1.481 . S
C260 C259 1.375 . S
C260 C261 1.367 . S
C260 H274 0.951 . S
C261 C257 1.383 . S
C261 C260 1.367 . S
C261 H275 0.950 . S
C262 C259 1.481 . S
C262 C263 1.297 . S
C262 H276 0.950 . S
C263 C262 1.297 . S
C263 C264 1.479 . S
C263 H277 0.950 . S
C264 C263 1.479 . S
C264 C265 1.375 . S
C264 C270 1.404 . S
C265 C264 1.375 . S
C265 C266 1.369 . S
C265 H278 0.950 . S
C266 C265 1.369 . S
C266 C267 1.392 . S
C266 H279 0.951 . S
C267 C266 1.392 . S
C267 C269 1.384 . S
H268 C270 0.949 . S
C269 C267 1.384 . S
C269 C270 1.385 . S
C269 H271 0.950 . S
C270 C264 1.404 . S
C270 H268 0.949 . S
C270 C269 1.385 . S
H271 C269 0.950 . S
H272 C256 0.951 . S
H273 C258 0.951 . S
H274 C260 0.951 . S
H275 C261 0.950 . S
H276 C262 0.950 . S
H277 C263 0.950 . S
H278 C265 0.950 . S
H279 C266 0.951 . S
C280 C281 1.386 . S
C280 C282 1.383 . S
C280 H296 0.951 . S
C281 C280 1.386 . S
C281 C285 1.383 . S
C282 C280 1.383 . S
C282 C283 1.402 . S
C282 H297 0.951 . S
C283 C282 1.402 . S
C283 C284 1.375 . S
C283 C286 1.481 . S
C284 C283 1.375 . S
C284 C285 1.367 . S
C284 H298 0.951 . S
C285 C281 1.383 . S
C285 C284 1.367 . S
C285 H299 0.950 . S
C286 C283 1.481 . S
C286 C287 1.297 . S
C286 H300 0.950 . S
C287 C286 1.297 . S
C287 C288 1.479 . S
C287 H301 0.950 . S
C288 C287 1.479 . S
C288 C289 1.375 . S
C288 C294 1.404 . S
C289 C288 1.375 . S
C289 C290 1.369 . S
C289 H302 0.950 . S
C290 C289 1.369 . S
C290 C291 1.392 . S
C290 H303 0.951 . S
C291 C290 1.392 . S
C291 C293 1.384 . S
H292 C294 0.949 . S
C293 C291 1.384 . S
C293 C294 1.385 . S
C293 H295 0.950 . S
C294 C288 1.404 . S
C294 H292 0.949 . S
C294 C293 1.385 . S
H295 C293 0.950 . S
H296 C280 0.951 . S
H297 C282 0.951 . S
H298 C284 0.951 . S
H299 C285 0.950 . S
H300 C286 0.950 . S
H301 C287 0.950 . S
H302 C289 0.950 . S
H303 C290 0.951 . S
C304 C305 1.386 . S
C304 C306 1.383 . S
C304 H320 0.951 . S
C305 C304 1.386 . S
C305 C309 1.383 . S
C306 C304 1.383 . S
C306 C307 1.402 . S
C306 H321 0.951 . S
C307 C306 1.402 . S
C307 C308 1.375 . S
C307 C310 1.481 . S
C308 C307 1.375 . S
C308 C309 1.367 . S
C308 H322 0.951 . S
C309 C305 1.383 . S
C309 C308 1.367 . S
C309 H323 0.950 . S
C310 C307 1.481 . S
C310 C311 1.297 . S
C310 H324 0.950 . S
C311 C310 1.297 . S
C311 C312 1.479 . S
C311 H325 0.950 . S
C312 C311 1.479 . S
C312 C313 1.375 . S
C312 C318 1.404 . S
C313 C312 1.375 . S
C313 C314 1.369 . S
C313 H326 0.950 . S
C314 C313 1.369 . S
C314 C315 1.392 . S
C314 H327 0.951 . S
C315 C314 1.392 . S
C315 C317 1.384 . S
H316 C318 0.949 . S
C317 C315 1.384 . S
C317 C318 1.385 . S
C317 H319 0.950 . S
C318 C312 1.404 . S
C318 H316 0.949 . S
C318 C317 1.385 . S
H319 C317 0.950 . S
H320 C304 0.951 . S
H321 C306 0.951 . S
H322 C308 0.951 . S
H323 C309 0.950 . S
H324 C310 0.950 . S
H325 C311 0.950 . S
H326 C313 0.950 . S
H327 C314 0.951 . S
C328 C329 1.386 . S
C328 C330 1.383 . S
C328 H344 0.951 . S
C329 C328 1.386 . S
C329 C333 1.383 . S
C330 C328 1.383 . S
C330 C331 1.402 . S
C330 H345 0.951 . S
C331 C330 1.402 . S
C331 C332 1.375 . S
C331 C334 1.481 . S
C332 C331 1.375 . S
C332 C333 1.367 . S
C332 H346 0.951 . S
C333 C329 1.383 . S
C333 C332 1.367 . S
C333 H347 0.950 . S
C334 C331 1.481 . S
C334 C335 1.297 . S
C334 H348 0.950 . S
C335 C334 1.297 . S
C335 C336 1.479 . S
C335 H349 0.950 . S
C336 C335 1.479 . S
C336 C337 1.375 . S
C336 C342 1.404 . S
C337 C336 1.375 . S
C337 C338 1.369 . S
C337 H350 0.950 . S
C338 C337 1.369 . S
C338 C339 1.392 . S
C338 H351 0.951 . S
C339 C338 1.392 . S
C339 C341 1.384 1_655 S
H340 C342 0.949 . S
C341 C339 1.384 1_455 S
C341 C342 1.385 1_455 S
C341 H343 0.950 . S
C342 C336 1.404 . S
C342 H340 0.949 . S
C342 C341 1.385 1_655 S
H343 C341 0.950 . S
H344 C328 0.951 . S
H345 C330 0.951 . S
H346 C332 0.951 . S
H347 C333 0.950 . S
H348 C334 0.950 . S
H349 C335 0.950 . S
H350 C337 0.950 . S
H351 C338 0.951 . S
C352 C353 1.386 1_545 S
C352 C354 1.383 1_545 S
C352 H368 0.951 . S
C353 C352 1.386 1_565 S
C353 C357 1.383 . S
C354 C352 1.383 1_565 S
C354 C355 1.402 . S
C354 H369 0.951 . S
C355 C354 1.402 . S
C355 C356 1.375 . S
C355 C358 1.481 . S
C356 C355 1.375 . S
C356 C357 1.367 . S
C356 H370 0.951 . S
C357 C353 1.383 . S
C357 C356 1.367 . S
C357 H371 0.950 . S
C358 C355 1.481 . S
C358 C359 1.297 . S
C358 H372 0.950 . S
C359 C358 1.297 . S
C359 C360 1.479 . S
C359 H373 0.950 . S
C360 C359 1.479 . S
C360 C361 1.375 . S
C360 C366 1.404 . S
C361 C360 1.375 . S
C361 C362 1.369 . S
C361 H374 0.950 . S
C362 C361 1.369 . S
C362 C363 1.392 . S
C362 H375 0.951 . S
C363 C362 1.392 . S
C363 C365 1.384 . S
H364 C366 0.949 . S
C365 C363 1.384 . S
C365 C366 1.385 . S
C365 H367 0.950 . S
C366 C360 1.404 . S
C366 H364 0.949 . S
C366 C365 1.385 . S
H367 C365 0.950 . S
H368 C352 0.951 . S
H369 C354 0.951 . S
H370 C356 0.951 . S
H371 C357 0.950 . S
H372 C358 0.950 . S
H373 C359 0.950 . S
H374 C361 0.950 . S
H375 C362 0.951 . S
C376 C377 1.386 . S
C376 C378 1.383 . S
C376 H392 0.951 . S
C377 C376 1.386 . S
C377 C381 1.383 . S
C378 C376 1.383 . S
C378 C379 1.402 . S
C378 H393 0.951 . S
C379 C378 1.402 . S
C379 C380 1.375 . S
C379 C382 1.481 . S
C380 C379 1.375 . S
C380 C381 1.367 . S
C380 H394 0.951 . S
C381 C377 1.383 . S
C381 C380 1.367 . S
C381 H395 0.950 . S
C382 C379 1.481 . S
C382 C383 1.297 . S
C382 H396 0.950 . S
C383 C382 1.297 . S
C383 C384 1.479 . S
C383 H397 0.950 . S
C384 C383 1.479 . S
C384 C385 1.375 . S
C384 C390 1.404 . S
C385 C384 1.375 . S
C385 C386 1.369 . S
C385 H398 0.950 . S
C386 C385 1.369 . S
C386 C387 1.392 . S
C386 H399 0.951 . S
C387 C386 1.392 . S
C387 C389 1.384 . S
H388 C390 0.949 . S
C389 C387 1.384 . S
C389 C390 1.385 . S
C389 H391 0.950 . S
C390 C384 1.404 . S
C390 H388 0.949 . S
C390 C389 1.385 . S
H391 C389 0.950 . S
H392 C376 0.951 . S
H393 C378 0.951 . S
H394 C380 0.951 . S
H395 C381 0.950 . S
H396 C382 0.950 . S
H397 C383 0.950 . S
H398 C385 0.950 . S
H399 C386 0.951 . S
C400 C401 1.386 . S
C400 C402 1.383 . S
C400 H416 0.951 . S
C401 C400 1.386 . S
C401 C405 1.383 . S
C402 C400 1.383 . S
C402 C403 1.402 . S
C402 H417 0.951 . S
C403 C402 1.402 . S
C403 C404 1.375 . S
C403 C406 1.481 . S
C404 C403 1.375 . S
C404 C405 1.367 . S
C404 H418 0.951 . S
C405 C401 1.383 . S
C405 C404 1.367 . S
C405 H419 0.950 . S
C406 C403 1.481 . S
C406 C407 1.297 . S
C406 H420 0.950 . S
C407 C406 1.297 . S
C407 C408 1.479 . S
C407 H421 0.950 . S
C408 C407 1.479 . S
C408 C409 1.375 . S
C408 C414 1.404 . S
C409 C408 1.375 . S
C409 C410 1.369 . S
C409 H422 0.950 . S
C410 C409 1.369 . S
C410 C411 1.392 . S
C410 H423 0.951 . S
C411 C410 1.392 . S
C411 C413 1.384 . S
H412 C414 0.949 . S
C413 C411 1.384 . S
C413 C414 1.385 . S
C413 H415 0.950 . S
C414 C408 1.404 . S
C414 H412 0.949 . S
C414 C413 1.385 . S
H415 C413 0.950 . S
H416 C400 0.951 . S
H417 C402 0.951 . S
H418 C404 0.951 . S
H419 C405 0.950 . S
H420 C406 0.950 . S
H421 C407 0.950 . S
H422 C409 0.950 . S
H423 C410 0.951 . S
C137 C81 2.858 1_565 S
C147 C13 2.846 . S
C161 C106 2.830 . S
C171 C47 2.839 1_655 S
C185 C72 1.028 1_556 S
C195 C4 1.039 . S
C209 C38 1.038 . S
C219 C115 1.036 . S
C233 C34 1.743 . S
C243 C29 1.766 . S
C257 C63 1.850 . S
C267 C68 1.786 . S
C281 C110 1.802 1_655 S
C291 C97 1.853 . S
C305 C119 1.804 . S
C315 C0 1.803 1_565 S
C329 C76 1.781 . S
C339 C131 1.750 1_655 S
C353 C17 1.805 1_565 S
C363 C102 1.790 . S
C377 C51 1.818 . S
C387 C8 1.817 . S
C401 C85 1.762 . S
C411 C42 1.767 . S
