# Generated by pormake.
# Topology wjf, (4)-cn, num edge types: 1
# Building blocks:
#     Node 0, Type 0, BuildingBlock: UXUYUI_clean_sbu_0, # of connection points: 4
#     Node 1, Type 0, BuildingBlock: UXUYUI_clean_sbu_0, # of connection points: 4
#     Node 2, Type 0, BuildingBlock: UXUYUI_clean_sbu_0, # of connection points: 4
#     Node 3, Type 0, BuildingBlock: UXUYUI_clean_sbu_0, # of connection points: 4
#     Node 4, Type 0, BuildingBlock: UXUYUI_clean_sbu_0, # of connection points: 4
#     Node 5, Type 0, BuildingBlock: UXUYUI_clean_sbu_0, # of connection points: 4
#     Node 6, Type 0, BuildingBlock: UXUYUI_clean_sbu_0, # of connection points: 4
#     Node 7, Type 0, BuildingBlock: UXUYUI_clean_sbu_0, # of connection points: 4
#     Node 8, Type 0, BuildingBlock: UXUYUI_clean_sbu_0, # of connection points: 4
#     Node 9, Type 0, BuildingBlock: UXUYUI_clean_sbu_0, # of connection points: 4
#     Node 10, Type 0, BuildingBlock: UXUYUI_clean_sbu_0, # of connection points: 4
#     Node 11, Type 0, BuildingBlock: UXUYUI_clean_sbu_0, # of connection points: 4
#     Edge 12, Type (0, 0), BuildingBlock: UVAHIK_clean_linker_0, # of connection points: 2
#     Edge 13, Type (0, 0), BuildingBlock: UVAHIK_clean_linker_0, # of connection points: 2
#     Edge 14, Type (0, 0), BuildingBlock: UVAHIK_clean_linker_0, # of connection points: 2
#     Edge 15, Type (0, 0), BuildingBlock: UVAHIK_clean_linker_0, # of connection points: 2
#     Edge 16, Type (0, 0), BuildingBlock: UVAHIK_clean_linker_0, # of connection points: 2
#     Edge 17, Type (0, 0), BuildingBlock: UVAHIK_clean_linker_0, # of connection points: 2
#     Edge 18, Type (0, 0), BuildingBlock: UVAHIK_clean_linker_0, # of connection points: 2
#     Edge 19, Type (0, 0), BuildingBlock: UVAHIK_clean_linker_0, # of connection points: 2
#     Edge 20, Type (0, 0), BuildingBlock: UVAHIK_clean_linker_0, # of connection points: 2
#     Edge 21, Type (0, 0), BuildingBlock: UVAHIK_clean_linker_0, # of connection points: 2
#     Edge 22, Type (0, 0), BuildingBlock: UVAHIK_clean_linker_0, # of connection points: 2
#     Edge 23, Type (0, 0), BuildingBlock: UVAHIK_clean_linker_0, # of connection points: 2
#     Edge 24, Type (0, 0), BuildingBlock: UVAHIK_clean_linker_0, # of connection points: 2
#     Edge 25, Type (0, 0), BuildingBlock: UVAHIK_clean_linker_0, # of connection points: 2
#     Edge 26, Type (0, 0), BuildingBlock: UVAHIK_clean_linker_0, # of connection points: 2
#     Edge 27, Type (0, 0), BuildingBlock: UVAHIK_clean_linker_0, # of connection points: 2
#     Edge 28, Type (0, 0), BuildingBlock: UVAHIK_clean_linker_0, # of connection points: 2
#     Edge 29, Type (0, 0), BuildingBlock: UVAHIK_clean_linker_0, # of connection points: 2
#     Edge 30, Type (0, 0), BuildingBlock: UVAHIK_clean_linker_0, # of connection points: 2
#     Edge 31, Type (0, 0), BuildingBlock: UVAHIK_clean_linker_0, # of connection points: 2
#     Edge 32, Type (0, 0), BuildingBlock: UVAHIK_clean_linker_0, # of connection points: 2
#     Edge 33, Type (0, 0), BuildingBlock: UVAHIK_clean_linker_0, # of connection points: 2
#     Edge 34, Type (0, 0), BuildingBlock: UVAHIK_clean_linker_0, # of connection points: 2
#     Edge 35, Type (0, 0), BuildingBlock: UVAHIK_clean_linker_0, # of connection points: 2
# Relax obj value: 0.355
# Max RMSD: 0.304
# Mean RMSD: 0.304
data_MOF--net-wjf--node1-UXUYUI_clean_sbu_0--edge1-UVAHIK_clean_linker_0
_symmetry_space_group_name_H-M    P1
_symmetry_Int_Tables_number       1
_symmetry_cell_setting            triclinic
loop_
_symmetry_equiv_pos_as_xyz
'x, y, z'
_cell_length_a     87.235519
_cell_length_b     87.246899
_cell_length_c     46.43621
_cell_angle_alpha  89.97665
_cell_angle_beta   89.990776
_cell_angle_gamma 119.98988
loop_
_atom_site_label
_atom_site_type_symbol
_atom_site_fract_x
_atom_site_fract_y
_atom_site_fract_z
_atom_type_partial_charge
Li0 Li 0.3131 0.39111 0.0654 0.0
Li1 Li 0.31648 0.37145 0.09823 0.0
Li2 Li 0.3426 0.39447 0.07225 0.0
Li3 Li 0.31992 0.36862 0.04814 0.0
C4 C 0.32056 0.40233 0.124 0.0
N5 N 0.30645 0.41087 0.17044 0.0
C6 C 0.30226 0.39477 0.12681 0.0
C7 C 0.33172 0.41427 0.1448 0.0
C8 C 0.29536 0.39924 0.15043 0.0
C9 C 0.32433 0.41842 0.16812 0.0
C10 C 0.2824 0.35231 0.07762 0.0
C11 C 0.26338 0.3229 0.09612 0.0
N12 N 0.24989 0.32643 0.09802 0.0
C13 C 0.26832 0.35561 0.0796 0.0
C14 C 0.2799 0.3358 0.08578 0.0
C15 C 0.252 0.34237 0.09003 0.0
C16 C 0.29334 0.39714 0.02732 0.0
N17 N 0.30084 0.40283 0.05359 0.0
C18 C 0.29027 0.42335 0.05583 0.0
C19 C 0.29985 0.41595 0.06776 0.0
C20 C 0.28207 0.41745 0.02881 0.0
C21 C 0.28406 0.4044 0.01435 0.0
H22 H 0.29475 0.38698 0.01632 0.0
H23 H 0.30643 0.42069 0.08822 0.0
C24 C 0.32205 0.35632 0.1464 0.0
N25 N 0.30969 0.35944 0.13433 0.0
C26 C 0.31907 0.34818 0.17324 0.0
C27 C 0.29062 0.3466 0.17499 0.0
C28 C 0.29418 0.35481 0.14804 0.0
C29 C 0.3032 0.34324 0.18797 0.0
H30 H 0.33441 0.36043 0.13534 0.0
H31 H 0.28458 0.35756 0.13826 0.0
C32 C 0.33796 0.41032 0.02404 0.0
N33 N 0.35193 0.44379 0.00055 0.0
C34 C 0.33911 0.41259 0.99416 0.0
C35 C 0.34381 0.42509 0.04197 0.0
C36 C 0.34625 0.42962 0.98271 0.0
C37 C 0.35086 0.44189 0.02968 0.0
C38 C 0.33964 0.35732 0.0685 0.0
C39 C 0.35317 0.36239 0.04822 0.0
C40 C 0.32969 0.33959 0.07685 0.0
C41 C 0.35639 0.34956 0.03633 0.0
C42 C 0.33333 0.32716 0.06449 0.0
N43 N 0.34648 0.33235 0.04463 0.0
C44 C 0.37494 0.4178 0.09942 0.0
C45 C 0.37681 0.41466 0.04903 0.0
C46 C 0.39307 0.42985 0.10084 0.0
N47 N 0.36723 0.41061 0.07377 0.0
C48 C 0.39495 0.42664 0.04944 0.0
C49 C 0.40331 0.43446 0.07558 0.0
H50 H 0.36698 0.41417 0.11876 0.0
H51 H 0.37034 0.40856 0.02898 0.0
C52 C 0.30351 0.33583 0.01683 0.0
N53 N 0.31607 0.35328 0.01656 0.0
C54 C 0.30026 0.32555 0.99206 0.0
C55 C 0.32311 0.35136 0.96755 0.0
C56 C 0.32604 0.36104 0.9928 0.0
C57 C 0.30988 0.33347 0.96688 0.0
H58 H 0.29579 0.32996 0.036 0.0
H59 H 0.33611 0.37487 0.99336 0.0
O60 O 0.3276 0.39797 0.10123 0.0
O61 O 0.29844 0.36514 0.06734 0.0
O62 O 0.33078 0.39367 0.03549 0.0
O63 O 0.33593 0.3696 0.07969 0.0
H64 H 0.29346 0.38562 0.11084 0.0
H65 H 0.34593 0.42029 0.14297 0.0
H66 H 0.2812 0.39346 0.15283 0.0
H67 H 0.33281 0.42765 0.18438 0.0
H68 H 0.26131 0.31011 0.10274 0.0
H69 H 0.26998 0.36828 0.07314 0.0
H70 H 0.29069 0.33308 0.08472 0.0
H71 H 0.241 0.34476 0.09176 0.0
H72 H 0.28911 0.43335 0.06785 0.0
H73 H 0.27857 0.39981 0.99311 0.0
H74 H 0.32933 0.34626 0.18268 0.0
H75 H 0.27819 0.34296 0.18556 0.0
H76 H 0.33447 0.40131 0.97994 0.0
H77 H 0.34292 0.42366 0.06511 0.0
H78 H 0.34723 0.43156 0.95963 0.0
H79 H 0.35546 0.45342 0.0433 0.0
H80 H 0.36093 0.37604 0.04144 0.0
H81 H 0.31922 0.33546 0.0926 0.0
H82 H 0.36672 0.35326 0.02045 0.0
H83 H 0.32569 0.31338 0.07063 0.0
H84 H 0.39895 0.43567 0.1214 0.0
H85 H 0.40238 0.42958 0.02954 0.0
H86 H 0.28995 0.31177 0.99228 0.0
H87 H 0.33099 0.35784 0.94865 0.0
Li88 Li 0.9461 0.31458 0.44813 0.0
Li89 Li 0.922 0.30909 0.41879 0.0
Li90 Li 0.94951 0.31469 0.39756 0.0
Li91 Li 0.94667 0.33937 0.41964 0.0
C92 C 0.93336 0.28179 0.43896 0.0
N93 N 0.93422 0.25747 0.47615 0.0
C94 C 0.91897 0.27157 0.45705 0.0
C95 C 0.94817 0.2796 0.43982 0.0
C96 C 0.91965 0.25934 0.47566 0.0
C97 C 0.94836 0.26726 0.45878 0.0
C98 C 0.91573 0.32441 0.4626 0.0
C99 C 0.89709 0.33718 0.47019 0.0
N100 N 0.88486 0.32197 0.48323 0.0
C101 C 0.90302 0.30894 0.47623 0.0
C102 C 0.91279 0.33868 0.45964 0.0
C103 C 0.88748 0.30795 0.48643 0.0
C104 C 0.97123 0.31482 0.48625 0.0
N105 N 0.95388 0.31001 0.48376 0.0
C106 C 0.94825 0.29914 0.53207 0.0
C107 C 0.94239 0.30232 0.50599 0.0
C108 C 0.96616 0.30414 0.53532 0.0
C109 C 0.97768 0.31196 0.51192 0.0
H110 H 0.98011 0.32103 0.46839 0.0
H111 H 0.92869 0.29874 0.50355 0.0
C112 C 0.88933 0.27849 0.40743 0.0
N113 N 0.89708 0.29622 0.41182 0.0
C114 C 0.87176 0.26884 0.39849 0.0
C115 C 0.87046 0.29587 0.39831 0.0
C116 C 0.88802 0.30498 0.4076 0.0
C117 C 0.86221 0.27759 0.3934 0.0
H118 H 0.89703 0.27197 0.40953 0.0
H119 H 0.89467 0.31918 0.41018 0.0
C120 C 0.98181 0.3399 0.4115 0.0
N121 N 0.01368 0.35284 0.38272 0.0
C122 C 0.98986 0.35673 0.39898 0.0
C123 C 0.9901 0.32974 0.4096 0.0
C124 C 0.00595 0.36302 0.38449 0.0
C125 C 0.00615 0.33648 0.39487 0.0
C126 C 0.92293 0.31895 0.3636 0.0
C127 C 0.91829 0.30276 0.35055 0.0
C128 C 0.91478 0.32845 0.35469 0.0
C129 C 0.90555 0.29635 0.32877 0.0
C130 C 0.9021 0.32159 0.33283 0.0
N131 N 0.89778 0.30581 0.32044 0.0
C132 C 0.95899 0.29408 0.36158 0.0
C133 C 0.9683 0.32338 0.3462 0.0
C134 C 0.96698 0.29129 0.33762 0.0
N135 N 0.96002 0.31001 0.36552 0.0
C136 C 0.97656 0.32123 0.32215 0.0
C137 C 0.97603 0.30505 0.31769 0.0
H138 H 0.95185 0.28351 0.37683 0.0
H139 H 0.96848 0.33573 0.34955 0.0
C140 C 0.96029 0.37363 0.44221 0.0
N141 N 0.95404 0.36372 0.41794 0.0
C142 C 0.96596 0.39169 0.4415 0.0
C143 C 0.95875 0.38895 0.39079 0.0
C144 C 0.95328 0.37097 0.39247 0.0
C145 C 0.96521 0.39959 0.41553 0.0
H146 H 0.96087 0.36747 0.46209 0.0
H147 H 0.94854 0.3628 0.37342 0.0
O148 O 0.93311 0.29413 0.42102 0.0
O149 O 0.93104 0.32565 0.4524 0.0
O150 O 0.9659 0.33341 0.42542 0.0
O151 O 0.93492 0.32512 0.38569 0.0
H152 H 0.90749 0.27323 0.45712 0.0
H153 H 0.95954 0.28754 0.42636 0.0
H154 H 0.90864 0.25142 0.48986 0.0
H155 H 0.9598 0.26553 0.45977 0.0
H156 H 0.89461 0.34809 0.46794 0.0
H157 H 0.90496 0.2977 0.47846 0.0
H158 H 0.92243 0.35075 0.44913 0.0
H159 H 0.87748 0.296 0.49681 0.0
H160 H 0.93899 0.29332 0.54974 0.0
H161 H 0.99156 0.31592 0.51351 0.0
H162 H 0.86599 0.25482 0.39423 0.0
H163 H 0.86355 0.30309 0.39441 0.0
H164 H 0.98376 0.36486 0.40028 0.0
H165 H 0.98405 0.31665 0.41892 0.0
H166 H 0.01227 0.37599 0.37461 0.0
H167 H 0.0126 0.32868 0.39302 0.0
H168 H 0.92421 0.29506 0.35754 0.0
H169 H 0.91796 0.34084 0.3649 0.0
H170 H 0.90175 0.28379 0.31861 0.0
H171 H 0.89561 0.32875 0.32584 0.0
H172 H 0.96618 0.27859 0.3348 0.0
H173 H 0.98301 0.33202 0.30692 0.0
H174 H 0.97112 0.39941 0.46099 0.0
H175 H 0.95776 0.3944 0.37038 0.0
Li176 Li 0.63141 0.94946 0.77033 0.0
Li177 Li 0.61153 0.92458 0.743 0.0
Li178 Li 0.63197 0.95175 0.71936 0.0
Li179 Li 0.60542 0.94889 0.74535 0.0
C180 C 0.65148 0.93671 0.75696 0.0
N181 N 0.67934 0.93811 0.7876 0.0
C182 C 0.64924 0.92184 0.77202 0.0
C183 C 0.6679 0.9523 0.7576 0.0
C184 C 0.66349 0.9228 0.78731 0.0
C185 C 0.68181 0.95275 0.77321 0.0
C186 C 0.59324 0.91885 0.79092 0.0
C187 C 0.56311 0.89906 0.80558 0.0
N188 N 0.56819 0.88799 0.81723 0.0
C189 C 0.59819 0.90733 0.80319 0.0
C190 C 0.57558 0.91474 0.7922 0.0
C191 C 0.58532 0.89177 0.81632 0.0
C192 C 0.65389 0.97594 0.80886 0.0
N193 N 0.64525 0.95817 0.8045 0.0
C194 C 0.65623 0.95373 0.84901 0.0
C195 C 0.64609 0.94704 0.82409 0.0
C196 C 0.66519 0.97206 0.85429 0.0
C197 C 0.66391 0.98319 0.8337 0.0
H198 H 0.6527 0.9845 0.7933 0.0
H199 H 0.63887 0.93294 0.82047 0.0
C200 C 0.60947 0.89235 0.72869 0.0
N201 N 0.59948 0.89956 0.73685 0.0
C202 C 0.60141 0.87475 0.7199 0.0
C203 C 0.57285 0.87236 0.72717 0.0
C204 C 0.58148 0.88995 0.73637 0.0
C205 C 0.58289 0.86465 0.71866 0.0
H206 H 0.62368 0.9005 0.72753 0.0
H207 H 0.57383 0.89619 0.74168 0.0
C208 C 0.63959 0.98378 0.73188 0.0
N209 N 0.65744 0.01406 0.69884 0.0
C210 C 0.63018 0.98996 0.71595 0.0
C211 C 0.65809 0.99311 0.73119 0.0
C212 C 0.63944 0.00527 0.69935 0.0
C213 C 0.66687 0.00835 0.7143 0.0
C214 C 0.59865 0.92405 0.69018 0.0
C215 C 0.6088 0.91888 0.67398 0.0
C216 C 0.58039 0.91582 0.68562 0.0
C217 C 0.60048 0.90545 0.65354 0.0
C218 C 0.57257 0.90245 0.66496 0.0
N219 N 0.58269 0.89757 0.64951 0.0
C220 C 0.66115 0.96271 0.6804 0.0
C221 C 0.63684 0.9654 0.66406 0.0
C222 C 0.66952 0.96838 0.6537 0.0
N223 N 0.6451 0.96132 0.68496 0.0
C224 C 0.64459 0.97088 0.63702 0.0
C225 C 0.66104 0.97222 0.63153 0.0
H226 H 0.66723 0.95894 0.69707 0.0
H227 H 0.62398 0.96395 0.66822 0.0
C228 C 0.58485 0.96124 0.77226 0.0
N229 N 0.58813 0.95588 0.74669 0.0
C230 C 0.57242 0.96683 0.77393 0.0
C231 C 0.56705 0.96131 0.72287 0.0
C232 C 0.57958 0.95581 0.7222 0.0
C233 C 0.56335 0.96695 0.74899 0.0
H234 H 0.59192 0.96115 0.79135 0.0
H235 H 0.5827 0.95176 0.70208 0.0
O236 O 0.63766 0.93609 0.74191 0.0
O237 O 0.60562 0.93412 0.77786 0.0
O238 O 0.63074 0.96854 0.74765 0.0
O239 O 0.60647 0.93677 0.71096 0.0
H240 H 0.63658 0.90977 0.77248 0.0
H241 H 0.66983 0.96403 0.74656 0.0
H242 H 0.66191 0.91141 0.79914 0.0
H243 H 0.69454 0.96476 0.77398 0.0
H244 H 0.54938 0.89567 0.80663 0.0
H245 H 0.61176 0.91022 0.80213 0.0
H246 H 0.57152 0.92349 0.78278 0.0
H247 H 0.58894 0.88267 0.8257 0.0
H248 H 0.65692 0.9446 0.86402 0.0
H249 H 0.67012 0.99733 0.83705 0.0
H250 H 0.60957 0.86937 0.71273 0.0
H251 H 0.55853 0.86499 0.72611 0.0
H252 H 0.61589 0.98293 0.71614 0.0
H253 H 0.66561 0.98858 0.74342 0.0
H254 H 0.63231 0.01013 0.68679 0.0
H255 H 0.68117 0.01563 0.71345 0.0
H256 H 0.62291 0.92495 0.6775 0.0
H257 H 0.57231 0.9195 0.69824 0.0
H258 H 0.60815 0.90123 0.64099 0.0
H259 H 0.55844 0.89587 0.66134 0.0
H260 H 0.68213 0.96909 0.65009 0.0
H261 H 0.63772 0.97385 0.62046 0.0
H262 H 0.56984 0.97087 0.79457 0.0
H263 H 0.5606 0.96147 0.70304 0.0
Li264 Li 0.67523 0.62339 0.1016 0.0
Li265 Li 0.68067 0.60383 0.07174 0.0
Li266 Li 0.67431 0.62584 0.05096 0.0
Li267 Li 0.6511 0.59981 0.0737 0.0
C268 C 0.70936 0.64443 0.0855 0.0
N269 N 0.73831 0.67347 0.10948 0.0
C270 C 0.72513 0.64428 0.08995 0.0
C271 C 0.70843 0.65947 0.09288 0.0
C272 C 0.7396 0.65906 0.10218 0.0
C273 C 0.72316 0.67398 0.10509 0.0
C274 C 0.65841 0.57988 0.112 0.0
C275 C 0.64579 0.54949 0.09688 0.0
N276 N 0.6449 0.54451 0.12487 0.0
C277 C 0.65739 0.57447 0.14059 0.0
C278 C 0.65257 0.56731 0.08992 0.0
C279 C 0.65051 0.55652 0.14666 0.0
C280 C 0.67095 0.64222 0.14686 0.0
N281 N 0.68086 0.6352 0.13745 0.0
C282 C 0.69815 0.6442 0.18046 0.0
C283 C 0.69423 0.63598 0.15357 0.0
C284 C 0.68796 0.65136 0.19108 0.0
C285 C 0.67426 0.65036 0.17376 0.0
H286 H 0.66024 0.64116 0.1337 0.0
H287 H 0.70179 0.63013 0.14555 0.0
C288 C 0.69229 0.58078 0.04848 0.0
N289 N 0.69405 0.59208 0.07006 0.0
C290 C 0.70402 0.57434 0.0464 0.0
C291 C 0.71799 0.58985 0.09038 0.0
C292 C 0.70606 0.59607 0.09147 0.0
C293 C 0.71748 0.57936 0.06703 0.0
H294 H 0.68216 0.57715 0.03233 0.0
H295 H 0.70675 0.60461 0.1089 0.0
C296 C 0.65052 0.63416 0.06513 0.0
N297 N 0.63894 0.6538 0.03504 0.0
C298 C 0.63654 0.62588 0.04558 0.0
C299 C 0.65848 0.6524 0.06961 0.0
C300 C 0.6309 0.63604 0.03053 0.0
C301 C 0.65248 0.66211 0.05412 0.0
C302 C 0.67194 0.59979 0.01332 0.0
C303 C 0.68991 0.61145 0.00799 0.0
C304 C 0.66164 0.58742 0.99232 0.0
C305 C 0.69724 0.61052 0.98176 0.0
C306 C 0.66947 0.58691 0.96637 0.0
N307 N 0.68696 0.59838 0.96167 0.0
C308 C 0.69328 0.65795 0.01822 0.0
C309 C 0.66793 0.63444 -0.00391 0.0
C310 C 0.69699 0.6683 0.99343 0.0
N311 N 0.67904 0.6413 0.01896 0.0
C312 C 0.67128 0.64418 0.97081 0.0
C313 C 0.68608 0.66124 0.96919 0.0
H314 H 0.702 0.66308 0.03652 0.0
H315 H 0.65665 0.6212 -0.0027 0.0
C316 C 0.61786 0.57934 0.09952 0.0
N317 N 0.62674 0.58283 0.07414 0.0
C318 C 0.5998 0.56702 0.10065 0.0
C319 C 0.60043 0.56216 0.04948 0.0
C320 C 0.61849 0.57453 0.04938 0.0
C321 C 0.59084 0.5583 0.07536 0.0
H322 H 0.62484 0.58621 0.11884 0.0
H323 H 0.62593 0.57764 0.02953 0.0
O324 O 0.69499 0.62997 0.07385 0.0
O325 O 0.6651 0.59742 0.10583 0.0
O326 O 0.6565 0.62449 0.07953 0.0
O327 O 0.66428 0.60051 0.03868 0.0
H328 H 0.72626 0.63294 0.08381 0.0
H329 H 0.69637 0.65985 0.08952 0.0
H330 H 0.75186 0.65909 0.1058 0.0
H331 H 0.72254 0.68564 0.11112 0.0
H332 H 0.64122 0.53962 0.08003 0.0
H333 H 0.66186 0.58405 0.1579 0.0
H334 H 0.65325 0.57121 0.06766 0.0
H335 H 0.64964 0.55214 0.16871 0.0
H336 H 0.70896 0.64482 0.19285 0.0
H337 H 0.66577 0.6553 0.18122 0.0
H338 H 0.70308 0.56627 0.02804 0.0
H339 H 0.72785 0.59367 0.10718 0.0
H340 H 0.63027 0.6118 0.04175 0.0
H341 H 0.6692 0.65902 0.08484 0.0
H342 H 0.62019 0.62982 0.01517 0.0
H343 H 0.65858 0.67624 0.05727 0.0
H344 H 0.69816 0.62114 0.02381 0.0
H345 H 0.64773 0.57829 -0.00397 0.0
H346 H 0.7111 0.61947 0.97738 0.0
H347 H 0.66165 0.5774 0.94996 0.0
H348 H 0.70857 0.6814 0.99283 0.0
H349 H 0.66247 0.63839 0.95259 0.0
H350 H 0.59287 0.56459 0.12097 0.0
H351 H 0.59409 0.5556 0.02957 0.0
Li352 Li 0.07488 0.67469 0.403 0.0
Li353 Li 0.04853 0.67181 0.42899 0.0
Li354 Li 0.04819 0.64781 0.40104 0.0
Li355 Li 0.05006 0.67233 0.37532 0.0
C356 C 0.07621 0.66199 0.45199 0.0
N357 N 0.10638 0.66904 0.48199 0.0
C358 C 0.08211 0.67404 0.4748 0.0
C359 C 0.08555 0.65341 0.44458 0.0
C360 C 0.09742 0.67745 0.48968 0.0
C361 C 0.1008 0.65719 0.45996 0.0
C362 C 0.06757 0.70613 0.39199 0.0
C363 C 0.05741 0.72691 0.38424 0.0
N364 N 0.07114 0.73616 0.36581 0.0
C365 C 0.08162 0.71586 0.37308 0.0
C366 C 0.05539 0.71169 0.39773 0.0
C367 C 0.08318 0.731 0.36002 0.0
C368 C 0.10876 0.68139 0.38595 0.0
N369 N 0.09996 0.68696 0.40325 0.0
C370 C 0.12689 0.71316 0.4154 0.0
C371 C 0.10862 0.7023 0.41836 0.0
C372 C 0.13627 0.70816 0.39659 0.0
C373 C 0.12703 0.69178 0.38244 0.0
H374 H 0.10153 0.66927 0.3739 0.0
H375 H 0.10119 0.70649 0.43165 0.0
C376 C 0.02315 0.66854 0.46929 0.0
N377 N 0.04023 0.67897 0.46096 0.0
C378 C 0.01664 0.673 0.49333 0.0
C379 C 0.04528 0.69928 0.49921 0.0
C380 C 0.05124 0.69427 0.47498 0.0
C381 C 0.02781 0.68845 0.50887 0.0
H382 H 0.01461 0.65662 0.45748 0.0
H383 H 0.0647 0.70247 0.4675 0.0
C384 C 0.06179 0.6475 0.34988 0.0
N385 N 0.05707 0.62058 0.31307 0.0
C386 C 0.05137 0.64388 0.32517 0.0
C387 C 0.06984 0.63744 0.3558 0.0
C388 C 0.04916 0.63023 0.30683 0.0
C389 C 0.06726 0.62387 0.33697 0.0
C390 C 0.01508 0.64075 0.39482 0.0
C391 C 0.00786 0.63709 0.3671 0.0
C392 C 0.00669 0.62836 0.41682 0.0
C393 C 0.99233 0.62109 0.36187 0.0
C394 C 0.99121 0.6125 0.4107 0.0
N395 N 0.9844 0.60923 0.38359 0.0
C396 C 0.04092 0.61525 0.42535 0.0
C397 C 0.02866 0.61224 0.37878 0.0
C398 C 0.03431 0.59703 0.42698 0.0
N399 N 0.0382 0.62252 0.40138 0.0
C400 C 0.02191 0.59399 0.37941 0.0
C401 C 0.0248 0.58619 0.40369 0.0
H402 H 0.04827 0.62359 0.44326 0.0
H403 H 0.02624 0.61816 0.36022 0.0
C404 C 0.05628 0.68743 0.32041 0.0
N405 N 0.04468 0.6818 0.34275 0.0
C406 C 0.05293 0.69444 0.29581 0.0
C407 C 0.02613 0.69042 0.31822 0.0
C408 C 0.03001 0.68347 0.34242 0.0
C409 C 0.03756 0.69578 0.29432 0.0
H410 H 0.06801 0.68621 0.32159 0.0
H411 H 0.02126 0.67925 0.36087 0.0
O412 O 0.06152 0.65883 0.43665 0.0
O413 O 0.06553 0.691 0.40431 0.0
O414 O 0.06421 0.66091 0.36799 0.0
O415 O 0.03032 0.65633 0.40031 0.0
H416 H 0.07503 0.68076 0.48085 0.0
H417 H 0.08116 0.64406 0.42696 0.0
H418 H 0.1022 0.6868 0.5073 0.0
H419 H 0.10823 0.65073 0.45434 0.0
H420 H 0.04803 0.73133 0.38834 0.0
H421 H 0.09109 0.71163 0.3683 0.0
H422 H 0.04438 0.70421 0.4122 0.0
H423 H 0.09392 0.73862 0.34521 0.0
H424 H 0.13339 0.72579 0.4264 0.0
H425 H 0.13376 0.68733 0.36799 0.0
H426 H 0.00316 0.66413 0.50016 0.0
H427 H 0.05427 0.71141 0.51034 0.0
H428 H 0.04483 0.65132 0.32037 0.0
H429 H 0.07775 0.63986 0.37497 0.0
H430 H 0.04107 0.62724 0.28772 0.0
H431 H 0.07332 0.61591 0.34141 0.0
H432 H 0.01427 0.64637 0.3497 0.0
H433 H 0.01229 0.63076 0.43824 0.0
H434 H 0.98664 0.61807 0.34051 0.0
H435 H 0.98466 0.60274 0.42746 0.0
H436 H 0.03689 0.59154 0.44607 0.0
H437 H 0.01438 0.58606 0.36118 0.0
H438 H 0.062 0.6982 0.2778 0.0
H439 H 0.01427 0.69145 0.31812 0.0
Li440 Li 0.39298 0.07403 0.7368 0.0
Li441 Li 0.37578 0.05131 0.77346 0.0
Li442 Li 0.39766 0.04931 0.74411 0.0
Li443 Li 0.37094 0.04499 0.72322 0.0
C444 C 0.40679 0.081 0.79293 0.0
N445 N 0.41637 0.10685 0.83451 0.0
C446 C 0.39561 0.08771 0.79942 0.0
C447 C 0.42283 0.08743 0.80761 0.0
C448 C 0.40069 0.10077 0.82052 0.0
C449 C 0.42744 0.10052 0.82854 0.0
C450 C 0.35082 0.05818 0.73705 0.0
C451 C 0.31926 0.03832 0.73801 0.0
N452 N 0.31717 0.04866 0.7183 0.0
C453 C 0.34836 0.06868 0.71694 0.0
C454 C 0.33617 0.04292 0.74779 0.0
C455 C 0.33124 0.06362 0.70768 0.0
C456 C 0.39743 0.09815 0.69639 0.0
N457 N 0.40294 0.09772 0.72355 0.0
C458 C 0.42017 0.12932 0.72464 0.0
C459 C 0.41436 0.11284 0.7377 0.0
C460 C 0.4143 0.13011 0.69674 0.0
C461 C 0.40304 0.11418 0.68247 0.0
H462 H 0.38862 0.08591 0.6855 0.0
H463 H 0.41893 0.11221 0.75903 0.0
C464 C 0.3685 0.03517 0.82671 0.0
N465 N 0.36511 0.04595 0.81016 0.0
C466 C 0.36012 0.02922 0.85322 0.0
C467 C 0.34515 0.0459 0.84543 0.0
C468 C 0.35388 0.05157 0.819 0.0
C469 C 0.34804 0.03435 0.8627 0.0
H470 H 0.37753 0.03097 0.819 0.0
H471 H 0.3514 0.06011 0.80527 0.0
C472 C 0.411 0.068 0.69375 0.0
N473 N 0.44342 0.08655 0.66656 0.0
C474 C 0.41225 0.06659 0.66398 0.0
C475 C 0.42623 0.07889 0.70971 0.0
C476 C 0.42876 0.07606 0.65063 0.0
C477 C 0.44249 0.08814 0.69555 0.0
C478 C 0.37063 0.01447 0.74283 0.0
C479 C 0.37468 0.01302 0.71419 0.0
C480 C 0.36406 -0.00027 0.76094 0.0
C481 C 0.37207 0.9968 0.70414 0.0
C482 C 0.36164 0.98373 0.75007 0.0
N483 N 0.36566 0.98261 0.72213 0.0
C484 C 0.42198 0.04165 0.77053 0.0
C485 C 0.41887 0.03617 0.72027 0.0
C486 C 0.43416 0.03573 0.77235 0.0
N487 N 0.41462 0.04172 0.74479 0.0
C488 C 0.43094 0.03012 0.72109 0.0
C489 C 0.43872 0.02978 0.7474 0.0
H490 H 0.41825 0.04604 0.7897 0.0
H491 H 0.41282 0.03634 0.70006 0.0
C492 C 0.35599 0.04296 0.67011 0.0
N493 N 0.35351 0.03331 0.69437 0.0
C494 C 0.34389 0.03607 0.6476 0.0
C495 C 0.3269 0.00927 0.67531 0.0
C496 C 0.33925 0.01681 0.69756 0.0
C497 C 0.32919 0.01898 0.64996 0.0
H498 H 0.36742 0.05606 0.66831 0.0
H499 H 0.33749 0.00954 0.71731 0.0
O500 O 0.40213 0.06806 0.7726 0.0
O501 O 0.36751 0.06262 0.74577 0.0
O502 O 0.39484 0.05881 0.70693 0.0
O503 O 0.37314 0.03021 0.75338 0.0
H504 H 0.38322 0.08303 0.78821 0.0
H505 H 0.43161 0.08235 0.80286 0.0
H506 H 0.39218 0.10609 0.82572 0.0
H507 H 0.43983 0.10562 0.84006 0.0
H508 H 0.30782 0.02647 0.74597 0.0
H509 H 0.35955 0.08055 0.70844 0.0
H510 H 0.33787 0.03453 0.76312 0.0
H511 H 0.32914 0.07156 0.69201 0.0
H512 H 0.42885 0.14126 0.73647 0.0
H513 H 0.39856 0.11405 0.66068 0.0
H514 H 0.363 0.02061 0.86609 0.0
H515 H 0.33588 0.0501 0.85187 0.0
H516 H 0.40056 0.05824 0.65134 0.0
H517 H 0.42557 0.08022 0.73273 0.0
H518 H 0.42993 0.07508 0.6276 0.0
H519 H 0.45439 0.0966 0.70762 0.0
H520 H 0.37978 0.02426 0.69982 0.0
H521 H 0.36088 0.00065 0.78318 0.0
H522 H 0.37516 0.9955 0.68203 0.0
H523 H 0.35657 0.97221 0.76385 0.0
H524 H 0.43968 0.0355 0.79312 0.0
H525 H 0.43425 0.02587 0.70129 0.0
H526 H 0.34628 0.04386 0.62821 0.0
H527 H 0.3157 0.99604 0.67785 0.0
Li528 Li 0.62492 0.6814 0.61116 0.0
Li529 Li 0.59982 0.65598 0.58973 0.0
Li530 Li 0.62249 0.67903 0.55845 0.0
Li531 Li 0.60167 0.68415 0.58572 0.0
C532 C 0.62882 0.65136 0.59985 0.0
N533 N 0.63578 0.62739 0.62735 0.0
C534 C 0.62481 0.64756 0.62902 0.0
C535 C 0.63646 0.64303 0.58468 0.0
C536 C 0.6284 0.63539 0.64254 0.0
C537 C 0.63986 0.63094 0.59895 0.0
C538 C 0.58657 0.65991 0.63991 0.0
C539 C 0.55572 0.63944 0.64944 0.0
N540 N 0.55998 0.6369 0.67651 0.0
C541 C 0.59062 0.65719 0.66791 0.0
C542 C 0.56897 0.65106 0.63066 0.0
C543 C 0.57699 0.64547 0.68606 0.0
C544 C 0.63685 0.6969 0.66532 0.0
N545 N 0.64107 0.6901 0.64236 0.0
C546 C 0.66701 0.69391 0.66614 0.0
C547 C 0.65601 0.68888 0.64204 0.0
C548 C 0.66254 0.70018 0.69078 0.0
C549 C 0.64742 0.70202 0.68994 0.0
H550 H 0.62491 0.69778 0.66483 0.0
H551 H 0.65914 0.68356 0.62338 0.0
C552 C 0.57616 0.62285 0.56676 0.0
N553 N 0.58417 0.63097 0.59179 0.0
C554 C 0.5644 0.60464 0.56612 0.0
C555 C 0.56937 0.60341 0.61706 0.0
C556 C 0.58119 0.6216 0.61663 0.0
C557 C 0.5608 0.59473 0.59157 0.0
H558 H 0.57888 0.63054 0.54724 0.0
H559 H 0.58786 0.62819 0.63622 0.0
C560 C 0.64527 0.71273 0.58107 0.0
N561 N 0.68052 0.73865 0.5785 0.0
C562 C 0.65012 0.73056 0.5833 0.0
C563 C 0.65834 0.70807 0.57755 0.0
C564 C 0.66802 0.74348 0.58194 0.0
C565 C 0.67608 0.72137 0.5763 0.0
C566 C 0.5855 0.66912 0.53658 0.0
C567 C 0.59246 0.68077 0.5133 0.0
C568 C 0.56725 0.65998 0.54139 0.0
C569 C 0.58103 0.68332 0.49546 0.0
C570 C 0.55625 0.6629 0.52307 0.0
N571 N 0.56332 0.67443 0.5007 0.0
C572 C 0.63472 0.66789 0.51307 0.0
C573 C 0.64402 0.69845 0.51003 0.0
C574 C 0.64397 0.66889 0.48806 0.0
N575 N 0.63506 0.68255 0.52365 0.0
C576 C 0.65347 0.70006 0.48482 0.0
C577 C 0.65361 0.68515 0.47367 0.0
H578 H 0.62717 0.65538 0.52412 0.0
H579 H 0.64388 0.70986 0.51877 0.0
C580 C 0.57857 0.69473 0.60873 0.0
N581 N 0.5892 0.69685 0.58592 0.0
C582 C 0.57069 0.70515 0.61138 0.0
C583 C 0.58457 0.71963 0.56667 0.0
C584 C 0.59228 0.70895 0.56499 0.0
C585 C 0.57387 0.71804 0.59043 0.0
H586 H 0.57681 0.68552 0.62563 0.0
H587 H 0.60121 0.71075 0.5475 0.0
O588 O 0.62545 0.66327 0.58617 0.0
O589 O 0.59975 0.67127 0.62176 0.0
O590 O 0.62779 0.69998 0.58255 0.0
O591 O 0.59649 0.66655 0.55441 0.0
H592 H 0.61897 0.65391 0.64111 0.0
H593 H 0.6398 0.64591 0.56214 0.0
H594 H 0.62532 0.63232 0.66511 0.0
H595 H 0.64575 0.62438 0.58746 0.0
H596 H 0.54206 0.63244 0.64248 0.0
H597 H 0.60414 0.66397 0.67555 0.0
H598 H 0.5656 0.65309 0.60916 0.0
H599 H 0.57995 0.64318 0.70772 0.0
H600 H 0.67866 0.69252 0.66571 0.0
H601 H 0.64334 0.70658 0.70853 0.0
H602 H 0.55798 0.59842 0.54605 0.0
H603 H 0.56711 0.59617 0.63704 0.0
H604 H 0.64015 0.73436 0.58606 0.0
H605 H 0.65483 0.69435 0.5757 0.0
H606 H 0.67197 0.75733 0.58363 0.0
H607 H 0.68633 0.71796 0.57356 0.0
H608 H 0.60655 0.68793 0.50923 0.0
H609 H 0.56161 0.65068 0.55899 0.0
H610 H 0.58625 0.69241 0.47749 0.0
H611 H 0.5421 0.65597 0.52661 0.0
H612 H 0.64334 0.65697 0.47983 0.0
H613 H 0.66072 0.71283 0.47435 0.0
H614 H 0.56298 0.70375 0.63049 0.0
H615 H 0.58737 0.72936 0.54998 0.0
Li616 Li 0.95307 0.60774 0.90765 0.0
Li617 Li 0.95925 0.63474 0.93125 0.0
Li618 Li 0.92897 0.61393 0.91554 0.0
Li619 Li 0.95206 0.63181 0.88131 0.0
C620 C 0.93301 0.59378 0.95682 0.0
N621 N 0.91148 0.56098 0.98139 0.0
C622 C 0.93206 0.59185 0.98676 0.0
C623 C 0.92289 0.57902 0.93939 0.0
C624 C 0.92112 0.57515 -0.00124 0.0
C625 C 0.91212 0.56256 0.95222 0.0
C626 C 0.98933 0.64386 0.90872 0.0
C627 C 0.01456 0.6734 0.90913 0.0
N628 N 0.02232 0.66833 0.92953 0.0
C629 C 0.99761 0.6389 0.92951 0.0
C630 C 0.9979 0.66121 0.89829 0.0
C631 C 0.01426 0.65148 0.93983 0.0
C632 C 0.95635 0.57978 0.88281 0.0
N633 N 0.95926 0.5898 0.90676 0.0
C634 C 0.97105 0.57404 0.93165 0.0
C635 C 0.96641 0.58718 0.93094 0.0
C636 C 0.96815 0.56335 0.90729 0.0
C637 C 0.96068 0.56637 0.88262 0.0
H638 H 0.9506 0.58217 0.86393 0.0
H639 H 0.96847 0.5953 0.94974 0.0
C640 C 0.97849 0.66775 0.9618 0.0
N641 N 0.97203 0.64997 0.96234 0.0
C642 C 0.98584 0.67786 0.98663 0.0
C643 C 0.98017 0.65122 0.01166 0.0
C644 C 0.97316 0.64171 0.98636 0.0
C645 C 0.98624 0.66944 0.01213 0.0
H646 H 0.97755 0.67404 0.94244 0.0
H647 H 0.96821 0.62762 0.98601 0.0
C648 C 0.92275 0.60236 0.85772 0.0
N649 N 0.89893 0.5961 0.81381 0.0
C650 C 0.91347 0.61156 0.85677 0.0
C651 C 0.9199 0.58995 0.83633 0.0
C652 C 0.90149 0.60822 0.83442 0.0
C653 C 0.9078 0.58697 0.81431 0.0
C654 C 0.94068 0.65405 0.90403 0.0
C655 C 0.92411 0.65291 0.90412 0.0
C656 C 0.95559 0.66975 0.89521 0.0
C657 C 0.92274 0.66748 0.89526 0.0
C658 C 0.95367 0.68402 0.88649 0.0
N659 N 0.93742 0.6826 0.8867 0.0
C660 C 0.90443 0.61188 0.95339 0.0
C661 C 0.8907 0.59082 0.91605 0.0
C662 C 0.88822 0.60612 0.96685 0.0
N663 N 0.90537 0.60435 0.9284 0.0
C664 C 0.87406 0.58479 0.9286 0.0
C665 C 0.87267 0.59256 0.95431 0.0
H666 H 0.91643 0.62231 0.963 0.0
H667 H 0.89187 0.58468 0.89661 0.0
C668 C 0.97163 0.64499 0.83128 0.0
N669 N 0.95728 0.64363 0.84508 0.0
C670 C 0.97677 0.65337 0.80461 0.0
C671 C 0.95213 0.65868 0.80654 0.0
C672 C 0.94741 0.6501 0.83316 0.0
C673 C 0.96703 0.66044 0.79192 0.0
H674 H 0.97906 0.63944 0.84098 0.0
H675 H 0.93588 0.64866 0.84426 0.0
O676 O 0.9435 0.61013 0.94483 0.0
O677 O 0.9728 0.63186 0.89898 0.0
O678 O 0.93471 0.60555 0.87923 0.0
O679 O 0.94221 0.63986 0.9126 0.0
H680 H 0.9396 0.60314 0.00063 0.0
H681 H 0.92325 0.58021 0.91621 0.0
H682 H 0.92028 0.57348 0.0219 0.0
H683 H 0.90425 0.55104 0.93898 0.0
H684 H 0.02131 0.6869 0.90135 0.0
H685 H 0.99115 0.62556 0.93787 0.0
H686 H 0.99176 0.66526 0.88206 0.0
H687 H 0.02076 0.64786 0.9561 0.0
H688 H 0.97703 0.57243 0.95099 0.0
H689 H 0.95798 0.55834 0.86348 0.0
H690 H 0.99044 0.69191 0.98624 0.0
H691 H 0.98058 0.64434 0.03083 0.0
H692 H 0.91545 0.62114 0.87316 0.0
H693 H 0.92696 0.5827 0.83668 0.0
H694 H 0.89424 0.61527 0.83347 0.0
H695 H 0.90548 0.57741 0.79761 0.0
H696 H 0.91242 0.64088 0.91093 0.0
H697 H 0.96845 0.67078 0.89452 0.0
H698 H 0.90999 0.66676 0.89519 0.0
H699 H 0.96509 0.6962 0.87943 0.0
H700 H 0.88796 0.61216 0.98707 0.0
H701 H 0.86246 0.57433 0.91811 0.0
H702 H 0.98808 0.65399 0.79384 0.0
H703 H 0.94426 0.66397 0.79762 0.0
Li704 Li 0.31716 0.9511 0.28129 0.0
Li705 Li 0.33968 0.94748 0.25578 0.0
Li706 Li 0.31551 0.94782 0.23022 0.0
Li707 Li 0.31019 0.92275 0.26049 0.0
C708 C 0.34071 0.98275 0.26663 0.0
N709 N 0.35239 0.0136 0.29776 0.0
C710 C 0.35665 0.98995 0.28185 0.0
C711 C 0.33075 0.99127 0.26716 0.0
C712 C 0.36232 0.00556 0.29746 0.0
C713 C 0.33686 0.00683 0.28306 0.0
C714 C 0.32392 0.92309 0.3111 0.0
C715 C 0.32575 0.89758 0.32618 0.0
N716 N 0.31526 0.89558 0.3492 0.0
C717 C 0.31317 0.92078 0.33494 0.0
C718 C 0.3303 0.91142 0.30672 0.0
C719 C 0.30896 0.9068 0.35395 0.0
C720 C 0.29731 0.96104 0.3175 0.0
N721 N 0.31287 0.96118 0.31417 0.0
C722 C 0.32147 0.97138 0.36228 0.0
C723 C 0.32506 0.96659 0.33561 0.0
C724 C 0.30522 0.97069 0.36675 0.0
C725 C 0.29325 0.96596 0.34379 0.0
H726 H 0.28774 0.95638 0.30023 0.0
H727 H 0.3372 0.96632 0.33238 0.0
C728 C 0.37396 0.96646 0.2325 0.0
N729 N 0.36427 0.95524 0.25406 0.0
C730 C 0.39212 0.97282 0.23067 0.0
C731 C 0.39006 0.95621 0.27363 0.0
C732 C 0.37192 0.95016 0.27457 0.0
C733 C 0.40041 0.96772 0.25147 0.0
H734 H 0.36757 0.97061 0.21687 0.0
H735 H 0.36401 0.94157 0.29186 0.0
C736 C 0.28185 0.93243 0.2435 0.0
N737 N 0.25331 0.92748 0.21071 0.0
C738 C 0.27047 0.91587 0.23142 0.0
C739 C 0.27869 0.94645 0.239 0.0
C740 C 0.2561 0.91364 0.21492 0.0
C741 C 0.26421 0.94369 0.2223 0.0
C742 C 0.33668 0.93054 0.20762 0.0
C743 C 0.34201 0.9406 0.18235 0.0
C744 C 0.3446 0.92064 0.21548 0.0
C745 C 0.35531 0.94069 0.16546 0.0
C746 C 0.35788 0.92111 0.19805 0.0
N747 N 0.36292 0.93105 0.17362 0.0
C748 C 0.31709 0.97246 0.18972 0.0
C749 C 0.29878 0.94251 0.17593 0.0
C750 C 0.31405 0.97825 0.16349 0.0
N751 N 0.30956 0.95488 0.19533 0.0
C752 C 0.29524 0.9477 0.14949 0.0
C753 C 0.30314 0.96581 0.14279 0.0
H754 H 0.3259 0.982 0.20528 0.0
H755 H 0.29321 0.92861 0.18082 0.0
C756 C 0.28346 0.89412 0.28819 0.0
N757 N 0.29616 0.89819 0.26796 0.0
C758 C 0.2741 0.87709 0.29938 0.0
C759 C 0.29019 0.86831 0.26725 0.0
C760 C 0.29948 0.8857 0.2569 0.0
C761 C 0.27768 0.86405 0.28932 0.0
H762 H 0.28117 0.90438 0.29654 0.0
H763 H 0.30973 0.88936 0.2409 0.0
O764 O 0.33472 0.96727 0.25175 0.0
O765 O 0.3278 0.93641 0.29177 0.0
O766 O 0.29611 0.93494 0.25942 0.0
O767 O 0.32392 0.93054 0.22473 0.0
H768 H 0.36447 0.98348 0.28186 0.0
H769 H 0.3183 0.98578 0.25572 0.0
H770 H 0.37459 0.01125 0.30942 0.0
H771 H 0.32923 0.01351 0.2838 0.0
H772 H 0.33047 0.88837 0.3229 0.0
H773 H 0.30783 0.92945 0.33848 0.0
H774 H 0.33838 0.91279 0.28816 0.0
H775 H 0.30056 0.90481 0.37236 0.0
H776 H 0.33105 0.9751 0.3795 0.0
H777 H 0.28055 0.96517 0.34661 0.0
H778 H 0.39965 0.98192 0.21354 0.0
H779 H 0.39588 0.95188 0.29002 0.0
H780 H 0.27277 0.9049 0.23452 0.0
H781 H 0.28748 0.95939 0.24793 0.0
H782 H 0.24722 0.90092 0.20536 0.0
H783 H 0.26167 0.95446 0.21848 0.0
H784 H 0.33608 0.9484 0.17598 0.0
H785 H 0.34071 0.91288 0.23505 0.0
H786 H 0.35963 0.94848 0.14593 0.0
H787 H 0.36422 0.91363 0.204 0.0
H788 H 0.32076 0.99232 0.15909 0.0
H789 H 0.28664 0.93765 0.13431 0.0
H790 H 0.26435 0.87418 0.31608 0.0
H791 H 0.29321 0.85852 0.25898 0.0
Li792 Li 0.37253 0.32034 0.60688 0.0
Li793 Li 0.39734 0.34605 0.58554 0.0
Li794 Li 0.37451 0.32314 0.55427 0.0
Li795 Li 0.39569 0.31797 0.58044 0.0
C796 C 0.36822 0.3501 0.59784 0.0
N797 N 0.36124 0.37315 0.62827 0.0
C798 C 0.37294 0.3536 0.62685 0.0
C799 C 0.35986 0.35828 0.58434 0.0
C800 C 0.36933 0.3653 0.64186 0.0
C801 C 0.35647 0.36991 0.60008 0.0
C802 C 0.41137 0.34139 0.63475 0.0
C803 C 0.44249 0.36118 0.64326 0.0
N804 N 0.43879 0.3635 0.67083 0.0
C805 C 0.40789 0.34387 0.66325 0.0
C806 C 0.42881 0.35002 0.62472 0.0
C807 C 0.42193 0.35513 0.68112 0.0
C808 C 0.36134 0.30432 0.66079 0.0
N809 N 0.35666 0.31114 0.63839 0.0
C810 C 0.33052 0.3061 0.66301 0.0
C811 C 0.34144 0.31182 0.63878 0.0
C812 C 0.3354 0.29972 0.68708 0.0
C813 C 0.35088 0.29857 0.68554 0.0
H814 H 0.37349 0.30386 0.65973 0.0
H815 H 0.33797 0.31718 0.62054 0.0
C816 C 0.42034 0.37951 0.563 0.0
N817 N 0.41294 0.37103 0.58811 0.0
C818 C 0.43208 0.39772 0.56272 0.0
C819 C 0.42828 0.39822 0.61418 0.0
C820 C 0.41648 0.38003 0.6134 0.0
C821 C 0.43632 0.40734 0.58861 0.0
H822 H 0.41709 0.3721 0.5431 0.0
H823 H 0.41032 0.37315 0.6331 0.0
C824 C 0.35223 0.28913 0.57656 0.0
N825 N 0.31717 0.2627 0.57455 0.0
C826 C 0.34776 0.2714 0.57863 0.0
C827 C 0.33889 0.29344 0.57347 0.0
C828 C 0.32995 0.25822 0.57757 0.0
C829 C 0.32124 0.27988 0.5725 0.0
C830 C 0.4118 0.33401 0.53142 0.0
C831 C 0.40514 0.32238 0.50809 0.0
C832 C 0.43007 0.34397 0.53577 0.0
C833 C 0.4169 0.32063 0.4898 0.0
C834 C 0.44139 0.34185 0.517 0.0
N835 N 0.43463 0.33031 0.49461 0.0
C836 C 0.3601 0.33323 0.51002 0.0
C837 C 0.35385 0.30356 0.50575 0.0
C838 C 0.35043 0.33153 0.48516 0.0
N839 N 0.36151 0.31933 0.51984 0.0
C840 C 0.34407 0.30128 0.48069 0.0
C841 C 0.34222 0.31538 0.47018 0.0
H842 H 0.36659 0.34567 0.52148 0.0
H843 H 0.35532 0.29277 0.51398 0.0
C844 C 0.41858 0.3064 0.60176 0.0
N845 N 0.40789 0.30504 0.57945 0.0
C846 C 0.42558 0.29514 0.6035 0.0
C847 C 0.41084 0.28157 0.55882 0.0
C848 C 0.40403 0.29302 0.55806 0.0
C849 C 0.42141 0.28222 0.58219 0.0
H850 H 0.42094 0.31556 0.61905 0.0
H851 H 0.39503 0.29182 0.54105 0.0
O852 O 0.37159 0.33864 0.58271 0.0
O853 O 0.39778 0.33052 0.61684 0.0
O854 O 0.36962 0.30214 0.5777 0.0
O855 O 0.40049 0.33582 0.54966 0.0
H856 H 0.37932 0.34734 0.63767 0.0
H857 H 0.35599 0.35564 0.56196 0.0
H858 H 0.37295 0.36812 0.66431 0.0
H859 H 0.35002 0.37634 0.58988 0.0
H860 H 0.45603 0.368 0.63571 0.0
H861 H 0.3945 0.33726 0.67147 0.0
H862 H 0.43174 0.34814 0.60285 0.0
H863 H 0.41942 0.35724 0.70317 0.0
H864 H 0.31858 0.30698 0.66309 0.0
H865 H 0.3553 0.29397 0.70367 0.0
H866 H 0.43763 0.40419 0.54237 0.0
H867 H 0.43126 0.40499 0.63471 0.0
H868 H 0.35796 0.26787 0.58104 0.0
H869 H 0.3421 0.30709 0.57178 0.0
H870 H 0.32629 0.24443 0.57914 0.0
H871 H 0.31078 0.28302 0.57011 0.0
H872 H 0.39105 0.31463 0.50433 0.0
H873 H 0.43547 0.35332 0.55333 0.0
H874 H 0.41192 0.31157 0.4718 0.0
H875 H 0.45556 0.34943 0.52018 0.0
H876 H 0.34967 0.34285 0.47747 0.0
H877 H 0.33792 0.28861 0.46982 0.0
H878 H 0.43329 0.29588 0.62226 0.0
H879 H 0.40734 0.27187 0.54184 0.0
Li880 Li 0.04948 0.39735 0.92678 0.0
Li881 Li 0.04996 0.37309 0.95236 0.0
Li882 Li 0.07557 0.39475 0.92547 0.0
Li883 Li 0.04872 0.37272 0.90107 0.0
C884 C 0.079 0.40912 0.97573 0.0
N885 N 0.10975 0.4295 0.00651 0.0
C886 C 0.08461 0.40125 -0.00374 0.0
C887 C 0.08902 0.42735 0.97088 0.0
C888 C 0.10019 0.41179 0.01161 0.0
C889 C 0.10453 0.43742 0.98665 0.0
C890 C 0.0168 0.36282 0.9455 0.0
C891 C 0.99543 0.33538 0.96785 0.0
N892 N 0.98939 0.34432 0.98388 0.0
C893 C 0.01037 0.37173 0.96216 0.0
C894 C 0.00925 0.34449 0.94829 0.0
C895 C 0.9965 0.36213 0.98143 0.0
C896 C 0.02794 0.41027 0.90611 0.0
N897 N 0.04022 0.41297 0.92649 0.0
C898 C 0.0392 0.43803 0.94475 0.0
C899 C 0.04574 0.42634 0.94593 0.0
C900 C 0.02694 0.4359 0.92329 0.0
C901 C 0.02122 0.42175 0.90391 0.0
H902 H 0.02351 0.39927 0.89136 0.0
H903 H 0.05525 0.42796 0.96227 0.0
C904 C 0.04317 0.34412 0.98883 0.0
N905 N 0.0431 0.35963 0.98678 0.0
C906 C 0.03883 0.33484 0.01482 0.0
C907 C 0.03469 0.35783 0.03608 0.0
C908 C 0.0389 0.36654 0.00963 0.0
C909 C 0.03475 0.34184 0.0389 0.0
H910 H 0.04688 0.33911 0.97049 0.0
H911 H 0.03909 0.37897 0.00735 0.0
C912 C 0.06225 0.41017 0.87524 0.0
N913 N 0.05818 0.43408 0.84174 0.0
C914 C 0.05115 0.40434 0.85118 0.0
C915 C 0.07138 0.42817 0.88216 0.0
C916 C 0.04927 0.41664 0.83452 0.0
C917 C 0.0691 0.44004 0.86501 0.0
C918 C 0.0665 0.35657 0.90962 0.0
C919 C 0.08158 0.36198 0.89261 0.0
C920 C 0.05284 0.33893 0.90866 0.0
C921 C 0.08278 0.34962 0.87506 0.0
C922 C 0.05453 0.32699 0.89077 0.0
N923 N 0.06935 0.33253 0.8745 0.0
C924 C 0.10759 0.3979 0.94015 0.0
C925 C 0.11122 0.42299 0.91435 0.0
C926 C 0.12582 0.40525 0.94242 0.0
N927 N 0.10068 0.40671 0.92607 0.0
C928 C 0.12965 0.43102 0.91657 0.0
C929 C 0.13705 0.42196 0.93047 0.0
H930 H 0.09886 0.3851 0.94961 0.0
H931 H 0.10537 0.42974 0.90344 0.0
C932 C 0.02222 0.34568 0.8672 0.0
N933 N 0.03964 0.35822 0.86802 0.0
C934 C 0.01516 0.33508 0.84286 0.0
C935 C 0.04416 0.35042 0.8208 0.0
C936 C 0.05063 0.36078 0.84552 0.0
C937 C 0.02616 0.33748 0.81918 0.0
H938 H 0.01376 0.34407 0.88528 0.0
H939 H 0.06438 0.37105 0.84669 0.0
O940 O 0.06406 0.39895 0.95988 0.0
O941 O 0.03067 0.37203 0.92703 0.0
O942 O 0.06405 0.3983 0.89208 0.0
O943 O 0.06493 0.36854 0.92662 0.0
H944 H 0.07719 0.38714 2e-05 0.0
H945 H 0.08504 0.43362 0.95476 0.0
H946 H 0.10473 0.40587 0.02747 0.0
H947 H 0.11247 0.45152 0.98298 0.0
H948 H 0.98956 0.32122 0.97039 0.0
H949 H 0.01612 0.38591 0.96046 0.0
H950 H 0.01422 0.3374 0.93587 0.0
H951 H 0.99143 0.36887 0.99453 0.0
H952 H 0.04392 0.4488 0.96008 0.0
H953 H 0.01157 0.41951 0.88737 0.0
H954 H 0.03915 0.32261 0.01632 0.0
H955 H 0.03145 0.36354 0.05415 0.0
H956 H 0.04391 0.39046 0.84557 0.0
H957 H 0.07983 0.43288 0.90092 0.0
H958 H 0.04065 0.41231 0.81591 0.0
H959 H 0.07594 0.45399 0.87027 0.0
H960 H 0.09214 0.37561 0.89259 0.0
H961 H 0.04089 0.33458 0.9211 0.0
H962 H 0.09435 0.35364 0.86174 0.0
H963 H 0.04402 0.31335 0.88969 0.0
H964 H 0.13111 0.39801 0.95361 0.0
H965 H 0.138 0.44395 0.90715 0.0
H966 H 0.00123 0.32521 0.84246 0.0
H967 H 0.053 0.3529 0.80281 0.0
Li968 Li 0.64958 0.05454 0.24536 0.0
Li969 Li 0.67252 0.05192 0.26926 0.0
Li970 Li 0.67757 0.07974 0.24648 0.0
Li971 Li 0.673 0.05526 0.21563 0.0
C972 C 0.65016 0.06539 0.29915 0.0
N973 N 0.62398 0.06124 0.33717 0.0
C974 C 0.64504 0.05311 0.32159 0.0
C975 C 0.64208 0.07568 0.29622 0.0
C976 C 0.63176 0.05119 0.34056 0.0
C977 C 0.62882 0.07334 0.31559 0.0
C978 C 0.6394 0.0207 0.23927 0.0
C979 C 0.61173 0.003 0.21436 0.0
N980 N 0.6057 0.99158 0.237 0.0
C981 C 0.6329 0.00881 0.26232 0.0
C982 C 0.62873 0.01779 0.21509 0.0
C983 C 0.61584 0.99415 0.26073 0.0
C984 C 0.6178 0.05218 0.22532 0.0
N985 N 0.62465 0.04649 0.24631 0.0
C986 C 0.59603 0.02908 0.2675 0.0
C987 C 0.61414 0.03509 0.26711 0.0
C988 C 0.58859 0.03478 0.24617 0.0
C989 C 0.59973 0.04647 0.22484 0.0
H990 H 0.62636 0.06106 0.2088 0.0
H991 H 0.61976 0.03046 0.28327 0.0
C992 C 0.68734 0.05352 0.32299 0.0
N993 N 0.67974 0.04278 0.29994 0.0
C994 C 0.69211 0.04732 0.34709 0.0
C995 C 0.68181 0.01936 0.32272 0.0
C996 C 0.67727 0.02613 0.29904 0.0
C997 C 0.68906 0.02991 0.34735 0.0
H998 H 0.68924 0.06676 0.32289 0.0
H999 H 0.67154 0.01803 0.28011 0.0
C1000 C 0.66564 0.08541 0.19867 0.0
N1001 N 0.6741 0.11702 0.17212 0.0
C1002 C 0.67616 0.09075 0.17392 0.0
C1003 C 0.65921 0.09602 0.20969 0.0
C1004 C 0.68034 0.1068 0.16086 0.0
C1005 C 0.6637 0.112 0.19604 0.0
C1006 C 0.70532 0.06406 0.24265 0.0
C1007 C 0.72302 0.07693 0.24688 0.0
C1008 C 0.70085 0.04652 0.2375 0.0
C1009 C 0.73601 0.07204 0.24591 0.0
C1010 C 0.71422 0.04216 0.23669 0.0
N1011 N 0.73137 0.05489 0.24088 0.0
C1012 C 0.68876 0.11226 0.27422 0.0
C1013 C 0.70448 0.1142 0.23146 0.0
C1014 C 0.69994 0.13022 0.27966 0.0
N1015 N 0.69134 0.10463 0.25063 0.0
C1016 C 0.71587 0.13226 0.2359 0.0
C1017 C 0.71394 0.14043 0.26064 0.0
H1018 H 0.67847 0.10426 0.28944 0.0
H1019 H 0.7064 0.10768 0.21315 0.0
C1020 C 0.66936 0.03306 0.16894 0.0
N1021 N 0.6802 0.04903 0.18113 0.0
C1022 C 0.67441 0.02807 0.14379 0.0
C1023 C 0.70205 0.05582 0.1447 0.0
C1024 C 0.69633 0.06037 0.1697 0.0
C1025 C 0.69097 0.03949 0.13127 0.0
H1026 H 0.65678 0.02414 0.17871 0.0
H1027 H 0.70479 0.07293 0.1801 0.0
O1028 O 0.66315 0.06746 0.28036 0.0
O1029 O 0.65601 0.03523 0.24054 0.0
O1030 O 0.6616 0.06985 0.212 0.0
O1031 O 0.69249 0.0687 0.24357 0.0
H1032 H 0.65105 0.04494 0.32412 0.0
H1033 H 0.6459 0.08528 0.27905 0.0
H1034 H 0.62758 0.04165 0.35791 0.0
H1035 H 0.62238 0.08113 0.31345 0.0
H1036 H 0.6033 0.00067 0.19588 0.0
H1037 H 0.6408 0.01098 0.28142 0.0
H1038 H 0.63335 0.02709 0.19736 0.0
H1039 H 0.61063 0.98487 0.27845 0.0
H1040 H 0.58789 0.01983 0.28404 0.0
H1041 H 0.59457 0.05129 0.2081 0.0
H1042 H 0.69746 0.05583 0.36574 0.0
H1043 H 0.67946 0.00594 0.32192 0.0
H1044 H 0.68111 0.08262 0.16495 0.0
H1045 H 0.65096 0.09203 0.22871 0.0
H1046 H 0.68856 0.11115 0.14178 0.0
H1047 H 0.65893 0.12041 0.20447 0.0
H1048 H 0.72667 0.09057 0.25087 0.0
H1049 H 0.68722 0.03639 0.23411 0.0
H1050 H 0.74977 0.08186 0.24915 0.0
H1051 H 0.71095 0.02864 0.23272 0.0
H1052 H 0.69813 0.13579 0.29934 0.0
H1053 H 0.72636 0.13962 0.2205 0.0
H1054 H 0.66524 0.01549 0.13405 0.0
H1055 H 0.71502 0.06496 0.13614 0.0
C1056 C 0.30609 0.32348 0.22413 0.0
C1057 C 0.3004 0.33553 0.21731 0.0
C1058 C 0.30565 0.31801 0.25251 0.0
C1059 C 0.30763 0.33439 0.32576 0.0
H1060 H 0.30125 0.28863 0.34748 0.0
C1061 C 0.32136 0.3211 0.44116 0.0
C1062 C 0.33231 0.3136 0.44326 0.0
C1063 C 0.31343 0.321 0.415 0.0
C1064 C 0.30306 0.30147 0.34171 0.0
H1065 H 0.28881 0.35051 0.23477 0.0
H1066 H 0.28761 0.3406 0.28422 0.0
H1067 H 0.29393 0.29323 0.29861 0.0
H1068 H 0.34299 0.29952 0.41986 0.0
H1069 H 0.3292 0.29941 0.37414 0.0
H1070 H 0.31721 0.34282 0.36848 0.0
C1071 C 0.29275 0.33565 0.26766 0.0
C1072 C 0.29888 0.3041 0.31375 0.0
C1073 C 0.29326 0.34117 0.23925 0.0
C1074 C 0.3345 0.30527 0.41898 0.0
C1075 C 0.32657 0.30518 0.3928 0.0
C1076 C 0.31174 0.33174 0.35367 0.0
C1077 C 0.29942 0.32441 0.27473 0.0
C1078 C 0.30149 0.32073 0.30529 0.0
C1079 C 0.31628 0.3134 0.39038 0.0
C1080 C 0.30986 0.31537 0.36179 0.0
H1081 H 0.31138 0.31864 0.20762 0.0
H1082 H 0.31101 0.30944 0.25718 0.0
H1083 H 0.31011 0.34745 0.31989 0.0
H1084 H 0.31913 0.3273 0.45965 0.0
H1085 H 0.30532 0.32717 0.41391 0.0
C1086 C 0.96349 0.28689 0.58019 0.0
C1087 C 0.97301 0.30225 0.56348 0.0
C1088 C 0.96943 0.2858 0.60767 0.0
C1089 C 0.00826 0.3083 0.65695 0.0
H1090 H 0.9724 0.29147 0.71664 0.0
C1091 C 0.00286 0.32558 0.78109 0.0
C1092 C 0.01869 0.32749 0.79217 0.0
C1093 C 0.99663 0.31781 0.75424 0.0
C1094 C 0.98258 0.29618 0.70023 0.0
H1095 H 0.99628 0.32841 0.56225 0.0
H1096 H 0.00646 0.32668 0.6101 0.0
H1097 H 0.96349 0.28709 0.66632 0.0
H1098 H 0.03991 0.32187 0.78464 0.0
H1099 H 0.02891 0.30806 0.73767 0.0
H1100 H 0.02736 0.31858 0.69077 0.0
C1101 C 0.99467 0.31525 0.60187 0.0
C1102 C 0.97747 0.29346 0.67134 0.0
C1103 C 0.9888 0.31629 0.57443 0.0
C1104 C 0.02779 0.32078 0.7764 0.0
C1105 C 0.02149 0.31289 0.74954 0.0
C1106 C 0.01337 0.31116 0.68582 0.0
C1107 C 0.98494 0.30011 0.61901 0.0
C1108 C 0.99027 0.30006 0.64937 0.0
C1109 C 0.00604 0.31166 0.73787 0.0
C1110 C 0.00059 0.30569 0.70776 0.0
H1111 H 0.95138 0.27578 0.57211 0.0
H1112 H 0.96174 0.27387 0.62019 0.0
H1113 H 0.01844 0.31322 0.64053 0.0
H1114 H 0.99568 0.33084 0.79256 0.0
H1115 H 0.98489 0.31743 0.74574 0.0
C1116 C 0.68992 0.9965 0.88275 0.0
C1117 C 0.67485 0.97947 0.88181 0.0
C1118 C 0.6976 0.0043 0.90908 0.0
C1119 C 0.70049 0.99593 0.98581 0.0
H1120 H 0.69838 0.03871 -0.00109 0.0
C1121 C 0.69089 0.01673 0.09806 0.0
C1122 C 0.69621 0.03452 0.10387 0.0
C1123 C 0.69362 0.01165 0.07095 0.0
C1124 C 0.69961 0.02709 0.99564 0.0
H1125 H 0.65667 0.95705 0.90807 0.0
H1126 H 0.67047 0.97046 0.95369 0.0
H1127 H 0.69396 0.0265 0.95069 0.0
H1128 H 0.70984 0.06111 0.08613 0.0
H1129 H 0.71546 0.05238 0.03941 0.0
H1130 H 0.70599 0.99635 0.03075 0.0
C1131 C 0.67626 0.97773 0.93399 0.0
C1132 C 0.69698 0.02006 0.96792 0.0
C1133 C 0.66837 0.97004 0.90775 0.0
C1134 C 0.70553 0.04728 0.08252 0.0
C1135 C 0.70855 0.04223 0.0555 0.0
C1136 C 0.70346 0.00314 0.0135 0.0
C1137 C 0.69061 0.99509 0.93493 0.0
C1138 C 0.69679 0.00411 0.96297 0.0
C1139 C 0.70207 0.02426 0.04903 0.0
C1140 C 0.70237 0.01844 0.01898 0.0
H1141 H 0.69556 0.004 0.8632 0.0
H1142 H 0.70874 0.01768 0.90932 0.0
H1143 H 0.70056 0.98368 0.9824 0.0
H1144 H 0.6841 0.00658 0.11422 0.0
H1145 H 0.68829 0.99767 0.06689 0.0
C1146 C 0.695 0.65091 0.2434 0.0
C1147 C 0.69077 0.6588 0.22067 0.0
C1148 C 0.69572 0.6566 0.2717 0.0
C1149 C 0.69534 0.69178 0.31696 0.0
H1150 H 0.67155 0.65314 0.3713 0.0
C1151 C 0.6623 0.69552 0.42273 0.0
C1152 C 0.66324 0.68622 0.44675 0.0
C1153 C 0.66961 0.69471 0.39637 0.0
C1154 C 0.67852 0.66414 0.35657 0.0
H1155 H 0.68521 0.67973 0.20981 0.0
H1156 H 0.68562 0.68907 0.25925 0.0
H1157 H 0.67727 0.64702 0.32279 0.0
H1158 H 0.67376 0.66994 0.46261 0.0
H1159 H 0.68636 0.6684 0.41656 0.0
H1160 H 0.69576 0.70873 0.35078 0.0
C1161 C 0.68864 0.67865 0.2552 0.0
C1162 C 0.68186 0.66064 0.32871 0.0
C1163 C 0.68812 0.67309 0.22684 0.0
C1164 C 0.67248 0.67691 0.4443 0.0
C1165 C 0.67973 0.67607 0.41799 0.0
C1166 C 0.69186 0.69526 0.34488 0.0
C1167 C 0.69201 0.67017 0.27806 0.0
C1168 C 0.69011 0.67437 0.30841 0.0
C1169 C 0.67795 0.68456 0.39358 0.0
C1170 C 0.68322 0.68142 0.36483 0.0
H1171 H 0.69702 0.6398 0.23958 0.0
H1172 H 0.69871 0.65 0.28871 0.0
H1173 H 0.70195 0.70269 0.302 0.0
H1174 H 0.65518 0.70271 0.4239 0.0
H1175 H 0.66791 0.70126 0.37785 0.0
C1176 C 0.95919 0.66601 0.74243 0.0
C1177 C 0.97214 0.66902 0.76316 0.0
C1178 C 0.96409 0.6726 0.71447 0.0
C1179 C 0.00282 0.70274 0.66861 0.0
H1180 H 0.97674 0.66783 0.60967 0.0
C1181 C 0.03241 0.69825 0.56044 0.0
C1182 C 0.02147 0.69245 0.53597 0.0
C1183 C 0.02567 0.6995 0.58706 0.0
C1184 C 0.98396 0.67791 0.62572 0.0
H1185 H 0.0004 0.68235 0.77127 0.0
H1186 H 0.00894 0.69318 0.72238 0.0
H1187 H 0.96592 0.66235 0.65886 0.0
H1188 H 0.99529 0.68486 0.51978 0.0
H1189 H 0.98347 0.68684 0.5664 0.0
H1190 H 0.02139 0.71781 0.63542 0.0
C1191 C 0.99498 0.68595 0.72769 0.0
C1192 C 0.97774 0.67478 0.654 0.0
C1193 C 0.99008 0.67948 0.75567 0.0
C1194 C 0.00395 0.68899 0.53836 0.0
C1195 C 0.99719 0.69017 0.565 0.0
C1196 C 0.00913 0.7058 0.6403 0.0
C1197 C 0.98205 0.68224 0.70656 0.0
C1198 C 0.98733 0.68694 0.67595 0.0
C1199 C 0.00783 0.69494 0.58977 0.0
C1200 C -3e-05 0.69321 0.61872 0.0
H1201 H 0.94524 0.65797 0.74742 0.0
H1202 H 0.95379 0.66973 0.69883 0.0
H1203 H 0.01035 0.71253 0.68489 0.0
H1204 H 0.04591 0.70086 0.55943 0.0
H1205 H 0.03414 0.70303 0.60581 0.0
C1206 C 0.30053 0.98742 0.11013 0.0
C1207 C 0.30121 0.97175 0.11369 0.0
C1208 C 0.30098 0.99413 0.08261 0.0
C1209 C 0.29602 0.98303 0.00501 0.0
H1210 H 0.33352 0.03166 0.99507 0.0
C1211 C 0.3319 0.00956 0.89774 0.0
C1212 C 0.33835 0.02734 0.89019 0.0
C1213 C 0.3237 0.00307 0.92425 0.0
C1214 C 0.32271 0.0182 -0.00255 0.0
H1215 H 0.30222 0.95054 0.09092 0.0
H1216 H 0.30269 0.96208 0.04312 0.0
H1217 H 0.32504 0.01941 0.04335 0.0
H1218 H 0.34067 0.05213 0.9042 0.0
H1219 H 0.32604 0.04069 0.9505 0.0
H1220 H 0.294 0.98166 0.95906 0.0
C1221 C 0.3017 0.96911 0.06159 0.0
C1222 C 0.31787 0.01118 0.02515 0.0
C1223 C 0.30141 0.96248 0.08906 0.0
C1224 C 0.33582 0.03835 0.90937 0.0
C1225 C 0.32757 0.03183 0.93597 0.0
C1226 C 0.30078 0.99008 0.9773 0.0
C1227 C 0.30193 0.98522 0.0581 0.0
C1228 C 0.30485 0.99337 0.02916 0.0
C1229 C 0.32165 0.01418 0.94388 0.0
C1230 C 0.31458 0.00758 0.97317 0.0
H1231 H 0.30003 0.99471 0.12862 0.0
H1232 H 0.30094 0.00648 0.08051 0.0
H1233 H 0.28576 0.96933 0.00751 0.0
H1234 H 0.33335 0.00065 0.88322 0.0
H1235 H 0.31952 0.98947 0.92973 0.0
C1236 C 0.16716 0.44585 0.94586 0.0
C1237 C 0.15637 0.42948 0.93243 0.0
C1238 C 0.18496 0.45145 0.95162 0.0
C1239 C 0.22076 0.44123 0.93557 0.0
H1240 H 0.23213 0.4507 0.01672 0.0
C1241 C 0.25618 0.41312 -0.00078 0.0
C1242 C 0.27113 0.4244 0.01581 0.0
C1243 C 0.24609 0.41944 0.98613 0.0
C1244 C 0.22938 0.44854 0.99387 0.0
H1245 H 0.15574 0.40669 0.91279 0.0
H1246 H 0.18659 0.41633 0.92264 0.0
H1247 H 0.20694 0.45222 -0.00309 0.0
H1248 H 0.28686 0.45126 0.03198 0.0
H1249 H 0.2684 0.46203 0.01006 0.0
H1250 H 0.24226 0.43603 0.93318 0.0
C1251 C 0.18155 0.42497 0.9287 0.0
C1252 C 0.215 0.44944 0.98248 0.0
C1253 C 0.16383 0.41934 0.92327 0.0
C1254 C 0.27539 0.44213 0.01956 0.0
C1255 C 0.26497 0.44838 0.00685 0.0
C1256 C 0.23498 0.44017 0.947 0.0
C1257 C 0.19222 0.44085 0.94362 0.0
C1258 C 0.21002 0.44488 0.95354 0.0
C1259 C 0.2504 0.43709 0.98974 0.0
C1260 C 0.23886 0.443 0.97649 0.0
H1261 H 0.1616 0.45384 0.95319 0.0
H1262 H 0.19289 0.46376 0.96308 0.0
H1263 H 0.21745 0.43801 0.91307 0.0
H1264 H 0.25206 0.39926 -0.00344 0.0
H1265 H 0.23462 0.41037 0.9736 0.0
C1266 C 0.83992 0.27441 0.35647 0.0
C1267 C 0.84424 0.2678 0.38087 0.0
C1268 C 0.82381 0.2641 0.34229 0.0
C1269 C 0.79723 0.23317 0.30566 0.0
H1270 H 0.75332 0.20198 0.3453 0.0
C1271 C 0.74542 0.16512 0.26326 0.0
C1272 C 0.72736 0.15894 0.2682 0.0
C1273 C 0.75829 0.18155 0.27376 0.0
C1274 C 0.76536 0.21082 0.3338 0.0
H1275 H 0.8348 0.24576 0.41056 0.0
H1276 H 0.80669 0.22773 0.38585 0.0
H1277 H 0.77802 0.2254 0.37205 0.0
H1278 H 0.70866 0.16581 0.28642 0.0
H1279 H 0.73125 0.19442 0.30535 0.0
H1280 H 0.78481 0.21816 0.26765 0.0
C1281 C 0.81568 0.24087 0.37768 0.0
C1282 C 0.77954 0.22411 0.34917 0.0
C1283 C 0.83182 0.2511 0.39169 0.0
C1284 C 0.72246 0.17001 0.28271 0.0
C1285 C 0.73537 0.18641 0.29346 0.0
C1286 C 0.78309 0.21982 0.29033 0.0
C1287 C 0.81169 0.24708 0.35244 0.0
C1288 C 0.79578 0.23507 0.33543 0.0
C1289 C 0.75341 0.19216 0.28962 0.0
C1290 C 0.7672 0.20818 0.30444 0.0
H1291 H 0.84933 0.28719 0.34754 0.0
H1292 H 0.82103 0.26924 0.32296 0.0
H1293 H 0.80961 0.24135 0.29451 0.0
H1294 H 0.74974 0.15689 0.25263 0.0
H1295 H 0.7721 0.1855 0.27083 0.0
C1296 C 0.57925 0.83446 0.71599 0.0
C1297 C 0.57437 0.84665 0.70633 0.0
C1298 C 0.57305 0.81831 0.7019 0.0
C1299 C 0.55276 0.78205 0.674 0.0
H1300 H 0.56352 0.78749 0.5923 0.0
C1301 C 0.55136 0.72562 0.60893 0.0
C1302 C 0.56768 0.73091 0.59532 0.0
C1303 C 0.54709 0.73822 0.61845 0.0
C1304 C 0.56023 0.78571 0.61501 0.0
H1305 H 0.55883 0.85146 0.67504 0.0
H1306 H 0.54811 0.82317 0.65002 0.0
H1307 H 0.56495 0.81215 0.61951 0.0
H1308 H 0.59173 0.75358 0.57937 0.0
H1309 H 0.58414 0.77542 0.59547 0.0
H1310 H 0.54897 0.75597 0.66989 0.0
C1311 C 0.55661 0.82608 0.66863 0.0
C1312 C 0.56092 0.79976 0.63053 0.0
C1313 C 0.56263 0.84217 0.68301 0.0
C1314 C 0.57897 0.74897 0.58945 0.0
C1315 C 0.57463 0.76154 0.59874 0.0
C1316 C 0.55192 0.76796 0.65844 0.0
C1317 C 0.56203 0.81415 0.67764 0.0
C1318 C 0.55782 0.79826 0.66038 0.0
C1319 C 0.55895 0.75634 0.61424 0.0
C1320 C 0.55627 0.76987 0.62901 0.0
H1321 H 0.58827 0.83765 0.73395 0.0
H1322 H 0.57761 0.80946 0.70911 0.0
H1323 H 0.55019 0.78052 0.69695 0.0
H1324 H 0.54218 0.71178 0.61324 0.0
H1325 H 0.5348 0.73384 0.63002 0.0
C1326 C 0.72855 0.55906 0.05064 0.0
C1327 C 0.73192 0.57528 0.06257 0.0
C1328 C 0.74254 0.5563 0.04327 0.0
C1329 C 0.79113 0.57523 0.05254 0.0
H1330 H 0.78942 0.55826 0.97474 0.0
C1331 C 0.85218 0.59937 0.98209 0.0
C1332 C 0.85524 0.58684 0.96811 0.0
C1333 C 0.83628 0.59415 -0.00365 0.0
C1334 C 0.78995 0.56269 -0.0033 0.0
H1335 H 0.75267 0.60116 0.07655 0.0
H1336 H 0.77685 0.59637 0.0639 0.0
H1337 H 0.76263 0.55552 -0.00351 0.0
H1338 H 0.84361 0.55895 0.95767 0.0
H1339 H 0.81534 0.54998 0.98176 0.0
H1340 H 0.81872 0.58346 0.05194 0.0
C1341 C 0.76345 0.58561 0.0607 0.0
C1342 C 0.77463 0.56109 0.00921 0.0
C1343 C 0.74953 0.58837 0.06799 0.0
C1344 C 0.84168 0.56898 0.968 0.0
C1345 C 0.82556 0.5638 0.98194 0.0
C1346 C 0.80643 0.57699 0.03994 0.0
C1347 C 0.76016 0.56969 0.04777 0.0
C1348 C 0.77524 0.56797 0.03687 0.0
C1349 C 0.82289 0.57634 -0.00343 0.0
C1350 C 0.8061 0.5713 0.01157 0.0
H1351 H 0.71511 0.54862 0.04652 0.0
H1352 H 0.73959 0.54382 0.0336 0.0
H1353 H 0.79194 0.58029 0.07412 0.0
H1354 H 0.86204 0.6133 0.98193 0.0
H1355 H 0.83435 0.60413 0.00692 0.0
C1356 C 0.16071 0.72306 0.36052 0.0
C1357 C 0.15503 0.72083 0.38935 0.0
C1358 C 0.17751 0.73667 0.35281 0.0
C1359 C 0.20969 0.78101 0.37665 0.0
H1360 H 0.23784 0.77895 0.31372 0.0
C1361 C 0.26796 0.84458 0.33262 0.0
C1362 C 0.26851 0.84627 0.30252 0.0
C1363 C 0.25749 0.82813 0.34555 0.0
C1364 C 0.23011 0.77973 0.3313 0.0
H1365 H 0.16305 0.73035 0.43296 0.0
H1366 H 0.19245 0.75424 0.41943 0.0
H1367 H 0.21326 0.75156 0.33294 0.0
H1368 H 0.2594 0.8321 0.26222 0.0
H1369 H 0.24065 0.80328 0.28476 0.0
H1370 H 0.22586 0.80908 0.37435 0.0
C1371 C 0.18375 0.74557 0.40278 0.0
C1372 C 0.21607 0.76406 0.34235 0.0
C1373 C 0.16692 0.73192 0.41051 0.0
C1374 C 0.25919 0.83108 0.28548 0.0
C1375 C 0.24853 0.8146 0.29844 0.0
C1376 C 0.22364 0.79663 0.36559 0.0
C1377 C 0.18902 0.74839 0.37373 0.0
C1378 C 0.20549 0.76458 0.36474 0.0
C1379 C 0.24717 0.81304 0.32865 0.0
C1380 C 0.2338 0.79622 0.3424 0.0
H1381 H 0.15182 0.71495 0.34359 0.0
H1382 H 0.18105 0.73863 0.33021 0.0
H1383 H 0.20161 0.78192 0.39354 0.0
H1384 H 0.27531 0.85611 0.34617 0.0
H1385 H 0.25708 0.82733 0.36883 0.0
C1386 C 0.40693 0.14889 0.66545 0.0
C1387 C 0.41935 0.14728 0.68255 0.0
C1388 C 0.41156 0.16461 0.65107 0.0
C1389 C 0.44043 0.21197 0.65391 0.0
H1390 H 0.42463 0.20963 0.5751 0.0
C1391 C 0.44252 0.27224 0.59883 0.0
C1392 C 0.42627 0.26829 0.58625 0.0
C1393 C 0.44586 0.25867 0.60643 0.0
C1394 C 0.42918 0.21052 0.59706 0.0
H1395 H 0.44639 0.16121 0.69833 0.0
H1396 H 0.45431 0.18908 0.67371 0.0
H1397 H 0.42254 0.18336 0.59755 0.0
H1398 H 0.40106 0.24694 0.571 0.0
H1399 H 0.40692 0.22348 0.58393 0.0
H1400 H 0.44615 0.23885 0.65401 0.0
C1401 C 0.44105 0.17793 0.67129 0.0
C1402 C 0.42801 0.19552 0.60987 0.0
C1403 C 0.43646 0.16203 0.68549 0.0
C1404 C 0.41385 0.25055 0.58014 0.0
C1405 C 0.41721 0.23704 0.58761 0.0
C1406 C 0.44151 0.227 0.64113 0.0
C1407 C 0.42866 0.17925 0.65369 0.0
C1408 C 0.43303 0.19593 0.63873 0.0
C1409 C 0.43307 0.24089 0.60145 0.0
C1410 C 0.43528 0.22623 0.61292 0.0
H1411 H 0.39348 0.13802 0.66333 0.0
H1412 H 0.40161 0.16542 0.63826 0.0
H1413 H 0.44432 0.2126 0.67623 0.0
H1414 H 0.45247 0.2858 0.60346 0.0
H1415 H 0.45829 0.26206 0.61677 0.0
C1416 C 0.31901 0.30691 0.72394 0.0
C1417 C 0.32532 0.29577 0.71448 0.0
C1418 C 0.31155 0.30474 0.75124 0.0
C1419 C 0.31509 0.28965 0.82257 0.0
H1420 H 0.27929 0.30215 0.8405 0.0
C1421 C 0.30469 0.30688 0.9383 0.0
C1422 C 0.3058 0.32349 0.93957 0.0
C1423 C 0.30226 0.29829 0.91182 0.0
C1424 C 0.2892 0.29848 0.83584 0.0
H1425 H 0.32765 0.27287 0.72564 0.0
H1426 H 0.31475 0.26923 0.77364 0.0
H1427 H 0.28334 0.29583 0.79076 0.0
H1428 H 0.3042 0.34367 0.91474 0.0
H1429 H 0.3 0.32879 0.86869 0.0
H1430 H 0.32152 0.29314 0.86744 0.0
C1431 C 0.31577 0.27974 0.75991 0.0
C1432 C 0.29154 0.29489 0.80739 0.0
C1433 C 0.3232 0.28187 0.73248 0.0
C1434 C 0.30361 0.33096 0.91426 0.0
C1435 C 0.30098 0.32233 0.88796 0.0
C1436 C 0.31271 0.2932 0.85105 0.0
C1437 C 0.31024 0.29142 0.76982 0.0
C1438 C 0.30502 0.2912 0.8003 0.0
C1439 C 0.3006 0.30606 0.88635 0.0
C1440 C 0.30027 0.29839 0.85774 0.0
H1441 H 0.32069 0.31794 0.71091 0.0
H1442 H 0.30773 0.31419 0.75836 0.0
H1443 H 0.32568 0.28697 0.81782 0.0
H1444 H 0.30635 0.30086 0.95758 0.0
H1445 H 0.30199 0.28574 0.91117 0.0
C1446 C 0.00101 0.31615 0.28255 0.0
C1447 C 0.98439 0.30256 0.29172 0.0
C1448 C 0.0079 0.31501 0.25609 0.0
C1449 C 0.99199 0.2956 0.18535 0.0
H1450 H 0.04226 0.31937 0.16866 0.0
C1451 C 0.01863 0.31465 0.06951 0.0
C1452 C 0.03096 0.3328 0.06709 0.0
C1453 C 0.01416 0.30655 0.0966 0.0
C1454 C 0.02817 0.31255 0.17301 0.0
H1455 H 0.96243 0.2766 0.28124 0.0
H1456 H 0.9746 0.27449 0.23494 0.0
H1457 H 0.0321 0.31226 0.21844 0.0
H1458 H 0.049 0.35649 0.09062 0.0
H1459 H 0.0412 0.34243 0.13782 0.0
H1460 H 0.98811 0.29658 0.14005 0.0
C1461 C 0.98219 0.28613 0.24813 0.0
C1462 C 0.02235 0.3085 0.20147 0.0
C1463 C 0.97529 0.28728 0.27471 0.0
C1464 C 0.0393 0.34252 0.09198 0.0
C1465 C 0.035 0.33441 0.11893 0.0
C1466 C 0.9978 0.29956 0.15688 0.0
C1467 C 0.99834 0.30022 0.23817 0.0
C1468 C 0.00425 0.3007 0.20805 0.0
C1469 C 0.02215 0.31643 0.12158 0.0
C1470 C 0.01598 0.30875 0.15058 0.0
H1471 H 0.00844 0.32796 0.29545 0.0
H1472 H 0.02028 0.3262 0.24901 0.0
H1473 H 0.97796 0.28973 0.18963 0.0
H1474 H 0.01202 0.3069 0.05059 0.0
H1475 H 0.00423 0.29267 0.09807 0.0
C1476 C 0.65831 0.9681 0.57831 0.0
C1477 C 0.66881 0.97684 0.60235 0.0
C1478 C 0.66517 0.9729 0.55057 0.0
C1479 C 0.69682 0.01099 0.51001 0.0
H1480 H 0.68501 0.97661 0.44884 0.0
C1481 C 0.70693 0.03261 0.39146 0.0
C1482 C 0.69204 0.02244 0.37405 0.0
C1483 C 0.70845 0.02638 0.41843 0.0
C1484 C 0.68844 0.98638 0.46567 0.0
H1485 H 0.69481 0.9971 0.61646 0.0
H1486 H 0.70681 0.00579 0.56757 0.0
H1487 H 0.67953 0.96674 0.49891 0.0
H1488 H 0.66742 0.99748 0.37082 0.0
H1489 H 0.66993 0.9867 0.41775 0.0
H1490 H 0.70475 0.03051 0.4769 0.0
C1491 C 0.69329 0.99516 0.57034 0.0
C1492 C 0.68535 0.98074 0.4943 0.0
C1493 C 0.68647 0.99018 0.59821 0.0
C1494 C 0.67916 0.00555 0.38354 0.0
C1495 C 0.68064 -0.00065 0.41049 0.0
C1496 C 0.6998 0.01663 0.48137 0.0
C1497 C 0.68263 0.98666 0.54627 0.0
C1498 C 0.68896 0.99292 0.51666 0.0
C1499 C 0.69507 0.00986 0.42857 0.0
C1500 C 0.69507 0.00431 0.45882 0.0
H1501 H 0.6447 0.95764 0.58097 0.0
H1502 H 0.65657 0.96627 0.53243 0.0
H1503 H 0.6996 0.02065 0.5268 0.0
H1504 H 0.7172 0.04558 0.3845 0.0
H1505 H 0.71987 0.03468 0.43165 0.0
C1506 C 0.67548 0.71708 0.73672 0.0
C1507 C 0.67253 0.70318 0.71804 0.0
C1508 C 0.68285 0.71838 0.76399 0.0
C1509 C 0.70509 0.70011 0.80981 0.0
H1510 H 0.67726 0.70431 0.87119 0.0
C1511 C 0.69089 0.66296 0.91619 0.0
C1512 C 0.69039 0.67118 0.94184 0.0
C1513 C 0.69382 0.67173 0.88994 0.0
C1514 C 0.68546 0.70353 0.85439 0.0
H1515 H 0.67554 0.68009 0.71307 0.0
H1516 H 0.68828 0.68232 0.76029 0.0
H1517 H 0.67343 0.71142 0.82195 0.0
H1518 H 0.69304 0.69514 0.96049 0.0
H1519 H 0.69782 0.71048 0.91413 0.0
H1520 H 0.71626 0.69111 0.84216 0.0
C1521 C 0.68524 0.69244 0.75383 0.0
C1522 C 0.68329 0.70762 0.82614 0.0
C1523 C 0.67789 0.69114 0.72667 0.0
C1524 C 0.69339 0.68856 0.94093 0.0
C1525 C 0.69607 0.69728 0.91451 0.0
C1526 C 0.70717 0.69591 0.83802 0.0
C1527 C 0.68742 0.70581 0.77309 0.0
C1528 C 0.69256 0.70527 0.80339 0.0
C1529 C 0.69613 0.68884 0.88875 0.0
C1530 C 0.69686 0.69692 0.86037 0.0
H1531 H 0.67173 0.72673 0.73052 0.0
H1532 H 0.68457 0.72896 0.77821 0.0
H1533 H 0.71271 0.69854 0.79284 0.0
H1534 H 0.68878 0.64962 0.91642 0.0
H1535 H 0.69355 0.6648 0.87042 0.0
C1536 C 0.04596 0.71491 0.25007 0.0
C1537 C 0.03285 0.70137 0.26712 0.0
C1538 C 0.04192 0.71828 0.2225 0.0
C1539 C 0.00454 0.70725 0.17205 0.0
H1540 H 0.03642 0.70625 0.11484 0.0
C1541 C 0.98142 0.67233 0.0642 0.0
C1542 C 0.99204 0.67926 0.03959 0.0
C1543 C 0.98716 0.68074 0.09071 0.0
C1544 C 0.02758 0.70699 0.13042 0.0
H1545 H 0.00505 0.68137 0.26913 0.0
H1546 H 0.99803 0.68717 0.22127 0.0
H1547 H 0.04532 0.71124 0.16515 0.0
H1548 H 0.01665 0.70074 0.023 0.0
H1549 H 0.02694 0.71542 0.06985 0.0
H1550 H 0.98636 0.70189 0.13737 0.0
C1551 C 0.01138 0.6954 0.22923 0.0
C1552 C 0.03268 0.70987 0.15931 0.0
C1553 C 0.01542 0.69203 0.25673 0.0
C1554 C 0.00826 0.69515 0.04174 0.0
C1555 C 0.01413 0.70349 0.06846 0.0
C1556 C -0.00058 0.70431 0.14317 0.0
C1557 C 0.02468 0.70819 0.21146 0.0
C1558 C 0.02091 0.70927 0.18059 0.0
C1559 C 0.00371 0.69622 0.09327 0.0
C1560 C 0.0106 0.70341 0.12228 0.0
H1561 H 0.05946 0.72256 0.25772 0.0
H1562 H 0.05239 0.7284 0.20947 0.0
H1563 H 0.99533 0.70708 0.18787 0.0
H1564 H 0.96876 0.66021 0.063 0.0
H1565 H 0.97894 0.67466 0.10947 0.0
C1566 C 0.29416 0.98547 0.40053 0.0
C1567 C 0.30036 0.9736 0.39587 0.0
C1568 C 0.2906 0.98878 0.42852 0.0
C1569 C 0.28301 0.97173 0.50323 0.0
H1570 H 0.31027 0.02111 0.52512 0.0
C1571 C 0.31332 0.99439 0.61476 0.0
C1572 C 0.31722 0.01107 0.62504 0.0
C1573 C 0.305 0.98834 0.58817 0.0
C1574 C 0.30213 0.00729 0.51945 0.0
H1575 H 0.30673 0.95514 0.41626 0.0
H1576 H 0.30052 0.96086 0.46498 0.0
H1577 H 0.30692 0.0131 0.47451 0.0
H1578 H 0.31402 0.03378 0.61711 0.0
H1579 H 0.2991 0.02307 0.57087 0.0
H1580 H 0.27874 0.96585 0.54825 0.0
C1581 C 0.29841 0.96763 0.44719 0.0
C1582 C 0.30025 0.00271 0.49036 0.0
C1583 C 0.30219 0.96453 0.41938 0.0
C1584 C 0.31139 0.02098 0.60939 0.0
C1585 C 0.30291 0.01486 0.58291 0.0
C1586 C 0.28474 0.97631 0.53235 0.0
C1587 C 0.29287 0.98 0.45211 0.0
C1588 C 0.29132 0.98486 0.48206 0.0
C1589 C 0.30028 0.99881 0.57143 0.0
C1590 C 0.29498 0.9941 0.54085 0.0
H1591 H 0.29262 0.99257 0.38266 0.0
H1592 H 0.28635 0.99839 0.43178 0.0
H1593 H 0.27582 0.95786 0.49733 0.0
H1594 H 0.31779 0.98655 0.62631 0.0
H1595 H 0.3034 0.97602 0.57994 0.0
C1596 C 0.43317 0.44698 0.09891 0.0
C1597 C 0.42259 0.44736 0.07641 0.0
C1598 C 0.45135 0.45903 0.09948 0.0
C1599 C 0.48521 0.50231 0.07045 0.0
H1600 H 0.51785 0.4861 0.09098 0.0
C1601 C 0.56053 0.54542 0.0538 0.0
C1602 C 0.57155 0.54546 0.07589 0.0
C1603 C 0.54235 0.53348 0.0544 0.0
C1604 C 0.50889 0.49087 0.08552 0.0
H1605 H 0.42277 0.46089 0.0371 0.0
H1606 H 0.45449 0.48167 0.03779 0.0
H1607 H 0.48608 0.46524 0.09119 0.0
H1608 H 0.57217 0.53282 0.11577 0.0
H1609 H 0.54036 0.51211 0.11703 0.0
H1610 H 0.50802 0.52791 0.06465 0.0
C1611 C 0.44873 0.47216 0.05515 0.0
C1612 C 0.49069 0.47892 0.08566 0.0
C1613 C 0.43058 0.46011 0.05457 0.0
C1614 C 0.564 0.53324 0.09856 0.0
C1615 C 0.54581 0.52126 0.09913 0.0
C1616 C 0.5034 0.51424 0.07029 0.0
C1617 C 0.45933 0.47175 0.07759 0.0
C1618 C 0.47865 0.4845 0.07801 0.0
C1619 C 0.53478 0.52128 0.07709 0.0
C1620 C 0.51544 0.50864 0.07772 0.0
H1621 H 0.42746 0.43721 0.11592 0.0
H1622 H 0.45912 0.45847 0.11721 0.0
H1623 H 0.47627 0.50709 0.06493 0.0
H1624 H 0.56591 0.55479 0.03619 0.0
H1625 H 0.53423 0.53371 0.03694 0.0
C1626 C 0.00993 0.55704 0.42954 0.0
C1627 C 0.0181 0.56688 0.40459 0.0
C1628 C 0.00388 0.53889 0.43049 0.0
C1629 C 0.01073 0.50462 0.39726 0.0
H1630 H 0.96467 0.47209 0.4295 0.0
C1631 C 0.98049 0.42895 0.39012 0.0
C1632 C 0.97117 0.41879 0.41422 0.0
C1633 C 0.98604 0.44697 0.38881 0.0
C1634 C 0.97766 0.48101 0.42076 0.0
H1635 H 0.02643 0.56548 0.36115 0.0
H1636 H 0.0158 0.53374 0.36277 0.0
H1637 H 0.97465 0.50365 0.42755 0.0
H1638 H 0.96025 0.41968 0.45576 0.0
H1639 H 0.97041 0.45122 0.45389 0.0
H1640 H 0.0139 0.4821 0.39079 0.0
C1641 C 0.01412 0.54008 0.38161 0.0
C1642 C 0.98335 0.49908 0.4196 0.0
C1643 C 0.02005 0.5582 0.38058 0.0
C1644 C 0.96758 0.42713 0.43702 0.0
C1645 C 0.9732 0.44518 0.43577 0.0
C1646 C 0.0051 0.48657 0.39857 0.0
C1647 C 0.006 0.53025 0.40658 0.0
C1648 C -7e-05 0.51106 0.40779 0.0
C1649 C 0.98248 0.45532 0.41164 0.0
C1650 C 0.98848 0.47454 0.41031 0.0
H1651 H 0.00812 0.56335 0.44827 0.0
H1652 H 0.99779 0.53167 0.4501 0.0
H1653 H 0.02369 0.51358 0.38842 0.0
H1654 H 0.98368 0.42302 0.37231 0.0
H1655 H 0.99298 0.45433 0.36975 0.0
C1656 C 0.55366 0.98798 0.76665 0.0
C1657 C 0.55028 0.97312 0.75011 0.0
C1658 C 0.54149 0.99396 0.76736 0.0
C1659 C 0.49453 0.97974 0.75336 0.0
H1660 H 0.51174 0.03015 0.74887 0.0
C1661 C 0.44821 0.00804 0.73308 0.0
C1662 C 0.45139 0.02312 0.7488 0.0
C1663 C 0.46017 0.00183 0.73415 0.0
C1664 C 0.50673 0.01605 0.7505 0.0
H1665 H 0.5313 0.95271 0.72172 0.0
H1666 H 0.51023 0.96333 0.72252 0.0
H1667 H 0.53279 0.01949 0.74907 0.0
H1668 H 0.46966 0.04352 0.7779 0.0
H1669 H 0.49043 0.03251 0.78011 0.0
H1670 H 0.46847 0.9763 0.75462 0.0
C1671 C 0.52222 0.97028 0.73516 0.0
C1672 C 0.51879 0.00993 0.75062 0.0
C1673 C 0.5344 0.96431 0.73443 0.0
C1674 C 0.46676 0.03179 0.76573 0.0
C1675 C 0.47875 0.02559 0.76675 0.0
C1676 C 0.48247 0.98585 0.75323 0.0
C1677 C 0.52565 0.9852 0.75157 0.0
C1678 C 0.51283 0.9917 0.75195 0.0
C1679 C 0.4756 0.01055 0.75094 0.0
C1680 C 0.48843 0.00407 0.75169 0.0
H1681 H 0.56584 0.99518 0.77874 0.0
H1682 H 0.54445 0.00538 0.78044 0.0
H1683 H 0.48952 0.96563 0.75488 0.0
H1684 H 0.43639 0.00094 0.72009 0.0
H1685 H 0.45744 0.99031 0.72149 0.0
C1686 C 0.53504 0.56783 0.61294 0.0
C1687 C 0.54812 0.57545 0.59154 0.0
C1688 C 0.52292 0.54968 0.61271 0.0
C1689 C 0.51681 0.50732 0.58726 0.0
H1690 H 0.46673 0.49078 0.59607 0.0
C1691 C 0.46402 0.43406 0.57082 0.0
C1692 C 0.4491 0.4267 0.58894 0.0
C1693 C 0.47605 0.45223 0.57115 0.0
C1694 C 0.48068 0.49513 0.59401 0.0
H1695 H 0.559 0.57011 0.5534 0.0
H1696 H 0.53787 0.5383 0.55313 0.0
H1697 H 0.48793 0.52244 0.59713 0.0
H1698 H 0.43513 0.43285 0.62149 0.0
H1699 H 0.45646 0.46435 0.62294 0.0
H1700 H 0.50972 0.4801 0.58473 0.0
C1701 C 0.53698 0.54639 0.57001 0.0
C1702 C 0.4928 0.51328 0.59452 0.0
C1703 C 0.54896 0.56457 0.57003 0.0
C1704 C 0.44657 0.43799 0.60749 0.0
C1705 C 0.45869 0.45613 0.60801 0.0
C1706 C 0.50472 0.48917 0.58706 0.0
C1707 C 0.5238 0.53879 0.59128 0.0
C1708 C 0.51097 0.51954 0.59105 0.0
C1709 C 0.47358 0.4635 0.58982 0.0
C1710 C 0.48648 0.48283 0.59032 0.0
H1711 H 0.53403 0.57594 0.62965 0.0
H1712 H 0.51296 0.54412 0.62947 0.0
H1713 H 0.53078 0.5118 0.58489 0.0
H1714 H 0.46656 0.42577 0.55653 0.0
H1715 H 0.48722 0.45743 0.55655 0.0
C1716 C 0.9707 0.53931 0.93282 0.0
C1717 C 0.97301 0.54925 0.9077 0.0
C1718 C 0.97585 0.52652 0.93361 0.0
C1719 C 0.00486 0.51312 0.8963 0.0
H1720 H 0.97778 0.46989 0.94019 0.0
C1721 C 0.01953 0.45544 0.89404 0.0
C1722 C 0.02022 0.44845 0.92095 0.0
C1723 C 0.01337 0.46741 0.89179 0.0
C1724 C 0.98552 0.48196 0.928 0.0
H1725 H 0.98244 0.55333 0.86357 0.0
H1726 H 0.99078 0.53057 0.8646 0.0
H1727 H 0.96735 0.49107 0.93677 0.0
H1728 H 0.01478 0.44825 0.96653 0.0
H1729 H 0.00389 0.46913 0.96258 0.0
H1730 H 0.02289 0.50381 0.88725 0.0
C1731 C 0.98533 0.53293 0.88392 0.0
C1732 C 0.97959 0.49413 0.92609 0.0
C1733 C 0.9803 0.54583 0.8832 0.0
C1734 C 0.0145 0.45354 0.94555 0.0
C1735 C 0.00814 0.46535 0.94325 0.0
C1736 C 0.01068 0.50086 0.89798 0.0
C1737 C 0.9833 0.52321 0.90922 0.0
C1738 C 0.98925 0.50993 0.91039 0.0
C1739 C 0.00758 0.47245 0.91636 0.0
C1740 C 0.00114 0.48523 0.91401 0.0
H1741 H 0.96487 0.54137 0.95196 0.0
H1742 H 0.97427 0.51946 0.95357 0.0
H1743 H 0.01281 0.52527 0.88444 0.0
H1744 H 0.02399 0.45184 0.87476 0.0
H1745 H 0.01297 0.4726 0.87077 0.0
C1746 C 0.55969 0.02355 0.2202 0.0
C1747 C 0.56932 0.02843 0.2461 0.0
C1748 C 0.54148 0.01728 0.22025 0.0
C1749 C 0.50585 0.0168 0.26389 0.0
H1750 H 0.47504 0.97623 0.21675 0.0
C1751 C 0.42993 0.98003 0.27579 0.0
C1752 C 0.4198 0.97467 0.25042 0.0
C1753 C 0.44819 0.98676 0.27482 0.0
C1754 C 0.48348 0.9877 0.22977 0.0
H1755 H 0.56744 0.03082 0.29228 0.0
H1756 H 0.53564 0.01961 0.29242 0.0
H1757 H 0.50693 0.98783 0.21577 0.0
H1758 H 0.42089 0.97199 0.20414 0.0
H1759 H 0.45285 0.98401 0.20239 0.0
H1760 H 0.48242 0.01665 0.27795 0.0
C1761 C 0.54218 0.02077 0.27205 0.0
C1762 C 0.50175 0.99434 0.2292 0.0
C1763 C 0.56036 0.027 0.272 0.0
C1764 C 0.42835 0.97615 0.22404 0.0
C1765 C 0.44662 0.98286 0.22307 0.0
C1766 C 0.48759 0.01016 0.26445 0.0
C1767 C 0.53252 0.01579 0.24618 0.0
C1768 C 0.51313 0.00893 0.24634 0.0
C1769 C 0.45676 0.98828 0.24845 0.0
C1770 C 0.47619 0.99549 0.24748 0.0
H1771 H 0.56617 0.02433 0.19992 0.0
H1772 H 0.53444 0.01371 0.19994 0.0
H1773 H 0.51429 0.02823 0.27699 0.0
H1774 H 0.42378 0.97925 0.29642 0.0
H1775 H 0.45558 0.99063 0.29479 0.0
loop_
_geom_bond_atom_site_label_1
_geom_bond_atom_site_label_2
_geom_bond_distance
_geom_bond_site_symmetry_2
_ccdc_geom_bond_type
Li0 N17 1.990 . S
Li0 O60 1.956 . S
Li0 O61 1.970 . S
Li0 O62 1.961 . S
Li1 N25 1.990 . S
Li1 O60 1.970 . S
Li1 O61 1.956 . S
Li1 O63 1.961 . S
Li2 N47 1.990 . S
Li2 O60 1.961 . S
Li2 O62 1.956 . S
Li2 O63 1.970 . S
Li3 N53 1.990 . S
Li3 O61 1.961 . S
Li3 O62 1.970 . S
Li3 O63 1.956 . S
C4 C6 1.348 . S
C4 C7 1.356 . S
C4 O60 1.325 . S
N5 C8 1.314 . S
N5 C9 1.279 . S
C6 C4 1.348 . S
C6 C8 1.353 . S
C6 H64 0.929 . S
C7 C4 1.356 . S
C7 C9 1.358 . S
C7 H65 0.930 . S
C8 N5 1.314 . S
C8 C6 1.353 . S
C8 H66 0.930 . S
C9 N5 1.279 . S
C9 C7 1.358 . S
C9 H67 0.930 . S
C10 C13 1.348 . S
C10 C14 1.356 . S
C10 O61 1.325 . S
C11 N12 1.279 . S
C11 C14 1.358 . S
C11 H68 0.930 . S
N12 C11 1.279 . S
N12 C15 1.314 . S
C13 C10 1.348 . S
C13 C15 1.353 . S
C13 H69 0.929 . S
C14 C10 1.356 . S
C14 C11 1.358 . S
C14 H70 0.930 . S
C15 N12 1.314 . S
C15 C13 1.353 . S
C15 H71 0.930 . S
C16 N17 1.314 . S
C16 C21 1.353 . S
C16 H22 0.930 . S
N17 Li0 1.990 . S
N17 C16 1.314 . S
N17 C19 1.279 . S
C18 C19 1.358 . S
C18 C20 1.356 . S
C18 H72 0.930 . S
C19 N17 1.279 . S
C19 C18 1.358 . S
C19 H23 0.930 . S
C20 C18 1.356 . S
C20 C21 1.348 . S
C21 C16 1.353 . S
C21 C20 1.348 . S
C21 H73 0.929 . S
H22 C16 0.930 . S
H23 C19 0.930 . S
C24 N25 1.314 . S
C24 C26 1.353 . S
C24 H30 0.930 . S
N25 Li1 1.990 . S
N25 C24 1.314 . S
N25 C28 1.279 . S
C26 C24 1.353 . S
C26 C29 1.348 . S
C26 H74 0.929 . S
C27 C28 1.358 . S
C27 C29 1.356 . S
C27 H75 0.930 . S
C28 N25 1.279 . S
C28 C27 1.358 . S
C28 H31 0.930 . S
C29 C26 1.348 . S
C29 C27 1.356 . S
H30 C24 0.930 . S
H31 C28 0.930 . S
C32 C34 1.348 1_554 S
C32 C35 1.356 . S
C32 O62 1.325 . S
N33 C36 1.314 . S
N33 C37 1.279 . S
C34 C32 1.348 1_556 S
C34 C36 1.353 . S
C34 H76 0.929 . S
C35 C32 1.356 . S
C35 C37 1.358 1_554 S
C35 H77 0.930 . S
C36 N33 1.314 . S
C36 C34 1.353 . S
C36 H78 0.930 . S
C37 N33 1.279 . S
C37 C35 1.358 1_556 S
C37 H79 0.930 . S
C38 C39 1.348 . S
C38 C40 1.356 . S
C38 O63 1.325 . S
C39 C38 1.348 . S
C39 C41 1.353 . S
C39 H80 0.929 . S
C40 C38 1.356 . S
C40 C42 1.358 . S
C40 H81 0.930 . S
C41 C39 1.353 . S
C41 N43 1.314 . S
C41 H82 0.930 . S
C42 C40 1.358 . S
C42 N43 1.279 . S
C42 H83 0.930 . S
N43 C41 1.314 . S
N43 C42 1.279 . S
C44 C46 1.353 . S
C44 N47 1.314 . S
C44 H50 0.930 . S
C45 N47 1.279 . S
C45 C48 1.358 . S
C45 H51 0.930 . S
C46 C44 1.353 . S
C46 C49 1.348 . S
C46 H84 0.929 . S
N47 Li2 1.990 . S
N47 C44 1.314 . S
N47 C45 1.279 . S
C48 C45 1.358 . S
C48 C49 1.356 . S
C48 H85 0.930 . S
C49 C46 1.348 . S
C49 C48 1.356 . S
H50 C44 0.930 . S
H51 C45 0.930 . S
C52 N53 1.314 1_556 S
C52 C54 1.353 . S
C52 H58 0.930 . S
N53 Li3 1.990 . S
N53 C52 1.314 1_554 S
N53 C56 1.279 1_554 S
C54 C52 1.353 . S
C54 C57 1.348 . S
C54 H86 0.929 . S
C55 C56 1.358 . S
C55 C57 1.356 . S
C55 H87 0.930 . S
C56 N53 1.279 1_556 S
C56 C55 1.358 . S
C56 H59 0.930 1_556 S
C57 C54 1.348 . S
C57 C55 1.356 . S
H58 C52 0.930 . S
H59 C56 0.930 1_554 S
O60 Li0 1.956 . S
O60 Li1 1.970 . S
O60 Li2 1.961 . S
O60 C4 1.325 . S
O61 Li0 1.970 . S
O61 Li1 1.956 . S
O61 Li3 1.961 . S
O61 C10 1.325 . S
O62 Li0 1.961 . S
O62 Li2 1.956 . S
O62 Li3 1.970 . S
O62 C32 1.325 . S
O63 Li1 1.961 . S
O63 Li2 1.970 . S
O63 Li3 1.956 . S
O63 C38 1.325 . S
H64 C6 0.929 . S
H65 C7 0.930 . S
H66 C8 0.930 . S
H67 C9 0.930 . S
H68 C11 0.930 . S
H69 C13 0.929 . S
H70 C14 0.930 . S
H71 C15 0.930 . S
H72 C18 0.930 . S
H73 C21 0.929 . S
H74 C26 0.929 . S
H75 C27 0.930 . S
H76 C34 0.929 . S
H77 C35 0.930 . S
H78 C36 0.930 . S
H79 C37 0.930 . S
H80 C39 0.929 . S
H81 C40 0.930 . S
H82 C41 0.930 . S
H83 C42 0.930 . S
H84 C46 0.929 . S
H85 C48 0.930 . S
H86 C54 0.929 . S
H87 C55 0.930 . S
Li88 N105 1.990 . S
Li88 O148 1.956 . S
Li88 O149 1.970 . S
Li88 O150 1.961 . S
Li89 N113 1.990 . S
Li89 O148 1.970 . S
Li89 O149 1.956 . S
Li89 O151 1.961 . S
Li90 N135 1.990 . S
Li90 O148 1.961 . S
Li90 O150 1.956 . S
Li90 O151 1.970 . S
Li91 N141 1.990 . S
Li91 O149 1.961 . S
Li91 O150 1.970 . S
Li91 O151 1.956 . S
C92 C94 1.348 . S
C92 C95 1.356 . S
C92 O148 1.325 . S
N93 C96 1.314 . S
N93 C97 1.279 . S
C94 C92 1.348 . S
C94 C96 1.353 . S
C94 H152 0.929 . S
C95 C92 1.356 . S
C95 C97 1.358 . S
C95 H153 0.930 . S
C96 N93 1.314 . S
C96 C94 1.353 . S
C96 H154 0.930 . S
C97 N93 1.279 . S
C97 C95 1.358 . S
C97 H155 0.930 . S
C98 C101 1.348 . S
C98 C102 1.356 . S
C98 O149 1.325 . S
C99 N100 1.279 . S
C99 C102 1.358 . S
C99 H156 0.930 . S
N100 C99 1.279 . S
N100 C103 1.314 . S
C101 C98 1.348 . S
C101 C103 1.353 . S
C101 H157 0.929 . S
C102 C98 1.356 . S
C102 C99 1.358 . S
C102 H158 0.930 . S
C103 N100 1.314 . S
C103 C101 1.353 . S
C103 H159 0.930 . S
C104 N105 1.314 . S
C104 C109 1.353 . S
C104 H110 0.930 . S
N105 Li88 1.990 . S
N105 C104 1.314 . S
N105 C107 1.279 . S
C106 C107 1.358 . S
C106 C108 1.356 . S
C106 H160 0.930 . S
C107 N105 1.279 . S
C107 C106 1.358 . S
C107 H111 0.930 . S
C108 C106 1.356 . S
C108 C109 1.348 . S
C109 C104 1.353 . S
C109 C108 1.348 . S
C109 H161 0.929 1_655 S
H110 C104 0.930 . S
H111 C107 0.930 . S
C112 N113 1.314 . S
C112 C114 1.353 . S
C112 H118 0.930 . S
N113 Li89 1.990 . S
N113 C112 1.314 . S
N113 C116 1.279 . S
C114 C112 1.353 . S
C114 C117 1.348 . S
C114 H162 0.929 . S
C115 C116 1.358 . S
C115 C117 1.356 . S
C115 H163 0.930 . S
C116 N113 1.279 . S
C116 C115 1.358 . S
C116 H119 0.930 . S
C117 C114 1.348 . S
C117 C115 1.356 . S
H118 C112 0.930 . S
H119 C116 0.930 . S
C120 C122 1.368 1_655 S
C120 C123 1.356 1_655 S
C120 O150 1.325 . S
N121 C124 1.314 . S
N121 C125 1.279 . S
C122 C120 1.368 1_455 S
C122 C124 1.408 . S
C122 H164 0.859 1_455 S
C123 C120 1.356 1_455 S
C123 C125 1.358 . S
C123 H165 0.930 . S
C124 N121 1.314 . S
C124 C122 1.408 . S
C124 H166 0.930 . S
C125 N121 1.279 . S
C125 C123 1.358 . S
C125 H167 0.930 . S
C126 C127 1.348 . S
C126 C128 1.356 . S
C126 O151 1.325 . S
C127 C126 1.348 . S
C127 C129 1.353 . S
C127 H168 0.929 . S
C128 C126 1.356 . S
C128 C130 1.358 . S
C128 H169 0.930 . S
C129 C127 1.353 . S
C129 N131 1.314 . S
C129 H170 0.930 . S
C130 C128 1.358 . S
C130 N131 1.279 . S
C130 H171 0.930 . S
N131 C129 1.314 . S
N131 C130 1.279 . S
C132 C134 1.353 . S
C132 N135 1.314 . S
C132 H138 0.930 . S
C133 N135 1.279 1_455 S
C133 C136 1.358 . S
C133 H139 0.930 . S
C134 C132 1.353 . S
C134 C137 1.348 1_655 S
C134 H172 0.929 . S
N135 Li90 1.990 . S
N135 C132 1.314 . S
N135 C133 1.279 1_655 S
C136 C133 1.358 . S
C136 C137 1.356 . S
C136 H173 0.930 . S
C137 C134 1.348 1_455 S
C137 C136 1.356 . S
H138 C132 0.930 . S
H139 C133 0.930 . S
C140 N141 1.314 . S
C140 C142 1.353 . S
C140 H146 0.930 . S
N141 Li91 1.990 . S
N141 C140 1.314 . S
N141 C144 1.279 . S
C142 C140 1.353 . S
C142 C145 1.348 . S
C142 H174 0.929 . S
C143 C144 1.358 . S
C143 C145 1.356 . S
C143 H175 0.930 . S
C144 N141 1.279 . S
C144 C143 1.358 . S
C144 H147 0.930 . S
C145 C142 1.348 . S
C145 C143 1.356 . S
H146 C140 0.930 . S
H147 C144 0.930 . S
O148 Li88 1.956 . S
O148 Li89 1.970 . S
O148 Li90 1.961 . S
O148 C92 1.325 . S
O149 Li88 1.970 . S
O149 Li89 1.956 . S
O149 Li91 1.961 . S
O149 C98 1.325 . S
O150 Li88 1.961 . S
O150 Li90 1.956 . S
O150 Li91 1.970 . S
O150 C120 1.325 . S
O151 Li89 1.961 . S
O151 Li90 1.970 . S
O151 Li91 1.956 . S
O151 C126 1.325 . S
H152 C94 0.929 . S
H153 C95 0.930 . S
H154 C96 0.930 . S
H155 C97 0.930 . S
H156 C99 0.930 . S
H157 C101 0.929 . S
H158 C102 0.930 . S
H159 C103 0.930 . S
H160 C106 0.930 . S
H161 C109 0.929 1_455 S
H162 C114 0.929 . S
H163 C115 0.930 . S
H164 C122 0.859 1_655 S
H165 C123 0.930 . S
H166 C124 0.930 . S
H167 C125 0.930 . S
H168 C127 0.929 . S
H169 C128 0.930 . S
H170 C129 0.930 . S
H171 C130 0.930 . S
H172 C134 0.929 . S
H173 C136 0.930 . S
H174 C142 0.929 . S
H175 C143 0.930 . S
Li176 N193 1.990 . S
Li176 O236 1.956 . S
Li176 O237 1.970 . S
Li176 O238 1.961 . S
Li177 N201 1.990 . S
Li177 O236 1.970 . S
Li177 O237 1.956 . S
Li177 O239 1.961 . S
Li178 N223 1.990 . S
Li178 O236 1.961 . S
Li178 O238 1.956 . S
Li178 O239 1.970 . S
Li179 N229 1.990 . S
Li179 O237 1.961 . S
Li179 O238 1.970 . S
Li179 O239 1.956 . S
C180 C182 1.348 . S
C180 C183 1.356 . S
C180 O236 1.325 . S
N181 C184 1.314 . S
N181 C185 1.279 . S
C182 C180 1.348 . S
C182 C184 1.353 . S
C182 H240 0.929 . S
C183 C180 1.356 . S
C183 C185 1.358 . S
C183 H241 0.930 . S
C184 N181 1.314 . S
C184 C182 1.353 . S
C184 H242 0.930 . S
C185 N181 1.279 . S
C185 C183 1.358 . S
C185 H243 0.930 . S
C186 C189 1.348 . S
C186 C190 1.356 . S
C186 O237 1.325 . S
C187 N188 1.279 . S
C187 C190 1.358 . S
C187 H244 0.930 . S
N188 C187 1.279 . S
N188 C191 1.314 . S
C189 C186 1.348 . S
C189 C191 1.353 . S
C189 H245 0.929 . S
C190 C186 1.356 . S
C190 C187 1.358 . S
C190 H246 0.930 . S
C191 N188 1.314 . S
C191 C189 1.353 . S
C191 H247 0.930 . S
C192 N193 1.314 . S
C192 C197 1.353 . S
C192 H198 0.930 . S
N193 Li176 1.990 . S
N193 C192 1.314 . S
N193 C195 1.279 . S
C194 C195 1.358 . S
C194 C196 1.356 . S
C194 H248 0.930 . S
C195 N193 1.279 . S
C195 C194 1.358 . S
C195 H199 0.930 . S
C196 C194 1.356 . S
C196 C197 1.348 . S
C197 C192 1.353 . S
C197 C196 1.348 . S
C197 H249 0.929 1_565 S
H198 C192 0.930 . S
H199 C195 0.930 . S
C200 N201 1.314 . S
C200 C202 1.353 . S
C200 H206 0.930 . S
N201 Li177 1.990 . S
N201 C200 1.314 . S
N201 C204 1.279 . S
C202 C200 1.353 . S
C202 C205 1.348 . S
C202 H250 0.929 . S
C203 C204 1.358 . S
C203 C205 1.356 . S
C203 H251 0.930 . S
C204 N201 1.279 . S
C204 C203 1.358 . S
C204 H207 0.930 . S
C205 C202 1.348 . S
C205 C203 1.356 . S
H206 C200 0.930 . S
H207 C204 0.930 . S
C208 C210 1.295 1_565 S
C208 C211 1.356 1_565 S
C208 O238 1.325 . S
N209 C212 1.314 . S
N209 C213 1.279 . S
C210 C208 1.295 1_545 S
C210 C212 1.428 . S
C210 H252 0.912 1_545 S
C211 C208 1.356 1_545 S
C211 C213 1.358 . S
C211 H253 0.930 . S
C212 N209 1.314 . S
C212 C210 1.428 . S
C212 H254 0.930 . S
C213 N209 1.279 . S
C213 C211 1.358 . S
C213 H255 0.930 . S
C214 C215 1.348 . S
C214 C216 1.356 . S
C214 O239 1.325 . S
C215 C214 1.348 . S
C215 C217 1.353 . S
C215 H256 0.929 . S
C216 C214 1.356 . S
C216 C218 1.358 . S
C216 H257 0.930 . S
C217 C215 1.353 . S
C217 N219 1.314 . S
C217 H258 0.930 . S
C218 C216 1.358 . S
C218 N219 1.279 . S
C218 H259 0.930 . S
N219 C217 1.314 . S
N219 C218 1.279 . S
C220 C222 1.353 . S
C220 N223 1.314 . S
C220 H226 0.930 . S
C221 N223 1.279 1_545 S
C221 C224 1.358 . S
C221 H227 0.930 . S
C222 C220 1.353 . S
C222 C225 1.348 1_565 S
C222 H260 0.929 . S
N223 Li178 1.990 . S
N223 C220 1.314 . S
N223 C221 1.279 1_565 S
C224 C221 1.358 . S
C224 C225 1.356 . S
C224 H261 0.930 . S
C225 C222 1.348 1_545 S
C225 C224 1.356 . S
H226 C220 0.930 . S
H227 C221 0.930 . S
C228 N229 1.314 . S
C228 C230 1.353 . S
C228 H234 0.930 . S
N229 Li179 1.990 . S
N229 C228 1.314 . S
N229 C232 1.279 . S
C230 C228 1.353 . S
C230 C233 1.348 . S
C230 H262 0.929 . S
C231 C232 1.358 . S
C231 C233 1.356 . S
C231 H263 0.930 . S
C232 N229 1.279 . S
C232 C231 1.358 . S
C232 H235 0.930 . S
C233 C230 1.348 . S
C233 C231 1.356 . S
H234 C228 0.930 . S
H235 C232 0.930 . S
O236 Li176 1.956 . S
O236 Li177 1.970 . S
O236 Li178 1.961 . S
O236 C180 1.325 . S
O237 Li176 1.970 . S
O237 Li177 1.956 . S
O237 Li179 1.961 . S
O237 C186 1.325 . S
O238 Li176 1.961 . S
O238 Li178 1.956 . S
O238 Li179 1.970 . S
O238 C208 1.325 . S
O239 Li177 1.961 . S
O239 Li178 1.970 . S
O239 Li179 1.956 . S
O239 C214 1.325 . S
H240 C182 0.929 . S
H241 C183 0.930 . S
H242 C184 0.930 . S
H243 C185 0.930 . S
H244 C187 0.930 . S
H245 C189 0.929 . S
H246 C190 0.930 . S
H247 C191 0.930 . S
H248 C194 0.930 . S
H249 C197 0.929 1_545 S
H250 C202 0.929 . S
H251 C203 0.930 . S
H252 C210 0.912 1_565 S
H253 C211 0.930 . S
H254 C212 0.930 . S
H255 C213 0.930 . S
H256 C215 0.929 . S
H257 C216 0.930 . S
H258 C217 0.930 . S
H259 C218 0.930 . S
H260 C222 0.929 . S
H261 C224 0.930 . S
H262 C230 0.929 . S
H263 C231 0.930 . S
Li264 N281 1.990 . S
Li264 O324 1.956 . S
Li264 O325 1.970 . S
Li264 O326 1.961 . S
Li265 N289 1.990 . S
Li265 O324 1.970 . S
Li265 O325 1.956 . S
Li265 O327 1.961 . S
Li266 N311 1.990 . S
Li266 O324 1.961 . S
Li266 O326 1.956 . S
Li266 O327 1.970 . S
Li267 N317 1.990 . S
Li267 O325 1.961 . S
Li267 O326 1.970 . S
Li267 O327 1.956 . S
C268 C270 1.348 . S
C268 C271 1.356 . S
C268 O324 1.325 . S
N269 C272 1.314 . S
N269 C273 1.279 . S
C270 C268 1.348 . S
C270 C272 1.353 . S
C270 H328 0.929 . S
C271 C268 1.356 . S
C271 C273 1.358 . S
C271 H329 0.930 . S
C272 N269 1.314 . S
C272 C270 1.353 . S
C272 H330 0.930 . S
C273 N269 1.279 . S
C273 C271 1.358 . S
C273 H331 0.930 . S
C274 C277 1.348 . S
C274 C278 1.356 . S
C274 O325 1.325 . S
C275 N276 1.279 . S
C275 C278 1.358 . S
C275 H332 0.930 . S
N276 C275 1.279 . S
N276 C279 1.314 . S
C277 C274 1.348 . S
C277 C279 1.353 . S
C277 H333 0.929 . S
C278 C274 1.356 . S
C278 C275 1.358 . S
C278 H334 0.930 . S
C279 N276 1.314 . S
C279 C277 1.353 . S
C279 H335 0.930 . S
C280 N281 1.314 . S
C280 C285 1.353 . S
C280 H286 0.930 . S
N281 Li264 1.990 . S
N281 C280 1.314 . S
N281 C283 1.279 . S
C282 C283 1.358 . S
C282 C284 1.356 . S
C282 H336 0.930 . S
C283 N281 1.279 . S
C283 C282 1.358 . S
C283 H287 0.930 . S
C284 C282 1.356 . S
C284 C285 1.348 . S
C285 C280 1.353 . S
C285 C284 1.348 . S
C285 H337 0.929 . S
H286 C280 0.930 . S
H287 C283 0.930 . S
C288 N289 1.314 . S
C288 C290 1.353 . S
C288 H294 0.930 . S
N289 Li265 1.990 . S
N289 C288 1.314 . S
N289 C292 1.279 . S
C290 C288 1.353 . S
C290 C293 1.348 . S
C290 H338 0.929 . S
C291 C292 1.358 . S
C291 C293 1.356 . S
C291 H339 0.930 . S
C292 N289 1.279 . S
C292 C291 1.358 . S
C292 H295 0.930 . S
C293 C290 1.348 . S
C293 C291 1.356 . S
H294 C288 0.930 . S
H295 C292 0.930 . S
C296 C298 1.348 . S
C296 C299 1.356 . S
C296 O326 1.325 . S
N297 C300 1.314 . S
N297 C301 1.279 . S
C298 C296 1.348 . S
C298 C300 1.353 . S
C298 H340 0.929 . S
C299 C296 1.356 . S
C299 C301 1.358 . S
C299 H341 0.930 . S
C300 N297 1.314 . S
C300 C298 1.353 . S
C300 H342 0.930 . S
C301 N297 1.279 . S
C301 C299 1.358 . S
C301 H343 0.930 . S
C302 C303 1.348 1_554 S
C302 C304 1.356 . S
C302 O327 1.325 . S
C303 C302 1.348 1_556 S
C303 C305 1.353 . S
C303 H344 0.929 . S
C304 C302 1.356 . S
C304 C306 1.358 1_554 S
C304 H345 0.930 . S
C305 C303 1.353 . S
C305 N307 1.314 . S
C305 H346 0.930 . S
C306 C304 1.358 1_556 S
C306 N307 1.279 . S
C306 H347 0.930 . S
N307 C305 1.314 . S
N307 C306 1.279 . S
C308 C310 1.353 . S
C308 N311 1.314 1_556 S
C308 H314 0.930 . S
C309 N311 1.279 1_556 S
C309 C312 1.358 . S
C309 H315 0.930 1_556 S
C310 C308 1.353 . S
C310 C313 1.348 . S
C310 H348 0.929 . S
N311 Li266 1.990 . S
N311 C308 1.314 1_554 S
N311 C309 1.279 1_554 S
C312 C309 1.358 . S
C312 C313 1.356 . S
C312 H349 0.930 . S
C313 C310 1.348 . S
C313 C312 1.356 . S
H314 C308 0.930 . S
H315 C309 0.930 1_554 S
C316 N317 1.314 . S
C316 C318 1.353 . S
C316 H322 0.930 . S
N317 Li267 1.990 . S
N317 C316 1.314 . S
N317 C320 1.279 . S
C318 C316 1.353 . S
C318 C321 1.348 . S
C318 H350 0.929 . S
C319 C320 1.358 . S
C319 C321 1.356 . S
C319 H351 0.930 . S
C320 N317 1.279 . S
C320 C319 1.358 . S
C320 H323 0.930 . S
C321 C318 1.348 . S
C321 C319 1.356 . S
H322 C316 0.930 . S
H323 C320 0.930 . S
O324 Li264 1.956 . S
O324 Li265 1.970 . S
O324 Li266 1.961 . S
O324 C268 1.325 . S
O325 Li264 1.970 . S
O325 Li265 1.956 . S
O325 Li267 1.961 . S
O325 C274 1.325 . S
O326 Li264 1.961 . S
O326 Li266 1.956 . S
O326 Li267 1.970 . S
O326 C296 1.325 . S
O327 Li265 1.961 . S
O327 Li266 1.970 . S
O327 Li267 1.956 . S
O327 C302 1.325 . S
H328 C270 0.929 . S
H329 C271 0.930 . S
H330 C272 0.930 . S
H331 C273 0.930 . S
H332 C275 0.930 . S
H333 C277 0.929 . S
H334 C278 0.930 . S
H335 C279 0.930 . S
H336 C282 0.930 . S
H337 C285 0.929 . S
H338 C290 0.929 . S
H339 C291 0.930 . S
H340 C298 0.929 . S
H341 C299 0.930 . S
H342 C300 0.930 . S
H343 C301 0.930 . S
H344 C303 0.929 . S
H345 C304 0.930 . S
H346 C305 0.930 . S
H347 C306 0.930 . S
H348 C310 0.929 . S
H349 C312 0.930 . S
H350 C318 0.929 . S
H351 C319 0.930 . S
Li352 N369 1.990 . S
Li352 O412 1.956 . S
Li352 O413 1.970 . S
Li352 O414 1.961 . S
Li353 N377 1.990 . S
Li353 O412 1.970 . S
Li353 O413 1.956 . S
Li353 O415 1.961 . S
Li354 N399 1.990 . S
Li354 O412 1.961 . S
Li354 O414 1.956 . S
Li354 O415 1.970 . S
Li355 N405 1.990 . S
Li355 O413 1.961 . S
Li355 O414 1.970 . S
Li355 O415 1.956 . S
C356 C358 1.348 . S
C356 C359 1.356 . S
C356 O412 1.325 . S
N357 C360 1.314 . S
N357 C361 1.279 . S
C358 C356 1.348 . S
C358 C360 1.353 . S
C358 H416 0.929 . S
C359 C356 1.356 . S
C359 C361 1.358 . S
C359 H417 0.930 . S
C360 N357 1.314 . S
C360 C358 1.353 . S
C360 H418 0.930 . S
C361 N357 1.279 . S
C361 C359 1.358 . S
C361 H419 0.930 . S
C362 C365 1.348 . S
C362 C366 1.356 . S
C362 O413 1.325 . S
C363 N364 1.279 . S
C363 C366 1.358 . S
C363 H420 0.930 . S
N364 C363 1.279 . S
N364 C367 1.314 . S
C365 C362 1.348 . S
C365 C367 1.353 . S
C365 H421 0.929 . S
C366 C362 1.356 . S
C366 C363 1.358 . S
C366 H422 0.930 . S
C367 N364 1.314 . S
C367 C365 1.353 . S
C367 H423 0.930 . S
C368 N369 1.314 . S
C368 C373 1.353 . S
C368 H374 0.930 . S
N369 Li352 1.990 . S
N369 C368 1.314 . S
N369 C371 1.279 . S
C370 C371 1.358 . S
C370 C372 1.356 . S
C370 H424 0.930 . S
C371 N369 1.279 . S
C371 C370 1.358 . S
C371 H375 0.930 . S
C372 C370 1.356 . S
C372 C373 1.348 . S
C373 C368 1.353 . S
C373 C372 1.348 . S
C373 H425 0.929 . S
H374 C368 0.930 . S
H375 C371 0.930 . S
C376 N377 1.314 . S
C376 C378 1.353 . S
C376 H382 0.930 . S
N377 Li353 1.990 . S
N377 C376 1.314 . S
N377 C380 1.279 . S
C378 C376 1.353 . S
C378 C381 1.348 . S
C378 H426 0.929 1_455 S
C379 C380 1.358 . S
C379 C381 1.356 . S
C379 H427 0.930 . S
C380 N377 1.279 . S
C380 C379 1.358 . S
C380 H383 0.930 . S
C381 C378 1.348 . S
C381 C379 1.356 . S
H382 C376 0.930 . S
H383 C380 0.930 . S
C384 C386 1.348 . S
C384 C387 1.356 . S
C384 O414 1.325 . S
N385 C388 1.314 . S
N385 C389 1.279 . S
C386 C384 1.348 . S
C386 C388 1.353 . S
C386 H428 0.929 . S
C387 C384 1.356 . S
C387 C389 1.358 . S
C387 H429 0.930 . S
C388 N385 1.314 . S
C388 C386 1.353 . S
C388 H430 0.930 . S
C389 N385 1.279 . S
C389 C387 1.358 . S
C389 H431 0.930 . S
C390 C391 1.368 1_455 S
C390 C392 1.356 1_455 S
C390 O415 1.325 . S
C391 C390 1.368 1_655 S
C391 C393 1.408 . S
C391 H432 0.859 1_655 S
C392 C390 1.356 1_655 S
C392 C394 1.358 . S
C392 H433 0.930 . S
C393 C391 1.408 . S
C393 N395 1.314 . S
C393 H434 0.930 . S
C394 C392 1.358 . S
C394 N395 1.279 . S
C394 H435 0.930 . S
N395 C393 1.314 . S
N395 C394 1.279 . S
C396 C398 1.353 . S
C396 N399 1.314 . S
C396 H402 0.930 . S
C397 N399 1.279 . S
C397 C400 1.358 . S
C397 H403 0.930 . S
C398 C396 1.353 . S
C398 C401 1.348 . S
C398 H436 0.929 . S
N399 Li354 1.990 . S
N399 C396 1.314 . S
N399 C397 1.279 . S
C400 C397 1.358 . S
C400 C401 1.356 . S
C400 H437 0.930 . S
C401 C398 1.348 . S
C401 C400 1.356 . S
H402 C396 0.930 . S
H403 C397 0.930 . S
C404 N405 1.314 . S
C404 C406 1.353 . S
C404 H410 0.930 . S
N405 Li355 1.990 . S
N405 C404 1.314 . S
N405 C408 1.279 1_455 S
C406 C404 1.353 . S
C406 C409 1.348 1_455 S
C406 H438 0.929 . S
C407 C408 1.358 . S
C407 C409 1.356 . S
C407 H439 0.930 . S
C408 N405 1.279 1_655 S
C408 C407 1.358 . S
C408 H411 0.930 . S
C409 C406 1.348 1_655 S
C409 C407 1.356 . S
H410 C404 0.930 . S
H411 C408 0.930 . S
O412 Li352 1.956 . S
O412 Li353 1.970 . S
O412 Li354 1.961 . S
O412 C356 1.325 . S
O413 Li352 1.970 . S
O413 Li353 1.956 . S
O413 Li355 1.961 . S
O413 C362 1.325 . S
O414 Li352 1.961 . S
O414 Li354 1.956 . S
O414 Li355 1.970 . S
O414 C384 1.325 . S
O415 Li353 1.961 . S
O415 Li354 1.970 . S
O415 Li355 1.956 . S
O415 C390 1.325 . S
H416 C358 0.929 . S
H417 C359 0.930 . S
H418 C360 0.930 . S
H419 C361 0.930 . S
H420 C363 0.930 . S
H421 C365 0.929 . S
H422 C366 0.930 . S
H423 C367 0.930 . S
H424 C370 0.930 . S
H425 C373 0.929 . S
H426 C378 0.929 1_655 S
H427 C379 0.930 . S
H428 C386 0.929 . S
H429 C387 0.930 . S
H430 C388 0.930 . S
H431 C389 0.930 . S
H432 C391 0.859 1_455 S
H433 C392 0.930 . S
H434 C393 0.930 . S
H435 C394 0.930 . S
H436 C398 0.929 . S
H437 C400 0.930 . S
H438 C406 0.929 . S
H439 C407 0.930 . S
Li440 N457 1.990 . S
Li440 O500 1.956 . S
Li440 O501 1.970 . S
Li440 O502 1.961 . S
Li441 N465 1.990 . S
Li441 O500 1.970 . S
Li441 O501 1.956 . S
Li441 O503 1.961 . S
Li442 N487 1.990 . S
Li442 O500 1.961 . S
Li442 O502 1.956 . S
Li442 O503 1.970 . S
Li443 N493 1.990 . S
Li443 O501 1.961 . S
Li443 O502 1.970 . S
Li443 O503 1.956 . S
C444 C446 1.348 . S
C444 C447 1.356 . S
C444 O500 1.325 . S
N445 C448 1.314 . S
N445 C449 1.279 . S
C446 C444 1.348 . S
C446 C448 1.353 . S
C446 H504 0.929 . S
C447 C444 1.356 . S
C447 C449 1.358 . S
C447 H505 0.930 . S
C448 N445 1.314 . S
C448 C446 1.353 . S
C448 H506 0.930 . S
C449 N445 1.279 . S
C449 C447 1.358 . S
C449 H507 0.930 . S
C450 C453 1.348 . S
C450 C454 1.356 . S
C450 O501 1.325 . S
C451 N452 1.279 . S
C451 C454 1.358 . S
C451 H508 0.930 . S
N452 C451 1.279 . S
N452 C455 1.314 . S
C453 C450 1.348 . S
C453 C455 1.353 . S
C453 H509 0.929 . S
C454 C450 1.356 . S
C454 C451 1.358 . S
C454 H510 0.930 . S
C455 N452 1.314 . S
C455 C453 1.353 . S
C455 H511 0.930 . S
C456 N457 1.314 . S
C456 C461 1.353 . S
C456 H462 0.930 . S
N457 Li440 1.990 . S
N457 C456 1.314 . S
N457 C459 1.279 . S
C458 C459 1.358 . S
C458 C460 1.356 . S
C458 H512 0.930 . S
C459 N457 1.279 . S
C459 C458 1.358 . S
C459 H463 0.930 . S
C460 C458 1.356 . S
C460 C461 1.348 . S
C461 C456 1.353 . S
C461 C460 1.348 . S
C461 H513 0.929 . S
H462 C456 0.930 . S
H463 C459 0.930 . S
C464 N465 1.314 . S
C464 C466 1.353 . S
C464 H470 0.930 . S
N465 Li441 1.990 . S
N465 C464 1.314 . S
N465 C468 1.279 . S
C466 C464 1.353 . S
C466 C469 1.348 . S
C466 H514 0.929 1_545 S
C467 C468 1.358 . S
C467 C469 1.356 . S
C467 H515 0.930 . S
C468 N465 1.279 . S
C468 C467 1.358 . S
C468 H471 0.930 . S
C469 C466 1.348 . S
C469 C467 1.356 . S
H470 C464 0.930 . S
H471 C468 0.930 . S
C472 C474 1.348 . S
C472 C475 1.356 . S
C472 O502 1.325 . S
N473 C476 1.314 . S
N473 C477 1.279 . S
C474 C472 1.348 . S
C474 C476 1.353 . S
C474 H516 0.929 . S
C475 C472 1.356 . S
C475 C477 1.358 . S
C475 H517 0.930 . S
C476 N473 1.314 . S
C476 C474 1.353 . S
C476 H518 0.930 . S
C477 N473 1.279 . S
C477 C475 1.358 . S
C477 H519 0.930 . S
C478 C479 1.295 1_545 S
C478 C480 1.356 1_545 S
C478 O503 1.325 . S
C479 C478 1.295 1_565 S
C479 C481 1.428 . S
C479 H520 0.912 1_565 S
C480 C478 1.356 1_565 S
C480 C482 1.358 . S
C480 H521 0.930 . S
C481 C479 1.428 . S
C481 N483 1.314 . S
C481 H522 0.930 . S
C482 C480 1.358 . S
C482 N483 1.279 . S
C482 H523 0.930 . S
N483 C481 1.314 . S
N483 C482 1.279 . S
C484 C486 1.353 . S
C484 N487 1.314 . S
C484 H490 0.930 . S
C485 N487 1.279 . S
C485 C488 1.358 . S
C485 H491 0.930 . S
C486 C484 1.353 . S
C486 C489 1.348 . S
C486 H524 0.929 . S
N487 Li442 1.990 . S
N487 C484 1.314 . S
N487 C485 1.279 . S
C488 C485 1.358 . S
C488 C489 1.356 . S
C488 H525 0.930 . S
C489 C486 1.348 . S
C489 C488 1.356 . S
H490 C484 0.930 . S
H491 C485 0.930 . S
C492 N493 1.314 . S
C492 C494 1.353 . S
C492 H498 0.930 . S
N493 Li443 1.990 . S
N493 C492 1.314 . S
N493 C496 1.279 1_545 S
C494 C492 1.353 . S
C494 C497 1.348 1_545 S
C494 H526 0.929 . S
C495 C496 1.358 . S
C495 C497 1.356 . S
C495 H527 0.930 . S
C496 N493 1.279 1_565 S
C496 C495 1.358 . S
C496 H499 0.930 . S
C497 C494 1.348 1_565 S
C497 C495 1.356 . S
H498 C492 0.930 . S
H499 C496 0.930 . S
O500 Li440 1.956 . S
O500 Li441 1.970 . S
O500 Li442 1.961 . S
O500 C444 1.325 . S
O501 Li440 1.970 . S
O501 Li441 1.956 . S
O501 Li443 1.961 . S
O501 C450 1.325 . S
O502 Li440 1.961 . S
O502 Li442 1.956 . S
O502 Li443 1.970 . S
O502 C472 1.325 . S
O503 Li441 1.961 . S
O503 Li442 1.970 . S
O503 Li443 1.956 . S
O503 C478 1.325 . S
H504 C446 0.929 . S
H505 C447 0.930 . S
H506 C448 0.930 . S
H507 C449 0.930 . S
H508 C451 0.930 . S
H509 C453 0.929 . S
H510 C454 0.930 . S
H511 C455 0.930 . S
H512 C458 0.930 . S
H513 C461 0.929 . S
H514 C466 0.929 1_565 S
H515 C467 0.930 . S
H516 C474 0.929 . S
H517 C475 0.930 . S
H518 C476 0.930 . S
H519 C477 0.930 . S
H520 C479 0.912 1_545 S
H521 C480 0.930 . S
H522 C481 0.930 . S
H523 C482 0.930 . S
H524 C486 0.929 . S
H525 C488 0.930 . S
H526 C494 0.929 . S
H527 C495 0.930 . S
Li528 N545 1.990 . S
Li528 O588 1.956 . S
Li528 O589 1.970 . S
Li528 O590 1.961 . S
Li529 N553 1.990 . S
Li529 O588 1.970 . S
Li529 O589 1.956 . S
Li529 O591 1.961 . S
Li530 N575 1.990 . S
Li530 O588 1.961 . S
Li530 O590 1.956 . S
Li530 O591 1.970 . S
Li531 N581 1.990 . S
Li531 O589 1.961 . S
Li531 O590 1.970 . S
Li531 O591 1.956 . S
C532 C534 1.348 . S
C532 C535 1.356 . S
C532 O588 1.325 . S
N533 C536 1.314 . S
N533 C537 1.279 . S
C534 C532 1.348 . S
C534 C536 1.353 . S
C534 H592 0.929 . S
C535 C532 1.356 . S
C535 C537 1.358 . S
C535 H593 0.930 . S
C536 N533 1.314 . S
C536 C534 1.353 . S
C536 H594 0.930 . S
C537 N533 1.279 . S
C537 C535 1.358 . S
C537 H595 0.930 . S
C538 C541 1.348 . S
C538 C542 1.356 . S
C538 O589 1.325 . S
C539 N540 1.279 . S
C539 C542 1.358 . S
C539 H596 0.930 . S
N540 C539 1.279 . S
N540 C543 1.314 . S
C541 C538 1.348 . S
C541 C543 1.353 . S
C541 H597 0.929 . S
C542 C538 1.356 . S
C542 C539 1.358 . S
C542 H598 0.930 . S
C543 N540 1.314 . S
C543 C541 1.353 . S
C543 H599 0.930 . S
C544 N545 1.314 . S
C544 C549 1.353 . S
C544 H550 0.930 . S
N545 Li528 1.990 . S
N545 C544 1.314 . S
N545 C547 1.279 . S
C546 C547 1.358 . S
C546 C548 1.356 . S
C546 H600 0.930 . S
C547 N545 1.279 . S
C547 C546 1.358 . S
C547 H551 0.930 . S
C548 C546 1.356 . S
C548 C549 1.348 . S
C549 C544 1.353 . S
C549 C548 1.348 . S
C549 H601 0.929 . S
H550 C544 0.930 . S
H551 C547 0.930 . S
C552 N553 1.314 . S
C552 C554 1.353 . S
C552 H558 0.930 . S
N553 Li529 1.990 . S
N553 C552 1.314 . S
N553 C556 1.279 . S
C554 C552 1.353 . S
C554 C557 1.348 . S
C554 H602 0.929 . S
C555 C556 1.358 . S
C555 C557 1.356 . S
C555 H603 0.930 . S
C556 N553 1.279 . S
C556 C555 1.358 . S
C556 H559 0.930 . S
C557 C554 1.348 . S
C557 C555 1.356 . S
H558 C552 0.930 . S
H559 C556 0.930 . S
C560 C562 1.348 . S
C560 C563 1.356 . S
C560 O590 1.325 . S
N561 C564 1.314 . S
N561 C565 1.279 . S
C562 C560 1.348 . S
C562 C564 1.353 . S
C562 H604 0.929 . S
C563 C560 1.356 . S
C563 C565 1.358 . S
C563 H605 0.930 . S
C564 N561 1.314 . S
C564 C562 1.353 . S
C564 H606 0.930 . S
C565 N561 1.279 . S
C565 C563 1.358 . S
C565 H607 0.930 . S
C566 C567 1.348 . S
C566 C568 1.356 . S
C566 O591 1.325 . S
C567 C566 1.348 . S
C567 C569 1.353 . S
C567 H608 0.929 . S
C568 C566 1.356 . S
C568 C570 1.358 . S
C568 H609 0.930 . S
C569 C567 1.353 . S
C569 N571 1.314 . S
C569 H610 0.930 . S
C570 C568 1.358 . S
C570 N571 1.279 . S
C570 H611 0.930 . S
N571 C569 1.314 . S
N571 C570 1.279 . S
C572 C574 1.353 . S
C572 N575 1.314 . S
C572 H578 0.930 . S
C573 N575 1.279 . S
C573 C576 1.358 . S
C573 H579 0.930 . S
C574 C572 1.353 . S
C574 C577 1.348 . S
C574 H612 0.929 . S
N575 Li530 1.990 . S
N575 C572 1.314 . S
N575 C573 1.279 . S
C576 C573 1.358 . S
C576 C577 1.356 . S
C576 H613 0.930 . S
C577 C574 1.348 . S
C577 C576 1.356 . S
H578 C572 0.930 . S
H579 C573 0.930 . S
C580 N581 1.314 . S
C580 C582 1.353 . S
C580 H586 0.930 . S
N581 Li531 1.990 . S
N581 C580 1.314 . S
N581 C584 1.279 . S
C582 C580 1.353 . S
C582 C585 1.348 . S
C582 H614 0.929 . S
C583 C584 1.358 . S
C583 C585 1.356 . S
C583 H615 0.930 . S
C584 N581 1.279 . S
C584 C583 1.358 . S
C584 H587 0.930 . S
C585 C582 1.348 . S
C585 C583 1.356 . S
H586 C580 0.930 . S
H587 C584 0.930 . S
O588 Li528 1.956 . S
O588 Li529 1.970 . S
O588 Li530 1.961 . S
O588 C532 1.325 . S
O589 Li528 1.970 . S
O589 Li529 1.956 . S
O589 Li531 1.961 . S
O589 C538 1.325 . S
O590 Li528 1.961 . S
O590 Li530 1.956 . S
O590 Li531 1.970 . S
O590 C560 1.325 . S
O591 Li529 1.961 . S
O591 Li530 1.970 . S
O591 Li531 1.956 . S
O591 C566 1.325 . S
H592 C534 0.929 . S
H593 C535 0.930 . S
H594 C536 0.930 . S
H595 C537 0.930 . S
H596 C539 0.930 . S
H597 C541 0.929 . S
H598 C542 0.930 . S
H599 C543 0.930 . S
H600 C546 0.930 . S
H601 C549 0.929 . S
H602 C554 0.929 . S
H603 C555 0.930 . S
H604 C562 0.929 . S
H605 C563 0.930 . S
H606 C564 0.930 . S
H607 C565 0.930 . S
H608 C567 0.929 . S
H609 C568 0.930 . S
H610 C569 0.930 . S
H611 C570 0.930 . S
H612 C574 0.929 . S
H613 C576 0.930 . S
H614 C582 0.929 . S
H615 C583 0.930 . S
Li616 N633 1.990 . S
Li616 O676 1.956 . S
Li616 O677 1.970 . S
Li616 O678 1.961 . S
Li617 N641 1.990 . S
Li617 O676 1.970 . S
Li617 O677 1.956 . S
Li617 O679 1.961 . S
Li618 N663 1.990 . S
Li618 O676 1.961 . S
Li618 O678 1.956 . S
Li618 O679 1.970 . S
Li619 N669 1.990 . S
Li619 O677 1.961 . S
Li619 O678 1.970 . S
Li619 O679 1.956 . S
C620 C622 1.348 1_556 S
C620 C623 1.356 . S
C620 O676 1.325 . S
N621 C624 1.314 . S
N621 C625 1.279 . S
C622 C620 1.348 1_554 S
C622 C624 1.353 . S
C622 H680 0.929 . S
C623 C620 1.356 . S
C623 C625 1.358 1_556 S
C623 H681 0.930 . S
C624 N621 1.314 . S
C624 C622 1.353 . S
C624 H682 0.930 . S
C625 N621 1.279 . S
C625 C623 1.358 1_554 S
C625 H683 0.930 . S
C626 C629 1.295 1_655 S
C626 C630 1.356 1_655 S
C626 O677 1.325 . S
C627 N628 1.279 . S
C627 C630 1.358 . S
C627 H684 0.930 . S
N628 C627 1.279 . S
N628 C631 1.314 . S
C629 C626 1.295 1_455 S
C629 C631 1.428 . S
C629 H685 0.912 1_455 S
C630 C626 1.356 1_455 S
C630 C627 1.358 . S
C630 H686 0.930 . S
C631 N628 1.314 . S
C631 C629 1.428 . S
C631 H687 0.930 . S
C632 N633 1.314 . S
C632 C637 1.353 . S
C632 H638 0.930 . S
N633 Li616 1.990 . S
N633 C632 1.314 . S
N633 C635 1.279 . S
C634 C635 1.358 . S
C634 C636 1.356 . S
C634 H688 0.930 . S
C635 N633 1.279 . S
C635 C634 1.358 . S
C635 H639 0.930 . S
C636 C634 1.356 . S
C636 C637 1.348 . S
C637 C632 1.353 . S
C637 C636 1.348 . S
C637 H689 0.929 . S
H638 C632 0.930 . S
H639 C635 0.930 . S
C640 N641 1.314 1_554 S
C640 C642 1.353 . S
C640 H646 0.930 . S
N641 Li617 1.990 . S
N641 C640 1.314 1_556 S
N641 C644 1.279 1_656 S
C642 C640 1.353 . S
C642 C645 1.348 1_655 S
C642 H690 0.929 . S
C643 C644 1.358 . S
C643 C645 1.356 . S
C643 H691 0.930 . S
C644 N641 1.279 1_454 S
C644 C643 1.358 . S
C644 H647 0.930 1_554 S
C645 C642 1.348 1_455 S
C645 C643 1.356 . S
H646 C640 0.930 . S
H647 C644 0.930 1_556 S
C648 C650 1.348 . S
C648 C651 1.356 . S
C648 O678 1.325 . S
N649 C652 1.314 . S
N649 C653 1.279 . S
C650 C648 1.348 . S
C650 C652 1.353 . S
C650 H692 0.929 . S
C651 C648 1.356 . S
C651 C653 1.358 . S
C651 H693 0.930 . S
C652 N649 1.314 . S
C652 C650 1.353 . S
C652 H694 0.930 . S
C653 N649 1.279 . S
C653 C651 1.358 . S
C653 H695 0.930 . S
C654 C655 1.348 . S
C654 C656 1.356 . S
C654 O679 1.325 . S
C655 C654 1.348 . S
C655 C657 1.353 . S
C655 H696 0.929 . S
C656 C654 1.356 . S
C656 C658 1.358 . S
C656 H697 0.930 . S
C657 C655 1.353 . S
C657 N659 1.314 . S
C657 H698 0.930 . S
C658 C656 1.358 . S
C658 N659 1.279 . S
C658 H699 0.930 . S
N659 C657 1.314 . S
N659 C658 1.279 . S
C660 C662 1.353 . S
C660 N663 1.314 . S
C660 H666 0.930 . S
C661 N663 1.279 . S
C661 C664 1.358 . S
C661 H667 0.930 . S
C662 C660 1.353 . S
C662 C665 1.348 . S
C662 H700 0.929 . S
N663 Li618 1.990 . S
N663 C660 1.314 . S
N663 C661 1.279 . S
C664 C661 1.358 . S
C664 C665 1.356 . S
C664 H701 0.930 . S
C665 C662 1.348 . S
C665 C664 1.356 . S
H666 C660 0.930 . S
H667 C661 0.930 . S
C668 N669 1.314 . S
C668 C670 1.353 . S
C668 H674 0.930 . S
N669 Li619 1.990 . S
N669 C668 1.314 . S
N669 C672 1.279 . S
C670 C668 1.353 . S
C670 C673 1.348 . S
C670 H702 0.929 1_655 S
C671 C672 1.358 . S
C671 C673 1.356 . S
C671 H703 0.930 . S
C672 N669 1.279 . S
C672 C671 1.358 . S
C672 H675 0.930 . S
C673 C670 1.348 . S
C673 C671 1.356 . S
H674 C668 0.930 . S
H675 C672 0.930 . S
O676 Li616 1.956 . S
O676 Li617 1.970 . S
O676 Li618 1.961 . S
O676 C620 1.325 . S
O677 Li616 1.970 . S
O677 Li617 1.956 . S
O677 Li619 1.961 . S
O677 C626 1.325 . S
O678 Li616 1.961 . S
O678 Li618 1.956 . S
O678 Li619 1.970 . S
O678 C648 1.325 . S
O679 Li617 1.961 . S
O679 Li618 1.970 . S
O679 Li619 1.956 . S
O679 C654 1.325 . S
H680 C622 0.929 . S
H681 C623 0.930 . S
H682 C624 0.930 . S
H683 C625 0.930 . S
H684 C627 0.930 . S
H685 C629 0.912 1_655 S
H686 C630 0.930 . S
H687 C631 0.930 . S
H688 C634 0.930 . S
H689 C637 0.929 . S
H690 C642 0.929 . S
H691 C643 0.930 . S
H692 C650 0.929 . S
H693 C651 0.930 . S
H694 C652 0.930 . S
H695 C653 0.930 . S
H696 C655 0.929 . S
H697 C656 0.930 . S
H698 C657 0.930 . S
H699 C658 0.930 . S
H700 C662 0.929 . S
H701 C664 0.930 . S
H702 C670 0.929 1_455 S
H703 C671 0.930 . S
Li704 N721 1.990 . S
Li704 O764 1.956 . S
Li704 O765 1.970 . S
Li704 O766 1.961 . S
Li705 N729 1.990 . S
Li705 O764 1.970 . S
Li705 O765 1.956 . S
Li705 O767 1.961 . S
Li706 N751 1.990 . S
Li706 O764 1.961 . S
Li706 O766 1.956 . S
Li706 O767 1.970 . S
Li707 N757 1.990 . S
Li707 O765 1.961 . S
Li707 O766 1.970 . S
Li707 O767 1.956 . S
C708 C710 1.368 1_565 S
C708 C711 1.356 1_565 S
C708 O764 1.325 . S
N709 C712 1.314 . S
N709 C713 1.279 . S
C710 C708 1.368 1_545 S
C710 C712 1.408 . S
C710 H768 0.859 1_545 S
C711 C708 1.356 1_545 S
C711 C713 1.358 . S
C711 H769 0.930 . S
C712 N709 1.314 . S
C712 C710 1.408 . S
C712 H770 0.930 . S
C713 N709 1.279 . S
C713 C711 1.358 . S
C713 H771 0.930 . S
C714 C717 1.348 . S
C714 C718 1.356 . S
C714 O765 1.325 . S
C715 N716 1.279 . S
C715 C718 1.358 . S
C715 H772 0.930 . S
N716 C715 1.279 . S
N716 C719 1.314 . S
C717 C714 1.348 . S
C717 C719 1.353 . S
C717 H773 0.929 . S
C718 C714 1.356 . S
C718 C715 1.358 . S
C718 H774 0.930 . S
C719 N716 1.314 . S
C719 C717 1.353 . S
C719 H775 0.930 . S
C720 N721 1.314 . S
C720 C725 1.353 . S
C720 H726 0.930 . S
N721 Li704 1.990 . S
N721 C720 1.314 . S
N721 C723 1.279 1_565 S
C722 C723 1.358 . S
C722 C724 1.356 . S
C722 H776 0.930 . S
C723 N721 1.279 1_545 S
C723 C722 1.358 . S
C723 H727 0.930 . S
C724 C722 1.356 . S
C724 C725 1.348 1_545 S
C725 C720 1.353 . S
C725 C724 1.348 1_565 S
C725 H777 0.929 . S
H726 C720 0.930 . S
H727 C723 0.930 . S
C728 N729 1.314 . S
C728 C730 1.353 . S
C728 H734 0.930 . S
N729 Li705 1.990 . S
N729 C728 1.314 . S
N729 C732 1.279 . S
C730 C728 1.353 . S
C730 C733 1.348 . S
C730 H778 0.929 . S
C731 C732 1.358 . S
C731 C733 1.356 . S
C731 H779 0.930 . S
C732 N729 1.279 . S
C732 C731 1.358 . S
C732 H735 0.930 . S
C733 C730 1.348 . S
C733 C731 1.356 . S
H734 C728 0.930 . S
H735 C732 0.930 . S
C736 C738 1.348 . S
C736 C739 1.356 . S
C736 O766 1.325 . S
N737 C740 1.314 . S
N737 C741 1.279 . S
C738 C736 1.348 . S
C738 C740 1.353 . S
C738 H780 0.929 . S
C739 C736 1.356 . S
C739 C741 1.358 . S
C739 H781 0.930 . S
C740 N737 1.314 . S
C740 C738 1.353 . S
C740 H782 0.930 . S
C741 N737 1.279 . S
C741 C739 1.358 . S
C741 H783 0.930 . S
C742 C743 1.348 . S
C742 C744 1.356 . S
C742 O767 1.325 . S
C743 C742 1.348 . S
C743 C745 1.353 . S
C743 H784 0.929 . S
C744 C742 1.356 . S
C744 C746 1.358 . S
C744 H785 0.930 . S
C745 C743 1.353 . S
C745 N747 1.314 . S
C745 H786 0.930 . S
C746 C744 1.358 . S
C746 N747 1.279 . S
C746 H787 0.930 . S
N747 C745 1.314 . S
N747 C746 1.279 . S
C748 C750 1.353 . S
C748 N751 1.314 . S
C748 H754 0.930 . S
C749 N751 1.279 . S
C749 C752 1.358 . S
C749 H755 0.930 . S
C750 C748 1.353 . S
C750 C753 1.348 . S
C750 H788 0.929 1_565 S
N751 Li706 1.990 . S
N751 C748 1.314 . S
N751 C749 1.279 . S
C752 C749 1.358 . S
C752 C753 1.356 . S
C752 H789 0.930 . S
C753 C750 1.348 . S
C753 C752 1.356 . S
H754 C748 0.930 . S
H755 C749 0.930 . S
C756 N757 1.314 . S
C756 C758 1.353 . S
C756 H762 0.930 . S
N757 Li707 1.990 . S
N757 C756 1.314 . S
N757 C760 1.279 . S
C758 C756 1.353 . S
C758 C761 1.348 . S
C758 H790 0.929 . S
C759 C760 1.358 . S
C759 C761 1.356 . S
C759 H791 0.930 . S
C760 N757 1.279 . S
C760 C759 1.358 . S
C760 H763 0.930 . S
C761 C758 1.348 . S
C761 C759 1.356 . S
H762 C756 0.930 . S
H763 C760 0.930 . S
O764 Li704 1.956 . S
O764 Li705 1.970 . S
O764 Li706 1.961 . S
O764 C708 1.325 . S
O765 Li704 1.970 . S
O765 Li705 1.956 . S
O765 Li707 1.961 . S
O765 C714 1.325 . S
O766 Li704 1.961 . S
O766 Li706 1.956 . S
O766 Li707 1.970 . S
O766 C736 1.325 . S
O767 Li705 1.961 . S
O767 Li706 1.970 . S
O767 Li707 1.956 . S
O767 C742 1.325 . S
H768 C710 0.859 1_565 S
H769 C711 0.930 . S
H770 C712 0.930 . S
H771 C713 0.930 . S
H772 C715 0.930 . S
H773 C717 0.929 . S
H774 C718 0.930 . S
H775 C719 0.930 . S
H776 C722 0.930 . S
H777 C725 0.929 . S
H778 C730 0.929 . S
H779 C731 0.930 . S
H780 C738 0.929 . S
H781 C739 0.930 . S
H782 C740 0.930 . S
H783 C741 0.930 . S
H784 C743 0.929 . S
H785 C744 0.930 . S
H786 C745 0.930 . S
H787 C746 0.930 . S
H788 C750 0.929 1_545 S
H789 C752 0.930 . S
H790 C758 0.929 . S
H791 C759 0.930 . S
Li792 N809 1.990 . S
Li792 O852 1.956 . S
Li792 O853 1.970 . S
Li792 O854 1.961 . S
Li793 N817 1.990 . S
Li793 O852 1.970 . S
Li793 O853 1.956 . S
Li793 O855 1.961 . S
Li794 N839 1.990 . S
Li794 O852 1.961 . S
Li794 O854 1.956 . S
Li794 O855 1.970 . S
Li795 N845 1.990 . S
Li795 O853 1.961 . S
Li795 O854 1.970 . S
Li795 O855 1.956 . S
C796 C798 1.348 . S
C796 C799 1.356 . S
C796 O852 1.325 . S
N797 C800 1.314 . S
N797 C801 1.279 . S
C798 C796 1.348 . S
C798 C800 1.353 . S
C798 H856 0.929 . S
C799 C796 1.356 . S
C799 C801 1.358 . S
C799 H857 0.930 . S
C800 N797 1.314 . S
C800 C798 1.353 . S
C800 H858 0.930 . S
C801 N797 1.279 . S
C801 C799 1.358 . S
C801 H859 0.930 . S
C802 C805 1.348 . S
C802 C806 1.356 . S
C802 O853 1.325 . S
C803 N804 1.279 . S
C803 C806 1.358 . S
C803 H860 0.930 . S
N804 C803 1.279 . S
N804 C807 1.314 . S
C805 C802 1.348 . S
C805 C807 1.353 . S
C805 H861 0.929 . S
C806 C802 1.356 . S
C806 C803 1.358 . S
C806 H862 0.930 . S
C807 N804 1.314 . S
C807 C805 1.353 . S
C807 H863 0.930 . S
C808 N809 1.314 . S
C808 C813 1.353 . S
C808 H814 0.930 . S
N809 Li792 1.990 . S
N809 C808 1.314 . S
N809 C811 1.279 . S
C810 C811 1.358 . S
C810 C812 1.356 . S
C810 H864 0.930 . S
C811 N809 1.279 . S
C811 C810 1.358 . S
C811 H815 0.930 . S
C812 C810 1.356 . S
C812 C813 1.348 . S
C813 C808 1.353 . S
C813 C812 1.348 . S
C813 H865 0.929 . S
H814 C808 0.930 . S
H815 C811 0.930 . S
C816 N817 1.314 . S
C816 C818 1.353 . S
C816 H822 0.930 . S
N817 Li793 1.990 . S
N817 C816 1.314 . S
N817 C820 1.279 . S
C818 C816 1.353 . S
C818 C821 1.348 . S
C818 H866 0.929 . S
C819 C820 1.358 . S
C819 C821 1.356 . S
C819 H867 0.930 . S
C820 N817 1.279 . S
C820 C819 1.358 . S
C820 H823 0.930 . S
C821 C818 1.348 . S
C821 C819 1.356 . S
H822 C816 0.930 . S
H823 C820 0.930 . S
C824 C826 1.348 . S
C824 C827 1.356 . S
C824 O854 1.325 . S
N825 C828 1.314 . S
N825 C829 1.279 . S
C826 C824 1.348 . S
C826 C828 1.353 . S
C826 H868 0.929 . S
C827 C824 1.356 . S
C827 C829 1.358 . S
C827 H869 0.930 . S
C828 N825 1.314 . S
C828 C826 1.353 . S
C828 H870 0.930 . S
C829 N825 1.279 . S
C829 C827 1.358 . S
C829 H871 0.930 . S
C830 C831 1.348 . S
C830 C832 1.356 . S
C830 O855 1.325 . S
C831 C830 1.348 . S
C831 C833 1.353 . S
C831 H872 0.929 . S
C832 C830 1.356 . S
C832 C834 1.358 . S
C832 H873 0.930 . S
C833 C831 1.353 . S
C833 N835 1.314 . S
C833 H874 0.930 . S
C834 C832 1.358 . S
C834 N835 1.279 . S
C834 H875 0.930 . S
N835 C833 1.314 . S
N835 C834 1.279 . S
C836 C838 1.353 . S
C836 N839 1.314 . S
C836 H842 0.930 . S
C837 N839 1.279 . S
C837 C840 1.358 . S
C837 H843 0.930 . S
C838 C836 1.353 . S
C838 C841 1.348 . S
C838 H876 0.929 . S
N839 Li794 1.990 . S
N839 C836 1.314 . S
N839 C837 1.279 . S
C840 C837 1.358 . S
C840 C841 1.356 . S
C840 H877 0.930 . S
C841 C838 1.348 . S
C841 C840 1.356 . S
H842 C836 0.930 . S
H843 C837 0.930 . S
C844 N845 1.314 . S
C844 C846 1.353 . S
C844 H850 0.930 . S
N845 Li795 1.990 . S
N845 C844 1.314 . S
N845 C848 1.279 . S
C846 C844 1.353 . S
C846 C849 1.348 . S
C846 H878 0.929 . S
C847 C848 1.358 . S
C847 C849 1.356 . S
C847 H879 0.930 . S
C848 N845 1.279 . S
C848 C847 1.358 . S
C848 H851 0.930 . S
C849 C846 1.348 . S
C849 C847 1.356 . S
H850 C844 0.930 . S
H851 C848 0.930 . S
O852 Li792 1.956 . S
O852 Li793 1.970 . S
O852 Li794 1.961 . S
O852 C796 1.325 . S
O853 Li792 1.970 . S
O853 Li793 1.956 . S
O853 Li795 1.961 . S
O853 C802 1.325 . S
O854 Li792 1.961 . S
O854 Li794 1.956 . S
O854 Li795 1.970 . S
O854 C824 1.325 . S
O855 Li793 1.961 . S
O855 Li794 1.970 . S
O855 Li795 1.956 . S
O855 C830 1.325 . S
H856 C798 0.929 . S
H857 C799 0.930 . S
H858 C800 0.930 . S
H859 C801 0.930 . S
H860 C803 0.930 . S
H861 C805 0.929 . S
H862 C806 0.930 . S
H863 C807 0.930 . S
H864 C810 0.930 . S
H865 C813 0.929 . S
H866 C818 0.929 . S
H867 C819 0.930 . S
H868 C826 0.929 . S
H869 C827 0.930 . S
H870 C828 0.930 . S
H871 C829 0.930 . S
H872 C831 0.929 . S
H873 C832 0.930 . S
H874 C833 0.930 . S
H875 C834 0.930 . S
H876 C838 0.929 . S
H877 C840 0.930 . S
H878 C846 0.929 . S
H879 C847 0.930 . S
Li880 N897 1.990 . S
Li880 O940 1.956 . S
Li880 O941 1.970 . S
Li880 O942 1.961 . S
Li881 N905 1.990 . S
Li881 O940 1.970 . S
Li881 O941 1.956 . S
Li881 O943 1.961 . S
Li882 N927 1.990 . S
Li882 O940 1.961 . S
Li882 O942 1.956 . S
Li882 O943 1.970 . S
Li883 N933 1.990 . S
Li883 O941 1.961 . S
Li883 O942 1.970 . S
Li883 O943 1.956 . S
C884 C886 1.348 1_556 S
C884 C887 1.356 . S
C884 O940 1.325 . S
N885 C888 1.314 . S
N885 C889 1.279 . S
C886 C884 1.348 1_554 S
C886 C888 1.353 . S
C886 H944 0.929 . S
C887 C884 1.356 . S
C887 C889 1.358 1_556 S
C887 H945 0.930 . S
C888 N885 1.314 . S
C888 C886 1.353 . S
C888 H946 0.930 . S
C889 N885 1.279 . S
C889 C887 1.358 1_554 S
C889 H947 0.930 . S
C890 C893 1.295 1_455 S
C890 C894 1.356 1_455 S
C890 O941 1.325 . S
C891 N892 1.279 . S
C891 C894 1.358 . S
C891 H948 0.930 . S
N892 C891 1.279 . S
N892 C895 1.314 . S
C893 C890 1.295 1_655 S
C893 C895 1.428 . S
C893 H949 0.912 1_655 S
C894 C890 1.356 1_655 S
C894 C891 1.358 . S
C894 H950 0.930 . S
C895 N892 1.314 . S
C895 C893 1.428 . S
C895 H951 0.930 . S
C896 N897 1.314 . S
C896 C901 1.353 . S
C896 H902 0.930 . S
N897 Li880 1.990 . S
N897 C896 1.314 . S
N897 C899 1.279 . S
C898 C899 1.358 . S
C898 C900 1.356 . S
C898 H952 0.930 . S
C899 N897 1.279 . S
C899 C898 1.358 . S
C899 H903 0.930 . S
C900 C898 1.356 . S
C900 C901 1.348 . S
C901 C896 1.353 . S
C901 C900 1.348 . S
C901 H953 0.929 . S
H902 C896 0.930 . S
H903 C899 0.930 . S
C904 N905 1.314 1_554 S
C904 C906 1.353 . S
C904 H910 0.930 . S
N905 Li881 1.990 . S
N905 C904 1.314 1_556 S
N905 C908 1.279 1_456 S
C906 C904 1.353 . S
C906 C909 1.348 1_455 S
C906 H954 0.929 . S
C907 C908 1.358 . S
C907 C909 1.356 . S
C907 H955 0.930 . S
C908 N905 1.279 1_654 S
C908 C907 1.358 . S
C908 H911 0.930 1_554 S
C909 C906 1.348 1_655 S
C909 C907 1.356 . S
H910 C904 0.930 . S
H911 C908 0.930 1_556 S
C912 C914 1.348 . S
C912 C915 1.356 . S
C912 O942 1.325 . S
N913 C916 1.314 . S
N913 C917 1.279 . S
C914 C912 1.348 . S
C914 C916 1.353 . S
C914 H956 0.929 . S
C915 C912 1.356 . S
C915 C917 1.358 . S
C915 H957 0.930 . S
C916 N913 1.314 . S
C916 C914 1.353 . S
C916 H958 0.930 . S
C917 N913 1.279 . S
C917 C915 1.358 . S
C917 H959 0.930 . S
C918 C919 1.348 . S
C918 C920 1.356 . S
C918 O943 1.325 . S
C919 C918 1.348 . S
C919 C921 1.353 . S
C919 H960 0.929 . S
C920 C918 1.356 . S
C920 C922 1.358 . S
C920 H961 0.930 . S
C921 C919 1.353 . S
C921 N923 1.314 . S
C921 H962 0.930 . S
C922 C920 1.358 . S
C922 N923 1.279 . S
C922 H963 0.930 . S
N923 C921 1.314 . S
N923 C922 1.279 . S
C924 C926 1.353 . S
C924 N927 1.314 . S
C924 H930 0.930 . S
C925 N927 1.279 . S
C925 C928 1.358 . S
C925 H931 0.930 . S
C926 C924 1.353 . S
C926 C929 1.348 . S
C926 H964 0.929 . S
N927 Li882 1.990 . S
N927 C924 1.314 . S
N927 C925 1.279 . S
C928 C925 1.358 . S
C928 C929 1.356 . S
C928 H965 0.930 . S
C929 C926 1.348 . S
C929 C928 1.356 . S
H930 C924 0.930 . S
H931 C925 0.930 . S
C932 N933 1.314 . S
C932 C934 1.353 . S
C932 H938 0.930 . S
N933 Li883 1.990 . S
N933 C932 1.314 . S
N933 C936 1.279 . S
C934 C932 1.353 . S
C934 C937 1.348 . S
C934 H966 0.929 1_455 S
C935 C936 1.358 . S
C935 C937 1.356 . S
C935 H967 0.930 . S
C936 N933 1.279 . S
C936 C935 1.358 . S
C936 H939 0.930 . S
C937 C934 1.348 . S
C937 C935 1.356 . S
H938 C932 0.930 . S
H939 C936 0.930 . S
O940 Li880 1.956 . S
O940 Li881 1.970 . S
O940 Li882 1.961 . S
O940 C884 1.325 . S
O941 Li880 1.970 . S
O941 Li881 1.956 . S
O941 Li883 1.961 . S
O941 C890 1.325 . S
O942 Li880 1.961 . S
O942 Li882 1.956 . S
O942 Li883 1.970 . S
O942 C912 1.325 . S
O943 Li881 1.961 . S
O943 Li882 1.970 . S
O943 Li883 1.956 . S
O943 C918 1.325 . S
H944 C886 0.929 . S
H945 C887 0.930 . S
H946 C888 0.930 . S
H947 C889 0.930 . S
H948 C891 0.930 . S
H949 C893 0.912 1_455 S
H950 C894 0.930 . S
H951 C895 0.930 . S
H952 C898 0.930 . S
H953 C901 0.929 . S
H954 C906 0.929 . S
H955 C907 0.930 . S
H956 C914 0.929 . S
H957 C915 0.930 . S
H958 C916 0.930 . S
H959 C917 0.930 . S
H960 C919 0.929 . S
H961 C920 0.930 . S
H962 C921 0.930 . S
H963 C922 0.930 . S
H964 C926 0.929 . S
H965 C928 0.930 . S
H966 C934 0.929 1_655 S
H967 C935 0.930 . S
Li968 N985 1.990 . S
Li968 O1028 1.956 . S
Li968 O1029 1.970 . S
Li968 O1030 1.961 . S
Li969 N993 1.990 . S
Li969 O1028 1.970 . S
Li969 O1029 1.956 . S
Li969 O1031 1.961 . S
Li970 N1015 1.990 . S
Li970 O1028 1.961 . S
Li970 O1030 1.956 . S
Li970 O1031 1.970 . S
Li971 N1021 1.990 . S
Li971 O1029 1.961 . S
Li971 O1030 1.970 . S
Li971 O1031 1.956 . S
C972 C974 1.348 . S
C972 C975 1.356 . S
C972 O1028 1.325 . S
N973 C976 1.314 . S
N973 C977 1.279 . S
C974 C972 1.348 . S
C974 C976 1.353 . S
C974 H1032 0.929 . S
C975 C972 1.356 . S
C975 C977 1.358 . S
C975 H1033 0.930 . S
C976 N973 1.314 . S
C976 C974 1.353 . S
C976 H1034 0.930 . S
C977 N973 1.279 . S
C977 C975 1.358 . S
C977 H1035 0.930 . S
C978 C981 1.368 1_545 S
C978 C982 1.356 1_545 S
C978 O1029 1.325 . S
C979 N980 1.279 . S
C979 C982 1.358 . S
C979 H1036 0.930 . S
N980 C979 1.279 . S
N980 C983 1.314 . S
C981 C978 1.368 1_565 S
C981 C983 1.408 . S
C981 H1037 0.859 1_565 S
C982 C978 1.356 1_565 S
C982 C979 1.358 . S
C982 H1038 0.930 . S
C983 N980 1.314 . S
C983 C981 1.408 . S
C983 H1039 0.930 . S
C984 N985 1.314 . S
C984 C989 1.353 . S
C984 H990 0.930 . S
N985 Li968 1.990 . S
N985 C984 1.314 . S
N985 C987 1.279 . S
C986 C987 1.358 . S
C986 C988 1.356 . S
C986 H1040 0.930 . S
C987 N985 1.279 . S
C987 C986 1.358 . S
C987 H991 0.930 . S
C988 C986 1.356 . S
C988 C989 1.348 . S
C989 C984 1.353 . S
C989 C988 1.348 . S
C989 H1041 0.929 . S
H990 C984 0.930 . S
H991 C987 0.930 . S
C992 N993 1.314 . S
C992 C994 1.353 . S
C992 H998 0.930 . S
N993 Li969 1.990 . S
N993 C992 1.314 . S
N993 C996 1.279 1_545 S
C994 C992 1.353 . S
C994 C997 1.348 1_545 S
C994 H1042 0.929 . S
C995 C996 1.358 . S
C995 C997 1.356 . S
C995 H1043 0.930 . S
C996 N993 1.279 1_565 S
C996 C995 1.358 . S
C996 H999 0.930 . S
C997 C994 1.348 1_565 S
C997 C995 1.356 . S
H998 C992 0.930 . S
H999 C996 0.930 . S
C1000 C1002 1.348 . S
C1000 C1003 1.356 . S
C1000 O1030 1.325 . S
N1001 C1004 1.314 . S
N1001 C1005 1.279 . S
C1002 C1000 1.348 . S
C1002 C1004 1.353 . S
C1002 H1044 0.929 . S
C1003 C1000 1.356 . S
C1003 C1005 1.358 . S
C1003 H1045 0.930 . S
C1004 N1001 1.314 . S
C1004 C1002 1.353 . S
C1004 H1046 0.930 . S
C1005 N1001 1.279 . S
C1005 C1003 1.358 . S
C1005 H1047 0.930 . S
C1006 C1007 1.348 . S
C1006 C1008 1.356 . S
C1006 O1031 1.325 . S
C1007 C1006 1.348 . S
C1007 C1009 1.353 . S
C1007 H1048 0.929 . S
C1008 C1006 1.356 . S
C1008 C1010 1.358 . S
C1008 H1049 0.930 . S
C1009 C1007 1.353 . S
C1009 N1011 1.314 . S
C1009 H1050 0.930 . S
C1010 C1008 1.358 . S
C1010 N1011 1.279 . S
C1010 H1051 0.930 . S
N1011 C1009 1.314 . S
N1011 C1010 1.279 . S
C1012 C1014 1.353 . S
C1012 N1015 1.314 . S
C1012 H1018 0.930 . S
C1013 N1015 1.279 . S
C1013 C1016 1.358 . S
C1013 H1019 0.930 . S
C1014 C1012 1.353 . S
C1014 C1017 1.348 . S
C1014 H1052 0.929 . S
N1015 Li970 1.990 . S
N1015 C1012 1.314 . S
N1015 C1013 1.279 . S
C1016 C1013 1.358 . S
C1016 C1017 1.356 . S
C1016 H1053 0.930 . S
C1017 C1014 1.348 . S
C1017 C1016 1.356 . S
H1018 C1012 0.930 . S
H1019 C1013 0.930 . S
C1020 N1021 1.314 . S
C1020 C1022 1.353 . S
C1020 H1026 0.930 . S
N1021 Li971 1.990 . S
N1021 C1020 1.314 . S
N1021 C1024 1.279 . S
C1022 C1020 1.353 . S
C1022 C1025 1.348 . S
C1022 H1054 0.929 1_545 S
C1023 C1024 1.358 . S
C1023 C1025 1.356 . S
C1023 H1055 0.930 . S
C1024 N1021 1.279 . S
C1024 C1023 1.358 . S
C1024 H1027 0.930 . S
C1025 C1022 1.348 . S
C1025 C1023 1.356 . S
H1026 C1020 0.930 . S
H1027 C1024 0.930 . S
O1028 Li968 1.956 . S
O1028 Li969 1.970 . S
O1028 Li970 1.961 . S
O1028 C972 1.325 . S
O1029 Li968 1.970 . S
O1029 Li969 1.956 . S
O1029 Li971 1.961 . S
O1029 C978 1.325 . S
O1030 Li968 1.961 . S
O1030 Li970 1.956 . S
O1030 Li971 1.970 . S
O1030 C1000 1.325 . S
O1031 Li969 1.961 . S
O1031 Li970 1.970 . S
O1031 Li971 1.956 . S
O1031 C1006 1.325 . S
H1032 C974 0.929 . S
H1033 C975 0.930 . S
H1034 C976 0.930 . S
H1035 C977 0.930 . S
H1036 C979 0.930 . S
H1037 C981 0.859 1_545 S
H1038 C982 0.930 . S
H1039 C983 0.930 . S
H1040 C986 0.930 . S
H1041 C989 0.929 . S
H1042 C994 0.929 . S
H1043 C995 0.930 . S
H1044 C1002 0.929 . S
H1045 C1003 0.930 . S
H1046 C1004 0.930 . S
H1047 C1005 0.930 . S
H1048 C1007 0.929 . S
H1049 C1008 0.930 . S
H1050 C1009 0.930 . S
H1051 C1010 0.930 . S
H1052 C1014 0.929 . S
H1053 C1016 0.930 . S
H1054 C1022 0.929 1_565 S
H1055 C1023 0.930 . S
C1056 C1057 1.349 . S
C1056 C1058 1.327 . S
C1056 H1081 0.950 . S
C1057 C1056 1.349 . S
C1057 C1073 1.349 . S
C1058 C1056 1.327 . S
C1058 C1077 1.429 . S
C1058 H1082 0.950 . S
C1059 C1076 1.574 . S
C1059 C1078 1.368 . S
C1059 H1083 0.949 . S
H1060 C1064 0.949 . S
C1061 C1062 1.349 . S
C1061 C1063 1.327 . S
C1061 H1084 0.950 . S
C1062 C1061 1.349 . S
C1062 C1074 1.349 . S
C1063 C1061 1.327 . S
C1063 C1079 1.429 . S
C1063 H1085 0.950 . S
C1064 H1060 0.949 . S
C1064 C1072 1.574 . S
C1064 C1080 1.368 . S
H1065 C1073 0.950 . S
H1066 C1071 0.950 . S
H1067 C1072 0.949 . S
H1068 C1074 0.950 . S
H1069 C1075 0.950 . S
H1070 C1076 0.949 . S
C1071 H1066 0.950 . S
C1071 C1073 1.327 . S
C1071 C1077 1.429 . S
C1072 C1064 1.574 . S
C1072 H1067 0.949 . S
C1072 C1078 1.368 . S
C1073 C1057 1.349 . S
C1073 H1065 0.950 . S
C1073 C1071 1.327 . S
C1074 C1062 1.349 . S
C1074 H1068 0.950 . S
C1074 C1075 1.327 . S
C1075 H1069 0.950 . S
C1075 C1074 1.327 . S
C1075 C1079 1.429 . S
C1076 C1059 1.574 . S
C1076 H1070 0.949 . S
C1076 C1080 1.368 . S
C1077 C1058 1.429 . S
C1077 C1071 1.429 . S
C1077 C1078 1.523 . S
C1078 C1059 1.368 . S
C1078 C1072 1.368 . S
C1078 C1077 1.523 . S
C1079 C1063 1.429 . S
C1079 C1075 1.429 . S
C1079 C1080 1.523 . S
C1080 C1064 1.368 . S
C1080 C1076 1.368 . S
C1080 C1079 1.523 . S
H1081 C1056 0.950 . S
H1082 C1058 0.950 . S
H1083 C1059 0.949 . S
H1084 C1061 0.950 . S
H1085 C1063 0.950 . S
C1086 C1087 1.349 . S
C1086 C1088 1.329 . S
C1086 H1111 0.970 . S
C1087 C1086 1.349 . S
C1087 C1103 1.349 . S
C1088 C1086 1.329 . S
C1088 C1107 1.446 . S
C1088 H1112 0.902 1_655 S
C1089 C1106 1.574 . S
C1089 C1108 1.398 . S
C1089 H1113 0.949 . S
H1090 C1094 0.949 . S
C1091 C1092 1.349 . S
C1091 C1093 1.330 . S
C1091 H1114 0.970 . S
C1092 C1091 1.349 . S
C1092 C1104 1.349 . S
C1093 C1091 1.330 . S
C1093 C1109 1.447 . S
C1093 H1115 0.902 1_455 S
C1094 H1090 0.949 . S
C1094 C1102 1.574 . S
C1094 C1110 1.398 . S
H1095 C1103 0.950 . S
H1096 C1101 0.950 . S
H1097 C1102 0.949 . S
H1098 C1104 0.950 . S
H1099 C1105 0.950 . S
H1100 C1106 0.949 . S
C1101 H1096 0.950 . S
C1101 C1103 1.327 . S
C1101 C1107 1.429 . S
C1102 C1094 1.574 . S
C1102 H1097 0.949 . S
C1102 C1108 1.338 1_455 S
C1103 C1087 1.349 . S
C1103 H1095 0.950 . S
C1103 C1101 1.327 . S
C1104 C1092 1.349 . S
C1104 H1098 0.950 . S
C1104 C1105 1.327 . S
C1105 H1099 0.950 . S
C1105 C1104 1.327 . S
C1105 C1109 1.429 . S
C1106 C1089 1.574 . S
C1106 H1100 0.949 . S
C1106 C1110 1.338 1_655 S
C1107 C1088 1.446 . S
C1107 C1101 1.429 . S
C1107 C1108 1.526 . S
C1108 C1089 1.398 . S
C1108 C1102 1.338 1_655 S
C1108 C1107 1.526 . S
C1109 C1093 1.447 . S
C1109 C1105 1.429 . S
C1109 C1110 1.526 . S
C1110 C1094 1.398 . S
C1110 C1106 1.338 1_455 S
C1110 C1109 1.526 . S
H1111 C1086 0.970 . S
H1112 C1088 0.902 1_455 S
H1113 C1089 0.949 . S
H1114 C1091 0.970 . S
H1115 C1093 0.902 1_655 S
C1116 C1117 1.349 1_545 S
C1116 C1118 1.327 . S
C1116 H1141 0.950 . S
C1117 C1116 1.349 1_565 S
C1117 C1133 1.349 . S
C1118 C1116 1.327 . S
C1118 C1137 1.429 1_545 S
C1118 H1142 0.950 . S
C1119 C1136 1.574 1_556 S
C1119 C1138 1.419 . S
C1119 H1143 0.949 . S
H1120 C1124 0.949 . S
C1121 C1122 1.349 1_565 S
C1121 C1123 1.327 . S
C1121 H1144 0.950 . S
C1122 C1121 1.349 1_545 S
C1122 C1134 1.349 . S
C1123 C1121 1.327 . S
C1123 C1139 1.429 1_565 S
C1123 H1145 0.950 . S
C1124 H1120 0.949 . S
C1124 C1132 1.574 1_554 S
C1124 C1140 1.418 . S
H1125 C1133 0.950 . S
H1126 C1131 0.950 . S
H1127 C1132 0.949 . S
H1128 C1134 0.950 . S
H1129 C1135 0.950 . S
H1130 C1136 0.949 . S
C1131 H1126 0.950 . S
C1131 C1133 1.327 . S
C1131 C1137 1.429 . S
C1132 C1124 1.574 1_556 S
C1132 H1127 0.949 . S
C1132 C1138 1.317 1_545 S
C1133 C1117 1.349 . S
C1133 H1125 0.950 . S
C1133 C1131 1.327 . S
C1134 C1122 1.349 . S
C1134 H1128 0.950 . S
C1134 C1135 1.327 . S
C1135 H1129 0.950 . S
C1135 C1134 1.327 . S
C1135 C1139 1.429 . S
C1136 C1119 1.574 1_554 S
C1136 H1130 0.949 . S
C1136 C1140 1.317 1_565 S
C1137 C1118 1.429 1_565 S
C1137 C1131 1.429 . S
C1137 C1138 1.526 . S
C1138 C1119 1.419 . S
C1138 C1132 1.317 1_565 S
C1138 C1137 1.526 . S
C1139 C1123 1.429 1_545 S
C1139 C1135 1.429 . S
C1139 C1140 1.526 . S
C1140 C1124 1.418 . S
C1140 C1136 1.317 1_545 S
C1140 C1139 1.526 . S
H1141 C1116 0.950 . S
H1142 C1118 0.950 . S
H1143 C1119 0.949 . S
H1144 C1121 0.950 . S
H1145 C1123 0.950 . S
C1146 C1147 1.349 . S
C1146 C1148 1.327 . S
C1146 H1171 0.950 . S
C1147 C1146 1.349 . S
C1147 C1163 1.349 . S
C1148 C1146 1.327 . S
C1148 C1167 1.429 . S
C1148 H1172 0.950 . S
C1149 C1166 1.574 . S
C1149 C1168 1.368 . S
C1149 H1173 0.949 . S
H1150 C1154 0.949 . S
C1151 C1152 1.349 . S
C1151 C1153 1.327 . S
C1151 H1174 0.950 . S
C1152 C1151 1.349 . S
C1152 C1164 1.349 . S
C1153 C1151 1.327 . S
C1153 C1169 1.429 . S
C1153 H1175 0.950 . S
C1154 H1150 0.949 . S
C1154 C1162 1.574 . S
C1154 C1170 1.368 . S
H1155 C1163 0.950 . S
H1156 C1161 0.950 . S
H1157 C1162 0.949 . S
H1158 C1164 0.950 . S
H1159 C1165 0.950 . S
H1160 C1166 0.949 . S
C1161 H1156 0.950 . S
C1161 C1163 1.327 . S
C1161 C1167 1.429 . S
C1162 C1154 1.574 . S
C1162 H1157 0.949 . S
C1162 C1168 1.368 . S
C1163 C1147 1.349 . S
C1163 H1155 0.950 . S
C1163 C1161 1.327 . S
C1164 C1152 1.349 . S
C1164 H1158 0.950 . S
C1164 C1165 1.327 . S
C1165 H1159 0.950 . S
C1165 C1164 1.327 . S
C1165 C1169 1.429 . S
C1166 C1149 1.574 . S
C1166 H1160 0.949 . S
C1166 C1170 1.368 . S
C1167 C1148 1.429 . S
C1167 C1161 1.429 . S
C1167 C1168 1.523 . S
C1168 C1149 1.368 . S
C1168 C1162 1.368 . S
C1168 C1167 1.523 . S
C1169 C1153 1.429 . S
C1169 C1165 1.429 . S
C1169 C1170 1.523 . S
C1170 C1154 1.368 . S
C1170 C1166 1.368 . S
C1170 C1169 1.523 . S
H1171 C1146 0.950 . S
H1172 C1148 0.950 . S
H1173 C1149 0.949 . S
H1174 C1151 0.950 . S
H1175 C1153 0.950 . S
C1176 C1177 1.349 . S
C1176 C1178 1.327 . S
C1176 H1201 0.950 . S
C1177 C1176 1.349 . S
C1177 C1193 1.349 1_655 S
C1178 C1176 1.327 . S
C1178 C1197 1.429 . S
C1178 H1202 0.950 . S
C1179 C1196 1.574 . S
C1179 C1198 1.338 1_455 S
C1179 H1203 0.949 . S
H1180 C1184 0.949 . S
C1181 C1182 1.349 . S
C1181 C1183 1.327 . S
C1181 H1204 0.950 . S
C1182 C1181 1.349 . S
C1182 C1194 1.349 1_455 S
C1183 C1181 1.327 . S
C1183 C1199 1.429 . S
C1183 H1205 0.950 . S
C1184 H1180 0.949 . S
C1184 C1192 1.574 . S
C1184 C1200 1.339 1_655 S
H1185 C1193 0.950 . S
H1186 C1191 0.950 . S
H1187 C1192 0.949 . S
H1188 C1194 0.950 . S
H1189 C1195 0.950 . S
H1190 C1196 0.949 . S
C1191 H1186 0.950 . S
C1191 C1193 1.327 . S
C1191 C1197 1.429 1_455 S
C1192 C1184 1.574 . S
C1192 H1187 0.949 . S
C1192 C1198 1.398 . S
C1193 C1177 1.349 1_455 S
C1193 H1185 0.950 . S
C1193 C1191 1.327 . S
C1194 C1182 1.349 1_655 S
C1194 H1188 0.950 . S
C1194 C1195 1.327 . S
C1195 H1189 0.950 . S
C1195 C1194 1.327 . S
C1195 C1199 1.429 1_655 S
C1196 C1179 1.574 . S
C1196 H1190 0.949 . S
C1196 C1200 1.398 . S
C1197 C1178 1.429 . S
C1197 C1191 1.429 1_655 S
C1197 C1198 1.526 . S
C1198 C1179 1.338 1_655 S
C1198 C1192 1.398 . S
C1198 C1197 1.526 . S
C1199 C1183 1.429 . S
C1199 C1195 1.429 1_455 S
C1199 C1200 1.526 . S
C1200 C1184 1.339 1_455 S
C1200 C1196 1.398 . S
C1200 C1199 1.526 . S
H1201 C1176 0.950 . S
H1202 C1178 0.950 . S
H1203 C1179 0.949 . S
H1204 C1181 0.950 . S
H1205 C1183 0.950 . S
C1206 C1207 1.349 1_545 S
C1206 C1208 1.327 . S
C1206 H1231 0.950 . S
C1207 C1206 1.349 1_565 S
C1207 C1223 1.349 . S
C1208 C1206 1.327 . S
C1208 C1227 1.429 1_545 S
C1208 H1232 0.950 . S
C1209 C1226 1.574 1_554 S
C1209 C1228 1.390 . S
C1209 H1233 0.949 . S
H1210 C1214 0.949 . S
C1211 C1212 1.349 1_565 S
C1211 C1213 1.327 . S
C1211 H1234 0.950 . S
C1212 C1211 1.349 1_545 S
C1212 C1224 1.349 . S
C1213 C1211 1.327 . S
C1213 C1229 1.429 1_565 S
C1213 H1235 0.950 . S
C1214 H1210 0.949 . S
C1214 C1222 1.574 1_556 S
C1214 C1230 1.391 . S
H1215 C1223 0.950 . S
H1216 C1221 0.950 . S
H1217 C1222 0.949 . S
H1218 C1224 0.950 . S
H1219 C1225 0.950 . S
H1220 C1226 0.949 . S
C1221 H1216 0.950 . S
C1221 C1223 1.327 . S
C1221 C1227 1.429 . S
C1222 C1214 1.574 1_554 S
C1222 H1217 0.949 . S
C1222 C1228 1.346 1_545 S
C1223 C1207 1.349 . S
C1223 H1215 0.950 . S
C1223 C1221 1.327 . S
C1224 C1212 1.349 . S
C1224 H1218 0.950 . S
C1224 C1225 1.327 . S
C1225 H1219 0.950 . S
C1225 C1224 1.327 . S
C1225 C1229 1.429 . S
C1226 C1209 1.574 1_556 S
C1226 H1220 0.949 . S
C1226 C1230 1.346 1_565 S
C1227 C1208 1.429 1_565 S
C1227 C1221 1.429 . S
C1227 C1228 1.526 . S
C1228 C1209 1.390 . S
C1228 C1222 1.346 1_565 S
C1228 C1227 1.526 . S
C1229 C1213 1.429 1_545 S
C1229 C1225 1.429 . S
C1229 C1230 1.526 . S
C1230 C1214 1.391 . S
C1230 C1226 1.346 1_545 S
C1230 C1229 1.526 . S
H1231 C1206 0.950 . S
H1232 C1208 0.950 . S
H1233 C1209 0.949 . S
H1234 C1211 0.950 . S
H1235 C1213 0.950 . S
C1236 C1237 1.349 . S
C1236 C1238 1.327 . S
C1236 H1261 0.950 . S
C1237 C1236 1.349 . S
C1237 C1253 1.349 . S
C1238 C1236 1.327 . S
C1238 C1257 1.429 . S
C1238 H1262 0.950 . S
C1239 C1256 1.574 . S
C1239 C1258 1.368 . S
C1239 H1263 0.949 . S
H1240 C1244 0.949 . S
C1241 C1242 1.349 . S
C1241 C1243 1.327 . S
C1241 H1264 0.950 . S
C1242 C1241 1.349 . S
C1242 C1254 1.349 . S
C1243 C1241 1.327 . S
C1243 C1259 1.429 . S
C1243 H1265 0.950 . S
C1244 H1240 0.949 . S
C1244 C1252 1.574 . S
C1244 C1260 1.368 . S
H1245 C1253 0.950 . S
H1246 C1251 0.950 . S
H1247 C1252 0.949 . S
H1248 C1254 0.950 . S
H1249 C1255 0.950 . S
H1250 C1256 0.949 . S
C1251 H1246 0.950 . S
C1251 C1253 1.327 . S
C1251 C1257 1.429 . S
C1252 C1244 1.574 . S
C1252 H1247 0.949 . S
C1252 C1258 1.368 1_554 S
C1253 C1237 1.349 . S
C1253 H1245 0.950 . S
C1253 C1251 1.327 . S
C1254 C1242 1.349 . S
C1254 H1248 0.950 . S
C1254 C1255 1.327 . S
C1255 H1249 0.950 . S
C1255 C1254 1.327 . S
C1255 C1259 1.429 . S
C1256 C1239 1.574 . S
C1256 H1250 0.949 . S
C1256 C1260 1.368 1_556 S
C1257 C1238 1.429 . S
C1257 C1251 1.429 . S
C1257 C1258 1.523 . S
C1258 C1239 1.368 . S
C1258 C1252 1.368 1_556 S
C1258 C1257 1.523 . S
C1259 C1243 1.429 . S
C1259 C1255 1.429 . S
C1259 C1260 1.523 . S
C1260 C1244 1.368 . S
C1260 C1256 1.368 1_554 S
C1260 C1259 1.523 . S
H1261 C1236 0.950 . S
H1262 C1238 0.950 . S
H1263 C1239 0.949 . S
H1264 C1241 0.950 . S
H1265 C1243 0.950 . S
C1266 C1267 1.349 . S
C1266 C1268 1.327 . S
C1266 H1291 0.950 . S
C1267 C1266 1.349 . S
C1267 C1283 1.349 . S
C1268 C1266 1.327 . S
C1268 C1287 1.429 . S
C1268 H1292 0.950 . S
C1269 C1286 1.574 . S
C1269 C1288 1.368 . S
C1269 H1293 0.949 . S
H1270 C1274 0.949 . S
C1271 C1272 1.349 . S
C1271 C1273 1.327 . S
C1271 H1294 0.950 . S
C1272 C1271 1.349 . S
C1272 C1284 1.349 . S
C1273 C1271 1.327 . S
C1273 C1289 1.429 . S
C1273 H1295 0.950 . S
C1274 H1270 0.949 . S
C1274 C1282 1.574 . S
C1274 C1290 1.368 . S
H1275 C1283 0.950 . S
H1276 C1281 0.950 . S
H1277 C1282 0.949 . S
H1278 C1284 0.950 . S
H1279 C1285 0.950 . S
H1280 C1286 0.949 . S
C1281 H1276 0.950 . S
C1281 C1283 1.327 . S
C1281 C1287 1.429 . S
C1282 C1274 1.574 . S
C1282 H1277 0.949 . S
C1282 C1288 1.368 . S
C1283 C1267 1.349 . S
C1283 H1275 0.950 . S
C1283 C1281 1.327 . S
C1284 C1272 1.349 . S
C1284 H1278 0.950 . S
C1284 C1285 1.327 . S
C1285 H1279 0.950 . S
C1285 C1284 1.327 . S
C1285 C1289 1.429 . S
C1286 C1269 1.574 . S
C1286 H1280 0.949 . S
C1286 C1290 1.368 . S
C1287 C1268 1.429 . S
C1287 C1281 1.429 . S
C1287 C1288 1.523 . S
C1288 C1269 1.368 . S
C1288 C1282 1.368 . S
C1288 C1287 1.523 . S
C1289 C1273 1.429 . S
C1289 C1285 1.429 . S
C1289 C1290 1.523 . S
C1290 C1274 1.368 . S
C1290 C1286 1.368 . S
C1290 C1289 1.523 . S
H1291 C1266 0.950 . S
H1292 C1268 0.950 . S
H1293 C1269 0.949 . S
H1294 C1271 0.950 . S
H1295 C1273 0.950 . S
C1296 C1297 1.349 . S
C1296 C1298 1.327 . S
C1296 H1321 0.950 . S
C1297 C1296 1.349 . S
C1297 C1313 1.349 . S
C1298 C1296 1.327 . S
C1298 C1317 1.429 . S
C1298 H1322 0.950 . S
C1299 C1316 1.574 . S
C1299 C1318 1.368 . S
C1299 H1323 0.949 . S
H1300 C1304 0.949 . S
C1301 C1302 1.349 . S
C1301 C1303 1.327 . S
C1301 H1324 0.950 . S
C1302 C1301 1.349 . S
C1302 C1314 1.349 . S
C1303 C1301 1.327 . S
C1303 C1319 1.429 . S
C1303 H1325 0.950 . S
C1304 H1300 0.949 . S
C1304 C1312 1.574 . S
C1304 C1320 1.368 . S
H1305 C1313 0.950 . S
H1306 C1311 0.950 . S
H1307 C1312 0.949 . S
H1308 C1314 0.950 . S
H1309 C1315 0.950 . S
H1310 C1316 0.949 . S
C1311 H1306 0.950 . S
C1311 C1313 1.327 . S
C1311 C1317 1.429 . S
C1312 C1304 1.574 . S
C1312 H1307 0.949 . S
C1312 C1318 1.368 . S
C1313 C1297 1.349 . S
C1313 H1305 0.950 . S
C1313 C1311 1.327 . S
C1314 C1302 1.349 . S
C1314 H1308 0.950 . S
C1314 C1315 1.327 . S
C1315 H1309 0.950 . S
C1315 C1314 1.327 . S
C1315 C1319 1.429 . S
C1316 C1299 1.574 . S
C1316 H1310 0.949 . S
C1316 C1320 1.368 . S
C1317 C1298 1.429 . S
C1317 C1311 1.429 . S
C1317 C1318 1.523 . S
C1318 C1299 1.368 . S
C1318 C1312 1.368 . S
C1318 C1317 1.523 . S
C1319 C1303 1.429 . S
C1319 C1315 1.429 . S
C1319 C1320 1.523 . S
C1320 C1304 1.368 . S
C1320 C1316 1.368 . S
C1320 C1319 1.523 . S
H1321 C1296 0.950 . S
H1322 C1298 0.950 . S
H1323 C1299 0.949 . S
H1324 C1301 0.950 . S
H1325 C1303 0.950 . S
C1326 C1327 1.349 . S
C1326 C1328 1.327 . S
C1326 H1351 0.950 . S
C1327 C1326 1.349 . S
C1327 C1343 1.349 . S
C1328 C1326 1.327 . S
C1328 C1347 1.429 . S
C1328 H1352 0.950 . S
C1329 C1346 1.574 . S
C1329 C1348 1.368 . S
C1329 H1353 0.949 . S
H1330 C1334 0.949 . S
C1331 C1332 1.349 . S
C1331 C1333 1.327 . S
C1331 H1354 0.950 . S
C1332 C1331 1.349 . S
C1332 C1344 1.349 . S
C1333 C1331 1.327 . S
C1333 C1349 1.429 . S
C1333 H1355 0.950 . S
C1334 H1330 0.949 . S
C1334 C1342 1.574 . S
C1334 C1350 1.368 . S
H1335 C1343 0.950 . S
H1336 C1341 0.950 . S
H1337 C1342 0.949 . S
H1338 C1344 0.950 . S
H1339 C1345 0.950 . S
H1340 C1346 0.949 . S
C1341 H1336 0.950 . S
C1341 C1343 1.327 . S
C1341 C1347 1.429 . S
C1342 C1334 1.574 . S
C1342 H1337 0.949 . S
C1342 C1348 1.368 1_556 S
C1343 C1327 1.349 . S
C1343 H1335 0.950 . S
C1343 C1341 1.327 . S
C1344 C1332 1.349 . S
C1344 H1338 0.950 . S
C1344 C1345 1.327 . S
C1345 H1339 0.950 . S
C1345 C1344 1.327 . S
C1345 C1349 1.429 . S
C1346 C1329 1.574 . S
C1346 H1340 0.949 . S
C1346 C1350 1.368 1_554 S
C1347 C1328 1.429 . S
C1347 C1341 1.429 . S
C1347 C1348 1.523 . S
C1348 C1329 1.368 . S
C1348 C1342 1.368 1_554 S
C1348 C1347 1.523 . S
C1349 C1333 1.429 . S
C1349 C1345 1.429 . S
C1349 C1350 1.523 . S
C1350 C1334 1.368 . S
C1350 C1346 1.368 1_556 S
C1350 C1349 1.523 . S
H1351 C1326 0.950 . S
H1352 C1328 0.950 . S
H1353 C1329 0.949 . S
H1354 C1331 0.950 . S
H1355 C1333 0.950 . S
C1356 C1357 1.349 . S
C1356 C1358 1.327 . S
C1356 H1381 0.950 . S
C1357 C1356 1.349 . S
C1357 C1373 1.349 . S
C1358 C1356 1.327 . S
C1358 C1377 1.429 . S
C1358 H1382 0.950 . S
C1359 C1376 1.574 . S
C1359 C1378 1.368 . S
C1359 H1383 0.949 . S
H1360 C1364 0.949 . S
C1361 C1362 1.349 . S
C1361 C1363 1.327 . S
C1361 H1384 0.950 . S
C1362 C1361 1.349 . S
C1362 C1374 1.349 . S
C1363 C1361 1.327 . S
C1363 C1379 1.429 . S
C1363 H1385 0.950 . S
C1364 H1360 0.949 . S
C1364 C1372 1.574 . S
C1364 C1380 1.368 . S
H1365 C1373 0.950 . S
H1366 C1371 0.950 . S
H1367 C1372 0.949 . S
H1368 C1374 0.950 . S
H1369 C1375 0.950 . S
H1370 C1376 0.949 . S
C1371 H1366 0.950 . S
C1371 C1373 1.327 . S
C1371 C1377 1.429 . S
C1372 C1364 1.574 . S
C1372 H1367 0.949 . S
C1372 C1378 1.368 . S
C1373 C1357 1.349 . S
C1373 H1365 0.950 . S
C1373 C1371 1.327 . S
C1374 C1362 1.349 . S
C1374 H1368 0.950 . S
C1374 C1375 1.327 . S
C1375 H1369 0.950 . S
C1375 C1374 1.327 . S
C1375 C1379 1.429 . S
C1376 C1359 1.574 . S
C1376 H1370 0.949 . S
C1376 C1380 1.368 . S
C1377 C1358 1.429 . S
C1377 C1371 1.429 . S
C1377 C1378 1.523 . S
C1378 C1359 1.368 . S
C1378 C1372 1.368 . S
C1378 C1377 1.523 . S
C1379 C1363 1.429 . S
C1379 C1375 1.429 . S
C1379 C1380 1.523 . S
C1380 C1364 1.368 . S
C1380 C1376 1.368 . S
C1380 C1379 1.523 . S
H1381 C1356 0.950 . S
H1382 C1358 0.950 . S
H1383 C1359 0.949 . S
H1384 C1361 0.950 . S
H1385 C1363 0.950 . S
C1386 C1387 1.349 . S
C1386 C1388 1.327 . S
C1386 H1411 0.950 . S
C1387 C1386 1.349 . S
C1387 C1403 1.349 . S
C1388 C1386 1.327 . S
C1388 C1407 1.429 . S
C1388 H1412 0.950 . S
C1389 C1406 1.574 . S
C1389 C1408 1.368 . S
C1389 H1413 0.949 . S
H1390 C1394 0.949 . S
C1391 C1392 1.349 . S
C1391 C1393 1.327 . S
C1391 H1414 0.950 . S
C1392 C1391 1.349 . S
C1392 C1404 1.349 . S
C1393 C1391 1.327 . S
C1393 C1409 1.429 . S
C1393 H1415 0.950 . S
C1394 H1390 0.949 . S
C1394 C1402 1.574 . S
C1394 C1410 1.368 . S
H1395 C1403 0.950 . S
H1396 C1401 0.950 . S
H1397 C1402 0.949 . S
H1398 C1404 0.950 . S
H1399 C1405 0.950 . S
H1400 C1406 0.949 . S
C1401 H1396 0.950 . S
C1401 C1403 1.327 . S
C1401 C1407 1.429 . S
C1402 C1394 1.574 . S
C1402 H1397 0.949 . S
C1402 C1408 1.368 . S
C1403 C1387 1.349 . S
C1403 H1395 0.950 . S
C1403 C1401 1.327 . S
C1404 C1392 1.349 . S
C1404 H1398 0.950 . S
C1404 C1405 1.327 . S
C1405 H1399 0.950 . S
C1405 C1404 1.327 . S
C1405 C1409 1.429 . S
C1406 C1389 1.574 . S
C1406 H1400 0.949 . S
C1406 C1410 1.368 . S
C1407 C1388 1.429 . S
C1407 C1401 1.429 . S
C1407 C1408 1.523 . S
C1408 C1389 1.368 . S
C1408 C1402 1.368 . S
C1408 C1407 1.523 . S
C1409 C1393 1.429 . S
C1409 C1405 1.429 . S
C1409 C1410 1.523 . S
C1410 C1394 1.368 . S
C1410 C1406 1.368 . S
C1410 C1409 1.523 . S
H1411 C1386 0.950 . S
H1412 C1388 0.950 . S
H1413 C1389 0.949 . S
H1414 C1391 0.950 . S
H1415 C1393 0.950 . S
C1416 C1417 1.349 . S
C1416 C1418 1.327 . S
C1416 H1441 0.950 . S
C1417 C1416 1.349 . S
C1417 C1433 1.349 . S
C1418 C1416 1.327 . S
C1418 C1437 1.429 . S
C1418 H1442 0.950 . S
C1419 C1436 1.574 . S
C1419 C1438 1.368 . S
C1419 H1443 0.949 . S
H1420 C1424 0.949 . S
C1421 C1422 1.349 . S
C1421 C1423 1.327 . S
C1421 H1444 0.950 . S
C1422 C1421 1.349 . S
C1422 C1434 1.349 . S
C1423 C1421 1.327 . S
C1423 C1439 1.429 . S
C1423 H1445 0.950 . S
C1424 H1420 0.949 . S
C1424 C1432 1.574 . S
C1424 C1440 1.368 . S
H1425 C1433 0.950 . S
H1426 C1431 0.950 . S
H1427 C1432 0.949 . S
H1428 C1434 0.950 . S
H1429 C1435 0.950 . S
H1430 C1436 0.949 . S
C1431 H1426 0.950 . S
C1431 C1433 1.327 . S
C1431 C1437 1.429 . S
C1432 C1424 1.574 . S
C1432 H1427 0.949 . S
C1432 C1438 1.368 . S
C1433 C1417 1.349 . S
C1433 H1425 0.950 . S
C1433 C1431 1.327 . S
C1434 C1422 1.349 . S
C1434 H1428 0.950 . S
C1434 C1435 1.327 . S
C1435 H1429 0.950 . S
C1435 C1434 1.327 . S
C1435 C1439 1.429 . S
C1436 C1419 1.574 . S
C1436 H1430 0.949 . S
C1436 C1440 1.368 . S
C1437 C1418 1.429 . S
C1437 C1431 1.429 . S
C1437 C1438 1.523 . S
C1438 C1419 1.368 . S
C1438 C1432 1.368 . S
C1438 C1437 1.523 . S
C1439 C1423 1.429 . S
C1439 C1435 1.429 . S
C1439 C1440 1.523 . S
C1440 C1424 1.368 . S
C1440 C1436 1.368 . S
C1440 C1439 1.523 . S
H1441 C1416 0.950 . S
H1442 C1418 0.950 . S
H1443 C1419 0.949 . S
H1444 C1421 0.950 . S
H1445 C1423 0.950 . S
C1446 C1447 1.349 . S
C1446 C1448 1.327 . S
C1446 H1471 0.950 . S
C1447 C1446 1.349 . S
C1447 C1463 1.349 1_455 S
C1448 C1446 1.327 . S
C1448 C1467 1.429 . S
C1448 H1472 0.950 . S
C1449 C1466 1.574 . S
C1449 C1468 1.368 1_655 S
C1449 H1473 0.949 . S
H1450 C1454 0.949 . S
C1451 C1452 1.349 . S
C1451 C1453 1.327 . S
C1451 H1474 0.950 . S
C1452 C1451 1.349 . S
C1452 C1464 1.349 1_655 S
C1453 C1451 1.327 . S
C1453 C1469 1.429 . S
C1453 H1475 0.950 . S
C1454 H1450 0.949 . S
C1454 C1462 1.574 . S
C1454 C1470 1.368 1_455 S
H1455 C1463 0.950 . S
H1456 C1461 0.950 . S
H1457 C1462 0.949 . S
H1458 C1464 0.950 . S
H1459 C1465 0.950 . S
H1460 C1466 0.949 . S
C1461 H1456 0.950 . S
C1461 C1463 1.327 . S
C1461 C1467 1.429 1_655 S
C1462 C1454 1.574 . S
C1462 H1457 0.949 . S
C1462 C1468 1.368 . S
C1463 C1447 1.349 1_655 S
C1463 H1455 0.950 . S
C1463 C1461 1.327 . S
C1464 C1452 1.349 1_455 S
C1464 H1458 0.950 . S
C1464 C1465 1.327 . S
C1465 H1459 0.950 . S
C1465 C1464 1.327 . S
C1465 C1469 1.429 1_455 S
C1466 C1449 1.574 . S
C1466 H1460 0.949 . S
C1466 C1470 1.368 . S
C1467 C1448 1.429 . S
C1467 C1461 1.429 1_455 S
C1467 C1468 1.523 . S
C1468 C1449 1.368 1_455 S
C1468 C1462 1.368 . S
C1468 C1467 1.523 . S
C1469 C1453 1.429 . S
C1469 C1465 1.429 1_655 S
C1469 C1470 1.523 . S
C1470 C1454 1.368 1_655 S
C1470 C1466 1.368 . S
C1470 C1469 1.523 . S
H1471 C1446 0.950 . S
H1472 C1448 0.950 . S
H1473 C1449 0.949 . S
H1474 C1451 0.950 . S
H1475 C1453 0.950 . S
C1476 C1477 1.349 1_565 S
C1476 C1478 1.327 . S
C1476 H1501 0.950 . S
C1477 C1476 1.349 1_545 S
C1477 C1493 1.349 . S
C1478 C1476 1.327 . S
C1478 C1497 1.429 1_565 S
C1478 H1502 0.950 . S
C1479 C1496 1.574 . S
C1479 C1498 1.368 . S
C1479 H1503 0.949 . S
H1480 C1484 0.949 . S
C1481 C1482 1.349 1_545 S
C1481 C1483 1.327 . S
C1481 H1504 0.950 . S
C1482 C1481 1.349 1_565 S
C1482 C1494 1.349 . S
C1483 C1481 1.327 . S
C1483 C1499 1.429 1_545 S
C1483 H1505 0.950 . S
C1484 H1480 0.949 . S
C1484 C1492 1.574 . S
C1484 C1500 1.368 . S
H1485 C1493 0.950 . S
H1486 C1491 0.950 . S
H1487 C1492 0.949 . S
H1488 C1494 0.950 . S
H1489 C1495 0.950 . S
H1490 C1496 0.949 . S
C1491 H1486 0.950 . S
C1491 C1493 1.327 . S
C1491 C1497 1.429 . S
C1492 C1484 1.574 . S
C1492 H1487 0.949 . S
C1492 C1498 1.368 1_565 S
C1493 C1477 1.349 . S
C1493 H1485 0.950 . S
C1493 C1491 1.327 . S
C1494 C1482 1.349 . S
C1494 H1488 0.950 . S
C1494 C1495 1.327 . S
C1495 H1489 0.950 . S
C1495 C1494 1.327 . S
C1495 C1499 1.429 . S
C1496 C1479 1.574 . S
C1496 H1490 0.949 . S
C1496 C1500 1.368 1_545 S
C1497 C1478 1.429 1_545 S
C1497 C1491 1.429 . S
C1497 C1498 1.523 . S
C1498 C1479 1.368 . S
C1498 C1492 1.368 1_545 S
C1498 C1497 1.523 . S
C1499 C1483 1.429 1_565 S
C1499 C1495 1.429 . S
C1499 C1500 1.523 . S
C1500 C1484 1.368 . S
C1500 C1496 1.368 1_565 S
C1500 C1499 1.523 . S
H1501 C1476 0.950 . S
H1502 C1478 0.950 . S
H1503 C1479 0.949 . S
H1504 C1481 0.950 . S
H1505 C1483 0.950 . S
C1506 C1507 1.349 . S
C1506 C1508 1.327 . S
C1506 H1531 0.950 . S
C1507 C1506 1.349 . S
C1507 C1523 1.349 . S
C1508 C1506 1.327 . S
C1508 C1527 1.429 . S
C1508 H1532 0.950 . S
C1509 C1526 1.574 . S
C1509 C1528 1.368 . S
C1509 H1533 0.949 . S
H1510 C1514 0.949 . S
C1511 C1512 1.349 . S
C1511 C1513 1.327 . S
C1511 H1534 0.950 . S
C1512 C1511 1.349 . S
C1512 C1524 1.349 . S
C1513 C1511 1.327 . S
C1513 C1529 1.429 . S
C1513 H1535 0.950 . S
C1514 H1510 0.949 . S
C1514 C1522 1.574 . S
C1514 C1530 1.368 . S
H1515 C1523 0.950 . S
H1516 C1521 0.950 . S
H1517 C1522 0.949 . S
H1518 C1524 0.950 . S
H1519 C1525 0.950 . S
H1520 C1526 0.949 . S
C1521 H1516 0.950 . S
C1521 C1523 1.327 . S
C1521 C1527 1.429 . S
C1522 C1514 1.574 . S
C1522 H1517 0.949 . S
C1522 C1528 1.368 . S
C1523 C1507 1.349 . S
C1523 H1515 0.950 . S
C1523 C1521 1.327 . S
C1524 C1512 1.349 . S
C1524 H1518 0.950 . S
C1524 C1525 1.327 . S
C1525 H1519 0.950 . S
C1525 C1524 1.327 . S
C1525 C1529 1.429 . S
C1526 C1509 1.574 . S
C1526 H1520 0.949 . S
C1526 C1530 1.368 . S
C1527 C1508 1.429 . S
C1527 C1521 1.429 . S
C1527 C1528 1.523 . S
C1528 C1509 1.368 . S
C1528 C1522 1.368 . S
C1528 C1527 1.523 . S
C1529 C1513 1.429 . S
C1529 C1525 1.429 . S
C1529 C1530 1.523 . S
C1530 C1514 1.368 . S
C1530 C1526 1.368 . S
C1530 C1529 1.523 . S
H1531 C1506 0.950 . S
H1532 C1508 0.950 . S
H1533 C1509 0.949 . S
H1534 C1511 0.950 . S
H1535 C1513 0.950 . S
C1536 C1537 1.349 1_455 S
C1536 C1538 1.327 . S
C1536 H1561 0.950 . S
C1537 C1536 1.349 1_655 S
C1537 C1553 1.349 . S
C1538 C1536 1.327 . S
C1538 C1557 1.429 1_455 S
C1538 H1562 0.950 . S
C1539 C1556 1.574 . S
C1539 C1558 1.368 . S
C1539 H1563 0.949 . S
H1540 C1544 0.949 . S
C1541 C1542 1.349 1_655 S
C1541 C1543 1.327 . S
C1541 H1564 0.950 . S
C1542 C1541 1.349 1_455 S
C1542 C1554 1.349 . S
C1543 C1541 1.327 . S
C1543 C1559 1.429 1_655 S
C1543 H1565 0.950 . S
C1544 H1540 0.949 . S
C1544 C1552 1.574 . S
C1544 C1560 1.368 . S
H1545 C1553 0.950 . S
H1546 C1551 0.950 . S
H1547 C1552 0.949 . S
H1548 C1554 0.950 . S
H1549 C1555 0.950 . S
H1550 C1556 0.949 . S
C1551 H1546 0.950 . S
C1551 C1553 1.327 . S
C1551 C1557 1.429 . S
C1552 C1544 1.574 . S
C1552 H1547 0.949 . S
C1552 C1558 1.368 1_455 S
C1553 C1537 1.349 . S
C1553 H1545 0.950 . S
C1553 C1551 1.327 . S
C1554 C1542 1.349 . S
C1554 H1548 0.950 . S
C1554 C1555 1.327 . S
C1555 H1549 0.950 . S
C1555 C1554 1.327 . S
C1555 C1559 1.429 . S
C1556 C1539 1.574 . S
C1556 H1550 0.949 . S
C1556 C1560 1.368 1_655 S
C1557 C1538 1.429 1_655 S
C1557 C1551 1.429 . S
C1557 C1558 1.523 . S
C1558 C1539 1.368 . S
C1558 C1552 1.368 1_655 S
C1558 C1557 1.523 . S
C1559 C1543 1.429 1_455 S
C1559 C1555 1.429 . S
C1559 C1560 1.523 . S
C1560 C1544 1.368 . S
C1560 C1556 1.368 1_455 S
C1560 C1559 1.523 . S
H1561 C1536 0.950 . S
H1562 C1538 0.950 . S
H1563 C1539 0.949 . S
H1564 C1541 0.950 . S
H1565 C1543 0.950 . S
C1566 C1567 1.349 . S
C1566 C1568 1.327 . S
C1566 H1591 0.950 . S
C1567 C1566 1.349 . S
C1567 C1583 1.349 1_545 S
C1568 C1566 1.327 . S
C1568 C1587 1.429 . S
C1568 H1592 0.950 . S
C1569 C1586 1.574 . S
C1569 C1588 1.368 1_565 S
C1569 H1593 0.949 . S
H1570 C1574 0.949 . S
C1571 C1572 1.349 . S
C1571 C1573 1.327 . S
C1571 H1594 0.950 . S
C1572 C1571 1.349 . S
C1572 C1584 1.349 1_565 S
C1573 C1571 1.327 . S
C1573 C1589 1.429 . S
C1573 H1595 0.950 . S
C1574 H1570 0.949 . S
C1574 C1582 1.574 . S
C1574 C1590 1.368 1_545 S
H1575 C1583 0.950 . S
H1576 C1581 0.950 . S
H1577 C1582 0.949 . S
H1578 C1584 0.950 . S
H1579 C1585 0.950 . S
H1580 C1586 0.949 . S
C1581 H1576 0.950 . S
C1581 C1583 1.327 . S
C1581 C1587 1.429 1_565 S
C1582 C1574 1.574 . S
C1582 H1577 0.949 . S
C1582 C1588 1.368 . S
C1583 C1567 1.349 1_565 S
C1583 H1575 0.950 . S
C1583 C1581 1.327 . S
C1584 C1572 1.349 1_545 S
C1584 H1578 0.950 . S
C1584 C1585 1.327 . S
C1585 H1579 0.950 . S
C1585 C1584 1.327 . S
C1585 C1589 1.429 1_545 S
C1586 C1569 1.574 . S
C1586 H1580 0.949 . S
C1586 C1590 1.368 . S
C1587 C1568 1.429 . S
C1587 C1581 1.429 1_545 S
C1587 C1588 1.523 . S
C1588 C1569 1.368 1_545 S
C1588 C1582 1.368 . S
C1588 C1587 1.523 . S
C1589 C1573 1.429 . S
C1589 C1585 1.429 1_565 S
C1589 C1590 1.523 . S
C1590 C1574 1.368 1_565 S
C1590 C1586 1.368 . S
C1590 C1589 1.523 . S
H1591 C1566 0.950 . S
H1592 C1568 0.950 . S
H1593 C1569 0.949 . S
H1594 C1571 0.950 . S
H1595 C1573 0.950 . S
C1596 C1597 1.349 . S
C1596 C1598 1.327 . S
C1596 H1621 0.950 . S
C1597 C1596 1.349 . S
C1597 C1613 1.349 . S
C1598 C1596 1.327 . S
C1598 C1617 1.429 . S
C1598 H1622 0.950 . S
C1599 C1616 1.574 . S
C1599 C1618 1.368 . S
C1599 H1623 0.949 . S
H1600 C1604 0.949 . S
C1601 C1602 1.349 . S
C1601 C1603 1.327 . S
C1601 H1624 0.950 . S
C1602 C1601 1.349 . S
C1602 C1614 1.349 . S
C1603 C1601 1.327 . S
C1603 C1619 1.429 . S
C1603 H1625 0.950 . S
C1604 H1600 0.949 . S
C1604 C1612 1.574 . S
C1604 C1620 1.368 . S
H1605 C1613 0.950 . S
H1606 C1611 0.950 . S
H1607 C1612 0.949 . S
H1608 C1614 0.950 . S
H1609 C1615 0.950 . S
H1610 C1616 0.949 . S
C1611 H1606 0.950 . S
C1611 C1613 1.327 . S
C1611 C1617 1.429 . S
C1612 C1604 1.574 . S
C1612 H1607 0.949 . S
C1612 C1618 1.368 . S
C1613 C1597 1.349 . S
C1613 H1605 0.950 . S
C1613 C1611 1.327 . S
C1614 C1602 1.349 . S
C1614 H1608 0.950 . S
C1614 C1615 1.327 . S
C1615 H1609 0.950 . S
C1615 C1614 1.327 . S
C1615 C1619 1.429 . S
C1616 C1599 1.574 . S
C1616 H1610 0.949 . S
C1616 C1620 1.368 . S
C1617 C1598 1.429 . S
C1617 C1611 1.429 . S
C1617 C1618 1.523 . S
C1618 C1599 1.368 . S
C1618 C1612 1.368 . S
C1618 C1617 1.523 . S
C1619 C1603 1.429 . S
C1619 C1615 1.429 . S
C1619 C1620 1.523 . S
C1620 C1604 1.368 . S
C1620 C1616 1.368 . S
C1620 C1619 1.523 . S
H1621 C1596 0.950 . S
H1622 C1598 0.950 . S
H1623 C1599 0.949 . S
H1624 C1601 0.950 . S
H1625 C1603 0.950 . S
C1626 C1627 1.349 . S
C1626 C1628 1.327 . S
C1626 H1651 0.950 . S
C1627 C1626 1.349 . S
C1627 C1643 1.349 . S
C1628 C1626 1.327 . S
C1628 C1647 1.429 . S
C1628 H1652 0.950 . S
C1629 C1646 1.574 . S
C1629 C1648 1.368 . S
C1629 H1653 0.949 . S
H1630 C1634 0.949 . S
C1631 C1632 1.349 . S
C1631 C1633 1.327 . S
C1631 H1654 0.950 . S
C1632 C1631 1.349 . S
C1632 C1644 1.349 . S
C1633 C1631 1.327 . S
C1633 C1649 1.429 . S
C1633 H1655 0.950 . S
C1634 H1630 0.949 . S
C1634 C1642 1.574 . S
C1634 C1650 1.368 . S
H1635 C1643 0.950 . S
H1636 C1641 0.950 . S
H1637 C1642 0.949 . S
H1638 C1644 0.950 . S
H1639 C1645 0.950 . S
H1640 C1646 0.949 . S
C1641 H1636 0.950 . S
C1641 C1643 1.327 . S
C1641 C1647 1.429 . S
C1642 C1634 1.574 . S
C1642 H1637 0.949 . S
C1642 C1648 1.368 1_655 S
C1643 C1627 1.349 . S
C1643 H1635 0.950 . S
C1643 C1641 1.327 . S
C1644 C1632 1.349 . S
C1644 H1638 0.950 . S
C1644 C1645 1.327 . S
C1645 H1639 0.950 . S
C1645 C1644 1.327 . S
C1645 C1649 1.429 . S
C1646 C1629 1.574 . S
C1646 H1640 0.949 . S
C1646 C1650 1.368 1_455 S
C1647 C1628 1.429 . S
C1647 C1641 1.429 . S
C1647 C1648 1.523 . S
C1648 C1629 1.368 . S
C1648 C1642 1.368 1_455 S
C1648 C1647 1.523 . S
C1649 C1633 1.429 . S
C1649 C1645 1.429 . S
C1649 C1650 1.523 . S
C1650 C1634 1.368 . S
C1650 C1646 1.368 1_655 S
C1650 C1649 1.523 . S
H1651 C1626 0.950 . S
H1652 C1628 0.950 . S
H1653 C1629 0.949 . S
H1654 C1631 0.950 . S
H1655 C1633 0.950 . S
C1656 C1657 1.349 . S
C1656 C1658 1.327 . S
C1656 H1681 0.950 . S
C1657 C1656 1.349 . S
C1657 C1673 1.349 . S
C1658 C1656 1.327 . S
C1658 C1677 1.429 . S
C1658 H1682 0.950 . S
C1659 C1676 1.574 . S
C1659 C1678 1.368 . S
C1659 H1683 0.949 . S
H1660 C1664 0.949 . S
C1661 C1662 1.349 . S
C1661 C1663 1.327 . S
C1661 H1684 0.950 . S
C1662 C1661 1.349 . S
C1662 C1674 1.349 . S
C1663 C1661 1.327 . S
C1663 C1679 1.429 . S
C1663 H1685 0.950 . S
C1664 H1660 0.949 . S
C1664 C1672 1.574 . S
C1664 C1680 1.368 . S
H1665 C1673 0.950 . S
H1666 C1671 0.950 . S
H1667 C1672 0.949 . S
H1668 C1674 0.950 . S
H1669 C1675 0.950 . S
H1670 C1676 0.949 . S
C1671 H1666 0.950 . S
C1671 C1673 1.327 . S
C1671 C1677 1.429 . S
C1672 C1664 1.574 . S
C1672 H1667 0.949 . S
C1672 C1678 1.368 1_545 S
C1673 C1657 1.349 . S
C1673 H1665 0.950 . S
C1673 C1671 1.327 . S
C1674 C1662 1.349 . S
C1674 H1668 0.950 . S
C1674 C1675 1.327 . S
C1675 H1669 0.950 . S
C1675 C1674 1.327 . S
C1675 C1679 1.429 . S
C1676 C1659 1.574 . S
C1676 H1670 0.949 . S
C1676 C1680 1.368 1_565 S
C1677 C1658 1.429 . S
C1677 C1671 1.429 . S
C1677 C1678 1.523 . S
C1678 C1659 1.368 . S
C1678 C1672 1.368 1_565 S
C1678 C1677 1.523 . S
C1679 C1663 1.429 . S
C1679 C1675 1.429 . S
C1679 C1680 1.523 . S
C1680 C1664 1.368 . S
C1680 C1676 1.368 1_545 S
C1680 C1679 1.523 . S
H1681 C1656 0.950 . S
H1682 C1658 0.950 . S
H1683 C1659 0.949 . S
H1684 C1661 0.950 . S
H1685 C1663 0.950 . S
C1686 C1687 1.349 . S
C1686 C1688 1.327 . S
C1686 H1711 0.950 . S
C1687 C1686 1.349 . S
C1687 C1703 1.349 . S
C1688 C1686 1.327 . S
C1688 C1707 1.429 . S
C1688 H1712 0.950 . S
C1689 C1706 1.574 . S
C1689 C1708 1.368 . S
C1689 H1713 0.949 . S
H1690 C1694 0.949 . S
C1691 C1692 1.349 . S
C1691 C1693 1.327 . S
C1691 H1714 0.950 . S
C1692 C1691 1.349 . S
C1692 C1704 1.349 . S
C1693 C1691 1.327 . S
C1693 C1709 1.429 . S
C1693 H1715 0.950 . S
C1694 H1690 0.949 . S
C1694 C1702 1.574 . S
C1694 C1710 1.368 . S
H1695 C1703 0.950 . S
H1696 C1701 0.950 . S
H1697 C1702 0.949 . S
H1698 C1704 0.950 . S
H1699 C1705 0.950 . S
H1700 C1706 0.949 . S
C1701 H1696 0.950 . S
C1701 C1703 1.327 . S
C1701 C1707 1.429 . S
C1702 C1694 1.574 . S
C1702 H1697 0.949 . S
C1702 C1708 1.368 . S
C1703 C1687 1.349 . S
C1703 H1695 0.950 . S
C1703 C1701 1.327 . S
C1704 C1692 1.349 . S
C1704 H1698 0.950 . S
C1704 C1705 1.327 . S
C1705 H1699 0.950 . S
C1705 C1704 1.327 . S
C1705 C1709 1.429 . S
C1706 C1689 1.574 . S
C1706 H1700 0.949 . S
C1706 C1710 1.368 . S
C1707 C1688 1.429 . S
C1707 C1701 1.429 . S
C1707 C1708 1.523 . S
C1708 C1689 1.368 . S
C1708 C1702 1.368 . S
C1708 C1707 1.523 . S
C1709 C1693 1.429 . S
C1709 C1705 1.429 . S
C1709 C1710 1.523 . S
C1710 C1694 1.368 . S
C1710 C1706 1.368 . S
C1710 C1709 1.523 . S
H1711 C1686 0.950 . S
H1712 C1688 0.950 . S
H1713 C1689 0.949 . S
H1714 C1691 0.950 . S
H1715 C1693 0.950 . S
C1716 C1717 1.349 . S
C1716 C1718 1.327 . S
C1716 H1741 0.950 . S
C1717 C1716 1.349 . S
C1717 C1733 1.349 . S
C1718 C1716 1.327 . S
C1718 C1737 1.429 . S
C1718 H1742 0.950 . S
C1719 C1736 1.574 . S
C1719 C1738 1.368 1_455 S
C1719 H1743 0.949 . S
H1720 C1724 0.949 . S
C1721 C1722 1.349 . S
C1721 C1723 1.327 . S
C1721 H1744 0.950 . S
C1722 C1721 1.349 . S
C1722 C1734 1.349 . S
C1723 C1721 1.327 . S
C1723 C1739 1.429 . S
C1723 H1745 0.950 . S
C1724 H1720 0.949 . S
C1724 C1732 1.574 . S
C1724 C1740 1.368 1_655 S
H1725 C1733 0.950 . S
H1726 C1731 0.950 . S
H1727 C1732 0.949 . S
H1728 C1734 0.950 . S
H1729 C1735 0.950 . S
H1730 C1736 0.949 . S
C1731 H1726 0.950 . S
C1731 C1733 1.327 . S
C1731 C1737 1.429 . S
C1732 C1724 1.574 . S
C1732 H1727 0.949 . S
C1732 C1738 1.368 . S
C1733 C1717 1.349 . S
C1733 H1725 0.950 . S
C1733 C1731 1.327 . S
C1734 C1722 1.349 . S
C1734 H1728 0.950 . S
C1734 C1735 1.327 . S
C1735 H1729 0.950 . S
C1735 C1734 1.327 . S
C1735 C1739 1.429 . S
C1736 C1719 1.574 . S
C1736 H1730 0.949 . S
C1736 C1740 1.368 . S
C1737 C1718 1.429 . S
C1737 C1731 1.429 . S
C1737 C1738 1.523 . S
C1738 C1719 1.368 1_655 S
C1738 C1732 1.368 . S
C1738 C1737 1.523 . S
C1739 C1723 1.429 . S
C1739 C1735 1.429 . S
C1739 C1740 1.523 . S
C1740 C1724 1.368 1_455 S
C1740 C1736 1.368 . S
C1740 C1739 1.523 . S
H1741 C1716 0.950 . S
H1742 C1718 0.950 . S
H1743 C1719 0.949 . S
H1744 C1721 0.950 . S
H1745 C1723 0.950 . S
C1746 C1747 1.349 . S
C1746 C1748 1.327 . S
C1746 H1771 0.950 . S
C1747 C1746 1.349 . S
C1747 C1763 1.349 . S
C1748 C1746 1.327 . S
C1748 C1767 1.429 . S
C1748 H1772 0.950 . S
C1749 C1766 1.574 . S
C1749 C1768 1.368 . S
C1749 H1773 0.949 . S
H1750 C1754 0.949 . S
C1751 C1752 1.349 . S
C1751 C1753 1.327 . S
C1751 H1774 0.950 . S
C1752 C1751 1.349 . S
C1752 C1764 1.349 . S
C1753 C1751 1.327 . S
C1753 C1769 1.429 . S
C1753 H1775 0.950 . S
C1754 H1750 0.949 . S
C1754 C1762 1.574 . S
C1754 C1770 1.368 . S
H1755 C1763 0.950 . S
H1756 C1761 0.950 . S
H1757 C1762 0.949 . S
H1758 C1764 0.950 . S
H1759 C1765 0.950 . S
H1760 C1766 0.949 . S
C1761 H1756 0.950 . S
C1761 C1763 1.327 . S
C1761 C1767 1.429 . S
C1762 C1754 1.574 . S
C1762 H1757 0.949 . S
C1762 C1768 1.368 1_565 S
C1763 C1747 1.349 . S
C1763 H1755 0.950 . S
C1763 C1761 1.327 . S
C1764 C1752 1.349 . S
C1764 H1758 0.950 . S
C1764 C1765 1.327 . S
C1765 H1759 0.950 . S
C1765 C1764 1.327 . S
C1765 C1769 1.429 . S
C1766 C1749 1.574 . S
C1766 H1760 0.949 . S
C1766 C1770 1.368 1_545 S
C1767 C1748 1.429 . S
C1767 C1761 1.429 . S
C1767 C1768 1.523 . S
C1768 C1749 1.368 . S
C1768 C1762 1.368 1_545 S
C1768 C1767 1.523 . S
C1769 C1753 1.429 . S
C1769 C1765 1.429 . S
C1769 C1770 1.523 . S
C1770 C1754 1.368 . S
C1770 C1766 1.368 1_565 S
C1770 C1769 1.523 . S
H1771 C1746 0.950 . S
H1772 C1748 0.950 . S
H1773 C1749 0.949 . S
H1774 C1751 0.950 . S
H1775 C1753 0.950 . S
C1057 C29 1.441 . S
C1062 C841 1.441 . S
C1087 C108 1.441 . S
C1092 C937 1.441 . S
C1117 C196 1.441 . S
C1122 C1025 1.441 . S
C1147 C284 1.441 . S
C1152 C577 1.441 . S
C1177 C673 1.441 . S
C1182 C381 1.441 . S
C1207 C753 1.441 . S
C1212 C469 1.441 . S
C1237 C929 1.186 . S
C1242 C20 1.186 . S
C1267 C117 1.187 . S
C1272 C1017 1.187 . S
C1297 C205 1.186 . S
C1302 C585 1.186 . S
C1327 C293 1.186 . S
C1332 C665 1.186 . S
C1357 C372 1.187 . S
C1362 C761 1.187 . S
C1387 C460 1.186 . S
C1392 C849 1.186 . S
C1417 C812 0.534 . S
C1422 C57 0.534 . S
C1447 C137 0.534 . S
C1452 C909 0.534 . S
C1477 C225 0.534 . S
C1482 C997 0.534 . S
C1507 C548 0.534 . S
C1512 C313 0.534 . S
C1537 C409 0.534 . S
C1542 C645 0.534 . S
C1567 C724 0.534 . S
C1572 C497 0.534 . S
C1597 C49 1.483 . S
C1602 C321 1.483 . S
C1627 C401 1.484 . S
C1632 C145 1.484 . S
C1657 C233 1.483 . S
C1662 C489 1.483 . S
C1687 C557 1.483 . S
C1692 C821 1.483 . S
C1717 C636 1.483 . S
C1722 C900 1.483 . S
C1747 C988 1.484 . S
C1752 C733 1.484 . S
