# Generated by pormake.
# Topology reo, (8)-cn, num edge types: 1
# Building blocks:
#     Node 0, Type 0, BuildingBlock: GIZVER_clean_sbu_0, # of connection points: 8
#     Node 1, Type 0, BuildingBlock: GIZVER_clean_sbu_0, # of connection points: 8
#     Node 2, Type 0, BuildingBlock: GIZVER_clean_sbu_0, # of connection points: 8
#     Edge 3, Type (0, 0), BuildingBlock: CIFDUS_clean_linker_0, # of connection points: 2
#     Edge 4, Type (0, 0), BuildingBlock: CIFDUS_clean_linker_0, # of connection points: 2
#     Edge 5, Type (0, 0), BuildingBlock: CIFDUS_clean_linker_0, # of connection points: 2
#     Edge 6, Type (0, 0), BuildingBlock: CIFDUS_clean_linker_0, # of connection points: 2
#     Edge 7, Type (0, 0), BuildingBlock: CIFDUS_clean_linker_0, # of connection points: 2
#     Edge 8, Type (0, 0), BuildingBlock: CIFDUS_clean_linker_0, # of connection points: 2
#     Edge 9, Type (0, 0), BuildingBlock: CIFDUS_clean_linker_0, # of connection points: 2
#     Edge 10, Type (0, 0), BuildingBlock: CIFDUS_clean_linker_0, # of connection points: 2
#     Edge 11, Type (0, 0), BuildingBlock: CIFDUS_clean_linker_0, # of connection points: 2
#     Edge 12, Type (0, 0), BuildingBlock: CIFDUS_clean_linker_0, # of connection points: 2
#     Edge 13, Type (0, 0), BuildingBlock: CIFDUS_clean_linker_0, # of connection points: 2
#     Edge 14, Type (0, 0), BuildingBlock: CIFDUS_clean_linker_0, # of connection points: 2
# Relax obj value: 0.095
# Max RMSD: 0.203
# Mean RMSD: 0.142
data_MOF--net-reo--node1-GIZVER_clean_sbu_0--edge1-CIFDUS_clean_linker_0
_symmetry_space_group_name_H-M    P1
_symmetry_Int_Tables_number       1
_symmetry_cell_setting            triclinic
loop_
_symmetry_equiv_pos_as_xyz
'x, y, z'
_cell_length_a     21.659582
_cell_length_b     22.468213
_cell_length_c     22.667978
_cell_angle_alpha  109.15371
_cell_angle_beta   93.135747
_cell_angle_gamma 75.551262
loop_
_atom_site_label
_atom_site_type_symbol
_atom_site_fract_x
_atom_site_fract_y
_atom_site_fract_z
_atom_type_partial_charge
Co0 Co 0.04628 0.98035 0.62578 0.0
Co1 Co 0.13414 1.01638 0.5819 0.0
Co2 Co 1.01052 1.04501 0.50803 0.0
O3 O 0.068 0.98139 0.54452 0.0
H4 H 0.08352 0.93862 0.51454 0.0
O5 O 0.95244 0.107 0.47127 0.0
Co6 Co 0.97107 0.11245 0.39133 0.0
Co7 Co 0.8869 0.07011 0.43306 0.0
H8 H 0.93546 0.14903 0.50192 0.0
O9 O 0.20974 0.96384 0.59272 0.0
O10 O 0.12407 1.00992 0.65995 0.0
O11 O 0.12856 0.10685 0.59445 0.0
O12 O 0.02554 0.12674 0.57401 0.0
O13 O 0.08394 1.04062 0.45518 0.0
O14 O 0.98469 0.12413 0.32026 0.0
O15 O 0.92342 0.19525 0.40278 0.0
O16 O 0.02773 1.02803 0.36955 0.0
O17 O 0.99673 0.96365 0.44172 0.0
O18 O 0.8944 0.97897 0.41918 0.0
O19 O 0.89595 0.0773 0.35511 0.0
O20 O 0.81029 0.12129 0.42189 0.0
C21 C 0.05786 0.91452 0.67364 0.0
C22 C 0.94154 0.06645 0.62078 0.0
C23 C 0.07442 0.14635 0.59901 0.0
C24 C 0.18362 0.97749 0.64735 0.0
C25 C 0.94763 0.18134 0.34683 0.0
C26 C 0.08163 1.02447 0.3957 0.0
C27 C 0.94959 0.94165 0.41557 0.0
C28 C 0.83574 0.1078 0.36699 0.0
O29 O 0.0277 0.97494 0.69751 0.0
O30 O 0.08719 0.8951 0.61899 0.0
O31 O 0.93695 0.04991 0.56143 0.0
O32 O 0.99665 0.06564 0.64351 0.0
Co33 Co 0.65344 1.04343 0.94284 0.0
Co34 Co 0.56882 0.14459 1.00619 0.0
Co35 Co 0.5201 1.03525 1.01418 0.0
O36 O 0.56308 0.06312 0.95681 0.0
H37 H 0.53887 0.06551 0.92021 0.0
O38 O 0.47662 1.00706 0.07235 0.0
Co39 Co 0.40714 0.05294 0.13504 0.0
Co40 Co 0.40501 0.99754 0.03226 0.0
H41 H 0.50078 0.9665 0.07696 0.0
O42 O 0.57041 0.20294 0.97005 0.0
O43 O 0.65458 0.13423 0.99852 0.0
O44 O 0.54931 0.17747 0.09541 0.0
O45 O 0.56672 0.07523 0.08999 0.0
O46 O 0.45183 0.1184 0.02877 0.0
O47 O 0.3477 0.09051 0.19589 0.0
O48 O 0.42272 0.99655 0.17977 0.0
O49 O 0.38053 0.11934 0.09716 0.0
O50 O 0.47575 0.99102 0.93628 0.0
O51 O 0.37659 1.03545 0.96994 0.0
O52 O 0.34537 1.00233 0.08451 0.0
O53 O 0.40523 0.91604 1.00739 0.0
C54 C 0.71366 0.05196 0.87992 0.0
C55 C 0.64905 0.95486 1.00559 0.0
C56 C 0.56586 0.13392 0.12085 0.0
C57 C 0.62976 0.1879 0.98524 0.0
C58 C 0.37296 1.03918 0.21148 0.0
C59 C 0.39903 0.14407 0.06014 0.0
C60 C 0.41657 1.00752 0.92523 0.0
C61 C 0.35818 0.94116 0.04836 0.0
O62 O 0.7358 1.02793 0.92402 0.0
O63 O 0.65195 0.07077 0.87506 0.0
O64 O 0.59019 0.95448 0.99789 0.0
O65 O 0.66806 1.00578 1.00964 0.0
Co66 Co 0.99043 0.42213 0.05824 0.0
Co67 Co 0.9048 0.48776 1.00071 0.0
Co68 Co 0.02462 0.54082 1.01058 0.0
O69 O 0.96784 0.51127 0.05618 0.0
H70 H 0.94987 0.54356 0.09513 0.0
O71 O 0.08303 0.56664 0.96413 0.0
Co72 Co 0.06253 0.6499 0.95409 0.0
Co73 Co 0.14567 0.59227 0.0172 0.0
H74 H 0.10183 0.53217 0.92674 0.0
O75 O 0.83078 0.4768 0.02656 0.0
O76 O 0.92387 0.40142 0.99728 0.0
O77 O 0.9115 0.48674 0.91558 0.0
O78 O 1.01532 0.47552 0.92571 0.0
O79 O 0.94889 0.60987 0.99783 0.0
O80 O 0.04615 0.72443 0.93835 0.0
O81 O 0.11196 0.62939 0.88372 0.0
O82 O 1.00688 0.68193 0.02374 0.0
O83 O 0.03333 0.60586 0.09533 0.0
O84 O 0.13524 0.60738 0.10558 0.0
O85 O 0.13268 0.67341 1.00893 0.0
O86 O 0.22221 0.59154 0.98655 0.0
C87 C 0.96466 0.37221 0.11102 0.0
C88 C 0.10291 0.41566 1.00935 0.0
C89 C 0.9674 0.46604 0.89159 0.0
C90 C 0.86337 0.41667 1.01159 0.0
C91 C 0.0835 0.68984 0.88979 0.0
C92 C 0.95245 0.66939 0.01627 0.0
C93 C 0.0794 0.62248 0.12894 0.0
C94 C 0.1935 0.65208 0.99548 0.0
O95 O 1.00605 0.3437 0.06482 0.0
O96 O 0.93709 0.43409 0.12371 0.0
O97 O 0.10044 0.47604 0.02619 0.0
O98 O 0.05177 0.39741 0.99343 0.0
H99 H 0.92328 0.40978 0.23424 0.0
H100 H 0.97387 0.24344 0.06702 0.0
H101 H 0.96545 0.17152 0.12414 0.0
H102 H 0.95575 0.15339 0.22243 0.0
H103 H 0.90966 0.3155 0.39289 0.0
H104 H 0.90366 0.39122 0.33402 0.0
C105 C 0.93127 0.35795 0.21032 0.0
C106 C 0.94957 0.33218 0.14637 0.0
C107 C 0.92802 0.31584 0.24421 0.0
C108 C 0.96012 0.26478 0.11613 0.0
C109 C 0.95549 0.22334 0.14882 0.0
C110 C 0.94384 0.20535 0.24687 0.0
C111 C 0.93418 0.22869 0.31208 0.0
C112 C 0.94146 0.24803 0.21306 0.0
C113 C 0.91756 0.29622 0.34269 0.0
C114 C 0.91448 0.33948 0.30902 0.0
H115 H 0.70673 0.15205 0.37254 0.0
H116 H 0.87049 0.0914 0.2472 0.0
H117 H 0.80014 0.10147 0.16114 0.0
H118 H 0.69201 0.11766 0.11969 0.0
H119 H 0.52863 0.17201 0.24324 0.0
H120 H 0.59892 0.17466 0.33245 0.0
C121 C 0.72725 0.14171 0.32661 0.0
C122 C 0.79392 0.12048 0.31629 0.0
C123 C 0.68649 0.14626 0.27715 0.0
C124 C 0.81945 0.10744 0.25641 0.0
C125 C 0.77924 0.11308 0.20715 0.0
C126 C 0.67206 0.13133 0.16652 0.0
C127 C 0.60571 0.1454 0.17574 0.0
C128 C 0.71275 0.13105 0.21675 0.0
C129 C 0.57971 0.16193 0.23583 0.0
C130 C 0.61987 0.163 0.28646 0.0
H131 H 0.06462 0.85415 0.38048 0.0
H132 H 0.86308 0.87807 0.34702 0.0
H133 H 0.88544 0.77665 0.25944 0.0
H134 H 0.96255 0.68833 0.18496 0.0
H135 H 0.16423 0.66699 0.21616 0.0
H136 H 0.14116 0.75967 0.31222 0.0
C137 C 0.02534 0.8367 0.35492 0.0
C138 C 0.9622 0.87438 0.3703 0.0
C139 C 0.03857 0.77888 0.30365 0.0
C140 C 0.91216 0.85055 0.33633 0.0
C141 C 0.92492 0.79253 0.28594 0.0
C142 C 1.00156 0.70296 0.21334 0.0
C143 C 0.06515 0.67072 0.19278 0.0
C144 C 0.98803 0.75731 0.26804 0.0
C145 C 0.11486 0.69086 0.2304 0.0
C146 C 0.10172 0.74412 0.28537 0.0
H147 H 0.2928 0.96112 0.18802 0.0
H148 H 0.36952 0.09425 0.33814 0.0
H149 H 0.28957 0.09516 0.41139 0.0
H150 H 0.18908 0.06908 0.4292 0.0
H151 H 0.10519 0.9468 0.27465 0.0
H152 H 0.19588 0.93057 0.20656 0.0
C153 C 0.29296 0.9887 0.23711 0.0
C154 C 0.33773 1.02628 0.25808 0.0
C155 C 0.24448 0.99191 0.2778 0.0
C156 C 0.33648 0.06363 0.32142 0.0
C157 C 0.29024 0.06476 0.36302 0.0
C158 C 0.19129 1.03797 0.3809 0.0
C159 C 0.14034 1.00922 0.35702 0.0
C160 C 0.24266 1.03076 0.34131 0.0
C161 C 0.14352 0.96976 0.29409 0.0
C162 C 0.19544 0.96041 0.25512 0.0
H163 H 0.14668 0.80309 0.68185 0.0
H164 H 0.96068 0.92879 0.74859 0.0
H165 H 0.95307 0.87086 0.81974 0.0
H166 H 0.99903 0.78885 0.86728 0.0
H167 H 0.18261 0.65806 0.80347 0.0
H168 H 0.19132 0.71303 0.72743 0.0
C169 C 0.10432 0.81691 0.71136 0.0
C170 C 0.05463 0.87086 0.71003 0.0
C171 C 0.09992 0.78294 0.75338 0.0
C172 C 1.00012 0.88825 0.74896 0.0
C173 C 0.99551 0.85509 0.78991 0.0
C174 C 0.04121 0.77219 0.83691 0.0
C175 C 0.09039 0.71992 0.84168 0.0
C176 C 0.04534 0.80326 0.79332 0.0
C177 C 0.14403 0.69836 0.80093 0.0
C178 C 0.14898 0.72989 0.75747 0.0
H179 H 0.30683 0.97255 0.90071 0.0
H180 H 0.46856 0.99023 0.8107 0.0
H181 H 0.41241 0.97156 0.71133 0.0
H182 H 0.3111 0.96701 0.65608 0.0
H183 H 0.14695 0.9636 0.75376 0.0
H184 H 0.21057 0.95943 0.84459 0.0
C185 C 0.33016 0.97187 0.85921 0.0
C186 C 0.39092 0.98425 0.86286 0.0
C187 C 0.29689 0.96404 0.80405 0.0
C188 C 0.4215 0.98125 0.80868 0.0
C189 C 0.38922 0.9711 0.75229 0.0
C190 C 0.2897 0.96404 0.69686 0.0
C191 C 0.22435 0.96559 0.69832 0.0
C192 C 0.32593 0.96497 0.7502 0.0
C193 C 0.19698 0.96235 0.75145 0.0
C194 C 0.2333 0.96026 0.80351 0.0
H195 H 0.08073 0.39485 0.82973 0.0
H196 H 0.87687 0.42828 0.80829 0.0
H197 H 0.89236 0.33661 0.71148 0.0
H198 H 0.96287 0.23901 0.6397 0.0
H199 H 0.16664 0.20434 0.66234 0.0
H200 H 0.15183 0.30449 0.75086 0.0
C201 C 0.03963 0.38298 0.80336 0.0
C202 C 0.97766 0.41831 0.82709 0.0
C203 C 0.04875 0.32932 0.74789 0.0
C204 C 0.92517 0.40196 0.79177 0.0
C205 C 0.93393 0.34922 0.7363 0.0
C206 C 1.00422 0.2539 0.66308 0.0
C207 C 0.06577 0.21336 0.64444 0.0
C208 C 0.99541 0.31131 0.7149 0.0
C209 C 0.11861 0.23397 0.67561 0.0
C210 C 0.11022 0.29132 0.72658 0.0
H211 H 0.69928 0.05393 0.75886 0.0
H212 H 0.83171 0.06991 0.90935 0.0
H213 H 0.91006 0.08296 0.84484 0.0
H214 H 0.94329 0.08583 0.74543 0.0
H215 H 0.81862 0.05686 0.58896 0.0
H216 H 0.73475 0.0545 0.65611 0.0
C217 C 0.74518 0.06064 0.77743 0.0
C218 C 0.75935 0.06122 0.83907 0.0
C219 C 0.79153 0.06584 0.73898 0.0
C220 C 0.81937 0.0692 0.86221 0.0
C221 C 0.86436 0.07677 0.82533 0.0
C222 C 0.89803 0.07852 0.72551 0.0
C223 C 0.88795 0.0705 0.66174 0.0
C224 C 0.85129 0.07442 0.76353 0.0
C225 C 0.82811 0.06272 0.6377 0.0
C226 C 0.78014 0.06112 0.67609 0.0
H227 H 0.21917 0.35153 0.95195 0.0
H228 H 0.10561 0.38414 0.11484 0.0
H229 H 0.18778 0.30471 0.14648 0.0
H230 H 0.28966 0.22205 0.12519 0.0
H231 H 0.40572 0.19119 0.96392 0.0
H232 H 0.32594 0.27422 0.93507 0.0
C233 C 0.21298 0.34143 0.99458 0.0
C234 C 0.156 0.3723 0.03038 0.0
C235 C 0.26101 0.29607 1.01288 0.0
C236 C 0.14844 0.35952 0.08579 0.0
C237 C 0.1956 0.31445 0.10408 0.0
C238 C 0.2979 0.23377 0.08401 0.0
C239 C 0.35374 0.19983 0.04675 0.0
C240 C 0.25169 0.28165 0.06751 0.0
C241 C 0.36346 0.21636 0.99375 0.0
C242 C 0.3176 0.26376 0.97693 0.0
H243 H 0.15315 0.7837 0.03597 0.0
H244 H 0.31943 0.62504 0.96572 0.0
H245 H 0.3852 0.70205 0.98204 0.0
H246 H 0.39569 0.81249 0.01623 0.0
H247 H 0.23106 0.97327 0.08265 0.0
H248 H 0.16407 0.89652 0.07025 0.0
C249 C 0.20369 0.766 0.02378 0.0
C250 C 0.23153 0.6988 0.99971 0.0
C251 C 0.24136 0.8105 0.03376 0.0
C252 C 0.29698 0.67651 0.98433 0.0
C253 C 0.33465 0.7204 0.99394 0.0
C254 C 0.34506 0.83097 0.02806 0.0
C255 C 0.31798 0.89812 0.04997 0.0
C256 C 0.30733 0.78718 0.01889 0.0
C257 C 0.25273 0.92153 0.066 0.0
C258 C 0.21456 0.87778 0.0583 0.0
H259 H 0.75911 0.16946 0.97935 0.0
H260 H 0.58156 0.31679 1.01176 0.0
H261 H 0.63872 0.40032 0.02634 0.0
H262 H 0.73759 0.43184 0.02732 0.0
H263 H 0.91607 0.28605 0.98542 0.0
H264 H 0.86025 0.20158 0.9772 0.0
C265 C 0.73328 0.21977 0.98922 0.0
C266 C 0.66642 0.23677 0.9936 0.0
C267 C 0.76645 0.26784 0.9961 0.0
C268 C 0.63313 0.30224 1.00709 0.0
C269 C 0.66568 0.35023 0.01577 0.0
C270 C 0.76452 0.38169 0.01669 0.0
C271 C 0.83086 0.36538 1.00795 0.0
C272 C 0.73214 0.33353 1.00993 0.0
C273 C 0.86489 0.29998 0.99338 0.0
C274 C 0.83302 0.25162 0.98833 0.0
H275 H 0.82937 0.67458 0.97275 0.0
H276 H 0.94869 0.79327 0.08673 0.0
H277 H 0.86619 0.89105 0.09448 0.0
H278 H 0.76326 0.94494 0.06293 0.0
H279 H 0.63986 0.82913 0.95358 0.0
H280 H 0.71989 0.72946 0.95029 0.0
C281 C 0.83674 0.72174 1.00014 0.0
C282 C 0.89589 0.72608 0.02811 0.0
C283 C 0.78845 0.77895 1.00473 0.0
C284 C 0.90428 0.78798 0.06363 0.0
C285 C 0.85703 0.84437 0.06819 0.0
C286 C 0.75373 0.8979 0.03865 0.0
C287 C 0.69592 0.89469 1.00799 0.0
C288 C 0.79957 0.84069 0.0377 0.0
C289 C 0.68403 0.83317 0.97758 0.0
C290 C 0.72991 0.77598 0.97553 0.0
loop_
_geom_bond_atom_site_label_1
_geom_bond_atom_site_label_2
_geom_bond_distance
_geom_bond_site_symmetry_2
_ccdc_geom_bond_type
Co0 O3 2.042 . S
Co0 O10 2.264 . S
Co0 O29 2.286 . S
Co0 O30 2.069 . S
Co0 O32 2.015 1_455 S
Co1 O3 2.122 1_545 S
Co1 O9 2.073 1_545 S
Co1 O10 2.327 1_545 S
Co1 O11 1.976 . S
Co2 O3 2.087 1_545 S
Co2 O5 2.087 1_455 S
Co2 O12 2.111 . S
Co2 O13 2.139 . S
Co2 O17 2.111 1_445 S
Co2 O31 2.140 1_445 S
O3 Co0 2.042 . S
O3 Co1 2.122 1_565 S
O3 Co2 2.087 1_565 S
O3 H4 0.980 . S
H4 O3 0.980 . S
O5 Co2 2.087 1_655 S
O5 Co6 2.042 . S
O5 Co7 2.122 1_545 S
O5 H8 0.980 . S
Co6 O5 2.042 . S
Co6 O14 2.286 . S
Co6 O15 2.069 . S
Co6 O16 2.015 1_655 S
Co6 O19 2.264 . S
Co7 O5 2.122 1_565 S
Co7 O18 1.976 . S
Co7 O19 2.327 1_565 S
Co7 O20 2.073 1_565 S
H8 O5 0.980 . S
O9 Co1 2.073 1_565 S
O9 C24 1.245 . S
O10 Co0 2.264 . S
O10 Co1 2.327 1_565 S
O10 C24 1.257 . S
O11 Co1 1.976 . S
O11 C23 1.251 . S
O12 Co2 2.111 . S
O12 C23 1.274 . S
O13 Co2 2.139 . S
O13 C26 1.249 1_545 S
O14 Co6 2.286 . S
O14 C25 1.259 . S
O15 Co6 2.069 . S
O15 C25 1.289 . S
O16 Co6 2.015 1_455 S
O16 C26 1.257 1_545 S
O17 Co2 2.111 1_665 S
O17 C27 1.274 . S
O18 Co7 1.976 . S
O18 C27 1.251 . S
O19 Co6 2.264 . S
O19 Co7 2.327 1_545 S
O19 C28 1.257 . S
O20 Co7 2.073 1_545 S
O20 C28 1.245 . S
C21 O29 1.259 . S
C21 O30 1.289 . S
C22 O31 1.248 1_545 S
C22 O32 1.257 1_545 S
C23 O11 1.251 . S
C23 O12 1.274 . S
C24 O9 1.245 . S
C24 O10 1.257 . S
C25 O14 1.259 . S
C25 O15 1.289 . S
C26 O13 1.249 1_565 S
C26 O16 1.257 1_565 S
C27 O17 1.274 . S
C27 O18 1.251 . S
C28 O19 1.257 . S
C28 O20 1.245 . S
O29 Co0 2.286 . S
O29 C21 1.259 . S
O30 Co0 2.069 . S
O30 C21 1.289 . S
O31 Co2 2.140 1_665 S
O31 C22 1.248 1_565 S
O32 Co0 2.015 1_655 S
O32 C22 1.257 1_565 S
Co33 O36 2.046 . S
Co33 O43 2.275 . S
Co33 O62 2.287 1_545 S
Co33 O63 2.081 . S
Co33 O65 2.000 1_545 S
Co34 O36 2.122 1_554 S
Co34 O42 2.073 . S
Co34 O43 2.327 1_554 S
Co34 O44 1.976 . S
Co35 O36 2.087 1_554 S
Co35 O38 2.087 1_545 S
Co35 O45 2.111 . S
Co35 O46 2.143 . S
Co35 O50 2.111 1_544 S
Co35 O64 2.143 1_544 S
O36 Co33 2.046 . S
O36 Co34 2.122 1_556 S
O36 Co35 2.087 1_556 S
O36 H37 0.980 . S
H37 O36 0.980 . S
O38 Co35 2.087 1_565 S
O38 Co39 2.045 . S
O38 Co40 2.122 1_554 S
O38 H41 0.980 . S
Co39 O38 2.045 . S
Co39 O47 2.287 1_565 S
Co39 O48 2.078 . S
Co39 O49 2.004 1_565 S
Co39 O52 2.272 . S
Co40 O38 2.122 1_556 S
Co40 O51 1.976 . S
Co40 O52 2.327 1_556 S
Co40 O53 2.073 . S
H41 O38 0.980 . S
O42 Co34 2.073 . S
O42 C57 1.245 1_554 S
O43 Co33 2.275 . S
O43 Co34 2.327 1_556 S
O43 C57 1.257 . S
O44 Co34 1.976 . S
O44 C56 1.251 . S
O45 Co35 2.111 . S
O45 C56 1.274 . S
O46 Co35 2.143 . S
O46 C59 1.246 . S
O47 Co39 2.287 1_545 S
O47 C58 1.259 1_545 S
O48 Co39 2.078 . S
O48 C58 1.289 . S
O49 Co39 2.004 1_545 S
O49 C59 1.257 . S
O50 Co35 2.111 1_566 S
O50 C60 1.274 . S
O51 Co40 1.976 . S
O51 C60 1.251 . S
O52 Co39 2.272 . S
O52 Co40 2.327 1_554 S
O52 C61 1.257 . S
O53 Co40 2.073 . S
O53 C61 1.245 1_556 S
C54 O62 1.259 1_545 S
C54 O63 1.289 . S
C55 O64 1.246 . S
C55 O65 1.257 . S
C56 O44 1.251 . S
C56 O45 1.274 . S
C57 O42 1.245 1_556 S
C57 O43 1.257 . S
C58 O47 1.259 1_565 S
C58 O48 1.289 . S
C59 O46 1.246 . S
C59 O49 1.257 . S
C60 O50 1.274 . S
C60 O51 1.251 . S
C61 O52 1.257 . S
C61 O53 1.245 1_554 S
O62 Co33 2.287 1_565 S
O62 C54 1.259 1_565 S
O63 Co33 2.081 . S
O63 C54 1.289 . S
O64 Co35 2.143 1_566 S
O64 C55 1.246 . S
O65 Co33 2.000 1_565 S
O65 C55 1.257 . S
Co66 O69 2.042 . S
Co66 O76 2.264 . S
Co66 O95 2.286 1_655 S
Co66 O96 2.069 . S
Co66 O98 2.015 1_655 S
Co67 O69 2.122 1_556 S
Co67 O75 2.073 1_556 S
Co67 O76 2.327 1_556 S
Co67 O77 1.976 . S
Co68 O69 2.087 1_455 S
Co68 O71 2.087 1_554 S
Co68 O78 2.111 1_454 S
Co68 O79 2.143 1_454 S
Co68 O83 2.111 . S
Co68 O97 2.143 . S
O69 Co66 2.042 . S
O69 Co67 2.122 1_554 S
O69 Co68 2.087 1_655 S
O69 H70 0.980 . S
H70 O69 0.980 . S
O71 Co68 2.087 1_556 S
O71 Co72 2.042 . S
O71 Co73 2.122 1_556 S
O71 H74 0.980 . S
Co72 O71 2.042 . S
Co72 O80 2.286 1_455 S
Co72 O81 2.069 . S
Co72 O82 2.015 1_455 S
Co72 O85 2.270 . S
Co73 O71 2.122 1_554 S
Co73 O84 1.976 . S
Co73 O85 2.311 1_554 S
Co73 O86 2.073 1_554 S
H74 O71 0.980 . S
O75 Co67 2.073 1_554 S
O75 C90 1.245 . S
O76 Co66 2.264 . S
O76 Co67 2.327 1_554 S
O76 C90 1.257 . S
O77 Co67 1.976 . S
O77 C89 1.251 . S
O78 Co68 2.111 1_656 S
O78 C89 1.274 . S
O79 Co68 2.143 1_656 S
O79 C92 1.246 1_556 S
O80 Co72 2.286 1_655 S
O80 C91 1.259 1_655 S
O81 Co72 2.069 . S
O81 C91 1.289 . S
O82 Co72 2.015 1_655 S
O82 C92 1.257 1_556 S
O83 Co68 2.111 . S
O83 C93 1.274 . S
O84 Co73 1.976 . S
O84 C93 1.251 . S
O85 Co72 2.270 . S
O85 Co73 2.311 1_556 S
O85 C94 1.264 . S
O86 Co73 2.073 1_556 S
O86 C94 1.245 . S
C87 O95 1.259 1_655 S
C87 O96 1.289 . S
C88 O97 1.246 1_556 S
C88 O98 1.257 1_556 S
C89 O77 1.251 . S
C89 O78 1.274 . S
C90 O75 1.245 . S
C90 O76 1.257 . S
C91 O80 1.259 1_455 S
C91 O81 1.289 . S
C92 O79 1.246 1_554 S
C92 O82 1.257 1_554 S
C93 O83 1.274 . S
C93 O84 1.251 . S
C94 O85 1.264 . S
C94 O86 1.245 . S
O95 Co66 2.286 1_455 S
O95 C87 1.259 1_455 S
O96 Co66 2.069 . S
O96 C87 1.289 . S
O97 Co68 2.143 . S
O97 C88 1.246 1_554 S
O98 Co66 2.015 1_455 S
O98 C88 1.257 1_554 S
H99 C105 0.930 . S
H100 C108 0.930 . S
H101 C109 0.930 . S
H102 C110 0.930 . S
H103 C113 0.930 . S
H104 C114 0.930 1_455 S
C105 H99 0.930 . S
C105 C106 1.355 . S
C105 C107 1.415 . S
C106 C105 1.355 . S
C106 C108 1.419 . S
C107 C105 1.415 . S
C107 C112 1.425 . S
C107 C114 1.409 . S
C108 H100 0.930 . S
C108 C106 1.419 . S
C108 C109 1.362 . S
C109 H101 0.930 . S
C109 C108 1.362 . S
C109 C112 1.409 . S
C110 H102 0.930 . S
C110 C111 1.355 . S
C110 C112 1.415 . S
C111 C110 1.355 . S
C111 C113 1.419 . S
C112 C107 1.425 . S
C112 C109 1.409 . S
C112 C110 1.415 . S
C113 H103 0.930 . S
C113 C111 1.419 . S
C113 C114 1.362 . S
C114 H104 0.930 1_655 S
C114 C107 1.409 . S
C114 C113 1.362 . S
H115 C121 0.930 . S
H116 C124 0.930 . S
H117 C125 0.930 . S
H118 C126 0.930 . S
H119 C129 0.930 . S
H120 C130 0.930 . S
C121 H115 0.930 . S
C121 C122 1.355 . S
C121 C123 1.415 . S
C122 C121 1.355 . S
C122 C124 1.419 . S
C123 C121 1.415 . S
C123 C128 1.425 . S
C123 C130 1.409 . S
C124 H116 0.930 . S
C124 C122 1.419 . S
C124 C125 1.362 . S
C125 H117 0.930 . S
C125 C124 1.362 . S
C125 C128 1.409 . S
C126 H118 0.930 . S
C126 C127 1.355 . S
C126 C128 1.415 . S
C127 C126 1.355 . S
C127 C129 1.419 . S
C128 C123 1.425 . S
C128 C125 1.409 . S
C128 C126 1.415 . S
C129 H119 0.930 . S
C129 C127 1.419 . S
C129 C130 1.362 . S
C130 H120 0.930 . S
C130 C123 1.409 . S
C130 C129 1.362 . S
H131 C137 0.930 . S
H132 C140 0.930 . S
H133 C141 0.930 . S
H134 C142 0.930 . S
H135 C145 0.930 . S
H136 C146 0.930 . S
C137 H131 0.930 . S
C137 C138 1.355 . S
C137 C139 1.415 . S
C138 C137 1.355 . S
C138 C140 1.419 1_455 S
C139 C137 1.415 . S
C139 C144 1.425 1_455 S
C139 C146 1.409 . S
C140 H132 0.930 . S
C140 C138 1.419 1_655 S
C140 C141 1.362 . S
C141 H133 0.930 . S
C141 C140 1.362 . S
C141 C144 1.409 . S
C142 H134 0.930 . S
C142 C143 1.355 . S
C142 C144 1.415 . S
C143 C142 1.355 . S
C143 C145 1.419 1_655 S
C144 C139 1.425 1_655 S
C144 C141 1.409 . S
C144 C142 1.415 . S
C145 H135 0.930 . S
C145 C143 1.419 1_455 S
C145 C146 1.362 . S
C146 H136 0.930 . S
C146 C139 1.409 . S
C146 C145 1.362 . S
H147 C153 0.930 . S
H148 C156 0.930 . S
H149 C157 0.930 . S
H150 C158 0.930 . S
H151 C161 0.930 . S
H152 C162 0.930 . S
C153 H147 0.930 . S
C153 C154 1.355 . S
C153 C155 1.415 . S
C154 C153 1.355 . S
C154 C156 1.419 1_565 S
C155 C153 1.415 . S
C155 C160 1.425 1_565 S
C155 C162 1.409 . S
C156 H148 0.930 . S
C156 C154 1.419 1_545 S
C156 C157 1.362 . S
C157 H149 0.930 . S
C157 C156 1.362 . S
C157 C160 1.409 . S
C158 H150 0.930 . S
C158 C159 1.355 1_545 S
C158 C160 1.415 . S
C159 C158 1.355 1_565 S
C159 C161 1.419 . S
C160 C155 1.425 1_545 S
C160 C157 1.409 . S
C160 C158 1.415 . S
C161 H151 0.930 . S
C161 C159 1.419 . S
C161 C162 1.362 . S
C162 H152 0.930 . S
C162 C155 1.409 . S
C162 C161 1.362 . S
H163 C169 0.930 . S
H164 C172 0.930 . S
H165 C173 0.930 . S
H166 C174 0.930 . S
H167 C177 0.930 . S
H168 C178 0.930 . S
C169 H163 0.930 . S
C169 C170 1.355 . S
C169 C171 1.415 . S
C170 C169 1.355 . S
C170 C172 1.419 . S
C171 C169 1.415 . S
C171 C176 1.425 . S
C171 C178 1.409 . S
C172 H164 0.930 . S
C172 C170 1.419 . S
C172 C173 1.362 . S
C173 H165 0.930 . S
C173 C172 1.362 . S
C173 C176 1.409 . S
C174 H166 0.930 . S
C174 C175 1.355 . S
C174 C176 1.415 . S
C175 C174 1.355 . S
C175 C177 1.419 . S
C176 C171 1.425 . S
C176 C173 1.409 . S
C176 C174 1.415 . S
C177 H167 0.930 . S
C177 C175 1.419 . S
C177 C178 1.362 . S
C178 H168 0.930 . S
C178 C171 1.409 . S
C178 C177 1.362 . S
H179 C185 0.930 . S
H180 C188 0.930 . S
H181 C189 0.930 . S
H182 C190 0.930 1_545 S
H183 C193 0.930 . S
H184 C194 0.930 . S
C185 H179 0.930 . S
C185 C186 1.355 . S
C185 C187 1.415 . S
C186 C185 1.355 . S
C186 C188 1.419 1_565 S
C187 C185 1.415 . S
C187 C192 1.426 1_565 S
C187 C194 1.409 . S
C188 H180 0.930 . S
C188 C186 1.419 1_545 S
C188 C189 1.362 . S
C189 H181 0.930 . S
C189 C188 1.362 . S
C189 C192 1.409 . S
C190 H182 0.930 1_565 S
C190 C191 1.355 . S
C190 C192 1.415 1_565 S
C191 C190 1.355 . S
C191 C193 1.419 . S
C192 C187 1.426 1_545 S
C192 C189 1.409 . S
C192 C190 1.415 1_545 S
C193 H183 0.930 . S
C193 C191 1.419 . S
C193 C194 1.362 . S
C194 H184 0.930 . S
C194 C187 1.409 . S
C194 C193 1.362 . S
H195 C201 0.930 . S
H196 C204 0.930 . S
H197 C205 0.930 . S
H198 C206 0.930 1_455 S
H199 C209 0.930 . S
H200 C210 0.930 . S
C201 H195 0.930 . S
C201 C202 1.355 1_655 S
C201 C203 1.415 . S
C202 C201 1.355 1_455 S
C202 C204 1.419 . S
C203 C201 1.415 . S
C203 C208 1.425 1_655 S
C203 C210 1.409 . S
C204 H196 0.930 . S
C204 C202 1.419 . S
C204 C205 1.362 . S
C205 H197 0.930 . S
C205 C204 1.362 . S
C205 C208 1.409 . S
C206 H198 0.930 1_655 S
C206 C207 1.355 . S
C206 C208 1.415 1_655 S
C207 C206 1.355 . S
C207 C209 1.419 . S
C208 C203 1.425 1_455 S
C208 C205 1.409 . S
C208 C206 1.415 1_455 S
C209 H199 0.930 . S
C209 C207 1.419 . S
C209 C210 1.362 . S
C210 H200 0.930 . S
C210 C203 1.409 . S
C210 C209 1.362 . S
H211 C217 0.930 . S
H212 C220 0.930 . S
H213 C221 0.930 . S
H214 C222 0.930 . S
H215 C225 0.930 1_565 S
H216 C226 0.930 . S
C217 H211 0.930 . S
C217 C218 1.355 1_565 S
C217 C219 1.414 1_565 S
C218 C217 1.355 1_545 S
C218 C220 1.419 . S
C219 C217 1.414 1_545 S
C219 C224 1.425 . S
C219 C226 1.409 1_545 S
C220 H212 0.930 . S
C220 C218 1.419 . S
C220 C221 1.362 . S
C221 H213 0.930 . S
C221 C220 1.362 . S
C221 C224 1.409 . S
C222 H214 0.930 . S
C222 C223 1.355 . S
C222 C224 1.415 . S
C223 C222 1.355 . S
C223 C225 1.420 . S
C224 C219 1.425 . S
C224 C221 1.409 . S
C224 C222 1.415 . S
C225 H215 0.930 1_545 S
C225 C223 1.420 . S
C225 C226 1.361 1_545 S
C226 H216 0.930 . S
C226 C219 1.409 1_565 S
C226 C225 1.361 1_565 S
H227 C233 0.930 . S
H228 C236 0.930 . S
H229 C237 0.930 . S
H230 C238 0.930 . S
H231 C241 0.930 . S
H232 C242 0.930 . S
C233 H227 0.930 . S
C233 C234 1.355 . S
C233 C235 1.415 . S
C234 C233 1.355 . S
C234 C236 1.419 1_556 S
C235 C233 1.415 . S
C235 C240 1.425 1_556 S
C235 C242 1.409 . S
C236 H228 0.930 . S
C236 C234 1.419 1_554 S
C236 C237 1.362 . S
C237 H229 0.930 . S
C237 C236 1.362 . S
C237 C240 1.409 . S
C238 H230 0.930 . S
C238 C239 1.355 . S
C238 C240 1.415 . S
C239 C238 1.355 . S
C239 C241 1.419 1_554 S
C240 C235 1.425 1_554 S
C240 C237 1.409 . S
C240 C238 1.415 . S
C241 H231 0.930 . S
C241 C239 1.419 1_556 S
C241 C242 1.362 . S
C242 H232 0.930 . S
C242 C235 1.409 . S
C242 C241 1.362 . S
H243 C249 0.930 . S
H244 C252 0.930 . S
H245 C253 0.930 . S
H246 C254 0.930 . S
H247 C257 0.930 . S
H248 C258 0.930 . S
C249 H243 0.930 . S
C249 C250 1.355 . S
C249 C251 1.415 . S
C250 C249 1.355 . S
C250 C252 1.419 1_556 S
C251 C249 1.415 . S
C251 C256 1.425 1_556 S
C251 C258 1.409 . S
C252 H244 0.930 . S
C252 C250 1.419 1_554 S
C252 C253 1.362 . S
C253 H245 0.930 . S
C253 C252 1.362 . S
C253 C256 1.409 . S
C254 H246 0.930 . S
C254 C255 1.355 . S
C254 C256 1.415 . S
C255 C254 1.355 . S
C255 C257 1.419 1_554 S
C256 C251 1.425 1_554 S
C256 C253 1.409 . S
C256 C254 1.415 . S
C257 H247 0.930 . S
C257 C255 1.419 1_556 S
C257 C258 1.362 . S
C258 H248 0.930 . S
C258 C251 1.409 . S
C258 C257 1.362 . S
H259 C265 0.930 . S
H260 C268 0.930 . S
H261 C269 0.930 . S
H262 C270 0.930 . S
H263 C273 0.930 . S
H264 C274 0.930 . S
C265 H259 0.930 . S
C265 C266 1.355 . S
C265 C267 1.415 . S
C266 C265 1.355 . S
C266 C268 1.419 1_556 S
C267 C265 1.415 . S
C267 C272 1.425 1_556 S
C267 C274 1.409 . S
C268 H260 0.930 . S
C268 C266 1.419 1_554 S
C268 C269 1.362 . S
C269 H261 0.930 . S
C269 C268 1.362 . S
C269 C272 1.409 . S
C270 H262 0.930 . S
C270 C271 1.355 . S
C270 C272 1.415 . S
C271 C270 1.355 . S
C271 C273 1.419 1_554 S
C272 C267 1.425 1_554 S
C272 C269 1.409 . S
C272 C270 1.415 . S
C273 H263 0.930 . S
C273 C271 1.419 1_556 S
C273 C274 1.362 . S
C274 H264 0.930 . S
C274 C267 1.409 . S
C274 C273 1.362 . S
H275 C281 0.930 . S
H276 C284 0.930 . S
H277 C285 0.930 . S
H278 C286 0.930 . S
H279 C289 0.930 . S
H280 C290 0.930 . S
C281 H275 0.930 . S
C281 C282 1.355 1_556 S
C281 C283 1.415 . S
C282 C281 1.355 1_554 S
C282 C284 1.419 . S
C283 C281 1.415 . S
C283 C288 1.425 1_556 S
C283 C290 1.409 . S
C284 H276 0.930 . S
C284 C282 1.419 . S
C284 C285 1.362 . S
C285 H277 0.930 . S
C285 C284 1.362 . S
C285 C288 1.409 . S
C286 H278 0.930 . S
C286 C287 1.355 1_554 S
C286 C288 1.415 . S
C287 C286 1.355 1_556 S
C287 C289 1.419 . S
C288 C283 1.425 1_554 S
C288 C285 1.409 . S
C288 C286 1.415 . S
C289 H279 0.930 . S
C289 C287 1.419 . S
C289 C290 1.362 . S
C290 H280 0.930 . S
C290 C283 1.409 . S
C290 C289 1.362 . S
C106 C87 1.670 . S
C111 C25 1.625 . S
C122 C28 1.222 . S
C127 C56 1.217 . S
C138 C27 1.098 1_455 S
C143 C93 1.111 1_655 S
C154 C58 1.925 . S
C159 C26 1.804 . S
C170 C21 1.598 . S
C175 C91 1.693 . S
C186 C60 1.275 . S
C191 C24 1.284 . S
C202 C89 1.233 1_455 S
C207 C23 1.204 1_655 S
C218 C54 1.926 . S
C223 C22 1.814 . S
C234 C88 2.014 . S
C239 C59 2.152 . S
C250 C94 1.067 . S
C255 C61 1.077 . S
C266 C57 1.076 . S
C271 C90 1.071 . S
C282 C92 2.021 . S
C287 C55 2.152 . S
