# Generated by pormake.
# Topology mdf, (4)-cn, num edge types: 1
# Building blocks:
#     Node 0, Type 0, BuildingBlock: UXUYUI_clean_sbu_0, # of connection points: 4
#     Node 1, Type 0, BuildingBlock: UXUYUI_clean_sbu_0, # of connection points: 4
#     Node 2, Type 0, BuildingBlock: UXUYUI_clean_sbu_0, # of connection points: 4
#     Node 3, Type 0, BuildingBlock: UXUYUI_clean_sbu_0, # of connection points: 4
#     Node 4, Type 0, BuildingBlock: UXUYUI_clean_sbu_0, # of connection points: 4
#     Node 5, Type 0, BuildingBlock: UXUYUI_clean_sbu_0, # of connection points: 4
#     Node 6, Type 0, BuildingBlock: UXUYUI_clean_sbu_0, # of connection points: 4
#     Node 7, Type 0, BuildingBlock: UXUYUI_clean_sbu_0, # of connection points: 4
#     Edge 8, Type (0, 0), BuildingBlock: TEMPAE_clean_linker_10, # of connection points: 2
#     Edge 9, Type (0, 0), BuildingBlock: TEMPAE_clean_linker_10, # of connection points: 2
#     Edge 10, Type (0, 0), BuildingBlock: TEMPAE_clean_linker_10, # of connection points: 2
#     Edge 11, Type (0, 0), BuildingBlock: TEMPAE_clean_linker_10, # of connection points: 2
#     Edge 12, Type (0, 0), BuildingBlock: TEMPAE_clean_linker_10, # of connection points: 2
#     Edge 13, Type (0, 0), BuildingBlock: TEMPAE_clean_linker_10, # of connection points: 2
#     Edge 14, Type (0, 0), BuildingBlock: TEMPAE_clean_linker_10, # of connection points: 2
#     Edge 15, Type (0, 0), BuildingBlock: TEMPAE_clean_linker_10, # of connection points: 2
#     Edge 16, Type (0, 0), BuildingBlock: TEMPAE_clean_linker_10, # of connection points: 2
#     Edge 17, Type (0, 0), BuildingBlock: TEMPAE_clean_linker_10, # of connection points: 2
#     Edge 18, Type (0, 0), BuildingBlock: TEMPAE_clean_linker_10, # of connection points: 2
#     Edge 19, Type (0, 0), BuildingBlock: TEMPAE_clean_linker_10, # of connection points: 2
#     Edge 20, Type (0, 0), BuildingBlock: TEMPAE_clean_linker_10, # of connection points: 2
#     Edge 21, Type (0, 0), BuildingBlock: TEMPAE_clean_linker_10, # of connection points: 2
#     Edge 22, Type (0, 0), BuildingBlock: TEMPAE_clean_linker_10, # of connection points: 2
#     Edge 23, Type (0, 0), BuildingBlock: TEMPAE_clean_linker_10, # of connection points: 2
# Relax obj value: 0.090
# Max RMSD: 0.078
# Mean RMSD: 0.078
data_MOF--net-mdf--node1-UXUYUI_clean_sbu_0--edge1-TEMPAE_clean_linker_10
_symmetry_space_group_name_H-M    P1
_symmetry_Int_Tables_number       1
_symmetry_cell_setting            triclinic
loop_
_symmetry_equiv_pos_as_xyz
'x, y, z'
_cell_length_a     50.710508
_cell_length_b     50.745761
_cell_length_c     23.075064
_cell_angle_alpha  89.979775
_cell_angle_beta   89.978758
_cell_angle_gamma 90.114228
loop_
_atom_site_label
_atom_site_type_symbol
_atom_site_fract_x
_atom_site_fract_y
_atom_site_fract_z
_atom_type_partial_charge
Li0 Li 0.24325 0.57369 0.42538 0.0
Li1 Li 0.23016 0.53819 0.35598 0.0
Li2 Li 0.27458 0.5407 0.39249 0.0
Li3 Li 0.2602 0.57303 0.32262 0.0
C4 C 0.25046 0.51928 0.48213 0.0
N5 N 0.26988 0.48724 0.56913 0.0
C6 C 0.23981 0.49417 0.49093 0.0
C7 C 0.27066 0.52826 0.51841 0.0
C8 C 0.24997 0.47823 0.53495 0.0
C9 C 0.28031 0.51173 0.56188 0.0
C10 C 0.19724 0.58318 0.36169 0.0
C11 C 0.1578 0.60798 0.34134 0.0
N12 N 0.14534 0.59549 0.3858 0.0
C13 C 0.18405 0.57057 0.40719 0.0
C14 C 0.18405 0.60203 0.3285 0.0
C15 C 0.15782 0.57709 0.41868 0.0
C16 C 0.22243 0.6205 0.47652 0.0
N17 N 0.231 0.59561 0.48743 0.0
C18 C 0.21959 0.59989 0.58749 0.0
C19 C 0.22975 0.58522 0.54162 0.0
C20 C 0.20988 0.62543 0.5776 0.0
C21 C 0.21163 0.6358 0.52112 0.0
H22 H 0.22336 0.62824 0.43288 0.0
H23 H 0.23618 0.56533 0.54936 0.0
C24 C 0.20646 0.48852 0.34407 0.0
N25 N 0.20286 0.51445 0.3317 0.0
C26 C 0.18715 0.46999 0.32963 0.0
C27 C 0.16151 0.50488 0.28626 0.0
C28 C 0.18117 0.52281 0.30228 0.0
C29 C 0.16422 0.47815 0.30075 0.0
H30 H 0.22444 0.48223 0.36495 0.0
H31 H 0.17907 0.54336 0.29103 0.0
C32 C 0.30294 0.58869 0.41471 0.0
N33 N 0.35113 0.60739 0.45261 0.0
C34 C 0.32459 0.58897 0.37723 0.0
C35 C 0.30572 0.5981 0.47132 0.0
C36 C 0.34882 0.59845 0.39727 0.0
C37 C 0.33027 0.60742 0.48969 0.0
C38 C 0.25749 0.52761 0.25599 0.0
C39 C 0.27086 0.50691 0.22909 0.0
C40 C 0.23799 0.5413 0.22558 0.0
C41 C 0.26452 0.50025 0.17201 0.0
C42 C 0.23223 0.53403 0.16859 0.0
N43 N 0.2455 0.51383 0.14321 0.0
C44 C 0.30015 0.49246 0.39693 0.0
C45 C 0.32543 0.52582 0.4426 0.0
C46 C 0.31907 0.47354 0.41083 0.0
N47 N 0.30355 0.51803 0.41295 0.0
C48 C 0.34502 0.50761 0.45677 0.0
C49 C 0.34189 0.48106 0.44106 0.0
H50 H 0.28248 0.48673 0.37384 0.0
H51 H 0.32755 0.54594 0.45664 0.0
C52 C 0.25975 0.61663 0.24328 0.0
N53 N 0.27173 0.59368 0.25831 0.0
C54 C 0.2689 0.63117 0.1957 0.0
C55 C 0.30246 0.59815 0.18039 0.0
C56 C 0.29265 0.58428 0.22794 0.0
C57 C 0.29056 0.62194 0.16347 0.0
H58 H 0.2431 0.62362 0.26818 0.0
H59 H 0.30182 0.56599 0.24093 0.0
O60 O 0.24113 0.53504 0.43848 0.0
O61 O 0.22299 0.57729 0.34969 0.0
O62 O 0.27898 0.57975 0.39592 0.0
O63 O 0.26347 0.53419 0.31197 0.0
H64 H 0.22368 0.48711 0.4646 0.0
H65 H 0.27905 0.54769 0.51245 0.0
H66 H 0.24196 0.45872 0.54205 0.0
H67 H 0.29614 0.51835 0.58975 0.0
H68 H 0.14733 0.62252 0.31598 0.0
H69 H 0.19391 0.55591 0.43334 0.0
H70 H 0.19399 0.61194 0.29313 0.0
H71 H 0.14737 0.56751 0.45375 0.0
H72 H 0.21923 0.59114 0.63027 0.0
H73 H 0.20411 0.65521 0.51102 0.0
H74 H 0.19025 0.44944 0.34034 0.0
H75 H 0.14417 0.51191 0.26366 0.0
H76 H 0.32279 0.58172 0.33338 0.0
H77 H 0.28909 0.59817 0.50074 0.0
H78 H 0.36578 0.59867 0.36885 0.0
H79 H 0.33275 0.6147 0.53342 0.0
H80 H 0.28597 0.4961 0.25212 0.0
H81 H 0.2274 0.55736 0.24561 0.0
H82 H 0.27471 0.48426 0.15063 0.0
H83 H 0.21719 0.54445 0.14455 0.0
H84 H 0.31599 0.45327 0.39771 0.0
H85 H 0.36215 0.51409 0.48093 0.0
H86 H 0.25897 0.64927 0.18397 0.0
H87 H 0.31947 0.59046 0.15768 0.0
Li88 Li 0.43483 0.74134 0.674 0.0
Li89 Li 0.46775 0.72821 0.60532 0.0
Li90 Li 0.4701 0.77206 0.64236 0.0
Li91 Li 0.43513 0.75865 0.56983 0.0
C92 C 0.4785 0.74465 0.74366 0.0
N93 N 0.48849 0.75656 0.85846 0.0
C94 C 0.49622 0.72941 0.77565 0.0
C95 C 0.46581 0.76593 0.77015 0.0
C96 C 0.50101 0.73576 0.83362 0.0
C97 C 0.47114 0.77163 0.82819 0.0
C98 C 0.42343 0.69781 0.58159 0.0
C99 C 0.40717 0.66776 0.50893 0.0
N100 N 0.41205 0.64721 0.54523 0.0
C101 C 0.42813 0.67644 0.61833 0.0
C102 C 0.41277 0.69351 0.52653 0.0
C103 C 0.42233 0.65098 0.59905 0.0
C104 C 0.38994 0.74169 0.74978 0.0
N105 N 0.41331 0.72993 0.73707 0.0
C106 C 0.40801 0.6999 0.81602 0.0
C107 C 0.42245 0.70939 0.76896 0.0
C108 C 0.38388 0.71171 0.83082 0.0
C109 C 0.37483 0.73287 0.79681 0.0
H110 H 0.38304 0.7579 0.72345 0.0
H111 H 0.44103 0.7003 0.75772 0.0
C112 C 0.513 0.69714 0.61485 0.0
N113 N 0.49022 0.69912 0.58414 0.0
C114 C 0.53126 0.67741 0.60209 0.0
C115 C 0.50236 0.66196 0.52612 0.0
C116 C 0.48471 0.68209 0.5402 0.0
C117 C 0.52605 0.65948 0.55715 0.0
H118 H 0.51716 0.71116 0.64891 0.0
H119 H 0.46697 0.68443 0.51494 0.0
C120 C 0.42184 0.80355 0.64411 0.0
N121 N 0.40295 0.85456 0.64031 0.0
C122 C 0.42611 0.81916 0.59503 0.0
C123 C 0.40801 0.8139 0.69128 0.0
C124 C 0.41636 0.84489 0.59393 0.0
C125 C 0.39864 0.83974 0.68854 0.0
C126 C 0.49248 0.75223 0.52234 0.0
C127 C 0.51925 0.75672 0.53289 0.0
C128 C 0.48486 0.73769 0.47366 0.0
C129 C 0.53798 0.74642 0.49475 0.0
C130 C 0.50419 0.72777 0.43648 0.0
N131 N 0.53013 0.73227 0.44775 0.0
C132 C 0.51887 0.79137 0.68087 0.0
C133 C 0.48705 0.82517 0.67182 0.0
C134 C 0.53802 0.80966 0.69778 0.0
N135 N 0.494 0.79936 0.6676 0.0
C136 C 0.50556 0.84413 0.68853 0.0
C137 C 0.53154 0.83652 0.70135 0.0
H138 H 0.52389 0.7707 0.67795 0.0
H139 H 0.46727 0.83129 0.66199 0.0
C140 C 0.38714 0.77213 0.51254 0.0
N141 N 0.41377 0.7705 0.50675 0.0
C142 C 0.37175 0.78233 0.46746 0.0
C143 C 0.41143 0.78835 0.41102 0.0
C144 C 0.42602 0.77846 0.45737 0.0
C145 C 0.38389 0.79078 0.41577 0.0
H146 H 0.37794 0.76601 0.55267 0.0
H147 H 0.44724 0.77763 0.45426 0.0
O148 O 0.47361 0.73849 0.68688 0.0
O149 O 0.42876 0.72289 0.59962 0.0
O150 O 0.43071 0.77813 0.64574 0.0
O151 O 0.47386 0.76166 0.5599 0.0
H152 H 0.50612 0.7128 0.75594 0.0
H153 H 0.45201 0.77795 0.74637 0.0
H154 H 0.51468 0.72412 0.85887 0.0
H155 H 0.46148 0.78805 0.84917 0.0
H156 H 0.39897 0.6641 0.46641 0.0
H157 H 0.43644 0.67946 0.66097 0.0
H158 H 0.40894 0.70991 0.49771 0.0
H159 H 0.42601 0.63423 0.62687 0.0
H160 H 0.41557 0.68321 0.84007 0.0
H161 H 0.35645 0.7427 0.80677 0.0
H162 H 0.5492 0.67614 0.62736 0.0
H163 H 0.49779 0.64889 0.49042 0.0
H164 H 0.43724 0.81169 0.55865 0.0
H165 H 0.40464 0.80213 0.72969 0.0
H166 H 0.41958 0.85721 0.55631 0.0
H167 H 0.38793 0.84802 0.72476 0.0
H168 H 0.52552 0.76796 0.57017 0.0
H169 H 0.46426 0.73357 0.46539 0.0
H170 H 0.55877 0.74965 0.50255 0.0
H171 H 0.49857 0.71631 0.39894 0.0
H172 H 0.55766 0.8028 0.70821 0.0
H173 H 0.49968 0.86462 0.69024 0.0
H174 H 0.35068 0.78418 0.47372 0.0
H175 H 0.42176 0.79413 0.37196 0.0
Li176 Li 0.27082 0.96757 0.86424 0.0
Li177 Li 0.25938 0.93431 0.93306 0.0
Li178 Li 0.24102 0.93323 0.83209 0.0
Li179 Li 0.22693 0.96816 0.90352 0.0
C180 C 0.30417 0.92334 0.8685 0.0
N181 N 0.35626 0.91126 0.8912 0.0
C182 C 0.31853 0.93823 0.90857 0.0
C183 C 0.31631 0.90233 0.83994 0.0
C184 C 0.34483 0.9318 0.91947 0.0
C185 C 0.34267 0.89654 0.852 0.0
C186 C 0.256 0.97924 0.00278 0.0
C187 C 0.23054 0.9737 0.09025 0.0
N188 N 0.24663 0.99112 0.1178 0.0
C189 C 0.27224 0.99715 0.03189 0.0
C190 C 0.23495 0.96745 0.03211 0.0
C191 C 0.2672 0.00288 0.09006 0.0
C192 C 0.29985 0.01463 0.86579 0.0
N193 N 0.29844 0.9907 0.83956 0.0
C194 C 0.33575 1.00107 0.78032 0.0
C195 C 0.31582 0.98364 0.79747 0.0
C196 C 0.33765 0.026 0.80656 0.0
C197 C 0.31934 0.03268 0.84982 0.0
H198 H 0.2857 0.01972 0.89901 0.0
H199 H 0.31411 0.96453 0.77705 0.0
C200 C 0.26505 0.88668 0.99774 0.0
N201 N 0.27174 0.91264 0.99557 0.0
C202 C 0.27411 0.87075 0.04315 0.0
C203 C 0.29668 0.90858 0.08304 0.0
C204 C 0.2876 0.9236 0.03659 0.0
C205 C 0.28992 0.88183 0.08681 0.0
H206 H 0.2527 0.87835 0.96418 0.0
H207 H 0.29349 0.94397 0.03313 0.0
C208 C 0.24417 0.99042 0.78235 0.0
N209 N 0.26119 0.02855 0.7055 0.0
C210 C 0.24085 0.01708 0.79547 0.0
C211 C 0.25596 0.9831 0.73005 0.0
C212 C 0.24964 0.03608 0.75607 0.0
C213 C 0.26446 0.0027 0.69178 0.0
C214 C 0.19948 0.91645 0.921 0.0
C215 C 0.17992 0.91372 0.87875 0.0
C216 C 0.19545 0.90572 0.97614 0.0
C217 C 0.1565 0.9006 0.89258 0.0
C218 C 0.17176 0.89273 0.98827 0.0
N219 N 0.15293 0.89047 0.9466 0.0
C220 C 0.23588 0.88642 0.76366 0.0
C221 C 0.21178 0.92367 0.73167 0.0
C222 C 0.22576 0.87126 0.71804 0.0
N223 N 0.22865 0.91207 0.76961 0.0
C224 C 0.20112 0.90927 0.68582 0.0
C225 C 0.20793 0.88265 0.67868 0.0
H226 H 0.24932 0.87771 0.79459 0.0
H227 H 0.20637 0.9441 0.7375 0.0
C228 C 0.2046 0.01419 0.95069 0.0
N229 N 0.19837 0.99057 0.92635 0.0
C230 C 0.18479 0.03182 0.96659 0.0
C231 C 0.1524 1.00096 0.93048 0.0
C232 C 0.17287 0.9838 0.91572 0.0
C233 C 0.15827 0.02532 0.95639 0.0
H234 H 0.22503 0.01956 0.95696 0.0
H235 H 0.16836 0.96531 0.89496 0.0
O236 O 0.27837 0.92917 0.85703 0.0
O237 O 0.26085 0.97344 0.94585 0.0
O238 O 0.23649 0.97156 0.82115 0.0
O239 O 0.2228 0.92877 0.90797 0.0
H240 H 0.30952 0.95462 0.93095 0.0
H241 H 0.30545 0.89063 0.80877 0.0
H242 H 0.35616 0.94315 0.95038 0.0
H243 H 0.35232 0.88033 0.8302 0.0
H244 H 0.2143 0.96472 0.11343 0.0
H245 H 0.28864 0.00644 0.00978 0.0
H246 H 0.22205 0.9538 0.01018 0.0
H247 H 0.27965 0.01665 0.11316 0.0
H248 H 0.34928 0.99524 0.74637 0.0
H249 H 0.32025 0.05155 0.87163 0.0
H250 H 0.26859 0.85013 0.04452 0.0
H251 H 0.30931 0.9177 0.1152 0.0
H252 H 0.23188 0.02303 0.83595 0.0
H253 H 0.25882 0.96252 0.71952 0.0
H254 H 0.24738 0.0568 0.76578 0.0
H255 H 0.27378 0.99735 0.65129 0.0
H256 H 0.18264 0.92192 0.83595 0.0
H257 H 0.21047 0.90732 0.00924 0.0
H258 H 0.14115 0.89849 0.86036 0.0
H259 H 0.16837 0.88438 0.03078 0.0
H260 H 0.23141 0.85076 0.71427 0.0
H261 H 0.18776 0.91894 0.65605 0.0
H262 H 0.19021 0.05062 0.98536 0.0
H263 H 0.1322 0.99521 0.92185 0.0
Li264 Li 0.03898 0.77506 0.11024 0.0
Li265 Li 0.07255 0.76086 0.17961 0.0
Li266 Li 0.07216 0.74229 0.07798 0.0
Li267 Li 0.0392 0.72858 0.15143 0.0
C268 C 0.08407 0.80062 0.06965 0.0
N269 N 0.09651 0.84311 0.99967 0.0
C270 C 0.09426 0.82374 0.09391 0.0
C271 C 0.08056 0.79903 0.0097 0.0
C272 C 0.10033 0.84503 0.05785 0.0
C273 C 0.08687 0.82073 0.97508 0.0
C274 C 0.03075 0.77168 0.24669 0.0
C275 C 0.03082 0.76378 0.34974 0.0
N276 N 0.02595 0.78978 0.3591 0.0
C277 C 0.02544 0.79826 0.25727 0.0
C278 C 0.03319 0.75423 0.29321 0.0
C279 C 0.02319 0.80705 0.31443 0.0
C280 C 0.99378 0.7974 0.05917 0.0
N281 N 0.01659 0.80335 0.08725 0.0
C282 C 0.00573 0.8492 0.08681 0.0
C283 C 0.02279 0.82863 0.1014 0.0
C284 C 0.9822 0.84363 0.05712 0.0
C285 C 0.97636 0.81735 0.04304 0.0
H286 H 0.98888 0.77709 0.05008 0.0
H287 H 0.04072 0.83278 0.12499 0.0
C288 C 0.10979 0.75729 0.27289 0.0
N289 N 0.09375 0.77361 0.24227 0.0
C290 C 0.12432 0.76695 0.31989 0.0
C291 C 0.10589 0.81008 0.30224 0.0
C292 C 0.09171 0.79959 0.25582 0.0
C293 C 0.12244 0.79371 0.33515 0.0
H294 H 0.11131 0.73677 0.26094 0.0
H295 H 0.07874 0.81212 0.23096 0.0
C296 C 0.02301 0.73293 0.01866 0.0
N297 N 0.00266 0.71694 0.9132 0.0
C298 C 0.01232 0.70767 0.01243 0.0
C299 C 0.02292 0.7502 0.97144 0.0
C300 C 0.00225 0.69992 0.95872 0.0
C301 C 0.01265 0.74172 0.91845 0.0
C302 C 0.08339 0.69881 0.17185 0.0
C303 C 0.09287 0.67994 0.13299 0.0
C304 C 0.07918 0.69189 0.22977 0.0
C305 C 0.09768 0.65434 0.15261 0.0
C306 C 0.08421 0.66608 0.24769 0.0
N307 N 0.09326 0.648 0.20906 0.0
C308 C 0.11609 0.74195 1.00039 0.0
C309 C 0.08308 0.71012 0.98055 0.0
C310 C 0.13059 0.73383 0.95195 0.0
N311 N 0.09261 0.73029 0.01322 0.0
C312 C 0.09666 0.70167 0.93142 0.0
C313 C 0.12064 0.71368 0.91638 0.0
H314 H 0.12346 0.75771 0.02751 0.0
H315 H 0.06502 0.70037 0.99282 0.0
C316 C 0.99438 0.70728 0.20589 0.0
N317 N 0.0164 0.70055 0.17579 0.0
C318 C 0.97594 0.68807 0.22168 0.0
C319 C 0.00328 0.65523 0.1757 0.0
C320 C 0.02108 0.67511 0.16043 0.0
C321 C 0.98017 0.6616 0.20633 0.0
H322 H 0.99081 0.72771 0.21654 0.0
H323 H 0.03827 0.67027 0.13505 0.0
O324 O 0.07805 0.77954 0.10436 0.0
O325 O 0.03348 0.76278 0.19107 0.0
O326 O 0.03305 0.74077 0.07101 0.0
O327 O 0.07863 0.72398 0.15337 0.0
H328 H 0.09745 0.82526 0.14009 0.0
H329 H 0.07335 0.78113 0.98999 0.0
H330 H 0.10813 0.86307 0.0761 0.0
H331 H 0.0842 0.81974 0.92862 0.0
H332 H 0.03281 0.75051 0.38617 0.0
H333 H 0.02334 0.812 0.22176 0.0
H334 H 0.03685 0.73354 0.28574 0.0
H335 H 0.0193 0.82761 0.32327 0.0
H336 H 0.01088 0.86923 0.09852 0.0
H337 H 0.95818 0.81222 0.02114 0.0
H338 H 0.13706 0.7537 0.34369 0.0
H339 H 0.10351 0.83072 0.31291 0.0
H340 H 0.01199 0.6941 0.04849 0.0
H341 H 0.03033 0.77006 0.97575 0.0
H342 H 0.99411 0.68035 0.95323 0.0
H343 H 0.01252 0.75487 0.88156 0.0
H344 H 0.09647 0.68498 0.08816 0.0
H345 H 0.0721 0.70627 0.26055 0.0
H346 H 0.10493 0.63953 0.12295 0.0
H347 H 0.08094 0.66045 0.29234 0.0
H348 H 0.14911 0.74346 0.94184 0.0
H349 H 0.08867 0.68563 0.90587 0.0
H350 H 0.95822 0.69406 0.24426 0.0
H351 H 0.00754 0.63511 0.1633 0.0
Li352 Li 0.74611 0.07119 0.93269 0.0
Li353 Li 0.73252 0.03587 0.86352 0.0
Li354 Li 0.77669 0.0371 0.9016 0.0
Li355 Li 0.76371 0.06964 0.83306 0.0
C356 C 0.75156 0.01623 0.98892 0.0
N357 N 0.77055 0.98284 0.07382 0.0
C358 C 0.74316 0.99 0.99109 0.0
C359 C 0.7694 0.02554 0.03038 0.0
C360 C 0.75304 0.97341 0.03424 0.0
C361 C 0.77882 0.00834 0.07283 0.0
C362 C 0.70093 0.08197 0.86802 0.0
C363 C 0.66238 0.10774 0.84542 0.0
N364 N 0.6494 0.09628 0.89049 0.0
C365 C 0.68722 0.07046 0.91419 0.0
C366 C 0.68846 0.1008 0.83343 0.0
C367 C 0.66118 0.07797 0.92481 0.0
C368 C 0.73 0.11953 0.98446 0.0
N369 N 0.73393 0.09338 0.99421 0.0
C370 C 0.71805 0.0976 0.09133 0.0
C371 C 0.72794 0.08225 0.04619 0.0
C372 C 0.71364 0.12458 0.08253 0.0
C373 C 0.7196 0.13558 0.02821 0.0
H374 H 0.73454 0.1278 0.94239 0.0
H375 H 0.73029 0.06133 0.05241 0.0
C376 C 0.71169 0.98608 0.84168 0.0
N377 N 0.70534 0.01205 0.83855 0.0
C378 C 0.69341 0.96678 0.82583 0.0
C379 C 0.66262 1.00127 0.8013 0.0
C380 C 0.68155 0.01993 0.81758 0.0
C381 C 0.66833 0.97425 0.80591 0.0
H382 H 0.7311 0.98037 0.8564 0.0
H383 H 0.67713 0.04062 0.81327 0.0
C384 C 0.80783 0.08474 0.89574 0.0
N385 N 0.85772 0.10373 0.87156 0.0
C386 C 0.82477 0.07047 0.85978 0.0
C387 C 0.81622 0.10868 0.91931 0.0
C388 C 0.84992 0.0804 0.84807 0.0
C389 C 0.84154 0.11795 0.90663 0.0
C390 C 0.76011 0.02464 0.76477 0.0
C391 C 0.77358 0.00419 0.73718 0.0
C392 C 0.74055 0.03844 0.73479 0.0
C393 C 0.76733 0.99792 0.67986 0.0
C394 C 0.73487 0.03156 0.67753 0.0
N395 N 0.74826 0.01162 0.65147 0.0
C396 C 0.80308 0.9889 0.90734 0.0
C397 C 0.8252 0.02291 0.95844 0.0
C398 C 0.82247 0.97078 0.92308 0.0
N399 N 0.80478 0.01437 0.92511 0.0
C400 C 0.8452 0.0055 0.97467 0.0
C401 C 0.84393 0.97904 0.957 0.0
H402 H 0.78653 0.98266 0.8811 0.0
H403 H 0.82586 0.04317 0.97286 0.0
C404 C 0.76805 0.1158 0.76223 0.0
N405 N 0.77639 0.09058 0.76969 0.0
C406 C 0.77822 0.1312 0.71697 0.0
C407 C 0.80514 0.09426 0.68791 0.0
C408 C 0.79456 0.0797 0.73361 0.0
C409 C 0.79718 0.12048 0.67922 0.0
H410 H 0.75371 0.12405 0.79181 0.0
H411 H 0.80109 0.0597 0.74056 0.0
O412 O 0.74264 0.03265 0.94615 0.0
O413 O 0.72658 0.07532 0.85712 0.0
O414 O 0.78302 0.07556 0.9075 0.0
O415 O 0.76604 0.0308 0.82101 0.0
H416 H 0.7291 0.98252 0.96001 0.0
H417 H 0.77625 0.04576 0.0291 0.0
H418 H 0.74678 0.95304 0.03628 0.0
H419 H 0.79282 0.01524 0.1048 0.0
H420 H 0.65246 0.12226 0.81895 0.0
H421 H 0.69651 0.05585 0.94144 0.0
H422 H 0.69886 0.10994 0.79769 0.0
H423 H 0.65033 0.06922 0.96033 0.0
H424 H 0.71317 0.08832 0.13225 0.0
H425 H 0.71631 0.15631 0.0198 0.0
H426 H 0.69896 0.94623 0.82867 0.0
H427 H 0.64357 0.00797 0.78611 0.0
H428 H 0.81854 0.05194 0.84101 0.0
H429 H 0.80328 0.11998 0.94712 0.0
H430 H 0.86323 0.06957 0.82028 0.0
H431 H 0.84832 0.13644 0.92463 0.0
H432 H 0.78873 0.99329 0.75989 0.0
H433 H 0.72986 0.05429 0.75533 0.0
H434 H 0.77762 0.98215 0.65795 0.0
H435 H 0.7198 0.04208 0.65381 0.0
H436 H 0.82088 0.95059 0.90823 0.0
H437 H 0.86127 0.01255 1.00145 0.0
H438 H 0.77168 0.15138 0.71231 0.0
H439 H 0.81933 0.08497 0.65947 0.0
Li440 Li 0.93124 0.24523 0.18047 0.0
Li441 Li 0.96481 0.23133 0.10956 0.0
Li442 Li 0.96515 0.27624 0.15003 0.0
Li443 Li 0.93114 0.26213 0.08058 0.0
C444 C 0.97281 0.2295 0.24184 0.0
N445 N 0.97626 0.20248 0.34553 0.0
C446 C 0.97646 0.20221 0.24201 0.0
C447 C 0.97116 0.24309 0.29439 0.0
C448 C 0.97811 0.1889 0.2949 0.0
C449 C 0.97287 0.22906 0.34635 0.0
C450 C 0.90456 0.21848 0.07656 0.0
C451 C 0.88389 0.20372 0.98821 0.0
N452 N 0.8598 0.20783 0.01247 0.0
C453 C 0.87961 0.22257 0.10064 0.0
C454 C 0.90677 0.20898 0.01992 0.0
C455 C 0.85721 0.21705 0.06753 0.0
C456 C 0.89618 0.24889 0.27829 0.0
N457 N 0.91023 0.23245 0.24354 0.0
C458 C 0.89613 0.19507 0.29865 0.0
C459 C 0.91006 0.20596 0.25226 0.0
C460 C 0.88175 0.21153 0.33608 0.0
C461 C 0.88176 0.23881 0.32506 0.0
H462 H 0.89607 0.2698 0.26972 0.0
H463 H 0.92107 0.19329 0.22342 0.0
C464 C 0.01369 0.20608 0.09913 0.0
N465 N 0.98756 0.20309 0.08773 0.0
C466 C 0.03158 0.18648 0.0835 0.0
C467 C 0.99524 0.16055 0.04661 0.0
C468 C 0.97804 0.18082 0.06247 0.0
C469 C 0.02243 0.16335 0.05673 0.0
H470 H 0.02063 0.22382 0.1202 0.0
H471 H 0.95712 0.17879 0.05469 0.0
C472 C 0.92453 0.30681 0.17648 0.0
N473 N 0.9227 0.35742 0.22052 0.0
C474 C 0.91729 0.32786 0.14082 0.0
C475 C 0.93085 0.31152 0.23452 0.0
C476 C 0.91645 0.3533 0.16392 0.0
C477 C 0.92983 0.33724 0.25596 0.0
C478 C 0.99103 0.26051 0.0343 0.0
C479 C 0.01524 0.27238 0.04712 0.0
C480 C 0.98928 0.24281 0.988 0.0
C481 C 0.03734 0.26621 0.0136 0.0
C482 C 0.01185 0.23711 0.95563 0.0
N483 N 0.0352 0.24883 0.96899 0.0
C484 C 0.00757 0.29845 0.21223 0.0
C485 C 0.98644 0.3284 0.14861 0.0
C486 C 0.02619 0.31756 0.22741 0.0
N487 N 0.98821 0.30415 0.17347 0.0
C488 C 0.00436 0.34826 0.16339 0.0
C489 C 0.02472 0.34281 0.20279 0.0
H490 H 0.00893 0.27887 0.23038 0.0
H491 H 0.97147 0.33216 0.11637 0.0
C492 C 0.88577 0.28561 0.02972 0.0
N493 N 0.90904 0.27344 0.01794 0.0
C494 C 0.87011 0.29529 0.98462 0.0
C495 C 0.9019 0.27841 0.91607 0.0
C496 C 0.9172 0.26958 0.96245 0.0
C497 C 0.87824 0.2918 0.92698 0.0
H498 H 0.8796 0.28818 0.07423 0.0
H499 H 0.93571 0.25987 0.95415 0.0
O500 O 0.97062 0.24284 0.19054 0.0
O501 O 0.9267 0.22445 0.10774 0.0
O502 O 0.92555 0.28175 0.15466 0.0
O503 O 0.96924 0.26602 0.06716 0.0
H504 H 0.97764 0.19133 0.20181 0.0
H505 H 0.9685 0.26422 0.29506 0.0
H506 H 0.98076 0.16776 0.29568 0.0
H507 H 0.97148 0.23931 0.38734 0.0
H508 H 0.88529 0.19649 0.94423 0.0
H509 H 0.87757 0.23015 0.14423 0.0
H510 H 0.92594 0.20609 1.00033 0.0
H511 H 0.83777 0.22019 0.08552 0.0
H512 H 0.89703 0.17399 0.30562 0.0
H513 H 0.87058 0.25222 0.35197 0.0
H514 H 0.05232 0.18923 0.09293 0.0
H515 H 0.98741 0.14303 0.02597 0.0
H516 H 0.91267 0.32469 0.09562 0.0
H517 H 0.93668 0.29552 0.26261 0.0
H518 H 0.91094 0.36978 0.13679 0.0
H519 H 0.93475 0.34115 0.30075 0.0
H520 H 0.01704 0.28612 0.08266 0.0
H521 H 0.97089 0.23299 0.97815 0.0
H522 H 0.0562 0.2752 0.02316 0.0
H523 H 0.01082 0.22323 0.92012 0.0
H524 H 0.04164 0.31264 0.25796 0.0
H525 H 0.00284 0.36739 0.14287 0.0
H526 H 0.85189 0.30543 0.9946 0.0
H527 H 0.9089 0.27554 0.87216 0.0
Li528 Li 0.77477 0.46448 0.35368 0.0
Li529 Li 0.7619 0.43091 0.42588 0.0
Li530 Li 0.74096 0.43122 0.32552 0.0
Li531 Li 0.72975 0.46416 0.39904 0.0
C532 C 0.8 0.41536 0.32018 0.0
N533 N 0.84341 0.39483 0.26351 0.0
C534 C 0.82224 0.4076 0.3516 0.0
C535 C 0.79976 0.41237 0.25993 0.0
C536 C 0.84401 0.39735 0.32217 0.0
C537 C 0.82192 0.40204 0.23209 0.0
C538 C 0.77716 0.47466 0.48689 0.0
C539 C 0.7781 0.47408 0.59139 0.0
N540 N 0.80318 0.48361 0.59024 0.0
C541 C 0.8029 0.48458 0.48674 0.0
C542 C 0.76459 0.4695 0.53961 0.0
C543 C 0.81573 0.48893 0.53946 0.0
C544 C 0.7966 0.51383 0.33222 0.0
N545 N 0.80227 0.48772 0.32822 0.0
C546 C 0.84576 0.4976 0.29427 0.0
C547 C 0.82626 0.47937 0.30945 0.0
C548 C 0.84062 0.52474 0.29872 0.0
C549 C 0.81554 0.53275 0.31771 0.0
H550 H 0.77742 0.51993 0.34768 0.0
H551 H 0.83051 0.45863 0.3066 0.0
C552 C 0.76052 0.38962 0.51024 0.0
N553 N 0.77536 0.40947 0.48767 0.0
C554 C 0.77007 0.37454 0.55652 0.0
C555 C 0.80989 0.40071 0.5555 0.0
C556 C 0.79979 0.41489 0.50879 0.0
C557 C 0.79507 0.38011 0.5802 0.0
H558 H 0.74125 0.38549 0.49233 0.0
H559 H 0.81142 0.43048 0.48972 0.0
C560 C 0.73867 0.47913 0.26112 0.0
N561 N 0.7367 0.49724 0.14826 0.0
C562 C 0.71701 0.49374 0.24201 0.0
C563 C 0.75945 0.47402 0.22306 0.0
C564 C 0.71633 0.50263 0.18472 0.0
C565 C 0.75807 0.48327 0.16612 0.0
C566 C 0.69965 0.42373 0.42642 0.0
C567 C 0.67779 0.41967 0.39064 0.0
C568 C 0.69607 0.42667 0.48611 0.0
C569 C 0.65261 0.41896 0.41518 0.0
C570 C 0.67057 0.42586 0.50898 0.0
N571 N 0.64955 0.42207 0.47334 0.0
C572 C 0.7361 0.38628 0.25125 0.0
C573 C 0.70633 0.42118 0.23261 0.0
C574 C 0.7254 0.37155 0.20564 0.0
N575 N 0.72663 0.41073 0.26338 0.0
C576 C 0.69506 0.40719 0.18681 0.0
C577 C 0.70457 0.382 0.17265 0.0
H578 H 0.75194 0.3782 0.27706 0.0
H579 H 0.6987 0.44035 0.24395 0.0
C580 C 0.70459 0.50189 0.47184 0.0
N581 N 0.70163 0.48637 0.42428 0.0
C582 C 0.68455 0.51921 0.48831 0.0
C583 C 0.65878 0.50425 0.40659 0.0
C584 C 0.67929 0.48719 0.39179 0.0
C585 C 0.66134 0.52073 0.45522 0.0
H586 H 0.72272 0.50127 0.4963 0.0
H587 H 0.67755 0.47479 0.35386 0.0
O588 O 0.77844 0.42529 0.34841 0.0
O589 O 0.76438 0.47009 0.43565 0.0
O590 O 0.73956 0.47023 0.31707 0.0
O591 O 0.72443 0.42489 0.4031 0.0
H592 H 0.82278 0.40958 0.39816 0.0
H593 H 0.78264 0.41783 0.23481 0.0
H594 H 0.86138 0.3914 0.34597 0.0
H595 H 0.822 0.39969 0.18549 0.0
H596 H 0.76866 0.47002 0.63249 0.0
H597 H 0.81297 0.48868 0.4464 0.0
H598 H 0.74469 0.46185 0.54055 0.0
H599 H 0.83569 0.49649 0.53998 0.0
H600 H 0.86466 0.49049 0.27908 0.0
H601 H 0.81075 0.55341 0.32262 0.0
H602 H 0.75804 0.3586 0.57318 0.0
H603 H 0.82901 0.40621 0.57253 0.0
H604 H 0.70083 0.49807 0.27104 0.0
H605 H 0.77657 0.46325 0.23741 0.0
H606 H 0.69963 0.51383 0.16925 0.0
H607 H 0.77403 0.47941 0.1362 0.0
H608 H 0.68023 0.41728 0.34438 0.0
H609 H 0.7128 0.42959 0.51444 0.0
H610 H 0.6355 0.41597 0.38797 0.0
H611 H 0.6675 0.42823 0.55508 0.0
H612 H 0.7331 0.35207 0.19686 0.0
H613 H 0.67921 0.41616 0.16238 0.0
H614 H 0.68755 0.53184 0.52556 0.0
H615 H 0.64114 0.50458 0.38016 0.0
Li616 Li 0.53364 0.27486 0.6034 0.0
Li617 Li 0.56719 0.26128 0.67358 0.0
Li618 Li 0.56691 0.24165 0.57243 0.0
Li619 Li 0.53406 0.22914 0.64652 0.0
C620 C 0.58074 0.3 0.56423 0.0
N621 N 0.59757 0.3422 0.49781 0.0
C622 C 0.58947 0.32318 0.59084 0.0
C623 C 0.58114 0.29813 0.5038 0.0
C624 C 0.59773 0.34434 0.55654 0.0
C625 C 0.58957 0.31971 0.47098 0.0
C626 C 0.52553 0.27481 0.73844 0.0
C627 C 0.52933 0.27248 0.84252 0.0
N628 N 0.52121 0.29794 0.84642 0.0
C629 C 0.517 0.30088 0.74351 0.0
C630 C 0.53152 0.2604 0.78834 0.0
C631 C 0.51501 0.31224 0.79847 0.0
C632 C 0.48738 0.29663 0.55538 0.0
N633 N 0.51112 0.30297 0.57903 0.0
C634 C 0.50111 0.34893 0.57225 0.0
C635 C 0.51814 0.32853 0.58806 0.0
C636 C 0.4767 0.34292 0.5467 0.0
C637 C 0.46994 0.31638 0.53814 0.0
H638 H 0.48182 0.27619 0.5505 0.0
H639 H 0.53667 0.3331 0.60876 0.0
C640 C 0.60583 0.2586 0.76408 0.0
N641 N 0.58861 0.27451 0.73557 0.0
C642 C 0.62056 0.26837 0.8107 0.0
C643 C 0.5997 0.3107 0.79735 0.0
C644 C 0.58548 0.30015 0.75106 0.0
C645 C 0.61755 0.29478 0.82801 0.0
H646 H 0.60807 0.2383 0.75077 0.0
H647 H 0.57155 0.31235 0.72801 0.0
C648 C 0.51735 0.2368 0.51104 0.0
N649 N 0.4961 0.23005 0.40171 0.0
C650 C 0.5029 0.21408 0.49793 0.0
C651 C 0.52062 0.25625 0.46874 0.0
C652 C 0.49243 0.21098 0.44235 0.0
C653 C 0.50982 0.25245 0.4137 0.0
C654 C 0.57545 0.19851 0.66682 0.0
C655 C 0.58123 0.17868 0.62679 0.0
C656 C 0.5718 0.19201 0.72514 0.0
C657 C 0.58288 0.15258 0.64569 0.0
C658 C 0.57359 0.16568 0.74232 0.0
N659 N 0.57903 0.14667 0.70256 0.0
C660 C 0.61273 0.23708 0.50133 0.0
C661 C 0.57659 0.21057 0.47252 0.0
C662 C 0.62791 0.22756 0.45518 0.0
N663 N 0.58751 0.2286 0.50889 0.0
C664 C 0.59087 0.20081 0.42555 0.0
C665 C 0.617 0.20914 0.41633 0.0
H666 H 0.62109 0.25119 0.53131 0.0
H667 H 0.55684 0.20347 0.48017 0.0
C668 C 0.49499 0.2044 0.71621 0.0
N669 N 0.51193 0.20072 0.67128 0.0
C670 C 0.47759 0.18437 0.73267 0.0
C671 C 0.4954 0.15706 0.65641 0.0
C672 C 0.5125 0.1776 0.64155 0.0
C673 C 0.47746 0.16037 0.70226 0.0
H674 H 0.49456 0.22311 0.7385 0.0
H675 H 0.52593 0.17526 0.60554 0.0
O676 O 0.57282 0.27898 0.5973 0.0
O677 O 0.52802 0.26349 0.6849 0.0
O678 O 0.52787 0.24004 0.56524 0.0
O679 O 0.57345 0.22415 0.649 0.0
H680 H 0.58978 0.32491 0.63748 0.0
H681 H 0.57535 0.28015 0.4823 0.0
H682 H 0.60432 0.36245 0.57663 0.0
H683 H 0.58987 0.31851 0.42418 0.0
H684 H 0.5341 0.26161 0.88145 0.0
H685 H 0.51209 0.31226 0.70544 0.0
H686 H 0.53797 0.24017 0.78525 0.0
H687 H 0.50858 0.33245 0.80301 0.0
H688 H 0.50696 0.36918 0.57981 0.0
H689 H 0.45107 0.31093 0.51961 0.0
H690 H 0.63429 0.25545 0.83263 0.0
H691 H 0.59633 0.331 0.80965 0.0
H692 H 0.49986 0.19894 0.53021 0.0
H693 H 0.53092 0.27433 0.47857 0.0
H694 H 0.48135 0.19341 0.43156 0.0
H695 H 0.51221 0.26737 0.38061 0.0
H696 H 0.58424 0.18335 0.58156 0.0
H697 H 0.56756 0.20712 0.75678 0.0
H698 H 0.5872 0.13702 0.61511 0.0
H699 H 0.57067 0.16036 0.78727 0.0
H700 H 0.64809 0.23427 0.45063 0.0
H701 H 0.58137 0.18694 0.39664 0.0
H702 H 0.46383 0.18793 0.76769 0.0
H703 H 0.49614 0.13882 0.63211 0.0
C704 C 0.38116 0.69337 0.93171 0.0
C705 C 0.3683 0.70162 0.88101 0.0
C706 C 0.36712 0.68198 0.9778 0.0
C707 C 0.33943 0.679 0.97357 0.0
C708 C 0.32614 0.68818 0.92352 0.0
C709 C 0.34073 0.69929 0.87775 0.0
C710 C 0.38207 0.67243 0.03035 0.0
C711 C 0.2966 0.68555 0.9176 0.0
C712 C 0.30996 0.62357 0.06344 0.0
C713 C 0.3011 0.63697 0.11295 0.0
C714 C 0.32185 0.63711 0.01725 0.0
C715 C 0.32475 0.66483 0.02016 0.0
C716 C 0.31497 0.67864 0.06895 0.0
C717 C 0.30334 0.66454 0.11485 0.0
C718 C 0.33203 0.62161 0.96607 0.0
C719 C 0.31751 0.70821 0.07345 0.0
H720 H 0.40236 0.69561 0.93525 0.0
H721 H 0.3306 0.7054 0.83867 0.0
H722 H 0.37388 0.68146 0.07023 0.0
H723 H 0.37977 0.65076 0.03461 0.0
H724 H 0.40345 0.67713 0.02788 0.0
H725 H 0.28901 0.69559 0.87822 0.0
H726 H 0.29112 0.6644 0.9153 0.0
H727 H 0.28663 0.69395 0.95618 0.0
H728 H 0.30782 0.60235 0.06096 0.0
H729 H 0.29676 0.67508 0.15303 0.0
H730 H 0.35375 0.62389 0.9629 0.0
H731 H 0.32345 0.62934 0.92526 0.0
H732 H 0.32732 0.60027 0.96941 0.0
H733 H 0.33864 0.71375 0.07666 0.0
H734 H 0.307 0.71622 0.11185 0.0
H735 H 0.30955 0.71775 0.03389 0.0
C736 C 0.34277 0.79359 0.35436 0.0
C737 C 0.36824 0.80274 0.36765 0.0
C738 C 0.32799 0.8049 0.30919 0.0
C739 C 0.33907 0.82557 0.27583 0.0
C740 C 0.36477 0.83477 0.2887 0.0
C741 C 0.37886 0.82349 0.33471 0.0
C742 C 0.30049 0.79484 0.29732 0.0
C743 C 0.3774 0.85667 0.25399 0.0
C744 C 0.31356 0.84219 0.12517 0.0
C745 C 0.29997 0.86573 0.13567 0.0
C746 C 0.32568 0.82836 0.17071 0.0
C747 C 0.32378 0.83812 0.2281 0.0
C748 C 0.30894 0.8612 0.23916 0.0
C749 C 0.29743 0.87485 0.19274 0.0
C750 C 0.3416 0.80404 0.157 0.0
C751 C 0.30598 0.87199 0.29978 0.0
H752 H 0.33442 0.77739 0.3789 0.0
H753 H 0.39819 0.83125 0.34523 0.0
H754 H 0.28612 0.81121 0.30106 0.0
H755 H 0.2992 0.78722 0.25236 0.0
H756 H 0.29457 0.77888 0.32767 0.0
H757 H 0.39796 0.86078 0.26793 0.0
H758 H 0.37757 0.85145 0.20729 0.0
H759 H 0.36572 0.87501 0.2586 0.0
H760 H 0.31568 0.83523 0.081 0.0
H761 H 0.28668 0.89292 0.20093 0.0
H762 H 0.33545 0.78742 0.18519 0.0
H763 H 0.36276 0.80794 0.16592 0.0
H764 H 0.33953 0.79791 0.111 0.0
H765 H 0.29927 0.85625 0.32977 0.0
H766 H 0.29175 0.88858 0.30175 0.0
H767 H 0.32537 0.8791 0.31569 0.0
C768 C 0.13851 0.79068 0.43798 0.0
C769 C 0.13729 0.80457 0.38544 0.0
C770 C 0.15109 0.80153 0.48677 0.0
C771 C 0.16276 0.82686 0.48288 0.0
C772 C 0.16225 0.84062 0.4295 0.0
C773 C 0.14952 0.82933 0.38151 0.0
C774 C 0.15119 0.78625 0.54292 0.0
C775 C 0.1746 0.86758 0.4234 0.0
C776 C 0.16932 0.86938 0.61754 0.0
C777 C 0.19624 0.86702 0.63052 0.0
C778 C 0.1581 0.85592 0.57048 0.0
C779 C 0.17419 0.83971 0.53528 0.0
C780 C 0.20126 0.83674 0.54887 0.0
C781 C 0.21196 0.85038 0.59645 0.0
C782 C 0.12911 0.85947 0.55778 0.0
C783 C 0.21906 0.8197 0.51228 0.0
H784 H 0.12892 0.77164 0.44151 0.0
H785 H 0.14905 0.83998 0.3408 0.0
H786 H 0.17159 0.78451 0.5598 0.0
H787 H 0.1395 0.79697 0.576 0.0
H788 H 0.14278 0.76615 0.53785 0.0
H789 H 0.1737 0.87508 0.3782 0.0
H790 H 0.16429 0.88177 0.45207 0.0
H791 H 0.19554 0.867 0.43726 0.0
H792 H 0.15696 0.88185 0.64429 0.0
H793 H 0.23281 0.84862 0.606 0.0
H794 H 0.11911 0.84003 0.55621 0.0
H795 H 0.12659 0.86881 0.51466 0.0
H796 H 0.11911 0.87191 0.59071 0.0
H797 H 0.21076 0.79952 0.50867 0.0
H798 H 0.23932 0.81836 0.53032 0.0
H799 H 0.22029 0.82787 0.46775 0.0
C800 C 0.16186 0.69772 0.86796 0.0
C801 C 0.13519 0.70473 0.86423 0.0
C802 C 0.17507 0.68678 0.82015 0.0
C803 C 0.16135 0.68317 0.76722 0.0
C804 C 0.13478 0.69142 0.76256 0.0
C805 C 0.12196 0.70188 0.81127 0.0
C806 C 0.20329 0.67792 0.82713 0.0
C807 C 0.11959 0.68836 0.70667 0.0
C808 C 0.20047 0.66803 0.63017 0.0
C809 C 0.19737 0.64059 0.62575 0.0
C810 C 0.18878 0.68225 0.67575 0.0
C811 C 0.17397 0.66868 0.71843 0.0
C812 C 0.1708 0.64103 0.7143 0.0
C813 C 0.18223 0.62743 0.66781 0.0
C814 C 0.19222 0.71179 0.6782 0.0
C815 C 0.15526 0.62576 0.75902 0.0
H816 H 0.17206 0.69978 0.90899 0.0
H817 H 0.10142 0.7076 0.80818 0.0
H818 H 0.20429 0.65614 0.8236 0.0
H819 H 0.21574 0.68621 0.79202 0.0
H820 H 0.21175 0.68389 0.86956 0.0
H821 H 0.09999 0.69806 0.70854 0.0
H822 H 0.13094 0.69686 0.67002 0.0
H823 H 0.11659 0.66713 0.69726 0.0
H824 H 0.2123 0.67842 0.59839 0.0
H825 H 0.17904 0.60637 0.66423 0.0
H826 H 0.20226 0.71744 0.71906 0.0
H827 H 0.17265 0.72153 0.67819 0.0
H828 H 0.2039 0.71947 0.6411 0.0
H829 H 0.16346 0.6294 0.80287 0.0
H830 H 0.15546 0.6042 0.75068 0.0
H831 H 0.13448 0.63254 0.75938 0.0
C832 C 0.79309 0.15322 0.5976 0.0
C833 C 0.80882 0.13632 0.63111 0.0
C834 C 0.80374 0.16716 0.55033 0.0
C835 C 0.83072 0.16402 0.536 0.0
C836 C 0.8468 0.14745 0.57037 0.0
C837 C 0.83571 0.13395 0.61756 0.0
C838 C 0.78601 0.1848 0.51498 0.0
C839 C 0.87565 0.14354 0.5566 0.0
C840 C 0.85418 0.17587 0.3817 0.0
C841 C 0.86718 0.20023 0.38655 0.0
C842 C 0.84178 0.16417 0.42967 0.0
C843 C 0.84207 0.17723 0.48388 0.0
C844 C 0.85438 0.20219 0.48876 0.0
C845 C 0.8669 0.21333 0.44017 0.0
C846 C 0.82892 0.13749 0.42263 0.0
C847 C 0.85494 0.21684 0.5457 0.0
H848 H 0.77227 0.15504 0.60737 0.0
H849 H 0.84817 0.12141 0.64388 0.0
H850 H 0.79465 0.20485 0.51182 0.0
H851 H 0.78431 0.177 0.47022 0.0
H852 H 0.7659 0.18635 0.5338 0.0
H853 H 0.88558 0.13043 0.58833 0.0
H854 H 0.87776 0.13483 0.51275 0.0
H855 H 0.88602 0.16281 0.55615 0.0
H856 H 0.85379 0.16582 0.34028 0.0
H857 H 0.87709 0.232 0.44468 0.0
H858 H 0.80802 0.13834 0.43669 0.0
H859 H 0.839 0.12288 0.45068 0.0
H860 H 0.82962 0.13035 0.37715 0.0
H861 H 0.8347 0.21865 0.56347 0.0
H862 H 0.86358 0.23688 0.54132 0.0
H863 H 0.86675 0.20562 0.57774 0.0
C864 C 0.85578 0.28757 0.8308 0.0
C865 C 0.86295 0.30319 0.87835 0.0
C866 C 0.84284 0.2986 0.78274 0.0
C867 C 0.8376 0.32601 0.7817 0.0
C868 C 0.84448 0.34176 0.83011 0.0
C869 C 0.85681 0.33009 0.87813 0.0
C870 C 0.83526 0.28103 0.73264 0.0
C871 C 0.83976 0.37114 0.83026 0.0
C872 C 0.83283 0.35997 0.63532 0.0
C873 C 0.80565 0.36488 0.63055 0.0
C874 C 0.8434 0.34729 0.68409 0.0
C875 C 0.82637 0.33854 0.72875 0.0
C876 C 0.79885 0.3425 0.72346 0.0
C877 C 0.78885 0.35586 0.67482 0.0
C878 C 0.87291 0.34374 0.68831 0.0
C879 C 0.78 0.33299 0.76964 0.0
H880 H 0.8604 0.26672 0.83119 0.0
H881 H 0.86261 0.3422 0.9147 0.0
H882 H 0.81416 0.28384 0.72159 0.0
H883 H 0.84695 0.28642 0.69375 0.0
H884 H 0.83865 0.25985 0.74229 0.0
H885 H 0.8455 0.38044 0.87197 0.0
H886 H 0.85127 0.38049 0.79485 0.0
H887 H 0.81865 0.37538 0.82197 0.0
H888 H 0.84601 0.36615 0.60093 0.0
H889 H 0.76789 0.35974 0.67225 0.0
H890 H 0.87778 0.32252 0.69231 0.0
H891 H 0.88044 0.3537 0.7278 0.0
H892 H 0.88347 0.35186 0.65005 0.0
H893 H 0.78332 0.31176 0.77859 0.0
H894 H 0.75905 0.33581 0.75704 0.0
H895 H 0.78363 0.34381 0.81062 0.0
C896 C 0.7087 0.35277 0.08503 0.0
C897 C 0.69271 0.36687 0.12377 0.0
C898 C 0.69777 0.33949 0.03723 0.0
C899 C 0.67018 0.34037 0.02784 0.0
C900 C 0.65389 0.3541 0.06744 0.0
C901 C 0.66533 0.3671 0.11489 0.0
C902 C 0.71578 0.32502 0.99606 0.0
C903 C 0.62439 0.35548 0.05909 0.0
C904 C 0.64263 0.33151 0.87592 0.0
C905 C 0.63255 0.30575 0.8781 0.0
C906 C 0.65539 0.34278 0.9239 0.0
C907 C 0.65834 0.32791 0.9754 0.0
C908 C 0.6489 0.30163 0.97745 0.0
C909 C 0.63608 0.29089 0.92884 0.0
C910 C 0.6652 0.37084 0.91985 0.0
C911 C 0.65175 0.2851 0.03149 0.0
H912 H 0.72989 0.35267 0.0912 0.0
H913 H 0.65276 0.37752 0.14516 0.0
H914 H 0.70908 0.30433 0.99081 0.0
H915 H 0.71503 0.33441 0.95266 0.0
H916 H 0.73658 0.32496 0.01117 0.0
H917 H 0.61441 0.3663 0.09472 0.0
H918 H 0.61985 0.3655 0.01753 0.0
H919 H 0.61596 0.33533 0.05658 0.0
H920 H 0.64046 0.34298 0.83659 0.0
H921 H 0.62815 0.27107 0.93121 0.0
H922 H 0.68651 0.37174 0.93052 0.0
H923 H 0.6547 0.38328 0.95194 0.0
H924 H 0.66221 0.37943 0.87605 0.0
H925 H 0.67267 0.28469 0.04557 0.0
H926 H 0.64488 0.26452 0.02492 0.0
H927 H 0.64017 0.29399 0.06725 0.0
C928 C 0.67896 0.15533 0.11943 0.0
C929 C 0.70188 0.14066 0.12952 0.0
C930 C 0.66596 0.16823 0.16512 0.0
C931 C 0.67644 0.16677 0.22196 0.0
C932 C 0.70031 0.15302 0.23172 0.0
C933 C 0.71259 0.1399 0.18549 0.0
C934 C 0.64036 0.18233 0.15303 0.0
C935 C 0.71245 0.15146 0.29137 0.0
C936 C 0.6506 0.21433 0.33639 0.0
C937 C 0.63268 0.19836 0.36693 0.0
C938 C 0.66517 0.20432 0.28941 0.0
C939 C 0.66144 0.17784 0.27188 0.0
C940 C 0.6434 0.16165 0.30238 0.0
C941 C 0.62951 0.17199 0.34976 0.0
C942 C 0.68451 0.22208 0.25849 0.0
C943 C 0.63868 0.13334 0.28487 0.0
H944 H 0.67056 0.15574 0.07624 0.0
H945 H 0.73045 0.12872 0.19317 0.0
H946 H 0.62398 0.17208 0.17571 0.0
H947 H 0.64115 0.20275 0.17002 0.0
H948 H 0.63573 0.18308 0.106 0.0
H949 H 0.73228 0.1422 0.29064 0.0
H950 H 0.71421 0.17145 0.31047 0.0
H951 H 0.69951 0.13972 0.32035 0.0
H952 H 0.65303 0.2348 0.34862 0.0
H953 H 0.61624 0.15923 0.37366 0.0
H954 H 0.67865 0.22436 0.21245 0.0
H955 H 0.70443 0.21309 0.25893 0.0
H956 H 0.68572 0.24195 0.27854 0.0
H957 H 0.63244 0.13241 0.23883 0.0
H958 H 0.62335 0.12363 0.31189 0.0
H959 H 0.65725 0.12196 0.28876 0.0
C960 C 0.35472 0.43724 0.48194 0.0
C961 C 0.36216 0.46126 0.4567 0.0
C962 C 0.37367 0.41832 0.49708 0.0
C963 C 0.40067 0.42341 0.48599 0.0
C964 C 0.40829 0.44762 0.46034 0.0
C965 C 0.38895 0.46634 0.44636 0.0
C966 C 0.36478 0.39291 0.52511 0.0
C967 C 0.43684 0.45362 0.44713 0.0
C968 C 0.45183 0.38417 0.56984 0.0
C969 C 0.458 0.3641 0.53039 0.0
C970 C 0.43327 0.40367 0.5559 0.0
C971 C 0.4209 0.40329 0.50088 0.0
C972 C 0.42746 0.38335 0.46048 0.0
C973 C 0.44579 0.36387 0.47591 0.0
C974 C 0.42652 0.42438 0.60044 0.0
C975 C 0.41501 0.38249 0.40108 0.0
H976 H 0.33405 0.43341 0.4906 0.0
H977 H 0.39472 0.48481 0.42638 0.0
H978 H 0.37056 0.37592 0.49771 0.0
H979 H 0.37467 0.39045 0.56765 0.0
H980 H 0.3431 0.39223 0.53188 0.0
H981 H 0.43948 0.47331 0.42688 0.0
H982 H 0.44867 0.45288 0.48752 0.0
H983 H 0.44491 0.43846 0.4174 0.0
H984 H 0.46105 0.38422 0.61222 0.0
H985 H 0.45073 0.3485 0.44517 0.0
H986 H 0.40524 0.42321 0.61133 0.0
H987 H 0.43023 0.44433 0.58252 0.0
H988 H 0.43812 0.42211 0.64096 0.0
H989 H 0.39337 0.37982 0.4052 0.0
H990 H 0.42297 0.36626 0.37398 0.0
H991 H 0.41837 0.40145 0.37826 0.0
C992 C 0.63211 0.95717 0.74155 0.0
C993 C 0.64827 0.95395 0.7904 0.0
C994 C 0.61307 0.93818 0.72673 0.0
C995 C 0.61011 0.91537 0.76152 0.0
C996 C 0.62636 0.91197 0.81082 0.0
C997 C 0.64519 0.93129 0.82469 0.0
C998 C 0.59615 0.94251 0.67376 0.0
C999 C 0.6238 0.88794 0.84906 0.0
C1000 C 0.54534 0.87755 0.75438 0.0
C1001 C 0.55178 0.85653 0.7175 0.0
C1002 C 0.5641 0.89683 0.76903 0.0
C1003 C 0.58999 0.89505 0.74639 0.0
C1004 C 0.59668 0.87384 0.70938 0.0
C1005 C 0.57751 0.85487 0.69535 0.0
C1006 C 0.55622 0.9191 0.80875 0.0
C1007 C 0.62407 0.87126 0.68433 0.0
H1008 H 0.63458 0.97442 0.71437 0.0
H1009 H 0.65729 0.9288 0.863 0.0
H1010 H 0.59895 0.92608 0.64268 0.0
H1011 H 0.57501 0.94262 0.68621 0.0
H1012 H 0.60081 0.96135 0.65143 0.0
H1013 H 0.63806 0.88815 0.88558 0.0
H1014 H 0.60354 0.88676 0.86708 0.0
H1015 H 0.62705 0.86983 0.82314 0.0
H1016 H 0.52563 0.87881 0.77232 0.0
H1017 H 0.58257 0.83893 0.66617 0.0
H1018 H 0.55927 0.93828 0.78662 0.0
H1019 H 0.56887 0.91908 0.84797 0.0
H1020 H 0.53527 0.9177 0.82253 0.0
H1021 H 0.62888 0.88891 0.65798 0.0
H1022 H 0.62617 0.85348 0.65664 0.0
H1023 H 0.6388 0.87019 0.71979 0.0
C1024 C 0.03584 0.11583 0.05292 0.0
C1025 C 0.04124 0.14229 0.03993 0.0
C1026 C 0.05399 0.09589 0.03921 0.0
C1027 C 0.07799 0.10258 0.01139 0.0
C1028 C 0.08331 0.12922 0.99723 0.0
C1029 C 0.06492 0.14875 0.01187 0.0
C1030 C 0.04771 0.06774 0.05544 0.0
C1031 C 0.10853 0.13713 0.96699 0.0
C1032 C 0.13736 0.05742 0.02482 0.0
C1033 C 0.137 0.04422 0.97144 0.0
C1034 C 0.11798 0.07608 0.0388 0.0
C1035 C 0.09786 0.08186 0.99822 0.0
C1036 C 0.09721 0.06838 0.9445 0.0
C1037 C 0.11673 0.04964 0.93186 0.0
C1038 C 0.1192 0.08983 0.09677 0.0
C1039 C 0.07623 0.07417 0.8999 0.0
H1040 H 0.01767 0.11078 0.07509 0.0
H1041 H 0.06901 0.16915 1.00107 0.0
H1042 H 0.04843 0.055 0.01643 0.0
H1043 H 0.06276 0.06027 0.08619 0.0
H1044 H 0.02795 0.06574 0.07578 0.0
H1045 H 0.1093 0.15857 0.9574 0.0
H1046 H 0.12572 0.13197 0.99444 0.0
H1047 H 0.11058 0.12611 0.92573 0.0
H1048 H 0.15281 0.05307 0.05581 0.0
H1049 H 0.11654 0.0397 0.89028 0.0
H1050 H 0.10033 0.0871 0.12039 0.0
H1051 H 0.12198 0.11131 0.09023 0.0
H1052 H 0.13553 0.08238 0.12432 0.0
H1053 H 0.05635 0.07125 0.91899 0.0
H1054 H 0.07804 0.06145 0.86093 0.0
H1055 H 0.07761 0.09508 0.88615 0.0
C1056 C 0.94658 0.64155 0.27353 0.0
C1057 C 0.96022 0.64095 0.22058 0.0
C1058 C 0.92719 0.62266 0.28671 0.0
C1059 C 0.92143 0.60249 0.24624 0.0
C1060 C 0.9353 0.60156 0.19304 0.0
C1061 C 0.9544 0.62085 0.18073 0.0
C1062 C 0.91277 0.62437 0.34384 0.0
C1063 C 0.92981 0.58029 0.14886 0.0
C1064 C 0.8877 0.54026 0.30099 0.0
C1065 C 0.86139 0.54455 0.28463 0.0
C1066 C 0.90744 0.55887 0.28855 0.0
C1067 C 0.90074 0.58247 0.25936 0.0
C1068 C 0.87425 0.58695 0.24273 0.0
C1069 C 0.85493 0.56793 0.25539 0.0
C1070 C 0.93548 0.55333 0.30686 0.0
C1071 C 0.8663 0.61188 0.2116 0.0
H1072 H 0.95116 0.65673 0.30499 0.0
H1073 H 0.96445 0.62042 0.1393 0.0
H1074 H 0.89127 0.62638 0.33607 0.0
H1075 H 0.91572 0.60598 0.36898 0.0
H1076 H 0.9195 0.64131 0.37052 0.0
H1077 H 0.94278 0.58193 0.11021 0.0
H1078 H 0.93268 0.56058 0.16868 0.0
H1079 H 0.90898 0.58142 0.13446 0.0
H1080 H 0.89284 0.52248 0.32439 0.0
H1081 H 0.83475 0.57127 0.24184 0.0
H1082 H 0.94238 0.56884 0.33717 0.0
H1083 H 0.94869 0.55384 0.26854 0.0
H1084 H 0.93752 0.53386 0.32841 0.0
H1085 H 0.8715 0.62932 0.23829 0.0
H1086 H 0.84484 0.61248 0.20207 0.0
H1087 H 0.87729 0.61362 0.1702 0.0
C1088 C 0.35263 0.07177 0.78187 0.0
C1089 C 0.3586 0.045 0.78923 0.0
C1090 C 0.37227 0.0901 0.76701 0.0
C1091 C 0.39859 0.08148 0.75942 0.0
C1092 C 0.40473 0.05445 0.76629 0.0
C1093 C 0.38466 0.03652 0.781 0.0
C1094 C 0.36487 0.11872 0.75965 0.0
C1095 C 0.43257 0.04452 0.75876 0.0
C1096 C 0.44461 0.12581 0.67292 0.0
C1097 C 0.45808 0.13934 0.71697 0.0
C1098 C 0.42548 0.10668 0.68608 0.0
C1099 C 0.41967 0.10087 0.74474 0.0
C1100 C 0.43349 0.11414 0.78941 0.0
C1101 C 0.45248 0.13323 0.775 0.0
C1102 C 0.4111 0.09306 0.63721 0.0
C1103 C 0.42797 0.10839 0.85247 0.0
H1104 H 0.33247 0.0784 0.78734 0.0
H1105 H 0.38946 0.01591 0.78722 0.0
H1106 H 0.37604 0.13101 0.79095 0.0
H1107 H 0.37027 0.12554 0.71552 0.0
H1108 H 0.34346 0.12216 0.76637 0.0
H1109 H 0.43402 0.02285 0.76479 0.0
H1110 H 0.43994 0.04957 0.71486 0.0
H1111 H 0.44579 0.05431 0.79047 0.0
H1112 H 0.44857 0.13066 0.62799 0.0
H1113 H 0.46304 0.14337 0.80924 0.0
H1114 H 0.38973 0.09758 0.63968 0.0
H1115 H 0.4132 0.07138 0.64128 0.0
H1116 H 0.41853 0.09918 0.59395 0.0
H1117 H 0.40716 0.11319 0.86274 0.0
H1118 H 0.44098 0.11983 0.88196 0.0
H1119 H 0.43073 0.08708 0.86136 0.0
C1120 C 0.89156 0.96687 0.9674 0.0
C1121 C 0.86488 0.96011 0.97361 0.0
C1122 C 0.91154 0.94878 0.98113 0.0
C1123 C 0.90465 0.92347 1.00217 0.0
C1124 C 0.87774 0.91672 0.00943 0.0
C1125 C 0.85818 0.93508 0.99477 0.0
C1126 C 0.94 0.95659 0.97219 0.0
C1127 C 0.86959 0.89005 0.03244 0.0
C1128 C 0.95243 0.86633 0.98661 0.0
C1129 C 0.96336 0.86492 0.0423 0.0
C1130 C 0.93374 0.88568 0.9726 0.0
C1131 C 0.92552 0.9038 0.0156 0.0
C1132 C 0.9367 0.90262 0.07177 0.0
C1133 C 0.95564 0.88329 0.08434 0.0
C1134 C 0.92257 0.88653 0.91197 0.0
C1135 C 0.92819 0.92137 0.11897 0.0
H1136 H 0.89679 0.98612 0.95053 0.0
H1137 H 0.83757 0.92992 1.00028 0.0
H1138 H 0.95106 0.95467 0.01343 0.0
H1139 H 0.94936 0.94313 0.94039 0.0
H1140 H 0.94206 0.97715 0.95624 0.0
H1141 H 0.84787 0.8882 0.03722 0.0
H1142 H 0.87658 0.87435 0.00277 0.0
H1143 H 0.87889 0.88652 0.07525 0.0
H1144 H 0.95857 0.85229 0.95389 0.0
H1145 H 0.96387 0.88205 0.12761 0.0
H1146 H 0.92542 0.90643 0.89302 0.0
H1147 H 0.90104 0.8827 0.91329 0.0
H1148 H 0.9319 0.87179 0.88292 0.0
H1149 H 0.93114 0.94205 0.10471 0.0
H1150 H 0.93924 0.91825 0.15996 0.0
H1151 H 0.90684 0.91878 0.12781 0.0
C1152 C 0.03724 0.38841 0.23409 0.0
C1153 C 0.04484 0.36308 0.21675 0.0
C1154 C 0.05619 0.40764 0.24801 0.0
C1155 C 0.08335 0.40151 0.2433 0.0
C1156 C 0.09109 0.37604 0.22495 0.0
C1157 C 0.07173 0.35706 0.21243 0.0
C1158 C 0.04715 0.43441 0.26842 0.0
C1159 C 0.11982 0.36886 0.21833 0.0
C1160 C 0.13259 0.45791 0.23004 0.0
C1161 C 0.14325 0.45882 0.28605 0.0
C1162 C 0.11309 0.43935 0.21545 0.0
C1163 C 0.10373 0.4216 0.25821 0.0
C1164 C 0.11416 0.42273 0.31509 0.0
C1165 C 0.13395 0.44118 0.32817 0.0
C1166 C 0.1028 0.43846 0.1541 0.0
C1167 C 0.10441 0.40446 0.36214 0.0
H1168 H 0.01644 0.39301 0.23776 0.0
H1169 H 0.07762 0.33755 0.19837 0.0
H1170 H 0.05518 0.43845 0.31226 0.0
H1171 H 0.05483 0.44995 0.23909 0.0
H1172 H 0.02531 0.43597 0.27015 0.0
H1173 H 0.12252 0.34846 0.20197 0.0
H1174 H 0.1296 0.38272 0.18792 0.0
H1175 H 0.13001 0.37067 0.26067 0.0
H1176 H 0.13991 0.47139 0.19729 0.0
H1177 H 0.14197 0.44206 0.37168 0.0
H1178 H 0.08115 0.44154 0.15387 0.0
H1179 H 0.10654 0.41874 0.13506 0.0
H1180 H 0.11212 0.45362 0.12599 0.0
H1181 H 0.08275 0.4065 0.36722 0.0
H1182 H 0.11394 0.40846 0.40459 0.0
H1183 H 0.10838 0.38371 0.34993 0.0
C1184 C 0.57246 0.64443 0.53975 0.0
C1185 C 0.54543 0.63859 0.54221 0.0
C1186 C 0.59102 0.62496 0.52569 0.0
C1187 C 0.58237 0.59896 0.5139 0.0
C1188 C 0.55512 0.59291 0.51632 0.0
C1189 C 0.53697 0.6128 0.53033 0.0
C1190 C 0.61988 0.63225 0.52317 0.0
C1191 C 0.54514 0.5654 0.50428 0.0
C1192 C 0.62815 0.55495 0.42659 0.0
C1193 C 0.64037 0.54004 0.47019 0.0
C1194 C 0.60904 0.57396 0.44014 0.0
C1195 C 0.60189 0.57817 0.49872 0.0
C1196 C 0.61387 0.56295 0.54289 0.0
C1197 C 0.63298 0.54411 0.5281 0.0
C1198 C 0.59681 0.58986 0.39182 0.0
C1199 C 0.60668 0.56676 0.60583 0.0
H1200 H 0.5791 0.6644 0.54804 0.0
H1201 H 0.51615 0.60809 0.53277 0.0
H1202 H 0.63123 0.61996 0.5541 0.0
H1203 H 0.62779 0.62824 0.47922 0.0
H1204 H 0.62338 0.65334 0.53366 0.0
H1205 H 0.52335 0.5639 0.50811 0.0
H1206 H 0.55098 0.55925 0.45997 0.0
H1207 H 0.55424 0.55127 0.53502 0.0
H1208 H 0.634 0.5522 0.38182 0.0
H1209 H 0.64209 0.53244 0.56195 0.0
H1210 H 0.60143 0.61106 0.39789 0.0
H1211 H 0.57503 0.58781 0.3929 0.0
H1212 H 0.60398 0.58369 0.34841 0.0
H1213 H 0.61142 0.5872 0.61938 0.0
H1214 H 0.61729 0.55287 0.63479 0.0
H1215 H 0.58515 0.56394 0.6119 0.0
loop_
_geom_bond_atom_site_label_1
_geom_bond_atom_site_label_2
_geom_bond_distance
_geom_bond_site_symmetry_2
_ccdc_geom_bond_type
Li0 N17 1.990 . S
Li0 O60 1.956 . S
Li0 O61 1.970 . S
Li0 O62 1.961 . S
Li1 N25 1.990 . S
Li1 O60 1.970 . S
Li1 O61 1.956 . S
Li1 O63 1.961 . S
Li2 N47 1.990 . S
Li2 O60 1.961 . S
Li2 O62 1.956 . S
Li2 O63 1.970 . S
Li3 N53 1.990 . S
Li3 O61 1.961 . S
Li3 O62 1.970 . S
Li3 O63 1.956 . S
C4 C6 1.348 . S
C4 C7 1.356 . S
C4 O60 1.325 . S
N5 C8 1.314 . S
N5 C9 1.279 . S
C6 C4 1.348 . S
C6 C8 1.353 . S
C6 H64 0.929 . S
C7 C4 1.356 . S
C7 C9 1.358 . S
C7 H65 0.930 . S
C8 N5 1.314 . S
C8 C6 1.353 . S
C8 H66 0.930 . S
C9 N5 1.279 . S
C9 C7 1.358 . S
C9 H67 0.930 . S
C10 C13 1.348 . S
C10 C14 1.356 . S
C10 O61 1.325 . S
C11 N12 1.279 . S
C11 C14 1.358 . S
C11 H68 0.930 . S
N12 C11 1.279 . S
N12 C15 1.314 . S
C13 C10 1.348 . S
C13 C15 1.353 . S
C13 H69 0.929 . S
C14 C10 1.356 . S
C14 C11 1.358 . S
C14 H70 0.930 . S
C15 N12 1.314 . S
C15 C13 1.353 . S
C15 H71 0.930 . S
C16 N17 1.314 . S
C16 C21 1.353 . S
C16 H22 0.930 . S
N17 Li0 1.990 . S
N17 C16 1.314 . S
N17 C19 1.279 . S
C18 C19 1.358 . S
C18 C20 1.356 . S
C18 H72 0.930 . S
C19 N17 1.279 . S
C19 C18 1.358 . S
C19 H23 0.930 . S
C20 C18 1.356 . S
C20 C21 1.348 . S
C21 C16 1.353 . S
C21 C20 1.348 . S
C21 H73 0.929 . S
H22 C16 0.930 . S
H23 C19 0.930 . S
C24 N25 1.314 . S
C24 C26 1.353 . S
C24 H30 0.930 . S
N25 Li1 1.990 . S
N25 C24 1.314 . S
N25 C28 1.279 . S
C26 C24 1.353 . S
C26 C29 1.348 . S
C26 H74 0.929 . S
C27 C28 1.358 . S
C27 C29 1.356 . S
C27 H75 0.930 . S
C28 N25 1.279 . S
C28 C27 1.358 . S
C28 H31 0.930 . S
C29 C26 1.348 . S
C29 C27 1.356 . S
H30 C24 0.930 . S
H31 C28 0.930 . S
C32 C34 1.348 . S
C32 C35 1.356 . S
C32 O62 1.325 . S
N33 C36 1.314 . S
N33 C37 1.279 . S
C34 C32 1.348 . S
C34 C36 1.353 . S
C34 H76 0.929 . S
C35 C32 1.356 . S
C35 C37 1.358 . S
C35 H77 0.930 . S
C36 N33 1.314 . S
C36 C34 1.353 . S
C36 H78 0.930 . S
C37 N33 1.279 . S
C37 C35 1.358 . S
C37 H79 0.930 . S
C38 C39 1.348 . S
C38 C40 1.356 . S
C38 O63 1.325 . S
C39 C38 1.348 . S
C39 C41 1.353 . S
C39 H80 0.929 . S
C40 C38 1.356 . S
C40 C42 1.358 . S
C40 H81 0.930 . S
C41 C39 1.353 . S
C41 N43 1.314 . S
C41 H82 0.930 . S
C42 C40 1.358 . S
C42 N43 1.279 . S
C42 H83 0.930 . S
N43 C41 1.314 . S
N43 C42 1.279 . S
C44 C46 1.353 . S
C44 N47 1.314 . S
C44 H50 0.930 . S
C45 N47 1.279 . S
C45 C48 1.358 . S
C45 H51 0.930 . S
C46 C44 1.353 . S
C46 C49 1.348 . S
C46 H84 0.929 . S
N47 Li2 1.990 . S
N47 C44 1.314 . S
N47 C45 1.279 . S
C48 C45 1.358 . S
C48 C49 1.356 . S
C48 H85 0.930 . S
C49 C46 1.348 . S
C49 C48 1.356 . S
H50 C44 0.930 . S
H51 C45 0.930 . S
C52 N53 1.314 . S
C52 C54 1.353 . S
C52 H58 0.930 . S
N53 Li3 1.990 . S
N53 C52 1.314 . S
N53 C56 1.279 . S
C54 C52 1.353 . S
C54 C57 1.348 . S
C54 H86 0.929 . S
C55 C56 1.358 . S
C55 C57 1.356 . S
C55 H87 0.930 . S
C56 N53 1.279 . S
C56 C55 1.358 . S
C56 H59 0.930 . S
C57 C54 1.348 . S
C57 C55 1.356 . S
H58 C52 0.930 . S
H59 C56 0.930 . S
O60 Li0 1.956 . S
O60 Li1 1.970 . S
O60 Li2 1.961 . S
O60 C4 1.325 . S
O61 Li0 1.970 . S
O61 Li1 1.956 . S
O61 Li3 1.961 . S
O61 C10 1.325 . S
O62 Li0 1.961 . S
O62 Li2 1.956 . S
O62 Li3 1.970 . S
O62 C32 1.325 . S
O63 Li1 1.961 . S
O63 Li2 1.970 . S
O63 Li3 1.956 . S
O63 C38 1.325 . S
H64 C6 0.929 . S
H65 C7 0.930 . S
H66 C8 0.930 . S
H67 C9 0.930 . S
H68 C11 0.930 . S
H69 C13 0.929 . S
H70 C14 0.930 . S
H71 C15 0.930 . S
H72 C18 0.930 . S
H73 C21 0.929 . S
H74 C26 0.929 . S
H75 C27 0.930 . S
H76 C34 0.929 . S
H77 C35 0.930 . S
H78 C36 0.930 . S
H79 C37 0.930 . S
H80 C39 0.929 . S
H81 C40 0.930 . S
H82 C41 0.930 . S
H83 C42 0.930 . S
H84 C46 0.929 . S
H85 C48 0.930 . S
H86 C54 0.929 . S
H87 C55 0.930 . S
Li88 N105 1.990 . S
Li88 O148 1.956 . S
Li88 O149 1.970 . S
Li88 O150 1.961 . S
Li89 N113 1.990 . S
Li89 O148 1.970 . S
Li89 O149 1.956 . S
Li89 O151 1.961 . S
Li90 N135 1.990 . S
Li90 O148 1.961 . S
Li90 O150 1.956 . S
Li90 O151 1.970 . S
Li91 N141 1.990 . S
Li91 O149 1.961 . S
Li91 O150 1.970 . S
Li91 O151 1.956 . S
C92 C94 1.348 . S
C92 C95 1.356 . S
C92 O148 1.325 . S
N93 C96 1.314 . S
N93 C97 1.279 . S
C94 C92 1.348 . S
C94 C96 1.353 . S
C94 H152 0.929 . S
C95 C92 1.356 . S
C95 C97 1.358 . S
C95 H153 0.930 . S
C96 N93 1.314 . S
C96 C94 1.353 . S
C96 H154 0.930 . S
C97 N93 1.279 . S
C97 C95 1.358 . S
C97 H155 0.930 . S
C98 C101 1.348 . S
C98 C102 1.356 . S
C98 O149 1.325 . S
C99 N100 1.279 . S
C99 C102 1.358 . S
C99 H156 0.930 . S
N100 C99 1.279 . S
N100 C103 1.314 . S
C101 C98 1.348 . S
C101 C103 1.353 . S
C101 H157 0.929 . S
C102 C98 1.356 . S
C102 C99 1.358 . S
C102 H158 0.930 . S
C103 N100 1.314 . S
C103 C101 1.353 . S
C103 H159 0.930 . S
C104 N105 1.314 . S
C104 C109 1.353 . S
C104 H110 0.930 . S
N105 Li88 1.990 . S
N105 C104 1.314 . S
N105 C107 1.279 . S
C106 C107 1.358 . S
C106 C108 1.356 . S
C106 H160 0.930 . S
C107 N105 1.279 . S
C107 C106 1.358 . S
C107 H111 0.930 . S
C108 C106 1.356 . S
C108 C109 1.348 . S
C109 C104 1.353 . S
C109 C108 1.348 . S
C109 H161 0.929 . S
H110 C104 0.930 . S
H111 C107 0.930 . S
C112 N113 1.314 . S
C112 C114 1.353 . S
C112 H118 0.930 . S
N113 Li89 1.990 . S
N113 C112 1.314 . S
N113 C116 1.279 . S
C114 C112 1.353 . S
C114 C117 1.348 . S
C114 H162 0.929 . S
C115 C116 1.358 . S
C115 C117 1.356 . S
C115 H163 0.930 . S
C116 N113 1.279 . S
C116 C115 1.358 . S
C116 H119 0.930 . S
C117 C114 1.348 . S
C117 C115 1.356 . S
H118 C112 0.930 . S
H119 C116 0.930 . S
C120 C122 1.348 . S
C120 C123 1.356 . S
C120 O150 1.325 . S
N121 C124 1.314 . S
N121 C125 1.279 . S
C122 C120 1.348 . S
C122 C124 1.353 . S
C122 H164 0.929 . S
C123 C120 1.356 . S
C123 C125 1.358 . S
C123 H165 0.930 . S
C124 N121 1.314 . S
C124 C122 1.353 . S
C124 H166 0.930 . S
C125 N121 1.279 . S
C125 C123 1.358 . S
C125 H167 0.930 . S
C126 C127 1.348 . S
C126 C128 1.356 . S
C126 O151 1.325 . S
C127 C126 1.348 . S
C127 C129 1.353 . S
C127 H168 0.929 . S
C128 C126 1.356 . S
C128 C130 1.358 . S
C128 H169 0.930 . S
C129 C127 1.353 . S
C129 N131 1.314 . S
C129 H170 0.930 . S
C130 C128 1.358 . S
C130 N131 1.279 . S
C130 H171 0.930 . S
N131 C129 1.314 . S
N131 C130 1.279 . S
C132 C134 1.353 . S
C132 N135 1.314 . S
C132 H138 0.930 . S
C133 N135 1.279 . S
C133 C136 1.358 . S
C133 H139 0.930 . S
C134 C132 1.353 . S
C134 C137 1.348 . S
C134 H172 0.929 . S
N135 Li90 1.990 . S
N135 C132 1.314 . S
N135 C133 1.279 . S
C136 C133 1.358 . S
C136 C137 1.356 . S
C136 H173 0.930 . S
C137 C134 1.348 . S
C137 C136 1.356 . S
H138 C132 0.930 . S
H139 C133 0.930 . S
C140 N141 1.314 . S
C140 C142 1.353 . S
C140 H146 0.930 . S
N141 Li91 1.990 . S
N141 C140 1.314 . S
N141 C144 1.279 . S
C142 C140 1.353 . S
C142 C145 1.348 . S
C142 H174 0.929 . S
C143 C144 1.358 . S
C143 C145 1.356 . S
C143 H175 0.930 . S
C144 N141 1.279 . S
C144 C143 1.358 . S
C144 H147 0.930 . S
C145 C142 1.348 . S
C145 C143 1.356 . S
H146 C140 0.930 . S
H147 C144 0.930 . S
O148 Li88 1.956 . S
O148 Li89 1.970 . S
O148 Li90 1.961 . S
O148 C92 1.325 . S
O149 Li88 1.970 . S
O149 Li89 1.956 . S
O149 Li91 1.961 . S
O149 C98 1.325 . S
O150 Li88 1.961 . S
O150 Li90 1.956 . S
O150 Li91 1.970 . S
O150 C120 1.325 . S
O151 Li89 1.961 . S
O151 Li90 1.970 . S
O151 Li91 1.956 . S
O151 C126 1.325 . S
H152 C94 0.929 . S
H153 C95 0.930 . S
H154 C96 0.930 . S
H155 C97 0.930 . S
H156 C99 0.930 . S
H157 C101 0.929 . S
H158 C102 0.930 . S
H159 C103 0.930 . S
H160 C106 0.930 . S
H161 C109 0.929 . S
H162 C114 0.929 . S
H163 C115 0.930 . S
H164 C122 0.929 . S
H165 C123 0.930 . S
H166 C124 0.930 . S
H167 C125 0.930 . S
H168 C127 0.929 . S
H169 C128 0.930 . S
H170 C129 0.930 . S
H171 C130 0.930 . S
H172 C134 0.929 . S
H173 C136 0.930 . S
H174 C142 0.929 . S
H175 C143 0.930 . S
Li176 N193 1.990 . S
Li176 O236 1.956 . S
Li176 O237 1.970 . S
Li176 O238 1.961 . S
Li177 N201 1.990 . S
Li177 O236 1.970 . S
Li177 O237 1.956 . S
Li177 O239 1.961 . S
Li178 N223 1.990 . S
Li178 O236 1.961 . S
Li178 O238 1.956 . S
Li178 O239 1.970 . S
Li179 N229 1.990 . S
Li179 O237 1.961 . S
Li179 O238 1.970 . S
Li179 O239 1.956 . S
C180 C182 1.348 . S
C180 C183 1.356 . S
C180 O236 1.325 . S
N181 C184 1.314 . S
N181 C185 1.279 . S
C182 C180 1.348 . S
C182 C184 1.353 . S
C182 H240 0.929 . S
C183 C180 1.356 . S
C183 C185 1.358 . S
C183 H241 0.930 . S
C184 N181 1.314 . S
C184 C182 1.353 . S
C184 H242 0.930 . S
C185 N181 1.279 . S
C185 C183 1.358 . S
C185 H243 0.930 . S
C186 C189 1.348 . S
C186 C190 1.356 1_556 S
C186 O237 1.325 . S
C187 N188 1.279 1_565 S
C187 C190 1.358 . S
C187 H244 0.932 . S
N188 C187 1.279 1_545 S
N188 C191 1.314 . S
C189 C186 1.348 . S
C189 C191 1.353 1_566 S
C189 H245 0.929 . S
C190 C186 1.356 1_554 S
C190 C187 1.358 . S
C190 H246 0.930 . S
C191 N188 1.314 . S
C191 C189 1.353 1_544 S
C191 H247 0.930 . S
C192 N193 1.314 1_545 S
C192 C197 1.353 . S
C192 H198 0.930 . S
N193 Li176 1.990 . S
N193 C192 1.314 1_565 S
N193 C195 1.279 . S
C194 C195 1.358 . S
C194 C196 1.356 1_565 S
C194 H248 0.930 . S
C195 N193 1.279 . S
C195 C194 1.358 . S
C195 H199 0.930 . S
C196 C194 1.356 1_545 S
C196 C197 1.348 . S
C197 C192 1.353 . S
C197 C196 1.348 . S
C197 H249 0.929 . S
H198 C192 0.930 . S
H199 C195 0.930 . S
C200 N201 1.316 . S
C200 C202 1.340 1_556 S
C200 H206 0.943 . S
N201 Li177 1.990 . S
N201 C200 1.316 . S
N201 C204 1.279 1_556 S
C202 C200 1.340 1_554 S
C202 C205 1.348 . S
C202 H250 0.929 . S
C203 C204 1.358 . S
C203 C205 1.356 . S
C203 H251 0.930 . S
C204 N201 1.279 1_554 S
C204 C203 1.358 . S
C204 H207 0.930 . S
C205 C202 1.348 . S
C205 C203 1.356 . S
H206 C200 0.943 . S
H207 C204 0.930 . S
C208 C210 1.348 . S
C208 C211 1.356 . S
C208 O238 1.325 . S
N209 C212 1.314 . S
N209 C213 1.279 1_545 S
C210 C208 1.348 . S
C210 C212 1.353 1_565 S
C210 H252 0.929 . S
C211 C208 1.356 . S
C211 C213 1.358 . S
C211 H253 0.930 . S
C212 N209 1.314 . S
C212 C210 1.353 1_545 S
C212 H254 0.930 . S
C213 N209 1.279 1_565 S
C213 C211 1.358 . S
C213 H255 0.932 . S
C214 C215 1.348 . S
C214 C216 1.356 . S
C214 O239 1.325 . S
C215 C214 1.348 . S
C215 C217 1.353 . S
C215 H256 0.929 . S
C216 C214 1.356 . S
C216 C218 1.358 . S
C216 H257 0.930 1_556 S
C217 C215 1.353 . S
C217 N219 1.314 . S
C217 H258 0.930 . S
C218 C216 1.358 . S
C218 N219 1.279 . S
C218 H259 0.930 1_556 S
N219 C217 1.314 . S
N219 C218 1.279 . S
C220 C222 1.353 . S
C220 N223 1.314 . S
C220 H226 0.930 . S
C221 N223 1.279 . S
C221 C224 1.358 . S
C221 H227 0.930 . S
C222 C220 1.353 . S
C222 C225 1.348 . S
C222 H260 0.929 . S
N223 Li178 1.990 . S
N223 C220 1.314 . S
N223 C221 1.279 . S
C224 C221 1.358 . S
C224 C225 1.356 . S
C224 H261 0.930 . S
C225 C222 1.348 . S
C225 C224 1.356 . S
H226 C220 0.930 . S
H227 C221 0.930 . S
C228 N229 1.314 1_545 S
C228 C230 1.353 . S
C228 H234 0.930 . S
N229 Li179 1.990 . S
N229 C228 1.314 1_565 S
N229 C232 1.279 . S
C230 C228 1.353 . S
C230 C233 1.348 . S
C230 H262 0.929 . S
C231 C232 1.358 . S
C231 C233 1.356 1_565 S
C231 H263 0.930 . S
C232 N229 1.279 . S
C232 C231 1.358 . S
C232 H235 0.930 . S
C233 C230 1.348 . S
C233 C231 1.356 1_545 S
H234 C228 0.930 . S
H235 C232 0.930 . S
O236 Li176 1.956 . S
O236 Li177 1.970 . S
O236 Li178 1.961 . S
O236 C180 1.325 . S
O237 Li176 1.970 . S
O237 Li177 1.956 . S
O237 Li179 1.961 . S
O237 C186 1.325 . S
O238 Li176 1.961 . S
O238 Li178 1.956 . S
O238 Li179 1.970 . S
O238 C208 1.325 . S
O239 Li177 1.961 . S
O239 Li178 1.970 . S
O239 Li179 1.956 . S
O239 C214 1.325 . S
H240 C182 0.929 . S
H241 C183 0.930 . S
H242 C184 0.930 . S
H243 C185 0.930 . S
H244 C187 0.932 . S
H245 C189 0.929 . S
H246 C190 0.930 . S
H247 C191 0.930 . S
H248 C194 0.930 . S
H249 C197 0.929 . S
H250 C202 0.929 . S
H251 C203 0.930 . S
H252 C210 0.929 . S
H253 C211 0.930 . S
H254 C212 0.930 . S
H255 C213 0.932 . S
H256 C215 0.929 . S
H257 C216 0.930 1_554 S
H258 C217 0.930 . S
H259 C218 0.930 1_554 S
H260 C222 0.929 . S
H261 C224 0.930 . S
H262 C230 0.929 . S
H263 C231 0.930 . S
Li264 N281 1.990 . S
Li264 O324 1.956 . S
Li264 O325 1.970 . S
Li264 O326 1.961 . S
Li265 N289 1.990 . S
Li265 O324 1.970 . S
Li265 O325 1.956 . S
Li265 O327 1.961 . S
Li266 N311 1.990 . S
Li266 O324 1.961 . S
Li266 O326 1.956 . S
Li266 O327 1.970 . S
Li267 N317 1.990 . S
Li267 O325 1.961 . S
Li267 O326 1.970 . S
Li267 O327 1.956 . S
C268 C270 1.348 . S
C268 C271 1.356 . S
C268 O324 1.325 . S
N269 C272 1.314 . S
N269 C273 1.279 . S
C270 C268 1.348 . S
C270 C272 1.353 . S
C270 H328 0.929 . S
C271 C268 1.356 . S
C271 C273 1.358 . S
C271 H329 0.930 1_554 S
C272 N269 1.314 . S
C272 C270 1.353 . S
C272 H330 0.930 . S
C273 N269 1.279 . S
C273 C271 1.358 . S
C273 H331 0.930 1_554 S
C274 C277 1.348 . S
C274 C278 1.356 . S
C274 O325 1.325 . S
C275 N276 1.279 1_455 S
C275 C278 1.358 . S
C275 H332 0.932 . S
N276 C275 1.279 1_655 S
N276 C279 1.314 . S
C277 C274 1.348 . S
C277 C279 1.353 1_455 S
C277 H333 0.929 . S
C278 C274 1.356 . S
C278 C275 1.358 . S
C278 H334 0.930 . S
C279 N276 1.314 . S
C279 C277 1.353 1_655 S
C279 H335 0.930 . S
C280 N281 1.314 1_655 S
C280 C285 1.353 . S
C280 H286 0.930 . S
N281 Li264 1.990 . S
N281 C280 1.314 1_455 S
N281 C283 1.279 . S
C282 C283 1.358 . S
C282 C284 1.356 1_455 S
C282 H336 0.930 . S
C283 N281 1.279 . S
C283 C282 1.358 . S
C283 H287 0.930 . S
C284 C282 1.356 1_655 S
C284 C285 1.348 . S
C285 C280 1.353 . S
C285 C284 1.348 . S
C285 H337 0.929 . S
H286 C280 0.930 . S
H287 C283 0.930 . S
C288 N289 1.314 . S
C288 C290 1.353 . S
C288 H294 0.930 . S
N289 Li265 1.990 . S
N289 C288 1.314 . S
N289 C292 1.279 . S
C290 C288 1.353 . S
C290 C293 1.348 . S
C290 H338 0.929 . S
C291 C292 1.358 . S
C291 C293 1.356 . S
C291 H339 0.930 . S
C292 N289 1.279 . S
C292 C291 1.358 . S
C292 H295 0.930 . S
C293 C290 1.348 . S
C293 C291 1.356 . S
H294 C288 0.930 . S
H295 C292 0.930 . S
C296 C298 1.348 . S
C296 C299 1.356 1_554 S
C296 O326 1.325 . S
N297 C300 1.314 . S
N297 C301 1.279 1_655 S
C298 C296 1.348 . S
C298 C300 1.353 1_454 S
C298 H340 0.929 . S
C299 C296 1.356 1_556 S
C299 C301 1.358 . S
C299 H341 0.930 . S
C300 N297 1.314 . S
C300 C298 1.353 1_656 S
C300 H342 0.930 . S
C301 N297 1.279 1_455 S
C301 C299 1.358 . S
C301 H343 0.932 . S
C302 C303 1.348 . S
C302 C304 1.356 . S
C302 O327 1.325 . S
C303 C302 1.348 . S
C303 C305 1.353 . S
C303 H344 0.929 . S
C304 C302 1.356 . S
C304 C306 1.358 . S
C304 H345 0.930 . S
C305 C303 1.353 . S
C305 N307 1.314 . S
C305 H346 0.930 . S
C306 C304 1.358 . S
C306 N307 1.279 . S
C306 H347 0.930 . S
N307 C305 1.314 . S
N307 C306 1.279 . S
C308 C310 1.340 1_554 S
C308 N311 1.316 . S
C308 H314 0.943 . S
C309 N311 1.279 1_556 S
C309 C312 1.358 . S
C309 H315 0.930 . S
C310 C308 1.340 1_556 S
C310 C313 1.348 . S
C310 H348 0.929 . S
N311 Li266 1.990 . S
N311 C308 1.316 . S
N311 C309 1.279 1_554 S
C312 C309 1.358 . S
C312 C313 1.356 . S
C312 H349 0.930 . S
C313 C310 1.348 . S
C313 C312 1.356 . S
H314 C308 0.943 . S
H315 C309 0.930 . S
C316 N317 1.314 1_655 S
C316 C318 1.353 . S
C316 H322 0.930 . S
N317 Li267 1.990 . S
N317 C316 1.314 1_455 S
N317 C320 1.279 . S
C318 C316 1.353 . S
C318 C321 1.348 . S
C318 H350 0.929 . S
C319 C320 1.358 . S
C319 C321 1.356 1_455 S
C319 H351 0.930 . S
C320 N317 1.279 . S
C320 C319 1.358 . S
C320 H323 0.930 . S
C321 C318 1.348 . S
C321 C319 1.356 1_655 S
H322 C316 0.930 . S
H323 C320 0.930 . S
O324 Li264 1.956 . S
O324 Li265 1.970 . S
O324 Li266 1.961 . S
O324 C268 1.325 . S
O325 Li264 1.970 . S
O325 Li265 1.956 . S
O325 Li267 1.961 . S
O325 C274 1.325 . S
O326 Li264 1.961 . S
O326 Li266 1.956 . S
O326 Li267 1.970 . S
O326 C296 1.325 . S
O327 Li265 1.961 . S
O327 Li266 1.970 . S
O327 Li267 1.956 . S
O327 C302 1.325 . S
H328 C270 0.929 . S
H329 C271 0.930 1_556 S
H330 C272 0.930 . S
H331 C273 0.930 1_556 S
H332 C275 0.932 . S
H333 C277 0.929 . S
H334 C278 0.930 . S
H335 C279 0.930 . S
H336 C282 0.930 . S
H337 C285 0.929 . S
H338 C290 0.929 . S
H339 C291 0.930 . S
H340 C298 0.929 . S
H341 C299 0.930 . S
H342 C300 0.930 . S
H343 C301 0.932 . S
H344 C303 0.929 . S
H345 C304 0.930 . S
H346 C305 0.930 . S
H347 C306 0.930 . S
H348 C310 0.929 . S
H349 C312 0.930 . S
H350 C318 0.929 . S
H351 C319 0.930 . S
Li352 N369 1.990 . S
Li352 O412 1.956 . S
Li352 O413 1.970 . S
Li352 O414 1.961 . S
Li353 N377 1.990 . S
Li353 O412 1.970 . S
Li353 O413 1.956 . S
Li353 O415 1.961 . S
Li354 N399 1.990 . S
Li354 O412 1.961 . S
Li354 O414 1.956 . S
Li354 O415 1.970 . S
Li355 N405 1.990 . S
Li355 O413 1.961 . S
Li355 O414 1.970 . S
Li355 O415 1.956 . S
C356 C358 1.348 . S
C356 C359 1.356 1_556 S
C356 O412 1.325 . S
N357 C360 1.314 . S
N357 C361 1.279 1_565 S
C358 C356 1.348 . S
C358 C360 1.353 1_546 S
C358 H416 0.929 . S
C359 C356 1.356 1_554 S
C359 C361 1.358 . S
C359 H417 0.930 . S
C360 N357 1.314 . S
C360 C358 1.353 1_564 S
C360 H418 0.930 . S
C361 N357 1.279 1_545 S
C361 C359 1.358 . S
C361 H419 0.932 . S
C362 C365 1.348 . S
C362 C366 1.356 . S
C362 O413 1.325 . S
C363 N364 1.279 . S
C363 C366 1.358 . S
C363 H420 0.930 . S
N364 C363 1.279 . S
N364 C367 1.314 . S
C365 C362 1.348 . S
C365 C367 1.353 . S
C365 H421 0.929 . S
C366 C362 1.356 . S
C366 C363 1.358 . S
C366 H422 0.930 . S
C367 N364 1.314 . S
C367 C365 1.353 . S
C367 H423 0.930 . S
C368 N369 1.316 . S
C368 C373 1.340 1_556 S
C368 H374 0.943 . S
N369 Li352 1.990 . S
N369 C368 1.316 . S
N369 C371 1.279 1_556 S
C370 C371 1.358 . S
C370 C372 1.356 . S
C370 H424 0.930 . S
C371 N369 1.279 1_554 S
C371 C370 1.358 . S
C371 H375 0.930 . S
C372 C370 1.356 . S
C372 C373 1.348 . S
C373 C368 1.340 1_554 S
C373 C372 1.348 . S
C373 H425 0.929 . S
H374 C368 0.943 . S
H375 C371 0.930 . S
C376 N377 1.314 1_565 S
C376 C378 1.353 . S
C376 H382 0.930 . S
N377 Li353 1.990 . S
N377 C376 1.314 1_545 S
N377 C380 1.279 . S
C378 C376 1.353 . S
C378 C381 1.348 . S
C378 H426 0.929 . S
C379 C380 1.358 . S
C379 C381 1.356 1_545 S
C379 H427 0.930 . S
C380 N377 1.279 . S
C380 C379 1.358 . S
C380 H383 0.930 . S
C381 C378 1.348 . S
C381 C379 1.356 1_565 S
H382 C376 0.930 . S
H383 C380 0.930 . S
C384 C386 1.348 . S
C384 C387 1.356 . S
C384 O414 1.325 . S
N385 C388 1.314 . S
N385 C389 1.279 . S
C386 C384 1.348 . S
C386 C388 1.353 . S
C386 H428 0.929 . S
C387 C384 1.356 . S
C387 C389 1.358 . S
C387 H429 0.930 1_556 S
C388 N385 1.314 . S
C388 C386 1.353 . S
C388 H430 0.930 . S
C389 N385 1.279 . S
C389 C387 1.358 . S
C389 H431 0.930 1_556 S
C390 C391 1.348 . S
C390 C392 1.356 . S
C390 O415 1.325 . S
C391 C390 1.348 . S
C391 C393 1.353 1_545 S
C391 H432 0.929 . S
C392 C390 1.356 . S
C392 C394 1.358 . S
C392 H433 0.930 . S
C393 C391 1.353 1_565 S
C393 N395 1.314 . S
C393 H434 0.930 . S
C394 C392 1.358 . S
C394 N395 1.279 1_545 S
C394 H435 0.932 . S
N395 C393 1.314 . S
N395 C394 1.279 1_565 S
C396 C398 1.353 . S
C396 N399 1.314 1_565 S
C396 H402 0.930 . S
C397 N399 1.279 . S
C397 C400 1.358 . S
C397 H403 0.930 . S
C398 C396 1.353 . S
C398 C401 1.348 . S
C398 H436 0.929 . S
N399 Li354 1.990 . S
N399 C396 1.314 1_545 S
N399 C397 1.279 . S
C400 C397 1.358 . S
C400 C401 1.356 1_545 S
C400 H437 0.930 . S
C401 C398 1.348 . S
C401 C400 1.356 1_565 S
H402 C396 0.930 . S
H403 C397 0.930 . S
C404 N405 1.314 . S
C404 C406 1.353 . S
C404 H410 0.930 . S
N405 Li355 1.990 . S
N405 C404 1.314 . S
N405 C408 1.279 . S
C406 C404 1.353 . S
C406 C409 1.348 . S
C406 H438 0.929 . S
C407 C408 1.358 . S
C407 C409 1.356 . S
C407 H439 0.930 . S
C408 N405 1.279 . S
C408 C407 1.358 . S
C408 H411 0.930 . S
C409 C406 1.348 . S
C409 C407 1.356 . S
H410 C404 0.930 . S
H411 C408 0.930 . S
O412 Li352 1.956 . S
O412 Li353 1.970 . S
O412 Li354 1.961 . S
O412 C356 1.325 . S
O413 Li352 1.970 . S
O413 Li353 1.956 . S
O413 Li355 1.961 . S
O413 C362 1.325 . S
O414 Li352 1.961 . S
O414 Li354 1.956 . S
O414 Li355 1.970 . S
O414 C384 1.325 . S
O415 Li353 1.961 . S
O415 Li354 1.970 . S
O415 Li355 1.956 . S
O415 C390 1.325 . S
H416 C358 0.929 . S
H417 C359 0.930 . S
H418 C360 0.930 . S
H419 C361 0.932 . S
H420 C363 0.930 . S
H421 C365 0.929 . S
H422 C366 0.930 . S
H423 C367 0.930 . S
H424 C370 0.930 . S
H425 C373 0.929 . S
H426 C378 0.929 . S
H427 C379 0.930 . S
H428 C386 0.929 . S
H429 C387 0.930 1_554 S
H430 C388 0.930 . S
H431 C389 0.930 1_554 S
H432 C391 0.929 . S
H433 C392 0.930 . S
H434 C393 0.930 . S
H435 C394 0.932 . S
H436 C398 0.929 . S
H437 C400 0.930 . S
H438 C406 0.929 . S
H439 C407 0.930 . S
Li440 N457 1.990 . S
Li440 O500 1.956 . S
Li440 O501 1.970 . S
Li440 O502 1.961 . S
Li441 N465 1.990 . S
Li441 O500 1.970 . S
Li441 O501 1.956 . S
Li441 O503 1.961 . S
Li442 N487 1.990 . S
Li442 O500 1.961 . S
Li442 O502 1.956 . S
Li442 O503 1.970 . S
Li443 N493 1.990 . S
Li443 O501 1.961 . S
Li443 O502 1.970 . S
Li443 O503 1.956 . S
C444 C446 1.348 . S
C444 C447 1.356 . S
C444 O500 1.325 . S
N445 C448 1.314 . S
N445 C449 1.279 1_455 S
C446 C444 1.348 . S
C446 C448 1.353 1_655 S
C446 H504 0.929 . S
C447 C444 1.356 . S
C447 C449 1.358 . S
C447 H505 0.930 . S
C448 N445 1.314 . S
C448 C446 1.353 1_455 S
C448 H506 0.930 . S
C449 N445 1.279 1_655 S
C449 C447 1.358 . S
C449 H507 0.932 . S
C450 C453 1.348 . S
C450 C454 1.356 . S
C450 O501 1.325 . S
C451 N452 1.279 . S
C451 C454 1.358 . S
C451 H508 0.930 1_554 S
N452 C451 1.279 . S
N452 C455 1.314 . S
C453 C450 1.348 . S
C453 C455 1.353 . S
C453 H509 0.929 . S
C454 C450 1.356 . S
C454 C451 1.358 . S
C454 H510 0.930 1_554 S
C455 N452 1.314 . S
C455 C453 1.353 . S
C455 H511 0.930 . S
C456 N457 1.314 . S
C456 C461 1.353 . S
C456 H462 0.930 . S
N457 Li440 1.990 . S
N457 C456 1.314 . S
N457 C459 1.279 . S
C458 C459 1.358 . S
C458 C460 1.356 . S
C458 H512 0.930 . S
C459 N457 1.279 . S
C459 C458 1.358 . S
C459 H463 0.930 . S
C460 C458 1.356 . S
C460 C461 1.348 . S
C461 C456 1.353 . S
C461 C460 1.348 . S
C461 H513 0.929 . S
H462 C456 0.930 . S
H463 C459 0.930 . S
C464 N465 1.314 1_455 S
C464 C466 1.353 . S
C464 H470 0.930 . S
N465 Li441 1.990 . S
N465 C464 1.314 1_655 S
N465 C468 1.279 . S
C466 C464 1.353 . S
C466 C469 1.348 . S
C466 H514 0.929 . S
C467 C468 1.358 . S
C467 C469 1.356 1_655 S
C467 H515 0.930 . S
C468 N465 1.279 . S
C468 C467 1.358 . S
C468 H471 0.930 . S
C469 C466 1.348 . S
C469 C467 1.356 1_455 S
H470 C464 0.930 . S
H471 C468 0.930 . S
C472 C474 1.348 . S
C472 C475 1.356 . S
C472 O502 1.325 . S
N473 C476 1.314 . S
N473 C477 1.279 . S
C474 C472 1.348 . S
C474 C476 1.353 . S
C474 H516 0.929 . S
C475 C472 1.356 . S
C475 C477 1.358 . S
C475 H517 0.930 . S
C476 N473 1.314 . S
C476 C474 1.353 . S
C476 H518 0.930 . S
C477 N473 1.279 . S
C477 C475 1.358 . S
C477 H519 0.930 . S
C478 C479 1.348 . S
C478 C480 1.356 1_554 S
C478 O503 1.325 . S
C479 C478 1.348 . S
C479 C481 1.353 1_654 S
C479 H520 0.929 . S
C480 C478 1.356 1_556 S
C480 C482 1.358 . S
C480 H521 0.930 . S
C481 C479 1.353 1_456 S
C481 N483 1.314 . S
C481 H522 0.930 . S
C482 C480 1.358 . S
C482 N483 1.279 1_655 S
C482 H523 0.932 . S
N483 C481 1.314 . S
N483 C482 1.279 1_455 S
C484 C486 1.353 . S
C484 N487 1.314 1_455 S
C484 H490 0.930 . S
C485 N487 1.279 . S
C485 C488 1.358 . S
C485 H491 0.930 . S
C486 C484 1.353 . S
C486 C489 1.348 . S
C486 H524 0.929 . S
N487 Li442 1.990 . S
N487 C484 1.314 1_655 S
N487 C485 1.279 . S
C488 C485 1.358 . S
C488 C489 1.356 1_655 S
C488 H525 0.930 . S
C489 C486 1.348 . S
C489 C488 1.356 1_455 S
H490 C484 0.930 . S
H491 C485 0.930 . S
C492 N493 1.316 . S
C492 C494 1.340 1_554 S
C492 H498 0.943 . S
N493 Li443 1.990 . S
N493 C492 1.316 . S
N493 C496 1.279 1_554 S
C494 C492 1.340 1_556 S
C494 C497 1.348 . S
C494 H526 0.929 . S
C495 C496 1.358 . S
C495 C497 1.356 . S
C495 H527 0.930 . S
C496 N493 1.279 1_556 S
C496 C495 1.358 . S
C496 H499 0.930 . S
C497 C494 1.348 . S
C497 C495 1.356 . S
H498 C492 0.943 . S
H499 C496 0.930 . S
O500 Li440 1.956 . S
O500 Li441 1.970 . S
O500 Li442 1.961 . S
O500 C444 1.325 . S
O501 Li440 1.970 . S
O501 Li441 1.956 . S
O501 Li443 1.961 . S
O501 C450 1.325 . S
O502 Li440 1.961 . S
O502 Li442 1.956 . S
O502 Li443 1.970 . S
O502 C472 1.325 . S
O503 Li441 1.961 . S
O503 Li442 1.970 . S
O503 Li443 1.956 . S
O503 C478 1.325 . S
H504 C446 0.929 . S
H505 C447 0.930 . S
H506 C448 0.930 . S
H507 C449 0.932 . S
H508 C451 0.930 1_556 S
H509 C453 0.929 . S
H510 C454 0.930 1_556 S
H511 C455 0.930 . S
H512 C458 0.930 . S
H513 C461 0.929 . S
H514 C466 0.929 . S
H515 C467 0.930 . S
H516 C474 0.929 . S
H517 C475 0.930 . S
H518 C476 0.930 . S
H519 C477 0.930 . S
H520 C479 0.929 . S
H521 C480 0.930 . S
H522 C481 0.930 . S
H523 C482 0.932 . S
H524 C486 0.929 . S
H525 C488 0.930 . S
H526 C494 0.929 . S
H527 C495 0.930 . S
Li528 N545 1.990 . S
Li528 O588 1.956 . S
Li528 O589 1.970 . S
Li528 O590 1.961 . S
Li529 N553 1.990 . S
Li529 O588 1.970 . S
Li529 O589 1.956 . S
Li529 O591 1.961 . S
Li530 N575 1.990 . S
Li530 O588 1.961 . S
Li530 O590 1.956 . S
Li530 O591 1.970 . S
Li531 N581 1.990 . S
Li531 O589 1.961 . S
Li531 O590 1.970 . S
Li531 O591 1.956 . S
C532 C534 1.348 . S
C532 C535 1.356 . S
C532 O588 1.325 . S
N533 C536 1.314 . S
N533 C537 1.279 . S
C534 C532 1.348 . S
C534 C536 1.353 . S
C534 H592 0.929 . S
C535 C532 1.356 . S
C535 C537 1.358 . S
C535 H593 0.930 . S
C536 N533 1.314 . S
C536 C534 1.353 . S
C536 H594 0.930 . S
C537 N533 1.279 . S
C537 C535 1.358 . S
C537 H595 0.930 . S
C538 C541 1.348 . S
C538 C542 1.356 . S
C538 O589 1.325 . S
C539 N540 1.279 . S
C539 C542 1.358 . S
C539 H596 0.930 . S
N540 C539 1.279 . S
N540 C543 1.314 . S
C541 C538 1.348 . S
C541 C543 1.353 . S
C541 H597 0.929 . S
C542 C538 1.356 . S
C542 C539 1.358 . S
C542 H598 0.930 . S
C543 N540 1.314 . S
C543 C541 1.353 . S
C543 H599 0.930 . S
C544 N545 1.314 . S
C544 C549 1.353 . S
C544 H550 0.930 . S
N545 Li528 1.990 . S
N545 C544 1.314 . S
N545 C547 1.279 . S
C546 C547 1.358 . S
C546 C548 1.356 . S
C546 H600 0.930 . S
C547 N545 1.279 . S
C547 C546 1.358 . S
C547 H551 0.930 . S
C548 C546 1.356 . S
C548 C549 1.348 . S
C549 C544 1.353 . S
C549 C548 1.348 . S
C549 H601 0.929 . S
H550 C544 0.930 . S
H551 C547 0.930 . S
C552 N553 1.314 . S
C552 C554 1.353 . S
C552 H558 0.930 . S
N553 Li529 1.990 . S
N553 C552 1.314 . S
N553 C556 1.279 . S
C554 C552 1.353 . S
C554 C557 1.348 . S
C554 H602 0.929 . S
C555 C556 1.358 . S
C555 C557 1.356 . S
C555 H603 0.930 . S
C556 N553 1.279 . S
C556 C555 1.358 . S
C556 H559 0.930 . S
C557 C554 1.348 . S
C557 C555 1.356 . S
H558 C552 0.930 . S
H559 C556 0.930 . S
C560 C562 1.348 . S
C560 C563 1.356 . S
C560 O590 1.325 . S
N561 C564 1.314 . S
N561 C565 1.279 . S
C562 C560 1.348 . S
C562 C564 1.353 . S
C562 H604 0.929 . S
C563 C560 1.356 . S
C563 C565 1.358 . S
C563 H605 0.930 . S
C564 N561 1.314 . S
C564 C562 1.353 . S
C564 H606 0.930 . S
C565 N561 1.279 . S
C565 C563 1.358 . S
C565 H607 0.930 . S
C566 C567 1.348 . S
C566 C568 1.356 . S
C566 O591 1.325 . S
C567 C566 1.348 . S
C567 C569 1.353 . S
C567 H608 0.929 . S
C568 C566 1.356 . S
C568 C570 1.358 . S
C568 H609 0.930 . S
C569 C567 1.353 . S
C569 N571 1.314 . S
C569 H610 0.930 . S
C570 C568 1.358 . S
C570 N571 1.279 . S
C570 H611 0.930 . S
N571 C569 1.314 . S
N571 C570 1.279 . S
C572 C574 1.353 . S
C572 N575 1.314 . S
C572 H578 0.930 . S
C573 N575 1.279 . S
C573 C576 1.358 . S
C573 H579 0.930 . S
C574 C572 1.353 . S
C574 C577 1.348 . S
C574 H612 0.929 . S
N575 Li530 1.990 . S
N575 C572 1.314 . S
N575 C573 1.279 . S
C576 C573 1.358 . S
C576 C577 1.356 . S
C576 H613 0.930 . S
C577 C574 1.348 . S
C577 C576 1.356 . S
H578 C572 0.930 . S
H579 C573 0.930 . S
C580 N581 1.314 . S
C580 C582 1.353 . S
C580 H586 0.930 . S
N581 Li531 1.990 . S
N581 C580 1.314 . S
N581 C584 1.279 . S
C582 C580 1.353 . S
C582 C585 1.348 . S
C582 H614 0.929 . S
C583 C584 1.358 . S
C583 C585 1.356 . S
C583 H615 0.930 . S
C584 N581 1.279 . S
C584 C583 1.358 . S
C584 H587 0.930 . S
C585 C582 1.348 . S
C585 C583 1.356 . S
H586 C580 0.930 . S
H587 C584 0.930 . S
O588 Li528 1.956 . S
O588 Li529 1.970 . S
O588 Li530 1.961 . S
O588 C532 1.325 . S
O589 Li528 1.970 . S
O589 Li529 1.956 . S
O589 Li531 1.961 . S
O589 C538 1.325 . S
O590 Li528 1.961 . S
O590 Li530 1.956 . S
O590 Li531 1.970 . S
O590 C560 1.325 . S
O591 Li529 1.961 . S
O591 Li530 1.970 . S
O591 Li531 1.956 . S
O591 C566 1.325 . S
H592 C534 0.929 . S
H593 C535 0.930 . S
H594 C536 0.930 . S
H595 C537 0.930 . S
H596 C539 0.930 . S
H597 C541 0.929 . S
H598 C542 0.930 . S
H599 C543 0.930 . S
H600 C546 0.930 . S
H601 C549 0.929 . S
H602 C554 0.929 . S
H603 C555 0.930 . S
H604 C562 0.929 . S
H605 C563 0.930 . S
H606 C564 0.930 . S
H607 C565 0.930 . S
H608 C567 0.929 . S
H609 C568 0.930 . S
H610 C569 0.930 . S
H611 C570 0.930 . S
H612 C574 0.929 . S
H613 C576 0.930 . S
H614 C582 0.929 . S
H615 C583 0.930 . S
Li616 N633 1.990 . S
Li616 O676 1.956 . S
Li616 O677 1.970 . S
Li616 O678 1.961 . S
Li617 N641 1.990 . S
Li617 O676 1.970 . S
Li617 O677 1.956 . S
Li617 O679 1.961 . S
Li618 N663 1.990 . S
Li618 O676 1.961 . S
Li618 O678 1.956 . S
Li618 O679 1.970 . S
Li619 N669 1.990 . S
Li619 O677 1.961 . S
Li619 O678 1.970 . S
Li619 O679 1.956 . S
C620 C622 1.348 . S
C620 C623 1.356 . S
C620 O676 1.325 . S
N621 C624 1.314 . S
N621 C625 1.279 . S
C622 C620 1.348 . S
C622 C624 1.353 . S
C622 H680 0.929 . S
C623 C620 1.356 . S
C623 C625 1.358 . S
C623 H681 0.930 . S
C624 N621 1.314 . S
C624 C622 1.353 . S
C624 H682 0.930 . S
C625 N621 1.279 . S
C625 C623 1.358 . S
C625 H683 0.930 . S
C626 C629 1.348 . S
C626 C630 1.356 . S
C626 O677 1.325 . S
C627 N628 1.279 . S
C627 C630 1.358 . S
C627 H684 0.930 . S
N628 C627 1.279 . S
N628 C631 1.314 . S
C629 C626 1.348 . S
C629 C631 1.353 . S
C629 H685 0.929 . S
C630 C626 1.356 . S
C630 C627 1.358 . S
C630 H686 0.930 . S
C631 N628 1.314 . S
C631 C629 1.353 . S
C631 H687 0.930 . S
C632 N633 1.314 . S
C632 C637 1.353 . S
C632 H638 0.930 . S
N633 Li616 1.990 . S
N633 C632 1.314 . S
N633 C635 1.279 . S
C634 C635 1.358 . S
C634 C636 1.356 . S
C634 H688 0.930 . S
C635 N633 1.279 . S
C635 C634 1.358 . S
C635 H639 0.930 . S
C636 C634 1.356 . S
C636 C637 1.348 . S
C637 C632 1.353 . S
C637 C636 1.348 . S
C637 H689 0.929 . S
H638 C632 0.930 . S
H639 C635 0.930 . S
C640 N641 1.314 . S
C640 C642 1.353 . S
C640 H646 0.930 . S
N641 Li617 1.990 . S
N641 C640 1.314 . S
N641 C644 1.279 . S
C642 C640 1.353 . S
C642 C645 1.348 . S
C642 H690 0.929 . S
C643 C644 1.358 . S
C643 C645 1.356 . S
C643 H691 0.930 . S
C644 N641 1.279 . S
C644 C643 1.358 . S
C644 H647 0.930 . S
C645 C642 1.348 . S
C645 C643 1.356 . S
H646 C640 0.930 . S
H647 C644 0.930 . S
C648 C650 1.348 . S
C648 C651 1.356 . S
C648 O678 1.325 . S
N649 C652 1.314 . S
N649 C653 1.279 . S
C650 C648 1.348 . S
C650 C652 1.353 . S
C650 H692 0.929 . S
C651 C648 1.356 . S
C651 C653 1.358 . S
C651 H693 0.930 . S
C652 N649 1.314 . S
C652 C650 1.353 . S
C652 H694 0.930 . S
C653 N649 1.279 . S
C653 C651 1.358 . S
C653 H695 0.930 . S
C654 C655 1.348 . S
C654 C656 1.356 . S
C654 O679 1.325 . S
C655 C654 1.348 . S
C655 C657 1.353 . S
C655 H696 0.929 . S
C656 C654 1.356 . S
C656 C658 1.358 . S
C656 H697 0.930 . S
C657 C655 1.353 . S
C657 N659 1.314 . S
C657 H698 0.930 . S
C658 C656 1.358 . S
C658 N659 1.279 . S
C658 H699 0.930 . S
N659 C657 1.314 . S
N659 C658 1.279 . S
C660 C662 1.353 . S
C660 N663 1.314 . S
C660 H666 0.930 . S
C661 N663 1.279 . S
C661 C664 1.358 . S
C661 H667 0.930 . S
C662 C660 1.353 . S
C662 C665 1.348 . S
C662 H700 0.929 . S
N663 Li618 1.990 . S
N663 C660 1.314 . S
N663 C661 1.279 . S
C664 C661 1.358 . S
C664 C665 1.356 . S
C664 H701 0.930 . S
C665 C662 1.348 . S
C665 C664 1.356 . S
H666 C660 0.930 . S
H667 C661 0.930 . S
C668 N669 1.314 . S
C668 C670 1.353 . S
C668 H674 0.930 . S
N669 Li619 1.990 . S
N669 C668 1.314 . S
N669 C672 1.279 . S
C670 C668 1.353 . S
C670 C673 1.348 . S
C670 H702 0.929 . S
C671 C672 1.358 . S
C671 C673 1.356 . S
C671 H703 0.930 . S
C672 N669 1.279 . S
C672 C671 1.358 . S
C672 H675 0.930 . S
C673 C670 1.348 . S
C673 C671 1.356 . S
H674 C668 0.930 . S
H675 C672 0.930 . S
O676 Li616 1.956 . S
O676 Li617 1.970 . S
O676 Li618 1.961 . S
O676 C620 1.325 . S
O677 Li616 1.970 . S
O677 Li617 1.956 . S
O677 Li619 1.961 . S
O677 C626 1.325 . S
O678 Li616 1.961 . S
O678 Li618 1.956 . S
O678 Li619 1.970 . S
O678 C648 1.325 . S
O679 Li617 1.961 . S
O679 Li618 1.970 . S
O679 Li619 1.956 . S
O679 C654 1.325 . S
H680 C622 0.929 . S
H681 C623 0.930 . S
H682 C624 0.930 . S
H683 C625 0.930 . S
H684 C627 0.930 . S
H685 C629 0.929 . S
H686 C630 0.930 . S
H687 C631 0.930 . S
H688 C634 0.930 . S
H689 C637 0.929 . S
H690 C642 0.929 . S
H691 C643 0.930 . S
H692 C650 0.929 . S
H693 C651 0.930 . S
H694 C652 0.930 . S
H695 C653 0.930 . S
H696 C655 0.929 . S
H697 C656 0.930 . S
H698 C657 0.930 . S
H699 C658 0.930 . S
H700 C662 0.929 . S
H701 C664 0.930 . S
H702 C670 0.929 . S
H703 C671 0.930 . S
C704 C705 1.391 . S
C704 C706 1.394 . S
C704 H720 0.931 . S
C705 C704 1.391 . S
C705 C709 1.376 . S
C706 C704 1.394 . S
C706 C707 1.369 . S
C706 C710 1.531 1_556 S
C707 C706 1.369 . S
C707 C708 1.410 . S
C707 C715 1.503 1_556 S
C708 C707 1.410 . S
C708 C709 1.392 . S
C708 C711 1.511 . S
C709 C705 1.376 . S
C709 C708 1.392 . S
C709 H721 0.929 . S
C710 C706 1.531 1_554 S
C710 H722 0.960 . S
C710 H723 0.962 . S
C710 H724 0.960 . S
C711 C708 1.511 . S
C711 H725 0.961 . S
C711 H726 0.961 . S
C711 H727 0.961 . S
C712 C713 1.370 . S
C712 C714 1.363 . S
C712 H728 0.931 . S
C713 C712 1.370 . S
C713 C717 1.408 . S
C714 C712 1.363 . S
C714 C715 1.370 . S
C714 C718 1.524 1_554 S
C715 C707 1.503 1_554 S
C715 C714 1.370 . S
C715 C716 1.403 . S
C716 C715 1.403 . S
C716 C717 1.404 . S
C716 C719 1.539 . S
C717 C713 1.408 . S
C717 C716 1.404 . S
C717 H729 0.930 . S
C718 C714 1.524 1_556 S
C718 H730 0.956 . S
C718 H731 0.961 . S
C718 H732 0.961 1_556 S
C719 C716 1.539 . S
C719 H733 0.958 . S
C719 H734 0.961 . S
C719 H735 0.960 . S
H720 C704 0.931 . S
H721 C709 0.929 . S
H722 C710 0.960 . S
H723 C710 0.962 . S
H724 C710 0.960 . S
H725 C711 0.961 . S
H726 C711 0.961 . S
H727 C711 0.961 . S
H728 C712 0.931 . S
H729 C717 0.930 . S
H730 C718 0.956 . S
H731 C718 0.961 . S
H732 C718 0.961 1_554 S
H733 C719 0.958 . S
H734 C719 0.961 . S
H735 C719 0.960 . S
C736 C737 1.391 . S
C736 C738 1.394 . S
C736 H752 0.931 . S
C737 C736 1.391 . S
C737 C741 1.376 . S
C738 C736 1.394 . S
C738 C739 1.369 . S
C738 C742 1.531 . S
C739 C738 1.369 . S
C739 C740 1.410 . S
C739 C747 1.503 . S
C740 C739 1.410 . S
C740 C741 1.392 . S
C740 C743 1.511 . S
C741 C737 1.376 . S
C741 C740 1.392 . S
C741 H753 0.929 . S
C742 C738 1.531 . S
C742 H754 0.960 . S
C742 H755 0.962 . S
C742 H756 0.960 . S
C743 C740 1.511 . S
C743 H757 0.961 . S
C743 H758 0.961 . S
C743 H759 0.961 . S
C744 C745 1.370 . S
C744 C746 1.363 . S
C744 H760 0.931 . S
C745 C744 1.370 . S
C745 C749 1.408 . S
C746 C744 1.363 . S
C746 C747 1.370 . S
C746 C750 1.524 . S
C747 C739 1.503 . S
C747 C746 1.370 . S
C747 C748 1.403 . S
C748 C747 1.403 . S
C748 C749 1.404 . S
C748 C751 1.539 . S
C749 C745 1.408 . S
C749 C748 1.404 . S
C749 H761 0.930 . S
C750 C746 1.524 . S
C750 H762 0.956 . S
C750 H763 0.961 . S
C750 H764 0.961 . S
C751 C748 1.539 . S
C751 H765 0.958 . S
C751 H766 0.961 . S
C751 H767 0.960 . S
H752 C736 0.931 . S
H753 C741 0.929 . S
H754 C742 0.960 . S
H755 C742 0.962 . S
H756 C742 0.960 . S
H757 C743 0.961 . S
H758 C743 0.961 . S
H759 C743 0.961 . S
H760 C744 0.931 . S
H761 C749 0.930 . S
H762 C750 0.956 . S
H763 C750 0.961 . S
H764 C750 0.961 . S
H765 C751 0.958 . S
H766 C751 0.961 . S
H767 C751 0.960 . S
C768 C769 1.391 . S
C768 C770 1.394 . S
C768 H784 0.931 . S
C769 C768 1.391 . S
C769 C773 1.376 . S
C770 C768 1.394 . S
C770 C771 1.369 . S
C770 C774 1.531 . S
C771 C770 1.369 . S
C771 C772 1.410 . S
C771 C779 1.503 . S
C772 C771 1.410 . S
C772 C773 1.392 . S
C772 C775 1.511 . S
C773 C769 1.376 . S
C773 C772 1.392 . S
C773 H785 0.929 . S
C774 C770 1.531 . S
C774 H786 0.960 . S
C774 H787 0.962 . S
C774 H788 0.960 . S
C775 C772 1.511 . S
C775 H789 0.961 . S
C775 H790 0.961 . S
C775 H791 0.961 . S
C776 C777 1.370 . S
C776 C778 1.363 . S
C776 H792 0.931 . S
C777 C776 1.370 . S
C777 C781 1.408 . S
C778 C776 1.363 . S
C778 C779 1.370 . S
C778 C782 1.524 . S
C779 C771 1.503 . S
C779 C778 1.370 . S
C779 C780 1.403 . S
C780 C779 1.403 . S
C780 C781 1.404 . S
C780 C783 1.539 . S
C781 C777 1.408 . S
C781 C780 1.404 . S
C781 H793 0.930 . S
C782 C778 1.524 . S
C782 H794 0.956 . S
C782 H795 0.961 . S
C782 H796 0.961 . S
C783 C780 1.539 . S
C783 H797 0.958 . S
C783 H798 0.961 . S
C783 H799 0.960 . S
H784 C768 0.931 . S
H785 C773 0.929 . S
H786 C774 0.960 . S
H787 C774 0.962 . S
H788 C774 0.960 . S
H789 C775 0.961 . S
H790 C775 0.961 . S
H791 C775 0.961 . S
H792 C776 0.931 . S
H793 C781 0.930 . S
H794 C782 0.956 . S
H795 C782 0.961 . S
H796 C782 0.961 . S
H797 C783 0.958 . S
H798 C783 0.961 . S
H799 C783 0.960 . S
C800 C801 1.391 . S
C800 C802 1.394 . S
C800 H816 0.931 . S
C801 C800 1.391 . S
C801 C805 1.376 . S
C802 C800 1.394 . S
C802 C803 1.369 . S
C802 C806 1.531 . S
C803 C802 1.369 . S
C803 C804 1.410 . S
C803 C811 1.503 . S
C804 C803 1.410 . S
C804 C805 1.392 . S
C804 C807 1.511 . S
C805 C801 1.376 . S
C805 C804 1.392 . S
C805 H817 0.929 . S
C806 C802 1.531 . S
C806 H818 0.960 . S
C806 H819 0.962 . S
C806 H820 0.960 . S
C807 C804 1.511 . S
C807 H821 0.961 . S
C807 H822 0.961 . S
C807 H823 0.961 . S
C808 C809 1.370 . S
C808 C810 1.363 . S
C808 H824 0.931 . S
C809 C808 1.370 . S
C809 C813 1.408 . S
C810 C808 1.363 . S
C810 C811 1.370 . S
C810 C814 1.524 . S
C811 C803 1.503 . S
C811 C810 1.370 . S
C811 C812 1.403 . S
C812 C811 1.403 . S
C812 C813 1.404 . S
C812 C815 1.539 . S
C813 C809 1.408 . S
C813 C812 1.404 . S
C813 H825 0.930 . S
C814 C810 1.524 . S
C814 H826 0.956 . S
C814 H827 0.961 . S
C814 H828 0.961 . S
C815 C812 1.539 . S
C815 H829 0.958 . S
C815 H830 0.961 . S
C815 H831 0.960 . S
H816 C800 0.931 . S
H817 C805 0.929 . S
H818 C806 0.960 . S
H819 C806 0.962 . S
H820 C806 0.960 . S
H821 C807 0.961 . S
H822 C807 0.961 . S
H823 C807 0.961 . S
H824 C808 0.931 . S
H825 C813 0.930 . S
H826 C814 0.956 . S
H827 C814 0.961 . S
H828 C814 0.961 . S
H829 C815 0.958 . S
H830 C815 0.961 . S
H831 C815 0.960 . S
C832 C833 1.391 . S
C832 C834 1.394 . S
C832 H848 0.931 . S
C833 C832 1.391 . S
C833 C837 1.376 . S
C834 C832 1.394 . S
C834 C835 1.369 . S
C834 C838 1.531 . S
C835 C834 1.369 . S
C835 C836 1.410 . S
C835 C843 1.503 . S
C836 C835 1.410 . S
C836 C837 1.392 . S
C836 C839 1.511 . S
C837 C833 1.376 . S
C837 C836 1.392 . S
C837 H849 0.929 . S
C838 C834 1.531 . S
C838 H850 0.960 . S
C838 H851 0.962 . S
C838 H852 0.960 . S
C839 C836 1.511 . S
C839 H853 0.961 . S
C839 H854 0.961 . S
C839 H855 0.961 . S
C840 C841 1.370 . S
C840 C842 1.363 . S
C840 H856 0.931 . S
C841 C840 1.370 . S
C841 C845 1.408 . S
C842 C840 1.363 . S
C842 C843 1.370 . S
C842 C846 1.524 . S
C843 C835 1.503 . S
C843 C842 1.370 . S
C843 C844 1.403 . S
C844 C843 1.403 . S
C844 C845 1.404 . S
C844 C847 1.539 . S
C845 C841 1.408 . S
C845 C844 1.404 . S
C845 H857 0.930 . S
C846 C842 1.524 . S
C846 H858 0.956 . S
C846 H859 0.961 . S
C846 H860 0.961 . S
C847 C844 1.539 . S
C847 H861 0.958 . S
C847 H862 0.961 . S
C847 H863 0.960 . S
H848 C832 0.931 . S
H849 C837 0.929 . S
H850 C838 0.960 . S
H851 C838 0.962 . S
H852 C838 0.960 . S
H853 C839 0.961 . S
H854 C839 0.961 . S
H855 C839 0.961 . S
H856 C840 0.931 . S
H857 C845 0.930 . S
H858 C846 0.956 . S
H859 C846 0.961 . S
H860 C846 0.961 . S
H861 C847 0.958 . S
H862 C847 0.961 . S
H863 C847 0.960 . S
C864 C865 1.391 . S
C864 C866 1.394 . S
C864 H880 0.931 . S
C865 C864 1.391 . S
C865 C869 1.376 . S
C866 C864 1.394 . S
C866 C867 1.369 . S
C866 C870 1.531 . S
C867 C866 1.369 . S
C867 C868 1.410 . S
C867 C875 1.503 . S
C868 C867 1.410 . S
C868 C869 1.392 . S
C868 C871 1.511 . S
C869 C865 1.376 . S
C869 C868 1.392 . S
C869 H881 0.929 . S
C870 C866 1.531 . S
C870 H882 0.960 . S
C870 H883 0.962 . S
C870 H884 0.960 . S
C871 C868 1.511 . S
C871 H885 0.961 . S
C871 H886 0.961 . S
C871 H887 0.961 . S
C872 C873 1.370 . S
C872 C874 1.363 . S
C872 H888 0.931 . S
C873 C872 1.370 . S
C873 C877 1.408 . S
C874 C872 1.363 . S
C874 C875 1.370 . S
C874 C878 1.524 . S
C875 C867 1.503 . S
C875 C874 1.370 . S
C875 C876 1.403 . S
C876 C875 1.403 . S
C876 C877 1.404 . S
C876 C879 1.539 . S
C877 C873 1.408 . S
C877 C876 1.404 . S
C877 H889 0.930 . S
C878 C874 1.524 . S
C878 H890 0.956 . S
C878 H891 0.961 . S
C878 H892 0.961 . S
C879 C876 1.539 . S
C879 H893 0.958 . S
C879 H894 0.961 . S
C879 H895 0.960 . S
H880 C864 0.931 . S
H881 C869 0.929 . S
H882 C870 0.960 . S
H883 C870 0.962 . S
H884 C870 0.960 . S
H885 C871 0.961 . S
H886 C871 0.961 . S
H887 C871 0.961 . S
H888 C872 0.931 . S
H889 C877 0.930 . S
H890 C878 0.956 . S
H891 C878 0.961 . S
H892 C878 0.961 . S
H893 C879 0.958 . S
H894 C879 0.961 . S
H895 C879 0.960 . S
C896 C897 1.391 . S
C896 C898 1.394 . S
C896 H912 0.931 . S
C897 C896 1.391 . S
C897 C901 1.376 . S
C898 C896 1.394 . S
C898 C899 1.369 . S
C898 C902 1.531 . S
C899 C898 1.369 . S
C899 C900 1.410 . S
C899 C907 1.503 1_554 S
C900 C899 1.410 . S
C900 C901 1.392 . S
C900 C903 1.511 . S
C901 C897 1.376 . S
C901 C900 1.392 . S
C901 H913 0.929 . S
C902 C898 1.531 . S
C902 H914 0.960 . S
C902 H915 0.962 1_554 S
C902 H916 0.960 . S
C903 C900 1.511 . S
C903 H917 0.961 . S
C903 H918 0.961 . S
C903 H919 0.961 . S
C904 C905 1.370 . S
C904 C906 1.363 . S
C904 H920 0.931 . S
C905 C904 1.370 . S
C905 C909 1.408 . S
C906 C904 1.363 . S
C906 C907 1.370 . S
C906 C910 1.524 . S
C907 C899 1.503 1_556 S
C907 C906 1.370 . S
C907 C908 1.403 . S
C908 C907 1.403 . S
C908 C909 1.404 . S
C908 C911 1.539 1_556 S
C909 C905 1.408 . S
C909 C908 1.404 . S
C909 H921 0.930 . S
C910 C906 1.524 . S
C910 H922 0.956 . S
C910 H923 0.961 . S
C910 H924 0.961 . S
C911 C908 1.539 1_554 S
C911 H925 0.958 . S
C911 H926 0.961 . S
C911 H927 0.960 . S
H912 C896 0.931 . S
H913 C901 0.929 . S
H914 C902 0.960 . S
H915 C902 0.962 1_556 S
H916 C902 0.960 . S
H917 C903 0.961 . S
H918 C903 0.961 . S
H919 C903 0.961 . S
H920 C904 0.931 . S
H921 C909 0.930 . S
H922 C910 0.956 . S
H923 C910 0.961 . S
H924 C910 0.961 . S
H925 C911 0.958 . S
H926 C911 0.961 . S
H927 C911 0.960 . S
C928 C929 1.391 . S
C928 C930 1.394 . S
C928 H944 0.931 . S
C929 C928 1.391 . S
C929 C933 1.376 . S
C930 C928 1.394 . S
C930 C931 1.369 . S
C930 C934 1.531 . S
C931 C930 1.369 . S
C931 C932 1.410 . S
C931 C939 1.503 . S
C932 C931 1.410 . S
C932 C933 1.392 . S
C932 C935 1.511 . S
C933 C929 1.376 . S
C933 C932 1.392 . S
C933 H945 0.929 . S
C934 C930 1.531 . S
C934 H946 0.960 . S
C934 H947 0.962 . S
C934 H948 0.960 . S
C935 C932 1.511 . S
C935 H949 0.961 . S
C935 H950 0.961 . S
C935 H951 0.961 . S
C936 C937 1.370 . S
C936 C938 1.363 . S
C936 H952 0.931 . S
C937 C936 1.370 . S
C937 C941 1.408 . S
C938 C936 1.363 . S
C938 C939 1.370 . S
C938 C942 1.524 . S
C939 C931 1.503 . S
C939 C938 1.370 . S
C939 C940 1.403 . S
C940 C939 1.403 . S
C940 C941 1.404 . S
C940 C943 1.539 . S
C941 C937 1.408 . S
C941 C940 1.404 . S
C941 H953 0.930 . S
C942 C938 1.524 . S
C942 H954 0.956 . S
C942 H955 0.961 . S
C942 H956 0.961 . S
C943 C940 1.539 . S
C943 H957 0.958 . S
C943 H958 0.961 . S
C943 H959 0.960 . S
H944 C928 0.931 . S
H945 C933 0.929 . S
H946 C934 0.960 . S
H947 C934 0.962 . S
H948 C934 0.960 . S
H949 C935 0.961 . S
H950 C935 0.961 . S
H951 C935 0.961 . S
H952 C936 0.931 . S
H953 C941 0.930 . S
H954 C942 0.956 . S
H955 C942 0.961 . S
H956 C942 0.961 . S
H957 C943 0.958 . S
H958 C943 0.961 . S
H959 C943 0.960 . S
C960 C961 1.391 . S
C960 C962 1.394 . S
C960 H976 0.931 . S
C961 C960 1.391 . S
C961 C965 1.376 . S
C962 C960 1.394 . S
C962 C963 1.369 . S
C962 C966 1.531 . S
C963 C962 1.369 . S
C963 C964 1.410 . S
C963 C971 1.503 . S
C964 C963 1.410 . S
C964 C965 1.392 . S
C964 C967 1.511 . S
C965 C961 1.376 . S
C965 C964 1.392 . S
C965 H977 0.929 . S
C966 C962 1.531 . S
C966 H978 0.960 . S
C966 H979 0.962 . S
C966 H980 0.960 . S
C967 C964 1.511 . S
C967 H981 0.961 . S
C967 H982 0.961 . S
C967 H983 0.961 . S
C968 C969 1.370 . S
C968 C970 1.363 . S
C968 H984 0.931 . S
C969 C968 1.370 . S
C969 C973 1.408 . S
C970 C968 1.363 . S
C970 C971 1.370 . S
C970 C974 1.524 . S
C971 C963 1.503 . S
C971 C970 1.370 . S
C971 C972 1.403 . S
C972 C971 1.403 . S
C972 C973 1.404 . S
C972 C975 1.539 . S
C973 C969 1.408 . S
C973 C972 1.404 . S
C973 H985 0.930 . S
C974 C970 1.524 . S
C974 H986 0.956 . S
C974 H987 0.961 . S
C974 H988 0.961 . S
C975 C972 1.539 . S
C975 H989 0.958 . S
C975 H990 0.961 . S
C975 H991 0.960 . S
H976 C960 0.931 . S
H977 C965 0.929 . S
H978 C966 0.960 . S
H979 C966 0.962 . S
H980 C966 0.960 . S
H981 C967 0.961 . S
H982 C967 0.961 . S
H983 C967 0.961 . S
H984 C968 0.931 . S
H985 C973 0.930 . S
H986 C974 0.956 . S
H987 C974 0.961 . S
H988 C974 0.961 . S
H989 C975 0.958 . S
H990 C975 0.961 . S
H991 C975 0.960 . S
C992 C993 1.391 . S
C992 C994 1.394 . S
C992 H1008 0.931 . S
C993 C992 1.391 . S
C993 C997 1.376 . S
C994 C992 1.394 . S
C994 C995 1.369 . S
C994 C998 1.531 . S
C995 C994 1.369 . S
C995 C996 1.410 . S
C995 C1003 1.503 . S
C996 C995 1.410 . S
C996 C997 1.392 . S
C996 C999 1.511 . S
C997 C993 1.376 . S
C997 C996 1.392 . S
C997 H1009 0.929 . S
C998 C994 1.531 . S
C998 H1010 0.960 . S
C998 H1011 0.962 . S
C998 H1012 0.960 . S
C999 C996 1.511 . S
C999 H1013 0.961 . S
C999 H1014 0.961 . S
C999 H1015 0.961 . S
C1000 C1001 1.370 . S
C1000 C1002 1.363 . S
C1000 H1016 0.931 . S
C1001 C1000 1.370 . S
C1001 C1005 1.408 . S
C1002 C1000 1.363 . S
C1002 C1003 1.370 . S
C1002 C1006 1.524 . S
C1003 C995 1.503 . S
C1003 C1002 1.370 . S
C1003 C1004 1.403 . S
C1004 C1003 1.403 . S
C1004 C1005 1.404 . S
C1004 C1007 1.539 . S
C1005 C1001 1.408 . S
C1005 C1004 1.404 . S
C1005 H1017 0.930 . S
C1006 C1002 1.524 . S
C1006 H1018 0.956 . S
C1006 H1019 0.961 . S
C1006 H1020 0.961 . S
C1007 C1004 1.539 . S
C1007 H1021 0.958 . S
C1007 H1022 0.961 . S
C1007 H1023 0.960 . S
H1008 C992 0.931 . S
H1009 C997 0.929 . S
H1010 C998 0.960 . S
H1011 C998 0.962 . S
H1012 C998 0.960 . S
H1013 C999 0.961 . S
H1014 C999 0.961 . S
H1015 C999 0.961 . S
H1016 C1000 0.931 . S
H1017 C1005 0.930 . S
H1018 C1006 0.956 . S
H1019 C1006 0.961 . S
H1020 C1006 0.961 . S
H1021 C1007 0.958 . S
H1022 C1007 0.961 . S
H1023 C1007 0.960 . S
C1024 C1025 1.391 . S
C1024 C1026 1.394 . S
C1024 H1040 0.931 . S
C1025 C1024 1.391 . S
C1025 C1029 1.376 1_554 S
C1026 C1024 1.394 . S
C1026 C1027 1.369 1_554 S
C1026 C1030 1.531 . S
C1027 C1026 1.369 1_556 S
C1027 C1028 1.410 . S
C1027 C1035 1.503 . S
C1028 C1027 1.410 . S
C1028 C1029 1.392 . S
C1028 C1031 1.511 . S
C1029 C1025 1.376 1_556 S
C1029 C1028 1.392 . S
C1029 H1041 0.929 . S
C1030 C1026 1.531 . S
C1030 H1042 0.960 1_554 S
C1030 H1043 0.962 . S
C1030 H1044 0.960 . S
C1031 C1028 1.511 . S
C1031 H1045 0.961 . S
C1031 H1046 0.961 . S
C1031 H1047 0.961 . S
C1032 C1033 1.370 1_554 S
C1032 C1034 1.363 . S
C1032 H1048 0.931 . S
C1033 C1032 1.370 1_556 S
C1033 C1037 1.408 . S
C1034 C1032 1.363 . S
C1034 C1035 1.370 1_554 S
C1034 C1038 1.524 . S
C1035 C1027 1.503 . S
C1035 C1034 1.370 1_556 S
C1035 C1036 1.403 . S
C1036 C1035 1.403 . S
C1036 C1037 1.404 . S
C1036 C1039 1.539 . S
C1037 C1033 1.408 . S
C1037 C1036 1.404 . S
C1037 H1049 0.930 . S
C1038 C1034 1.524 . S
C1038 H1050 0.956 . S
C1038 H1051 0.961 . S
C1038 H1052 0.961 . S
C1039 C1036 1.539 . S
C1039 H1053 0.958 . S
C1039 H1054 0.961 . S
C1039 H1055 0.960 . S
H1040 C1024 0.931 . S
H1041 C1029 0.929 . S
H1042 C1030 0.960 1_556 S
H1043 C1030 0.962 . S
H1044 C1030 0.960 . S
H1045 C1031 0.961 . S
H1046 C1031 0.961 . S
H1047 C1031 0.961 . S
H1048 C1032 0.931 . S
H1049 C1037 0.930 . S
H1050 C1038 0.956 . S
H1051 C1038 0.961 . S
H1052 C1038 0.961 . S
H1053 C1039 0.958 . S
H1054 C1039 0.961 . S
H1055 C1039 0.960 . S
C1056 C1057 1.391 . S
C1056 C1058 1.394 . S
C1056 H1072 0.931 . S
C1057 C1056 1.391 . S
C1057 C1061 1.376 . S
C1058 C1056 1.394 . S
C1058 C1059 1.369 . S
C1058 C1062 1.531 . S
C1059 C1058 1.369 . S
C1059 C1060 1.410 . S
C1059 C1067 1.503 . S
C1060 C1059 1.410 . S
C1060 C1061 1.392 . S
C1060 C1063 1.511 . S
C1061 C1057 1.376 . S
C1061 C1060 1.392 . S
C1061 H1073 0.929 . S
C1062 C1058 1.531 . S
C1062 H1074 0.960 . S
C1062 H1075 0.962 . S
C1062 H1076 0.960 . S
C1063 C1060 1.511 . S
C1063 H1077 0.961 . S
C1063 H1078 0.961 . S
C1063 H1079 0.961 . S
C1064 C1065 1.370 . S
C1064 C1066 1.363 . S
C1064 H1080 0.931 . S
C1065 C1064 1.370 . S
C1065 C1069 1.408 . S
C1066 C1064 1.363 . S
C1066 C1067 1.370 . S
C1066 C1070 1.524 . S
C1067 C1059 1.503 . S
C1067 C1066 1.370 . S
C1067 C1068 1.403 . S
C1068 C1067 1.403 . S
C1068 C1069 1.404 . S
C1068 C1071 1.539 . S
C1069 C1065 1.408 . S
C1069 C1068 1.404 . S
C1069 H1081 0.930 . S
C1070 C1066 1.524 . S
C1070 H1082 0.956 . S
C1070 H1083 0.961 . S
C1070 H1084 0.961 . S
C1071 C1068 1.539 . S
C1071 H1085 0.958 . S
C1071 H1086 0.961 . S
C1071 H1087 0.960 . S
H1072 C1056 0.931 . S
H1073 C1061 0.929 . S
H1074 C1062 0.960 . S
H1075 C1062 0.962 . S
H1076 C1062 0.960 . S
H1077 C1063 0.961 . S
H1078 C1063 0.961 . S
H1079 C1063 0.961 . S
H1080 C1064 0.931 . S
H1081 C1069 0.930 . S
H1082 C1070 0.956 . S
H1083 C1070 0.961 . S
H1084 C1070 0.961 . S
H1085 C1071 0.958 . S
H1086 C1071 0.961 . S
H1087 C1071 0.960 . S
C1088 C1089 1.391 . S
C1088 C1090 1.394 . S
C1088 H1104 0.931 . S
C1089 C1088 1.391 . S
C1089 C1093 1.376 . S
C1090 C1088 1.394 . S
C1090 C1091 1.369 . S
C1090 C1094 1.531 . S
C1091 C1090 1.369 . S
C1091 C1092 1.410 . S
C1091 C1099 1.503 . S
C1092 C1091 1.410 . S
C1092 C1093 1.392 . S
C1092 C1095 1.511 . S
C1093 C1089 1.376 . S
C1093 C1092 1.392 . S
C1093 H1105 0.929 . S
C1094 C1090 1.531 . S
C1094 H1106 0.960 . S
C1094 H1107 0.962 . S
C1094 H1108 0.960 . S
C1095 C1092 1.511 . S
C1095 H1109 0.961 . S
C1095 H1110 0.961 . S
C1095 H1111 0.961 . S
C1096 C1097 1.370 . S
C1096 C1098 1.363 . S
C1096 H1112 0.931 . S
C1097 C1096 1.370 . S
C1097 C1101 1.408 . S
C1098 C1096 1.363 . S
C1098 C1099 1.370 . S
C1098 C1102 1.524 . S
C1099 C1091 1.503 . S
C1099 C1098 1.370 . S
C1099 C1100 1.403 . S
C1100 C1099 1.403 . S
C1100 C1101 1.404 . S
C1100 C1103 1.539 . S
C1101 C1097 1.408 . S
C1101 C1100 1.404 . S
C1101 H1113 0.930 . S
C1102 C1098 1.524 . S
C1102 H1114 0.956 . S
C1102 H1115 0.961 . S
C1102 H1116 0.961 . S
C1103 C1100 1.539 . S
C1103 H1117 0.958 . S
C1103 H1118 0.961 . S
C1103 H1119 0.960 . S
H1104 C1088 0.931 . S
H1105 C1093 0.929 . S
H1106 C1094 0.960 . S
H1107 C1094 0.962 . S
H1108 C1094 0.960 . S
H1109 C1095 0.961 . S
H1110 C1095 0.961 . S
H1111 C1095 0.961 . S
H1112 C1096 0.931 . S
H1113 C1101 0.930 . S
H1114 C1102 0.956 . S
H1115 C1102 0.961 . S
H1116 C1102 0.961 . S
H1117 C1103 0.958 . S
H1118 C1103 0.961 . S
H1119 C1103 0.960 . S
C1120 C1121 1.391 . S
C1120 C1122 1.394 . S
C1120 H1136 0.931 . S
C1121 C1120 1.391 . S
C1121 C1125 1.376 1_556 S
C1122 C1120 1.394 . S
C1122 C1123 1.369 1_556 S
C1122 C1126 1.531 . S
C1123 C1122 1.369 1_554 S
C1123 C1124 1.410 . S
C1123 C1131 1.503 . S
C1124 C1123 1.410 . S
C1124 C1125 1.392 . S
C1124 C1127 1.511 . S
C1125 C1121 1.376 1_554 S
C1125 C1124 1.392 . S
C1125 H1137 0.929 . S
C1126 C1122 1.531 . S
C1126 H1138 0.960 . S
C1126 H1139 0.962 . S
C1126 H1140 0.960 . S
C1127 C1124 1.511 . S
C1127 H1141 0.961 . S
C1127 H1142 0.961 . S
C1127 H1143 0.961 . S
C1128 C1129 1.370 1_556 S
C1128 C1130 1.363 . S
C1128 H1144 0.931 . S
C1129 C1128 1.370 1_554 S
C1129 C1133 1.408 . S
C1130 C1128 1.363 . S
C1130 C1131 1.370 1_556 S
C1130 C1134 1.524 . S
C1131 C1123 1.503 . S
C1131 C1130 1.370 1_554 S
C1131 C1132 1.403 . S
C1132 C1131 1.403 . S
C1132 C1133 1.404 . S
C1132 C1135 1.539 . S
C1133 C1129 1.408 . S
C1133 C1132 1.404 . S
C1133 H1145 0.930 . S
C1134 C1130 1.524 . S
C1134 H1146 0.956 . S
C1134 H1147 0.961 . S
C1134 H1148 0.961 . S
C1135 C1132 1.539 . S
C1135 H1149 0.958 . S
C1135 H1150 0.961 . S
C1135 H1151 0.960 . S
H1136 C1120 0.931 . S
H1137 C1125 0.929 . S
H1138 C1126 0.960 . S
H1139 C1126 0.962 . S
H1140 C1126 0.960 . S
H1141 C1127 0.961 . S
H1142 C1127 0.961 . S
H1143 C1127 0.961 . S
H1144 C1128 0.931 . S
H1145 C1133 0.930 . S
H1146 C1134 0.956 . S
H1147 C1134 0.961 . S
H1148 C1134 0.961 . S
H1149 C1135 0.958 . S
H1150 C1135 0.961 . S
H1151 C1135 0.960 . S
C1152 C1153 1.391 . S
C1152 C1154 1.394 . S
C1152 H1168 0.931 . S
C1153 C1152 1.391 . S
C1153 C1157 1.376 . S
C1154 C1152 1.394 . S
C1154 C1155 1.369 . S
C1154 C1158 1.531 . S
C1155 C1154 1.369 . S
C1155 C1156 1.410 . S
C1155 C1163 1.503 . S
C1156 C1155 1.410 . S
C1156 C1157 1.392 . S
C1156 C1159 1.511 . S
C1157 C1153 1.376 . S
C1157 C1156 1.392 . S
C1157 H1169 0.929 . S
C1158 C1154 1.531 . S
C1158 H1170 0.960 . S
C1158 H1171 0.962 . S
C1158 H1172 0.960 . S
C1159 C1156 1.511 . S
C1159 H1173 0.961 . S
C1159 H1174 0.961 . S
C1159 H1175 0.961 . S
C1160 C1161 1.370 . S
C1160 C1162 1.363 . S
C1160 H1176 0.931 . S
C1161 C1160 1.370 . S
C1161 C1165 1.408 . S
C1162 C1160 1.363 . S
C1162 C1163 1.370 . S
C1162 C1166 1.524 . S
C1163 C1155 1.503 . S
C1163 C1162 1.370 . S
C1163 C1164 1.403 . S
C1164 C1163 1.403 . S
C1164 C1165 1.404 . S
C1164 C1167 1.539 . S
C1165 C1161 1.408 . S
C1165 C1164 1.404 . S
C1165 H1177 0.930 . S
C1166 C1162 1.524 . S
C1166 H1178 0.956 . S
C1166 H1179 0.961 . S
C1166 H1180 0.961 . S
C1167 C1164 1.539 . S
C1167 H1181 0.958 . S
C1167 H1182 0.961 . S
C1167 H1183 0.960 . S
H1168 C1152 0.931 . S
H1169 C1157 0.929 . S
H1170 C1158 0.960 . S
H1171 C1158 0.962 . S
H1172 C1158 0.960 . S
H1173 C1159 0.961 . S
H1174 C1159 0.961 . S
H1175 C1159 0.961 . S
H1176 C1160 0.931 . S
H1177 C1165 0.930 . S
H1178 C1166 0.956 . S
H1179 C1166 0.961 . S
H1180 C1166 0.961 . S
H1181 C1167 0.958 . S
H1182 C1167 0.961 . S
H1183 C1167 0.960 . S
C1184 C1185 1.391 . S
C1184 C1186 1.394 . S
C1184 H1200 0.931 . S
C1185 C1184 1.391 . S
C1185 C1189 1.376 . S
C1186 C1184 1.394 . S
C1186 C1187 1.369 . S
C1186 C1190 1.531 . S
C1187 C1186 1.369 . S
C1187 C1188 1.410 . S
C1187 C1195 1.503 . S
C1188 C1187 1.410 . S
C1188 C1189 1.392 . S
C1188 C1191 1.511 . S
C1189 C1185 1.376 . S
C1189 C1188 1.392 . S
C1189 H1201 0.929 . S
C1190 C1186 1.531 . S
C1190 H1202 0.960 . S
C1190 H1203 0.962 . S
C1190 H1204 0.960 . S
C1191 C1188 1.511 . S
C1191 H1205 0.961 . S
C1191 H1206 0.961 . S
C1191 H1207 0.961 . S
C1192 C1193 1.370 . S
C1192 C1194 1.363 . S
C1192 H1208 0.931 . S
C1193 C1192 1.370 . S
C1193 C1197 1.408 . S
C1194 C1192 1.363 . S
C1194 C1195 1.370 . S
C1194 C1198 1.524 . S
C1195 C1187 1.503 . S
C1195 C1194 1.370 . S
C1195 C1196 1.403 . S
C1196 C1195 1.403 . S
C1196 C1197 1.404 . S
C1196 C1199 1.539 . S
C1197 C1193 1.408 . S
C1197 C1196 1.404 . S
C1197 H1209 0.930 . S
C1198 C1194 1.524 . S
C1198 H1210 0.956 . S
C1198 H1211 0.961 . S
C1198 H1212 0.961 . S
C1199 C1196 1.539 . S
C1199 H1213 0.958 . S
C1199 H1214 0.961 . S
C1199 H1215 0.960 . S
H1200 C1184 0.931 . S
H1201 C1189 0.929 . S
H1202 C1190 0.960 . S
H1203 C1190 0.962 . S
H1204 C1190 0.960 . S
H1205 C1191 0.961 . S
H1206 C1191 0.961 . S
H1207 C1191 0.961 . S
H1208 C1192 0.931 . S
H1209 C1197 0.930 . S
H1210 C1198 0.956 . S
H1211 C1198 0.961 . S
H1212 C1198 0.961 . S
H1213 C1199 0.958 . S
H1214 C1199 0.961 . S
H1215 C1199 0.960 . S
C705 C108 1.357 . S
C713 C57 1.362 . S
C737 C145 1.363 . S
C745 C205 1.351 . S
C769 C293 1.366 . S
C777 C225 1.358 . S
C801 C313 1.342 . S
C809 C20 1.352 . S
C833 C409 1.368 . S
C841 C460 1.354 . S
C865 C497 1.366 . S
C873 C557 1.359 . S
C897 C577 1.365 . S
C905 C645 1.351 . S
C929 C372 1.341 . S
C937 C665 1.352 . S
C961 C49 1.500 . S
C969 C636 1.523 . S
C993 C381 1.522 . S
C1001 C137 1.512 . S
C1025 C469 1.528 . S
C1033 C233 1.513 . S
C1057 C321 1.500 . S
C1065 C548 1.523 . S
C1089 C196 1.500 . S
C1097 C673 1.523 . S
C1121 C401 1.528 . S
C1129 C284 1.513 . S
C1153 C489 1.524 . S
C1161 C29 1.512 . S
C1185 C117 1.501 . S
C1193 C585 1.521 . S
