# Generated by pormake.
# Topology msp, (4)-cn, num edge types: 1
# Building blocks:
#     Node 0, Type 0, BuildingBlock: QUQFOY_clean_sbu_1, # of connection points: 4
#     Node 1, Type 0, BuildingBlock: QUQFOY_clean_sbu_1, # of connection points: 4
#     Node 2, Type 0, BuildingBlock: QUQFOY_clean_sbu_1, # of connection points: 4
#     Node 3, Type 0, BuildingBlock: QUQFOY_clean_sbu_1, # of connection points: 4
#     Node 4, Type 0, BuildingBlock: QUQFOY_clean_sbu_1, # of connection points: 4
#     Node 5, Type 0, BuildingBlock: QUQFOY_clean_sbu_1, # of connection points: 4
#     Node 6, Type 0, BuildingBlock: QUQFOY_clean_sbu_1, # of connection points: 4
#     Node 7, Type 0, BuildingBlock: QUQFOY_clean_sbu_1, # of connection points: 4
#     Edge 8, Type (0, 0), BuildingBlock: ZUJKAS_clean_linker_0, # of connection points: 2
#     Edge 9, Type (0, 0), BuildingBlock: ZUJKAS_clean_linker_0, # of connection points: 2
#     Edge 10, Type (0, 0), BuildingBlock: ZUJKAS_clean_linker_0, # of connection points: 2
#     Edge 11, Type (0, 0), BuildingBlock: ZUJKAS_clean_linker_0, # of connection points: 2
#     Edge 12, Type (0, 0), BuildingBlock: ZUJKAS_clean_linker_0, # of connection points: 2
#     Edge 13, Type (0, 0), BuildingBlock: ZUJKAS_clean_linker_0, # of connection points: 2
#     Edge 14, Type (0, 0), BuildingBlock: ZUJKAS_clean_linker_0, # of connection points: 2
#     Edge 15, Type (0, 0), BuildingBlock: ZUJKAS_clean_linker_0, # of connection points: 2
#     Edge 16, Type (0, 0), BuildingBlock: ZUJKAS_clean_linker_0, # of connection points: 2
#     Edge 17, Type (0, 0), BuildingBlock: ZUJKAS_clean_linker_0, # of connection points: 2
#     Edge 18, Type (0, 0), BuildingBlock: ZUJKAS_clean_linker_0, # of connection points: 2
#     Edge 19, Type (0, 0), BuildingBlock: ZUJKAS_clean_linker_0, # of connection points: 2
#     Edge 20, Type (0, 0), BuildingBlock: ZUJKAS_clean_linker_0, # of connection points: 2
#     Edge 21, Type (0, 0), BuildingBlock: ZUJKAS_clean_linker_0, # of connection points: 2
#     Edge 22, Type (0, 0), BuildingBlock: ZUJKAS_clean_linker_0, # of connection points: 2
#     Edge 23, Type (0, 0), BuildingBlock: ZUJKAS_clean_linker_0, # of connection points: 2
# Relax obj value: 0.072
# Max RMSD: 0.126
# Mean RMSD: 0.126
data_MOF--net-msp--node1-QUQFOY_clean_sbu_1--edge1-ZUJKAS_clean_linker_0
_symmetry_space_group_name_H-M    P1
_symmetry_Int_Tables_number       1
_symmetry_cell_setting            triclinic
loop_
_symmetry_equiv_pos_as_xyz
'x, y, z'
_cell_length_a     30.821443
_cell_length_b     48.134858
_cell_length_c     44.401416
_cell_angle_alpha  90.0045
_cell_angle_beta   93.929801
_cell_angle_gamma 89.961969
loop_
_atom_site_label
_atom_site_type_symbol
_atom_site_fract_x
_atom_site_fract_y
_atom_site_fract_z
_atom_type_partial_charge
O0 O 0.05655 0.31033 0.33694 0.0
Cd1 Cd 0.00892 0.3029 0.36578 0.0
Cd2 Cd 0.05663 0.34686 0.39753 0.0
O3 O 0.09621 0.34239 0.36157 0.0
O4 O 0.97247 0.27539 0.34195 0.0
O5 O 0.94724 0.31608 0.35539 0.0
C6 C 0.94087 0.29288 0.34119 0.0
C7 C 0.04717 0.39067 0.41995 0.0
C8 C 0.08986 0.3259 0.33925 0.0
C9 C 0.05112 0.28952 0.42659 0.0
O10 O 0.06175 0.31498 0.42851 0.0
O11 O 0.02996 0.28012 0.40326 0.0
O12 O 0.08354 0.37751 0.423 0.0
O13 O 0.01623 0.3797 0.40285 0.0
O14 O 0.44438 0.30465 0.66495 0.0
Cd15 Cd 0.48776 0.29897 0.63267 0.0
Cd16 Cd 0.44193 0.34578 0.60862 0.0
O17 O 0.40885 0.34189 0.64775 0.0
O18 O 0.527 0.27031 0.65218 0.0
O19 O 0.54977 0.31218 0.64066 0.0
C20 C 0.55798 0.28824 0.65291 0.0
C21 C 0.45706 0.38961 0.58808 0.0
C22 C 0.41458 0.32258 0.66724 0.0
C23 C 0.43507 0.29064 0.5747 0.0
O24 O 0.42519 0.31619 0.57649 0.0
O25 O 0.46107 0.27933 0.59449 0.0
O26 O 0.41792 0.38045 0.58883 0.0
O27 O 0.48797 0.37442 0.60038 0.0
O28 O 0.94961 0.72371 0.66664 0.0
Cd29 Cd 0.99147 0.72519 0.63283 0.0
Cd30 Cd 0.94817 0.67675 0.61744 0.0
O31 O 0.92002 0.68247 0.65824 0.0
O32 O 0.0331 0.75457 0.64767 0.0
O33 O 0.05267 0.71091 0.6414 0.0
C34 C 0.06279 0.73573 0.65046 0.0
C35 C 0.97186 0.63366 0.60011 0.0
C36 C 0.92359 0.70474 0.67369 0.0
C37 C 0.93355 0.7271 0.57683 0.0
O38 O 0.92313 0.70245 0.58364 0.0
O39 O 0.96327 0.73997 0.59244 0.0
O40 O 0.93135 0.6384 0.60353 0.0
O41 O -0.00046 0.65288 0.60808 0.0
O42 O 0.55011 0.71907 0.33453 0.0
Cd43 Cd 0.50562 0.72217 0.36657 0.0
Cd44 Cd 0.5521 0.67444 0.38712 0.0
O45 O 0.58435 0.6802 0.34796 0.0
O46 O 0.46548 0.75112 0.34861 0.0
O47 O 0.44443 0.70814 0.35691 0.0
C48 C 0.43537 0.73258 0.34623 0.0
C49 C 0.53692 0.62999 0.40594 0.0
C50 C 0.57922 0.70106 0.33042 0.0
C51 C 0.55775 0.72752 0.42499 0.0
O52 O 0.56924 0.70256 0.42063 0.0
O53 O 0.53026 0.73949 0.40669 0.0
O54 O 0.57613 0.63902 0.4051 0.0
O55 O 0.50597 0.64564 0.39448 0.0
O56 O 0.55653 0.80561 0.83901 0.0
Cd57 Cd 0.51035 0.80244 0.86986 0.0
Cd58 Cd 0.5573 0.84889 0.89282 0.0
O59 O 0.59124 0.84375 0.85429 0.0
O60 O 0.47044 0.77409 0.85045 0.0
O61 O 0.44966 0.81704 0.85919 0.0
C62 C 0.44064 0.79283 0.84789 0.0
C63 C 0.54132 0.89306 0.91209 0.0
C64 C 0.58647 0.82333 0.83612 0.0
C65 C 0.56028 0.79493 0.92898 0.0
O66 O 0.57273 0.81986 0.9258 0.0
O67 O 0.53298 0.78392 0.90981 0.0
O68 O 0.58061 0.88397 0.91202 0.0
O69 O 0.51081 0.87761 0.89972 0.0
O70 O 0.94057 0.80445 0.16339 0.0
Cd71 Cd 0.98454 0.80061 0.13111 0.0
Cd72 Cd 0.93781 0.84743 0.10926 0.0
O73 O 0.90558 0.84266 0.14858 0.0
O74 O 0.02467 0.77187 0.14954 0.0
O75 O 0.04598 0.81455 0.14006 0.0
C76 C 0.05497 0.79029 0.15126 0.0
C77 C 0.9548 0.89139 0.09002 0.0
C78 C 0.91114 0.8224 0.1669 0.0
C79 C 0.93161 0.79361 0.07304 0.0
O80 O 0.92015 0.81872 0.0764 0.0
O81 O 0.95924 0.78225 0.09173 0.0
O82 O 0.91524 0.88296 0.09066 0.0
O83 O 0.98507 0.87538 0.10178 0.0
O84 O 0.44328 0.22093 0.16525 0.0
Cd85 Cd 0.48532 0.22447 0.13169 0.0
Cd86 Cd 0.43717 0.17757 0.11141 0.0
O87 O 0.40682 0.183 0.15146 0.0
O88 O 0.52568 0.25357 0.14889 0.0
O89 O 0.54722 0.21092 0.13945 0.0
C90 C 0.55627 0.23533 0.15019 0.0
C91 C 0.45388 0.1335 0.09235 0.0
C92 C 0.41383 0.20325 0.16961 0.0
C93 C 0.43007 0.23092 0.07444 0.0
O94 O 0.41854 0.20591 0.07838 0.0
O95 O 0.45832 0.24241 0.09255 0.0
O96 O 0.41431 0.14179 0.09365 0.0
O97 O 0.48434 0.14969 0.10345 0.0
O98 O 0.05434 0.21901 0.83694 0.0
Cd99 Cd 0.00942 0.22201 0.86868 0.0
Cd100 Cd 0.05758 0.17584 0.89086 0.0
O101 O 0.09066 0.18138 0.85201 0.0
O102 O 0.96903 0.25039 0.84986 0.0
O103 O 0.94849 0.20747 0.85894 0.0
C104 C 0.9392 0.23168 0.84771 0.0
C105 C 0.04151 0.13155 0.90963 0.0
C106 C 0.08464 0.20161 0.83372 0.0
C107 C 0.06061 0.22953 0.92736 0.0
O108 O 0.07319 0.20463 0.92403 0.0
O109 O 0.03304 0.24054 0.90838 0.0
O110 O 0.08086 0.14052 0.90954 0.0
O111 O 0.011 0.14722 0.89757 0.0
H112 H 0.08516 0.40385 0.47491 0.0
H113 H 0.07267 0.44461 0.50571 0.0
H114 H 0.98482 0.47751 0.43454 0.0
H115 H 0.99476 0.4354 0.40462 0.0
H116 H 0.08876 0.49496 0.50232 0.0
H117 H 0.90959 0.48834 0.50083 0.0
H118 H 0.94173 0.46128 0.48539 0.0
H119 H 0.92716 0.49185 0.46342 0.0
C120 C 0.06298 0.41973 0.46588 0.0
C121 C 0.04069 0.41638 0.43745 0.0
C122 C 0.05587 0.44313 0.48353 0.0
C123 C 0.02702 0.46415 0.47294 0.0
C124 C 0.00593 0.46126 0.44392 0.0
H125 H 0.0354 0.62771 0.56088 0.0
H126 H 0.04972 0.58708 0.53005 0.0
C127 C 0.01198 0.43733 0.42662 0.0
C128 C 0.01996 0.48902 0.49227 0.0
H129 H 0.94165 0.53017 0.52012 0.0
C130 C 0.05648 0.50245 0.50638 0.0
C131 C 0.97796 0.49877 0.4982 0.0
C132 C 0.93694 0.48411 0.48643 0.0
C133 C 0.05232 0.52499 0.52615 0.0
C134 C 0.0104 0.53566 0.53077 0.0
C135 C 0.97389 0.52231 0.51657 0.0
C136 C 0.0033 0.56032 0.55042 0.0
C137 C 0.09301 0.53625 0.54265 0.0
C138 C 0.97147 0.55947 0.57167 0.0
C139 C 0.9621 0.58309 0.58846 0.0
C140 C 0.98514 0.60791 0.58501 0.0
C141 C 0.01785 0.60864 0.5645 0.0
C142 C 0.02622 0.58528 0.54696 0.0
H143 H 0.11879 0.52011 0.54522 0.0
H144 H 0.10595 0.55355 0.52941 0.0
H145 H 0.08655 0.54404 0.56545 0.0
H146 H 0.95321 0.54062 0.57495 0.0
H147 H 0.93652 0.58202 0.60398 0.0
H148 H 0.45781 0.60741 0.4174 0.0
H149 H 0.44447 0.56652 0.44845 0.0
H150 H 0.58255 0.55215 0.46144 0.0
H151 H 0.59619 0.59295 0.43082 0.0
H152 H 0.46873 0.51014 0.44286 0.0
H153 H 0.54472 0.55654 0.54807 0.0
H154 H 0.53024 0.5769 0.51475 0.0
H155 H 0.57909 0.55635 0.51701 0.0
C156 C 0.48531 0.5954 0.42664 0.0
C157 C 0.52808 0.6036 0.42177 0.0
C158 C 0.47764 0.57207 0.44445 0.0
C159 C 0.51255 0.55663 0.45783 0.0
C160 C 0.55514 0.56412 0.45197 0.0
H161 H 0.53616 0.41223 0.57664 0.0
H162 H 0.54955 0.45287 0.54524 0.0
C163 C 0.56284 0.58738 0.43423 0.0
C164 C 0.50461 0.53281 0.47811 0.0
H165 H 0.52535 0.50892 0.55022 0.0
C166 C 0.4809 0.50992 0.46637 0.0
C167 C 0.52063 0.53251 0.50878 0.0
C168 C 0.54476 0.55697 0.52306 0.0
C169 C 0.47348 0.48652 0.48428 0.0
C170 C 0.48947 0.48623 0.51497 0.0
C171 C 0.51319 0.50913 0.52671 0.0
C172 C 0.48146 0.46244 0.53529 0.0
C173 C 0.44942 0.46205 0.46998 0.0
C174 C 0.43884 0.45482 0.54092 0.0
C175 C 0.43111 0.43168 0.55882 0.0
C176 C 0.46588 0.41572 0.57173 0.0
C177 C 0.50866 0.42403 0.56704 0.0
C178 C 0.51635 0.44722 0.54904 0.0
H179 H 0.44979 0.4624 0.44497 0.0
H180 H 0.46375 0.44212 0.47844 0.0
H181 H 0.41499 0.46277 0.47578 0.0
H182 H 0.41143 0.46664 0.53119 0.0
H183 H 0.39775 0.42604 0.5621 0.0
H184 H 0.5337 0.11211 0.08059 0.0
H185 H 0.54841 0.07134 0.0497 0.0
H186 H 0.41089 0.05488 0.03726 0.0
H187 H 0.39588 0.09556 0.06773 0.0
H188 H 0.52626 0.01461 0.05584 0.0
H189 H 0.4481 0.05938 0.95042 0.0
H190 H 0.46203 0.08012 0.98355 0.0
H191 H 0.41396 0.05889 0.98161 0.0
C192 C 0.50662 0.09968 0.07149 0.0
C193 C 0.4636 0.10725 0.07649 0.0
C194 C 0.51507 0.07642 0.05378 0.0
C195 C 0.48069 0.0604 0.04061 0.0
C196 C 0.43788 0.06729 0.04657 0.0
H197 H 0.46162 0.91517 0.92292 0.0
H198 H 0.44707 0.95595 0.95384 0.0
C199 C 0.4294 0.09048 0.06422 0.0
C200 C 0.48944 0.0366 0.02049 0.0
H201 H 0.46933 1.01206 0.94858 0.0
C202 C 0.51403 0.0141 0.03236 0.0
C203 C 0.47332 0.03592 0.98984 0.0
C204 C 0.44821 0.05995 0.97544 0.0
C205 C 0.52223 0.99072 0.0146 0.0
C206 C 0.50617 0.99005 0.98393 0.0
C207 C 0.48157 1.01256 0.97207 0.0
C208 C 0.51488 0.96624 0.9638 0.0
C209 C 0.54717 0.96665 0.02908 0.0
C210 C 0.55773 0.95898 0.95829 0.0
C211 C 0.56611 0.93575 0.94068 0.0
C212 C 0.5318 0.91935 0.92792 0.0
C213 C 0.48879 0.92732 0.93241 0.0
C214 C 0.48043 0.95059 0.95013 0.0
H215 H 0.54677 0.96711 0.05408 0.0
H216 H 0.53358 0.94649 0.02076 0.0
H217 H 0.58157 0.96782 0.02328 0.0
H218 H 0.5848 0.97113 0.96793 0.0
H219 H 0.59963 0.93037 0.93754 0.0
H220 H 0.03488 0.91278 0.07913 0.0
H221 H 0.0502 0.95363 0.04866 0.0
H222 H 0.91275 0.96993 0.03444 0.0
H223 H 0.89716 0.92909 0.06448 0.0
H224 H 0.95507 0.97055 0.98139 0.0
H225 H 0.04264 0.03631 0.06841 0.0
H226 H 0.06441 1.00189 0.06532 0.0
H227 H 0.01069 1.00654 0.07792 0.0
C228 C 0.00795 0.9253 0.0699 0.0
C229 C 0.9648 0.91766 0.07433 0.0
C230 C 0.01676 0.94871 0.05253 0.0
C231 C 0.98263 0.96503 0.03945 0.0
C232 C 0.93961 0.95771 0.04432 0.0
H233 H 0.96177 0.10941 0.92003 0.0
H234 H 0.947 0.06835 0.9503 0.0
C235 C 0.93079 0.93435 0.06161 0.0
C236 C 0.99141 0.98893 0.01947 0.0
H237 H 0.04256 0.05181 0.01772 0.0
C238 C 0.97406 0.98838 0.98936 0.0
C239 C 0.01626 1.01216 0.02984 0.0
C240 C 0.03429 0.0145 0.0622 0.0
C241 C 0.98143 1.01018 0.96925 0.0
C242 C 0.00622 0.03344 0.97964 0.0
C243 C 0.02361 0.03397 0.00974 0.0
C244 C 0.01473 0.05744 0.95972 0.0
C245 C 0.96346 1.0078 0.93689 0.0
C246 C 0.05766 0.06514 0.95504 0.0
C247 C 0.06617 0.08864 0.93789 0.0
C248 C 0.03193 0.1051 0.92511 0.0
C249 C 0.98888 0.09708 0.92931 0.0
C250 C 0.98038 0.07354 0.94656 0.0
H251 H 0.95558 0.98593 0.93062 0.0
H252 H 0.93305 0.02013 0.93381 0.0
H253 H 0.98687 0.01601 0.92117 0.0
H254 H 0.08469 0.05309 0.96498 0.0
H255 H 0.09973 0.0942 0.93519 0.0
H256 H 0.625 0.20009 0.16361 0.0
H257 H 0.69138 0.21021 0.19546 0.0
H258 H 0.64998 0.2952 0.20441 0.0
H259 H 0.58378 0.28536 0.17291 0.0
H260 H 0.75833 0.25203 0.18977 0.0
H261 H 0.66734 0.2663 0.29246 0.0
H262 H 0.64394 0.24947 0.25882 0.0
H263 H 0.64793 0.28668 0.26041 0.0
C264 C 0.63032 0.221 0.17206 0.0
C265 C 0.59895 0.24185 0.16593 0.0
C266 C 0.66816 0.22673 0.19029 0.0
C267 C 0.67504 0.2533 0.20275 0.0
C268 C 0.6448 0.27442 0.19551 0.0
H269 H 0.87149 0.32766 0.32802 0.0
H270 H 0.80685 0.31816 0.2942 0.0
C271 C 0.6071 0.26876 0.17734 0.0
C272 C 0.71327 0.25893 0.22392 0.0
H273 H 0.74234 0.27743 0.2968 0.0
C274 C 0.75494 0.25746 0.2132 0.0
C275 C 0.70859 0.26611 0.25444 0.0
C276 C 0.6646 0.26704 0.26739 0.0
C277 C 0.79216 0.26349 0.2321 0.0
C278 C 0.7875 0.27058 0.26267 0.0
C279 C 0.74579 0.27206 0.27336 0.0
C280 C 0.82565 0.27603 0.28404 0.0
C281 C 0.83604 0.26279 0.21899 0.0
C282 C 0.85688 0.25525 0.29021 0.0
C283 C 0.89368 0.2606 0.30941 0.0
C284 C 0.89984 0.2868 0.32309 0.0
C285 C 0.8677 0.30729 0.31781 0.0
C286 C 0.83084 0.30192 0.29845 0.0
H287 H 0.8331 0.26465 0.19399 0.0
H288 H 0.85726 0.27979 0.22835 0.0
H289 H 0.85218 0.2427 0.22479 0.0
H290 H 0.85295 0.2349 0.27996 0.0
H291 H 0.91761 0.24426 0.31319 0.0
H292 H 0.58464 0.23875 0.67756 0.0
H293 H 0.64981 0.22957 0.71043 0.0
H294 H 0.69194 0.31412 0.69929 0.0
H295 H 0.62632 0.32366 0.66647 0.0
H296 H 0.73895 0.23471 0.70097 0.0
H297 H 0.68902 0.3052 0.79155 0.0
H298 H 0.65187 0.29405 0.76072 0.0
H299 H 0.69091 0.3209 0.75495 0.0
C300 C 0.60791 0.25538 0.68183 0.0
C301 C 0.60014 0.28202 0.66956 0.0
C302 C 0.64515 0.25006 0.70065 0.0
C303 C 0.67524 0.27128 0.70774 0.0
C304 C 0.66862 0.2976 0.69454 0.0
H305 H 0.91134 0.28109 0.8235 0.0
H306 H 0.84637 0.28985 0.79035 0.0
C307 C 0.63132 0.30295 0.6756 0.0
C308 C 0.71293 0.26584 0.72951 0.0
H309 H 0.75832 0.28421 0.79899 0.0
C310 C 0.74321 0.24548 0.72243 0.0
C311 C 0.71818 0.27983 0.75754 0.0
C312 C 0.68564 0.30106 0.76688 0.0
C313 C 0.77916 0.23911 0.7424 0.0
C314 C 0.78441 0.2531 0.77045 0.0
C315 C 0.75409 0.27344 0.77753 0.0
C316 C 0.82217 0.24776 0.79221 0.0
C317 C 0.81177 0.21797 0.73297 0.0
C318 C 0.82948 0.22135 0.80504 0.0
C319 C 0.86674 0.21622 0.82409 0.0
C320 C 0.89715 0.23749 0.83071 0.0
C321 C 0.88869 0.26419 0.81881 0.0
C322 C 0.85155 0.26927 0.79981 0.0
H323 H 0.80861 0.21409 0.70825 0.0
H324 H 0.84552 0.22488 0.73936 0.0
H325 H 0.80629 0.198 0.7446 0.0
H326 H 0.80669 0.2046 0.79996 0.0
H327 H 0.87226 0.19546 0.83296 0.0
H328 H 0.09287 0.78632 0.66998 0.0
H329 H 0.15834 0.79618 0.70228 0.0
H330 H 0.19397 0.70958 0.70055 0.0
H331 H 0.12856 0.69951 0.66788 0.0
H332 H 0.17631 0.77328 0.75951 0.0
H333 H 0.30773 0.74919 0.68403 0.0
H334 H 0.25203 0.75478 0.66998 0.0
H335 H 0.26815 0.72209 0.68681 0.0
C336 C 0.11499 0.7694 0.67597 0.0
C337 C 0.10549 0.7421 0.66632 0.0
C338 C 0.15234 0.77509 0.69454 0.0
C339 C 0.18113 0.75367 0.70371 0.0
C340 C 0.17255 0.72652 0.69335 0.0
H341 H 0.41188 0.74297 0.8254 0.0
H342 H 0.34728 0.73389 0.79195 0.0
C343 C 0.13511 0.72078 0.67471 0.0
C344 C 0.21841 0.75954 0.72571 0.0
H345 H 0.32914 0.75713 0.73566 0.0
C346 C 0.20977 0.76989 0.75427 0.0
C347 C 0.26195 0.75502 0.71883 0.0
C348 C 0.27322 0.74489 0.68817 0.0
C349 C 0.24349 0.77539 0.77636 0.0
C350 C 0.28706 0.77086 0.7695 0.0
C351 C 0.29569 0.76056 0.7409 0.0
C352 C 0.3243 0.77636 0.79168 0.0
C353 C 0.23211 0.78533 0.80708 0.0
C354 C 0.33261 0.80325 0.80297 0.0
C355 C 0.36951 0.80852 0.82233 0.0
C356 C 0.39892 0.78701 0.83046 0.0
C357 C 0.38991 0.76002 0.81961 0.0
C358 C 0.35305 0.75478 0.8004 0.0
H359 H 0.19766 0.78084 0.81119 0.0
H360 H 0.25339 0.77546 0.82524 0.0
H361 H 0.23689 0.80814 0.80854 0.0
H362 H 0.31128 0.82033 0.79612 0.0
H363 H 0.37573 0.82957 0.83007 0.0
H364 H 0.40739 0.78267 0.32383 0.0
H365 H 0.34206 0.79236 0.29132 0.0
H366 H 0.30342 0.70655 0.29709 0.0
H367 H 0.36868 0.69667 0.33003 0.0
H368 H 0.32153 0.76803 0.2353 0.0
H369 H 0.19189 0.74861 0.3136 0.0
H370 H 0.24813 0.75358 0.32665 0.0
H371 H 0.23022 0.7207 0.31118 0.0
C372 C 0.3847 0.7659 0.31861 0.0
C373 C 0.39323 0.73888 0.32957 0.0
C374 C 0.34743 0.77149 0.29993 0.0
C375 C 0.31775 0.75024 0.29192 0.0
C376 C 0.32553 0.72336 0.30339 0.0
H377 H 0.0832 0.74035 0.17387 0.0
H378 H 0.14871 0.73087 0.20627 0.0
C379 C 0.36288 0.71774 0.32217 0.0
C380 C 0.2801 0.75601 0.2702 0.0
H381 H 0.16919 0.75538 0.262 0.0
C382 C 0.28819 0.76538 0.24115 0.0
C383 C 0.23669 0.7525 0.27789 0.0
C384 C 0.22602 0.74353 0.30909 0.0
C385 C 0.25402 0.77091 0.21939 0.0
C386 C 0.21061 0.76737 0.22708 0.0
C387 C 0.20253 0.75803 0.25614 0.0
C388 C 0.17293 0.773 0.20532 0.0
C389 C 0.2647 0.77986 0.18819 0.0
C390 C 0.16506 0.79981 0.19367 0.0
C391 C 0.12761 0.80531 0.17493 0.0
C392 C 0.09725 0.78411 0.16779 0.0
C393 C 0.10589 0.75716 0.1789 0.0
C394 C 0.14327 0.75169 0.19752 0.0
H395 H 0.29884 0.77479 0.1837 0.0
H396 H 0.24261 0.7698 0.17063 0.0
H397 H 0.26049 0.80269 0.18609 0.0
H398 H 0.18716 0.81667 0.19981 0.0
H399 H 0.12172 0.82632 0.16695 0.0
H400 H 0.42996 0.23454 0.22018 0.0
H401 H 0.37602 0.2553 0.25113 0.0
H402 H 0.2746 0.20873 0.20226 0.0
H403 H 0.32855 0.18775 0.17107 0.0
H404 H 0.26514 0.26909 0.20199 0.0
H405 H 0.29848 0.22674 0.31776 0.0
H406 H 0.34518 0.23845 0.29917 0.0
H407 H 0.31488 0.20901 0.2845 0.0
C408 C 0.39636 0.22802 0.21663 0.0
C409 C 0.38348 0.20955 0.19312 0.0
C410 C 0.36558 0.2399 0.23438 0.0
C411 C 0.32137 0.23356 0.22896 0.0
C412 C 0.30866 0.21381 0.20681 0.0
H413 H 0.08136 0.29953 0.28496 0.0
H414 H 0.13941 0.28045 0.2568 0.0
C415 C 0.33955 0.20167 0.18918 0.0
C416 C 0.28829 0.24998 0.24391 0.0
H417 H 0.24989 0.26481 0.31237 0.0
C418 C 0.26159 0.26807 0.22611 0.0
C419 C 0.28442 0.24899 0.2754 0.0
C420 C 0.31199 0.22963 0.29541 0.0
C421 C 0.23106 0.28528 0.23899 0.0
C422 C 0.22646 0.28389 0.27044 0.0
C423 C 0.25359 0.266 0.28829 0.0
C424 C 0.19156 0.2991 0.28501 0.0
C425 C 0.20457 0.30508 0.21881 0.0
C426 C 0.20138 0.31635 0.3101 0.0
C427 C 0.16801 0.32729 0.32648 0.0
C428 C 0.12431 0.32083 0.31819 0.0
C429 C 0.11464 0.30495 0.29197 0.0
C430 C 0.14787 0.29408 0.2757 0.0
H431 H 0.22173 0.3105 0.1984 0.0
H432 H 0.17338 0.295 0.21113 0.0
H433 H 0.19721 0.32454 0.2309 0.0
H434 H 0.23491 0.32044 0.31772 0.0
H435 H 0.1766 0.33923 0.34668 0.0
H436 H 0.42481 0.29067 0.71786 0.0
H437 H 0.36707 0.27139 0.74642 0.0
H438 H 0.27277 0.32228 0.69584 0.0
H439 H 0.33047 0.34147 0.66667 0.0
H440 H 0.3022 0.29243 0.78141 0.0
H441 H 0.23271 0.24228 0.67608 0.0
H442 H 0.28574 0.25831 0.6788 0.0
H443 H 0.23763 0.27943 0.67441 0.0
C444 C 0.39194 0.2983 0.71324 0.0
C445 C 0.38214 0.31733 0.68968 0.0
C446 C 0.35896 0.28719 0.72958 0.0
C447 C 0.31554 0.29482 0.72265 0.0
C448 C 0.30603 0.31565 0.70103 0.0
H449 H 0.0735 0.23555 0.78473 0.0
H450 H 0.13053 0.25609 0.75639 0.0
C451 C 0.33911 0.32686 0.68464 0.0
C452 C 0.28039 0.27939 0.73656 0.0
H453 H 0.19549 0.23501 0.72016 0.0
C454 C 0.27884 0.27989 0.76806 0.0
C455 C 0.25026 0.26281 0.71905 0.0
C456 C 0.2517 0.26038 0.68524 0.0
C457 C 0.24746 0.26464 0.7825 0.0
C458 C 0.21737 0.24804 0.76499 0.0
C459 C 0.21883 0.2476 0.7335 0.0
C460 C 0.18265 0.23227 0.77895 0.0
C461 C 0.24612 0.26689 0.81633 0.0
C462 C 0.19279 0.21093 0.79985 0.0
C463 C 0.16012 0.19895 0.81603 0.0
C464 C 0.1169 0.20826 0.81157 0.0
C465 C 0.10653 0.22805 0.78886 0.0
C466 C 0.13909 0.23988 0.77267 0.0
H467 H 0.26523 0.2849 0.82559 0.0
H468 H 0.21211 0.26897 0.82282 0.0
H469 H 0.26009 0.24774 0.82701 0.0
H470 H 0.22619 0.20438 0.80454 0.0
H471 H 0.1692 0.1838 0.83337 0.0
H472 H 0.57961 0.7869 0.78909 0.0
H473 H 0.63891 0.76752 0.76212 0.0
H474 H 0.72849 0.82507 0.80744 0.0
H475 H 0.66923 0.84435 0.83512 0.0
H476 H 0.69948 0.78816 0.7247 0.0
H477 H 0.77904 0.74906 0.83262 0.0
H478 H 0.72439 0.76274 0.82982 0.0
H479 H 0.77015 0.78594 0.83121 0.0
C480 C 0.61175 0.79586 0.79295 0.0
C481 C 0.61978 0.81694 0.8146 0.0
C482 C 0.64564 0.78469 0.77752 0.0
C483 C 0.68829 0.79431 0.78343 0.0
C484 C 0.69593 0.81688 0.80315 0.0
H485 H 0.93313 0.7433 0.71851 0.0
H486 H 0.87558 0.76289 0.74718 0.0
C487 C 0.66193 0.82812 0.81865 0.0
C488 C 0.72467 0.77952 0.77014 0.0
H489 H 0.81562 0.74068 0.78839 0.0
C490 C 0.72486 0.77777 0.73861 0.0
C491 C 0.75752 0.76574 0.78837 0.0
C492 C 0.75776 0.76567 0.82238 0.0
C493 C 0.75742 0.76301 0.72479 0.0
C494 C 0.79024 0.74927 0.74302 0.0
C495 C 0.7902 0.75108 0.77453 0.0
C496 C 0.82616 0.73423 0.72957 0.0
C497 C 0.75697 0.76269 0.69077 0.0
C498 C 0.81795 0.71062 0.71148 0.0
C499 C 0.85096 0.69917 0.69518 0.0
C500 C 0.89253 0.71132 0.69667 0.0
C501 C 0.90137 0.73357 0.71673 0.0
C502 C 0.86851 0.74485 0.7331 0.0
H503 H 0.73476 0.7787 0.6803 0.0
H504 H 0.79015 0.76624 0.68326 0.0
H505 H 0.74578 0.74204 0.6823 0.0
H506 H 0.78555 0.70185 0.7089 0.0
H507 H 0.84306 0.68211 0.67988 0.0
H508 H 0.82747 0.8416 0.16791 0.0
H509 H 0.77021 0.82207 0.19723 0.0
H510 H 0.86453 0.76881 0.24456 0.0
H511 H 0.92174 0.78833 0.21578 0.0
H512 H 0.74953 0.76554 0.1935 0.0
H513 H 0.79233 0.79554 0.31238 0.0
H514 H 0.81423 0.81317 0.28089 0.0
H515 H 0.83681 0.78053 0.29398 0.0
C516 C 0.83627 0.82647 0.18533 0.0
C517 C 0.87913 0.81645 0.18944 0.0
C518 C 0.80346 0.81516 0.20189 0.0
C519 C 0.81312 0.794 0.2231 0.0
C520 C 0.85638 0.78537 0.22865 0.0
H521 H 0.66294 0.68201 0.32916 0.0
H522 H 0.72021 0.70196 0.30012 0.0
C523 C 0.88906 0.79653 0.21207 0.0
C524 C 0.77775 0.77869 0.2369 0.0
H525 H 0.74084 0.75887 0.30439 0.0
C526 C 0.74736 0.76428 0.21774 0.0
C527 C 0.77536 0.77677 0.26852 0.0
C528 C 0.80618 0.79252 0.29016 0.0
C529 C 0.715 0.74767 0.22937 0.0
C530 C 0.71263 0.74574 0.26098 0.0
C531 C 0.74301 0.76015 0.28014 0.0
C532 C 0.6773 0.73038 0.27475 0.0
C533 C 0.68413 0.73194 0.20774 0.0
C534 C 0.63407 0.73912 0.2694 0.0
C535 C 0.60139 0.72775 0.28583 0.0
C536 C 0.61131 0.70746 0.30807 0.0
C537 C 0.65416 0.6974 0.31201 0.0
C538 C 0.68697 0.70894 0.29562 0.0
H539 H 0.69778 0.72912 0.18542 0.0
H540 H 0.67636 0.71121 0.21692 0.0
H541 H 0.65336 0.74383 0.20415 0.0
H542 H 0.62592 0.75588 0.25374 0.0
H543 H 0.56872 0.73599 0.28228 0.0
H544 H 0.40881 0.3015 0.51617 0.0
H545 H 0.34098 0.28455 0.49087 0.0
H546 H 0.32673 0.2264 0.56338 0.0
H547 H 0.3958 0.24223 0.5879 0.0
H548 H 0.28311 0.20896 0.50813 0.0
H549 H 0.24369 0.31722 0.53859 0.0
H550 H 0.28635 0.31553 0.51315 0.0
H551 H 0.29473 0.30106 0.5505 0.0
C552 C 0.39247 0.28401 0.52578 0.0
C553 C 0.40717 0.27335 0.55407 0.0
C554 C 0.35355 0.27449 0.51149 0.0
C555 C 0.32817 0.25496 0.52586 0.0
C556 C 0.34566 0.24166 0.55206 0.0
H557 H 0.05831 0.29208 0.48802 0.0
H558 H 0.1198 0.27359 0.5195 0.0
C559 C 0.38528 0.25066 0.56598 0.0
C560 C 0.28101 0.25288 0.51716 0.0
H561 H 0.19052 0.29326 0.50774 0.0
C562 C 0.26258 0.22726 0.5082 0.0
C563 C 0.2539 0.2765 0.51866 0.0
C564 C 0.27052 0.30404 0.53108 0.0
C565 C 0.21805 0.22509 0.49896 0.0
C566 C 0.19178 0.24931 0.49796 0.0
C567 C 0.21016 0.27454 0.50839 0.0
C568 C 0.14684 0.25039 0.48333 0.0
C569 C 0.19982 0.19686 0.49059 0.0
C570 C 0.139 0.24131 0.45337 0.0
C571 C 0.10259 0.2508 0.43586 0.0
C572 C 0.07449 0.27032 0.4477 0.0
C573 C 0.07945 0.27691 0.47849 0.0
C574 C 0.11487 0.26651 0.49635 0.0
H575 H 0.21668 0.18039 0.50447 0.0
H576 H 0.1644 0.19563 0.49358 0.0
H577 H 0.20543 0.19246 0.46663 0.0
H578 H 0.16323 0.22945 0.44238 0.0
H579 H 0.09984 0.24577 0.41201 0.0
H580 H 0.91537 0.78278 0.57422 0.0
H581 H 0.85193 0.80406 0.5468 0.0
H582 H 0.82267 0.72599 0.50227 0.0
H583 H 0.88567 0.70476 0.52931 0.0
H584 H 0.80373 0.77458 0.46573 0.0
H585 H 0.73419 0.77841 0.57844 0.0
H586 H 0.78434 0.79636 0.57323 0.0
H587 H 0.78311 0.7591 0.57269 0.0
C588 C 0.89636 0.77049 0.55769 0.0
C589 C 0.90506 0.74201 0.55414 0.0
C590 C 0.85993 0.78261 0.54228 0.0
C591 C 0.83219 0.76641 0.52304 0.0
C592 C 0.84357 0.73882 0.51715 0.0
H593 H 0.59877 0.70827 0.47685 0.0
H594 H 0.66136 0.72982 0.50392 0.0
C595 C 0.8796 0.72669 0.53262 0.0
C596 C 0.78834 0.77616 0.51215 0.0
H597 H 0.6854 0.77945 0.53585 0.0
C598 C 0.77785 0.7767 0.48095 0.0
C599 C 0.75481 0.77878 0.53224 0.0
C600 C 0.76431 0.77808 0.56604 0.0
C601 C 0.7344 0.77707 0.46924 0.0
C602 C 0.7007 0.77725 0.48941 0.0
C603 C 0.71134 0.77945 0.52053 0.0
C604 C 0.65605 0.76854 0.47914 0.0
C605 C 0.72492 0.77439 0.43555 0.0
C606 C 0.63041 0.78395 0.45778 0.0
C607 C 0.59426 0.77162 0.44228 0.0
C608 C 0.58371 0.74375 0.44794 0.0
C609 C 0.60638 0.72969 0.47186 0.0
C610 C 0.64219 0.74201 0.48736 0.0
H611 H 0.75501 0.77226 0.42332 0.0
H612 H 0.70399 0.75601 0.4303 0.0
H613 H 0.70715 0.79309 0.42682 0.0
H614 H 0.64023 0.80463 0.4515 0.0
H615 H 0.57737 0.78296 0.42394 0.0
H616 H 0.91112 0.73863 0.07735 0.0
H617 H 0.84865 0.71584 0.05071 0.0
H618 H 0.82869 0.78795 0.99375 0.0
H619 H 0.89066 0.81068 0.02017 0.0
H620 H 0.76937 0.73996 0.05573 0.0
H621 H 0.79432 0.72615 0.9351 0.0
H622 H 0.83924 0.72934 0.9633 0.0
H623 H 0.81287 0.75988 0.9472 0.0
C624 C 0.89469 0.74904 0.05817 0.0
C625 C 0.9055 0.77653 0.05094 0.0
C626 C 0.85883 0.73604 0.04309 0.0
C627 C 0.83403 0.75012 0.02019 0.0
C628 C 0.84772 0.77641 0.01094 0.0
H629 H 0.60009 0.81146 0.98242 0.0
H630 H 0.66128 0.7882 0.00921 0.0
C631 C 0.8831 0.7895 0.02618 0.0
C632 C 0.78963 0.74063 0.01016 0.0
H633 H 0.72035 0.74003 0.94706 0.0
C634 C 0.75875 0.73893 0.03195 0.0
C635 C 0.77566 0.73873 0.97926 0.0
C636 C 0.80746 0.73832 0.95494 0.0
C637 C 0.71403 0.73886 0.02352 0.0
C638 C 0.70007 0.7408 0.99263 0.0
C639 C 0.73095 0.73896 0.97084 0.0
C640 C 0.65576 0.7505 0.98258 0.0
C641 C 0.68223 0.73857 0.04785 0.0
C642 C 0.63102 0.73663 0.95949 0.0
C643 C 0.59562 0.74995 0.94418 0.0
C644 C 0.58522 0.77752 0.9514 0.0
C645 C 0.60735 0.79022 0.97642 0.0
C646 C 0.6423 0.77683 0.99187 0.0
H647 H 0.69524 0.72627 0.06764 0.0
H648 H 0.6771 0.76014 0.05568 0.0
H649 H 0.65034 0.72979 0.03946 0.0
H650 H 0.64103 0.71639 0.95185 0.0
H651 H 0.57938 0.73973 0.92482 0.0
H652 H 0.38881 0.21318 0.022 0.0
H653 H 0.32733 0.23592 0.9949 0.0
H654 H 0.34768 0.30877 0.05066 0.0
H655 H 0.40973 0.28599 0.07794 0.0
H656 H 0.26768 0.28487 0.05548 0.0
H657 H 0.29515 0.29746 0.93503 0.0
H658 H 0.31347 0.26387 0.94785 0.0
H659 H 0.33949 0.29459 0.96374 0.0
C660 C 0.38142 0.2345 0.02761 0.0
C661 C 0.40383 0.24774 0.05217 0.0
C662 C 0.34634 0.24758 0.01199 0.0
C663 C 0.33296 0.27412 0.02068 0.0
C664 C 0.35768 0.28838 0.04346 0.0
H665 H 0.07975 0.28469 0.92323 0.0
H666 H 0.14103 0.30809 0.95061 0.0
C667 C 0.39327 0.27538 0.05891 0.0
C668 C 0.28885 0.28379 0.01017 0.0
H669 H 0.22081 0.28411 0.94645 0.0
C670 C 0.25752 0.28577 0.03162 0.0
C671 C 0.27552 0.2855 0.97915 0.0
C672 C 0.30787 0.28554 0.95518 0.0
C673 C 0.21295 0.28589 0.02276 0.0
C674 C 0.19961 0.28375 0.99178 0.0
C675 C 0.23095 0.28535 0.9703 0.0
C676 C 0.15551 0.27399 0.98141 0.0
C677 C 0.1806 0.28638 0.04673 0.0
C678 C 0.14209 0.24762 0.99058 0.0
C679 C 0.10742 0.23419 0.97491 0.0
C680 C 0.08548 0.2469 0.94981 0.0
C681 C 0.09584 0.27448 0.94267 0.0
C682 C 0.13101 0.28783 0.95817 0.0
H683 H 0.19329 0.29866 0.06661 0.0
H684 H 0.14895 0.29528 0.03799 0.0
H685 H 0.17509 0.26484 0.05453 0.0
H686 H 0.16092 0.23629 0.00804 0.0
H687 H 0.10017 0.21293 0.98085 0.0
loop_
_geom_bond_atom_site_label_1
_geom_bond_atom_site_label_2
_geom_bond_distance
_geom_bond_site_symmetry_2
_ccdc_geom_bond_type
O0 Cd1 2.223 . S
O0 C8 1.315 . S
Cd1 O0 2.223 . S
Cd1 O4 2.297 1_455 S
Cd1 O5 2.439 1_455 S
Cd1 O11 2.240 . S
Cd2 O3 2.240 . S
Cd2 O10 2.223 . S
Cd2 O12 2.297 . S
Cd2 O13 2.449 . S
O3 Cd2 2.240 . S
O3 C8 1.279 . S
O4 Cd1 2.297 1_655 S
O4 C6 1.247 . S
O5 Cd1 2.439 1_655 S
O5 C6 1.208 . S
C6 O4 1.247 . S
C6 O5 1.208 . S
C7 O12 1.247 . S
C7 O13 1.214 . S
C8 O0 1.315 . S
C8 O3 1.279 . S
C9 O10 1.315 . S
C9 O11 1.279 . S
O10 Cd2 2.223 . S
O10 C9 1.315 . S
O11 Cd1 2.240 . S
O11 C9 1.279 . S
O12 Cd2 2.297 . S
O12 C7 1.247 . S
O13 Cd2 2.449 . S
O13 C7 1.214 . S
O14 Cd15 2.223 . S
O14 C22 1.315 . S
Cd15 O14 2.223 . S
Cd15 O18 2.297 . S
Cd15 O19 2.439 . S
Cd15 O25 2.240 . S
Cd16 O17 2.240 . S
Cd16 O24 2.223 . S
Cd16 O26 2.297 . S
Cd16 O27 2.439 . S
O17 Cd16 2.240 . S
O17 C22 1.279 . S
O18 Cd15 2.297 . S
O18 C20 1.247 . S
O19 Cd15 2.439 . S
O19 C20 1.208 . S
C20 O18 1.247 . S
C20 O19 1.208 . S
C21 O26 1.247 . S
C21 O27 1.208 . S
C22 O14 1.315 . S
C22 O17 1.279 . S
C23 O24 1.315 . S
C23 O25 1.279 . S
O24 Cd16 2.223 . S
O24 C23 1.315 . S
O25 Cd15 2.240 . S
O25 C23 1.279 . S
O26 Cd16 2.297 . S
O26 C21 1.247 . S
O27 Cd16 2.439 . S
O27 C21 1.208 . S
O28 Cd29 2.223 . S
O28 C36 1.315 . S
Cd29 O28 2.223 . S
Cd29 O32 2.297 1_655 S
Cd29 O33 2.439 1_655 S
Cd29 O39 2.240 . S
Cd30 O31 2.240 . S
Cd30 O38 2.223 . S
Cd30 O40 2.297 . S
Cd30 O41 2.449 . S
O31 Cd30 2.240 . S
O31 C36 1.279 . S
O32 Cd29 2.297 1_455 S
O32 C34 1.247 . S
O33 Cd29 2.439 1_455 S
O33 C34 1.208 . S
C34 O32 1.247 . S
C34 O33 1.208 . S
C35 O40 1.247 . S
C35 O41 1.214 . S
C36 O28 1.315 . S
C36 O31 1.279 . S
C37 O38 1.315 . S
C37 O39 1.279 . S
O38 Cd30 2.223 . S
O38 C37 1.315 . S
O39 Cd29 2.240 . S
O39 C37 1.279 . S
O40 Cd30 2.297 . S
O40 C35 1.247 . S
O41 Cd30 2.449 . S
O41 C35 1.214 . S
O42 Cd43 2.223 . S
O42 C50 1.315 . S
Cd43 O42 2.223 . S
Cd43 O46 2.297 . S
Cd43 O47 2.439 . S
Cd43 O53 2.240 . S
Cd44 O45 2.240 . S
Cd44 O52 2.223 . S
Cd44 O54 2.297 . S
Cd44 O55 2.439 . S
O45 Cd44 2.240 . S
O45 C50 1.279 . S
O46 Cd43 2.297 . S
O46 C48 1.247 . S
O47 Cd43 2.439 . S
O47 C48 1.208 . S
C48 O46 1.247 . S
C48 O47 1.208 . S
C49 O54 1.247 . S
C49 O55 1.208 . S
C50 O42 1.315 . S
C50 O45 1.279 . S
C51 O52 1.315 . S
C51 O53 1.279 . S
O52 Cd44 2.223 . S
O52 C51 1.315 . S
O53 Cd43 2.240 . S
O53 C51 1.279 . S
O54 Cd44 2.297 . S
O54 C49 1.247 . S
O55 Cd44 2.439 . S
O55 C49 1.208 . S
O56 Cd57 2.223 . S
O56 C64 1.315 . S
Cd57 O56 2.223 . S
Cd57 O60 2.297 . S
Cd57 O61 2.439 . S
Cd57 O67 2.240 . S
Cd58 O59 2.240 . S
Cd58 O66 2.223 . S
Cd58 O68 2.297 . S
Cd58 O69 2.439 . S
O59 Cd58 2.240 . S
O59 C64 1.279 . S
O60 Cd57 2.297 . S
O60 C62 1.247 . S
O61 Cd57 2.439 . S
O61 C62 1.208 . S
C62 O60 1.247 . S
C62 O61 1.208 . S
C63 O68 1.247 . S
C63 O69 1.208 . S
C64 O56 1.315 . S
C64 O59 1.279 . S
C65 O66 1.315 . S
C65 O67 1.279 . S
O66 Cd58 2.223 . S
O66 C65 1.315 . S
O67 Cd57 2.240 . S
O67 C65 1.279 . S
O68 Cd58 2.297 . S
O68 C63 1.247 . S
O69 Cd58 2.439 . S
O69 C63 1.208 . S
O70 Cd71 2.223 . S
O70 C78 1.315 . S
Cd71 O70 2.223 . S
Cd71 O74 2.297 1_655 S
Cd71 O75 2.439 1_655 S
Cd71 O81 2.240 . S
Cd72 O73 2.240 . S
Cd72 O80 2.223 . S
Cd72 O82 2.297 . S
Cd72 O83 2.449 . S
O73 Cd72 2.240 . S
O73 C78 1.279 . S
O74 Cd71 2.297 1_455 S
O74 C76 1.247 . S
O75 Cd71 2.439 1_455 S
O75 C76 1.208 . S
C76 O74 1.247 . S
C76 O75 1.208 . S
C77 O82 1.247 . S
C77 O83 1.214 . S
C78 O70 1.315 . S
C78 O73 1.279 . S
C79 O80 1.315 . S
C79 O81 1.279 . S
O80 Cd72 2.223 . S
O80 C79 1.315 . S
O81 Cd71 2.240 . S
O81 C79 1.279 . S
O82 Cd72 2.297 . S
O82 C77 1.247 . S
O83 Cd72 2.449 . S
O83 C77 1.214 . S
O84 Cd85 2.223 . S
O84 C92 1.315 . S
Cd85 O84 2.223 . S
Cd85 O88 2.297 . S
Cd85 O89 2.439 . S
Cd85 O95 2.240 . S
Cd86 O87 2.240 . S
Cd86 O94 2.223 . S
Cd86 O96 2.297 . S
Cd86 O97 2.439 . S
O87 Cd86 2.240 . S
O87 C92 1.279 . S
O88 Cd85 2.297 . S
O88 C90 1.247 . S
O89 Cd85 2.439 . S
O89 C90 1.208 . S
C90 O88 1.247 . S
C90 O89 1.208 . S
C91 O96 1.247 . S
C91 O97 1.208 . S
C92 O84 1.315 . S
C92 O87 1.279 . S
C93 O94 1.315 . S
C93 O95 1.279 . S
O94 Cd86 2.223 . S
O94 C93 1.315 . S
O95 Cd85 2.240 . S
O95 C93 1.279 . S
O96 Cd86 2.297 . S
O96 C91 1.247 . S
O97 Cd86 2.439 . S
O97 C91 1.208 . S
O98 Cd99 2.223 . S
O98 C106 1.315 . S
Cd99 O98 2.223 . S
Cd99 O102 2.297 1_455 S
Cd99 O103 2.439 1_455 S
Cd99 O109 2.240 . S
Cd100 O101 2.240 . S
Cd100 O108 2.223 . S
Cd100 O110 2.297 . S
Cd100 O111 2.449 . S
O101 Cd100 2.240 . S
O101 C106 1.279 . S
O102 Cd99 2.297 1_655 S
O102 C104 1.247 . S
O103 Cd99 2.439 1_655 S
O103 C104 1.208 . S
C104 O102 1.247 . S
C104 O103 1.208 . S
C105 O110 1.247 . S
C105 O111 1.214 . S
C106 O98 1.315 . S
C106 O101 1.279 . S
C107 O108 1.315 . S
C107 O109 1.279 . S
O108 Cd100 2.223 . S
O108 C107 1.315 . S
O109 Cd99 2.240 . S
O109 C107 1.279 . S
O110 Cd100 2.297 . S
O110 C105 1.247 . S
O111 Cd100 2.449 . S
O111 C105 1.214 . S
H112 C120 0.929 . S
H113 C122 0.930 . S
H114 C124 0.930 . S
H115 C127 0.929 . S
H116 C130 0.930 . S
H117 C132 0.960 . S
H118 C132 0.960 . S
H119 C132 0.960 . S
C120 H112 0.929 . S
C120 C121 1.377 . S
C120 C122 1.384 . S
C121 C120 1.377 . S
C121 C127 1.390 1_455 S
C122 H113 0.930 . S
C122 C120 1.384 . S
C122 C123 1.372 . S
C123 C122 1.372 . S
C123 C124 1.400 1_455 S
C123 C128 1.490 . S
C124 H114 0.930 . S
C124 C123 1.400 1_655 S
C124 C127 1.386 . S
H125 C141 0.930 . S
H126 C142 0.932 . S
C127 H115 0.929 . S
C127 C121 1.390 1_655 S
C127 C124 1.386 . S
C128 C123 1.490 . S
C128 C130 1.395 . S
C128 C131 1.403 1_455 S
H129 C135 0.930 . S
C130 H116 0.930 . S
C130 C128 1.395 . S
C130 C133 1.403 . S
C131 C128 1.403 1_655 S
C131 C132 1.524 . S
C131 C135 1.400 . S
C132 H117 0.960 . S
C132 H118 0.960 . S
C132 H119 0.960 . S
C132 C131 1.524 . S
C133 C130 1.403 . S
C133 C134 1.392 . S
C133 C137 1.495 . S
C134 C133 1.392 . S
C134 C135 1.385 1_455 S
C134 C136 1.478 . S
C135 H129 0.930 . S
C135 C131 1.400 . S
C135 C134 1.385 1_655 S
C136 C134 1.478 . S
C136 C138 1.381 . S
C136 C142 1.384 . S
C137 C133 1.495 . S
C137 H143 0.959 . S
C137 H144 0.961 . S
C137 H145 0.960 . S
C138 C136 1.381 . S
C138 C139 1.394 . S
C138 H146 0.930 . S
C139 C138 1.394 . S
C139 C140 1.383 1_455 S
C139 H147 0.929 . S
C140 C139 1.383 1_655 S
C140 C141 1.377 . S
C141 H125 0.930 . S
C141 C140 1.377 . S
C141 C142 1.378 1_655 S
C142 H126 0.932 . S
C142 C136 1.384 . S
C142 C141 1.378 1_455 S
H143 C137 0.959 . S
H144 C137 0.961 . S
H145 C137 0.960 . S
H146 C138 0.930 . S
H147 C139 0.929 . S
H148 C156 0.929 . S
H149 C158 0.930 . S
H150 C160 0.930 . S
H151 C163 0.929 . S
H152 C166 0.930 . S
H153 C168 0.960 . S
H154 C168 0.960 . S
H155 C168 0.960 . S
C156 H148 0.929 . S
C156 C157 1.377 . S
C156 C158 1.384 . S
C157 C156 1.377 . S
C157 C163 1.390 . S
C158 H149 0.930 . S
C158 C156 1.384 . S
C158 C159 1.372 . S
C159 C158 1.372 . S
C159 C160 1.400 . S
C159 C164 1.490 . S
C160 H150 0.930 . S
C160 C159 1.400 . S
C160 C163 1.386 . S
H161 C177 0.930 . S
H162 C178 0.931 . S
C163 H151 0.929 . S
C163 C157 1.390 . S
C163 C160 1.386 . S
C164 C159 1.490 . S
C164 C166 1.395 . S
C164 C167 1.403 . S
H165 C171 0.930 . S
C166 H152 0.930 . S
C166 C164 1.395 . S
C166 C169 1.403 . S
C167 C164 1.403 . S
C167 C168 1.524 . S
C167 C171 1.400 . S
C168 H153 0.960 . S
C168 H154 0.960 . S
C168 H155 0.960 . S
C168 C167 1.524 . S
C169 C166 1.403 . S
C169 C170 1.392 . S
C169 C173 1.495 . S
C170 C169 1.392 . S
C170 C171 1.385 . S
C170 C172 1.478 . S
C171 H165 0.930 . S
C171 C167 1.400 . S
C171 C170 1.385 . S
C172 C170 1.478 . S
C172 C174 1.381 . S
C172 C178 1.383 . S
C173 C169 1.495 . S
C173 H179 0.959 . S
C173 H180 0.961 . S
C173 H181 0.960 . S
C174 C172 1.381 . S
C174 C175 1.394 . S
C174 H182 0.930 . S
C175 C174 1.394 . S
C175 C176 1.383 . S
C175 H183 0.929 . S
C176 C175 1.383 . S
C176 C177 1.377 . S
C177 H161 0.930 . S
C177 C176 1.377 . S
C177 C178 1.379 . S
C178 H162 0.931 . S
C178 C172 1.383 . S
C178 C177 1.379 . S
H179 C173 0.959 . S
H180 C173 0.961 . S
H181 C173 0.960 . S
H182 C174 0.930 . S
H183 C175 0.929 . S
H184 C192 0.929 . S
H185 C194 0.930 . S
H186 C196 0.930 . S
H187 C199 0.929 . S
H188 C202 0.930 . S
H189 C204 0.960 . S
H190 C204 0.960 . S
H191 C204 0.960 . S
C192 H184 0.929 . S
C192 C193 1.377 . S
C192 C194 1.384 . S
C193 C192 1.377 . S
C193 C199 1.390 . S
C194 H185 0.930 . S
C194 C192 1.384 . S
C194 C195 1.372 . S
C195 C194 1.372 . S
C195 C196 1.400 . S
C195 C200 1.490 . S
C196 H186 0.930 . S
C196 C195 1.400 . S
C196 C199 1.386 . S
H197 C213 0.930 . S
H198 C214 0.931 . S
C199 H187 0.929 . S
C199 C193 1.390 . S
C199 C196 1.386 . S
C200 C195 1.490 . S
C200 C202 1.395 . S
C200 C203 1.403 1_554 S
H201 C207 0.930 . S
C202 H188 0.930 . S
C202 C200 1.395 . S
C202 C205 1.403 1_545 S
C203 C200 1.403 1_556 S
C203 C204 1.524 . S
C203 C207 1.400 1_545 S
C204 H189 0.960 . S
C204 H190 0.960 . S
C204 H191 0.960 . S
C204 C203 1.524 . S
C205 C202 1.403 1_565 S
C205 C206 1.392 1_554 S
C205 C209 1.495 . S
C206 C205 1.392 1_556 S
C206 C207 1.385 . S
C206 C208 1.478 . S
C207 H201 0.930 . S
C207 C203 1.400 1_565 S
C207 C206 1.385 . S
C208 C206 1.478 . S
C208 C210 1.381 . S
C208 C214 1.383 . S
C209 C205 1.495 . S
C209 H215 0.959 . S
C209 H216 0.961 . S
C209 H217 0.960 . S
C210 C208 1.381 . S
C210 C211 1.394 . S
C210 H218 0.930 . S
C211 C210 1.394 . S
C211 C212 1.383 . S
C211 H219 0.929 . S
C212 C211 1.383 . S
C212 C213 1.377 . S
C213 H197 0.930 . S
C213 C212 1.377 . S
C213 C214 1.379 . S
C214 H198 0.931 . S
C214 C208 1.383 . S
C214 C213 1.379 . S
H215 C209 0.959 . S
H216 C209 0.961 . S
H217 C209 0.960 . S
H218 C210 0.930 . S
H219 C211 0.929 . S
H220 C228 0.929 . S
H221 C230 0.930 . S
H222 C232 0.930 . S
H223 C235 0.929 . S
H224 C238 0.930 . S
H225 C240 0.983 . S
H226 C240 0.944 1_565 S
H227 C240 0.955 1_565 S
C228 H220 0.929 . S
C228 C229 1.377 1_455 S
C228 C230 1.384 . S
C229 C228 1.377 1_655 S
C229 C235 1.390 . S
C230 H221 0.930 . S
C230 C228 1.384 . S
C230 C231 1.372 1_455 S
C231 C230 1.372 1_655 S
C231 C232 1.400 . S
C231 C236 1.491 . S
C232 H222 0.930 . S
C232 C231 1.400 . S
C232 C235 1.386 . S
H233 C249 0.930 . S
H234 C250 0.931 . S
C235 H223 0.929 . S
C235 C229 1.390 . S
C235 C232 1.386 . S
C236 C231 1.491 . S
C236 C238 1.402 1_554 S
C236 C239 1.395 1_655 S
H237 C243 0.930 . S
C238 H224 0.930 . S
C238 C236 1.402 1_556 S
C238 C241 1.403 . S
C239 C236 1.395 1_455 S
C239 C240 1.523 1_565 S
C239 C243 1.400 1_565 S
C240 H225 0.983 . S
C240 H226 0.944 1_545 S
C240 H227 0.955 1_545 S
C240 C239 1.523 1_545 S
C241 C238 1.403 . S
C241 C242 1.392 1_565 S
C241 C245 1.495 . S
C242 C241 1.392 1_545 S
C242 C243 1.385 1_656 S
C242 C244 1.478 . S
C243 H237 0.930 . S
C243 C239 1.400 1_545 S
C243 C242 1.385 1_454 S
C244 C242 1.478 . S
C244 C246 1.381 1_655 S
C244 C250 1.383 . S
C245 C241 1.495 . S
C245 H251 0.959 . S
C245 H252 0.961 1_565 S
C245 H253 0.955 1_565 S
C246 C244 1.381 1_455 S
C246 C247 1.394 . S
C246 H254 0.930 . S
C247 C246 1.394 . S
C247 C248 1.383 . S
C247 H255 0.929 . S
C248 C247 1.383 . S
C248 C249 1.377 1_455 S
C249 H233 0.930 . S
C249 C248 1.377 1_655 S
C249 C250 1.379 . S
C250 H234 0.931 . S
C250 C244 1.383 . S
C250 C249 1.379 . S
H251 C245 0.959 . S
H252 C245 0.961 1_545 S
H253 C245 0.955 1_545 S
H254 C246 0.930 . S
H255 C247 0.929 . S
H256 C264 0.929 . S
H257 C266 0.930 . S
H258 C268 0.930 . S
H259 C271 0.929 . S
H260 C274 0.930 . S
H261 C276 0.960 . S
H262 C276 0.960 . S
H263 C276 0.960 . S
C264 H256 0.929 . S
C264 C265 1.377 . S
C264 C266 1.384 . S
C265 C264 1.377 . S
C265 C271 1.390 . S
C266 H257 0.930 . S
C266 C264 1.384 . S
C266 C267 1.372 . S
C267 C266 1.372 . S
C267 C268 1.400 . S
C267 C272 1.490 . S
C268 H258 0.930 . S
C268 C267 1.400 . S
C268 C271 1.386 . S
H269 C285 0.930 . S
H270 C286 0.931 . S
C271 H259 0.929 . S
C271 C265 1.390 . S
C271 C268 1.386 . S
C272 C267 1.490 . S
C272 C274 1.395 . S
C272 C275 1.403 . S
H273 C279 0.930 . S
C274 H260 0.930 . S
C274 C272 1.395 . S
C274 C277 1.403 . S
C275 C272 1.403 . S
C275 C276 1.524 . S
C275 C279 1.400 . S
C276 H261 0.960 . S
C276 H262 0.960 . S
C276 H263 0.960 . S
C276 C275 1.524 . S
C277 C274 1.403 . S
C277 C278 1.392 . S
C277 C281 1.495 . S
C278 C277 1.392 . S
C278 C279 1.385 . S
C278 C280 1.478 . S
C279 H273 0.930 . S
C279 C275 1.400 . S
C279 C278 1.385 . S
C280 C278 1.478 . S
C280 C282 1.381 . S
C280 C286 1.383 . S
C281 C277 1.495 . S
C281 H287 0.959 . S
C281 H288 0.961 . S
C281 H289 0.960 . S
C282 C280 1.381 . S
C282 C283 1.394 . S
C282 H290 0.930 . S
C283 C282 1.394 . S
C283 C284 1.383 . S
C283 H291 0.929 . S
C284 C283 1.383 . S
C284 C285 1.377 . S
C285 H269 0.930 . S
C285 C284 1.377 . S
C285 C286 1.379 . S
C286 H270 0.931 . S
C286 C280 1.383 . S
C286 C285 1.379 . S
H287 C281 0.959 . S
H288 C281 0.961 . S
H289 C281 0.960 . S
H290 C282 0.930 . S
H291 C283 0.929 . S
H292 C300 0.929 . S
H293 C302 0.930 . S
H294 C304 0.930 . S
H295 C307 0.929 . S
H296 C310 0.930 . S
H297 C312 0.960 . S
H298 C312 0.960 . S
H299 C312 0.960 . S
C300 H292 0.929 . S
C300 C301 1.377 . S
C300 C302 1.384 . S
C301 C300 1.377 . S
C301 C307 1.390 . S
C302 H293 0.930 . S
C302 C300 1.384 . S
C302 C303 1.372 . S
C303 C302 1.372 . S
C303 C304 1.400 . S
C303 C308 1.490 . S
C304 H294 0.930 . S
C304 C303 1.400 . S
C304 C307 1.386 . S
H305 C321 0.930 . S
H306 C322 0.931 . S
C307 H295 0.929 . S
C307 C301 1.390 . S
C307 C304 1.386 . S
C308 C303 1.490 . S
C308 C310 1.395 . S
C308 C311 1.403 . S
H309 C315 0.930 . S
C310 H296 0.930 . S
C310 C308 1.395 . S
C310 C313 1.403 . S
C311 C308 1.403 . S
C311 C312 1.524 . S
C311 C315 1.400 . S
C312 H297 0.960 . S
C312 H298 0.960 . S
C312 H299 0.960 . S
C312 C311 1.524 . S
C313 C310 1.403 . S
C313 C314 1.392 . S
C313 C317 1.495 . S
C314 C313 1.392 . S
C314 C315 1.385 . S
C314 C316 1.478 . S
C315 H309 0.930 . S
C315 C311 1.400 . S
C315 C314 1.385 . S
C316 C314 1.478 . S
C316 C318 1.381 . S
C316 C322 1.383 . S
C317 C313 1.495 . S
C317 H323 0.959 . S
C317 H324 0.961 . S
C317 H325 0.960 . S
C318 C316 1.381 . S
C318 C319 1.394 . S
C318 H326 0.930 . S
C319 C318 1.394 . S
C319 C320 1.383 . S
C319 H327 0.929 . S
C320 C319 1.383 . S
C320 C321 1.377 . S
C321 H305 0.930 . S
C321 C320 1.377 . S
C321 C322 1.379 . S
C322 H306 0.931 . S
C322 C316 1.383 . S
C322 C321 1.379 . S
H323 C317 0.959 . S
H324 C317 0.961 . S
H325 C317 0.960 . S
H326 C318 0.930 . S
H327 C319 0.929 . S
H328 C336 0.929 . S
H329 C338 0.930 . S
H330 C340 0.930 . S
H331 C343 0.929 . S
H332 C346 0.930 . S
H333 C348 0.960 . S
H334 C348 0.960 . S
H335 C348 0.960 . S
C336 H328 0.929 . S
C336 C337 1.377 . S
C336 C338 1.384 . S
C337 C336 1.377 . S
C337 C343 1.390 . S
C338 H329 0.930 . S
C338 C336 1.384 . S
C338 C339 1.372 . S
C339 C338 1.372 . S
C339 C340 1.400 . S
C339 C344 1.490 . S
C340 H330 0.930 . S
C340 C339 1.400 . S
C340 C343 1.386 . S
H341 C357 0.930 . S
H342 C358 0.931 . S
C343 H331 0.929 . S
C343 C337 1.390 . S
C343 C340 1.386 . S
C344 C339 1.490 . S
C344 C346 1.395 . S
C344 C347 1.403 . S
H345 C351 0.930 . S
C346 H332 0.930 . S
C346 C344 1.395 . S
C346 C349 1.403 . S
C347 C344 1.403 . S
C347 C348 1.524 . S
C347 C351 1.400 . S
C348 H333 0.960 . S
C348 H334 0.960 . S
C348 H335 0.960 . S
C348 C347 1.524 . S
C349 C346 1.403 . S
C349 C350 1.392 . S
C349 C353 1.495 . S
C350 C349 1.392 . S
C350 C351 1.385 . S
C350 C352 1.478 . S
C351 H345 0.930 . S
C351 C347 1.400 . S
C351 C350 1.385 . S
C352 C350 1.478 . S
C352 C354 1.381 . S
C352 C358 1.383 . S
C353 C349 1.495 . S
C353 H359 0.959 . S
C353 H360 0.961 . S
C353 H361 0.960 . S
C354 C352 1.381 . S
C354 C355 1.394 . S
C354 H362 0.930 . S
C355 C354 1.394 . S
C355 C356 1.383 . S
C355 H363 0.929 . S
C356 C355 1.383 . S
C356 C357 1.377 . S
C357 H341 0.930 . S
C357 C356 1.377 . S
C357 C358 1.379 . S
C358 H342 0.931 . S
C358 C352 1.383 . S
C358 C357 1.379 . S
H359 C353 0.959 . S
H360 C353 0.961 . S
H361 C353 0.960 . S
H362 C354 0.930 . S
H363 C355 0.929 . S
H364 C372 0.929 . S
H365 C374 0.930 . S
H366 C376 0.930 . S
H367 C379 0.929 . S
H368 C382 0.930 . S
H369 C384 0.960 . S
H370 C384 0.960 . S
H371 C384 0.960 . S
C372 H364 0.929 . S
C372 C373 1.377 . S
C372 C374 1.384 . S
C373 C372 1.377 . S
C373 C379 1.390 . S
C374 H365 0.930 . S
C374 C372 1.384 . S
C374 C375 1.372 . S
C375 C374 1.372 . S
C375 C376 1.400 . S
C375 C380 1.490 . S
C376 H366 0.930 . S
C376 C375 1.400 . S
C376 C379 1.386 . S
H377 C393 0.930 . S
H378 C394 0.931 . S
C379 H367 0.929 . S
C379 C373 1.390 . S
C379 C376 1.386 . S
C380 C375 1.490 . S
C380 C382 1.395 . S
C380 C383 1.403 . S
H381 C387 0.930 . S
C382 H368 0.930 . S
C382 C380 1.395 . S
C382 C385 1.403 . S
C383 C380 1.403 . S
C383 C384 1.524 . S
C383 C387 1.400 . S
C384 H369 0.960 . S
C384 H370 0.960 . S
C384 H371 0.960 . S
C384 C383 1.524 . S
C385 C382 1.403 . S
C385 C386 1.392 . S
C385 C389 1.495 . S
C386 C385 1.392 . S
C386 C387 1.385 . S
C386 C388 1.478 . S
C387 H381 0.930 . S
C387 C383 1.400 . S
C387 C386 1.385 . S
C388 C386 1.478 . S
C388 C390 1.381 . S
C388 C394 1.383 . S
C389 C385 1.495 . S
C389 H395 0.959 . S
C389 H396 0.961 . S
C389 H397 0.960 . S
C390 C388 1.381 . S
C390 C391 1.394 . S
C390 H398 0.930 . S
C391 C390 1.394 . S
C391 C392 1.383 . S
C391 H399 0.929 . S
C392 C391 1.383 . S
C392 C393 1.377 . S
C393 H377 0.930 . S
C393 C392 1.377 . S
C393 C394 1.379 . S
C394 H378 0.931 . S
C394 C388 1.383 . S
C394 C393 1.379 . S
H395 C389 0.959 . S
H396 C389 0.961 . S
H397 C389 0.960 . S
H398 C390 0.930 . S
H399 C391 0.929 . S
H400 C408 0.929 . S
H401 C410 0.930 . S
H402 C412 0.930 . S
H403 C415 0.929 . S
H404 C418 0.930 . S
H405 C420 0.960 . S
H406 C420 0.960 . S
H407 C420 0.960 . S
C408 H400 0.929 . S
C408 C409 1.377 . S
C408 C410 1.384 . S
C409 C408 1.377 . S
C409 C415 1.390 . S
C410 H401 0.930 . S
C410 C408 1.384 . S
C410 C411 1.372 . S
C411 C410 1.372 . S
C411 C412 1.400 . S
C411 C416 1.490 . S
C412 H402 0.930 . S
C412 C411 1.400 . S
C412 C415 1.386 . S
H413 C429 0.930 . S
H414 C430 0.931 . S
C415 H403 0.929 . S
C415 C409 1.390 . S
C415 C412 1.386 . S
C416 C411 1.490 . S
C416 C418 1.395 . S
C416 C419 1.403 . S
H417 C423 0.930 . S
C418 H404 0.930 . S
C418 C416 1.395 . S
C418 C421 1.403 . S
C419 C416 1.403 . S
C419 C420 1.524 . S
C419 C423 1.400 . S
C420 H405 0.960 . S
C420 H406 0.960 . S
C420 H407 0.960 . S
C420 C419 1.524 . S
C421 C418 1.403 . S
C421 C422 1.392 . S
C421 C425 1.495 . S
C422 C421 1.392 . S
C422 C423 1.385 . S
C422 C424 1.478 . S
C423 H417 0.930 . S
C423 C419 1.400 . S
C423 C422 1.385 . S
C424 C422 1.478 . S
C424 C426 1.381 . S
C424 C430 1.383 . S
C425 C421 1.495 . S
C425 H431 0.959 . S
C425 H432 0.961 . S
C425 H433 0.960 . S
C426 C424 1.381 . S
C426 C427 1.394 . S
C426 H434 0.930 . S
C427 C426 1.394 . S
C427 C428 1.383 . S
C427 H435 0.929 . S
C428 C427 1.383 . S
C428 C429 1.377 . S
C429 H413 0.930 . S
C429 C428 1.377 . S
C429 C430 1.379 . S
C430 H414 0.931 . S
C430 C424 1.383 . S
C430 C429 1.379 . S
H431 C425 0.959 . S
H432 C425 0.961 . S
H433 C425 0.960 . S
H434 C426 0.930 . S
H435 C427 0.929 . S
H436 C444 0.929 . S
H437 C446 0.930 . S
H438 C448 0.930 . S
H439 C451 0.929 . S
H440 C454 0.930 . S
H441 C456 0.960 . S
H442 C456 0.960 . S
H443 C456 0.960 . S
C444 H436 0.929 . S
C444 C445 1.377 . S
C444 C446 1.384 . S
C445 C444 1.377 . S
C445 C451 1.390 . S
C446 H437 0.930 . S
C446 C444 1.384 . S
C446 C447 1.372 . S
C447 C446 1.372 . S
C447 C448 1.400 . S
C447 C452 1.490 . S
C448 H438 0.930 . S
C448 C447 1.400 . S
C448 C451 1.386 . S
H449 C465 0.930 . S
H450 C466 0.931 . S
C451 H439 0.929 . S
C451 C445 1.390 . S
C451 C448 1.386 . S
C452 C447 1.490 . S
C452 C454 1.395 . S
C452 C455 1.403 . S
H453 C459 0.930 . S
C454 H440 0.930 . S
C454 C452 1.395 . S
C454 C457 1.403 . S
C455 C452 1.403 . S
C455 C456 1.524 . S
C455 C459 1.400 . S
C456 H441 0.960 . S
C456 H442 0.960 . S
C456 H443 0.960 . S
C456 C455 1.524 . S
C457 C454 1.403 . S
C457 C458 1.392 . S
C457 C461 1.495 . S
C458 C457 1.392 . S
C458 C459 1.385 . S
C458 C460 1.478 . S
C459 H453 0.930 . S
C459 C455 1.400 . S
C459 C458 1.385 . S
C460 C458 1.478 . S
C460 C462 1.381 . S
C460 C466 1.383 . S
C461 C457 1.495 . S
C461 H467 0.959 . S
C461 H468 0.961 . S
C461 H469 0.960 . S
C462 C460 1.381 . S
C462 C463 1.394 . S
C462 H470 0.930 . S
C463 C462 1.394 . S
C463 C464 1.383 . S
C463 H471 0.929 . S
C464 C463 1.383 . S
C464 C465 1.377 . S
C465 H449 0.930 . S
C465 C464 1.377 . S
C465 C466 1.379 . S
C466 H450 0.931 . S
C466 C460 1.383 . S
C466 C465 1.379 . S
H467 C461 0.959 . S
H468 C461 0.961 . S
H469 C461 0.960 . S
H470 C462 0.930 . S
H471 C463 0.929 . S
H472 C480 0.929 . S
H473 C482 0.930 . S
H474 C484 0.930 . S
H475 C487 0.929 . S
H476 C490 0.930 . S
H477 C492 0.960 . S
H478 C492 0.960 . S
H479 C492 0.960 . S
C480 H472 0.929 . S
C480 C481 1.377 . S
C480 C482 1.384 . S
C481 C480 1.377 . S
C481 C487 1.390 . S
C482 H473 0.930 . S
C482 C480 1.384 . S
C482 C483 1.372 . S
C483 C482 1.372 . S
C483 C484 1.400 . S
C483 C488 1.490 . S
C484 H474 0.930 . S
C484 C483 1.400 . S
C484 C487 1.386 . S
H485 C501 0.930 . S
H486 C502 0.931 . S
C487 H475 0.929 . S
C487 C481 1.390 . S
C487 C484 1.386 . S
C488 C483 1.490 . S
C488 C490 1.395 . S
C488 C491 1.403 . S
H489 C495 0.930 . S
C490 H476 0.930 . S
C490 C488 1.395 . S
C490 C493 1.403 . S
C491 C488 1.403 . S
C491 C492 1.524 . S
C491 C495 1.400 . S
C492 H477 0.960 . S
C492 H478 0.960 . S
C492 H479 0.960 . S
C492 C491 1.524 . S
C493 C490 1.403 . S
C493 C494 1.392 . S
C493 C497 1.495 . S
C494 C493 1.392 . S
C494 C495 1.385 . S
C494 C496 1.478 . S
C495 H489 0.930 . S
C495 C491 1.400 . S
C495 C494 1.385 . S
C496 C494 1.478 . S
C496 C498 1.381 . S
C496 C502 1.383 . S
C497 C493 1.495 . S
C497 H503 0.959 . S
C497 H504 0.961 . S
C497 H505 0.960 . S
C498 C496 1.381 . S
C498 C499 1.394 . S
C498 H506 0.930 . S
C499 C498 1.394 . S
C499 C500 1.383 . S
C499 H507 0.929 . S
C500 C499 1.383 . S
C500 C501 1.377 . S
C501 H485 0.930 . S
C501 C500 1.377 . S
C501 C502 1.379 . S
C502 H486 0.931 . S
C502 C496 1.383 . S
C502 C501 1.379 . S
H503 C497 0.959 . S
H504 C497 0.961 . S
H505 C497 0.960 . S
H506 C498 0.930 . S
H507 C499 0.929 . S
H508 C516 0.929 . S
H509 C518 0.930 . S
H510 C520 0.930 . S
H511 C523 0.929 . S
H512 C526 0.930 . S
H513 C528 0.960 . S
H514 C528 0.960 . S
H515 C528 0.960 . S
C516 H508 0.929 . S
C516 C517 1.377 . S
C516 C518 1.384 . S
C517 C516 1.377 . S
C517 C523 1.390 . S
C518 H509 0.930 . S
C518 C516 1.384 . S
C518 C519 1.372 . S
C519 C518 1.372 . S
C519 C520 1.400 . S
C519 C524 1.490 . S
C520 H510 0.930 . S
C520 C519 1.400 . S
C520 C523 1.386 . S
H521 C537 0.930 . S
H522 C538 0.931 . S
C523 H511 0.929 . S
C523 C517 1.390 . S
C523 C520 1.386 . S
C524 C519 1.490 . S
C524 C526 1.395 . S
C524 C527 1.403 . S
H525 C531 0.930 . S
C526 H512 0.930 . S
C526 C524 1.395 . S
C526 C529 1.403 . S
C527 C524 1.403 . S
C527 C528 1.524 . S
C527 C531 1.400 . S
C528 H513 0.960 . S
C528 H514 0.960 . S
C528 H515 0.960 . S
C528 C527 1.524 . S
C529 C526 1.403 . S
C529 C530 1.392 . S
C529 C533 1.495 . S
C530 C529 1.392 . S
C530 C531 1.385 . S
C530 C532 1.478 . S
C531 H525 0.930 . S
C531 C527 1.400 . S
C531 C530 1.385 . S
C532 C530 1.478 . S
C532 C534 1.381 . S
C532 C538 1.383 . S
C533 C529 1.495 . S
C533 H539 0.959 . S
C533 H540 0.961 . S
C533 H541 0.960 . S
C534 C532 1.381 . S
C534 C535 1.394 . S
C534 H542 0.930 . S
C535 C534 1.394 . S
C535 C536 1.383 . S
C535 H543 0.929 . S
C536 C535 1.383 . S
C536 C537 1.377 . S
C537 H521 0.930 . S
C537 C536 1.377 . S
C537 C538 1.379 . S
C538 H522 0.931 . S
C538 C532 1.383 . S
C538 C537 1.379 . S
H539 C533 0.959 . S
H540 C533 0.961 . S
H541 C533 0.960 . S
H542 C534 0.930 . S
H543 C535 0.929 . S
H544 C552 0.929 . S
H545 C554 0.930 . S
H546 C556 0.930 . S
H547 C559 0.929 . S
H548 C562 0.930 . S
H549 C564 0.960 . S
H550 C564 0.960 . S
H551 C564 0.960 . S
C552 H544 0.929 . S
C552 C553 1.377 . S
C552 C554 1.384 . S
C553 C552 1.377 . S
C553 C559 1.390 . S
C554 H545 0.930 . S
C554 C552 1.384 . S
C554 C555 1.372 . S
C555 C554 1.372 . S
C555 C556 1.400 . S
C555 C560 1.490 . S
C556 H546 0.930 . S
C556 C555 1.400 . S
C556 C559 1.386 . S
H557 C573 0.930 . S
H558 C574 0.931 . S
C559 H547 0.929 . S
C559 C553 1.390 . S
C559 C556 1.386 . S
C560 C555 1.490 . S
C560 C562 1.395 . S
C560 C563 1.403 . S
H561 C567 0.930 . S
C562 H548 0.930 . S
C562 C560 1.395 . S
C562 C565 1.403 . S
C563 C560 1.403 . S
C563 C564 1.524 . S
C563 C567 1.400 . S
C564 H549 0.960 . S
C564 H550 0.960 . S
C564 H551 0.960 . S
C564 C563 1.524 . S
C565 C562 1.403 . S
C565 C566 1.392 . S
C565 C569 1.495 . S
C566 C565 1.392 . S
C566 C567 1.385 . S
C566 C568 1.478 . S
C567 H561 0.930 . S
C567 C563 1.400 . S
C567 C566 1.385 . S
C568 C566 1.478 . S
C568 C570 1.381 . S
C568 C574 1.383 . S
C569 C565 1.495 . S
C569 H575 0.959 . S
C569 H576 0.961 . S
C569 H577 0.960 . S
C570 C568 1.381 . S
C570 C571 1.394 . S
C570 H578 0.930 . S
C571 C570 1.394 . S
C571 C572 1.383 . S
C571 H579 0.929 . S
C572 C571 1.383 . S
C572 C573 1.377 . S
C573 H557 0.930 . S
C573 C572 1.377 . S
C573 C574 1.379 . S
C574 H558 0.931 . S
C574 C568 1.383 . S
C574 C573 1.379 . S
H575 C569 0.959 . S
H576 C569 0.961 . S
H577 C569 0.960 . S
H578 C570 0.930 . S
H579 C571 0.929 . S
H580 C588 0.929 . S
H581 C590 0.930 . S
H582 C592 0.930 . S
H583 C595 0.929 . S
H584 C598 0.930 . S
H585 C600 0.960 . S
H586 C600 0.960 . S
H587 C600 0.960 . S
C588 H580 0.929 . S
C588 C589 1.377 . S
C588 C590 1.384 . S
C589 C588 1.377 . S
C589 C595 1.390 . S
C590 H581 0.930 . S
C590 C588 1.384 . S
C590 C591 1.372 . S
C591 C590 1.372 . S
C591 C592 1.400 . S
C591 C596 1.490 . S
C592 H582 0.930 . S
C592 C591 1.400 . S
C592 C595 1.386 . S
H593 C609 0.930 . S
H594 C610 0.931 . S
C595 H583 0.929 . S
C595 C589 1.390 . S
C595 C592 1.386 . S
C596 C591 1.490 . S
C596 C598 1.395 . S
C596 C599 1.403 . S
H597 C603 0.930 . S
C598 H584 0.930 . S
C598 C596 1.395 . S
C598 C601 1.403 . S
C599 C596 1.403 . S
C599 C600 1.524 . S
C599 C603 1.400 . S
C600 H585 0.960 . S
C600 H586 0.960 . S
C600 H587 0.960 . S
C600 C599 1.524 . S
C601 C598 1.403 . S
C601 C602 1.392 . S
C601 C605 1.495 . S
C602 C601 1.392 . S
C602 C603 1.385 . S
C602 C604 1.478 . S
C603 H597 0.930 . S
C603 C599 1.400 . S
C603 C602 1.385 . S
C604 C602 1.478 . S
C604 C606 1.381 . S
C604 C610 1.383 . S
C605 C601 1.495 . S
C605 H611 0.959 . S
C605 H612 0.961 . S
C605 H613 0.960 . S
C606 C604 1.381 . S
C606 C607 1.394 . S
C606 H614 0.930 . S
C607 C606 1.394 . S
C607 C608 1.383 . S
C607 H615 0.929 . S
C608 C607 1.383 . S
C608 C609 1.377 . S
C609 H593 0.930 . S
C609 C608 1.377 . S
C609 C610 1.379 . S
C610 H594 0.931 . S
C610 C604 1.383 . S
C610 C609 1.379 . S
H611 C605 0.959 . S
H612 C605 0.961 . S
H613 C605 0.960 . S
H614 C606 0.930 . S
H615 C607 0.929 . S
H616 C624 0.929 . S
H617 C626 0.930 . S
H618 C628 0.930 . S
H619 C631 0.929 . S
H620 C634 0.930 . S
H621 C636 0.960 . S
H622 C636 0.960 . S
H623 C636 0.960 . S
C624 H616 0.929 . S
C624 C625 1.377 . S
C624 C626 1.384 . S
C625 C624 1.377 . S
C625 C631 1.390 . S
C626 H617 0.930 . S
C626 C624 1.384 . S
C626 C627 1.372 . S
C627 C626 1.372 . S
C627 C628 1.400 . S
C627 C632 1.490 . S
C628 H618 0.930 . S
C628 C627 1.400 . S
C628 C631 1.386 . S
H629 C645 0.930 . S
H630 C646 0.931 . S
C631 H619 0.929 . S
C631 C625 1.390 . S
C631 C628 1.386 . S
C632 C627 1.490 . S
C632 C634 1.395 . S
C632 C635 1.403 1_554 S
H633 C639 0.930 . S
C634 H620 0.930 . S
C634 C632 1.395 . S
C634 C637 1.403 . S
C635 C632 1.403 1_556 S
C635 C636 1.524 . S
C635 C639 1.400 . S
C636 H621 0.960 . S
C636 H622 0.960 . S
C636 H623 0.960 . S
C636 C635 1.524 . S
C637 C634 1.403 . S
C637 C638 1.392 1_554 S
C637 C641 1.495 . S
C638 C637 1.392 1_556 S
C638 C639 1.385 . S
C638 C640 1.478 . S
C639 H633 0.930 . S
C639 C635 1.400 . S
C639 C638 1.385 . S
C640 C638 1.478 . S
C640 C642 1.381 . S
C640 C646 1.383 . S
C641 C637 1.495 . S
C641 H647 0.959 . S
C641 H648 0.961 . S
C641 H649 0.960 . S
C642 C640 1.381 . S
C642 C643 1.394 . S
C642 H650 0.930 . S
C643 C642 1.394 . S
C643 C644 1.383 . S
C643 H651 0.929 . S
C644 C643 1.383 . S
C644 C645 1.377 . S
C645 H629 0.930 . S
C645 C644 1.377 . S
C645 C646 1.379 . S
C646 H630 0.931 . S
C646 C640 1.383 . S
C646 C645 1.379 . S
H647 C641 0.959 . S
H648 C641 0.961 . S
H649 C641 0.960 . S
H650 C642 0.930 . S
H651 C643 0.929 . S
H652 C660 0.929 . S
H653 C662 0.930 . S
H654 C664 0.930 . S
H655 C667 0.929 . S
H656 C670 0.930 . S
H657 C672 0.960 . S
H658 C672 0.960 . S
H659 C672 0.960 . S
C660 H652 0.929 . S
C660 C661 1.377 . S
C660 C662 1.384 . S
C661 C660 1.377 . S
C661 C667 1.390 . S
C662 H653 0.930 . S
C662 C660 1.384 . S
C662 C663 1.372 . S
C663 C662 1.372 . S
C663 C664 1.400 . S
C663 C668 1.490 . S
C664 H654 0.930 . S
C664 C663 1.400 . S
C664 C667 1.386 . S
H665 C681 0.930 . S
H666 C682 0.931 . S
C667 H655 0.929 . S
C667 C661 1.390 . S
C667 C664 1.386 . S
C668 C663 1.490 . S
C668 C670 1.395 . S
C668 C671 1.403 1_554 S
H669 C675 0.930 . S
C670 H656 0.930 . S
C670 C668 1.395 . S
C670 C673 1.403 . S
C671 C668 1.403 1_556 S
C671 C672 1.524 . S
C671 C675 1.400 . S
C672 H657 0.960 . S
C672 H658 0.960 . S
C672 H659 0.960 . S
C672 C671 1.524 . S
C673 C670 1.403 . S
C673 C674 1.392 1_554 S
C673 C677 1.495 . S
C674 C673 1.392 1_556 S
C674 C675 1.385 . S
C674 C676 1.478 . S
C675 H669 0.930 . S
C675 C671 1.400 . S
C675 C674 1.385 . S
C676 C674 1.478 . S
C676 C678 1.381 . S
C676 C682 1.383 . S
C677 C673 1.495 . S
C677 H683 0.959 . S
C677 H684 0.961 . S
C677 H685 0.960 . S
C678 C676 1.381 . S
C678 C679 1.394 . S
C678 H686 0.930 . S
C679 C678 1.394 . S
C679 C680 1.383 . S
C679 H687 0.929 . S
C680 C679 1.383 . S
C680 C681 1.377 . S
C681 H665 0.930 . S
C681 C680 1.377 . S
C681 C682 1.379 . S
C682 H666 0.931 . S
C682 C676 1.383 . S
C682 C681 1.379 . S
H683 C677 0.959 . S
H684 C677 0.961 . S
H685 C677 0.960 . S
H686 C678 0.930 . S
H687 C679 0.929 . S
C121 C7 1.502 . S
C140 C35 1.518 . S
C157 C49 1.501 . S
C176 C21 1.485 . S
C193 C91 1.501 . S
C212 C63 1.482 . S
C229 C77 1.503 . S
C248 C105 1.507 . S
C265 C90 1.691 . S
C284 C6 1.682 . S
C301 C20 1.690 . S
C320 C104 1.692 . S
C337 C34 1.690 . S
C356 C62 1.693 . S
C373 C48 1.689 . S
C392 C76 1.688 . S
C409 C92 1.619 . S
C428 C8 1.621 . S
C445 C22 1.618 . S
C464 C106 1.609 . S
C481 C64 1.618 . S
C500 C36 1.606 . S
C517 C78 1.624 . S
C536 C50 1.627 . S
C553 C23 0.475 . S
C572 C9 0.567 . S
C589 C37 0.489 . S
C608 C51 0.429 . S
C625 C79 0.496 . S
C644 C65 0.511 . S
C661 C93 0.467 . S
C680 C107 0.513 . S
