# Generated by pormake.
# Topology vmc, (5)-cn, num edge types: 1
# Building blocks:
#     Node 0, Type 0, BuildingBlock: XOMCOT_clean_sbu_1, # of connection points: 5
#     Node 1, Type 0, BuildingBlock: XOMCOT_clean_sbu_1, # of connection points: 5
#     Node 2, Type 0, BuildingBlock: XOMCOT_clean_sbu_1, # of connection points: 5
#     Node 3, Type 0, BuildingBlock: XOMCOT_clean_sbu_1, # of connection points: 5
#     Node 4, Type 0, BuildingBlock: XOMCOT_clean_sbu_1, # of connection points: 5
#     Node 5, Type 0, BuildingBlock: XOMCOT_clean_sbu_1, # of connection points: 5
#     Node 6, Type 0, BuildingBlock: XOMCOT_clean_sbu_1, # of connection points: 5
#     Node 7, Type 0, BuildingBlock: XOMCOT_clean_sbu_1, # of connection points: 5
#     Edge 8, Type (0, 0), BuildingBlock: XUDNAN_clean_linker_2, # of connection points: 2
#     Edge 9, Type (0, 0), BuildingBlock: XUDNAN_clean_linker_2, # of connection points: 2
#     Edge 10, Type (0, 0), BuildingBlock: XUDNAN_clean_linker_2, # of connection points: 2
#     Edge 11, Type (0, 0), BuildingBlock: XUDNAN_clean_linker_2, # of connection points: 2
#     Edge 12, Type (0, 0), BuildingBlock: XUDNAN_clean_linker_2, # of connection points: 2
#     Edge 13, Type (0, 0), BuildingBlock: XUDNAN_clean_linker_2, # of connection points: 2
#     Edge 14, Type (0, 0), BuildingBlock: XUDNAN_clean_linker_2, # of connection points: 2
#     Edge 15, Type (0, 0), BuildingBlock: XUDNAN_clean_linker_2, # of connection points: 2
#     Edge 16, Type (0, 0), BuildingBlock: XUDNAN_clean_linker_2, # of connection points: 2
#     Edge 17, Type (0, 0), BuildingBlock: XUDNAN_clean_linker_2, # of connection points: 2
#     Edge 18, Type (0, 0), BuildingBlock: XUDNAN_clean_linker_2, # of connection points: 2
#     Edge 19, Type (0, 0), BuildingBlock: XUDNAN_clean_linker_2, # of connection points: 2
#     Edge 20, Type (0, 0), BuildingBlock: XUDNAN_clean_linker_2, # of connection points: 2
#     Edge 21, Type (0, 0), BuildingBlock: XUDNAN_clean_linker_2, # of connection points: 2
#     Edge 22, Type (0, 0), BuildingBlock: XUDNAN_clean_linker_2, # of connection points: 2
#     Edge 23, Type (0, 0), BuildingBlock: XUDNAN_clean_linker_2, # of connection points: 2
#     Edge 24, Type (0, 0), BuildingBlock: XUDNAN_clean_linker_2, # of connection points: 2
#     Edge 25, Type (0, 0), BuildingBlock: XUDNAN_clean_linker_2, # of connection points: 2
#     Edge 26, Type (0, 0), BuildingBlock: XUDNAN_clean_linker_2, # of connection points: 2
#     Edge 27, Type (0, 0), BuildingBlock: XUDNAN_clean_linker_2, # of connection points: 2
# Relax obj value: 0.404
# Max RMSD: 0.211
# Mean RMSD: 0.211
data_MOF--net-vmc--node1-XOMCOT_clean_sbu_1--edge1-XUDNAN_clean_linker_2
_symmetry_space_group_name_H-M    P1
_symmetry_Int_Tables_number       1
_symmetry_cell_setting            triclinic
loop_
_symmetry_equiv_pos_as_xyz
'x, y, z'
_cell_length_a     29.435693
_cell_length_b     48.800369
_cell_length_c     28.822329
_cell_angle_alpha  90.200664
_cell_angle_beta   98.377288
_cell_angle_gamma 89.832866
loop_
_atom_site_label
_atom_site_type_symbol
_atom_site_fract_x
_atom_site_fract_y
_atom_site_fract_z
_atom_type_partial_charge
C0 C 0.33692 0.40079 0.08135 0.0
C1 C 0.3702 0.3977 0.11973 0.0
N2 N 0.36966 0.42007 0.14726 0.0
N3 N 0.31496 0.4248 0.08499 0.0
C4 C 0.33581 0.43615 0.12529 0.0
H5 H 0.33018 0.38689 0.05185 0.0
Co6 Co 0.27187 0.44067 0.03922 0.0
C7 C 0.20099 0.45843 0.09814 0.0
O8 O 0.16799 0.44663 0.06937 0.0
N9 N 0.23119 0.45737 0.99093 0.0
C10 C 0.19238 0.48918 0.9459 0.0
C11 C 0.20219 0.4789 0.99079 0.0
C12 C 0.23898 0.45551 0.94592 0.0
N13 N 0.21613 0.47462 0.91765 0.0
O14 O 0.31052 0.4713 0.03973 0.0
H15 H 0.1927 0.48874 1.02155 0.0
H16 H 0.26415 0.44171 0.93506 0.0
O17 O 0.24213 0.45772 0.08889 0.0
C18 C 0.34272 0.46789 1.0153 0.0
O19 O 0.34323 0.44548 0.98998 0.0
N20 N 0.23597 0.40855 0.03776 0.0
C21 C 0.22916 0.35173 0.04152 0.0
C22 C 0.22487 0.36778 0.08109 0.0
C23 C 0.22851 0.39623 0.07856 0.0
C24 C 0.23409 0.39339 0.99765 0.0
C25 C 0.23036 0.36492 0.99868 0.0
H26 H 0.23235 0.4076 0.11108 0.0
H27 H 0.24186 0.40256 0.9659 0.0
H28 H 0.32727 0.45627 0.13736 0.0
H29 H 0.39439 0.38089 0.12564 0.0
H30 H 0.17284 0.5076 0.93605 0.0
H31 H 0.22362 0.35833 0.11483 0.0
H32 H 0.23412 0.35331 0.96735 0.0
C33 C 0.64535 0.40457 0.48519 0.0
C34 C 0.60802 0.40136 0.45097 0.0
N35 N 0.60593 0.42308 0.42199 0.0
N36 N 0.66714 0.42801 0.47745 0.0
C37 C 0.64215 0.43895 0.4389 0.0
H38 H 0.65541 0.39103 0.51452 0.0
Co39 Co 0.71679 0.44278 0.51702 0.0
C40 C 0.7717 0.46257 0.44031 0.0
O41 O 0.80988 0.449 0.45373 0.0
N42 N 0.76538 0.45764 0.55911 0.0
C43 C 0.83214 0.46525 0.60418 0.0
C44 C 0.81118 0.45399 0.56265 0.0
C45 C 0.75953 0.47092 0.59913 0.0
N46 N 0.79951 0.47587 0.62741 0.0
O47 O 0.68103 0.47433 0.52288 0.0
H48 H 0.82825 0.44203 0.53876 0.0
H49 H 0.72623 0.4759 0.6082 0.0
O50 O 0.7378 0.46037 0.46313 0.0
C51 C 0.64774 0.47179 0.54604 0.0
O52 O 0.64582 0.44983 0.57195 0.0
N53 N 0.7495 0.41038 0.5113 0.0
C54 C 0.75515 0.35374 0.50424 0.0
C55 C 0.75521 0.37023 0.4645 0.0
C56 C 0.75186 0.39861 0.46865 0.0
C57 C 0.75514 0.39493 0.55102 0.0
C58 C 0.75823 0.36643 0.54832 0.0
H59 H 0.74457 0.4104 0.43685 0.0
H60 H 0.75135 0.40434 0.58428 0.0
H61 H 0.64991 0.45841 0.42409 0.0
H62 H 0.5834 0.3848 0.44863 0.0
H63 H 0.86845 0.46412 0.61725 0.0
H64 H 0.75317 0.3612 0.42987 0.0
H65 H 0.7578 0.35448 0.57984 0.0
C66 C 0.65877 0.61629 0.9549 0.0
C67 C 0.62571 0.62044 0.91648 0.0
N68 N 0.62166 0.59729 0.89047 0.0
N69 N 0.67598 0.59077 0.95284 0.0
C70 C 0.65277 0.57975 0.91331 0.0
H71 H 0.66817 0.63048 0.9836 0.0
Co72 Co 0.71462 0.57188 0.99952 0.0
C73 C 0.78296 0.55057 0.94218 0.0
O74 O 0.81603 0.5609 0.97276 0.0
N75 N 0.75094 0.55175 0.0481 0.0
C76 C 0.78596 0.51774 0.09121 0.0
C77 C 0.77664 0.5288 0.04686 0.0
C78 C 0.74417 0.55346 0.09355 0.0
N79 N 0.76506 0.5332 0.12061 0.0
O80 O 0.66796 0.54531 0.99979 0.0
H81 H 0.78462 0.51889 1.01554 0.0
H82 H 0.7221 0.56863 0.10613 0.0
O83 O 0.74133 0.55235 0.94992 0.0
C84 C 0.64184 0.55552 0.027 0.0
O85 O 0.65258 0.57947 0.04653 0.0
N86 N 0.75806 0.60059 1.00219 0.0
C87 C 0.79217 0.65395 1.00921 0.0
C88 C 0.78423 0.64066 0.96556 0.0
C89 C 0.76738 0.6138 0.96281 0.0
C90 C 0.76867 0.61278 0.045 0.0
C91 C 0.7865 0.63912 0.04938 0.0
H92 H 0.7573 0.60482 0.92852 0.0
H93 H 0.75891 0.60365 0.07583 0.0
H94 H 0.65742 0.55878 0.9027 0.0
H95 H 0.60454 0.63857 0.90981 0.0
H96 H 0.8035 0.49853 0.10015 0.0
H97 H 0.7879 0.65154 0.93363 0.0
H98 H 0.791 0.64877 0.08365 0.0
C99 C 0.3373 0.61312 0.55658 0.0
C100 C 0.37413 0.61739 0.59128 0.0
N101 N 0.37862 0.59536 0.61974 0.0
N102 N 0.31825 0.58866 0.56347 0.0
C103 C 0.34424 0.57833 0.60197 0.0
H104 H 0.32592 0.62657 0.52742 0.0
Co105 Co 0.27166 0.57039 0.52401 0.0
C106 C 0.22186 0.55193 0.60447 0.0
O107 O 0.18559 0.5676 0.59319 0.0
N108 N 0.22643 0.55121 0.48282 0.0
C109 C 0.16616 0.52751 0.44838 0.0
C110 C 0.18626 0.53966 0.48944 0.0
C111 C 0.22979 0.54563 0.4373 0.0
N112 N 0.19365 0.53124 0.41549 0.0
O113 O 0.31426 0.54217 0.51741 0.0
H114 H 0.17204 0.53959 0.52173 0.0
H115 H 0.25786 0.55248 0.42002 0.0
O116 O 0.25414 0.55179 0.57914 0.0
C117 C 0.33962 0.54988 0.48774 0.0
O118 O 0.32945 0.57295 0.46511 0.0
N119 N 0.232 0.60037 0.5277 0.0
C120 C 0.20553 0.65536 0.5218 0.0
C121 C 0.21817 0.6429 0.56562 0.0
C122 C 0.23158 0.61536 0.56784 0.0
C123 C 0.21635 0.61167 0.48515 0.0
C124 C 0.20252 0.63897 0.48145 0.0
H125 H 0.24634 0.60708 0.60142 0.0
H126 H 0.21931 0.6006 0.45327 0.0
H127 H 0.33862 0.5583 0.61591 0.0
H128 H 0.39687 0.63489 0.59405 0.0
H129 H 0.13409 0.51635 0.44351 0.0
H130 H 0.22091 0.6548 0.5977 0.0
H131 H 0.19403 0.64773 0.44679 0.0
C132 C 0.83441 0.89522 0.07963 0.0
C133 C 0.86806 0.89134 0.11746 0.0
N134 N 0.86863 0.91334 0.146 0.0
N135 N 0.81338 0.91941 0.08447 0.0
C136 C 0.83497 0.92998 0.12511 0.0
H137 H 0.82704 0.88181 0.04954 0.0
Co138 Co 0.77079 0.93653 0.03954 0.0
C139 C 0.73876 0.97638 0.10564 0.0
O140 O 0.7561 0.99671 0.08421 0.0
N141 N 0.72997 0.95372 0.99322 0.0
C142 C 0.67385 0.97501 0.94687 0.0
C143 C 0.68769 0.96476 0.99148 0.0
C144 C 0.74082 0.9573 0.94983 0.0
N145 N 0.70747 0.97008 0.9207 0.0
O146 O 0.81066 0.9667 0.04154 0.0
H147 H 0.66815 0.96526 1.02047 0.0
H148 H 0.7731 0.95067 0.93991 0.0
O149 O 0.74031 0.95198 0.08969 0.0
C150 C 0.84484 0.96317 1.01986 0.0
O151 O 0.84756 0.94049 0.99567 0.0
N152 N 0.73421 0.90535 0.0357 0.0
C153 C 0.72568 0.84887 0.03596 0.0
C154 C 0.71865 0.86428 0.07553 0.0
C155 C 0.72277 0.89278 0.07462 0.0
C156 C 0.73483 0.89105 0.99513 0.0
C157 C 0.73018 0.86265 0.99435 0.0
H158 H 0.72342 0.90401 0.10708 0.0
H159 H 0.74536 0.90102 0.96505 0.0
H160 H 0.82715 0.94999 0.13814 0.0
H161 H 0.89179 0.87426 0.12216 0.0
H162 H 0.6414 0.98491 0.93456 0.0
H163 H 0.71482 0.85427 0.10821 0.0
H164 H 0.73609 0.85149 0.96321 0.0
C165 C 0.1541 0.89434 0.47665 0.0
C166 C 0.11783 0.89032 0.44139 0.0
N167 N 0.11122 0.91354 0.41604 0.0
N168 N 0.17075 0.91985 0.47321 0.0
C169 C 0.14384 0.93103 0.43612 0.0
H170 H 0.16639 0.87995 0.5041 0.0
Co171 Co 0.21515 0.9375 0.51597 0.0
C172 C 0.2312 0.97947 0.44432 0.0
O173 O 0.20497 0.99755 0.46151 0.0
N174 N 0.25831 0.95534 0.55999 0.0
C175 C 0.31676 0.97896 0.59801 0.0
C176 C 0.29927 0.96664 0.55594 0.0
C177 C 0.25205 0.96067 0.60468 0.0
N178 N 0.28681 0.9752 0.6287 0.0
O179 O 0.17163 0.9653 0.52247 0.0
H180 H 0.31509 0.96635 0.52435 0.0
H181 H 0.22174 0.95468 0.61906 0.0
O182 O 0.23815 0.95606 0.46383 0.0
C183 C 0.14514 0.95638 0.55017 0.0
O184 O 0.15403 0.93233 0.56992 0.0
N185 N 0.25516 0.90824 0.51234 0.0
C186 C 0.26737 0.85221 0.5043 0.0
C187 C 0.26949 0.8694 0.4657 0.0
C188 C 0.26343 0.89762 0.47048 0.0
C189 C 0.25994 0.89242 0.5516 0.0
C190 C 0.26633 0.86419 0.54841 0.0
H191 H 0.25848 0.90998 0.43914 0.0
H192 H 0.25208 0.90096 0.58419 0.0
H193 H 0.14727 0.95195 0.42502 0.0
H194 H 0.09672 0.87214 0.43627 0.0
H195 H 0.34891 0.98993 0.6052 0.0
H196 H 0.27074 0.86087 0.43116 0.0
H197 H 0.26438 0.85167 0.57901 0.0
C198 C 0.15538 0.11841 0.97128 0.0
C199 C 0.12004 0.12252 0.93489 0.0
N200 N 0.11277 0.09889 0.91054 0.0
N201 N 0.17072 0.09242 0.96947 0.0
C202 C 0.14416 0.08114 0.93216 0.0
H203 H 0.16781 0.13306 0.99841 0.0
Co204 Co 0.21223 0.07342 1.01352 0.0
C205 C 0.23254 0.03181 0.94325 0.0
O206 O 0.20799 0.01325 0.96115 0.0
N207 N 0.2526 0.05386 0.05825 0.0
C208 C 0.31097 0.03066 0.09753 0.0
C209 C 0.29463 0.04343 0.05568 0.0
C210 C 0.24442 0.0474 0.10191 0.0
N211 N 0.27923 0.03321 0.12668 0.0
O212 O 0.16681 0.04641 1.01587 0.0
H213 H 0.31237 0.04509 0.02549 0.0
H214 H 0.21318 0.05281 0.11525 0.0
O215 O 0.23739 0.05559 0.96192 0.0
C216 C 0.14037 0.05606 0.04322 0.0
O217 O 0.15069 0.0798 0.06377 0.0
N218 N 0.25418 0.10191 1.01478 0.0
C219 C 0.28784 0.1551 1.02193 0.0
C220 C 0.28216 0.14135 0.97858 0.0
C221 C 0.26562 0.11441 0.97578 0.0
C222 C 0.2625 0.11435 0.05751 0.0
C223 C 0.28002 0.14077 0.062 0.0
H224 H 0.25741 0.10481 0.94174 0.0
H225 H 0.25139 0.10482 0.08771 0.0
H226 H 0.14679 0.05989 0.92213 0.0
H227 H 0.09983 0.14103 0.9284 0.0
H228 H 0.34392 0.02059 0.10587 0.0
H229 H 0.28759 0.15189 0.94684 0.0
H230 H 0.283 0.15078 0.09591 0.0
C231 C 0.83654 0.1113 0.5708 0.0
C232 C 0.87147 0.11574 0.60735 0.0
N233 N 0.87202 0.09484 0.63796 0.0
N234 N 0.81475 0.08788 0.57853 0.0
C235 C 0.83716 0.0783 0.61953 0.0
H236 H 0.82848 0.12381 0.53976 0.0
Co237 Co 0.76973 0.07013 0.53672 0.0
C238 C 0.71186 0.05448 0.6133 0.0
O239 O 0.67736 0.07143 0.60168 0.0
N240 N 0.72647 0.05165 0.49332 0.0
C241 C 0.66745 0.02885 0.45433 0.0
C242 C 0.68408 0.04184 0.4959 0.0
C243 C 0.7345 0.04459 0.4498 0.0
N244 N 0.69928 0.03064 0.42531 0.0
O245 O 0.8097 0.03996 0.53733 0.0
H246 H 0.66613 0.04374 0.52576 0.0
H247 H 0.76609 0.04927 0.43654 0.0
O248 O 0.7453 0.05363 0.58958 0.0
C249 C 0.84286 0.04279 0.51406 0.0
O250 O 0.84371 0.06442 0.48717 0.0
N251 N 0.73214 0.10138 0.53478 0.0
C252 C 0.70434 0.15595 0.52496 0.0
C253 C 0.71436 0.14414 0.56957 0.0
C254 C 0.72848 0.1168 0.57376 0.0
C255 C 0.71993 0.11217 0.49116 0.0
C256 C 0.70536 0.13928 0.48546 0.0
H257 H 0.74063 0.1089 0.60834 0.0
H258 H 0.72548 0.10067 0.46042 0.0
H259 H 0.82878 0.05907 0.63475 0.0
H260 H 0.8958 0.13245 0.60994 0.0
H261 H 0.63433 0.01902 0.44607 0.0
H262 H 0.71418 0.15638 0.60097 0.0
H263 H 0.69902 0.1477 0.45038 0.0
H264 H 0.16353 0.55065 0.67099 0.0
H265 H 0.29171 0.51674 0.63811 0.0
H266 H 0.3023 0.49187 0.71329 0.0
H267 H 0.20088 0.56143 0.79229 0.0
H268 H 0.14696 0.55217 0.81055 0.0
H269 H 0.14793 0.56617 0.75299 0.0
H270 H 0.10418 0.52371 0.71556 0.0
H271 H 0.10293 0.50961 0.77306 0.0
H272 H 0.12701 0.48992 0.72949 0.0
H273 H 0.30106 0.47256 0.79359 0.0
H274 H 0.28838 0.45988 0.87284 0.0
H275 H 0.15974 0.50526 0.85373 0.0
C276 C 0.1936 0.53775 0.67928 0.0
C277 C 0.22676 0.53566 0.64842 0.0
C278 C 0.26578 0.51872 0.66099 0.0
C279 C 0.27209 0.50446 0.70366 0.0
C280 C 0.23902 0.50722 0.73341 0.0
C281 C 0.20044 0.52335 0.72176 0.0
C282 C 0.17083 0.52343 0.76071 0.0
C283 C 0.16641 0.55253 0.78029 0.0
C284 C 0.12343 0.51091 0.74368 0.0
C285 C 0.19909 0.50508 0.79632 0.0
C286 C 0.23816 0.49589 0.77973 0.0
C287 C 0.27028 0.47936 0.80672 0.0
C288 C 0.26246 0.47208 0.8519 0.0
C289 C 0.22265 0.48124 0.87005 0.0
C290 C 0.19054 0.49789 0.84137 0.0
H291 H 0.73364 0.48499 0.68462 0.0
H292 H 0.87942 0.49425 0.67773 0.0
H293 H 0.89072 0.51278 0.75792 0.0
H294 H 0.72162 0.54798 0.74824 0.0
H295 H 0.68084 0.53375 0.78244 0.0
H296 H 0.68405 0.52065 0.72449 0.0
H297 H 0.69706 0.4717 0.75836 0.0
H298 H 0.69418 0.48468 0.81645 0.0
H299 H 0.74377 0.46547 0.80499 0.0
H300 H 0.88691 0.52985 0.8392 0.0
H301 H 0.86761 0.54664 0.91457 0.0
H302 H 0.72382 0.52816 0.86836 0.0
C303 C 0.76799 0.49106 0.69938 0.0
C304 C 0.80569 0.48774 0.67417 0.0
C305 C 0.84995 0.49595 0.69596 0.0
C306 C 0.85677 0.50669 0.74166 0.0
C307 C 0.819 0.50938 0.76535 0.0
C308 C 0.7754 0.50204 0.74489 0.0
C309 C 0.74055 0.50749 0.77791 0.0
C310 C 0.70465 0.52873 0.75702 0.0
C311 C 0.71755 0.48074 0.79014 0.0
C312 C 0.77149 0.51899 0.82016 0.0
C313 C 0.81663 0.51975 0.81214 0.0
C314 C 0.85167 0.52942 0.84584 0.0
C315 C 0.84029 0.53887 0.88867 0.0
C316 C 0.79417 0.53875 0.89762 0.0
C317 C 0.75941 0.52848 0.86279 0.0
H318 H 0.82724 0.46199 0.37097 0.0
H319 H 0.70152 0.49745 0.40723 0.0
H320 H 0.68774 0.52041 0.33038 0.0
H321 H 0.86102 0.5209 0.30572 0.0
H322 H 0.88283 0.49995 0.26224 0.0
H323 H 0.88417 0.48736 0.32112 0.0
H324 H 0.83888 0.44428 0.2887 0.0
H325 H 0.8372 0.45678 0.22977 0.0
H326 H 0.78454 0.44835 0.25144 0.0
H327 H 0.68556 0.53789 0.24847 0.0
H328 H 0.6951 0.54894 0.16738 0.0
H329 H 0.82291 0.5029 0.18356 0.0
C330 C 0.79713 0.47487 0.36304 0.0
C331 C 0.76547 0.47788 0.39532 0.0
C332 C 0.72621 0.4947 0.38317 0.0
C333 C 0.71811 0.50791 0.33958 0.0
C334 C 0.74961 0.5042 0.30838 0.0
C335 C 0.78841 0.48818 0.31953 0.0
C336 C 0.81597 0.48692 0.27893 0.0
C337 C 0.86383 0.49954 0.29284 0.0
C338 C 0.81932 0.45732 0.26117 0.0
C339 C 0.78635 0.50453 0.24311 0.0
C340 C 0.74838 0.51436 0.26097 0.0
C341 C 0.71546 0.53056 0.23429 0.0
C342 C 0.72143 0.53691 0.18815 0.0
C343 C 0.76011 0.52712 0.16879 0.0
C344 C 0.79294 0.5107 0.19701 0.0
H345 H 0.26237 0.47778 0.17266 0.0
H346 H 0.11665 0.46703 0.12491 0.0
H347 H 0.09929 0.48564 0.20006 0.0
H348 H 0.25981 0.4578 0.29117 0.0
H349 H 0.30196 0.48247 0.31614 0.0
H350 H 0.30314 0.46955 0.25772 0.0
H351 H 0.29894 0.51907 0.22561 0.0
H352 H 0.29783 0.53221 0.28394 0.0
H353 H 0.25286 0.54133 0.23715 0.0
H354 H 0.09751 0.50407 0.28106 0.0
H355 H 0.11134 0.52132 0.36233 0.0
H356 H 0.25825 0.51959 0.35882 0.0
C357 C 0.22678 0.47957 0.17777 0.0
C358 C 0.19085 0.47096 0.14262 0.0
C359 C 0.14479 0.47346 0.15111 0.0
C360 C 0.13456 0.48404 0.19374 0.0
C361 C 0.17072 0.49206 0.22774 0.0
C362 C 0.21592 0.49 0.22029 0.0
C363 C 0.24835 0.49941 0.26322 0.0
C364 C 0.28018 0.4759 0.28324 0.0
C365 C 0.27613 0.5245 0.25178 0.0
C366 C 0.21427 0.50694 0.29602 0.0
C367 C 0.1697 0.50257 0.27473 0.0
C368 C 0.13227 0.50758 0.29809 0.0
C369 C 0.14051 0.51723 0.34445 0.0
C370 C 0.18587 0.52182 0.3673 0.0
C371 C 0.22315 0.51667 0.34237 0.0
H372 H 0.66258 0.01189 0.86969 0.0
H373 H 0.75561 0.94348 0.86082 0.0
H374 H 0.76437 0.9569 0.78056 0.0
H375 H 0.60633 0.00762 0.74675 0.0
H376 H 0.6012 0.04429 0.74055 0.0
H377 H 0.60038 0.0287 0.79702 0.0
H378 H 0.66796 0.05966 0.83275 0.0
H379 H 0.66913 0.07524 0.7764 0.0
H380 H 0.72032 0.05957 0.80714 0.0
H381 H 0.76833 0.97942 0.70396 0.0
H382 H 0.76321 0.00827 0.6333 0.0
H383 H 0.66456 0.06099 0.68846 0.0
C384 C 0.68413 0.99947 0.85058 0.0
C385 C 0.70886 0.9768 0.87209 0.0
C386 C 0.73709 0.96128 0.84581 0.0
C387 C 0.74205 0.96861 0.79991 0.0
C388 C 0.71816 0.99136 0.78021 0.0
C389 C 0.68932 0.00643 0.80436 0.0
C390 C 0.66846 0.03035 0.77501 0.0
C391 C 0.61597 0.02756 0.76419 0.0
C392 C 0.68231 0.05783 0.79928 0.0
C393 C 0.69071 0.02655 0.73106 0.0
C394 C 0.7193 1.00393 0.73497 0.0
C395 C 0.74554 0.99696 0.70015 0.0
C396 C 0.74249 0.01353 0.66019 0.0
C397 C 0.71314 0.03671 0.65507 0.0
C398 C 0.6867 0.04313 0.69097 0.0
H399 H 0.21101 0.98881 0.88208 0.0
H400 H 0.29414 0.06236 0.90251 0.0
H401 H 0.32036 0.05458 0.82586 0.0
H402 H 0.28952 0.94832 0.82217 0.0
H403 H 0.24376 0.9328 0.78245 0.0
H404 H 0.23404 0.94322 0.84023 0.0
H405 H 0.16508 0.97302 0.80363 0.0
H406 H 0.17469 0.96278 0.74578 0.0
H407 H 0.17352 0.99863 0.7608 0.0
H408 H 0.33502 0.03964 0.74484 0.0
H409 H 0.3353 0.01958 0.66614 0.0
H410 H 0.24266 0.95579 0.69898 0.0
C411 C 0.23529 1.00308 0.87085 0.0
C412 C 0.25073 0.02613 0.89863 0.0
C413 C 0.28187 0.04453 0.88203 0.0
C414 C 0.29703 0.04025 0.83851 0.0
C415 C 0.28072 0.0175 0.81179 0.0
C416 C 0.25051 0.99923 0.82735 0.0
C417 C 0.23643 0.97712 0.79102 0.0
C418 C 0.25187 0.94868 0.81012 0.0
C419 C 0.18435 0.97795 0.77433 0.0
C420 C 0.26316 0.98589 0.75244 0.0
C421 C 0.28872 0.00912 0.76515 0.0
C422 C 0.31536 0.02133 0.73471 0.0
C423 C 0.3155 0.00965 0.69003 0.0
C424 C 0.28901 0.98603 0.67589 0.0
C425 C 0.26296 0.97397 0.70809 0.0
H426 H 0.23194 0.05169 0.19568 0.0
H427 H 0.33048 0.99021 0.1654 0.0
H428 H 0.33189 0.97113 0.24478 0.0
H429 H 0.2785 0.06228 0.31772 0.0
H430 H 0.22287 0.06624 0.33609 0.0
H431 H 0.23109 0.07576 0.27755 0.0
H432 H 0.16491 0.04341 0.24309 0.0
H433 H 0.1564 0.03387 0.30149 0.0
H434 H 0.16703 0.00783 0.25986 0.0
H435 H 0.31973 0.95732 0.32683 0.0
H436 H 0.29551 0.95028 0.40447 0.0
H437 H 0.20472 0.02068 0.381 0.0
C438 C 0.25378 0.03417 0.20547 0.0
C439 C 0.28115 0.02254 0.17384 0.0
C440 C 0.30963 0.9998 0.18884 0.0
C441 C 0.31049 0.9887 0.23392 0.0
C442 C 0.28283 1.00057 0.26393 0.0
C443 C 0.25509 0.02285 0.25033 0.0
C444 C 0.22794 0.03148 0.28886 0.0
C445 C 0.24089 0.06067 0.30607 0.0
C446 C 0.176 0.02899 0.27233 0.0
C447 C 0.24437 0.01039 0.32614 0.0
C448 C 0.27609 0.99277 0.31113 0.0
C449 C 0.2951 0.97112 0.33899 0.0
C450 C 0.28105 0.96725 0.38308 0.0
C451 C 0.2483 0.98494 0.39911 0.0
C452 C 0.2302 0.00695 0.37019 0.0
H453 H 0.74037 0.05039 0.3535 0.0
H454 H 0.65329 0.985 0.39108 0.0
H455 H 0.65101 0.96482 0.31201 0.0
H456 H 0.68555 0.05754 0.23313 0.0
H457 H 0.73862 0.06417 0.21096 0.0
H458 H 0.73257 0.07372 0.27019 0.0
H459 H 0.8049 0.04516 0.30147 0.0
H460 H 0.81124 0.03562 0.24235 0.0
H461 H 0.80735 0.00948 0.2856 0.0
H462 H 0.66217 0.95025 0.22986 0.0
H463 H 0.68332 0.94366 0.15052 0.0
H464 H 0.76071 0.01949 0.16584 0.0
C465 C 0.72089 0.0318 0.34516 0.0
C466 C 0.69701 0.01929 0.37863 0.0
C467 C 0.67143 0.99515 0.36597 0.0
C468 C 0.67012 0.98345 0.32117 0.0
C469 C 0.6942 0.99626 0.28912 0.0
C470 C 0.71886 0.02001 0.30046 0.0
C471 C 0.7419 0.02969 0.25974 0.0
C472 C 0.72355 0.05796 0.24249 0.0
C473 C 0.79446 0.02999 0.2731 0.0
C474 C 0.72675 0.00753 0.22386 0.0
C475 C 0.69941 0.98836 0.2415 0.0
C476 C 0.68312 0.96532 0.21552 0.0
C477 C 0.69532 0.96173 0.1705 0.0
C478 C 0.72315 0.98121 0.15168 0.0
C479 C 0.73862 1.0045 0.17877 0.0
H480 H 0.4113 0.47 0.96113 0.0
H481 H 0.36626 0.50522 0.08541 0.0
H482 H 0.43944 0.53031 0.10257 0.0
H483 H 0.52708 0.45954 1.00926 0.0
H484 H 0.55042 0.46876 0.95702 0.0
H485 H 0.49345 0.45467 0.95237 0.0
H486 H 0.46012 0.49702 0.90491 0.0
H487 H 0.5171 0.51103 0.90866 0.0
H488 H 0.47203 0.53087 0.92881 0.0
H489 H 0.51801 0.5492 0.10879 0.0
H490 H 0.59541 0.56512 0.09969 0.0
H491 H 0.59003 0.51793 0.97098 0.0
C492 C 0.41659 0.48332 0.99157 0.0
C493 C 0.38321 0.48577 1.02193 0.0
C494 C 0.39126 0.5033 0.06146 0.0
C495 C 0.43279 0.51745 0.07167 0.0
C496 C 0.4655 0.51396 0.04175 0.0
C497 C 0.45769 0.49771 1.0021 0.0
C498 C 0.49874 0.49745 0.97591 0.0
C499 C 0.51858 0.46837 0.97352 0.0
C500 C 0.48624 0.50984 0.92666 0.0
C501 C 0.53109 0.51585 1.00745 0.0
C502 C 0.51114 0.52503 0.04524 0.0
C503 C 0.53393 0.54233 0.07923 0.0
C504 C 0.57787 0.55118 0.07375 0.0
C505 C 0.59848 0.54274 0.03459 0.0
C506 C 0.57517 0.52443 1.00147 0.0
H507 H 0.57136 0.47335 0.58979 0.0
H508 H 0.62979 0.50717 0.47239 0.0
H509 H 0.55538 0.52848 0.44268 0.0
H510 H 0.46293 0.45694 0.52716 0.0
H511 H 0.4306 0.46641 0.57329 0.0
H512 H 0.48912 0.45485 0.58762 0.0
H513 H 0.51156 0.49982 0.63418 0.0
H514 H 0.45242 0.51031 0.62168 0.0
H515 H 0.49696 0.53235 0.60636 0.0
H516 H 0.47443 0.54355 0.42299 0.0
H517 H 0.39361 0.55747 0.42025 0.0
H518 H 0.38753 0.51456 0.55098 0.0
C519 C 0.56874 0.48571 0.55837 0.0
C520 C 0.60632 0.48866 0.53347 0.0
C521 C 0.60156 0.50485 0.49232 0.0
C522 C 0.55933 0.51683 0.4749 0.0
C523 C 0.52254 0.51265 0.49934 0.0
C524 C 0.52695 0.49801 0.54067 0.0
C525 C 0.4819 0.49669 0.56005 0.0
C526 C 0.46517 0.46695 0.56213 0.0
C527 C 0.48599 0.51066 0.60841 0.0
C528 C 0.45148 0.51291 0.52307 0.0
C529 C 0.4756 0.52163 0.48814 0.0
C530 C 0.45518 0.53703 0.45023 0.0
C531 C 0.40926 0.54471 0.44891 0.0
C532 C 0.38445 0.53707 0.48539 0.0
C533 C 0.40552 0.52039 0.52233 0.0
H534 H 0.09258 0.01742 0.98646 0.0
H535 H 0.08942 0.06597 0.11253 0.0
H536 H 0.01197 0.04872 0.11834 0.0
H537 H 0.97562 0.02787 0.93839 0.0
H538 H 0.9667 0.99364 0.91523 0.0
H539 H 0.02305 0.00873 0.92146 0.0
H540 H 0.05684 0.96783 0.97246 0.0
H541 H 0.00085 0.95229 0.96565 0.0
H542 H 0.03161 0.95847 0.02351 0.0
H543 H 0.9344 0.02806 0.10919 0.0
H544 H 0.86317 1.00131 0.0895 0.0
H545 H 0.91647 0.96593 0.96977 0.0
C546 C 0.07584 0.02399 1.01568 0.0
C547 C 0.0968 0.04296 0.04905 0.0
C548 C 0.07375 0.05148 0.08649 0.0
C549 C 0.02976 0.04188 0.09007 0.0
C550 C 0.00942 0.02381 0.05592 0.0
C551 C 0.03175 0.01468 1.01974 0.0
C552 C 0.00184 0.99533 0.9876 0.0
C553 C 0.99118 0.00711 0.93773 0.0
C554 C 0.02411 0.96679 0.98732 0.0
C555 C 0.95945 0.99494 1.01167 0.0
C556 C 0.96443 0.01173 0.05073 0.0
C557 C 0.92997 0.01478 0.07872 0.0
C558 C 0.88958 0.99968 0.06709 0.0
C559 C 0.88444 0.98165 0.02811 0.0
C560 C 0.91956 0.9796 0.99976 0.0
H561 H 0.91571 0.03974 0.46535 0.0
H562 H 0.86401 0.00819 0.58833 0.0
H563 H 0.93783 0.98469 0.61263 0.0
H564 H 0.98171 0.97858 0.44301 0.0
H565 H 0.02696 0.99853 0.42397 0.0
H566 H 0.96907 0.0115 0.4159 0.0
H567 H -0.00118 0.05564 0.46104 0.0
H568 H 0.05638 0.04205 0.47049 0.0
H569 H 0.02934 0.0528 0.51979 0.0
H570 H 0.01723 0.96635 0.62532 0.0
H571 H 0.09567 0.94969 0.62145 0.0
H572 H 0.09626 0.99291 0.49012 0.0
C573 C 0.91973 0.02756 0.49703 0.0
C574 C 0.8842 0.02569 0.5249 0.0
C575 C 0.89066 0.00965 0.5662 0.0
C576 C 0.93255 0.99643 0.5805 0.0
C577 C 0.9673 0.99931 0.5529 0.0
C578 C 0.96118 0.01407 0.51165 0.0
C579 C 0.00409 0.01371 0.48834 0.0
C580 C -0.00511 0.99973 0.43996 0.0
C581 C 0.02328 0.04279 0.48473 0.0
C582 C 0.03535 0.99654 0.52315 0.0
C583 C 0.01342 0.98863 0.56022 0.0
C584 C 0.03478 0.97232 0.59647 0.0
C585 C 0.07931 0.96305 0.59401 0.0
C586 C 0.10185 0.97014 0.55559 0.0
C587 C 0.07999 0.98758 0.52023 0.0
H588 H 0.19816 0.30829 0.98393 0.0
H589 H 0.29209 0.32933 0.10938 0.0
H590 H 0.32237 0.28218 0.11339 0.0
H591 H 0.17296 0.23983 1.02072 0.0
H592 H 0.16998 0.22549 0.96264 0.0
H593 H 0.15578 0.26099 0.97001 0.0
H594 H 0.21627 0.27475 0.91738 0.0
H595 H 0.23135 0.23928 0.91078 0.0
H596 H 0.27501 0.26374 0.93296 0.0
H597 H 0.34357 0.23327 0.10353 0.0
H598 H 0.34697 0.18375 0.0862 0.0
H599 H 0.23961 0.19406 0.9674 0.0
C600 C 0.22481 0.30286 1.01242 0.0
C601 C 0.24234 0.32241 0.04665 0.0
C602 C 0.27732 0.31456 0.08338 0.0
C603 C 0.29527 0.28793 0.08559 0.0
C604 C 0.27794 0.26933 0.05082 0.0
C605 C 0.24301 0.27625 1.01534 0.0
C606 C 0.22953 0.252 0.98338 0.0
C607 C 0.17908 0.24411 0.98427 0.0
C608 C 0.23859 0.2578 0.93315 0.0
C609 C 0.26216 0.23037 1.00666 0.0
C610 C 0.29017 0.24094 0.04515 0.0
C611 C 0.32195 0.22474 0.0734 0.0
C612 C 0.3238 0.19671 0.0632 0.0
C613 C 0.29392 0.18518 0.02525 0.0
C614 C 0.26369 0.20243 0.99588 0.0
H615 H 0.79154 0.3102 0.55835 0.0
H616 H 0.68916 0.33109 0.43948 0.0
H617 H 0.66227 0.28333 0.43465 0.0
H618 H 0.8184 0.24282 0.51667 0.0
H619 H 0.82548 0.22776 0.57429 0.0
H620 H 0.83717 0.26362 0.56765 0.0
H621 H 0.77961 0.27559 0.62477 0.0
H622 H 0.76717 0.23977 0.6309 0.0
H623 H 0.72124 0.26356 0.61219 0.0
H624 H 0.64505 0.23371 0.44347 0.0
H625 H 0.6436 0.18423 0.46123 0.0
H626 H 0.75684 0.19548 0.57416 0.0
C627 C 0.76371 0.30464 0.53113 0.0
C628 C 0.74293 0.32432 0.49892 0.0
C629 C 0.70646 0.31626 0.46383 0.0
C630 C 0.69048 0.28924 0.46115 0.0
C631 C 0.71121 0.27048 0.49383 0.0
C632 C 0.74734 0.27769 0.52784 0.0
C633 C 0.76395 0.25336 0.55819 0.0
C634 C 0.81422 0.24649 0.55392 0.0
C635 C 0.7576 0.25838 0.60955 0.0
C636 C 0.73156 0.23141 0.5358 0.0
C637 C 0.70118 0.24178 0.49898 0.0
C638 C 0.66866 0.22531 0.47224 0.0
C639 C 0.66806 0.19728 0.48257 0.0
C640 C 0.69986 0.18605 0.51922 0.0
C641 C 0.73138 0.20354 0.54663 0.0
H642 H 0.69614 0.80597 0.97685 0.0
H643 H 0.78793 0.82641 0.10401 0.0
H644 H 0.82066 0.77982 0.10599 0.0
H645 H 0.67396 0.73617 1.01065 0.0
H646 H 0.67175 0.72297 0.95188 0.0
H647 H 0.65577 0.75799 0.96102 0.0
H648 H 0.71558 0.77398 0.90917 0.0
H649 H 0.73257 0.739 0.90097 0.0
H650 H 0.77487 0.76397 0.92441 0.0
H651 H 0.84531 0.73183 0.09307 0.0
H652 H 0.85123 0.68275 0.07352 0.0
H653 H 0.7425 0.69289 0.95587 0.0
C654 C 0.72269 0.80044 1.00539 0.0
C655 C 0.73913 0.81965 0.04058 0.0
C656 C 0.77409 0.8118 0.07729 0.0
C657 C 0.79341 0.78554 0.07832 0.0
C658 C 0.7773 0.76731 0.04248 0.0
C659 C 0.7421 0.77416 1.00723 0.0
C660 C 0.72993 0.75027 0.9741 0.0
C661 C 0.6799 0.74132 0.97446 0.0
C662 C 0.73878 0.75723 0.92421 0.0
C663 C 0.76364 0.72893 0.99642 0.0
C664 C 0.79114 0.73936 0.03537 0.0
C665 C 0.82397 0.72338 0.06267 0.0
C666 C 0.82724 0.6956 0.0512 0.0
C667 C 0.79752 0.68407 1.0131 0.0
C668 C 0.76643 0.70123 0.98451 0.0
H669 H 0.30271 0.8078 0.55682 0.0
H670 H 0.20258 0.83073 0.43738 0.0
H671 H 0.17294 0.7835 0.43192 0.0
H672 H 0.32575 0.7393 0.51386 0.0
H673 H 0.33197 0.7243 0.57151 0.0
H674 H 0.34611 0.75981 0.56478 0.0
H675 H 0.2897 0.77333 0.62223 0.0
H676 H 0.27463 0.73789 0.62826 0.0
H677 H 0.23049 0.76285 0.60974 0.0
H678 H 0.1509 0.73471 0.4421 0.0
H679 H 0.14536 0.68553 0.46013 0.0
H680 H 0.26127 0.69371 0.57119 0.0
C681 C 0.27506 0.80271 0.5291 0.0
C682 C 0.2554 0.82285 0.49714 0.0
C683 C 0.21897 0.8155 0.46154 0.0
C684 C 0.20143 0.78881 0.45853 0.0
C685 C 0.22078 0.76964 0.49124 0.0
C686 C 0.25734 0.77605 0.5253 0.0
C687 C 0.27226 0.75138 0.55557 0.0
C688 C 0.32196 0.74321 0.55114 0.0
C689 C 0.26641 0.75669 0.607 0.0
C690 C 0.23828 0.7302 0.53324 0.0
C691 C 0.20855 0.74127 0.49658 0.0
C692 C 0.17423 0.72572 0.4705 0.0
C693 C 0.17133 0.69782 0.48103 0.0
C694 C 0.20286 0.68567 0.517 0.0
C695 C 0.23605 0.70236 0.54405 0.0
H696 H 0.55657 0.38556 0.36639 0.0
H697 H 0.57598 0.47299 0.38824 0.0
H698 H 0.51555 0.48205 0.32095 0.0
H699 H 0.53799 0.38702 0.24157 0.0
H700 H 0.49514 0.36043 0.23586 0.0
H701 H 0.53928 0.36108 0.28614 0.0
H702 H 0.4771 0.36147 0.34126 0.0
H703 H 0.43274 0.36083 0.29113 0.0
H704 H 0.43333 0.38765 0.33437 0.0
H705 H 0.45289 0.48124 0.2504 0.0
H706 H 0.3956 0.47074 0.1813 0.0
H707 H 0.41667 0.38377 0.20752 0.0
C708 C 0.54786 0.40662 0.35734 0.0
C709 C 0.57104 0.42856 0.38258 0.0
C710 C 0.55912 0.45585 0.36906 0.0
C711 C 0.5246 0.46119 0.33111 0.0
C712 C 0.5024 0.43902 0.30706 0.0
C713 C 0.51368 0.41228 0.31963 0.0
C714 C 0.48543 0.39206 0.28768 0.0
C715 C 0.51631 0.3741 0.26125 0.0
C716 C 0.45536 0.37447 0.31527 0.0
C717 C 0.4566 0.41156 0.25489 0.0
C718 C 0.46664 0.43856 0.26671 0.0
C719 C 0.44462 0.46016 0.24099 0.0
C720 C 0.41185 0.45397 0.20193 0.0
C721 C 0.40148 0.42639 0.18886 0.0
C722 C 0.42406 0.40504 0.21617 0.0
H723 H 0.43171 0.63315 0.67267 0.0
H724 H 0.40716 0.54571 0.65625 0.0
H725 H 0.46768 0.53678 0.72277 0.0
H726 H 0.55532 0.62842 0.70308 0.0
H727 H 0.55856 0.65606 0.74509 0.0
H728 H 0.51337 0.65565 0.69569 0.0
H729 H 0.45256 0.65889 0.75207 0.0
H730 H 0.49753 0.65928 0.80163 0.0
H731 H 0.45286 0.63385 0.79795 0.0
H732 H 0.53009 0.53726 0.7923 0.0
H733 H 0.58936 0.5471 0.85957 0.0
H734 H 0.57549 0.63416 0.82973 0.0
C735 C 0.43923 0.6121 0.68268 0.0
C736 C 0.41431 0.59018 0.65888 0.0
C737 C 0.42509 0.56296 0.67392 0.0
C738 C 0.45972 0.55763 0.71165 0.0
C739 C 0.48344 0.57969 0.73426 0.0
C740 C 0.47371 0.60639 0.72036 0.0
C741 C 0.504 0.62642 0.75102 0.0
C742 C 0.53463 0.64259 0.72198 0.0
C743 C 0.475 0.64575 0.77722 0.0
C744 C 0.5321 0.6068 0.78445 0.0
C745 C 0.51975 0.57995 0.77409 0.0
C746 C 0.54033 0.55821 0.80049 0.0
C747 C 0.57435 0.56405 0.83858 0.0
C748 C 0.58768 0.59146 0.8501 0.0
C749 C 0.56613 0.61302 0.82228 0.0
H750 H 0.06346 0.87638 0.35747 0.0
H751 H 0.07584 0.96347 0.38781 0.0
H752 H 0.01379 0.97291 0.32275 0.0
H753 H 0.04134 0.88186 0.23303 0.0
H754 H 0.00039 0.85423 0.22569 0.0
H755 H 0.04558 0.85435 0.27504 0.0
H756 H 0.9852 0.85073 0.33181 0.0
H757 H 0.93979 0.85058 0.28262 0.0
H758 H 0.93964 0.87573 0.32855 0.0
H759 H 0.95107 0.97287 0.25293 0.0
H760 H 0.89315 0.9634 0.18413 0.0
H761 H 0.91956 0.87616 0.20178 0.0
C762 C 0.05295 0.89743 0.35081 0.0
C763 C 0.07487 0.91914 0.37788 0.0
C764 C 0.06027 0.94644 0.36732 0.0
C765 C 0.02474 0.95203 0.33055 0.0
C766 C 0.004 0.93011 0.30462 0.0
C767 C 0.01752 0.90336 0.31434 0.0
C768 C 0.98993 0.88351 0.28098 0.0
C769 C 0.02118 0.86756 0.25197 0.0
C770 C 0.96198 0.86399 0.30759 0.0
C771 C 0.95899 0.9033 0.25072 0.0
C772 C 0.96755 0.93007 0.26495 0.0
C773 C 0.94381 0.95195 0.24172 0.0
C774 C 0.91064 0.94631 0.20275 0.0
C775 C 0.90137 0.91897 0.18734 0.0
C776 C 0.92588 0.89729 0.21215 0.0
H777 H 0.06816 0.13512 0.84772 0.0
H778 H 0.07414 0.0492 0.8868 0.0
H779 H 0.01295 0.03893 0.82141 0.0
H780 H 0.94463 0.13822 0.81571 0.0
H781 H 0.94704 0.16132 0.76746 0.0
H782 H 0.99169 0.16193 0.81735 0.0
H783 H 0.05286 0.15411 0.76244 0.0
H784 H 0.0084 0.15341 0.71241 0.0
H785 H 0.0477 0.12499 0.72337 0.0
H786 H 0.9518 0.03777 0.75067 0.0
H787 H 0.89471 0.04588 0.68075 0.0
H788 H 0.92574 0.13289 0.68948 0.0
C789 C 0.05645 0.11418 0.84276 0.0
C790 C 0.07654 0.09298 0.87234 0.0
C791 C 0.06025 0.06578 0.86422 0.0
C792 C 0.02514 0.05974 0.82728 0.0
C793 C 0.00639 0.08109 0.79869 0.0
C794 C 0.02133 0.10778 0.80606 0.0
C795 C -0.00468 0.12693 0.7702 0.0
C796 C 0.96805 0.14836 0.79412 0.0
C797 C 0.02803 0.14066 0.74034 0.0
C798 C 0.96361 0.10681 0.74141 0.0
C799 C 0.97054 0.08048 0.75844 0.0
C800 C 0.94579 0.05835 0.73726 0.0
C801 C 0.91308 0.06324 0.69761 0.0
C802 C 0.90516 0.0901 0.67943 0.0
C803 C 0.93095 0.11209 0.702 0.0
loop_
_geom_bond_atom_site_label_1
_geom_bond_atom_site_label_2
_geom_bond_distance
_geom_bond_site_symmetry_2
_ccdc_geom_bond_type
C0 C1 1.351 . S
C0 N3 1.368 . S
C0 H5 0.931 . S
C1 C0 1.351 . S
C1 N2 1.373 . S
C1 H29 0.930 . S
N2 C1 1.373 . S
N2 C4 1.340 . S
N3 C0 1.368 . S
N3 C4 1.321 . S
N3 Co6 2.135 . S
C4 N2 1.340 . S
C4 N3 1.321 . S
C4 H28 0.930 . S
H5 C0 0.931 . S
Co6 N3 2.135 . S
Co6 N9 2.121 1_554 S
Co6 O14 2.055 . S
Co6 O17 2.039 . S
Co6 N20 2.140 . S
C7 O8 1.227 . S
C7 O17 1.265 . S
O8 C7 1.227 . S
N9 Co6 2.121 1_556 S
N9 C11 1.375 . S
N9 C12 1.313 . S
C10 C11 1.338 . S
C10 N13 1.377 . S
C10 H30 0.930 . S
C11 N9 1.375 . S
C11 C10 1.338 . S
C11 H15 0.931 1_556 S
C12 N9 1.313 . S
C12 N13 1.344 . S
C12 H16 0.930 . S
N13 C10 1.377 . S
N13 C12 1.344 . S
O14 Co6 2.055 . S
O14 C18 1.241 1_554 S
H15 C11 0.931 1_554 S
H16 C12 0.930 . S
O17 Co6 2.039 . S
O17 C7 1.265 . S
C18 O14 1.241 1_556 S
C18 O19 1.231 . S
O19 C18 1.231 . S
N20 Co6 2.140 . S
N20 C23 1.346 . S
N20 C24 1.345 1_554 S
C21 C22 1.387 . S
C21 C25 1.391 1_554 S
C22 C21 1.387 . S
C22 C23 1.369 . S
C22 H31 0.929 . S
C23 N20 1.346 . S
C23 C22 1.369 . S
C23 H26 0.928 . S
C24 N20 1.345 1_556 S
C24 C25 1.371 . S
C24 H27 0.931 . S
C25 C21 1.391 1_556 S
C25 C24 1.371 . S
C25 H32 0.930 . S
H26 C23 0.928 . S
H27 C24 0.931 . S
H28 C4 0.930 . S
H29 C1 0.930 . S
H30 C10 0.930 . S
H31 C22 0.929 . S
H32 C25 0.930 . S
C33 C34 1.351 . S
C33 N36 1.368 . S
C33 H38 0.931 . S
C34 C33 1.351 . S
C34 N35 1.373 . S
C34 H62 0.930 . S
N35 C34 1.373 . S
N35 C37 1.340 . S
N36 C33 1.368 . S
N36 C37 1.321 . S
N36 Co39 2.135 . S
C37 N35 1.340 . S
C37 N36 1.321 . S
C37 H61 0.930 . S
H38 C33 0.931 . S
Co39 N36 2.135 . S
Co39 N42 2.121 . S
Co39 O47 2.055 . S
Co39 O50 2.039 . S
Co39 N53 2.140 . S
C40 O41 1.227 . S
C40 O50 1.265 . S
O41 C40 1.227 . S
N42 Co39 2.121 . S
N42 C44 1.375 . S
N42 C45 1.313 . S
C43 C44 1.338 . S
C43 N46 1.377 . S
C43 H63 0.930 . S
C44 N42 1.375 . S
C44 C43 1.338 . S
C44 H48 0.931 . S
C45 N42 1.313 . S
C45 N46 1.344 . S
C45 H49 0.930 . S
N46 C43 1.377 . S
N46 C45 1.344 . S
O47 Co39 2.055 . S
O47 C51 1.253 . S
H48 C44 0.931 . S
H49 C45 0.930 . S
O50 Co39 2.039 . S
O50 C40 1.265 . S
C51 O47 1.253 . S
C51 O52 1.227 . S
O52 C51 1.227 . S
N53 Co39 2.140 . S
N53 C56 1.346 . S
N53 C57 1.345 . S
C54 C55 1.387 . S
C54 C58 1.391 . S
C55 C54 1.387 . S
C55 C56 1.369 . S
C55 H64 0.929 . S
C56 N53 1.346 . S
C56 C55 1.369 . S
C56 H59 0.928 . S
C57 N53 1.345 . S
C57 C58 1.371 . S
C57 H60 0.931 . S
C58 C54 1.391 . S
C58 C57 1.371 . S
C58 H65 0.930 . S
H59 C56 0.928 . S
H60 C57 0.931 . S
H61 C37 0.930 . S
H62 C34 0.930 . S
H63 C43 0.930 . S
H64 C55 0.929 . S
H65 C58 0.930 . S
C66 C67 1.351 . S
C66 N69 1.368 . S
C66 H71 0.931 . S
C67 C66 1.351 . S
C67 N68 1.373 . S
C67 H95 0.930 . S
N68 C67 1.373 . S
N68 C70 1.340 . S
N69 C66 1.368 . S
N69 C70 1.321 . S
N69 Co72 2.135 . S
C70 N68 1.340 . S
C70 N69 1.321 . S
C70 H94 0.930 . S
H71 C66 0.931 . S
Co72 N69 2.135 . S
Co72 N75 2.121 1_556 S
Co72 O80 2.055 . S
Co72 O83 2.039 . S
Co72 N86 2.140 . S
C73 O74 1.227 . S
C73 O83 1.265 . S
O74 C73 1.227 . S
N75 Co72 2.121 1_554 S
N75 C77 1.375 . S
N75 C78 1.313 . S
C76 C77 1.338 . S
C76 N79 1.377 . S
C76 H96 0.930 . S
C77 N75 1.375 . S
C77 C76 1.338 . S
C77 H81 0.931 1_554 S
C78 N75 1.313 . S
C78 N79 1.344 . S
C78 H82 0.930 . S
N79 C76 1.377 . S
N79 C78 1.344 . S
O80 Co72 2.055 . S
O80 C84 1.241 1_556 S
H81 C77 0.931 1_556 S
H82 C78 0.930 . S
O83 Co72 2.039 . S
O83 C73 1.265 . S
C84 O80 1.241 1_554 S
C84 O85 1.231 . S
O85 C84 1.231 . S
N86 Co72 2.140 . S
N86 C89 1.346 . S
N86 C90 1.345 1_556 S
C87 C88 1.387 . S
C87 C91 1.391 1_556 S
C88 C87 1.387 . S
C88 C89 1.369 . S
C88 H97 0.929 . S
C89 N86 1.346 . S
C89 C88 1.369 . S
C89 H92 0.928 . S
C90 N86 1.345 1_554 S
C90 C91 1.371 . S
C90 H93 0.931 . S
C91 C87 1.391 1_554 S
C91 C90 1.371 . S
C91 H98 0.930 . S
H92 C89 0.928 . S
H93 C90 0.931 . S
H94 C70 0.930 . S
H95 C67 0.930 . S
H96 C76 0.930 . S
H97 C88 0.929 . S
H98 C91 0.930 . S
C99 C100 1.351 . S
C99 N102 1.368 . S
C99 H104 0.931 . S
C100 C99 1.351 . S
C100 N101 1.373 . S
C100 H128 0.930 . S
N101 C100 1.373 . S
N101 C103 1.340 . S
N102 C99 1.368 . S
N102 C103 1.321 . S
N102 Co105 2.135 . S
C103 N101 1.340 . S
C103 N102 1.321 . S
C103 H127 0.930 . S
H104 C99 0.931 . S
Co105 N102 2.135 . S
Co105 N108 2.121 . S
Co105 O113 2.055 . S
Co105 O116 2.039 . S
Co105 N119 2.140 . S
C106 O107 1.227 . S
C106 O116 1.265 . S
O107 C106 1.227 . S
N108 Co105 2.121 . S
N108 C110 1.375 . S
N108 C111 1.313 . S
C109 C110 1.338 . S
C109 N112 1.377 . S
C109 H129 0.930 . S
C110 N108 1.375 . S
C110 C109 1.338 . S
C110 H114 0.931 . S
C111 N108 1.313 . S
C111 N112 1.344 . S
C111 H115 0.930 . S
N112 C109 1.377 . S
N112 C111 1.344 . S
O113 Co105 2.055 . S
O113 C117 1.253 . S
H114 C110 0.931 . S
H115 C111 0.930 . S
O116 Co105 2.039 . S
O116 C106 1.265 . S
C117 O113 1.253 . S
C117 O118 1.227 . S
O118 C117 1.227 . S
N119 Co105 2.140 . S
N119 C122 1.346 . S
N119 C123 1.345 . S
C120 C121 1.387 . S
C120 C124 1.391 . S
C121 C120 1.387 . S
C121 C122 1.369 . S
C121 H130 0.929 . S
C122 N119 1.346 . S
C122 C121 1.369 . S
C122 H125 0.928 . S
C123 N119 1.345 . S
C123 C124 1.371 . S
C123 H126 0.931 . S
C124 C120 1.391 . S
C124 C123 1.371 . S
C124 H131 0.930 . S
H125 C122 0.928 . S
H126 C123 0.931 . S
H127 C103 0.930 . S
H128 C100 0.930 . S
H129 C109 0.930 . S
H130 C121 0.929 . S
H131 C124 0.930 . S
C132 C133 1.351 . S
C132 N135 1.368 . S
C132 H137 0.931 . S
C133 C132 1.351 . S
C133 N134 1.373 . S
C133 H161 0.930 . S
N134 C133 1.373 . S
N134 C136 1.340 . S
N135 C132 1.368 . S
N135 C136 1.321 . S
N135 Co138 2.135 . S
C136 N134 1.340 . S
C136 N135 1.321 . S
C136 H160 0.930 . S
H137 C132 0.931 . S
Co138 N135 2.135 . S
Co138 N141 2.121 1_554 S
Co138 O146 2.055 . S
Co138 O149 2.039 . S
Co138 N152 2.140 . S
C139 O140 1.227 . S
C139 O149 1.265 . S
O140 C139 1.227 . S
N141 Co138 2.121 1_556 S
N141 C143 1.375 . S
N141 C144 1.313 . S
C142 C143 1.338 . S
C142 N145 1.377 . S
C142 H162 0.930 . S
C143 N141 1.375 . S
C143 C142 1.338 . S
C143 H147 0.931 1_556 S
C144 N141 1.313 . S
C144 N145 1.344 . S
C144 H148 0.930 . S
N145 C142 1.377 . S
N145 C144 1.344 . S
O146 Co138 2.055 . S
O146 C150 1.241 1_554 S
H147 C143 0.931 1_554 S
H148 C144 0.930 . S
O149 Co138 2.039 . S
O149 C139 1.265 . S
C150 O146 1.241 1_556 S
C150 O151 1.231 . S
O151 C150 1.231 . S
N152 Co138 2.140 . S
N152 C155 1.346 . S
N152 C156 1.345 1_554 S
C153 C154 1.387 . S
C153 C157 1.391 1_554 S
C154 C153 1.387 . S
C154 C155 1.369 . S
C154 H163 0.929 . S
C155 N152 1.346 . S
C155 C154 1.369 . S
C155 H158 0.928 . S
C156 N152 1.345 1_556 S
C156 C157 1.371 . S
C156 H159 0.931 . S
C157 C153 1.391 1_556 S
C157 C156 1.371 . S
C157 H164 0.930 . S
H158 C155 0.928 . S
H159 C156 0.931 . S
H160 C136 0.930 . S
H161 C133 0.930 . S
H162 C142 0.930 . S
H163 C154 0.929 . S
H164 C157 0.930 . S
C165 C166 1.351 . S
C165 N168 1.368 . S
C165 H170 0.931 . S
C166 C165 1.351 . S
C166 N167 1.373 . S
C166 H194 0.930 . S
N167 C166 1.373 . S
N167 C169 1.340 . S
N168 C165 1.368 . S
N168 C169 1.321 . S
N168 Co171 2.135 . S
C169 N167 1.340 . S
C169 N168 1.321 . S
C169 H193 0.930 . S
H170 C165 0.931 . S
Co171 N168 2.135 . S
Co171 N174 2.121 . S
Co171 O179 2.055 . S
Co171 O182 2.039 . S
Co171 N185 2.140 . S
C172 O173 1.227 . S
C172 O182 1.265 . S
O173 C172 1.227 . S
N174 Co171 2.121 . S
N174 C176 1.375 . S
N174 C177 1.313 . S
C175 C176 1.338 . S
C175 N178 1.377 . S
C175 H195 0.930 . S
C176 N174 1.375 . S
C176 C175 1.338 . S
C176 H180 0.931 . S
C177 N174 1.313 . S
C177 N178 1.344 . S
C177 H181 0.930 . S
N178 C175 1.377 . S
N178 C177 1.344 . S
O179 Co171 2.055 . S
O179 C183 1.253 . S
H180 C176 0.931 . S
H181 C177 0.930 . S
O182 Co171 2.039 . S
O182 C172 1.265 . S
C183 O179 1.253 . S
C183 O184 1.227 . S
O184 C183 1.227 . S
N185 Co171 2.140 . S
N185 C188 1.346 . S
N185 C189 1.345 . S
C186 C187 1.387 . S
C186 C190 1.391 . S
C187 C186 1.387 . S
C187 C188 1.369 . S
C187 H196 0.929 . S
C188 N185 1.346 . S
C188 C187 1.369 . S
C188 H191 0.928 . S
C189 N185 1.345 . S
C189 C190 1.371 . S
C189 H192 0.931 . S
C190 C186 1.391 . S
C190 C189 1.371 . S
C190 H197 0.930 . S
H191 C188 0.928 . S
H192 C189 0.931 . S
H193 C169 0.930 . S
H194 C166 0.930 . S
H195 C175 0.930 . S
H196 C187 0.929 . S
H197 C190 0.930 . S
C198 C199 1.351 . S
C198 N201 1.368 . S
C198 H203 0.931 . S
C199 C198 1.351 . S
C199 N200 1.373 . S
C199 H227 0.930 . S
N200 C199 1.373 . S
N200 C202 1.340 . S
N201 C198 1.368 . S
N201 C202 1.321 . S
N201 Co204 2.135 . S
C202 N200 1.340 . S
C202 N201 1.321 . S
C202 H226 0.930 . S
H203 C198 0.931 . S
Co204 N201 2.135 . S
Co204 N207 2.121 1_556 S
Co204 O212 2.055 . S
Co204 O215 2.039 . S
Co204 N218 2.140 . S
C205 O206 1.227 . S
C205 O215 1.265 . S
O206 C205 1.227 . S
N207 Co204 2.121 1_554 S
N207 C209 1.375 . S
N207 C210 1.313 . S
C208 C209 1.338 . S
C208 N211 1.377 . S
C208 H228 0.930 . S
C209 N207 1.375 . S
C209 C208 1.338 . S
C209 H213 0.931 1_554 S
C210 N207 1.313 . S
C210 N211 1.344 . S
C210 H214 0.930 . S
N211 C208 1.377 . S
N211 C210 1.344 . S
O212 Co204 2.055 . S
O212 C216 1.241 1_556 S
H213 C209 0.931 1_556 S
H214 C210 0.930 . S
O215 Co204 2.039 . S
O215 C205 1.265 . S
C216 O212 1.241 1_554 S
C216 O217 1.231 . S
O217 C216 1.231 . S
N218 Co204 2.140 . S
N218 C221 1.346 . S
N218 C222 1.345 1_556 S
C219 C220 1.387 . S
C219 C223 1.391 1_556 S
C220 C219 1.387 . S
C220 C221 1.369 . S
C220 H229 0.929 . S
C221 N218 1.346 . S
C221 C220 1.369 . S
C221 H224 0.928 . S
C222 N218 1.345 1_554 S
C222 C223 1.371 . S
C222 H225 0.931 . S
C223 C219 1.391 1_554 S
C223 C222 1.371 . S
C223 H230 0.930 . S
H224 C221 0.928 . S
H225 C222 0.931 . S
H226 C202 0.930 . S
H227 C199 0.930 . S
H228 C208 0.930 . S
H229 C220 0.929 . S
H230 C223 0.930 . S
C231 C232 1.351 . S
C231 N234 1.368 . S
C231 H236 0.931 . S
C232 C231 1.351 . S
C232 N233 1.373 . S
C232 H260 0.930 . S
N233 C232 1.373 . S
N233 C235 1.340 . S
N234 C231 1.368 . S
N234 C235 1.321 . S
N234 Co237 2.135 . S
C235 N233 1.340 . S
C235 N234 1.321 . S
C235 H259 0.930 . S
H236 C231 0.931 . S
Co237 N234 2.135 . S
Co237 N240 2.121 . S
Co237 O245 2.055 . S
Co237 O248 2.039 . S
Co237 N251 2.140 . S
C238 O239 1.227 . S
C238 O248 1.265 . S
O239 C238 1.227 . S
N240 Co237 2.121 . S
N240 C242 1.375 . S
N240 C243 1.313 . S
C241 C242 1.338 . S
C241 N244 1.377 . S
C241 H261 0.930 . S
C242 N240 1.375 . S
C242 C241 1.338 . S
C242 H246 0.931 . S
C243 N240 1.313 . S
C243 N244 1.344 . S
C243 H247 0.930 . S
N244 C241 1.377 . S
N244 C243 1.344 . S
O245 Co237 2.055 . S
O245 C249 1.253 . S
H246 C242 0.931 . S
H247 C243 0.930 . S
O248 Co237 2.039 . S
O248 C238 1.265 . S
C249 O245 1.253 . S
C249 O250 1.227 . S
O250 C249 1.227 . S
N251 Co237 2.140 . S
N251 C254 1.346 . S
N251 C255 1.345 . S
C252 C253 1.387 . S
C252 C256 1.391 . S
C253 C252 1.387 . S
C253 C254 1.369 . S
C253 H262 0.929 . S
C254 N251 1.346 . S
C254 C253 1.369 . S
C254 H257 0.928 . S
C255 N251 1.345 . S
C255 C256 1.371 . S
C255 H258 0.931 . S
C256 C252 1.391 . S
C256 C255 1.371 . S
C256 H263 0.930 . S
H257 C254 0.928 . S
H258 C255 0.931 . S
H259 C235 0.930 . S
H260 C232 0.930 . S
H261 C241 0.930 . S
H262 C253 0.929 . S
H263 C256 0.930 . S
H264 C276 0.930 . S
H265 C278 0.930 . S
H266 C279 0.930 . S
H267 C283 0.959 . S
H268 C283 0.959 . S
H269 C283 0.961 . S
H270 C284 0.960 . S
H271 C284 0.961 . S
H272 C284 0.959 . S
H273 C287 0.929 . S
H274 C288 0.931 . S
H275 C290 0.930 . S
C276 H264 0.930 . S
C276 C277 1.399 . S
C276 C281 1.399 . S
C277 C276 1.399 . S
C277 C278 1.376 . S
C278 H265 0.930 . S
C278 C277 1.376 . S
C278 C279 1.388 . S
C279 H266 0.930 . S
C279 C278 1.388 . S
C279 C280 1.390 . S
C280 C279 1.390 . S
C280 C281 1.394 . S
C280 C286 1.465 . S
C281 C276 1.399 . S
C281 C280 1.394 . S
C281 C282 1.516 . S
C282 C281 1.516 . S
C282 C283 1.502 . S
C282 C284 1.561 . S
C282 C285 1.526 . S
C283 H267 0.959 . S
C283 H268 0.959 . S
C283 H269 0.961 . S
C283 C282 1.502 . S
C284 H270 0.960 . S
C284 H271 0.961 . S
C284 H272 0.959 . S
C284 C282 1.561 . S
C285 C282 1.526 . S
C285 C286 1.396 . S
C285 C290 1.390 . S
C286 C280 1.465 . S
C286 C285 1.396 . S
C286 C287 1.399 . S
C287 H273 0.929 . S
C287 C286 1.399 . S
C287 C288 1.385 . S
C288 H274 0.931 . S
C288 C287 1.385 . S
C288 C289 1.389 . S
C289 C288 1.389 . S
C289 C290 1.387 . S
C290 H275 0.930 . S
C290 C285 1.390 . S
C290 C289 1.387 . S
H291 C303 0.930 . S
H292 C305 0.930 . S
H293 C306 0.930 . S
H294 C310 0.959 . S
H295 C310 0.959 . S
H296 C310 0.961 . S
H297 C311 0.960 . S
H298 C311 0.961 . S
H299 C311 0.959 . S
H300 C314 0.929 . S
H301 C315 0.931 . S
H302 C317 0.930 . S
C303 H291 0.930 . S
C303 C304 1.399 . S
C303 C308 1.399 . S
C304 C303 1.399 . S
C304 C305 1.376 . S
C305 H292 0.930 . S
C305 C304 1.376 . S
C305 C306 1.388 . S
C306 H293 0.930 . S
C306 C305 1.388 . S
C306 C307 1.390 . S
C307 C306 1.390 . S
C307 C308 1.394 . S
C307 C313 1.465 . S
C308 C303 1.399 . S
C308 C307 1.394 . S
C308 C309 1.516 . S
C309 C308 1.516 . S
C309 C310 1.502 . S
C309 C311 1.561 . S
C309 C312 1.526 . S
C310 H294 0.959 . S
C310 H295 0.959 . S
C310 H296 0.961 . S
C310 C309 1.502 . S
C311 H297 0.960 . S
C311 H298 0.961 . S
C311 H299 0.959 . S
C311 C309 1.561 . S
C312 C309 1.526 . S
C312 C313 1.396 . S
C312 C317 1.390 . S
C313 C307 1.465 . S
C313 C312 1.396 . S
C313 C314 1.399 . S
C314 H300 0.929 . S
C314 C313 1.399 . S
C314 C315 1.385 . S
C315 H301 0.931 . S
C315 C314 1.385 . S
C315 C316 1.389 . S
C316 C315 1.389 . S
C316 C317 1.387 . S
C317 H302 0.930 . S
C317 C312 1.390 . S
C317 C316 1.387 . S
H318 C330 0.930 . S
H319 C332 0.930 . S
H320 C333 0.930 . S
H321 C337 0.959 . S
H322 C337 0.959 . S
H323 C337 0.961 . S
H324 C338 0.960 . S
H325 C338 0.961 . S
H326 C338 0.959 . S
H327 C341 0.929 . S
H328 C342 0.931 . S
H329 C344 0.930 . S
C330 H318 0.930 . S
C330 C331 1.399 . S
C330 C335 1.399 . S
C331 C330 1.399 . S
C331 C332 1.376 . S
C332 H319 0.930 . S
C332 C331 1.376 . S
C332 C333 1.388 . S
C333 H320 0.930 . S
C333 C332 1.388 . S
C333 C334 1.390 . S
C334 C333 1.390 . S
C334 C335 1.394 . S
C334 C340 1.465 . S
C335 C330 1.399 . S
C335 C334 1.394 . S
C335 C336 1.516 . S
C336 C335 1.516 . S
C336 C337 1.502 . S
C336 C338 1.561 . S
C336 C339 1.526 . S
C337 H321 0.959 . S
C337 H322 0.959 . S
C337 H323 0.961 . S
C337 C336 1.502 . S
C338 H324 0.960 . S
C338 H325 0.961 . S
C338 H326 0.959 . S
C338 C336 1.561 . S
C339 C336 1.526 . S
C339 C340 1.396 . S
C339 C344 1.390 . S
C340 C334 1.465 . S
C340 C339 1.396 . S
C340 C341 1.399 . S
C341 H327 0.929 . S
C341 C340 1.399 . S
C341 C342 1.385 . S
C342 H328 0.931 . S
C342 C341 1.385 . S
C342 C343 1.389 . S
C343 C342 1.389 . S
C343 C344 1.387 . S
C344 H329 0.930 . S
C344 C339 1.390 . S
C344 C343 1.387 . S
H345 C357 0.930 . S
H346 C359 0.930 . S
H347 C360 0.930 . S
H348 C364 0.959 . S
H349 C364 0.959 . S
H350 C364 0.961 . S
H351 C365 0.960 . S
H352 C365 0.961 . S
H353 C365 0.959 . S
H354 C368 0.929 . S
H355 C369 0.931 . S
H356 C371 0.930 . S
C357 H345 0.930 . S
C357 C358 1.399 . S
C357 C362 1.399 . S
C358 C357 1.399 . S
C358 C359 1.376 . S
C359 H346 0.930 . S
C359 C358 1.376 . S
C359 C360 1.388 . S
C360 H347 0.930 . S
C360 C359 1.388 . S
C360 C361 1.390 . S
C361 C360 1.390 . S
C361 C362 1.394 . S
C361 C367 1.465 . S
C362 C357 1.399 . S
C362 C361 1.394 . S
C362 C363 1.516 . S
C363 C362 1.516 . S
C363 C364 1.502 . S
C363 C365 1.561 . S
C363 C366 1.526 . S
C364 H348 0.959 . S
C364 H349 0.959 . S
C364 H350 0.961 . S
C364 C363 1.502 . S
C365 H351 0.960 . S
C365 H352 0.961 . S
C365 H353 0.959 . S
C365 C363 1.561 . S
C366 C363 1.526 . S
C366 C367 1.396 . S
C366 C371 1.390 . S
C367 C361 1.465 . S
C367 C366 1.396 . S
C367 C368 1.399 . S
C368 H354 0.929 . S
C368 C367 1.399 . S
C368 C369 1.385 . S
C369 H355 0.931 . S
C369 C368 1.385 . S
C369 C370 1.389 . S
C370 C369 1.389 . S
C370 C371 1.387 . S
C371 H356 0.930 . S
C371 C366 1.390 . S
C371 C370 1.387 . S
H372 C384 0.930 . S
H373 C386 0.930 . S
H374 C387 0.930 . S
H375 C391 0.959 . S
H376 C391 0.959 . S
H377 C391 0.961 . S
H378 C392 0.960 . S
H379 C392 0.961 . S
H380 C392 0.959 . S
H381 C395 0.929 . S
H382 C396 0.931 . S
H383 C398 0.930 . S
C384 H372 0.930 . S
C384 C385 1.399 1_545 S
C384 C389 1.399 . S
C385 C384 1.399 1_565 S
C385 C386 1.376 . S
C386 H373 0.930 . S
C386 C385 1.376 . S
C386 C387 1.388 . S
C387 H374 0.930 . S
C387 C386 1.388 . S
C387 C388 1.390 . S
C388 C387 1.390 . S
C388 C389 1.394 1_565 S
C388 C394 1.465 . S
C389 C384 1.399 . S
C389 C388 1.394 1_545 S
C389 C390 1.516 . S
C390 C389 1.516 . S
C390 C391 1.502 . S
C390 C392 1.561 . S
C390 C393 1.526 . S
C391 H375 0.959 . S
C391 H376 0.959 . S
C391 H377 0.961 . S
C391 C390 1.502 . S
C392 H378 0.960 . S
C392 H379 0.961 . S
C392 H380 0.959 . S
C392 C390 1.561 . S
C393 C390 1.526 . S
C393 C394 1.396 1_545 S
C393 C398 1.390 . S
C394 C388 1.465 . S
C394 C393 1.396 1_565 S
C394 C395 1.399 . S
C395 H381 0.929 . S
C395 C394 1.399 . S
C395 C396 1.385 . S
C396 H382 0.931 . S
C396 C395 1.385 . S
C396 C397 1.389 1_565 S
C397 C396 1.389 1_545 S
C397 C398 1.387 . S
C398 H383 0.930 . S
C398 C393 1.390 . S
C398 C397 1.387 . S
H399 C411 0.930 1_565 S
H400 C413 0.930 . S
H401 C414 0.930 . S
H402 C418 0.959 . S
H403 C418 0.959 . S
H404 C418 0.961 . S
H405 C419 0.960 . S
H406 C419 0.961 . S
H407 C419 0.959 . S
H408 C422 0.929 . S
H409 C423 0.931 . S
H410 C425 0.930 . S
C411 H399 0.930 1_545 S
C411 C412 1.399 . S
C411 C416 1.396 1_545 S
C412 C411 1.399 . S
C412 C413 1.376 . S
C413 H400 0.930 . S
C413 C412 1.376 . S
C413 C414 1.388 . S
C414 H401 0.930 . S
C414 C413 1.388 . S
C414 C415 1.390 . S
C415 C414 1.390 . S
C415 C416 1.373 1_545 S
C415 C421 1.465 . S
C416 C411 1.396 1_565 S
C416 C415 1.373 1_565 S
C416 C417 1.539 . S
C417 C416 1.539 . S
C417 C418 1.502 . S
C417 C419 1.561 . S
C417 C420 1.526 . S
C418 H402 0.959 . S
C418 H403 0.959 . S
C418 H404 0.961 . S
C418 C417 1.502 . S
C419 H405 0.960 . S
C419 H406 0.961 . S
C419 H407 0.959 . S
C419 C417 1.561 . S
C420 C417 1.526 . S
C420 C421 1.396 1_565 S
C420 C425 1.390 . S
C421 C415 1.465 . S
C421 C420 1.396 1_545 S
C421 C422 1.399 . S
C422 H408 0.929 . S
C422 C421 1.399 . S
C422 C423 1.385 . S
C423 H409 0.931 . S
C423 C422 1.385 . S
C423 C424 1.389 1_545 S
C424 C423 1.389 1_565 S
C424 C425 1.387 . S
C425 H410 0.930 . S
C425 C420 1.390 . S
C425 C424 1.387 . S
H426 C438 0.930 . S
H427 C440 0.930 . S
H428 C441 0.930 . S
H429 C445 0.959 . S
H430 C445 0.959 . S
H431 C445 0.961 . S
H432 C446 0.960 . S
H433 C446 0.961 . S
H434 C446 0.959 . S
H435 C449 0.929 . S
H436 C450 0.931 . S
H437 C452 0.930 1_545 S
C438 H426 0.930 . S
C438 C439 1.399 . S
C438 C443 1.399 . S
C439 C438 1.399 . S
C439 C440 1.376 1_545 S
C440 H427 0.930 . S
C440 C439 1.376 1_565 S
C440 C441 1.388 . S
C441 H428 0.930 . S
C441 C440 1.388 . S
C441 C442 1.390 . S
C442 C441 1.390 . S
C442 C443 1.394 1_565 S
C442 C448 1.465 . S
C443 C438 1.399 . S
C443 C442 1.394 1_545 S
C443 C444 1.516 . S
C444 C443 1.516 . S
C444 C445 1.502 . S
C444 C446 1.561 . S
C444 C447 1.522 . S
C445 H429 0.959 . S
C445 H430 0.959 . S
C445 H431 0.961 . S
C445 C444 1.502 . S
C446 H432 0.960 . S
C446 H433 0.961 . S
C446 H434 0.959 . S
C446 C444 1.561 . S
C447 C444 1.522 . S
C447 C448 1.399 1_545 S
C447 C452 1.390 1_545 S
C448 C442 1.465 . S
C448 C447 1.399 1_565 S
C448 C449 1.399 . S
C449 H435 0.929 . S
C449 C448 1.399 . S
C449 C450 1.385 . S
C450 H436 0.931 . S
C450 C449 1.385 . S
C450 C451 1.389 . S
C451 C450 1.389 . S
C451 C452 1.387 . S
C452 H437 0.930 1_565 S
C452 C447 1.390 1_565 S
C452 C451 1.387 . S
H453 C465 0.930 . S
H454 C467 0.930 . S
H455 C468 0.930 . S
H456 C472 0.959 . S
H457 C472 0.959 . S
H458 C472 0.961 . S
H459 C473 0.960 . S
H460 C473 0.961 . S
H461 C473 0.959 . S
H462 C476 0.929 . S
H463 C477 0.931 . S
H464 C479 0.930 1_545 S
C465 H453 0.930 . S
C465 C466 1.399 . S
C465 C470 1.399 . S
C466 C465 1.399 . S
C466 C467 1.376 1_545 S
C467 H454 0.930 . S
C467 C466 1.376 1_565 S
C467 C468 1.388 . S
C468 H455 0.930 . S
C468 C467 1.388 . S
C468 C469 1.390 . S
C469 C468 1.390 . S
C469 C470 1.394 1_565 S
C469 C475 1.465 . S
C470 C465 1.399 . S
C470 C469 1.394 1_545 S
C470 C471 1.516 . S
C471 C470 1.516 . S
C471 C472 1.502 . S
C471 C473 1.561 . S
C471 C474 1.519 1_545 S
C472 H456 0.959 . S
C472 H457 0.959 . S
C472 H458 0.961 . S
C472 C471 1.502 . S
C473 H459 0.960 . S
C473 H460 0.961 . S
C473 H461 0.959 . S
C473 C471 1.561 . S
C474 C471 1.519 1_565 S
C474 C475 1.402 . S
C474 C479 1.391 . S
C475 C469 1.465 . S
C475 C474 1.402 . S
C475 C476 1.399 . S
C476 H462 0.929 . S
C476 C475 1.399 . S
C476 C477 1.385 . S
C477 H463 0.931 . S
C477 C476 1.385 . S
C477 C478 1.389 . S
C478 C477 1.389 . S
C478 C479 1.387 . S
C479 H464 0.930 1_565 S
C479 C474 1.391 . S
C479 C478 1.387 . S
H480 C492 0.930 . S
H481 C494 0.930 . S
H482 C495 0.930 . S
H483 C499 0.959 . S
H484 C499 0.959 . S
H485 C499 0.961 . S
H486 C500 0.960 . S
H487 C500 0.961 . S
H488 C500 0.959 . S
H489 C503 0.929 . S
H490 C504 0.931 . S
H491 C506 0.930 . S
C492 H480 0.930 . S
C492 C493 1.399 . S
C492 C497 1.399 . S
C493 C492 1.399 . S
C493 C494 1.376 1_556 S
C494 H481 0.930 . S
C494 C493 1.376 1_554 S
C494 C495 1.388 . S
C495 H482 0.930 . S
C495 C494 1.388 . S
C495 C496 1.390 . S
C496 C495 1.390 . S
C496 C497 1.394 1_554 S
C496 C502 1.465 . S
C497 C492 1.399 . S
C497 C496 1.394 1_556 S
C497 C498 1.516 . S
C498 C497 1.516 . S
C498 C499 1.502 . S
C498 C500 1.561 . S
C498 C501 1.526 . S
C499 H483 0.959 . S
C499 H484 0.959 . S
C499 H485 0.961 . S
C499 C498 1.502 . S
C500 H486 0.960 . S
C500 H487 0.961 . S
C500 H488 0.959 . S
C500 C498 1.561 . S
C501 C498 1.526 . S
C501 C502 1.396 1_556 S
C501 C506 1.390 . S
C502 C496 1.465 . S
C502 C501 1.396 1_554 S
C502 C503 1.399 . S
C503 H489 0.929 . S
C503 C502 1.399 . S
C503 C504 1.385 . S
C504 H490 0.931 . S
C504 C503 1.385 . S
C504 C505 1.389 . S
C505 C504 1.389 . S
C505 C506 1.387 1_554 S
C506 H491 0.930 . S
C506 C501 1.390 . S
C506 C505 1.387 1_556 S
H507 C519 0.930 . S
H508 C521 0.930 . S
H509 C522 0.930 . S
H510 C526 0.959 . S
H511 C526 0.959 . S
H512 C526 0.961 . S
H513 C527 0.960 . S
H514 C527 0.961 . S
H515 C527 0.959 . S
H516 C530 0.929 . S
H517 C531 0.931 . S
H518 C533 0.930 . S
C519 H507 0.930 . S
C519 C520 1.399 . S
C519 C524 1.399 . S
C520 C519 1.399 . S
C520 C521 1.376 . S
C521 H508 0.930 . S
C521 C520 1.376 . S
C521 C522 1.388 . S
C522 H509 0.930 . S
C522 C521 1.388 . S
C522 C523 1.390 . S
C523 C522 1.390 . S
C523 C524 1.394 . S
C523 C529 1.465 . S
C524 C519 1.399 . S
C524 C523 1.394 . S
C524 C525 1.516 . S
C525 C524 1.516 . S
C525 C526 1.502 . S
C525 C527 1.561 . S
C525 C528 1.526 . S
C526 H510 0.959 . S
C526 H511 0.959 . S
C526 H512 0.961 . S
C526 C525 1.502 . S
C527 H513 0.960 . S
C527 H514 0.961 . S
C527 H515 0.959 . S
C527 C525 1.561 . S
C528 C525 1.526 . S
C528 C529 1.396 . S
C528 C533 1.390 . S
C529 C523 1.465 . S
C529 C528 1.396 . S
C529 C530 1.399 . S
C530 H516 0.929 . S
C530 C529 1.399 . S
C530 C531 1.385 . S
C531 H517 0.931 . S
C531 C530 1.385 . S
C531 C532 1.389 . S
C532 C531 1.389 . S
C532 C533 1.387 . S
C533 H518 0.930 . S
C533 C528 1.390 . S
C533 C532 1.387 . S
H534 C546 0.930 . S
H535 C548 0.930 . S
H536 C549 0.930 1_565 S
H537 C553 0.959 . S
H538 C553 0.959 . S
H539 C553 0.961 . S
H540 C554 0.960 . S
H541 C554 0.961 1_655 S
H542 C554 0.959 . S
H543 C557 0.929 . S
H544 C558 0.931 . S
H545 C560 0.930 . S
C546 H534 0.930 . S
C546 C547 1.399 1_556 S
C546 C551 1.399 . S
C547 C546 1.399 1_554 S
C547 C548 1.376 . S
C548 H535 0.930 . S
C548 C547 1.376 . S
C548 C549 1.388 . S
C549 H536 0.930 1_545 S
C549 C548 1.388 . S
C549 C550 1.392 . S
C550 C549 1.392 . S
C550 C551 1.403 1_554 S
C550 C556 1.456 1_445 S
C551 C546 1.399 . S
C551 C550 1.403 1_556 S
C551 C552 1.516 1_455 S
C552 C551 1.516 1_655 S
C552 C553 1.502 . S
C552 C554 1.561 1_645 S
C552 C555 1.526 1_545 S
C553 H537 0.959 . S
C553 H538 0.959 . S
C553 H539 0.961 . S
C553 C552 1.502 . S
C554 H540 0.960 . S
C554 H541 0.961 1_455 S
C554 H542 0.959 . S
C554 C552 1.561 1_465 S
C555 C552 1.526 1_565 S
C555 C556 1.396 1_556 S
C555 C560 1.390 . S
C556 C550 1.456 1_665 S
C556 C555 1.396 1_554 S
C556 C557 1.399 . S
C557 H543 0.929 . S
C557 C556 1.399 . S
C557 C558 1.385 . S
C558 H544 0.931 . S
C558 C557 1.385 . S
C558 C559 1.389 1_554 S
C559 C558 1.389 1_556 S
C559 C560 1.387 . S
C560 H545 0.930 . S
C560 C555 1.390 . S
C560 C559 1.387 . S
H561 C573 0.930 . S
H562 C575 0.930 . S
H563 C576 0.930 . S
H564 C580 0.959 . S
H565 C580 0.959 . S
H566 C580 0.961 . S
H567 C581 0.960 1_655 S
H568 C581 0.961 . S
H569 C581 0.959 . S
H570 C584 0.937 . S
H571 C585 0.931 . S
H572 C587 0.930 . S
C573 H561 0.930 . S
C573 C574 1.399 . S
C573 C578 1.399 . S
C574 C573 1.399 . S
C574 C575 1.376 . S
C575 H562 0.930 . S
C575 C574 1.376 . S
C575 C576 1.388 . S
C576 H563 0.930 . S
C576 C575 1.388 . S
C576 C577 1.390 . S
C577 C576 1.390 . S
C577 C578 1.394 . S
C577 C583 1.465 1_645 S
C578 C573 1.399 . S
C578 C577 1.394 . S
C578 C579 1.516 1_545 S
C579 C578 1.516 1_565 S
C579 C580 1.502 . S
C579 C581 1.561 1_665 S
C579 C582 1.526 1_655 S
C580 H564 0.959 . S
C580 H565 0.959 . S
C580 H566 0.961 . S
C580 C579 1.502 . S
C581 H567 0.960 1_455 S
C581 H568 0.961 . S
C581 H569 0.959 . S
C581 C579 1.561 1_445 S
C582 C579 1.526 1_455 S
C582 C583 1.396 . S
C582 C587 1.390 . S
C583 C577 1.465 1_465 S
C583 C582 1.396 . S
C583 C584 1.399 . S
C584 H570 0.937 . S
C584 C583 1.399 . S
C584 C585 1.385 . S
C585 H571 0.931 . S
C585 C584 1.385 . S
C585 C586 1.389 . S
C586 C585 1.389 . S
C586 C587 1.387 . S
C587 H572 0.930 . S
C587 C582 1.390 . S
C587 C586 1.387 . S
H588 C600 0.930 . S
H589 C602 0.930 . S
H590 C603 0.930 . S
H591 C607 0.959 1_554 S
H592 C607 0.959 . S
H593 C607 0.961 . S
H594 C608 0.960 . S
H595 C608 0.961 . S
H596 C608 0.959 . S
H597 C611 0.929 . S
H598 C612 0.931 . S
H599 C614 0.930 . S
C600 H588 0.930 . S
C600 C601 1.399 1_556 S
C600 C605 1.399 . S
C601 C600 1.399 1_554 S
C601 C602 1.376 . S
C602 H589 0.930 . S
C602 C601 1.376 . S
C602 C603 1.388 . S
C603 H590 0.930 . S
C603 C602 1.388 . S
C603 C604 1.390 . S
C604 C603 1.390 . S
C604 C605 1.394 1_554 S
C604 C610 1.465 . S
C605 C600 1.399 . S
C605 C604 1.394 1_556 S
C605 C606 1.516 . S
C606 C605 1.516 . S
C606 C607 1.502 . S
C606 C608 1.561 . S
C606 C609 1.526 . S
C607 H591 0.959 1_556 S
C607 H592 0.959 . S
C607 H593 0.961 . S
C607 C606 1.502 . S
C608 H594 0.960 . S
C608 H595 0.961 . S
C608 H596 0.959 . S
C608 C606 1.561 . S
C609 C606 1.526 . S
C609 C610 1.396 1_556 S
C609 C614 1.390 . S
C610 C604 1.465 . S
C610 C609 1.396 1_554 S
C610 C611 1.399 . S
C611 H597 0.929 . S
C611 C610 1.399 . S
C611 C612 1.385 . S
C612 H598 0.931 . S
C612 C611 1.385 . S
C612 C613 1.389 1_554 S
C613 C612 1.389 1_556 S
C613 C614 1.387 . S
C614 H599 0.930 . S
C614 C609 1.390 . S
C614 C613 1.387 . S
H615 C627 0.930 . S
H616 C629 0.930 . S
H617 C630 0.930 . S
H618 C634 0.959 . S
H619 C634 0.959 . S
H620 C634 0.961 . S
H621 C635 0.960 . S
H622 C635 0.961 . S
H623 C635 0.959 . S
H624 C638 0.929 . S
H625 C639 0.931 . S
H626 C641 0.930 . S
C627 H615 0.930 . S
C627 C628 1.399 . S
C627 C632 1.399 . S
C628 C627 1.399 . S
C628 C629 1.376 . S
C629 H616 0.930 . S
C629 C628 1.376 . S
C629 C630 1.388 . S
C630 H617 0.930 . S
C630 C629 1.388 . S
C630 C631 1.390 . S
C631 C630 1.390 . S
C631 C632 1.394 . S
C631 C637 1.465 . S
C632 C627 1.399 . S
C632 C631 1.394 . S
C632 C633 1.516 . S
C633 C632 1.516 . S
C633 C634 1.502 . S
C633 C635 1.561 . S
C633 C636 1.526 . S
C634 H618 0.959 . S
C634 H619 0.959 . S
C634 H620 0.961 . S
C634 C633 1.502 . S
C635 H621 0.960 . S
C635 H622 0.961 . S
C635 H623 0.959 . S
C635 C633 1.561 . S
C636 C633 1.526 . S
C636 C637 1.396 . S
C636 C641 1.390 . S
C637 C631 1.465 . S
C637 C636 1.396 . S
C637 C638 1.399 . S
C638 H624 0.929 . S
C638 C637 1.399 . S
C638 C639 1.385 . S
C639 H625 0.931 . S
C639 C638 1.385 . S
C639 C640 1.389 . S
C640 C639 1.389 . S
C640 C641 1.387 . S
C641 H626 0.930 . S
C641 C636 1.390 . S
C641 C640 1.387 . S
H642 C654 0.930 . S
H643 C656 0.930 . S
H644 C657 0.930 . S
H645 C661 0.959 . S
H646 C661 0.959 . S
H647 C661 0.961 . S
H648 C662 0.960 . S
H649 C662 0.961 . S
H650 C662 0.959 . S
H651 C665 0.929 . S
H652 C666 0.931 . S
H653 C668 0.930 . S
C654 H642 0.930 . S
C654 C655 1.399 1_556 S
C654 C659 1.399 . S
C655 C654 1.399 1_554 S
C655 C656 1.376 . S
C656 H643 0.930 . S
C656 C655 1.376 . S
C656 C657 1.388 . S
C657 H644 0.930 . S
C657 C656 1.388 . S
C657 C658 1.390 . S
C658 C657 1.390 . S
C658 C659 1.394 1_554 S
C658 C664 1.465 . S
C659 C654 1.399 . S
C659 C658 1.394 1_556 S
C659 C660 1.516 . S
C660 C659 1.516 . S
C660 C661 1.502 . S
C660 C662 1.561 . S
C660 C663 1.526 . S
C661 H645 0.959 . S
C661 H646 0.959 . S
C661 H647 0.961 . S
C661 C660 1.502 . S
C662 H648 0.960 . S
C662 H649 0.961 . S
C662 H650 0.959 . S
C662 C660 1.561 . S
C663 C660 1.526 . S
C663 C664 1.396 1_556 S
C663 C668 1.390 . S
C664 C658 1.465 . S
C664 C663 1.396 1_554 S
C664 C665 1.399 . S
C665 H651 0.929 . S
C665 C664 1.399 . S
C665 C666 1.385 . S
C666 H652 0.931 . S
C666 C665 1.385 . S
C666 C667 1.389 1_554 S
C667 C666 1.389 1_556 S
C667 C668 1.387 . S
C668 H653 0.930 . S
C668 C663 1.390 . S
C668 C667 1.387 . S
H669 C681 0.930 . S
H670 C683 0.930 . S
H671 C684 0.930 . S
H672 C688 0.959 . S
H673 C688 0.959 . S
H674 C688 0.961 . S
H675 C689 0.960 . S
H676 C689 0.961 . S
H677 C689 0.959 . S
H678 C692 0.929 . S
H679 C693 0.931 . S
H680 C695 0.930 . S
C681 H669 0.930 . S
C681 C682 1.399 . S
C681 C686 1.399 . S
C682 C681 1.399 . S
C682 C683 1.376 . S
C683 H670 0.930 . S
C683 C682 1.376 . S
C683 C684 1.388 . S
C684 H671 0.930 . S
C684 C683 1.388 . S
C684 C685 1.390 . S
C685 C684 1.390 . S
C685 C686 1.394 . S
C685 C691 1.465 . S
C686 C681 1.399 . S
C686 C685 1.394 . S
C686 C687 1.516 . S
C687 C686 1.516 . S
C687 C688 1.502 . S
C687 C689 1.561 . S
C687 C690 1.526 . S
C688 H672 0.959 . S
C688 H673 0.959 . S
C688 H674 0.961 . S
C688 C687 1.502 . S
C689 H675 0.960 . S
C689 H676 0.961 . S
C689 H677 0.959 . S
C689 C687 1.561 . S
C690 C687 1.526 . S
C690 C691 1.396 . S
C690 C695 1.390 . S
C691 C685 1.465 . S
C691 C690 1.396 . S
C691 C692 1.399 . S
C692 H678 0.929 . S
C692 C691 1.399 . S
C692 C693 1.385 . S
C693 H679 0.931 . S
C693 C692 1.385 . S
C693 C694 1.389 . S
C694 C693 1.389 . S
C694 C695 1.387 . S
C695 H680 0.930 . S
C695 C690 1.390 . S
C695 C694 1.387 . S
H696 C708 0.930 . S
H697 C710 0.930 . S
H698 C711 0.930 . S
H699 C715 0.959 . S
H700 C715 0.959 . S
H701 C715 0.961 . S
H702 C716 0.960 . S
H703 C716 0.961 . S
H704 C716 0.959 . S
H705 C719 0.929 . S
H706 C720 0.931 . S
H707 C722 0.930 . S
C708 H696 0.930 . S
C708 C709 1.399 . S
C708 C713 1.399 . S
C709 C708 1.399 . S
C709 C710 1.376 . S
C710 H697 0.930 . S
C710 C709 1.376 . S
C710 C711 1.388 . S
C711 H698 0.930 . S
C711 C710 1.388 . S
C711 C712 1.390 . S
C712 C711 1.390 . S
C712 C713 1.394 . S
C712 C718 1.465 . S
C713 C708 1.399 . S
C713 C712 1.394 . S
C713 C714 1.516 . S
C714 C713 1.516 . S
C714 C715 1.502 . S
C714 C716 1.561 . S
C714 C717 1.526 . S
C715 H699 0.959 . S
C715 H700 0.959 . S
C715 H701 0.961 . S
C715 C714 1.502 . S
C716 H702 0.960 . S
C716 H703 0.961 . S
C716 H704 0.959 . S
C716 C714 1.561 . S
C717 C714 1.526 . S
C717 C718 1.396 . S
C717 C722 1.390 . S
C718 C712 1.465 . S
C718 C717 1.396 . S
C718 C719 1.399 . S
C719 H705 0.929 . S
C719 C718 1.399 . S
C719 C720 1.385 . S
C720 H706 0.931 . S
C720 C719 1.385 . S
C720 C721 1.389 . S
C721 C720 1.389 . S
C721 C722 1.387 . S
C722 H707 0.930 . S
C722 C717 1.390 . S
C722 C721 1.387 . S
H723 C735 0.930 . S
H724 C737 0.930 . S
H725 C738 0.930 . S
H726 C742 0.959 . S
H727 C742 0.959 . S
H728 C742 0.961 . S
H729 C743 0.960 . S
H730 C743 0.961 . S
H731 C743 0.959 . S
H732 C746 0.929 . S
H733 C747 0.931 . S
H734 C749 0.930 . S
C735 H723 0.930 . S
C735 C736 1.399 . S
C735 C740 1.399 . S
C736 C735 1.399 . S
C736 C737 1.376 . S
C737 H724 0.930 . S
C737 C736 1.376 . S
C737 C738 1.388 . S
C738 H725 0.930 . S
C738 C737 1.388 . S
C738 C739 1.390 . S
C739 C738 1.390 . S
C739 C740 1.394 . S
C739 C745 1.465 . S
C740 C735 1.399 . S
C740 C739 1.394 . S
C740 C741 1.516 . S
C741 C740 1.516 . S
C741 C742 1.502 . S
C741 C743 1.561 . S
C741 C744 1.526 . S
C742 H726 0.959 . S
C742 H727 0.959 . S
C742 H728 0.961 . S
C742 C741 1.502 . S
C743 H729 0.960 . S
C743 H730 0.961 . S
C743 H731 0.959 . S
C743 C741 1.561 . S
C744 C741 1.526 . S
C744 C745 1.396 . S
C744 C749 1.390 . S
C745 C739 1.465 . S
C745 C744 1.396 . S
C745 C746 1.399 . S
C746 H732 0.929 . S
C746 C745 1.399 . S
C746 C747 1.385 . S
C747 H733 0.931 . S
C747 C746 1.385 . S
C747 C748 1.389 . S
C748 C747 1.389 . S
C748 C749 1.387 . S
C749 H734 0.930 . S
C749 C744 1.390 . S
C749 C748 1.387 . S
H750 C762 0.930 . S
H751 C764 0.930 . S
H752 C765 0.930 . S
H753 C769 0.959 . S
H754 C769 0.958 1_655 S
H755 C769 0.961 . S
H756 C770 0.960 1_455 S
H757 C770 0.961 . S
H758 C770 0.959 . S
H759 C773 0.929 . S
H760 C774 0.931 . S
H761 C776 0.930 . S
C762 H750 0.930 . S
C762 C763 1.399 . S
C762 C767 1.399 . S
C763 C762 1.399 . S
C763 C764 1.376 . S
C764 H751 0.930 . S
C764 C763 1.376 . S
C764 C765 1.388 . S
C765 H752 0.930 . S
C765 C764 1.388 . S
C765 C766 1.390 . S
C766 C765 1.390 . S
C766 C767 1.394 . S
C766 C772 1.465 1_455 S
C767 C762 1.399 . S
C767 C766 1.394 . S
C767 C768 1.516 . S
C768 C767 1.516 . S
C768 C769 1.502 . S
C768 C770 1.561 1_455 S
C768 C771 1.526 1_455 S
C769 H753 0.959 . S
C769 H754 0.958 1_455 S
C769 H755 0.961 . S
C769 C768 1.502 . S
C770 H756 0.960 1_655 S
C770 H757 0.961 . S
C770 H758 0.959 . S
C770 C768 1.561 1_655 S
C771 C768 1.526 1_655 S
C771 C772 1.396 . S
C771 C776 1.390 . S
C772 C766 1.465 1_655 S
C772 C771 1.396 . S
C772 C773 1.399 . S
C773 H759 0.929 . S
C773 C772 1.399 . S
C773 C774 1.385 . S
C774 H760 0.931 . S
C774 C773 1.385 . S
C774 C775 1.389 . S
C775 C774 1.389 . S
C775 C776 1.387 . S
C776 H761 0.930 . S
C776 C771 1.390 . S
C776 C775 1.387 . S
H777 C789 0.930 . S
H778 C791 0.930 . S
H779 C792 0.930 . S
H780 C796 0.959 . S
H781 C796 0.959 . S
H782 C796 0.961 1_455 S
H783 C797 0.960 . S
H784 C797 0.961 1_655 S
H785 C797 0.959 . S
H786 C800 0.929 . S
H787 C801 0.931 . S
H788 C803 0.930 . S
C789 H777 0.930 . S
C789 C790 1.399 . S
C789 C794 1.399 . S
C790 C789 1.399 . S
C790 C791 1.376 . S
C791 H778 0.930 . S
C791 C790 1.376 . S
C791 C792 1.388 . S
C792 H779 0.930 . S
C792 C791 1.388 . S
C792 C793 1.390 . S
C793 C792 1.390 . S
C793 C794 1.394 . S
C793 C799 1.465 1_455 S
C794 C789 1.399 . S
C794 C793 1.394 . S
C794 C795 1.516 . S
C795 C794 1.516 . S
C795 C796 1.502 1_455 S
C795 C797 1.561 . S
C795 C798 1.526 1_455 S
C796 H780 0.959 . S
C796 H781 0.959 . S
C796 H782 0.961 1_655 S
C796 C795 1.502 1_655 S
C797 H783 0.960 . S
C797 H784 0.961 1_455 S
C797 H785 0.959 . S
C797 C795 1.561 . S
C798 C795 1.526 1_655 S
C798 C799 1.396 . S
C798 C803 1.390 . S
C799 C793 1.465 1_655 S
C799 C798 1.396 . S
C799 C800 1.399 . S
C800 H786 0.929 . S
C800 C799 1.399 . S
C800 C801 1.385 . S
C801 H787 0.931 . S
C801 C800 1.385 . S
C801 C802 1.389 . S
C802 C801 1.389 . S
C802 C803 1.387 . S
C803 H788 0.930 . S
C803 C798 1.390 . S
C803 C802 1.387 . S
C277 C106 1.808 . S
C289 N13 1.866 . S
C304 N46 1.869 . S
C316 C73 1.757 . S
C331 C40 1.768 . S
C343 N79 1.859 . S
C358 C7 1.801 . S
C370 N112 1.876 . S
C385 N145 1.856 . S
C397 C238 1.782 . S
C412 C205 1.741 . S
C424 N178 1.862 . S
C439 N211 1.856 . S
C451 C172 1.743 . S
C466 N244 1.855 . S
C478 C139 1.742 . S
C493 C18 1.004 . S
C505 C84 1.068 . S
C520 C51 0.986 . S
C532 C117 1.069 . S
C547 C216 1.067 . S
C559 C150 0.986 . S
C574 C249 0.985 . S
C586 C183 1.070 . S
C601 C21 1.460 . S
C613 C219 1.509 . S
C628 C54 1.465 . S
C640 C252 1.497 . S
C655 C153 1.463 . S
C667 C87 1.500 . S
C682 C186 1.465 . S
C694 C120 1.498 . S
C709 N35 0.606 . S
C721 N2 0.730 . S
C736 N101 0.716 . S
C748 N68 0.687 . S
C763 N167 0.600 . S
C775 N134 0.739 . S
C790 N200 0.744 . S
C802 N233 0.659 . S
