# Generated by pormake.
# Topology wli, (5)-cn, num edge types: 1
# Building blocks:
#     Node 0, Type 0, BuildingBlock: XOMCOT_clean_sbu_0, # of connection points: 5
#     Node 1, Type 0, BuildingBlock: XOMCOT_clean_sbu_0, # of connection points: 5
#     Node 2, Type 0, BuildingBlock: XOMCOT_clean_sbu_0, # of connection points: 5
#     Node 3, Type 0, BuildingBlock: XOMCOT_clean_sbu_0, # of connection points: 5
#     Node 4, Type 0, BuildingBlock: XOMCOT_clean_sbu_0, # of connection points: 5
#     Node 5, Type 0, BuildingBlock: XOMCOT_clean_sbu_0, # of connection points: 5
#     Edge 6, Type (0, 0), BuildingBlock: FUNLAD_clean_linker_1, # of connection points: 2
#     Edge 7, Type (0, 0), BuildingBlock: FUNLAD_clean_linker_1, # of connection points: 2
#     Edge 8, Type (0, 0), BuildingBlock: FUNLAD_clean_linker_1, # of connection points: 2
#     Edge 9, Type (0, 0), BuildingBlock: FUNLAD_clean_linker_1, # of connection points: 2
#     Edge 10, Type (0, 0), BuildingBlock: FUNLAD_clean_linker_1, # of connection points: 2
#     Edge 11, Type (0, 0), BuildingBlock: FUNLAD_clean_linker_1, # of connection points: 2
#     Edge 12, Type (0, 0), BuildingBlock: FUNLAD_clean_linker_1, # of connection points: 2
#     Edge 13, Type (0, 0), BuildingBlock: FUNLAD_clean_linker_1, # of connection points: 2
#     Edge 14, Type (0, 0), BuildingBlock: FUNLAD_clean_linker_1, # of connection points: 2
#     Edge 15, Type (0, 0), BuildingBlock: FUNLAD_clean_linker_1, # of connection points: 2
#     Edge 16, Type (0, 0), BuildingBlock: FUNLAD_clean_linker_1, # of connection points: 2
#     Edge 17, Type (0, 0), BuildingBlock: FUNLAD_clean_linker_1, # of connection points: 2
#     Edge 18, Type (0, 0), BuildingBlock: FUNLAD_clean_linker_1, # of connection points: 2
#     Edge 19, Type (0, 0), BuildingBlock: FUNLAD_clean_linker_1, # of connection points: 2
#     Edge 20, Type (0, 0), BuildingBlock: FUNLAD_clean_linker_1, # of connection points: 2
# Relax obj value: 0.131
# Max RMSD: 0.157
# Mean RMSD: 0.157
data_MOF--net-wli--node1-XOMCOT_clean_sbu_0--edge1-FUNLAD_clean_linker_1
_symmetry_space_group_name_H-M    P1
_symmetry_Int_Tables_number       1
_symmetry_cell_setting            triclinic
loop_
_symmetry_equiv_pos_as_xyz
'x, y, z'
_cell_length_a     38.105134
_cell_length_b     37.701801
_cell_length_c     27.3401
_cell_angle_alpha  90.027917
_cell_angle_beta   89.742228
_cell_angle_gamma 119.87179
loop_
_atom_site_label
_atom_site_type_symbol
_atom_site_fract_x
_atom_site_fract_y
_atom_site_fract_z
_atom_type_partial_charge
Co0 Co 0.2074 0.43664 0.10729 0.0
C1 C 0.14866 0.38835 0.18657 0.0
C2 C 0.17558 0.3557 0.15417 0.0
C3 C 0.14774 0.33093 0.18861 0.0
N4 N 0.17643 0.3919 0.15287 0.0
N5 N 0.13079 0.35136 0.20882 0.0
H6 H 0.14068 0.41167 0.19346 0.0
H7 H 0.1928 0.34689 0.1307 0.0
C8 C 0.27136 0.41246 0.10082 0.0
O9 O 0.29079 0.43648 0.13773 0.0
N10 N 0.23801 0.48087 0.06181 0.0
C11 C 0.22276 0.49556 0.02815 0.0
C12 C 0.25434 0.52699 1.00311 0.0
C13 C 0.2786 0.50413 0.0577 0.0
N14 N 0.28931 0.53218 0.02172 0.0
C15 C 0.12873 0.39805 0.06454 0.0
C16 C 0.15122 0.38038 0.97545 0.0
C17 C 0.11114 0.37188 0.98196 0.0
C18 C 0.09998 0.38029 0.02757 0.0
C19 C 0.17904 0.3983 0.01327 0.0
N20 N 0.16773 0.40722 0.05696 0.0
H21 H 0.11993 0.4055 0.09894 0.0
H22 H 0.21013 0.40653 1.00646 0.0
H23 H 0.19088 0.4844 0.02244 0.0
H24 H 0.29988 0.50074 0.0805 0.0
O25 O 0.18427 0.46763 0.13408 0.0
O26 O 0.24073 0.4709 0.1607 0.0
O27 O 0.23854 0.40942 0.08543 0.0
C28 C 0.21464 0.48365 0.16392 0.0
H29 H 0.1396 0.29971 0.19718 0.0
H30 H 0.25177 0.54532 0.97439 0.0
H31 H 0.16179 0.37421 0.94155 0.0
H32 H 0.06941 0.37416 0.03427 0.0
Co33 Co 0.59534 0.77628 0.77546 0.0
C34 C 0.64168 0.75743 0.848 0.0
C35 C 0.65578 0.81972 0.85362 0.0
C36 C 0.67589 0.81201 0.8902 0.0
N37 N 0.63529 0.78584 0.82588 0.0
N38 N 0.66689 0.77275 0.88639 0.0
H39 H 0.62637 0.72539 0.83845 0.0
H40 H 0.65437 0.84749 0.84985 0.0
C41 C 0.65673 0.8636 0.75396 0.0
O42 O 0.68464 0.85279 0.75341 0.0
N43 N 0.55467 0.766 0.72706 0.0
C44 C 0.53769 0.73363 0.69672 0.0
C45 C 0.50922 0.73631 0.66874 0.0
C46 C 0.53627 0.78787 0.71751 0.0
N47 N 0.50831 0.77037 0.68199 0.0
C48 C 0.64164 0.74446 0.72762 0.0
C49 C 0.65607 0.78885 0.64209 0.0
C50 C 0.67038 0.76111 0.64596 0.0
C51 C 0.66302 0.73898 0.68956 0.0
C52 C 0.63475 0.79331 0.681 0.0
N53 N 0.62872 0.77219 0.7238 0.0
H54 H 0.63415 0.72507 0.75919 0.0
H55 H 0.62248 0.81347 0.67631 0.0
H56 H 0.54562 0.70981 0.69504 0.0
H57 H 0.54297 0.81581 0.7363 0.0
O58 O 0.56473 0.71938 0.79407 0.0
O59 O 0.55702 0.76907 0.82663 0.0
O60 O 0.61992 0.8373 0.76397 0.0
C61 C 0.54575 0.73029 0.8248 0.0
H62 H 0.6936 0.83292 0.91898 0.0
H63 H 0.49105 0.71489 0.64064 0.0
H64 H 0.66061 0.80686 0.60951 0.0
H65 H 0.67266 0.71653 0.69373 0.0
Co66 Co 0.24753 0.81588 0.45096 0.0
C67 C 0.26885 0.88288 0.52126 0.0
C68 C 0.20851 0.8333 0.53373 0.0
C69 C 0.21727 0.8629 0.56874 0.0
N70 N 0.24084 0.84598 0.50399 0.0
N71 N 0.25529 0.894 0.56079 0.0
H72 H 0.29891 0.90089 0.50584 0.0
H73 H 0.18089 0.80415 0.53105 0.0
C74 C 0.16755 0.77429 0.39931 0.0
O75 O 0.18698 0.78387 0.35734 0.0
N76 N 0.25463 0.78491 0.39784 0.0
C77 C 0.26673 0.79631 0.35105 0.0
C78 C 0.26796 0.76499 0.32689 0.0
C79 C 0.24871 0.7464 0.40097 0.0
N80 N 0.25658 0.73361 0.35833 0.0
C81 C 0.2955 0.88536 0.39003 0.0
C82 C 0.23536 0.90314 0.36726 0.0
C83 C 0.27347 0.9261 0.34522 0.0
C84 C 0.3042 0.91776 0.35838 0.0
C85 C 0.22797 0.87096 0.39886 0.0
N86 N 0.25715 0.86076 0.40737 0.0
H87 H 0.31938 0.87898 0.39898 0.0
H88 H 0.19882 0.85459 0.41666 0.0
H89 H 0.27305 0.82465 0.33408 0.0
H90 H 0.23861 0.72776 0.43368 0.0
O91 O 0.30259 0.83516 0.47142 0.0
O92 O 0.249 0.77844 0.49821 0.0
O93 O 0.18698 0.78585 0.43955 0.0
C94 C 0.28794 0.80298 0.49936 0.0
H95 H 0.19751 0.86086 0.59844 0.0
H96 H 0.27698 0.76568 0.28918 0.0
H97 H 0.2113 0.90974 0.35977 0.0
H98 H 0.33482 0.93598 0.34475 0.0
Co99 Co 0.43925 0.20718 0.90836 0.0
C100 C 0.38429 0.14566 0.8359 0.0
C101 C 0.37538 0.19734 0.83887 0.0
C102 C 0.35127 0.17153 0.80249 0.0
N103 N 0.3952 0.18055 0.86123 0.0
N104 N 0.35717 0.13926 0.80044 0.0
H105 H 0.39739 0.12638 0.84146 0.0
H106 H 0.37965 0.22737 0.84621 0.0
C107 C 0.38577 0.23985 0.94275 0.0
O108 O 0.35499 0.20226 0.94308 0.0
N109 N 0.48385 0.23408 0.95332 0.0
C110 C 0.50127 0.21643 0.97883 0.0
C111 C 0.53186 0.24591 1.00682 0.0
C112 C 0.5041 0.27397 0.96568 0.0
N113 N 0.53352 0.28203 0.99844 0.0
C114 C 0.39224 0.1283 0.95433 0.0
C115 C 0.38748 0.15748 0.04549 0.0
C116 C 0.37094 0.11516 0.03917 0.0
C117 C 0.37354 0.10081 0.99283 0.0
C118 C 0.40595 0.18391 1.00596 0.0
N119 N 0.40747 0.16927 0.96065 0.0
H120 H 0.39619 0.11656 0.92025 0.0
H121 H 0.42047 0.21645 0.01241 0.0
H122 H 0.49202 0.18427 0.97754 0.0
H123 H 0.49739 0.29665 0.95124 0.0
O124 O 0.46423 0.17764 0.88196 0.0
O125 O 0.47516 0.23789 0.85495 0.0
O126 O 0.42064 0.24708 0.9281 0.0
C127 C 0.48306 0.20806 0.85176 0.0
H128 H 0.3323 0.17697 0.77781 0.0
H129 H 0.55087 0.24077 0.03167 0.0
H130 H 0.38805 0.17062 0.08082 0.0
H131 H 0.36229 0.06852 0.98669 0.0
Co132 Co 0.81614 0.24226 0.5674 0.0
C133 C 0.88224 0.26693 0.49605 0.0
C134 C 0.84084 0.2023 0.4921 0.0
C135 C 0.87083 0.21263 0.45733 0.0
N136 N 0.84819 0.23642 0.51634 0.0
N137 N 0.8967 0.25331 0.46001 0.0
H138 H 0.89598 0.29866 0.50698 0.0
H139 H 0.81511 0.1722 0.49837 0.0
C140 C 0.77919 0.16449 0.62544 0.0
O141 O 0.78653 0.18677 0.66498 0.0
N142 N 0.78364 0.24902 0.61845 0.0
C143 C 0.79486 0.26535 0.66368 0.0
C144 C 0.76255 0.26472 0.68679 0.0
C145 C 0.74425 0.23892 0.61507 0.0
N146 N 0.73072 0.24801 0.65628 0.0
C147 C 0.8839 0.2961 0.62659 0.0
C148 C 0.90527 0.23904 0.65472 0.0
C149 C 0.92595 0.2783 0.67482 0.0
C150 C 0.91592 0.30752 0.65903 0.0
C151 C 0.87325 0.22886 0.62264 0.0
N152 N 0.86107 0.25644 0.61171 0.0
H153 H 0.87619 0.31881 0.6153 0.0
H154 H 0.85863 0.19883 0.60638 0.0
H155 H 0.82382 0.27594 0.68052 0.0
H156 H 0.72563 0.22506 0.58323 0.0
O157 O 0.83177 0.29632 0.54335 0.0
O158 O 0.77818 0.23912 0.51827 0.0
O159 O 0.78997 0.18165 0.58341 0.0
C160 C 0.80043 0.27869 0.51494 0.0
H161 H 0.87252 0.19203 0.4311 0.0
H162 H 0.76285 0.27634 0.72307 0.0
H163 H 0.9134 0.21617 0.6643 0.0
H164 H 0.93255 0.33892 0.67138 0.0
Co165 Co 0.78772 0.58807 0.23919 0.0
C166 C 0.78135 0.63625 0.15855 0.0
C167 C 0.83885 0.63858 0.15755 0.0
C168 C 0.83774 0.66174 0.11921 0.0
N169 N 0.80356 0.62286 0.1822 0.0
N170 N 0.8016 0.66011 0.11985 0.0
H171 H 0.7512 0.62878 0.1698 0.0
H172 H 0.8636 0.63352 0.16668 0.0
C173 C 0.86148 0.62133 0.30349 0.0
O174 O 0.83826 0.61151 0.34254 0.0
N175 N 0.77134 0.55234 0.29627 0.0
C176 C 0.74682 0.5496 0.33373 0.0
C177 C 0.74443 0.52096 0.36662 0.0
C178 C 0.78291 0.52461 0.30681 0.0
N179 N 0.76686 0.5052 0.34959 0.0
C180 C 0.73783 0.61919 0.27589 0.0
C181 C 0.79818 0.68877 0.31982 0.0
C182 C 0.75766 0.67778 0.32789 0.0
C183 C 0.7275 0.64378 0.30344 0.0
C184 C 0.80724 0.66371 0.29095 0.0
N185 N 0.77703 0.62749 0.27295 0.0
H186 H 0.71373 0.59198 0.25948 0.0
H187 H 0.83858 0.67376 0.28354 0.0
H188 H 0.73184 0.56716 0.33821 0.0
H189 H 0.8036 0.51975 0.28438 0.0
O190 O 0.73495 0.55352 0.21082 0.0
O191 O 0.7881 0.54522 0.20049 0.0
O192 O 0.84627 0.61571 0.26067 0.0
C193 C 0.75027 0.53274 0.19142 0.0
H194 H 0.86159 0.67843 0.0927 0.0
H195 H 0.72756 0.51238 0.40068 0.0
H196 H 0.8226 0.7163 0.3357 0.0
H197 H 0.69589 0.63494 0.30771 0.0
H198 H 0.25396 0.67666 0.3808 0.0
C199 C 0.25468 0.69491 0.34963 0.0
H200 H 0.25433 0.69887 0.27272 0.0
H201 H 0.32175 0.58886 0.20407 0.0
H202 H 0.37912 0.65612 0.18816 0.0
H203 H 0.3811 0.71797 0.22124 0.0
H204 H 0.32545 0.71292 0.27003 0.0
C205 C 0.25357 0.68086 0.30404 0.0
C206 C 0.25521 0.64288 0.29329 0.0
C207 C 0.28859 0.64613 0.26626 0.0
C208 C 0.28783 0.61039 0.248 0.0
C209 C 0.32087 0.61485 0.21936 0.0
C210 C 0.35406 0.65333 0.20993 0.0
C211 C 0.35515 0.68816 0.22849 0.0
C212 C 0.32291 0.68481 0.25629 0.0
H213 H 0.19679 0.52607 0.19429 0.0
C214 C 0.21898 0.51608 0.19761 0.0
H215 H 0.27245 0.5263 0.23261 0.0
H216 H 0.18597 0.62486 0.34438 0.0
H217 H 0.13152 0.55736 0.3661 0.0
H218 H 0.13347 0.49551 0.3408 0.0
H219 H 0.18959 0.50099 0.29236 0.0
C220 C 0.24925 0.53494 0.2298 0.0
C221 C 0.25385 0.57131 0.2573 0.0
C222 C 0.22231 0.56784 0.28836 0.0
C223 C 0.22233 0.60362 0.3052 0.0
C224 C 0.18857 0.59896 0.3324 0.0
C225 C 0.15691 0.56029 0.34491 0.0
C226 C 0.15791 0.52547 0.33051 0.0
C227 C 0.19012 0.52901 0.30248 0.0
H228 H 0.4993 0.66731 0.84307 0.0
C229 C 0.51128 0.69913 0.85337 0.0
H230 H 0.50497 0.74035 0.89955 0.0
H231 H 0.31804 0.6294 0.93794 0.0
H232 H 0.32246 0.68939 0.89968 0.0
H233 H 0.38715 0.74375 0.86589 0.0
H234 H 0.44793 0.73881 0.87096 0.0
C235 C 0.49347 0.70854 0.88967 0.0
C236 C 0.455 0.67647 0.91275 0.0
C237 C 0.41952 0.6796 0.90888 0.0
C238 C 0.3819 0.64758 0.92692 0.0
C239 C 0.34722 0.65215 0.92369 0.0
C240 C 0.34932 0.68656 0.90198 0.0
C241 C 0.38575 0.71721 0.88307 0.0
C242 C 0.4205 0.71396 0.88636 0.0
H243 H 0.35343 0.57381 0.03569 0.0
C244 C 0.32982 0.56276 1.00817 0.0
H245 H 0.31518 0.56567 0.9348 0.0
H246 H 0.51824 0.6646 0.93607 0.0
H247 H 0.51347 0.60282 0.96977 0.0
H248 H 0.44706 0.54327 0.99027 0.0
H249 H 0.38534 0.54568 0.97891 0.0
C250 C 0.33889 0.57729 0.96216 0.0
C251 C 0.3794 0.61179 0.94746 0.0
C252 C 0.41495 0.60871 0.9515 0.0
C253 C 0.45299 0.64184 0.9361 0.0
C254 C 0.48839 0.6394 0.94438 0.0
C255 C 0.48611 0.60426 0.96409 0.0
C256 C 0.44875 0.57084 0.97589 0.0
C257 C 0.4135 0.57281 0.96963 0.0
H258 H 0.30067 0.76445 0.54854 0.0
C259 C 0.31418 0.79378 0.52982 0.0
H260 H 0.36792 0.84898 0.51419 0.0
H261 H 0.41193 0.76648 0.70518 0.0
H262 H 0.36419 0.7783 0.75119 0.0
H263 H 0.32491 0.80571 0.71072 0.0
H264 H 0.33261 0.82071 0.62378 0.0
C265 C 0.35409 0.82002 0.53377 0.0
C266 C 0.38113 0.80844 0.55986 0.0
C267 C 0.37747 0.80148 0.61112 0.0
C268 C 0.40137 0.78732 0.63485 0.0
C269 C 0.39553 0.77849 0.68555 0.0
C270 C 0.36809 0.785 0.7124 0.0
C271 C 0.34588 0.8003 0.68959 0.0
C272 C 0.3504 0.80853 0.63957 0.0
H273 H 0.48998 0.81643 0.67323 0.0
C274 C 0.48369 0.78608 0.66232 0.0
H275 H 0.44676 0.73432 0.6189 0.0
H276 H 0.3971 0.82076 0.46148 0.0
H277 H 0.44742 0.81248 0.41638 0.0
H278 H 0.49077 0.79063 0.45817 0.0
H279 H 0.48382 0.77666 0.54532 0.0
C280 C 0.45335 0.76441 0.6309 0.0
C281 C 0.42998 0.7817 0.60754 0.0
C282 C 0.43486 0.79041 0.55673 0.0
C283 C 0.41035 0.80367 0.53282 0.0
C284 C 0.41527 0.81118 0.48176 0.0
C285 C 0.44402 0.80647 0.45534 0.0
C286 C 0.46837 0.79411 0.47884 0.0
C287 C 0.46398 0.78609 0.52889 0.0
H288 H 0.52262 0.18596 0.82325 0.0
C289 C 0.5139 0.20914 0.81822 0.0
H290 H 0.52504 0.26217 0.77964 0.0
H291 H 0.70863 0.3156 0.74006 0.0
H292 H 0.7136 0.37292 0.78607 0.0
H293 H 0.65254 0.37091 0.81998 0.0
H294 H 0.5862 0.3119 0.80764 0.0
C295 C 0.53296 0.23839 0.78425 0.0
C296 C 0.56883 0.24192 0.75754 0.0
C297 C 0.60739 0.27688 0.76493 0.0
C298 C 0.6427 0.27766 0.74635 0.0
C299 C 0.68087 0.313 0.75422 0.0
C300 C 0.68417 0.34621 0.7804 0.0
C301 C 0.6498 0.34511 0.79941 0.0
C302 C 0.61182 0.31095 0.79197 0.0
H303 H 0.67261 0.24087 0.63336 0.0
C304 C 0.69115 0.24313 0.66461 0.0
H305 H 0.6956 0.24405 0.74144 0.0
H306 H 0.49919 0.17494 0.72667 0.0
H307 H 0.49406 0.11716 0.68124 0.0
H308 H 0.55544 0.11575 0.65522 0.0
H309 H 0.62218 0.17237 0.67335 0.0
C310 C 0.67723 0.24204 0.71023 0.0
C311 C 0.63953 0.24331 0.72108 0.0
C312 C 0.6008 0.20931 0.71122 0.0
C313 C 0.56538 0.20916 0.72838 0.0
C314 C 0.52701 0.17573 0.71629 0.0
C315 C 0.52365 0.14255 0.68996 0.0
C316 C 0.55822 0.14183 0.67516 0.0
C317 C 0.59641 0.17468 0.68564 0.0
H318 H 0.76549 0.47064 0.41383 0.0
C319 C 0.77289 0.47532 0.37502 0.0
H320 H 0.79251 0.45544 0.31385 0.0
H321 H 0.87969 0.3819 0.44164 0.0
H322 H 0.93543 0.43412 0.39433 0.0
H323 H 0.92556 0.48118 0.34103 0.0
H324 H 0.85971 0.47585 0.3341 0.0
C325 C 0.78502 0.45153 0.35254 0.0
C326 C 0.78998 0.42052 0.38097 0.0
C327 C 0.82874 0.42426 0.38487 0.0
C328 C 0.83465 0.39781 0.41665 0.0
C329 C 0.87359 0.40175 0.41904 0.0
C330 C 0.90588 0.43152 0.39191 0.0
C331 C 0.90031 0.45796 0.36184 0.0
C332 C 0.86229 0.45454 0.3582 0.0
H333 H 0.76772 0.28582 0.45264 0.0
C334 C 0.79085 0.30233 0.47996 0.0
H335 H 0.83337 0.35979 0.50847 0.0
H336 H 0.70997 0.39821 0.37275 0.0
H337 H 0.65457 0.34839 0.42283 0.0
H338 H 0.66653 0.30933 0.48652 0.0
H339 H 0.73339 0.31869 0.49921 0.0
C340 C 0.80976 0.34341 0.48162 0.0
C341 C 0.80201 0.3683 0.44544 0.0
C342 C 0.76302 0.36418 0.44094 0.0
C343 C 0.7567 0.38903 0.407 0.0
C344 C 0.71687 0.38191 0.40012 0.0
C345 C 0.68474 0.35317 0.42832 0.0
C346 C 0.69143 0.33102 0.46396 0.0
C347 C 0.73003 0.33641 0.47047 0.0
H348 H 0.55474 0.34668 0.01158 0.0
C349 C 0.55959 0.32132 0.02038 0.0
H350 H 0.5942 0.30268 0.0622 0.0
H351 H 0.71049 0.50509 0.06493 0.0
H352 H 0.71893 0.49979 0.97772 0.0
H353 H 0.68041 0.43367 0.9352 0.0
H354 H 0.63278 0.37262 0.97946 0.0
C355 C 0.58924 0.32756 0.05173 0.0
C356 C 0.61373 0.36744 0.07701 0.0
C357 C 0.64234 0.40257 0.05073 0.0
C358 C 0.66567 0.4404 0.07557 0.0
C359 C 0.69288 0.47535 0.04818 0.0
C360 C 0.69789 0.47278 0.99804 0.0
C361 C 0.67611 0.43558 0.97408 0.0
C362 C 0.64868 0.40078 0.99992 0.0
H363 H 0.74051 0.48 0.1464 0.0
C364 C 0.7259 0.49611 0.16142 0.0
H365 H 0.67105 0.49667 0.16987 0.0
H366 H 0.56121 0.30616 0.13815 0.0
H367 H 0.55411 0.31115 0.22568 0.0
H368 H 0.59608 0.37619 0.26908 0.0
H369 H 0.64525 0.4367 0.22517 0.0
C370 C 0.68631 0.4817 0.15351 0.0
C371 C 0.66127 0.44267 0.12683 0.0
C372 C 0.63276 0.40755 0.15307 0.0
C373 C 0.60896 0.36993 0.12815 0.0
C374 C 0.58046 0.33542 0.15528 0.0
C375 C 0.576 0.33786 0.20555 0.0
C376 C 0.59959 0.37448 0.22998 0.0
C377 C 0.62767 0.40901 0.20427 0.0
H378 H 0.97326 0.27014 0.71128 0.0
C379 C 0.95788 0.28791 0.71162 0.0
H380 H 0.95069 0.33288 0.74959 0.0
H381 H 0.03953 0.27585 0.91551 0.0
H382 H 0.97726 0.21043 0.91532 0.0
H383 H 0.92293 0.19666 0.85664 0.0
H384 H 0.93086 0.24789 0.79729 0.0
C385 C 0.96619 0.31533 0.74748 0.0
C386 C 0.99774 0.32383 0.78463 0.0
C387 C 0.99185 0.29396 0.82025 0.0
C388 C 0.02236 0.30256 0.85554 0.0
C389 C 1.01667 0.27152 0.88912 0.0
C390 C 0.98117 0.23373 0.88921 0.0
C391 C 0.95065 0.22592 0.85607 0.0
C392 C 0.95573 0.25556 0.82196 0.0
H393 H 0.04998 0.34917 0.95133 0.0
C394 C 0.08055 0.35604 0.94215 0.0
H395 H 0.11899 0.36032 0.88319 0.0
H396 H 1.01859 0.38742 0.721 0.0
H397 H 0.0798 0.45368 0.72302 0.0
H398 H 0.13145 0.46969 0.78638 0.0
H399 H 0.12236 0.41949 0.84786 0.0
C400 C 0.08875 0.35208 0.89516 0.0
C401 C 0.0578 0.34163 0.8565 0.0
C402 C 0.06358 0.37148 0.82096 0.0
C403 C 0.03355 0.36251 0.78491 0.0
C404 C 0.04022 0.39276 0.74959 0.0
C405 C 0.07525 0.43093 0.75026 0.0
C406 C 0.10435 0.43992 0.78589 0.0
C407 C 0.09875 0.41072 0.82093 0.0
H408 H 0.71652 0.69806 0.35758 0.0
C409 C 0.74546 0.6995 0.36316 0.0
H410 H 0.79306 0.71484 0.41339 0.0
H411 H 0.75564 0.83373 0.53948 0.0
H412 H 0.81876 0.88287 0.50043 0.0
H413 H 0.84933 0.86131 0.43553 0.0
H414 H 0.81708 0.79042 0.40941 0.0
C415 C 0.76479 0.71417 0.40578 0.0
C416 C 0.74656 0.72702 0.44534 0.0
C417 C 0.76567 0.76854 0.45994 0.0
C418 C 0.74785 0.78103 0.49705 0.0
C419 C 0.76774 0.82266 0.51124 0.0
C420 C 0.80397 0.85116 0.48915 0.0
C421 C 0.8212 0.83901 0.45262 0.0
C422 C 0.80239 0.79824 0.43799 0.0
H423 H 0.70447 0.7336 0.61329 0.0
C424 C 0.69138 0.75283 0.60527 0.0
H425 H 0.68034 0.78422 0.54804 0.0
H426 H 0.70519 0.64369 0.43188 0.0
H427 H 0.64113 0.59515 0.46885 0.0
H428 H 0.60716 0.61791 0.52767 0.0
H429 H 0.63762 0.68922 0.55067 0.0
C430 C 0.69273 0.76503 0.55868 0.0
C431 C 0.71098 0.75197 0.51942 0.0
C432 C 0.69167 0.71044 0.50456 0.0
C433 C 0.7101 0.69771 0.46858 0.0
C434 C 0.6916 0.65553 0.45707 0.0
C435 C 0.65493 0.62719 0.47838 0.0
C436 C 0.6359 0.63997 0.51164 0.0
C437 C 0.6539 0.68103 0.52474 0.0
H438 H 0.35143 0.05557 0.07484 0.0
C439 C 0.35426 0.08548 0.08039 0.0
H440 H 0.3453 0.12258 0.13165 0.0
H441 H 0.24639 0.93104 0.21984 0.0
H442 H 0.20029 0.91654 0.15217 0.0
H443 H 0.21289 0.96956 0.09073 0.0
H444 H 0.27209 0.03727 0.09625 0.0
C445 C 0.34327 0.09338 0.12411 0.0
C446 C 0.33175 0.06357 0.16512 0.0
C447 C 0.29615 0.02472 0.16249 0.0
C448 C 0.28814 0.99463 0.19889 0.0
C449 C 0.25345 0.95541 0.19398 0.0
C450 C 0.22677 0.94662 0.15521 0.0
C451 C 0.23392 0.97644 0.12054 0.0
C452 C 0.26813 1.01509 0.12397 0.0
H453 H 0.25973 0.97081 0.31 0.0
C454 C 0.2803 0.95865 0.30942 0.0
H455 H 0.32961 0.9597 0.27185 0.0
H456 H 0.40103 0.13613 0.1832 0.0
H457 H 0.44543 0.15167 0.25292 0.0
H458 H 0.43054 0.10006 0.31715 0.0
H459 H 0.37116 0.03247 0.31193 0.0
C460 C 0.30913 0.97178 0.27455 0.0
C461 C 0.31509 1.00397 0.23868 0.0
C462 C 0.34953 0.0435 0.24263 0.0
C463 C 0.35787 0.07336 0.20585 0.0
C464 C 0.39299 0.11234 0.21026 0.0
C465 C 0.41879 0.12168 0.25009 0.0
C466 C 0.41043 0.09261 0.28624 0.0
C467 C 0.37629 0.05392 0.28273 0.0
H468 H 0.40767 0.30441 0.96264 0.0
C469 C 0.38139 0.27383 0.96312 0.0
H470 H 0.32114 0.23691 0.98727 0.0
H471 H 0.32123 0.3456 0.15979 0.0
H472 H 0.3222 0.29027 0.20379 0.0
H473 H 0.33395 0.23974 0.16031 0.0
H474 H 0.34448 0.24401 0.0725 0.0
C475 C 0.34693 0.26767 0.98456 0.0
C476 C 0.34414 0.30098 0.01077 0.0
C477 C 0.33878 0.29859 0.06231 0.0
C478 C 0.33266 0.32815 0.08755 0.0
C479 C 0.32641 0.32428 0.13883 0.0
C480 C 0.32688 0.29265 0.16457 0.0
C481 C 0.33345 0.26417 0.14009 0.0
C482 C 0.33933 0.26692 0.08961 0.0
H483 H 0.26712 0.36704 0.0473 0.0
C484 C 0.28604 0.3874 0.07614 0.0
H485 H 0.33973 0.40738 0.11662 0.0
H486 H 0.35244 0.31445 0.91177 0.0
H487 H 0.35576 0.37219 0.86862 0.0
H488 H 0.35025 0.42611 0.91324 0.0
H489 H 0.34057 0.42215 1.00126 0.0
C490 C 0.3208 0.38825 0.08705 0.0
C491 C 0.33211 0.3603 0.06131 0.0
C492 C 0.33983 0.36406 1.01015 0.0
C493 C 0.34492 0.33391 0.98469 0.0
C494 C 0.34991 0.33717 0.93323 0.0
C495 C 0.35166 0.37008 0.90793 0.0
C496 C 0.34841 0.40037 0.93302 0.0
C497 C 0.34257 0.39756 0.9835 0.0
H498 H 0.76286 0.10262 0.59856 0.0
C499 C 0.7626 0.11982 0.63032 0.0
H500 H 0.74934 0.11816 0.70556 0.0
H501 H 0.64899 0.9196 0.65125 0.0
H502 H 0.60903 0.93526 0.59596 0.0
H503 H 0.62626 1.00666 0.58094 0.0
H504 H 0.68411 0.06287 0.62029 0.0
C505 C 0.74879 0.1007 0.67364 0.0
C506 C 0.7375 0.05717 0.68213 0.0
C507 C 0.70258 0.02457 0.6603 0.0
C508 C 0.69139 0.98322 0.67095 0.0
C509 C 0.65781 0.95142 0.64635 0.0
C510 C 0.63475 0.96 0.61418 0.0
C511 C 0.64454 1.00021 0.60559 0.0
C512 C 0.678 0.03223 0.62826 0.0
H513 H 0.64557 0.91573 0.74862 0.0
C514 C 0.66736 0.90584 0.74082 0.0
H515 H 0.72422 0.92166 0.71013 0.0
H516 H 0.80745 0.11214 0.72816 0.0
H517 H 0.84611 0.0965 0.78555 0.0
H518 H 0.82458 0.02508 0.80756 0.0
H519 H 0.76445 0.96887 0.77203 0.0
C520 C 0.70232 0.93144 0.71784 0.0
C521 C 0.71399 0.97451 0.70529 0.0
C522 C 0.74897 1.00715 0.7269 0.0
C523 C 0.76088 0.04839 0.71505 0.0
C524 C 0.79645 0.08026 0.73656 0.0
C525 C 0.81908 0.07174 0.76945 0.0
C526 C 0.807 0.03153 0.78176 0.0
C527 C 0.77243 0.99952 0.76092 0.0
H528 H 0.10753 0.74629 0.43548 0.0
C529 C 0.12281 0.75212 0.40027 0.0
H530 H 0.11565 0.74372 0.32381 0.0
H531 H 0.93848 0.59268 0.33117 0.0
H532 H 0.97669 0.55883 0.3115 0.0
H533 H 0.05133 0.59659 0.31366 0.0
H534 H 0.08821 0.6684 0.33576 0.0
C535 C 0.10076 0.73931 0.35908 0.0
C536 C 0.05562 0.71642 0.35991 0.0
C537 C 0.03448 0.67459 0.34623 0.0
C538 C 0.99142 0.6529 0.34446 0.0
C539 C 0.97115 0.61086 0.33205 0.0
C540 C 0.99271 0.59097 0.32095 0.0
C541 C 0.03473 0.61223 0.32219 0.0
C542 C 0.05553 0.65349 0.33478 0.0
H543 H 0.92405 0.64934 0.27517 0.0
C544 C 0.90593 0.64169 0.30842 0.0
H545 H 0.90705 0.64514 0.38564 0.0
H546 H 0.08648 0.79693 0.38523 0.0
H547 H 0.04815 0.83035 0.40598 0.0
H548 H 0.97352 0.79236 0.40438 0.0
H549 H 0.93677 0.72071 0.38165 0.0
C550 C 0.92452 0.65126 0.35207 0.0
C551 C 0.96953 0.67324 0.35569 0.0
C552 C 0.9906 0.71483 0.37029 0.0
C553 C 0.03368 0.73658 0.37195 0.0
C554 C 0.05385 0.77859 0.38455 0.0
C555 C 0.0322 0.79826 0.39629 0.0
C556 C 0.99018 0.77689 0.39533 0.0
C557 C 0.96947 0.73573 0.38232 0.0
H558 H 0.94159 0.31136 0.42756 0.0
C559 C 0.93071 0.27867 0.42878 0.0
H560 H 0.93898 0.23078 0.40243 0.0
H561 H 0.02343 0.30971 0.20331 0.0
H562 H 0.95849 0.25467 0.17624 0.0
H563 H 0.90373 0.21496 0.23554 0.0
H564 H 0.91352 0.23009 0.32217 0.0
C565 C 0.94958 0.26335 0.40164 0.0
C566 C 0.98259 0.28902 0.36621 0.0
C567 C 0.97647 0.27963 0.31559 0.0
C568 C 1.00815 0.30228 0.28137 0.0
C569 C 1.00079 0.29281 0.23099 0.0
C570 C 0.96353 0.26148 0.21489 0.0
C571 C 0.9327 0.23916 0.24827 0.0
C572 C 0.93883 0.24808 0.29799 0.0
H573 H 0.08626 0.30235 0.25485 0.0
C574 C 0.09807 0.33406 0.24389 0.0
H575 H 0.09242 0.38672 0.25423 0.0
H576 H 1.00601 0.31413 0.46076 0.0
H577 H 0.06991 0.3712 0.48681 0.0
H578 H 0.12343 0.41243 0.42677 0.0
H579 H 0.11349 0.39633 0.34023 0.0
C580 C 0.08084 0.3547 0.26282 0.0
C581 C 0.04616 0.33411 0.29775 0.0
C582 C 0.05174 0.34482 0.34794 0.0
C583 C 0.02028 0.32178 0.38241 0.0
C584 C 0.02796 0.33152 0.43269 0.0
C585 C 0.06474 0.36403 0.44825 0.0
C586 C 0.09492 0.38718 0.41447 0.0
C587 C 0.0888 0.37764 0.3649 0.0
H588 H 0.66052 0.71633 0.91669 0.0
C589 C 0.67773 0.74955 0.91864 0.0
H590 H 0.72667 0.80052 0.95217 0.0
H591 H 0.73328 0.71409 0.14527 0.0
H592 H 0.71194 0.76078 0.17579 0.0
H593 H 0.69316 0.7993 0.11895 0.0
H594 H 0.69594 0.79165 0.03124 0.0
C595 C 0.70915 0.76743 0.94963 0.0
C596 C 0.7195 0.74296 0.98353 0.0
C597 C 0.71718 0.74733 0.03481 0.0
C598 C 0.72729 0.72452 0.06765 0.0
C599 C 0.72543 0.73018 0.11864 0.0
C600 C 0.71328 0.75694 0.1367 0.0
C601 C 0.70276 0.77867 0.10471 0.0
C602 C 0.7046 0.77404 0.05437 0.0
H603 H 0.81127 0.70217 0.0599 0.0
C604 C 0.78903 0.68075 0.08575 0.0
H605 H 0.72818 0.65342 0.10977 0.0
H606 H 0.73253 0.73083 0.88762 0.0
H607 H 0.74976 0.68107 0.85718 0.0
H608 H 0.76029 0.63645 0.91399 0.0
H609 H 0.75472 0.64216 1.00162 0.0
C610 C 0.75092 0.67413 0.08407 0.0
C611 C 0.7393 0.69698 0.04925 0.0
C612 C 0.7405 0.6917 0.99797 0.0
C613 C 0.7319 0.71565 0.9651 0.0
C614 C 0.7365 0.71194 0.91422 0.0
C615 C 0.74675 0.68371 0.89622 0.0
C616 C 0.75288 0.65873 0.92819 0.0
C617 C 0.74987 0.66256 0.97848 0.0
H618 H 0.3127 0.10275 0.74509 0.0
C619 C 0.33858 0.10621 0.76567 0.0
H620 H 0.37808 0.08279 0.77705 0.0
H621 H 0.2586 0.90358 0.70522 0.0
H622 H 0.26534 0.89288 0.79128 0.0
H623 H 0.3017 0.95142 0.84702 0.0
H624 H 0.33184 0.02101 0.81701 0.0
C625 C 0.35237 0.08011 0.75701 0.0
C626 C 0.33126 0.04494 0.72254 0.0
C627 C 0.31342 1.00436 0.74075 0.0
C628 C 0.29176 0.97056 0.70875 0.0
C629 C 0.27478 0.9304 0.72795 0.0
C630 C 0.27852 0.92379 0.7773 0.0
C631 C 0.29904 0.95674 0.80865 0.0
C632 C 0.31628 0.99659 0.79086 0.0
H633 H 0.31075 0.94958 0.58128 0.0
C634 C 0.27871 0.93044 0.58956 0.0
H635 H 0.23079 0.92244 0.63594 0.0
H636 H 0.36787 0.11817 0.67364 0.0
H637 H 0.36013 0.12903 0.5879 0.0
H638 H 0.31762 0.07086 0.534 0.0
H639 H 0.2834 1.00146 0.56522 0.0
C640 C 0.26248 0.94138 0.62639 0.0
C641 C 0.28754 0.97723 0.65857 0.0
C642 C 0.30589 0.01783 0.64015 0.0
C643 C 0.32865 0.05162 0.67188 0.0
C644 C 0.34868 0.09158 0.6518 0.0
C645 C 0.34476 0.09823 0.60253 0.0
C646 C 0.32096 0.06547 0.57214 0.0
C647 C 0.30165 0.0257 0.59052 0.0
loop_
_geom_bond_atom_site_label_1
_geom_bond_atom_site_label_2
_geom_bond_distance
_geom_bond_site_symmetry_2
_ccdc_geom_bond_type
Co0 N4 2.148 . S
Co0 N10 2.128 . S
Co0 N20 2.194 . S
Co0 O25 2.351 . S
Co0 O26 2.155 . S
Co0 O27 2.096 . S
C1 N4 1.301 . S
C1 N5 1.328 . S
C1 H6 0.930 . S
C2 C3 1.333 . S
C2 N4 1.317 . S
C2 H7 0.930 . S
C3 C2 1.333 . S
C3 N5 1.350 . S
C3 H29 0.931 . S
N4 Co0 2.148 . S
N4 C1 1.301 . S
N4 C2 1.317 . S
N5 C1 1.328 . S
N5 C3 1.350 . S
H6 C1 0.930 . S
H7 C2 0.930 . S
C8 O9 1.224 . S
C8 O27 1.247 . S
O9 C8 1.224 . S
N10 Co0 2.128 . S
N10 C11 1.355 1_554 S
N10 C13 1.311 1_554 S
C11 N10 1.355 1_556 S
C11 C12 1.363 . S
C11 H23 0.929 . S
C12 C11 1.363 . S
C12 N14 1.375 . S
C12 H30 0.931 . S
C13 N10 1.311 1_556 S
C13 N14 1.347 . S
C13 H24 0.929 1_556 S
N14 C12 1.375 . S
N14 C13 1.347 . S
C15 C18 1.365 1_554 S
C15 N20 1.328 . S
C15 H21 0.929 . S
C16 C17 1.362 . S
C16 C19 1.378 . S
C16 H31 0.929 . S
C17 C16 1.362 . S
C17 C18 1.366 . S
C18 C15 1.365 1_556 S
C18 C17 1.366 . S
C18 H32 0.930 . S
C19 C16 1.378 . S
C19 N20 1.315 1_556 S
C19 H22 0.930 . S
N20 Co0 2.194 . S
N20 C15 1.328 . S
N20 C19 1.315 1_554 S
H21 C15 0.929 . S
H22 C19 0.930 . S
H23 C11 0.929 . S
H24 C13 0.929 1_554 S
O25 Co0 2.351 . S
O25 C28 1.244 . S
O26 Co0 2.155 . S
O26 C28 1.240 . S
O27 Co0 2.096 . S
O27 C8 1.247 . S
C28 O25 1.244 . S
C28 O26 1.240 . S
H29 C3 0.931 . S
H30 C12 0.931 . S
H31 C16 0.929 . S
H32 C18 0.930 . S
Co33 N37 2.148 . S
Co33 N43 2.128 . S
Co33 N53 2.194 . S
Co33 O58 2.351 . S
Co33 O59 2.155 . S
Co33 O60 2.096 . S
C34 N37 1.301 . S
C34 N38 1.328 . S
C34 H39 0.930 . S
C35 C36 1.333 . S
C35 N37 1.317 . S
C35 H40 0.930 . S
C36 C35 1.333 . S
C36 N38 1.350 . S
C36 H62 0.931 . S
N37 Co33 2.148 . S
N37 C34 1.301 . S
N37 C35 1.317 . S
N38 C34 1.328 . S
N38 C36 1.350 . S
H39 C34 0.930 . S
H40 C35 0.930 . S
C41 O42 1.224 . S
C41 O60 1.247 . S
O42 C41 1.224 . S
N43 Co33 2.128 . S
N43 C44 1.355 . S
N43 C46 1.311 . S
C44 N43 1.355 . S
C44 C45 1.363 . S
C44 H56 0.929 . S
C45 C44 1.363 . S
C45 N47 1.375 . S
C45 H63 0.931 . S
C46 N43 1.311 . S
C46 N47 1.347 . S
C46 H57 0.929 . S
N47 C45 1.375 . S
N47 C46 1.347 . S
C48 C51 1.365 . S
C48 N53 1.328 . S
C48 H54 0.929 . S
C49 C50 1.362 . S
C49 C52 1.378 . S
C49 H64 0.929 . S
C50 C49 1.362 . S
C50 C51 1.366 . S
C51 C48 1.365 . S
C51 C50 1.366 . S
C51 H65 0.930 . S
C52 C49 1.378 . S
C52 N53 1.315 . S
C52 H55 0.930 . S
N53 Co33 2.194 . S
N53 C48 1.328 . S
N53 C52 1.315 . S
H54 C48 0.929 . S
H55 C52 0.930 . S
H56 C44 0.929 . S
H57 C46 0.929 . S
O58 Co33 2.351 . S
O58 C61 1.244 . S
O59 Co33 2.155 . S
O59 C61 1.240 . S
O60 Co33 2.096 . S
O60 C41 1.247 . S
C61 O58 1.244 . S
C61 O59 1.240 . S
H62 C36 0.931 . S
H63 C45 0.931 . S
H64 C49 0.929 . S
H65 C51 0.930 . S
Co66 N70 2.148 . S
Co66 N76 2.128 . S
Co66 N86 2.194 . S
Co66 O91 2.351 . S
Co66 O92 2.155 . S
Co66 O93 2.096 . S
C67 N70 1.301 . S
C67 N71 1.328 . S
C67 H72 0.930 . S
C68 C69 1.333 . S
C68 N70 1.317 . S
C68 H73 0.930 . S
C69 C68 1.333 . S
C69 N71 1.350 . S
C69 H95 0.931 . S
N70 Co66 2.148 . S
N70 C67 1.301 . S
N70 C68 1.317 . S
N71 C67 1.328 . S
N71 C69 1.350 . S
H72 C67 0.930 . S
H73 C68 0.930 . S
C74 O75 1.224 . S
C74 O93 1.247 . S
O75 C74 1.224 . S
N76 Co66 2.128 . S
N76 C77 1.355 . S
N76 C79 1.311 . S
C77 N76 1.355 . S
C77 C78 1.363 . S
C77 H89 0.929 . S
C78 C77 1.363 . S
C78 N80 1.375 . S
C78 H96 0.931 . S
C79 N76 1.311 . S
C79 N80 1.347 . S
C79 H90 0.929 . S
N80 C78 1.375 . S
N80 C79 1.347 . S
C81 C84 1.365 . S
C81 N86 1.328 . S
C81 H87 0.929 . S
C82 C83 1.362 . S
C82 C85 1.378 . S
C82 H97 0.929 . S
C83 C82 1.362 . S
C83 C84 1.366 . S
C84 C81 1.365 . S
C84 C83 1.366 . S
C84 H98 0.930 . S
C85 C82 1.378 . S
C85 N86 1.315 . S
C85 H88 0.930 . S
N86 Co66 2.194 . S
N86 C81 1.328 . S
N86 C85 1.315 . S
H87 C81 0.929 . S
H88 C85 0.930 . S
H89 C77 0.929 . S
H90 C79 0.929 . S
O91 Co66 2.351 . S
O91 C94 1.244 . S
O92 Co66 2.155 . S
O92 C94 1.240 . S
O93 Co66 2.096 . S
O93 C74 1.247 . S
C94 O91 1.244 . S
C94 O92 1.240 . S
H95 C69 0.931 . S
H96 C78 0.931 . S
H97 C82 0.929 . S
H98 C84 0.930 . S
Co99 N103 2.148 . S
Co99 N109 2.128 . S
Co99 N119 2.194 . S
Co99 O124 2.351 . S
Co99 O125 2.155 . S
Co99 O126 2.096 . S
C100 N103 1.301 . S
C100 N104 1.328 . S
C100 H105 0.930 . S
C101 C102 1.333 . S
C101 N103 1.317 . S
C101 H106 0.930 . S
C102 C101 1.333 . S
C102 N104 1.350 . S
C102 H128 0.931 . S
N103 Co99 2.148 . S
N103 C100 1.301 . S
N103 C101 1.317 . S
N104 C100 1.328 . S
N104 C102 1.350 . S
H105 C100 0.930 . S
H106 C101 0.930 . S
C107 O108 1.224 . S
C107 O126 1.247 . S
O108 C107 1.224 . S
N109 Co99 2.128 . S
N109 C110 1.355 1_556 S
N109 C112 1.311 1_556 S
C110 N109 1.355 1_554 S
C110 C111 1.363 . S
C110 H122 0.929 . S
C111 C110 1.363 . S
C111 N113 1.375 . S
C111 H129 0.931 . S
C112 N109 1.311 1_554 S
C112 N113 1.347 . S
C112 H123 0.929 1_554 S
N113 C111 1.375 . S
N113 C112 1.347 . S
C114 C117 1.365 1_556 S
C114 N119 1.328 . S
C114 H120 0.929 . S
C115 C116 1.362 . S
C115 C118 1.378 . S
C115 H130 0.929 . S
C116 C115 1.362 . S
C116 C117 1.366 . S
C117 C114 1.365 1_554 S
C117 C116 1.366 . S
C117 H131 0.930 . S
C118 C115 1.378 . S
C118 N119 1.315 1_554 S
C118 H121 0.930 . S
N119 Co99 2.194 . S
N119 C114 1.328 . S
N119 C118 1.315 1_556 S
H120 C114 0.929 . S
H121 C118 0.930 . S
H122 C110 0.929 . S
H123 C112 0.929 1_556 S
O124 Co99 2.351 . S
O124 C127 1.244 . S
O125 Co99 2.155 . S
O125 C127 1.240 . S
O126 Co99 2.096 . S
O126 C107 1.247 . S
C127 O124 1.244 . S
C127 O125 1.240 . S
H128 C102 0.931 . S
H129 C111 0.931 . S
H130 C115 0.929 . S
H131 C117 0.930 . S
Co132 N136 2.148 . S
Co132 N142 2.128 . S
Co132 N152 2.194 . S
Co132 O157 2.351 . S
Co132 O158 2.155 . S
Co132 O159 2.096 . S
C133 N136 1.301 . S
C133 N137 1.328 . S
C133 H138 0.930 . S
C134 C135 1.333 . S
C134 N136 1.317 . S
C134 H139 0.930 . S
C135 C134 1.333 . S
C135 N137 1.350 . S
C135 H161 0.931 . S
N136 Co132 2.148 . S
N136 C133 1.301 . S
N136 C134 1.317 . S
N137 C133 1.328 . S
N137 C135 1.350 . S
H138 C133 0.930 . S
H139 C134 0.930 . S
C140 O141 1.224 . S
C140 O159 1.247 . S
O141 C140 1.224 . S
N142 Co132 2.128 . S
N142 C143 1.355 . S
N142 C145 1.311 . S
C143 N142 1.355 . S
C143 C144 1.363 . S
C143 H155 0.929 . S
C144 C143 1.363 . S
C144 N146 1.375 . S
C144 H162 0.931 . S
C145 N142 1.311 . S
C145 N146 1.347 . S
C145 H156 0.929 . S
N146 C144 1.375 . S
N146 C145 1.347 . S
C147 C150 1.365 . S
C147 N152 1.328 . S
C147 H153 0.929 . S
C148 C149 1.362 . S
C148 C151 1.378 . S
C148 H163 0.929 . S
C149 C148 1.362 . S
C149 C150 1.366 . S
C150 C147 1.365 . S
C150 C149 1.366 . S
C150 H164 0.930 . S
C151 C148 1.378 . S
C151 N152 1.315 . S
C151 H154 0.930 . S
N152 Co132 2.194 . S
N152 C147 1.328 . S
N152 C151 1.315 . S
H153 C147 0.929 . S
H154 C151 0.930 . S
H155 C143 0.929 . S
H156 C145 0.929 . S
O157 Co132 2.351 . S
O157 C160 1.244 . S
O158 Co132 2.155 . S
O158 C160 1.240 . S
O159 Co132 2.096 . S
O159 C140 1.247 . S
C160 O157 1.244 . S
C160 O158 1.240 . S
H161 C135 0.931 . S
H162 C144 0.931 . S
H163 C148 0.929 . S
H164 C150 0.930 . S
Co165 N169 2.148 . S
Co165 N175 2.128 . S
Co165 N185 2.194 . S
Co165 O190 2.351 . S
Co165 O191 2.155 . S
Co165 O192 2.096 . S
C166 N169 1.301 . S
C166 N170 1.328 . S
C166 H171 0.930 . S
C167 C168 1.333 . S
C167 N169 1.317 . S
C167 H172 0.930 . S
C168 C167 1.333 . S
C168 N170 1.350 . S
C168 H194 0.931 . S
N169 Co165 2.148 . S
N169 C166 1.301 . S
N169 C167 1.317 . S
N170 C166 1.328 . S
N170 C168 1.350 . S
H171 C166 0.930 . S
H172 C167 0.930 . S
C173 O174 1.224 . S
C173 O192 1.247 . S
O174 C173 1.224 . S
N175 Co165 2.128 . S
N175 C176 1.355 . S
N175 C178 1.311 . S
C176 N175 1.355 . S
C176 C177 1.363 . S
C176 H188 0.929 . S
C177 C176 1.363 . S
C177 N179 1.375 . S
C177 H195 0.931 . S
C178 N175 1.311 . S
C178 N179 1.347 . S
C178 H189 0.929 . S
N179 C177 1.375 . S
N179 C178 1.347 . S
C180 C183 1.365 . S
C180 N185 1.328 . S
C180 H186 0.929 . S
C181 C182 1.362 . S
C181 C184 1.378 . S
C181 H196 0.929 . S
C182 C181 1.362 . S
C182 C183 1.366 . S
C183 C180 1.365 . S
C183 C182 1.366 . S
C183 H197 0.930 . S
C184 C181 1.378 . S
C184 N185 1.315 . S
C184 H187 0.930 . S
N185 Co165 2.194 . S
N185 C180 1.328 . S
N185 C184 1.315 . S
H186 C180 0.929 . S
H187 C184 0.930 . S
H188 C176 0.929 . S
H189 C178 0.929 . S
O190 Co165 2.351 . S
O190 C193 1.244 . S
O191 Co165 2.155 . S
O191 C193 1.240 . S
O192 Co165 2.096 . S
O192 C173 1.247 . S
C193 O190 1.244 . S
C193 O191 1.240 . S
H194 C168 0.931 . S
H195 C177 0.931 . S
H196 C181 0.929 . S
H197 C183 0.930 . S
H198 C199 0.951 . S
C199 H198 0.951 . S
C199 C205 1.265 . S
H200 C205 0.950 . S
H201 C209 0.949 . S
H202 C210 0.950 . S
H203 C211 0.951 . S
H204 C212 0.951 . S
C205 C199 1.265 . S
C205 H200 0.950 . S
C205 C206 1.478 . S
C206 C205 1.478 . S
C206 C207 1.397 . S
C206 C223 1.394 . S
C207 C206 1.397 . S
C207 C208 1.438 . S
C207 C212 1.429 . S
C208 C207 1.438 . S
C208 C209 1.428 . S
C208 C221 1.394 . S
C209 H201 0.949 . S
C209 C208 1.428 . S
C209 C210 1.345 . S
C210 H202 0.950 . S
C210 C209 1.345 . S
C210 C211 1.424 . S
C211 H203 0.951 . S
C211 C210 1.424 . S
C211 C212 1.347 . S
C212 H204 0.951 . S
C212 C207 1.429 . S
C212 C211 1.347 . S
H213 C214 0.951 . S
C214 H213 0.951 . S
C214 C220 1.265 . S
H215 C220 0.950 . S
H216 C224 0.949 . S
H217 C225 0.950 . S
H218 C226 0.951 . S
H219 C227 0.951 . S
C220 C214 1.265 . S
C220 H215 0.950 . S
C220 C221 1.478 . S
C221 C208 1.394 . S
C221 C220 1.478 . S
C221 C222 1.397 . S
C222 C221 1.397 . S
C222 C223 1.438 . S
C222 C227 1.429 . S
C223 C206 1.394 . S
C223 C222 1.438 . S
C223 C224 1.428 . S
C224 H216 0.949 . S
C224 C223 1.428 . S
C224 C225 1.345 . S
C225 H217 0.950 . S
C225 C224 1.345 . S
C225 C226 1.424 . S
C226 H218 0.951 . S
C226 C225 1.424 . S
C226 C227 1.347 . S
C227 H219 0.951 . S
C227 C222 1.429 . S
C227 C226 1.347 . S
H228 C229 0.951 . S
C229 H228 0.951 . S
C229 C235 1.265 . S
H230 C235 0.950 . S
H231 C239 0.949 . S
H232 C240 0.950 . S
H233 C241 0.951 . S
H234 C242 0.951 . S
C235 C229 1.265 . S
C235 H230 0.950 . S
C235 C236 1.478 . S
C236 C235 1.478 . S
C236 C237 1.397 . S
C236 C253 1.394 . S
C237 C236 1.397 . S
C237 C238 1.438 . S
C237 C242 1.429 . S
C238 C237 1.438 . S
C238 C239 1.428 . S
C238 C251 1.394 . S
C239 H231 0.949 . S
C239 C238 1.428 . S
C239 C240 1.345 . S
C240 H232 0.950 . S
C240 C239 1.345 . S
C240 C241 1.424 . S
C241 H233 0.951 . S
C241 C240 1.424 . S
C241 C242 1.347 . S
C242 H234 0.951 . S
C242 C237 1.429 . S
C242 C241 1.347 . S
H243 C244 0.951 . S
C244 H243 0.951 . S
C244 C250 1.265 . S
H245 C250 0.950 . S
H246 C254 0.949 . S
H247 C255 0.950 . S
H248 C256 0.951 1_554 S
H249 C257 0.951 . S
C250 C244 1.265 . S
C250 H245 0.950 . S
C250 C251 1.478 . S
C251 C238 1.394 . S
C251 C250 1.478 . S
C251 C252 1.397 . S
C252 C251 1.397 . S
C252 C253 1.438 . S
C252 C257 1.429 . S
C253 C236 1.394 . S
C253 C252 1.438 . S
C253 C254 1.428 . S
C254 H246 0.949 . S
C254 C253 1.428 . S
C254 C255 1.345 . S
C255 H247 0.950 . S
C255 C254 1.345 . S
C255 C256 1.424 . S
C256 H248 0.951 1_556 S
C256 C255 1.424 . S
C256 C257 1.347 . S
C257 H249 0.951 . S
C257 C252 1.429 . S
C257 C256 1.347 . S
H258 C259 0.951 . S
C259 H258 0.951 . S
C259 C265 1.265 . S
H260 C265 0.950 . S
H261 C269 0.949 . S
H262 C270 0.950 . S
H263 C271 0.951 . S
H264 C272 0.951 . S
C265 C259 1.265 . S
C265 H260 0.950 . S
C265 C266 1.478 . S
C266 C265 1.478 . S
C266 C267 1.397 . S
C266 C283 1.394 . S
C267 C266 1.397 . S
C267 C268 1.438 . S
C267 C272 1.429 . S
C268 C267 1.438 . S
C268 C269 1.428 . S
C268 C281 1.394 . S
C269 H261 0.949 . S
C269 C268 1.428 . S
C269 C270 1.345 . S
C270 H262 0.950 . S
C270 C269 1.345 . S
C270 C271 1.424 . S
C271 H263 0.951 . S
C271 C270 1.424 . S
C271 C272 1.347 . S
C272 H264 0.951 . S
C272 C267 1.429 . S
C272 C271 1.347 . S
H273 C274 0.951 . S
C274 H273 0.951 . S
C274 C280 1.265 . S
H275 C280 0.950 . S
H276 C284 0.949 . S
H277 C285 0.950 . S
H278 C286 0.951 . S
H279 C287 0.951 . S
C280 C274 1.265 . S
C280 H275 0.950 . S
C280 C281 1.478 . S
C281 C268 1.394 . S
C281 C280 1.478 . S
C281 C282 1.397 . S
C282 C281 1.397 . S
C282 C283 1.438 . S
C282 C287 1.429 . S
C283 C266 1.394 . S
C283 C282 1.438 . S
C283 C284 1.428 . S
C284 H276 0.949 . S
C284 C283 1.428 . S
C284 C285 1.345 . S
C285 H277 0.950 . S
C285 C284 1.345 . S
C285 C286 1.424 . S
C286 H278 0.951 . S
C286 C285 1.424 . S
C286 C287 1.347 . S
C287 H279 0.951 . S
C287 C282 1.429 . S
C287 C286 1.347 . S
H288 C289 0.951 . S
C289 H288 0.951 . S
C289 C295 1.265 . S
H290 C295 0.950 . S
H291 C299 0.949 . S
H292 C300 0.950 . S
H293 C301 0.951 . S
H294 C302 0.951 . S
C295 C289 1.265 . S
C295 H290 0.950 . S
C295 C296 1.478 . S
C296 C295 1.478 . S
C296 C297 1.397 . S
C296 C313 1.394 . S
C297 C296 1.397 . S
C297 C298 1.438 . S
C297 C302 1.429 . S
C298 C297 1.438 . S
C298 C299 1.428 . S
C298 C311 1.394 . S
C299 H291 0.949 . S
C299 C298 1.428 . S
C299 C300 1.345 . S
C300 H292 0.950 . S
C300 C299 1.345 . S
C300 C301 1.424 . S
C301 H293 0.951 . S
C301 C300 1.424 . S
C301 C302 1.347 . S
C302 H294 0.951 . S
C302 C297 1.429 . S
C302 C301 1.347 . S
H303 C304 0.951 . S
C304 H303 0.951 . S
C304 C310 1.265 . S
H305 C310 0.950 . S
H306 C314 0.949 . S
H307 C315 0.950 . S
H308 C316 0.951 . S
H309 C317 0.951 . S
C310 C304 1.265 . S
C310 H305 0.950 . S
C310 C311 1.478 . S
C311 C298 1.394 . S
C311 C310 1.478 . S
C311 C312 1.397 . S
C312 C311 1.397 . S
C312 C313 1.438 . S
C312 C317 1.429 . S
C313 C296 1.394 . S
C313 C312 1.438 . S
C313 C314 1.428 . S
C314 H306 0.949 . S
C314 C313 1.428 . S
C314 C315 1.345 . S
C315 H307 0.950 . S
C315 C314 1.345 . S
C315 C316 1.424 . S
C316 H308 0.951 . S
C316 C315 1.424 . S
C316 C317 1.347 . S
C317 H309 0.951 . S
C317 C312 1.429 . S
C317 C316 1.347 . S
H318 C319 0.951 . S
C319 H318 0.951 . S
C319 C325 1.265 . S
H320 C325 0.950 . S
H321 C329 0.949 . S
H322 C330 0.950 . S
H323 C331 0.951 . S
H324 C332 0.951 . S
C325 C319 1.265 . S
C325 H320 0.950 . S
C325 C326 1.478 . S
C326 C325 1.478 . S
C326 C327 1.397 . S
C326 C343 1.394 . S
C327 C326 1.397 . S
C327 C328 1.438 . S
C327 C332 1.429 . S
C328 C327 1.438 . S
C328 C329 1.428 . S
C328 C341 1.394 . S
C329 H321 0.949 . S
C329 C328 1.428 . S
C329 C330 1.345 . S
C330 H322 0.950 . S
C330 C329 1.345 . S
C330 C331 1.424 . S
C331 H323 0.951 . S
C331 C330 1.424 . S
C331 C332 1.347 . S
C332 H324 0.951 . S
C332 C327 1.429 . S
C332 C331 1.347 . S
H333 C334 0.951 . S
C334 H333 0.951 . S
C334 C340 1.265 . S
H335 C340 0.950 . S
H336 C344 0.949 . S
H337 C345 0.950 . S
H338 C346 0.951 . S
H339 C347 0.951 . S
C340 C334 1.265 . S
C340 H335 0.950 . S
C340 C341 1.478 . S
C341 C328 1.394 . S
C341 C340 1.478 . S
C341 C342 1.397 . S
C342 C341 1.397 . S
C342 C343 1.438 . S
C342 C347 1.429 . S
C343 C326 1.394 . S
C343 C342 1.438 . S
C343 C344 1.428 . S
C344 H336 0.949 . S
C344 C343 1.428 . S
C344 C345 1.345 . S
C345 H337 0.950 . S
C345 C344 1.345 . S
C345 C346 1.424 . S
C346 H338 0.951 . S
C346 C345 1.424 . S
C346 C347 1.347 . S
C347 H339 0.951 . S
C347 C342 1.429 . S
C347 C346 1.347 . S
H348 C349 0.951 . S
C349 H348 0.951 . S
C349 C355 1.265 . S
H350 C355 0.950 . S
H351 C359 0.949 . S
H352 C360 0.950 . S
H353 C361 0.951 1_556 S
H354 C362 0.951 . S
C355 C349 1.265 . S
C355 H350 0.950 . S
C355 C356 1.478 . S
C356 C355 1.478 . S
C356 C357 1.397 . S
C356 C373 1.394 . S
C357 C356 1.397 . S
C357 C358 1.438 . S
C357 C362 1.429 . S
C358 C357 1.438 . S
C358 C359 1.428 . S
C358 C371 1.394 . S
C359 H351 0.949 . S
C359 C358 1.428 . S
C359 C360 1.345 . S
C360 H352 0.950 . S
C360 C359 1.345 . S
C360 C361 1.424 . S
C361 H353 0.951 1_554 S
C361 C360 1.424 . S
C361 C362 1.347 . S
C362 H354 0.951 . S
C362 C357 1.429 . S
C362 C361 1.347 . S
H363 C364 0.951 . S
C364 H363 0.951 . S
C364 C370 1.265 . S
H365 C370 0.950 . S
H366 C374 0.949 . S
H367 C375 0.950 . S
H368 C376 0.951 . S
H369 C377 0.951 . S
C370 C364 1.265 . S
C370 H365 0.950 . S
C370 C371 1.478 . S
C371 C358 1.394 . S
C371 C370 1.478 . S
C371 C372 1.397 . S
C372 C371 1.397 . S
C372 C373 1.438 . S
C372 C377 1.429 . S
C373 C356 1.394 . S
C373 C372 1.438 . S
C373 C374 1.428 . S
C374 H366 0.949 . S
C374 C373 1.428 . S
C374 C375 1.345 . S
C375 H367 0.950 . S
C375 C374 1.345 . S
C375 C376 1.424 . S
C376 H368 0.951 . S
C376 C375 1.424 . S
C376 C377 1.347 . S
C377 H369 0.951 . S
C377 C372 1.429 . S
C377 C376 1.347 . S
H378 C379 0.951 . S
C379 H378 0.951 . S
C379 C385 1.265 . S
H380 C385 0.950 . S
H381 C389 0.949 1_455 S
H382 C390 0.950 . S
H383 C391 0.951 . S
H384 C392 0.951 . S
C385 C379 1.265 . S
C385 H380 0.950 . S
C385 C386 1.478 . S
C386 C385 1.478 . S
C386 C387 1.397 . S
C386 C403 1.394 1_655 S
C387 C386 1.397 . S
C387 C388 1.438 . S
C387 C392 1.429 . S
C388 C387 1.438 . S
C388 C389 1.428 . S
C388 C401 1.394 1_655 S
C389 H381 0.949 1_655 S
C389 C388 1.428 . S
C389 C390 1.345 . S
C390 H382 0.950 . S
C390 C389 1.345 . S
C390 C391 1.424 . S
C391 H383 0.951 . S
C391 C390 1.424 . S
C391 C392 1.347 . S
C392 H384 0.951 . S
C392 C387 1.429 . S
C392 C391 1.347 . S
H393 C394 0.951 . S
C394 H393 0.951 . S
C394 C400 1.265 . S
H395 C400 0.950 . S
H396 C404 0.949 1_655 S
H397 C405 0.950 . S
H398 C406 0.951 . S
H399 C407 0.951 . S
C400 C394 1.265 . S
C400 H395 0.950 . S
C400 C401 1.478 . S
C401 C388 1.394 1_455 S
C401 C400 1.478 . S
C401 C402 1.397 . S
C402 C401 1.397 . S
C402 C403 1.438 . S
C402 C407 1.429 . S
C403 C386 1.394 1_455 S
C403 C402 1.438 . S
C403 C404 1.428 . S
C404 H396 0.949 1_455 S
C404 C403 1.428 . S
C404 C405 1.345 . S
C405 H397 0.950 . S
C405 C404 1.345 . S
C405 C406 1.424 . S
C406 H398 0.951 . S
C406 C405 1.424 . S
C406 C407 1.347 . S
C407 H399 0.951 . S
C407 C402 1.429 . S
C407 C406 1.347 . S
H408 C409 0.951 . S
C409 H408 0.951 . S
C409 C415 1.265 . S
H410 C415 0.950 . S
H411 C419 0.949 . S
H412 C420 0.950 . S
H413 C421 0.951 . S
H414 C422 0.951 . S
C415 C409 1.265 . S
C415 H410 0.950 . S
C415 C416 1.478 . S
C416 C415 1.478 . S
C416 C417 1.397 . S
C416 C433 1.394 . S
C417 C416 1.397 . S
C417 C418 1.438 . S
C417 C422 1.429 . S
C418 C417 1.438 . S
C418 C419 1.428 . S
C418 C431 1.394 . S
C419 H411 0.949 . S
C419 C418 1.428 . S
C419 C420 1.345 . S
C420 H412 0.950 . S
C420 C419 1.345 . S
C420 C421 1.424 . S
C421 H413 0.951 . S
C421 C420 1.424 . S
C421 C422 1.347 . S
C422 H414 0.951 . S
C422 C417 1.429 . S
C422 C421 1.347 . S
H423 C424 0.951 . S
C424 H423 0.951 . S
C424 C430 1.265 . S
H425 C430 0.950 . S
H426 C434 0.949 . S
H427 C435 0.950 . S
H428 C436 0.951 . S
H429 C437 0.951 . S
C430 C424 1.265 . S
C430 H425 0.950 . S
C430 C431 1.478 . S
C431 C418 1.394 . S
C431 C430 1.478 . S
C431 C432 1.397 . S
C432 C431 1.397 . S
C432 C433 1.438 . S
C432 C437 1.429 . S
C433 C416 1.394 . S
C433 C432 1.438 . S
C433 C434 1.428 . S
C434 H426 0.949 . S
C434 C433 1.428 . S
C434 C435 1.345 . S
C435 H427 0.950 . S
C435 C434 1.345 . S
C435 C436 1.424 . S
C436 H428 0.951 . S
C436 C435 1.424 . S
C436 C437 1.347 . S
C437 H429 0.951 . S
C437 C432 1.429 . S
C437 C436 1.347 . S
H438 C439 0.951 . S
C439 H438 0.951 . S
C439 C445 1.265 . S
H440 C445 0.950 . S
H441 C449 0.949 . S
H442 C450 0.950 . S
H443 C451 0.951 . S
H444 C452 0.951 . S
C445 C439 1.265 . S
C445 H440 0.950 . S
C445 C446 1.478 . S
C446 C445 1.478 . S
C446 C447 1.397 1_545 S
C446 C463 1.394 . S
C447 C446 1.397 1_565 S
C447 C448 1.438 . S
C447 C452 1.429 . S
C448 C447 1.438 . S
C448 C449 1.428 . S
C448 C461 1.394 . S
C449 H441 0.949 . S
C449 C448 1.428 . S
C449 C450 1.345 . S
C450 H442 0.950 . S
C450 C449 1.345 . S
C450 C451 1.424 . S
C451 H443 0.951 . S
C451 C450 1.424 . S
C451 C452 1.347 . S
C452 H444 0.951 . S
C452 C447 1.429 . S
C452 C451 1.347 . S
H453 C454 0.951 . S
C454 H453 0.951 . S
C454 C460 1.265 . S
H455 C460 0.950 . S
H456 C464 0.949 . S
H457 C465 0.950 . S
H458 C466 0.951 . S
H459 C467 0.951 . S
C460 C454 1.265 . S
C460 H455 0.950 . S
C460 C461 1.478 . S
C461 C448 1.394 . S
C461 C460 1.478 . S
C461 C462 1.397 1_565 S
C462 C461 1.397 1_545 S
C462 C463 1.438 . S
C462 C467 1.429 . S
C463 C446 1.394 . S
C463 C462 1.438 . S
C463 C464 1.428 . S
C464 H456 0.949 . S
C464 C463 1.428 . S
C464 C465 1.345 . S
C465 H457 0.950 . S
C465 C464 1.345 . S
C465 C466 1.424 . S
C466 H458 0.951 . S
C466 C465 1.424 . S
C466 C467 1.347 . S
C467 H459 0.951 . S
C467 C462 1.429 . S
C467 C466 1.347 . S
H468 C469 0.951 . S
C469 H468 0.951 . S
C469 C475 1.265 . S
H470 C475 0.950 . S
H471 C479 0.949 . S
H472 C480 0.950 . S
H473 C481 0.951 . S
H474 C482 0.951 . S
C475 C469 1.265 . S
C475 H470 0.950 . S
C475 C476 1.478 . S
C476 C475 1.478 . S
C476 C477 1.397 1_556 S
C476 C493 1.394 . S
C477 C476 1.397 1_554 S
C477 C478 1.438 . S
C477 C482 1.429 . S
C478 C477 1.438 . S
C478 C479 1.428 . S
C478 C491 1.394 . S
C479 H471 0.949 . S
C479 C478 1.428 . S
C479 C480 1.345 . S
C480 H472 0.950 . S
C480 C479 1.345 . S
C480 C481 1.424 . S
C481 H473 0.951 . S
C481 C480 1.424 . S
C481 C482 1.347 . S
C482 H474 0.951 . S
C482 C477 1.429 . S
C482 C481 1.347 . S
H483 C484 0.951 . S
C484 H483 0.951 . S
C484 C490 1.265 . S
H485 C490 0.950 . S
H486 C494 0.949 . S
H487 C495 0.950 . S
H488 C496 0.951 . S
H489 C497 0.951 . S
C490 C484 1.265 . S
C490 H485 0.950 . S
C490 C491 1.478 . S
C491 C478 1.394 . S
C491 C490 1.478 . S
C491 C492 1.397 1_554 S
C492 C491 1.397 1_556 S
C492 C493 1.438 . S
C492 C497 1.429 . S
C493 C476 1.394 . S
C493 C492 1.438 . S
C493 C494 1.428 . S
C494 H486 0.949 . S
C494 C493 1.428 . S
C494 C495 1.345 . S
C495 H487 0.950 . S
C495 C494 1.345 . S
C495 C496 1.424 . S
C496 H488 0.951 . S
C496 C495 1.424 . S
C496 C497 1.347 . S
C497 H489 0.951 . S
C497 C492 1.429 . S
C497 C496 1.347 . S
H498 C499 0.951 . S
C499 H498 0.951 . S
C499 C505 1.265 . S
H500 C505 0.950 . S
H501 C509 0.949 . S
H502 C510 0.950 . S
H503 C511 0.951 . S
H504 C512 0.951 . S
C505 C499 1.265 . S
C505 H500 0.950 . S
C505 C506 1.478 . S
C506 C505 1.478 . S
C506 C507 1.397 . S
C506 C523 1.394 . S
C507 C506 1.397 . S
C507 C508 1.438 1_545 S
C507 C512 1.429 . S
C508 C507 1.438 1_565 S
C508 C509 1.428 . S
C508 C521 1.394 . S
C509 H501 0.949 . S
C509 C508 1.428 . S
C509 C510 1.345 . S
C510 H502 0.950 . S
C510 C509 1.345 . S
C510 C511 1.424 . S
C511 H503 0.951 . S
C511 C510 1.424 . S
C511 C512 1.347 1_565 S
C512 H504 0.951 . S
C512 C507 1.429 . S
C512 C511 1.347 1_545 S
H513 C514 0.951 . S
C514 H513 0.951 . S
C514 C520 1.265 . S
H515 C520 0.950 . S
H516 C524 0.949 . S
H517 C525 0.950 . S
H518 C526 0.951 . S
H519 C527 0.951 . S
C520 C514 1.265 . S
C520 H515 0.950 . S
C520 C521 1.478 . S
C521 C508 1.394 . S
C521 C520 1.478 . S
C521 C522 1.397 . S
C522 C521 1.397 . S
C522 C523 1.438 1_565 S
C522 C527 1.429 . S
C523 C506 1.394 . S
C523 C522 1.438 1_545 S
C523 C524 1.428 . S
C524 H516 0.949 . S
C524 C523 1.428 . S
C524 C525 1.345 . S
C525 H517 0.950 . S
C525 C524 1.345 . S
C525 C526 1.424 . S
C526 H518 0.951 . S
C526 C525 1.424 . S
C526 C527 1.347 1_545 S
C527 H519 0.951 . S
C527 C522 1.429 . S
C527 C526 1.347 1_565 S
H528 C529 0.951 . S
C529 H528 0.951 . S
C529 C535 1.265 . S
H530 C535 0.950 . S
H531 C539 0.949 . S
H532 C540 0.950 . S
H533 C541 0.951 . S
H534 C542 0.951 . S
C535 C529 1.265 . S
C535 H530 0.950 . S
C535 C536 1.478 . S
C536 C535 1.478 . S
C536 C537 1.397 . S
C536 C553 1.394 . S
C537 C536 1.397 . S
C537 C538 1.438 1_455 S
C537 C542 1.429 . S
C538 C537 1.438 1_655 S
C538 C539 1.428 . S
C538 C551 1.394 . S
C539 H531 0.949 . S
C539 C538 1.428 . S
C539 C540 1.345 . S
C540 H532 0.950 . S
C540 C539 1.345 . S
C540 C541 1.424 1_655 S
C541 H533 0.951 . S
C541 C540 1.424 1_455 S
C541 C542 1.347 . S
C542 H534 0.951 . S
C542 C537 1.429 . S
C542 C541 1.347 . S
H543 C544 0.951 . S
C544 H543 0.951 . S
C544 C550 1.265 . S
H545 C550 0.950 . S
H546 C554 0.949 . S
H547 C555 0.950 . S
H548 C556 0.951 . S
H549 C557 0.951 . S
C550 C544 1.265 . S
C550 H545 0.950 . S
C550 C551 1.478 . S
C551 C538 1.394 . S
C551 C550 1.478 . S
C551 C552 1.397 . S
C552 C551 1.397 . S
C552 C553 1.438 1_655 S
C552 C557 1.429 . S
C553 C536 1.394 . S
C553 C552 1.438 1_455 S
C553 C554 1.428 . S
C554 H546 0.949 . S
C554 C553 1.428 . S
C554 C555 1.345 . S
C555 H547 0.950 . S
C555 C554 1.345 . S
C555 C556 1.424 1_455 S
C556 H548 0.951 . S
C556 C555 1.424 1_655 S
C556 C557 1.347 . S
C557 H549 0.951 . S
C557 C552 1.429 . S
C557 C556 1.347 . S
H558 C559 0.951 . S
C559 H558 0.951 . S
C559 C565 1.265 . S
H560 C565 0.950 . S
H561 C569 0.952 . S
H562 C570 0.950 . S
H563 C571 0.951 . S
H564 C572 0.951 . S
C565 C559 1.265 . S
C565 H560 0.950 . S
C565 C566 1.478 . S
C566 C565 1.478 . S
C566 C567 1.397 . S
C566 C583 1.394 . S
C567 C566 1.397 . S
C567 C568 1.438 1_655 S
C567 C572 1.429 . S
C568 C567 1.438 1_455 S
C568 C569 1.425 . S
C568 C581 1.394 . S
C569 H561 0.952 . S
C569 C568 1.425 . S
C569 C570 1.345 1_455 S
C570 H562 0.950 . S
C570 C569 1.345 1_655 S
C570 C571 1.424 . S
C571 H563 0.951 . S
C571 C570 1.424 . S
C571 C572 1.347 . S
C572 H564 0.951 . S
C572 C567 1.429 . S
C572 C571 1.347 . S
H573 C574 0.951 . S
C574 H573 0.951 . S
C574 C580 1.265 . S
H575 C580 0.950 . S
H576 C584 0.952 . S
H577 C585 0.950 . S
H578 C586 0.951 . S
H579 C587 0.951 . S
C580 C574 1.265 . S
C580 H575 0.950 . S
C580 C581 1.478 . S
C581 C568 1.394 . S
C581 C580 1.478 . S
C581 C582 1.397 . S
C582 C581 1.397 . S
C582 C583 1.438 1_455 S
C582 C587 1.429 . S
C583 C566 1.394 . S
C583 C582 1.438 1_655 S
C583 C584 1.425 . S
C584 H576 0.952 . S
C584 C583 1.425 . S
C584 C585 1.345 1_655 S
C585 H577 0.950 . S
C585 C584 1.345 1_455 S
C585 C586 1.424 . S
C586 H578 0.951 . S
C586 C585 1.424 . S
C586 C587 1.347 . S
C587 H579 0.951 . S
C587 C582 1.429 . S
C587 C586 1.347 . S
H588 C589 0.951 . S
C589 H588 0.951 . S
C589 C595 1.265 . S
H590 C595 0.950 . S
H591 C599 0.949 . S
H592 C600 0.950 . S
H593 C601 0.951 . S
H594 C602 0.951 . S
C595 C589 1.265 . S
C595 H590 0.950 . S
C595 C596 1.478 . S
C596 C595 1.478 . S
C596 C597 1.397 . S
C596 C613 1.394 . S
C597 C596 1.397 . S
C597 C598 1.438 1_556 S
C597 C602 1.429 . S
C598 C597 1.438 1_554 S
C598 C599 1.428 . S
C598 C611 1.394 . S
C599 H591 0.949 . S
C599 C598 1.428 . S
C599 C600 1.345 . S
C600 H592 0.950 . S
C600 C599 1.345 . S
C600 C601 1.424 . S
C601 H593 0.951 . S
C601 C600 1.424 . S
C601 C602 1.347 1_554 S
C602 H594 0.951 . S
C602 C597 1.429 . S
C602 C601 1.347 1_556 S
H603 C604 0.951 . S
C604 H603 0.951 . S
C604 C610 1.265 . S
H605 C610 0.950 . S
H606 C614 0.949 . S
H607 C615 0.950 . S
H608 C616 0.951 . S
H609 C617 0.951 . S
C610 C604 1.265 . S
C610 H605 0.950 . S
C610 C611 1.478 . S
C611 C598 1.394 . S
C611 C610 1.478 . S
C611 C612 1.397 . S
C612 C611 1.397 . S
C612 C613 1.438 1_554 S
C612 C617 1.429 . S
C613 C596 1.394 . S
C613 C612 1.438 1_556 S
C613 C614 1.428 . S
C614 H606 0.949 . S
C614 C613 1.428 . S
C614 C615 1.345 . S
C615 H607 0.950 . S
C615 C614 1.345 . S
C615 C616 1.424 . S
C616 H608 0.951 . S
C616 C615 1.424 . S
C616 C617 1.347 1_556 S
C617 H609 0.951 . S
C617 C612 1.429 . S
C617 C616 1.347 1_554 S
H618 C619 0.951 . S
C619 H618 0.951 . S
C619 C625 1.265 . S
H620 C625 0.950 . S
H621 C629 0.949 . S
H622 C630 0.950 . S
H623 C631 0.951 . S
H624 C632 0.951 . S
C625 C619 1.265 . S
C625 H620 0.950 . S
C625 C626 1.478 . S
C626 C625 1.478 . S
C626 C627 1.397 1_545 S
C626 C643 1.394 . S
C627 C626 1.397 1_565 S
C627 C628 1.438 . S
C627 C632 1.429 . S
C628 C627 1.438 . S
C628 C629 1.428 . S
C628 C641 1.394 . S
C629 H621 0.949 . S
C629 C628 1.428 . S
C629 C630 1.345 . S
C630 H622 0.950 . S
C630 C629 1.345 . S
C630 C631 1.424 . S
C631 H623 0.951 . S
C631 C630 1.424 . S
C631 C632 1.347 . S
C632 H624 0.951 . S
C632 C627 1.429 . S
C632 C631 1.347 . S
H633 C634 0.951 . S
C634 H633 0.951 . S
C634 C640 1.265 . S
H635 C640 0.950 . S
H636 C644 0.949 . S
H637 C645 0.950 . S
H638 C646 0.951 . S
H639 C647 0.951 . S
C640 C634 1.265 . S
C640 H635 0.950 . S
C640 C641 1.478 . S
C641 C628 1.394 . S
C641 C640 1.478 . S
C641 C642 1.397 1_565 S
C642 C641 1.397 1_545 S
C642 C643 1.438 . S
C642 C647 1.429 . S
C643 C626 1.394 . S
C643 C642 1.438 . S
C643 C644 1.428 . S
C644 H636 0.949 . S
C644 C643 1.428 . S
C644 C645 1.345 . S
C645 H637 0.950 . S
C645 C644 1.345 . S
C645 C646 1.424 . S
C646 H638 0.951 . S
C646 C645 1.424 . S
C646 C647 1.347 . S
C647 H639 0.951 . S
C647 C642 1.429 . S
C647 C646 1.347 . S
C199 N80 1.052 . S
C214 C28 1.158 . S
C229 C61 1.167 . S
C244 N14 1.058 . S
C259 C94 1.154 . S
C274 N47 1.096 . S
C289 C127 1.152 . S
C304 N146 1.085 . S
C319 N179 1.057 . S
C334 C160 1.167 . S
C349 N113 1.194 . S
C364 C193 1.189 . S
C379 C149 0.658 . S
C394 C17 0.671 . S
C409 C182 0.664 . S
C424 C50 0.662 . S
C439 C116 0.683 . S
C454 C83 0.660 . S
C469 C107 1.785 . S
C484 C8 1.772 . S
C499 C140 1.780 . S
C514 C41 1.793 . S
C529 C74 1.818 . S
C544 C173 1.819 . S
C559 N137 2.022 . S
C574 N5 2.004 . S
C589 N38 2.024 . S
C604 N170 2.005 . S
C619 N104 2.016 . S
C634 N71 2.039 . S
