# Generated by pormake.
# Topology umk, (4)-cn, num edge types: 1
# Building blocks:
#     Node 0, Type 0, BuildingBlock: UXUYUI_clean_sbu_0, # of connection points: 4
#     Node 1, Type 0, BuildingBlock: UXUYUI_clean_sbu_0, # of connection points: 4
#     Node 2, Type 0, BuildingBlock: UXUYUI_clean_sbu_0, # of connection points: 4
#     Node 3, Type 0, BuildingBlock: UXUYUI_clean_sbu_0, # of connection points: 4
#     Node 4, Type 0, BuildingBlock: UXUYUI_clean_sbu_0, # of connection points: 4
#     Node 5, Type 0, BuildingBlock: UXUYUI_clean_sbu_0, # of connection points: 4
#     Node 6, Type 0, BuildingBlock: UXUYUI_clean_sbu_0, # of connection points: 4
#     Node 7, Type 0, BuildingBlock: UXUYUI_clean_sbu_0, # of connection points: 4
#     Node 8, Type 0, BuildingBlock: UXUYUI_clean_sbu_0, # of connection points: 4
#     Node 9, Type 0, BuildingBlock: UXUYUI_clean_sbu_0, # of connection points: 4
#     Node 10, Type 0, BuildingBlock: UXUYUI_clean_sbu_0, # of connection points: 4
#     Node 11, Type 0, BuildingBlock: UXUYUI_clean_sbu_0, # of connection points: 4
#     Node 12, Type 0, BuildingBlock: UXUYUI_clean_sbu_0, # of connection points: 4
#     Node 13, Type 0, BuildingBlock: UXUYUI_clean_sbu_0, # of connection points: 4
#     Node 14, Type 0, BuildingBlock: UXUYUI_clean_sbu_0, # of connection points: 4
#     Node 15, Type 0, BuildingBlock: UXUYUI_clean_sbu_0, # of connection points: 4
#     Node 16, Type 0, BuildingBlock: UXUYUI_clean_sbu_0, # of connection points: 4
#     Node 17, Type 0, BuildingBlock: UXUYUI_clean_sbu_0, # of connection points: 4
#     Node 18, Type 0, BuildingBlock: UXUYUI_clean_sbu_0, # of connection points: 4
#     Node 19, Type 0, BuildingBlock: UXUYUI_clean_sbu_0, # of connection points: 4
#     Node 20, Type 0, BuildingBlock: UXUYUI_clean_sbu_0, # of connection points: 4
#     Node 21, Type 0, BuildingBlock: UXUYUI_clean_sbu_0, # of connection points: 4
#     Node 22, Type 0, BuildingBlock: UXUYUI_clean_sbu_0, # of connection points: 4
#     Node 23, Type 0, BuildingBlock: UXUYUI_clean_sbu_0, # of connection points: 4
#     Edge 24, Type (0, 0), BuildingBlock: KIFKEQ_clean_linker_1, # of connection points: 2
#     Edge 25, Type (0, 0), BuildingBlock: KIFKEQ_clean_linker_1, # of connection points: 2
#     Edge 26, Type (0, 0), BuildingBlock: KIFKEQ_clean_linker_1, # of connection points: 2
#     Edge 27, Type (0, 0), BuildingBlock: KIFKEQ_clean_linker_1, # of connection points: 2
#     Edge 28, Type (0, 0), BuildingBlock: KIFKEQ_clean_linker_1, # of connection points: 2
#     Edge 29, Type (0, 0), BuildingBlock: KIFKEQ_clean_linker_1, # of connection points: 2
#     Edge 30, Type (0, 0), BuildingBlock: KIFKEQ_clean_linker_1, # of connection points: 2
#     Edge 31, Type (0, 0), BuildingBlock: KIFKEQ_clean_linker_1, # of connection points: 2
#     Edge 32, Type (0, 0), BuildingBlock: KIFKEQ_clean_linker_1, # of connection points: 2
#     Edge 33, Type (0, 0), BuildingBlock: KIFKEQ_clean_linker_1, # of connection points: 2
#     Edge 34, Type (0, 0), BuildingBlock: KIFKEQ_clean_linker_1, # of connection points: 2
#     Edge 35, Type (0, 0), BuildingBlock: KIFKEQ_clean_linker_1, # of connection points: 2
#     Edge 36, Type (0, 0), BuildingBlock: KIFKEQ_clean_linker_1, # of connection points: 2
#     Edge 37, Type (0, 0), BuildingBlock: KIFKEQ_clean_linker_1, # of connection points: 2
#     Edge 38, Type (0, 0), BuildingBlock: KIFKEQ_clean_linker_1, # of connection points: 2
#     Edge 39, Type (0, 0), BuildingBlock: KIFKEQ_clean_linker_1, # of connection points: 2
#     Edge 40, Type (0, 0), BuildingBlock: KIFKEQ_clean_linker_1, # of connection points: 2
#     Edge 41, Type (0, 0), BuildingBlock: KIFKEQ_clean_linker_1, # of connection points: 2
#     Edge 42, Type (0, 0), BuildingBlock: KIFKEQ_clean_linker_1, # of connection points: 2
#     Edge 43, Type (0, 0), BuildingBlock: KIFKEQ_clean_linker_1, # of connection points: 2
#     Edge 44, Type (0, 0), BuildingBlock: KIFKEQ_clean_linker_1, # of connection points: 2
#     Edge 45, Type (0, 0), BuildingBlock: KIFKEQ_clean_linker_1, # of connection points: 2
#     Edge 46, Type (0, 0), BuildingBlock: KIFKEQ_clean_linker_1, # of connection points: 2
#     Edge 47, Type (0, 0), BuildingBlock: KIFKEQ_clean_linker_1, # of connection points: 2
#     Edge 48, Type (0, 0), BuildingBlock: KIFKEQ_clean_linker_1, # of connection points: 2
#     Edge 49, Type (0, 0), BuildingBlock: KIFKEQ_clean_linker_1, # of connection points: 2
#     Edge 50, Type (0, 0), BuildingBlock: KIFKEQ_clean_linker_1, # of connection points: 2
#     Edge 51, Type (0, 0), BuildingBlock: KIFKEQ_clean_linker_1, # of connection points: 2
#     Edge 52, Type (0, 0), BuildingBlock: KIFKEQ_clean_linker_1, # of connection points: 2
#     Edge 53, Type (0, 0), BuildingBlock: KIFKEQ_clean_linker_1, # of connection points: 2
#     Edge 54, Type (0, 0), BuildingBlock: KIFKEQ_clean_linker_1, # of connection points: 2
#     Edge 55, Type (0, 0), BuildingBlock: KIFKEQ_clean_linker_1, # of connection points: 2
#     Edge 56, Type (0, 0), BuildingBlock: KIFKEQ_clean_linker_1, # of connection points: 2
#     Edge 57, Type (0, 0), BuildingBlock: KIFKEQ_clean_linker_1, # of connection points: 2
#     Edge 58, Type (0, 0), BuildingBlock: KIFKEQ_clean_linker_1, # of connection points: 2
#     Edge 59, Type (0, 0), BuildingBlock: KIFKEQ_clean_linker_1, # of connection points: 2
#     Edge 60, Type (0, 0), BuildingBlock: KIFKEQ_clean_linker_1, # of connection points: 2
#     Edge 61, Type (0, 0), BuildingBlock: KIFKEQ_clean_linker_1, # of connection points: 2
#     Edge 62, Type (0, 0), BuildingBlock: KIFKEQ_clean_linker_1, # of connection points: 2
#     Edge 63, Type (0, 0), BuildingBlock: KIFKEQ_clean_linker_1, # of connection points: 2
#     Edge 64, Type (0, 0), BuildingBlock: KIFKEQ_clean_linker_1, # of connection points: 2
#     Edge 65, Type (0, 0), BuildingBlock: KIFKEQ_clean_linker_1, # of connection points: 2
#     Edge 66, Type (0, 0), BuildingBlock: KIFKEQ_clean_linker_1, # of connection points: 2
#     Edge 67, Type (0, 0), BuildingBlock: KIFKEQ_clean_linker_1, # of connection points: 2
#     Edge 68, Type (0, 0), BuildingBlock: KIFKEQ_clean_linker_1, # of connection points: 2
#     Edge 69, Type (0, 0), BuildingBlock: KIFKEQ_clean_linker_1, # of connection points: 2
#     Edge 70, Type (0, 0), BuildingBlock: KIFKEQ_clean_linker_1, # of connection points: 2
#     Edge 71, Type (0, 0), BuildingBlock: KIFKEQ_clean_linker_1, # of connection points: 2
# Relax obj value: 0.190
# Max RMSD: 0.162
# Mean RMSD: 0.162
data_MOF--net-umk--node1-UXUYUI_clean_sbu_0--edge1-KIFKEQ_clean_linker_1
_symmetry_space_group_name_H-M    P1
_symmetry_Int_Tables_number       1
_symmetry_cell_setting            triclinic
loop_
_symmetry_equiv_pos_as_xyz
'x, y, z'
_cell_length_a     98.123496
_cell_length_b     62.611923
_cell_length_c     0.21284985
_cell_angle_alpha  89.994879
_cell_angle_beta   119.99201
_cell_angle_gamma 98.116861
loop_
_atom_site_label
_atom_site_type_symbol
_atom_site_fract_x
_atom_site_fract_y
_atom_site_fract_z
_atom_type_partial_charge
Li0 Li 0.19026 0.63436 31.87949 0.0
Li1 Li 0.1884 0.60964 22.43263 0.0
Li2 Li 0.18752 0.64946 20.62255 0.0
Li3 Li 0.16507 0.62486 19.83755 0.0
C4 C 0.22072 0.64233 32.82521 0.0
N5 N 0.25269 0.65675 42.56163 0.0
C6 C 0.23125 0.62752 35.97339 0.0
C7 C 0.22656 0.66451 34.51245 0.0
C8 C 0.24733 0.63511 40.91926 0.0
C9 C 0.24272 0.67147 39.47469 0.0
C10 C 0.17541 0.58461 29.16136 0.0
C11 C 0.16596 0.54669 25.12601 0.0
N12 N 0.17397 0.54168 32.15745 0.0
C13 C 0.18344 0.5791 36.35255 0.0
C14 C 0.16649 0.56831 23.50444 0.0
C15 C 0.1826 0.5573 37.75335 0.0
C16 C 0.19329 0.65194 44.96388 0.0
N17 N 0.19963 0.63972 42.12442 0.0
C18 C 0.22047 0.63465 54.02425 0.0
C19 C 0.21275 0.63072 46.48647 0.0
C20 C 0.21448 0.64772 57.11845 0.0
C21 C 0.20058 0.65621 52.49916 0.0
H22 H 0.18261 0.65847 41.38193 0.0
H23 H 0.21712 0.62026 44.11359 0.0
C24 C 0.19634 0.58324 14.49807 0.0
N25 N 0.19688 0.586 20.9558 0.0
C26 C 0.20471 0.5684 13.59279 0.0
C27 C 0.21337 0.55882 25.88281 0.0
C28 C 0.20494 0.57393 26.56247 0.0
C29 C 0.21376 0.55642 19.41442 0.0
H30 H 0.19008 0.59336 10.17837 0.0
H31 H 0.20554 0.57682 31.70363 0.0
C32 C 0.17578 0.67497 27.14053 0.0
N33 N 0.17719 0.71825 30.39725 0.0
C34 C 0.1621 0.68462 23.57416 0.0
C35 C 0.19011 0.68726 32.44711 0.0
C36 C 0.16307 0.70655 25.27071 0.0
C37 C 0.1906 0.70913 33.99778 0.0
C38 C 0.16216 0.61937 6.67099 0.0
C39 C 0.15679 0.63617 2.1695 0.0
C40 C 0.1546 0.59805 4.02769 0.0
C41 C 0.5208 0.71478 335.92499 0.0
C42 C 0.51865 0.67732 337.75185 0.0
N43 N 0.5135 0.69393 333.49032 0.0
C44 C 0.20725 0.67331 16.23801 0.0
C45 C 0.18477 0.68917 13.89928 0.0
C46 C 0.21226 0.69008 13.17054 0.0
N47 N 0.19381 0.67326 16.60145 0.0
C48 C 0.18936 0.70629 10.79775 0.0
C49 C 0.20327 0.70688 10.40028 0.0
H50 H 0.21404 0.66024 18.31268 0.0
H51 H 0.17384 0.68837 14.00917 0.0
C52 C 0.13458 0.6028 16.42325 0.0
N53 N 0.14254 0.61998 15.04232 0.0
C54 C 0.11798 0.59984 13.0594 0.0
C55 C 0.11815 0.6323 6.9223 0.0
C56 C 0.13471 0.63459 10.39152 0.0
C57 C 0.10959 0.61484 8.29244 0.0
H58 H 0.14112 0.59163 20.24141 0.0
H59 H 0.14137 0.6482 9.44466 0.0
O60 O 0.20492 0.63513 27.95544 0.0
O61 O 0.17615 0.60588 27.68993 0.0
O62 O 0.17506 0.65357 25.47525 0.0
O63 O 0.17489 0.62377 13.5955 0.0
H64 H 0.22704 0.61032 34.67962 0.0
H65 H 0.21877 0.67627 31.9527 0.0
H66 H 0.25556 0.62379 43.44663 0.0
H67 H 0.24736 0.68858 40.84297 0.0
H68 H 0.15916 0.53391 20.79483 0.0
H69 H 0.19025 0.59151 40.80503 0.0
H70 H 0.16007 0.5723 17.92418 0.0
H71 H 0.18881 0.55279 43.29012 0.0
H72 H 0.2309 0.62732 57.40204 0.0
H73 H 0.19557 0.66631 54.67791 0.0
H74 H 0.20486 0.56731 8.55097 0.0
H75 H 0.22007 0.54978 30.48435 0.0
H76 H 0.15085 0.67534 19.51719 0.0
H77 H 0.20068 0.67994 35.41123 0.0
H78 H 0.15259 0.71425 22.51555 0.0
H79 H 0.20164 0.71882 38.08595 0.0
H80 H 0.16256 0.65274 4.11035 0.0
H81 H 0.15881 0.58483 7.38293 0.0
H82 H 0.51643 0.72764 332.40149 0.0
H83 H 0.51264 0.6609 335.64719 0.0
H84 H 0.22312 0.68998 13.01369 0.0
H85 H 0.18191 0.71867 8.59269 0.0
H86 H 0.11184 0.58634 14.34324 0.0
H87 H 0.11212 0.64412 3.23361 0.0
Li88 Li 0.97487 0.50636 191.09543 0.0
Li89 Li 0.96959 0.50442 201.57761 0.0
Li90 Li 0.95155 0.48113 189.57063 0.0
Li91 Li 0.95278 0.51914 190.48406 0.0
C92 C 0.98636 0.46921 200.13935 0.0
N93 N 1.01046 0.44475 207.04249 0.0
C94 C 1.00014 0.47734 206.69817 0.0
C95 C 0.9848 0.44855 197.12481 0.0
C96 C 1.0122 0.46476 210.09305 0.0
C97 C 0.99713 0.43646 200.68698 0.0
C98 C 0.97579 0.55164 197.53814 0.0
C99 C 0.97405 0.58485 202.6407 0.0
N100 N 0.97492 0.59556 197.25928 0.0
C101 C 0.97675 0.56299 192.08348 0.0
C102 C 0.97448 0.56264 202.87913 0.0
C103 C 0.97625 0.58518 192.02522 0.0
C104 C 0.9878 0.52111 182.4192 0.0
N105 N 0.99123 0.51144 188.64926 0.0
C106 C 1.01815 0.51198 191.54327 0.0
C107 C 1.00603 0.50673 193.17518 0.0
C108 C 1.01504 0.52237 185.21936 0.0
C109 C 0.99955 0.52666 180.57318 0.0
H110 H 0.976 0.525 178.9588 0.0
H111 H 1.00862 0.49954 198.1657 0.0
C112 C 0.97385 0.48991 214.95027 0.0
N113 N 0.97917 0.50522 211.80966 0.0
C114 C 0.98136 0.49018 222.53136 0.0
C115 C 0.99952 0.52206 223.43817 0.0
C116 C 0.99172 0.52111 215.86672 0.0
C117 C 0.99445 0.50638 226.88079 0.0
H118 H 0.96388 0.47737 211.5605 0.0
H119 H 0.9958 0.53291 213.20974 0.0
C120 C 0.95217 0.4901 177.08135 0.0
N121 N 0.95113 0.46631 165.85691 0.0
C122 C 0.94199 0.49389 169.84516 0.0
C123 C 0.96181 0.47418 178.59048 0.0
C124 C 0.94163 0.4817 164.25151 0.0
C125 C 0.96113 0.46234 172.8505 0.0
C126 C 0.93194 0.50207 194.62216 0.0
C127 C 0.91849 0.49879 187.64702 0.0
C128 C 0.93077 0.5099 200.45323 0.0
C129 C 0.90408 0.50368 186.60105 0.0
C130 C 0.91613 0.51456 199.18401 0.0
N131 N 0.90321 0.5114 192.34205 0.0
C132 C 0.94123 0.43661 189.53627 0.0
C133 C 0.92612 0.45244 178.51573 0.0
C134 C 0.93129 0.41665 186.57899 0.0
N135 N 0.93848 0.45393 185.47241 0.0
C136 C 0.91597 0.43284 175.33396 0.0
C137 C 0.9184 0.41462 179.38917 0.0
H138 H 0.95101 0.4384 195.10189 0.0
H139 H 0.92402 0.46656 175.44924 0.0
C140 C 0.9351 0.54564 179.73439 0.0
N141 N 0.93998 0.5415 186.74627 0.0
C142 C 0.92596 0.5619 176.61825 0.0
C143 C 0.92714 0.56956 188.02279 0.0
C144 C 0.93622 0.55307 190.9113 0.0
C145 C 0.9219 0.57419 180.77887 0.0
H146 H 0.9384 0.53639 176.57168 0.0
H147 H 0.94047 0.54974 196.51351 0.0
O148 O 0.97424 0.48109 196.8127 0.0
O149 O 0.97594 0.52983 197.598 0.0
O150 O 0.95252 0.50188 182.60205 0.0
O151 O 0.94617 0.49752 195.75612 0.0
H152 H 1.00164 0.49335 209.08006 0.0
H153 H 0.97417 0.44185 192.0911 0.0
H154 H 1.02296 0.47093 215.14585 0.0
H155 H 0.99608 0.42047 198.40527 0.0
H156 H 0.97293 0.59354 206.70665 0.0
H157 H 0.97769 0.5547 187.8923 0.0
H158 H 0.9735 0.55407 207.08461 0.0
H159 H 0.97689 0.59414 187.80819 0.0
H160 H 1.03 0.50877 195.35613 0.0
H161 H 0.99661 0.53455 175.6261 0.0
H162 H 0.97717 0.47763 224.94976 0.0
H163 H 1.00939 0.53503 226.5564 0.0
H164 H 0.93435 0.50603 168.55004 0.0
H165 H 0.96983 0.47107 184.12017 0.0
H166 H 0.93378 0.48447 158.63207 0.0
H167 H 0.96856 0.45002 173.95823 0.0
H168 H 0.91925 0.49282 183.07937 0.0
H169 H 0.94109 0.51247 205.88759 0.0
H170 H 0.89359 0.50137 181.22375 0.0
H171 H 0.91505 0.52072 203.63556 0.0
H172 H 0.93346 0.40312 189.93935 0.0
H173 H 0.90631 0.43199 169.75315 0.0
H174 H 0.92204 0.5647 170.98937 0.0
H175 H 0.92452 0.57883 191.47057 0.0
Li176 Li 0.23904 1.22039 20.89651 0.0
Li177 Li 0.2431 1.19958 30.81448 0.0
Li178 Li 0.23976 1.18268 19.70248 0.0
Li179 Li 0.21717 1.19515 19.7986 0.0
C180 C 0.27122 1.21846 31.26618 0.0
N181 N 0.29932 1.24561 40.57073 0.0
C182 C 0.27089 1.23755 34.5534 0.0
C183 C 0.28583 1.21319 32.69861 0.0
C184 C 0.28523 1.25105 39.24935 0.0
C185 C 0.29991 1.22712 37.41825 0.0
C186 C 0.2211 1.2235 30.56364 0.0
C187 C 0.20871 1.20846 37.27985 0.0
N188 N 0.20604 1.22849 38.37869 0.0
C189 C 0.2182 1.24391 31.74537 0.0
C190 C 0.2163 1.20559 33.33926 0.0
C191 C 0.21058 1.24611 35.71657 0.0
C192 C 0.23129 1.26003 16.24821 0.0
N193 N 0.24326 1.24836 18.23228 0.0
C194 C 0.25961 1.27835 17.07804 0.0
C195 C 0.25709 1.25678 18.48049 0.0
C196 C 0.24767 1.29113 15.31408 0.0
C197 C 0.23317 1.28145 14.68985 0.0
H198 H 0.22034 1.25273 15.99932 0.0
H199 H 0.26633 1.24698 19.96232 0.0
C200 C 0.25954 1.1819 44.43904 0.0
N201 N 0.25407 1.19995 41.16376 0.0
C202 C 0.26778 1.18214 52.03455 0.0
C203 C 0.2645 1.21946 52.70097 0.0
C204 C 0.25639 1.21851 45.12713 0.0
C205 C 0.27041 1.20116 56.26927 0.0
H206 H 0.25759 1.16739 41.14745 0.0
H207 H 0.25198 1.23269 42.41702 0.0
C208 C 0.22498 1.20919 7.03669 0.0
N209 N 0.60481 1.31438 337.12075 0.0
C210 C 0.21243 1.21905 1.94588 0.0
C211 C 0.23889 1.21032 6.66351 0.0
C212 C 0.59115 1.31342 337.37047 0.0
C213 C 0.24004 1.22142 1.21176 0.0
C214 C 0.2211 1.15145 22.68668 0.0
C215 C 0.21083 1.14678 15.19351 0.0
C216 C 0.22316 1.135 27.36775 0.0
C217 C 0.20277 1.12568 12.50916 0.0
C218 C 0.21487 1.11411 24.4718 0.0
N219 N 0.20493 1.10991 17.16464 0.0
C220 C 0.25811 1.15123 20.09508 0.0
C221 C 0.23564 1.15415 8.55303 0.0
C222 C 0.26144 1.13383 17.27133 0.0
N223 N 0.2453 1.16078 15.72899 0.0
C224 C 0.23846 1.13679 5.51984 0.0
C225 C 0.25136 1.12621 9.91798 0.0
H226 H 0.26549 1.15682 25.79949 0.0
H227 H 0.2255 1.16201 5.22054 0.0
C228 C 0.18788 1.20814 12.0785 0.0
N229 N 0.19472 1.19147 15.8492 0.0
C230 C 0.17147 1.2076 8.8122 0.0
C231 C 0.16942 1.17289 13.5121 0.0
C232 C 0.18594 1.17423 16.76179 0.0
C233 C 0.16194 1.18967 9.41439 0.0
H234 H 0.19525 1.22197 11.66256 0.0
H235 H 0.19169 1.16151 19.99926 0.0
O236 O 0.25738 1.20503 26.58039 0.0
O237 O 0.22847 1.22121 26.64225 0.0
O238 O 0.22388 1.19896 12.48058 0.0
O239 O 0.22942 1.17186 25.45464 0.0
H240 H 0.25969 1.24203 33.42665 0.0
H241 H 0.28626 1.19849 30.16562 0.0
H242 H 0.28515 1.26589 41.82139 0.0
H243 H 0.31129 1.22326 38.56682 0.0
H244 H 0.20495 1.19476 39.46341 0.0
H245 H 0.22181 1.25791 29.615 0.0
H246 H 0.21839 1.18965 32.48093 0.0
H247 H 0.20828 1.26182 36.67902 0.0
H248 H 0.27098 1.28512 17.64243 0.0
H249 H 0.22345 1.29043 13.1428 0.0
H250 H 0.27227 1.16773 54.55712 0.0
H251 H 0.26601 1.23436 55.72457 0.0
H252 H 0.20158 1.21831 2.14344 0.0
H253 H 0.24879 1.20298 10.615 0.0
H254 H 0.58156 1.32119 333.40804 0.0
H255 H 0.25076 1.22254 0.88573 0.0
H256 H 0.20902 1.15931 11.48747 0.0
H257 H 0.23112 1.13835 33.17973 0.0
H258 H 0.19478 1.12184 6.72455 0.0
H259 H 0.21635 1.10121 28.03274 0.0
H260 H 0.27142 1.12595 20.84947 0.0
H261 H 0.23052 1.13154 -0.19054 0.0
H262 H 0.16637 1.22123 5.91149 0.0
H263 H 0.1626 1.15874 14.13221 0.0
Li264 Li 0.6668 0.81027 192.1843 0.0
Li265 Li 0.68511 0.79121 202.25713 0.0
Li266 Li 0.68616 0.79445 190.7093 0.0
Li267 Li 0.6648 0.76964 190.88551 0.0
C268 C 0.69389 0.83957 199.54676 0.0
N269 N 0.70047 0.88409 202.28148 0.0
C270 C 0.69975 0.84892 206.57046 0.0
C271 C 0.69163 0.85287 193.94373 0.0
C272 C 0.70295 0.87145 207.8369 0.0
C273 C 0.69495 0.87533 195.42463 0.0
C274 C 0.65627 0.78299 202.32132 0.0
C275 C 0.65052 0.75767 209.56189 0.0
N276 N 0.6457 0.77345 212.00551 0.0
C277 C 0.651 0.79885 204.8176 0.0
C278 C 0.65582 0.76215 204.63779 0.0
C279 C 0.6458 0.79376 209.74584 0.0
C280 C 0.64276 0.83365 182.90802 0.0
N281 N 0.6547 0.83312 189.87495 0.0
C282 C 0.64779 0.86358 193.75017 0.0
C283 C 0.65743 0.84773 195.26123 0.0
C284 C 0.63507 0.86415 186.64655 0.0
C285 C 0.63273 0.84913 181.15939 0.0
H286 H 0.64071 0.82165 178.75125 0.0
H287 H 0.66673 0.84661 200.7882 0.0
C288 C 0.70966 0.78065 215.7901 0.0
N289 N 0.697 0.79137 212.56524 0.0
C290 C 0.71836 0.7806 223.36147 0.0
C291 C 0.70105 0.80306 224.14208 0.0
C292 C 0.69273 0.80269 216.57335 0.0
C293 C 0.71402 0.79183 227.63375 0.0
H294 H 0.71302 0.77215 212.48559 0.0
H295 H 0.68304 0.81179 213.89964 0.0
C296 C 0.66103 0.79204 176.98844 0.0
N297 N 0.65788 0.79342 163.35181 0.0
C298 C 0.65605 0.77301 172.45788 0.0
C299 C 0.66413 0.81182 174.52729 0.0
C300 C 0.6546 0.77403 165.59638 0.0
C301 C 0.66255 0.81217 167.63428 0.0
C302 C 0.69118 0.74827 197.73489 0.0
C303 C 0.69716 0.73827 193.96172 0.0
C304 C 0.68856 0.73704 202.80837 0.0
C305 C 0.70003 0.71701 195.19747 0.0
C306 C 0.69159 0.71581 203.89647 0.0
N307 N 0.69718 0.7063 200.08988 0.0
C308 C 0.71137 0.8156 189.00058 0.0
C309 C 0.6974 0.78294 181.52937 0.0
C310 C 0.7213 0.81859 186.03255 0.0
N311 N 0.69966 0.79806 186.68329 0.0
C312 C 0.70699 0.78531 178.39711 0.0
C313 C 0.71914 0.80333 180.64507 0.0
H314 H 0.71305 0.82723 193.17465 0.0
H315 H 0.68818 0.76896 179.87886 0.0
C316 C 0.63624 0.74142 186.67226 0.0
N317 N 0.65037 0.74312 186.83176 0.0
C318 C 0.62505 0.72253 183.64977 0.0
C319 C 0.643 0.70761 180.85047 0.0
C320 C 0.65387 0.72678 183.95524 0.0
C321 C 0.62834 0.7053 180.66431 0.0
H322 H 0.63362 0.75482 188.86216 0.0
H323 H 0.66492 0.72878 183.91003 0.0
O324 O 0.69058 0.81752 198.19499 0.0
O325 O 0.66148 0.78776 197.51785 0.0
O326 O 0.66268 0.79132 183.75748 0.0
O327 O 0.68822 0.76905 196.55373 0.0
H328 H 0.70181 0.83892 210.99815 0.0
H329 H 0.68737 0.84594 188.51225 0.0
H330 H 0.7074 0.8789 213.23838 0.0
H331 H 0.69316 0.88581 191.12459 0.0
H332 H 0.65018 0.74162 211.41348 0.0
H333 H 0.65105 0.81499 203.02015 0.0
H334 H 0.65932 0.74947 202.58583 0.0
H335 H 0.64184 0.80594 211.76907 0.0
H336 H 0.64979 0.87457 198.16589 0.0
H337 H 0.62305 0.84906 175.616 0.0
H338 H 0.72826 0.77171 225.83498 0.0
H339 H 0.69755 0.81238 227.23126 0.0
H340 H 0.65344 0.75759 174.23455 0.0
H341 H 0.66767 0.82674 177.89137 0.0
H342 H 0.65087 0.7594 162.0587 0.0
H343 H 0.66501 0.82736 165.68306 0.0
H344 H 0.69949 0.74677 190.09692 0.0
H345 H 0.68444 0.74471 205.94467 0.0
H346 H 0.70454 0.70904 192.27246 0.0
H347 H 0.68956 0.70693 207.79294 0.0
H348 H 0.73049 0.83275 187.89823 0.0
H349 H 0.70512 0.77295 174.36327 0.0
H350 H 0.61398 0.72142 183.68497 0.0
H351 H 0.64589 0.69494 178.47555 0.0
Li352 Li -0.09679 0.91902 30.14669 0.0
Li353 Li -0.12289 0.91305 19.49389 0.0
Li354 Li -0.10167 0.8971 19.74339 0.0
Li355 Li -0.10153 0.93535 19.16689 0.0
C356 C -0.10523 0.87462 30.0844 0.0
N357 N -0.0929 0.84125 38.594 0.0
C358 C -0.11537 0.85791 30.75279 0.0
C359 C -0.08881 0.87436 33.74356 0.0
C360 C -0.10891 0.84118 35.0818 0.0
C361 C -0.08281 0.85735 38.01817 0.0
C362 C -0.11681 0.94691 29.51905 0.0
C363 C -0.12207 0.97452 35.55815 0.0
N364 N -0.12884 0.95888 38.04914 0.0
C365 C -0.12384 0.93112 32.13334 0.0
C366 C -0.11593 0.96879 31.23585 0.0
C367 C -0.12985 0.93749 36.4373 0.0
C368 C -0.07072 0.93574 43.81273 0.0
N369 N -0.08518 0.92275 40.47702 0.0
C370 C -0.08253 0.91453 51.95223 0.0
C371 C -0.0912 0.91224 44.3686 0.0
C372 C -0.06748 0.92767 55.56268 0.0
C373 C -0.06157 0.9384 51.40119 0.0
H374 H -0.06628 0.94396 40.56748 0.0
H375 H -0.10268 0.90187 41.59325 0.0
C376 C -0.1511 0.88545 14.09538 0.0
N377 N -0.14508 0.90684 15.88056 0.0
C378 C -0.16703 0.87809 11.846 0.0
C379 C -0.17048 0.91506 13.08893 0.0
C380 C -0.1544 0.92175 15.29311 0.0
C381 C -0.1769 0.89291 11.42116 0.0
H382 H -0.14336 0.87405 14.60638 0.0
H383 H -0.1493 0.93872 16.69301 0.0
C384 C -0.07254 0.92246 23.25967 0.0
N385 N -0.05075 0.92664 18.53641 0.0
C386 C -0.07755 0.91679 15.98695 0.0
C387 C -0.05644 0.93022 28.13098 0.0
C388 C -0.06636 0.91902 13.70444 0.0
C389 C -0.04561 0.93223 25.63859 0.0
C390 C -0.12829 0.92059 5.76792 0.0
C391 C 0.24275 0.99368 339.64974 0.0
C392 C -0.13352 0.93962 6.48338 0.0
C393 C 0.23154 1.00259 333.55075 0.0
C394 C -0.14474 0.94801 0.25341 0.0
N395 N 0.22663 1.02111 334.36972 0.0
C396 C -0.111 0.85929 10.91316 0.0
C397 C -0.08318 0.86594 19.33813 0.0
C398 C -0.10962 0.84027 8.02447 0.0
N399 N -0.09789 0.87169 16.42594 0.0
C400 C -0.08122 0.84713 16.56101 0.0
C401 C -0.09456 0.83407 10.82364 0.0
H402 H -0.12254 0.86427 8.75004 0.0
H403 H -0.07297 0.87595 23.7956 0.0
C404 C -0.09139 0.97968 19.29377 0.0
N405 N -0.09583 0.96024 15.40482 0.0
C406 C -0.08677 0.99831 16.76925 0.0
C407 C -0.09129 0.97645 6.32769 0.0
C408 C -0.09605 0.95834 8.99201 0.0
C409 C -0.08654 0.9967 10.24957 0.0
H410 H -0.09131 0.98064 24.38398 0.0
H411 H -0.09983 0.94274 5.95767 0.0
O412 O -0.11147 0.89108 25.86347 0.0
O413 O -0.11078 0.9412 25.30198 0.0
O414 O -0.08323 0.92051 25.65336 0.0
O415 O -0.11731 0.91196 11.76549 0.0
H416 H -0.12811 0.8579 27.96041 0.0
H417 H -0.08076 0.88716 33.31901 0.0
H418 H -0.11662 0.82815 35.65122 0.0
H419 H -0.07014 0.85695 40.88245 0.0
H420 H -0.12145 0.9914 36.93093 0.0
H421 H -0.12474 0.91411 30.84069 0.0
H422 H -0.11056 0.98124 29.2464 0.0
H423 H -0.13532 0.92542 38.49144 0.0
H424 H -0.08742 0.90575 54.95668 0.0
H425 H -0.05009 0.94884 53.98187 0.0
H426 H -0.17137 0.86084 10.74864 0.0
H427 H -0.17772 0.927 12.79339 0.0
H428 H -0.08993 0.91068 12.1343 0.0
H429 H -0.05235 0.93465 33.78394 0.0
H430 H -0.07009 0.91469 8.09036 0.0
H431 H -0.03311 0.93822 29.35169 0.0
H432 H 0.24669 0.97895 339.0108 0.0
H433 H -0.12896 0.94787 11.77554 0.0
H434 H 0.22675 0.99478 328.16613 0.0
H435 H -0.14888 0.96272 0.72717 0.0
H436 H -0.12017 0.83073 3.56277 0.0
H437 H -0.06944 0.84274 18.91466 0.0
H438 H -0.08309 1.01369 19.94813 0.0
H439 H -0.09142 0.97468 1.23487 0.0
Li440 Li 0.63069 0.22199 201.30999 0.0
Li441 Li 0.61367 0.19439 191.24978 0.0
Li442 Li 0.63328 0.22029 190.46257 0.0
Li443 Li 0.60931 0.23018 189.78966 0.0
C444 C 0.65323 0.19882 201.98868 0.0
N445 N 0.6856 0.19934 210.89843 0.0
C446 C 0.65918 0.17944 204.08031 0.0
C447 C 0.66374 0.21849 204.43499 0.0
C448 C 0.67559 0.18004 208.58577 0.0
C449 C 0.68006 0.2184 208.93325 0.0
C450 C 0.59642 0.21961 197.86113 0.0
C451 C 0.56913 0.2241 193.42858 0.0
N452 N 0.57397 0.23716 199.51609 0.0
C453 C 0.60109 0.23295 204.09939 0.0
C454 C 0.58028 0.21499 192.50716 0.0
C455 C 0.58957 0.2417 204.82687 0.0
C456 C 0.64773 0.24794 214.72246 0.0
N457 N 0.64244 0.22738 211.53784 0.0
C458 C 0.65484 0.21285 223.10835 0.0
C459 C 0.64569 0.20996 215.53969 0.0
C460 C 0.66058 0.23389 226.57449 0.0
C461 C 0.65684 0.2516 222.29346 0.0
H462 H 0.64489 0.26145 211.37898 0.0
H463 H 0.64125 0.1938 212.82886 0.0
C464 C 0.6139 0.15076 188.98536 0.0
N465 N 0.60478 0.16466 189.3014 0.0
C466 C 0.60884 0.1285 188.23132 0.0
C467 C 0.5847 0.1353 187.77657 0.0
C468 C 0.59037 0.15748 188.67214 0.0
C469 C 0.59417 0.12059 187.70663 0.0
H470 H 0.62528 0.15702 189.48704 0.0
H471 H 0.58344 0.16893 189.00134 0.0
C472 C 0.6335 0.26494 192.56141 0.0
N473 N 0.63664 0.30321 186.57495 0.0
C474 C 0.62521 0.26593 185.00491 0.0
C475 C 0.64337 0.28344 197.06217 0.0
C476 C 0.62695 0.28542 182.08925 0.0
C477 C 0.64483 0.30261 193.93227 0.0
C478 C 0.6014 0.19495 177.35612 0.0
C479 C 0.60792 0.18466 173.90022 0.0
C480 C 0.58538 0.18848 175.27499 0.0
C481 C 0.5984 0.16778 168.52263 0.0
C482 C 0.57625 0.17152 169.87924 0.0
N483 N 0.5829 0.16159 166.64864 0.0
C484 C 0.65167 0.20392 185.68871 0.0
C485 C 0.65626 0.24226 186.78706 0.0
C486 C 0.66242 0.20359 183.23002 0.0
N487 N 0.64855 0.22304 187.27836 0.0
C488 C 0.66703 0.24269 184.2967 0.0
C489 C 0.67012 0.22317 182.42759 0.0
H490 H 0.64569 0.18886 186.29668 0.0
H491 H 0.65424 0.25732 188.35377 0.0
C492 C 0.59548 0.26623 189.9781 0.0
N493 N 0.59424 0.24935 185.61103 0.0
C494 C 0.58556 0.28177 187.07329 0.0
C495 C 0.57335 0.26234 175.21582 0.0
C496 C 0.58344 0.24709 178.36359 0.0
C497 C 0.57447 0.28007 179.58207 0.0
H498 H 0.60448 0.26791 195.68863 0.0
H499 H 0.583 0.23383 174.98671 0.0
O500 O 0.63717 0.19841 197.59683 0.0
O501 O 0.60756 0.21109 197.01504 0.0
O502 O 0.63166 0.24623 195.57996 0.0
O503 O 0.61062 0.21124 182.74169 0.0
H504 H 0.6512 0.16409 202.25111 0.0
H505 H 0.65939 0.23367 202.89196 0.0
H506 H 0.68036 0.16516 210.24837 0.0
H507 H 0.68833 0.2335 210.86483 0.0
H508 H 0.55664 0.2208 189.29619 0.0
H509 H 0.61347 0.23663 208.32114 0.0
H510 H 0.57641 0.20473 187.64518 0.0
H511 H 0.59304 0.25214 209.60989 0.0
H512 H 0.65727 0.19878 226.21757 0.0
H513 H 0.66112 0.26807 224.76232 0.0
H514 H 0.61638 0.11755 188.15696 0.0
H515 H 0.57337 0.12969 187.43643 0.0
H516 H 0.61757 0.25181 181.41512 0.0
H517 H 0.64986 0.283 202.91562 0.0
H518 H 0.6206 0.2864 176.25796 0.0
H519 H 0.65245 0.31704 197.35472 0.0
H520 H 0.62017 0.18967 175.3181 0.0
H521 H 0.58011 0.19625 177.87027 0.0
H522 H 0.60333 0.15962 165.83077 0.0
H523 H 0.56389 0.16623 168.27541 0.0
H524 H 0.66444 0.18816 181.8349 0.0
H525 H 0.67299 0.25814 183.90523 0.0
H526 H 0.58699 0.29542 190.59691 0.0
H527 H 0.56495 0.26048 169.41538 0.0
Li528 Li 0.63506 0.96983 319.88645 0.0
Li529 Li 0.64219 1.00772 320.4141 0.0
Li530 Li 0.63071 0.98578 308.91565 0.0
Li531 Li 0.65798 0.98403 319.09629 0.0
C532 C 0.61123 0.99479 317.45695 0.0
N533 N 0.59271 1.00395 323.19422 0.0
C534 C 0.61647 0.9927 324.82456 0.0
C535 C 0.59658 1.00153 313.00732 0.0
C536 C 0.60693 0.99741 327.62208 0.0
C537 C 0.58738 1.00608 316.00966 0.0
C538 C 0.66846 0.99932 333.05943 0.0
C539 C 0.69081 1.02841 337.49539 0.0
N540 N 0.31898 0.93918 3.59945 0.0
C541 C 0.67411 0.99361 340.18795 0.0
C542 C 0.67688 1.01686 331.69127 0.0
C543 C 0.31099 0.92218 5.05152 0.0
C544 C 0.63784 0.93812 329.52872 0.0
N545 N 0.62705 0.94686 323.58967 0.0
C546 C 0.60554 0.92214 323.05594 0.0
C547 C 0.61116 0.93931 320.3289 0.0
C548 C 0.61641 0.91273 329.1971 0.0
C549 C 0.63276 0.92097 332.44388 0.0
H550 H 0.65041 0.94447 331.9795 0.0
H551 H 0.60287 0.94648 315.56704 0.0
C552 C 0.64037 1.05227 320.68562 0.0
N553 N 0.64267 1.03468 324.61855 0.0
C554 C 0.63999 1.07203 323.59408 0.0
C555 C 0.64448 1.05512 334.54217 0.0
C556 C 0.64487 1.03579 331.44826 0.0
C557 C 0.64186 1.0735 330.57657 0.0
H558 H 0.63858 1.05083 315.24981 0.0
H559 H 0.64671 1.02158 334.4686 0.0
C560 C 0.63458 0.93864 311.61238 0.0
N561 N 0.62151 0.89538 309.63089 0.0
C562 C 0.64431 0.92328 315.23288 0.0
C563 C 0.61821 0.93198 306.95396 0.0
C564 C 0.63747 0.9015 314.16999 0.0
C565 C 0.61184 0.91004 306.02731 0.0
C566 C 0.65494 1.01375 308.51145 0.0
C567 C 0.6555 0.99683 304.40484 0.0
C568 C 0.65935 1.03516 307.53624 0.0
C569 C 0.66052 1.00162 299.39679 0.0
C570 C 0.66432 1.03928 302.4793 0.0
N571 N 0.66479 1.02257 298.54564 0.0
C572 C 0.60772 0.99968 295.70544 0.0
C573 C 0.61802 0.9689 294.45971 0.0
C574 C 0.59794 0.99915 288.15658 0.0
N575 N 0.61746 0.98466 298.67374 0.0
C576 C 0.60845 0.96774 286.91045 0.0
C577 C 0.59821 0.98297 283.66023 0.0
H578 H 0.60758 1.01205 299.21138 0.0
H579 H 0.62597 0.95727 296.96354 0.0
C580 C 0.68375 0.96321 326.65892 0.0
N581 N 0.67896 0.979 322.01232 0.0
C582 C 0.69826 0.95638 328.78879 0.0
C583 C 0.70304 0.98292 321.57883 0.0
C584 C 0.68855 0.98952 319.70227 0.0
C585 C 0.70789 0.96571 326.03236 0.0
H586 H 0.67611 0.95563 328.60713 0.0
H587 H 0.68492 1.0027 316.28494 0.0
O588 O 0.62036 0.99044 314.57255 0.0
O589 O 0.65478 0.98762 327.49363 0.0
O590 O 0.64097 0.96012 312.7175 0.0
O591 O 0.64968 1.00958 313.32122 0.0
H592 H 0.62779 0.98758 328.36172 0.0
H593 H 0.59237 1.00325 307.29183 0.0
H594 H 0.61086 0.99589 333.31635 0.0
H595 H 0.57602 1.01132 312.62881 0.0
H596 H 0.69743 1.04201 336.51551 0.0
H597 H 0.29063 0.89667 0.5411 0.0
H598 H 0.67275 1.02156 326.22575 0.0
H599 H 0.31549 0.91794 10.59658 0.0
H600 H 0.59286 0.91611 320.3222 0.0
H601 H 0.64153 0.91441 337.23669 0.0
H602 H 0.6378 1.08581 320.3432 0.0
H603 H 0.64615 1.05566 339.97342 0.0
H604 H 0.65699 0.92812 318.8436 0.0
H605 H 0.61047 0.94368 304.18821 0.0
H606 H 0.64485 0.88945 316.96022 0.0
H607 H 0.59918 0.90468 302.47858 0.0
H608 H 0.65232 0.98017 305.13882 0.0
H609 H 0.65891 1.04844 310.65072 0.0
H610 H 0.66105 0.98867 296.20075 0.0
H611 H 0.66778 1.05577 301.67245 0.0
H612 H 0.59013 1.0111 285.87448 0.0
H613 H 0.60925 0.95524 283.64962 0.0
H614 H 0.70169 0.94359 332.43553 0.0
H615 H 0.71001 0.99069 319.31556 0.0
Li616 Li 0.83645 0.75708 148.91512 0.0
Li617 Li 0.82112 0.78386 149.54025 0.0
Li618 Li 0.82013 0.77472 138.19552 0.0
Li619 Li 0.8438 0.79583 148.37197 0.0
C620 C 0.80739 0.73549 144.71802 0.0
N621 N 0.79701 0.69464 147.15791 0.0
C622 C 0.803 0.73292 150.02894 0.0
C623 C 0.80644 0.71728 140.63309 0.0
C624 C 0.79779 0.71214 151.17977 0.0
C625 C 0.80119 0.69677 141.95743 0.0
C626 C 0.85792 0.79006 162.10767 0.0
C627 C 0.87549 0.8205 170.57406 0.0
N628 N 0.88791 0.80942 172.88583 0.0
C629 C 0.87086 0.77895 164.57905 0.0
C630 C 0.86023 0.81098 165.14056 0.0
C631 C 0.88593 0.78902 170.03227 0.0
C632 C 0.85483 0.72476 150.48466 0.0
N633 N 0.845 0.73142 152.57895 0.0
C634 C 0.84916 0.70281 160.46406 0.0
C635 C 0.84222 0.72105 157.5369 0.0
C636 C 0.85933 0.69547 158.37623 0.0
C637 C 0.86212 0.70676 153.31378 0.0
H638 H 0.85735 0.73376 146.75597 0.0
H639 H 0.83479 0.72711 159.29939 0.0
C640 C 0.79266 0.78789 149.27574 0.0
N641 N 0.80878 0.7906 153.60334 0.0
C642 C 0.78321 0.79217 152.14826 0.0
C643 C 0.80714 0.80193 163.87175 0.0
C644 C 0.81612 0.79746 160.7694 0.0
C645 C 0.79044 0.79914 159.55617 0.0
H646 H 0.78717 0.78209 143.61462 0.0
H647 H 0.82894 0.7992 164.0976 0.0
C648 C 0.84323 0.7662 136.19629 0.0
N649 N 0.84308 0.75692 123.47136 0.0
C650 C 0.84988 0.78204 133.43928 0.0
C651 C 0.83658 0.74562 132.50362 0.0
C652 C 0.84969 0.77702 126.99502 0.0
C653 C 0.83658 0.74126 126.07026 0.0
C654 C 0.81183 0.81686 141.74849 0.0
C655 C 0.79667 0.81375 135.52183 0.0
C656 C 0.81569 0.83279 147.23935 0.0
C657 C 0.78559 0.82659 134.90732 0.0
C658 C 0.80425 0.84525 146.42729 0.0
N659 N 0.78957 0.84193 140.3295 0.0
C660 C 0.79579 0.75426 124.40644 0.0
C661 C 0.81088 0.78701 124.16457 0.0
C662 C 0.78706 0.75174 116.81054 0.0
N663 N 0.80752 0.77157 127.8946 0.0
C664 C 0.80254 0.78509 116.57706 0.0
C665 C 0.79048 0.76721 112.79119 0.0
H666 H 0.79322 0.7424 127.51781 0.0
H667 H 0.82022 0.80068 127.10627 0.0
C668 C 0.87501 0.81089 151.89463 0.0
N669 N 0.86156 0.81765 150.88782 0.0
C670 C 0.88851 0.82589 153.58336 0.0
C671 C 0.8742 0.85459 153.35712 0.0
C672 C 0.86089 0.83898 151.59278 0.0
C673 C 0.88823 0.84813 154.30994 0.0
H674 H 0.87514 0.79378 151.27637 0.0
H675 H 0.85003 0.84389 150.76155 0.0
O676 O 0.81252 0.75571 143.49947 0.0
O677 O 0.84316 0.78071 156.6298 0.0
O678 O 0.84303 0.7709 142.42447 0.0
O679 O 0.82278 0.80424 142.49956 0.0
H680 H 0.80376 0.74675 153.28774 0.0
H681 H 0.8098 0.71892 136.51339 0.0
H682 H 0.79442 0.70992 155.28861 0.0
H683 H 0.80045 0.68253 138.8528 0.0
H684 H 0.87746 0.83675 172.92385 0.0
H685 H 0.86934 0.76281 162.27228 0.0
H686 H 0.85041 0.81996 163.21457 0.0
H687 H 0.89606 0.78064 171.97621 0.0
H688 H 0.84662 0.69461 164.33004 0.0
H689 H 0.87021 0.70211 151.69233 0.0
H690 H 0.77036 0.78945 148.65609 0.0
H691 H 0.8132 0.80743 169.59132 0.0
H692 H 0.85498 0.7981 136.19943 0.0
H693 H 0.83135 0.73321 134.55327 0.0
H694 H 0.85473 0.78913 124.77931 0.0
H695 H 0.83139 0.72544 123.13729 0.0
H696 H 0.79343 0.80144 131.23383 0.0
H697 H 0.82727 0.8352 152.14357 0.0
H698 H 0.77379 0.82432 130.12998 0.0
H699 H 0.80703 0.85751 150.66026 0.0
H700 H 0.77768 0.73791 114.1213 0.0
H701 H 0.80572 0.79727 113.71809 0.0
H702 H 0.89888 0.82009 154.10515 0.0
H703 H 0.87347 0.87151 153.93972 0.0
Li704 Li 0.36683 1.27335 318.7498 0.0
Li705 Li 0.34466 1.26024 320.2265 0.0
Li706 Li 0.34008 1.2689 308.30292 0.0
Li707 Li 0.34931 1.29791 318.52118 0.0
C708 C 0.3584 1.22858 317.4572 0.0
N709 N 0.37215 1.19341 324.23479 0.0
C710 C 0.36904 1.23031 324.96906 0.0
C711 C 0.35472 1.20891 313.40784 0.0
C712 C 0.37588 1.21236 328.28845 0.0
C713 C 0.36181 1.19133 316.93015 0.0
C714 C 0.36778 1.28927 333.50074 0.0
C715 C -0.01503 1.22218 1.22172 0.0
N716 N -0.00028 1.22002 6.75079 0.0
C717 C 0.38289 1.28724 339.26292 0.0
C718 C 0.35728 1.29852 334.87898 0.0
C719 C 0.01012 1.21107 5.53263 0.0
C720 C 0.39948 1.28901 326.66625 0.0
N721 N 0.38857 1.27263 321.8334 0.0
C722 C 0.40915 1.25595 321.98056 0.0
C723 C 0.39302 1.25646 319.3575 0.0
C724 C 0.42071 1.27246 327.0798 0.0
C725 C 0.41571 1.2893 329.35763 0.0
H726 H 0.39554 1.30177 328.46395 0.0
H727 H 0.38407 1.2439 315.3821 0.0
C728 C 0.32608 1.22258 320.52613 0.0
N729 N 0.33728 1.23953 324.90102 0.0
C730 C 0.32034 1.20626 323.46775 0.0
C731 C 0.33825 1.2246 335.42188 0.0
C732 C 0.34347 1.24075 332.23378 0.0
C733 C 0.32654 1.20714 331.01138 0.0
H734 H 0.32179 1.22158 314.74913 0.0
H735 H 0.35266 1.25391 335.6589 0.0
C736 C 0.36772 1.29926 309.20766 0.0
N737 N 0.39018 1.30763 304.94144 0.0
C738 C 0.37843 1.31873 311.63164 0.0
C739 C 0.36839 1.28408 304.59962 0.0
C740 C 0.38971 1.32265 309.41606 0.0
C741 C 0.37984 1.28861 302.50722 0.0
C742 C 0.31475 1.26791 312.69765 0.0
C743 C 0.30391 1.25329 306.73676 0.0
C744 C 0.31126 1.27242 318.12542 0.0
C745 C 0.28986 1.24317 306.36484 0.0
C746 C 0.2971 1.26193 317.56175 0.0
N747 N 0.28679 1.24763 311.74535 0.0
C748 C 0.32693 1.24395 294.86186 0.0
C749 C 0.32002 1.27903 294.16113 0.0
C750 C 0.31828 1.24031 287.28488 0.0
N751 N 0.32767 1.2631 298.10528 0.0
C752 C 0.31122 1.27607 286.57961 0.0
C753 C 0.31035 1.25655 283.0416 0.0
H754 H 0.3332 1.23164 298.15842 0.0
H755 H 0.32095 1.29414 296.92245 0.0
C756 C 0.36201 1.34106 323.80116 0.0
N757 N 0.34832 1.32651 320.78035 0.0
C758 C 0.36177 1.36273 325.16768 0.0
C759 C 0.33346 1.35373 320.67594 0.0
C760 C 0.33422 1.33227 319.28066 0.0
C761 C 0.34732 1.36943 323.52999 0.0
H762 H 0.37307 1.33586 325.01795 0.0
H763 H 0.32354 1.32022 316.9315 0.0
O764 O 0.35138 1.24584 314.06087 0.0
O765 O 0.36343 1.28235 326.55732 0.0
O766 O 0.35692 1.29478 311.49476 0.0
O767 O 0.32866 1.27777 313.19524 0.0
H768 H 0.37204 1.2453 328.22249 0.0
H769 H 0.34645 1.20722 307.60143 0.0
H770 H 0.38414 1.21351 334.0909 0.0
H771 H 0.35907 1.17603 313.85632 0.0
H772 H -0.02304 1.22936 2.36431 0.0
H773 H 0.39114 1.28004 338.294 0.0
H774 H 0.34556 1.30018 330.49975 0.0
H775 H 0.02177 1.20957 10.04603 0.0
H776 H 0.41256 1.24287 320.021 0.0
H777 H 0.42428 1.30227 333.30463 0.0
H778 H 0.3115 1.19279 319.91382 0.0
H779 H -0.03376 1.14233 0.47974 0.0
H780 H 0.3781 1.33064 315.20795 0.0
H781 H 0.36035 1.2688 302.75838 0.0
H782 H 0.39811 1.33762 311.26636 0.0
H783 H 0.38056 1.27695 298.97703 0.0
H784 H 0.30637 1.2496 302.47925 0.0
H785 H 0.31942 1.28377 322.74951 0.0
H786 H 0.28142 1.23172 301.80805 0.0
H787 H 0.29431 1.26515 321.7508 0.0
H788 H 0.31779 1.22495 284.77882 0.0
H789 H 0.30547 1.28913 283.52028 0.0
H790 H 0.37273 1.37417 327.25286 0.0
H791 H 0.32211 1.35796 319.45193 0.0
Li792 Li 0.50501 0.50983 149.38801 0.0
Li793 Li 0.4984 0.47106 149.9748 0.0
Li794 Li 0.48364 0.48873 138.29911 0.0
Li795 Li 0.4788 0.49358 148.39976 0.0
C796 C 0.5196 0.49118 143.11265 0.0
N797 N 0.54606 0.50305 141.66554 0.0
C798 C 0.53313 0.48142 147.02472 0.0
C799 C 0.51944 0.50668 138.36354 0.0
C800 C 0.54642 0.48771 146.24738 0.0
C801 C 0.53295 0.51255 137.73324 0.0
C802 C 0.50855 0.48908 163.6752 0.0
C803 C 0.50809 0.46959 173.36428 0.0
N804 N 0.52403 0.47644 177.69021 0.0
C805 C 0.52488 0.49619 168.25776 0.0
C806 C 0.50004 0.47592 166.28079 0.0
C807 C 0.53251 0.48952 175.30745 0.0
C808 C 0.51753 0.55426 152.39393 0.0
N809 N 0.52164 0.53419 153.12932 0.0
C810 C 0.54934 0.54936 159.37166 0.0
C811 C 0.53718 0.53144 156.57716 0.0
C812 C 0.54543 0.5703 158.61844 0.0
C813 C 0.52928 0.57263 155.0692 0.0
H814 H 0.5051 0.55601 149.78781 0.0
H815 H 0.54017 0.51532 157.23805 0.0
C816 C 0.49792 0.42619 151.55878 0.0
N817 N 0.50716 0.44601 154.10873 0.0
C818 C 0.5043 0.40756 154.40456 0.0
C819 C 0.52966 0.43009 162.36219 0.0
C820 C 0.52276 0.44826 159.40008 0.0
C821 C 0.52041 0.40941 159.83817 0.0
H822 H 0.48567 0.42478 147.21977 0.0
H823 H 0.52993 0.46416 161.22085 0.0
C824 C 0.47594 0.52972 137.44872 0.0
N825 N 0.46123 0.55669 126.56522 0.0
C826 C 0.46018 0.5323 134.99634 0.0
C827 C 0.48432 0.54124 134.46361 0.0
C828 C 0.45292 0.54589 129.46248 0.0
C829 C 0.47665 0.55469 128.94181 0.0
C830 C 0.46181 0.4533 141.73873 0.0
C831 C 0.44814 0.44912 134.84445 0.0
C832 C 0.46171 0.44404 147.69303 0.0
C833 C 0.43448 0.43612 134.0559 0.0
C834 C 0.44783 0.43114 146.68621 0.0
N835 N 0.43461 0.42751 139.94622 0.0
C836 C 0.48134 0.47937 124.72843 0.0
C837 C 0.45826 0.48948 124.02106 0.0
C838 C 0.47393 0.47725 117.14767 0.0
N839 N 0.47349 0.48561 127.99073 0.0
C840 C 0.45038 0.48751 116.44081 0.0
C841 C 0.45824 0.48137 112.90807 0.0
H842 H 0.4933 0.47585 128.00399 0.0
H843 H 0.45215 0.49388 126.74655 0.0
C844 C 0.46783 0.50767 157.41099 0.0
N845 N 0.46308 0.49834 150.71995 0.0
C846 C 0.45658 0.51325 159.0304 0.0
C847 C 0.43577 0.49904 146.89788 0.0
C848 C 0.44741 0.4938 145.51285 0.0
C849 C 0.44032 0.50926 153.68706 0.0
H850 H 0.48039 0.51139 161.41522 0.0
H851 H 0.44397 0.48701 140.16583 0.0
O852 O 0.50652 0.48535 143.85618 0.0
O853 O 0.50089 0.49539 156.73919 0.0
O854 O 0.4832 0.51632 142.83522 0.0
O855 O 0.47524 0.46618 142.62315 0.0
H856 H 0.53342 0.46915 150.63224 0.0
H857 H 0.50895 0.51395 135.14446 0.0
H858 H 0.557 0.48039 149.28071 0.0
H859 H 0.53299 0.52459 134.09556 0.0
H860 H 0.50165 0.45932 175.43307 0.0
H861 H 0.53163 0.5066 166.37854 0.0
H862 H 0.48733 0.4708 162.90526 0.0
H863 H 0.54518 0.49475 178.88441 0.0
H864 H 0.56164 0.54685 162.05617 0.0
H865 H 0.52576 0.58848 154.49666 0.0
H866 H 0.49685 0.39186 152.23285 0.0
H867 H 0.54212 0.43218 166.56409 0.0
H868 H 0.45356 0.52378 137.29494 0.0
H869 H 0.49665 0.54001 136.43654 0.0
H870 H 0.44069 0.54787 127.47451 0.0
H871 H 0.48299 0.56361 126.56829 0.0
H872 H 0.44804 0.45583 130.1501 0.0
H873 H 0.47227 0.44666 153.0218 0.0
H874 H 0.4238 0.43287 128.75838 0.0
H875 H 0.44759 0.42396 151.25974 0.0
H876 H 0.4803 0.4721 114.63525 0.0
H877 H 0.43832 0.49094 113.38295 0.0
H878 H 0.46058 0.52105 164.34043 0.0
H879 H 0.42341 0.49612 142.56748 0.0
Li880 Li 0.29826 0.72042 319.11128 0.0
Li881 Li 0.3149 0.69473 319.09982 0.0
Li882 Li 0.29081 0.69871 307.99915 0.0
Li883 Li 0.29051 0.68175 318.2771 0.0
C884 C 0.32292 0.73706 316.41579 0.0
N885 N 0.34957 0.76894 322.23014 0.0
C886 C 0.33355 0.73974 323.93532 0.0
C887 C 0.32588 0.7506 311.86605 0.0
C888 C 0.34695 0.75593 326.76264 0.0
C889 C 0.3394 0.76664 314.90909 0.0
C890 C 0.30853 0.69094 332.23337 0.0
C891 C 0.31126 0.66071 339.58508 0.0
N892 N -0.07057 0.58823 2.69987 0.0
C893 C 0.3039 0.70195 336.3855 0.0
C894 C 0.31243 0.67025 333.90436 0.0
C895 C -0.07421 0.60848 1.23935 0.0
C896 C 0.28539 0.74551 324.93024 0.0
N897 N 0.2963 0.74717 322.72161 0.0
C898 C 0.30298 0.78534 325.93384 0.0
C899 C 0.30475 0.7667 323.00186 0.0
C900 C 0.29218 0.78399 328.4829 0.0
C901 C 0.28315 0.76374 327.85123 0.0
H902 H 0.27849 0.72989 324.45989 0.0
H903 H 0.3129 0.76802 320.98 0.0
C904 C 0.3425 0.6928 318.31823 0.0
N905 N 0.33637 0.69077 322.81312 0.0
C906 C 0.35852 0.69147 320.97691 0.0
C907 C 0.3616 0.68613 332.84619 0.0
C908 C 0.34551 0.68745 329.94793 0.0
C909 C 0.36831 0.68835 328.35338 0.0
H910 H 0.33501 0.69595 312.70487 0.0
H911 H 0.34043 0.68639 333.43606 0.0
C912 C 0.26681 0.71649 308.20729 0.0
N913 N 0.24544 0.74339 299.96778 0.0
C914 C 0.25105 0.71209 306.68743 0.0
C915 C 0.27172 0.73459 305.54321 0.0
C916 C 0.24042 0.72589 302.51002 0.0
C917 C 0.26073 0.74798 301.38645 0.0
C918 C 0.30716 0.65907 310.8066 0.0
C919 C 0.30818 0.66086 304.50274 0.0
C920 C 0.31563 0.64491 315.88634 0.0
C921 C 0.31783 0.64866 303.433 0.0
C922 C 0.32518 0.63303 314.62647 0.0
N923 N 0.32608 0.63514 308.47986 0.0
C924 C 0.28709 0.70961 294.38181 0.0
C925 C 0.26518 0.68658 293.9237 0.0
C926 C 0.27902 0.70934 286.80337 0.0
N927 N 0.28007 0.69832 297.74908 0.0
C928 C 0.25666 0.6859 286.34382 0.0
C929 C 0.26359 0.69737 282.68571 0.0
H930 H 0.29897 0.71873 297.58566 0.0
H931 H 0.25996 0.67774 296.78061 0.0
C932 C 0.26841 0.66716 322.48994 0.0
N933 N 0.27858 0.66034 320.65085 0.0
C934 C 0.25875 0.65223 324.03556 0.0
C935 C 0.27048 0.62357 321.9082 0.0
C936 C 0.27984 0.63908 320.35145 0.0
C937 C 0.25961 0.63006 323.70459 0.0
H938 H 0.26765 0.68421 322.64084 0.0
H939 H 0.28802 0.63416 318.85074 0.0
O940 O 0.30991 0.72097 313.46848 0.0
O941 O 0.30931 0.70037 326.58847 0.0
O942 O 0.27732 0.70307 312.29389 0.0
O943 O 0.29795 0.67114 312.00196 0.0
H944 H 0.33149 0.72955 327.57024 0.0
H945 H 0.31782 0.74878 306.04126 0.0
H946 H 0.35525 0.75817 332.56395 0.0
H947 H 0.34181 0.77725 311.44733 0.0
H948 H -0.06304 0.56121 0.08145 0.0
H949 H 0.30119 0.71813 335.301 0.0
H950 H 0.31608 0.6615 330.77306 0.0
H951 H -0.07785 0.6168 4.4699 0.0
H952 H 0.31023 0.80056 326.31312 0.0
H953 H 0.27438 0.76198 329.56699 0.0
H954 H 0.36331 0.69362 317.36574 0.0
H955 H 0.36875 0.68363 338.55819 0.0
H956 H 0.24709 0.69815 308.71808 0.0
H957 H 0.28387 0.7383 306.66591 0.0
H958 H 0.22818 0.72268 301.28889 0.0
H959 H 0.26436 0.76203 299.28912 0.0
H960 H 0.3017 0.67165 300.49901 0.0
H961 H 0.31501 0.64328 320.79229 0.0
H962 H 0.3188 0.64999 298.59738 0.0
H963 H 0.3319 0.62216 318.54304 0.0
H964 H 0.28473 0.71857 284.20332 0.0
H965 H 0.24488 0.67625 283.37841 0.0
H966 H 0.25035 0.65799 325.24623 0.0
H967 H 0.27165 0.60671 321.65595 0.0
Li968 Li 0.7946 0.22144 149.52634 0.0
Li969 Li 0.76972 0.20737 149.21713 0.0
Li970 Li 0.786 0.18196 147.90764 0.0
Li971 Li 0.77026 0.20372 138.09289 0.0
C972 C 0.80437 0.20323 163.22672 0.0
N973 N 0.83015 0.20498 177.18432 0.0
C974 C 0.80402 0.21267 169.08842 0.0
C975 C 0.81772 0.19431 164.49718 0.0
C976 C 0.8172 0.21351 176.09398 0.0
C977 C 0.83065 0.19544 171.58109 0.0
C978 C 0.76621 0.24678 144.72101 0.0
C979 C 0.74236 0.26086 142.01387 0.0
N980 N 0.75146 0.27808 146.93048 0.0
C981 C 0.77533 0.26472 149.70004 0.0
C982 C 0.7496 0.24492 140.7959 0.0
C983 C 0.76765 0.28034 150.75419 0.0
C984 C 0.81826 0.25116 149.04235 0.0
N985 N 0.81242 0.244 153.40126 0.0
C986 C 0.83159 0.27008 163.05793 0.0
C987 C 0.81873 0.25315 160.27358 0.0
C988 C 0.83789 0.27783 158.68942 0.0
C989 C 0.83109 0.26812 151.59602 0.0
H990 H 0.81285 0.24376 143.55908 0.0
H991 H 0.81353 0.24774 163.53366 0.0
C992 C 0.74346 0.19675 151.29431 0.0
N993 N 0.75696 0.21123 153.3979 0.0
C994 C 0.73405 0.1986 154.40641 0.0
C995 C 0.75263 0.23025 161.81636 0.0
C996 C 0.76166 0.2278 158.54491 0.0
C997 C 0.73866 0.21544 159.78784 0.0
H998 H 0.74007 0.18359 147.2552 0.0
H999 H 0.77255 0.23895 160.17839 0.0
C1000 C 0.80502 0.19416 141.44873 0.0
N1001 N 0.82957 0.18195 140.15361 0.0
C1002 C 0.80197 0.18453 134.84716 0.0
C1003 C 0.82064 0.19796 147.34245 0.0
C1004 C 0.81451 0.17836 134.31467 0.0
C1005 C 0.83287 0.19158 146.59404 0.0
C1006 C 0.74946 0.16902 136.76112 0.0
C1007 C 0.75015 0.14825 134.64147 0.0
C1008 C 0.73539 0.17767 132.85504 0.0
C1009 C 0.73682 0.13664 128.56331 0.0
C1010 C 0.72233 0.16557 126.80161 0.0
N1011 N 0.72332 0.14548 124.79413 0.0
C1012 C 0.79366 0.14636 156.26766 0.0
C1013 C 0.79429 0.14255 145.34206 0.0
C1014 C 0.79672 0.12532 157.78408 0.0
N1015 N 0.79242 0.15446 150.11381 0.0
C1016 C 0.79729 0.12138 146.62176 0.0
C1017 C 0.79825 0.11238 152.85004 0.0
H1018 H 0.79181 0.15605 159.89707 0.0
H1019 H 0.79268 0.14905 140.36405 0.0
C1020 C 0.75156 0.22099 124.60378 0.0
N1021 N 0.75828 0.20353 127.79661 0.0
C1022 C 0.74233 0.22047 117.02805 0.0
C1023 C 0.74722 0.18406 116.20781 0.0
C1024 C 0.75645 0.18538 123.77381 0.0
C1025 C 0.73998 0.20173 112.74484 0.0
H1026 H 0.7533 0.23527 127.93793 0.0
H1027 H 0.76205 0.17181 126.45706 0.0
O1028 O 0.79153 0.2023 156.32836 0.0
O1029 O 0.77351 0.23119 143.67621 0.0
O1030 O 0.79284 0.20036 142.04113 0.0
O1031 O 0.76248 0.18077 142.63175 0.0
H1032 H 0.79373 0.21939 168.2408 0.0
H1033 H 0.818 0.18626 160.09189 0.0
H1034 H 0.81713 0.22093 180.66571 0.0
H1035 H 0.84106 0.18862 172.62913 0.0
H1036 H 0.72951 0.25954 139.04863 0.0
H1037 H 0.78819 0.26651 152.74878 0.0
H1038 H 0.74236 0.23126 136.8774 0.0
H1039 H 0.77457 0.29424 154.62034 0.0
H1040 H 0.83623 0.27747 168.49204 0.0
H1041 H 0.83562 0.27361 148.06073 0.0
H1042 H 0.72328 0.18697 152.60575 0.0
H1043 H 0.75676 0.2433 166.00715 0.0
H1044 H 0.79002 0.18175 130.18825 0.0
H1045 H 0.82337 0.20604 152.4114 0.0
H1046 H 0.81228 0.17074 129.25367 0.0
H1047 H 0.84499 0.19439 151.12368 0.0
H1048 H 0.76086 0.1412 137.62864 0.0
H1049 H 0.7346 0.19363 134.44505 0.0
H1050 H 0.73723 0.12061 126.83779 0.0
H1051 H 0.71142 0.17215 123.69633 0.0
H1052 H 0.79748 0.11908 162.67604 0.0
H1053 H 0.79802 0.11185 142.58921 0.0
H1054 H 0.7369 0.2344 114.55595 0.0
H1055 H 0.7459 0.16945 113.09612 0.0
Li1056 Li 0.80879 0.79292 318.55981 0.0
Li1057 Li 0.80693 0.83189 318.06521 0.0
Li1058 Li 0.80428 0.81115 308.00109 0.0
Li1059 Li 0.82951 0.81944 318.61932 0.0
C1060 C 0.77619 0.7969 306.42354 0.0
N1061 N 0.74837 0.777 294.34025 0.0
C1062 C 0.76378 0.80855 302.42568 0.0
C1063 C 0.77442 0.7751 304.28394 0.0
C1064 C 0.74982 0.79821 296.329 0.0
C1065 C 0.76027 0.76533 298.16244 0.0
C1066 C 0.82099 0.81524 331.94543 0.0
C1067 C 0.45465 0.73103 4.09859 0.0
N1068 N 0.43959 0.72778 3.00251 0.0
C1069 C 0.80562 0.81189 330.94702 0.0
C1070 C 0.83418 0.8165 338.96992 0.0
C1071 C 0.8037 0.80989 337.00682 0.0
C1072 C 0.81646 0.75471 325.59862 0.0
N1073 N 0.80479 0.76709 322.41022 0.0
C1074 C 0.78766 0.7431 325.1632 0.0
C1075 C 0.7906 0.76172 322.14779 0.0
C1076 C 0.79949 0.72998 328.52306 0.0
C1077 C 0.81407 0.73597 328.72354 0.0
H1078 H 0.82767 0.75952 325.75518 0.0
H1079 H 0.78161 0.77204 319.66599 0.0
C1080 C 0.78774 0.86346 315.39116 0.0
N1081 N 0.80003 0.85522 320.8449 0.0
C1082 C 0.78127 0.87972 316.95989 0.0
C1083 C 0.80082 0.87958 329.70951 0.0
C1084 C 0.807 0.86345 327.87942 0.0
C1085 C 0.7876 0.8876 324.22111 0.0
H1086 H 0.78285 0.85718 309.82526 0.0
H1087 H 0.81724 0.8574 332.09844 0.0
C1088 C 0.82728 0.78693 309.26259 0.0
N1089 N 0.84288 0.77888 301.93754 0.0
C1090 C 0.83035 0.80289 305.33362 0.0
C1091 C 0.83214 0.7669 309.46528 0.0
C1092 C 0.83826 0.7985 301.66805 0.0
C1093 C 0.84001 0.76313 305.72555 0.0
C1094 C 0.82496 0.86097 314.46948 0.0
C1095 C 0.82391 0.87599 309.45213 0.0
C1096 C 0.83445 0.86717 321.92499 0.0
C1097 C 0.83239 0.89697 311.97399 0.0
C1098 C 0.84273 0.8883 324.22857 0.0
N1099 N 0.84154 0.90265 319.2482 0.0
C1100 C 0.78755 0.82514 293.98901 0.0
C1101 C 0.79047 0.78815 294.14529 0.0
C1102 C 0.77894 0.82329 286.39581 0.0
N1103 N 0.79309 0.8077 297.67499 0.0
C1104 C 0.78191 0.78556 286.55839 0.0
C1105 C 0.776 0.80328 282.58191 0.0
H1106 H 0.78979 0.84045 296.96478 0.0
H1107 H 0.79486 0.77449 297.22832 0.0
C1108 C 0.86096 0.81736 328.90376 0.0
N1109 N 0.8518 0.82598 322.57081 0.0
C1110 C 0.87752 0.82179 332.28478 0.0
C1111 C 0.87492 0.84369 322.49405 0.0
C1112 C 0.85838 0.83883 319.3026 0.0
C1113 C 0.8847 0.8352 329.09333 0.0
H1114 H 0.85534 0.80701 331.3152 0.0
H1115 H 0.8508 0.84541 314.24337 0.0
O1116 O 0.79012 0.80685 312.311 0.0
O1117 O 0.82323 0.81698 326.10256 0.0
O1118 O 0.81957 0.79074 312.9172 0.0
O1119 O 0.81666 0.8404 312.02472 0.0
H1120 H 0.76489 0.82539 303.99119 0.0
H1121 H 0.78399 0.76592 307.23221 0.0
H1122 H 0.74014 0.80705 293.17478 0.0
H1123 H 0.75879 0.74852 296.42283 0.0
H1124 H 0.46475 0.73198 9.56635 0.0
H1125 H 0.79526 0.81098 325.56427 0.0
H1126 H 0.84616 0.81908 339.83927 0.0
H1127 H 0.79187 0.80732 336.31205 0.0
H1128 H 0.77637 0.73928 325.00491 0.0
H1129 H 0.82346 0.72623 331.23066 0.0
H1130 H 0.77106 0.88546 312.56567 0.0
H1131 H 0.80621 0.88554 335.3577 0.0
H1132 H 0.82666 0.81848 305.09099 0.0
H1133 H 0.82985 0.75439 312.48557 0.0
H1134 H 0.84071 0.81069 298.60659 0.0
H1135 H 0.84384 0.74769 305.83529 0.0
H1136 H 0.81663 0.87144 303.66328 0.0
H1137 H 0.83548 0.85583 325.90548 0.0
H1138 H 0.83169 0.90875 308.14762 0.0
H1139 H 0.85012 0.8933 329.97834 0.0
H1140 H 0.77476 0.83742 283.54617 0.0
H1141 H 0.77972 0.76978 283.84265 0.0
H1142 H 0.88462 0.81457 337.29457 0.0
H1143 H 0.87998 0.85418 319.87886 0.0
Li1144 Li 0.02376 0.94502 135.85305 0.0
Li1145 Li 0.0412 0.96901 146.59521 0.0
Li1146 Li 0.04277 0.93 147.19885 0.0
Li1147 Li 0.0204 0.94452 146.62222 0.0
C1148 C 0.05545 0.96427 138.56357 0.0
N1149 N 0.0718 0.99259 133.70748 0.0
C1150 C 0.04746 0.97822 133.28475 0.0
C1151 C 0.07177 0.96475 141.38002 0.0
C1152 C 0.05592 0.99241 130.8983 0.0
C1153 C 0.07983 0.97917 138.85136 0.0
C1154 C 0.01469 0.98834 139.20098 0.0
C1155 C 0.0131 1.02202 144.10252 0.0
N1156 N 0.00844 1.03029 137.55247 0.0
C1157 C 0.00975 0.9971 132.49732 0.0
C1158 C 0.01625 1.00083 145.03418 0.0
C1159 C 0.0067 1.01836 131.78132 0.0
C1160 C -0.00307 0.94285 121.99953 0.0
N1161 N 0.01265 0.94112 125.56596 0.0
C1162 C 0.01188 0.93474 114.32546 0.0
C1163 C 0.02017 0.93684 121.92099 0.0
C1164 C -0.00433 0.93683 110.47894 0.0
C1165 C -0.01185 0.94077 114.41156 0.0
H1166 H -0.00872 0.94615 125.0692 0.0
H1167 H 0.03264 0.93522 124.91228 0.0
C1168 C 0.06659 0.99824 157.1858 0.0
N1169 N 0.05426 0.99668 150.22129 0.0
C1170 C 0.07707 1.01769 160.28106 0.0
C1171 C 0.06194 1.03368 148.98151 0.0
C1172 C 0.05188 1.01383 146.0805 0.0
C1173 C 0.07479 1.03581 156.17469 0.0
H1174 H 0.06842 0.98424 160.31421 0.0
H1175 H 0.04227 1.01217 140.50527 0.0
C1176 C 0.01665 0.90093 136.4555 0.0
N1177 N 0.01063 0.86377 127.87649 0.0
C1178 C 0.00309 0.88557 134.47426 0.0
C1179 C 0.02715 0.89742 134.06903 0.0
C1180 C 0.00026 0.86687 130.13615 0.0
C1181 C 0.0239 0.87853 129.73636 0.0
C1182 C 0.04307 0.94962 160.72779 0.0
C1183 C 0.04537 0.93073 164.37653 0.0
C1184 C 0.04069 0.96775 163.65674 0.0
C1185 C 0.04489 0.93014 170.82577 0.0
C1186 C 0.04029 0.96652 170.11832 0.0
N1187 N 0.04236 0.94789 173.53362 0.0
C1188 C 0.07195 0.91361 154.07188 0.0
C1189 C 0.04919 0.88866 151.86564 0.0
C1190 C 0.08181 0.89818 157.42662 0.0
N1191 N 0.05597 0.90857 151.35778 0.0
C1192 C 0.05856 0.87274 155.14492 0.0
C1193 C 0.07513 0.87743 158.02715 0.0
H1194 H 0.07706 0.92975 153.76021 0.0
H1195 H 0.0365 0.88521 149.81655 0.0
C1196 C -0.00615 0.95263 147.64991 0.0
N1197 N 0.00508 0.93961 149.61336 0.0
C1198 C -0.01815 0.94799 149.39397 0.0
C1199 C -0.00659 0.91687 155.26118 0.0
C1200 C 0.00504 0.92195 153.32049 0.0
C1201 C -0.01851 0.92981 153.19966 0.0
H1202 H -0.00611 0.96623 144.54163 0.0
H1203 H 0.0138 0.91147 154.58984 0.0
O1204 O 0.04739 0.95041 141.02727 0.0
O1205 O 0.01771 0.96753 139.99706 0.0
O1206 O 0.0195 0.91935 140.66521 0.0
O1207 O 0.04336 0.95045 154.37344 0.0
H1208 H 0.03488 0.97829 131.1132 0.0
H1209 H 0.07818 0.95411 145.47047 0.0
H1210 H 0.04987 1.00334 126.83337 0.0
H1211 H 0.09246 0.97969 140.98198 0.0
H1212 H 0.01434 1.0319 148.58515 0.0
H1213 H 0.00837 0.98765 127.90429 0.0
H1214 H 0.01986 0.99423 150.22415 0.0
H1215 H 0.00295 1.02538 126.63814 0.0
H1216 H 0.01804 0.93138 111.49508 0.0
H1217 H -0.02428 0.94267 111.65465 0.0
H1218 H 0.08701 1.01835 165.78378 0.0
H1219 H 0.05961 1.04719 145.61717 0.0
H1220 H -0.00516 0.88809 136.27525 0.0
H1221 H 0.03771 0.90913 135.54634 0.0
H1222 H -0.01019 0.85483 128.56267 0.0
H1223 H 0.03192 0.8756 127.8516 0.0
H1224 H 0.04734 0.9166 162.21686 0.0
H1225 H 0.03924 0.98263 160.99062 0.0
H1226 H 0.04652 0.91556 173.67407 0.0
H1227 H 0.03838 0.9804 172.42818 0.0
H1228 H 0.09455 0.90262 159.68249 0.0
H1229 H 0.05286 0.85693 155.41795 0.0
H1230 H -0.02721 0.95826 147.67552 0.0
H1231 H -0.00669 0.90243 158.05153 0.0
Li1232 Li 0.7765 0.25019 317.94772 0.0
Li1233 Li 0.75315 0.22645 316.86346 0.0
Li1234 Li 0.75033 0.24835 306.73636 0.0
Li1235 Li 0.75426 0.26491 317.84067 0.0
C1236 C 0.76917 0.21968 306.46238 0.0
N1237 N 0.78055 0.20977 297.47008 0.0
C1238 C 0.7668 0.19827 303.81136 0.0
C1239 C 0.77729 0.23608 304.53068 0.0
C1240 C 0.77266 0.19358 299.27538 0.0
C1241 C 0.78296 0.23073 299.98127 0.0
C1242 C 0.77365 0.23882 331.51295 0.0
C1243 C 0.39192 0.14605 0.56415 0.0
N1244 N 0.40564 0.1375 3.83038 0.0
C1245 C 0.78782 0.23021 335.016 0.0
C1246 C 0.76427 0.2387 334.74767 0.0
C1247 C 0.41506 0.13772 0.82868 0.0
C1248 C 0.80754 0.27353 325.61964 0.0
N1249 N 0.79895 0.25395 322.13946 0.0
C1250 C 0.82269 0.24011 324.99715 0.0
C1251 C 0.80615 0.23726 321.84327 0.0
C1252 C 0.83189 0.26019 328.60916 0.0
C1253 C 0.82415 0.27701 328.93949 0.0
H1254 H 0.80147 0.28638 325.85621 0.0
H1255 H 0.79908 0.22167 319.21605 0.0
C1256 C 0.73047 0.19118 315.70867 0.0
N1257 N 0.74633 0.19918 319.12658 0.0
C1258 C 0.72521 0.17054 316.92281 0.0
C1259 C 0.75267 0.16691 325.22613 0.0
C1260 C 0.75741 0.18745 323.761 0.0
C1261 C 0.7364 0.15816 321.71494 0.0
H1262 H 0.72193 0.20055 311.88253 0.0
H1263 H 0.76994 0.19375 326.14812 0.0
C1264 C 0.76229 0.29406 309.90664 0.0
N1265 N 0.75512 0.3338 304.68877 0.0
C1266 C 0.74649 0.29649 305.12902 0.0
C1267 C 0.77446 0.31182 312.0294 0.0
C1268 C 0.7431 0.31671 302.55193 0.0
C1269 C 0.77059 0.33179 309.33065 0.0
C1270 C 0.7225 0.24685 310.57285 0.0
C1271 C 0.71048 0.25435 304.36687 0.0
C1272 C 0.7205 0.2431 316.55507 0.0
C1273 C 0.69677 0.25835 304.30907 0.0
C1274 C 0.70662 0.2473 316.28783 0.0
N1275 N 0.69515 0.2548 310.22459 0.0
C1276 C 0.72572 0.23473 292.59745 0.0
C1277 C 0.74629 0.26104 293.14934 0.0
C1278 C 0.71724 0.23405 285.0197 0.0
N1279 N 0.73987 0.24819 296.47579 0.0
C1280 C 0.73826 0.26079 285.5723 0.0
C1281 C 0.72349 0.24724 281.41688 0.0
H1282 H 0.72102 0.22457 295.41161 0.0
H1283 H 0.7576 0.27156 296.38073 0.0
C1284 C 0.76103 0.29453 329.12935 0.0
N1285 N 0.74999 0.28785 322.08226 0.0
C1286 C 0.75911 0.31158 332.67139 0.0
C1287 C 0.73447 0.31457 321.64 0.0
C1288 C 0.73694 0.29758 318.29146 0.0
C1289 C 0.74569 0.3218 328.91016 0.0
H1290 H 0.77141 0.2867 331.98395 0.0
H1291 H 0.72854 0.29242 312.64653 0.0
O1292 O 0.76335 0.22452 310.84921 0.0
O1293 O 0.76923 0.24783 325.04927 0.0
O1294 O 0.76589 0.27445 312.5442 0.0
O1295 O 0.73605 0.24296 310.74273 0.0
H1296 H 0.76049 0.18542 305.2448 0.0
H1297 H 0.77922 0.25275 306.52442 0.0
H1298 H 0.77093 0.17707 297.18504 0.0
H1299 H 0.78927 0.24325 298.4443 0.0
H1300 H 0.38473 0.14575 3.11145 0.0
H1301 H 0.7953 0.23034 332.62521 0.0
H1302 H 0.75351 0.2458 332.21556 0.0
H1303 H 0.42592 0.13082 3.56683 0.0
H1304 H 0.82827 0.22664 324.74238 0.0
H1305 H 0.83085 0.29272 331.67618 0.0
H1306 H 0.71256 0.16419 314.06441 0.0
H1307 H 0.76165 0.15758 328.80838 0.0
H1308 H 0.73694 0.28295 303.45861 0.0
H1309 H 0.78676 0.3102 315.72093 0.0
H1310 H 0.73091 0.31882 298.863 0.0
H1311 H 0.77988 0.34568 310.92803 0.0
H1312 H 0.71177 0.25722 299.66413 0.0
H1313 H 0.72955 0.23694 321.33811 0.0
H1314 H 0.68742 0.2643 299.56334 0.0
H1315 H 0.70496 0.24456 320.89507 0.0
H1316 H 0.70601 0.22314 282.00974 0.0
H1317 H 0.74342 0.27131 283.00123 0.0
H1318 H 0.768 0.31667 338.29616 0.0
H1319 H 0.7241 0.32231 318.52889 0.0
Li1320 Li 0.32957 0.68356 148.15946 0.0
Li1321 Li 0.32675 0.64416 146.58766 0.0
Li1322 Li 0.30805 0.66421 137.10562 0.0
Li1323 Li 0.30806 0.65956 148.50337 0.0
C1324 C 0.34406 0.67723 140.89863 0.0
N1325 N 0.37092 0.70089 141.6667 0.0
C1326 C 0.35863 0.66964 144.50436 0.0
C1327 C 0.34313 0.69681 137.65821 0.0
C1328 C 0.37207 0.68184 144.8306 0.0
C1329 C 0.35686 0.70855 138.12114 0.0
C1330 C 0.33299 0.66251 161.94866 0.0
C1331 C 0.32888 0.64501 171.10451 0.0
N1332 N 0.33506 0.66396 175.37928 0.0
C1333 C 0.33934 0.6818 166.44319 0.0
C1334 C 0.32778 0.64392 164.30637 0.0
C1335 C 0.34028 0.6822 173.21259 0.0
C1336 C 0.33913 0.72898 151.1595 0.0
N1337 N 0.34441 0.70962 152.32495 0.0
C1338 C 0.37144 0.72718 159.47351 0.0
C1339 C 0.36017 0.70836 156.47607 0.0
C1340 C 0.36637 0.74743 158.31065 0.0
C1341 C 0.34998 0.74822 154.1451 0.0
H1342 H 0.32651 0.72948 147.91915 0.0
H1343 H 0.36397 0.6927 157.4419 0.0
C1344 C 0.3398 0.61282 142.82913 0.0
N1345 N 0.33817 0.62072 148.31677 0.0
C1346 C 0.34903 0.59663 143.98972 0.0
C1347 C 0.35433 0.59655 156.37154 0.0
C1348 C 0.34507 0.61285 154.97785 0.0
C1349 C 0.35663 0.58847 150.87162 0.0
H1350 H 0.3343 0.61958 137.60854 0.0
H1351 H 0.34367 0.61953 159.2574 0.0
C1352 C 0.29468 0.69601 138.52671 0.0
N1353 N 0.26953 0.71422 128.10875 0.0
C1354 C 0.27951 0.69062 137.68032 0.0
C1355 C 0.2971 0.71079 134.1144 0.0
C1356 C 0.26694 0.69999 132.37654 0.0
C1357 C 0.28421 0.71976 128.86264 0.0
C1358 C 0.30124 0.61575 138.96152 0.0
C1359 C 0.29882 0.60924 132.15024 0.0
C1360 C 0.30246 0.60032 143.88673 0.0
C1361 C 0.29775 0.58733 130.39285 0.0
C1362 C 0.30136 0.57858 141.92803 0.0
N1363 N 0.29905 0.57259 135.2796 0.0
C1364 C 0.30176 0.66997 122.79816 0.0
C1365 C 0.27878 0.65975 123.80833 0.0
C1366 C 0.29234 0.67016 115.26911 0.0
N1367 N 0.29487 0.66494 126.89021 0.0
C1368 C 0.26888 0.65985 116.29495 0.0
C1369 C 0.27565 0.66506 111.91166 0.0
H1370 H 0.31458 0.67349 125.36271 0.0
H1371 H 0.27365 0.65544 127.19364 0.0
C1372 C 0.29734 0.67219 157.70497 0.0
N1373 N 0.29507 0.6563 152.77035 0.0
C1374 C 0.28834 0.67012 161.13165 0.0
C1375 C 0.27412 0.63601 153.98483 0.0
C1376 C 0.28368 0.6385 150.81672 0.0
C1377 C 0.27658 0.65186 159.25945 0.0
H1378 H 0.30621 0.68642 159.0003 0.0
H1379 H 0.28197 0.62632 146.77947 0.0
O1380 O 0.3308 0.66569 140.60871 0.0
O1381 O 0.33184 0.66185 155.27274 0.0
O1382 O 0.30709 0.68675 143.60464 0.0
O1383 O 0.30271 0.63717 140.85475 0.0
H1384 H 0.35962 0.65464 147.10121 0.0
H1385 H 0.33199 0.70302 134.903 0.0
H1386 H 0.38344 0.67621 147.62892 0.0
H1387 H 0.35634 0.72379 135.68151 0.0
H1388 H 0.32477 0.6308 172.96787 0.0
H1389 H 0.3434 0.69635 164.70931 0.0
H1390 H 0.32265 0.62892 160.86509 0.0
H1391 H 0.34511 0.69704 176.73492 0.0
H1392 H 0.38396 0.72592 162.75144 0.0
H1393 H 0.34564 0.76355 153.12685 0.0
H1394 H 0.35069 0.59121 139.62294 0.0
H1395 H 0.35982 0.5906 161.73037 0.0
H1396 H 0.27741 0.67918 141.03341 0.0
H1397 H 0.30875 0.71508 134.68199 0.0
H1398 H 0.25511 0.69589 131.63745 0.0
H1399 H 0.28588 0.7311 125.37513 0.0
H1400 H 0.29795 0.62098 128.29089 0.0
H1401 H 0.30443 0.60512 149.1978 0.0
H1402 H 0.29596 0.58206 125.15455 0.0
H1403 H 0.30238 0.56648 145.70149 0.0
H1404 H 0.29812 0.67377 112.10113 0.0
H1405 H 0.25609 0.65594 113.95519 0.0
H1406 H 0.29033 0.68279 165.10452 0.0
H1407 H 0.26505 0.62181 152.40006 0.0
Li1408 Li 1.09028 0.55049 318.41417 0.0
Li1409 Li 1.11129 0.53492 317.79418 0.0
Li1410 Li 1.0829 0.52801 307.24404 0.0
Li1411 Li 1.09095 0.5112 318.52916 0.0
C1412 C 1.09904 0.57514 308.65424 0.0
N1413 N 1.10143 0.61425 302.94282 0.0
C1414 C 1.11328 0.58989 312.08507 0.0
C1415 C 1.08607 0.58023 302.25741 0.0
C1416 C 1.11423 0.60959 309.13424 0.0
C1417 C 1.0875 0.60009 299.47298 0.0
C1418 C 1.12078 0.54056 332.07443 0.0
C1419 C 0.76976 0.44989 0.15151 0.0
N1420 N 0.77282 0.46938 3.81624 0.0
C1421 C 1.12416 0.56048 335.94584 0.0
C1422 C 1.13219 0.5268 334.60728 0.0
C1423 C 0.76187 0.48297 1.4731 0.0
C1424 C 1.07684 0.56874 325.56676 0.0
N1425 N 1.08553 0.57393 322.26391 0.0
C1426 C 1.08735 0.61165 324.87626 0.0
C1427 C 1.09083 0.59487 321.88101 0.0
C1428 C 1.07843 0.60681 328.3433 0.0
C1429 C 1.07314 0.58501 328.6643 0.0
H1430 H 1.07285 0.55192 325.81062 0.0
H1431 H 1.09792 0.59863 319.34565 0.0
C1432 C 1.13766 0.5273 316.72189 0.0
N1433 N 1.13297 0.54028 320.15594 0.0
C1434 C 1.15319 0.53142 317.94103 0.0
C1435 C 1.15888 0.56183 326.35589 0.0
C1436 C 1.14323 0.55726 324.91663 0.0
C1437 C 1.16396 0.54901 322.76823 0.0
H1438 H 1.12922 0.51402 312.91166 0.0
H1439 H 1.13916 0.56761 327.4764 0.0
C1440 C 1.05741 0.53215 309.6251 0.0
N1441 N 1.02768 0.54464 302.66659 0.0
C1442 C 1.04414 0.51828 308.91207 0.0
C1443 C 1.05556 0.55245 306.86816 0.0
C1444 C 1.02921 0.52486 305.35328 0.0
C1445 C 1.04044 0.55846 303.35433 0.0
C1446 C 1.09776 0.48594 311.2185 0.0
C1447 C 1.08417 0.47292 305.69143 0.0
C1448 C 1.11028 0.47639 316.47772 0.0
C1449 C 1.08326 0.45044 305.56201 0.0
C1450 C 1.10891 0.45385 316.16422 0.0
N1451 N 1.09554 0.44145 310.76195 0.0
C1452 C 1.07809 0.52991 293.24457 0.0
C1453 C 1.0546 0.51575 293.43783 0.0
C1454 C 1.06981 0.5276 285.65661 0.0
N1455 N 1.07038 0.52423 296.95384 0.0
C1456 C 1.04582 0.51323 285.84298 0.0
C1457 C 1.05341 0.51929 281.8443 0.0
H1458 H 1.09072 0.53627 296.20583 0.0
H1459 H 1.04882 0.51084 296.50693 0.0
C1460 C 1.09683 0.48047 329.00758 0.0
N1461 N 1.08624 0.48563 322.26906 0.0
C1462 C 1.09298 0.46196 331.81036 0.0
C1463 C 1.06742 0.45444 320.67009 0.0
C1464 C 1.07184 0.47299 318.06102 0.0
C1465 C 1.07802 0.44887 327.65405 0.0
H1466 H 1.10814 0.4909 332.25062 0.0
H1467 H 1.06374 0.47744 312.69376 0.0
O1468 O 1.09797 0.55562 311.43099 0.0
O1469 O 1.10634 0.53454 325.87786 0.0
O1470 O 1.0721 0.5259 313.09623 0.0
O1471 O 1.09869 0.50794 311.54335 0.0
H1472 H 1.12344 0.58633 317.02277 0.0
H1473 H 1.07501 0.56898 299.42611 0.0
H1474 H 1.12516 0.62119 311.77094 0.0
H1475 H 1.07753 0.60422 294.53904 0.0
H1476 H 0.77874 0.43948 2.14057 0.0
H1477 H 1.11547 0.5713 334.08747 0.0
H1478 H 1.12985 0.51143 331.64406 0.0
H1479 H 0.76466 0.49836 4.51133 0.0
H1480 H 1.0919 0.62823 324.62188 0.0
H1481 H 1.06614 0.58059 331.24525 0.0
H1482 H 1.15668 0.52118 315.06925 0.0
H1483 H 1.16672 0.57581 330.00563 0.0
H1484 H 1.04536 0.50258 311.07385 0.0
H1485 H 1.06572 0.56355 307.51638 0.0
H1486 H 1.01883 0.51425 304.73741 0.0
H1487 H 1.03887 0.57414 301.19779 0.0
H1488 H 1.07436 0.48008 301.59395 0.0
H1489 H 1.12087 0.48628 320.78843 0.0
H1490 H 1.07278 0.44013 301.34226 0.0
H1491 H 1.11846 0.44622 320.22354 0.0
H1492 H 1.07624 0.53206 282.81661 0.0
H1493 H 1.0332 0.50686 283.14163 0.0
H1494 H 1.10138 0.4583 337.25472 0.0
H1495 H 1.05584 0.44461 317.28564 0.0
Li1496 Li 0.38101 1.25007 146.25611 0.0
Li1497 Li 0.36074 1.22735 147.9324 0.0
Li1498 Li 0.38293 1.21365 148.29887 0.0
Li1499 Li 0.36162 1.22303 136.73479 0.0
C1500 C 0.39316 1.22932 161.7215 0.0
N1501 N 0.41215 1.21391 175.02451 0.0
C1502 C 0.38632 1.2188 165.51789 0.0
C1503 C 0.40972 1.23226 164.76185 0.0
C1504 C 0.3961 1.21108 172.21969 0.0
C1505 C 0.4191 1.22426 171.46724 0.0
C1506 C 0.34174 1.25038 136.50312 0.0
C1507 C 0.31397 1.23424 130.32634 0.0
N1508 N 0.30985 1.25403 128.30583 0.0
C1509 C 0.33725 1.27054 134.36042 0.0
C1510 C 0.33003 1.23206 134.46851 0.0
C1511 C 0.32106 1.27205 130.21946 0.0
C1512 C 0.38709 1.29148 142.30167 0.0
N1513 N 0.39192 1.27878 147.96079 0.0
C1514 C 0.41112 1.3081 156.14524 0.0
C1515 C 0.40376 1.28652 154.7767 0.0
C1516 C 0.40609 1.32185 150.45181 0.0
C1517 C 0.39406 1.31318 143.42649 0.0
H1518 H 0.37755 1.28483 136.95099 0.0
H1519 H 0.40728 1.27605 159.17633 0.0
C1520 C 0.34076 1.20776 153.08203 0.0
N1521 N 0.34703 1.22687 151.80306 0.0
C1522 C 0.33122 1.20749 156.23439 0.0
C1523 C 0.33452 1.24656 156.5226 0.0
C1524 C 0.34408 1.24607 153.41436 0.0
C1525 C 0.32807 1.22711 158.04545 0.0
H1526 H 0.34348 1.19277 151.80978 0.0
H1527 H 0.34924 1.261 152.3174 0.0
C1528 C 0.39634 1.24154 139.69075 0.0
N1529 N 0.41905 1.26796 137.91414 0.0
C1530 C 0.39288 1.2474 132.77322 0.0
C1531 C 0.41149 1.24875 145.67586 0.0
C1532 C 0.40449 1.26085 131.99133 0.0
C1533 C 0.42276 1.2622 144.67977 0.0
C1534 C 0.35811 1.17974 140.05999 0.0
C1535 C 0.36729 1.17558 136.99915 0.0
C1536 C 0.34719 1.16296 140.14319 0.0
C1537 C 0.36535 1.15468 134.05643 0.0
C1538 C 0.34559 1.14228 137.13753 0.0
N1539 N 0.35463 1.13861 134.18386 0.0
C1540 C 0.39332 1.17905 156.79872 0.0
C1541 C 0.40977 1.19297 152.03971 0.0
C1542 C 0.40334 1.16414 160.46776 0.0
N1543 N 0.39684 1.19327 152.79487 0.0
C1544 C 0.42005 1.17815 155.56077 0.0
C1545 C 0.41694 1.16365 159.89514 0.0
H1546 H 0.38276 1.17942 157.17143 0.0
H1547 H 0.41211 1.20421 148.71469 0.0
C1548 C 0.34881 1.23491 122.54938 0.0
N1549 N 0.34836 1.21776 126.39118 0.0
C1550 C 0.33977 1.233 114.96476 0.0
C1551 C 0.32927 1.19609 115.40304 0.0
C1552 C 0.33856 1.19871 122.98883 0.0
C1553 C 0.32992 1.21332 111.27861 0.0
H1554 H 0.35626 1.25012 125.40223 0.0
H1555 H 0.33773 1.18556 126.1125 0.0
O1556 O 0.38372 1.23666 155.08065 0.0
O1557 O 0.35757 1.24871 140.52754 0.0
O1558 O 0.38503 1.22864 140.58964 0.0
O1559 O 0.35993 1.19998 143.09113 0.0
H1560 H 0.37359 1.21646 163.30935 0.0
H1561 H 0.41529 1.24042 161.95647 0.0
H1562 H 0.39093 1.2028 175.18349 0.0
H1563 H 0.4319 1.22626 173.83843 0.0
H1564 H 0.30478 1.2202 128.71356 0.0
H1565 H 0.34619 1.28486 135.88122 0.0
H1566 H 0.33327 1.2163 136.05272 0.0
H1567 H 0.3174 1.28756 128.5236 0.0
H1568 H 0.42045 1.31403 161.62334 0.0
H1569 H 0.38962 1.32324 138.89915 0.0
H1570 H 0.32669 1.19214 157.39865 0.0
H1571 H 0.33221 1.26203 157.70541 0.0
H1572 H 0.38144 1.24149 128.04028 0.0
H1573 H 0.41444 1.24422 151.04972 0.0
H1574 H 0.40193 1.26558 126.66994 0.0
H1575 H 0.43446 1.26808 149.28708 0.0
H1576 H 0.37581 1.18828 136.87178 0.0
H1577 H 0.34 1.16587 142.49175 0.0
H1578 H 0.37237 1.15125 131.66934 0.0
H1579 H 0.33717 1.12915 137.15789 0.0
H1580 H 0.40038 1.15294 163.64632 0.0
H1581 H 0.43041 1.17822 154.98382 0.0
H1582 H 0.3407 1.24673 112.02702 0.0
H1583 H 0.32152 1.18082 112.80479 0.0
Li1584 Li 0.34538 0.46397 22.33531 0.0
Li1585 Li 0.3703 0.47632 21.85415 0.0
Li1586 Li 0.35968 0.43698 21.78792 0.0
Li1587 Li 0.37121 0.46064 32.48213 0.0
C1588 C 0.33669 0.46303 8.42565 0.0
N1589 N 0.68689 0.55734 337.39528 0.0
C1590 C 0.3373 0.48323 5.69312 0.0
C1591 C 0.32244 0.4483 5.09389 0.0
C1592 C 0.32356 0.48846 -0.27779 0.0
C1593 C 0.68606 0.53755 339.93168 0.0
C1594 C 0.36714 0.50056 34.1538 0.0
C1595 C 0.38545 0.52753 43.92602 0.0
N1596 N 0.37546 0.52532 46.66096 0.0
C1597 C 0.35704 0.49859 37.04471 0.0
C1598 C 0.38145 0.51517 37.60082 0.0
C1599 C 0.36146 0.51124 43.37805 0.0
C1600 C 0.31461 0.45929 20.84352 0.0
N1601 N 0.32541 0.47205 19.67621 0.0
C1602 C 0.30941 0.50002 15.97382 0.0
C1603 C 0.32304 0.49201 17.2437 0.0
C1604 C 0.29824 0.48749 17.32956 0.0
C1605 C 0.3008 0.46668 19.65415 0.0
H1606 H 0.31702 0.44378 22.99395 0.0
H1607 H 0.33202 0.50199 16.52755 0.0
C1608 C 0.38662 0.48927 14.37445 0.0
N1609 N 0.38024 0.49646 18.201 0.0
C1610 C 0.39334 0.50399 11.34779 0.0
C1611 C 0.3869 0.53313 16.33563 0.0
C1612 C 0.38026 0.51786 19.23441 0.0
C1613 C 0.39347 0.52625 12.29271 0.0
H1614 H 0.38633 0.47209 13.62154 0.0
H1615 H 0.37481 0.52304 22.18141 0.0
C1616 C 0.34557 0.41832 28.43413 0.0
N1617 N 0.3342 0.37512 28.16323 0.0
C1618 C 0.35387 0.40647 34.38413 0.0
C1619 C 0.33146 0.40817 22.36004 0.0
C1620 C 0.34793 0.38467 34.14143 0.0
C1621 C 0.32593 0.38632 22.32001 0.0
C1622 C 0.39693 0.45018 32.30096 0.0
C1623 C 0.39925 0.43367 36.98182 0.0
C1624 C 0.41012 0.46397 32.90917 0.0
C1625 C 0.41476 0.43128 42.23352 0.0
C1626 C 0.42545 0.46103 38.22388 0.0
N1627 N 0.42743 0.44489 42.73869 0.0
C1628 C 0.35075 0.40556 10.40215 0.0
C1629 C 0.36489 0.39339 22.181 0.0
C1630 C 0.35031 0.38579 7.22098 0.0
N1631 N 0.35806 0.40901 17.75734 0.0
C1632 C 0.36453 0.37331 19.23995 0.0
C1633 C 0.35743 0.36941 11.66538 0.0
H1634 H 0.34566 0.41838 7.00925 0.0
H1635 H 0.37081 0.39654 28.00372 0.0
C1636 C 0.37598 0.45599 46.52438 0.0
N1637 N 0.38345 0.46385 42.88338 0.0
C1638 C 0.38415 0.45781 54.11071 0.0
C1639 C 0.40737 0.47667 54.0843 0.0
C1640 C 0.39873 0.47451 46.49221 0.0
C1641 C 0.40012 0.46807 57.99269 0.0
H1642 H 0.3636 0.4485 43.52603 0.0
H1643 H 0.40421 0.48145 43.48546 0.0
O1644 O 0.34994 0.45777 14.34986 0.0
O1645 O 0.36322 0.48787 28.07711 0.0
O1646 O 0.35121 0.43969 28.5453 0.0
O1647 O 0.38186 0.45284 27.11606 0.0
H1648 H 0.34821 0.49483 8.19442 0.0
H1649 H 0.32179 0.43253 7.08828 0.0
H1650 H 0.70094 0.58748 338.37362 0.0
H1651 H 0.67493 0.52634 337.32453 0.0
H1652 H 0.39653 0.53881 46.68088 0.0
H1653 H 0.34599 0.4872 34.47966 0.0
H1654 H 0.3895 0.51669 35.48091 0.0
H1655 H 0.3538 0.50981 45.69973 0.0
H1656 H 0.30784 0.5161 14.13916 0.0
H1657 H 0.29265 0.45667 20.89717 0.0
H1658 H 0.39836 0.49803 8.3024 0.0
H1659 H 0.38648 0.55009 17.07516 0.0
H1660 H 0.36494 0.41387 39.09191 0.0
H1661 H 0.32491 0.41701 17.69951 0.0
H1662 H 0.35428 0.3753 38.69076 0.0
H1663 H 0.31506 0.37827 17.63762 0.0
H1664 H 0.38918 0.42317 36.69201 0.0
H1665 H 0.40854 0.47685 29.3342 0.0
H1666 H 0.41672 0.41869 45.93306 0.0
H1667 H 0.43576 0.4716 38.76725 0.0
H1668 H 0.34496 0.3837 1.36628 0.0
H1669 H 0.36997 0.36109 22.88134 0.0
H1670 H 0.37795 0.4515 56.90306 0.0
H1671 H 0.41964 0.48477 56.85437 0.0
Li1672 Li 0.17702 0.671 191.65574 0.0
Li1673 Li 0.17606 0.67871 202.31439 0.0
Li1674 Li 0.15395 0.65631 192.29517 0.0
Li1675 Li 0.15969 0.6954 191.44646 0.0
C1676 C 0.17639 0.6297 196.24431 0.0
N1677 N 0.17761 0.58873 191.92706 0.0
C1678 C 0.18452 0.61564 201.44346 0.0
C1679 C 0.16889 0.62293 188.84318 0.0
C1680 C 0.185 0.59498 199.15346 0.0
C1681 C 0.16964 0.60215 186.77322 0.0
C1682 C 0.19942 0.70575 200.67746 0.0
C1683 C 0.2226 0.73177 203.33236 0.0
N1684 N 0.23214 0.718 207.74412 0.0
C1685 C 0.20945 0.69187 205.24057 0.0
C1686 C 0.20603 0.72587 199.71327 0.0
C1687 C 0.22596 0.69835 208.76298 0.0
C1688 C 0.18566 0.67044 180.97777 0.0
N1689 N 0.1902 0.66559 187.90316 0.0
C1690 C 0.21332 0.65313 189.21214 0.0
C1691 C 0.20363 0.65687 192.01349 0.0
C1692 C 0.20887 0.65793 182.07216 0.0
C1693 C 0.19481 0.66652 177.90361 0.0
H1694 H 0.17495 0.67741 177.86024 0.0
H1695 H 0.20681 0.65279 197.46126 0.0
C1696 C 0.18713 0.66499 216.29866 0.0
N1697 N 0.18755 0.68259 212.63633 0.0
C1698 C 0.19512 0.66679 223.8877 0.0
C1699 C 0.20376 0.70486 223.77584 0.0
C1700 C 0.1956 0.70231 216.18727 0.0
C1701 C 0.20359 0.68694 227.72665 0.0
H1702 H 0.18055 0.64954 213.30447 0.0
H1703 H 0.19558 0.71609 213.12163 0.0
C1704 C 0.13939 0.67133 178.34151 0.0
N1705 N 0.10901 0.67169 166.74964 0.0
C1706 C 0.12691 0.67347 179.5785 0.0
C1707 C 0.13639 0.66934 171.20201 0.0
C1708 C 0.11164 0.67363 173.64901 0.0
C1709 C 0.12095 0.66956 165.41684 0.0
C1710 C 0.15263 0.69135 203.4309 0.0
C1711 C 0.14578 0.68041 207.15404 0.0
C1712 C 0.15943 0.71319 205.47321 0.0
C1713 C 0.14587 0.69148 212.87744 0.0
C1714 C 0.15928 0.72369 211.22061 0.0
N1715 N 0.15257 0.71271 214.77718 0.0
C1716 C 0.13562 0.62484 195.33937 0.0
C1717 C 0.12863 0.62216 182.94691 0.0
C1718 C 0.12317 0.60826 193.96866 0.0
N1719 N 0.13778 0.63189 189.82147 0.0
C1720 C 0.11599 0.60551 181.31856 0.0
C1721 C 0.11292 0.59869 186.8438 0.0
H1722 H 0.14343 0.63243 200.78845 0.0
H1723 H 0.13092 0.62753 178.69016 0.0
C1724 C 0.15691 0.73376 184.24371 0.0
N1725 N 0.15057 0.72038 187.48902 0.0
C1726 C 0.15032 0.75219 181.24744 0.0
C1727 C 0.13089 0.74265 185.02777 0.0
C1728 C 0.13775 0.72436 187.88527 0.0
C1729 C 0.13719 0.75685 181.66466 0.0
H1730 H 0.16707 0.73008 183.98427 0.0
H1731 H 0.13281 0.71329 190.40279 0.0
O1732 O 0.17591 0.64997 198.4558 0.0
O1733 O 0.1832 0.69987 197.16305 0.0
O1734 O 0.15451 0.67126 184.04315 0.0
O1735 O 0.15303 0.68068 197.9231 0.0
H1736 H 0.19041 0.62065 207.19368 0.0
H1737 H 0.16258 0.63355 184.72712 0.0
H1738 H 0.19125 0.58393 203.12159 0.0
H1739 H 0.16389 0.59671 181.0671 0.0
H1740 H 0.22788 0.7473 202.63484 0.0
H1741 H 0.20457 0.67623 206.05643 0.0
H1742 H 0.19842 0.73682 196.2019 0.0
H1743 H 0.23385 0.68775 212.3042 0.0
H1744 H 0.22407 0.64636 192.54595 0.0
H1745 H 0.19114 0.67055 172.38947 0.0
H1746 H 0.19483 0.65251 226.71573 0.0
H1747 H 0.20994 0.72074 226.51279 0.0
H1748 H 0.1289 0.67483 185.04179 0.0
H1749 H 0.14588 0.66759 170.13346 0.0
H1750 H 0.10189 0.67525 174.53381 0.0
H1751 H 0.11847 0.66803 159.86596 0.0
H1752 H 0.14041 0.66356 205.65044 0.0
H1753 H 0.16502 0.72184 202.73327 0.0
H1754 H 0.14063 0.6832 215.81135 0.0
H1755 H 0.16457 0.74055 212.88057 0.0
H1756 H 0.12122 0.60362 198.39537 0.0
H1757 H 0.10857 0.59828 175.78269 0.0
H1758 H 0.15553 0.76279 178.71572 0.0
H1759 H 0.12061 0.74546 185.34706 0.0
Li1760 Li 0.65204 0.19158 21.71628 0.0
Li1761 Li 0.65315 0.17989 32.40395 0.0
Li1762 Li 0.64613 0.15329 22.35509 0.0
Li1763 Li 0.62725 0.17925 21.50625 0.0
C1764 C 0.68057 0.17176 28.80803 0.0
N1765 N 0.70933 0.16995 29.54512 0.0
C1766 C 0.69473 0.18342 34.47417 0.0
C1767 C 0.6811 0.15892 23.58245 0.0
C1768 C 0.70913 0.18238 34.72962 0.0
C1769 C 0.69573 0.15828 24.03307 0.0
C1770 C 0.65207 0.22382 31.01965 0.0
C1771 C 0.65376 0.25941 35.94117 0.0
N1772 N 0.66984 0.26269 38.82829 0.0
C1773 C 0.6686 0.22754 34.02578 0.0
C1774 C 0.64456 0.23987 31.97051 0.0
C1775 C 0.67738 0.24728 37.95706 0.0
C1776 C 0.65176 0.2295 15.00704 0.0
N1777 N 0.66037 0.21314 17.61051 0.0
C1778 C 0.67842 0.22852 13.75633 0.0
C1779 C 0.67349 0.21236 17.03791 0.0
C1780 C 0.66968 0.24554 10.9681 0.0
C1781 C 0.65616 0.24586 11.62222 0.0
H1782 H 0.64126 0.22961 15.45019 0.0
H1783 H 0.68012 0.19923 19.05045 0.0
C1784 C 0.6768 0.17423 46.61591 0.0
N1785 N 0.66388 0.18404 42.7007 0.0
C1786 C 0.68481 0.17638 54.20186 0.0
C1787 C 0.66598 0.19862 53.57387 0.0
C1788 C 0.65838 0.19611 45.99377 0.0
C1789 C 0.67938 0.18864 57.78657 0.0
H1790 H 0.6808 0.16458 43.83308 0.0
H1791 H 0.64793 0.2035 42.72518 0.0
C1792 C 0.63204 0.17763 7.97378 0.0
N1793 N 1.00743 0.27604 336.22351 0.0
C1794 C 0.62152 0.19187 4.06951 0.0
C1795 C 0.64151 0.17077 5.4417 0.0
C1796 C 0.99797 0.28274 338.54635 0.0
C1797 C 1.01763 0.26202 339.89926 0.0
C1798 C 0.63474 0.14878 34.02809 0.0
C1799 C 0.64393 0.13329 37.98812 0.0
C1800 C 0.62595 0.15811 36.48455 0.0
C1801 C 0.64426 0.12747 44.39253 0.0
C1802 C 0.62657 0.15183 42.91003 0.0
N1803 N 0.63565 0.13679 46.70165 0.0
C1804 C 0.657 0.11304 24.38164 0.0
C1805 C 0.63468 0.11619 12.81449 0.0
C1806 C 0.65592 0.09122 22.55081 0.0
N1807 N 0.64626 0.12483 19.56964 0.0
C1808 C 0.63316 0.09446 10.75383 0.0
C1809 C 0.64361 0.08155 15.72156 0.0
H1810 H 0.66607 0.12043 29.72021 0.0
H1811 H 0.62632 0.12603 9.11606 0.0
C1812 C 0.60056 0.20081 15.20546 0.0
N1813 N 0.60565 0.18183 17.70525 0.0
C1814 C 0.58446 0.20254 12.18483 0.0
C1815 C 0.57936 0.16538 14.59095 0.0
C1816 C 0.59549 0.16428 17.46361 0.0
C1817 C 0.57367 0.18465 11.86048 0.0
H1818 H 0.60898 0.21451 15.50049 0.0
H1819 H 0.59991 0.14938 19.47172 0.0
O1820 O 0.66641 0.1723 28.55912 0.0
O1821 O 0.64319 0.20458 27.17244 0.0
O1822 O 0.63318 0.17064 14.28246 0.0
O1823 O 0.63467 0.15521 27.87554 0.0
H1824 H 0.69465 0.19311 38.65837 0.0
H1825 H 0.67035 0.14964 19.19574 0.0
H1826 H 0.72015 0.19139 39.06741 0.0
H1827 H 0.69628 0.14852 19.99869 0.0
H1828 H 0.64811 0.27198 36.72839 0.0
H1829 H 0.67455 0.21535 33.30202 0.0
H1830 H 0.63175 0.23721 29.67177 0.0
H1831 H 0.69019 0.25037 40.30982 0.0
H1832 H 0.68904 0.22773 13.45475 0.0
H1833 H 0.64885 0.2584 9.43202 0.0
H1834 H 0.6952 0.16863 57.21962 0.0
H1835 H 0.66123 0.20793 56.09675 0.0
H1836 H 0.61408 0.1973 5.94189 0.0
H1837 H 0.64961 0.15962 8.35738 0.0
H1838 H 0.98998 0.29391 335.50455 0.0
H1839 H 1.02498 0.25697 337.90864 0.0
H1840 H 0.65088 0.12603 36.18136 0.0
H1841 H 0.6189 0.1703 33.51818 0.0
H1842 H 0.6514 0.11559 47.53974 0.0
H1843 H 0.6199 0.15901 44.90263 0.0
H1844 H 0.6641 0.08179 26.57339 0.0
H1845 H 0.62361 0.08767 5.41445 0.0
H1846 H 0.58051 0.21771 10.16952 0.0
H1847 H 0.57137 0.15118 14.36057 0.0
Li1848 Li 0.51184 0.96142 203.40873 0.0
Li1849 Li 0.49823 0.97923 192.24362 0.0
Li1850 Li 0.49131 0.94045 192.49774 0.0
Li1851 Li 0.51641 0.95593 193.26735 0.0
C1852 C 0.47436 0.95749 196.79518 0.0
N1853 N 0.44397 0.94215 194.11035 0.0
C1854 C 0.46137 0.96628 191.53261 0.0
C1855 C 0.47191 0.94092 200.70193 0.0
C1856 C 0.4461 0.95831 190.26081 0.0
C1857 C 0.45644 0.93336 199.25444 0.0
C1858 C 0.52544 1.00471 200.13034 0.0
C1859 C 0.53075 1.03842 195.66403 0.0
N1860 N 0.53196 1.0494 201.48131 0.0
C1861 C 0.52677 1.01631 206.07544 0.0
C1862 C 0.5275 1.01582 194.89289 0.0
C1863 C 0.53007 1.0389 206.65926 0.0
C1864 C 0.53806 0.96809 217.67199 0.0
N1865 N 0.52188 0.96521 213.69788 0.0
C1866 C 0.5203 0.96834 224.48684 0.0
C1867 C 0.51294 0.96549 216.92137 0.0
C1868 C 0.53701 0.97105 228.75762 0.0
C1869 C 0.54591 0.97094 225.24971 0.0
H1870 H 0.54485 0.96811 214.94001 0.0
H1871 H 0.50012 0.96366 213.62109 0.0
C1872 C 0.48613 1.00945 181.66237 0.0
N1873 N 0.49 1.00484 188.53712 0.0
C1874 C 0.47994 1.02828 178.94456 0.0
C1875 C 0.48174 1.03712 190.42727 0.0
C1876 C 0.48794 1.01816 192.9274 0.0
C1877 C 0.47759 1.04231 183.33639 0.0
H1878 H 0.48767 0.99841 178.25987 0.0
H1879 H 0.49107 1.01395 198.36273 0.0
C1880 C 0.52282 0.92476 205.23262 0.0
N1881 N 0.54367 0.90813 217.91912 0.0
C1882 C 0.53878 0.92561 207.17645 0.0
C1883 C 0.51746 0.91536 209.72844 0.0
C1884 C 0.54913 0.91712 213.61174 0.0
C1885 C 0.52819 0.90709 216.12652 0.0
C1886 C 0.49548 0.95013 179.21242 0.0
C1887 C 0.48901 0.92921 175.77852 0.0
C1888 C 0.50359 0.96473 176.74925 0.0
C1889 C 0.49082 0.92322 169.94712 0.0
C1890 C 0.50518 0.9581 170.91321 0.0
N1891 N 0.49881 0.93766 167.66017 0.0
C1892 C 0.46043 0.91877 182.44851 0.0
C1893 C 0.47672 0.89736 191.55709 0.0
C1894 C 0.4481 0.90113 179.16212 0.0
N1895 N 0.4744 0.91652 188.49617 0.0
C1896 C 0.46469 0.87935 188.48581 0.0
C1897 C 0.45019 0.88099 182.14343 0.0
H1898 H 0.45901 0.93419 180.09435 0.0
H1899 H 0.48798 0.89599 196.33201 0.0
C1900 C 0.54453 0.96574 192.36459 0.0
N1901 N 0.53167 0.95052 190.75518 0.0
C1902 C 0.55601 0.96112 190.74157 0.0
C1903 C 0.54057 0.92544 185.73783 0.0
C1904 C 0.52956 0.93062 187.55566 0.0
C1905 C 0.55406 0.94073 187.39111 0.0
H1906 H 0.54604 0.9813 195.02665 0.0
H1907 H 0.51941 0.91867 186.51504 0.0
O1908 O 0.48939 0.96486 198.05361 0.0
O1909 O 0.52187 0.98261 199.37716 0.0
O1910 O 0.51255 0.9333 199.01195 0.0
O1911 O 0.49399 0.95624 184.98851 0.0
H1912 H 0.46304 0.979 188.42475 0.0
H1913 H 0.4818 0.93376 204.73222 0.0
H1914 H 0.43592 0.96493 186.19601 0.0
H1915 H 0.45436 0.92046 202.20489 0.0
H1916 H 0.53227 1.04724 191.62637 0.0
H1917 H 0.52511 1.00799 210.15556 0.0
H1918 H 0.5264 1.0071 190.23227 0.0
H1919 H 0.53107 1.0481 211.2141 0.0
H1920 H 0.51299 0.9687 226.95596 0.0
H1921 H 0.5588 0.97276 228.32506 0.0
H1922 H 0.47665 1.03154 173.40665 0.0
H1923 H 0.4802 1.0476 193.99867 0.0
H1924 H 0.54319 0.93291 203.79985 0.0
H1925 H 0.5052 0.91477 208.35468 0.0
H1926 H 0.56152 0.91774 215.19474 0.0
H1927 H 0.52422 0.89992 219.68036 0.0
H1928 H 0.48282 0.91762 177.63568 0.0
H1929 H 0.50886 0.98088 179.39926 0.0
H1930 H 0.48593 0.90706 167.25902 0.0
H1931 H 0.51153 0.96918 168.98995 0.0
H1932 H 0.43725 0.90313 174.22836 0.0
H1933 H 0.46677 0.86428 191.04741 0.0
H1934 H 0.56633 0.97326 192.13256 0.0
H1935 H 0.53884 0.90937 183.30173 0.0
Li1936 Li 0.67917 0.75081 21.78605 0.0
Li1937 Li 0.70325 0.74635 32.28487 0.0
Li1938 Li 0.70369 0.76135 21.91323 0.0
Li1939 Li 0.6945 0.72157 21.72067 0.0
C1940 C 0.68848 0.78963 28.06173 0.0
N1941 N 0.67043 0.82047 27.53183 0.0
C1942 C 0.68504 0.79228 33.61864 0.0
C1943 C 0.68281 0.80277 22.25969 0.0
C1944 C 0.67589 0.80795 33.24886 0.0
C1945 C 0.67368 0.81823 22.08019 0.0
C1946 C 0.68263 0.71382 32.68397 0.0
C1947 C 0.68361 0.68139 38.91813 0.0
N1948 N 0.68103 0.69219 43.67314 0.0
C1949 C 0.67992 0.72456 37.61293 0.0
C1950 C 0.68445 0.69204 33.32274 0.0
C1951 C 0.67919 0.71336 43.14196 0.0
C1952 C 0.64883 0.75722 10.60424 0.0
N1953 N 0.65798 0.75642 17.91622 0.0
C1954 C 0.63629 0.76164 19.56427 0.0
C1955 C 0.65204 0.75856 22.40048 0.0
C1956 C 0.62645 0.76214 12.01499 0.0
C1957 C 0.63296 0.76011 7.51988 0.0
H1958 H 0.65371 0.75504 7.136 0.0
H1959 H 0.65947 0.75768 28.17715 0.0
C1960 C 0.72006 0.76801 46.35171 0.0
N1961 N 0.7151 0.74808 42.70985 0.0
C1962 C 0.72859 0.77021 53.94327 0.0
C1963 C 0.72737 0.73138 53.91488 0.0
C1964 C 0.71888 0.72995 46.32419 0.0
C1965 C 0.73222 0.75171 57.82783 0.0
H1966 H 0.71743 0.78224 43.35782 0.0
H1967 H 0.71536 0.71436 43.3169 0.0
C1968 C 0.6837 0.7465 7.85226 0.0
N1969 N 1.06063 0.83863 335.87377 0.0
C1970 C 0.68711 0.73113 4.29505 0.0
C1971 C 0.68002 0.76621 4.85884 0.0
C1972 C 1.0641 0.81927 338.64901 0.0
C1973 C 1.05716 0.85375 339.20997 0.0
C1974 C 0.73074 0.74062 33.63504 0.0
C1975 C 0.74011 0.76101 36.45884 0.0
C1976 C 0.73658 0.72219 37.02513 0.0
C1977 C 0.75521 0.76263 42.6697 0.0
C1978 C 0.75174 0.7245 43.2246 0.0
N1979 N 0.76066 0.7445 45.89715 0.0
C1980 C 0.71913 0.80213 20.96981 0.0
C1981 C 0.72055 0.77219 14.63584 0.0
C1982 C 0.72839 0.81606 18.91438 0.0
N1983 N 0.71539 0.78067 18.79063 0.0
C1984 C 0.72951 0.78555 12.32758 0.0
C1985 C 0.73378 0.80781 14.55121 0.0
H1986 H 0.71529 0.80834 24.4648 0.0
H1987 H 0.71782 0.75497 13.16714 0.0
C1988 C 0.67935 0.68013 14.34898 0.0
N1989 N 0.69355 0.69363 18.04768 0.0
C1990 C 0.67851 0.65991 11.28483 0.0
C1991 C 0.70695 0.66793 15.97004 0.0
C1992 C 0.7072 0.688 18.89583 0.0
C1993 C 0.69245 0.65364 12.06975 0.0
H1994 H 0.66867 0.6852 13.71803 0.0
H1995 H 0.71824 0.69931 21.71223 0.0
O1996 O 0.69727 0.7742 28.27567 0.0
O1997 O 0.68333 0.72442 27.20751 0.0
O1998 O 0.68391 0.74222 14.20462 0.0
O1999 O 0.71576 0.73879 27.68463 0.0
H2000 H 0.68913 0.78211 38.10984 0.0
H2001 H 0.68537 0.80101 17.92457 0.0
H2002 H 0.67306 0.81006 37.48775 0.0
H2003 H 0.66917 0.82843 17.60392 0.0
H2004 H 0.68503 0.66456 39.48764 0.0
H2005 H 0.67879 0.74149 37.29358 0.0
H2006 H 0.68657 0.68346 29.56169 0.0
H2007 H 0.67724 0.72154 47.03302 0.0
H2008 H 0.63183 0.76339 23.24338 0.0
H2009 H 0.62574 0.76 1.6606 0.0
H2010 H 0.73209 0.7862 56.7327 0.0
H2011 H 0.73025 0.71676 56.68447 0.0
H2012 H 0.68992 0.71575 6.49474 0.0
H2013 H 0.67725 0.77824 7.50102 0.0
H2014 H 1.0668 0.80757 335.86439 0.0
H2015 H 1.05443 0.869 336.865 0.0
H2016 H 0.7357 0.77544 33.93901 0.0
H2017 H 0.72938 0.70632 34.96696 0.0
H2018 H 0.76257 0.77831 44.94035 0.0
H2019 H 0.75638 0.7104 45.9344 0.0
H2020 H 0.73167 0.83296 20.92134 0.0
H2021 H 0.73318 0.7784 8.89472 0.0
H2022 H 0.66712 0.64931 8.33794 0.0
H2023 H 0.7179 0.66391 16.575 0.0
Li2024 Li 0.22584 1.23888 202.55528 0.0
Li2025 Li 0.20348 1.22306 191.42522 0.0
Li2026 Li 0.22982 1.23708 192.18401 0.0
Li2027 Li 0.21207 1.26129 192.80946 0.0
C2028 C 0.23253 1.19885 201.84241 0.0
N2029 N 0.24929 1.1712 212.00939 0.0
C2030 C 0.22676 1.18948 206.19634 0.0
C2031 C 0.24676 1.19407 202.62093 0.0
C2032 C 0.23544 1.17559 211.32159 0.0
C2033 C 0.25507 1.18006 207.79919 0.0
C2034 C 0.18968 1.23698 198.00974 0.0
C2035 C 0.16098 1.23292 191.80146 0.0
N2036 N 0.16098 1.22072 197.08855 0.0
C2037 C 0.1894 1.22445 203.3961 0.0
C2038 C 0.17536 1.24133 192.18161 0.0
C2039 C 0.17478 1.21637 202.83003 0.0
C2040 C 0.23051 1.24815 216.46248 0.0
N2041 N 0.23705 1.23931 212.97291 0.0
C2042 C 0.25947 1.23369 224.34768 0.0
C2043 C 0.2514 1.23249 216.75481 0.0
C2044 C 0.25283 1.24239 228.08666 0.0
C2045 C 0.23817 1.24975 224.04276 0.0
H2046 H 0.2194 1.25425 213.35412 0.0
H2047 H 0.25677 1.22649 213.89692 0.0
C2048 C 0.17663 1.19938 179.29097 0.0
N2049 N 0.1855 1.20068 186.67771 0.0
C2050 C 0.16348 1.18303 175.55543 0.0
C2051 C 0.16876 1.16976 187.10093 0.0
C2052 C 0.18194 1.18615 190.60071 0.0
C2053 C 0.15942 1.16803 179.48426 0.0
H2054 H 0.17985 1.21088 176.28671 0.0
H2055 H 0.18936 1.18718 196.4432 0.0
C2056 C 0.24644 1.2745 205.21999 0.0
N2057 N 0.2684 1.29774 218.30082 0.0
C2058 C 0.24178 1.28983 208.21792 0.0
C2059 C 0.26228 1.27104 208.85334 0.0
C2060 C 0.25306 1.3014 214.84274 0.0
C2061 C 0.2732 1.28295 215.46609 0.0
C2062 C 0.20175 1.25261 178.71 0.0
C2063 C 0.21125 1.26041 175.76985 0.0
C2064 C 0.18627 1.25732 175.62512 0.0
C2065 C 0.20518 1.27306 169.85153 0.0
C2066 C 0.18064 1.27004 169.71712 0.0
N2067 N 0.19013 1.2776 166.98005 0.0
C2068 C 0.24034 1.21625 184.05285 0.0
C2069 C 0.25594 1.25005 190.22709 0.0
C2070 C 0.24966 1.2145 180.87557 0.0
N2071 N 0.2436 1.23388 188.58925 0.0
C2072 C 0.26561 1.24891 187.2109 0.0
C2073 C 0.26242 1.23108 182.38942 0.0
H2074 H 0.23028 1.20381 182.78349 0.0
H2075 H 0.25806 1.26405 193.75718 0.0
C2076 C 0.19634 1.29647 192.42282 0.0
N2077 N 0.20627 1.28906 190.5254 0.0
C2078 C 0.19321 1.31763 191.23941 0.0
C2079 C 0.21034 1.32289 186.05348 0.0
C2080 C 0.21333 1.3018 187.44075 0.0
C2081 C 0.20034 1.33111 188.05038 0.0
H2082 H 0.19126 1.2862 195.06285 0.0
H2083 H 0.22162 1.29573 186.23822 0.0
O2084 O 0.22422 1.21244 196.77337 0.0
O2085 O 0.20388 1.24488 198.42508 0.0
O2086 O 0.23546 1.26257 198.85336 0.0
O2087 O 0.20756 1.24042 184.56677 0.0
H2088 H 0.2159 1.19323 205.73375 0.0
H2089 H 0.25137 1.20117 199.28397 0.0
H2090 H 0.23119 1.16836 214.77188 0.0
H2091 H 0.26612 1.17625 208.47865 0.0
H2092 H 0.14981 1.23609 187.29979 0.0
H2093 H 0.20032 1.22063 207.89947 0.0
H2094 H 0.17533 1.25101 187.9749 0.0
H2095 H 0.17439 1.20654 206.93359 0.0
H2096 H 0.27094 1.22833 227.26107 0.0
H2097 H 0.23263 1.25659 226.70364 0.0
H2098 H 0.15655 1.18214 169.66763 0.0
H2099 H 0.16613 1.15824 190.29903 0.0
H2100 H 0.22953 1.29255 205.51011 0.0
H2101 H 0.26603 1.25902 206.65453 0.0
H2102 H 0.24961 1.31322 217.24983 0.0
H2103 H 0.28548 1.28034 218.36488 0.0
H2104 H 0.22324 1.25692 178.06195 0.0
H2105 H 0.17871 1.25129 177.78714 0.0
H2106 H 0.21244 1.27931 167.55146 0.0
H2107 H 0.16872 1.27391 167.30833 0.0
H2108 H 0.24661 1.20062 177.11554 0.0
H2109 H 0.27542 1.26194 188.6146 0.0
H2110 H 0.18555 1.32352 192.9107 0.0
H2111 H 0.21637 1.33298 183.75169 0.0
H2112 H 0.20126 0.64675 65.82119 0.0
H2113 H 0.24641 0.65902 66.48063 0.0
H2114 H 0.21521 0.65286 79.09863 0.0
H2115 H 0.26033 0.66471 79.71344 0.0
H2116 H 0.27931 0.69296 102.75254 0.0
H2117 H 0.26384 0.69042 89.4893 0.0
H2118 H 0.23343 0.63356 89.59075 0.0
H2119 H 0.24901 0.63583 102.8446 0.0
C2120 C 0.21414 0.65092 68.79974 0.0
C2121 C 0.22276 0.65232 65.12578 0.0
C2122 C 0.22212 0.65424 76.39139 0.0
C2123 C 0.23885 0.65924 80.43853 0.0
C2124 C 0.24742 0.66109 76.7406 0.0
C2125 C 0.23947 0.65761 69.17225 0.0
C2126 C 0.26935 0.67987 99.95135 0.0
C2127 C 0.26549 0.6645 103.86882 0.0
C2128 C 0.26048 0.67847 92.357 0.0
C2129 C 0.24748 0.66174 88.50636 0.0
C2130 C 0.24328 0.64678 92.41536 0.0
C2131 C 0.25221 0.64811 100.01357 0.0
H2132 H 0.98155 0.49802 235.65263 0.0
H2133 H 1.02656 0.5159 236.39634 0.0
H2134 H 0.99557 0.50044 248.94604 0.0
H2135 H 1.04044 0.51866 249.63856 0.0
H2136 H 1.05639 0.54718 272.55397 0.0
H2137 H 1.04204 0.5431 259.30667 0.0
H2138 H 1.01526 0.48241 259.51486 0.0
H2139 H 1.02983 0.48623 272.80644 0.0
C2140 C 0.99443 0.50226 238.63855 0.0
C2141 C 1.00292 0.50695 234.95418 0.0
C2142 C 1.00244 0.50368 246.24796 0.0
C2143 C 1.01908 0.50992 250.3203 0.0
C2144 C 1.02758 0.51421 246.64119 0.0
C2145 C 1.01961 0.51267 239.05242 0.0
C2146 C 1.04758 0.53283 269.79253 0.0
C2147 C 1.04434 0.51697 273.75535 0.0
C2148 C 1.03933 0.53053 262.20009 0.0
C2149 C 1.02759 0.51239 258.38334 0.0
C2150 C 1.02415 0.49666 262.31776 0.0
C2151 C 1.03248 0.49889 269.92734 0.0
H2152 H 0.31389 1.2428 101.99087 0.0
H2153 H 0.3246 1.17808 102.24402 0.0
H2154 H 0.29949 1.23927 88.7314 0.0
H2155 H 0.31001 1.17449 88.96237 0.0
H2156 H 0.2686 1.17008 65.039 0.0
H2157 H 0.28262 1.17243 78.33308 0.0
H2158 H 0.30619 1.23683 79.04593 0.0
H2159 H 0.29239 1.23445 65.80902 0.0
C2160 C 0.31324 1.22786 99.22421 0.0
C2161 C 0.3205 1.21078 103.19051 0.0
C2162 C 0.30497 1.22583 91.62441 0.0
C2163 C 0.3037 1.20664 87.80431 0.0
C2164 C 0.31065 1.18939 91.75307 0.0
C2165 C 0.31899 1.19145 99.36325 0.0
C2166 C 0.27691 1.18464 68.03603 0.0
C2167 C 0.27929 1.20213 64.35418 0.0
C2168 C 0.28491 1.18599 75.64754 0.0
C2169 C 0.2954 1.20488 79.73107 0.0
C2170 C 0.29794 1.22223 76.05062 0.0
C2171 C 0.29001 1.22085 68.46059 0.0
H2172 H 0.782 0.78099 273.40592 0.0
H2173 H 0.74918 0.82014 273.50057 0.0
H2174 H 0.76677 0.77694 260.13663 0.0
H2175 H 0.73435 0.81682 260.23983 0.0
H2176 H 0.70213 0.78792 236.8388 0.0
H2177 H 0.717 0.78992 250.09939 0.0
H2178 H 0.76125 0.79877 249.89955 0.0
H2179 H 0.74637 0.7967 236.6316 0.0
C2180 C 0.77151 0.78869 270.59455 0.0
C2181 C 0.7668 0.80089 274.50661 0.0
C2182 C 0.7629 0.78656 262.99203 0.0
C2183 C 0.74936 0.79658 259.13383 0.0
C2184 C 0.74462 0.80871 263.04923 0.0
C2185 C 0.75323 0.81084 270.64754 0.0
C2186 C 0.71503 0.79038 239.63065 0.0
C2187 C 0.72308 0.79223 235.68975 0.0
C2188 C 0.72355 0.79154 247.22529 0.0
C2189 C 0.74031 0.7946 251.05391 0.0
C2190 C 0.74834 0.79613 247.1094 0.0
C2191 C 0.73982 0.79494 239.5086 0.0
H2192 H -0.03441 0.91525 101.32929 0.0
H2193 H 0.00545 0.95494 101.42241 0.0
H2194 H -0.04944 0.91334 88.0733 0.0
H2195 H -0.00963 0.95328 88.16003 0.0
H2196 H -0.03566 0.92639 64.21689 0.0
H2197 H -0.02021 0.92849 77.48245 0.0
H2198 H -0.06235 0.93614 78.35332 0.0
H2199 H -0.07779 0.93376 65.09868 0.0
C2200 C -0.02891 0.92369 98.51106 0.0
C2201 C -0.01332 0.93526 102.41146 0.0
C2202 C -0.03753 0.92265 90.91857 0.0
C2203 C -0.03077 0.93324 87.0539 0.0
C2204 C -0.01512 0.94469 90.96153 0.0
C2205 C -0.00648 0.94566 98.5578 0.0
C2206 C -0.04156 0.92873 67.25405 0.0
C2207 C -0.05794 0.92984 63.62414 0.0
C2208 C -0.03272 0.92994 74.85174 0.0
C2209 C -0.04006 0.93238 78.9809 0.0
C2210 C -0.05639 0.93383 75.33719 0.0
C2211 C -0.06524 0.93252 67.74601 0.0
H2212 H 0.69162 0.24714 272.42163 0.0
H2213 H 0.73537 0.24624 272.24725 0.0
H2214 H 0.67684 0.24496 259.14422 0.0
H2215 H 0.72063 0.24456 258.96112 0.0
H2216 H 0.68517 0.21324 235.63855 0.0
H2217 H 0.70066 0.21758 248.90685 0.0
H2218 H 0.67393 0.26678 248.93138 0.0
H2219 H 0.65817 0.26208 235.64611 0.0
C2220 C 0.69807 0.24651 269.54025 0.0
C2221 C 0.71464 0.24676 273.36649 0.0
C2222 C 0.68964 0.24549 261.9468 0.0
C2223 C 0.69759 0.24458 258.01933 0.0
C2224 C 0.71418 0.24506 261.84613 0.0
C2225 C 0.72263 0.24621 269.4458 0.0
C2226 C 0.68257 0.22493 238.48304 0.0
C2227 C 0.67041 0.23724 234.614 0.0
C2228 C 0.69155 0.22757 246.07059 0.0
C2229 C 0.6885 0.24251 249.95217 0.0
C2230 C 0.67645 0.25501 246.08202 0.0
C2231 C 0.66753 0.25246 238.48394 0.0
H2232 H 0.56434 0.99865 238.09755 0.0
H2233 H 0.52799 0.9498 237.65723 0.0
H2234 H 0.57828 1.00203 251.3561 0.0
H2235 H 0.54158 0.95384 250.90685 0.0
H2236 H 0.58129 0.94702 274.24139 0.0
H2237 H 0.56596 0.94497 261.00454 0.0
H2238 H 0.57623 1.01461 261.6438 0.0
H2239 H 0.59211 1.01659 274.90806 0.0
C2240 C 0.5593 0.98868 240.83013 0.0
C2241 C 0.5451 0.97386 236.82042 0.0
C2242 C 0.56718 0.99082 248.42651 0.0
C2243 C 0.56105 0.97819 252.18766 0.0
C2244 C 0.54671 0.96363 248.17415 0.0
C2245 C 0.53883 0.96149 240.578 0.0
C2246 C 0.58033 0.96189 271.55739 0.0
C2247 C 0.58801 0.98196 275.62221 0.0
C2248 C 0.57139 0.96074 263.97238 0.0
C2249 C 0.56989 0.97963 260.268 0.0
C2250 C 0.57731 0.99975 264.33554 0.0
C2251 C 0.58626 1.0009 271.93429 0.0
H2252 H 0.78101 0.72997 103.91645 0.0
H2253 H 0.77996 0.79875 103.35889 0.0
H2254 H 0.76693 0.72598 90.64916 0.0
H2255 H 0.76606 0.79475 90.10682 0.0
H2256 H 0.75761 0.78222 67.10027 0.0
H2257 H 0.77152 0.78579 80.36572 0.0
H2258 H 0.74053 0.72902 80.09985 0.0
H2259 H 0.72652 0.72552 66.82783 0.0
C2260 C 0.77765 0.7442 100.96922 0.0
C2261 C 0.78164 0.76469 104.70689 0.0
C2262 C 0.76961 0.74191 93.36865 0.0
C2263 C 0.76544 0.76006 89.33907 0.0
C2264 C 0.76935 0.78051 93.067 0.0
C2265 C 0.77732 0.7828 100.66133 0.0
C2266 C 0.75368 0.7706 69.8683 0.0
C2267 C 0.74094 0.75361 65.90704 0.0
C2268 C 0.76165 0.77264 77.46537 0.0
C2269 C 0.75709 0.75771 81.2722 0.0
C2270 C 0.74445 0.74062 77.32036 0.0
C2271 C 0.73644 0.7386 69.72019 0.0
H2272 H 0.2681 1.21225 237.24054 0.0
H2273 H 0.25659 1.27638 237.16659 0.0
H2274 H 0.2817 1.21495 250.51269 0.0
H2275 H 0.27022 1.27912 250.41658 0.0
H2276 H 0.28138 1.26776 273.53153 0.0
H2277 H 0.26736 1.26386 260.26927 0.0
H2278 H 0.30543 1.23453 261.04758 0.0
H2279 H 0.31942 1.23837 274.31128 0.0
C2280 C 0.26859 1.22699 240.06429 0.0
C2281 C 0.26123 1.24408 236.15767 0.0
C2282 C 0.27638 1.22853 247.6641 0.0
C2283 C 0.277 1.24722 251.52187 0.0
C2284 C 0.2697 1.26434 247.60721 0.0
C2285 C 0.2619 1.26278 240.01446 0.0
C2286 C 0.28678 1.26056 270.86814 0.0
C2287 C 0.30152 1.25342 274.97208 0.0
C2288 C 0.27876 1.25835 263.27068 0.0
C2289 C 0.28531 1.24896 259.60014 0.0
C2290 C 0.29996 1.24156 263.70572 0.0
C2291 C 0.30797 1.24375 271.30682 0.0
H2292 H 0.47042 0.49476 104.21335 0.0
H2293 H 0.4275 0.46276 103.40179 0.0
H2294 H 0.45677 0.49108 90.93169 0.0
H2295 H 0.41374 0.4597 90.14637 0.0
H2296 H 0.39974 0.43719 66.99356 0.0
H2297 H 0.41409 0.44015 80.25619 0.0
H2298 H 0.43523 0.50577 80.5258 0.0
H2299 H 0.4208 0.50287 67.24469 0.0
C2300 C 0.45809 0.48689 101.19781 0.0
C2301 C 0.45003 0.47906 104.84838 0.0
C2302 C 0.45024 0.48499 93.59798 0.0
C2303 C 0.43418 0.47513 89.49843 0.0
C2304 C 0.42616 0.46719 93.15528 0.0
C2305 C 0.43399 0.46916 100.74448 0.0
C2306 C 0.40735 0.45231 69.8807 0.0
C2307 C 0.40909 0.46982 66.06694 0.0
C2308 C 0.41558 0.45399 77.47608 0.0
C2309 C 0.42575 0.47321 81.43144 0.0
C2310 C 0.42763 0.49066 77.62672 0.0
C2311 C 0.41937 0.48899 70.02275 0.0
H2312 H 0.23314 0.71007 236.95206 0.0
H2313 H 0.19367 0.6689 236.76013 0.0
H2314 H 0.24746 0.7136 250.22031 0.0
H2315 H 0.20825 0.67173 250.0259 0.0
H2316 H 0.23207 0.69981 273.61471 0.0
H2317 H 0.21751 0.69794 260.34874 0.0
H2318 H 0.26067 0.69137 260.27145 0.0
H2319 H 0.27523 0.69329 273.53232 0.0
C2320 C 0.2275 0.70184 239.742 0.0
C2321 C 0.21227 0.6892 235.80249 0.0
C2322 C 0.23578 0.70366 247.34397 0.0
C2323 C 0.22901 0.6929 251.1773 0.0
C2324 C 0.21373 0.68039 247.23646 0.0
C2325 C 0.20545 0.67856 239.6355 0.0
C2326 C 0.23842 0.69784 270.75976 0.0
C2327 C 0.2548 0.69667 274.62117 0.0
C2328 C 0.23008 0.69677 263.16232 0.0
C2329 C 0.23793 0.69448 259.25647 0.0
C2330 C 0.25433 0.69346 263.12213 0.0
C2331 C 0.26267 0.69456 270.71962 0.0
H2332 H 0.71722 0.16844 103.68786 0.0
H2333 H 0.74052 0.2323 103.67176 0.0
H2334 H 0.70178 0.16566 90.4303 0.0
H2335 H 0.72532 0.22942 90.39179 0.0
H2336 H 0.68561 0.22466 66.70975 0.0
H2337 H 0.69911 0.22813 79.96182 0.0
H2338 H 0.70593 0.16133 80.38207 0.0
H2339 H 0.69171 0.15755 67.15531 0.0
C2340 C 0.71908 0.18184 100.83436 0.0
C2341 C 0.73012 0.20054 104.70292 0.0
C2342 C 0.71027 0.18024 93.2408 0.0
C2343 C 0.71239 0.19725 89.33595 0.0
C2344 C 0.72324 0.21613 93.22335 0.0
C2345 C 0.73198 0.21778 100.82913 0.0
C2346 C 0.6898 0.21064 69.62953 0.0
C2347 C 0.68759 0.19083 65.86392 0.0
C2348 C 0.69771 0.2127 77.23245 0.0
C2349 C 0.70364 0.19503 81.24546 0.0
C2350 C 0.70135 0.17521 77.47064 0.0
C2351 C 0.69339 0.17312 69.87846 0.0
H2352 H 0.38299 0.6681 322.56425 0.0
H2353 H 0.01555 0.62603 0.26418 0.0
H2354 H 0.41166 0.6701 327.45028 0.0
H2355 H 0.04409 0.6276 5.21318 0.0
H2356 H 0.09254 0.64699 7.0235 0.0
H2357 H 0.06383 0.64388 1.87121 0.0
H2358 H 0.43548 0.65845 338.01568 0.0
H2359 H 0.08716 0.57824 2.22792 0.0
C2360 C 0.39124 0.67753 327.67811 0.0
C2361 C 0.38561 0.6886 331.43344 0.0
C2362 C 0.40762 0.67853 330.49864 0.0
C2363 C 0.41864 0.69077 337.0903 0.0
C2364 C 0.03587 0.61823 0.08041 0.0
C2365 C 0.39664 0.70054 338.08141 0.0
C2366 C 0.0852 0.63123 4.82509 0.0
C2367 C 0.09209 0.61286 5.01522 0.0
C2368 C 0.06879 0.62942 1.95086 0.0
C2369 C 0.436 0.69261 339.97942 0.0
C2370 C 0.44283 0.67425 340.07608 0.0
C2371 C 0.08219 0.59264 2.19994 0.0
H2372 H 0.86481 0.28549 172.12474 0.0
H2373 H 0.84028 0.31278 151.43636 0.0
H2374 H 0.88498 0.31811 176.96074 0.0
H2375 H 0.86063 0.34511 156.21303 0.0
H2376 H 0.88601 0.40896 170.72023 0.0
H2377 H 0.86754 0.37516 165.41861 0.0
H2378 H 0.90682 0.33939 175.60695 0.0
H2379 H 0.92546 0.37337 180.85387 0.0
C2380 C 0.86381 0.29839 168.60005 0.0
C2381 C 0.85092 0.29666 161.42 0.0
C2382 C 0.87543 0.31695 171.34455 0.0
C2383 C 0.87431 0.33418 166.97354 0.0
C2384 C 0.86169 0.33216 159.72801 0.0
C2385 C 0.85013 0.31357 156.97358 0.0
C2386 C 0.89077 0.39394 171.74801 0.0
C2387 C 0.90723 0.39389 176.18157 0.0
C2388 C 0.88017 0.37457 168.71005 0.0
C2389 C 0.88575 0.35466 170.06411 0.0
C2390 C 0.90219 0.35452 174.51798 0.0
C2391 C 0.91283 0.37396 177.53419 0.0
H2392 H 0.22876 1.09222 1.3608 0.0
H2393 H 0.27931 1.11603 11.73593 0.0
H2394 H 0.60952 1.14316 337.24096 0.0
H2395 H 0.28301 1.0832 6.89777 0.0
H2396 H 0.65532 1.1149 330.57323 0.0
H2397 H 0.65246 1.14832 335.46727 0.0
H2398 H 0.24541 1.02761 1.60023 0.0
H2399 H 0.62513 1.0778 337.41622 0.0
C2400 C 0.24064 1.09056 2.55037 0.0
C2401 C 0.25375 1.10667 6.90868 0.0
C2402 C 0.24275 1.07189 -0.20254 0.0
C2403 C 0.258 1.06895 1.31518 0.0
C2404 C 0.27111 1.08514 5.61038 0.0
C2405 C 0.26902 1.1038 8.42179 0.0
C2406 C 0.64809 1.11392 333.12128 0.0
C2407 C 0.64046 1.09378 333.62261 0.0
C2408 C 0.64657 1.13298 335.97142 0.0
C2409 C 0.63724 1.13223 339.2904 0.0
C2410 C 0.62966 1.11208 339.8035 0.0
C2411 C 0.63128 1.09307 337.01565 0.0
H2412 H 0.75148 0.81573 187.84376 0.0
H2413 H 0.71076 0.79632 166.40376 0.0
H2414 H 0.76912 0.81761 182.81105 0.0
H2415 H 0.72843 0.79749 161.41443 0.0
H2416 H 0.76379 0.81852 153.81794 0.0
H2417 H 0.74678 0.8221 158.96372 0.0
H2418 H 0.7778 0.79077 177.79574 0.0
H2419 H 0.7947 0.78712 172.66333 0.0
C2420 C 0.74629 0.81208 182.04614 0.0
C2421 C 0.72975 0.80576 177.52271 0.0
C2422 C 0.7564 0.81295 179.17857 0.0
C2423 C 0.75017 0.80757 171.72754 0.0
C2424 C 0.73358 0.80189 167.16801 0.0
C2425 C 0.72348 0.80098 170.03773 0.0
C2426 C 0.76695 0.8124 159.05384 0.0
C2427 C 0.78057 0.80251 162.82944 0.0
C2428 C 0.75723 0.81447 161.99931 0.0
C2429 C 0.76096 0.80672 168.78202 0.0
C2430 C 0.77475 0.79723 172.61517 0.0
C2431 C 0.78444 0.79514 169.67118 0.0
H2432 H -0.03191 1.10158 1.54908 0.0
H2433 H 0.29602 1.18938 326.99459 0.0
H2434 H -0.04056 1.07127 6.6805 0.0
H2435 H 0.28736 1.1591 332.16204 0.0
H2436 H -0.09636 1.03602 8.53651 0.0
H2437 H -0.0876 1.06768 3.88604 0.0
H2438 H -0.05568 1.03225 1.38453 0.0
H2439 H -0.0645 1.00063 5.97405 0.0
C2440 C 0.33255 1.17957 340.12609 0.0
C2441 C 0.32125 1.18944 334.28458 0.0
C2442 C -0.04949 1.0788 2.22937 0.0
C2443 C 0.31131 1.15462 340.19675 0.0
C2444 C 0.3 1.16477 334.45535 0.0
C2445 C 0.30494 1.18194 331.47968 0.0
C2446 C -0.08743 1.03511 7.01596 0.0
C2447 C -0.0811 1.01596 7.58581 0.0
C2448 C -0.08251 1.0531 4.32734 0.0
C2449 C -0.07098 1.05232 2.29849 0.0
C2450 C -0.06451 1.03327 2.96406 0.0
C2451 C -0.06962 1.01519 5.53521 0.0
H2452 H 0.56932 0.29916 167.25645 0.0
H2453 H 0.55838 0.30054 184.53899 0.0
H2454 H 0.55529 0.32965 162.25572 0.0
H2455 H 0.54456 0.33138 179.59326 0.0
H2456 H 0.50837 0.37371 164.00572 0.0
H2457 H 0.52039 0.3412 168.48962 0.0
H2458 H 0.5609 0.36875 166.54046 0.0
H2459 H 0.54882 0.40098 161.97028 0.0
C2460 C 0.56374 0.30581 169.92932 0.0
C2461 C 0.56494 0.2975 176.28667 0.0
C2462 C 0.55586 0.32339 167.11174 0.0
C2463 C 0.54895 0.33294 170.56973 0.0
C2464 C 0.54972 0.32424 176.80265 0.0
C2465 C 0.55772 0.30674 179.65783 0.0
C2466 C 0.5198 0.37271 164.50991 0.0
C2467 C 0.52769 0.38985 162.65829 0.0
C2468 C 0.52672 0.35422 167.11628 0.0
C2469 C 0.54153 0.35246 167.83138 0.0
C2470 C 0.54938 0.36959 165.96558 0.0
C2471 C 0.54255 0.38811 163.4266 0.0
H2472 H 0.60595 0.74203 16.12257 0.0
H2473 H 0.60805 0.78488 0.59506 0.0
H2474 H 0.5775 0.74237 10.51833 0.0
H2475 H 0.9565 0.86836 335.704 0.0
H2476 H 0.90275 0.83628 322.58009 0.0
H2477 H 0.93177 0.84153 328.49404 0.0
H2478 H 0.5583 0.76663 8.65687 0.0
H2479 H 0.52931 0.76149 2.75176 0.0
C2480 C 0.6004 0.75184 11.59236 0.0
C2481 C 0.60929 0.76346 8.8153 0.0
C2482 C 0.58408 0.752 8.37337 0.0
C2483 C 0.57624 0.76371 2.28372 0.0
C2484 C 0.96222 0.85901 340.34836 0.0
C2485 C 0.6015 0.77553 2.80151 0.0
C2486 C 0.90976 0.83964 328.43641 0.0
C2487 C 0.90231 0.83996 332.60664 0.0
C2488 C 0.92637 0.84266 331.81982 0.0
C2489 C 0.93584 0.84604 339.43538 0.0
C2490 C 0.55129 0.76369 2.78611 0.0
C2491 C 0.91181 0.8441 340.20075 0.0
H2492 H 0.08948 1.05406 170.18589 0.0
H2493 H 0.08557 1.06467 149.31126 0.0
H2494 H 0.10926 1.08662 175.53872 0.0
H2495 H 0.10441 1.09813 154.53882 0.0
H2496 H 0.1532 1.14045 168.1705 0.0
H2497 H 0.13194 1.10944 162.34562 0.0
H2498 H 0.1136 1.12474 176.24488 0.0
H2499 H 0.13534 1.15526 182.25071 0.0
C2500 C 0.09276 1.06338 166.72064 0.0
C2501 C 0.08601 1.05657 159.32487 0.0
C2502 C 0.10393 1.0823 169.77042 0.0
C2503 C 0.10849 1.09504 165.48117 0.0
C2504 C 0.10139 1.08855 158.03795 0.0
C2505 C 0.09037 1.06949 155.00833 0.0
C2506 C 0.14451 1.13724 169.91818 0.0
C2507 C 0.14589 1.15013 175.66012 0.0
C2508 C 0.13228 1.11954 166.56593 0.0
C2509 C 0.12103 1.11453 168.82197 0.0
C2510 C 0.12222 1.12785 174.45921 0.0
C2511 C 0.1346 1.14537 177.87919 0.0
H2512 H 0.768 0.35664 336.95768 0.0
H2513 H 0.71879 0.32876 328.87495 0.0
H2514 H 0.38766 0.30414 1.9398 0.0
H2515 H 0.71558 0.35946 334.82533 0.0
H2516 H 0.71183 0.42936 339.6682 0.0
H2517 H 0.7143 0.3974 334.02507 0.0
H2518 H 0.38424 0.31388 11.77869 0.0
H2519 H 0.38222 0.34653 17.17137 0.0
C2520 C 0.75654 0.35703 336.50551 0.0
C2521 C 0.74366 0.34032 332.49654 0.0
C2522 C 0.75468 0.37468 339.83133 0.0
C2523 C 0.73993 0.37593 339.28426 0.0
C2524 C 0.72704 0.35915 335.27684 0.0
C2525 C 0.72887 0.34155 331.88817 0.0
C2526 C 0.34564 0.3392 1.72007 0.0
C2527 C 0.3583 0.34892 8.46278 0.0
C2528 C 0.72408 0.40411 339.32152 0.0
C2529 C 0.36096 0.31144 2.03232 0.0
C2530 C 0.37341 0.3208 8.86821 0.0
C2531 C 0.37214 0.33937 12.02102 0.0
H2532 H 0.20044 0.6337 169.70275 0.0
H2533 H 0.24006 0.67472 187.59129 0.0
H2534 H 0.21703 0.62917 164.4126 0.0
H2535 H 0.25646 0.67149 182.15035 0.0
H2536 H 0.28663 0.65139 173.6697 0.0
H2537 H 0.27041 0.64987 179.42761 0.0
H2538 H 0.22811 0.6478 158.20771 0.0
H2539 H 0.24438 0.64792 152.5254 0.0
C2540 C 0.21272 0.64181 172.46526 0.0
C2541 C 0.21905 0.65454 179.02444 0.0
C2542 C 0.22221 0.63938 169.42692 0.0
C2543 C 0.23812 0.65007 172.80959 0.0
C2544 C 0.24441 0.66264 179.44164 0.0
C2545 C 0.23501 0.66466 182.54932 0.0
C2546 C 0.27383 0.65036 170.27836 0.0
C2547 C 0.26667 0.64978 162.68684 0.0
C2548 C 0.26452 0.64967 173.55657 0.0
C2549 C 0.2479 0.64891 169.3065 0.0
C2550 C 0.24079 0.64799 161.67321 0.0
C2551 C 0.25008 0.6482 158.39895 0.0
H2552 H 1.05004 0.43864 327.54305 0.0
H2553 H 1.09522 0.41725 334.82057 0.0
H2554 H 1.0425 0.409 333.23191 0.0
H2555 H 0.71058 0.30419 -0.2302 0.0
H2556 H 0.68177 0.24137 1.94701 0.0
H2557 H 1.06658 0.35325 336.74424 0.0
H2558 H 0.67585 0.317 5.63908 0.0
H2559 H 0.66862 0.28882 11.82842 0.0
C2560 C 1.05827 0.42744 330.29338 0.0
C2561 C 1.0732 0.43019 330.75231 0.0
C2562 C 1.05402 0.41064 333.59677 0.0
C2563 C 1.06456 0.39614 337.35587 0.0
C2564 C 1.07933 0.39853 337.66574 0.0
C2565 C 1.08367 0.41552 334.43051 0.0
C2566 C 0.68063 0.25785 2.88887 0.0
C2567 C 0.67453 0.26279 7.36114 0.0
C2568 C 1.06209 0.3575 340.22244 0.0
C2569 C 0.68315 0.29553 0.30815 0.0
C2570 C 0.67714 0.30051 4.78736 0.0
C2571 C 0.67295 0.28435 8.30802 0.0
H2572 H 0.42854 1.15397 173.96354 0.0
H2573 H 0.42939 1.13768 154.4655 0.0
H2574 H 0.44478 1.12629 180.09759 0.0
H2575 H 0.44538 1.10967 160.53199 0.0
H2576 H 0.48417 1.07165 175.30258 0.0
H2577 H 0.47103 1.10273 170.03969 0.0
H2578 H 0.44096 1.08744 179.41105 0.0
H2579 H 0.45421 1.05668 184.72341 0.0
C2580 C 0.43219 1.14441 170.99459 0.0
C2581 C 0.42763 1.14782 163.73097 0.0
C2582 C 0.44146 1.12854 174.49488 0.0
C2583 C 0.44626 1.11565 170.78639 0.0
C2584 C 0.44205 1.1195 163.57519 0.0
C2585 C 0.43286 1.13548 160.08992 0.0
C2586 C 0.47476 1.075 176.23384 0.0
C2587 C 0.47021 1.06176 180.42063 0.0
C2588 C 0.46723 1.09276 173.2173 0.0
C2589 C 0.45494 1.09757 174.30296 0.0
C2590 C 0.45057 1.08445 178.57747 0.0
C2591 C 0.45814 1.06679 181.61524 0.0
H2592 H 0.24422 0.55439 30.0319 0.0
H2593 H 0.2089 0.52982 7.94375 0.0
H2594 H 0.26367 0.53632 29.22501 0.0
H2595 H 0.22872 0.51222 7.0679 0.0
H2596 H 0.26715 0.46792 11.8305 0.0
H2597 H 0.24582 0.48293 12.23374 0.0
H2598 H 0.27789 0.54315 22.42943 0.0
H2599 H 0.29918 0.5281 22.2217 0.0
C2600 C 0.24051 0.54484 25.03464 0.0
C2601 C 0.22498 0.54354 19.05076 0.0
C2602 C 0.25174 0.53474 24.54263 0.0
C2603 C 0.24777 0.52313 18.05141 0.0
C2604 C 0.2321 0.52107 12.14071 0.0
C2605 C 0.22081 0.53126 12.62673 0.0
C2606 C 0.26959 0.48436 14.14947 0.0
C2607 C 0.28484 0.49683 16.9913 0.0
C2608 C 0.25737 0.49298 14.33335 0.0
C2609 C 0.26026 0.51412 17.42798 0.0
C2610 C 0.27539 0.52669 20.11137 0.0
C2611 C 0.28753 0.51816 19.90109 0.0
H2612 H 0.11019 0.56569 194.79396 0.0
H2613 H 0.08289 0.59645 175.11192 0.0
H2614 H 0.08567 0.54438 193.11771 0.0
H2615 H 0.05844 0.57444 173.26314 0.0
H2616 H 1.02066 0.56131 180.50813 0.0
H2617 H 1.04375 0.5762 179.58519 0.0
H2618 H 1.06257 0.51649 185.98194 0.0
H2619 H 1.03932 0.50152 186.92768 0.0
C2620 C 0.09898 0.56761 190.04103 0.0
C2621 C 0.09847 0.583 185.15095 0.0
C2622 C 0.08493 0.55521 189.0292 0.0
C2623 C 0.07008 0.55789 183.09534 0.0
C2624 C 0.06968 0.57225 177.94993 0.0
C2625 C 0.08372 0.58469 178.96918 0.0
C2626 C 1.0295 0.55113 181.54278 0.0
C2627 C 1.02819 0.53027 183.82595 0.0
C2628 C 1.04276 0.55967 181.0037 0.0
C2629 C 1.05503 0.54755 182.72807 0.0
C2630 C 1.05341 0.52633 184.7133 0.0
C2631 C 1.04012 0.51777 185.25987 0.0
H2632 H 0.23804 1.32336 19.97834 0.0
H2633 H 0.26411 1.31244 9.15224 0.0
H2634 H 0.2424 1.36188 18.82798 0.0
H2635 H 0.26896 1.35153 8.24913 0.0
H2636 H 0.66544 0.05455 18.52106 0.0
H2637 H 0.66052 0.01486 17.51738 0.0
H2638 H 0.61017 0.01539 8.3861 0.0
H2639 H 0.61502 0.05477 9.49126 0.0
C2640 C 0.24451 1.32909 17.25246 0.0
C2641 C 0.25051 1.31469 14.5595 0.0
C2642 C 0.24706 1.35122 16.62652 0.0
C2643 C 0.25585 1.35959 13.37748 0.0
C2644 C 0.26213 1.3454 10.7773 0.0
C2645 C 0.2594 1.32309 11.324 0.0
C2646 C 0.65331 0.04613 16.21831 0.0
C2647 C 0.64063 0.05776 14.13136 0.0
C2648 C 0.6505 0.02349 15.58984 0.0
C2649 C 0.635 0.01217 12.93761 0.0
C2650 C 0.62225 0.02378 10.50716 0.0
C2651 C 0.62503 0.04633 11.08454 0.0
H2652 H 0.64117 0.90715 191.15142 0.0
H2653 H 0.60272 0.85416 178.9968 0.0
H2654 H 0.62191 0.92978 190.13633 0.0
H2655 H 0.58358 0.87636 178.12821 0.0
H2656 H 0.586 0.94621 196.93047 0.0
H2657 H 0.60595 0.93089 195.588 0.0
H2658 H 0.57021 0.90632 173.54394 0.0
H2659 H 0.55016 0.92112 175.02411 0.0
C2660 C 0.62859 0.90044 188.20361 0.0
C2661 C 0.62344 0.87888 185.18293 0.0
C2662 C 0.61756 0.91335 187.6378 0.0
C2663 C 0.60119 0.90487 184.10285 0.0
C2664 C 0.59604 0.88361 180.78671 0.0
C2665 C 0.60703 0.8708 181.29821 0.0
C2666 C 0.58252 0.93795 191.74945 0.0
C2667 C 0.56654 0.93462 186.10829 0.0
C2668 C 0.59396 0.92921 190.95816 0.0
C2669 C 0.58967 0.91714 184.4772 0.0
C2670 C 0.57385 0.9151 178.66394 0.0
C2671 C 0.56238 0.92362 179.49131 0.0
H2672 H 0.75866 0.79717 13.45416 0.0
H2673 H 0.73371 0.85071 11.58964 0.0
H2674 H 0.77702 0.82028 10.92315 0.0
H2675 H 0.75282 0.87418 9.3849 0.0
H2676 H -0.19202 0.90623 18.22273 0.0
H2677 H -0.21637 0.88748 17.52289 0.0
H2678 H -0.22291 0.84192 0.65048 0.0
H2679 H -0.19876 0.86086 1.22213 0.0
C2680 C 0.75685 0.81374 12.36898 0.0
C2681 C 0.74457 0.82196 12.69228 0.0
C2682 C 0.76745 0.82702 10.93812 0.0
C2683 C 0.76623 0.84894 9.90184 0.0
C2684 C 0.75398 0.85729 10.17045 0.0
C2685 C 0.74315 0.84387 11.48833 0.0
C2686 C -0.19895 0.89269 14.18193 0.0
C2687 C -0.19331 0.88476 9.87246 0.0
C2688 C -0.21288 0.88195 13.79263 0.0
C2689 C -0.22132 0.86309 9.11684 0.0
C2690 C -0.21644 0.85625 4.38174 0.0
C2691 C -0.20261 0.86705 4.73039 0.0
H2692 H 0.5662 0.09521 177.82963 0.0
H2693 H 0.61133 0.09334 197.33996 0.0
H2694 H 0.55888 0.05584 177.56857 0.0
H2695 H 0.60398 0.05433 197.15208 0.0
H2696 H 0.204 1.35997 198.53486 0.0
H2697 H 0.20577 1.39926 198.25088 0.0
H2698 H 0.19524 1.39383 175.99559 0.0
H2699 H 0.19353 1.35445 176.27783 0.0
C2700 C 0.57444 0.08637 182.07703 0.0
C2701 C 0.58934 0.09712 187.57713 0.0
C2702 C 0.57029 0.06397 181.92294 0.0
C2703 C 0.58084 0.0522 187.36814 0.0
C2704 C 0.59557 0.0631 192.94276 0.0
C2705 C 0.59983 0.08533 193.01587 0.0
C2706 C 0.20167 1.36712 193.52703 0.0
C2707 C 0.19872 1.35425 187.4394 0.0
C2708 C 0.20277 1.38956 193.38279 0.0
C2709 C 0.20073 1.39947 187.11854 0.0
C2710 C 0.19678 1.38651 180.87442 0.0
C2711 C 0.1959 1.36407 181.05124 0.0
H2712 H 0.7117 0.9232 327.04987 0.0
H2713 H 0.73634 0.98701 327.77869 0.0
H2714 H 0.73386 0.90738 328.1376 0.0
H2715 H 0.75833 0.97077 328.55324 0.0
H2716 H 0.77674 0.92393 317.57081 0.0
H2717 H 0.75982 0.94535 319.40646 0.0
H2718 H 0.76336 0.9067 336.80439 0.0
H2719 H 0.78011 0.88517 334.93254 0.0
C2720 C 0.72196 0.93397 327.60447 0.0
C2721 C 0.72216 0.95646 327.33432 0.0
C2722 C 0.73466 0.92483 328.201 0.0
C2723 C 0.7478 0.93787 328.44394 0.0
C2724 C 0.74827 0.96037 328.33461 0.0
C2725 C 0.73563 0.96961 327.84566 0.0
C2726 C 0.77409 0.92026 321.8567 0.0
C2727 C 0.7796 0.90278 326.06218 0.0
C2728 C 0.76455 0.93262 322.94978 0.0
C2729 C 0.76022 0.92755 328.21288 0.0
C2730 C 0.76645 0.91083 332.67935 0.0
C2731 C 0.7761 0.89862 331.63655 0.0
H2732 H 0.91994 0.84554 162.96257 0.0
H2733 H 0.88826 0.88751 148.64803 0.0
H2734 H 0.94246 0.86894 163.50237 0.0
H2735 H 0.91097 0.91186 149.64988 0.0
H2736 H -0.05009 0.92672 143.33855 0.0
H2737 H -0.07239 0.91065 144.69242 0.0
H2738 H -0.03975 0.9019 167.2393 0.0
H2739 H -0.01734 0.91732 165.74196 0.0
C2740 C 0.91779 0.85994 160.01366 0.0
C2741 C 0.90221 0.86433 155.63224 0.0
C2742 C 0.93078 0.87361 160.4252 0.0
C2743 C 0.92856 0.89223 156.54843 0.0
C2744 C 0.9131 0.89742 152.58038 0.0
C2745 C 0.90007 0.88358 152.08894 0.0
C2746 C -0.04772 0.92177 148.6219 0.0
C2747 C -0.03201 0.9231 154.42039 0.0
C2748 C -0.06052 0.91262 149.42125 0.0
C2749 C -0.05791 0.9048 156.07031 0.0
C2750 C -0.04219 0.90732 161.99807 0.0
C2751 C -0.02936 0.91622 161.16233 0.0
H2752 H 0.71696 0.12668 310.93722 0.0
H2753 H 0.74479 0.13852 334.31484 0.0
H2754 H 0.71173 0.08826 312.08595 0.0
H2755 H 0.73895 0.10002 335.55401 0.0
H2756 H 0.37004 1.40058 334.01045 0.0
H2757 H 0.37087 1.43942 333.99298 0.0
H2758 H 0.32319 1.43025 315.26168 0.0
H2759 H 0.32298 1.39151 314.85947 0.0
C2760 C 0.72155 0.12106 316.33541 0.0
C2761 C 0.73135 0.13546 322.53543 0.0
C2762 C 0.7185 0.09901 317.01443 0.0
C2763 C 0.72498 0.09087 323.92451 0.0
C2764 C 0.73405 0.10558 330.14401 0.0
C2765 C 0.73733 0.12763 329.45131 0.0
C2766 C 0.35975 1.40681 329.85588 0.0
C2767 C 0.34662 1.39281 324.33081 0.0
C2768 C 0.3601 1.42918 329.92664 0.0
C2769 C 0.34718 1.43813 324.55347 0.0
C2770 C 0.33354 1.42402 319.37493 0.0
C2771 C 0.33331 1.40167 319.21934 0.0
H2772 H 0.38527 0.58762 163.27369 0.0
H2773 H 0.35351 0.55423 141.96461 0.0
H2774 H 0.40509 0.56506 165.26222 0.0
H2775 H 0.37372 0.53251 143.79439 0.0
H2776 H 0.4102 0.4891 149.8154 0.0
H2777 H 0.38934 0.50512 150.24855 0.0
H2778 H 0.42246 0.56464 160.42391 0.0
H2779 H 0.44319 0.54862 160.05693 0.0
C2780 C 0.38238 0.57523 159.05441 0.0
C2781 C 0.36784 0.57291 152.42022 0.0
C2782 C 0.39385 0.56246 160.16566 0.0
C2783 C 0.3911 0.54718 154.65384 0.0
C2784 C 0.37622 0.54403 148.17882 0.0
C2785 C 0.3647 0.55671 147.08416 0.0
C2786 C 0.41303 0.50552 152.22339 0.0
C2787 C 0.42831 0.51764 154.86994 0.0
C2788 C 0.40109 0.5147 152.46166 0.0
C2789 C 0.40419 0.53621 155.32739 0.0
C2790 C 0.4197 0.54792 158.28434 0.0
C2791 C 0.43162 0.53874 158.06977 0.0
H2792 H 0.24954 0.63311 333.52509 0.0
H2793 H 0.24438 0.59032 316.27179 0.0
H2794 H 0.2281 0.60953 333.88244 0.0
H2795 H 0.22364 0.56595 316.96641 0.0
H2796 H 1.17132 0.55187 312.02722 0.0
H2797 H 1.19655 0.56762 313.1084 0.0
H2798 H 1.21805 0.57605 336.49993 0.0
H2799 H 1.19251 0.56075 335.35355 0.0
C2800 C 0.244 0.61849 329.88419 0.0
C2801 C 0.24848 0.61386 324.77276 0.0
C2802 C 0.23185 0.60474 330.16763 0.0
C2803 C 0.224 0.5859 325.39524 0.0
C2804 C 0.22923 0.58053 320.62482 0.0
C2805 C 0.24128 0.5944 320.29293 0.0
C2806 C 1.18153 0.55662 317.41113 0.0
C2807 C 1.17993 0.55528 323.59968 0.0
C2808 C 1.19605 0.56561 318.04483 0.0
C2809 C 1.20935 0.5733 324.89391 0.0
C2810 C 1.20797 0.57071 331.13039 0.0
C2811 C 1.19338 0.56189 330.48433 0.0
H2812 H 0.41291 1.34842 162.18752 0.0
H2813 H 0.41336 1.34868 141.98493 0.0
H2814 H 0.42024 1.38761 163.93399 0.0
H2815 H 0.41996 1.38806 143.5714 0.0
H2816 H 0.81646 0.08813 150.2708 0.0
H2817 H 0.81585 0.04899 150.68378 0.0
H2818 H 0.78153 0.045 157.87767 0.0
H2819 H 0.78209 0.0838 157.45161 0.0
C2820 C 0.41483 1.35678 158.17448 0.0
C2821 C 0.4124 1.34541 151.90766 0.0
C2822 C 0.41886 1.37929 159.13964 0.0
C2823 C 0.42047 1.39097 153.84842 0.0
C2824 C 0.41888 1.37954 147.77009 0.0
C2825 C 0.41489 1.35699 146.81315 0.0
C2826 C 0.80888 0.07887 151.98474 0.0
C2827 C 0.79932 0.08908 153.82314 0.0
C2828 C 0.80853 0.05648 152.22303 0.0
C2829 C 0.79864 0.04389 154.31242 0.0
C2830 C 0.78951 0.05425 156.37618 0.0
C2831 C 0.78984 0.07655 156.1329 0.0
H2832 H 0.62986 0.87657 334.43043 0.0
H2833 H 0.59017 0.9076 330.80285 0.0
H2834 H 0.62111 0.8472 339.75263 0.0
H2835 H 0.581 0.87771 335.82634 0.0
H2836 H 0.20319 0.75013 12.1079 0.0
H2837 H 0.21161 0.77952 6.65241 0.0
H2838 H 0.59999 0.81672 336.36027 0.0
H2839 H 0.21458 0.70397 1.06771 0.0
C2840 C 0.61926 0.87712 334.7666 0.0
C2841 C 0.61076 0.89448 332.22 0.0
C2842 C 0.61413 0.86014 337.73515 0.0
C2843 C 0.60035 0.8601 338.2138 0.0
C2844 C 0.59176 0.87737 335.61453 0.0
C2845 C 0.59691 0.89438 332.65313 0.0
C2846 C 0.20735 0.74625 8.4613 0.0
C2847 C 0.20826 0.72475 7.03473 0.0
C2848 C 0.21215 0.76308 5.326 0.0
C2849 C 0.21793 0.75877 0.6771 0.0
C2850 C 0.59585 0.82064 340.01148 0.0
C2851 C 0.21398 0.72042 2.36856 0.0
H2852 H 0.89804 0.58519 182.69022 0.0
H2853 H 0.92434 0.60325 171.6555 0.0
H2854 H 0.88234 0.61402 177.29616 0.0
H2855 H 0.90844 0.6317 166.18131 0.0
H2856 H 0.86524 0.66377 151.61929 0.0
H2857 H 0.88009 0.63434 157.09115 0.0
H2858 H 0.88644 0.65476 177.88932 0.0
H2859 H 0.8719 0.68456 172.47931 0.0
C2860 C 0.90055 0.59538 179.1599 0.0
C2861 C 0.91241 0.59183 177.58134 0.0
C2862 C 0.89153 0.61184 176.06012 0.0
C2863 C 0.8941 0.62499 171.28418 0.0
C2864 C 0.906 0.62155 169.74044 0.0
C2865 C 0.91509 0.60522 172.87007 0.0
C2866 C 0.86988 0.66211 157.37086 0.0
C2867 C 0.86745 0.67666 161.6131 0.0
C2868 C 0.87836 0.64522 160.49629 0.0
C2869 C 0.88449 0.64235 167.92215 0.0
C2870 C 0.88172 0.65648 172.13435 0.0
C2871 C 0.87334 0.67351 169.02133 0.0
H2872 H 0.44376 1.3055 328.61654 0.0
H2873 H 0.4364 1.23828 332.48404 0.0
H2874 H 0.47234 1.30496 334.07223 0.0
H2875 H 0.46499 1.23772 337.92468 0.0
H2876 H 0.14201 1.17344 14.46325 0.0
H2877 H 0.11324 1.17242 8.57563 0.0
H2878 H 0.49041 1.28648 331.21889 0.0
H2879 H 0.51904 1.28689 336.94217 0.0
C2880 C 0.44828 1.29062 330.63006 0.0
C2881 C 0.43791 1.27193 330.13543 0.0
C2882 C 0.46458 1.29027 333.70162 0.0
C2883 C 0.47085 1.2713 336.42185 0.0
C2884 C 0.46047 1.25259 335.91157 0.0
C2885 C 0.44413 1.25286 332.75065 0.0
C2886 C 0.13589 1.17965 9.16555 0.0
C2887 C 0.14435 1.18863 5.80509 0.0
C2888 C 0.11942 1.17912 5.81101 0.0
C2889 C 0.4882 1.27116 339.85899 0.0
C2890 C 0.49658 1.27998 336.46873 0.0
C2891 C 0.513 1.28029 339.77424 0.0
H2892 H 0.57294 0.57642 171.85196 0.0
H2893 H 0.54651 0.60786 152.23182 0.0
H2894 H 0.59321 0.60877 177.03554 0.0
H2895 H 0.56686 0.64014 157.36636 0.0
H2896 H 0.59595 0.70182 172.08307 0.0
H2897 H 0.57634 0.66899 166.75832 0.0
H2898 H 0.61416 0.63049 175.90097 0.0
H2899 H 0.63376 0.66334 181.5328 0.0
C2900 C 0.57158 0.59015 168.61058 0.0
C2901 C 0.5581 0.58964 161.64694 0.0
C2902 C 0.5832 0.60868 171.57493 0.0
C2903 C 0.58164 0.62709 167.62828 0.0
C2904 C 0.56829 0.6264 160.60738 0.0
C2905 C 0.55664 0.6079 157.65865 0.0
C2906 C 0.60009 0.68635 173.02962 0.0
C2907 C 0.61643 0.68523 177.27088 0.0
C2908 C 0.58885 0.66753 169.88826 0.0
C2909 C 0.59367 0.64709 170.88432 0.0
C2910 C 0.61003 0.64595 175.08662 0.0
C2911 C 0.62128 0.6648 178.24589 0.0
H2912 H 0.28789 0.78666 340.21219 0.0
H2913 H 0.29278 0.82559 324.45424 0.0
H2914 H -0.09153 0.73534 5.08459 0.0
H2915 H 0.29086 0.85771 330.26136 0.0
H2916 H -0.07233 0.82929 7.02689 0.0
H2917 H -0.06999 0.79683 1.48711 0.0
H2918 H -0.11071 0.76178 1.88549 0.0
H2919 H -0.11294 0.79416 7.50025 0.0
C2920 C 0.28833 0.80199 337.90913 0.0
C2921 C 0.29052 0.80351 331.86683 0.0
C2922 C -0.09004 0.73697 0.38647 0.0
C2923 C 0.2881 0.8407 338.52371 0.0
C2924 C 0.29026 0.84227 332.48664 0.0
C2925 C 0.29139 0.82387 329.17377 0.0
C2926 C -0.08068 0.81459 5.98827 0.0
C2927 C -0.09282 0.81423 7.68457 0.0
C2928 C -0.07943 0.7961 2.75984 0.0
C2929 C -0.0902 0.77683 1.23777 0.0
C2930 C -0.10219 0.77638 3.038 0.0
C2931 C -0.10354 0.79493 6.19699 0.0
H2932 H 0.67173 0.24825 172.24998 0.0
H2933 H 0.69322 0.19803 186.06103 0.0
H2934 H 0.68878 0.24697 167.0194 0.0
H2935 H 0.71046 0.19693 180.91974 0.0
H2936 H 0.72433 0.18262 164.03718 0.0
H2937 H 0.70822 0.18524 169.64714 0.0
H2938 H 0.71598 0.25492 169.62743 0.0
H2939 H 0.73148 0.25221 163.67241 0.0
C2940 C 0.68027 0.23716 174.24049 0.0
C2941 C 0.68109 0.22317 179.53897 0.0
C2942 C 0.69006 0.23644 171.25293 0.0
C2943 C 0.70094 0.22178 173.52447 0.0
C2944 C 0.70199 0.20812 178.94418 0.0
C2945 C 0.69214 0.20877 181.9016 0.0
C2946 C 0.72245 0.19849 165.14949 0.0
C2947 C 0.72912 0.21719 163.36231 0.0
C2948 C 0.7134 0.20002 168.46684 0.0
C2949 C 0.71084 0.2203 170.11328 0.0
C2950 C 0.71759 0.23903 168.37002 0.0
C2951 C 0.72663 0.2375 165.0302 0.0
H2952 H 0.76597 0.60638 339.32764 0.0
H2953 H 0.41219 0.56569 18.24229 0.0
H2954 H 0.77458 0.63385 333.34392 0.0
H2955 H 0.4204 0.59337 12.19992 0.0
H2956 H 0.44289 0.63305 0.92456 0.0
H2957 H 0.43756 0.60225 6.86941 0.0
H2958 H 0.76714 0.66918 329.06929 0.0
H2959 H 0.77261 0.69956 323.06027 0.0
C2960 C 0.396 0.53812 1.61566 0.0
C2961 C 0.39978 0.54222 8.8477 0.0
C2962 C 0.7779 0.63733 338.96045 0.0
C2963 C 0.40953 0.57411 1.88932 0.0
C2964 C 0.41379 0.57792 9.20145 0.0
C2965 C 0.40894 0.56216 12.63814 0.0
C2966 C 0.80852 0.70603 338.85683 0.0
C2967 C 0.79669 0.71049 331.93912 0.0
C2968 C 0.42831 0.60512 1.49291 0.0
C2969 C 0.79047 0.67505 338.84622 0.0
C2970 C 0.77883 0.67914 331.83628 0.0
C2971 C 0.7819 0.69668 328.42735 0.0
H2972 H 0.10092 0.8684 157.31143 0.0
H2973 H 0.07252 0.84908 167.26976 0.0
H2974 H 0.11744 0.84091 163.4231 0.0
H2975 H 0.08846 0.82104 173.06297 0.0
H2976 H 0.12813 0.78568 187.87997 0.0
H2977 H 0.11444 0.81612 182.48226 0.0
H2978 H 0.11574 0.80195 162.93157 0.0
H2979 H 0.12973 0.7717 168.41726 0.0
C2980 C 0.09823 0.85834 160.81556 0.0
C2981 C 0.08535 0.86089 161.77542 0.0
C2982 C 0.10759 0.84243 164.25443 0.0
C2983 C 0.10429 0.82875 168.73356 0.0
C2984 C 0.09149 0.83146 169.73225 0.0
C2985 C 0.08219 0.84736 166.3183 0.0
C2986 C 0.12551 0.78912 182.43422 0.0
C2987 C 0.12987 0.77622 178.54422 0.0
C2988 C 0.11764 0.80652 179.3317 0.0
C2989 C 0.11384 0.81135 172.2405 0.0
C2990 C 0.11863 0.79883 168.43074 0.0
C2991 C 0.12661 0.78147 171.56175 0.0
H2992 H 0.55425 0.1716 17.33119 0.0
H2993 H 0.93148 0.2835 339.6734 0.0
H2994 H 0.52552 0.17148 11.51688 0.0
H2995 H 0.90273 0.2834 333.85746 0.0
H2996 H 0.84946 0.24941 322.78609 0.0
H2997 H 0.8785 0.25323 328.72392 0.0
H2998 H 0.50589 0.19842 7.47352 0.0
H2999 H 0.47681 0.19458 1.53102 0.0
C3000 C 0.54812 0.17792 12.04721 0.0
C3001 C 0.55649 0.1858 8.54016 0.0
C3002 C 0.53174 0.178 8.75044 0.0
C3003 C 0.52338 0.1857 1.84195 0.0
C3004 C 0.90889 0.27725 339.168 0.0
C3005 C 0.54821 0.19405 1.71839 0.0
C3006 C 0.85667 0.25655 328.34367 0.0
C3007 C 0.84948 0.26336 332.10841 0.0
C3008 C 0.87326 0.25889 331.71549 0.0
C3009 C 0.88296 0.26782 338.94813 0.0
C3010 C 0.49867 0.19139 1.904 0.0
C3011 C 0.85918 0.27273 339.28866 0.0
H3012 H 0.45408 0.83924 180.63148 0.0
H3013 H 0.41771 0.87891 175.43565 0.0
H3014 H 0.43364 0.80751 174.89217 0.0
H3015 H 0.39716 0.8473 169.26074 0.0
H3016 H 0.36552 0.78194 165.87008 0.0
H3017 H 0.38555 0.81443 171.54869 0.0
H3018 H 0.41355 0.79099 163.33365 0.0
H3019 H 0.39374 0.75827 157.88173 0.0
C3020 C 0.44172 0.84122 178.27709 0.0
C3021 C 0.43758 0.86166 178.5446 0.0
C3022 C 0.42995 0.82303 174.8697 0.0
C3023 C 0.41371 0.8248 171.56757 0.0
C3024 C 0.40955 0.84526 171.81078 0.0
C3025 C 0.42134 0.86346 175.27456 0.0
C3026 C 0.37593 0.78387 165.25554 0.0
C3027 C 0.37816 0.76757 161.48255 0.0
C3028 C 0.38738 0.8025 168.483 0.0
C3029 C 0.40123 0.80533 167.93817 0.0
C3030 C 0.40323 0.78917 164.01004 0.0
C3031 C 0.39187 0.77045 160.85879 0.0
H3032 H 1.06903 0.64492 322.82427 0.0
H3033 H 0.70326 0.52518 0.81267 0.0
H3034 H 1.06542 0.67505 328.81113 0.0
H3035 H 0.69923 0.55513 6.72818 0.0
H3036 H 0.71314 0.62475 17.97252 0.0
H3037 H 0.7137 0.59206 11.935 0.0
H3038 H 1.04806 0.68579 333.15197 0.0
H3039 H 1.04773 0.71883 339.1449 0.0
C3040 C 1.07065 0.64334 328.21437 0.0
C3041 C 1.07508 0.62445 331.76336 0.0
C3042 C 1.06841 0.66049 331.60963 0.0
C3043 C 1.07062 0.65917 338.64197 0.0
C3044 C 0.69758 0.55668 1.33243 0.0
C3045 C 1.07685 0.62287 338.71257 0.0
C3046 C 0.70384 0.61999 12.38683 0.0
C3047 C 0.6919 0.63272 8.61972 0.0
C3048 C 0.70407 0.60116 8.9525 0.0
C3049 C 0.6924 0.59469 1.66378 0.0
C3050 C 1.0573 0.69049 338.75122 0.0
C3051 C 0.67992 0.62587 1.40945 0.0
H3052 H 0.33296 1.25588 168.93545 0.0
H3053 H 0.30131 1.19878 155.32788 0.0
H3054 H 0.31704 1.25656 174.75043 0.0
H3055 H 0.28556 1.1993 161.26945 0.0
H3056 H 0.27256 1.19566 179.45799 0.0
H3057 H 0.28824 1.19437 173.50559 0.0
H3058 H 0.28983 1.2631 171.3194 0.0
H3059 H 0.27395 1.2644 177.12621 0.0
C3060 C 0.32254 1.24357 167.13423 0.0
C3061 C 0.31838 1.22734 161.62779 0.0
C3062 C 0.31344 1.24394 170.48814 0.0
C3063 C 0.30004 1.22801 168.45433 0.0
C3064 C 0.29594 1.21165 163.00613 0.0
C3065 C 0.30498 1.21135 159.61265 0.0
C3066 C 0.27612 1.21046 177.64513 0.0
C3067 C 0.27205 1.23016 178.80925 0.0
C3068 C 0.28511 1.20971 174.24471 0.0
C3069 C 0.29031 1.22865 171.97553 0.0
C3070 C 0.28621 1.2483 173.11704 0.0
C3071 C 0.27715 1.24904 176.4689 0.0
loop_
_geom_bond_atom_site_label_1
_geom_bond_atom_site_label_2
_geom_bond_distance
_geom_bond_site_symmetry_2
_ccdc_geom_bond_type
Li0 N17 1.990 . S
Li0 O60 1.956 . S
Li0 O61 1.970 . S
Li0 O62 1.961 . S
Li1 N25 1.990 . S
Li1 O60 1.970 . S
Li1 O61 1.956 . S
Li1 O63 1.961 . S
Li2 N47 1.990 . S
Li2 O60 1.961 . S
Li2 O62 1.956 . S
Li2 O63 1.970 . S
Li3 N53 1.990 . S
Li3 O61 1.961 . S
Li3 O62 1.970 . S
Li3 O63 1.956 . S
C4 C6 1.348 . S
C4 C7 1.356 . S
C4 O60 1.325 . S
N5 C8 1.314 . S
N5 C9 1.279 . S
C6 C4 1.348 . S
C6 C8 1.353 . S
C6 H64 0.929 . S
C7 C4 1.356 . S
C7 C9 1.358 . S
C7 H65 0.930 . S
C8 N5 1.314 . S
C8 C6 1.353 . S
C8 H66 0.930 . S
C9 N5 1.279 . S
C9 C7 1.358 . S
C9 H67 0.930 . S
C10 C13 1.348 . S
C10 C14 1.356 . S
C10 O61 1.325 . S
C11 N12 1.279 . S
C11 C14 1.358 . S
C11 H68 0.930 . S
N12 C11 1.279 . S
N12 C15 1.314 . S
C13 C10 1.348 . S
C13 C15 1.353 . S
C13 H69 0.929 . S
C14 C10 1.356 . S
C14 C11 1.358 . S
C14 H70 0.930 . S
C15 N12 1.314 . S
C15 C13 1.353 . S
C15 H71 0.930 . S
C16 N17 1.314 . S
C16 C21 1.353 . S
C16 H22 0.930 . S
N17 Li0 1.990 . S
N17 C16 1.314 . S
N17 C19 1.279 . S
C18 C19 1.358 . S
C18 C20 1.356 . S
C18 H72 0.930 . S
C19 N17 1.279 . S
C19 C18 1.358 . S
C19 H23 0.930 . S
C20 C18 1.356 . S
C20 C21 1.348 . S
C21 C16 1.353 . S
C21 C20 1.348 . S
C21 H73 0.929 . S
H22 C16 0.930 . S
H23 C19 0.930 . S
C24 N25 1.314 . S
C24 C26 1.353 . S
C24 H30 0.930 . S
N25 Li1 1.990 . S
N25 C24 1.314 . S
N25 C28 1.279 . S
C26 C24 1.353 . S
C26 C29 1.348 . S
C26 H74 0.929 . S
C27 C28 1.358 . S
C27 C29 1.356 . S
C27 H75 0.930 . S
C28 N25 1.279 . S
C28 C27 1.358 . S
C28 H31 0.930 . S
C29 C26 1.348 . S
C29 C27 1.356 . S
H30 C24 0.930 . S
H31 C28 0.930 . S
C32 C34 1.348 . S
C32 C35 1.356 . S
C32 O62 1.325 . S
N33 C36 1.314 . S
N33 C37 1.279 . S
C34 C32 1.348 . S
C34 C36 1.353 . S
C34 H76 0.929 . S
C35 C32 1.356 . S
C35 C37 1.358 . S
C35 H77 0.930 . S
C36 N33 1.314 . S
C36 C34 1.353 . S
C36 H78 0.930 . S
C37 N33 1.279 . S
C37 C35 1.358 . S
C37 H79 0.930 . S
C38 C39 1.348 . S
C38 C40 1.356 . S
C38 O63 1.325 . S
C39 C38 1.348 . S
C39 C41 1.353 1_554 S
C39 H80 0.929 . S
C40 C38 1.356 . S
C40 C42 1.358 1_554 S
C40 H81 0.930 . S
C41 C39 1.353 1_556 S
C41 N43 1.314 . S
C41 H82 0.930 . S
C42 C40 1.358 1_556 S
C42 N43 1.279 . S
C42 H83 0.930 . S
N43 C41 1.314 . S
N43 C42 1.279 . S
C44 C46 1.353 . S
C44 N47 1.314 . S
C44 H50 0.930 . S
C45 N47 1.279 . S
C45 C48 1.358 . S
C45 H51 0.930 . S
C46 C44 1.353 . S
C46 C49 1.348 . S
C46 H84 0.929 . S
N47 Li2 1.990 . S
N47 C44 1.314 . S
N47 C45 1.279 . S
C48 C45 1.358 . S
C48 C49 1.356 . S
C48 H85 0.930 . S
C49 C46 1.348 . S
C49 C48 1.356 . S
H50 C44 0.930 . S
H51 C45 0.930 . S
C52 N53 1.314 . S
C52 C54 1.353 . S
C52 H58 0.930 . S
N53 Li3 1.990 . S
N53 C52 1.314 . S
N53 C56 1.279 . S
C54 C52 1.353 . S
C54 C57 1.348 . S
C54 H86 0.929 . S
C55 C56 1.358 . S
C55 C57 1.356 . S
C55 H87 0.930 1_554 S
C56 N53 1.279 . S
C56 C55 1.358 . S
C56 H59 0.930 . S
C57 C54 1.348 . S
C57 C55 1.356 . S
H58 C52 0.930 . S
H59 C56 0.930 . S
O60 Li0 1.956 . S
O60 Li1 1.970 . S
O60 Li2 1.961 . S
O60 C4 1.325 . S
O61 Li0 1.970 . S
O61 Li1 1.956 . S
O61 Li3 1.961 . S
O61 C10 1.325 . S
O62 Li0 1.961 . S
O62 Li2 1.956 . S
O62 Li3 1.970 . S
O62 C32 1.325 . S
O63 Li1 1.961 . S
O63 Li2 1.970 . S
O63 Li3 1.956 . S
O63 C38 1.325 . S
H64 C6 0.929 . S
H65 C7 0.930 . S
H66 C8 0.930 . S
H67 C9 0.930 . S
H68 C11 0.930 . S
H69 C13 0.929 . S
H70 C14 0.930 . S
H71 C15 0.930 . S
H72 C18 0.930 . S
H73 C21 0.929 . S
H74 C26 0.929 . S
H75 C27 0.930 . S
H76 C34 0.929 . S
H77 C35 0.930 . S
H78 C36 0.930 . S
H79 C37 0.930 . S
H80 C39 0.929 . S
H81 C40 0.930 . S
H82 C41 0.930 . S
H83 C42 0.930 . S
H84 C46 0.929 . S
H85 C48 0.930 . S
H86 C54 0.929 . S
H87 C55 0.930 1_556 S
Li88 N105 1.990 . S
Li88 O148 1.956 . S
Li88 O149 1.970 . S
Li88 O150 1.961 . S
Li89 N113 1.990 . S
Li89 O148 1.970 . S
Li89 O149 1.956 . S
Li89 O151 1.961 . S
Li90 N135 1.990 . S
Li90 O148 1.961 . S
Li90 O150 1.956 . S
Li90 O151 1.970 . S
Li91 N141 1.990 . S
Li91 O149 1.961 . S
Li91 O150 1.970 . S
Li91 O151 1.956 . S
C92 C94 1.348 . S
C92 C95 1.356 . S
C92 O148 1.325 . S
N93 C96 1.314 . S
N93 C97 1.279 . S
C94 C92 1.348 . S
C94 C96 1.353 . S
C94 H152 0.929 . S
C95 C92 1.356 . S
C95 C97 1.358 . S
C95 H153 0.930 . S
C96 N93 1.314 . S
C96 C94 1.353 . S
C96 H154 0.930 . S
C97 N93 1.279 . S
C97 C95 1.358 . S
C97 H155 0.930 . S
C98 C101 1.348 . S
C98 C102 1.356 . S
C98 O149 1.325 . S
C99 N100 1.279 . S
C99 C102 1.358 . S
C99 H156 0.930 . S
N100 C99 1.279 . S
N100 C103 1.314 . S
C101 C98 1.348 . S
C101 C103 1.353 . S
C101 H157 0.929 . S
C102 C98 1.356 . S
C102 C99 1.358 . S
C102 H158 0.930 . S
C103 N100 1.314 . S
C103 C101 1.353 . S
C103 H159 0.930 . S
C104 N105 1.314 . S
C104 C109 1.353 . S
C104 H110 0.930 . S
N105 Li88 1.990 . S
N105 C104 1.314 . S
N105 C107 1.279 . S
C106 C107 1.358 . S
C106 C108 1.356 . S
C106 H160 0.930 . S
C107 N105 1.279 . S
C107 C106 1.358 . S
C107 H111 0.930 . S
C108 C106 1.356 . S
C108 C109 1.348 . S
C109 C104 1.353 . S
C109 C108 1.348 . S
C109 H161 0.929 . S
H110 C104 0.930 . S
H111 C107 0.930 . S
C112 N113 1.314 . S
C112 C114 1.353 . S
C112 H118 0.930 . S
N113 Li89 1.990 . S
N113 C112 1.314 . S
N113 C116 1.279 . S
C114 C112 1.353 . S
C114 C117 1.348 . S
C114 H162 0.929 . S
C115 C116 1.358 . S
C115 C117 1.356 . S
C115 H163 0.930 . S
C116 N113 1.279 . S
C116 C115 1.358 . S
C116 H119 0.930 . S
C117 C114 1.348 . S
C117 C115 1.356 . S
H118 C112 0.930 . S
H119 C116 0.930 . S
C120 C122 1.348 . S
C120 C123 1.356 . S
C120 O150 1.325 . S
N121 C124 1.314 . S
N121 C125 1.279 . S
C122 C120 1.348 . S
C122 C124 1.353 . S
C122 H164 0.929 . S
C123 C120 1.356 . S
C123 C125 1.358 . S
C123 H165 0.930 . S
C124 N121 1.314 . S
C124 C122 1.353 . S
C124 H166 0.930 . S
C125 N121 1.279 . S
C125 C123 1.358 . S
C125 H167 0.930 . S
C126 C127 1.348 . S
C126 C128 1.356 . S
C126 O151 1.325 . S
C127 C126 1.348 . S
C127 C129 1.353 . S
C127 H168 0.929 . S
C128 C126 1.356 . S
C128 C130 1.358 . S
C128 H169 0.930 . S
C129 C127 1.353 . S
C129 N131 1.314 . S
C129 H170 0.930 . S
C130 C128 1.358 . S
C130 N131 1.279 . S
C130 H171 0.930 . S
N131 C129 1.314 . S
N131 C130 1.279 . S
C132 C134 1.353 . S
C132 N135 1.314 . S
C132 H138 0.930 . S
C133 N135 1.279 . S
C133 C136 1.358 . S
C133 H139 0.930 . S
C134 C132 1.353 . S
C134 C137 1.348 . S
C134 H172 0.929 . S
N135 Li90 1.990 . S
N135 C132 1.314 . S
N135 C133 1.279 . S
C136 C133 1.358 . S
C136 C137 1.356 . S
C136 H173 0.930 . S
C137 C134 1.348 . S
C137 C136 1.356 . S
H138 C132 0.930 . S
H139 C133 0.930 . S
C140 N141 1.314 . S
C140 C142 1.353 . S
C140 H146 0.930 . S
N141 Li91 1.990 . S
N141 C140 1.314 . S
N141 C144 1.279 . S
C142 C140 1.353 . S
C142 C145 1.348 . S
C142 H174 0.929 . S
C143 C144 1.358 . S
C143 C145 1.356 . S
C143 H175 0.930 . S
C144 N141 1.279 . S
C144 C143 1.358 . S
C144 H147 0.930 . S
C145 C142 1.348 . S
C145 C143 1.356 . S
H146 C140 0.930 . S
H147 C144 0.930 . S
O148 Li88 1.956 . S
O148 Li89 1.970 . S
O148 Li90 1.961 . S
O148 C92 1.325 . S
O149 Li88 1.970 . S
O149 Li89 1.956 . S
O149 Li91 1.961 . S
O149 C98 1.325 . S
O150 Li88 1.961 . S
O150 Li90 1.956 . S
O150 Li91 1.970 . S
O150 C120 1.325 . S
O151 Li89 1.961 . S
O151 Li90 1.970 . S
O151 Li91 1.956 . S
O151 C126 1.325 . S
H152 C94 0.929 . S
H153 C95 0.930 . S
H154 C96 0.930 . S
H155 C97 0.930 . S
H156 C99 0.930 . S
H157 C101 0.929 . S
H158 C102 0.930 . S
H159 C103 0.930 . S
H160 C106 0.930 . S
H161 C109 0.929 . S
H162 C114 0.929 . S
H163 C115 0.930 . S
H164 C122 0.929 . S
H165 C123 0.930 . S
H166 C124 0.930 . S
H167 C125 0.930 . S
H168 C127 0.929 . S
H169 C128 0.930 . S
H170 C129 0.930 . S
H171 C130 0.930 . S
H172 C134 0.929 . S
H173 C136 0.930 . S
H174 C142 0.929 . S
H175 C143 0.930 . S
Li176 N193 1.990 . S
Li176 O236 1.956 . S
Li176 O237 1.970 . S
Li176 O238 1.961 . S
Li177 N201 1.990 . S
Li177 O236 1.970 . S
Li177 O237 1.956 . S
Li177 O239 1.961 . S
Li178 N223 1.990 . S
Li178 O236 1.961 . S
Li178 O238 1.956 . S
Li178 O239 1.970 . S
Li179 N229 1.990 . S
Li179 O237 1.961 . S
Li179 O238 1.970 . S
Li179 O239 1.956 . S
C180 C182 1.348 . S
C180 C183 1.356 . S
C180 O236 1.325 . S
N181 C184 1.314 . S
N181 C185 1.279 . S
C182 C180 1.348 . S
C182 C184 1.353 . S
C182 H240 0.929 . S
C183 C180 1.356 . S
C183 C185 1.358 . S
C183 H241 0.930 . S
C184 N181 1.314 . S
C184 C182 1.353 . S
C184 H242 0.930 . S
C185 N181 1.279 . S
C185 C183 1.358 . S
C185 H243 0.930 . S
C186 C189 1.348 . S
C186 C190 1.356 . S
C186 O237 1.325 . S
C187 N188 1.279 . S
C187 C190 1.358 . S
C187 H244 0.930 . S
N188 C187 1.279 . S
N188 C191 1.314 . S
C189 C186 1.348 . S
C189 C191 1.353 . S
C189 H245 0.929 . S
C190 C186 1.356 . S
C190 C187 1.358 . S
C190 H246 0.930 . S
C191 N188 1.314 . S
C191 C189 1.353 . S
C191 H247 0.930 . S
C192 N193 1.314 . S
C192 C197 1.353 . S
C192 H198 0.930 . S
N193 Li176 1.990 . S
N193 C192 1.314 . S
N193 C195 1.279 . S
C194 C195 1.358 . S
C194 C196 1.356 . S
C194 H248 0.930 . S
C195 N193 1.279 . S
C195 C194 1.358 . S
C195 H199 0.930 . S
C196 C194 1.356 . S
C196 C197 1.348 . S
C197 C192 1.353 . S
C197 C196 1.348 . S
C197 H249 0.929 . S
H198 C192 0.930 . S
H199 C195 0.930 . S
C200 N201 1.314 . S
C200 C202 1.353 . S
C200 H206 0.930 . S
N201 Li177 1.990 . S
N201 C200 1.314 . S
N201 C204 1.279 . S
C202 C200 1.353 . S
C202 C205 1.348 . S
C202 H250 0.929 . S
C203 C204 1.358 . S
C203 C205 1.356 . S
C203 H251 0.930 . S
C204 N201 1.279 . S
C204 C203 1.358 . S
C204 H207 0.930 . S
C205 C202 1.348 . S
C205 C203 1.356 . S
H206 C200 0.930 . S
H207 C204 0.930 . S
C208 C210 1.348 . S
C208 C211 1.356 . S
C208 O238 1.325 . S
N209 C212 1.314 . S
N209 C213 1.279 . S
C210 C208 1.348 . S
C210 C212 1.353 1_554 S
C210 H252 0.929 . S
C211 C208 1.356 . S
C211 C213 1.358 1_554 S
C211 H253 0.930 . S
C212 N209 1.314 . S
C212 C210 1.353 1_556 S
C212 H254 0.930 . S
C213 N209 1.279 . S
C213 C211 1.358 1_556 S
C213 H255 0.930 . S
C214 C215 1.348 . S
C214 C216 1.356 . S
C214 O239 1.325 . S
C215 C214 1.348 . S
C215 C217 1.353 . S
C215 H256 0.929 . S
C216 C214 1.356 . S
C216 C218 1.358 . S
C216 H257 0.930 . S
C217 C215 1.353 . S
C217 N219 1.314 . S
C217 H258 0.930 . S
C218 C216 1.358 . S
C218 N219 1.279 . S
C218 H259 0.930 . S
N219 C217 1.314 . S
N219 C218 1.279 . S
C220 C222 1.353 . S
C220 N223 1.314 . S
C220 H226 0.930 . S
C221 N223 1.279 . S
C221 C224 1.358 . S
C221 H227 0.930 . S
C222 C220 1.353 . S
C222 C225 1.348 . S
C222 H260 0.929 . S
N223 Li178 1.990 . S
N223 C220 1.314 . S
N223 C221 1.279 . S
C224 C221 1.358 . S
C224 C225 1.356 . S
C224 H261 0.930 1_554 S
C225 C222 1.348 . S
C225 C224 1.356 . S
H226 C220 0.930 . S
H227 C221 0.930 . S
C228 N229 1.314 . S
C228 C230 1.353 . S
C228 H234 0.930 . S
N229 Li179 1.990 . S
N229 C228 1.314 . S
N229 C232 1.279 . S
C230 C228 1.353 . S
C230 C233 1.348 . S
C230 H262 0.929 . S
C231 C232 1.358 . S
C231 C233 1.356 . S
C231 H263 0.930 . S
C232 N229 1.279 . S
C232 C231 1.358 . S
C232 H235 0.930 . S
C233 C230 1.348 . S
C233 C231 1.356 . S
H234 C228 0.930 . S
H235 C232 0.930 . S
O236 Li176 1.956 . S
O236 Li177 1.970 . S
O236 Li178 1.961 . S
O236 C180 1.325 . S
O237 Li176 1.970 . S
O237 Li177 1.956 . S
O237 Li179 1.961 . S
O237 C186 1.325 . S
O238 Li176 1.961 . S
O238 Li178 1.956 . S
O238 Li179 1.970 . S
O238 C208 1.325 . S
O239 Li177 1.961 . S
O239 Li178 1.970 . S
O239 Li179 1.956 . S
O239 C214 1.325 . S
H240 C182 0.929 . S
H241 C183 0.930 . S
H242 C184 0.930 . S
H243 C185 0.930 . S
H244 C187 0.930 . S
H245 C189 0.929 . S
H246 C190 0.930 . S
H247 C191 0.930 . S
H248 C194 0.930 . S
H249 C197 0.929 . S
H250 C202 0.929 . S
H251 C203 0.930 . S
H252 C210 0.929 . S
H253 C211 0.930 . S
H254 C212 0.930 . S
H255 C213 0.930 . S
H256 C215 0.929 . S
H257 C216 0.930 . S
H258 C217 0.930 . S
H259 C218 0.930 . S
H260 C222 0.929 . S
H261 C224 0.930 1_556 S
H262 C230 0.929 . S
H263 C231 0.930 . S
Li264 N281 1.990 . S
Li264 O324 1.956 . S
Li264 O325 1.970 . S
Li264 O326 1.961 . S
Li265 N289 1.990 . S
Li265 O324 1.970 . S
Li265 O325 1.956 . S
Li265 O327 1.961 . S
Li266 N311 1.990 . S
Li266 O324 1.961 . S
Li266 O326 1.956 . S
Li266 O327 1.970 . S
Li267 N317 1.990 . S
Li267 O325 1.961 . S
Li267 O326 1.970 . S
Li267 O327 1.956 . S
C268 C270 1.348 . S
C268 C271 1.356 . S
C268 O324 1.325 . S
N269 C272 1.314 . S
N269 C273 1.279 . S
C270 C268 1.348 . S
C270 C272 1.353 . S
C270 H328 0.929 . S
C271 C268 1.356 . S
C271 C273 1.358 . S
C271 H329 0.930 . S
C272 N269 1.314 . S
C272 C270 1.353 . S
C272 H330 0.930 . S
C273 N269 1.279 . S
C273 C271 1.358 . S
C273 H331 0.930 . S
C274 C277 1.348 . S
C274 C278 1.356 . S
C274 O325 1.325 . S
C275 N276 1.279 . S
C275 C278 1.358 . S
C275 H332 0.930 . S
N276 C275 1.279 . S
N276 C279 1.314 . S
C277 C274 1.348 . S
C277 C279 1.353 . S
C277 H333 0.929 . S
C278 C274 1.356 . S
C278 C275 1.358 . S
C278 H334 0.930 . S
C279 N276 1.314 . S
C279 C277 1.353 . S
C279 H335 0.930 . S
C280 N281 1.314 . S
C280 C285 1.353 . S
C280 H286 0.930 . S
N281 Li264 1.990 . S
N281 C280 1.314 . S
N281 C283 1.279 . S
C282 C283 1.358 . S
C282 C284 1.356 . S
C282 H336 0.930 . S
C283 N281 1.279 . S
C283 C282 1.358 . S
C283 H287 0.930 . S
C284 C282 1.356 . S
C284 C285 1.348 . S
C285 C280 1.353 . S
C285 C284 1.348 . S
C285 H337 0.929 . S
H286 C280 0.930 . S
H287 C283 0.930 . S
C288 N289 1.314 . S
C288 C290 1.353 . S
C288 H294 0.930 . S
N289 Li265 1.990 . S
N289 C288 1.314 . S
N289 C292 1.279 . S
C290 C288 1.353 . S
C290 C293 1.348 . S
C290 H338 0.929 . S
C291 C292 1.358 . S
C291 C293 1.356 . S
C291 H339 0.930 . S
C292 N289 1.279 . S
C292 C291 1.358 . S
C292 H295 0.930 . S
C293 C290 1.348 . S
C293 C291 1.356 . S
H294 C288 0.930 . S
H295 C292 0.930 . S
C296 C298 1.348 . S
C296 C299 1.356 . S
C296 O326 1.325 . S
N297 C300 1.314 . S
N297 C301 1.279 . S
C298 C296 1.348 . S
C298 C300 1.353 . S
C298 H340 0.929 . S
C299 C296 1.356 . S
C299 C301 1.358 . S
C299 H341 0.930 . S
C300 N297 1.314 . S
C300 C298 1.353 . S
C300 H342 0.930 . S
C301 N297 1.279 . S
C301 C299 1.358 . S
C301 H343 0.930 . S
C302 C303 1.348 . S
C302 C304 1.356 . S
C302 O327 1.325 . S
C303 C302 1.348 . S
C303 C305 1.353 . S
C303 H344 0.929 . S
C304 C302 1.356 . S
C304 C306 1.358 . S
C304 H345 0.930 . S
C305 C303 1.353 . S
C305 N307 1.314 . S
C305 H346 0.930 . S
C306 C304 1.358 . S
C306 N307 1.279 . S
C306 H347 0.930 . S
N307 C305 1.314 . S
N307 C306 1.279 . S
C308 C310 1.353 . S
C308 N311 1.314 . S
C308 H314 0.930 . S
C309 N311 1.279 . S
C309 C312 1.358 . S
C309 H315 0.930 . S
C310 C308 1.353 . S
C310 C313 1.348 . S
C310 H348 0.929 . S
N311 Li266 1.990 . S
N311 C308 1.314 . S
N311 C309 1.279 . S
C312 C309 1.358 . S
C312 C313 1.356 . S
C312 H349 0.930 . S
C313 C310 1.348 . S
C313 C312 1.356 . S
H314 C308 0.930 . S
H315 C309 0.930 . S
C316 N317 1.314 . S
C316 C318 1.353 . S
C316 H322 0.930 . S
N317 Li267 1.990 . S
N317 C316 1.314 . S
N317 C320 1.279 . S
C318 C316 1.353 . S
C318 C321 1.348 . S
C318 H350 0.929 . S
C319 C320 1.358 . S
C319 C321 1.356 . S
C319 H351 0.930 . S
C320 N317 1.279 . S
C320 C319 1.358 . S
C320 H323 0.930 . S
C321 C318 1.348 . S
C321 C319 1.356 . S
H322 C316 0.930 . S
H323 C320 0.930 . S
O324 Li264 1.956 . S
O324 Li265 1.970 . S
O324 Li266 1.961 . S
O324 C268 1.325 . S
O325 Li264 1.970 . S
O325 Li265 1.956 . S
O325 Li267 1.961 . S
O325 C274 1.325 . S
O326 Li264 1.961 . S
O326 Li266 1.956 . S
O326 Li267 1.970 . S
O326 C296 1.325 . S
O327 Li265 1.961 . S
O327 Li266 1.970 . S
O327 Li267 1.956 . S
O327 C302 1.325 . S
H328 C270 0.929 . S
H329 C271 0.930 . S
H330 C272 0.930 . S
H331 C273 0.930 . S
H332 C275 0.930 . S
H333 C277 0.929 . S
H334 C278 0.930 . S
H335 C279 0.930 . S
H336 C282 0.930 . S
H337 C285 0.929 . S
H338 C290 0.929 . S
H339 C291 0.930 . S
H340 C298 0.929 . S
H341 C299 0.930 . S
H342 C300 0.930 . S
H343 C301 0.930 . S
H344 C303 0.929 . S
H345 C304 0.930 . S
H346 C305 0.930 . S
H347 C306 0.930 . S
H348 C310 0.929 . S
H349 C312 0.930 . S
H350 C318 0.929 . S
H351 C319 0.930 . S
Li352 N369 1.990 . S
Li352 O412 1.956 . S
Li352 O413 1.970 . S
Li352 O414 1.961 . S
Li353 N377 1.990 . S
Li353 O412 1.970 . S
Li353 O413 1.956 . S
Li353 O415 1.961 . S
Li354 N399 1.990 . S
Li354 O412 1.961 . S
Li354 O414 1.956 . S
Li354 O415 1.970 . S
Li355 N405 1.990 . S
Li355 O413 1.961 . S
Li355 O414 1.970 . S
Li355 O415 1.956 . S
C356 C358 1.348 . S
C356 C359 1.356 . S
C356 O412 1.325 . S
N357 C360 1.314 . S
N357 C361 1.279 . S
C358 C356 1.348 . S
C358 C360 1.353 . S
C358 H416 0.929 . S
C359 C356 1.356 . S
C359 C361 1.358 . S
C359 H417 0.930 . S
C360 N357 1.314 . S
C360 C358 1.353 . S
C360 H418 0.930 . S
C361 N357 1.279 . S
C361 C359 1.358 . S
C361 H419 0.930 . S
C362 C365 1.348 . S
C362 C366 1.356 . S
C362 O413 1.325 . S
C363 N364 1.279 . S
C363 C366 1.358 . S
C363 H420 0.930 . S
N364 C363 1.279 . S
N364 C367 1.314 . S
C365 C362 1.348 . S
C365 C367 1.353 . S
C365 H421 0.929 . S
C366 C362 1.356 . S
C366 C363 1.358 . S
C366 H422 0.930 . S
C367 N364 1.314 . S
C367 C365 1.353 . S
C367 H423 0.930 . S
C368 N369 1.314 . S
C368 C373 1.353 . S
C368 H374 0.930 . S
N369 Li352 1.990 . S
N369 C368 1.314 . S
N369 C371 1.279 . S
C370 C371 1.358 . S
C370 C372 1.356 . S
C370 H424 0.930 . S
C371 N369 1.279 . S
C371 C370 1.358 . S
C371 H375 0.930 . S
C372 C370 1.356 . S
C372 C373 1.348 . S
C373 C368 1.353 . S
C373 C372 1.348 . S
C373 H425 0.929 . S
H374 C368 0.930 . S
H375 C371 0.930 . S
C376 N377 1.314 . S
C376 C378 1.353 . S
C376 H382 0.930 . S
N377 Li353 1.990 . S
N377 C376 1.314 . S
N377 C380 1.279 . S
C378 C376 1.353 . S
C378 C381 1.348 . S
C378 H426 0.929 . S
C379 C380 1.358 . S
C379 C381 1.356 . S
C379 H427 0.930 . S
C380 N377 1.279 . S
C380 C379 1.358 . S
C380 H383 0.930 . S
C381 C378 1.348 . S
C381 C379 1.356 . S
H382 C376 0.930 . S
H383 C380 0.930 . S
C384 C386 1.348 . S
C384 C387 1.356 . S
C384 O414 1.325 . S
N385 C388 1.314 . S
N385 C389 1.279 . S
C386 C384 1.348 . S
C386 C388 1.353 . S
C386 H428 0.929 . S
C387 C384 1.356 . S
C387 C389 1.358 . S
C387 H429 0.930 . S
C388 N385 1.314 . S
C388 C386 1.353 . S
C388 H430 0.930 . S
C389 N385 1.279 . S
C389 C387 1.358 . S
C389 H431 0.930 . S
C390 C391 1.348 . S
C390 C392 1.356 . S
C390 O415 1.325 . S
C391 C390 1.348 . S
C391 C393 1.353 1_554 S
C391 H432 0.929 . S
C392 C390 1.356 . S
C392 C394 1.358 1_554 S
C392 H433 0.930 . S
C393 C391 1.353 1_556 S
C393 N395 1.314 . S
C393 H434 0.930 . S
C394 C392 1.358 1_556 S
C394 N395 1.279 . S
C394 H435 0.930 . S
N395 C393 1.314 . S
N395 C394 1.279 . S
C396 C398 1.353 . S
C396 N399 1.314 . S
C396 H402 0.930 . S
C397 N399 1.279 . S
C397 C400 1.358 . S
C397 H403 0.930 . S
C398 C396 1.353 . S
C398 C401 1.348 . S
C398 H436 0.929 . S
N399 Li354 1.990 . S
N399 C396 1.314 . S
N399 C397 1.279 . S
C400 C397 1.358 . S
C400 C401 1.356 . S
C400 H437 0.930 . S
C401 C398 1.348 . S
C401 C400 1.356 . S
H402 C396 0.930 . S
H403 C397 0.930 . S
C404 N405 1.314 . S
C404 C406 1.353 . S
C404 H410 0.930 . S
N405 Li355 1.990 . S
N405 C404 1.314 . S
N405 C408 1.279 . S
C406 C404 1.353 . S
C406 C409 1.348 . S
C406 H438 0.929 . S
C407 C408 1.358 . S
C407 C409 1.356 . S
C407 H439 0.930 1_554 S
C408 N405 1.279 . S
C408 C407 1.358 . S
C408 H411 0.930 . S
C409 C406 1.348 . S
C409 C407 1.356 . S
H410 C404 0.930 . S
H411 C408 0.930 . S
O412 Li352 1.956 . S
O412 Li353 1.970 . S
O412 Li354 1.961 . S
O412 C356 1.325 . S
O413 Li352 1.970 . S
O413 Li353 1.956 . S
O413 Li355 1.961 . S
O413 C362 1.325 . S
O414 Li352 1.961 . S
O414 Li354 1.956 . S
O414 Li355 1.970 . S
O414 C384 1.325 . S
O415 Li353 1.961 . S
O415 Li354 1.970 . S
O415 Li355 1.956 . S
O415 C390 1.325 . S
H416 C358 0.929 . S
H417 C359 0.930 . S
H418 C360 0.930 . S
H419 C361 0.930 . S
H420 C363 0.930 . S
H421 C365 0.929 . S
H422 C366 0.930 . S
H423 C367 0.930 . S
H424 C370 0.930 . S
H425 C373 0.929 . S
H426 C378 0.929 . S
H427 C379 0.930 . S
H428 C386 0.929 . S
H429 C387 0.930 . S
H430 C388 0.930 . S
H431 C389 0.930 . S
H432 C391 0.929 . S
H433 C392 0.930 . S
H434 C393 0.930 . S
H435 C394 0.930 . S
H436 C398 0.929 . S
H437 C400 0.930 . S
H438 C406 0.929 . S
H439 C407 0.930 1_556 S
Li440 N457 1.990 . S
Li440 O500 1.956 . S
Li440 O501 1.970 . S
Li440 O502 1.961 . S
Li441 N465 1.990 . S
Li441 O500 1.970 . S
Li441 O501 1.956 . S
Li441 O503 1.961 . S
Li442 N487 1.990 . S
Li442 O500 1.961 . S
Li442 O502 1.956 . S
Li442 O503 1.970 . S
Li443 N493 1.990 . S
Li443 O501 1.961 . S
Li443 O502 1.970 . S
Li443 O503 1.956 . S
C444 C446 1.348 . S
C444 C447 1.356 . S
C444 O500 1.325 . S
N445 C448 1.314 . S
N445 C449 1.279 . S
C446 C444 1.348 . S
C446 C448 1.353 . S
C446 H504 0.929 . S
C447 C444 1.356 . S
C447 C449 1.358 . S
C447 H505 0.930 . S
C448 N445 1.314 . S
C448 C446 1.353 . S
C448 H506 0.930 . S
C449 N445 1.279 . S
C449 C447 1.358 . S
C449 H507 0.930 . S
C450 C453 1.348 . S
C450 C454 1.356 . S
C450 O501 1.325 . S
C451 N452 1.279 . S
C451 C454 1.358 . S
C451 H508 0.930 . S
N452 C451 1.279 . S
N452 C455 1.314 . S
C453 C450 1.348 . S
C453 C455 1.353 . S
C453 H509 0.929 . S
C454 C450 1.356 . S
C454 C451 1.358 . S
C454 H510 0.930 . S
C455 N452 1.314 . S
C455 C453 1.353 . S
C455 H511 0.930 . S
C456 N457 1.314 . S
C456 C461 1.353 . S
C456 H462 0.930 . S
N457 Li440 1.990 . S
N457 C456 1.314 . S
N457 C459 1.279 . S
C458 C459 1.358 . S
C458 C460 1.356 . S
C458 H512 0.930 . S
C459 N457 1.279 . S
C459 C458 1.358 . S
C459 H463 0.930 . S
C460 C458 1.356 . S
C460 C461 1.348 . S
C461 C456 1.353 . S
C461 C460 1.348 . S
C461 H513 0.929 . S
H462 C456 0.930 . S
H463 C459 0.930 . S
C464 N465 1.314 . S
C464 C466 1.353 . S
C464 H470 0.930 . S
N465 Li441 1.990 . S
N465 C464 1.314 . S
N465 C468 1.279 . S
C466 C464 1.353 . S
C466 C469 1.348 . S
C466 H514 0.929 . S
C467 C468 1.358 . S
C467 C469 1.356 . S
C467 H515 0.930 . S
C468 N465 1.279 . S
C468 C467 1.358 . S
C468 H471 0.930 . S
C469 C466 1.348 . S
C469 C467 1.356 . S
H470 C464 0.930 . S
H471 C468 0.930 . S
C472 C474 1.348 . S
C472 C475 1.356 . S
C472 O502 1.325 . S
N473 C476 1.314 . S
N473 C477 1.279 . S
C474 C472 1.348 . S
C474 C476 1.353 . S
C474 H516 0.929 . S
C475 C472 1.356 . S
C475 C477 1.358 . S
C475 H517 0.930 . S
C476 N473 1.314 . S
C476 C474 1.353 . S
C476 H518 0.930 . S
C477 N473 1.279 . S
C477 C475 1.358 . S
C477 H519 0.930 . S
C478 C479 1.348 . S
C478 C480 1.356 . S
C478 O503 1.325 . S
C479 C478 1.348 . S
C479 C481 1.353 . S
C479 H520 0.929 . S
C480 C478 1.356 . S
C480 C482 1.358 . S
C480 H521 0.930 . S
C481 C479 1.353 . S
C481 N483 1.314 . S
C481 H522 0.930 . S
C482 C480 1.358 . S
C482 N483 1.279 . S
C482 H523 0.930 . S
N483 C481 1.314 . S
N483 C482 1.279 . S
C484 C486 1.353 . S
C484 N487 1.314 . S
C484 H490 0.930 . S
C485 N487 1.279 . S
C485 C488 1.358 . S
C485 H491 0.930 . S
C486 C484 1.353 . S
C486 C489 1.348 . S
C486 H524 0.929 . S
N487 Li442 1.990 . S
N487 C484 1.314 . S
N487 C485 1.279 . S
C488 C485 1.358 . S
C488 C489 1.356 . S
C488 H525 0.930 . S
C489 C486 1.348 . S
C489 C488 1.356 . S
H490 C484 0.930 . S
H491 C485 0.930 . S
C492 N493 1.314 . S
C492 C494 1.353 . S
C492 H498 0.930 . S
N493 Li443 1.990 . S
N493 C492 1.314 . S
N493 C496 1.279 . S
C494 C492 1.353 . S
C494 C497 1.348 . S
C494 H526 0.929 . S
C495 C496 1.358 . S
C495 C497 1.356 . S
C495 H527 0.930 . S
C496 N493 1.279 . S
C496 C495 1.358 . S
C496 H499 0.930 . S
C497 C494 1.348 . S
C497 C495 1.356 . S
H498 C492 0.930 . S
H499 C496 0.930 . S
O500 Li440 1.956 . S
O500 Li441 1.970 . S
O500 Li442 1.961 . S
O500 C444 1.325 . S
O501 Li440 1.970 . S
O501 Li441 1.956 . S
O501 Li443 1.961 . S
O501 C450 1.325 . S
O502 Li440 1.961 . S
O502 Li442 1.956 . S
O502 Li443 1.970 . S
O502 C472 1.325 . S
O503 Li441 1.961 . S
O503 Li442 1.970 . S
O503 Li443 1.956 . S
O503 C478 1.325 . S
H504 C446 0.929 . S
H505 C447 0.930 . S
H506 C448 0.930 . S
H507 C449 0.930 . S
H508 C451 0.930 . S
H509 C453 0.929 . S
H510 C454 0.930 . S
H511 C455 0.930 . S
H512 C458 0.930 . S
H513 C461 0.929 . S
H514 C466 0.929 . S
H515 C467 0.930 . S
H516 C474 0.929 . S
H517 C475 0.930 . S
H518 C476 0.930 . S
H519 C477 0.930 . S
H520 C479 0.929 . S
H521 C480 0.930 . S
H522 C481 0.930 . S
H523 C482 0.930 . S
H524 C486 0.929 . S
H525 C488 0.930 . S
H526 C494 0.929 . S
H527 C495 0.930 . S
Li528 N545 1.990 . S
Li528 O588 1.956 . S
Li528 O589 1.970 . S
Li528 O590 1.961 . S
Li529 N553 1.990 . S
Li529 O588 1.970 . S
Li529 O589 1.956 . S
Li529 O591 1.961 . S
Li530 N575 1.990 . S
Li530 O588 1.961 . S
Li530 O590 1.956 . S
Li530 O591 1.970 . S
Li531 N581 1.990 . S
Li531 O589 1.961 . S
Li531 O590 1.970 . S
Li531 O591 1.956 . S
C532 C534 1.348 . S
C532 C535 1.356 . S
C532 O588 1.325 . S
N533 C536 1.314 . S
N533 C537 1.279 . S
C534 C532 1.348 . S
C534 C536 1.353 . S
C534 H592 0.929 . S
C535 C532 1.356 . S
C535 C537 1.358 . S
C535 H593 0.930 . S
C536 N533 1.314 . S
C536 C534 1.353 . S
C536 H594 0.930 . S
C537 N533 1.279 . S
C537 C535 1.358 . S
C537 H595 0.930 . S
C538 C541 1.348 . S
C538 C542 1.356 . S
C538 O589 1.325 . S
C539 N540 1.279 . S
C539 C542 1.358 1_554 S
C539 H596 0.930 . S
N540 C539 1.279 . S
N540 C543 1.314 . S
C541 C538 1.348 . S
C541 C543 1.353 1_556 S
C541 H597 0.929 . S
C542 C538 1.356 . S
C542 C539 1.358 1_556 S
C542 H598 0.930 . S
C543 N540 1.314 . S
C543 C541 1.353 1_554 S
C543 H599 0.930 . S
C544 N545 1.314 . S
C544 C549 1.353 . S
C544 H550 0.930 . S
N545 Li528 1.990 . S
N545 C544 1.314 . S
N545 C547 1.279 . S
C546 C547 1.358 . S
C546 C548 1.356 . S
C546 H600 0.930 . S
C547 N545 1.279 . S
C547 C546 1.358 . S
C547 H551 0.930 . S
C548 C546 1.356 . S
C548 C549 1.348 . S
C549 C544 1.353 . S
C549 C548 1.348 . S
C549 H601 0.929 . S
H550 C544 0.930 . S
H551 C547 0.930 . S
C552 N553 1.314 . S
C552 C554 1.353 . S
C552 H558 0.930 . S
N553 Li529 1.990 . S
N553 C552 1.314 . S
N553 C556 1.279 . S
C554 C552 1.353 . S
C554 C557 1.348 . S
C554 H602 0.929 . S
C555 C556 1.358 . S
C555 C557 1.356 . S
C555 H603 0.930 1_556 S
C556 N553 1.279 . S
C556 C555 1.358 . S
C556 H559 0.930 . S
C557 C554 1.348 . S
C557 C555 1.356 . S
H558 C552 0.930 . S
H559 C556 0.930 . S
C560 C562 1.348 . S
C560 C563 1.356 . S
C560 O590 1.325 . S
N561 C564 1.314 . S
N561 C565 1.279 . S
C562 C560 1.348 . S
C562 C564 1.353 . S
C562 H604 0.929 . S
C563 C560 1.356 . S
C563 C565 1.358 . S
C563 H605 0.930 . S
C564 N561 1.314 . S
C564 C562 1.353 . S
C564 H606 0.930 . S
C565 N561 1.279 . S
C565 C563 1.358 . S
C565 H607 0.930 . S
C566 C567 1.348 . S
C566 C568 1.356 . S
C566 O591 1.325 . S
C567 C566 1.348 . S
C567 C569 1.353 . S
C567 H608 0.929 . S
C568 C566 1.356 . S
C568 C570 1.358 . S
C568 H609 0.930 . S
C569 C567 1.353 . S
C569 N571 1.314 . S
C569 H610 0.930 . S
C570 C568 1.358 . S
C570 N571 1.279 . S
C570 H611 0.930 . S
N571 C569 1.314 . S
N571 C570 1.279 . S
C572 C574 1.353 . S
C572 N575 1.314 . S
C572 H578 0.930 . S
C573 N575 1.279 . S
C573 C576 1.358 . S
C573 H579 0.930 . S
C574 C572 1.353 . S
C574 C577 1.348 . S
C574 H612 0.929 . S
N575 Li530 1.990 . S
N575 C572 1.314 . S
N575 C573 1.279 . S
C576 C573 1.358 . S
C576 C577 1.356 . S
C576 H613 0.930 . S
C577 C574 1.348 . S
C577 C576 1.356 . S
H578 C572 0.930 . S
H579 C573 0.930 . S
C580 N581 1.314 . S
C580 C582 1.353 . S
C580 H586 0.930 . S
N581 Li531 1.990 . S
N581 C580 1.314 . S
N581 C584 1.279 . S
C582 C580 1.353 . S
C582 C585 1.348 . S
C582 H614 0.929 . S
C583 C584 1.358 . S
C583 C585 1.356 . S
C583 H615 0.930 . S
C584 N581 1.279 . S
C584 C583 1.358 . S
C584 H587 0.930 . S
C585 C582 1.348 . S
C585 C583 1.356 . S
H586 C580 0.930 . S
H587 C584 0.930 . S
O588 Li528 1.956 . S
O588 Li529 1.970 . S
O588 Li530 1.961 . S
O588 C532 1.325 . S
O589 Li528 1.970 . S
O589 Li529 1.956 . S
O589 Li531 1.961 . S
O589 C538 1.325 . S
O590 Li528 1.961 . S
O590 Li530 1.956 . S
O590 Li531 1.970 . S
O590 C560 1.325 . S
O591 Li529 1.961 . S
O591 Li530 1.970 . S
O591 Li531 1.956 . S
O591 C566 1.325 . S
H592 C534 0.929 . S
H593 C535 0.930 . S
H594 C536 0.930 . S
H595 C537 0.930 . S
H596 C539 0.930 . S
H597 C541 0.929 . S
H598 C542 0.930 . S
H599 C543 0.930 . S
H600 C546 0.930 . S
H601 C549 0.929 . S
H602 C554 0.929 . S
H603 C555 0.930 1_554 S
H604 C562 0.929 . S
H605 C563 0.930 . S
H606 C564 0.930 . S
H607 C565 0.930 . S
H608 C567 0.929 . S
H609 C568 0.930 . S
H610 C569 0.930 . S
H611 C570 0.930 . S
H612 C574 0.929 . S
H613 C576 0.930 . S
H614 C582 0.929 . S
H615 C583 0.930 . S
Li616 N633 1.990 . S
Li616 O676 1.956 . S
Li616 O677 1.970 . S
Li616 O678 1.961 . S
Li617 N641 1.990 . S
Li617 O676 1.970 . S
Li617 O677 1.956 . S
Li617 O679 1.961 . S
Li618 N663 1.990 . S
Li618 O676 1.961 . S
Li618 O678 1.956 . S
Li618 O679 1.970 . S
Li619 N669 1.990 . S
Li619 O677 1.961 . S
Li619 O678 1.970 . S
Li619 O679 1.956 . S
C620 C622 1.348 . S
C620 C623 1.356 . S
C620 O676 1.325 . S
N621 C624 1.314 . S
N621 C625 1.279 . S
C622 C620 1.348 . S
C622 C624 1.353 . S
C622 H680 0.929 . S
C623 C620 1.356 . S
C623 C625 1.358 . S
C623 H681 0.930 . S
C624 N621 1.314 . S
C624 C622 1.353 . S
C624 H682 0.930 . S
C625 N621 1.279 . S
C625 C623 1.358 . S
C625 H683 0.930 . S
C626 C629 1.348 . S
C626 C630 1.356 . S
C626 O677 1.325 . S
C627 N628 1.279 . S
C627 C630 1.358 . S
C627 H684 0.930 . S
N628 C627 1.279 . S
N628 C631 1.314 . S
C629 C626 1.348 . S
C629 C631 1.353 . S
C629 H685 0.929 . S
C630 C626 1.356 . S
C630 C627 1.358 . S
C630 H686 0.930 . S
C631 N628 1.314 . S
C631 C629 1.353 . S
C631 H687 0.930 . S
C632 N633 1.314 . S
C632 C637 1.353 . S
C632 H638 0.930 . S
N633 Li616 1.990 . S
N633 C632 1.314 . S
N633 C635 1.279 . S
C634 C635 1.358 . S
C634 C636 1.356 . S
C634 H688 0.930 . S
C635 N633 1.279 . S
C635 C634 1.358 . S
C635 H639 0.930 . S
C636 C634 1.356 . S
C636 C637 1.348 . S
C637 C632 1.353 . S
C637 C636 1.348 . S
C637 H689 0.929 . S
H638 C632 0.930 . S
H639 C635 0.930 . S
C640 N641 1.314 . S
C640 C642 1.353 . S
C640 H646 0.930 . S
N641 Li617 1.990 . S
N641 C640 1.314 . S
N641 C644 1.279 . S
C642 C640 1.353 . S
C642 C645 1.348 . S
C642 H690 0.929 . S
C643 C644 1.358 . S
C643 C645 1.356 . S
C643 H691 0.930 . S
C644 N641 1.279 . S
C644 C643 1.358 . S
C644 H647 0.930 . S
C645 C642 1.348 . S
C645 C643 1.356 . S
H646 C640 0.930 . S
H647 C644 0.930 . S
C648 C650 1.348 . S
C648 C651 1.356 . S
C648 O678 1.325 . S
N649 C652 1.314 . S
N649 C653 1.279 . S
C650 C648 1.348 . S
C650 C652 1.353 . S
C650 H692 0.929 . S
C651 C648 1.356 . S
C651 C653 1.358 . S
C651 H693 0.930 . S
C652 N649 1.314 . S
C652 C650 1.353 . S
C652 H694 0.930 . S
C653 N649 1.279 . S
C653 C651 1.358 . S
C653 H695 0.930 . S
C654 C655 1.348 . S
C654 C656 1.356 . S
C654 O679 1.325 . S
C655 C654 1.348 . S
C655 C657 1.353 . S
C655 H696 0.929 . S
C656 C654 1.356 . S
C656 C658 1.358 . S
C656 H697 0.930 . S
C657 C655 1.353 . S
C657 N659 1.314 . S
C657 H698 0.930 . S
C658 C656 1.358 . S
C658 N659 1.279 . S
C658 H699 0.930 . S
N659 C657 1.314 . S
N659 C658 1.279 . S
C660 C662 1.353 . S
C660 N663 1.314 . S
C660 H666 0.930 . S
C661 N663 1.279 . S
C661 C664 1.358 . S
C661 H667 0.930 . S
C662 C660 1.353 . S
C662 C665 1.348 . S
C662 H700 0.929 . S
N663 Li618 1.990 . S
N663 C660 1.314 . S
N663 C661 1.279 . S
C664 C661 1.358 . S
C664 C665 1.356 . S
C664 H701 0.930 . S
C665 C662 1.348 . S
C665 C664 1.356 . S
H666 C660 0.930 . S
H667 C661 0.930 . S
C668 N669 1.314 . S
C668 C670 1.353 . S
C668 H674 0.930 . S
N669 Li619 1.990 . S
N669 C668 1.314 . S
N669 C672 1.279 . S
C670 C668 1.353 . S
C670 C673 1.348 . S
C670 H702 0.929 . S
C671 C672 1.358 . S
C671 C673 1.356 . S
C671 H703 0.930 . S
C672 N669 1.279 . S
C672 C671 1.358 . S
C672 H675 0.930 . S
C673 C670 1.348 . S
C673 C671 1.356 . S
H674 C668 0.930 . S
H675 C672 0.930 . S
O676 Li616 1.956 . S
O676 Li617 1.970 . S
O676 Li618 1.961 . S
O676 C620 1.325 . S
O677 Li616 1.970 . S
O677 Li617 1.956 . S
O677 Li619 1.961 . S
O677 C626 1.325 . S
O678 Li616 1.961 . S
O678 Li618 1.956 . S
O678 Li619 1.970 . S
O678 C648 1.325 . S
O679 Li617 1.961 . S
O679 Li618 1.970 . S
O679 Li619 1.956 . S
O679 C654 1.325 . S
H680 C622 0.929 . S
H681 C623 0.930 . S
H682 C624 0.930 . S
H683 C625 0.930 . S
H684 C627 0.930 . S
H685 C629 0.929 . S
H686 C630 0.930 . S
H687 C631 0.930 . S
H688 C634 0.930 . S
H689 C637 0.929 . S
H690 C642 0.929 . S
H691 C643 0.930 . S
H692 C650 0.929 . S
H693 C651 0.930 . S
H694 C652 0.930 . S
H695 C653 0.930 . S
H696 C655 0.929 . S
H697 C656 0.930 . S
H698 C657 0.930 . S
H699 C658 0.930 . S
H700 C662 0.929 . S
H701 C664 0.930 . S
H702 C670 0.929 . S
H703 C671 0.930 . S
Li704 N721 1.990 . S
Li704 O764 1.956 . S
Li704 O765 1.970 . S
Li704 O766 1.961 . S
Li705 N729 1.990 . S
Li705 O764 1.970 . S
Li705 O765 1.956 . S
Li705 O767 1.961 . S
Li706 N751 1.990 . S
Li706 O764 1.961 . S
Li706 O766 1.956 . S
Li706 O767 1.970 . S
Li707 N757 1.990 . S
Li707 O765 1.961 . S
Li707 O766 1.970 . S
Li707 O767 1.956 . S
C708 C710 1.348 . S
C708 C711 1.356 . S
C708 O764 1.325 . S
N709 C712 1.314 . S
N709 C713 1.279 . S
C710 C708 1.348 . S
C710 C712 1.353 . S
C710 H768 0.929 . S
C711 C708 1.356 . S
C711 C713 1.358 . S
C711 H769 0.930 . S
C712 N709 1.314 . S
C712 C710 1.353 . S
C712 H770 0.930 . S
C713 N709 1.279 . S
C713 C711 1.358 . S
C713 H771 0.930 . S
C714 C717 1.348 . S
C714 C718 1.356 . S
C714 O765 1.325 . S
C715 N716 1.279 . S
C715 C718 1.358 1_554 S
C715 H772 0.930 . S
N716 C715 1.279 . S
N716 C719 1.314 . S
C717 C714 1.348 . S
C717 C719 1.353 1_556 S
C717 H773 0.929 . S
C718 C714 1.356 . S
C718 C715 1.358 1_556 S
C718 H774 0.930 . S
C719 N716 1.314 . S
C719 C717 1.353 1_554 S
C719 H775 0.930 . S
C720 N721 1.314 . S
C720 C725 1.353 . S
C720 H726 0.930 . S
N721 Li704 1.990 . S
N721 C720 1.314 . S
N721 C723 1.279 . S
C722 C723 1.358 . S
C722 C724 1.356 . S
C722 H776 0.930 . S
C723 N721 1.279 . S
C723 C722 1.358 . S
C723 H727 0.930 . S
C724 C722 1.356 . S
C724 C725 1.348 . S
C725 C720 1.353 . S
C725 C724 1.348 . S
C725 H777 0.929 . S
H726 C720 0.930 . S
H727 C723 0.930 . S
C728 N729 1.314 . S
C728 C730 1.353 . S
C728 H734 0.930 . S
N729 Li705 1.990 . S
N729 C728 1.314 . S
N729 C732 1.279 . S
C730 C728 1.353 . S
C730 C733 1.348 . S
C730 H778 0.929 . S
C731 C732 1.358 . S
C731 C733 1.356 . S
C731 H779 0.930 1_556 S
C732 N729 1.279 . S
C732 C731 1.358 . S
C732 H735 0.930 . S
C733 C730 1.348 . S
C733 C731 1.356 . S
H734 C728 0.930 . S
H735 C732 0.930 . S
C736 C738 1.348 . S
C736 C739 1.356 . S
C736 O766 1.325 . S
N737 C740 1.314 . S
N737 C741 1.279 . S
C738 C736 1.348 . S
C738 C740 1.353 . S
C738 H780 0.929 . S
C739 C736 1.356 . S
C739 C741 1.358 . S
C739 H781 0.930 . S
C740 N737 1.314 . S
C740 C738 1.353 . S
C740 H782 0.930 . S
C741 N737 1.279 . S
C741 C739 1.358 . S
C741 H783 0.930 . S
C742 C743 1.348 . S
C742 C744 1.356 . S
C742 O767 1.325 . S
C743 C742 1.348 . S
C743 C745 1.353 . S
C743 H784 0.929 . S
C744 C742 1.356 . S
C744 C746 1.358 . S
C744 H785 0.930 . S
C745 C743 1.353 . S
C745 N747 1.314 . S
C745 H786 0.930 . S
C746 C744 1.358 . S
C746 N747 1.279 . S
C746 H787 0.930 . S
N747 C745 1.314 . S
N747 C746 1.279 . S
C748 C750 1.353 . S
C748 N751 1.314 . S
C748 H754 0.930 . S
C749 N751 1.279 . S
C749 C752 1.358 . S
C749 H755 0.930 . S
C750 C748 1.353 . S
C750 C753 1.348 . S
C750 H788 0.929 . S
N751 Li706 1.990 . S
N751 C748 1.314 . S
N751 C749 1.279 . S
C752 C749 1.358 . S
C752 C753 1.356 . S
C752 H789 0.930 . S
C753 C750 1.348 . S
C753 C752 1.356 . S
H754 C748 0.930 . S
H755 C749 0.930 . S
C756 N757 1.314 . S
C756 C758 1.353 . S
C756 H762 0.930 . S
N757 Li707 1.990 . S
N757 C756 1.314 . S
N757 C760 1.279 . S
C758 C756 1.353 . S
C758 C761 1.348 . S
C758 H790 0.929 . S
C759 C760 1.358 . S
C759 C761 1.356 . S
C759 H791 0.930 . S
C760 N757 1.279 . S
C760 C759 1.358 . S
C760 H763 0.930 . S
C761 C758 1.348 . S
C761 C759 1.356 . S
H762 C756 0.930 . S
H763 C760 0.930 . S
O764 Li704 1.956 . S
O764 Li705 1.970 . S
O764 Li706 1.961 . S
O764 C708 1.325 . S
O765 Li704 1.970 . S
O765 Li705 1.956 . S
O765 Li707 1.961 . S
O765 C714 1.325 . S
O766 Li704 1.961 . S
O766 Li706 1.956 . S
O766 Li707 1.970 . S
O766 C736 1.325 . S
O767 Li705 1.961 . S
O767 Li706 1.970 . S
O767 Li707 1.956 . S
O767 C742 1.325 . S
H768 C710 0.929 . S
H769 C711 0.930 . S
H770 C712 0.930 . S
H771 C713 0.930 . S
H772 C715 0.930 . S
H773 C717 0.929 . S
H774 C718 0.930 . S
H775 C719 0.930 . S
H776 C722 0.930 . S
H777 C725 0.929 . S
H778 C730 0.929 . S
H779 C731 0.930 1_554 S
H780 C738 0.929 . S
H781 C739 0.930 . S
H782 C740 0.930 . S
H783 C741 0.930 . S
H784 C743 0.929 . S
H785 C744 0.930 . S
H786 C745 0.930 . S
H787 C746 0.930 . S
H788 C750 0.929 . S
H789 C752 0.930 . S
H790 C758 0.929 . S
H791 C759 0.930 . S
Li792 N809 1.990 . S
Li792 O852 1.956 . S
Li792 O853 1.970 . S
Li792 O854 1.961 . S
Li793 N817 1.990 . S
Li793 O852 1.970 . S
Li793 O853 1.956 . S
Li793 O855 1.961 . S
Li794 N839 1.990 . S
Li794 O852 1.961 . S
Li794 O854 1.956 . S
Li794 O855 1.970 . S
Li795 N845 1.990 . S
Li795 O853 1.961 . S
Li795 O854 1.970 . S
Li795 O855 1.956 . S
C796 C798 1.348 . S
C796 C799 1.356 . S
C796 O852 1.325 . S
N797 C800 1.314 . S
N797 C801 1.279 . S
C798 C796 1.348 . S
C798 C800 1.353 . S
C798 H856 0.929 . S
C799 C796 1.356 . S
C799 C801 1.358 . S
C799 H857 0.930 . S
C800 N797 1.314 . S
C800 C798 1.353 . S
C800 H858 0.930 . S
C801 N797 1.279 . S
C801 C799 1.358 . S
C801 H859 0.930 . S
C802 C805 1.348 . S
C802 C806 1.356 . S
C802 O853 1.325 . S
C803 N804 1.279 . S
C803 C806 1.358 . S
C803 H860 0.930 . S
N804 C803 1.279 . S
N804 C807 1.314 . S
C805 C802 1.348 . S
C805 C807 1.353 . S
C805 H861 0.929 . S
C806 C802 1.356 . S
C806 C803 1.358 . S
C806 H862 0.930 . S
C807 N804 1.314 . S
C807 C805 1.353 . S
C807 H863 0.930 . S
C808 N809 1.314 . S
C808 C813 1.353 . S
C808 H814 0.930 . S
N809 Li792 1.990 . S
N809 C808 1.314 . S
N809 C811 1.279 . S
C810 C811 1.358 . S
C810 C812 1.356 . S
C810 H864 0.930 . S
C811 N809 1.279 . S
C811 C810 1.358 . S
C811 H815 0.930 . S
C812 C810 1.356 . S
C812 C813 1.348 . S
C813 C808 1.353 . S
C813 C812 1.348 . S
C813 H865 0.929 . S
H814 C808 0.930 . S
H815 C811 0.930 . S
C816 N817 1.314 . S
C816 C818 1.353 . S
C816 H822 0.930 . S
N817 Li793 1.990 . S
N817 C816 1.314 . S
N817 C820 1.279 . S
C818 C816 1.353 . S
C818 C821 1.348 . S
C818 H866 0.929 . S
C819 C820 1.358 . S
C819 C821 1.356 . S
C819 H867 0.930 . S
C820 N817 1.279 . S
C820 C819 1.358 . S
C820 H823 0.930 . S
C821 C818 1.348 . S
C821 C819 1.356 . S
H822 C816 0.930 . S
H823 C820 0.930 . S
C824 C826 1.348 . S
C824 C827 1.356 . S
C824 O854 1.325 . S
N825 C828 1.314 . S
N825 C829 1.279 . S
C826 C824 1.348 . S
C826 C828 1.353 . S
C826 H868 0.929 . S
C827 C824 1.356 . S
C827 C829 1.358 . S
C827 H869 0.930 . S
C828 N825 1.314 . S
C828 C826 1.353 . S
C828 H870 0.930 . S
C829 N825 1.279 . S
C829 C827 1.358 . S
C829 H871 0.930 . S
C830 C831 1.348 . S
C830 C832 1.356 . S
C830 O855 1.325 . S
C831 C830 1.348 . S
C831 C833 1.353 . S
C831 H872 0.929 . S
C832 C830 1.356 . S
C832 C834 1.358 . S
C832 H873 0.930 . S
C833 C831 1.353 . S
C833 N835 1.314 . S
C833 H874 0.930 . S
C834 C832 1.358 . S
C834 N835 1.279 . S
C834 H875 0.930 . S
N835 C833 1.314 . S
N835 C834 1.279 . S
C836 C838 1.353 . S
C836 N839 1.314 . S
C836 H842 0.930 . S
C837 N839 1.279 . S
C837 C840 1.358 . S
C837 H843 0.930 . S
C838 C836 1.353 . S
C838 C841 1.348 . S
C838 H876 0.929 . S
N839 Li794 1.990 . S
N839 C836 1.314 . S
N839 C837 1.279 . S
C840 C837 1.358 . S
C840 C841 1.356 . S
C840 H877 0.930 . S
C841 C838 1.348 . S
C841 C840 1.356 . S
H842 C836 0.930 . S
H843 C837 0.930 . S
C844 N845 1.314 . S
C844 C846 1.353 . S
C844 H850 0.930 . S
N845 Li795 1.990 . S
N845 C844 1.314 . S
N845 C848 1.279 . S
C846 C844 1.353 . S
C846 C849 1.348 . S
C846 H878 0.929 . S
C847 C848 1.358 . S
C847 C849 1.356 . S
C847 H879 0.930 . S
C848 N845 1.279 . S
C848 C847 1.358 . S
C848 H851 0.930 . S
C849 C846 1.348 . S
C849 C847 1.356 . S
H850 C844 0.930 . S
H851 C848 0.930 . S
O852 Li792 1.956 . S
O852 Li793 1.970 . S
O852 Li794 1.961 . S
O852 C796 1.325 . S
O853 Li792 1.970 . S
O853 Li793 1.956 . S
O853 Li795 1.961 . S
O853 C802 1.325 . S
O854 Li792 1.961 . S
O854 Li794 1.956 . S
O854 Li795 1.970 . S
O854 C824 1.325 . S
O855 Li793 1.961 . S
O855 Li794 1.970 . S
O855 Li795 1.956 . S
O855 C830 1.325 . S
H856 C798 0.929 . S
H857 C799 0.930 . S
H858 C800 0.930 . S
H859 C801 0.930 . S
H860 C803 0.930 . S
H861 C805 0.929 . S
H862 C806 0.930 . S
H863 C807 0.930 . S
H864 C810 0.930 . S
H865 C813 0.929 . S
H866 C818 0.929 . S
H867 C819 0.930 . S
H868 C826 0.929 . S
H869 C827 0.930 . S
H870 C828 0.930 . S
H871 C829 0.930 . S
H872 C831 0.929 . S
H873 C832 0.930 . S
H874 C833 0.930 . S
H875 C834 0.930 . S
H876 C838 0.929 . S
H877 C840 0.930 . S
H878 C846 0.929 . S
H879 C847 0.930 . S
Li880 N897 1.990 . S
Li880 O940 1.956 . S
Li880 O941 1.970 . S
Li880 O942 1.961 . S
Li881 N905 1.990 . S
Li881 O940 1.970 . S
Li881 O941 1.956 . S
Li881 O943 1.961 . S
Li882 N927 1.990 . S
Li882 O940 1.961 . S
Li882 O942 1.956 . S
Li882 O943 1.970 . S
Li883 N933 1.990 . S
Li883 O941 1.961 . S
Li883 O942 1.970 . S
Li883 O943 1.956 . S
C884 C886 1.348 . S
C884 C887 1.356 . S
C884 O940 1.325 . S
N885 C888 1.314 . S
N885 C889 1.279 . S
C886 C884 1.348 . S
C886 C888 1.353 . S
C886 H944 0.929 . S
C887 C884 1.356 . S
C887 C889 1.358 . S
C887 H945 0.930 . S
C888 N885 1.314 . S
C888 C886 1.353 . S
C888 H946 0.930 . S
C889 N885 1.279 . S
C889 C887 1.358 . S
C889 H947 0.930 . S
C890 C893 1.348 . S
C890 C894 1.356 . S
C890 O941 1.325 . S
C891 N892 1.279 . S
C891 C894 1.358 1_554 S
C891 H948 0.930 . S
N892 C891 1.279 . S
N892 C895 1.314 . S
C893 C890 1.348 . S
C893 C895 1.353 1_556 S
C893 H949 0.929 . S
C894 C890 1.356 . S
C894 C891 1.358 1_556 S
C894 H950 0.930 . S
C895 N892 1.314 . S
C895 C893 1.353 1_554 S
C895 H951 0.930 . S
C896 N897 1.314 . S
C896 C901 1.353 . S
C896 H902 0.930 . S
N897 Li880 1.990 . S
N897 C896 1.314 . S
N897 C899 1.279 . S
C898 C899 1.358 . S
C898 C900 1.356 . S
C898 H952 0.930 . S
C899 N897 1.279 . S
C899 C898 1.358 . S
C899 H903 0.930 . S
C900 C898 1.356 . S
C900 C901 1.348 . S
C901 C896 1.353 . S
C901 C900 1.348 . S
C901 H953 0.929 . S
H902 C896 0.930 . S
H903 C899 0.930 . S
C904 N905 1.314 . S
C904 C906 1.353 . S
C904 H910 0.930 . S
N905 Li881 1.990 . S
N905 C904 1.314 . S
N905 C908 1.279 . S
C906 C904 1.353 . S
C906 C909 1.348 . S
C906 H954 0.929 . S
C907 C908 1.358 . S
C907 C909 1.356 . S
C907 H955 0.930 1_556 S
C908 N905 1.279 . S
C908 C907 1.358 . S
C908 H911 0.930 . S
C909 C906 1.348 . S
C909 C907 1.356 . S
H910 C904 0.930 . S
H911 C908 0.930 . S
C912 C914 1.348 . S
C912 C915 1.356 . S
C912 O942 1.325 . S
N913 C916 1.314 . S
N913 C917 1.279 . S
C914 C912 1.348 . S
C914 C916 1.353 . S
C914 H956 0.929 . S
C915 C912 1.356 . S
C915 C917 1.358 . S
C915 H957 0.930 . S
C916 N913 1.314 . S
C916 C914 1.353 . S
C916 H958 0.930 . S
C917 N913 1.279 . S
C917 C915 1.358 . S
C917 H959 0.930 . S
C918 C919 1.348 . S
C918 C920 1.356 . S
C918 O943 1.325 . S
C919 C918 1.348 . S
C919 C921 1.353 . S
C919 H960 0.929 . S
C920 C918 1.356 . S
C920 C922 1.358 . S
C920 H961 0.930 . S
C921 C919 1.353 . S
C921 N923 1.314 . S
C921 H962 0.930 . S
C922 C920 1.358 . S
C922 N923 1.279 . S
C922 H963 0.930 . S
N923 C921 1.314 . S
N923 C922 1.279 . S
C924 C926 1.353 . S
C924 N927 1.314 . S
C924 H930 0.930 . S
C925 N927 1.279 . S
C925 C928 1.358 . S
C925 H931 0.930 . S
C926 C924 1.353 . S
C926 C929 1.348 . S
C926 H964 0.929 . S
N927 Li882 1.990 . S
N927 C924 1.314 . S
N927 C925 1.279 . S
C928 C925 1.358 . S
C928 C929 1.356 . S
C928 H965 0.930 . S
C929 C926 1.348 . S
C929 C928 1.356 . S
H930 C924 0.930 . S
H931 C925 0.930 . S
C932 N933 1.314 . S
C932 C934 1.353 . S
C932 H938 0.930 . S
N933 Li883 1.990 . S
N933 C932 1.314 . S
N933 C936 1.279 . S
C934 C932 1.353 . S
C934 C937 1.348 . S
C934 H966 0.929 . S
C935 C936 1.358 . S
C935 C937 1.356 . S
C935 H967 0.930 . S
C936 N933 1.279 . S
C936 C935 1.358 . S
C936 H939 0.930 . S
C937 C934 1.348 . S
C937 C935 1.356 . S
H938 C932 0.930 . S
H939 C936 0.930 . S
O940 Li880 1.956 . S
O940 Li881 1.970 . S
O940 Li882 1.961 . S
O940 C884 1.325 . S
O941 Li880 1.970 . S
O941 Li881 1.956 . S
O941 Li883 1.961 . S
O941 C890 1.325 . S
O942 Li880 1.961 . S
O942 Li882 1.956 . S
O942 Li883 1.970 . S
O942 C912 1.325 . S
O943 Li881 1.961 . S
O943 Li882 1.970 . S
O943 Li883 1.956 . S
O943 C918 1.325 . S
H944 C886 0.929 . S
H945 C887 0.930 . S
H946 C888 0.930 . S
H947 C889 0.930 . S
H948 C891 0.930 . S
H949 C893 0.929 . S
H950 C894 0.930 . S
H951 C895 0.930 . S
H952 C898 0.930 . S
H953 C901 0.929 . S
H954 C906 0.929 . S
H955 C907 0.930 1_554 S
H956 C914 0.929 . S
H957 C915 0.930 . S
H958 C916 0.930 . S
H959 C917 0.930 . S
H960 C919 0.929 . S
H961 C920 0.930 . S
H962 C921 0.930 . S
H963 C922 0.930 . S
H964 C926 0.929 . S
H965 C928 0.930 . S
H966 C934 0.929 . S
H967 C935 0.930 . S
Li968 N985 1.990 . S
Li968 O1028 1.956 . S
Li968 O1029 1.970 . S
Li968 O1030 1.961 . S
Li969 N993 1.990 . S
Li969 O1028 1.970 . S
Li969 O1029 1.956 . S
Li969 O1031 1.961 . S
Li970 N1015 1.990 . S
Li970 O1028 1.961 . S
Li970 O1030 1.956 . S
Li970 O1031 1.970 . S
Li971 N1021 1.990 . S
Li971 O1029 1.961 . S
Li971 O1030 1.970 . S
Li971 O1031 1.956 . S
C972 C974 1.348 . S
C972 C975 1.356 . S
C972 O1028 1.325 . S
N973 C976 1.314 . S
N973 C977 1.279 . S
C974 C972 1.348 . S
C974 C976 1.353 . S
C974 H1032 0.929 . S
C975 C972 1.356 . S
C975 C977 1.358 . S
C975 H1033 0.930 . S
C976 N973 1.314 . S
C976 C974 1.353 . S
C976 H1034 0.930 . S
C977 N973 1.279 . S
C977 C975 1.358 . S
C977 H1035 0.930 . S
C978 C981 1.348 . S
C978 C982 1.356 . S
C978 O1029 1.325 . S
C979 N980 1.279 . S
C979 C982 1.358 . S
C979 H1036 0.930 . S
N980 C979 1.279 . S
N980 C983 1.314 . S
C981 C978 1.348 . S
C981 C983 1.353 . S
C981 H1037 0.929 . S
C982 C978 1.356 . S
C982 C979 1.358 . S
C982 H1038 0.930 . S
C983 N980 1.314 . S
C983 C981 1.353 . S
C983 H1039 0.930 . S
C984 N985 1.314 . S
C984 C989 1.353 . S
C984 H990 0.930 . S
N985 Li968 1.990 . S
N985 C984 1.314 . S
N985 C987 1.279 . S
C986 C987 1.358 . S
C986 C988 1.356 . S
C986 H1040 0.930 . S
C987 N985 1.279 . S
C987 C986 1.358 . S
C987 H991 0.930 . S
C988 C986 1.356 . S
C988 C989 1.348 . S
C989 C984 1.353 . S
C989 C988 1.348 . S
C989 H1041 0.929 . S
H990 C984 0.930 . S
H991 C987 0.930 . S
C992 N993 1.314 . S
C992 C994 1.353 . S
C992 H998 0.930 . S
N993 Li969 1.990 . S
N993 C992 1.314 . S
N993 C996 1.279 . S
C994 C992 1.353 . S
C994 C997 1.348 . S
C994 H1042 0.929 . S
C995 C996 1.358 . S
C995 C997 1.356 . S
C995 H1043 0.930 . S
C996 N993 1.279 . S
C996 C995 1.358 . S
C996 H999 0.930 . S
C997 C994 1.348 . S
C997 C995 1.356 . S
H998 C992 0.930 . S
H999 C996 0.930 . S
C1000 C1002 1.348 . S
C1000 C1003 1.356 . S
C1000 O1030 1.325 . S
N1001 C1004 1.314 . S
N1001 C1005 1.279 . S
C1002 C1000 1.348 . S
C1002 C1004 1.353 . S
C1002 H1044 0.929 . S
C1003 C1000 1.356 . S
C1003 C1005 1.358 . S
C1003 H1045 0.930 . S
C1004 N1001 1.314 . S
C1004 C1002 1.353 . S
C1004 H1046 0.930 . S
C1005 N1001 1.279 . S
C1005 C1003 1.358 . S
C1005 H1047 0.930 . S
C1006 C1007 1.348 . S
C1006 C1008 1.356 . S
C1006 O1031 1.325 . S
C1007 C1006 1.348 . S
C1007 C1009 1.353 . S
C1007 H1048 0.929 . S
C1008 C1006 1.356 . S
C1008 C1010 1.358 . S
C1008 H1049 0.930 . S
C1009 C1007 1.353 . S
C1009 N1011 1.314 . S
C1009 H1050 0.930 . S
C1010 C1008 1.358 . S
C1010 N1011 1.279 . S
C1010 H1051 0.930 . S
N1011 C1009 1.314 . S
N1011 C1010 1.279 . S
C1012 C1014 1.353 . S
C1012 N1015 1.314 . S
C1012 H1018 0.930 . S
C1013 N1015 1.279 . S
C1013 C1016 1.358 . S
C1013 H1019 0.930 . S
C1014 C1012 1.353 . S
C1014 C1017 1.348 . S
C1014 H1052 0.929 . S
N1015 Li970 1.990 . S
N1015 C1012 1.314 . S
N1015 C1013 1.279 . S
C1016 C1013 1.358 . S
C1016 C1017 1.356 . S
C1016 H1053 0.930 . S
C1017 C1014 1.348 . S
C1017 C1016 1.356 . S
H1018 C1012 0.930 . S
H1019 C1013 0.930 . S
C1020 N1021 1.314 . S
C1020 C1022 1.353 . S
C1020 H1026 0.930 . S
N1021 Li971 1.990 . S
N1021 C1020 1.314 . S
N1021 C1024 1.279 . S
C1022 C1020 1.353 . S
C1022 C1025 1.348 . S
C1022 H1054 0.929 . S
C1023 C1024 1.358 . S
C1023 C1025 1.356 . S
C1023 H1055 0.930 . S
C1024 N1021 1.279 . S
C1024 C1023 1.358 . S
C1024 H1027 0.930 . S
C1025 C1022 1.348 . S
C1025 C1023 1.356 . S
H1026 C1020 0.930 . S
H1027 C1024 0.930 . S
O1028 Li968 1.956 . S
O1028 Li969 1.970 . S
O1028 Li970 1.961 . S
O1028 C972 1.325 . S
O1029 Li968 1.970 . S
O1029 Li969 1.956 . S
O1029 Li971 1.961 . S
O1029 C978 1.325 . S
O1030 Li968 1.961 . S
O1030 Li970 1.956 . S
O1030 Li971 1.970 . S
O1030 C1000 1.325 . S
O1031 Li969 1.961 . S
O1031 Li970 1.970 . S
O1031 Li971 1.956 . S
O1031 C1006 1.325 . S
H1032 C974 0.929 . S
H1033 C975 0.930 . S
H1034 C976 0.930 . S
H1035 C977 0.930 . S
H1036 C979 0.930 . S
H1037 C981 0.929 . S
H1038 C982 0.930 . S
H1039 C983 0.930 . S
H1040 C986 0.930 . S
H1041 C989 0.929 . S
H1042 C994 0.929 . S
H1043 C995 0.930 . S
H1044 C1002 0.929 . S
H1045 C1003 0.930 . S
H1046 C1004 0.930 . S
H1047 C1005 0.930 . S
H1048 C1007 0.929 . S
H1049 C1008 0.930 . S
H1050 C1009 0.930 . S
H1051 C1010 0.930 . S
H1052 C1014 0.929 . S
H1053 C1016 0.930 . S
H1054 C1022 0.929 . S
H1055 C1023 0.930 . S
Li1056 N1073 1.990 . S
Li1056 O1116 1.956 . S
Li1056 O1117 1.970 . S
Li1056 O1118 1.961 . S
Li1057 N1081 1.990 . S
Li1057 O1116 1.970 . S
Li1057 O1117 1.956 . S
Li1057 O1119 1.961 . S
Li1058 N1103 1.990 . S
Li1058 O1116 1.961 . S
Li1058 O1118 1.956 . S
Li1058 O1119 1.970 . S
Li1059 N1109 1.990 . S
Li1059 O1117 1.961 . S
Li1059 O1118 1.970 . S
Li1059 O1119 1.956 . S
C1060 C1062 1.348 . S
C1060 C1063 1.356 . S
C1060 O1116 1.325 . S
N1061 C1064 1.314 . S
N1061 C1065 1.279 . S
C1062 C1060 1.348 . S
C1062 C1064 1.353 . S
C1062 H1120 0.929 . S
C1063 C1060 1.356 . S
C1063 C1065 1.358 . S
C1063 H1121 0.930 . S
C1064 N1061 1.314 . S
C1064 C1062 1.353 . S
C1064 H1122 0.930 . S
C1065 N1061 1.279 . S
C1065 C1063 1.358 . S
C1065 H1123 0.930 . S
C1066 C1069 1.348 . S
C1066 C1070 1.356 . S
C1066 O1117 1.325 . S
C1067 N1068 1.279 . S
C1067 C1070 1.358 1_554 S
C1067 H1124 0.930 . S
N1068 C1067 1.279 . S
N1068 C1071 1.314 . S
C1069 C1066 1.348 . S
C1069 C1071 1.353 1_556 S
C1069 H1125 0.929 . S
C1070 C1066 1.356 . S
C1070 C1067 1.358 1_556 S
C1070 H1126 0.930 . S
C1071 N1068 1.314 . S
C1071 C1069 1.353 1_554 S
C1071 H1127 0.930 . S
C1072 N1073 1.314 . S
C1072 C1077 1.353 . S
C1072 H1078 0.930 . S
N1073 Li1056 1.990 . S
N1073 C1072 1.314 . S
N1073 C1075 1.279 . S
C1074 C1075 1.358 . S
C1074 C1076 1.356 . S
C1074 H1128 0.930 . S
C1075 N1073 1.279 . S
C1075 C1074 1.358 . S
C1075 H1079 0.930 . S
C1076 C1074 1.356 . S
C1076 C1077 1.348 . S
C1077 C1072 1.353 . S
C1077 C1076 1.348 . S
C1077 H1129 0.929 . S
H1078 C1072 0.930 . S
H1079 C1075 0.930 . S
C1080 N1081 1.314 . S
C1080 C1082 1.353 . S
C1080 H1086 0.930 . S
N1081 Li1057 1.990 . S
N1081 C1080 1.314 . S
N1081 C1084 1.279 . S
C1082 C1080 1.353 . S
C1082 C1085 1.348 . S
C1082 H1130 0.929 . S
C1083 C1084 1.358 . S
C1083 C1085 1.356 . S
C1083 H1131 0.930 . S
C1084 N1081 1.279 . S
C1084 C1083 1.358 . S
C1084 H1087 0.930 . S
C1085 C1082 1.348 . S
C1085 C1083 1.356 . S
H1086 C1080 0.930 . S
H1087 C1084 0.930 . S
C1088 C1090 1.348 . S
C1088 C1091 1.356 . S
C1088 O1118 1.325 . S
N1089 C1092 1.314 . S
N1089 C1093 1.279 . S
C1090 C1088 1.348 . S
C1090 C1092 1.353 . S
C1090 H1132 0.929 . S
C1091 C1088 1.356 . S
C1091 C1093 1.358 . S
C1091 H1133 0.930 . S
C1092 N1089 1.314 . S
C1092 C1090 1.353 . S
C1092 H1134 0.930 . S
C1093 N1089 1.279 . S
C1093 C1091 1.358 . S
C1093 H1135 0.930 . S
C1094 C1095 1.348 . S
C1094 C1096 1.356 . S
C1094 O1119 1.325 . S
C1095 C1094 1.348 . S
C1095 C1097 1.353 . S
C1095 H1136 0.929 . S
C1096 C1094 1.356 . S
C1096 C1098 1.358 . S
C1096 H1137 0.930 . S
C1097 C1095 1.353 . S
C1097 N1099 1.314 . S
C1097 H1138 0.930 . S
C1098 C1096 1.358 . S
C1098 N1099 1.279 . S
C1098 H1139 0.930 . S
N1099 C1097 1.314 . S
N1099 C1098 1.279 . S
C1100 C1102 1.353 . S
C1100 N1103 1.314 . S
C1100 H1106 0.930 . S
C1101 N1103 1.279 . S
C1101 C1104 1.358 . S
C1101 H1107 0.930 . S
C1102 C1100 1.353 . S
C1102 C1105 1.348 . S
C1102 H1140 0.929 . S
N1103 Li1058 1.990 . S
N1103 C1100 1.314 . S
N1103 C1101 1.279 . S
C1104 C1101 1.358 . S
C1104 C1105 1.356 . S
C1104 H1141 0.930 . S
C1105 C1102 1.348 . S
C1105 C1104 1.356 . S
H1106 C1100 0.930 . S
H1107 C1101 0.930 . S
C1108 N1109 1.314 . S
C1108 C1110 1.353 . S
C1108 H1114 0.930 . S
N1109 Li1059 1.990 . S
N1109 C1108 1.314 . S
N1109 C1112 1.279 . S
C1110 C1108 1.353 . S
C1110 C1113 1.348 . S
C1110 H1142 0.941 . S
C1111 C1112 1.358 . S
C1111 C1113 1.356 . S
C1111 H1143 0.930 . S
C1112 N1109 1.279 . S
C1112 C1111 1.358 . S
C1112 H1115 0.930 . S
C1113 C1110 1.348 . S
C1113 C1111 1.356 . S
H1114 C1108 0.930 . S
H1115 C1112 0.930 . S
O1116 Li1056 1.956 . S
O1116 Li1057 1.970 . S
O1116 Li1058 1.961 . S
O1116 C1060 1.325 . S
O1117 Li1056 1.970 . S
O1117 Li1057 1.956 . S
O1117 Li1059 1.961 . S
O1117 C1066 1.325 . S
O1118 Li1056 1.961 . S
O1118 Li1058 1.956 . S
O1118 Li1059 1.970 . S
O1118 C1088 1.325 . S
O1119 Li1057 1.961 . S
O1119 Li1058 1.970 . S
O1119 Li1059 1.956 . S
O1119 C1094 1.325 . S
H1120 C1062 0.929 . S
H1121 C1063 0.930 . S
H1122 C1064 0.930 . S
H1123 C1065 0.930 . S
H1124 C1067 0.930 . S
H1125 C1069 0.929 . S
H1126 C1070 0.930 . S
H1127 C1071 0.930 . S
H1128 C1074 0.930 . S
H1129 C1077 0.929 . S
H1130 C1082 0.929 . S
H1131 C1083 0.930 . S
H1132 C1090 0.929 . S
H1133 C1091 0.930 . S
H1134 C1092 0.930 . S
H1135 C1093 0.930 . S
H1136 C1095 0.929 . S
H1137 C1096 0.930 . S
H1138 C1097 0.930 . S
H1139 C1098 0.930 . S
H1140 C1102 0.929 . S
H1141 C1104 0.930 . S
H1142 C1110 0.941 . S
H1143 C1111 0.930 . S
Li1144 N1161 1.990 . S
Li1144 O1204 1.956 . S
Li1144 O1205 1.970 . S
Li1144 O1206 1.961 . S
Li1145 N1169 1.990 . S
Li1145 O1204 1.970 . S
Li1145 O1205 1.956 . S
Li1145 O1207 1.961 . S
Li1146 N1191 1.990 . S
Li1146 O1204 1.961 . S
Li1146 O1206 1.956 . S
Li1146 O1207 1.970 . S
Li1147 N1197 1.990 . S
Li1147 O1205 1.961 . S
Li1147 O1206 1.970 . S
Li1147 O1207 1.956 . S
C1148 C1150 1.348 . S
C1148 C1151 1.356 . S
C1148 O1204 1.325 . S
N1149 C1152 1.314 . S
N1149 C1153 1.279 . S
C1150 C1148 1.348 . S
C1150 C1152 1.353 . S
C1150 H1208 0.929 . S
C1151 C1148 1.356 . S
C1151 C1153 1.358 . S
C1151 H1209 0.930 . S
C1152 N1149 1.314 . S
C1152 C1150 1.353 . S
C1152 H1210 0.930 . S
C1153 N1149 1.279 . S
C1153 C1151 1.358 . S
C1153 H1211 0.930 . S
C1154 C1157 1.348 . S
C1154 C1158 1.356 . S
C1154 O1205 1.325 . S
C1155 N1156 1.279 . S
C1155 C1158 1.358 . S
C1155 H1212 0.930 . S
N1156 C1155 1.279 . S
N1156 C1159 1.314 . S
C1157 C1154 1.348 . S
C1157 C1159 1.353 . S
C1157 H1213 0.929 . S
C1158 C1154 1.356 . S
C1158 C1155 1.358 . S
C1158 H1214 0.930 . S
C1159 N1156 1.314 . S
C1159 C1157 1.353 . S
C1159 H1215 0.930 . S
C1160 N1161 1.314 . S
C1160 C1165 1.353 . S
C1160 H1166 0.930 . S
N1161 Li1144 1.990 . S
N1161 C1160 1.314 . S
N1161 C1163 1.279 . S
C1162 C1163 1.358 . S
C1162 C1164 1.356 . S
C1162 H1216 0.930 . S
C1163 N1161 1.279 . S
C1163 C1162 1.358 . S
C1163 H1167 0.930 . S
C1164 C1162 1.356 . S
C1164 C1165 1.348 . S
C1165 C1160 1.353 . S
C1165 C1164 1.348 . S
C1165 H1217 0.929 . S
H1166 C1160 0.930 . S
H1167 C1163 0.930 . S
C1168 N1169 1.314 . S
C1168 C1170 1.353 . S
C1168 H1174 0.930 . S
N1169 Li1145 1.990 . S
N1169 C1168 1.314 . S
N1169 C1172 1.279 . S
C1170 C1168 1.353 . S
C1170 C1173 1.348 . S
C1170 H1218 0.929 . S
C1171 C1172 1.358 . S
C1171 C1173 1.356 . S
C1171 H1219 0.930 . S
C1172 N1169 1.279 . S
C1172 C1171 1.358 . S
C1172 H1175 0.930 . S
C1173 C1170 1.348 . S
C1173 C1171 1.356 . S
H1174 C1168 0.930 . S
H1175 C1172 0.930 . S
C1176 C1178 1.348 . S
C1176 C1179 1.356 . S
C1176 O1206 1.325 . S
N1177 C1180 1.314 . S
N1177 C1181 1.279 . S
C1178 C1176 1.348 . S
C1178 C1180 1.353 . S
C1178 H1220 0.929 . S
C1179 C1176 1.356 . S
C1179 C1181 1.358 . S
C1179 H1221 0.930 . S
C1180 N1177 1.314 . S
C1180 C1178 1.353 . S
C1180 H1222 0.930 . S
C1181 N1177 1.279 . S
C1181 C1179 1.358 . S
C1181 H1223 0.930 . S
C1182 C1183 1.348 . S
C1182 C1184 1.356 . S
C1182 O1207 1.325 . S
C1183 C1182 1.348 . S
C1183 C1185 1.353 . S
C1183 H1224 0.929 . S
C1184 C1182 1.356 . S
C1184 C1186 1.358 . S
C1184 H1225 0.930 . S
C1185 C1183 1.353 . S
C1185 N1187 1.314 . S
C1185 H1226 0.930 . S
C1186 C1184 1.358 . S
C1186 N1187 1.279 . S
C1186 H1227 0.930 . S
N1187 C1185 1.314 . S
N1187 C1186 1.279 . S
C1188 C1190 1.353 . S
C1188 N1191 1.314 . S
C1188 H1194 0.930 . S
C1189 N1191 1.279 . S
C1189 C1192 1.358 . S
C1189 H1195 0.930 . S
C1190 C1188 1.353 . S
C1190 C1193 1.348 . S
C1190 H1228 0.929 . S
N1191 Li1146 1.990 . S
N1191 C1188 1.314 . S
N1191 C1189 1.279 . S
C1192 C1189 1.358 . S
C1192 C1193 1.356 . S
C1192 H1229 0.930 . S
C1193 C1190 1.348 . S
C1193 C1192 1.356 . S
H1194 C1188 0.930 . S
H1195 C1189 0.930 . S
C1196 N1197 1.314 . S
C1196 C1198 1.353 . S
C1196 H1202 0.930 . S
N1197 Li1147 1.990 . S
N1197 C1196 1.314 . S
N1197 C1200 1.279 . S
C1198 C1196 1.353 . S
C1198 C1201 1.348 . S
C1198 H1230 0.929 . S
C1199 C1200 1.358 . S
C1199 C1201 1.356 . S
C1199 H1231 0.930 . S
C1200 N1197 1.279 . S
C1200 C1199 1.358 . S
C1200 H1203 0.930 . S
C1201 C1198 1.348 . S
C1201 C1199 1.356 . S
H1202 C1196 0.930 . S
H1203 C1200 0.930 . S
O1204 Li1144 1.956 . S
O1204 Li1145 1.970 . S
O1204 Li1146 1.961 . S
O1204 C1148 1.325 . S
O1205 Li1144 1.970 . S
O1205 Li1145 1.956 . S
O1205 Li1147 1.961 . S
O1205 C1154 1.325 . S
O1206 Li1144 1.961 . S
O1206 Li1146 1.956 . S
O1206 Li1147 1.970 . S
O1206 C1176 1.325 . S
O1207 Li1145 1.961 . S
O1207 Li1146 1.970 . S
O1207 Li1147 1.956 . S
O1207 C1182 1.325 . S
H1208 C1150 0.929 . S
H1209 C1151 0.930 . S
H1210 C1152 0.930 . S
H1211 C1153 0.930 . S
H1212 C1155 0.930 . S
H1213 C1157 0.929 . S
H1214 C1158 0.930 . S
H1215 C1159 0.930 . S
H1216 C1162 0.930 . S
H1217 C1165 0.929 . S
H1218 C1170 0.929 . S
H1219 C1171 0.930 . S
H1220 C1178 0.929 . S
H1221 C1179 0.930 . S
H1222 C1180 0.930 . S
H1223 C1181 0.930 . S
H1224 C1183 0.929 . S
H1225 C1184 0.930 . S
H1226 C1185 0.930 . S
H1227 C1186 0.930 . S
H1228 C1190 0.929 . S
H1229 C1192 0.930 . S
H1230 C1198 0.929 . S
H1231 C1199 0.930 . S
Li1232 N1249 1.990 . S
Li1232 O1292 1.956 . S
Li1232 O1293 1.970 . S
Li1232 O1294 1.961 . S
Li1233 N1257 1.990 . S
Li1233 O1292 1.970 . S
Li1233 O1293 1.956 . S
Li1233 O1295 1.961 . S
Li1234 N1279 1.990 . S
Li1234 O1292 1.961 . S
Li1234 O1294 1.956 . S
Li1234 O1295 1.970 . S
Li1235 N1285 1.990 . S
Li1235 O1293 1.961 . S
Li1235 O1294 1.970 . S
Li1235 O1295 1.956 . S
C1236 C1238 1.348 . S
C1236 C1239 1.356 . S
C1236 O1292 1.325 . S
N1237 C1240 1.314 . S
N1237 C1241 1.279 . S
C1238 C1236 1.348 . S
C1238 C1240 1.353 . S
C1238 H1296 0.929 . S
C1239 C1236 1.356 . S
C1239 C1241 1.358 . S
C1239 H1297 0.930 . S
C1240 N1237 1.314 . S
C1240 C1238 1.353 . S
C1240 H1298 0.930 . S
C1241 N1237 1.279 . S
C1241 C1239 1.358 . S
C1241 H1299 0.930 . S
C1242 C1245 1.348 . S
C1242 C1246 1.356 . S
C1242 O1293 1.325 . S
C1243 N1244 1.279 . S
C1243 C1246 1.358 1_554 S
C1243 H1300 0.930 . S
N1244 C1243 1.279 . S
N1244 C1247 1.314 . S
C1245 C1242 1.348 . S
C1245 C1247 1.353 1_556 S
C1245 H1301 0.929 . S
C1246 C1242 1.356 . S
C1246 C1243 1.358 1_556 S
C1246 H1302 0.930 . S
C1247 N1244 1.314 . S
C1247 C1245 1.353 1_554 S
C1247 H1303 0.930 . S
C1248 N1249 1.314 . S
C1248 C1253 1.353 . S
C1248 H1254 0.930 . S
N1249 Li1232 1.990 . S
N1249 C1248 1.314 . S
N1249 C1251 1.279 . S
C1250 C1251 1.358 . S
C1250 C1252 1.356 . S
C1250 H1304 0.930 . S
C1251 N1249 1.279 . S
C1251 C1250 1.358 . S
C1251 H1255 0.930 . S
C1252 C1250 1.356 . S
C1252 C1253 1.348 . S
C1253 C1248 1.353 . S
C1253 C1252 1.348 . S
C1253 H1305 0.929 . S
H1254 C1248 0.930 . S
H1255 C1251 0.930 . S
C1256 N1257 1.314 . S
C1256 C1258 1.353 . S
C1256 H1262 0.930 . S
N1257 Li1233 1.990 . S
N1257 C1256 1.314 . S
N1257 C1260 1.279 . S
C1258 C1256 1.353 . S
C1258 C1261 1.348 . S
C1258 H1306 0.929 . S
C1259 C1260 1.358 . S
C1259 C1261 1.356 . S
C1259 H1307 0.930 . S
C1260 N1257 1.279 . S
C1260 C1259 1.358 . S
C1260 H1263 0.930 . S
C1261 C1258 1.348 . S
C1261 C1259 1.356 . S
H1262 C1256 0.930 . S
H1263 C1260 0.930 . S
C1264 C1266 1.348 . S
C1264 C1267 1.356 . S
C1264 O1294 1.325 . S
N1265 C1268 1.314 . S
N1265 C1269 1.279 . S
C1266 C1264 1.348 . S
C1266 C1268 1.353 . S
C1266 H1308 0.929 . S
C1267 C1264 1.356 . S
C1267 C1269 1.358 . S
C1267 H1309 0.930 . S
C1268 N1265 1.314 . S
C1268 C1266 1.353 . S
C1268 H1310 0.930 . S
C1269 N1265 1.279 . S
C1269 C1267 1.358 . S
C1269 H1311 0.930 . S
C1270 C1271 1.348 . S
C1270 C1272 1.356 . S
C1270 O1295 1.325 . S
C1271 C1270 1.348 . S
C1271 C1273 1.353 . S
C1271 H1312 0.929 . S
C1272 C1270 1.356 . S
C1272 C1274 1.358 . S
C1272 H1313 0.930 . S
C1273 C1271 1.353 . S
C1273 N1275 1.314 . S
C1273 H1314 0.930 . S
C1274 C1272 1.358 . S
C1274 N1275 1.279 . S
C1274 H1315 0.930 . S
N1275 C1273 1.314 . S
N1275 C1274 1.279 . S
C1276 C1278 1.353 . S
C1276 N1279 1.314 . S
C1276 H1282 0.930 . S
C1277 N1279 1.279 . S
C1277 C1280 1.358 . S
C1277 H1283 0.930 . S
C1278 C1276 1.353 . S
C1278 C1281 1.348 . S
C1278 H1316 0.929 . S
N1279 Li1234 1.990 . S
N1279 C1276 1.314 . S
N1279 C1277 1.279 . S
C1280 C1277 1.358 . S
C1280 C1281 1.356 . S
C1280 H1317 0.930 . S
C1281 C1278 1.348 . S
C1281 C1280 1.356 . S
H1282 C1276 0.930 . S
H1283 C1277 0.930 . S
C1284 N1285 1.314 . S
C1284 C1286 1.353 . S
C1284 H1290 0.930 . S
N1285 Li1235 1.990 . S
N1285 C1284 1.314 . S
N1285 C1288 1.279 . S
C1286 C1284 1.353 . S
C1286 C1289 1.348 . S
C1286 H1318 0.940 . S
C1287 C1288 1.358 . S
C1287 C1289 1.356 . S
C1287 H1319 0.930 . S
C1288 N1285 1.279 . S
C1288 C1287 1.358 . S
C1288 H1291 0.930 . S
C1289 C1286 1.348 . S
C1289 C1287 1.356 . S
H1290 C1284 0.930 . S
H1291 C1288 0.930 . S
O1292 Li1232 1.956 . S
O1292 Li1233 1.970 . S
O1292 Li1234 1.961 . S
O1292 C1236 1.325 . S
O1293 Li1232 1.970 . S
O1293 Li1233 1.956 . S
O1293 Li1235 1.961 . S
O1293 C1242 1.325 . S
O1294 Li1232 1.961 . S
O1294 Li1234 1.956 . S
O1294 Li1235 1.970 . S
O1294 C1264 1.325 . S
O1295 Li1233 1.961 . S
O1295 Li1234 1.970 . S
O1295 Li1235 1.956 . S
O1295 C1270 1.325 . S
H1296 C1238 0.929 . S
H1297 C1239 0.930 . S
H1298 C1240 0.930 . S
H1299 C1241 0.930 . S
H1300 C1243 0.930 . S
H1301 C1245 0.929 . S
H1302 C1246 0.930 . S
H1303 C1247 0.930 . S
H1304 C1250 0.930 . S
H1305 C1253 0.929 . S
H1306 C1258 0.929 . S
H1307 C1259 0.930 . S
H1308 C1266 0.929 . S
H1309 C1267 0.930 . S
H1310 C1268 0.930 . S
H1311 C1269 0.930 . S
H1312 C1271 0.929 . S
H1313 C1272 0.930 . S
H1314 C1273 0.930 . S
H1315 C1274 0.930 . S
H1316 C1278 0.929 . S
H1317 C1280 0.930 . S
H1318 C1286 0.940 . S
H1319 C1287 0.930 . S
Li1320 N1337 1.990 . S
Li1320 O1380 1.956 . S
Li1320 O1381 1.970 . S
Li1320 O1382 1.961 . S
Li1321 N1345 1.990 . S
Li1321 O1380 1.970 . S
Li1321 O1381 1.956 . S
Li1321 O1383 1.961 . S
Li1322 N1367 1.990 . S
Li1322 O1380 1.961 . S
Li1322 O1382 1.956 . S
Li1322 O1383 1.970 . S
Li1323 N1373 1.990 . S
Li1323 O1381 1.961 . S
Li1323 O1382 1.970 . S
Li1323 O1383 1.956 . S
C1324 C1326 1.348 . S
C1324 C1327 1.356 . S
C1324 O1380 1.325 . S
N1325 C1328 1.314 . S
N1325 C1329 1.279 . S
C1326 C1324 1.348 . S
C1326 C1328 1.353 . S
C1326 H1384 0.929 . S
C1327 C1324 1.356 . S
C1327 C1329 1.358 . S
C1327 H1385 0.930 . S
C1328 N1325 1.314 . S
C1328 C1326 1.353 . S
C1328 H1386 0.930 . S
C1329 N1325 1.279 . S
C1329 C1327 1.358 . S
C1329 H1387 0.930 . S
C1330 C1333 1.348 . S
C1330 C1334 1.356 . S
C1330 O1381 1.325 . S
C1331 N1332 1.279 . S
C1331 C1334 1.358 . S
C1331 H1388 0.930 . S
N1332 C1331 1.279 . S
N1332 C1335 1.314 . S
C1333 C1330 1.348 . S
C1333 C1335 1.353 . S
C1333 H1389 0.929 . S
C1334 C1330 1.356 . S
C1334 C1331 1.358 . S
C1334 H1390 0.930 . S
C1335 N1332 1.314 . S
C1335 C1333 1.353 . S
C1335 H1391 0.930 . S
C1336 N1337 1.314 . S
C1336 C1341 1.353 . S
C1336 H1342 0.930 . S
N1337 Li1320 1.990 . S
N1337 C1336 1.314 . S
N1337 C1339 1.279 . S
C1338 C1339 1.358 . S
C1338 C1340 1.356 . S
C1338 H1392 0.930 . S
C1339 N1337 1.279 . S
C1339 C1338 1.358 . S
C1339 H1343 0.930 . S
C1340 C1338 1.356 . S
C1340 C1341 1.348 . S
C1341 C1336 1.353 . S
C1341 C1340 1.348 . S
C1341 H1393 0.929 . S
H1342 C1336 0.930 . S
H1343 C1339 0.930 . S
C1344 N1345 1.314 . S
C1344 C1346 1.353 . S
C1344 H1350 0.930 . S
N1345 Li1321 1.990 . S
N1345 C1344 1.314 . S
N1345 C1348 1.279 . S
C1346 C1344 1.353 . S
C1346 C1349 1.348 . S
C1346 H1394 0.929 . S
C1347 C1348 1.358 . S
C1347 C1349 1.356 . S
C1347 H1395 0.930 . S
C1348 N1345 1.279 . S
C1348 C1347 1.358 . S
C1348 H1351 0.930 . S
C1349 C1346 1.348 . S
C1349 C1347 1.356 . S
H1350 C1344 0.930 . S
H1351 C1348 0.930 . S
C1352 C1354 1.348 . S
C1352 C1355 1.356 . S
C1352 O1382 1.325 . S
N1353 C1356 1.314 . S
N1353 C1357 1.279 . S
C1354 C1352 1.348 . S
C1354 C1356 1.353 . S
C1354 H1396 0.929 . S
C1355 C1352 1.356 . S
C1355 C1357 1.358 . S
C1355 H1397 0.930 . S
C1356 N1353 1.314 . S
C1356 C1354 1.353 . S
C1356 H1398 0.930 . S
C1357 N1353 1.279 . S
C1357 C1355 1.358 . S
C1357 H1399 0.930 . S
C1358 C1359 1.348 . S
C1358 C1360 1.356 . S
C1358 O1383 1.325 . S
C1359 C1358 1.348 . S
C1359 C1361 1.353 . S
C1359 H1400 0.929 . S
C1360 C1358 1.356 . S
C1360 C1362 1.358 . S
C1360 H1401 0.930 . S
C1361 C1359 1.353 . S
C1361 N1363 1.314 . S
C1361 H1402 0.930 . S
C1362 C1360 1.358 . S
C1362 N1363 1.279 . S
C1362 H1403 0.930 . S
N1363 C1361 1.314 . S
N1363 C1362 1.279 . S
C1364 C1366 1.353 . S
C1364 N1367 1.314 . S
C1364 H1370 0.930 . S
C1365 N1367 1.279 . S
C1365 C1368 1.358 . S
C1365 H1371 0.930 . S
C1366 C1364 1.353 . S
C1366 C1369 1.348 . S
C1366 H1404 0.929 . S
N1367 Li1322 1.990 . S
N1367 C1364 1.314 . S
N1367 C1365 1.279 . S
C1368 C1365 1.358 . S
C1368 C1369 1.356 . S
C1368 H1405 0.930 . S
C1369 C1366 1.348 . S
C1369 C1368 1.356 . S
H1370 C1364 0.930 . S
H1371 C1365 0.930 . S
C1372 N1373 1.314 . S
C1372 C1374 1.353 . S
C1372 H1378 0.930 . S
N1373 Li1323 1.990 . S
N1373 C1372 1.314 . S
N1373 C1376 1.279 . S
C1374 C1372 1.353 . S
C1374 C1377 1.348 . S
C1374 H1406 0.929 . S
C1375 C1376 1.358 . S
C1375 C1377 1.356 . S
C1375 H1407 0.930 . S
C1376 N1373 1.279 . S
C1376 C1375 1.358 . S
C1376 H1379 0.930 . S
C1377 C1374 1.348 . S
C1377 C1375 1.356 . S
H1378 C1372 0.930 . S
H1379 C1376 0.930 . S
O1380 Li1320 1.956 . S
O1380 Li1321 1.970 . S
O1380 Li1322 1.961 . S
O1380 C1324 1.325 . S
O1381 Li1320 1.970 . S
O1381 Li1321 1.956 . S
O1381 Li1323 1.961 . S
O1381 C1330 1.325 . S
O1382 Li1320 1.961 . S
O1382 Li1322 1.956 . S
O1382 Li1323 1.970 . S
O1382 C1352 1.325 . S
O1383 Li1321 1.961 . S
O1383 Li1322 1.970 . S
O1383 Li1323 1.956 . S
O1383 C1358 1.325 . S
H1384 C1326 0.929 . S
H1385 C1327 0.930 . S
H1386 C1328 0.930 . S
H1387 C1329 0.930 . S
H1388 C1331 0.930 . S
H1389 C1333 0.929 . S
H1390 C1334 0.930 . S
H1391 C1335 0.930 . S
H1392 C1338 0.930 . S
H1393 C1341 0.929 . S
H1394 C1346 0.929 . S
H1395 C1347 0.930 . S
H1396 C1354 0.929 . S
H1397 C1355 0.930 . S
H1398 C1356 0.930 . S
H1399 C1357 0.930 . S
H1400 C1359 0.929 . S
H1401 C1360 0.930 . S
H1402 C1361 0.930 . S
H1403 C1362 0.930 . S
H1404 C1366 0.929 . S
H1405 C1368 0.930 . S
H1406 C1374 0.929 . S
H1407 C1375 0.930 . S
Li1408 N1425 1.990 . S
Li1408 O1468 1.956 . S
Li1408 O1469 1.970 . S
Li1408 O1470 1.961 . S
Li1409 N1433 1.990 . S
Li1409 O1468 1.970 . S
Li1409 O1469 1.956 . S
Li1409 O1471 1.961 . S
Li1410 N1455 1.990 . S
Li1410 O1468 1.961 . S
Li1410 O1470 1.956 . S
Li1410 O1471 1.970 . S
Li1411 N1461 1.990 . S
Li1411 O1469 1.961 . S
Li1411 O1470 1.970 . S
Li1411 O1471 1.956 . S
C1412 C1414 1.348 . S
C1412 C1415 1.356 . S
C1412 O1468 1.325 . S
N1413 C1416 1.314 . S
N1413 C1417 1.279 . S
C1414 C1412 1.348 . S
C1414 C1416 1.353 . S
C1414 H1472 0.929 . S
C1415 C1412 1.356 . S
C1415 C1417 1.358 . S
C1415 H1473 0.930 . S
C1416 N1413 1.314 . S
C1416 C1414 1.353 . S
C1416 H1474 0.930 . S
C1417 N1413 1.279 . S
C1417 C1415 1.358 . S
C1417 H1475 0.930 . S
C1418 C1421 1.348 . S
C1418 C1422 1.356 . S
C1418 O1469 1.325 . S
C1419 N1420 1.279 . S
C1419 C1422 1.358 1_554 S
C1419 H1476 0.930 . S
N1420 C1419 1.279 . S
N1420 C1423 1.314 . S
C1421 C1418 1.348 . S
C1421 C1423 1.353 1_556 S
C1421 H1477 0.929 . S
C1422 C1418 1.356 . S
C1422 C1419 1.358 1_556 S
C1422 H1478 0.930 . S
C1423 N1420 1.314 . S
C1423 C1421 1.353 1_554 S
C1423 H1479 0.930 . S
C1424 N1425 1.314 . S
C1424 C1429 1.353 . S
C1424 H1430 0.930 . S
N1425 Li1408 1.990 . S
N1425 C1424 1.314 . S
N1425 C1427 1.279 . S
C1426 C1427 1.358 . S
C1426 C1428 1.356 . S
C1426 H1480 0.930 . S
C1427 N1425 1.279 . S
C1427 C1426 1.358 . S
C1427 H1431 0.930 . S
C1428 C1426 1.356 . S
C1428 C1429 1.348 . S
C1429 C1424 1.353 . S
C1429 C1428 1.348 . S
C1429 H1481 0.929 . S
H1430 C1424 0.930 . S
H1431 C1427 0.930 . S
C1432 N1433 1.314 . S
C1432 C1434 1.353 . S
C1432 H1438 0.930 . S
N1433 Li1409 1.990 . S
N1433 C1432 1.314 . S
N1433 C1436 1.279 . S
C1434 C1432 1.353 . S
C1434 C1437 1.348 . S
C1434 H1482 0.929 . S
C1435 C1436 1.358 . S
C1435 C1437 1.356 . S
C1435 H1483 0.930 . S
C1436 N1433 1.279 . S
C1436 C1435 1.358 . S
C1436 H1439 0.930 . S
C1437 C1434 1.348 . S
C1437 C1435 1.356 . S
H1438 C1432 0.930 . S
H1439 C1436 0.930 . S
C1440 C1442 1.348 . S
C1440 C1443 1.356 . S
C1440 O1470 1.325 . S
N1441 C1444 1.314 . S
N1441 C1445 1.279 . S
C1442 C1440 1.348 . S
C1442 C1444 1.353 . S
C1442 H1484 0.929 . S
C1443 C1440 1.356 . S
C1443 C1445 1.358 . S
C1443 H1485 0.930 . S
C1444 N1441 1.314 . S
C1444 C1442 1.353 . S
C1444 H1486 0.930 . S
C1445 N1441 1.279 . S
C1445 C1443 1.358 . S
C1445 H1487 0.930 . S
C1446 C1447 1.348 . S
C1446 C1448 1.356 . S
C1446 O1471 1.325 . S
C1447 C1446 1.348 . S
C1447 C1449 1.353 . S
C1447 H1488 0.929 . S
C1448 C1446 1.356 . S
C1448 C1450 1.358 . S
C1448 H1489 0.930 . S
C1449 C1447 1.353 . S
C1449 N1451 1.314 . S
C1449 H1490 0.930 . S
C1450 C1448 1.358 . S
C1450 N1451 1.279 . S
C1450 H1491 0.930 . S
N1451 C1449 1.314 . S
N1451 C1450 1.279 . S
C1452 C1454 1.353 . S
C1452 N1455 1.314 . S
C1452 H1458 0.930 . S
C1453 N1455 1.279 . S
C1453 C1456 1.358 . S
C1453 H1459 0.930 . S
C1454 C1452 1.353 . S
C1454 C1457 1.348 . S
C1454 H1492 0.929 . S
N1455 Li1410 1.990 . S
N1455 C1452 1.314 . S
N1455 C1453 1.279 . S
C1456 C1453 1.358 . S
C1456 C1457 1.356 . S
C1456 H1493 0.930 . S
C1457 C1454 1.348 . S
C1457 C1456 1.356 . S
H1458 C1452 0.930 . S
H1459 C1453 0.930 . S
C1460 N1461 1.314 . S
C1460 C1462 1.353 . S
C1460 H1466 0.930 . S
N1461 Li1411 1.990 . S
N1461 C1460 1.314 . S
N1461 C1464 1.279 . S
C1462 C1460 1.353 . S
C1462 C1465 1.348 . S
C1462 H1494 0.941 . S
C1463 C1464 1.358 . S
C1463 C1465 1.356 . S
C1463 H1495 0.930 . S
C1464 N1461 1.279 . S
C1464 C1463 1.358 . S
C1464 H1467 0.930 . S
C1465 C1462 1.348 . S
C1465 C1463 1.356 . S
H1466 C1460 0.930 . S
H1467 C1464 0.930 . S
O1468 Li1408 1.956 . S
O1468 Li1409 1.970 . S
O1468 Li1410 1.961 . S
O1468 C1412 1.325 . S
O1469 Li1408 1.970 . S
O1469 Li1409 1.956 . S
O1469 Li1411 1.961 . S
O1469 C1418 1.325 . S
O1470 Li1408 1.961 . S
O1470 Li1410 1.956 . S
O1470 Li1411 1.970 . S
O1470 C1440 1.325 . S
O1471 Li1409 1.961 . S
O1471 Li1410 1.970 . S
O1471 Li1411 1.956 . S
O1471 C1446 1.325 . S
H1472 C1414 0.929 . S
H1473 C1415 0.930 . S
H1474 C1416 0.930 . S
H1475 C1417 0.930 . S
H1476 C1419 0.930 . S
H1477 C1421 0.929 . S
H1478 C1422 0.930 . S
H1479 C1423 0.930 . S
H1480 C1426 0.930 . S
H1481 C1429 0.929 . S
H1482 C1434 0.929 . S
H1483 C1435 0.930 . S
H1484 C1442 0.929 . S
H1485 C1443 0.930 . S
H1486 C1444 0.930 . S
H1487 C1445 0.930 . S
H1488 C1447 0.929 . S
H1489 C1448 0.930 . S
H1490 C1449 0.930 . S
H1491 C1450 0.930 . S
H1492 C1454 0.929 . S
H1493 C1456 0.930 . S
H1494 C1462 0.941 . S
H1495 C1463 0.930 . S
Li1496 N1513 1.990 . S
Li1496 O1556 1.956 . S
Li1496 O1557 1.970 . S
Li1496 O1558 1.961 . S
Li1497 N1521 1.990 . S
Li1497 O1556 1.970 . S
Li1497 O1557 1.956 . S
Li1497 O1559 1.961 . S
Li1498 N1543 1.990 . S
Li1498 O1556 1.961 . S
Li1498 O1558 1.956 . S
Li1498 O1559 1.970 . S
Li1499 N1549 1.990 . S
Li1499 O1557 1.961 . S
Li1499 O1558 1.970 . S
Li1499 O1559 1.956 . S
C1500 C1502 1.348 . S
C1500 C1503 1.356 . S
C1500 O1556 1.325 . S
N1501 C1504 1.314 . S
N1501 C1505 1.279 . S
C1502 C1500 1.348 . S
C1502 C1504 1.353 . S
C1502 H1560 0.929 . S
C1503 C1500 1.356 . S
C1503 C1505 1.358 . S
C1503 H1561 0.930 . S
C1504 N1501 1.314 . S
C1504 C1502 1.353 . S
C1504 H1562 0.930 . S
C1505 N1501 1.279 . S
C1505 C1503 1.358 . S
C1505 H1563 0.930 . S
C1506 C1509 1.348 . S
C1506 C1510 1.356 . S
C1506 O1557 1.325 . S
C1507 N1508 1.279 . S
C1507 C1510 1.358 . S
C1507 H1564 0.930 . S
N1508 C1507 1.279 . S
N1508 C1511 1.314 . S
C1509 C1506 1.348 . S
C1509 C1511 1.353 . S
C1509 H1565 0.929 . S
C1510 C1506 1.356 . S
C1510 C1507 1.358 . S
C1510 H1566 0.930 . S
C1511 N1508 1.314 . S
C1511 C1509 1.353 . S
C1511 H1567 0.930 . S
C1512 N1513 1.314 . S
C1512 C1517 1.353 . S
C1512 H1518 0.930 . S
N1513 Li1496 1.990 . S
N1513 C1512 1.314 . S
N1513 C1515 1.279 . S
C1514 C1515 1.358 . S
C1514 C1516 1.356 . S
C1514 H1568 0.930 . S
C1515 N1513 1.279 . S
C1515 C1514 1.358 . S
C1515 H1519 0.930 . S
C1516 C1514 1.356 . S
C1516 C1517 1.348 . S
C1517 C1512 1.353 . S
C1517 C1516 1.348 . S
C1517 H1569 0.929 . S
H1518 C1512 0.930 . S
H1519 C1515 0.930 . S
C1520 N1521 1.314 . S
C1520 C1522 1.353 . S
C1520 H1526 0.930 . S
N1521 Li1497 1.990 . S
N1521 C1520 1.314 . S
N1521 C1524 1.279 . S
C1522 C1520 1.353 . S
C1522 C1525 1.348 . S
C1522 H1570 0.929 . S
C1523 C1524 1.358 . S
C1523 C1525 1.356 . S
C1523 H1571 0.930 . S
C1524 N1521 1.279 . S
C1524 C1523 1.358 . S
C1524 H1527 0.930 . S
C1525 C1522 1.348 . S
C1525 C1523 1.356 . S
H1526 C1520 0.930 . S
H1527 C1524 0.930 . S
C1528 C1530 1.348 . S
C1528 C1531 1.356 . S
C1528 O1558 1.325 . S
N1529 C1532 1.314 . S
N1529 C1533 1.279 . S
C1530 C1528 1.348 . S
C1530 C1532 1.353 . S
C1530 H1572 0.929 . S
C1531 C1528 1.356 . S
C1531 C1533 1.358 . S
C1531 H1573 0.930 . S
C1532 N1529 1.314 . S
C1532 C1530 1.353 . S
C1532 H1574 0.930 . S
C1533 N1529 1.279 . S
C1533 C1531 1.358 . S
C1533 H1575 0.930 . S
C1534 C1535 1.348 . S
C1534 C1536 1.356 . S
C1534 O1559 1.325 . S
C1535 C1534 1.348 . S
C1535 C1537 1.353 . S
C1535 H1576 0.929 . S
C1536 C1534 1.356 . S
C1536 C1538 1.358 . S
C1536 H1577 0.930 . S
C1537 C1535 1.353 . S
C1537 N1539 1.314 . S
C1537 H1578 0.930 . S
C1538 C1536 1.358 . S
C1538 N1539 1.279 . S
C1538 H1579 0.930 . S
N1539 C1537 1.314 . S
N1539 C1538 1.279 . S
C1540 C1542 1.353 . S
C1540 N1543 1.314 . S
C1540 H1546 0.930 . S
C1541 N1543 1.279 . S
C1541 C1544 1.358 . S
C1541 H1547 0.930 . S
C1542 C1540 1.353 . S
C1542 C1545 1.348 . S
C1542 H1580 0.929 . S
N1543 Li1498 1.990 . S
N1543 C1540 1.314 . S
N1543 C1541 1.279 . S
C1544 C1541 1.358 . S
C1544 C1545 1.356 . S
C1544 H1581 0.930 . S
C1545 C1542 1.348 . S
C1545 C1544 1.356 . S
H1546 C1540 0.930 . S
H1547 C1541 0.930 . S
C1548 N1549 1.314 . S
C1548 C1550 1.353 . S
C1548 H1554 0.930 . S
N1549 Li1499 1.990 . S
N1549 C1548 1.314 . S
N1549 C1552 1.279 . S
C1550 C1548 1.353 . S
C1550 C1553 1.348 . S
C1550 H1582 0.929 . S
C1551 C1552 1.358 . S
C1551 C1553 1.356 . S
C1551 H1583 0.930 . S
C1552 N1549 1.279 . S
C1552 C1551 1.358 . S
C1552 H1555 0.930 . S
C1553 C1550 1.348 . S
C1553 C1551 1.356 . S
H1554 C1548 0.930 . S
H1555 C1552 0.930 . S
O1556 Li1496 1.956 . S
O1556 Li1497 1.970 . S
O1556 Li1498 1.961 . S
O1556 C1500 1.325 . S
O1557 Li1496 1.970 . S
O1557 Li1497 1.956 . S
O1557 Li1499 1.961 . S
O1557 C1506 1.325 . S
O1558 Li1496 1.961 . S
O1558 Li1498 1.956 . S
O1558 Li1499 1.970 . S
O1558 C1528 1.325 . S
O1559 Li1497 1.961 . S
O1559 Li1498 1.970 . S
O1559 Li1499 1.956 . S
O1559 C1534 1.325 . S
H1560 C1502 0.929 . S
H1561 C1503 0.930 . S
H1562 C1504 0.930 . S
H1563 C1505 0.930 . S
H1564 C1507 0.930 . S
H1565 C1509 0.929 . S
H1566 C1510 0.930 . S
H1567 C1511 0.930 . S
H1568 C1514 0.930 . S
H1569 C1517 0.929 . S
H1570 C1522 0.929 . S
H1571 C1523 0.930 . S
H1572 C1530 0.929 . S
H1573 C1531 0.930 . S
H1574 C1532 0.930 . S
H1575 C1533 0.930 . S
H1576 C1535 0.929 . S
H1577 C1536 0.930 . S
H1578 C1537 0.930 . S
H1579 C1538 0.930 . S
H1580 C1542 0.929 . S
H1581 C1544 0.930 . S
H1582 C1550 0.929 . S
H1583 C1551 0.930 . S
Li1584 N1601 1.990 . S
Li1584 O1644 1.956 . S
Li1584 O1645 1.970 . S
Li1584 O1646 1.961 . S
Li1585 N1609 1.990 . S
Li1585 O1644 1.970 . S
Li1585 O1645 1.956 . S
Li1585 O1647 1.961 . S
Li1586 N1631 1.990 . S
Li1586 O1644 1.961 . S
Li1586 O1646 1.956 . S
Li1586 O1647 1.970 . S
Li1587 N1637 1.990 . S
Li1587 O1645 1.961 . S
Li1587 O1646 1.970 . S
Li1587 O1647 1.956 . S
C1588 C1590 1.348 . S
C1588 C1591 1.356 . S
C1588 O1644 1.325 . S
N1589 C1592 1.314 . S
N1589 C1593 1.279 . S
C1590 C1588 1.348 . S
C1590 C1592 1.353 1_554 S
C1590 H1648 0.929 . S
C1591 C1588 1.356 . S
C1591 C1593 1.358 1_554 S
C1591 H1649 0.930 . S
C1592 N1589 1.314 . S
C1592 C1590 1.353 1_556 S
C1592 H1650 0.930 . S
C1593 N1589 1.279 . S
C1593 C1591 1.358 1_556 S
C1593 H1651 0.930 . S
C1594 C1597 1.348 . S
C1594 C1598 1.356 . S
C1594 O1645 1.325 . S
C1595 N1596 1.279 . S
C1595 C1598 1.358 . S
C1595 H1652 0.930 . S
N1596 C1595 1.279 . S
N1596 C1599 1.314 . S
C1597 C1594 1.348 . S
C1597 C1599 1.353 . S
C1597 H1653 0.929 . S
C1598 C1594 1.356 . S
C1598 C1595 1.358 . S
C1598 H1654 0.930 . S
C1599 N1596 1.314 . S
C1599 C1597 1.353 . S
C1599 H1655 0.930 . S
C1600 N1601 1.314 . S
C1600 C1605 1.353 . S
C1600 H1606 0.930 . S
N1601 Li1584 1.990 . S
N1601 C1600 1.314 . S
N1601 C1603 1.279 . S
C1602 C1603 1.358 . S
C1602 C1604 1.356 . S
C1602 H1656 0.930 . S
C1603 N1601 1.279 . S
C1603 C1602 1.358 . S
C1603 H1607 0.930 . S
C1604 C1602 1.356 . S
C1604 C1605 1.348 . S
C1605 C1600 1.353 . S
C1605 C1604 1.348 . S
C1605 H1657 0.929 . S
H1606 C1600 0.930 . S
H1607 C1603 0.930 . S
C1608 N1609 1.314 . S
C1608 C1610 1.353 . S
C1608 H1614 0.930 . S
N1609 Li1585 1.990 . S
N1609 C1608 1.314 . S
N1609 C1612 1.279 . S
C1610 C1608 1.353 . S
C1610 C1613 1.348 . S
C1610 H1658 0.929 . S
C1611 C1612 1.358 . S
C1611 C1613 1.356 . S
C1611 H1659 0.930 . S
C1612 N1609 1.279 . S
C1612 C1611 1.358 . S
C1612 H1615 0.930 . S
C1613 C1610 1.348 . S
C1613 C1611 1.356 . S
H1614 C1608 0.930 . S
H1615 C1612 0.930 . S
C1616 C1618 1.348 . S
C1616 C1619 1.356 . S
C1616 O1646 1.325 . S
N1617 C1620 1.314 . S
N1617 C1621 1.279 . S
C1618 C1616 1.348 . S
C1618 C1620 1.353 . S
C1618 H1660 0.929 . S
C1619 C1616 1.356 . S
C1619 C1621 1.358 . S
C1619 H1661 0.930 . S
C1620 N1617 1.314 . S
C1620 C1618 1.353 . S
C1620 H1662 0.930 . S
C1621 N1617 1.279 . S
C1621 C1619 1.358 . S
C1621 H1663 0.930 . S
C1622 C1623 1.348 . S
C1622 C1624 1.356 . S
C1622 O1647 1.325 . S
C1623 C1622 1.348 . S
C1623 C1625 1.353 . S
C1623 H1664 0.929 . S
C1624 C1622 1.356 . S
C1624 C1626 1.358 . S
C1624 H1665 0.930 . S
C1625 C1623 1.353 . S
C1625 N1627 1.314 . S
C1625 H1666 0.930 . S
C1626 C1624 1.358 . S
C1626 N1627 1.279 . S
C1626 H1667 0.930 . S
N1627 C1625 1.314 . S
N1627 C1626 1.279 . S
C1628 C1630 1.353 . S
C1628 N1631 1.314 . S
C1628 H1634 0.930 . S
C1629 N1631 1.279 . S
C1629 C1632 1.358 . S
C1629 H1635 0.930 . S
C1630 C1628 1.353 . S
C1630 C1633 1.348 . S
C1630 H1668 0.941 . S
N1631 Li1586 1.990 . S
N1631 C1628 1.314 . S
N1631 C1629 1.279 . S
C1632 C1629 1.358 . S
C1632 C1633 1.356 . S
C1632 H1669 0.930 . S
C1633 C1630 1.348 . S
C1633 C1632 1.356 . S
H1634 C1628 0.930 . S
H1635 C1629 0.930 . S
C1636 N1637 1.314 . S
C1636 C1638 1.353 . S
C1636 H1642 0.930 . S
N1637 Li1587 1.990 . S
N1637 C1636 1.314 . S
N1637 C1640 1.279 . S
C1638 C1636 1.353 . S
C1638 C1641 1.348 . S
C1638 H1670 0.929 . S
C1639 C1640 1.358 . S
C1639 C1641 1.356 . S
C1639 H1671 0.930 . S
C1640 N1637 1.279 . S
C1640 C1639 1.358 . S
C1640 H1643 0.930 . S
C1641 C1638 1.348 . S
C1641 C1639 1.356 . S
H1642 C1636 0.930 . S
H1643 C1640 0.930 . S
O1644 Li1584 1.956 . S
O1644 Li1585 1.970 . S
O1644 Li1586 1.961 . S
O1644 C1588 1.325 . S
O1645 Li1584 1.970 . S
O1645 Li1585 1.956 . S
O1645 Li1587 1.961 . S
O1645 C1594 1.325 . S
O1646 Li1584 1.961 . S
O1646 Li1586 1.956 . S
O1646 Li1587 1.970 . S
O1646 C1616 1.325 . S
O1647 Li1585 1.961 . S
O1647 Li1586 1.970 . S
O1647 Li1587 1.956 . S
O1647 C1622 1.325 . S
H1648 C1590 0.929 . S
H1649 C1591 0.930 . S
H1650 C1592 0.930 . S
H1651 C1593 0.930 . S
H1652 C1595 0.930 . S
H1653 C1597 0.929 . S
H1654 C1598 0.930 . S
H1655 C1599 0.930 . S
H1656 C1602 0.930 . S
H1657 C1605 0.929 . S
H1658 C1610 0.929 . S
H1659 C1611 0.930 . S
H1660 C1618 0.929 . S
H1661 C1619 0.930 . S
H1662 C1620 0.930 . S
H1663 C1621 0.930 . S
H1664 C1623 0.929 . S
H1665 C1624 0.930 . S
H1666 C1625 0.930 . S
H1667 C1626 0.930 . S
H1668 C1630 0.941 . S
H1669 C1632 0.930 . S
H1670 C1638 0.929 . S
H1671 C1639 0.930 . S
Li1672 N1689 1.990 . S
Li1672 O1732 1.956 . S
Li1672 O1733 1.970 . S
Li1672 O1734 1.961 . S
Li1673 N1697 1.990 . S
Li1673 O1732 1.970 . S
Li1673 O1733 1.956 . S
Li1673 O1735 1.961 . S
Li1674 N1719 1.990 . S
Li1674 O1732 1.961 . S
Li1674 O1734 1.956 . S
Li1674 O1735 1.970 . S
Li1675 N1725 1.990 . S
Li1675 O1733 1.961 . S
Li1675 O1734 1.970 . S
Li1675 O1735 1.956 . S
C1676 C1678 1.348 . S
C1676 C1679 1.356 . S
C1676 O1732 1.325 . S
N1677 C1680 1.314 . S
N1677 C1681 1.279 . S
C1678 C1676 1.348 . S
C1678 C1680 1.353 . S
C1678 H1736 0.929 . S
C1679 C1676 1.356 . S
C1679 C1681 1.358 . S
C1679 H1737 0.930 . S
C1680 N1677 1.314 . S
C1680 C1678 1.353 . S
C1680 H1738 0.930 . S
C1681 N1677 1.279 . S
C1681 C1679 1.358 . S
C1681 H1739 0.930 . S
C1682 C1685 1.348 . S
C1682 C1686 1.356 . S
C1682 O1733 1.325 . S
C1683 N1684 1.279 . S
C1683 C1686 1.358 . S
C1683 H1740 0.930 . S
N1684 C1683 1.279 . S
N1684 C1687 1.314 . S
C1685 C1682 1.348 . S
C1685 C1687 1.353 . S
C1685 H1741 0.929 . S
C1686 C1682 1.356 . S
C1686 C1683 1.358 . S
C1686 H1742 0.930 . S
C1687 N1684 1.314 . S
C1687 C1685 1.353 . S
C1687 H1743 0.930 . S
C1688 N1689 1.314 . S
C1688 C1693 1.353 . S
C1688 H1694 0.930 . S
N1689 Li1672 1.990 . S
N1689 C1688 1.314 . S
N1689 C1691 1.279 . S
C1690 C1691 1.358 . S
C1690 C1692 1.356 . S
C1690 H1744 0.930 . S
C1691 N1689 1.279 . S
C1691 C1690 1.358 . S
C1691 H1695 0.930 . S
C1692 C1690 1.356 . S
C1692 C1693 1.348 . S
C1693 C1688 1.353 . S
C1693 C1692 1.348 . S
C1693 H1745 0.929 . S
H1694 C1688 0.930 . S
H1695 C1691 0.930 . S
C1696 N1697 1.314 . S
C1696 C1698 1.353 . S
C1696 H1702 0.930 . S
N1697 Li1673 1.990 . S
N1697 C1696 1.314 . S
N1697 C1700 1.279 . S
C1698 C1696 1.353 . S
C1698 C1701 1.348 . S
C1698 H1746 0.929 . S
C1699 C1700 1.358 . S
C1699 C1701 1.356 . S
C1699 H1747 0.930 . S
C1700 N1697 1.279 . S
C1700 C1699 1.358 . S
C1700 H1703 0.930 . S
C1701 C1698 1.348 . S
C1701 C1699 1.356 . S
H1702 C1696 0.930 . S
H1703 C1700 0.930 . S
C1704 C1706 1.348 . S
C1704 C1707 1.356 . S
C1704 O1734 1.325 . S
N1705 C1708 1.314 . S
N1705 C1709 1.279 . S
C1706 C1704 1.348 . S
C1706 C1708 1.353 . S
C1706 H1748 0.929 . S
C1707 C1704 1.356 . S
C1707 C1709 1.358 . S
C1707 H1749 0.930 . S
C1708 N1705 1.314 . S
C1708 C1706 1.353 . S
C1708 H1750 0.930 . S
C1709 N1705 1.279 . S
C1709 C1707 1.358 . S
C1709 H1751 0.930 . S
C1710 C1711 1.348 . S
C1710 C1712 1.356 . S
C1710 O1735 1.325 . S
C1711 C1710 1.348 . S
C1711 C1713 1.353 . S
C1711 H1752 0.929 . S
C1712 C1710 1.356 . S
C1712 C1714 1.358 . S
C1712 H1753 0.930 . S
C1713 C1711 1.353 . S
C1713 N1715 1.314 . S
C1713 H1754 0.930 . S
C1714 C1712 1.358 . S
C1714 N1715 1.279 . S
C1714 H1755 0.930 . S
N1715 C1713 1.314 . S
N1715 C1714 1.279 . S
C1716 C1718 1.353 . S
C1716 N1719 1.314 . S
C1716 H1722 0.930 . S
C1717 N1719 1.279 . S
C1717 C1720 1.358 . S
C1717 H1723 0.930 . S
C1718 C1716 1.353 . S
C1718 C1721 1.348 . S
C1718 H1756 0.929 . S
N1719 Li1674 1.990 . S
N1719 C1716 1.314 . S
N1719 C1717 1.279 . S
C1720 C1717 1.358 . S
C1720 C1721 1.356 . S
C1720 H1757 0.930 . S
C1721 C1718 1.348 . S
C1721 C1720 1.356 . S
H1722 C1716 0.930 . S
H1723 C1717 0.930 . S
C1724 N1725 1.314 . S
C1724 C1726 1.353 . S
C1724 H1730 0.930 . S
N1725 Li1675 1.990 . S
N1725 C1724 1.314 . S
N1725 C1728 1.279 . S
C1726 C1724 1.353 . S
C1726 C1729 1.348 . S
C1726 H1758 0.929 . S
C1727 C1728 1.358 . S
C1727 C1729 1.356 . S
C1727 H1759 0.930 . S
C1728 N1725 1.279 . S
C1728 C1727 1.358 . S
C1728 H1731 0.930 . S
C1729 C1726 1.348 . S
C1729 C1727 1.356 . S
H1730 C1724 0.930 . S
H1731 C1728 0.930 . S
O1732 Li1672 1.956 . S
O1732 Li1673 1.970 . S
O1732 Li1674 1.961 . S
O1732 C1676 1.325 . S
O1733 Li1672 1.970 . S
O1733 Li1673 1.956 . S
O1733 Li1675 1.961 . S
O1733 C1682 1.325 . S
O1734 Li1672 1.961 . S
O1734 Li1674 1.956 . S
O1734 Li1675 1.970 . S
O1734 C1704 1.325 . S
O1735 Li1673 1.961 . S
O1735 Li1674 1.970 . S
O1735 Li1675 1.956 . S
O1735 C1710 1.325 . S
H1736 C1678 0.929 . S
H1737 C1679 0.930 . S
H1738 C1680 0.930 . S
H1739 C1681 0.930 . S
H1740 C1683 0.930 . S
H1741 C1685 0.929 . S
H1742 C1686 0.930 . S
H1743 C1687 0.930 . S
H1744 C1690 0.930 . S
H1745 C1693 0.929 . S
H1746 C1698 0.929 . S
H1747 C1699 0.930 . S
H1748 C1706 0.929 . S
H1749 C1707 0.930 . S
H1750 C1708 0.930 . S
H1751 C1709 0.930 . S
H1752 C1711 0.929 . S
H1753 C1712 0.930 . S
H1754 C1713 0.930 . S
H1755 C1714 0.930 . S
H1756 C1718 0.929 . S
H1757 C1720 0.930 . S
H1758 C1726 0.929 . S
H1759 C1727 0.930 . S
Li1760 N1777 1.990 . S
Li1760 O1820 1.956 . S
Li1760 O1821 1.970 . S
Li1760 O1822 1.961 . S
Li1761 N1785 1.990 . S
Li1761 O1820 1.970 . S
Li1761 O1821 1.956 . S
Li1761 O1823 1.961 . S
Li1762 N1807 1.990 . S
Li1762 O1820 1.961 . S
Li1762 O1822 1.956 . S
Li1762 O1823 1.970 . S
Li1763 N1813 1.990 . S
Li1763 O1821 1.961 . S
Li1763 O1822 1.970 . S
Li1763 O1823 1.956 . S
C1764 C1766 1.348 . S
C1764 C1767 1.356 . S
C1764 O1820 1.325 . S
N1765 C1768 1.314 . S
N1765 C1769 1.279 . S
C1766 C1764 1.348 . S
C1766 C1768 1.353 . S
C1766 H1824 0.929 . S
C1767 C1764 1.356 . S
C1767 C1769 1.358 . S
C1767 H1825 0.930 . S
C1768 N1765 1.314 . S
C1768 C1766 1.353 . S
C1768 H1826 0.930 . S
C1769 N1765 1.279 . S
C1769 C1767 1.358 . S
C1769 H1827 0.930 . S
C1770 C1773 1.348 . S
C1770 C1774 1.356 . S
C1770 O1821 1.325 . S
C1771 N1772 1.279 . S
C1771 C1774 1.358 . S
C1771 H1828 0.930 . S
N1772 C1771 1.279 . S
N1772 C1775 1.314 . S
C1773 C1770 1.348 . S
C1773 C1775 1.353 . S
C1773 H1829 0.929 . S
C1774 C1770 1.356 . S
C1774 C1771 1.358 . S
C1774 H1830 0.930 . S
C1775 N1772 1.314 . S
C1775 C1773 1.353 . S
C1775 H1831 0.930 . S
C1776 N1777 1.314 . S
C1776 C1781 1.353 . S
C1776 H1782 0.930 . S
N1777 Li1760 1.990 . S
N1777 C1776 1.314 . S
N1777 C1779 1.279 . S
C1778 C1779 1.358 . S
C1778 C1780 1.356 . S
C1778 H1832 0.930 . S
C1779 N1777 1.279 . S
C1779 C1778 1.358 . S
C1779 H1783 0.930 . S
C1780 C1778 1.356 . S
C1780 C1781 1.348 . S
C1781 C1776 1.353 . S
C1781 C1780 1.348 . S
C1781 H1833 0.941 . S
H1782 C1776 0.930 . S
H1783 C1779 0.930 . S
C1784 N1785 1.314 . S
C1784 C1786 1.353 . S
C1784 H1790 0.930 . S
N1785 Li1761 1.990 . S
N1785 C1784 1.314 . S
N1785 C1788 1.279 . S
C1786 C1784 1.353 . S
C1786 C1789 1.348 . S
C1786 H1834 0.929 . S
C1787 C1788 1.358 . S
C1787 C1789 1.356 . S
C1787 H1835 0.930 . S
C1788 N1785 1.279 . S
C1788 C1787 1.358 . S
C1788 H1791 0.930 . S
C1789 C1786 1.348 . S
C1789 C1787 1.356 . S
H1790 C1784 0.930 . S
H1791 C1788 0.930 . S
C1792 C1794 1.348 . S
C1792 C1795 1.356 . S
C1792 O1822 1.325 . S
N1793 C1796 1.314 . S
N1793 C1797 1.279 . S
C1794 C1792 1.348 . S
C1794 C1796 1.353 1_554 S
C1794 H1836 0.929 . S
C1795 C1792 1.356 . S
C1795 C1797 1.358 1_554 S
C1795 H1837 0.930 . S
C1796 N1793 1.314 . S
C1796 C1794 1.353 1_556 S
C1796 H1838 0.930 . S
C1797 N1793 1.279 . S
C1797 C1795 1.358 1_556 S
C1797 H1839 0.930 . S
C1798 C1799 1.348 . S
C1798 C1800 1.356 . S
C1798 O1823 1.325 . S
C1799 C1798 1.348 . S
C1799 C1801 1.353 . S
C1799 H1840 0.929 . S
C1800 C1798 1.356 . S
C1800 C1802 1.358 . S
C1800 H1841 0.930 . S
C1801 C1799 1.353 . S
C1801 N1803 1.314 . S
C1801 H1842 0.930 . S
C1802 C1800 1.358 . S
C1802 N1803 1.279 . S
C1802 H1843 0.930 . S
N1803 C1801 1.314 . S
N1803 C1802 1.279 . S
C1804 C1806 1.353 . S
C1804 N1807 1.314 . S
C1804 H1810 0.930 . S
C1805 N1807 1.279 . S
C1805 C1808 1.358 . S
C1805 H1811 0.930 . S
C1806 C1804 1.353 . S
C1806 C1809 1.348 . S
C1806 H1844 0.929 . S
N1807 Li1762 1.990 . S
N1807 C1804 1.314 . S
N1807 C1805 1.279 . S
C1808 C1805 1.358 . S
C1808 C1809 1.356 . S
C1808 H1845 0.930 . S
C1809 C1806 1.348 . S
C1809 C1808 1.356 . S
H1810 C1804 0.930 . S
H1811 C1805 0.930 . S
C1812 N1813 1.314 . S
C1812 C1814 1.353 . S
C1812 H1818 0.930 . S
N1813 Li1763 1.990 . S
N1813 C1812 1.314 . S
N1813 C1816 1.279 . S
C1814 C1812 1.353 . S
C1814 C1817 1.348 . S
C1814 H1846 0.929 . S
C1815 C1816 1.358 . S
C1815 C1817 1.356 . S
C1815 H1847 0.930 . S
C1816 N1813 1.279 . S
C1816 C1815 1.358 . S
C1816 H1819 0.930 . S
C1817 C1814 1.348 . S
C1817 C1815 1.356 . S
H1818 C1812 0.930 . S
H1819 C1816 0.930 . S
O1820 Li1760 1.956 . S
O1820 Li1761 1.970 . S
O1820 Li1762 1.961 . S
O1820 C1764 1.325 . S
O1821 Li1760 1.970 . S
O1821 Li1761 1.956 . S
O1821 Li1763 1.961 . S
O1821 C1770 1.325 . S
O1822 Li1760 1.961 . S
O1822 Li1762 1.956 . S
O1822 Li1763 1.970 . S
O1822 C1792 1.325 . S
O1823 Li1761 1.961 . S
O1823 Li1762 1.970 . S
O1823 Li1763 1.956 . S
O1823 C1798 1.325 . S
H1824 C1766 0.929 . S
H1825 C1767 0.930 . S
H1826 C1768 0.930 . S
H1827 C1769 0.930 . S
H1828 C1771 0.930 . S
H1829 C1773 0.929 . S
H1830 C1774 0.930 . S
H1831 C1775 0.930 . S
H1832 C1778 0.930 . S
H1833 C1781 0.941 . S
H1834 C1786 0.929 . S
H1835 C1787 0.930 . S
H1836 C1794 0.929 . S
H1837 C1795 0.930 . S
H1838 C1796 0.930 . S
H1839 C1797 0.930 . S
H1840 C1799 0.929 . S
H1841 C1800 0.930 . S
H1842 C1801 0.930 . S
H1843 C1802 0.930 . S
H1844 C1806 0.929 . S
H1845 C1808 0.930 . S
H1846 C1814 0.929 . S
H1847 C1815 0.930 . S
Li1848 N1865 1.990 . S
Li1848 O1908 1.956 . S
Li1848 O1909 1.970 . S
Li1848 O1910 1.961 . S
Li1849 N1873 1.990 . S
Li1849 O1908 1.970 . S
Li1849 O1909 1.956 . S
Li1849 O1911 1.961 . S
Li1850 N1895 1.990 . S
Li1850 O1908 1.961 . S
Li1850 O1910 1.956 . S
Li1850 O1911 1.970 . S
Li1851 N1901 1.990 . S
Li1851 O1909 1.961 . S
Li1851 O1910 1.970 . S
Li1851 O1911 1.956 . S
C1852 C1854 1.348 . S
C1852 C1855 1.356 . S
C1852 O1908 1.325 . S
N1853 C1856 1.314 . S
N1853 C1857 1.279 . S
C1854 C1852 1.348 . S
C1854 C1856 1.353 . S
C1854 H1912 0.929 . S
C1855 C1852 1.356 . S
C1855 C1857 1.358 . S
C1855 H1913 0.930 . S
C1856 N1853 1.314 . S
C1856 C1854 1.353 . S
C1856 H1914 0.930 . S
C1857 N1853 1.279 . S
C1857 C1855 1.358 . S
C1857 H1915 0.930 . S
C1858 C1861 1.348 . S
C1858 C1862 1.356 . S
C1858 O1909 1.325 . S
C1859 N1860 1.279 . S
C1859 C1862 1.358 . S
C1859 H1916 0.930 . S
N1860 C1859 1.279 . S
N1860 C1863 1.314 . S
C1861 C1858 1.348 . S
C1861 C1863 1.353 . S
C1861 H1917 0.929 . S
C1862 C1858 1.356 . S
C1862 C1859 1.358 . S
C1862 H1918 0.930 . S
C1863 N1860 1.314 . S
C1863 C1861 1.353 . S
C1863 H1919 0.930 . S
C1864 N1865 1.314 . S
C1864 C1869 1.353 . S
C1864 H1870 0.930 . S
N1865 Li1848 1.990 . S
N1865 C1864 1.314 . S
N1865 C1867 1.279 . S
C1866 C1867 1.358 . S
C1866 C1868 1.356 . S
C1866 H1920 0.930 . S
C1867 N1865 1.279 . S
C1867 C1866 1.358 . S
C1867 H1871 0.930 . S
C1868 C1866 1.356 . S
C1868 C1869 1.348 . S
C1869 C1864 1.353 . S
C1869 C1868 1.348 . S
C1869 H1921 0.929 . S
H1870 C1864 0.930 . S
H1871 C1867 0.930 . S
C1872 N1873 1.314 . S
C1872 C1874 1.353 . S
C1872 H1878 0.930 . S
N1873 Li1849 1.990 . S
N1873 C1872 1.314 . S
N1873 C1876 1.279 . S
C1874 C1872 1.353 . S
C1874 C1877 1.348 . S
C1874 H1922 0.929 . S
C1875 C1876 1.358 . S
C1875 C1877 1.356 . S
C1875 H1923 0.930 . S
C1876 N1873 1.279 . S
C1876 C1875 1.358 . S
C1876 H1879 0.930 . S
C1877 C1874 1.348 . S
C1877 C1875 1.356 . S
H1878 C1872 0.930 . S
H1879 C1876 0.930 . S
C1880 C1882 1.348 . S
C1880 C1883 1.356 . S
C1880 O1910 1.325 . S
N1881 C1884 1.314 . S
N1881 C1885 1.279 . S
C1882 C1880 1.348 . S
C1882 C1884 1.353 . S
C1882 H1924 0.929 . S
C1883 C1880 1.356 . S
C1883 C1885 1.358 . S
C1883 H1925 0.930 . S
C1884 N1881 1.314 . S
C1884 C1882 1.353 . S
C1884 H1926 0.930 . S
C1885 N1881 1.279 . S
C1885 C1883 1.358 . S
C1885 H1927 0.930 . S
C1886 C1887 1.348 . S
C1886 C1888 1.356 . S
C1886 O1911 1.325 . S
C1887 C1886 1.348 . S
C1887 C1889 1.353 . S
C1887 H1928 0.929 . S
C1888 C1886 1.356 . S
C1888 C1890 1.358 . S
C1888 H1929 0.930 . S
C1889 C1887 1.353 . S
C1889 N1891 1.314 . S
C1889 H1930 0.930 . S
C1890 C1888 1.358 . S
C1890 N1891 1.279 . S
C1890 H1931 0.930 . S
N1891 C1889 1.314 . S
N1891 C1890 1.279 . S
C1892 C1894 1.353 . S
C1892 N1895 1.314 . S
C1892 H1898 0.930 . S
C1893 N1895 1.279 . S
C1893 C1896 1.358 . S
C1893 H1899 0.930 . S
C1894 C1892 1.353 . S
C1894 C1897 1.348 . S
C1894 H1932 0.929 . S
N1895 Li1850 1.990 . S
N1895 C1892 1.314 . S
N1895 C1893 1.279 . S
C1896 C1893 1.358 . S
C1896 C1897 1.356 . S
C1896 H1933 0.930 . S
C1897 C1894 1.348 . S
C1897 C1896 1.356 . S
H1898 C1892 0.930 . S
H1899 C1893 0.930 . S
C1900 N1901 1.314 . S
C1900 C1902 1.353 . S
C1900 H1906 0.930 . S
N1901 Li1851 1.990 . S
N1901 C1900 1.314 . S
N1901 C1904 1.279 . S
C1902 C1900 1.353 . S
C1902 C1905 1.348 . S
C1902 H1934 0.929 . S
C1903 C1904 1.358 . S
C1903 C1905 1.356 . S
C1903 H1935 0.930 . S
C1904 N1901 1.279 . S
C1904 C1903 1.358 . S
C1904 H1907 0.930 . S
C1905 C1902 1.348 . S
C1905 C1903 1.356 . S
H1906 C1900 0.930 . S
H1907 C1904 0.930 . S
O1908 Li1848 1.956 . S
O1908 Li1849 1.970 . S
O1908 Li1850 1.961 . S
O1908 C1852 1.325 . S
O1909 Li1848 1.970 . S
O1909 Li1849 1.956 . S
O1909 Li1851 1.961 . S
O1909 C1858 1.325 . S
O1910 Li1848 1.961 . S
O1910 Li1850 1.956 . S
O1910 Li1851 1.970 . S
O1910 C1880 1.325 . S
O1911 Li1849 1.961 . S
O1911 Li1850 1.970 . S
O1911 Li1851 1.956 . S
O1911 C1886 1.325 . S
H1912 C1854 0.929 . S
H1913 C1855 0.930 . S
H1914 C1856 0.930 . S
H1915 C1857 0.930 . S
H1916 C1859 0.930 . S
H1917 C1861 0.929 . S
H1918 C1862 0.930 . S
H1919 C1863 0.930 . S
H1920 C1866 0.930 . S
H1921 C1869 0.929 . S
H1922 C1874 0.929 . S
H1923 C1875 0.930 . S
H1924 C1882 0.929 . S
H1925 C1883 0.930 . S
H1926 C1884 0.930 . S
H1927 C1885 0.930 . S
H1928 C1887 0.929 . S
H1929 C1888 0.930 . S
H1930 C1889 0.930 . S
H1931 C1890 0.930 . S
H1932 C1894 0.929 . S
H1933 C1896 0.930 . S
H1934 C1902 0.929 . S
H1935 C1903 0.930 . S
Li1936 N1953 1.990 . S
Li1936 O1996 1.956 . S
Li1936 O1997 1.970 . S
Li1936 O1998 1.961 . S
Li1937 N1961 1.990 . S
Li1937 O1996 1.970 . S
Li1937 O1997 1.956 . S
Li1937 O1999 1.961 . S
Li1938 N1983 1.990 . S
Li1938 O1996 1.961 . S
Li1938 O1998 1.956 . S
Li1938 O1999 1.970 . S
Li1939 N1989 1.990 . S
Li1939 O1997 1.961 . S
Li1939 O1998 1.970 . S
Li1939 O1999 1.956 . S
C1940 C1942 1.348 . S
C1940 C1943 1.356 . S
C1940 O1996 1.325 . S
N1941 C1944 1.314 . S
N1941 C1945 1.279 . S
C1942 C1940 1.348 . S
C1942 C1944 1.353 . S
C1942 H2000 0.929 . S
C1943 C1940 1.356 . S
C1943 C1945 1.358 . S
C1943 H2001 0.930 . S
C1944 N1941 1.314 . S
C1944 C1942 1.353 . S
C1944 H2002 0.930 . S
C1945 N1941 1.279 . S
C1945 C1943 1.358 . S
C1945 H2003 0.930 . S
C1946 C1949 1.348 . S
C1946 C1950 1.356 . S
C1946 O1997 1.325 . S
C1947 N1948 1.279 . S
C1947 C1950 1.358 . S
C1947 H2004 0.930 . S
N1948 C1947 1.279 . S
N1948 C1951 1.314 . S
C1949 C1946 1.348 . S
C1949 C1951 1.353 . S
C1949 H2005 0.929 . S
C1950 C1946 1.356 . S
C1950 C1947 1.358 . S
C1950 H2006 0.930 . S
C1951 N1948 1.314 . S
C1951 C1949 1.353 . S
C1951 H2007 0.930 . S
C1952 N1953 1.314 . S
C1952 C1957 1.353 . S
C1952 H1958 0.930 . S
N1953 Li1936 1.990 . S
N1953 C1952 1.314 . S
N1953 C1955 1.279 . S
C1954 C1955 1.358 . S
C1954 C1956 1.356 . S
C1954 H2008 0.930 . S
C1955 N1953 1.279 . S
C1955 C1954 1.358 . S
C1955 H1959 0.930 . S
C1956 C1954 1.356 . S
C1956 C1957 1.348 . S
C1957 C1952 1.353 . S
C1957 C1956 1.348 . S
C1957 H2009 0.940 . S
H1958 C1952 0.930 . S
H1959 C1955 0.930 . S
C1960 N1961 1.314 . S
C1960 C1962 1.353 . S
C1960 H1966 0.930 . S
N1961 Li1937 1.990 . S
N1961 C1960 1.314 . S
N1961 C1964 1.279 . S
C1962 C1960 1.353 . S
C1962 C1965 1.348 . S
C1962 H2010 0.929 . S
C1963 C1964 1.358 . S
C1963 C1965 1.356 . S
C1963 H2011 0.930 . S
C1964 N1961 1.279 . S
C1964 C1963 1.358 . S
C1964 H1967 0.930 . S
C1965 C1962 1.348 . S
C1965 C1963 1.356 . S
H1966 C1960 0.930 . S
H1967 C1964 0.930 . S
C1968 C1970 1.348 . S
C1968 C1971 1.356 . S
C1968 O1998 1.325 . S
N1969 C1972 1.314 . S
N1969 C1973 1.279 . S
C1970 C1968 1.348 . S
C1970 C1972 1.353 1_554 S
C1970 H2012 0.929 . S
C1971 C1968 1.356 . S
C1971 C1973 1.358 1_554 S
C1971 H2013 0.930 . S
C1972 N1969 1.314 . S
C1972 C1970 1.353 1_556 S
C1972 H2014 0.930 . S
C1973 N1969 1.279 . S
C1973 C1971 1.358 1_556 S
C1973 H2015 0.930 . S
C1974 C1975 1.348 . S
C1974 C1976 1.356 . S
C1974 O1999 1.325 . S
C1975 C1974 1.348 . S
C1975 C1977 1.353 . S
C1975 H2016 0.929 . S
C1976 C1974 1.356 . S
C1976 C1978 1.358 . S
C1976 H2017 0.930 . S
C1977 C1975 1.353 . S
C1977 N1979 1.314 . S
C1977 H2018 0.930 . S
C1978 C1976 1.358 . S
C1978 N1979 1.279 . S
C1978 H2019 0.930 . S
N1979 C1977 1.314 . S
N1979 C1978 1.279 . S
C1980 C1982 1.353 . S
C1980 N1983 1.314 . S
C1980 H1986 0.930 . S
C1981 N1983 1.279 . S
C1981 C1984 1.358 . S
C1981 H1987 0.930 . S
C1982 C1980 1.353 . S
C1982 C1985 1.348 . S
C1982 H2020 0.929 . S
N1983 Li1938 1.990 . S
N1983 C1980 1.314 . S
N1983 C1981 1.279 . S
C1984 C1981 1.358 . S
C1984 C1985 1.356 . S
C1984 H2021 0.930 . S
C1985 C1982 1.348 . S
C1985 C1984 1.356 . S
H1986 C1980 0.930 . S
H1987 C1981 0.930 . S
C1988 N1989 1.314 . S
C1988 C1990 1.353 . S
C1988 H1994 0.930 . S
N1989 Li1939 1.990 . S
N1989 C1988 1.314 . S
N1989 C1992 1.279 . S
C1990 C1988 1.353 . S
C1990 C1993 1.348 . S
C1990 H2022 0.929 . S
C1991 C1992 1.358 . S
C1991 C1993 1.356 . S
C1991 H2023 0.930 . S
C1992 N1989 1.279 . S
C1992 C1991 1.358 . S
C1992 H1995 0.930 . S
C1993 C1990 1.348 . S
C1993 C1991 1.356 . S
H1994 C1988 0.930 . S
H1995 C1992 0.930 . S
O1996 Li1936 1.956 . S
O1996 Li1937 1.970 . S
O1996 Li1938 1.961 . S
O1996 C1940 1.325 . S
O1997 Li1936 1.970 . S
O1997 Li1937 1.956 . S
O1997 Li1939 1.961 . S
O1997 C1946 1.325 . S
O1998 Li1936 1.961 . S
O1998 Li1938 1.956 . S
O1998 Li1939 1.970 . S
O1998 C1968 1.325 . S
O1999 Li1937 1.961 . S
O1999 Li1938 1.970 . S
O1999 Li1939 1.956 . S
O1999 C1974 1.325 . S
H2000 C1942 0.929 . S
H2001 C1943 0.930 . S
H2002 C1944 0.930 . S
H2003 C1945 0.930 . S
H2004 C1947 0.930 . S
H2005 C1949 0.929 . S
H2006 C1950 0.930 . S
H2007 C1951 0.930 . S
H2008 C1954 0.930 . S
H2009 C1957 0.940 . S
H2010 C1962 0.929 . S
H2011 C1963 0.930 . S
H2012 C1970 0.929 . S
H2013 C1971 0.930 . S
H2014 C1972 0.930 . S
H2015 C1973 0.930 . S
H2016 C1975 0.929 . S
H2017 C1976 0.930 . S
H2018 C1977 0.930 . S
H2019 C1978 0.930 . S
H2020 C1982 0.929 . S
H2021 C1984 0.930 . S
H2022 C1990 0.929 . S
H2023 C1991 0.930 . S
Li2024 N2041 1.990 . S
Li2024 O2084 1.956 . S
Li2024 O2085 1.970 . S
Li2024 O2086 1.961 . S
Li2025 N2049 1.990 . S
Li2025 O2084 1.970 . S
Li2025 O2085 1.956 . S
Li2025 O2087 1.961 . S
Li2026 N2071 1.990 . S
Li2026 O2084 1.961 . S
Li2026 O2086 1.956 . S
Li2026 O2087 1.970 . S
Li2027 N2077 1.990 . S
Li2027 O2085 1.961 . S
Li2027 O2086 1.970 . S
Li2027 O2087 1.956 . S
C2028 C2030 1.348 . S
C2028 C2031 1.356 . S
C2028 O2084 1.325 . S
N2029 C2032 1.314 . S
N2029 C2033 1.279 . S
C2030 C2028 1.348 . S
C2030 C2032 1.353 . S
C2030 H2088 0.929 . S
C2031 C2028 1.356 . S
C2031 C2033 1.358 . S
C2031 H2089 0.930 . S
C2032 N2029 1.314 . S
C2032 C2030 1.353 . S
C2032 H2090 0.930 . S
C2033 N2029 1.279 . S
C2033 C2031 1.358 . S
C2033 H2091 0.930 . S
C2034 C2037 1.348 . S
C2034 C2038 1.356 . S
C2034 O2085 1.325 . S
C2035 N2036 1.279 . S
C2035 C2038 1.358 . S
C2035 H2092 0.930 . S
N2036 C2035 1.279 . S
N2036 C2039 1.314 . S
C2037 C2034 1.348 . S
C2037 C2039 1.353 . S
C2037 H2093 0.929 . S
C2038 C2034 1.356 . S
C2038 C2035 1.358 . S
C2038 H2094 0.930 . S
C2039 N2036 1.314 . S
C2039 C2037 1.353 . S
C2039 H2095 0.930 . S
C2040 N2041 1.314 . S
C2040 C2045 1.353 . S
C2040 H2046 0.930 . S
N2041 Li2024 1.990 . S
N2041 C2040 1.314 . S
N2041 C2043 1.279 . S
C2042 C2043 1.358 . S
C2042 C2044 1.356 . S
C2042 H2096 0.930 . S
C2043 N2041 1.279 . S
C2043 C2042 1.358 . S
C2043 H2047 0.930 . S
C2044 C2042 1.356 . S
C2044 C2045 1.348 . S
C2045 C2040 1.353 . S
C2045 C2044 1.348 . S
C2045 H2097 0.929 . S
H2046 C2040 0.930 . S
H2047 C2043 0.930 . S
C2048 N2049 1.314 . S
C2048 C2050 1.353 . S
C2048 H2054 0.930 . S
N2049 Li2025 1.990 . S
N2049 C2048 1.314 . S
N2049 C2052 1.279 . S
C2050 C2048 1.353 . S
C2050 C2053 1.348 . S
C2050 H2098 0.929 . S
C2051 C2052 1.358 . S
C2051 C2053 1.356 . S
C2051 H2099 0.930 . S
C2052 N2049 1.279 . S
C2052 C2051 1.358 . S
C2052 H2055 0.930 . S
C2053 C2050 1.348 . S
C2053 C2051 1.356 . S
H2054 C2048 0.930 . S
H2055 C2052 0.930 . S
C2056 C2058 1.348 . S
C2056 C2059 1.356 . S
C2056 O2086 1.325 . S
N2057 C2060 1.314 . S
N2057 C2061 1.279 . S
C2058 C2056 1.348 . S
C2058 C2060 1.353 . S
C2058 H2100 0.929 . S
C2059 C2056 1.356 . S
C2059 C2061 1.358 . S
C2059 H2101 0.930 . S
C2060 N2057 1.314 . S
C2060 C2058 1.353 . S
C2060 H2102 0.930 . S
C2061 N2057 1.279 . S
C2061 C2059 1.358 . S
C2061 H2103 0.930 . S
C2062 C2063 1.348 . S
C2062 C2064 1.356 . S
C2062 O2087 1.325 . S
C2063 C2062 1.348 . S
C2063 C2065 1.353 . S
C2063 H2104 0.929 . S
C2064 C2062 1.356 . S
C2064 C2066 1.358 . S
C2064 H2105 0.930 . S
C2065 C2063 1.353 . S
C2065 N2067 1.314 . S
C2065 H2106 0.930 . S
C2066 C2064 1.358 . S
C2066 N2067 1.279 . S
C2066 H2107 0.930 . S
N2067 C2065 1.314 . S
N2067 C2066 1.279 . S
C2068 C2070 1.353 . S
C2068 N2071 1.314 . S
C2068 H2074 0.930 . S
C2069 N2071 1.279 . S
C2069 C2072 1.358 . S
C2069 H2075 0.930 . S
C2070 C2068 1.353 . S
C2070 C2073 1.348 . S
C2070 H2108 0.929 . S
N2071 Li2026 1.990 . S
N2071 C2068 1.314 . S
N2071 C2069 1.279 . S
C2072 C2069 1.358 . S
C2072 C2073 1.356 . S
C2072 H2109 0.930 . S
C2073 C2070 1.348 . S
C2073 C2072 1.356 . S
H2074 C2068 0.930 . S
H2075 C2069 0.930 . S
C2076 N2077 1.314 . S
C2076 C2078 1.353 . S
C2076 H2082 0.930 . S
N2077 Li2027 1.990 . S
N2077 C2076 1.314 . S
N2077 C2080 1.279 . S
C2078 C2076 1.353 . S
C2078 C2081 1.348 . S
C2078 H2110 0.929 . S
C2079 C2080 1.358 . S
C2079 C2081 1.356 . S
C2079 H2111 0.930 . S
C2080 N2077 1.279 . S
C2080 C2079 1.358 . S
C2080 H2083 0.930 . S
C2081 C2078 1.348 . S
C2081 C2079 1.356 . S
H2082 C2076 0.930 . S
H2083 C2080 0.930 . S
O2084 Li2024 1.956 . S
O2084 Li2025 1.970 . S
O2084 Li2026 1.961 . S
O2084 C2028 1.325 . S
O2085 Li2024 1.970 . S
O2085 Li2025 1.956 . S
O2085 Li2027 1.961 . S
O2085 C2034 1.325 . S
O2086 Li2024 1.961 . S
O2086 Li2026 1.956 . S
O2086 Li2027 1.970 . S
O2086 C2056 1.325 . S
O2087 Li2025 1.961 . S
O2087 Li2026 1.970 . S
O2087 Li2027 1.956 . S
O2087 C2062 1.325 . S
H2088 C2030 0.929 . S
H2089 C2031 0.930 . S
H2090 C2032 0.930 . S
H2091 C2033 0.930 . S
H2092 C2035 0.930 . S
H2093 C2037 0.929 . S
H2094 C2038 0.930 . S
H2095 C2039 0.930 . S
H2096 C2042 0.930 . S
H2097 C2045 0.929 . S
H2098 C2050 0.929 . S
H2099 C2051 0.930 . S
H2100 C2058 0.929 . S
H2101 C2059 0.930 . S
H2102 C2060 0.930 . S
H2103 C2061 0.930 . S
H2104 C2063 0.929 . S
H2105 C2064 0.930 . S
H2106 C2065 0.930 . S
H2107 C2066 0.930 . S
H2108 C2070 0.929 . S
H2109 C2072 0.930 . S
H2110 C2078 0.929 . S
H2111 C2079 0.930 . S
H2112 C2120 0.950 . S
H2113 C2125 0.950 . S
H2114 C2122 0.950 . S
H2115 C2124 0.950 . S
H2116 C2126 0.950 . S
H2117 C2128 0.950 . S
H2118 C2130 0.950 . S
H2119 C2131 0.950 . S
C2120 H2112 0.950 . S
C2120 C2121 1.386 . S
C2120 C2122 1.391 . S
C2121 C2120 1.386 . S
C2121 C2125 1.393 . S
C2122 H2114 0.950 . S
C2122 C2120 1.391 . S
C2122 C2123 1.400 . S
C2123 C2122 1.400 . S
C2123 C2124 1.398 . S
C2123 C2129 1.491 . S
C2124 H2115 0.950 . S
C2124 C2123 1.398 . S
C2124 C2125 1.391 . S
C2125 H2113 0.950 . S
C2125 C2121 1.393 . S
C2125 C2124 1.391 . S
C2126 H2116 0.950 . S
C2126 C2127 1.386 . S
C2126 C2128 1.391 . S
C2127 C2126 1.386 . S
C2127 C2131 1.393 . S
C2128 H2117 0.950 . S
C2128 C2126 1.391 . S
C2128 C2129 1.400 . S
C2129 C2123 1.491 . S
C2129 C2128 1.400 . S
C2129 C2130 1.398 . S
C2130 H2118 0.950 . S
C2130 C2129 1.398 . S
C2130 C2131 1.391 . S
C2131 H2119 0.950 . S
C2131 C2127 1.393 . S
C2131 C2130 1.391 . S
H2132 C2140 0.950 . S
H2133 C2145 0.950 . S
H2134 C2142 0.950 . S
H2135 C2144 0.950 . S
H2136 C2146 0.950 . S
H2137 C2148 0.950 . S
H2138 C2150 0.950 . S
H2139 C2151 0.950 . S
C2140 H2132 0.950 . S
C2140 C2141 1.386 . S
C2140 C2142 1.391 . S
C2141 C2140 1.386 . S
C2141 C2145 1.393 . S
C2142 H2134 0.950 . S
C2142 C2140 1.391 . S
C2142 C2143 1.400 . S
C2143 C2142 1.400 . S
C2143 C2144 1.398 . S
C2143 C2149 1.491 . S
C2144 H2135 0.950 . S
C2144 C2143 1.398 . S
C2144 C2145 1.391 . S
C2145 H2133 0.950 . S
C2145 C2141 1.393 . S
C2145 C2144 1.391 . S
C2146 H2136 0.950 . S
C2146 C2147 1.386 . S
C2146 C2148 1.391 . S
C2147 C2146 1.386 . S
C2147 C2151 1.393 . S
C2148 H2137 0.950 . S
C2148 C2146 1.391 . S
C2148 C2149 1.400 . S
C2149 C2143 1.491 . S
C2149 C2148 1.400 . S
C2149 C2150 1.398 . S
C2150 H2138 0.950 . S
C2150 C2149 1.398 . S
C2150 C2151 1.391 . S
C2151 H2139 0.950 . S
C2151 C2147 1.393 . S
C2151 C2150 1.391 . S
H2152 C2160 0.950 . S
H2153 C2165 0.950 . S
H2154 C2162 0.950 . S
H2155 C2164 0.950 . S
H2156 C2166 0.950 . S
H2157 C2168 0.950 . S
H2158 C2170 0.950 . S
H2159 C2171 0.950 . S
C2160 H2152 0.950 . S
C2160 C2161 1.386 . S
C2160 C2162 1.391 . S
C2161 C2160 1.386 . S
C2161 C2165 1.393 . S
C2162 H2154 0.950 . S
C2162 C2160 1.391 . S
C2162 C2163 1.400 . S
C2163 C2162 1.400 . S
C2163 C2164 1.398 . S
C2163 C2169 1.491 . S
C2164 H2155 0.950 . S
C2164 C2163 1.398 . S
C2164 C2165 1.391 . S
C2165 H2153 0.950 . S
C2165 C2161 1.393 . S
C2165 C2164 1.391 . S
C2166 H2156 0.950 . S
C2166 C2167 1.386 . S
C2166 C2168 1.391 . S
C2167 C2166 1.386 . S
C2167 C2171 1.393 . S
C2168 H2157 0.950 . S
C2168 C2166 1.391 . S
C2168 C2169 1.400 . S
C2169 C2163 1.491 . S
C2169 C2168 1.400 . S
C2169 C2170 1.398 . S
C2170 H2158 0.950 . S
C2170 C2169 1.398 . S
C2170 C2171 1.391 . S
C2171 H2159 0.950 . S
C2171 C2167 1.393 . S
C2171 C2170 1.391 . S
H2172 C2180 0.950 . S
H2173 C2185 0.950 . S
H2174 C2182 0.950 . S
H2175 C2184 0.950 . S
H2176 C2186 0.950 . S
H2177 C2188 0.950 . S
H2178 C2190 0.950 . S
H2179 C2191 0.950 . S
C2180 H2172 0.950 . S
C2180 C2181 1.386 . S
C2180 C2182 1.391 . S
C2181 C2180 1.386 . S
C2181 C2185 1.393 . S
C2182 H2174 0.950 . S
C2182 C2180 1.391 . S
C2182 C2183 1.400 . S
C2183 C2182 1.400 . S
C2183 C2184 1.398 . S
C2183 C2189 1.491 . S
C2184 H2175 0.950 . S
C2184 C2183 1.398 . S
C2184 C2185 1.391 . S
C2185 H2173 0.950 . S
C2185 C2181 1.393 . S
C2185 C2184 1.391 . S
C2186 H2176 0.950 . S
C2186 C2187 1.386 . S
C2186 C2188 1.391 . S
C2187 C2186 1.386 . S
C2187 C2191 1.393 . S
C2188 H2177 0.950 . S
C2188 C2186 1.391 . S
C2188 C2189 1.400 . S
C2189 C2183 1.491 . S
C2189 C2188 1.400 . S
C2189 C2190 1.398 . S
C2190 H2178 0.950 . S
C2190 C2189 1.398 . S
C2190 C2191 1.391 . S
C2191 H2179 0.950 . S
C2191 C2187 1.393 . S
C2191 C2190 1.391 . S
H2192 C2200 0.950 . S
H2193 C2205 0.950 . S
H2194 C2202 0.950 . S
H2195 C2204 0.950 . S
H2196 C2206 0.950 . S
H2197 C2208 0.950 . S
H2198 C2210 0.950 . S
H2199 C2211 0.950 . S
C2200 H2192 0.950 . S
C2200 C2201 1.386 . S
C2200 C2202 1.391 . S
C2201 C2200 1.386 . S
C2201 C2205 1.393 . S
C2202 H2194 0.950 . S
C2202 C2200 1.391 . S
C2202 C2203 1.400 . S
C2203 C2202 1.400 . S
C2203 C2204 1.398 . S
C2203 C2209 1.491 . S
C2204 H2195 0.950 . S
C2204 C2203 1.398 . S
C2204 C2205 1.391 . S
C2205 H2193 0.950 . S
C2205 C2201 1.393 . S
C2205 C2204 1.391 . S
C2206 H2196 0.950 . S
C2206 C2207 1.386 . S
C2206 C2208 1.391 . S
C2207 C2206 1.386 . S
C2207 C2211 1.393 . S
C2208 H2197 0.950 . S
C2208 C2206 1.391 . S
C2208 C2209 1.400 . S
C2209 C2203 1.491 . S
C2209 C2208 1.400 . S
C2209 C2210 1.398 . S
C2210 H2198 0.950 . S
C2210 C2209 1.398 . S
C2210 C2211 1.391 . S
C2211 H2199 0.950 . S
C2211 C2207 1.393 . S
C2211 C2210 1.391 . S
H2212 C2220 0.950 . S
H2213 C2225 0.950 . S
H2214 C2222 0.950 . S
H2215 C2224 0.950 . S
H2216 C2226 0.950 . S
H2217 C2228 0.950 . S
H2218 C2230 0.950 . S
H2219 C2231 0.950 . S
C2220 H2212 0.950 . S
C2220 C2221 1.386 . S
C2220 C2222 1.391 . S
C2221 C2220 1.386 . S
C2221 C2225 1.393 . S
C2222 H2214 0.950 . S
C2222 C2220 1.391 . S
C2222 C2223 1.400 . S
C2223 C2222 1.400 . S
C2223 C2224 1.398 . S
C2223 C2229 1.491 . S
C2224 H2215 0.950 . S
C2224 C2223 1.398 . S
C2224 C2225 1.391 . S
C2225 H2213 0.950 . S
C2225 C2221 1.393 . S
C2225 C2224 1.391 . S
C2226 H2216 0.950 . S
C2226 C2227 1.386 . S
C2226 C2228 1.391 . S
C2227 C2226 1.386 . S
C2227 C2231 1.393 . S
C2228 H2217 0.950 . S
C2228 C2226 1.391 . S
C2228 C2229 1.400 . S
C2229 C2223 1.491 . S
C2229 C2228 1.400 . S
C2229 C2230 1.398 . S
C2230 H2218 0.950 . S
C2230 C2229 1.398 . S
C2230 C2231 1.391 . S
C2231 H2219 0.950 . S
C2231 C2227 1.393 . S
C2231 C2230 1.391 . S
H2232 C2240 0.950 . S
H2233 C2245 0.950 . S
H2234 C2242 0.950 . S
H2235 C2244 0.950 . S
H2236 C2246 0.950 . S
H2237 C2248 0.950 . S
H2238 C2250 0.950 . S
H2239 C2251 0.950 . S
C2240 H2232 0.950 . S
C2240 C2241 1.386 . S
C2240 C2242 1.391 . S
C2241 C2240 1.386 . S
C2241 C2245 1.393 . S
C2242 H2234 0.950 . S
C2242 C2240 1.391 . S
C2242 C2243 1.400 . S
C2243 C2242 1.400 . S
C2243 C2244 1.398 . S
C2243 C2249 1.491 . S
C2244 H2235 0.950 . S
C2244 C2243 1.398 . S
C2244 C2245 1.391 . S
C2245 H2233 0.950 . S
C2245 C2241 1.393 . S
C2245 C2244 1.391 . S
C2246 H2236 0.950 . S
C2246 C2247 1.386 . S
C2246 C2248 1.391 . S
C2247 C2246 1.386 . S
C2247 C2251 1.393 . S
C2248 H2237 0.950 . S
C2248 C2246 1.391 . S
C2248 C2249 1.400 . S
C2249 C2243 1.491 . S
C2249 C2248 1.400 . S
C2249 C2250 1.398 . S
C2250 H2238 0.950 . S
C2250 C2249 1.398 . S
C2250 C2251 1.391 . S
C2251 H2239 0.950 . S
C2251 C2247 1.393 . S
C2251 C2250 1.391 . S
H2252 C2260 0.950 . S
H2253 C2265 0.950 . S
H2254 C2262 0.950 . S
H2255 C2264 0.950 . S
H2256 C2266 0.950 . S
H2257 C2268 0.950 . S
H2258 C2270 0.950 . S
H2259 C2271 0.950 . S
C2260 H2252 0.950 . S
C2260 C2261 1.386 . S
C2260 C2262 1.391 . S
C2261 C2260 1.386 . S
C2261 C2265 1.393 . S
C2262 H2254 0.950 . S
C2262 C2260 1.391 . S
C2262 C2263 1.400 . S
C2263 C2262 1.400 . S
C2263 C2264 1.398 . S
C2263 C2269 1.491 . S
C2264 H2255 0.950 . S
C2264 C2263 1.398 . S
C2264 C2265 1.391 . S
C2265 H2253 0.950 . S
C2265 C2261 1.393 . S
C2265 C2264 1.391 . S
C2266 H2256 0.950 . S
C2266 C2267 1.386 . S
C2266 C2268 1.391 . S
C2267 C2266 1.386 . S
C2267 C2271 1.393 . S
C2268 H2257 0.950 . S
C2268 C2266 1.391 . S
C2268 C2269 1.400 . S
C2269 C2263 1.491 . S
C2269 C2268 1.400 . S
C2269 C2270 1.398 . S
C2270 H2258 0.950 . S
C2270 C2269 1.398 . S
C2270 C2271 1.391 . S
C2271 H2259 0.950 . S
C2271 C2267 1.393 . S
C2271 C2270 1.391 . S
H2272 C2280 0.950 . S
H2273 C2285 0.950 . S
H2274 C2282 0.950 . S
H2275 C2284 0.950 . S
H2276 C2286 0.950 . S
H2277 C2288 0.950 . S
H2278 C2290 0.950 . S
H2279 C2291 0.950 . S
C2280 H2272 0.950 . S
C2280 C2281 1.386 . S
C2280 C2282 1.391 . S
C2281 C2280 1.386 . S
C2281 C2285 1.393 . S
C2282 H2274 0.950 . S
C2282 C2280 1.391 . S
C2282 C2283 1.400 . S
C2283 C2282 1.400 . S
C2283 C2284 1.398 . S
C2283 C2289 1.491 . S
C2284 H2275 0.950 . S
C2284 C2283 1.398 . S
C2284 C2285 1.391 . S
C2285 H2273 0.950 . S
C2285 C2281 1.393 . S
C2285 C2284 1.391 . S
C2286 H2276 0.950 . S
C2286 C2287 1.386 . S
C2286 C2288 1.391 . S
C2287 C2286 1.386 . S
C2287 C2291 1.393 . S
C2288 H2277 0.950 . S
C2288 C2286 1.391 . S
C2288 C2289 1.400 . S
C2289 C2283 1.491 . S
C2289 C2288 1.400 . S
C2289 C2290 1.398 . S
C2290 H2278 0.950 . S
C2290 C2289 1.398 . S
C2290 C2291 1.391 . S
C2291 H2279 0.950 . S
C2291 C2287 1.393 . S
C2291 C2290 1.391 . S
H2292 C2300 0.950 . S
H2293 C2305 0.950 . S
H2294 C2302 0.950 . S
H2295 C2304 0.950 . S
H2296 C2306 0.950 . S
H2297 C2308 0.950 . S
H2298 C2310 0.950 . S
H2299 C2311 0.950 . S
C2300 H2292 0.950 . S
C2300 C2301 1.386 . S
C2300 C2302 1.391 . S
C2301 C2300 1.386 . S
C2301 C2305 1.393 . S
C2302 H2294 0.950 . S
C2302 C2300 1.391 . S
C2302 C2303 1.400 . S
C2303 C2302 1.400 . S
C2303 C2304 1.398 . S
C2303 C2309 1.491 . S
C2304 H2295 0.950 . S
C2304 C2303 1.398 . S
C2304 C2305 1.391 . S
C2305 H2293 0.950 . S
C2305 C2301 1.393 . S
C2305 C2304 1.391 . S
C2306 H2296 0.950 . S
C2306 C2307 1.386 . S
C2306 C2308 1.391 . S
C2307 C2306 1.386 . S
C2307 C2311 1.393 . S
C2308 H2297 0.950 . S
C2308 C2306 1.391 . S
C2308 C2309 1.400 . S
C2309 C2303 1.491 . S
C2309 C2308 1.400 . S
C2309 C2310 1.398 . S
C2310 H2298 0.950 . S
C2310 C2309 1.398 . S
C2310 C2311 1.391 . S
C2311 H2299 0.950 . S
C2311 C2307 1.393 . S
C2311 C2310 1.391 . S
H2312 C2320 0.950 . S
H2313 C2325 0.950 . S
H2314 C2322 0.950 . S
H2315 C2324 0.950 . S
H2316 C2326 0.950 . S
H2317 C2328 0.950 . S
H2318 C2330 0.950 . S
H2319 C2331 0.950 . S
C2320 H2312 0.950 . S
C2320 C2321 1.386 . S
C2320 C2322 1.391 . S
C2321 C2320 1.386 . S
C2321 C2325 1.393 . S
C2322 H2314 0.950 . S
C2322 C2320 1.391 . S
C2322 C2323 1.400 . S
C2323 C2322 1.400 . S
C2323 C2324 1.398 . S
C2323 C2329 1.491 . S
C2324 H2315 0.950 . S
C2324 C2323 1.398 . S
C2324 C2325 1.391 . S
C2325 H2313 0.950 . S
C2325 C2321 1.393 . S
C2325 C2324 1.391 . S
C2326 H2316 0.950 . S
C2326 C2327 1.386 . S
C2326 C2328 1.391 . S
C2327 C2326 1.386 . S
C2327 C2331 1.393 . S
C2328 H2317 0.950 . S
C2328 C2326 1.391 . S
C2328 C2329 1.400 . S
C2329 C2323 1.491 . S
C2329 C2328 1.400 . S
C2329 C2330 1.398 . S
C2330 H2318 0.950 . S
C2330 C2329 1.398 . S
C2330 C2331 1.391 . S
C2331 H2319 0.950 . S
C2331 C2327 1.393 . S
C2331 C2330 1.391 . S
H2332 C2340 0.950 . S
H2333 C2345 0.950 . S
H2334 C2342 0.950 . S
H2335 C2344 0.950 . S
H2336 C2346 0.950 . S
H2337 C2348 0.950 . S
H2338 C2350 0.950 . S
H2339 C2351 0.950 . S
C2340 H2332 0.950 . S
C2340 C2341 1.386 . S
C2340 C2342 1.391 . S
C2341 C2340 1.386 . S
C2341 C2345 1.393 . S
C2342 H2334 0.950 . S
C2342 C2340 1.391 . S
C2342 C2343 1.400 . S
C2343 C2342 1.400 . S
C2343 C2344 1.398 . S
C2343 C2349 1.491 . S
C2344 H2335 0.950 . S
C2344 C2343 1.398 . S
C2344 C2345 1.391 . S
C2345 H2333 0.950 . S
C2345 C2341 1.393 . S
C2345 C2344 1.391 . S
C2346 H2336 0.950 . S
C2346 C2347 1.386 . S
C2346 C2348 1.391 . S
C2347 C2346 1.386 . S
C2347 C2351 1.393 . S
C2348 H2337 0.950 . S
C2348 C2346 1.391 . S
C2348 C2349 1.400 . S
C2349 C2343 1.491 . S
C2349 C2348 1.400 . S
C2349 C2350 1.398 . S
C2350 H2338 0.950 . S
C2350 C2349 1.398 . S
C2350 C2351 1.391 . S
C2351 H2339 0.950 . S
C2351 C2347 1.393 . S
C2351 C2350 1.391 . S
H2352 C2360 0.950 . S
H2353 C2365 0.950 . S
H2354 C2362 0.950 . S
H2355 C2364 0.950 . S
H2356 C2366 0.950 . S
H2357 C2368 0.950 . S
H2358 C2370 0.950 . S
H2359 C2371 0.950 . S
C2360 H2352 0.950 . S
C2360 C2361 1.386 . S
C2360 C2362 1.391 . S
C2361 C2360 1.386 . S
C2361 C2365 1.393 . S
C2362 H2354 0.950 . S
C2362 C2360 1.391 . S
C2362 C2363 1.400 . S
C2363 C2362 1.400 . S
C2363 C2364 1.398 . S
C2363 C2369 1.491 1_556 S
C2364 H2355 0.950 . S
C2364 C2363 1.398 . S
C2364 C2365 1.391 . S
C2365 H2353 0.950 . S
C2365 C2361 1.393 . S
C2365 C2364 1.391 . S
C2366 H2356 0.950 . S
C2366 C2367 1.386 . S
C2366 C2368 1.391 . S
C2367 C2366 1.386 . S
C2367 C2371 1.393 . S
C2368 H2357 0.950 . S
C2368 C2366 1.391 . S
C2368 C2369 1.400 . S
C2369 C2363 1.491 1_554 S
C2369 C2368 1.400 . S
C2369 C2370 1.398 . S
C2370 H2358 0.950 . S
C2370 C2369 1.398 . S
C2370 C2371 1.391 . S
C2371 H2359 0.950 . S
C2371 C2367 1.393 . S
C2371 C2370 1.391 . S
H2372 C2380 0.950 . S
H2373 C2385 0.950 . S
H2374 C2382 0.950 . S
H2375 C2384 0.950 . S
H2376 C2386 0.950 . S
H2377 C2388 0.950 . S
H2378 C2390 0.950 . S
H2379 C2391 0.950 . S
C2380 H2372 0.950 . S
C2380 C2381 1.386 . S
C2380 C2382 1.391 . S
C2381 C2380 1.386 . S
C2381 C2385 1.393 . S
C2382 H2374 0.950 . S
C2382 C2380 1.391 . S
C2382 C2383 1.400 . S
C2383 C2382 1.400 . S
C2383 C2384 1.398 . S
C2383 C2389 1.491 . S
C2384 H2375 0.950 . S
C2384 C2383 1.398 . S
C2384 C2385 1.391 . S
C2385 H2373 0.950 . S
C2385 C2381 1.393 . S
C2385 C2384 1.391 . S
C2386 H2376 0.950 . S
C2386 C2387 1.386 . S
C2386 C2388 1.391 . S
C2387 C2386 1.386 . S
C2387 C2391 1.393 . S
C2388 H2377 0.950 . S
C2388 C2386 1.391 . S
C2388 C2389 1.400 . S
C2389 C2383 1.491 . S
C2389 C2388 1.400 . S
C2389 C2390 1.398 . S
C2390 H2378 0.950 . S
C2390 C2389 1.398 . S
C2390 C2391 1.391 . S
C2391 H2379 0.950 . S
C2391 C2387 1.393 . S
C2391 C2390 1.391 . S
H2392 C2400 0.950 . S
H2393 C2405 0.950 . S
H2394 C2402 0.951 . S
H2395 C2404 0.950 . S
H2396 C2406 0.950 . S
H2397 C2408 0.952 . S
H2398 C2410 0.950 . S
H2399 C2411 0.950 . S
C2400 H2392 0.950 . S
C2400 C2401 1.386 . S
C2400 C2402 1.390 1_554 S
C2401 C2400 1.386 . S
C2401 C2405 1.393 . S
C2402 H2394 0.951 . S
C2402 C2400 1.390 1_556 S
C2402 C2403 1.400 1_556 S
C2403 C2402 1.400 1_554 S
C2403 C2404 1.398 . S
C2403 C2409 1.491 1_554 S
C2404 H2395 0.950 . S
C2404 C2403 1.398 . S
C2404 C2405 1.391 . S
C2405 H2393 0.950 . S
C2405 C2401 1.393 . S
C2405 C2404 1.391 . S
C2406 H2396 0.950 . S
C2406 C2407 1.386 . S
C2406 C2408 1.390 1_556 S
C2407 C2406 1.386 . S
C2407 C2411 1.393 . S
C2408 H2397 0.952 . S
C2408 C2406 1.390 1_554 S
C2408 C2409 1.400 1_554 S
C2409 C2403 1.491 1_556 S
C2409 C2408 1.400 1_556 S
C2409 C2410 1.398 . S
C2410 H2398 0.950 . S
C2410 C2409 1.398 . S
C2410 C2411 1.391 . S
C2411 H2399 0.950 . S
C2411 C2407 1.393 . S
C2411 C2410 1.391 . S
H2412 C2420 0.950 . S
H2413 C2425 0.950 . S
H2414 C2422 0.950 . S
H2415 C2424 0.950 . S
H2416 C2426 0.950 . S
H2417 C2428 0.950 . S
H2418 C2430 0.950 . S
H2419 C2431 0.950 . S
C2420 H2412 0.950 . S
C2420 C2421 1.386 . S
C2420 C2422 1.391 . S
C2421 C2420 1.386 . S
C2421 C2425 1.393 . S
C2422 H2414 0.950 . S
C2422 C2420 1.391 . S
C2422 C2423 1.400 . S
C2423 C2422 1.400 . S
C2423 C2424 1.398 . S
C2423 C2429 1.491 . S
C2424 H2415 0.950 . S
C2424 C2423 1.398 . S
C2424 C2425 1.391 . S
C2425 H2413 0.950 . S
C2425 C2421 1.393 . S
C2425 C2424 1.391 . S
C2426 H2416 0.950 . S
C2426 C2427 1.386 . S
C2426 C2428 1.391 . S
C2427 C2426 1.386 . S
C2427 C2431 1.393 . S
C2428 H2417 0.950 . S
C2428 C2426 1.391 . S
C2428 C2429 1.400 . S
C2429 C2423 1.491 . S
C2429 C2428 1.400 . S
C2429 C2430 1.398 . S
C2430 H2418 0.950 . S
C2430 C2429 1.398 . S
C2430 C2431 1.391 . S
C2431 H2419 0.950 . S
C2431 C2427 1.393 . S
C2431 C2430 1.391 . S
H2432 C2440 0.950 . S
H2433 C2445 0.950 . S
H2434 C2442 0.950 . S
H2435 C2444 0.950 . S
H2436 C2446 0.950 . S
H2437 C2448 0.950 . S
H2438 C2450 0.950 . S
H2439 C2451 0.950 . S
C2440 H2432 0.950 . S
C2440 C2441 1.386 . S
C2440 C2442 1.391 . S
C2441 C2440 1.386 . S
C2441 C2445 1.393 . S
C2442 H2434 0.950 . S
C2442 C2440 1.391 . S
C2442 C2443 1.400 . S
C2443 C2442 1.400 . S
C2443 C2444 1.398 . S
C2443 C2449 1.491 1_556 S
C2444 H2435 0.950 . S
C2444 C2443 1.398 . S
C2444 C2445 1.391 . S
C2445 H2433 0.950 . S
C2445 C2441 1.393 . S
C2445 C2444 1.391 . S
C2446 H2436 0.950 . S
C2446 C2447 1.386 . S
C2446 C2448 1.391 . S
C2447 C2446 1.386 . S
C2447 C2451 1.393 . S
C2448 H2437 0.950 . S
C2448 C2446 1.391 . S
C2448 C2449 1.400 . S
C2449 C2443 1.491 1_554 S
C2449 C2448 1.400 . S
C2449 C2450 1.398 . S
C2450 H2438 0.950 . S
C2450 C2449 1.398 . S
C2450 C2451 1.391 . S
C2451 H2439 0.950 . S
C2451 C2447 1.393 . S
C2451 C2450 1.391 . S
H2452 C2460 0.950 . S
H2453 C2465 0.950 . S
H2454 C2462 0.950 . S
H2455 C2464 0.950 . S
H2456 C2466 0.950 . S
H2457 C2468 0.950 . S
H2458 C2470 0.950 . S
H2459 C2471 0.950 . S
C2460 H2452 0.950 . S
C2460 C2461 1.386 . S
C2460 C2462 1.391 . S
C2461 C2460 1.386 . S
C2461 C2465 1.393 . S
C2462 H2454 0.950 . S
C2462 C2460 1.391 . S
C2462 C2463 1.400 . S
C2463 C2462 1.400 . S
C2463 C2464 1.398 . S
C2463 C2469 1.491 . S
C2464 H2455 0.950 . S
C2464 C2463 1.398 . S
C2464 C2465 1.391 . S
C2465 H2453 0.950 . S
C2465 C2461 1.393 . S
C2465 C2464 1.391 . S
C2466 H2456 0.950 . S
C2466 C2467 1.386 . S
C2466 C2468 1.391 . S
C2467 C2466 1.386 . S
C2467 C2471 1.393 . S
C2468 H2457 0.950 . S
C2468 C2466 1.391 . S
C2468 C2469 1.400 . S
C2469 C2463 1.491 . S
C2469 C2468 1.400 . S
C2469 C2470 1.398 . S
C2470 H2458 0.950 . S
C2470 C2469 1.398 . S
C2470 C2471 1.391 . S
C2471 H2459 0.950 . S
C2471 C2467 1.393 . S
C2471 C2470 1.391 . S
H2472 C2480 0.950 . S
H2473 C2485 0.950 . S
H2474 C2482 0.950 . S
H2475 C2484 0.950 . S
H2476 C2486 0.950 . S
H2477 C2488 0.950 . S
H2478 C2490 0.950 . S
H2479 C2491 0.950 . S
C2480 H2472 0.950 . S
C2480 C2481 1.386 . S
C2480 C2482 1.391 . S
C2481 C2480 1.386 . S
C2481 C2485 1.393 1_554 S
C2482 H2474 0.950 . S
C2482 C2480 1.391 . S
C2482 C2483 1.400 . S
C2483 C2482 1.400 . S
C2483 C2484 1.398 1_554 S
C2483 C2489 1.491 1_554 S
C2484 H2475 0.950 . S
C2484 C2483 1.398 1_556 S
C2484 C2485 1.391 . S
C2485 H2473 0.950 . S
C2485 C2481 1.393 1_556 S
C2485 C2484 1.391 . S
C2486 H2476 0.950 . S
C2486 C2487 1.386 . S
C2486 C2488 1.391 . S
C2487 C2486 1.386 . S
C2487 C2491 1.393 1_556 S
C2488 H2477 0.950 . S
C2488 C2486 1.391 . S
C2488 C2489 1.400 . S
C2489 C2483 1.491 1_556 S
C2489 C2488 1.400 . S
C2489 C2490 1.398 1_556 S
C2490 H2478 0.950 . S
C2490 C2489 1.398 1_554 S
C2490 C2491 1.391 . S
C2491 H2479 0.950 . S
C2491 C2487 1.393 1_554 S
C2491 C2490 1.391 . S
H2492 C2500 0.950 . S
H2493 C2505 0.950 . S
H2494 C2502 0.950 . S
H2495 C2504 0.950 . S
H2496 C2506 0.950 . S
H2497 C2508 0.950 . S
H2498 C2510 0.950 . S
H2499 C2511 0.950 . S
C2500 H2492 0.950 . S
C2500 C2501 1.386 . S
C2500 C2502 1.391 . S
C2501 C2500 1.386 . S
C2501 C2505 1.393 . S
C2502 H2494 0.950 . S
C2502 C2500 1.391 . S
C2502 C2503 1.400 . S
C2503 C2502 1.400 . S
C2503 C2504 1.398 . S
C2503 C2509 1.491 . S
C2504 H2495 0.950 . S
C2504 C2503 1.398 . S
C2504 C2505 1.391 . S
C2505 H2493 0.950 . S
C2505 C2501 1.393 . S
C2505 C2504 1.391 . S
C2506 H2496 0.950 . S
C2506 C2507 1.386 . S
C2506 C2508 1.391 . S
C2507 C2506 1.386 . S
C2507 C2511 1.393 . S
C2508 H2497 0.950 . S
C2508 C2506 1.391 . S
C2508 C2509 1.400 . S
C2509 C2503 1.491 . S
C2509 C2508 1.400 . S
C2509 C2510 1.398 . S
C2510 H2498 0.950 . S
C2510 C2509 1.398 . S
C2510 C2511 1.391 . S
C2511 H2499 0.950 . S
C2511 C2507 1.393 . S
C2511 C2510 1.391 . S
H2512 C2520 0.950 . S
H2513 C2525 0.950 . S
H2514 C2522 0.938 1_554 S
H2515 C2524 0.950 . S
H2516 C2526 0.950 . S
H2517 C2528 0.937 1_556 S
H2518 C2530 0.950 . S
H2519 C2531 0.950 . S
C2520 H2512 0.950 . S
C2520 C2521 1.386 . S
C2520 C2522 1.400 . S
C2521 C2520 1.386 . S
C2521 C2525 1.393 . S
C2522 H2514 0.938 1_556 S
C2522 C2520 1.400 . S
C2522 C2523 1.404 . S
C2523 C2522 1.404 . S
C2523 C2524 1.398 . S
C2523 C2529 1.491 1_556 S
C2524 H2515 0.950 . S
C2524 C2523 1.398 . S
C2524 C2525 1.391 . S
C2525 H2513 0.950 . S
C2525 C2521 1.393 . S
C2525 C2524 1.391 . S
C2526 H2516 0.950 . S
C2526 C2527 1.386 . S
C2526 C2528 1.400 . S
C2527 C2526 1.386 . S
C2527 C2531 1.393 . S
C2528 H2517 0.937 1_554 S
C2528 C2526 1.400 . S
C2528 C2529 1.405 . S
C2529 C2523 1.491 1_554 S
C2529 C2528 1.405 . S
C2529 C2530 1.398 . S
C2530 H2518 0.950 . S
C2530 C2529 1.398 . S
C2530 C2531 1.391 . S
C2531 H2519 0.950 . S
C2531 C2527 1.393 . S
C2531 C2530 1.391 . S
H2532 C2540 0.950 . S
H2533 C2545 0.950 . S
H2534 C2542 0.950 . S
H2535 C2544 0.950 . S
H2536 C2546 0.950 . S
H2537 C2548 0.950 . S
H2538 C2550 0.950 . S
H2539 C2551 0.950 . S
C2540 H2532 0.950 . S
C2540 C2541 1.386 . S
C2540 C2542 1.391 . S
C2541 C2540 1.386 . S
C2541 C2545 1.393 . S
C2542 H2534 0.950 . S
C2542 C2540 1.391 . S
C2542 C2543 1.400 . S
C2543 C2542 1.400 . S
C2543 C2544 1.398 . S
C2543 C2549 1.491 . S
C2544 H2535 0.950 . S
C2544 C2543 1.398 . S
C2544 C2545 1.391 . S
C2545 H2533 0.950 . S
C2545 C2541 1.393 . S
C2545 C2544 1.391 . S
C2546 H2536 0.950 . S
C2546 C2547 1.386 . S
C2546 C2548 1.391 . S
C2547 C2546 1.386 . S
C2547 C2551 1.393 . S
C2548 H2537 0.950 . S
C2548 C2546 1.391 . S
C2548 C2549 1.400 . S
C2549 C2543 1.491 . S
C2549 C2548 1.400 . S
C2549 C2550 1.398 . S
C2550 H2538 0.950 . S
C2550 C2549 1.398 . S
C2550 C2551 1.391 . S
C2551 H2539 0.950 . S
C2551 C2547 1.393 . S
C2551 C2550 1.391 . S
H2552 C2560 0.950 . S
H2553 C2565 0.950 . S
H2554 C2562 0.950 . S
H2555 C2564 0.950 1_554 S
H2556 C2566 0.950 . S
H2557 C2568 0.950 . S
H2558 C2570 0.950 1_556 S
H2559 C2571 0.950 . S
C2560 H2552 0.950 . S
C2560 C2561 1.386 . S
C2560 C2562 1.391 . S
C2561 C2560 1.386 . S
C2561 C2565 1.393 . S
C2562 H2554 0.950 . S
C2562 C2560 1.391 . S
C2562 C2563 1.400 . S
C2563 C2562 1.400 . S
C2563 C2564 1.398 . S
C2563 C2569 1.491 1_556 S
C2564 H2555 0.950 1_556 S
C2564 C2563 1.398 . S
C2564 C2565 1.391 . S
C2565 H2553 0.950 . S
C2565 C2561 1.393 . S
C2565 C2564 1.391 . S
C2566 H2556 0.950 . S
C2566 C2567 1.386 . S
C2566 C2568 1.391 . S
C2567 C2566 1.386 . S
C2567 C2571 1.393 . S
C2568 H2557 0.950 . S
C2568 C2566 1.391 . S
C2568 C2569 1.400 . S
C2569 C2563 1.491 1_554 S
C2569 C2568 1.400 . S
C2569 C2570 1.398 . S
C2570 H2558 0.950 1_554 S
C2570 C2569 1.398 . S
C2570 C2571 1.391 . S
C2571 H2559 0.950 . S
C2571 C2567 1.393 . S
C2571 C2570 1.391 . S
H2572 C2580 0.950 . S
H2573 C2585 0.950 . S
H2574 C2582 0.950 . S
H2575 C2584 0.950 . S
H2576 C2586 0.950 . S
H2577 C2588 0.950 . S
H2578 C2590 0.950 . S
H2579 C2591 0.950 . S
C2580 H2572 0.950 . S
C2580 C2581 1.386 . S
C2580 C2582 1.391 . S
C2581 C2580 1.386 . S
C2581 C2585 1.393 . S
C2582 H2574 0.950 . S
C2582 C2580 1.391 . S
C2582 C2583 1.400 . S
C2583 C2582 1.400 . S
C2583 C2584 1.398 . S
C2583 C2589 1.491 . S
C2584 H2575 0.950 . S
C2584 C2583 1.398 . S
C2584 C2585 1.391 . S
C2585 H2573 0.950 . S
C2585 C2581 1.393 . S
C2585 C2584 1.391 . S
C2586 H2576 0.950 . S
C2586 C2587 1.386 . S
C2586 C2588 1.391 . S
C2587 C2586 1.386 . S
C2587 C2591 1.393 . S
C2588 H2577 0.950 . S
C2588 C2586 1.391 . S
C2588 C2589 1.400 . S
C2589 C2583 1.491 . S
C2589 C2588 1.400 . S
C2589 C2590 1.398 . S
C2590 H2578 0.950 . S
C2590 C2589 1.398 . S
C2590 C2591 1.391 . S
C2591 H2579 0.950 . S
C2591 C2587 1.393 . S
C2591 C2590 1.391 . S
H2592 C2600 0.950 . S
H2593 C2605 0.950 . S
H2594 C2602 0.950 . S
H2595 C2604 0.950 . S
H2596 C2606 0.950 . S
H2597 C2608 0.950 . S
H2598 C2610 0.950 . S
H2599 C2611 0.950 . S
C2600 H2592 0.950 . S
C2600 C2601 1.386 . S
C2600 C2602 1.391 . S
C2601 C2600 1.386 . S
C2601 C2605 1.393 . S
C2602 H2594 0.950 . S
C2602 C2600 1.391 . S
C2602 C2603 1.400 . S
C2603 C2602 1.400 . S
C2603 C2604 1.398 . S
C2603 C2609 1.491 . S
C2604 H2595 0.950 . S
C2604 C2603 1.398 . S
C2604 C2605 1.391 . S
C2605 H2593 0.950 . S
C2605 C2601 1.393 . S
C2605 C2604 1.391 . S
C2606 H2596 0.950 . S
C2606 C2607 1.386 . S
C2606 C2608 1.391 . S
C2607 C2606 1.386 . S
C2607 C2611 1.393 . S
C2608 H2597 0.950 . S
C2608 C2606 1.391 . S
C2608 C2609 1.400 . S
C2609 C2603 1.491 . S
C2609 C2608 1.400 . S
C2609 C2610 1.398 . S
C2610 H2598 0.950 . S
C2610 C2609 1.398 . S
C2610 C2611 1.391 . S
C2611 H2599 0.950 . S
C2611 C2607 1.393 . S
C2611 C2610 1.391 . S
H2612 C2620 0.950 . S
H2613 C2625 0.950 . S
H2614 C2622 0.950 . S
H2615 C2624 0.950 . S
H2616 C2626 0.950 . S
H2617 C2628 0.950 . S
H2618 C2630 0.950 . S
H2619 C2631 0.950 . S
C2620 H2612 0.950 . S
C2620 C2621 1.386 . S
C2620 C2622 1.391 . S
C2621 C2620 1.386 . S
C2621 C2625 1.393 . S
C2622 H2614 0.950 . S
C2622 C2620 1.391 . S
C2622 C2623 1.400 . S
C2623 C2622 1.400 . S
C2623 C2624 1.398 . S
C2623 C2629 1.491 1_455 S
C2624 H2615 0.950 . S
C2624 C2623 1.398 . S
C2624 C2625 1.391 . S
C2625 H2613 0.950 . S
C2625 C2621 1.393 . S
C2625 C2624 1.391 . S
C2626 H2616 0.950 . S
C2626 C2627 1.386 . S
C2626 C2628 1.391 . S
C2627 C2626 1.386 . S
C2627 C2631 1.393 . S
C2628 H2617 0.950 . S
C2628 C2626 1.391 . S
C2628 C2629 1.400 . S
C2629 C2623 1.491 1_655 S
C2629 C2628 1.400 . S
C2629 C2630 1.398 . S
C2630 H2618 0.950 . S
C2630 C2629 1.398 . S
C2630 C2631 1.391 . S
C2631 H2619 0.950 . S
C2631 C2627 1.393 . S
C2631 C2630 1.391 . S
H2632 C2640 0.950 . S
H2633 C2645 0.950 . S
H2634 C2642 0.950 . S
H2635 C2644 0.950 . S
H2636 C2646 0.950 . S
H2637 C2648 0.950 . S
H2638 C2650 0.950 . S
H2639 C2651 0.950 . S
C2640 H2632 0.950 . S
C2640 C2641 1.386 . S
C2640 C2642 1.391 . S
C2641 C2640 1.386 . S
C2641 C2645 1.393 . S
C2642 H2634 0.950 . S
C2642 C2640 1.391 . S
C2642 C2643 1.400 . S
C2643 C2642 1.400 . S
C2643 C2644 1.398 . S
C2643 C2649 1.491 1_565 S
C2644 H2635 0.950 . S
C2644 C2643 1.398 . S
C2644 C2645 1.391 . S
C2645 H2633 0.950 . S
C2645 C2641 1.393 . S
C2645 C2644 1.391 . S
C2646 H2636 0.950 . S
C2646 C2647 1.386 . S
C2646 C2648 1.391 . S
C2647 C2646 1.386 . S
C2647 C2651 1.393 . S
C2648 H2637 0.950 . S
C2648 C2646 1.391 . S
C2648 C2649 1.400 . S
C2649 C2643 1.491 1_545 S
C2649 C2648 1.400 . S
C2649 C2650 1.398 . S
C2650 H2638 0.950 . S
C2650 C2649 1.398 . S
C2650 C2651 1.391 . S
C2651 H2639 0.950 . S
C2651 C2647 1.393 . S
C2651 C2650 1.391 . S
H2652 C2660 0.950 . S
H2653 C2665 0.950 . S
H2654 C2662 0.950 . S
H2655 C2664 0.950 . S
H2656 C2666 0.950 . S
H2657 C2668 0.950 . S
H2658 C2670 0.950 . S
H2659 C2671 0.950 . S
C2660 H2652 0.950 . S
C2660 C2661 1.386 . S
C2660 C2662 1.391 . S
C2661 C2660 1.386 . S
C2661 C2665 1.393 . S
C2662 H2654 0.950 . S
C2662 C2660 1.391 . S
C2662 C2663 1.400 . S
C2663 C2662 1.400 . S
C2663 C2664 1.398 . S
C2663 C2669 1.491 . S
C2664 H2655 0.950 . S
C2664 C2663 1.398 . S
C2664 C2665 1.391 . S
C2665 H2653 0.950 . S
C2665 C2661 1.393 . S
C2665 C2664 1.391 . S
C2666 H2656 0.950 . S
C2666 C2667 1.386 . S
C2666 C2668 1.391 . S
C2667 C2666 1.386 . S
C2667 C2671 1.393 . S
C2668 H2657 0.950 . S
C2668 C2666 1.391 . S
C2668 C2669 1.400 . S
C2669 C2663 1.491 . S
C2669 C2668 1.400 . S
C2669 C2670 1.398 . S
C2670 H2658 0.950 . S
C2670 C2669 1.398 . S
C2670 C2671 1.391 . S
C2671 H2659 0.950 . S
C2671 C2667 1.393 . S
C2671 C2670 1.391 . S
H2672 C2680 0.950 . S
H2673 C2685 0.950 . S
H2674 C2682 0.950 . S
H2675 C2684 0.950 . S
H2676 C2686 0.950 . S
H2677 C2688 0.950 . S
H2678 C2690 0.950 . S
H2679 C2691 0.950 . S
C2680 H2672 0.950 . S
C2680 C2681 1.386 . S
C2680 C2682 1.391 . S
C2681 C2680 1.386 . S
C2681 C2685 1.393 . S
C2682 H2674 0.950 . S
C2682 C2680 1.391 . S
C2682 C2683 1.400 . S
C2683 C2682 1.400 . S
C2683 C2684 1.398 . S
C2683 C2689 1.491 1_655 S
C2684 H2675 0.950 . S
C2684 C2683 1.398 . S
C2684 C2685 1.391 . S
C2685 H2673 0.950 . S
C2685 C2681 1.393 . S
C2685 C2684 1.391 . S
C2686 H2676 0.950 . S
C2686 C2687 1.386 . S
C2686 C2688 1.391 . S
C2687 C2686 1.386 . S
C2687 C2691 1.393 . S
C2688 H2677 0.950 . S
C2688 C2686 1.391 . S
C2688 C2689 1.400 . S
C2689 C2683 1.491 1_455 S
C2689 C2688 1.400 . S
C2689 C2690 1.398 . S
C2690 H2678 0.950 . S
C2690 C2689 1.398 . S
C2690 C2691 1.391 . S
C2691 H2679 0.950 . S
C2691 C2687 1.393 . S
C2691 C2690 1.391 . S
H2692 C2700 0.950 . S
H2693 C2705 0.950 . S
H2694 C2702 0.950 . S
H2695 C2704 0.950 . S
H2696 C2706 0.950 . S
H2697 C2708 0.950 . S
H2698 C2710 0.950 . S
H2699 C2711 0.950 . S
C2700 H2692 0.950 . S
C2700 C2701 1.386 . S
C2700 C2702 1.391 . S
C2701 C2700 1.386 . S
C2701 C2705 1.393 . S
C2702 H2694 0.950 . S
C2702 C2700 1.391 . S
C2702 C2703 1.400 . S
C2703 C2702 1.400 . S
C2703 C2704 1.398 . S
C2703 C2709 1.491 1_545 S
C2704 H2695 0.950 . S
C2704 C2703 1.398 . S
C2704 C2705 1.391 . S
C2705 H2693 0.950 . S
C2705 C2701 1.393 . S
C2705 C2704 1.391 . S
C2706 H2696 0.950 . S
C2706 C2707 1.386 . S
C2706 C2708 1.391 . S
C2707 C2706 1.386 . S
C2707 C2711 1.393 . S
C2708 H2697 0.950 . S
C2708 C2706 1.391 . S
C2708 C2709 1.400 . S
C2709 C2703 1.491 1_565 S
C2709 C2708 1.400 . S
C2709 C2710 1.398 . S
C2710 H2698 0.950 . S
C2710 C2709 1.398 . S
C2710 C2711 1.391 . S
C2711 H2699 0.950 . S
C2711 C2707 1.393 . S
C2711 C2710 1.391 . S
H2712 C2720 0.950 . S
H2713 C2725 0.950 . S
H2714 C2722 0.950 . S
H2715 C2724 0.950 . S
H2716 C2726 0.950 . S
H2717 C2728 0.950 . S
H2718 C2730 0.950 . S
H2719 C2731 0.950 . S
C2720 H2712 0.950 . S
C2720 C2721 1.386 . S
C2720 C2722 1.391 . S
C2721 C2720 1.386 . S
C2721 C2725 1.393 . S
C2722 H2714 0.950 . S
C2722 C2720 1.391 . S
C2722 C2723 1.400 . S
C2723 C2722 1.400 . S
C2723 C2724 1.398 . S
C2723 C2729 1.491 . S
C2724 H2715 0.950 . S
C2724 C2723 1.398 . S
C2724 C2725 1.391 . S
C2725 H2713 0.950 . S
C2725 C2721 1.393 . S
C2725 C2724 1.391 . S
C2726 H2716 0.950 . S
C2726 C2727 1.386 . S
C2726 C2728 1.391 . S
C2727 C2726 1.386 . S
C2727 C2731 1.393 . S
C2728 H2717 0.950 . S
C2728 C2726 1.391 . S
C2728 C2729 1.400 . S
C2729 C2723 1.491 . S
C2729 C2728 1.400 . S
C2729 C2730 1.398 . S
C2730 H2718 0.950 . S
C2730 C2729 1.398 . S
C2730 C2731 1.391 . S
C2731 H2719 0.950 . S
C2731 C2727 1.393 . S
C2731 C2730 1.391 . S
H2732 C2740 0.950 . S
H2733 C2745 0.950 . S
H2734 C2742 0.950 . S
H2735 C2744 0.950 . S
H2736 C2746 0.950 . S
H2737 C2748 0.950 . S
H2738 C2750 0.950 . S
H2739 C2751 0.950 . S
C2740 H2732 0.950 . S
C2740 C2741 1.386 . S
C2740 C2742 1.391 . S
C2741 C2740 1.386 . S
C2741 C2745 1.393 . S
C2742 H2734 0.950 . S
C2742 C2740 1.391 . S
C2742 C2743 1.400 . S
C2743 C2742 1.400 . S
C2743 C2744 1.398 . S
C2743 C2749 1.491 1_655 S
C2744 H2735 0.950 . S
C2744 C2743 1.398 . S
C2744 C2745 1.391 . S
C2745 H2733 0.950 . S
C2745 C2741 1.393 . S
C2745 C2744 1.391 . S
C2746 H2736 0.950 . S
C2746 C2747 1.386 . S
C2746 C2748 1.391 . S
C2747 C2746 1.386 . S
C2747 C2751 1.393 . S
C2748 H2737 0.950 . S
C2748 C2746 1.391 . S
C2748 C2749 1.400 . S
C2749 C2743 1.491 1_455 S
C2749 C2748 1.400 . S
C2749 C2750 1.398 . S
C2750 H2738 0.950 . S
C2750 C2749 1.398 . S
C2750 C2751 1.391 . S
C2751 H2739 0.950 . S
C2751 C2747 1.393 . S
C2751 C2750 1.391 . S
H2752 C2760 0.950 . S
H2753 C2765 0.950 . S
H2754 C2762 0.950 . S
H2755 C2764 0.950 . S
H2756 C2766 0.950 . S
H2757 C2768 0.950 . S
H2758 C2770 0.950 . S
H2759 C2771 0.950 . S
C2760 H2752 0.950 . S
C2760 C2761 1.386 . S
C2760 C2762 1.391 . S
C2761 C2760 1.386 . S
C2761 C2765 1.393 . S
C2762 H2754 0.950 . S
C2762 C2760 1.391 . S
C2762 C2763 1.400 . S
C2763 C2762 1.400 . S
C2763 C2764 1.398 . S
C2763 C2769 1.491 1_545 S
C2764 H2755 0.950 . S
C2764 C2763 1.398 . S
C2764 C2765 1.391 . S
C2765 H2753 0.950 . S
C2765 C2761 1.393 . S
C2765 C2764 1.391 . S
C2766 H2756 0.950 . S
C2766 C2767 1.386 . S
C2766 C2768 1.391 . S
C2767 C2766 1.386 . S
C2767 C2771 1.393 . S
C2768 H2757 0.950 . S
C2768 C2766 1.391 . S
C2768 C2769 1.400 . S
C2769 C2763 1.491 1_565 S
C2769 C2768 1.400 . S
C2769 C2770 1.398 . S
C2770 H2758 0.950 . S
C2770 C2769 1.398 . S
C2770 C2771 1.391 . S
C2771 H2759 0.950 . S
C2771 C2767 1.393 . S
C2771 C2770 1.391 . S
H2772 C2780 0.950 . S
H2773 C2785 0.950 . S
H2774 C2782 0.950 . S
H2775 C2784 0.950 . S
H2776 C2786 0.950 . S
H2777 C2788 0.950 . S
H2778 C2790 0.950 . S
H2779 C2791 0.950 . S
C2780 H2772 0.950 . S
C2780 C2781 1.386 . S
C2780 C2782 1.391 . S
C2781 C2780 1.386 . S
C2781 C2785 1.393 . S
C2782 H2774 0.950 . S
C2782 C2780 1.391 . S
C2782 C2783 1.400 . S
C2783 C2782 1.400 . S
C2783 C2784 1.398 . S
C2783 C2789 1.491 . S
C2784 H2775 0.950 . S
C2784 C2783 1.398 . S
C2784 C2785 1.391 . S
C2785 H2773 0.950 . S
C2785 C2781 1.393 . S
C2785 C2784 1.391 . S
C2786 H2776 0.950 . S
C2786 C2787 1.386 . S
C2786 C2788 1.391 . S
C2787 C2786 1.386 . S
C2787 C2791 1.393 . S
C2788 H2777 0.950 . S
C2788 C2786 1.391 . S
C2788 C2789 1.400 . S
C2789 C2783 1.491 . S
C2789 C2788 1.400 . S
C2789 C2790 1.398 . S
C2790 H2778 0.950 . S
C2790 C2789 1.398 . S
C2790 C2791 1.391 . S
C2791 H2779 0.950 . S
C2791 C2787 1.393 . S
C2791 C2790 1.391 . S
H2792 C2800 0.950 . S
H2793 C2805 0.950 . S
H2794 C2802 0.950 . S
H2795 C2804 0.950 . S
H2796 C2806 0.950 . S
H2797 C2808 0.950 . S
H2798 C2810 0.950 . S
H2799 C2811 0.950 . S
C2800 H2792 0.950 . S
C2800 C2801 1.386 . S
C2800 C2802 1.391 . S
C2801 C2800 1.386 . S
C2801 C2805 1.393 . S
C2802 H2794 0.950 . S
C2802 C2800 1.391 . S
C2802 C2803 1.400 . S
C2803 C2802 1.400 . S
C2803 C2804 1.398 . S
C2803 C2809 1.491 1_455 S
C2804 H2795 0.950 . S
C2804 C2803 1.398 . S
C2804 C2805 1.391 . S
C2805 H2793 0.950 . S
C2805 C2801 1.393 . S
C2805 C2804 1.391 . S
C2806 H2796 0.950 . S
C2806 C2807 1.386 . S
C2806 C2808 1.391 . S
C2807 C2806 1.386 . S
C2807 C2811 1.393 . S
C2808 H2797 0.950 . S
C2808 C2806 1.391 . S
C2808 C2809 1.400 . S
C2809 C2803 1.491 1_655 S
C2809 C2808 1.400 . S
C2809 C2810 1.398 . S
C2810 H2798 0.950 . S
C2810 C2809 1.398 . S
C2810 C2811 1.391 . S
C2811 H2799 0.950 . S
C2811 C2807 1.393 . S
C2811 C2810 1.391 . S
H2812 C2820 0.950 . S
H2813 C2825 0.950 . S
H2814 C2822 0.950 . S
H2815 C2824 0.950 . S
H2816 C2826 0.950 . S
H2817 C2828 0.950 . S
H2818 C2830 0.950 . S
H2819 C2831 0.950 . S
C2820 H2812 0.950 . S
C2820 C2821 1.386 . S
C2820 C2822 1.391 . S
C2821 C2820 1.386 . S
C2821 C2825 1.393 . S
C2822 H2814 0.950 . S
C2822 C2820 1.391 . S
C2822 C2823 1.400 . S
C2823 C2822 1.400 . S
C2823 C2824 1.398 . S
C2823 C2829 1.491 1_565 S
C2824 H2815 0.950 . S
C2824 C2823 1.398 . S
C2824 C2825 1.391 . S
C2825 H2813 0.950 . S
C2825 C2821 1.393 . S
C2825 C2824 1.391 . S
C2826 H2816 0.950 . S
C2826 C2827 1.386 . S
C2826 C2828 1.391 . S
C2827 C2826 1.386 . S
C2827 C2831 1.393 . S
C2828 H2817 0.950 . S
C2828 C2826 1.391 . S
C2828 C2829 1.400 . S
C2829 C2823 1.491 1_545 S
C2829 C2828 1.400 . S
C2829 C2830 1.398 . S
C2830 H2818 0.950 . S
C2830 C2829 1.398 . S
C2830 C2831 1.391 . S
C2831 H2819 0.950 . S
C2831 C2827 1.393 . S
C2831 C2830 1.391 . S
H2832 C2840 0.950 . S
H2833 C2845 0.950 . S
H2834 C2842 0.950 . S
H2835 C2844 0.950 1_554 S
H2836 C2846 0.950 . S
H2837 C2848 0.950 . S
H2838 C2850 0.950 1_556 S
H2839 C2851 0.950 . S
C2840 H2832 0.950 . S
C2840 C2841 1.386 . S
C2840 C2842 1.391 . S
C2841 C2840 1.386 . S
C2841 C2845 1.393 . S
C2842 H2834 0.950 . S
C2842 C2840 1.391 . S
C2842 C2843 1.400 . S
C2843 C2842 1.400 . S
C2843 C2844 1.398 . S
C2843 C2849 1.491 1_556 S
C2844 H2835 0.950 1_556 S
C2844 C2843 1.398 . S
C2844 C2845 1.391 . S
C2845 H2833 0.950 . S
C2845 C2841 1.393 . S
C2845 C2844 1.391 . S
C2846 H2836 0.950 . S
C2846 C2847 1.386 . S
C2846 C2848 1.391 . S
C2847 C2846 1.386 . S
C2847 C2851 1.393 . S
C2848 H2837 0.950 . S
C2848 C2846 1.391 . S
C2848 C2849 1.400 . S
C2849 C2843 1.491 1_554 S
C2849 C2848 1.400 . S
C2849 C2850 1.398 . S
C2850 H2838 0.950 1_554 S
C2850 C2849 1.398 . S
C2850 C2851 1.391 . S
C2851 H2839 0.950 . S
C2851 C2847 1.393 . S
C2851 C2850 1.391 . S
H2852 C2860 0.950 . S
H2853 C2865 0.950 . S
H2854 C2862 0.950 . S
H2855 C2864 0.950 . S
H2856 C2866 0.950 . S
H2857 C2868 0.950 . S
H2858 C2870 0.950 . S
H2859 C2871 0.950 . S
C2860 H2852 0.950 . S
C2860 C2861 1.386 . S
C2860 C2862 1.391 . S
C2861 C2860 1.386 . S
C2861 C2865 1.393 . S
C2862 H2854 0.950 . S
C2862 C2860 1.391 . S
C2862 C2863 1.400 . S
C2863 C2862 1.400 . S
C2863 C2864 1.398 . S
C2863 C2869 1.491 . S
C2864 H2855 0.950 . S
C2864 C2863 1.398 . S
C2864 C2865 1.391 . S
C2865 H2853 0.950 . S
C2865 C2861 1.393 . S
C2865 C2864 1.391 . S
C2866 H2856 0.950 . S
C2866 C2867 1.386 . S
C2866 C2868 1.391 . S
C2867 C2866 1.386 . S
C2867 C2871 1.393 . S
C2868 H2857 0.950 . S
C2868 C2866 1.391 . S
C2868 C2869 1.400 . S
C2869 C2863 1.491 . S
C2869 C2868 1.400 . S
C2869 C2870 1.398 . S
C2870 H2858 0.950 . S
C2870 C2869 1.398 . S
C2870 C2871 1.391 . S
C2871 H2859 0.950 . S
C2871 C2867 1.393 . S
C2871 C2870 1.391 . S
H2872 C2880 0.950 . S
H2873 C2885 0.950 . S
H2874 C2882 0.950 . S
H2875 C2884 0.950 1_554 S
H2876 C2886 0.950 . S
H2877 C2888 0.950 . S
H2878 C2890 0.950 1_556 S
H2879 C2891 0.950 . S
C2880 H2872 0.950 . S
C2880 C2881 1.386 . S
C2880 C2882 1.391 . S
C2881 C2880 1.386 . S
C2881 C2885 1.393 . S
C2882 H2874 0.950 . S
C2882 C2880 1.391 . S
C2882 C2883 1.400 . S
C2883 C2882 1.400 . S
C2883 C2884 1.398 . S
C2883 C2889 1.491 1_556 S
C2884 H2875 0.950 1_556 S
C2884 C2883 1.398 . S
C2884 C2885 1.391 . S
C2885 H2873 0.950 . S
C2885 C2881 1.393 . S
C2885 C2884 1.391 . S
C2886 H2876 0.950 . S
C2886 C2887 1.386 . S
C2886 C2888 1.391 . S
C2887 C2886 1.386 . S
C2887 C2891 1.393 . S
C2888 H2877 0.950 . S
C2888 C2886 1.391 . S
C2888 C2889 1.400 . S
C2889 C2883 1.491 1_554 S
C2889 C2888 1.400 . S
C2889 C2890 1.398 . S
C2890 H2878 0.950 1_554 S
C2890 C2889 1.398 . S
C2890 C2891 1.391 . S
C2891 H2879 0.950 . S
C2891 C2887 1.393 . S
C2891 C2890 1.391 . S
H2892 C2900 0.950 . S
H2893 C2905 0.950 . S
H2894 C2902 0.950 . S
H2895 C2904 0.950 . S
H2896 C2906 0.950 . S
H2897 C2908 0.950 . S
H2898 C2910 0.950 . S
H2899 C2911 0.950 . S
C2900 H2892 0.950 . S
C2900 C2901 1.386 . S
C2900 C2902 1.391 . S
C2901 C2900 1.386 . S
C2901 C2905 1.393 . S
C2902 H2894 0.950 . S
C2902 C2900 1.391 . S
C2902 C2903 1.400 . S
C2903 C2902 1.400 . S
C2903 C2904 1.398 . S
C2903 C2909 1.491 . S
C2904 H2895 0.950 . S
C2904 C2903 1.398 . S
C2904 C2905 1.391 . S
C2905 H2893 0.950 . S
C2905 C2901 1.393 . S
C2905 C2904 1.391 . S
C2906 H2896 0.950 . S
C2906 C2907 1.386 . S
C2906 C2908 1.391 . S
C2907 C2906 1.386 . S
C2907 C2911 1.393 . S
C2908 H2897 0.950 . S
C2908 C2906 1.391 . S
C2908 C2909 1.400 . S
C2909 C2903 1.491 . S
C2909 C2908 1.400 . S
C2909 C2910 1.398 . S
C2910 H2898 0.950 . S
C2910 C2909 1.398 . S
C2910 C2911 1.391 . S
C2911 H2899 0.950 . S
C2911 C2907 1.393 . S
C2911 C2910 1.391 . S
H2912 C2920 0.950 . S
H2913 C2925 0.950 . S
H2914 C2922 0.963 . S
H2915 C2924 0.950 . S
H2916 C2926 0.950 . S
H2917 C2928 0.962 . S
H2918 C2930 0.950 . S
H2919 C2931 0.950 . S
C2920 H2912 0.950 . S
C2920 C2921 1.386 . S
C2920 C2922 1.391 . S
C2921 C2920 1.386 . S
C2921 C2925 1.393 . S
C2922 H2914 0.963 . S
C2922 C2920 1.391 . S
C2922 C2923 1.400 . S
C2923 C2922 1.400 . S
C2923 C2924 1.398 . S
C2923 C2929 1.491 1_556 S
C2924 H2915 0.950 . S
C2924 C2923 1.398 . S
C2924 C2925 1.391 . S
C2925 H2913 0.950 . S
C2925 C2921 1.393 . S
C2925 C2924 1.391 . S
C2926 H2916 0.950 . S
C2926 C2927 1.386 . S
C2926 C2928 1.391 . S
C2927 C2926 1.386 . S
C2927 C2931 1.393 . S
C2928 H2917 0.962 . S
C2928 C2926 1.391 . S
C2928 C2929 1.400 . S
C2929 C2923 1.491 1_554 S
C2929 C2928 1.400 . S
C2929 C2930 1.398 . S
C2930 H2918 0.950 . S
C2930 C2929 1.398 . S
C2930 C2931 1.391 . S
C2931 H2919 0.950 . S
C2931 C2927 1.393 . S
C2931 C2930 1.391 . S
H2932 C2940 0.950 . S
H2933 C2945 0.950 . S
H2934 C2942 0.950 . S
H2935 C2944 0.950 . S
H2936 C2946 0.950 . S
H2937 C2948 0.950 . S
H2938 C2950 0.950 . S
H2939 C2951 0.950 . S
C2940 H2932 0.950 . S
C2940 C2941 1.386 . S
C2940 C2942 1.391 . S
C2941 C2940 1.386 . S
C2941 C2945 1.393 . S
C2942 H2934 0.950 . S
C2942 C2940 1.391 . S
C2942 C2943 1.400 . S
C2943 C2942 1.400 . S
C2943 C2944 1.398 . S
C2943 C2949 1.491 . S
C2944 H2935 0.950 . S
C2944 C2943 1.398 . S
C2944 C2945 1.391 . S
C2945 H2933 0.950 . S
C2945 C2941 1.393 . S
C2945 C2944 1.391 . S
C2946 H2936 0.950 . S
C2946 C2947 1.386 . S
C2946 C2948 1.391 . S
C2947 C2946 1.386 . S
C2947 C2951 1.393 . S
C2948 H2937 0.950 . S
C2948 C2946 1.391 . S
C2948 C2949 1.400 . S
C2949 C2943 1.491 . S
C2949 C2948 1.400 . S
C2949 C2950 1.398 . S
C2950 H2938 0.950 . S
C2950 C2949 1.398 . S
C2950 C2951 1.391 . S
C2951 H2939 0.950 . S
C2951 C2947 1.393 . S
C2951 C2950 1.391 . S
H2952 C2960 0.932 1_556 S
H2953 C2965 0.950 . S
H2954 C2962 0.950 . S
H2955 C2964 0.950 . S
H2956 C2966 0.932 1_554 S
H2957 C2968 0.950 . S
H2958 C2970 0.950 . S
H2959 C2971 0.950 . S
C2960 H2952 0.932 1_554 S
C2960 C2961 1.416 . S
C2960 C2962 1.380 1_554 S
C2961 C2960 1.416 . S
C2961 C2965 1.393 . S
C2962 H2954 0.950 . S
C2962 C2960 1.380 1_556 S
C2962 C2963 1.400 1_556 S
C2963 C2962 1.400 1_554 S
C2963 C2964 1.398 . S
C2963 C2969 1.491 1_554 S
C2964 H2955 0.950 . S
C2964 C2963 1.398 . S
C2964 C2965 1.391 . S
C2965 H2953 0.950 . S
C2965 C2961 1.393 . S
C2965 C2964 1.391 . S
C2966 H2956 0.932 1_556 S
C2966 C2967 1.416 . S
C2966 C2968 1.380 1_556 S
C2967 C2966 1.416 . S
C2967 C2971 1.393 . S
C2968 H2957 0.950 . S
C2968 C2966 1.380 1_554 S
C2968 C2969 1.400 1_554 S
C2969 C2963 1.491 1_556 S
C2969 C2968 1.400 1_556 S
C2969 C2970 1.398 . S
C2970 H2958 0.950 . S
C2970 C2969 1.398 . S
C2970 C2971 1.391 . S
C2971 H2959 0.950 . S
C2971 C2967 1.393 . S
C2971 C2970 1.391 . S
H2972 C2980 0.950 . S
H2973 C2985 0.950 . S
H2974 C2982 0.950 . S
H2975 C2984 0.950 . S
H2976 C2986 0.950 . S
H2977 C2988 0.950 . S
H2978 C2990 0.950 . S
H2979 C2991 0.950 . S
C2980 H2972 0.950 . S
C2980 C2981 1.386 . S
C2980 C2982 1.391 . S
C2981 C2980 1.386 . S
C2981 C2985 1.393 . S
C2982 H2974 0.950 . S
C2982 C2980 1.391 . S
C2982 C2983 1.400 . S
C2983 C2982 1.400 . S
C2983 C2984 1.398 . S
C2983 C2989 1.491 . S
C2984 H2975 0.950 . S
C2984 C2983 1.398 . S
C2984 C2985 1.391 . S
C2985 H2973 0.950 . S
C2985 C2981 1.393 . S
C2985 C2984 1.391 . S
C2986 H2976 0.950 . S
C2986 C2987 1.386 . S
C2986 C2988 1.391 . S
C2987 C2986 1.386 . S
C2987 C2991 1.393 . S
C2988 H2977 0.950 . S
C2988 C2986 1.391 . S
C2988 C2989 1.400 . S
C2989 C2983 1.491 . S
C2989 C2988 1.400 . S
C2989 C2990 1.398 . S
C2990 H2978 0.950 . S
C2990 C2989 1.398 . S
C2990 C2991 1.391 . S
C2991 H2979 0.950 . S
C2991 C2987 1.393 . S
C2991 C2990 1.391 . S
H2992 C3000 0.950 . S
H2993 C3005 0.957 . S
H2994 C3002 0.950 . S
H2995 C3004 0.950 . S
H2996 C3006 0.950 . S
H2997 C3008 0.950 . S
H2998 C3010 0.950 . S
H2999 C3011 0.958 . S
C3000 H2992 0.950 . S
C3000 C3001 1.386 . S
C3000 C3002 1.391 . S
C3001 C3000 1.386 . S
C3001 C3005 1.381 1_554 S
C3002 H2994 0.950 . S
C3002 C3000 1.391 . S
C3002 C3003 1.400 . S
C3003 C3002 1.400 . S
C3003 C3004 1.398 1_554 S
C3003 C3009 1.491 1_554 S
C3004 H2995 0.950 . S
C3004 C3003 1.398 1_556 S
C3004 C3005 1.395 . S
C3005 H2993 0.957 . S
C3005 C3001 1.381 1_556 S
C3005 C3004 1.395 . S
C3006 H2996 0.950 . S
C3006 C3007 1.386 . S
C3006 C3008 1.391 . S
C3007 C3006 1.386 . S
C3007 C3011 1.380 1_556 S
C3008 H2997 0.950 . S
C3008 C3006 1.391 . S
C3008 C3009 1.400 . S
C3009 C3003 1.491 1_556 S
C3009 C3008 1.400 . S
C3009 C3010 1.398 1_556 S
C3010 H2998 0.950 . S
C3010 C3009 1.398 1_554 S
C3010 C3011 1.396 . S
C3011 H2999 0.958 . S
C3011 C3007 1.380 1_554 S
C3011 C3010 1.396 . S
H3012 C3020 0.950 . S
H3013 C3025 0.950 . S
H3014 C3022 0.950 . S
H3015 C3024 0.950 . S
H3016 C3026 0.950 . S
H3017 C3028 0.950 . S
H3018 C3030 0.950 . S
H3019 C3031 0.950 . S
C3020 H3012 0.950 . S
C3020 C3021 1.386 . S
C3020 C3022 1.391 . S
C3021 C3020 1.386 . S
C3021 C3025 1.393 . S
C3022 H3014 0.950 . S
C3022 C3020 1.391 . S
C3022 C3023 1.400 . S
C3023 C3022 1.400 . S
C3023 C3024 1.398 . S
C3023 C3029 1.491 . S
C3024 H3015 0.950 . S
C3024 C3023 1.398 . S
C3024 C3025 1.391 . S
C3025 H3013 0.950 . S
C3025 C3021 1.393 . S
C3025 C3024 1.391 . S
C3026 H3016 0.950 . S
C3026 C3027 1.386 . S
C3026 C3028 1.391 . S
C3027 C3026 1.386 . S
C3027 C3031 1.393 . S
C3028 H3017 0.950 . S
C3028 C3026 1.391 . S
C3028 C3029 1.400 . S
C3029 C3023 1.491 . S
C3029 C3028 1.400 . S
C3029 C3030 1.398 . S
C3030 H3018 0.950 . S
C3030 C3029 1.398 . S
C3030 C3031 1.391 . S
C3031 H3019 0.950 . S
C3031 C3027 1.393 . S
C3031 C3030 1.391 . S
H3032 C3040 0.950 . S
H3033 C3045 0.950 1_554 S
H3034 C3042 0.950 . S
H3035 C3044 0.950 . S
H3036 C3046 0.950 . S
H3037 C3048 0.950 . S
H3038 C3050 0.950 . S
H3039 C3051 0.950 1_556 S
C3040 H3032 0.950 . S
C3040 C3041 1.386 . S
C3040 C3042 1.391 . S
C3041 C3040 1.386 . S
C3041 C3045 1.393 . S
C3042 H3034 0.950 . S
C3042 C3040 1.391 . S
C3042 C3043 1.400 . S
C3043 C3042 1.400 . S
C3043 C3044 1.398 1_556 S
C3043 C3049 1.491 1_556 S
C3044 H3035 0.950 . S
C3044 C3043 1.398 1_554 S
C3044 C3045 1.391 1_554 S
C3045 H3033 0.950 1_556 S
C3045 C3041 1.393 . S
C3045 C3044 1.391 1_556 S
C3046 H3036 0.950 . S
C3046 C3047 1.386 . S
C3046 C3048 1.391 . S
C3047 C3046 1.386 . S
C3047 C3051 1.393 . S
C3048 H3037 0.950 . S
C3048 C3046 1.391 . S
C3048 C3049 1.400 . S
C3049 C3043 1.491 1_554 S
C3049 C3048 1.400 . S
C3049 C3050 1.398 1_554 S
C3050 H3038 0.950 . S
C3050 C3049 1.398 1_556 S
C3050 C3051 1.391 1_556 S
C3051 H3039 0.950 1_554 S
C3051 C3047 1.393 . S
C3051 C3050 1.391 1_554 S
H3052 C3060 0.950 . S
H3053 C3065 0.950 . S
H3054 C3062 0.950 . S
H3055 C3064 0.950 . S
H3056 C3066 0.950 . S
H3057 C3068 0.950 . S
H3058 C3070 0.950 . S
H3059 C3071 0.950 . S
C3060 H3052 0.950 . S
C3060 C3061 1.386 . S
C3060 C3062 1.391 . S
C3061 C3060 1.386 . S
C3061 C3065 1.393 . S
C3062 H3054 0.950 . S
C3062 C3060 1.391 . S
C3062 C3063 1.400 . S
C3063 C3062 1.400 . S
C3063 C3064 1.398 . S
C3063 C3069 1.491 . S
C3064 H3055 0.950 . S
C3064 C3063 1.398 . S
C3064 C3065 1.391 . S
C3065 H3053 0.950 . S
C3065 C3061 1.393 . S
C3065 C3064 1.391 . S
C3066 H3056 0.950 . S
C3066 C3067 1.386 . S
C3066 C3068 1.391 . S
C3067 C3066 1.386 . S
C3067 C3071 1.393 . S
C3068 H3057 0.950 . S
C3068 C3066 1.391 . S
C3068 C3069 1.400 . S
C3069 C3063 1.491 . S
C3069 C3068 1.400 . S
C3069 C3070 1.398 . S
C3070 H3058 0.950 . S
C3070 C3069 1.398 . S
C3070 C3071 1.391 . S
C3071 H3059 0.950 . S
C3071 C3067 1.393 . S
C3071 C3070 1.391 . S
C2121 C20 1.523 . S
C2127 C1369 1.527 . S
C2141 C117 1.525 . S
C2147 C1457 1.527 . S
C2161 C1553 1.527 . S
C2167 C205 1.524 . S
C2181 C1105 1.527 . S
C2187 C293 1.524 . S
C2201 C1164 1.528 . S
C2207 C372 1.523 . S
C2221 C1281 1.530 . S
C2227 C460 1.521 . S
C2241 C1868 1.529 . S
C2247 C577 1.521 . S
C2261 C665 1.525 . S
C2267 C1965 1.527 . S
C2281 C2044 1.526 . S
C2287 C753 1.525 . S
C2301 C841 1.528 . S
C2307 C1641 1.524 . S
C2321 C1701 1.527 . S
C2327 C929 1.524 . S
C2341 C1025 1.527 . S
C2347 C1789 1.525 . S
C2361 C909 0.828 . S
C2367 C57 0.829 . S
C2381 C988 0.831 . S
C2387 C137 0.826 . S
C2401 C225 0.846 . S
C2407 C557 0.839 . S
C2421 C313 0.839 . S
C2427 C645 0.846 . S
C2441 C733 0.843 . S
C2447 C409 0.842 . S
C2461 C497 0.845 . S
C2467 C821 0.840 . S
C2481 C1956 0.831 . S
C2487 C1113 0.817 . S
C2501 C1173 0.824 . S
C2507 C2053 0.833 . S
C2521 C1289 0.811 . S
C2527 C1633 0.815 . S
C2541 C1692 0.813 . S
C2547 C1377 0.828 . S
C2561 C1465 0.817 . S
C2567 C1780 0.811 . S
C2581 C1545 0.810 . S
C2587 C1877 0.822 . S
C2601 C29 1.147 . S
C2607 C1604 1.142 . S
C2621 C1721 1.139 . S
C2627 C108 1.152 . S
C2641 C196 1.143 . S
C2647 C1809 1.146 . S
C2661 C284 1.143 . S
C2667 C1905 1.147 . S
C2681 C1985 1.155 . S
C2687 C381 1.135 . S
C2701 C469 1.142 . S
C2707 C2081 1.149 . S
C2721 C585 1.141 . S
C2727 C1085 1.148 . S
C2741 C673 1.135 . S
C2747 C1201 1.155 . S
C2761 C1261 1.139 . S
C2767 C761 1.151 . S
C2781 C1349 1.155 . S
C2787 C849 1.135 . S
C2801 C937 1.139 . S
C2807 C1437 1.152 . S
C2821 C1516 1.150 . S
C2827 C1017 1.140 . S
C2841 C548 1.639 . S
C2847 C49 1.640 . S
C2861 C145 1.639 . S
C2867 C636 1.640 . S
C2881 C724 1.639 . S
C2887 C233 1.640 . S
C2901 C812 1.641 . S
C2907 C321 1.637 . S
C2921 C900 1.640 . S
C2927 C401 1.639 . S
C2941 C489 1.639 . S
C2947 C997 1.639 . S
C2961 C1613 1.632 . S
C2967 C1076 1.638 . S
C2981 C1193 1.637 . S
C2987 C1729 1.633 . S
C3001 C1817 1.638 . S
C3007 C1252 1.632 . S
C3021 C1897 1.633 . S
C3027 C1340 1.637 . S
C3041 C1428 1.638 . S
C3047 C1993 1.632 . S
C3061 C1525 1.634 . S
C3067 C2073 1.635 . S
