# Generated by pormake.
# Topology ict, (4)-cn, num edge types: 1
# Building blocks:
#     Node 0, Type 0, BuildingBlock: QUQFOY_clean_sbu_1, # of connection points: 4
#     Node 1, Type 0, BuildingBlock: QUQFOY_clean_sbu_1, # of connection points: 4
#     Node 2, Type 0, BuildingBlock: QUQFOY_clean_sbu_1, # of connection points: 4
#     Node 3, Type 0, BuildingBlock: QUQFOY_clean_sbu_1, # of connection points: 4
#     Node 4, Type 0, BuildingBlock: QUQFOY_clean_sbu_1, # of connection points: 4
#     Node 5, Type 0, BuildingBlock: QUQFOY_clean_sbu_1, # of connection points: 4
#     Node 6, Type 0, BuildingBlock: QUQFOY_clean_sbu_1, # of connection points: 4
#     Node 7, Type 0, BuildingBlock: QUQFOY_clean_sbu_1, # of connection points: 4
#     Node 8, Type 0, BuildingBlock: QUQFOY_clean_sbu_1, # of connection points: 4
#     Node 9, Type 0, BuildingBlock: QUQFOY_clean_sbu_1, # of connection points: 4
#     Node 10, Type 0, BuildingBlock: QUQFOY_clean_sbu_1, # of connection points: 4
#     Node 11, Type 0, BuildingBlock: QUQFOY_clean_sbu_1, # of connection points: 4
#     Node 12, Type 0, BuildingBlock: QUQFOY_clean_sbu_1, # of connection points: 4
#     Node 13, Type 0, BuildingBlock: QUQFOY_clean_sbu_1, # of connection points: 4
#     Node 14, Type 0, BuildingBlock: QUQFOY_clean_sbu_1, # of connection points: 4
#     Node 15, Type 0, BuildingBlock: QUQFOY_clean_sbu_1, # of connection points: 4
#     Node 16, Type 0, BuildingBlock: QUQFOY_clean_sbu_1, # of connection points: 4
#     Node 17, Type 0, BuildingBlock: QUQFOY_clean_sbu_1, # of connection points: 4
#     Node 18, Type 0, BuildingBlock: QUQFOY_clean_sbu_1, # of connection points: 4
#     Node 19, Type 0, BuildingBlock: QUQFOY_clean_sbu_1, # of connection points: 4
#     Node 20, Type 0, BuildingBlock: QUQFOY_clean_sbu_1, # of connection points: 4
#     Node 21, Type 0, BuildingBlock: QUQFOY_clean_sbu_1, # of connection points: 4
#     Node 22, Type 0, BuildingBlock: QUQFOY_clean_sbu_1, # of connection points: 4
#     Node 23, Type 0, BuildingBlock: QUQFOY_clean_sbu_1, # of connection points: 4
#     Node 24, Type 0, BuildingBlock: QUQFOY_clean_sbu_1, # of connection points: 4
#     Node 25, Type 0, BuildingBlock: QUQFOY_clean_sbu_1, # of connection points: 4
#     Node 26, Type 0, BuildingBlock: QUQFOY_clean_sbu_1, # of connection points: 4
#     Node 27, Type 0, BuildingBlock: QUQFOY_clean_sbu_1, # of connection points: 4
#     Node 28, Type 0, BuildingBlock: QUQFOY_clean_sbu_1, # of connection points: 4
#     Node 29, Type 0, BuildingBlock: QUQFOY_clean_sbu_1, # of connection points: 4
#     Node 30, Type 0, BuildingBlock: QUQFOY_clean_sbu_1, # of connection points: 4
#     Node 31, Type 0, BuildingBlock: QUQFOY_clean_sbu_1, # of connection points: 4
#     Node 32, Type 0, BuildingBlock: QUQFOY_clean_sbu_1, # of connection points: 4
#     Node 33, Type 0, BuildingBlock: QUQFOY_clean_sbu_1, # of connection points: 4
#     Node 34, Type 0, BuildingBlock: QUQFOY_clean_sbu_1, # of connection points: 4
#     Node 35, Type 0, BuildingBlock: QUQFOY_clean_sbu_1, # of connection points: 4
#     Edge 36, Type (0, 0), BuildingBlock: XIVTED_clean_linker_0, # of connection points: 2
#     Edge 37, Type (0, 0), BuildingBlock: XIVTED_clean_linker_0, # of connection points: 2
#     Edge 38, Type (0, 0), BuildingBlock: XIVTED_clean_linker_0, # of connection points: 2
#     Edge 39, Type (0, 0), BuildingBlock: XIVTED_clean_linker_0, # of connection points: 2
#     Edge 40, Type (0, 0), BuildingBlock: XIVTED_clean_linker_0, # of connection points: 2
#     Edge 41, Type (0, 0), BuildingBlock: XIVTED_clean_linker_0, # of connection points: 2
#     Edge 42, Type (0, 0), BuildingBlock: XIVTED_clean_linker_0, # of connection points: 2
#     Edge 43, Type (0, 0), BuildingBlock: XIVTED_clean_linker_0, # of connection points: 2
#     Edge 44, Type (0, 0), BuildingBlock: XIVTED_clean_linker_0, # of connection points: 2
#     Edge 45, Type (0, 0), BuildingBlock: XIVTED_clean_linker_0, # of connection points: 2
#     Edge 46, Type (0, 0), BuildingBlock: XIVTED_clean_linker_0, # of connection points: 2
#     Edge 47, Type (0, 0), BuildingBlock: XIVTED_clean_linker_0, # of connection points: 2
#     Edge 48, Type (0, 0), BuildingBlock: XIVTED_clean_linker_0, # of connection points: 2
#     Edge 49, Type (0, 0), BuildingBlock: XIVTED_clean_linker_0, # of connection points: 2
#     Edge 50, Type (0, 0), BuildingBlock: XIVTED_clean_linker_0, # of connection points: 2
#     Edge 51, Type (0, 0), BuildingBlock: XIVTED_clean_linker_0, # of connection points: 2
#     Edge 52, Type (0, 0), BuildingBlock: XIVTED_clean_linker_0, # of connection points: 2
#     Edge 53, Type (0, 0), BuildingBlock: XIVTED_clean_linker_0, # of connection points: 2
#     Edge 54, Type (0, 0), BuildingBlock: XIVTED_clean_linker_0, # of connection points: 2
#     Edge 55, Type (0, 0), BuildingBlock: XIVTED_clean_linker_0, # of connection points: 2
#     Edge 56, Type (0, 0), BuildingBlock: XIVTED_clean_linker_0, # of connection points: 2
#     Edge 57, Type (0, 0), BuildingBlock: XIVTED_clean_linker_0, # of connection points: 2
#     Edge 58, Type (0, 0), BuildingBlock: XIVTED_clean_linker_0, # of connection points: 2
#     Edge 59, Type (0, 0), BuildingBlock: XIVTED_clean_linker_0, # of connection points: 2
#     Edge 60, Type (0, 0), BuildingBlock: XIVTED_clean_linker_0, # of connection points: 2
#     Edge 61, Type (0, 0), BuildingBlock: XIVTED_clean_linker_0, # of connection points: 2
#     Edge 62, Type (0, 0), BuildingBlock: XIVTED_clean_linker_0, # of connection points: 2
#     Edge 63, Type (0, 0), BuildingBlock: XIVTED_clean_linker_0, # of connection points: 2
#     Edge 64, Type (0, 0), BuildingBlock: XIVTED_clean_linker_0, # of connection points: 2
#     Edge 65, Type (0, 0), BuildingBlock: XIVTED_clean_linker_0, # of connection points: 2
#     Edge 66, Type (0, 0), BuildingBlock: XIVTED_clean_linker_0, # of connection points: 2
#     Edge 67, Type (0, 0), BuildingBlock: XIVTED_clean_linker_0, # of connection points: 2
#     Edge 68, Type (0, 0), BuildingBlock: XIVTED_clean_linker_0, # of connection points: 2
#     Edge 69, Type (0, 0), BuildingBlock: XIVTED_clean_linker_0, # of connection points: 2
#     Edge 70, Type (0, 0), BuildingBlock: XIVTED_clean_linker_0, # of connection points: 2
#     Edge 71, Type (0, 0), BuildingBlock: XIVTED_clean_linker_0, # of connection points: 2
#     Edge 72, Type (0, 0), BuildingBlock: XIVTED_clean_linker_0, # of connection points: 2
#     Edge 73, Type (0, 0), BuildingBlock: XIVTED_clean_linker_0, # of connection points: 2
#     Edge 74, Type (0, 0), BuildingBlock: XIVTED_clean_linker_0, # of connection points: 2
#     Edge 75, Type (0, 0), BuildingBlock: XIVTED_clean_linker_0, # of connection points: 2
#     Edge 76, Type (0, 0), BuildingBlock: XIVTED_clean_linker_0, # of connection points: 2
#     Edge 77, Type (0, 0), BuildingBlock: XIVTED_clean_linker_0, # of connection points: 2
#     Edge 78, Type (0, 0), BuildingBlock: XIVTED_clean_linker_0, # of connection points: 2
#     Edge 79, Type (0, 0), BuildingBlock: XIVTED_clean_linker_0, # of connection points: 2
#     Edge 80, Type (0, 0), BuildingBlock: XIVTED_clean_linker_0, # of connection points: 2
#     Edge 81, Type (0, 0), BuildingBlock: XIVTED_clean_linker_0, # of connection points: 2
#     Edge 82, Type (0, 0), BuildingBlock: XIVTED_clean_linker_0, # of connection points: 2
#     Edge 83, Type (0, 0), BuildingBlock: XIVTED_clean_linker_0, # of connection points: 2
#     Edge 84, Type (0, 0), BuildingBlock: XIVTED_clean_linker_0, # of connection points: 2
#     Edge 85, Type (0, 0), BuildingBlock: XIVTED_clean_linker_0, # of connection points: 2
#     Edge 86, Type (0, 0), BuildingBlock: XIVTED_clean_linker_0, # of connection points: 2
#     Edge 87, Type (0, 0), BuildingBlock: XIVTED_clean_linker_0, # of connection points: 2
#     Edge 88, Type (0, 0), BuildingBlock: XIVTED_clean_linker_0, # of connection points: 2
#     Edge 89, Type (0, 0), BuildingBlock: XIVTED_clean_linker_0, # of connection points: 2
#     Edge 90, Type (0, 0), BuildingBlock: XIVTED_clean_linker_0, # of connection points: 2
#     Edge 91, Type (0, 0), BuildingBlock: XIVTED_clean_linker_0, # of connection points: 2
#     Edge 92, Type (0, 0), BuildingBlock: XIVTED_clean_linker_0, # of connection points: 2
#     Edge 93, Type (0, 0), BuildingBlock: XIVTED_clean_linker_0, # of connection points: 2
#     Edge 94, Type (0, 0), BuildingBlock: XIVTED_clean_linker_0, # of connection points: 2
#     Edge 95, Type (0, 0), BuildingBlock: XIVTED_clean_linker_0, # of connection points: 2
#     Edge 96, Type (0, 0), BuildingBlock: XIVTED_clean_linker_0, # of connection points: 2
#     Edge 97, Type (0, 0), BuildingBlock: XIVTED_clean_linker_0, # of connection points: 2
#     Edge 98, Type (0, 0), BuildingBlock: XIVTED_clean_linker_0, # of connection points: 2
#     Edge 99, Type (0, 0), BuildingBlock: XIVTED_clean_linker_0, # of connection points: 2
#     Edge 100, Type (0, 0), BuildingBlock: XIVTED_clean_linker_0, # of connection points: 2
#     Edge 101, Type (0, 0), BuildingBlock: XIVTED_clean_linker_0, # of connection points: 2
#     Edge 102, Type (0, 0), BuildingBlock: XIVTED_clean_linker_0, # of connection points: 2
#     Edge 103, Type (0, 0), BuildingBlock: XIVTED_clean_linker_0, # of connection points: 2
#     Edge 104, Type (0, 0), BuildingBlock: XIVTED_clean_linker_0, # of connection points: 2
#     Edge 105, Type (0, 0), BuildingBlock: XIVTED_clean_linker_0, # of connection points: 2
#     Edge 106, Type (0, 0), BuildingBlock: XIVTED_clean_linker_0, # of connection points: 2
#     Edge 107, Type (0, 0), BuildingBlock: XIVTED_clean_linker_0, # of connection points: 2
# Relax obj value: 0.126
# Max RMSD: 0.188
# Mean RMSD: 0.188
data_MOF--net-ict--node1-QUQFOY_clean_sbu_1--edge1-XIVTED_clean_linker_0
_symmetry_space_group_name_H-M    P1
_symmetry_Int_Tables_number       1
_symmetry_cell_setting            triclinic
loop_
_symmetry_equiv_pos_as_xyz
'x, y, z'
_cell_length_a     71.072952
_cell_length_b     71.084582
_cell_length_c     36.938249
_cell_angle_alpha  90.023972
_cell_angle_beta   89.998476
_cell_angle_gamma 120.00066
loop_
_atom_site_label
_atom_site_type_symbol
_atom_site_fract_x
_atom_site_fract_y
_atom_site_fract_z
_atom_type_partial_charge
O0 O 0.24715 0.18124 0.03172 0.0
Cd1 Cd 0.25455 0.21296 0.04047 0.0
Cd2 Cd 0.21109 0.19602 0.03372 0.0
O3 O 0.21323 0.16976 0.01576 0.0
O4 O 0.28545 0.23223 0.02767 0.0
O5 O 0.25814 0.23155 -0.0026 0.0
C6 C 0.27881 0.2393 0.00125 0.0
C7 C 0.18417 0.2018 0.00864 0.0
C8 C 0.229 0.1663 0.01982 0.0
C9 C 0.23198 0.21403 0.10633 0.0
O10 O 0.21478 0.20253 0.08823 0.0
O11 O 0.25047 0.2216 0.09157 0.0
O12 O 0.17951 0.18516 0.02843 0.0
O13 O 0.20439 0.21505 0.00163 0.0
O14 O 0.81508 0.06448 0.03307 0.0
Cd15 Cd 0.78345 0.03992 0.04155 0.0
Cd16 Cd 0.80075 0.01373 0.03426 0.0
O17 O 0.82681 0.04234 0.01649 0.0
O18 O 0.764 0.05134 0.02873 0.0
O19 O 0.7651 0.025 -0.0018 0.0
C20 C 0.7572 0.03779 0.00205 0.0
C21 C 0.79547 0.98129 0.00877 0.0
C22 C 0.83011 0.06149 0.0209 0.0
C23 C 0.78258 0.01611 0.10704 0.0
O24 O 0.79422 0.01066 0.08878 0.0
O25 O 0.77483 0.02693 0.09248 0.0
O26 O 0.81205 0.99339 0.02863 0.0
O27 O 0.78196 0.98797 0.00198 0.0
O28 O 0.93305 0.751 0.03341 0.0
Cd29 Cd 0.95767 0.74398 0.04165 0.0
Cd30 Cd 0.98376 0.78732 0.0339 0.0
O31 O 0.95507 0.78488 0.01677 0.0
O32 O 0.9463 0.7131 0.029 0.0
O33 O 0.97249 0.74049 -0.00179 0.0
C34 C 0.95979 0.7198 0.00225 0.0
C35 C 0.01618 0.81392 0.00759 0.0
C36 C 0.93595 0.76901 0.02138 0.0
C37 C 0.9819 0.76717 0.10675 0.0
O38 O 0.98727 0.78418 0.08836 0.0
O39 O 0.97093 0.74855 0.09243 0.0
O40 O 0.00442 0.81882 0.02751 0.0
O41 O 0.0091 0.79362 0.0011 0.0
O42 O 0.18079 0.24882 0.44286 0.0
Cd43 Cd 0.21237 0.25576 0.43425 0.0
Cd44 Cd 0.19533 0.21253 0.44286 0.0
O45 O 0.16915 0.21507 0.46003 0.0
O46 O 0.23219 0.28654 0.44719 0.0
O47 O 0.23065 0.25882 0.47745 0.0
C48 C 0.23886 0.27956 0.47371 0.0
C49 C 0.20094 0.18584 0.46935 0.0
C50 C 0.16579 0.23085 0.45524 0.0
C51 C 0.2132 0.23225 0.36952 0.0
O52 O 0.20179 0.21536 0.38835 0.0
O53 O 0.22078 0.25097 0.3834 0.0
O54 O 0.18428 0.18101 0.44949 0.0
O55 O 0.2143 0.20613 0.47567 0.0
O56 O 0.75102 0.93238 0.44514 0.0
Cd57 Cd 0.74355 0.95662 0.43619 0.0
Cd58 Cd 0.78686 0.98341 0.44383 0.0
O59 O 0.78476 0.95504 0.46178 0.0
O60 O 0.71274 0.94525 0.44941 0.0
O61 O 0.74034 0.9719 0.47921 0.0
C62 C 0.71963 0.95907 0.47571 0.0
C63 C 0.81375 0.01603 0.46925 0.0
C64 C 0.76915 0.93575 0.45746 0.0
C65 C 0.7664 0.98054 0.37074 0.0
O66 O 0.78349 0.9864 0.38926 0.0
O67 O 0.74782 0.96937 0.38508 0.0
O68 O 0.81843 0.00404 0.44951 0.0
O69 O 0.79352 0.00915 0.47598 0.0
O70 O 0.06667 0.81651 0.44425 0.0
Cd71 Cd 0.04237 0.78478 0.43565 0.0
Cd72 Cd 0.01573 0.80144 0.44296 0.0
O73 O 0.04414 0.82781 0.4606 0.0
O74 O 0.05372 0.76542 0.44945 0.0
O75 O 0.02705 0.76655 0.47883 0.0
C76 C 0.0399 0.75866 0.47573 0.0
C77 C 0.98312 0.79575 0.46838 0.0
C78 C 0.0634 0.83139 0.45629 0.0
C79 C 0.0185 0.78352 0.37009 0.0
O80 O 0.01271 0.79485 0.38847 0.0
O81 O 0.02962 0.77608 0.38455 0.0
O82 O 0.99502 0.81231 0.44839 0.0
O83 O 0.9901 0.78251 0.47537 0.0
O84 O 0.74979 0.81603 0.94457 0.0
Cd85 Cd 0.74295 0.78445 0.93632 0.0
Cd86 Cd 0.7864 0.80193 0.94367 0.0
O87 O 0.78374 0.82802 0.96097 0.0
O88 O 0.71224 0.76474 0.94979 0.0
O89 O 0.74011 0.76639 0.97975 0.0
C90 C 0.71935 0.75821 0.97632 0.0
C91 C 0.81359 0.79682 0.96946 0.0
C92 C 0.7678 0.83118 0.95653 0.0
C93 C 0.7659 0.78343 0.87096 0.0
O94 O 0.78297 0.79513 0.88925 0.0
O95 O 0.74732 0.77573 0.88542 0.0
O96 O 0.81805 0.81332 0.94943 0.0
O97 O 0.7934 0.78332 0.97629 0.0
O98 O 0.18128 0.93275 0.94397 0.0
Cd99 Cd 0.21314 0.95683 0.93556 0.0
Cd100 Cd 0.19677 0.98383 0.94346 0.0
O101 O 0.17029 0.95543 0.96085 0.0
O102 O 0.23219 0.94498 0.9486 0.0
O103 O 0.23153 0.97162 0.97891 0.0
C104 C 0.23916 0.95858 0.97519 0.0
C105 C 0.20246 0.01643 0.96896 0.0
C106 C 0.16653 0.93614 0.95621 0.0
C107 C 0.21472 0.98122 0.87049 0.0
O108 O 0.20347 0.98704 0.88901 0.0
O109 O 0.22199 0.96989 0.8847 0.0
O110 O 0.18591 0.00454 0.94892 0.0
O111 O 0.21569 0.00943 0.976 0.0
O112 O 0.06404 0.24655 0.94621 0.0
Cd113 Cd 0.03966 0.25385 0.93729 0.0
Cd114 Cd 0.01321 0.21038 0.94332 0.0
O115 O 0.04159 0.21251 0.96141 0.0
O116 O 0.05099 0.28458 0.95089 0.0
O117 O 0.02418 0.25689 0.9802 0.0
C118 C 0.03704 0.27762 0.97697 0.0
C119 C 0.98052 0.18327 0.96814 0.0
C120 C 0.06082 0.22834 0.95778 0.0
C121 C 0.01637 0.23163 0.87096 0.0
O122 O 0.01054 0.21434 0.88884 0.0
O123 O 0.02726 0.25004 0.88599 0.0
O124 O 0.99258 0.17876 0.94823 0.0
O125 O 0.98737 0.20344 0.97534 0.0
O126 O 0.8186 0.75129 0.53301 0.0
Cd127 Cd 0.78692 0.7439 0.54203 0.0
Cd128 Cd 0.80355 0.78706 0.53465 0.0
O129 O 0.82991 0.78509 0.51667 0.0
O130 O 0.7675 0.7133 0.52766 0.0
O131 O 0.76851 0.7413 0.49927 0.0
C132 C 0.76064 0.72055 0.50181 0.0
C133 C 0.79738 0.81363 0.5092 0.0
C134 C 0.83346 0.7694 0.52086 0.0
C135 C 0.78589 0.7665 0.6077 0.0
O136 O 0.79716 0.78359 0.58922 0.0
O137 O 0.77841 0.74792 0.59329 0.0
O138 O 0.81411 0.81854 0.52894 0.0
O139 O 0.78425 0.79334 0.50246 0.0
O140 O 0.24593 0.06614 0.53312 0.0
Cd141 Cd 0.2534 0.04187 0.5417 0.0
Cd142 Cd 0.2102 0.01526 0.53451 0.0
O143 O 0.21208 0.0436 0.51693 0.0
O144 O 0.28398 0.05314 0.52712 0.0
O145 O 0.25593 0.02617 0.4987 0.0
C146 C 0.27669 0.03909 0.50117 0.0
C147 C 0.18352 0.98259 0.50894 0.0
C148 C 0.22776 0.06286 0.52119 0.0
C149 C 0.23096 0.01805 0.60731 0.0
O150 O 0.21382 0.01223 0.58898 0.0
O151 O 0.24951 0.02922 0.59283 0.0
O152 O 0.17868 0.9944 0.52888 0.0
O153 O 0.20379 0.98971 0.5021 0.0
O154 O 0.93209 0.18169 0.5338 0.0
Cd155 Cd 0.95672 0.21327 0.54232 0.0
Cd156 Cd 0.98291 0.19628 0.53381 0.0
O157 O 0.95424 0.17015 0.51635 0.0
O158 O 0.94579 0.23304 0.52888 0.0
O159 O 0.97204 0.23137 0.49903 0.0
C160 C 0.95947 0.23958 0.5024 0.0
C161 C 0.01526 0.20179 0.50759 0.0
C162 C 0.93508 0.16674 0.52123 0.0
C163 C 0.9809 0.2141 0.60717 0.0
O164 O 0.98637 0.20265 0.58838 0.0
O165 O 0.96985 0.22176 0.59321 0.0
O166 O 0.00331 0.18512 0.52734 0.0
O167 O 0.00845 0.21525 0.50128 0.0
O168 O 0.91218 0.51332 0.36754 0.0
Cd169 Cd 0.91947 0.54502 0.37602 0.0
Cd170 Cd 0.87598 0.52795 0.36958 0.0
O171 O 0.87819 0.5017 0.35181 0.0
O172 O 0.9503 0.56433 0.36282 0.0
O173 O 0.9228 0.56336 0.33273 0.0
C174 C 0.9435 0.57119 0.33633 0.0
C175 C 0.84893 0.53349 0.34437 0.0
C176 C 0.89401 0.49831 0.35581 0.0
C177 C 0.89702 0.54624 0.44199 0.0
O178 O 0.87978 0.53466 0.42404 0.0
O179 O 0.91548 0.55379 0.4271 0.0
O180 O 0.84437 0.51694 0.36433 0.0
O181 O 0.86914 0.54682 0.33732 0.0
O182 O 0.48174 0.39752 0.36631 0.0
Cd183 Cd 0.45017 0.37285 0.37484 0.0
Cd184 Cd 0.46773 0.3469 0.36786 0.0
O185 O 0.49377 0.37555 0.35023 0.0
O186 O 0.43058 0.38412 0.36216 0.0
O187 O 0.43171 0.3578 0.33164 0.0
C188 C 0.42372 0.37051 0.33559 0.0
C189 C 0.46242 0.31445 0.34237 0.0
C190 C 0.49691 0.39466 0.35446 0.0
C191 C 0.44949 0.34927 0.44054 0.0
O192 O 0.46117 0.34383 0.42236 0.0
O193 O 0.44167 0.35999 0.42588 0.0
O194 O 0.47901 0.32654 0.36222 0.0
O195 O 0.44894 0.32116 0.33556 0.0
O196 O 0.599 0.08396 0.36642 0.0
Cd197 Cd 0.6232 0.07642 0.37535 0.0
Cd198 Cd 0.64999 0.11976 0.3659 0.0
O199 O 0.62143 0.11748 0.34851 0.0
O200 O 0.61101 0.04519 0.36445 0.0
O201 O 0.63747 0.07157 0.33246 0.0
C202 C 0.62437 0.05105 0.33759 0.0
C203 C 0.68243 0.14626 0.33942 0.0
C204 C 0.6022 0.10192 0.3536 0.0
C205 C 0.64799 0.10034 0.4396 0.0
O206 O 0.6536 0.11715 0.42049 0.0
O207 O 0.63664 0.08156 0.42605 0.0
O208 O 0.67062 0.15123 0.35908 0.0
O209 O 0.6754 0.12594 0.33328 0.0
O210 O 0.8476 0.58064 0.78 0.0
Cd211 Cd 0.87919 0.58772 0.7709 0.0
Cd212 Cd 0.86217 0.54444 0.77933 0.0
O213 O 0.83622 0.54702 0.79766 0.0
O214 O 0.89878 0.61866 0.78314 0.0
O215 O 0.89786 0.59138 0.81386 0.0
C216 C 0.90578 0.61205 0.80972 0.0
C217 C 0.8681 0.51778 0.80512 0.0
C218 C 0.83277 0.56274 0.79289 0.0
C219 C 0.87949 0.56418 0.70582 0.0
O220 O 0.86804 0.54728 0.72459 0.0
O221 O 0.88737 0.58289 0.7199 0.0
O222 O 0.85119 0.51293 0.78588 0.0
O223 O 0.88155 0.53808 0.81119 0.0
O224 O 0.41881 0.2674 0.77966 0.0
Cd225 Cd 0.41129 0.29158 0.77046 0.0
Cd226 Cd 0.45473 0.31835 0.77779 0.0
O227 O 0.45258 0.29003 0.79616 0.0
O228 O 0.38033 0.27985 0.78293 0.0
O229 O 0.40748 0.3066 0.8133 0.0
C230 C 0.38684 0.29359 0.80932 0.0
C231 C 0.48164 0.35109 0.80283 0.0
C232 C 0.43693 0.27075 0.79199 0.0
C233 C 0.43414 0.31522 0.70477 0.0
O234 O 0.45126 0.32106 0.72317 0.0
O235 O 0.41558 0.30422 0.71928 0.0
O236 O 0.4863 0.33901 0.7833 0.0
O237 O 0.46141 0.34422 0.80957 0.0
O238 O 0.7341 0.15158 0.7773 0.0
Cd239 Cd 0.70944 0.12004 0.76838 0.0
Cd240 Cd 0.68349 0.13744 0.77502 0.0
O241 O 0.71202 0.16356 0.79292 0.0
O242 O 0.72042 0.10028 0.78157 0.0
O243 O 0.69396 0.1016 0.81132 0.0
C244 C 0.70656 0.09345 0.80779 0.0
C245 C 0.65087 0.1315 0.80064 0.0
C246 C 0.73115 0.16672 0.78904 0.0
C247 C 0.68606 0.11936 0.70239 0.0
O248 O 0.68055 0.13101 0.72048 0.0
O249 O 0.69679 0.11158 0.71718 0.0
O250 O 0.66274 0.14821 0.78092 0.0
O251 O 0.65791 0.11826 0.80727 0.0
O252 O 0.41603 0.14906 0.278 0.0
Cd253 Cd 0.40875 0.11737 0.26936 0.0
Cd254 Cd 0.45225 0.13454 0.27767 0.0
O255 O 0.44979 0.1607 0.29516 0.0
O256 O 0.37759 0.09826 0.28068 0.0
O257 O 0.40418 0.09848 0.31248 0.0
C258 C 0.38362 0.09096 0.3076 0.0
C259 C 0.47907 0.12889 0.30358 0.0
C260 C 0.434 0.16405 0.2904 0.0
C261 C 0.43225 0.11658 0.20447 0.0
O262 O 0.44919 0.12812 0.22313 0.0
O263 O 0.41356 0.10889 0.21856 0.0
O264 O 0.48381 0.14557 0.28384 0.0
O265 O 0.45881 0.11554 0.31014 0.0
O266 O 0.84763 0.26553 0.27731 0.0
Cd267 Cd 0.87938 0.28987 0.269 0.0
Cd268 Cd 0.86284 0.31659 0.277 0.0
O269 O 0.83637 0.28804 0.2939 0.0
O270 O 0.89887 0.27869 0.28283 0.0
O271 O 0.89748 0.3052 0.31232 0.0
C272 C 0.90553 0.29249 0.30916 0.0
C273 C 0.86831 0.34896 0.30309 0.0
C274 C 0.83275 0.26879 0.28932 0.0
C275 C 0.88097 0.31433 0.20402 0.0
O276 O 0.86973 0.32013 0.22262 0.0
O277 O 0.88816 0.30291 0.21811 0.0
O278 O 0.85185 0.33717 0.28281 0.0
O279 O 0.88158 0.342 0.31 0.0
O280 O 0.73052 0.58059 0.27946 0.0
Cd281 Cd 0.7062 0.58798 0.27073 0.0
Cd282 Cd 0.67966 0.54428 0.2783 0.0
O283 O 0.70826 0.54672 0.29587 0.0
O284 O 0.71841 0.61916 0.28205 0.0
O285 O 0.6919 0.59268 0.31377 0.0
C286 C 0.70504 0.61322 0.3089 0.0
C287 C 0.64722 0.51709 0.30372 0.0
C288 C 0.72744 0.56253 0.29153 0.0
C289 C 0.68202 0.56477 0.20546 0.0
O290 O 0.67643 0.5477 0.22384 0.0
O291 O 0.69308 0.58337 0.21983 0.0
O292 O 0.65932 0.51264 0.28382 0.0
O293 O 0.65391 0.53726 0.31065 0.0
O294 O 0.48609 0.08589 0.86596 0.0
Cd295 Cd 0.45441 0.07846 0.87523 0.0
Cd296 Cd 0.47103 0.12172 0.86836 0.0
O297 O 0.49731 0.11975 0.85002 0.0
O298 O 0.43492 0.04775 0.86156 0.0
O299 O 0.43584 0.07552 0.83248 0.0
C300 C 0.42793 0.05479 0.83558 0.0
C301 C 0.46486 0.14838 0.84331 0.0
C302 C 0.5009 0.10406 0.8539 0.0
C303 C 0.45348 0.10098 0.94122 0.0
O304 O 0.46477 0.11815 0.92296 0.0
O305 O 0.44597 0.08247 0.92656 0.0
O306 O 0.48162 0.15322 0.86292 0.0
O307 O 0.45169 0.12811 0.83648 0.0
O308 O 0.91656 0.40009 0.86752 0.0
Cd309 Cd 0.92385 0.37565 0.87565 0.0
Cd310 Cd 0.88039 0.3492 0.86828 0.0
O311 O 0.88269 0.3778 0.85113 0.0
O312 O 0.95469 0.38713 0.86256 0.0
O313 O 0.92718 0.36077 0.83216 0.0
C314 C 0.94788 0.37357 0.8359 0.0
C315 C 0.85326 0.3168 0.8426 0.0
C316 C 0.89845 0.39699 0.85562 0.0
C317 C 0.90103 0.35148 0.94096 0.0
O318 O 0.88392 0.3459 0.92268 0.0
O319 O 0.9196 0.36255 0.9265 0.0
O320 O 0.84876 0.32877 0.86274 0.0
O321 O 0.87346 0.3236 0.83561 0.0
O322 O 0.59974 0.51697 0.86634 0.0
Cd323 Cd 0.62423 0.54859 0.87525 0.0
Cd324 Cd 0.65045 0.53144 0.86868 0.0
O325 O 0.62204 0.50528 0.85052 0.0
O326 O 0.61309 0.56814 0.86157 0.0
O327 O 0.63976 0.56697 0.83228 0.0
C328 C 0.62699 0.57495 0.83542 0.0
C329 C 0.68318 0.53707 0.84387 0.0
C330 C 0.60285 0.50195 0.85447 0.0
C331 C 0.64742 0.54932 0.94138 0.0
O332 O 0.65311 0.53783 0.92323 0.0
O333 O 0.63667 0.55707 0.92657 0.0
O334 O 0.67107 0.52044 0.86361 0.0
O335 O 0.67633 0.55041 0.83677 0.0
O336 O 0.58173 0.84927 0.70122 0.0
Cd337 Cd 0.58918 0.881 0.70989 0.0
Cd338 Cd 0.54597 0.8646 0.70046 0.0
O339 O 0.54834 0.83842 0.6828 0.0
O340 O 0.62006 0.90043 0.69713 0.0
O341 O 0.59261 0.89933 0.66659 0.0
C342 C 0.61331 0.90722 0.67044 0.0
C343 C 0.51903 0.87008 0.67449 0.0
C344 C 0.5638 0.83463 0.68808 0.0
C345 C 0.56555 0.88202 0.77422 0.0
O346 O 0.54875 0.87083 0.75507 0.0
O347 O 0.58435 0.88949 0.76066 0.0
O348 O 0.51439 0.85339 0.69413 0.0
O349 O 0.53928 0.88358 0.66811 0.0
O350 O 0.15217 0.73381 0.7019 0.0
Cd351 Cd 0.12042 0.70944 0.71019 0.0
Cd352 Cd 0.13723 0.68294 0.7041 0.0
O353 O 0.16376 0.71133 0.68686 0.0
O354 O 0.101 0.72062 0.69579 0.0
O355 O 0.10235 0.69392 0.66691 0.0
C356 C 0.09433 0.70668 0.66969 0.0
C357 C 0.13138 0.65032 0.67856 0.0
C358 C 0.16721 0.73057 0.69064 0.0
C359 C 0.11873 0.68573 0.77627 0.0
O360 O 0.13022 0.67991 0.75844 0.0
O361 O 0.11142 0.69682 0.7613 0.0
O362 O 0.14785 0.66204 0.69888 0.0
O363 O 0.11832 0.6575 0.67135 0.0
O364 O 0.26688 0.41707 0.69949 0.0
Cd365 Cd 0.29127 0.40976 0.70809 0.0
Cd366 Cd 0.31772 0.4532 0.70134 0.0
O367 O 0.28925 0.45102 0.68363 0.0
O368 O 0.27975 0.37893 0.69491 0.0
O369 O 0.30633 0.40642 0.66488 0.0
C370 C 0.29344 0.38572 0.66845 0.0
C371 C 0.35035 0.48023 0.67617 0.0
C372 C 0.27004 0.43522 0.6877 0.0
C373 C 0.31493 0.43231 0.77393 0.0
O374 O 0.32065 0.44949 0.75581 0.0
O375 O 0.30398 0.41381 0.7592 0.0
O376 O 0.33836 0.4848 0.69614 0.0
O377 O 0.34343 0.46003 0.66904 0.0
O378 O 0.5125 0.9125 0.1128 0.0
Cd379 Cd 0.54425 0.9199 0.10446 0.0
Cd380 Cd 0.52717 0.87657 0.10957 0.0
O381 O 0.50064 0.87831 0.12728 0.0
O382 O 0.56333 0.95049 0.11919 0.0
O383 O 0.56249 0.92257 0.14758 0.0
C384 C 0.57017 0.9433 0.14516 0.0
C385 C 0.53336 0.84989 0.13443 0.0
C386 C 0.49735 0.89422 0.12382 0.0
C387 C 0.54579 0.89832 0.03776 0.0
O388 O 0.53412 0.8809 0.05522 0.0
O389 O 0.55331 0.91662 0.05318 0.0
O390 O 0.51679 0.84506 0.11432 0.0
O391 O 0.5463 0.87012 0.14185 0.0
O392 O 0.082 0.59826 0.11136 0.0
Cd393 Cd 0.07459 0.62258 0.1029 0.0
Cd394 Cd 0.11784 0.64941 0.11276 0.0
O395 O 0.11539 0.62073 0.12984 0.0
O396 O 0.04368 0.61114 0.11543 0.0
O397 O 0.07105 0.63737 0.14628 0.0
C398 C 0.05036 0.62462 0.14222 0.0
C399 C 0.14476 0.68158 0.13939 0.0
C400 C 0.09992 0.60149 0.12443 0.0
C401 C 0.09845 0.64763 0.03897 0.0
O402 O 0.11521 0.65323 0.05823 0.0
O403 O 0.07962 0.63614 0.05231 0.0
O404 O 0.14942 0.66965 0.11946 0.0
O405 O 0.12451 0.67488 0.14563 0.0
O406 O 0.39744 0.48242 0.11274 0.0
Cd407 Cd 0.37273 0.45091 0.10377 0.0
Cd408 Cd 0.34684 0.46852 0.11111 0.0
O409 O 0.37548 0.49436 0.12934 0.0
O410 O 0.38388 0.4312 0.11626 0.0
O411 O 0.35756 0.43234 0.14676 0.0
C412 C 0.37023 0.4243 0.14277 0.0
C413 C 0.31431 0.4631 0.13637 0.0
C414 C 0.39458 0.4975 0.12504 0.0
C415 C 0.34929 0.45063 0.03813 0.0
O416 O 0.34393 0.46231 0.05649 0.0
O417 O 0.3599 0.44265 0.05266 0.0
O418 O 0.32653 0.47983 0.11693 0.0
O419 O 0.32096 0.44954 0.14296 0.0
O420 O 0.08623 0.48585 0.6118 0.0
Cd421 Cd 0.07878 0.45417 0.60266 0.0
Cd422 Cd 0.12221 0.47086 0.60983 0.0
O423 O 0.12006 0.49708 0.628 0.0
O424 O 0.04791 0.43481 0.61558 0.0
O425 O 0.07533 0.43552 0.64556 0.0
C426 C 0.05464 0.42775 0.64188 0.0
C427 C 0.14905 0.46504 0.63514 0.0
C428 C 0.10437 0.50066 0.62398 0.0
C429 C 0.10154 0.45314 0.53695 0.0
O430 O 0.11869 0.46446 0.55526 0.0
O431 O 0.083 0.44569 0.5515 0.0
O432 O 0.15377 0.48173 0.61544 0.0
O433 O 0.12881 0.45173 0.64187 0.0
O434 O 0.51484 0.6008 0.61231 0.0
Cd435 Cd 0.54646 0.62527 0.60337 0.0
Cd436 Cd 0.52961 0.65159 0.61123 0.0
O437 O 0.50341 0.62313 0.62917 0.0
O438 O 0.56614 0.61424 0.61683 0.0
O439 O 0.56483 0.64077 0.64636 0.0
C440 C 0.57292 0.6281 0.64306 0.0
C441 C 0.53568 0.68423 0.63701 0.0
C442 C 0.49995 0.60393 0.62471 0.0
C443 C 0.54722 0.64905 0.53802 0.0
O444 O 0.53584 0.65467 0.55662 0.0
O445 O 0.55486 0.63805 0.55227 0.0
O446 O 0.51889 0.67236 0.61742 0.0
O447 O 0.54891 0.67717 0.64347 0.0
O448 O 0.40001 0.9167 0.61175 0.0
Cd449 Cd 0.3753 0.92358 0.60353 0.0
Cd450 Cd 0.34927 0.88043 0.6125 0.0
O451 O 0.37803 0.88306 0.62959 0.0
O452 O 0.38626 0.95432 0.61673 0.0
O453 O 0.36019 0.92651 0.647 0.0
C454 C 0.37272 0.94727 0.64341 0.0
C455 C 0.31698 0.85375 0.6391 0.0
C456 C 0.39714 0.89882 0.62437 0.0
C457 C 0.3509 0.89995 0.53902 0.0
O458 O 0.34559 0.88314 0.55796 0.0
O459 O 0.36193 0.91873 0.5528 0.0
O460 O 0.32884 0.84891 0.6193 0.0
O461 O 0.32388 0.87404 0.6453 0.0
O462 O 0.14862 0.41642 0.19904 0.0
Cd463 Cd 0.11703 0.40943 0.20776 0.0
Cd464 Cd 0.13419 0.45261 0.20012 0.0
O465 O 0.16035 0.45025 0.18229 0.0
O466 O 0.09736 0.37868 0.19456 0.0
O467 O 0.09866 0.40639 0.16467 0.0
C468 C 0.09059 0.38565 0.16818 0.0
C469 C 0.12813 0.47919 0.17437 0.0
C470 C 0.16366 0.43441 0.1868 0.0
C471 C 0.11646 0.43248 0.27324 0.0
O472 O 0.12801 0.44948 0.25475 0.0
O473 O 0.10862 0.41385 0.25885 0.0
O474 O 0.14493 0.4841 0.19391 0.0
O475 O 0.11488 0.45889 0.16793 0.0
O476 O 0.58017 0.73148 0.19867 0.0
Cd477 Cd 0.58779 0.70736 0.20789 0.0
Cd478 Cd 0.54432 0.68047 0.20142 0.0
O479 O 0.54629 0.7087 0.18296 0.0
O480 O 0.61856 0.71887 0.19428 0.0
O481 O 0.59095 0.69187 0.16512 0.0
C482 C 0.61165 0.70486 0.16827 0.0
C483 C 0.51704 0.64769 0.17707 0.0
C484 C 0.56194 0.72801 0.1867 0.0
C485 C 0.56553 0.68402 0.27408 0.0
O486 O 0.54828 0.678 0.25596 0.0
O487 O 0.58399 0.69505 0.25926 0.0
O488 O 0.51267 0.65989 0.19684 0.0
O489 O 0.53719 0.65443 0.16974 0.0
O490 O 0.26432 0.8469 0.20271 0.0
Cd491 Cd 0.28905 0.87854 0.21046 0.0
Cd492 Cd 0.31504 0.86096 0.20404 0.0
O493 O 0.28626 0.83469 0.18739 0.0
O494 O 0.27785 0.89808 0.19699 0.0
O495 O 0.30402 0.89648 0.16678 0.0
C496 C 0.2914 0.9046 0.17033 0.0
C497 C 0.34727 0.86602 0.17804 0.0
C498 C 0.26716 0.8316 0.19148 0.0
C499 C 0.31316 0.8801 0.27611 0.0
O500 O 0.31858 0.86829 0.25827 0.0
O501 O 0.30219 0.88759 0.26127 0.0
O502 O 0.33542 0.84968 0.19852 0.0
O503 O 0.34045 0.87937 0.17093 0.0
H504 H 0.34309 0.2756 0.8006 0.0
H505 H 0.32251 0.26542 0.00987 0.0
H506 H 0.39451 0.30986 0.8783 0.0
H507 H 0.27096 0.24752 0.93215 0.0
H508 H 0.34909 0.28541 0.96262 0.0
H509 H 0.31641 0.2688 0.84779 0.0
C510 C 0.34877 0.28199 0.82751 0.0
C511 C 0.37101 0.29298 0.83577 0.0
C512 C 0.33196 0.27747 0.95598 0.0
C513 C 0.34057 0.28499 0.89001 0.0
C514 C 0.31678 0.26599 0.98293 0.0
C515 C 0.29454 0.25451 0.9747 0.0
C516 C 0.32486 0.27708 0.92038 0.0
C517 C 0.28798 0.25601 0.93953 0.0
C518 C 0.33352 0.27816 0.85443 0.0
C519 C 0.37749 0.30115 0.8709 0.0
N520 N 0.30312 0.26671 0.91343 0.0
N521 N 0.36231 0.2966 0.89697 0.0
H522 H 0.72362 0.06682 0.8 0.0
H523 H 0.73123 0.05562 0.00981 0.0
H524 H 0.68978 0.08525 0.87643 0.0
H525 H 0.74943 0.02184 0.93286 0.0
H526 H 0.71202 0.06273 0.96185 0.0
H527 H 0.72932 0.04643 0.84762 0.0
C528 C 0.7171 0.06629 0.82672 0.0
C529 C 0.70656 0.07804 0.8345 0.0
C530 C 0.71985 0.05341 0.95552 0.0
C531 C 0.71328 0.05499 0.88926 0.0
C532 C 0.73088 0.04939 0.98289 0.0
C533 C 0.74225 0.03847 0.9751 0.0
C534 C 0.72058 0.04682 0.91996 0.0
C535 C 0.74103 0.03051 0.93993 0.0
C536 C 0.72029 0.05458 0.85389 0.0
C537 C 0.69817 0.07657 0.86941 0.0
N538 N 0.73077 0.03523 0.91344 0.0
N539 N 0.7021 0.06562 0.89574 0.0
H540 H 0.94239 0.67612 0.01067 0.0
H541 H 0.93174 0.65578 0.80113 0.0
H542 H 0.97561 0.72774 0.93298 0.0
H543 H 0.91424 0.60427 0.8787 0.0
H544 H 0.95167 0.68238 0.84842 0.0
H545 H 0.93571 0.6496 0.96324 0.0
C546 C 0.94857 0.68188 0.9837 0.0
C547 C 0.95923 0.70412 0.97554 0.0
C548 C 0.94383 0.66527 0.85501 0.0
C549 C 0.95138 0.67386 0.92101 0.0
C550 C 0.93239 0.65007 0.82803 0.0
C551 C 0.92102 0.62783 0.83622 0.0
C552 C 0.94352 0.65817 0.89058 0.0
C553 C 0.92263 0.62129 0.87135 0.0
C554 C 0.94481 0.66673 0.95664 0.0
C555 C 0.96715 0.71071 0.94032 0.0
N556 N 0.9333 0.63643 0.89747 0.0
N557 N 0.96267 0.69561 0.91412 0.0
H558 H 0.27564 0.34194 0.676 0.0
H559 H 0.26533 0.32329 0.46608 0.0
H560 H 0.3096 0.39404 0.59941 0.0
H561 H 0.24691 0.27104 0.54248 0.0
H562 H 0.28543 0.3494 0.5139 0.0
H563 H 0.2688 0.3157 0.62799 0.0
C564 C 0.28196 0.34786 0.64915 0.0
C565 C 0.29287 0.37016 0.64146 0.0
C566 C 0.27735 0.33222 0.52012 0.0
C567 C 0.28482 0.34024 0.58627 0.0
C568 C 0.26581 0.3173 0.49284 0.0
C569 C 0.25414 0.295 0.50054 0.0
C570 C 0.27685 0.32479 0.55551 0.0
C571 C 0.25553 0.28811 0.5355 0.0
C572 C 0.2781 0.33287 0.62176 0.0
C573 C 0.30095 0.37697 0.60638 0.0
N574 N 0.26631 0.30299 0.56192 0.0
N575 N 0.29638 0.36203 0.57986 0.0
H576 H 0.65714 0.9331 0.67803 0.0
H577 H 0.67585 0.94146 0.46814 0.0
H578 H 0.60505 0.91507 0.60137 0.0
H579 H 0.7281 0.97566 0.54449 0.0
H580 H 0.64971 0.93529 0.51597 0.0
H581 H 0.6834 0.95245 0.63004 0.0
C582 C 0.65123 0.93351 0.65118 0.0
C583 C 0.62892 0.92216 0.64347 0.0
C584 C 0.66689 0.94449 0.52218 0.0
C585 C 0.65887 0.944 0.58831 0.0
C586 C 0.68182 0.94796 0.49489 0.0
C587 C 0.70414 0.95876 0.50257 0.0
C588 C 0.67431 0.95149 0.55756 0.0
C589 C 0.71101 0.96709 0.53753 0.0
C590 C 0.66623 0.94462 0.6238 0.0
C591 C 0.62213 0.92346 0.60837 0.0
N592 N 0.69612 0.9629 0.56396 0.0
N593 N 0.63708 0.9338 0.58187 0.0
H594 H 0.02241 0.75032 0.54389 0.0
H595 H 0.08618 0.68904 0.60161 0.0
H596 H 0.05847 0.73325 0.46984 0.0
H597 H 0.06835 0.7246 0.67542 0.0
H598 H 0.06614 0.69515 0.55342 0.0
H599 H 0.02925 0.73082 0.59209 0.0
C600 C 0.03137 0.74209 0.53759 0.0
C601 C 0.04027 0.74373 0.50306 0.0
C602 C 0.06633 0.70127 0.58035 0.0
C603 C 0.0481 0.7215 0.55785 0.0
C604 C 0.07769 0.69774 0.60785 0.0
C605 C 0.07925 0.7067 0.64231 0.0
C606 C 0.05637 0.71368 0.58756 0.0
C607 C 0.06786 0.71775 0.64901 0.0
C608 C 0.03532 0.73105 0.56511 0.0
C609 C 0.05166 0.7327 0.4963 0.0
N610 N 0.05709 0.72114 0.62177 0.0
N611 N 0.05547 0.72224 0.52357 0.0
H612 H 0.60288 0.68707 0.10029 0.0
H613 H 0.72832 0.75024 0.04487 0.0
H614 H 0.65559 0.72342 0.17493 0.0
H615 H 0.67548 0.73214 0.96974 0.0
H616 H 0.70181 0.73045 0.09271 0.0
H617 H 0.6295 0.69357 0.05273 0.0
C618 C 0.62003 0.69602 0.10686 0.0
C619 C 0.62709 0.70509 0.14135 0.0
C620 C 0.69607 0.73051 0.06557 0.0
C621 C 0.65748 0.71253 0.08731 0.0
C622 C 0.71117 0.74173 0.03826 0.0
C623 C 0.70403 0.74316 0.00352 0.0
C624 C 0.67376 0.72058 0.05789 0.0
C625 C 0.68164 0.73176 -0.00363 0.0
C626 C 0.63519 0.69978 0.07971 0.0
C627 C 0.64948 0.71648 0.14848 0.0
N628 N 0.66728 0.72114 0.02343 0.0
N629 N 0.6639 0.72009 0.12157 0.0
H630 H 0.27426 0.93118 0.1777 0.0
H631 H 0.26457 0.94011 0.96767 0.0
H632 H 0.30735 0.91192 0.10115 0.0
H633 H 0.24742 0.97499 0.0441 0.0
H634 H 0.28398 0.93322 0.01557 0.0
H635 H 0.26794 0.95091 0.12964 0.0
C636 C 0.28049 0.93139 0.15084 0.0
C637 C 0.29102 0.91961 0.1432 0.0
C638 C 0.27632 0.94272 0.02178 0.0
C639 C 0.28358 0.94188 0.08796 0.0
C640 C 0.26518 0.94661 -0.00555 0.0
C641 C 0.25407 0.95781 0.00213 0.0
C642 C 0.27599 0.94973 0.05719 0.0
C643 C 0.25562 0.96611 0.03713 0.0
C644 C 0.27694 0.94271 0.12343 0.0
C645 C 0.29899 0.92065 0.1081 0.0
N646 N 0.266 0.96152 0.06359 0.0
N647 N 0.29473 0.93123 0.08155 0.0
H648 H 0.0821 0.39438 0.09983 0.0
H649 H 0.01949 0.26885 0.04511 0.0
H650 H 0.06473 0.34179 0.17512 0.0
H651 H 0.05517 0.32148 0.97009 0.0
H652 H 0.02593 0.2955 0.0926 0.0
H653 H 0.06213 0.36772 0.05225 0.0
C654 C 0.07371 0.37726 0.10653 0.0
C655 C 0.07541 0.37024 0.14122 0.0
C656 C 0.032 0.30116 0.06555 0.0
C657 C 0.05264 0.33979 0.08715 0.0
C658 C 0.02828 0.28598 0.03845 0.0
C659 C 0.03719 0.29302 0.00387 0.0
C660 C 0.04456 0.32345 0.05782 0.0
C661 C 0.04836 0.31539 -0.00339 0.0
C662 C 0.0624 0.36207 0.07937 0.0
C663 C 0.06415 0.34787 0.14851 0.0
N664 N 0.05194 0.32983 0.02348 0.0
N665 N 0.05343 0.33342 0.12158 0.0
H666 H 0.72443 0.65698 0.29902 0.0
H667 H 0.7485 0.73043 0.43725 0.0
H668 H 0.6888 0.60673 0.37787 0.0
H669 H 0.73836 0.67626 0.50387 0.0
H670 H 0.72835 0.70505 0.38833 0.0
H671 H 0.73221 0.6843 0.34517 0.0
C672 C 0.71781 0.65171 0.32592 0.0
C673 C 0.70619 0.62957 0.33478 0.0
C674 C 0.73056 0.69872 0.41363 0.0
C675 C 0.71483 0.66082 0.38791 0.0
C676 C 0.74186 0.71319 0.4417 0.0
C677 C 0.74558 0.70547 0.47431 0.0
C678 C 0.72307 0.67645 0.41829 0.0
C679 C 0.73629 0.68295 0.47886 0.0
C680 C 0.72207 0.66737 0.35228 0.0
C681 C 0.69791 0.62365 0.36997 0.0
N682 N 0.72568 0.66926 0.451 0.0
N683 N 0.70281 0.63921 0.3955 0.0
H684 H 0.26671 0.0171 0.43654 0.0
H685 H 0.33984 0.06649 0.29792 0.0
H686 H 0.321 0.06123 0.50295 0.0
H687 H 0.39029 0.08134 0.37654 0.0
H688 H 0.31262 0.04695 0.34421 0.0
H689 H 0.29199 0.0224 0.38744 0.0
C690 C 0.28396 0.02775 0.4409 0.0
C691 C 0.29173 0.03918 0.47352 0.0
C692 C 0.32958 0.0538 0.35124 0.0
C693 C 0.32065 0.04578 0.41729 0.0
C694 C 0.34517 0.06519 0.32481 0.0
C695 C 0.36734 0.07578 0.33355 0.0
C696 C 0.33621 0.05318 0.38683 0.0
C697 C 0.37335 0.07349 0.36872 0.0
C698 C 0.29837 0.03095 0.41273 0.0
C699 C 0.31425 0.05246 0.47795 0.0
N700 N 0.35785 0.06283 0.39432 0.0
N701 N 0.3279 0.05558 0.44999 0.0
H702 H 0.9139 0.31005 0.3773 0.0
H703 H 0.97677 0.24773 0.4341 0.0
H704 H 0.93129 0.27432 0.30307 0.0
H705 H 0.94141 0.26544 0.50859 0.0
H706 H 0.97011 0.26744 0.38606 0.0
H707 H 0.93389 0.3037 0.42527 0.0
C708 C 0.92229 0.30126 0.37092 0.0
C709 C 0.92061 0.29232 0.33641 0.0
C710 C 0.96415 0.2673 0.4131 0.0
C711 C 0.94341 0.28505 0.39092 0.0
C712 C 0.96801 0.25614 0.44053 0.0
C713 C 0.95925 0.25461 0.47514 0.0
C714 C 0.95161 0.27709 0.42052 0.0
C715 C 0.94811 0.26589 0.48207 0.0
C716 C 0.93362 0.29759 0.3983 0.0
C717 C 0.93186 0.28115 0.32952 0.0
N718 N 0.94439 0.27645 0.45487 0.0
N719 N 0.9426 0.27763 0.35666 0.0
H720 H 0.00654 0.6066 0.13428 0.0
H721 H 0.98725 0.59737 0.34411 0.0
H722 H 0.05843 0.64089 0.2112 0.0
H723 H 0.93522 0.57892 0.26718 0.0
H724 H 0.01353 0.61702 0.29631 0.0
H725 H 0.98015 0.59992 0.18195 0.0
C726 C 0.01238 0.61302 0.16112 0.0
C727 C 0.03467 0.62399 0.169 0.0
C728 C 0.99636 0.60902 0.28996 0.0
C729 C 0.00457 0.61614 0.2238 0.0
C730 C 0.98135 0.59775 0.31723 0.0
C731 C 0.95906 0.58621 0.30939 0.0
C732 C 0.98904 0.60839 0.25443 0.0
C733 C 0.95229 0.58746 0.27427 0.0
C734 C 0.9973 0.60925 0.18832 0.0
C735 C 0.04137 0.63219 0.20407 0.0
N736 N 0.96726 0.59798 0.24786 0.0
N737 N 0.02635 0.62772 0.2304 0.0
H738 H 0.39744 0.38793 0.34394 0.0
H739 H 0.38763 0.39801 0.13435 0.0
H740 H 0.41564 0.35439 0.26649 0.0
H741 H 0.35398 0.4161 0.21176 0.0
H742 H 0.39413 0.37806 0.18177 0.0
H743 H 0.37755 0.3945 0.29647 0.0
C744 C 0.39695 0.38165 0.31702 0.0
C745 C 0.4085 0.37094 0.30893 0.0
C746 C 0.38497 0.38603 0.1883 0.0
C747 C 0.38605 0.37867 0.25436 0.0
C748 C 0.38131 0.39749 0.16125 0.0
C749 C 0.37059 0.40903 0.16935 0.0
C750 C 0.37825 0.3865 0.22387 0.0
C751 C 0.3625 0.40757 0.20448 0.0
C752 C 0.38554 0.38534 0.28994 0.0
C753 C 0.4071 0.3629 0.27377 0.0
N754 N 0.36688 0.39689 0.23067 0.0
N755 N 0.39645 0.36731 0.24755 0.0
H756 H 0.58175 0.93352 0.21035 0.0
H757 H 0.60479 0.00729 0.34779 0.0
H758 H 0.59247 0.98757 0.1429 0.0
H759 H 0.64102 0.05734 0.26893 0.0
H760 H 0.59732 0.97985 0.30199 0.0
H761 H 0.60147 0.95898 0.25941 0.0
C762 C 0.58843 0.95075 0.20576 0.0
C763 C 0.585 0.95842 0.17285 0.0
C764 C 0.60752 0.99676 0.29483 0.0
C765 C 0.60702 0.98753 0.229 0.0
C766 C 0.6116 0.01249 0.32097 0.0
C767 C 0.62331 0.03461 0.31199 0.0
C768 C 0.61502 0.00322 0.25929 0.0
C769 C 0.63183 0.04044 0.27692 0.0
C770 C 0.59949 0.96526 0.2339 0.0
C771 C 0.59432 0.98092 0.16813 0.0
N772 N 0.6271 0.02482 0.2516 0.0
N773 N 0.60469 0.99466 0.19605 0.0
H774 H 0.35581 0.93837 0.71197 0.0
H775 H 0.419 0.06374 0.76769 0.0
H776 H 0.39071 0.99116 0.63688 0.0
H777 H 0.40223 0.01089 0.84213 0.0
H778 H 0.39866 0.03724 0.72009 0.0
H779 H 0.36274 0.96491 0.75988 0.0
C780 C 0.36452 0.95551 0.70539 0.0
C781 C 0.37308 0.96263 0.67063 0.0
C782 C 0.39914 0.0315 0.74704 0.0
C783 C 0.38103 0.99293 0.7251 0.0
C784 C 0.41067 0.04659 0.77421 0.0
C785 C 0.41263 0.03945 0.80865 0.0
C786 C 0.38942 0.00919 0.75456 0.0
C787 C 0.40145 0.01706 0.81571 0.0
C788 C 0.36853 0.97063 0.73274 0.0
C789 C 0.38417 0.98501 0.66351 0.0
N790 N 0.39051 0.0027 0.78878 0.0
N791 N 0.38805 -0.0006 0.69063 0.0
H792 H 0.01085 0.40187 0.63393 0.0
H793 H 0.99164 0.39114 0.84367 0.0
H794 H 0.06281 0.41927 0.7106 0.0
H795 H 0.93962 0.35767 0.76667 0.0
H796 H 0.01793 0.3979 0.7958 0.0
H797 H 0.98451 0.38192 0.68151 0.0
C798 C 0.01672 0.4012 0.6607 0.0
C799 C 0.03901 0.41254 0.66855 0.0
C800 C 0.00077 0.38872 0.78945 0.0
C801 C 0.00897 0.39001 0.72325 0.0
C802 C 0.98575 0.38491 0.81676 0.0
C803 C 0.96346 0.37416 0.80892 0.0
C804 C 0.99345 0.38211 0.7539 0.0
C805 C 0.95669 0.3662 0.77376 0.0
C806 C 0.00167 0.38975 0.68784 0.0
C807 C 0.04574 0.41091 0.70351 0.0
N808 N 0.97166 0.37072 0.74732 0.0
N809 N 0.03075 0.40022 0.72981 0.0
H810 H 0.6444 0.58331 0.76719 0.0
H811 H 0.58155 0.64576 0.71113 0.0
H812 H 0.60895 0.6008 0.84185 0.0
H813 H 0.59874 0.61002 0.63658 0.0
H814 H 0.60165 0.63941 0.75889 0.0
H815 H 0.6378 0.60317 0.71931 0.0
C816 C 0.63564 0.59171 0.77369 0.0
C817 C 0.62682 0.59008 0.80829 0.0
C818 C 0.60132 0.63331 0.73188 0.0
C819 C 0.61927 0.61272 0.75388 0.0
C820 C 0.58992 0.63698 0.70462 0.0
C821 C 0.58814 0.62802 0.6701 0.0
C822 C 0.61108 0.62075 0.72437 0.0
C823 C 0.59939 0.61686 0.66306 0.0
C824 C 0.63182 0.60296 0.74636 0.0
C825 C 0.61568 0.60133 0.81532 0.0
N826 N 0.61019 0.61333 0.69008 0.0
N827 N 0.61201 0.61199 0.78823 0.0
H828 H 0.23928 0.04959 0.00063 0.0
H829 H 0.19252 0.1313 -0.00698 0.0
H830 H 0.17496 0.03246 0.96409 0.0
H831 H 0.25747 0.15106 0.02992 0.0
H832 H 0.1861 0.09476 0.98356 0.0
H833 H 0.24632 0.08642 0.01405 0.0
C834 C 0.22658 0.05349 -0.00417 0.0
C835 C 0.20654 0.03797 0.98109 0.0
C836 C 0.2018 0.10704 -0.0063 0.0
C837 C 0.21452 0.07994 -0.00403 0.0
C838 C 0.20551 0.128 -0.00097 0.0
C839 C 0.22559 0.14435 0.01229 0.0
C840 C 0.21825 0.10222 0.00164 0.0
C841 C 0.24176 0.13898 0.01958 0.0
C842 C 0.23065 0.07451 0.0033 0.0
C843 C 0.1907 0.0439 0.97524 0.0
N844 N 0.23773 0.11834 0.01419 0.0
N845 N 0.19507 0.06438 0.98255 0.0
H846 H 0.96502 0.13981 0.9639 0.0
H847 H 0.84485 0.10512 0.03083 0.0
H848 H 0.94693 0.18656 -0.00115 0.0
H849 H 0.8654 0.06047 -0.00566 0.0
H850 H 0.88185 0.13531 0.02071 0.0
H851 H 0.92857 0.11066 0.97757 0.0
C852 C 0.95339 0.14395 0.97472 0.0
C853 C 0.95902 0.16568 0.9801 0.0
C854 C 0.87819 0.11888 0.01493 0.0
C855 C 0.91693 0.1322 -0.00444 0.0
C856 C 0.85707 0.10165 0.02056 0.0
C857 C 0.85197 0.08019 0.01341 0.0
C858 C 0.89428 0.11458 0.0021 0.0
C859 C 0.86849 0.07668 0.00026 0.0
C860 C 0.9325 0.12725 0.98245 0.0
C861 C 0.94326 0.17001 -0.00565 0.0
N862 N 0.88883 0.09366 -0.0049 0.0
N863 N 0.92283 0.15339 0.00139 0.0
H864 H 0.85699 0.82524 0.96653 0.0
H865 H 0.89238 0.73992 0.03122 0.0
H866 H 0.8105 0.75994 -0.00031 0.0
H867 H 0.93677 0.80542 -0.00414 0.0
H868 H 0.86205 0.7466 0.0217 0.0
H869 H 0.88632 0.81821 0.98031 0.0
C870 C 0.85295 0.80942 0.97701 0.0
C871 C 0.83124 0.79311 0.98181 0.0
C872 C 0.87845 0.75946 0.01604 0.0
C873 C 0.86492 0.78481 -0.00265 0.0
C874 C 0.89576 0.75565 0.02133 0.0
C875 C 0.91718 0.77213 0.0143 0.0
C876 C 0.88263 0.77989 0.00367 0.0
C877 C 0.92058 0.7922 0.00165 0.0
C878 C 0.86974 0.80538 0.98479 0.0
C879 C 0.82703 0.77297 -0.00437 0.0
N880 N 0.90353 0.79549 -0.0032 0.0
N881 N 0.84374 0.76932 0.00271 0.0
H882 H 0.15103 0.25972 0.44529 0.0
H883 H 0.03045 0.17354 0.50939 0.0
H884 H 0.13041 0.19441 0.48113 0.0
H885 H 0.04895 0.23904 0.47804 0.0
H886 H 0.06691 0.18092 0.4955 0.0
H887 H 0.11392 0.25278 0.45486 0.0
C888 C 0.13877 0.24399 0.4553 0.0
C889 C 0.14388 0.22764 0.46244 0.0
C890 C 0.06307 0.19372 0.49144 0.0
C891 C 0.10147 0.21957 0.4731 0.0
C892 C 0.04218 0.18948 0.49928 0.0
C893 C 0.03667 0.20574 0.49505 0.0
C894 C 0.07877 0.21445 0.47938 0.0
C895 C 0.05253 0.22604 0.48166 0.0
C896 C 0.11759 0.24002 0.46062 0.0
C897 C 0.12731 0.20754 0.47525 0.0
N898 N 0.07297 0.2299 0.47452 0.0
N899 N 0.10693 0.20411 0.48009 0.0
H900 H 0.76031 0.80943 0.47763 0.0
H901 H 0.80563 0.93765 0.48507 0.0
H902 H 0.82447 0.85724 0.51391 0.0
H903 H 0.7411 0.89197 0.44703 0.0
H904 H 0.81243 0.90781 0.49484 0.0
H905 H 0.75282 0.8389 0.46406 0.0
C906 C 0.77288 0.8261 0.48235 0.0
C907 C 0.79301 0.83089 0.49706 0.0
C908 C 0.79674 0.90422 0.48438 0.0
C909 C 0.78451 0.86451 0.482 0.0
C910 C 0.79281 0.9213 0.47887 0.0
C911 C 0.77274 0.91735 0.46519 0.0
C912 C 0.78052 0.88288 0.4762 0.0
C913 C 0.7568 0.89577 0.45769 0.0
C914 C 0.76855 0.84288 0.47479 0.0
C915 C 0.80867 0.85274 0.5028 0.0
N916 N 0.76104 0.87931 0.46326 0.0
N917 N 0.80405 0.86867 0.4954 0.0
H918 H 0.10716 0.8467 0.44665 0.0
H919 H 0.13996 0.96666 0.51199 0.0
H920 H 0.06173 0.86643 0.48231 0.0
H921 H 0.18753 0.9493 0.47874 0.0
H922 H 0.1112 0.93003 0.4982 0.0
H923 H 0.13697 0.88395 0.45651 0.0
C924 C 0.10345 0.85879 0.45669 0.0
C925 C 0.08188 0.85339 0.46368 0.0
C926 C 0.1279 0.93416 0.49371 0.0
C927 C 0.11582 0.89597 0.47468 0.0
C928 C 0.14436 0.95515 0.5015 0.0
C929 C 0.1662 0.96103 0.49667 0.0
C930 C 0.13318 0.91874 0.4811 0.0
C931 C 0.17089 0.94543 0.48282 0.0
C932 C 0.12045 0.88005 0.46217 0.0
C933 C 0.07805 0.86976 0.47653 0.0
N934 N 0.15449 0.9249 0.47573 0.0
N935 N 0.09481 0.89023 0.48154 0.0
H936 H 0.82387 0.96629 0.01171 0.0
H937 H 0.73861 0.84557 0.94689 0.0
H938 H 0.7585 0.94743 0.97875 0.0
H939 H 0.80418 0.86679 0.98216 0.0
H940 H 0.74519 0.88253 0.95661 0.0
H941 H 0.81685 0.92994 -0.00206 0.0
C942 C 0.80804 0.95451 0.00129 0.0
C943 C 0.79172 0.95989 -0.00347 0.0
C944 C 0.75809 0.87903 0.96221 0.0
C945 C 0.78342 0.91791 0.98099 0.0
C946 C 0.75432 0.85793 0.9568 0.0
C947 C 0.77085 0.85303 0.96374 0.0
C948 C 0.77851 0.89529 0.97459 0.0
C949 C 0.79091 0.86973 0.97642 0.0
C950 C 0.804 0.93368 -0.0065 0.0
C951 C 0.77156 0.94394 0.98277 0.0
N952 N 0.79415 0.89003 0.98138 0.0
N953 N 0.7679 0.92358 0.97568 0.0
H954 H 0.13173 0.93806 0.98282 0.0
H955 H 0.04909 0.80978 0.97611 0.0
H956 H 0.15081 0.89236 0.94587 0.0
H957 H 0.03245 0.85753 0.01143 0.0
H958 H 0.08599 0.83929 0.96233 0.0
H959 H 0.09503 0.90822 -0.00783 0.0
C960 C 0.12825 0.92171 0.97677 0.0
C961 C 0.14445 0.91776 0.96355 0.0
C962 C 0.07418 0.84325 0.97288 0.0
C963 C 0.10213 0.88328 0.97408 0.0
C964 C 0.05311 0.82644 0.98055 0.0
C965 C 0.03771 0.8312 -0.00491 0.0
C966 C 0.07977 0.86489 0.97981 0.0
C967 C 0.04379 0.85305 0.00046 0.0
C968 C 0.10719 0.90462 0.98203 0.0
C969 C 0.13884 0.89616 0.95618 0.0
N970 N 0.06432 0.86901 -0.00701 0.0
N971 N 0.11812 0.8797 0.96154 0.0
H972 H 0.18782 0.23865 0.97722 0.0
H973 H 0.05931 0.19184 0.98442 0.0
H974 H 0.14062 0.17434 0.0137 0.0
H975 H 0.10455 0.25689 0.94813 0.0
H976 H 0.08944 0.18544 -0.00597 0.0
H977 H 0.15803 0.24572 0.96393 0.0
C978 C 0.17122 0.22596 0.98204 0.0
C979 C 0.1667 0.20591 -0.00329 0.0
C980 C 0.09287 0.20116 0.984 0.0
C981 C 0.13271 0.21392 0.98197 0.0
C982 C 0.07561 0.20486 0.97858 0.0
C983 C 0.07936 0.22495 0.96544 0.0
C984 C 0.11416 0.21764 0.97626 0.0
C985 C 0.1009 0.24116 0.95838 0.0
C986 C 0.15426 0.23004 0.97465 0.0
C987 C 0.14492 0.19008 0.0026 0.0
N988 N 0.11752 0.23714 0.96384 0.0
N989 N 0.12881 0.19446 -0.00466 0.0
H990 H 0.95008 0.75906 0.50047 0.0
H991 H 0.86833 0.80582 0.49367 0.0
H992 H 0.96703 0.8232 0.46332 0.0
H993 H 0.84877 0.74099 0.53087 0.0
H994 H 0.90484 0.8122 0.48373 0.0
H995 H 0.91332 0.75209 0.51429 0.0
C996 C 0.94616 0.77173 0.49561 0.0
C997 C 0.96161 0.7917 0.48059 0.0
C998 C 0.89261 0.79655 0.49404 0.0
C999 C 0.91971 0.78381 0.49594 0.0
C1000 C 0.87167 0.79285 0.49965 0.0
C1001 C 0.85539 0.77281 0.51313 0.0
C1002 C 0.89747 0.78011 0.50192 0.0
C1003 C 0.86079 0.75667 0.52037 0.0
C1004 C 0.92517 0.76771 0.5033 0.0
C1005 C 0.95564 0.80752 0.47468 0.0
N1006 N 0.88141 0.76068 0.5147 0.0
N1007 N 0.9352 0.80319 0.48222 0.0
H1008 H 0.23796 0.18972 0.50048 0.0
H1009 H 0.19104 0.0612 0.49522 0.0
H1010 H 0.17321 0.14229 0.46614 0.0
H1011 H 0.25622 0.1066 0.53082 0.0
H1012 H 0.1845 0.09125 0.48582 0.0
H1013 H 0.24502 0.16 0.51442 0.0
C1014 C 0.22517 0.17309 0.4963 0.0
C1015 C 0.20501 0.16847 0.48198 0.0
C1016 C 0.20027 0.09473 0.49567 0.0
C1017 C 0.213 0.13456 0.49743 0.0
C1018 C 0.20405 0.07752 0.50096 0.0
C1019 C 0.22424 0.08134 0.51381 0.0
C1020 C 0.21677 0.11605 0.50323 0.0
C1021 C 0.24043 0.10291 0.52079 0.0
C1022 C 0.22924 0.15616 0.50405 0.0
C1023 C 0.18905 0.14665 0.47692 0.0
N1024 N 0.23634 0.11948 0.51542 0.0
N1025 N 0.19343 0.13058 0.48447 0.0
H1026 H 0.89145 0.15184 0.53164 0.0
H1027 H 0.85724 0.03152 0.46621 0.0
H1028 H 0.93618 0.13152 0.49462 0.0
H1029 H 0.8102 0.04965 0.49922 0.0
H1030 H 0.88626 0.06804 0.47983 0.0
H1031 H 0.86134 0.11473 0.52192 0.0
C1032 C 0.89495 0.13964 0.52133 0.0
C1033 C 0.91641 0.14484 0.51392 0.0
C1034 C 0.86963 0.06411 0.4843 0.0
C1035 C 0.88212 0.10242 0.50309 0.0
C1036 C 0.853 0.04318 0.47661 0.0
C1037 C 0.83123 0.03754 0.48142 0.0
C1038 C 0.86457 0.07971 0.4968 0.0
C1039 C 0.82677 0.05332 0.49516 0.0
C1040 C 0.87776 0.11846 0.51593 0.0
C1041 C 0.91997 0.12836 0.50073 0.0
N1042 N 0.84333 0.0738 0.50216 0.0
N1043 N 0.90304 0.10796 0.49582 0.0
H1044 H 0.85746 0.46316 0.3296 0.0
H1045 H 0.90504 0.38209 0.33502 0.0
H1046 H 0.92271 0.4833 0.36533 0.0
H1047 H 0.84056 0.36471 0.299 0.0
H1048 H 0.91183 0.41877 0.34912 0.0
H1049 H 0.85121 0.4267 0.31989 0.0
C1050 C 0.87055 0.45995 0.33531 0.0
C1051 C 0.89067 0.47639 0.34829 0.0
C1052 C 0.89617 0.40684 0.33833 0.0
C1053 C 0.88353 0.43435 0.33733 0.0
C1054 C 0.89225 0.3859 0.33048 0.0
C1055 C 0.87224 0.37037 0.31567 0.0
C1056 C 0.87994 0.41215 0.33133 0.0
C1057 C 0.85628 0.37618 0.31017 0.0
C1058 C 0.86693 0.43904 0.32983 0.0
C1059 C 0.90696 0.47115 0.35521 0.0
N1060 N 0.86051 0.39657 0.31786 0.0
N1061 N 0.90303 0.45055 0.34966 0.0
H1062 H 0.63223 0.47369 0.30062 0.0
H1063 H 0.51128 0.43822 0.36414 0.0
H1064 H 0.61329 0.52015 0.33349 0.0
H1065 H 0.53254 0.3939 0.32892 0.0
H1066 H 0.54829 0.46858 0.35479 0.0
H1067 H 0.5958 0.44437 0.31393 0.0
C1068 C 0.62041 0.47774 0.31094 0.0
C1069 C 0.62579 0.49943 0.3158 0.0
C1070 C 0.54479 0.45219 0.34911 0.0
C1071 C 0.58373 0.46575 0.33079 0.0
C1072 C 0.52366 0.43487 0.3543 0.0
C1073 C 0.51876 0.41345 0.34728 0.0
C1074 C 0.56107 0.44803 0.33687 0.0
C1075 C 0.53548 0.41009 0.33471 0.0
C1076 C 0.59954 0.46094 0.31845 0.0
C1077 C 0.60981 0.50363 0.32941 0.0
N1078 N 0.55581 0.42715 0.32997 0.0
N1079 N 0.5894 0.48692 0.33622 0.0
H1080 H 0.47532 0.09198 0.33494 0.0
H1081 H 0.60368 0.13821 0.32599 0.0
H1082 H 0.52263 0.15641 0.29916 0.0
H1083 H 0.55854 0.07375 0.36488 0.0
H1084 H 0.57361 0.14476 0.31683 0.0
H1085 H 0.50506 0.08484 0.34823 0.0
C1086 C 0.49193 0.10468 0.3303 0.0
C1087 C 0.4965 0.12478 0.31578 0.0
C1088 C 0.57019 0.12915 0.32735 0.0
C1089 C 0.53044 0.11668 0.33047 0.0
C1090 C 0.58741 0.12536 0.3325 0.0
C1091 C 0.58367 0.10538 0.34623 0.0
C1092 C 0.54895 0.11287 0.33594 0.0
C1093 C 0.56217 0.08939 0.35416 0.0
C1094 C 0.50887 0.10056 0.33768 0.0
C1095 C 0.5183 0.14063 0.31012 0.0
N1096 N 0.54559 0.09348 0.34892 0.0
N1097 N 0.53438 0.1362 0.31732 0.0
H1098 H 0.79803 0.52687 0.82169 0.0
H1099 H 0.71638 0.57365 0.81177 0.0
H1100 H 0.81753 0.59111 0.78151 0.0
H1101 H 0.69924 0.50964 0.84996 0.0
H1102 H 0.75319 0.58054 0.79858 0.0
H1103 H 0.76161 0.5207 0.83153 0.0
C1104 C 0.7947 0.53976 0.81504 0.0
C1105 C 0.81093 0.55955 0.80073 0.0
C1106 C 0.74128 0.56496 0.80966 0.0
C1107 C 0.76893 0.5525 0.81179 0.0
C1108 C 0.72027 0.56099 0.81701 0.0
C1109 C 0.70475 0.54107 0.8321 0.0
C1110 C 0.74669 0.54888 0.81748 0.0
C1111 C 0.71068 0.52528 0.8385 0.0
C1112 C 0.7738 0.53619 0.82058 0.0
C1113 C 0.80554 0.57561 0.79266 0.0
N1114 N 0.73114 0.52956 0.8313 0.0
N1115 N 0.78496 0.57172 0.79827 0.0
H1116 H 0.42783 0.14432 0.81183 0.0
H1117 H 0.47332 0.27256 0.81988 0.0
H1118 H 0.49195 0.19197 0.84848 0.0
H1119 H 0.40882 0.22699 0.78157 0.0
H1120 H 0.48002 0.24265 0.82972 0.0
H1121 H 0.42038 0.17385 0.79852 0.0
C1122 C 0.4404 0.16096 0.8167 0.0
C1123 C 0.46051 0.16569 0.83141 0.0
C1124 C 0.46436 0.2391 0.81919 0.0
C1125 C 0.45207 0.19938 0.81666 0.0
C1126 C 0.46049 0.25623 0.81364 0.0
C1127 C 0.44046 0.25233 0.79985 0.0
C1128 C 0.44812 0.21779 0.81093 0.0
C1129 C 0.42449 0.23075 0.79231 0.0
C1130 C 0.4361 0.17778 0.80929 0.0
C1131 C 0.47617 0.18752 0.83734 0.0
N1132 N 0.42868 0.21426 0.79791 0.0
N1133 N 0.47159 0.20348 0.83009 0.0
H1134 H 0.77479 0.18119 0.77999 0.0
H1135 H 0.80984 0.30164 0.84579 0.0
H1136 H 0.73021 0.20221 0.81481 0.0
H1137 H 0.85647 0.28312 0.81208 0.0
H1138 H 0.78059 0.26528 0.83181 0.0
H1139 H 0.80507 0.21815 0.7901 0.0
C1140 C 0.77136 0.19351 0.78989 0.0
C1141 C 0.74989 0.18855 0.79658 0.0
C1142 C 0.79718 0.2691 0.82725 0.0
C1143 C 0.78439 0.23081 0.80788 0.0
C1144 C 0.81393 0.28994 0.83516 0.0
C1145 C 0.83565 0.29541 0.83024 0.0
C1146 C 0.80206 0.25343 0.81446 0.0
C1147 C 0.83993 0.27957 0.81622 0.0
C1148 C 0.78864 0.21461 0.79552 0.0
C1149 C 0.74643 0.20519 0.80927 0.0
N1150 N 0.82326 0.25919 0.80903 0.0
N1151 N 0.76346 0.2255 0.81444 0.0
H1152 H 0.4051 0.17874 0.28026 0.0
H1153 H 0.49064 0.29923 0.34577 0.0
H1154 H 0.47035 0.19945 0.31664 0.0
H1155 H 0.42548 0.28072 0.31207 0.0
H1156 H 0.48344 0.2628 0.33214 0.0
H1157 H 0.41191 0.21578 0.28995 0.0
C1158 C 0.4208 0.19101 0.29042 0.0
C1159 C 0.43717 0.18594 0.29767 0.0
C1160 C 0.47068 0.26663 0.32751 0.0
C1161 C 0.44509 0.22829 0.30849 0.0
C1162 C 0.47482 0.28751 0.33521 0.0
C1163 C 0.4586 0.29301 0.3302 0.0
C1164 C 0.45011 0.25095 0.31482 0.0
C1165 C 0.43845 0.27715 0.31628 0.0
C1166 C 0.42469 0.21215 0.29581 0.0
C1167 C 0.45721 0.20252 0.31067 0.0
N1168 N 0.4347 0.25674 0.30928 0.0
N1169 N 0.46058 0.22287 0.31559 0.0
H1170 H 0.79771 0.27051 0.31515 0.0
H1171 H 0.71562 0.14212 0.30909 0.0
H1172 H 0.81731 0.22503 0.2792 0.0
H1173 H 0.6984 0.18983 0.34208 0.0
H1174 H 0.75255 0.1717 0.29554 0.0
H1175 H 0.76103 0.24056 0.32404 0.0
C1176 C 0.79434 0.25419 0.30923 0.0
C1177 C 0.81069 0.25033 0.29642 0.0
C1178 C 0.7406 0.17563 0.30551 0.0
C1179 C 0.76838 0.21572 0.30642 0.0
C1180 C 0.71952 0.15878 0.31304 0.0
C1181 C 0.70395 0.16352 0.32689 0.0
C1182 C 0.74602 0.19727 0.3119 0.0
C1183 C 0.70988 0.18538 0.33167 0.0
C1184 C 0.77329 0.23704 0.31422 0.0
C1185 C 0.80523 0.22876 0.2892 0.0
N1186 N 0.73041 0.20137 0.32437 0.0
N1187 N 0.7845 0.21223 0.2943 0.0
H1188 H 0.80545 0.50552 0.3481 0.0
H1189 H 0.7711 0.59134 0.28186 0.0
H1190 H 0.85234 0.57044 0.31379 0.0
H1191 H 0.72626 0.52607 0.31768 0.0
H1192 H 0.80122 0.5844 0.29186 0.0
H1193 H 0.77635 0.51288 0.33432 0.0
C1194 C 0.80964 0.52132 0.33738 0.0
C1195 C 0.83138 0.53742 0.33223 0.0
C1196 C 0.78476 0.57164 0.29752 0.0
C1197 C 0.79796 0.5461 0.31666 0.0
C1198 C 0.76758 0.57561 0.29196 0.0
C1199 C 0.74609 0.55927 0.29896 0.0
C1200 C 0.78039 0.55121 0.31015 0.0
C1201 C 0.74251 0.53918 0.31189 0.0
C1202 C 0.79297 0.52555 0.32959 0.0
C1203 C 0.83577 0.55756 0.31811 0.0
N1204 N 0.75944 0.53575 0.317 0.0
N1205 N 0.81919 0.5614 0.31102 0.0
H1206 H 0.61796 0.09456 0.83237 0.0
H1207 H 0.53558 0.14057 0.82654 0.0
H1208 H 0.63452 0.15875 0.79608 0.0
H1209 H 0.51644 0.07581 0.86355 0.0
H1210 H 0.57213 0.14718 0.81634 0.0
H1211 H 0.5811 0.08728 0.84629 0.0
C1212 C 0.61393 0.10718 0.82771 0.0
C1213 C 0.6293 0.12726 0.81292 0.0
C1214 C 0.55999 0.13149 0.82666 0.0
C1215 C 0.5873 0.11901 0.82837 0.0
C1216 C 0.53902 0.12766 0.83242 0.0
C1217 C 0.52285 0.10758 0.84594 0.0
C1218 C 0.565 0.11515 0.83443 0.0
C1219 C 0.52839 0.09152 0.85303 0.0
C1220 C 0.59288 0.10298 0.83547 0.0
C1221 C 0.6232 0.14299 0.80726 0.0
N1222 N 0.54904 0.09566 0.84723 0.0
N1223 N 0.60271 0.1385 0.81485 0.0
H1224 H 0.84001 0.47429 0.80367 0.0
H1225 H 0.92724 0.4407 0.86509 0.0
H1226 H 0.9057 0.52161 0.83362 0.0
H1227 H 0.86168 0.39565 0.83071 0.0
H1228 H 0.92001 0.47069 0.85593 0.0
H1229 H 0.84772 0.44539 0.81707 0.0
C1230 C 0.85606 0.47861 0.81337 0.0
C1231 C 0.87227 0.50042 0.81736 0.0
C1232 C 0.90726 0.45422 0.8504 0.0
C1233 C 0.88136 0.46723 0.83246 0.0
C1234 C 0.91138 0.4371 0.85548 0.0
C1235 C 0.89505 0.41559 0.84863 0.0
C1236 C 0.88665 0.44975 0.83846 0.0
C1237 C 0.8748 0.41191 0.83635 0.0
C1238 C 0.86049 0.46205 0.82093 0.0
C1239 C 0.89273 0.505 0.83021 0.0
N1240 N 0.87121 0.42878 0.83173 0.0
N1241 N 0.89677 0.48851 0.83709 0.0
H1242 H 0.55916 0.48712 0.86374 0.0
H1243 H 0.52514 0.36664 0.79961 0.0
H1244 H 0.6041 0.46665 0.82859 0.0
H1245 H 0.47806 0.38478 0.8324 0.0
H1246 H 0.55415 0.40322 0.81295 0.0
H1247 H 0.52909 0.45001 0.85395 0.0
C1248 C 0.56271 0.4749 0.85382 0.0
C1249 C 0.58422 0.48005 0.84697 0.0
C1250 C 0.53751 0.39928 0.81744 0.0
C1251 C 0.54997 0.43762 0.83605 0.0
C1252 C 0.52089 0.37831 0.8099 0.0
C1253 C 0.49912 0.37266 0.81476 0.0
C1254 C 0.53244 0.41489 0.8298 0.0
C1255 C 0.49465 0.38847 0.82832 0.0
C1256 C 0.54555 0.45371 0.84838 0.0
C1257 C 0.58784 0.46352 0.83427 0.0
N1258 N 0.5112 0.40896 0.83518 0.0
N1259 N 0.57093 0.44312 0.82929 0.0
H1260 H 0.57275 0.71716 0.66847 0.0
H1261 H 0.52757 0.80012 0.65967 0.0
H1262 H 0.50849 0.70066 0.63254 0.0
H1263 H 0.59168 0.81879 0.69967 0.0
H1264 H 0.52078 0.76347 0.65015 0.0
H1265 H 0.58023 0.75414 0.68196 0.0
C1266 C 0.56016 0.72123 0.66382 0.0
C1267 C 0.54001 0.70584 0.64922 0.0
C1268 C 0.53637 0.77552 0.661 0.0
C1269 C 0.54849 0.74798 0.66415 0.0
C1270 C 0.5403 0.79655 0.66635 0.0
C1271 C 0.56024 0.81263 0.68051 0.0
C1272 C 0.55247 0.77035 0.66978 0.0
C1273 C 0.57607 0.80692 0.68863 0.0
C1274 C 0.56447 0.74233 0.67133 0.0
C1275 C 0.52431 0.71199 0.64357 0.0
N1276 N 0.57185 0.78622 0.68317 0.0
N1277 N 0.52892 0.73255 0.65088 0.0
H1278 H 0.20252 0.72896 0.66585 0.0
H1279 H 0.2837 0.85759 0.66973 0.0
H1280 H 0.18228 0.77434 0.69947 0.0
H1281 H 0.30132 0.81021 0.6365 0.0
H1282 H 0.24694 0.82784 0.68367 0.0
H1283 H 0.2391 0.75907 0.65662 0.0
C1284 C 0.20573 0.74529 0.6712 0.0
C1285 C 0.18923 0.74909 0.68343 0.0
C1286 C 0.25894 0.82402 0.67355 0.0
C1287 C 0.2314 0.78386 0.67303 0.0
C1288 C 0.27993 0.84097 0.6658 0.0
C1289 C 0.29556 0.83637 0.65178 0.0
C1290 C 0.25367 0.80241 0.66725 0.0
C1291 C 0.28978 0.81456 0.64704 0.0
C1292 C 0.22671 0.76253 0.666 0.0
C1293 C 0.19448 0.77066 0.68992 0.0
N1294 N 0.26934 0.79846 0.65459 0.0
N1295 N 0.21514 0.78727 0.68464 0.0
H1296 H 0.22633 0.40643 0.69683 0.0
H1297 H 0.19256 0.49297 0.63223 0.0
H1298 H 0.27142 0.47189 0.66216 0.0
H1299 H 0.14538 0.42781 0.66497 0.0
H1300 H 0.22153 0.48541 0.64597 0.0
H1301 H 0.19631 0.41354 0.68693 0.0
C1302 C 0.22992 0.42223 0.68701 0.0
C1303 C 0.25145 0.43858 0.6803 0.0
C1304 C 0.20488 0.47272 0.65036 0.0
C1305 C 0.21726 0.44683 0.66925 0.0
C1306 C 0.18828 0.47707 0.6426 0.0
C1307 C 0.1665 0.46096 0.64731 0.0
C1308 C 0.19976 0.45205 0.66282 0.0
C1309 C 0.16198 0.4407 0.66099 0.0
C1310 C 0.21279 0.4263 0.68151 0.0
C1311 C 0.25513 0.45877 0.66772 0.0
N1312 N 0.1785 0.43674 0.66806 0.0
N1313 N 0.23825 0.46229 0.66267 0.0
H1314 H 0.3624 0.83771 0.18111 0.0
H1315 H 0.48281 0.92335 0.11567 0.0
H1316 H 0.38082 0.90276 0.14709 0.0
H1317 H 0.46173 0.85739 0.1482 0.0
H1318 H 0.44581 0.91652 0.12576 0.0
H1319 H 0.39871 0.84476 0.16673 0.0
C1320 C 0.37407 0.85347 0.17032 0.0
C1321 C 0.36858 0.86971 0.16543 0.0
C1322 C 0.44934 0.90358 0.13066 0.0
C1323 C 0.4105 0.87804 0.1492 0.0
C1324 C 0.47046 0.90748 0.12505 0.0
C1325 C 0.47542 0.89093 0.13115 0.0
C1326 C 0.43311 0.883 0.14245 0.0
C1327 C 0.45874 0.87067 0.14315 0.0
C1328 C 0.39487 0.85752 0.16217 0.0
C1329 C 0.38438 0.88979 0.15121 0.0
N1330 N 0.4384 0.86731 0.14838 0.0
N1331 N 0.40472 0.89346 0.14381 0.0
H1332 H 0.13619 0.60317 0.15254 0.0
H1333 H 0.09098 0.47504 0.14319 0.0
H1334 H 0.07204 0.5578 0.11261 0.0
H1335 H 0.15535 0.52279 0.1787 0.0
H1336 H 0.08349 0.50455 0.12992 0.0
H1337 H 0.14299 0.57329 0.16172 0.0
C1338 C 0.12345 0.58688 0.1458 0.0
C1339 C 0.10349 0.58304 0.13177 0.0
C1340 C 0.09928 0.5085 0.1404 0.0
C1341 C 0.11128 0.54851 0.14209 0.0
C1342 C 0.1036 0.4917 0.14779 0.0
C1343 C 0.12378 0.49646 0.16222 0.0
C1344 C 0.11528 0.53013 0.14754 0.0
C1345 C 0.13951 0.51831 0.16781 0.0
C1346 C 0.12739 0.56978 0.15095 0.0
C1347 C 0.08765 0.56152 0.12356 0.0
N1348 N 0.13488 0.53425 0.16063 0.0
N1349 N 0.09189 0.54503 0.12882 0.0
H1350 H 0.47363 0.63235 0.18182 0.0
H1351 H 0.43814 0.51197 0.11496 0.0
H1352 H 0.52006 0.6139 0.14651 0.0
H1353 H 0.39386 0.53284 0.15213 0.0
H1354 H 0.46851 0.54889 0.12506 0.0
H1355 H 0.44432 0.59591 0.16854 0.0
C1356 C 0.47767 0.62063 0.171 0.0
C1357 C 0.49935 0.62616 0.1654 0.0
C1358 C 0.45213 0.54531 0.13101 0.0
C1359 C 0.46569 0.58409 0.15039 0.0
C1360 C 0.4348 0.52424 0.12539 0.0
C1361 C 0.41339 0.51926 0.1327 0.0
C1362 C 0.44798 0.56147 0.14399 0.0
C1363 C 0.41004 0.53584 0.14606 0.0
C1364 C 0.46088 0.59975 0.1635 0.0
C1365 C 0.50355 0.6103 0.15118 0.0
N1366 N 0.4271 0.55613 0.1512 0.0
N1367 N 0.48684 0.58989 0.14434 0.0
H1368 H 0.09476 0.61764 0.64564 0.0
H1369 H 0.14076 0.53527 0.65182 0.0
H1370 H 0.15851 0.63388 0.684 0.0
H1371 H 0.07614 0.51621 0.61403 0.0
H1372 H 0.1473 0.57176 0.66235 0.0
H1373 H 0.08761 0.58087 0.63133 0.0
C1374 C 0.10731 0.61356 0.65068 0.0
C1375 C 0.12723 0.62881 0.66616 0.0
C1376 C 0.13165 0.55965 0.65178 0.0
C1377 C 0.11912 0.58691 0.65024 0.0
C1378 C 0.12787 0.53872 0.64583 0.0
C1379 C 0.10785 0.52258 0.63202 0.0
C1380 C 0.11532 0.56466 0.6439 0.0
C1381 C 0.09181 0.52813 0.62479 0.0
C1382 C 0.10318 0.59256 0.6427 0.0
C1383 C 0.14288 0.62264 0.67228 0.0
N1384 N 0.0959 0.54874 0.63079 0.0
N1385 N 0.13845 0.60221 0.66444 0.0
H1386 H 0.38349 0.47675 0.64403 0.0
H1387 H 0.46507 0.60524 0.65247 0.0
H1388 H 0.36637 0.52374 0.68174 0.0
H1389 H 0.48474 0.56027 0.61403 0.0
H1390 H 0.4286 0.57504 0.66223 0.0
H1391 H 0.42026 0.50663 0.63054 0.0
C1392 C 0.38738 0.49332 0.64909 0.0
C1393 C 0.37187 0.49776 0.66416 0.0
C1394 C 0.44084 0.57168 0.65169 0.0
C1395 C 0.41378 0.53185 0.64919 0.0
C1396 C 0.46176 0.58898 0.64618 0.0
C1397 C 0.47806 0.58533 0.6324 0.0
C1398 C 0.43602 0.55045 0.64339 0.0
C1399 C 0.47269 0.56384 0.62477 0.0
C1400 C 0.40837 0.51034 0.64158 0.0
C1401 C 0.3778 0.51951 0.67033 0.0
N1402 N 0.4521 0.54718 0.63034 0.0
N1403 N 0.39824 0.53567 0.66296 0.0
H1404 H 0.4407 0.92771 0.61369 0.0
H1405 H 0.47561 0.84172 0.67647 0.0
H1406 H 0.3963 0.8625 0.65035 0.0
H1407 H 0.52241 0.90734 0.64534 0.0
H1408 H 0.44643 0.84904 0.66314 0.0
H1409 H 0.47096 0.92085 0.62269 0.0
C1410 C 0.43731 0.91202 0.62377 0.0
C1411 C 0.4159 0.89567 0.6313 0.0
C1412 C 0.46305 0.86188 0.65901 0.0
C1413 C 0.45035 0.88769 0.64128 0.0
C1414 C 0.47976 0.85767 0.66653 0.0
C1415 C 0.5015 0.87399 0.6622 0.0
C1416 C 0.46799 0.88262 0.64718 0.0
C1417 C 0.50585 0.8943 0.64903 0.0
C1418 C 0.45457 0.9081 0.62876 0.0
C1419 C 0.41248 0.87563 0.64417 0.0
N1420 N 0.48921 0.89812 0.6422 0.0
N1421 N 0.42948 0.87224 0.64868 0.0
H1422 H 0.1783 0.40546 0.19674 0.0
H1423 H 0.29911 0.49134 0.13326 0.0
H1424 H 0.19911 0.4708 0.16083 0.0
H1425 H 0.28041 0.42597 0.16582 0.0
H1426 H 0.26258 0.48404 0.14638 0.0
H1427 H 0.21537 0.4123 0.18737 0.0
C1428 C 0.19059 0.42118 0.18674 0.0
C1429 C 0.18554 0.43757 0.17955 0.0
C1430 C 0.2664 0.47125 0.15087 0.0
C1431 C 0.22794 0.44553 0.16912 0.0
C1432 C 0.28733 0.47545 0.14346 0.0
C1433 C 0.29281 0.4592 0.1483 0.0
C1434 C 0.25064 0.45059 0.16309 0.0
C1435 C 0.27686 0.43896 0.16176 0.0
C1436 C 0.21175 0.42509 0.18154 0.0
C1437 C 0.20216 0.45765 0.16676 0.0
N1438 N 0.2564 0.43516 0.16848 0.0
N1439 N 0.22254 0.46103 0.16203 0.0
H1440 H 0.57017 0.85406 0.16696 0.0
H1441 H 0.52545 0.72595 0.15874 0.0
H1442 H 0.50663 0.80627 0.12824 0.0
H1443 H 0.58989 0.77183 0.19689 0.0
H1444 H 0.51857 0.75572 0.14862 0.0
H1445 H 0.57776 0.82465 0.18048 0.0
C1446 C 0.55776 0.83741 0.16167 0.0
C1447 C 0.53777 0.83261 0.14634 0.0
C1448 C 0.53425 0.75937 0.15917 0.0
C1449 C 0.54638 0.79906 0.16135 0.0
C1450 C 0.53823 0.74232 0.16489 0.0
C1451 C 0.5583 0.74635 0.17871 0.0
C1452 C 0.55042 0.78073 0.16729 0.0
C1453 C 0.57419 0.76797 0.18612 0.0
C1454 C 0.56214 0.82066 0.1692 0.0
C1455 C 0.5223 0.81078 0.13988 0.0
N1456 N 0.5699 0.78438 0.18037 0.0
N1457 N 0.52697 0.79488 0.14729 0.0
H1458 H 0.18809 0.69614 0.13893 0.0
H1459 H 0.22355 0.81747 0.19999 0.0
H1460 H 0.14151 0.71561 0.16826 0.0
H1461 H 0.26793 0.79562 0.16796 0.0
H1462 H 0.19314 0.78046 0.19077 0.0
H1463 H 0.21741 0.73243 0.15309 0.0
C1464 C 0.18402 0.70804 0.14866 0.0
C1465 C 0.16231 0.70286 0.15224 0.0
C1466 C 0.20956 0.78383 0.1858 0.0
C1467 C 0.19597 0.74477 0.16817 0.0
C1468 C 0.22691 0.80496 0.19091 0.0
C1469 C 0.24836 0.8097 0.18469 0.0
C1470 C 0.21372 0.7674 0.17444 0.0
C1471 C 0.25173 0.79281 0.17309 0.0
C1472 C 0.20081 0.72884 0.15666 0.0
C1473 C 0.15805 0.71894 0.16516 0.0
N1474 N 0.23464 0.7725 0.16838 0.0
N1475 N 0.17476 0.73928 0.17243 0.0
H1476 H 0.26314 0.24472 0.15097 0.0
H1477 H 0.19162 0.19595 0.32809 0.0
H1478 H 0.19674 0.19187 0.14976 0.0
H1479 H 0.24313 0.26291 0.32335 0.0
H1480 H 0.19695 0.19206 0.26404 0.0
H1481 H 0.2594 0.24981 0.21583 0.0
C1482 C 0.24782 0.23422 0.16432 0.0
C1483 C 0.23021 0.21785 0.14504 0.0
C1484 C 0.20708 0.20761 0.27701 0.0
C1485 C 0.22599 0.22341 0.2187 0.0
C1486 C 0.20414 0.20983 0.31361 0.0
C1487 C 0.21691 0.22982 0.33101 0.0
C1488 C 0.22309 0.22541 0.25771 0.0
C1489 C 0.23286 0.24725 0.31084 0.0
C1490 C 0.2457 0.23718 0.20116 0.0
C1491 C 0.2107 0.20473 0.16352 0.0
N1492 N 0.23557 0.24463 0.27512 0.0
N1493 N 0.20917 0.20771 0.19938 0.0
H1494 H 0.75204 0.0165 0.15217 0.0
H1495 H 0.8023 0.9949 0.32844 0.0
H1496 H 0.80491 0.00298 0.14996 0.0
H1497 H 0.73525 0.97926 0.3251 0.0
H1498 H 0.80557 0.00353 0.26418 0.0
H1499 H 0.74736 0.00783 0.21709 0.0
C1500 C 0.76262 0.01171 0.1653 0.0
C1501 C 0.77889 0.01046 0.14573 0.0
C1502 C 0.79013 0.99819 0.2775 0.0
C1503 C 0.77379 0.00086 0.21946 0.0
C1504 C 0.78827 0.99336 0.31421 0.0
C1505 C 0.76844 0.98628 0.33208 0.0
C1506 C 0.77214 0.9962 0.25854 0.0
C1507 C 0.75079 0.98455 0.31223 0.0
C1508 C 0.75988 0.00671 0.20218 0.0
C1509 C 0.79211 0.00409 0.16396 0.0
N1510 N 0.75307 0.98957 0.27639 0.0
N1511 N 0.78937 -0.00031 0.19985 0.0
H1512 H 0.01947 0.7534 0.3246 0.0
H1513 H 0.99614 0.80302 0.14917 0.0
H1514 H 0.00486 0.80552 0.32747 0.0
H1515 H 0.98148 0.73628 0.15198 0.0
H1516 H 0.0052 0.80639 0.21326 0.0
H1517 H 0.0107 0.74873 0.25969 0.0
C1518 C 0.01442 0.76382 0.31161 0.0
C1519 C 0.01288 0.77987 0.33137 0.0
C1520 C -2e-05 0.791 0.19986 0.0
C1521 C 0.00318 0.7748 0.25767 0.0
C1522 C 0.99491 0.78908 0.16324 0.0
C1523 C 0.98796 0.7693 0.14529 0.0
C1524 C 0.99837 0.77311 0.21863 0.0
C1525 C 0.98664 0.75177 0.16493 0.0
C1526 C 0.00937 0.7611 0.27474 0.0
C1527 C 0.0062 0.79289 0.31334 0.0
N1528 N 0.99189 0.7541 0.20069 0.0
N1529 N 0.00175 0.79017 0.27746 0.0
H1530 H 0.73501 0.75286 0.82577 0.0
H1531 H 0.80762 0.80233 0.65006 0.0
H1532 H 0.80153 0.80543 0.82828 0.0
H1533 H 0.75582 0.73547 0.65326 0.0
H1534 H 0.80212 0.80573 0.7142 0.0
H1535 H 0.73919 0.7479 0.761 0.0
C1536 C 0.75045 0.76331 0.81274 0.0
C1537 C 0.76795 0.77959 0.83235 0.0
C1538 C 0.79197 0.7903 0.70089 0.0
C1539 C 0.77268 0.77418 0.7588 0.0
C1540 C 0.79502 0.78836 0.66424 0.0
C1541 C 0.78219 0.76856 0.64636 0.0
C1542 C 0.77581 0.7724 0.71979 0.0
C1543 C 0.76613 0.75099 0.66615 0.0
C1544 C 0.75283 0.76042 0.77595 0.0
C1545 C 0.78763 0.79264 0.81426 0.0
N1546 N 0.7633 0.75334 0.70194 0.0
N1547 N 0.7894 0.78975 0.77846 0.0
H1548 H 0.1953 0.00408 0.65001 0.0
H1549 H 0.24476 0.9802 0.82486 0.0
H1550 H 0.26207 0.01878 0.65245 0.0
H1551 H 0.19311 0.99549 0.82826 0.0
H1552 H 0.24956 0.98928 0.76007 0.0
H1553 H 0.1921 0.99518 0.71412 0.0
C1554 C 0.20929 0.00536 0.66401 0.0
C1555 C 0.22902 0.01225 0.64593 0.0
C1556 C 0.23728 0.9907 0.77522 0.0
C1557 C 0.22539 0.00201 0.71932 0.0
C1558 C 0.23448 0.98547 0.81202 0.0
C1559 C 0.2185 0.98708 0.83188 0.0
C1560 C 0.22374 0.99715 0.75832 0.0
C1561 C 0.20567 0.99406 0.81404 0.0
C1562 C 0.20747 0.00038 0.70065 0.0
C1563 C 0.24661 0.01365 0.6655 0.0
N1564 N 0.20846 0.99868 0.77822 0.0
N1565 N 0.24437 0.00846 0.70128 0.0
H1566 H 0.99545 0.19238 0.64861 0.0
H1567 H 0.01719 0.26304 0.82659 0.0
H1568 H 0.97999 0.24388 0.65353 0.0
H1569 H 0.00344 0.19658 0.82708 0.0
H1570 H 0.00877 0.25964 0.76158 0.0
H1571 H 0.0043 0.19743 0.7128 0.0
C1572 C 0.99401 0.20484 0.66316 0.0
C1573 C 0.98689 0.21769 0.64576 0.0
C1574 C 0.00756 0.24586 0.77613 0.0
C1575 C 0.99705 0.22353 0.71924 0.0
C1576 C 0.01241 0.24778 0.81306 0.0
C1577 C 0.011 0.23006 0.83218 0.0
C1578 C 0.0017 0.22623 0.75835 0.0
C1579 C 0.00467 0.21063 0.81344 0.0
C1580 C 0.99896 0.20762 0.69984 0.0
C1581 C 0.9853 0.23355 0.66603 0.0
N1582 N 0.0004 0.20929 0.77752 0.0
N1583 N 0.99043 0.23611 0.70184 0.0
H1584 H 0.92841 0.57675 0.48656 0.0
H1585 H 0.85725 0.52811 0.66407 0.0
H1586 H 0.86178 0.52436 0.48556 0.0
H1587 H 0.90945 0.59477 0.6596 0.0
H1588 H 0.86218 0.52436 0.5998 0.0
H1589 H 0.92489 0.5818 0.5515 0.0
C1590 C 0.91308 0.56635 0.49996 0.0
C1591 C 0.89535 0.55011 0.48072 0.0
C1592 C 0.87254 0.53981 0.61288 0.0
C1593 C 0.89139 0.55563 0.55449 0.0
C1594 C 0.86983 0.54195 0.64959 0.0
C1595 C 0.88292 0.56182 0.66715 0.0
C1596 C 0.88864 0.55756 0.59359 0.0
C1597 C 0.89893 0.57921 0.64698 0.0
C1598 C 0.91109 0.56929 0.53686 0.0
C1599 C 0.87584 0.53712 0.49929 0.0
N1600 N 0.90142 0.57666 0.61115 0.0
N1601 N 0.87444 0.54007 0.5352 0.0
H1602 H 0.41911 0.34992 0.48571 0.0
H1603 H 0.46986 0.32916 0.66216 0.0
H1604 H 0.47184 0.3362 0.48356 0.0
H1605 H 0.40291 0.31385 0.65925 0.0
H1606 H 0.47291 0.33737 0.59775 0.0
H1607 H 0.41464 0.34161 0.55075 0.0
C1608 C 0.4297 0.34515 0.49887 0.0
C1609 C 0.44588 0.34375 0.47928 0.0
C1610 C 0.45754 0.33219 0.6112 0.0
C1611 C 0.44102 0.33457 0.55316 0.0
C1612 C 0.45581 0.32761 0.64799 0.0
C1613 C 0.43607 0.32074 0.66603 0.0
C1614 C 0.43951 0.33016 0.59232 0.0
C1615 C 0.41838 0.31898 0.64626 0.0
C1616 C 0.42709 0.34036 0.53583 0.0
C1617 C 0.45912 0.33742 0.49756 0.0
N1618 N 0.42053 0.32376 0.61033 0.0
N1619 N 0.45649 0.33323 0.53353 0.0
H1620 H 0.68592 0.0883 0.65796 0.0
H1621 H 0.66323 0.13691 0.48052 0.0
H1622 H 0.67348 0.14188 0.65881 0.0
H1623 H 0.6471 0.06978 0.48614 0.0
H1624 H 0.67277 0.14107 0.54445 0.0
H1625 H 0.67685 0.08306 0.59321 0.0
C1626 C 0.6813 0.09894 0.64455 0.0
C1627 C 0.68043 0.11554 0.66371 0.0
C1628 C 0.66713 0.12542 0.5317 0.0
C1629 C 0.67037 0.1098 0.59015 0.0
C1630 C 0.66177 0.12305 0.49518 0.0
C1631 C 0.65427 0.10293 0.47806 0.0
C1632 C 0.66525 0.10765 0.55121 0.0
C1633 C 0.65269 0.08552 0.49843 0.0
C1634 C 0.67608 0.09589 0.60777 0.0
C1635 C 0.67428 0.12882 0.64514 0.0
N1636 N 0.65822 0.0883 0.53407 0.0
N1637 N 0.66963 0.12575 0.60934 0.0
H1638 H 0.40157 0.08639 0.15857 0.0
H1639 H 0.47535 0.1365 0.98425 0.0
H1640 H 0.46822 0.13863 0.16254 0.0
H1641 H 0.42311 0.06982 0.98619 0.0
H1642 H 0.46963 0.13956 0.04843 0.0
H1643 H 0.40614 0.08176 0.09384 0.0
C1644 C 0.41713 0.09684 0.14586 0.0
C1645 C 0.43454 0.11293 0.16588 0.0
C1646 C 0.45944 0.12424 0.03483 0.0
C1647 C 0.43972 0.10788 0.09236 0.0
C1648 C 0.46261 0.1225 -0.00184 0.0
C1649 C 0.44971 0.10284 0.97992 0.0
C1650 C 0.44306 0.10631 0.05337 0.0
C1651 C 0.43348 0.08522 -0.00063 0.0
C1652 C 0.41972 0.09413 0.1091 0.0
C1653 C 0.45437 0.12598 0.1482 0.0
N1654 N 0.43052 0.08739 0.03517 0.0
N1655 N 0.45636 0.12327 0.11239 0.0
H1656 H 0.85986 0.32932 0.16209 0.0
H1657 H 0.932 0.35183 0.98598 0.0
H1658 H 0.9109 0.31317 0.15832 0.0
H1659 H 0.86552 0.33803 0.98382 0.0
H1660 H 0.92793 0.34283 0.0508 0.0
H1661 H 0.86549 0.33842 0.09804 0.0
C1662 C 0.87233 0.32777 0.14782 0.0
C1663 C 0.88488 0.32039 0.16549 0.0
C1664 C 0.91429 0.34172 0.03592 0.0
C1665 C 0.89141 0.33085 0.09218 0.0
C1666 C 0.91659 0.34691 -0.0009 0.0
C1667 C 0.89906 0.34567 0.97958 0.0
C1668 C 0.89449 0.33572 0.05317 0.0
C1669 C 0.87943 0.33914 -0.00223 0.0
C1670 C 0.87545 0.33287 0.11122 0.0
C1671 C 0.90079 0.31868 0.14559 0.0
N1672 N 0.87774 0.33456 0.0336 0.0
N1673 N 0.90369 0.32396 0.10985 0.0
H1674 H 0.66744 0.52886 0.16306 0.0
H1675 H 0.64667 0.57966 0.98658 0.0
H1676 H 0.68321 0.59594 0.16001 0.0
H1677 H 0.66009 0.52673 0.98457 0.0
H1678 H 0.65486 0.58406 0.0517 0.0
H1679 H 0.65881 0.52568 0.09881 0.0
C1680 C 0.669 0.54292 0.14891 0.0
C1681 C 0.67615 0.56274 0.16684 0.0
C1682 C 0.65605 0.57158 0.03679 0.0
C1683 C 0.66623 0.55914 0.0933 0.0
C1684 C 0.65133 0.56901 -0.0002 0.0
C1685 C 0.65272 0.55281 0.98022 0.0
C1686 C 0.66175 0.55758 0.05416 0.0
C1687 C 0.65889 0.53948 -0.00144 0.0
C1688 C 0.66417 0.5411 0.1122 0.0
C1689 C 0.67788 0.58041 0.14708 0.0
N1690 N 0.66303 0.54207 0.03454 0.0
N1691 N 0.67288 0.57818 0.11123 0.0
H1692 H 0.57694 0.9299 -0.00574 0.0
H1693 H 0.52888 0.86059 0.81477 0.0
H1694 H 0.52372 0.86368 -0.00692 0.0
H1695 H 0.59612 0.9113 0.82136 0.0
H1696 H 0.52464 0.86541 0.87886 0.0
H1697 H 0.58244 0.92687 0.92929 0.0
C1698 C 0.56644 0.91477 0.98037 0.0
C1699 C 0.54986 0.89701 -0.00099 0.0
C1700 C 0.54033 0.87548 0.86629 0.0
C1701 C 0.55588 0.8936 0.92524 0.0
C1702 C 0.54275 0.87283 0.82967 0.0
C1703 C 0.56293 0.88551 0.81277 0.0
C1704 C 0.5581 0.89111 0.88616 0.0
C1705 C 0.58033 0.9011 0.83348 0.0
C1706 C 0.56964 0.91306 0.94347 0.0
C1707 C 0.53676 0.87776 0.97983 0.0
N1708 N 0.57751 0.90354 0.86924 0.0
N1709 N 0.53996 0.87663 0.94395 0.0
H1710 H 0.13519 0.66306 -0.00146 0.0
H1711 H 0.08766 0.68604 0.82015 0.0
H1712 H 0.06801 0.64675 -0.00798 0.0
H1713 H 0.14061 0.67264 0.82031 0.0
H1714 H 0.08205 0.677 0.88492 0.0
H1715 H 0.13958 0.67263 0.93465 0.0
C1716 C 0.12136 0.66158 0.9837 0.0
C1717 C 0.10116 0.65401 0.00056 0.0
C1718 C 0.09481 0.67601 0.87056 0.0
C1719 C 0.10616 0.665 0.92742 0.0
C1720 C 0.09808 0.68122 0.83378 0.0
C1721 C 0.11462 0.68007 0.81492 0.0
C1722 C 0.10847 0.67006 0.88846 0.0
C1723 C 0.12761 0.67366 0.83375 0.0
C1724 C 0.12387 0.66695 0.94719 0.0
C1725 C 0.08382 0.65239 0.97993 0.0
N1726 N 0.12435 0.66905 0.86954 0.0
N1727 N 0.08672 0.65793 0.9443 0.0
H1728 H 0.33598 0.47296 -0.00447 0.0
H1729 H 0.31362 0.40096 0.81909 0.0
H1730 H 0.34981 0.42031 -0.00736 0.0
H1731 H 0.32859 0.4678 0.81701 0.0
H1732 H 0.32195 0.40467 0.88413 0.0
H1733 H 0.32763 0.46784 0.93116 0.0
C1734 C 0.33718 0.46024 0.98138 0.0
C1735 C 0.34368 0.44708 -0.0006 0.0
C1736 C 0.32346 0.41848 0.86923 0.0
C1737 C 0.33409 0.44115 0.92573 0.0
C1738 C 0.31867 0.41638 0.83227 0.0
C1739 C 0.32041 0.4341 0.8127 0.0
C1740 C 0.32962 0.43829 0.88658 0.0
C1741 C 0.32708 0.45373 0.83099 0.0
C1742 C 0.33252 0.45742 0.9446 0.0
C1743 C 0.34498 0.43089 0.97965 0.0
N1744 N 0.33129 0.45524 0.86696 0.0
N1745 N 0.34014 0.4283 0.94373 0.0
H1746 H 0.13721 0.47462 0.49413 0.0
H1747 H 0.08619 0.40176 0.31894 0.0
H1748 H 0.07024 0.42301 0.49183 0.0
H1749 H 0.13903 0.46813 0.31567 0.0
H1750 H 0.08184 0.40609 0.38387 0.0
H1751 H 0.1402 0.46894 0.42988 0.0
C1752 C 0.12314 0.46202 0.48013 0.0
C1753 C 0.10341 0.4493 0.49828 0.0
C1754 C 0.09429 0.41966 0.36873 0.0
C1755 C 0.1068 0.44272 0.42478 0.0
C1756 C 0.09683 0.4172 0.33185 0.0
C1757 C 0.113 0.43462 0.31197 0.0
C1758 C 0.10828 0.4395 0.38571 0.0
C1759 C 0.12631 0.4543 0.32991 0.0
C1760 C 0.12484 0.45887 0.44343 0.0
C1761 C 0.0857 0.43324 0.47873 0.0
N1762 N 0.12375 0.45615 0.36581 0.0
N1763 N 0.08783 0.43032 0.4429 0.0
H1764 H 0.59692 0.68522 0.31905 0.0
H1765 H 0.52537 0.66314 0.49593 0.0
H1766 H 0.53024 0.67081 0.31742 0.0
H1767 H 0.57723 0.64817 0.49219 0.0
H1768 H 0.53058 0.67182 0.43169 0.0
H1769 H 0.59328 0.67684 0.38409 0.0
C1770 C 0.58156 0.6803 0.33234 0.0
C1771 C 0.56384 0.67869 0.31289 0.0
C1772 C 0.54081 0.66662 0.44492 0.0
C1773 C 0.55974 0.66943 0.38674 0.0
C1774 C 0.53793 0.66176 0.48162 0.0
C1775 C 0.55084 0.65484 0.49937 0.0
C1776 C 0.55689 0.66483 0.42585 0.0
C1777 C 0.56685 0.65332 0.47941 0.0
C1778 C 0.5795 0.67547 0.36928 0.0
C1779 C 0.54429 0.67219 0.33131 0.0
N1780 N 0.56951 0.65837 0.44358 0.0
N1781 N 0.54282 0.66794 0.36725 0.0
H1782 H 0.31281 0.91107 0.3202 0.0
H1783 H 0.33645 0.86357 0.49793 0.0
H1784 H 0.32685 0.85855 0.31977 0.0
H1785 H 0.35136 0.93035 0.49248 0.0
H1786 H 0.32723 0.85941 0.43389 0.0
H1787 H 0.32196 0.91666 0.38492 0.0
C1788 C 0.31782 0.90076 0.33368 0.0
C1789 C 0.31907 0.88432 0.31466 0.0
C1790 C 0.33254 0.87498 0.44669 0.0
C1791 C 0.32921 0.89045 0.38818 0.0
C1792 C 0.3377 0.87736 0.48329 0.0
C1793 C 0.34476 0.89738 0.5005 0.0
C1794 C 0.33418 0.89265 0.42718 0.0
C1795 C 0.34611 0.91468 0.48012 0.0
C1796 C 0.32308 0.90401 0.37044 0.0
C1797 C 0.32572 0.87146 0.33332 0.0
N1798 N 0.34077 0.9119 0.4444 0.0
N1799 N 0.33038 0.8747 0.36909 0.0
loop_
_geom_bond_atom_site_label_1
_geom_bond_atom_site_label_2
_geom_bond_distance
_geom_bond_site_symmetry_2
_ccdc_geom_bond_type
O0 Cd1 2.223 . S
O0 C8 1.315 . S
Cd1 O0 2.223 . S
Cd1 O4 2.297 . S
Cd1 O5 2.439 1_554 S
Cd1 O11 2.240 . S
Cd2 O3 2.240 . S
Cd2 O10 2.223 . S
Cd2 O12 2.297 . S
Cd2 O13 2.439 . S
O3 Cd2 2.240 . S
O3 C8 1.279 . S
O4 Cd1 2.297 . S
O4 C6 1.247 1_554 S
O5 Cd1 2.439 1_556 S
O5 C6 1.208 . S
C6 O4 1.247 1_556 S
C6 O5 1.208 . S
C7 O12 1.247 . S
C7 O13 1.208 . S
C8 O0 1.315 . S
C8 O3 1.279 . S
C9 O10 1.315 . S
C9 O11 1.279 . S
O10 Cd2 2.223 . S
O10 C9 1.315 . S
O11 Cd1 2.240 . S
O11 C9 1.279 . S
O12 Cd2 2.297 . S
O12 C7 1.247 . S
O13 Cd2 2.439 . S
O13 C7 1.208 . S
O14 Cd15 2.223 . S
O14 C22 1.315 . S
Cd15 O14 2.223 . S
Cd15 O18 2.297 . S
Cd15 O19 2.439 1_554 S
Cd15 O25 2.211 1_545 S
Cd16 O17 2.240 1_565 S
Cd16 O24 2.223 1_565 S
Cd16 O26 2.297 . S
Cd16 O27 2.439 . S
O17 Cd16 2.240 1_545 S
O17 C22 1.279 . S
O18 Cd15 2.297 . S
O18 C20 1.247 1_554 S
O19 Cd15 2.439 1_556 S
O19 C20 1.208 . S
C20 O18 1.247 1_556 S
C20 O19 1.208 . S
C21 O26 1.247 . S
C21 O27 1.208 . S
C22 O14 1.315 . S
C22 O17 1.279 . S
C23 O24 1.315 . S
C23 O25 1.287 1_545 S
O24 Cd16 2.223 1_545 S
O24 C23 1.315 . S
O25 Cd15 2.211 1_565 S
O25 C23 1.287 1_565 S
O26 Cd16 2.297 . S
O26 C21 1.247 . S
O27 Cd16 2.439 . S
O27 C21 1.208 . S
O28 Cd29 2.223 . S
O28 C36 1.315 . S
Cd29 O28 2.223 . S
Cd29 O32 2.297 . S
Cd29 O33 2.439 1_554 S
Cd29 O39 2.231 1_655 S
Cd30 O31 2.240 1_455 S
Cd30 O38 2.223 1_455 S
Cd30 O40 2.297 . S
Cd30 O41 2.439 . S
O31 Cd30 2.240 1_655 S
O31 C36 1.279 . S
O32 Cd29 2.297 . S
O32 C34 1.247 1_554 S
O33 Cd29 2.439 1_556 S
O33 C34 1.208 . S
C34 O32 1.247 1_556 S
C34 O33 1.208 . S
C35 O40 1.247 . S
C35 O41 1.208 . S
C36 O28 1.315 . S
C36 O31 1.279 . S
C37 O38 1.315 . S
C37 O39 1.261 1_655 S
O38 Cd30 2.223 1_655 S
O38 C37 1.315 . S
O39 Cd29 2.231 1_455 S
O39 C37 1.261 1_455 S
O40 Cd30 2.297 . S
O40 C35 1.247 . S
O41 Cd30 2.439 . S
O41 C35 1.208 . S
O42 Cd43 2.223 . S
O42 C50 1.315 . S
Cd43 O42 2.223 . S
Cd43 O46 2.297 . S
Cd43 O47 2.439 . S
Cd43 O53 2.240 . S
Cd44 O45 2.240 . S
Cd44 O52 2.223 . S
Cd44 O54 2.297 . S
Cd44 O55 2.439 . S
O45 Cd44 2.240 . S
O45 C50 1.279 . S
O46 Cd43 2.297 . S
O46 C48 1.247 . S
O47 Cd43 2.439 . S
O47 C48 1.208 . S
C48 O46 1.247 . S
C48 O47 1.208 . S
C49 O54 1.247 . S
C49 O55 1.208 . S
C50 O42 1.315 . S
C50 O45 1.279 . S
C51 O52 1.315 . S
C51 O53 1.279 . S
O52 Cd44 2.223 . S
O52 C51 1.315 . S
O53 Cd43 2.240 . S
O53 C51 1.279 . S
O54 Cd44 2.297 . S
O54 C49 1.247 . S
O55 Cd44 2.439 . S
O55 C49 1.208 . S
O56 Cd57 2.223 . S
O56 C64 1.315 . S
Cd57 O56 2.223 . S
Cd57 O60 2.297 . S
Cd57 O61 2.439 . S
Cd57 O67 2.231 1_565 S
Cd58 O59 2.240 1_545 S
Cd58 O66 2.223 1_545 S
Cd58 O68 2.297 . S
Cd58 O69 2.439 . S
O59 Cd58 2.240 1_565 S
O59 C64 1.279 . S
O60 Cd57 2.297 . S
O60 C62 1.247 . S
O61 Cd57 2.439 . S
O61 C62 1.208 . S
C62 O60 1.247 . S
C62 O61 1.208 . S
C63 O68 1.247 . S
C63 O69 1.208 . S
C64 O56 1.315 . S
C64 O59 1.279 . S
C65 O66 1.315 . S
C65 O67 1.261 1_565 S
O66 Cd58 2.223 1_565 S
O66 C65 1.315 . S
O67 Cd57 2.231 1_545 S
O67 C65 1.261 1_545 S
O68 Cd58 2.297 . S
O68 C63 1.247 . S
O69 Cd58 2.439 . S
O69 C63 1.208 . S
O70 Cd71 2.223 . S
O70 C78 1.315 . S
Cd71 O70 2.223 . S
Cd71 O74 2.297 . S
Cd71 O75 2.439 . S
Cd71 O81 2.211 1_455 S
Cd72 O73 2.240 1_655 S
Cd72 O80 2.223 1_655 S
Cd72 O82 2.297 . S
Cd72 O83 2.439 . S
O73 Cd72 2.240 1_455 S
O73 C78 1.279 . S
O74 Cd71 2.297 . S
O74 C76 1.247 . S
O75 Cd71 2.439 . S
O75 C76 1.208 . S
C76 O74 1.247 . S
C76 O75 1.208 . S
C77 O82 1.247 . S
C77 O83 1.208 . S
C78 O70 1.315 . S
C78 O73 1.279 . S
C79 O80 1.315 . S
C79 O81 1.287 1_455 S
O80 Cd72 2.223 1_455 S
O80 C79 1.315 . S
O81 Cd71 2.211 1_655 S
O81 C79 1.287 1_655 S
O82 Cd72 2.297 . S
O82 C77 1.247 . S
O83 Cd72 2.439 . S
O83 C77 1.208 . S
O84 Cd85 2.223 . S
O84 C92 1.315 . S
Cd85 O84 2.223 . S
Cd85 O88 2.297 . S
Cd85 O89 2.439 1_556 S
Cd85 O95 2.240 . S
Cd86 O87 2.240 . S
Cd86 O94 2.223 . S
Cd86 O96 2.297 . S
Cd86 O97 2.439 . S
O87 Cd86 2.240 . S
O87 C92 1.279 . S
O88 Cd85 2.297 . S
O88 C90 1.247 1_556 S
O89 Cd85 2.439 1_554 S
O89 C90 1.208 . S
C90 O88 1.247 1_554 S
C90 O89 1.208 . S
C91 O96 1.247 . S
C91 O97 1.208 . S
C92 O84 1.315 . S
C92 O87 1.279 . S
C93 O94 1.315 . S
C93 O95 1.279 . S
O94 Cd86 2.223 . S
O94 C93 1.315 . S
O95 Cd85 2.240 . S
O95 C93 1.279 . S
O96 Cd86 2.297 . S
O96 C91 1.247 . S
O97 Cd86 2.439 . S
O97 C91 1.208 . S
O98 Cd99 2.223 . S
O98 C106 1.315 . S
Cd99 O98 2.223 . S
Cd99 O102 2.297 . S
Cd99 O103 2.439 1_556 S
Cd99 O109 2.211 1_565 S
Cd100 O101 2.240 1_545 S
Cd100 O108 2.223 1_545 S
Cd100 O110 2.297 . S
Cd100 O111 2.439 . S
O101 Cd100 2.240 1_565 S
O101 C106 1.279 . S
O102 Cd99 2.297 . S
O102 C104 1.247 1_556 S
O103 Cd99 2.439 1_554 S
O103 C104 1.208 . S
C104 O102 1.247 1_554 S
C104 O103 1.208 . S
C105 O110 1.247 . S
C105 O111 1.208 . S
C106 O98 1.315 . S
C106 O101 1.279 . S
C107 O108 1.315 . S
C107 O109 1.287 1_565 S
O108 Cd100 2.223 1_565 S
O108 C107 1.315 . S
O109 Cd99 2.211 1_545 S
O109 C107 1.287 1_545 S
O110 Cd100 2.297 . S
O110 C105 1.247 . S
O111 Cd100 2.439 . S
O111 C105 1.208 . S
O112 Cd113 2.223 . S
O112 C120 1.315 . S
Cd113 O112 2.223 . S
Cd113 O116 2.297 . S
Cd113 O117 2.439 1_556 S
Cd113 O123 2.231 1_455 S
Cd114 O115 2.240 1_655 S
Cd114 O122 2.223 1_655 S
Cd114 O124 2.297 . S
Cd114 O125 2.439 . S
O115 Cd114 2.240 1_455 S
O115 C120 1.279 . S
O116 Cd113 2.297 . S
O116 C118 1.247 1_556 S
O117 Cd113 2.439 1_554 S
O117 C118 1.208 . S
C118 O116 1.247 1_554 S
C118 O117 1.208 . S
C119 O124 1.247 . S
C119 O125 1.208 . S
C120 O112 1.315 . S
C120 O115 1.279 . S
C121 O122 1.315 . S
C121 O123 1.261 1_455 S
O122 Cd114 2.223 1_455 S
O122 C121 1.315 . S
O123 Cd113 2.231 1_655 S
O123 C121 1.261 1_655 S
O124 Cd114 2.297 . S
O124 C119 1.247 . S
O125 Cd114 2.439 . S
O125 C119 1.208 . S
O126 Cd127 2.223 . S
O126 C134 1.315 . S
Cd127 O126 2.223 . S
Cd127 O130 2.297 . S
Cd127 O131 2.439 . S
Cd127 O137 2.240 . S
Cd128 O129 2.240 . S
Cd128 O136 2.223 . S
Cd128 O138 2.297 . S
Cd128 O139 2.439 . S
O129 Cd128 2.240 . S
O129 C134 1.279 . S
O130 Cd127 2.297 . S
O130 C132 1.247 . S
O131 Cd127 2.439 . S
O131 C132 1.208 . S
C132 O130 1.247 . S
C132 O131 1.208 . S
C133 O138 1.247 . S
C133 O139 1.208 . S
C134 O126 1.315 . S
C134 O129 1.279 . S
C135 O136 1.315 . S
C135 O137 1.279 . S
O136 Cd128 2.223 . S
O136 C135 1.315 . S
O137 Cd127 2.240 . S
O137 C135 1.279 . S
O138 Cd128 2.297 . S
O138 C133 1.247 . S
O139 Cd128 2.439 . S
O139 C133 1.208 . S
O140 Cd141 2.223 . S
O140 C148 1.315 . S
Cd141 O140 2.223 . S
Cd141 O144 2.297 . S
Cd141 O145 2.439 . S
Cd141 O151 2.231 1_545 S
Cd142 O143 2.240 1_565 S
Cd142 O150 2.223 1_565 S
Cd142 O152 2.297 . S
Cd142 O153 2.439 . S
O143 Cd142 2.240 1_545 S
O143 C148 1.279 . S
O144 Cd141 2.297 . S
O144 C146 1.247 . S
O145 Cd141 2.439 . S
O145 C146 1.208 . S
C146 O144 1.247 . S
C146 O145 1.208 . S
C147 O152 1.247 . S
C147 O153 1.208 . S
C148 O140 1.315 . S
C148 O143 1.279 . S
C149 O150 1.315 . S
C149 O151 1.261 1_545 S
O150 Cd142 2.223 1_545 S
O150 C149 1.315 . S
O151 Cd141 2.231 1_565 S
O151 C149 1.261 1_565 S
O152 Cd142 2.297 . S
O152 C147 1.247 . S
O153 Cd142 2.439 . S
O153 C147 1.208 . S
O154 Cd155 2.223 . S
O154 C162 1.315 . S
Cd155 O154 2.223 . S
Cd155 O158 2.297 . S
Cd155 O159 2.439 . S
Cd155 O165 2.211 1_655 S
Cd156 O157 2.240 1_455 S
Cd156 O164 2.223 1_455 S
Cd156 O166 2.297 . S
Cd156 O167 2.439 . S
O157 Cd156 2.240 1_655 S
O157 C162 1.279 . S
O158 Cd155 2.297 . S
O158 C160 1.247 . S
O159 Cd155 2.439 . S
O159 C160 1.208 . S
C160 O158 1.247 . S
C160 O159 1.208 . S
C161 O166 1.247 . S
C161 O167 1.208 . S
C162 O154 1.315 . S
C162 O157 1.279 . S
C163 O164 1.315 . S
C163 O165 1.287 1_655 S
O164 Cd156 2.223 1_655 S
O164 C163 1.315 . S
O165 Cd155 2.211 1_455 S
O165 C163 1.287 1_455 S
O166 Cd156 2.297 . S
O166 C161 1.247 . S
O167 Cd156 2.439 . S
O167 C161 1.208 . S
O168 Cd169 2.223 . S
O168 C176 1.315 . S
Cd169 O168 2.223 . S
Cd169 O172 2.297 . S
Cd169 O173 2.439 . S
Cd169 O179 2.240 . S
Cd170 O171 2.240 . S
Cd170 O178 2.223 . S
Cd170 O180 2.297 . S
Cd170 O181 2.439 . S
O171 Cd170 2.240 . S
O171 C176 1.279 . S
O172 Cd169 2.297 . S
O172 C174 1.247 . S
O173 Cd169 2.439 . S
O173 C174 1.208 . S
C174 O172 1.247 . S
C174 O173 1.208 . S
C175 O180 1.247 . S
C175 O181 1.208 . S
C176 O168 1.315 . S
C176 O171 1.279 . S
C177 O178 1.315 . S
C177 O179 1.279 . S
O178 Cd170 2.223 . S
O178 C177 1.315 . S
O179 Cd169 2.240 . S
O179 C177 1.279 . S
O180 Cd170 2.297 . S
O180 C175 1.247 . S
O181 Cd170 2.439 . S
O181 C175 1.208 . S
O182 Cd183 2.223 . S
O182 C190 1.315 . S
Cd183 O182 2.223 . S
Cd183 O186 2.297 . S
Cd183 O187 2.439 . S
Cd183 O193 2.240 . S
Cd184 O185 2.240 . S
Cd184 O192 2.223 . S
Cd184 O194 2.297 . S
Cd184 O195 2.439 . S
O185 Cd184 2.240 . S
O185 C190 1.279 . S
O186 Cd183 2.297 . S
O186 C188 1.247 . S
O187 Cd183 2.439 . S
O187 C188 1.208 . S
C188 O186 1.247 . S
C188 O187 1.208 . S
C189 O194 1.247 . S
C189 O195 1.208 . S
C190 O182 1.315 . S
C190 O185 1.279 . S
C191 O192 1.315 . S
C191 O193 1.279 . S
O192 Cd184 2.223 . S
O192 C191 1.315 . S
O193 Cd183 2.240 . S
O193 C191 1.279 . S
O194 Cd184 2.297 . S
O194 C189 1.247 . S
O195 Cd184 2.439 . S
O195 C189 1.208 . S
O196 Cd197 2.223 . S
O196 C204 1.315 . S
Cd197 O196 2.223 . S
Cd197 O200 2.297 . S
Cd197 O201 2.439 . S
Cd197 O207 2.240 . S
Cd198 O199 2.240 . S
Cd198 O206 2.223 . S
Cd198 O208 2.297 . S
Cd198 O209 2.439 . S
O199 Cd198 2.240 . S
O199 C204 1.279 . S
O200 Cd197 2.297 . S
O200 C202 1.247 . S
O201 Cd197 2.439 . S
O201 C202 1.208 . S
C202 O200 1.247 . S
C202 O201 1.208 . S
C203 O208 1.247 . S
C203 O209 1.208 . S
C204 O196 1.315 . S
C204 O199 1.279 . S
C205 O206 1.315 . S
C205 O207 1.279 . S
O206 Cd198 2.223 . S
O206 C205 1.315 . S
O207 Cd197 2.240 . S
O207 C205 1.279 . S
O208 Cd198 2.297 . S
O208 C203 1.247 . S
O209 Cd198 2.439 . S
O209 C203 1.208 . S
O210 Cd211 2.223 . S
O210 C218 1.315 . S
Cd211 O210 2.223 . S
Cd211 O214 2.297 . S
Cd211 O215 2.439 . S
Cd211 O221 2.240 . S
Cd212 O213 2.240 . S
Cd212 O220 2.223 . S
Cd212 O222 2.297 . S
Cd212 O223 2.439 . S
O213 Cd212 2.240 . S
O213 C218 1.279 . S
O214 Cd211 2.297 . S
O214 C216 1.247 . S
O215 Cd211 2.439 . S
O215 C216 1.208 . S
C216 O214 1.247 . S
C216 O215 1.208 . S
C217 O222 1.247 . S
C217 O223 1.208 . S
C218 O210 1.315 . S
C218 O213 1.279 . S
C219 O220 1.315 . S
C219 O221 1.279 . S
O220 Cd212 2.223 . S
O220 C219 1.315 . S
O221 Cd211 2.240 . S
O221 C219 1.279 . S
O222 Cd212 2.297 . S
O222 C217 1.247 . S
O223 Cd212 2.439 . S
O223 C217 1.208 . S
O224 Cd225 2.223 . S
O224 C232 1.315 . S
Cd225 O224 2.223 . S
Cd225 O228 2.297 . S
Cd225 O229 2.439 . S
Cd225 O235 2.240 . S
Cd226 O227 2.240 . S
Cd226 O234 2.223 . S
Cd226 O236 2.297 . S
Cd226 O237 2.439 . S
O227 Cd226 2.240 . S
O227 C232 1.279 . S
O228 Cd225 2.297 . S
O228 C230 1.247 . S
O229 Cd225 2.439 . S
O229 C230 1.208 . S
C230 O228 1.247 . S
C230 O229 1.208 . S
C231 O236 1.247 . S
C231 O237 1.208 . S
C232 O224 1.315 . S
C232 O227 1.279 . S
C233 O234 1.315 . S
C233 O235 1.279 . S
O234 Cd226 2.223 . S
O234 C233 1.315 . S
O235 Cd225 2.240 . S
O235 C233 1.279 . S
O236 Cd226 2.297 . S
O236 C231 1.247 . S
O237 Cd226 2.439 . S
O237 C231 1.208 . S
O238 Cd239 2.223 . S
O238 C246 1.315 . S
Cd239 O238 2.223 . S
Cd239 O242 2.297 . S
Cd239 O243 2.439 . S
Cd239 O249 2.240 . S
Cd240 O241 2.240 . S
Cd240 O248 2.223 . S
Cd240 O250 2.297 . S
Cd240 O251 2.439 . S
O241 Cd240 2.240 . S
O241 C246 1.279 . S
O242 Cd239 2.297 . S
O242 C244 1.247 . S
O243 Cd239 2.439 . S
O243 C244 1.208 . S
C244 O242 1.247 . S
C244 O243 1.208 . S
C245 O250 1.247 . S
C245 O251 1.208 . S
C246 O238 1.315 . S
C246 O241 1.279 . S
C247 O248 1.315 . S
C247 O249 1.279 . S
O248 Cd240 2.223 . S
O248 C247 1.315 . S
O249 Cd239 2.240 . S
O249 C247 1.279 . S
O250 Cd240 2.297 . S
O250 C245 1.247 . S
O251 Cd240 2.439 . S
O251 C245 1.208 . S
O252 Cd253 2.223 . S
O252 C260 1.315 . S
Cd253 O252 2.223 . S
Cd253 O256 2.297 . S
Cd253 O257 2.439 . S
Cd253 O263 2.240 . S
Cd254 O255 2.240 . S
Cd254 O262 2.223 . S
Cd254 O264 2.297 . S
Cd254 O265 2.439 . S
O255 Cd254 2.240 . S
O255 C260 1.279 . S
O256 Cd253 2.297 . S
O256 C258 1.247 . S
O257 Cd253 2.439 . S
O257 C258 1.208 . S
C258 O256 1.247 . S
C258 O257 1.208 . S
C259 O264 1.247 . S
C259 O265 1.208 . S
C260 O252 1.315 . S
C260 O255 1.279 . S
C261 O262 1.315 . S
C261 O263 1.279 . S
O262 Cd254 2.223 . S
O262 C261 1.315 . S
O263 Cd253 2.240 . S
O263 C261 1.279 . S
O264 Cd254 2.297 . S
O264 C259 1.247 . S
O265 Cd254 2.439 . S
O265 C259 1.208 . S
O266 Cd267 2.223 . S
O266 C274 1.315 . S
Cd267 O266 2.223 . S
Cd267 O270 2.297 . S
Cd267 O271 2.439 . S
Cd267 O277 2.240 . S
Cd268 O269 2.240 . S
Cd268 O276 2.223 . S
Cd268 O278 2.297 . S
Cd268 O279 2.439 . S
O269 Cd268 2.240 . S
O269 C274 1.279 . S
O270 Cd267 2.297 . S
O270 C272 1.247 . S
O271 Cd267 2.439 . S
O271 C272 1.208 . S
C272 O270 1.247 . S
C272 O271 1.208 . S
C273 O278 1.247 . S
C273 O279 1.208 . S
C274 O266 1.315 . S
C274 O269 1.279 . S
C275 O276 1.315 . S
C275 O277 1.279 . S
O276 Cd268 2.223 . S
O276 C275 1.315 . S
O277 Cd267 2.240 . S
O277 C275 1.279 . S
O278 Cd268 2.297 . S
O278 C273 1.247 . S
O279 Cd268 2.439 . S
O279 C273 1.208 . S
O280 Cd281 2.223 . S
O280 C288 1.315 . S
Cd281 O280 2.223 . S
Cd281 O284 2.297 . S
Cd281 O285 2.439 . S
Cd281 O291 2.240 . S
Cd282 O283 2.240 . S
Cd282 O290 2.223 . S
Cd282 O292 2.297 . S
Cd282 O293 2.439 . S
O283 Cd282 2.240 . S
O283 C288 1.279 . S
O284 Cd281 2.297 . S
O284 C286 1.247 . S
O285 Cd281 2.439 . S
O285 C286 1.208 . S
C286 O284 1.247 . S
C286 O285 1.208 . S
C287 O292 1.247 . S
C287 O293 1.208 . S
C288 O280 1.315 . S
C288 O283 1.279 . S
C289 O290 1.315 . S
C289 O291 1.279 . S
O290 Cd282 2.223 . S
O290 C289 1.315 . S
O291 Cd281 2.240 . S
O291 C289 1.279 . S
O292 Cd282 2.297 . S
O292 C287 1.247 . S
O293 Cd282 2.439 . S
O293 C287 1.208 . S
O294 Cd295 2.223 . S
O294 C302 1.315 . S
Cd295 O294 2.223 . S
Cd295 O298 2.297 . S
Cd295 O299 2.439 . S
Cd295 O305 2.240 . S
Cd296 O297 2.240 . S
Cd296 O304 2.223 . S
Cd296 O306 2.297 . S
Cd296 O307 2.439 . S
O297 Cd296 2.240 . S
O297 C302 1.279 . S
O298 Cd295 2.297 . S
O298 C300 1.247 . S
O299 Cd295 2.439 . S
O299 C300 1.208 . S
C300 O298 1.247 . S
C300 O299 1.208 . S
C301 O306 1.247 . S
C301 O307 1.208 . S
C302 O294 1.315 . S
C302 O297 1.279 . S
C303 O304 1.315 . S
C303 O305 1.279 . S
O304 Cd296 2.223 . S
O304 C303 1.315 . S
O305 Cd295 2.240 . S
O305 C303 1.279 . S
O306 Cd296 2.297 . S
O306 C301 1.247 . S
O307 Cd296 2.439 . S
O307 C301 1.208 . S
O308 Cd309 2.223 . S
O308 C316 1.315 . S
Cd309 O308 2.223 . S
Cd309 O312 2.297 . S
Cd309 O313 2.439 . S
Cd309 O319 2.240 . S
Cd310 O311 2.240 . S
Cd310 O318 2.223 . S
Cd310 O320 2.297 . S
Cd310 O321 2.439 . S
O311 Cd310 2.240 . S
O311 C316 1.279 . S
O312 Cd309 2.297 . S
O312 C314 1.247 . S
O313 Cd309 2.439 . S
O313 C314 1.208 . S
C314 O312 1.247 . S
C314 O313 1.208 . S
C315 O320 1.247 . S
C315 O321 1.208 . S
C316 O308 1.315 . S
C316 O311 1.279 . S
C317 O318 1.315 . S
C317 O319 1.279 . S
O318 Cd310 2.223 . S
O318 C317 1.315 . S
O319 Cd309 2.240 . S
O319 C317 1.279 . S
O320 Cd310 2.297 . S
O320 C315 1.247 . S
O321 Cd310 2.439 . S
O321 C315 1.208 . S
O322 Cd323 2.223 . S
O322 C330 1.315 . S
Cd323 O322 2.223 . S
Cd323 O326 2.297 . S
Cd323 O327 2.439 . S
Cd323 O333 2.240 . S
Cd324 O325 2.240 . S
Cd324 O332 2.223 . S
Cd324 O334 2.297 . S
Cd324 O335 2.439 . S
O325 Cd324 2.240 . S
O325 C330 1.279 . S
O326 Cd323 2.297 . S
O326 C328 1.247 . S
O327 Cd323 2.439 . S
O327 C328 1.208 . S
C328 O326 1.247 . S
C328 O327 1.208 . S
C329 O334 1.247 . S
C329 O335 1.208 . S
C330 O322 1.315 . S
C330 O325 1.279 . S
C331 O332 1.315 . S
C331 O333 1.279 . S
O332 Cd324 2.223 . S
O332 C331 1.315 . S
O333 Cd323 2.240 . S
O333 C331 1.279 . S
O334 Cd324 2.297 . S
O334 C329 1.247 . S
O335 Cd324 2.439 . S
O335 C329 1.208 . S
O336 Cd337 2.223 . S
O336 C344 1.315 . S
Cd337 O336 2.223 . S
Cd337 O340 2.297 . S
Cd337 O341 2.439 . S
Cd337 O347 2.240 . S
Cd338 O339 2.240 . S
Cd338 O346 2.223 . S
Cd338 O348 2.297 . S
Cd338 O349 2.439 . S
O339 Cd338 2.240 . S
O339 C344 1.279 . S
O340 Cd337 2.297 . S
O340 C342 1.247 . S
O341 Cd337 2.439 . S
O341 C342 1.208 . S
C342 O340 1.247 . S
C342 O341 1.208 . S
C343 O348 1.247 . S
C343 O349 1.208 . S
C344 O336 1.315 . S
C344 O339 1.279 . S
C345 O346 1.315 . S
C345 O347 1.279 . S
O346 Cd338 2.223 . S
O346 C345 1.315 . S
O347 Cd337 2.240 . S
O347 C345 1.279 . S
O348 Cd338 2.297 . S
O348 C343 1.247 . S
O349 Cd338 2.439 . S
O349 C343 1.208 . S
O350 Cd351 2.223 . S
O350 C358 1.315 . S
Cd351 O350 2.223 . S
Cd351 O354 2.297 . S
Cd351 O355 2.439 . S
Cd351 O361 2.240 . S
Cd352 O353 2.240 . S
Cd352 O360 2.223 . S
Cd352 O362 2.297 . S
Cd352 O363 2.439 . S
O353 Cd352 2.240 . S
O353 C358 1.279 . S
O354 Cd351 2.297 . S
O354 C356 1.247 . S
O355 Cd351 2.439 . S
O355 C356 1.208 . S
C356 O354 1.247 . S
C356 O355 1.208 . S
C357 O362 1.247 . S
C357 O363 1.208 . S
C358 O350 1.315 . S
C358 O353 1.279 . S
C359 O360 1.315 . S
C359 O361 1.279 . S
O360 Cd352 2.223 . S
O360 C359 1.315 . S
O361 Cd351 2.240 . S
O361 C359 1.279 . S
O362 Cd352 2.297 . S
O362 C357 1.247 . S
O363 Cd352 2.439 . S
O363 C357 1.208 . S
O364 Cd365 2.223 . S
O364 C372 1.315 . S
Cd365 O364 2.223 . S
Cd365 O368 2.297 . S
Cd365 O369 2.439 . S
Cd365 O375 2.240 . S
Cd366 O367 2.240 . S
Cd366 O374 2.223 . S
Cd366 O376 2.297 . S
Cd366 O377 2.439 . S
O367 Cd366 2.240 . S
O367 C372 1.279 . S
O368 Cd365 2.297 . S
O368 C370 1.247 . S
O369 Cd365 2.439 . S
O369 C370 1.208 . S
C370 O368 1.247 . S
C370 O369 1.208 . S
C371 O376 1.247 . S
C371 O377 1.208 . S
C372 O364 1.315 . S
C372 O367 1.279 . S
C373 O374 1.315 . S
C373 O375 1.279 . S
O374 Cd366 2.223 . S
O374 C373 1.315 . S
O375 Cd365 2.240 . S
O375 C373 1.279 . S
O376 Cd366 2.297 . S
O376 C371 1.247 . S
O377 Cd366 2.439 . S
O377 C371 1.208 . S
O378 Cd379 2.223 . S
O378 C386 1.315 . S
Cd379 O378 2.223 . S
Cd379 O382 2.297 . S
Cd379 O383 2.439 . S
Cd379 O389 2.240 . S
Cd380 O381 2.240 . S
Cd380 O388 2.223 . S
Cd380 O390 2.297 . S
Cd380 O391 2.439 . S
O381 Cd380 2.240 . S
O381 C386 1.279 . S
O382 Cd379 2.297 . S
O382 C384 1.247 . S
O383 Cd379 2.439 . S
O383 C384 1.208 . S
C384 O382 1.247 . S
C384 O383 1.208 . S
C385 O390 1.247 . S
C385 O391 1.208 . S
C386 O378 1.315 . S
C386 O381 1.279 . S
C387 O388 1.315 . S
C387 O389 1.279 . S
O388 Cd380 2.223 . S
O388 C387 1.315 . S
O389 Cd379 2.240 . S
O389 C387 1.279 . S
O390 Cd380 2.297 . S
O390 C385 1.247 . S
O391 Cd380 2.439 . S
O391 C385 1.208 . S
O392 Cd393 2.223 . S
O392 C400 1.315 . S
Cd393 O392 2.223 . S
Cd393 O396 2.297 . S
Cd393 O397 2.439 . S
Cd393 O403 2.240 . S
Cd394 O395 2.240 . S
Cd394 O402 2.223 . S
Cd394 O404 2.297 . S
Cd394 O405 2.439 . S
O395 Cd394 2.240 . S
O395 C400 1.279 . S
O396 Cd393 2.297 . S
O396 C398 1.247 . S
O397 Cd393 2.439 . S
O397 C398 1.208 . S
C398 O396 1.247 . S
C398 O397 1.208 . S
C399 O404 1.247 . S
C399 O405 1.208 . S
C400 O392 1.315 . S
C400 O395 1.279 . S
C401 O402 1.315 . S
C401 O403 1.279 . S
O402 Cd394 2.223 . S
O402 C401 1.315 . S
O403 Cd393 2.240 . S
O403 C401 1.279 . S
O404 Cd394 2.297 . S
O404 C399 1.247 . S
O405 Cd394 2.439 . S
O405 C399 1.208 . S
O406 Cd407 2.223 . S
O406 C414 1.315 . S
Cd407 O406 2.223 . S
Cd407 O410 2.297 . S
Cd407 O411 2.439 . S
Cd407 O417 2.240 . S
Cd408 O409 2.240 . S
Cd408 O416 2.223 . S
Cd408 O418 2.297 . S
Cd408 O419 2.439 . S
O409 Cd408 2.240 . S
O409 C414 1.279 . S
O410 Cd407 2.297 . S
O410 C412 1.247 . S
O411 Cd407 2.439 . S
O411 C412 1.208 . S
C412 O410 1.247 . S
C412 O411 1.208 . S
C413 O418 1.247 . S
C413 O419 1.208 . S
C414 O406 1.315 . S
C414 O409 1.279 . S
C415 O416 1.315 . S
C415 O417 1.279 . S
O416 Cd408 2.223 . S
O416 C415 1.315 . S
O417 Cd407 2.240 . S
O417 C415 1.279 . S
O418 Cd408 2.297 . S
O418 C413 1.247 . S
O419 Cd408 2.439 . S
O419 C413 1.208 . S
O420 Cd421 2.223 . S
O420 C428 1.315 . S
Cd421 O420 2.223 . S
Cd421 O424 2.297 . S
Cd421 O425 2.439 . S
Cd421 O431 2.240 . S
Cd422 O423 2.240 . S
Cd422 O430 2.223 . S
Cd422 O432 2.297 . S
Cd422 O433 2.439 . S
O423 Cd422 2.240 . S
O423 C428 1.279 . S
O424 Cd421 2.297 . S
O424 C426 1.247 . S
O425 Cd421 2.439 . S
O425 C426 1.208 . S
C426 O424 1.247 . S
C426 O425 1.208 . S
C427 O432 1.247 . S
C427 O433 1.208 . S
C428 O420 1.315 . S
C428 O423 1.279 . S
C429 O430 1.315 . S
C429 O431 1.279 . S
O430 Cd422 2.223 . S
O430 C429 1.315 . S
O431 Cd421 2.240 . S
O431 C429 1.279 . S
O432 Cd422 2.297 . S
O432 C427 1.247 . S
O433 Cd422 2.439 . S
O433 C427 1.208 . S
O434 Cd435 2.223 . S
O434 C442 1.315 . S
Cd435 O434 2.223 . S
Cd435 O438 2.297 . S
Cd435 O439 2.439 . S
Cd435 O445 2.240 . S
Cd436 O437 2.240 . S
Cd436 O444 2.223 . S
Cd436 O446 2.297 . S
Cd436 O447 2.439 . S
O437 Cd436 2.240 . S
O437 C442 1.279 . S
O438 Cd435 2.297 . S
O438 C440 1.247 . S
O439 Cd435 2.439 . S
O439 C440 1.208 . S
C440 O438 1.247 . S
C440 O439 1.208 . S
C441 O446 1.247 . S
C441 O447 1.208 . S
C442 O434 1.315 . S
C442 O437 1.279 . S
C443 O444 1.315 . S
C443 O445 1.279 . S
O444 Cd436 2.223 . S
O444 C443 1.315 . S
O445 Cd435 2.240 . S
O445 C443 1.279 . S
O446 Cd436 2.297 . S
O446 C441 1.247 . S
O447 Cd436 2.439 . S
O447 C441 1.208 . S
O448 Cd449 2.223 . S
O448 C456 1.315 . S
Cd449 O448 2.223 . S
Cd449 O452 2.297 . S
Cd449 O453 2.439 . S
Cd449 O459 2.240 . S
Cd450 O451 2.240 . S
Cd450 O458 2.223 . S
Cd450 O460 2.297 . S
Cd450 O461 2.439 . S
O451 Cd450 2.240 . S
O451 C456 1.279 . S
O452 Cd449 2.297 . S
O452 C454 1.247 . S
O453 Cd449 2.439 . S
O453 C454 1.208 . S
C454 O452 1.247 . S
C454 O453 1.208 . S
C455 O460 1.247 . S
C455 O461 1.208 . S
C456 O448 1.315 . S
C456 O451 1.279 . S
C457 O458 1.315 . S
C457 O459 1.279 . S
O458 Cd450 2.223 . S
O458 C457 1.315 . S
O459 Cd449 2.240 . S
O459 C457 1.279 . S
O460 Cd450 2.297 . S
O460 C455 1.247 . S
O461 Cd450 2.439 . S
O461 C455 1.208 . S
O462 Cd463 2.223 . S
O462 C470 1.315 . S
Cd463 O462 2.223 . S
Cd463 O466 2.297 . S
Cd463 O467 2.439 . S
Cd463 O473 2.240 . S
Cd464 O465 2.240 . S
Cd464 O472 2.223 . S
Cd464 O474 2.297 . S
Cd464 O475 2.439 . S
O465 Cd464 2.240 . S
O465 C470 1.279 . S
O466 Cd463 2.297 . S
O466 C468 1.247 . S
O467 Cd463 2.439 . S
O467 C468 1.208 . S
C468 O466 1.247 . S
C468 O467 1.208 . S
C469 O474 1.247 . S
C469 O475 1.208 . S
C470 O462 1.315 . S
C470 O465 1.279 . S
C471 O472 1.315 . S
C471 O473 1.279 . S
O472 Cd464 2.223 . S
O472 C471 1.315 . S
O473 Cd463 2.240 . S
O473 C471 1.279 . S
O474 Cd464 2.297 . S
O474 C469 1.247 . S
O475 Cd464 2.439 . S
O475 C469 1.208 . S
O476 Cd477 2.223 . S
O476 C484 1.315 . S
Cd477 O476 2.223 . S
Cd477 O480 2.297 . S
Cd477 O481 2.439 . S
Cd477 O487 2.240 . S
Cd478 O479 2.240 . S
Cd478 O486 2.223 . S
Cd478 O488 2.297 . S
Cd478 O489 2.439 . S
O479 Cd478 2.240 . S
O479 C484 1.279 . S
O480 Cd477 2.297 . S
O480 C482 1.247 . S
O481 Cd477 2.439 . S
O481 C482 1.208 . S
C482 O480 1.247 . S
C482 O481 1.208 . S
C483 O488 1.247 . S
C483 O489 1.208 . S
C484 O476 1.315 . S
C484 O479 1.279 . S
C485 O486 1.315 . S
C485 O487 1.279 . S
O486 Cd478 2.223 . S
O486 C485 1.315 . S
O487 Cd477 2.240 . S
O487 C485 1.279 . S
O488 Cd478 2.297 . S
O488 C483 1.247 . S
O489 Cd478 2.439 . S
O489 C483 1.208 . S
O490 Cd491 2.223 . S
O490 C498 1.315 . S
Cd491 O490 2.223 . S
Cd491 O494 2.297 . S
Cd491 O495 2.439 . S
Cd491 O501 2.240 . S
Cd492 O493 2.240 . S
Cd492 O500 2.223 . S
Cd492 O502 2.297 . S
Cd492 O503 2.439 . S
O493 Cd492 2.240 . S
O493 C498 1.279 . S
O494 Cd491 2.297 . S
O494 C496 1.247 . S
O495 Cd491 2.439 . S
O495 C496 1.208 . S
C496 O494 1.247 . S
C496 O495 1.208 . S
C497 O502 1.247 . S
C497 O503 1.208 . S
C498 O490 1.315 . S
C498 O493 1.279 . S
C499 O500 1.315 . S
C499 O501 1.279 . S
O500 Cd492 2.223 . S
O500 C499 1.315 . S
O501 Cd491 2.240 . S
O501 C499 1.279 . S
O502 Cd492 2.297 . S
O502 C497 1.247 . S
O503 Cd492 2.439 . S
O503 C497 1.208 . S
H504 C510 0.930 . S
H505 C514 0.930 . S
H506 C519 0.929 . S
H507 C517 0.929 . S
H508 C512 0.929 . S
H509 C518 0.929 . S
C510 H504 0.930 . S
C510 C511 1.367 . S
C510 C518 1.378 . S
C511 C510 1.367 . S
C511 C519 1.433 . S
C512 H508 0.929 . S
C512 C514 1.378 . S
C512 C516 1.350 . S
C513 C516 1.463 . S
C513 C518 1.350 . S
C513 N521 1.427 . S
C514 H505 0.930 . S
C514 C512 1.378 . S
C514 C515 1.367 . S
C515 C514 1.367 . S
C515 C517 1.433 . S
C516 C512 1.350 . S
C516 C513 1.463 . S
C516 N520 1.427 . S
C517 H507 0.929 . S
C517 C515 1.433 . S
C517 N520 1.384 . S
C518 H509 0.929 . S
C518 C510 1.378 . S
C518 C513 1.350 . S
C519 H506 0.929 . S
C519 C511 1.433 . S
C519 N521 1.384 . S
N520 C516 1.427 . S
N520 C517 1.384 . S
N521 C513 1.427 . S
N521 C519 1.384 . S
H522 C528 0.930 . S
H523 C532 0.930 1_554 S
H524 C537 0.929 . S
H525 C535 0.929 . S
H526 C530 0.929 . S
H527 C536 0.929 . S
C528 H522 0.930 . S
C528 C529 1.367 . S
C528 C536 1.378 . S
C529 C528 1.367 . S
C529 C537 1.433 . S
C530 H526 0.929 . S
C530 C532 1.378 . S
C530 C534 1.350 . S
C531 C534 1.463 . S
C531 C536 1.350 . S
C531 N539 1.427 . S
C532 H523 0.930 1_556 S
C532 C530 1.378 . S
C532 C533 1.367 . S
C533 C532 1.367 . S
C533 C535 1.433 . S
C534 C530 1.350 . S
C534 C531 1.463 . S
C534 N538 1.427 . S
C535 H525 0.929 . S
C535 C533 1.433 . S
C535 N538 1.384 . S
C536 H527 0.929 . S
C536 C528 1.378 . S
C536 C531 1.350 . S
C537 H524 0.929 . S
C537 C529 1.433 . S
C537 N539 1.384 . S
N538 C534 1.427 . S
N538 C535 1.384 . S
N539 C531 1.427 . S
N539 C537 1.384 . S
H540 C546 0.930 . S
H541 C550 0.930 . S
H542 C555 0.929 . S
H543 C553 0.929 . S
H544 C548 0.929 . S
H545 C554 0.929 . S
C546 H540 0.930 . S
C546 C547 1.367 . S
C546 C554 1.378 . S
C547 C546 1.367 . S
C547 C555 1.433 . S
C548 H544 0.929 . S
C548 C550 1.378 . S
C548 C552 1.350 . S
C549 C552 1.463 . S
C549 C554 1.350 . S
C549 N557 1.427 . S
C550 H541 0.930 . S
C550 C548 1.378 . S
C550 C551 1.367 . S
C551 C550 1.367 . S
C551 C553 1.433 . S
C552 C548 1.350 . S
C552 C549 1.463 . S
C552 N556 1.427 . S
C553 H543 0.929 . S
C553 C551 1.433 . S
C553 N556 1.384 . S
C554 H545 0.929 . S
C554 C546 1.378 . S
C554 C549 1.350 . S
C555 H542 0.929 . S
C555 C547 1.433 . S
C555 N557 1.384 . S
N556 C552 1.427 . S
N556 C553 1.384 . S
N557 C549 1.427 . S
N557 C555 1.384 . S
H558 C564 0.930 . S
H559 C568 0.930 . S
H560 C573 0.929 . S
H561 C571 0.929 . S
H562 C566 0.929 . S
H563 C572 0.929 . S
C564 H558 0.930 . S
C564 C565 1.367 . S
C564 C572 1.378 . S
C565 C564 1.367 . S
C565 C573 1.433 . S
C566 H562 0.929 . S
C566 C568 1.378 . S
C566 C570 1.350 . S
C567 C570 1.463 . S
C567 C572 1.350 . S
C567 N575 1.427 . S
C568 H559 0.930 . S
C568 C566 1.378 . S
C568 C569 1.367 . S
C569 C568 1.367 . S
C569 C571 1.433 . S
C570 C566 1.350 . S
C570 C567 1.463 . S
C570 N574 1.427 . S
C571 H561 0.929 . S
C571 C569 1.433 . S
C571 N574 1.384 . S
C572 H563 0.929 . S
C572 C564 1.378 . S
C572 C567 1.350 . S
C573 H560 0.929 . S
C573 C565 1.433 . S
C573 N575 1.384 . S
N574 C570 1.427 . S
N574 C571 1.384 . S
N575 C567 1.427 . S
N575 C573 1.384 . S
H576 C582 0.930 . S
H577 C586 0.930 . S
H578 C591 0.929 . S
H579 C589 0.929 . S
H580 C584 0.929 . S
H581 C590 0.929 . S
C582 H576 0.930 . S
C582 C583 1.367 . S
C582 C590 1.378 . S
C583 C582 1.367 . S
C583 C591 1.433 . S
C584 H580 0.929 . S
C584 C586 1.378 . S
C584 C588 1.350 . S
C585 C588 1.463 . S
C585 C590 1.350 . S
C585 N593 1.427 . S
C586 H577 0.930 . S
C586 C584 1.378 . S
C586 C587 1.367 . S
C587 C586 1.367 . S
C587 C589 1.433 . S
C588 C584 1.350 . S
C588 C585 1.463 . S
C588 N592 1.427 . S
C589 H579 0.929 . S
C589 C587 1.433 . S
C589 N592 1.384 . S
C590 H581 0.929 . S
C590 C582 1.378 . S
C590 C585 1.350 . S
C591 H578 0.929 . S
C591 C583 1.433 . S
C591 N593 1.384 . S
N592 C588 1.427 . S
N592 C589 1.384 . S
N593 C585 1.427 . S
N593 C591 1.384 . S
H594 C600 0.930 . S
H595 C604 0.930 . S
H596 C609 0.929 . S
H597 C607 0.929 . S
H598 C602 0.929 . S
H599 C608 0.929 . S
C600 H594 0.930 . S
C600 C601 1.367 . S
C600 C608 1.378 . S
C601 C600 1.367 . S
C601 C609 1.433 . S
C602 H598 0.929 . S
C602 C604 1.378 . S
C602 C606 1.350 . S
C603 C606 1.463 . S
C603 C608 1.350 . S
C603 N611 1.427 . S
C604 H595 0.930 . S
C604 C602 1.378 . S
C604 C605 1.367 . S
C605 C604 1.367 . S
C605 C607 1.433 . S
C606 C602 1.350 . S
C606 C603 1.463 . S
C606 N610 1.427 . S
C607 H597 0.929 . S
C607 C605 1.433 . S
C607 N610 1.384 . S
C608 H599 0.929 . S
C608 C600 1.378 . S
C608 C603 1.350 . S
C609 H596 0.929 . S
C609 C601 1.433 . S
C609 N611 1.384 . S
N610 C606 1.427 . S
N610 C607 1.384 . S
N611 C603 1.427 . S
N611 C609 1.384 . S
H612 C618 0.930 . S
H613 C622 0.930 . S
H614 C627 0.929 . S
H615 C625 0.929 1_556 S
H616 C620 0.929 . S
H617 C626 0.929 . S
C618 H612 0.930 . S
C618 C619 1.367 . S
C618 C626 1.378 . S
C619 C618 1.367 . S
C619 C627 1.433 . S
C620 H616 0.929 . S
C620 C622 1.378 . S
C620 C624 1.350 . S
C621 C624 1.463 . S
C621 C626 1.350 . S
C621 N629 1.427 . S
C622 H613 0.930 . S
C622 C620 1.378 . S
C622 C623 1.367 . S
C623 C622 1.367 . S
C623 C625 1.433 . S
C624 C620 1.350 . S
C624 C621 1.463 . S
C624 N628 1.427 . S
C625 H615 0.929 1_554 S
C625 C623 1.433 . S
C625 N628 1.384 . S
C626 H617 0.929 . S
C626 C618 1.378 . S
C626 C621 1.350 . S
C627 H614 0.929 . S
C627 C619 1.433 . S
C627 N629 1.384 . S
N628 C624 1.427 . S
N628 C625 1.384 . S
N629 C621 1.427 . S
N629 C627 1.384 . S
H630 C636 0.930 . S
H631 C640 0.930 . S
H632 C645 0.929 . S
H633 C643 0.929 . S
H634 C638 0.929 . S
H635 C644 0.929 . S
C636 H630 0.930 . S
C636 C637 1.367 . S
C636 C644 1.378 . S
C637 C636 1.367 . S
C637 C645 1.433 . S
C638 H634 0.929 . S
C638 C640 1.378 . S
C638 C642 1.350 . S
C639 C642 1.463 . S
C639 C644 1.350 . S
C639 N647 1.427 . S
C640 H631 0.930 . S
C640 C638 1.378 . S
C640 C641 1.367 . S
C641 C640 1.367 . S
C641 C643 1.433 . S
C642 C638 1.350 . S
C642 C639 1.463 . S
C642 N646 1.427 . S
C643 H633 0.929 . S
C643 C641 1.433 . S
C643 N646 1.384 . S
C644 H635 0.929 . S
C644 C636 1.378 . S
C644 C639 1.350 . S
C645 H632 0.929 . S
C645 C637 1.433 . S
C645 N647 1.384 . S
N646 C642 1.427 . S
N646 C643 1.384 . S
N647 C639 1.427 . S
N647 C645 1.384 . S
H648 C654 0.930 . S
H649 C658 0.930 . S
H650 C663 0.929 . S
H651 C661 0.929 1_556 S
H652 C656 0.929 . S
H653 C662 0.929 . S
C654 H648 0.930 . S
C654 C655 1.367 . S
C654 C662 1.378 . S
C655 C654 1.367 . S
C655 C663 1.433 . S
C656 H652 0.929 . S
C656 C658 1.378 . S
C656 C660 1.350 . S
C657 C660 1.463 . S
C657 C662 1.350 . S
C657 N665 1.427 . S
C658 H649 0.930 . S
C658 C656 1.378 . S
C658 C659 1.367 . S
C659 C658 1.367 . S
C659 C661 1.433 . S
C660 C656 1.350 . S
C660 C657 1.463 . S
C660 N664 1.427 . S
C661 H651 0.929 1_554 S
C661 C659 1.433 . S
C661 N664 1.384 . S
C662 H653 0.929 . S
C662 C654 1.378 . S
C662 C657 1.350 . S
C663 H650 0.929 . S
C663 C655 1.433 . S
C663 N665 1.384 . S
N664 C660 1.427 . S
N664 C661 1.384 . S
N665 C657 1.427 . S
N665 C663 1.384 . S
H666 C672 0.930 . S
H667 C676 0.930 . S
H668 C681 0.929 . S
H669 C679 0.929 . S
H670 C674 0.929 . S
H671 C680 0.929 . S
C672 H666 0.930 . S
C672 C673 1.367 . S
C672 C680 1.378 . S
C673 C672 1.367 . S
C673 C681 1.433 . S
C674 H670 0.929 . S
C674 C676 1.378 . S
C674 C678 1.350 . S
C675 C678 1.463 . S
C675 C680 1.350 . S
C675 N683 1.427 . S
C676 H667 0.930 . S
C676 C674 1.378 . S
C676 C677 1.367 . S
C677 C676 1.367 . S
C677 C679 1.433 . S
C678 C674 1.350 . S
C678 C675 1.463 . S
C678 N682 1.427 . S
C679 H669 0.929 . S
C679 C677 1.433 . S
C679 N682 1.384 . S
C680 H671 0.929 . S
C680 C672 1.378 . S
C680 C675 1.350 . S
C681 H668 0.929 . S
C681 C673 1.433 . S
C681 N683 1.384 . S
N682 C678 1.427 . S
N682 C679 1.384 . S
N683 C675 1.427 . S
N683 C681 1.384 . S
H684 C690 0.930 . S
H685 C694 0.930 . S
H686 C699 0.929 . S
H687 C697 0.929 . S
H688 C692 0.929 . S
H689 C698 0.929 . S
C690 H684 0.930 . S
C690 C691 1.367 . S
C690 C698 1.378 . S
C691 C690 1.367 . S
C691 C699 1.433 . S
C692 H688 0.929 . S
C692 C694 1.378 . S
C692 C696 1.350 . S
C693 C696 1.463 . S
C693 C698 1.350 . S
C693 N701 1.427 . S
C694 H685 0.930 . S
C694 C692 1.378 . S
C694 C695 1.367 . S
C695 C694 1.367 . S
C695 C697 1.433 . S
C696 C692 1.350 . S
C696 C693 1.463 . S
C696 N700 1.427 . S
C697 H687 0.929 . S
C697 C695 1.433 . S
C697 N700 1.384 . S
C698 H689 0.929 . S
C698 C690 1.378 . S
C698 C693 1.350 . S
C699 H686 0.929 . S
C699 C691 1.433 . S
C699 N701 1.384 . S
N700 C696 1.427 . S
N700 C697 1.384 . S
N701 C693 1.427 . S
N701 C699 1.384 . S
H702 C708 0.930 . S
H703 C712 0.930 . S
H704 C717 0.929 . S
H705 C715 0.929 . S
H706 C710 0.929 . S
H707 C716 0.929 . S
C708 H702 0.930 . S
C708 C709 1.367 . S
C708 C716 1.378 . S
C709 C708 1.367 . S
C709 C717 1.433 . S
C710 H706 0.929 . S
C710 C712 1.378 . S
C710 C714 1.350 . S
C711 C714 1.463 . S
C711 C716 1.350 . S
C711 N719 1.427 . S
C712 H703 0.930 . S
C712 C710 1.378 . S
C712 C713 1.367 . S
C713 C712 1.367 . S
C713 C715 1.433 . S
C714 C710 1.350 . S
C714 C711 1.463 . S
C714 N718 1.427 . S
C715 H705 0.929 . S
C715 C713 1.433 . S
C715 N718 1.384 . S
C716 H707 0.929 . S
C716 C708 1.378 . S
C716 C711 1.350 . S
C717 H704 0.929 . S
C717 C709 1.433 . S
C717 N719 1.384 . S
N718 C714 1.427 . S
N718 C715 1.384 . S
N719 C711 1.427 . S
N719 C717 1.384 . S
H720 C726 0.930 . S
H721 C730 0.930 . S
H722 C735 0.929 . S
H723 C733 0.929 . S
H724 C728 0.910 1_455 S
H725 C734 0.910 1_655 S
C726 H720 0.930 . S
C726 C727 1.367 . S
C726 C734 1.378 . S
C727 C726 1.367 . S
C727 C735 1.433 . S
C728 H724 0.910 1_655 S
C728 C730 1.378 . S
C728 C732 1.350 . S
C729 C732 1.463 1_455 S
C729 C734 1.350 . S
C729 N737 1.427 . S
C730 H721 0.930 . S
C730 C728 1.378 . S
C730 C731 1.367 . S
C731 C730 1.367 . S
C731 C733 1.433 . S
C732 C728 1.350 . S
C732 C729 1.463 1_655 S
C732 N736 1.427 . S
C733 H723 0.929 . S
C733 C731 1.433 . S
C733 N736 1.384 . S
C734 H725 0.910 1_455 S
C734 C726 1.378 . S
C734 C729 1.350 . S
C735 H722 0.929 . S
C735 C727 1.433 . S
C735 N737 1.384 . S
N736 C732 1.427 . S
N736 C733 1.384 . S
N737 C729 1.427 . S
N737 C735 1.384 . S
H738 C744 0.930 . S
H739 C748 0.930 . S
H740 C753 0.929 . S
H741 C751 0.929 . S
H742 C746 0.929 . S
H743 C752 0.929 . S
C744 H738 0.930 . S
C744 C745 1.367 . S
C744 C752 1.378 . S
C745 C744 1.367 . S
C745 C753 1.433 . S
C746 H742 0.929 . S
C746 C748 1.378 . S
C746 C750 1.350 . S
C747 C750 1.463 . S
C747 C752 1.350 . S
C747 N755 1.427 . S
C748 H739 0.930 . S
C748 C746 1.378 . S
C748 C749 1.367 . S
C749 C748 1.367 . S
C749 C751 1.433 . S
C750 C746 1.350 . S
C750 C747 1.463 . S
C750 N754 1.427 . S
C751 H741 0.929 . S
C751 C749 1.433 . S
C751 N754 1.384 . S
C752 H743 0.929 . S
C752 C744 1.378 . S
C752 C747 1.350 . S
C753 H740 0.929 . S
C753 C745 1.433 . S
C753 N755 1.384 . S
N754 C750 1.427 . S
N754 C751 1.384 . S
N755 C747 1.427 . S
N755 C753 1.384 . S
H756 C762 0.930 . S
H757 C766 0.930 . S
H758 C771 0.929 . S
H759 C769 0.929 . S
H760 C764 0.929 . S
H761 C770 0.929 . S
C762 H756 0.930 . S
C762 C763 1.367 . S
C762 C770 1.378 . S
C763 C762 1.367 . S
C763 C771 1.433 . S
C764 H760 0.929 . S
C764 C766 1.378 . S
C764 C768 1.350 . S
C765 C768 1.463 1_565 S
C765 C770 1.350 . S
C765 N773 1.427 . S
C766 H757 0.930 . S
C766 C764 1.378 . S
C766 C767 1.367 . S
C767 C766 1.367 . S
C767 C769 1.433 . S
C768 C764 1.350 . S
C768 C765 1.463 1_545 S
C768 N772 1.427 . S
C769 H759 0.929 . S
C769 C767 1.433 . S
C769 N772 1.384 . S
C770 H761 0.929 . S
C770 C762 1.378 . S
C770 C765 1.350 . S
C771 H758 0.929 . S
C771 C763 1.433 . S
C771 N773 1.384 . S
N772 C768 1.427 . S
N772 C769 1.384 . S
N773 C765 1.427 . S
N773 C771 1.384 . S
H774 C780 0.930 . S
H775 C784 0.930 . S
H776 C789 0.929 . S
H777 C787 0.929 . S
H778 C782 0.929 . S
H779 C788 0.929 . S
C780 H774 0.930 . S
C780 C781 1.367 . S
C780 C788 1.378 . S
C781 C780 1.367 . S
C781 C789 1.433 . S
C782 H778 0.929 . S
C782 C784 1.378 . S
C782 C786 1.350 . S
C783 C786 1.463 1_565 S
C783 C788 1.350 . S
C783 N791 1.427 . S
C784 H775 0.930 . S
C784 C782 1.378 . S
C784 C785 1.367 . S
C785 C784 1.367 . S
C785 C787 1.433 . S
C786 C782 1.350 . S
C786 C783 1.463 1_545 S
C786 N790 1.427 . S
C787 H777 0.929 . S
C787 C785 1.433 . S
C787 N790 1.384 . S
C788 H779 0.929 . S
C788 C780 1.378 . S
C788 C783 1.350 . S
C789 H776 0.929 . S
C789 C781 1.433 . S
C789 N791 1.384 . S
N790 C786 1.427 . S
N790 C787 1.384 . S
N791 C783 1.427 . S
N791 C789 1.384 . S
H792 C798 0.930 . S
H793 C802 0.930 . S
H794 C807 0.929 . S
H795 C805 0.929 . S
H796 C800 0.926 1_455 S
H797 C806 0.926 1_655 S
C798 H792 0.930 . S
C798 C799 1.367 . S
C798 C806 1.378 . S
C799 C798 1.367 . S
C799 C807 1.433 . S
C800 H796 0.926 1_655 S
C800 C802 1.378 . S
C800 C804 1.350 . S
C801 C804 1.463 1_455 S
C801 C806 1.350 . S
C801 N809 1.427 . S
C802 H793 0.930 . S
C802 C800 1.378 . S
C802 C803 1.367 . S
C803 C802 1.367 . S
C803 C805 1.433 . S
C804 C800 1.350 . S
C804 C801 1.463 1_655 S
C804 N808 1.427 . S
C805 H795 0.929 . S
C805 C803 1.433 . S
C805 N808 1.384 . S
C806 H797 0.926 1_455 S
C806 C798 1.378 . S
C806 C801 1.350 . S
C807 H794 0.929 . S
C807 C799 1.433 . S
C807 N809 1.384 . S
N808 C804 1.427 . S
N808 C805 1.384 . S
N809 C801 1.427 . S
N809 C807 1.384 . S
H810 C816 0.930 . S
H811 C820 0.930 . S
H812 C825 0.929 . S
H813 C823 0.929 . S
H814 C818 0.929 . S
H815 C824 0.929 . S
C816 H810 0.930 . S
C816 C817 1.367 . S
C816 C824 1.378 . S
C817 C816 1.367 . S
C817 C825 1.433 . S
C818 H814 0.929 . S
C818 C820 1.378 . S
C818 C822 1.350 . S
C819 C822 1.463 . S
C819 C824 1.350 . S
C819 N827 1.427 . S
C820 H811 0.930 . S
C820 C818 1.378 . S
C820 C821 1.367 . S
C821 C820 1.367 . S
C821 C823 1.433 . S
C822 C818 1.350 . S
C822 C819 1.463 . S
C822 N826 1.427 . S
C823 H813 0.929 . S
C823 C821 1.433 . S
C823 N826 1.384 . S
C824 H815 0.929 . S
C824 C816 1.378 . S
C824 C819 1.350 . S
C825 H812 0.929 . S
C825 C817 1.433 . S
C825 N827 1.384 . S
N826 C822 1.427 . S
N826 C823 1.384 . S
N827 C819 1.427 . S
N827 C825 1.384 . S
H828 C834 0.930 . S
H829 C838 0.930 . S
H830 C843 0.929 . S
H831 C841 0.929 1_556 S
H832 C836 0.929 . S
H833 C842 0.929 . S
C834 H828 0.930 . S
C834 C835 1.367 . S
C834 C842 1.378 . S
C835 C834 1.367 . S
C835 C843 1.433 1_556 S
C836 H832 0.929 . S
C836 C838 1.378 . S
C836 C840 1.350 . S
C837 C840 1.463 . S
C837 C842 1.350 1_554 S
C837 N845 1.427 . S
C838 H829 0.930 . S
C838 C836 1.378 . S
C838 C839 1.367 . S
C839 C838 1.367 . S
C839 C841 1.433 . S
C840 C836 1.350 . S
C840 C837 1.463 . S
C840 N844 1.427 1_554 S
C841 H831 0.929 1_554 S
C841 C839 1.433 . S
C841 N844 1.384 1_554 S
C842 H833 0.929 . S
C842 C834 1.378 . S
C842 C837 1.350 1_556 S
C843 H830 0.929 . S
C843 C835 1.433 1_554 S
C843 N845 1.384 . S
N844 C840 1.427 1_556 S
N844 C841 1.384 1_556 S
N845 C837 1.427 . S
N845 C843 1.384 . S
H846 C852 0.930 . S
H847 C856 0.930 . S
H848 C861 0.929 . S
H849 C859 0.929 . S
H850 C854 0.929 . S
H851 C860 0.929 . S
C852 H846 0.930 . S
C852 C853 1.367 . S
C852 C860 1.378 . S
C853 C852 1.367 . S
C853 C861 1.433 1_556 S
C854 H850 0.929 . S
C854 C856 1.378 . S
C854 C858 1.350 . S
C855 C858 1.463 . S
C855 C860 1.350 1_554 S
C855 N863 1.427 . S
C856 H847 0.930 . S
C856 C854 1.378 . S
C856 C857 1.367 . S
C857 C856 1.367 . S
C857 C859 1.433 1_554 S
C858 C854 1.350 . S
C858 C855 1.463 . S
C858 N862 1.427 1_554 S
C859 H849 0.929 . S
C859 C857 1.433 1_556 S
C859 N862 1.384 . S
C860 H851 0.929 . S
C860 C852 1.378 . S
C860 C855 1.350 1_556 S
C861 H848 0.929 . S
C861 C853 1.433 1_554 S
C861 N863 1.384 . S
N862 C858 1.427 1_556 S
N862 C859 1.384 . S
N863 C855 1.427 . S
N863 C861 1.384 . S
H864 C870 0.930 . S
H865 C874 0.930 . S
H866 C879 0.929 . S
H867 C877 0.929 . S
H868 C872 0.929 . S
H869 C878 0.929 . S
C870 H864 0.930 . S
C870 C871 1.367 . S
C870 C878 1.378 . S
C871 C870 1.367 . S
C871 C879 1.433 . S
C872 H868 0.929 . S
C872 C874 1.378 . S
C872 C876 1.350 . S
C873 C876 1.463 . S
C873 C878 1.350 1_554 S
C873 N881 1.427 . S
C874 H865 0.930 . S
C874 C872 1.378 . S
C874 C875 1.367 . S
C875 C874 1.367 . S
C875 C877 1.433 . S
C876 C872 1.350 . S
C876 C873 1.463 . S
C876 N880 1.427 . S
C877 H867 0.929 . S
C877 C875 1.433 . S
C877 N880 1.384 . S
C878 H869 0.929 . S
C878 C870 1.378 . S
C878 C873 1.350 1_556 S
C879 H866 0.929 . S
C879 C871 1.433 . S
C879 N881 1.384 1_556 S
N880 C876 1.427 . S
N880 C877 1.384 . S
N881 C873 1.427 . S
N881 C879 1.384 1_554 S
H882 C888 0.930 . S
H883 C892 0.930 . S
H884 C897 0.929 . S
H885 C895 0.929 . S
H886 C890 0.929 . S
H887 C896 0.929 . S
C888 H882 0.930 . S
C888 C889 1.367 . S
C888 C896 1.378 . S
C889 C888 1.367 . S
C889 C897 1.433 . S
C890 H886 0.929 . S
C890 C892 1.378 . S
C890 C894 1.350 . S
C891 C894 1.463 . S
C891 C896 1.350 . S
C891 N899 1.427 . S
C892 H883 0.930 . S
C892 C890 1.378 . S
C892 C893 1.367 . S
C893 C892 1.367 . S
C893 C895 1.433 . S
C894 C890 1.350 . S
C894 C891 1.463 . S
C894 N898 1.427 . S
C895 H885 0.929 . S
C895 C893 1.433 . S
C895 N898 1.384 . S
C896 H887 0.929 . S
C896 C888 1.378 . S
C896 C891 1.350 . S
C897 H884 0.929 . S
C897 C889 1.433 . S
C897 N899 1.384 . S
N898 C894 1.427 . S
N898 C895 1.384 . S
N899 C891 1.427 . S
N899 C897 1.384 . S
H900 C906 0.930 . S
H901 C910 0.930 . S
H902 C915 0.929 . S
H903 C913 0.929 . S
H904 C908 0.929 . S
H905 C914 0.929 . S
C906 H900 0.930 . S
C906 C907 1.367 . S
C906 C914 1.378 . S
C907 C906 1.367 . S
C907 C915 1.433 . S
C908 H904 0.929 . S
C908 C910 1.378 . S
C908 C912 1.350 . S
C909 C912 1.463 . S
C909 C914 1.350 . S
C909 N917 1.427 . S
C910 H901 0.930 . S
C910 C908 1.378 . S
C910 C911 1.367 . S
C911 C910 1.367 . S
C911 C913 1.433 . S
C912 C908 1.350 . S
C912 C909 1.463 . S
C912 N916 1.427 . S
C913 H903 0.929 . S
C913 C911 1.433 . S
C913 N916 1.384 . S
C914 H905 0.929 . S
C914 C906 1.378 . S
C914 C909 1.350 . S
C915 H902 0.929 . S
C915 C907 1.433 . S
C915 N917 1.384 . S
N916 C912 1.427 . S
N916 C913 1.384 . S
N917 C909 1.427 . S
N917 C915 1.384 . S
H918 C924 0.930 . S
H919 C928 0.930 . S
H920 C933 0.929 . S
H921 C931 0.929 . S
H922 C926 0.929 . S
H923 C932 0.929 . S
C924 H918 0.930 . S
C924 C925 1.367 . S
C924 C932 1.378 . S
C925 C924 1.367 . S
C925 C933 1.433 . S
C926 H922 0.929 . S
C926 C928 1.378 . S
C926 C930 1.350 . S
C927 C930 1.463 . S
C927 C932 1.350 . S
C927 N935 1.427 . S
C928 H919 0.930 . S
C928 C926 1.378 . S
C928 C929 1.367 . S
C929 C928 1.367 . S
C929 C931 1.433 . S
C930 C926 1.350 . S
C930 C927 1.463 . S
C930 N934 1.427 . S
C931 H921 0.929 . S
C931 C929 1.433 . S
C931 N934 1.384 . S
C932 H923 0.929 . S
C932 C924 1.378 . S
C932 C927 1.350 . S
C933 H920 0.929 . S
C933 C925 1.433 . S
C933 N935 1.384 . S
N934 C930 1.427 . S
N934 C931 1.384 . S
N935 C927 1.427 . S
N935 C933 1.384 . S
H936 C942 0.930 . S
H937 C946 0.930 . S
H938 C951 0.929 . S
H939 C949 0.929 . S
H940 C944 0.929 . S
H941 C950 0.929 . S
C942 H936 0.930 . S
C942 C943 1.367 . S
C942 C950 1.378 . S
C943 C942 1.367 . S
C943 C951 1.433 1_554 S
C944 H940 0.929 . S
C944 C946 1.378 . S
C944 C948 1.350 . S
C945 C948 1.463 . S
C945 C950 1.350 1_556 S
C945 N953 1.427 . S
C946 H937 0.930 . S
C946 C944 1.378 . S
C946 C947 1.367 . S
C947 C946 1.367 . S
C947 C949 1.433 . S
C948 C944 1.350 . S
C948 C945 1.463 . S
C948 N952 1.427 . S
C949 H939 0.929 . S
C949 C947 1.433 . S
C949 N952 1.384 . S
C950 H941 0.929 . S
C950 C942 1.378 . S
C950 C945 1.350 1_554 S
C951 H938 0.929 . S
C951 C943 1.433 1_556 S
C951 N953 1.384 . S
N952 C948 1.427 . S
N952 C949 1.384 . S
N953 C945 1.427 . S
N953 C951 1.384 . S
H954 C960 0.930 . S
H955 C964 0.930 . S
H956 C969 0.929 . S
H957 C967 0.929 . S
H958 C962 0.929 . S
H959 C968 0.929 . S
C960 H954 0.930 . S
C960 C961 1.367 1_554 S
C960 C968 1.378 . S
C961 C960 1.367 1_556 S
C961 C969 1.433 . S
C962 H958 0.929 . S
C962 C964 1.378 . S
C962 C966 1.350 . S
C963 C966 1.463 . S
C963 C968 1.350 1_556 S
C963 N971 1.427 . S
C964 H955 0.930 . S
C964 C962 1.378 . S
C964 C965 1.367 1_556 S
C965 C964 1.367 1_554 S
C965 C967 1.433 . S
C966 C962 1.350 . S
C966 C963 1.463 . S
C966 N970 1.427 1_556 S
C967 H957 0.929 . S
C967 C965 1.433 . S
C967 N970 1.384 . S
C968 H959 0.929 . S
C968 C960 1.378 . S
C968 C963 1.350 1_554 S
C969 H956 0.929 . S
C969 C961 1.433 . S
C969 N971 1.384 . S
N970 C966 1.427 1_554 S
N970 C967 1.384 . S
N971 C963 1.427 . S
N971 C969 1.384 . S
H972 C978 0.930 . S
H973 C982 0.930 . S
H974 C987 0.929 . S
H975 C985 0.929 . S
H976 C980 0.929 . S
H977 C986 0.929 . S
C978 H972 0.930 . S
C978 C979 1.367 1_556 S
C978 C986 1.378 . S
C979 C978 1.367 1_554 S
C979 C987 1.433 . S
C980 H976 0.929 . S
C980 C982 1.378 . S
C980 C984 1.350 1_554 S
C981 C984 1.463 . S
C981 C986 1.350 . S
C981 N989 1.427 1_556 S
C982 H973 0.930 . S
C982 C980 1.378 . S
C982 C983 1.367 1_554 S
C983 C982 1.367 1_556 S
C983 C985 1.433 . S
C984 C980 1.350 1_556 S
C984 C981 1.463 . S
C984 N988 1.427 . S
C985 H975 0.929 . S
C985 C983 1.433 . S
C985 N988 1.384 . S
C986 H977 0.929 . S
C986 C978 1.378 . S
C986 C981 1.350 . S
C987 H974 0.929 . S
C987 C979 1.433 . S
C987 N989 1.384 . S
N988 C984 1.427 . S
N988 C985 1.384 . S
N989 C981 1.427 1_554 S
N989 C987 1.384 . S
H990 C996 0.930 . S
H991 C1000 0.930 . S
H992 C1005 0.929 . S
H993 C1003 0.929 . S
H994 C998 0.929 . S
H995 C1004 0.929 . S
C996 H990 0.930 . S
C996 C997 1.367 . S
C996 C1004 1.378 . S
C997 C996 1.367 . S
C997 C1005 1.433 . S
C998 H994 0.929 . S
C998 C1000 1.378 . S
C998 C1002 1.350 . S
C999 C1002 1.463 . S
C999 C1004 1.350 . S
C999 N1007 1.427 . S
C1000 H991 0.930 . S
C1000 C998 1.378 . S
C1000 C1001 1.367 . S
C1001 C1000 1.367 . S
C1001 C1003 1.433 . S
C1002 C998 1.350 . S
C1002 C999 1.463 . S
C1002 N1006 1.427 . S
C1003 H993 0.929 . S
C1003 C1001 1.433 . S
C1003 N1006 1.384 . S
C1004 H995 0.929 . S
C1004 C996 1.378 . S
C1004 C999 1.350 . S
C1005 H992 0.929 . S
C1005 C997 1.433 . S
C1005 N1007 1.384 . S
N1006 C1002 1.427 . S
N1006 C1003 1.384 . S
N1007 C999 1.427 . S
N1007 C1005 1.384 . S
H1008 C1014 0.930 . S
H1009 C1018 0.930 . S
H1010 C1023 0.929 . S
H1011 C1021 0.929 . S
H1012 C1016 0.929 . S
H1013 C1022 0.929 . S
C1014 H1008 0.930 . S
C1014 C1015 1.367 . S
C1014 C1022 1.378 . S
C1015 C1014 1.367 . S
C1015 C1023 1.433 . S
C1016 H1012 0.929 . S
C1016 C1018 1.378 . S
C1016 C1020 1.350 . S
C1017 C1020 1.463 . S
C1017 C1022 1.350 . S
C1017 N1025 1.427 . S
C1018 H1009 0.930 . S
C1018 C1016 1.378 . S
C1018 C1019 1.367 . S
C1019 C1018 1.367 . S
C1019 C1021 1.433 . S
C1020 C1016 1.350 . S
C1020 C1017 1.463 . S
C1020 N1024 1.427 . S
C1021 H1011 0.929 . S
C1021 C1019 1.433 . S
C1021 N1024 1.384 . S
C1022 H1013 0.929 . S
C1022 C1014 1.378 . S
C1022 C1017 1.350 . S
C1023 H1010 0.929 . S
C1023 C1015 1.433 . S
C1023 N1025 1.384 . S
N1024 C1020 1.427 . S
N1024 C1021 1.384 . S
N1025 C1017 1.427 . S
N1025 C1023 1.384 . S
H1026 C1032 0.930 . S
H1027 C1036 0.930 . S
H1028 C1041 0.929 . S
H1029 C1039 0.929 . S
H1030 C1034 0.929 . S
H1031 C1040 0.929 . S
C1032 H1026 0.930 . S
C1032 C1033 1.367 . S
C1032 C1040 1.378 . S
C1033 C1032 1.367 . S
C1033 C1041 1.433 . S
C1034 H1030 0.929 . S
C1034 C1036 1.378 . S
C1034 C1038 1.350 . S
C1035 C1038 1.463 . S
C1035 C1040 1.350 . S
C1035 N1043 1.427 . S
C1036 H1027 0.930 . S
C1036 C1034 1.378 . S
C1036 C1037 1.367 . S
C1037 C1036 1.367 . S
C1037 C1039 1.433 . S
C1038 C1034 1.350 . S
C1038 C1035 1.463 . S
C1038 N1042 1.427 . S
C1039 H1029 0.929 . S
C1039 C1037 1.433 . S
C1039 N1042 1.384 . S
C1040 H1031 0.929 . S
C1040 C1032 1.378 . S
C1040 C1035 1.350 . S
C1041 H1028 0.929 . S
C1041 C1033 1.433 . S
C1041 N1043 1.384 . S
N1042 C1038 1.427 . S
N1042 C1039 1.384 . S
N1043 C1035 1.427 . S
N1043 C1041 1.384 . S
H1044 C1050 0.930 . S
H1045 C1054 0.930 . S
H1046 C1059 0.929 . S
H1047 C1057 0.929 . S
H1048 C1052 0.929 . S
H1049 C1058 0.929 . S
C1050 H1044 0.930 . S
C1050 C1051 1.367 . S
C1050 C1058 1.378 . S
C1051 C1050 1.367 . S
C1051 C1059 1.433 . S
C1052 H1048 0.929 . S
C1052 C1054 1.378 . S
C1052 C1056 1.350 . S
C1053 C1056 1.463 . S
C1053 C1058 1.350 . S
C1053 N1061 1.427 . S
C1054 H1045 0.930 . S
C1054 C1052 1.378 . S
C1054 C1055 1.367 . S
C1055 C1054 1.367 . S
C1055 C1057 1.433 . S
C1056 C1052 1.350 . S
C1056 C1053 1.463 . S
C1056 N1060 1.427 . S
C1057 H1047 0.929 . S
C1057 C1055 1.433 . S
C1057 N1060 1.384 . S
C1058 H1049 0.929 . S
C1058 C1050 1.378 . S
C1058 C1053 1.350 . S
C1059 H1046 0.929 . S
C1059 C1051 1.433 . S
C1059 N1061 1.384 . S
N1060 C1056 1.427 . S
N1060 C1057 1.384 . S
N1061 C1053 1.427 . S
N1061 C1059 1.384 . S
H1062 C1068 0.930 . S
H1063 C1072 0.930 . S
H1064 C1077 0.929 . S
H1065 C1075 0.929 . S
H1066 C1070 0.929 . S
H1067 C1076 0.929 . S
C1068 H1062 0.930 . S
C1068 C1069 1.367 . S
C1068 C1076 1.378 . S
C1069 C1068 1.367 . S
C1069 C1077 1.433 . S
C1070 H1066 0.929 . S
C1070 C1072 1.378 . S
C1070 C1074 1.350 . S
C1071 C1074 1.463 . S
C1071 C1076 1.350 . S
C1071 N1079 1.427 . S
C1072 H1063 0.930 . S
C1072 C1070 1.378 . S
C1072 C1073 1.367 . S
C1073 C1072 1.367 . S
C1073 C1075 1.433 . S
C1074 C1070 1.350 . S
C1074 C1071 1.463 . S
C1074 N1078 1.427 . S
C1075 H1065 0.929 . S
C1075 C1073 1.433 . S
C1075 N1078 1.384 . S
C1076 H1067 0.929 . S
C1076 C1068 1.378 . S
C1076 C1071 1.350 . S
C1077 H1064 0.929 . S
C1077 C1069 1.433 . S
C1077 N1079 1.384 . S
N1078 C1074 1.427 . S
N1078 C1075 1.384 . S
N1079 C1071 1.427 . S
N1079 C1077 1.384 . S
H1080 C1086 0.930 . S
H1081 C1090 0.930 . S
H1082 C1095 0.929 . S
H1083 C1093 0.929 . S
H1084 C1088 0.929 . S
H1085 C1094 0.929 . S
C1086 H1080 0.930 . S
C1086 C1087 1.367 . S
C1086 C1094 1.378 . S
C1087 C1086 1.367 . S
C1087 C1095 1.433 . S
C1088 H1084 0.929 . S
C1088 C1090 1.378 . S
C1088 C1092 1.350 . S
C1089 C1092 1.463 . S
C1089 C1094 1.350 . S
C1089 N1097 1.427 . S
C1090 H1081 0.930 . S
C1090 C1088 1.378 . S
C1090 C1091 1.367 . S
C1091 C1090 1.367 . S
C1091 C1093 1.433 . S
C1092 C1088 1.350 . S
C1092 C1089 1.463 . S
C1092 N1096 1.427 . S
C1093 H1083 0.929 . S
C1093 C1091 1.433 . S
C1093 N1096 1.384 . S
C1094 H1085 0.929 . S
C1094 C1086 1.378 . S
C1094 C1089 1.350 . S
C1095 H1082 0.929 . S
C1095 C1087 1.433 . S
C1095 N1097 1.384 . S
N1096 C1092 1.427 . S
N1096 C1093 1.384 . S
N1097 C1089 1.427 . S
N1097 C1095 1.384 . S
H1098 C1104 0.930 . S
H1099 C1108 0.930 . S
H1100 C1113 0.929 . S
H1101 C1111 0.929 . S
H1102 C1106 0.929 . S
H1103 C1112 0.929 . S
C1104 H1098 0.930 . S
C1104 C1105 1.367 . S
C1104 C1112 1.378 . S
C1105 C1104 1.367 . S
C1105 C1113 1.433 . S
C1106 H1102 0.929 . S
C1106 C1108 1.378 . S
C1106 C1110 1.350 . S
C1107 C1110 1.463 . S
C1107 C1112 1.350 . S
C1107 N1115 1.427 . S
C1108 H1099 0.930 . S
C1108 C1106 1.378 . S
C1108 C1109 1.367 . S
C1109 C1108 1.367 . S
C1109 C1111 1.433 . S
C1110 C1106 1.350 . S
C1110 C1107 1.463 . S
C1110 N1114 1.427 . S
C1111 H1101 0.929 . S
C1111 C1109 1.433 . S
C1111 N1114 1.384 . S
C1112 H1103 0.929 . S
C1112 C1104 1.378 . S
C1112 C1107 1.350 . S
C1113 H1100 0.929 . S
C1113 C1105 1.433 . S
C1113 N1115 1.384 . S
N1114 C1110 1.427 . S
N1114 C1111 1.384 . S
N1115 C1107 1.427 . S
N1115 C1113 1.384 . S
H1116 C1122 0.930 . S
H1117 C1126 0.930 . S
H1118 C1131 0.929 . S
H1119 C1129 0.929 . S
H1120 C1124 0.929 . S
H1121 C1130 0.929 . S
C1122 H1116 0.930 . S
C1122 C1123 1.367 . S
C1122 C1130 1.378 . S
C1123 C1122 1.367 . S
C1123 C1131 1.433 . S
C1124 H1120 0.929 . S
C1124 C1126 1.378 . S
C1124 C1128 1.350 . S
C1125 C1128 1.463 . S
C1125 C1130 1.350 . S
C1125 N1133 1.427 . S
C1126 H1117 0.930 . S
C1126 C1124 1.378 . S
C1126 C1127 1.367 . S
C1127 C1126 1.367 . S
C1127 C1129 1.433 . S
C1128 C1124 1.350 . S
C1128 C1125 1.463 . S
C1128 N1132 1.427 . S
C1129 H1119 0.929 . S
C1129 C1127 1.433 . S
C1129 N1132 1.384 . S
C1130 H1121 0.929 . S
C1130 C1122 1.378 . S
C1130 C1125 1.350 . S
C1131 H1118 0.929 . S
C1131 C1123 1.433 . S
C1131 N1133 1.384 . S
N1132 C1128 1.427 . S
N1132 C1129 1.384 . S
N1133 C1125 1.427 . S
N1133 C1131 1.384 . S
H1134 C1140 0.930 . S
H1135 C1144 0.930 . S
H1136 C1149 0.929 . S
H1137 C1147 0.929 . S
H1138 C1142 0.929 . S
H1139 C1148 0.929 . S
C1140 H1134 0.930 . S
C1140 C1141 1.367 . S
C1140 C1148 1.378 . S
C1141 C1140 1.367 . S
C1141 C1149 1.433 . S
C1142 H1138 0.929 . S
C1142 C1144 1.378 . S
C1142 C1146 1.350 . S
C1143 C1146 1.463 . S
C1143 C1148 1.350 . S
C1143 N1151 1.427 . S
C1144 H1135 0.930 . S
C1144 C1142 1.378 . S
C1144 C1145 1.367 . S
C1145 C1144 1.367 . S
C1145 C1147 1.433 . S
C1146 C1142 1.350 . S
C1146 C1143 1.463 . S
C1146 N1150 1.427 . S
C1147 H1137 0.929 . S
C1147 C1145 1.433 . S
C1147 N1150 1.384 . S
C1148 H1139 0.929 . S
C1148 C1140 1.378 . S
C1148 C1143 1.350 . S
C1149 H1136 0.929 . S
C1149 C1141 1.433 . S
C1149 N1151 1.384 . S
N1150 C1146 1.427 . S
N1150 C1147 1.384 . S
N1151 C1143 1.427 . S
N1151 C1149 1.384 . S
H1152 C1158 0.930 . S
H1153 C1162 0.930 . S
H1154 C1167 0.929 . S
H1155 C1165 0.929 . S
H1156 C1160 0.929 . S
H1157 C1166 0.929 . S
C1158 H1152 0.930 . S
C1158 C1159 1.367 . S
C1158 C1166 1.378 . S
C1159 C1158 1.367 . S
C1159 C1167 1.433 . S
C1160 H1156 0.929 . S
C1160 C1162 1.378 . S
C1160 C1164 1.350 . S
C1161 C1164 1.463 . S
C1161 C1166 1.350 . S
C1161 N1169 1.427 . S
C1162 H1153 0.930 . S
C1162 C1160 1.378 . S
C1162 C1163 1.367 . S
C1163 C1162 1.367 . S
C1163 C1165 1.433 . S
C1164 C1160 1.350 . S
C1164 C1161 1.463 . S
C1164 N1168 1.427 . S
C1165 H1155 0.929 . S
C1165 C1163 1.433 . S
C1165 N1168 1.384 . S
C1166 H1157 0.929 . S
C1166 C1158 1.378 . S
C1166 C1161 1.350 . S
C1167 H1154 0.929 . S
C1167 C1159 1.433 . S
C1167 N1169 1.384 . S
N1168 C1164 1.427 . S
N1168 C1165 1.384 . S
N1169 C1161 1.427 . S
N1169 C1167 1.384 . S
H1170 C1176 0.930 . S
H1171 C1180 0.930 . S
H1172 C1185 0.929 . S
H1173 C1183 0.929 . S
H1174 C1178 0.929 . S
H1175 C1184 0.929 . S
C1176 H1170 0.930 . S
C1176 C1177 1.367 . S
C1176 C1184 1.378 . S
C1177 C1176 1.367 . S
C1177 C1185 1.433 . S
C1178 H1174 0.929 . S
C1178 C1180 1.378 . S
C1178 C1182 1.350 . S
C1179 C1182 1.463 . S
C1179 C1184 1.350 . S
C1179 N1187 1.427 . S
C1180 H1171 0.930 . S
C1180 C1178 1.378 . S
C1180 C1181 1.367 . S
C1181 C1180 1.367 . S
C1181 C1183 1.433 . S
C1182 C1178 1.350 . S
C1182 C1179 1.463 . S
C1182 N1186 1.427 . S
C1183 H1173 0.929 . S
C1183 C1181 1.433 . S
C1183 N1186 1.384 . S
C1184 H1175 0.929 . S
C1184 C1176 1.378 . S
C1184 C1179 1.350 . S
C1185 H1172 0.929 . S
C1185 C1177 1.433 . S
C1185 N1187 1.384 . S
N1186 C1182 1.427 . S
N1186 C1183 1.384 . S
N1187 C1179 1.427 . S
N1187 C1185 1.384 . S
H1188 C1194 0.930 . S
H1189 C1198 0.930 . S
H1190 C1203 0.929 . S
H1191 C1201 0.929 . S
H1192 C1196 0.929 . S
H1193 C1202 0.929 . S
C1194 H1188 0.930 . S
C1194 C1195 1.367 . S
C1194 C1202 1.378 . S
C1195 C1194 1.367 . S
C1195 C1203 1.433 . S
C1196 H1192 0.929 . S
C1196 C1198 1.378 . S
C1196 C1200 1.350 . S
C1197 C1200 1.463 . S
C1197 C1202 1.350 . S
C1197 N1205 1.427 . S
C1198 H1189 0.930 . S
C1198 C1196 1.378 . S
C1198 C1199 1.367 . S
C1199 C1198 1.367 . S
C1199 C1201 1.433 . S
C1200 C1196 1.350 . S
C1200 C1197 1.463 . S
C1200 N1204 1.427 . S
C1201 H1191 0.929 . S
C1201 C1199 1.433 . S
C1201 N1204 1.384 . S
C1202 H1193 0.929 . S
C1202 C1194 1.378 . S
C1202 C1197 1.350 . S
C1203 H1190 0.929 . S
C1203 C1195 1.433 . S
C1203 N1205 1.384 . S
N1204 C1200 1.427 . S
N1204 C1201 1.384 . S
N1205 C1197 1.427 . S
N1205 C1203 1.384 . S
H1206 C1212 0.930 . S
H1207 C1216 0.930 . S
H1208 C1221 0.929 . S
H1209 C1219 0.929 . S
H1210 C1214 0.929 . S
H1211 C1220 0.929 . S
C1212 H1206 0.930 . S
C1212 C1213 1.367 . S
C1212 C1220 1.378 . S
C1213 C1212 1.367 . S
C1213 C1221 1.433 . S
C1214 H1210 0.929 . S
C1214 C1216 1.378 . S
C1214 C1218 1.350 . S
C1215 C1218 1.463 . S
C1215 C1220 1.350 . S
C1215 N1223 1.427 . S
C1216 H1207 0.930 . S
C1216 C1214 1.378 . S
C1216 C1217 1.367 . S
C1217 C1216 1.367 . S
C1217 C1219 1.433 . S
C1218 C1214 1.350 . S
C1218 C1215 1.463 . S
C1218 N1222 1.427 . S
C1219 H1209 0.929 . S
C1219 C1217 1.433 . S
C1219 N1222 1.384 . S
C1220 H1211 0.929 . S
C1220 C1212 1.378 . S
C1220 C1215 1.350 . S
C1221 H1208 0.929 . S
C1221 C1213 1.433 . S
C1221 N1223 1.384 . S
N1222 C1218 1.427 . S
N1222 C1219 1.384 . S
N1223 C1215 1.427 . S
N1223 C1221 1.384 . S
H1224 C1230 0.930 . S
H1225 C1234 0.930 . S
H1226 C1239 0.929 . S
H1227 C1237 0.929 . S
H1228 C1232 0.929 . S
H1229 C1238 0.929 . S
C1230 H1224 0.930 . S
C1230 C1231 1.367 . S
C1230 C1238 1.378 . S
C1231 C1230 1.367 . S
C1231 C1239 1.433 . S
C1232 H1228 0.929 . S
C1232 C1234 1.378 . S
C1232 C1236 1.350 . S
C1233 C1236 1.463 . S
C1233 C1238 1.350 . S
C1233 N1241 1.427 . S
C1234 H1225 0.930 . S
C1234 C1232 1.378 . S
C1234 C1235 1.367 . S
C1235 C1234 1.367 . S
C1235 C1237 1.433 . S
C1236 C1232 1.350 . S
C1236 C1233 1.463 . S
C1236 N1240 1.427 . S
C1237 H1227 0.929 . S
C1237 C1235 1.433 . S
C1237 N1240 1.384 . S
C1238 H1229 0.929 . S
C1238 C1230 1.378 . S
C1238 C1233 1.350 . S
C1239 H1226 0.929 . S
C1239 C1231 1.433 . S
C1239 N1241 1.384 . S
N1240 C1236 1.427 . S
N1240 C1237 1.384 . S
N1241 C1233 1.427 . S
N1241 C1239 1.384 . S
H1242 C1248 0.930 . S
H1243 C1252 0.930 . S
H1244 C1257 0.929 . S
H1245 C1255 0.929 . S
H1246 C1250 0.929 . S
H1247 C1256 0.929 . S
C1248 H1242 0.930 . S
C1248 C1249 1.367 . S
C1248 C1256 1.378 . S
C1249 C1248 1.367 . S
C1249 C1257 1.433 . S
C1250 H1246 0.929 . S
C1250 C1252 1.378 . S
C1250 C1254 1.350 . S
C1251 C1254 1.463 . S
C1251 C1256 1.350 . S
C1251 N1259 1.427 . S
C1252 H1243 0.930 . S
C1252 C1250 1.378 . S
C1252 C1253 1.367 . S
C1253 C1252 1.367 . S
C1253 C1255 1.433 . S
C1254 C1250 1.350 . S
C1254 C1251 1.463 . S
C1254 N1258 1.427 . S
C1255 H1245 0.929 . S
C1255 C1253 1.433 . S
C1255 N1258 1.384 . S
C1256 H1247 0.929 . S
C1256 C1248 1.378 . S
C1256 C1251 1.350 . S
C1257 H1244 0.929 . S
C1257 C1249 1.433 . S
C1257 N1259 1.384 . S
N1258 C1254 1.427 . S
N1258 C1255 1.384 . S
N1259 C1251 1.427 . S
N1259 C1257 1.384 . S
H1260 C1266 0.930 . S
H1261 C1270 0.930 . S
H1262 C1275 0.929 . S
H1263 C1273 0.929 . S
H1264 C1268 0.929 . S
H1265 C1274 0.929 . S
C1266 H1260 0.930 . S
C1266 C1267 1.367 . S
C1266 C1274 1.378 . S
C1267 C1266 1.367 . S
C1267 C1275 1.433 . S
C1268 H1264 0.929 . S
C1268 C1270 1.378 . S
C1268 C1272 1.350 . S
C1269 C1272 1.463 . S
C1269 C1274 1.350 . S
C1269 N1277 1.427 . S
C1270 H1261 0.930 . S
C1270 C1268 1.378 . S
C1270 C1271 1.367 . S
C1271 C1270 1.367 . S
C1271 C1273 1.433 . S
C1272 C1268 1.350 . S
C1272 C1269 1.463 . S
C1272 N1276 1.427 . S
C1273 H1263 0.929 . S
C1273 C1271 1.433 . S
C1273 N1276 1.384 . S
C1274 H1265 0.929 . S
C1274 C1266 1.378 . S
C1274 C1269 1.350 . S
C1275 H1262 0.929 . S
C1275 C1267 1.433 . S
C1275 N1277 1.384 . S
N1276 C1272 1.427 . S
N1276 C1273 1.384 . S
N1277 C1269 1.427 . S
N1277 C1275 1.384 . S
H1278 C1284 0.930 . S
H1279 C1288 0.930 . S
H1280 C1293 0.929 . S
H1281 C1291 0.929 . S
H1282 C1286 0.929 . S
H1283 C1292 0.929 . S
C1284 H1278 0.930 . S
C1284 C1285 1.367 . S
C1284 C1292 1.378 . S
C1285 C1284 1.367 . S
C1285 C1293 1.433 . S
C1286 H1282 0.929 . S
C1286 C1288 1.378 . S
C1286 C1290 1.350 . S
C1287 C1290 1.463 . S
C1287 C1292 1.350 . S
C1287 N1295 1.427 . S
C1288 H1279 0.930 . S
C1288 C1286 1.378 . S
C1288 C1289 1.367 . S
C1289 C1288 1.367 . S
C1289 C1291 1.433 . S
C1290 C1286 1.350 . S
C1290 C1287 1.463 . S
C1290 N1294 1.427 . S
C1291 H1281 0.929 . S
C1291 C1289 1.433 . S
C1291 N1294 1.384 . S
C1292 H1283 0.929 . S
C1292 C1284 1.378 . S
C1292 C1287 1.350 . S
C1293 H1280 0.929 . S
C1293 C1285 1.433 . S
C1293 N1295 1.384 . S
N1294 C1290 1.427 . S
N1294 C1291 1.384 . S
N1295 C1287 1.427 . S
N1295 C1293 1.384 . S
H1296 C1302 0.930 . S
H1297 C1306 0.930 . S
H1298 C1311 0.929 . S
H1299 C1309 0.929 . S
H1300 C1304 0.929 . S
H1301 C1310 0.929 . S
C1302 H1296 0.930 . S
C1302 C1303 1.367 . S
C1302 C1310 1.378 . S
C1303 C1302 1.367 . S
C1303 C1311 1.433 . S
C1304 H1300 0.929 . S
C1304 C1306 1.378 . S
C1304 C1308 1.350 . S
C1305 C1308 1.463 . S
C1305 C1310 1.350 . S
C1305 N1313 1.427 . S
C1306 H1297 0.930 . S
C1306 C1304 1.378 . S
C1306 C1307 1.367 . S
C1307 C1306 1.367 . S
C1307 C1309 1.433 . S
C1308 C1304 1.350 . S
C1308 C1305 1.463 . S
C1308 N1312 1.427 . S
C1309 H1299 0.929 . S
C1309 C1307 1.433 . S
C1309 N1312 1.384 . S
C1310 H1301 0.929 . S
C1310 C1302 1.378 . S
C1310 C1305 1.350 . S
C1311 H1298 0.929 . S
C1311 C1303 1.433 . S
C1311 N1313 1.384 . S
N1312 C1308 1.427 . S
N1312 C1309 1.384 . S
N1313 C1305 1.427 . S
N1313 C1311 1.384 . S
H1314 C1320 0.930 . S
H1315 C1324 0.930 . S
H1316 C1329 0.929 . S
H1317 C1327 0.929 . S
H1318 C1322 0.929 . S
H1319 C1328 0.929 . S
C1320 H1314 0.930 . S
C1320 C1321 1.367 . S
C1320 C1328 1.378 . S
C1321 C1320 1.367 . S
C1321 C1329 1.433 . S
C1322 H1318 0.929 . S
C1322 C1324 1.378 . S
C1322 C1326 1.350 . S
C1323 C1326 1.463 . S
C1323 C1328 1.350 . S
C1323 N1331 1.427 . S
C1324 H1315 0.930 . S
C1324 C1322 1.378 . S
C1324 C1325 1.367 . S
C1325 C1324 1.367 . S
C1325 C1327 1.433 . S
C1326 C1322 1.350 . S
C1326 C1323 1.463 . S
C1326 N1330 1.427 . S
C1327 H1317 0.929 . S
C1327 C1325 1.433 . S
C1327 N1330 1.384 . S
C1328 H1319 0.929 . S
C1328 C1320 1.378 . S
C1328 C1323 1.350 . S
C1329 H1316 0.929 . S
C1329 C1321 1.433 . S
C1329 N1331 1.384 . S
N1330 C1326 1.427 . S
N1330 C1327 1.384 . S
N1331 C1323 1.427 . S
N1331 C1329 1.384 . S
H1332 C1338 0.930 . S
H1333 C1342 0.930 . S
H1334 C1347 0.929 . S
H1335 C1345 0.929 . S
H1336 C1340 0.929 . S
H1337 C1346 0.929 . S
C1338 H1332 0.930 . S
C1338 C1339 1.367 . S
C1338 C1346 1.378 . S
C1339 C1338 1.367 . S
C1339 C1347 1.433 . S
C1340 H1336 0.929 . S
C1340 C1342 1.378 . S
C1340 C1344 1.350 . S
C1341 C1344 1.463 . S
C1341 C1346 1.350 . S
C1341 N1349 1.427 . S
C1342 H1333 0.930 . S
C1342 C1340 1.378 . S
C1342 C1343 1.367 . S
C1343 C1342 1.367 . S
C1343 C1345 1.433 . S
C1344 C1340 1.350 . S
C1344 C1341 1.463 . S
C1344 N1348 1.427 . S
C1345 H1335 0.929 . S
C1345 C1343 1.433 . S
C1345 N1348 1.384 . S
C1346 H1337 0.929 . S
C1346 C1338 1.378 . S
C1346 C1341 1.350 . S
C1347 H1334 0.929 . S
C1347 C1339 1.433 . S
C1347 N1349 1.384 . S
N1348 C1344 1.427 . S
N1348 C1345 1.384 . S
N1349 C1341 1.427 . S
N1349 C1347 1.384 . S
H1350 C1356 0.930 . S
H1351 C1360 0.930 . S
H1352 C1365 0.929 . S
H1353 C1363 0.929 . S
H1354 C1358 0.929 . S
H1355 C1364 0.929 . S
C1356 H1350 0.930 . S
C1356 C1357 1.367 . S
C1356 C1364 1.378 . S
C1357 C1356 1.367 . S
C1357 C1365 1.433 . S
C1358 H1354 0.929 . S
C1358 C1360 1.378 . S
C1358 C1362 1.350 . S
C1359 C1362 1.463 . S
C1359 C1364 1.350 . S
C1359 N1367 1.427 . S
C1360 H1351 0.930 . S
C1360 C1358 1.378 . S
C1360 C1361 1.367 . S
C1361 C1360 1.367 . S
C1361 C1363 1.433 . S
C1362 C1358 1.350 . S
C1362 C1359 1.463 . S
C1362 N1366 1.427 . S
C1363 H1353 0.929 . S
C1363 C1361 1.433 . S
C1363 N1366 1.384 . S
C1364 H1355 0.929 . S
C1364 C1356 1.378 . S
C1364 C1359 1.350 . S
C1365 H1352 0.929 . S
C1365 C1357 1.433 . S
C1365 N1367 1.384 . S
N1366 C1362 1.427 . S
N1366 C1363 1.384 . S
N1367 C1359 1.427 . S
N1367 C1365 1.384 . S
H1368 C1374 0.930 . S
H1369 C1378 0.930 . S
H1370 C1383 0.929 . S
H1371 C1381 0.929 . S
H1372 C1376 0.929 . S
H1373 C1382 0.929 . S
C1374 H1368 0.930 . S
C1374 C1375 1.367 . S
C1374 C1382 1.378 . S
C1375 C1374 1.367 . S
C1375 C1383 1.433 . S
C1376 H1372 0.929 . S
C1376 C1378 1.378 . S
C1376 C1380 1.350 . S
C1377 C1380 1.463 . S
C1377 C1382 1.350 . S
C1377 N1385 1.427 . S
C1378 H1369 0.930 . S
C1378 C1376 1.378 . S
C1378 C1379 1.367 . S
C1379 C1378 1.367 . S
C1379 C1381 1.433 . S
C1380 C1376 1.350 . S
C1380 C1377 1.463 . S
C1380 N1384 1.427 . S
C1381 H1371 0.929 . S
C1381 C1379 1.433 . S
C1381 N1384 1.384 . S
C1382 H1373 0.929 . S
C1382 C1374 1.378 . S
C1382 C1377 1.350 . S
C1383 H1370 0.929 . S
C1383 C1375 1.433 . S
C1383 N1385 1.384 . S
N1384 C1380 1.427 . S
N1384 C1381 1.384 . S
N1385 C1377 1.427 . S
N1385 C1383 1.384 . S
H1386 C1392 0.930 . S
H1387 C1396 0.930 . S
H1388 C1401 0.929 . S
H1389 C1399 0.929 . S
H1390 C1394 0.929 . S
H1391 C1400 0.929 . S
C1392 H1386 0.930 . S
C1392 C1393 1.367 . S
C1392 C1400 1.378 . S
C1393 C1392 1.367 . S
C1393 C1401 1.433 . S
C1394 H1390 0.929 . S
C1394 C1396 1.378 . S
C1394 C1398 1.350 . S
C1395 C1398 1.463 . S
C1395 C1400 1.350 . S
C1395 N1403 1.427 . S
C1396 H1387 0.930 . S
C1396 C1394 1.378 . S
C1396 C1397 1.367 . S
C1397 C1396 1.367 . S
C1397 C1399 1.433 . S
C1398 C1394 1.350 . S
C1398 C1395 1.463 . S
C1398 N1402 1.427 . S
C1399 H1389 0.929 . S
C1399 C1397 1.433 . S
C1399 N1402 1.384 . S
C1400 H1391 0.929 . S
C1400 C1392 1.378 . S
C1400 C1395 1.350 . S
C1401 H1388 0.929 . S
C1401 C1393 1.433 . S
C1401 N1403 1.384 . S
N1402 C1398 1.427 . S
N1402 C1399 1.384 . S
N1403 C1395 1.427 . S
N1403 C1401 1.384 . S
H1404 C1410 0.930 . S
H1405 C1414 0.930 . S
H1406 C1419 0.929 . S
H1407 C1417 0.929 . S
H1408 C1412 0.929 . S
H1409 C1418 0.929 . S
C1410 H1404 0.930 . S
C1410 C1411 1.367 . S
C1410 C1418 1.378 . S
C1411 C1410 1.367 . S
C1411 C1419 1.433 . S
C1412 H1408 0.929 . S
C1412 C1414 1.378 . S
C1412 C1416 1.350 . S
C1413 C1416 1.463 . S
C1413 C1418 1.350 . S
C1413 N1421 1.427 . S
C1414 H1405 0.930 . S
C1414 C1412 1.378 . S
C1414 C1415 1.367 . S
C1415 C1414 1.367 . S
C1415 C1417 1.433 . S
C1416 C1412 1.350 . S
C1416 C1413 1.463 . S
C1416 N1420 1.427 . S
C1417 H1407 0.929 . S
C1417 C1415 1.433 . S
C1417 N1420 1.384 . S
C1418 H1409 0.929 . S
C1418 C1410 1.378 . S
C1418 C1413 1.350 . S
C1419 H1406 0.929 . S
C1419 C1411 1.433 . S
C1419 N1421 1.384 . S
N1420 C1416 1.427 . S
N1420 C1417 1.384 . S
N1421 C1413 1.427 . S
N1421 C1419 1.384 . S
H1422 C1428 0.930 . S
H1423 C1432 0.930 . S
H1424 C1437 0.929 . S
H1425 C1435 0.929 . S
H1426 C1430 0.929 . S
H1427 C1436 0.929 . S
C1428 H1422 0.930 . S
C1428 C1429 1.367 . S
C1428 C1436 1.378 . S
C1429 C1428 1.367 . S
C1429 C1437 1.433 . S
C1430 H1426 0.929 . S
C1430 C1432 1.378 . S
C1430 C1434 1.350 . S
C1431 C1434 1.463 . S
C1431 C1436 1.350 . S
C1431 N1439 1.427 . S
C1432 H1423 0.930 . S
C1432 C1430 1.378 . S
C1432 C1433 1.367 . S
C1433 C1432 1.367 . S
C1433 C1435 1.433 . S
C1434 C1430 1.350 . S
C1434 C1431 1.463 . S
C1434 N1438 1.427 . S
C1435 H1425 0.929 . S
C1435 C1433 1.433 . S
C1435 N1438 1.384 . S
C1436 H1427 0.929 . S
C1436 C1428 1.378 . S
C1436 C1431 1.350 . S
C1437 H1424 0.929 . S
C1437 C1429 1.433 . S
C1437 N1439 1.384 . S
N1438 C1434 1.427 . S
N1438 C1435 1.384 . S
N1439 C1431 1.427 . S
N1439 C1437 1.384 . S
H1440 C1446 0.930 . S
H1441 C1450 0.930 . S
H1442 C1455 0.929 . S
H1443 C1453 0.929 . S
H1444 C1448 0.929 . S
H1445 C1454 0.929 . S
C1446 H1440 0.930 . S
C1446 C1447 1.367 . S
C1446 C1454 1.378 . S
C1447 C1446 1.367 . S
C1447 C1455 1.433 . S
C1448 H1444 0.929 . S
C1448 C1450 1.378 . S
C1448 C1452 1.350 . S
C1449 C1452 1.463 . S
C1449 C1454 1.350 . S
C1449 N1457 1.427 . S
C1450 H1441 0.930 . S
C1450 C1448 1.378 . S
C1450 C1451 1.367 . S
C1451 C1450 1.367 . S
C1451 C1453 1.433 . S
C1452 C1448 1.350 . S
C1452 C1449 1.463 . S
C1452 N1456 1.427 . S
C1453 H1443 0.929 . S
C1453 C1451 1.433 . S
C1453 N1456 1.384 . S
C1454 H1445 0.929 . S
C1454 C1446 1.378 . S
C1454 C1449 1.350 . S
C1455 H1442 0.929 . S
C1455 C1447 1.433 . S
C1455 N1457 1.384 . S
N1456 C1452 1.427 . S
N1456 C1453 1.384 . S
N1457 C1449 1.427 . S
N1457 C1455 1.384 . S
H1458 C1464 0.930 . S
H1459 C1468 0.930 . S
H1460 C1473 0.929 . S
H1461 C1471 0.929 . S
H1462 C1466 0.929 . S
H1463 C1472 0.929 . S
C1464 H1458 0.930 . S
C1464 C1465 1.367 . S
C1464 C1472 1.378 . S
C1465 C1464 1.367 . S
C1465 C1473 1.433 . S
C1466 H1462 0.929 . S
C1466 C1468 1.378 . S
C1466 C1470 1.350 . S
C1467 C1470 1.463 . S
C1467 C1472 1.350 . S
C1467 N1475 1.427 . S
C1468 H1459 0.930 . S
C1468 C1466 1.378 . S
C1468 C1469 1.367 . S
C1469 C1468 1.367 . S
C1469 C1471 1.433 . S
C1470 C1466 1.350 . S
C1470 C1467 1.463 . S
C1470 N1474 1.427 . S
C1471 H1461 0.929 . S
C1471 C1469 1.433 . S
C1471 N1474 1.384 . S
C1472 H1463 0.929 . S
C1472 C1464 1.378 . S
C1472 C1467 1.350 . S
C1473 H1460 0.929 . S
C1473 C1465 1.433 . S
C1473 N1475 1.384 . S
N1474 C1470 1.427 . S
N1474 C1471 1.384 . S
N1475 C1467 1.427 . S
N1475 C1473 1.384 . S
H1476 C1482 0.930 . S
H1477 C1486 0.930 . S
H1478 C1491 0.929 . S
H1479 C1489 0.929 . S
H1480 C1484 0.929 . S
H1481 C1490 0.929 . S
C1482 H1476 0.930 . S
C1482 C1483 1.367 . S
C1482 C1490 1.378 . S
C1483 C1482 1.367 . S
C1483 C1491 1.433 . S
C1484 H1480 0.929 . S
C1484 C1486 1.378 . S
C1484 C1488 1.350 . S
C1485 C1488 1.463 . S
C1485 C1490 1.350 . S
C1485 N1493 1.427 . S
C1486 H1477 0.930 . S
C1486 C1484 1.378 . S
C1486 C1487 1.367 . S
C1487 C1486 1.367 . S
C1487 C1489 1.433 . S
C1488 C1484 1.350 . S
C1488 C1485 1.463 . S
C1488 N1492 1.427 . S
C1489 H1479 0.929 . S
C1489 C1487 1.433 . S
C1489 N1492 1.384 . S
C1490 H1481 0.929 . S
C1490 C1482 1.378 . S
C1490 C1485 1.350 . S
C1491 H1478 0.929 . S
C1491 C1483 1.433 . S
C1491 N1493 1.384 . S
N1492 C1488 1.427 . S
N1492 C1489 1.384 . S
N1493 C1485 1.427 . S
N1493 C1491 1.384 . S
H1494 C1500 0.930 . S
H1495 C1504 0.930 . S
H1496 C1509 0.929 . S
H1497 C1507 0.929 . S
H1498 C1502 0.929 . S
H1499 C1508 0.929 . S
C1500 H1494 0.930 . S
C1500 C1501 1.367 1_565 S
C1500 C1508 1.378 . S
C1501 C1500 1.367 1_545 S
C1501 C1509 1.433 . S
C1502 H1498 0.929 . S
C1502 C1504 1.378 . S
C1502 C1506 1.346 1_545 S
C1503 C1506 1.462 1_545 S
C1503 C1508 1.347 1_545 S
C1503 N1511 1.431 . S
C1504 H1495 0.930 . S
C1504 C1502 1.378 . S
C1504 C1505 1.367 1_545 S
C1505 C1504 1.367 1_565 S
C1505 C1507 1.433 . S
C1506 C1502 1.346 1_565 S
C1506 C1503 1.462 1_565 S
C1506 N1510 1.431 . S
C1507 H1497 0.929 . S
C1507 C1505 1.433 . S
C1507 N1510 1.384 . S
C1508 H1499 0.929 . S
C1508 C1500 1.378 . S
C1508 C1503 1.347 1_565 S
C1509 H1496 0.929 . S
C1509 C1501 1.433 . S
C1509 N1511 1.384 . S
N1510 C1506 1.431 . S
N1510 C1507 1.384 . S
N1511 C1503 1.431 . S
N1511 C1509 1.384 . S
H1512 C1518 0.930 . S
H1513 C1522 0.930 . S
H1514 C1527 0.929 . S
H1515 C1525 0.929 . S
H1516 C1520 0.929 . S
H1517 C1526 0.929 . S
C1518 H1512 0.930 . S
C1518 C1519 1.367 1_655 S
C1518 C1526 1.378 . S
C1519 C1518 1.367 1_455 S
C1519 C1527 1.433 . S
C1520 H1516 0.929 . S
C1520 C1522 1.378 . S
C1520 C1524 1.346 1_455 S
C1521 C1524 1.461 1_455 S
C1521 C1526 1.346 1_455 S
C1521 N1529 1.432 . S
C1522 H1513 0.930 . S
C1522 C1520 1.378 . S
C1522 C1523 1.367 1_455 S
C1523 C1522 1.367 1_655 S
C1523 C1525 1.433 . S
C1524 C1520 1.346 1_655 S
C1524 C1521 1.461 1_655 S
C1524 N1528 1.433 . S
C1525 H1515 0.929 . S
C1525 C1523 1.433 . S
C1525 N1528 1.384 . S
C1526 H1517 0.929 . S
C1526 C1518 1.378 . S
C1526 C1521 1.346 1_655 S
C1527 H1514 0.929 . S
C1527 C1519 1.433 . S
C1527 N1529 1.384 . S
N1528 C1524 1.433 . S
N1528 C1525 1.384 . S
N1529 C1521 1.432 . S
N1529 C1527 1.384 . S
H1530 C1536 0.930 . S
H1531 C1540 0.930 . S
H1532 C1545 0.929 . S
H1533 C1543 0.929 . S
H1534 C1538 0.929 . S
H1535 C1544 0.929 . S
C1536 H1530 0.930 . S
C1536 C1537 1.367 . S
C1536 C1544 1.378 . S
C1537 C1536 1.367 . S
C1537 C1545 1.433 . S
C1538 H1534 0.929 . S
C1538 C1540 1.378 . S
C1538 C1542 1.350 . S
C1539 C1542 1.463 . S
C1539 C1544 1.350 . S
C1539 N1547 1.427 . S
C1540 H1531 0.930 . S
C1540 C1538 1.378 . S
C1540 C1541 1.367 . S
C1541 C1540 1.367 . S
C1541 C1543 1.433 . S
C1542 C1538 1.350 . S
C1542 C1539 1.463 . S
C1542 N1546 1.427 . S
C1543 H1533 0.929 . S
C1543 C1541 1.433 . S
C1543 N1546 1.384 . S
C1544 H1535 0.929 . S
C1544 C1536 1.378 . S
C1544 C1539 1.350 . S
C1545 H1532 0.929 . S
C1545 C1537 1.433 . S
C1545 N1547 1.384 . S
N1546 C1542 1.427 . S
N1546 C1543 1.384 . S
N1547 C1539 1.427 . S
N1547 C1545 1.384 . S
H1548 C1554 0.930 . S
H1549 C1558 0.930 . S
H1550 C1563 0.929 . S
H1551 C1561 0.929 . S
H1552 C1556 0.929 . S
H1553 C1562 0.929 . S
C1554 H1548 0.930 . S
C1554 C1555 1.367 . S
C1554 C1562 1.378 . S
C1555 C1554 1.367 . S
C1555 C1563 1.433 1_545 S
C1556 H1552 0.929 . S
C1556 C1558 1.378 . S
C1556 C1560 1.350 . S
C1557 C1560 1.463 1_545 S
C1557 C1562 1.350 . S
C1557 N1565 1.427 1_545 S
C1558 H1549 0.930 . S
C1558 C1556 1.378 . S
C1558 C1559 1.367 . S
C1559 C1558 1.367 . S
C1559 C1561 1.433 1_565 S
C1560 C1556 1.350 . S
C1560 C1557 1.463 1_565 S
C1560 N1564 1.427 1_565 S
C1561 H1551 0.929 . S
C1561 C1559 1.433 1_545 S
C1561 N1564 1.384 . S
C1562 H1553 0.929 . S
C1562 C1554 1.378 . S
C1562 C1557 1.350 . S
C1563 H1550 0.929 . S
C1563 C1555 1.433 1_565 S
C1563 N1565 1.384 . S
N1564 C1560 1.427 1_545 S
N1564 C1561 1.384 . S
N1565 C1557 1.427 1_565 S
N1565 C1563 1.384 . S
H1566 C1572 0.930 . S
H1567 C1576 0.930 . S
H1568 C1581 0.929 . S
H1569 C1579 0.929 . S
H1570 C1574 0.929 . S
H1571 C1580 0.929 . S
C1572 H1566 0.930 . S
C1572 C1573 1.367 1_455 S
C1572 C1580 1.378 . S
C1573 C1572 1.367 1_655 S
C1573 C1581 1.433 . S
C1574 H1570 0.929 . S
C1574 C1576 1.378 . S
C1574 C1578 1.327 1_655 S
C1575 C1578 1.463 1_655 S
C1575 C1580 1.327 1_655 S
C1575 N1583 1.454 . S
C1576 H1567 0.930 . S
C1576 C1574 1.378 . S
C1576 C1577 1.367 1_655 S
C1577 C1576 1.367 1_455 S
C1577 C1579 1.433 . S
C1578 C1574 1.327 1_455 S
C1578 C1575 1.463 1_455 S
C1578 N1582 1.454 . S
C1579 H1569 0.929 . S
C1579 C1577 1.433 . S
C1579 N1582 1.384 . S
C1580 H1571 0.929 . S
C1580 C1572 1.378 . S
C1580 C1575 1.327 1_455 S
C1581 H1568 0.929 . S
C1581 C1573 1.433 . S
C1581 N1583 1.384 . S
N1582 C1578 1.454 . S
N1582 C1579 1.384 . S
N1583 C1575 1.454 . S
N1583 C1581 1.384 . S
H1584 C1590 0.930 . S
H1585 C1594 0.930 . S
H1586 C1599 0.929 . S
H1587 C1597 0.929 . S
H1588 C1592 0.929 . S
H1589 C1598 0.929 . S
C1590 H1584 0.930 . S
C1590 C1591 1.367 . S
C1590 C1598 1.378 . S
C1591 C1590 1.367 . S
C1591 C1599 1.433 . S
C1592 H1588 0.929 . S
C1592 C1594 1.378 . S
C1592 C1596 1.350 . S
C1593 C1596 1.463 . S
C1593 C1598 1.350 . S
C1593 N1601 1.427 . S
C1594 H1585 0.930 . S
C1594 C1592 1.378 . S
C1594 C1595 1.367 . S
C1595 C1594 1.367 . S
C1595 C1597 1.433 . S
C1596 C1592 1.350 . S
C1596 C1593 1.463 . S
C1596 N1600 1.427 . S
C1597 H1587 0.929 . S
C1597 C1595 1.433 . S
C1597 N1600 1.384 . S
C1598 H1589 0.929 . S
C1598 C1590 1.378 . S
C1598 C1593 1.350 . S
C1599 H1586 0.929 . S
C1599 C1591 1.433 . S
C1599 N1601 1.384 . S
N1600 C1596 1.427 . S
N1600 C1597 1.384 . S
N1601 C1593 1.427 . S
N1601 C1599 1.384 . S
H1602 C1608 0.930 . S
H1603 C1612 0.930 . S
H1604 C1617 0.929 . S
H1605 C1615 0.929 . S
H1606 C1610 0.929 . S
H1607 C1616 0.929 . S
C1608 H1602 0.930 . S
C1608 C1609 1.367 . S
C1608 C1616 1.378 . S
C1609 C1608 1.367 . S
C1609 C1617 1.433 . S
C1610 H1606 0.929 . S
C1610 C1612 1.378 . S
C1610 C1614 1.350 . S
C1611 C1614 1.463 . S
C1611 C1616 1.350 . S
C1611 N1619 1.427 . S
C1612 H1603 0.930 . S
C1612 C1610 1.378 . S
C1612 C1613 1.367 . S
C1613 C1612 1.367 . S
C1613 C1615 1.433 . S
C1614 C1610 1.350 . S
C1614 C1611 1.463 . S
C1614 N1618 1.427 . S
C1615 H1605 0.929 . S
C1615 C1613 1.433 . S
C1615 N1618 1.384 . S
C1616 H1607 0.929 . S
C1616 C1608 1.378 . S
C1616 C1611 1.350 . S
C1617 H1604 0.929 . S
C1617 C1609 1.433 . S
C1617 N1619 1.384 . S
N1618 C1614 1.427 . S
N1618 C1615 1.384 . S
N1619 C1611 1.427 . S
N1619 C1617 1.384 . S
H1620 C1626 0.930 . S
H1621 C1630 0.930 . S
H1622 C1635 0.929 . S
H1623 C1633 0.929 . S
H1624 C1628 0.929 . S
H1625 C1634 0.929 . S
C1626 H1620 0.930 . S
C1626 C1627 1.367 . S
C1626 C1634 1.378 . S
C1627 C1626 1.367 . S
C1627 C1635 1.433 . S
C1628 H1624 0.929 . S
C1628 C1630 1.378 . S
C1628 C1632 1.350 . S
C1629 C1632 1.463 . S
C1629 C1634 1.350 . S
C1629 N1637 1.427 . S
C1630 H1621 0.930 . S
C1630 C1628 1.378 . S
C1630 C1631 1.367 . S
C1631 C1630 1.367 . S
C1631 C1633 1.433 . S
C1632 C1628 1.350 . S
C1632 C1629 1.463 . S
C1632 N1636 1.427 . S
C1633 H1623 0.929 . S
C1633 C1631 1.433 . S
C1633 N1636 1.384 . S
C1634 H1625 0.929 . S
C1634 C1626 1.378 . S
C1634 C1629 1.350 . S
C1635 H1622 0.929 . S
C1635 C1627 1.433 . S
C1635 N1637 1.384 . S
N1636 C1632 1.427 . S
N1636 C1633 1.384 . S
N1637 C1629 1.427 . S
N1637 C1635 1.384 . S
H1638 C1644 0.930 . S
H1639 C1648 0.930 1_556 S
H1640 C1653 0.929 . S
H1641 C1651 0.929 1_556 S
H1642 C1646 0.929 . S
H1643 C1652 0.929 . S
C1644 H1638 0.930 . S
C1644 C1645 1.367 . S
C1644 C1652 1.378 . S
C1645 C1644 1.367 . S
C1645 C1653 1.433 . S
C1646 H1642 0.929 . S
C1646 C1648 1.378 . S
C1646 C1650 1.350 . S
C1647 C1650 1.463 . S
C1647 C1652 1.350 . S
C1647 N1655 1.427 . S
C1648 H1639 0.930 1_554 S
C1648 C1646 1.378 . S
C1648 C1649 1.367 1_554 S
C1649 C1648 1.367 1_556 S
C1649 C1651 1.433 1_556 S
C1650 C1646 1.350 . S
C1650 C1647 1.463 . S
C1650 N1654 1.427 . S
C1651 H1641 0.929 1_554 S
C1651 C1649 1.433 1_554 S
C1651 N1654 1.384 . S
C1652 H1643 0.929 . S
C1652 C1644 1.378 . S
C1652 C1647 1.350 . S
C1653 H1640 0.929 . S
C1653 C1645 1.433 . S
C1653 N1655 1.384 . S
N1654 C1650 1.427 . S
N1654 C1651 1.384 . S
N1655 C1647 1.427 . S
N1655 C1653 1.384 . S
H1656 C1662 0.930 . S
H1657 C1666 0.930 1_556 S
H1658 C1671 0.929 . S
H1659 C1669 0.929 1_556 S
H1660 C1664 0.929 . S
H1661 C1670 0.929 . S
C1662 H1656 0.930 . S
C1662 C1663 1.367 . S
C1662 C1670 1.378 . S
C1663 C1662 1.367 . S
C1663 C1671 1.433 . S
C1664 H1660 0.929 . S
C1664 C1666 1.378 . S
C1664 C1668 1.350 . S
C1665 C1668 1.463 . S
C1665 C1670 1.350 . S
C1665 N1673 1.427 . S
C1666 H1657 0.930 1_554 S
C1666 C1664 1.378 . S
C1666 C1667 1.367 1_554 S
C1667 C1666 1.367 1_556 S
C1667 C1669 1.433 1_556 S
C1668 C1664 1.350 . S
C1668 C1665 1.463 . S
C1668 N1672 1.427 . S
C1669 H1659 0.929 1_554 S
C1669 C1667 1.433 1_554 S
C1669 N1672 1.384 . S
C1670 H1661 0.929 . S
C1670 C1662 1.378 . S
C1670 C1665 1.350 . S
C1671 H1658 0.929 . S
C1671 C1663 1.433 . S
C1671 N1673 1.384 . S
N1672 C1668 1.427 . S
N1672 C1669 1.384 . S
N1673 C1665 1.427 . S
N1673 C1671 1.384 . S
H1674 C1680 0.930 . S
H1675 C1684 0.930 1_556 S
H1676 C1689 0.929 . S
H1677 C1687 0.929 1_556 S
H1678 C1682 0.929 . S
H1679 C1688 0.929 . S
C1680 H1674 0.930 . S
C1680 C1681 1.367 . S
C1680 C1688 1.378 . S
C1681 C1680 1.367 . S
C1681 C1689 1.433 . S
C1682 H1678 0.929 . S
C1682 C1684 1.378 . S
C1682 C1686 1.350 . S
C1683 C1686 1.463 . S
C1683 C1688 1.350 . S
C1683 N1691 1.427 . S
C1684 H1675 0.930 1_554 S
C1684 C1682 1.378 . S
C1684 C1685 1.367 1_554 S
C1685 C1684 1.367 1_556 S
C1685 C1687 1.433 1_556 S
C1686 C1682 1.350 . S
C1686 C1683 1.463 . S
C1686 N1690 1.427 . S
C1687 H1677 0.929 1_554 S
C1687 C1685 1.433 1_554 S
C1687 N1690 1.384 . S
C1688 H1679 0.929 . S
C1688 C1680 1.378 . S
C1688 C1683 1.350 . S
C1689 H1676 0.929 . S
C1689 C1681 1.433 . S
C1689 N1691 1.384 . S
N1690 C1686 1.427 . S
N1690 C1687 1.384 . S
N1691 C1683 1.427 . S
N1691 C1689 1.384 . S
H1692 C1698 0.930 1_554 S
H1693 C1702 0.930 . S
H1694 C1707 0.929 1_554 S
H1695 C1705 0.929 . S
H1696 C1700 0.929 . S
H1697 C1706 0.929 . S
C1698 H1692 0.930 1_556 S
C1698 C1699 1.367 1_556 S
C1698 C1706 1.378 . S
C1699 C1698 1.367 1_554 S
C1699 C1707 1.433 1_554 S
C1700 H1696 0.929 . S
C1700 C1702 1.378 . S
C1700 C1704 1.350 . S
C1701 C1704 1.463 . S
C1701 C1706 1.350 . S
C1701 N1709 1.427 . S
C1702 H1693 0.930 . S
C1702 C1700 1.378 . S
C1702 C1703 1.367 . S
C1703 C1702 1.367 . S
C1703 C1705 1.433 . S
C1704 C1700 1.350 . S
C1704 C1701 1.463 . S
C1704 N1708 1.427 . S
C1705 H1695 0.929 . S
C1705 C1703 1.433 . S
C1705 N1708 1.384 . S
C1706 H1697 0.929 . S
C1706 C1698 1.378 . S
C1706 C1701 1.350 . S
C1707 H1694 0.929 1_556 S
C1707 C1699 1.433 1_556 S
C1707 N1709 1.384 . S
N1708 C1704 1.427 . S
N1708 C1705 1.384 . S
N1709 C1701 1.427 . S
N1709 C1707 1.384 . S
H1710 C1716 0.930 1_554 S
H1711 C1720 0.930 . S
H1712 C1725 0.929 1_554 S
H1713 C1723 0.929 . S
H1714 C1718 0.929 . S
H1715 C1724 0.929 . S
C1716 H1710 0.930 1_556 S
C1716 C1717 1.367 1_556 S
C1716 C1724 1.378 . S
C1717 C1716 1.367 1_554 S
C1717 C1725 1.433 1_554 S
C1718 H1714 0.929 . S
C1718 C1720 1.378 . S
C1718 C1722 1.350 . S
C1719 C1722 1.463 . S
C1719 C1724 1.350 . S
C1719 N1727 1.427 . S
C1720 H1711 0.930 . S
C1720 C1718 1.378 . S
C1720 C1721 1.367 . S
C1721 C1720 1.367 . S
C1721 C1723 1.433 . S
C1722 C1718 1.350 . S
C1722 C1719 1.463 . S
C1722 N1726 1.427 . S
C1723 H1713 0.929 . S
C1723 C1721 1.433 . S
C1723 N1726 1.384 . S
C1724 H1715 0.929 . S
C1724 C1716 1.378 . S
C1724 C1719 1.350 . S
C1725 H1712 0.929 1_556 S
C1725 C1717 1.433 1_556 S
C1725 N1727 1.384 . S
N1726 C1722 1.427 . S
N1726 C1723 1.384 . S
N1727 C1719 1.427 . S
N1727 C1725 1.384 . S
H1728 C1734 0.930 1_554 S
H1729 C1738 0.930 . S
H1730 C1743 0.929 1_554 S
H1731 C1741 0.929 . S
H1732 C1736 0.929 . S
H1733 C1742 0.929 . S
C1734 H1728 0.930 1_556 S
C1734 C1735 1.367 1_556 S
C1734 C1742 1.378 . S
C1735 C1734 1.367 1_554 S
C1735 C1743 1.433 1_554 S
C1736 H1732 0.929 . S
C1736 C1738 1.378 . S
C1736 C1740 1.350 . S
C1737 C1740 1.463 . S
C1737 C1742 1.350 . S
C1737 N1745 1.427 . S
C1738 H1729 0.930 . S
C1738 C1736 1.378 . S
C1738 C1739 1.367 . S
C1739 C1738 1.367 . S
C1739 C1741 1.433 . S
C1740 C1736 1.350 . S
C1740 C1737 1.463 . S
C1740 N1744 1.427 . S
C1741 H1731 0.929 . S
C1741 C1739 1.433 . S
C1741 N1744 1.384 . S
C1742 H1733 0.929 . S
C1742 C1734 1.378 . S
C1742 C1737 1.350 . S
C1743 H1730 0.929 1_556 S
C1743 C1735 1.433 1_556 S
C1743 N1745 1.384 . S
N1744 C1740 1.427 . S
N1744 C1741 1.384 . S
N1745 C1737 1.427 . S
N1745 C1743 1.384 . S
H1746 C1752 0.930 . S
H1747 C1756 0.930 . S
H1748 C1761 0.929 . S
H1749 C1759 0.929 . S
H1750 C1754 0.929 . S
H1751 C1760 0.929 . S
C1752 H1746 0.930 . S
C1752 C1753 1.367 . S
C1752 C1760 1.378 . S
C1753 C1752 1.367 . S
C1753 C1761 1.433 . S
C1754 H1750 0.929 . S
C1754 C1756 1.378 . S
C1754 C1758 1.350 . S
C1755 C1758 1.463 . S
C1755 C1760 1.350 . S
C1755 N1763 1.427 . S
C1756 H1747 0.930 . S
C1756 C1754 1.378 . S
C1756 C1757 1.367 . S
C1757 C1756 1.367 . S
C1757 C1759 1.433 . S
C1758 C1754 1.350 . S
C1758 C1755 1.463 . S
C1758 N1762 1.427 . S
C1759 H1749 0.929 . S
C1759 C1757 1.433 . S
C1759 N1762 1.384 . S
C1760 H1751 0.929 . S
C1760 C1752 1.378 . S
C1760 C1755 1.350 . S
C1761 H1748 0.929 . S
C1761 C1753 1.433 . S
C1761 N1763 1.384 . S
N1762 C1758 1.427 . S
N1762 C1759 1.384 . S
N1763 C1755 1.427 . S
N1763 C1761 1.384 . S
H1764 C1770 0.930 . S
H1765 C1774 0.930 . S
H1766 C1779 0.929 . S
H1767 C1777 0.929 . S
H1768 C1772 0.929 . S
H1769 C1778 0.929 . S
C1770 H1764 0.930 . S
C1770 C1771 1.367 . S
C1770 C1778 1.378 . S
C1771 C1770 1.367 . S
C1771 C1779 1.433 . S
C1772 H1768 0.929 . S
C1772 C1774 1.378 . S
C1772 C1776 1.350 . S
C1773 C1776 1.463 . S
C1773 C1778 1.350 . S
C1773 N1781 1.427 . S
C1774 H1765 0.930 . S
C1774 C1772 1.378 . S
C1774 C1775 1.367 . S
C1775 C1774 1.367 . S
C1775 C1777 1.433 . S
C1776 C1772 1.350 . S
C1776 C1773 1.463 . S
C1776 N1780 1.427 . S
C1777 H1767 0.929 . S
C1777 C1775 1.433 . S
C1777 N1780 1.384 . S
C1778 H1769 0.929 . S
C1778 C1770 1.378 . S
C1778 C1773 1.350 . S
C1779 H1766 0.929 . S
C1779 C1771 1.433 . S
C1779 N1781 1.384 . S
N1780 C1776 1.427 . S
N1780 C1777 1.384 . S
N1781 C1773 1.427 . S
N1781 C1779 1.384 . S
H1782 C1788 0.930 . S
H1783 C1792 0.930 . S
H1784 C1797 0.929 . S
H1785 C1795 0.929 . S
H1786 C1790 0.929 . S
H1787 C1796 0.929 . S
C1788 H1782 0.930 . S
C1788 C1789 1.367 . S
C1788 C1796 1.378 . S
C1789 C1788 1.367 . S
C1789 C1797 1.433 . S
C1790 H1786 0.929 . S
C1790 C1792 1.378 . S
C1790 C1794 1.350 . S
C1791 C1794 1.463 . S
C1791 C1796 1.350 . S
C1791 N1799 1.427 . S
C1792 H1783 0.930 . S
C1792 C1790 1.378 . S
C1792 C1793 1.367 . S
C1793 C1792 1.367 . S
C1793 C1795 1.433 . S
C1794 C1790 1.350 . S
C1794 C1791 1.463 . S
C1794 N1798 1.427 . S
C1795 H1785 0.929 . S
C1795 C1793 1.433 . S
C1795 N1798 1.384 . S
C1796 H1787 0.929 . S
C1796 C1788 1.378 . S
C1796 C1791 1.350 . S
C1797 H1784 0.929 . S
C1797 C1789 1.433 . S
C1797 N1799 1.384 . S
N1798 C1794 1.427 . S
N1798 C1795 1.384 . S
N1799 C1791 1.427 . S
N1799 C1797 1.384 . S
C511 C230 1.125 . S
C515 C6 1.119 . S
C529 C244 1.119 . S
C533 C20 1.118 . S
C547 C34 1.120 . S
C551 C216 1.126 . S
C565 C370 1.118 . S
C569 C48 1.121 . S
C583 C342 1.122 . S
C587 C62 1.118 . S
C601 C76 1.140 . S
C605 C356 1.139 . S
C619 C482 1.140 . S
C623 C90 1.139 . S
C637 C496 1.128 . S
C641 C104 1.121 . S
C655 C468 1.138 . S
C659 C118 1.140 . S
C673 C286 1.124 . S
C677 C132 1.132 . S
C691 C146 1.132 . S
C695 C258 1.125 . S
C709 C272 1.140 . S
C713 C160 1.138 . S
C727 C398 1.120 . S
C731 C174 1.118 . S
C745 C188 1.120 . S
C749 C412 1.118 . S
C763 C384 1.133 . S
C767 C202 1.126 . S
C781 C454 1.135 . S
C785 C300 1.140 . S
C799 C426 1.120 . S
C803 C314 1.118 . S
C817 C328 1.135 . S
C821 C440 1.140 . S
C835 C105 1.621 . S
C839 C8 1.670 . S
C853 C119 1.612 . S
C857 C22 1.666 . S
C871 C91 1.607 . S
C875 C36 1.661 . S
C889 C50 1.664 . S
C893 C161 1.610 . S
C907 C133 1.616 . S
C911 C64 1.663 . S
C925 C78 1.669 . S
C929 C147 1.617 . S
C943 C21 1.608 . S
C947 C92 1.662 . S
C961 C106 1.662 . S
C965 C35 1.615 . S
C979 C7 1.615 . S
C983 C120 1.662 . S
C997 C77 1.623 . S
C1001 C134 1.669 . S
C1015 C49 1.617 . S
C1019 C148 1.663 . S
C1033 C162 1.668 . S
C1037 C63 1.614 . S
C1051 C176 1.669 . S
C1055 C273 1.623 . S
C1069 C287 1.618 . S
C1073 C190 1.669 . S
C1087 C259 1.621 . S
C1091 C204 1.670 . S
C1105 C218 1.665 . S
C1109 C329 1.619 . S
C1123 C301 1.620 . S
C1127 C232 1.665 . S
C1141 C246 1.660 . S
C1145 C315 1.609 . S
C1159 C260 1.666 . S
C1163 C189 1.612 . S
C1177 C274 1.670 . S
C1181 C203 1.619 . S
C1195 C175 1.612 . S
C1199 C288 1.661 . S
C1213 C245 1.620 . S
C1217 C302 1.665 . S
C1231 C217 1.611 . S
C1235 C316 1.666 . S
C1249 C330 1.669 . S
C1253 C231 1.617 . S
C1267 C441 1.617 . S
C1271 C344 1.663 . S
C1285 C358 1.670 . S
C1289 C455 1.620 . S
C1303 C372 1.666 . S
C1307 C427 1.612 . S
C1321 C497 1.608 . S
C1325 C386 1.660 . S
C1339 C400 1.667 . S
C1343 C469 1.622 . S
C1357 C483 1.609 . S
C1361 C414 1.664 . S
C1375 C357 1.615 . S
C1379 C428 1.662 . S
C1393 C371 1.619 . S
C1397 C442 1.670 . S
C1411 C456 1.660 . S
C1415 C343 1.608 . S
C1429 C470 1.668 . S
C1433 C413 1.614 . S
C1447 C385 1.622 . S
C1451 C484 1.668 . S
C1465 C399 1.608 . S
C1469 C498 1.660 . S
C1483 C9 1.794 . S
C1487 C51 1.792 . S
C1501 C23 1.793 . S
C1505 C65 1.792 . S
C1519 C79 1.794 . S
C1523 C37 1.791 . S
C1537 C93 1.798 . S
C1541 C135 1.794 . S
C1555 C149 1.795 . S
C1559 C107 1.798 . S
C1573 C163 1.792 . S
C1577 C121 1.796 . S
C1591 C177 1.793 . S
C1595 C219 1.791 . S
C1609 C191 1.797 . S
C1613 C233 1.793 . S
C1627 C247 1.793 . S
C1631 C205 1.792 . S
C1645 C261 1.798 . S
C1649 C303 1.794 . S
C1663 C275 1.795 . S
C1667 C317 1.798 . S
C1681 C289 1.791 . S
C1685 C331 1.793 . S
C1699 C387 1.797 . S
C1703 C345 1.793 . S
C1717 C401 1.792 . S
C1721 C359 1.793 . S
C1735 C415 1.796 . S
C1739 C373 1.798 . S
C1753 C429 1.791 . S
C1757 C471 1.795 . S
C1771 C485 1.794 . S
C1775 C443 1.791 . S
C1789 C499 1.796 . S
C1793 C457 1.792 . S
