# Generated by pormake.
# Topology mok, (4)-cn, num edge types: 1
# Building blocks:
#     Node 0, Type 0, BuildingBlock: UXUYUI_clean_sbu_0, # of connection points: 4
#     Node 1, Type 0, BuildingBlock: UXUYUI_clean_sbu_0, # of connection points: 4
#     Node 2, Type 0, BuildingBlock: UXUYUI_clean_sbu_0, # of connection points: 4
#     Node 3, Type 0, BuildingBlock: UXUYUI_clean_sbu_0, # of connection points: 4
#     Node 4, Type 0, BuildingBlock: UXUYUI_clean_sbu_0, # of connection points: 4
#     Node 5, Type 0, BuildingBlock: UXUYUI_clean_sbu_0, # of connection points: 4
#     Node 6, Type 0, BuildingBlock: UXUYUI_clean_sbu_0, # of connection points: 4
#     Node 7, Type 0, BuildingBlock: UXUYUI_clean_sbu_0, # of connection points: 4
#     Edge 8, Type (0, 0), BuildingBlock: MIFKUJ_clean_linker_0, # of connection points: 2
#     Edge 9, Type (0, 0), BuildingBlock: MIFKUJ_clean_linker_0, # of connection points: 2
#     Edge 10, Type (0, 0), BuildingBlock: MIFKUJ_clean_linker_0, # of connection points: 2
#     Edge 11, Type (0, 0), BuildingBlock: MIFKUJ_clean_linker_0, # of connection points: 2
#     Edge 12, Type (0, 0), BuildingBlock: MIFKUJ_clean_linker_0, # of connection points: 2
#     Edge 13, Type (0, 0), BuildingBlock: MIFKUJ_clean_linker_0, # of connection points: 2
#     Edge 14, Type (0, 0), BuildingBlock: MIFKUJ_clean_linker_0, # of connection points: 2
#     Edge 15, Type (0, 0), BuildingBlock: MIFKUJ_clean_linker_0, # of connection points: 2
#     Edge 16, Type (0, 0), BuildingBlock: MIFKUJ_clean_linker_0, # of connection points: 2
#     Edge 17, Type (0, 0), BuildingBlock: MIFKUJ_clean_linker_0, # of connection points: 2
#     Edge 18, Type (0, 0), BuildingBlock: MIFKUJ_clean_linker_0, # of connection points: 2
#     Edge 19, Type (0, 0), BuildingBlock: MIFKUJ_clean_linker_0, # of connection points: 2
#     Edge 20, Type (0, 0), BuildingBlock: MIFKUJ_clean_linker_0, # of connection points: 2
#     Edge 21, Type (0, 0), BuildingBlock: MIFKUJ_clean_linker_0, # of connection points: 2
#     Edge 22, Type (0, 0), BuildingBlock: MIFKUJ_clean_linker_0, # of connection points: 2
#     Edge 23, Type (0, 0), BuildingBlock: MIFKUJ_clean_linker_0, # of connection points: 2
# Relax obj value: 0.076
# Max RMSD: 0.067
# Mean RMSD: 0.067
data_MOF--net-mok--node1-UXUYUI_clean_sbu_0--edge1-MIFKUJ_clean_linker_0
_symmetry_space_group_name_H-M    P1
_symmetry_Int_Tables_number       1
_symmetry_cell_setting            triclinic
loop_
_symmetry_equiv_pos_as_xyz
'x, y, z'
_cell_length_a     80.657337
_cell_length_b     37.020856
_cell_length_c     45.202174
_cell_angle_alpha  90.02322
_cell_angle_beta   90.041187
_cell_angle_gamma 90.022021
loop_
_atom_site_label
_atom_site_type_symbol
_atom_site_fract_x
_atom_site_fract_y
_atom_site_fract_z
_atom_type_partial_charge
Li0 Li 0.5822 0.33797 0.032 0.0
Li1 Li 0.60518 0.30522 0.00469 0.0
Li2 Li 0.58262 0.33466 0.9781 0.0
Li3 Li 0.57738 0.27895 0.00352 0.0
C4 C 0.60343 0.38718 0.98928 0.0
N5 N 0.61079 0.44666 0.95485 0.0
C6 C 0.6166 0.38587 0.96923 0.0
C7 C 0.59406 0.41875 0.99195 0.0
C8 C 0.62011 0.41623 0.95198 0.0
C9 C 0.59797 0.44853 0.97432 0.0
C10 C 0.60171 0.27242 0.05912 0.0
C11 C 0.61922 0.22294 0.07416 0.0
N12 N 0.62283 0.24079 0.09967 0.0
C13 C 0.60549 0.29019 0.08557 0.0
C14 C 0.60852 0.23842 0.05342 0.0
C15 C 0.61623 0.27377 0.10576 0.0
C16 C 0.5652 0.35512 0.08532 0.0
N17 N 0.5774 0.36552 0.06642 0.0
C18 C 0.58436 0.41553 0.09747 0.0
C19 C 0.58697 0.39496 0.07202 0.0
C20 C 0.5719 0.40547 0.11755 0.0
C21 C 0.56224 0.37479 0.11123 0.0
H22 H 0.55787 0.3314 0.08037 0.0
H23 H 0.5968 0.40219 0.0569 0.0
C24 C 0.63573 0.28507 0.97917 0.0
N25 N 0.62847 0.29583 0.00486 0.0
C26 C 0.65282 0.2791 0.97797 0.0
C27 C 0.65466 0.29511 0.02971 0.0
C28 C 0.6376 0.30154 0.02974 0.0
C29 C 0.66245 0.28389 0.00354 0.0
H30 H 0.62827 0.28158 0.9595 0.0
H31 H 0.6317 0.31151 0.04955 0.0
C32 C 0.54988 0.33974 0.99386 0.0
N33 N 0.52183 0.37202 0.97086 0.0
C34 C 0.54272 0.32643 0.96789 0.0
C35 C 0.54275 0.36934 0.00823 0.0
C36 C 0.52855 0.34319 0.95658 0.0
C37 C 0.52856 0.38529 0.99623 0.0
C38 C 0.59196 0.25682 0.95343 0.0
C39 C 0.5821 0.25596 0.928 0.0
C40 C 0.60084 0.22607 0.96178 0.0
C41 C 0.58111 0.22408 0.91154 0.0
C42 C 0.59952 0.19471 0.94474 0.0
N43 N 0.58975 0.19437 0.9202 0.0
C44 C 0.5882 0.35324 0.9189 0.0
C45 C 0.56754 0.38975 0.94094 0.0
C46 C 0.58672 0.37209 0.89229 0.0
N47 N 0.57856 0.36199 0.94249 0.0
C48 C 0.56542 0.4089 0.91458 0.0
C49 C 0.57509 0.40021 0.88966 0.0
H50 H 0.59729 0.33193 0.92093 0.0
H51 H 0.56052 0.39748 0.96021 0.0
C52 C 0.56621 0.2128 0.02838 0.0
N53 N 0.56514 0.23444 0.00415 0.0
C54 C 0.55755 0.18009 0.02944 0.0
C55 C 0.54669 0.19261 0.98073 0.0
C56 C 0.55546 0.22514 0.98071 0.0
C57 C 0.54764 0.16949 0.00534 0.0
H58 H 0.57369 0.22103 0.04703 0.0
H59 H 0.55456 0.24287 0.96187 0.0
O60 O 0.59948 0.35736 0.00564 0.0
O61 O 0.59127 0.28815 0.03905 0.0
O62 O 0.56369 0.3237 0.00543 0.0
O63 O 0.59298 0.28769 0.96997 0.0
H64 H 0.6239 0.36154 0.96678 0.0
H65 H 0.58369 0.42 0.00712 0.0
H66 H 0.6302 0.41556 0.93624 0.0
H67 H 0.59075 0.47307 0.97598 0.0
H68 H 0.62465 0.1967 0.06998 0.0
H69 H 0.60029 0.31647 0.09038 0.0
H70 H 0.60559 0.22415 0.03322 0.0
H71 H 0.61934 0.28727 0.12626 0.0
H72 H 0.59228 0.43858 0.10174 0.0
H73 H 0.55247 0.36621 0.12607 0.0
H74 H 0.65845 0.27058 0.95736 0.0
H75 H 0.66176 0.29967 0.04972 0.0
H76 H 0.5482 0.30389 0.95631 0.0
H77 H 0.54815 0.37994 0.02836 0.0
H78 H 0.52294 0.33335 0.93638 0.0
H79 H 0.52293 0.40827 0.00706 0.0
H80 H 0.57508 0.27948 0.92129 0.0
H81 H 0.60868 0.22643 0.98119 0.0
H82 H 0.57343 0.22294 0.89194 0.0
H83 H 0.60627 0.17067 0.95101 0.0
H84 H 0.59487 0.365 0.87418 0.0
H85 H 0.55624 0.43019 0.91382 0.0
H86 H 0.55844 0.16357 0.04914 0.0
H87 H 0.53939 0.18552 0.96147 0.0
Li88 Li 0.39714 0.70072 0.00366 0.0
Li89 Li 0.41973 0.66898 0.02914 0.0
Li90 Li 0.42569 0.72621 1.00112 0.0
Li91 Li 0.41998 0.66869 0.97572 0.0
C92 C 0.40569 0.74745 0.05266 0.0
N93 N 0.3945 0.80575 0.08522 0.0
C94 C 0.40236 0.74362 0.08284 0.0
C95 C 0.40353 0.78107 0.03916 0.0
C96 C 0.39665 0.77336 0.09889 0.0
C97 C 0.39782 0.81018 0.05596 0.0
C98 C 0.3976 0.61847 0.01715 0.0
C99 C 0.40237 0.55757 0.03402 0.0
N100 N 0.38785 0.55867 0.04928 0.0
C101 C 0.38266 0.61893 0.03281 0.0
C102 C 0.40749 0.58748 0.01755 0.0
C103 C 0.37797 0.58844 0.04898 0.0
C104 C 0.36548 0.70348 0.97834 0.0
N105 N 0.37394 0.71074 0.00368 0.0
C106 C 0.34897 0.72959 0.02763 0.0
C107 C 0.36605 0.72334 0.02818 0.0
C108 C 0.3399 0.72232 1.00176 0.0
C109 C 0.34837 0.70907 0.97688 0.0
H110 H 0.37207 0.69321 0.95927 0.0
H111 H 0.37291 0.72806 0.0483 0.0
C112 C 0.43895 0.62562 0.06912 0.0
N113 N 0.42416 0.64233 0.06451 0.0
C114 C 0.44169 0.60598 0.09514 0.0
C115 C 0.41396 0.62118 0.11103 0.0
C116 C 0.4118 0.64058 0.08486 0.0
C117 C 0.42909 0.60359 0.11658 0.0
H118 H 0.44862 0.62761 0.05267 0.0
H119 H 0.40015 0.65404 0.0806 0.0
C120 C 0.40538 0.74335 0.94891 0.0
N121 N 0.39611 0.79666 0.90937 0.0
C122 C 0.41186 0.74368 0.92023 0.0
C123 C 0.39395 0.76985 0.95726 0.0
C124 C 0.4071 0.77095 0.90063 0.0
C125 C 0.38948 0.79664 0.93702 0.0
C126 C 0.45218 0.66734 0.988 0.0
C127 C 0.46308 0.69097 0.97376 0.0
C128 C 0.45493 0.63011 0.98655 0.0
C129 C 0.47648 0.67688 0.95796 0.0
C130 C 0.46846 0.61708 0.97048 0.0
N131 N 0.47886 0.64054 0.95663 0.0
C132 C 0.4453 0.78097 0.02672 0.0
C133 C 0.44058 0.78906 0.97541 0.0
C134 C 0.45449 0.81296 0.02797 0.0
N135 N 0.43845 0.76986 1.00076 0.0
C136 C 0.44958 0.82131 0.97568 0.0
C137 C 0.45664 0.83372 1.00223 0.0
H138 H 0.44348 0.76508 0.04653 0.0
H139 H 0.43539 0.77936 0.95491 0.0
C140 C 0.41596 0.61047 0.93562 0.0
N141 N 0.42447 0.64161 0.94052 0.0
C142 C 0.41823 0.59117 0.90934 0.0
C143 C 0.43805 0.6362 0.89368 0.0
C144 C 0.43541 0.65458 0.92026 0.0
C145 C 0.42929 0.60417 0.8878 0.0
H146 H 0.40716 0.60097 0.95186 0.0
H147 H 0.44193 0.67954 0.92453 0.0
O148 O 0.41131 0.71853 0.03666 0.0
O149 O 0.40257 0.64832 1.00172 0.0
O150 O 0.40984 0.71662 0.9683 0.0
O151 O 0.4389 0.68061 0.00331 0.0
H152 H 0.40414 0.71794 0.09378 0.0
H153 H 0.40646 0.78485 0.01608 0.0
H154 H 0.39394 0.77072 0.12223 0.0
H155 H 0.3961 0.83634 0.04575 0.0
H156 H 0.40996 0.5335 0.03471 0.0
H157 H 0.37486 0.6427 0.03273 0.0
H158 H 0.41905 0.58668 0.00549 0.0
H159 H 0.3665 0.58848 0.06135 0.0
H160 H 0.34288 0.73928 0.04745 0.0
H161 H 0.34187 0.70336 0.95643 0.0
H162 H 0.45362 0.59325 0.09856 0.0
H163 H 0.40378 0.61962 0.12657 0.0
H164 H 0.42057 0.72328 0.91319 0.0
H165 H 0.38841 0.76963 0.979 0.0
H166 H 0.41213 0.77163 0.87846 0.0
H167 H 0.38068 0.81732 0.94326 0.0
H168 H 0.46115 0.71986 0.97474 0.0
H169 H 0.44663 0.61148 0.99749 0.0
H170 H 0.48497 0.69483 0.94671 0.0
H171 H 0.47067 0.58832 0.969 0.0
H172 H 0.45962 0.82165 0.04894 0.0
H173 H 0.45118 0.83614 0.95524 0.0
H174 H 0.41103 0.5669 0.90559 0.0
H175 H 0.44683 0.64702 0.87789 0.0
Li176 Li 0.57829 0.72738 0.50454 0.0
Li177 Li 0.58283 0.67159 0.53228 0.0
Li178 Li 0.6059 0.70206 0.50396 0.0
Li179 Li 0.58363 0.6691 0.47714 0.0
C180 C 0.58989 0.74905 0.55587 0.0
N181 N 0.58199 0.80937 0.58895 0.0
C182 C 0.5791 0.74609 0.57991 0.0
C183 C 0.59681 0.78257 0.54881 0.0
C184 C 0.57524 0.77694 0.59634 0.0
C185 C 0.59261 0.81279 0.56575 0.0
C186 C 0.55086 0.66121 0.50715 0.0
C187 C 0.53688 0.60392 0.50204 0.0
N188 N 0.523 0.61856 0.51418 0.0
C189 C 0.53638 0.67581 0.51919 0.0
C190 C 0.55105 0.62508 0.49817 0.0
C191 C 0.52246 0.65376 0.52272 0.0
C192 C 0.56954 0.79715 0.48339 0.0
N193 N 0.56587 0.77159 0.50396 0.0
C194 C 0.54469 0.80926 0.5245 0.0
C195 C 0.55369 0.77699 0.52427 0.0
C196 C 0.54828 0.8363 0.50365 0.0
C197 C 0.56091 0.82989 0.4829 0.0
H198 H 0.57913 0.79213 0.46727 0.0
H199 H 0.55107 0.75636 0.54051 0.0
C200 C 0.59156 0.6268 0.57949 0.0
N201 N 0.5784 0.64446 0.5675 0.0
C202 C 0.58957 0.6055 0.60469 0.0
C203 C 0.56063 0.62227 0.60583 0.0
C204 C 0.56316 0.643 0.58033 0.0
C205 C 0.57392 0.60285 0.61812 0.0
H206 H 0.60365 0.62914 0.56933 0.0
H207 H 0.55297 0.65802 0.57095 0.0
C208 C 0.60404 0.73235 0.45038 0.0
N209 N 0.62786 0.75958 0.41258 0.0
C210 C 0.60804 0.71385 0.42439 0.0
C211 C 0.61205 0.76485 0.45703 0.0
C212 C 0.62013 0.72805 0.40558 0.0
C213 C 0.6241 0.77811 0.43768 0.0
C214 C 0.60515 0.61503 0.50607 0.0
C215 C 0.62147 0.60641 0.4984 0.0
C216 C 0.59422 0.58745 0.51419 0.0
C217 C 0.6265 0.57031 0.4986 0.0
C218 C 0.59973 0.55169 0.51416 0.0
N219 N 0.61562 0.54392 0.50639 0.0
C220 C 0.63623 0.72893 0.52716 0.0
C221 C 0.63857 0.69978 0.48071 0.0
C222 C 0.6533 0.73542 0.52776 0.0
N223 N 0.62923 0.71144 0.50384 0.0
C224 C 0.65564 0.70601 0.48023 0.0
C225 C 0.6633 0.72391 0.50405 0.0
H226 H 0.62857 0.73749 0.54549 0.0
H227 H 0.63277 0.68545 0.46263 0.0
C228 C 0.56608 0.6526 0.42473 0.0
N229 N 0.57873 0.64137 0.44238 0.0
C230 C 0.56244 0.63416 0.39848 0.0
C231 C 0.58469 0.59258 0.40937 0.0
C232 C 0.58805 0.61207 0.43512 0.0
C233 C 0.57181 0.60368 0.39057 0.0
H234 H 0.55894 0.67615 0.43092 0.0
H235 H 0.59829 0.60405 0.44893 0.0
O236 O 0.59354 0.71933 0.53915 0.0
O237 O 0.56459 0.68251 0.5035 0.0
O238 O 0.59232 0.71871 0.46919 0.0
O239 O 0.60004 0.65031 0.5059 0.0
H240 H 0.57364 0.72033 0.58565 0.0
H241 H 0.60521 0.78527 0.53031 0.0
H242 H 0.56682 0.77511 0.61491 0.0
H243 H 0.59777 0.83896 0.56042 0.0
H244 H 0.5369 0.57588 0.49528 0.0
H245 H 0.5359 0.7038 0.52593 0.0
H246 H 0.56195 0.61351 0.4881 0.0
H247 H 0.51121 0.66466 0.53223 0.0
H248 H 0.53519 0.8132 0.54111 0.0
H249 H 0.56394 0.84976 0.46618 0.0
H250 H 0.60023 0.59159 0.61379 0.0
H251 H 0.54839 0.62106 0.61558 0.0
H252 H 0.60194 0.68872 0.41885 0.0
H253 H 0.60914 0.77946 0.47708 0.0
H254 H 0.6234 0.71395 0.38545 0.0
H255 H 0.63048 0.80309 0.44265 0.0
H256 H 0.63015 0.62733 0.49226 0.0
H257 H 0.58168 0.59354 0.52089 0.0
H258 H 0.63907 0.56328 0.49258 0.0
H259 H 0.59139 0.53012 0.52043 0.0
H260 H 0.65863 0.74873 0.54687 0.0
H261 H 0.66271 0.69704 0.46126 0.0
H262 H 0.55238 0.64355 0.38457 0.0
H263 H 0.59241 0.56962 0.4038 0.0
Li264 Li 0.42105 0.33558 0.52893 0.0
Li265 Li 0.42525 0.27952 0.50488 0.0
Li266 Li 0.42086 0.33477 0.47483 0.0
Li267 Li 0.39719 0.30501 0.50526 0.0
C268 C 0.45413 0.33428 0.51249 0.0
N269 N 0.48414 0.35742 0.53506 0.0
C270 C 0.4622 0.31408 0.53426 0.0
C271 C 0.46145 0.36589 0.50178 0.0
C272 C 0.47732 0.32633 0.5455 0.0
C273 C 0.47659 0.37725 0.5136 0.0
C274 C 0.41176 0.26453 0.56111 0.0
C275 C 0.40051 0.21442 0.58865 0.0
N276 N 0.41423 0.21444 0.60617 0.0
C277 C 0.42567 0.26428 0.57955 0.0
C278 C 0.399 0.23963 0.56582 0.0
C279 C 0.42672 0.23866 0.60215 0.0
C280 C 0.41753 0.35618 0.58835 0.0
N281 N 0.42594 0.36469 0.56324 0.0
C282 C 0.43898 0.41457 0.58774 0.0
C283 C 0.43641 0.39352 0.56244 0.0
C284 C 0.43065 0.40597 0.61411 0.0
C285 C 0.41977 0.37633 0.61413 0.0
H286 H 0.4088 0.33405 0.58825 0.0
H287 H 0.4425 0.40076 0.54206 0.0
C288 C 0.45242 0.23419 0.49117 0.0
N289 N 0.43741 0.23465 0.50483 0.0
C290 C 0.4617 0.20233 0.48982 0.0
C291 C 0.43999 0.17195 0.51683 0.0
C292 C 0.43101 0.20418 0.51712 0.0
C293 C 0.4556 0.17051 0.50297 0.0
H294 H 0.4571 0.25856 0.48095 0.0
H295 H 0.41883 0.20461 0.52689 0.0
C296 C 0.40236 0.39051 0.51356 0.0
N297 N 0.39974 0.45783 0.53944 0.0
C298 C 0.39072 0.3965 0.53589 0.0
C299 C 0.41262 0.41873 0.50425 0.0
C300 C 0.38961 0.43074 0.54875 0.0
C301 C 0.4111 0.45259 0.51763 0.0
C302 C 0.41112 0.25314 0.45762 0.0
C303 C 0.42301 0.24718 0.43569 0.0
C304 C 0.40115 0.22461 0.46727 0.0
C305 C 0.42479 0.21252 0.42385 0.0
C306 C 0.40331 0.19037 0.45486 0.0
N307 N 0.415 0.18508 0.43362 0.0
C308 C 0.44009 0.35923 0.42558 0.0
C309 C 0.41239 0.3803 0.42804 0.0
C310 C 0.4428 0.37888 0.39957 0.0
N311 N 0.42509 0.36047 0.43923 0.0
C312 C 0.41453 0.40031 0.40216 0.0
C313 C 0.42992 0.39993 0.38756 0.0
H314 H 0.44997 0.34313 0.43498 0.0
H315 H 0.40056 0.38057 0.43931 0.0
C316 C 0.36567 0.29863 0.5321 0.0
N317 N 0.37404 0.29638 0.50608 0.0
C318 C 0.34856 0.29273 0.53288 0.0
C319 C 0.34904 0.2825 0.48005 0.0
C320 C 0.36613 0.2886 0.48031 0.0
C321 C 0.34 0.28454 0.50659 0.0
H322 H 0.37232 0.30498 0.55224 0.0
H323 H 0.37311 0.28729 0.45991 0.0
O324 O 0.43939 0.32262 0.501 0.0
O325 O 0.41038 0.28958 0.53903 0.0
O326 O 0.404 0.35695 0.50133 0.0
O327 O 0.40957 0.2865 0.47023 0.0
H328 H 0.45692 0.28905 0.54218 0.0
H329 H 0.4554 0.38171 0.48478 0.0
H330 H 0.48368 0.31103 0.56244 0.0
H331 H 0.48234 0.40183 0.50572 0.0
H332 H 0.39079 0.19483 0.59243 0.0
H333 H 0.43546 0.28388 0.57664 0.0
H334 H 0.38812 0.23953 0.55178 0.0
H335 H 0.43743 0.23812 0.61656 0.0
H336 H 0.44743 0.43727 0.58668 0.0
H337 H 0.41276 0.36925 0.63371 0.0
H338 H 0.47342 0.20264 0.4782 0.0
H339 H 0.43471 0.14852 0.52759 0.0
H340 H 0.38276 0.37482 0.54341 0.0
H341 H 0.42181 0.41439 0.48718 0.0
H342 H 0.38072 0.43575 0.56619 0.0
H343 H 0.41902 0.47464 0.51079 0.0
H344 H 0.43088 0.26901 0.42817 0.0
H345 H 0.39202 0.22876 0.48448 0.0
H346 H 0.434 0.20741 0.40699 0.0
H347 H 0.39576 0.16796 0.46224 0.0
H348 H 0.45489 0.378 0.38922 0.0
H349 H 0.40416 0.41556 0.3935 0.0
H350 H 0.34215 0.29419 0.55388 0.0
H351 H 0.34294 0.27681 0.45921 0.0
Li352 Li 0.08536 0.83511 0.03126 0.0
Li353 Li 0.10592 0.80407 0.00303 0.0
Li354 Li 0.085 0.83443 0.97604 0.0
Li355 Li 0.07914 0.77594 0.00346 0.0
C356 C 0.09937 0.89354 0.00333 0.0
N357 N 0.09467 0.96753 0.0038 0.0
C358 C 0.11299 0.91687 0.0049 0.0
C359 C 0.08337 0.90794 1.00199 0.0
C360 C 0.11035 0.95416 0.00513 0.0
C361 C 0.08125 0.94538 1.00224 0.0
C362 C 0.10518 0.7733 0.05746 0.0
C363 C 0.11841 0.72469 0.08392 0.0
N364 N 0.12898 0.74886 0.09652 0.0
C365 C 0.11608 0.79771 0.0708 0.0
C366 C 0.10625 0.73653 0.06413 0.0
C367 C 0.12808 0.78479 0.09044 0.0
C368 C 0.06727 0.85237 0.08366 0.0
N369 N 0.08068 0.8612 0.06693 0.0
C370 C 0.08893 0.90582 0.10224 0.0
C371 C 0.0915 0.88713 0.07587 0.0
C372 C 0.07539 0.89699 0.12048 0.0
C373 C 0.06442 0.86985 0.11068 0.0
H374 H 0.05898 0.83121 0.07629 0.0
H375 H 0.10235 0.89306 0.06279 0.0
C376 C 0.13969 0.8206 0.99551 0.0
N377 N 0.12922 0.79314 1.00248 0.0
C378 C 0.15679 0.81491 0.99478 0.0
C379 C 0.15208 0.75253 0.00802 0.0
C380 C 0.13505 0.75944 0.00843 0.0
C381 C 0.16322 0.78053 1.00126 0.0
H382 H 0.13474 0.84693 0.99027 0.0
H383 H 0.12649 0.73784 0.0134 0.0
C384 C 0.05024 0.82698 0.99743 0.0
N385 N 0.01703 0.8345 0.98372 0.0
C386 C 0.04267 0.80309 0.97765 0.0
C387 C 0.04088 0.85443 0.01053 0.0
C388 C 0.02588 0.80742 0.97091 0.0
C389 C 0.02412 0.85786 0.00322 0.0
C390 C 0.10585 0.76995 0.95274 0.0
C391 C 0.11561 0.7915 0.93429 0.0
C392 C 0.10943 0.73319 0.95565 0.0
C393 C 0.12892 0.77592 0.9192 0.0
C394 C 0.12283 0.71861 0.94015 0.0
N395 N 0.13223 0.74011 0.92243 0.0
C396 C 0.09225 0.88509 0.93134 0.0
C397 C 0.06622 0.85663 0.92473 0.0
C398 C 0.08999 0.90536 0.90564 0.0
N399 N 0.08035 0.86166 0.94067 0.0
C400 C 0.06353 0.87604 0.8986 0.0
C401 C 0.07549 0.90092 0.88887 0.0
H402 H 0.10369 0.8877 0.94361 0.0
H403 H 0.05712 0.83724 0.93196 0.0
C404 C 0.05849 0.72254 0.02926 0.0
N405 N 0.06637 0.73262 0.00401 0.0
C406 C 0.04914 0.69071 0.03001 0.0
C407 C 0.05623 0.6803 0.97877 0.0
C408 C 0.06535 0.71239 0.97897 0.0
C409 C 0.04799 0.66901 0.00454 0.0
H410 H 0.05953 0.7392 0.04885 0.0
H411 H 0.07155 0.72132 0.95907 0.0
O412 O 0.10185 0.85691 0.00319 0.0
O413 O 0.09349 0.78532 0.03793 0.0
O414 O 0.06658 0.82283 0.00475 0.0
O415 O 0.09302 0.78493 0.96823 0.0
H416 H 0.12547 0.9063 0.00609 0.0
H417 H 0.07269 0.89053 1.00059 0.0
H418 H 0.12078 0.97249 0.00638 0.0
H419 H 0.06892 0.95682 1.00117 0.0
H420 H 0.11945 0.69629 0.08921 0.0
H421 H 0.11543 0.82623 0.06572 0.0
H422 H 0.09786 0.71735 0.05396 0.0
H423 H 0.13668 0.80331 0.10078 0.0
H424 H 0.0976 0.92692 0.1082 0.0
H425 H 0.05396 0.86148 0.124 0.0
H426 H 0.16487 0.83712 0.98886 0.0
H427 H 0.15646 0.72566 0.01333 0.0
H428 H 0.04973 0.78175 0.96728 0.0
H429 H 0.04649 0.87284 0.02622 0.0
H430 H 0.01989 0.78927 0.95548 0.0
H431 H 0.01673 0.87905 0.01311 0.0
H432 H 0.11306 0.82003 0.93193 0.0
H433 H 0.10212 0.71621 0.97011 0.0
H434 H 0.13665 0.79232 0.905 0.0
H435 H 0.12582 0.69026 0.94234 0.0
H436 H 0.09968 0.92367 0.89856 0.0
H437 H 0.0522 0.87175 0.88622 0.0
H438 H 0.0431 0.68289 0.05041 0.0
H439 H 0.05547 0.66472 0.95852 0.0
Li440 Li 0.89637 0.2028 1.0023 0.0
Li441 Li 0.9186 0.16918 0.02856 0.0
Li442 Li 0.92422 0.22747 1.00081 0.0
Li443 Li 0.91891 0.17158 0.97332 0.0
C444 C 0.89922 0.23383 0.05586 0.0
N445 N 0.8765 0.26324 0.09471 0.0
C446 C 0.89487 0.21522 0.08161 0.0
C447 C 0.89217 0.26756 0.05003 0.0
C448 C 0.88332 0.23051 0.10094 0.0
C449 C 0.88066 0.28191 0.06989 0.0
C450 C 0.89694 0.11545 1.00106 0.0
C451 C 0.90297 0.05198 0.99555 0.0
N452 N 0.88703 0.04402 1.00291 0.0
C453 C 0.88059 0.10665 0.00837 0.0
C454 C 0.90821 0.08792 0.99445 0.0
C455 C 0.87584 0.07037 0.00926 0.0
C456 C 0.86607 0.22933 0.97929 0.0
N457 N 0.87316 0.21284 0.00298 0.0
C458 C 0.8469 0.20886 0.02726 0.0
C459 C 0.86393 0.20226 0.02658 0.0
C460 C 0.83913 0.22577 0.00307 0.0
C461 C 0.84901 0.23598 0.97881 0.0
H462 H 0.87362 0.23684 0.96052 0.0
H463 H 0.86978 0.18838 0.04483 0.0
C464 C 0.9364 0.15285 0.08072 0.0
N465 N 0.92359 0.14165 0.06341 0.0
C466 C 0.94 0.13495 0.10724 0.0
C467 C 0.91738 0.0939 0.09729 0.0
C468 C 0.91404 0.11292 0.07132 0.0
C469 C 0.93043 0.105 0.11571 0.0
H470 H 0.94368 0.17602 0.0741 0.0
H471 H 0.9036 0.10507 0.05793 0.0
C472 C 0.91119 0.24948 0.94966 0.0
N473 N 0.91683 0.30992 0.9153 0.0
C474 C 0.92057 0.24675 0.92377 0.0
C475 C 0.9045 0.28281 0.95789 0.0
C476 C 0.92332 0.27766 0.90674 0.0
C477 C 0.90756 0.3131 0.94028 0.0
C478 C 0.9514 0.16224 0.99608 0.0
C479 C 0.9648 0.17813 0.98144 0.0
C480 C 0.95258 0.12649 0.00574 0.0
C481 C 0.97901 0.15762 0.97597 0.0
C482 C 0.967 0.10688 0.99988 0.0
N483 N 0.9798 0.1227 0.9852 0.0
C484 C 0.93541 0.29405 0.02463 0.0
C485 C 0.94729 0.27903 0.97834 0.0
C486 C 0.94429 0.32647 0.02543 0.0
N487 N 0.93696 0.27123 1.00123 0.0
C488 C 0.95632 0.31127 0.97812 0.0
C489 C 0.95489 0.33562 1.00188 0.0
H490 H 0.92733 0.28702 0.04278 0.0
H491 H 0.94844 0.26033 0.9601 0.0
C492 C 0.91023 0.12393 0.92746 0.0
N493 N 0.92294 0.14455 0.93778 0.0
C494 C 0.91212 0.10337 0.9018 0.0
C495 C 0.93989 0.12702 0.89673 0.0
C496 C 0.93753 0.14678 0.92279 0.0
C497 C 0.92712 0.10469 0.8861 0.0
H498 H 0.89853 0.12358 0.93909 0.0
H499 H 0.94726 0.16428 0.93076 0.0
O500 O 0.91039 0.21914 0.03654 0.0
O501 O 0.90179 0.15085 1.00025 0.0
O502 O 0.90855 0.21963 0.96683 0.0
O503 O 0.93743 0.18202 1.00173 0.0
H504 H 0.90023 0.18913 0.08653 0.0
H505 H 0.89549 0.28241 0.03032 0.0
H506 H 0.87976 0.21633 0.12087 0.0
H507 H 0.87503 0.30789 0.06557 0.0
H508 H 0.91156 0.03043 0.99046 0.0
H509 H 0.87169 0.12759 0.01339 0.0
H510 H 0.92079 0.09423 0.98817 0.0
H511 H 0.86325 0.06317 0.015 0.0
H512 H 0.83994 0.20086 0.04666 0.0
H513 H 0.84363 0.24834 0.95935 0.0
H514 H 0.95015 0.14433 0.12092 0.0
H515 H 0.90953 0.07135 0.10336 0.0
H516 H 0.92577 0.22112 0.91704 0.0
H517 H 0.8971 0.28529 0.97772 0.0
H518 H 0.93064 0.27601 0.88674 0.0
H519 H 0.90255 0.33912 0.94649 0.0
H520 H 0.96419 0.20591 0.97414 0.0
H521 H 0.94255 0.11405 0.01785 0.0
H522 H 0.98941 0.16948 0.96441 0.0
H523 H 0.96805 0.07913 0.00713 0.0
H524 H 0.94301 0.34393 0.04451 0.0
H525 H 0.96415 0.31722 0.9593 0.0
H526 H 0.90184 0.08712 0.89401 0.0
H527 H 0.95161 0.12893 0.88516 0.0
Li528 Li 0.07743 0.22731 0.50534 0.0
Li529 Li 0.08309 0.16981 0.53058 0.0
Li530 Li 0.106 0.20225 0.50343 0.0
Li531 Li 0.08383 0.16982 0.47679 0.0
C532 C 0.09605 0.24798 0.55572 0.0
N533 N 0.10209 0.30853 0.58989 0.0
C534 C 0.09009 0.24987 0.58471 0.0
C535 C 0.10533 0.27665 0.54432 0.0
C536 C 0.09319 0.28078 0.60157 0.0
C537 C 0.10819 0.30708 0.56188 0.0
C538 C 0.05118 0.16676 0.51713 0.0
C539 C 0.0343 0.11544 0.53022 0.0
N540 N 0.02468 0.13721 0.54732 0.0
C541 C 0.04104 0.1887 0.5346 0.0
C542 C 0.04771 0.1299 0.51468 0.0
C543 C 0.02773 0.17322 0.54977 0.0
C544 C 0.06048 0.28609 0.47912 0.0
N545 N 0.06465 0.27105 0.50554 0.0
C546 C 0.051 0.31886 0.53155 0.0
C547 C 0.0599 0.28647 0.5315 0.0
C548 C 0.04679 0.33545 0.50461 0.0
C549 C 0.05155 0.31845 0.47813 0.0
H550 H 0.06421 0.27309 0.45876 0.0
H551 H 0.06287 0.27351 0.55221 0.0
C552 C 0.08579 0.10909 0.56839 0.0
N553 N 0.07835 0.14181 0.56526 0.0
C554 C 0.0833 0.08859 0.59393 0.0
C555 C 0.06564 0.13593 0.61285 0.0
C556 C 0.06837 0.15541 0.5868 0.0
C557 C 0.07321 0.10209 0.6167 0.0
H558 H 0.09396 0.09914 0.55136 0.0
H559 H 0.0627 0.18161 0.58394 0.0
C560 C 0.09978 0.24353 0.45154 0.0
N561 N 0.11541 0.29129 0.41369 0.0
C562 C 0.10562 0.23173 0.42407 0.0
C563 C 0.10159 0.27983 0.45944 0.0
C564 C 0.11358 0.25621 0.40534 0.0
C565 C 0.1096 0.3035 0.44009 0.0
C566 C 0.10605 0.11811 0.49261 0.0
C567 C 0.12236 0.11481 0.48254 0.0
C568 C 0.09522 0.08877 0.49014 0.0
C569 C 0.1275 0.08233 0.46975 0.0
C570 C 0.10082 0.05675 0.4772 0.0
N571 N 0.11671 0.05423 0.46733 0.0
C572 C 0.13701 0.21943 0.52943 0.0
C573 C 0.13777 0.21217 0.47739 0.0
C574 C 0.15404 0.22626 0.53013 0.0
N575 N 0.12921 0.21295 0.50328 0.0
C576 C 0.15482 0.21871 0.47706 0.0
C577 C 0.1632 0.22588 0.50369 0.0
H578 H 0.13003 0.21887 0.54984 0.0
H579 H 0.13144 0.20568 0.45703 0.0
C580 C 0.06375 0.13465 0.4332 0.0
N581 N 0.07953 0.14281 0.44143 0.0
C582 C 0.06078 0.11453 0.40749 0.0
C583 C 0.09034 0.11132 0.39949 0.0
C584 C 0.09271 0.13198 0.42494 0.0
C585 C 0.0742 0.10237 0.39022 0.0
H586 H 0.05347 0.14389 0.44654 0.0
H587 H 0.10513 0.13917 0.4317 0.0
O588 O 0.09301 0.21797 0.53884 0.0
O589 O 0.06441 0.18133 0.50248 0.0
O590 O 0.09192 0.21986 0.47012 0.0
O591 O 0.10074 0.1499 0.50483 0.0
H592 H 0.08306 0.2278 0.59407 0.0
H593 H 0.11049 0.27522 0.52233 0.0
H594 H 0.08854 0.28268 0.62396 0.0
H595 H 0.11533 0.32947 0.55328 0.0
H596 H 0.03152 0.08691 0.52866 0.0
H597 H 0.04352 0.21729 0.53666 0.0
H598 H 0.0553 0.11264 0.50095 0.0
H599 H 0.01985 0.18983 0.56355 0.0
H600 H 0.04729 0.33055 0.55249 0.0
H601 H 0.04867 0.33032 0.45685 0.0
H602 H 0.08961 0.06292 0.59619 0.0
H603 H 0.0577 0.14725 0.6298 0.0
H604 H 0.10414 0.20392 0.41735 0.0
H605 H 0.09668 0.28982 0.4801 0.0
H606 H 0.11829 0.24734 0.38415 0.0
H607 H 0.11112 0.33162 0.44601 0.0
H608 H 0.13095 0.1371 0.4845 0.0
H609 H 0.0826 0.09078 0.49796 0.0
H610 H 0.14006 0.07946 0.46174 0.0
H611 H 0.09254 0.03393 0.47497 0.0
H612 H 0.16004 0.23095 0.55123 0.0
H613 H 0.16136 0.21822 0.45615 0.0
H614 H 0.0481 0.10896 0.40113 0.0
H615 H 0.10115 0.10214 0.38748 0.0
Li616 Li 0.92008 0.83808 0.52598 0.0
Li617 Li 0.92593 0.78061 0.50105 0.0
Li618 Li 0.91995 0.83809 0.47248 0.0
Li619 Li 0.89736 0.80588 0.49827 0.0
C620 C 0.95184 0.84138 0.51444 0.0
N621 N 0.97725 0.87177 0.54705 0.0
C622 C 0.96229 0.81946 0.53133 0.0
C623 C 0.95441 0.87871 0.51388 0.0
C624 C 0.97505 0.83535 0.54772 0.0
C625 C 0.96729 0.89358 0.5306 0.0
C626 C 0.90598 0.76029 0.55046 0.0
C627 C 0.89173 0.70337 0.55596 0.0
N628 N 0.89766 0.70055 0.58403 0.0
C629 C 0.91173 0.75706 0.57953 0.0
C630 C 0.89573 0.73343 0.53872 0.0
C631 C 0.90748 0.72656 0.59607 0.0
C632 C 0.91777 0.89917 0.5637 0.0
N633 N 0.92457 0.86575 0.56092 0.0
C634 C 0.93644 0.87011 0.60932 0.0
C635 C 0.93388 0.85113 0.58297 0.0
C636 C 0.92942 0.90455 0.61293 0.0
C637 C 0.92013 0.91923 0.58955 0.0
H638 H 0.91022 0.91002 0.54608 0.0
H639 H 0.93918 0.82454 0.58021 0.0
C640 C 0.94332 0.72175 0.4757 0.0
N641 N 0.93871 0.7369 0.50185 0.0
C642 C 0.95228 0.68944 0.47528 0.0
C643 C 0.95213 0.68948 0.52871 0.0
C644 C 0.94312 0.72172 0.52809 0.0
C645 C 0.95675 0.67272 0.50204 0.0
H646 H 0.93997 0.73473 0.45512 0.0
H647 H 0.93972 0.73469 0.54859 0.0
C648 C 0.89706 0.88826 0.48525 0.0
N649 N 0.88573 0.94846 0.45531 0.0
C650 C 0.88129 0.88818 0.47241 0.0
C651 C 0.907 0.91909 0.48312 0.0
C652 C 0.87579 0.91886 0.45733 0.0
C653 C 0.90107 0.9492 0.46779 0.0
C654 C 0.90503 0.76284 0.44678 0.0
C655 C 0.90048 0.77238 0.41797 0.0
C656 C 0.90307 0.7271 0.45614 0.0
C657 C 0.89368 0.74622 0.39926 0.0
C658 C 0.89625 0.70171 0.43677 0.0
N659 N 0.89171 0.71173 0.40898 0.0
C660 C 0.94052 0.87704 0.43207 0.0
C661 C 0.9122 0.87278 0.41837 0.0
C662 C 0.94396 0.89771 0.40687 0.0
N663 N 0.92482 0.86524 0.4374 0.0
C664 C 0.91507 0.89348 0.39308 0.0
C665 C 0.93108 0.90617 0.38723 0.0
H666 H 0.95036 0.87051 0.44742 0.0
H667 H 0.89986 0.86296 0.42299 0.0
C668 C 0.86607 0.79894 0.52471 0.0
N669 N 0.87412 0.79537 0.49845 0.0
C670 C 0.84901 0.79272 0.52652 0.0
C671 C 0.84881 0.77923 0.47421 0.0
C672 C 0.86585 0.78597 0.47338 0.0
C673 C 0.84016 0.78267 0.50103 0.0
H674 H 0.87293 0.80677 0.54426 0.0
H675 H 0.87235 0.78427 0.4526 0.0
O676 O 0.93909 0.82639 0.49871 0.0
O677 O 0.91005 0.79005 0.53398 0.0
O678 O 0.90271 0.85832 0.49985 0.0
O679 O 0.9117 0.78822 0.46537 0.0
H680 H 0.9605 0.79052 0.53196 0.0
H681 H 0.94647 0.89603 0.50084 0.0
H682 H 0.98318 0.81874 0.56103 0.0
H683 H 0.96935 0.92245 0.53052 0.0
H684 H 0.88384 0.68237 0.54707 0.0
H685 H 0.91948 0.77774 0.5892 0.0
H686 H 0.89072 0.73591 0.51668 0.0
H687 H 0.91196 0.72361 0.6185 0.0
H688 H 0.94381 0.85794 0.6267 0.0
H689 H 0.91431 0.94547 0.59157 0.0
H690 H 0.95583 0.67789 0.4542 0.0
H691 H 0.95525 0.67757 0.54987 0.0
H692 H 0.8734 0.86464 0.47393 0.0
H693 H 0.91922 0.91964 0.49295 0.0
H694 H 0.86365 0.91912 0.44718 0.0
H695 H 0.90868 0.97314 0.46579 0.0
H696 H 0.90209 0.79971 0.41014 0.0
H697 H 0.90699 0.71884 0.47795 0.0
H698 H 0.89 0.75333 0.377 0.0
H699 H 0.89465 0.674 0.44378 0.0
H700 H 0.95647 0.90715 0.40284 0.0
H701 H 0.90489 0.8996 0.37826 0.0
H702 H 0.84284 0.79547 0.54767 0.0
H703 H 0.84241 0.77218 0.45394 0.0
H704 H 0.82199 0.2828 0.97876 0.0
H705 H 0.79212 0.29229 0.97773 0.0
H706 H 0.78488 0.1943 0.02773 0.0
H707 H 0.81462 0.18307 0.02685 0.0
H708 H 0.76263 0.19686 0.98784 0.0
H709 H 0.78214 0.28219 0.05905 0.0
H710 H 0.79927 0.33198 0.07858 0.0
H711 H 0.7797 0.40339 0.01238 0.0
H712 H 0.76262 0.35387 0.99218 0.0
H713 H 0.68078 0.24123 0.04018 0.0
H714 H 0.71089 0.23139 0.03904 0.0
H715 H 0.71505 0.30396 0.96483 0.0
H716 H 0.68489 0.3132 0.96542 0.0
H717 H 0.73835 0.31481 0.01678 0.0
H718 H 0.71837 0.2255 0.94701 0.0
H719 H 0.70066 0.17455 0.93159 0.0
H720 H 0.72078 0.10919 1.00137 0.0
H721 H 0.73843 0.15999 0.0175 0.0
C722 C 0.81408 0.26292 0.98919 0.0
C723 C 0.82086 0.23218 0.00298 0.0
C724 C 0.79695 0.26871 0.98898 0.0
C725 C 0.78619 0.2444 0.00315 0.0
C726 C 0.79289 0.2136 0.01677 0.0
C727 C 0.80998 0.20747 0.01658 0.0
C728 C 0.76796 0.25072 0.00345 0.0
C729 C 0.75737 0.22255 0.99455 0.0
C730 C 0.76098 0.28436 0.01183 0.0
C731 C 0.77123 0.31422 0.02392 0.0
C732 C 0.78158 0.30844 0.04851 0.0
C733 C 0.79127 0.33663 0.05973 0.0
C734 C 0.79061 0.3708 0.04668 0.0
C735 C 0.78022 0.37689 0.02243 0.0
C736 C 0.77052 0.34878 0.01111 0.0
C737 C 0.68815 0.25502 0.02364 0.0
C738 C 0.68058 0.27788 1.00283 0.0
C739 C 0.70528 0.24935 0.02298 0.0
C740 C 0.71512 0.26696 1.00184 0.0
C741 C 0.70762 0.29017 0.98128 0.0
C742 C 0.69045 0.29527 0.98155 0.0
C743 C 0.73325 0.26105 1.00121 0.0
C744 C 0.74374 0.28924 0.01008 0.0
C745 C 0.74012 0.22728 0.99341 0.0
C746 C 0.72958 0.19668 0.98366 0.0
C747 C 0.71889 0.20039 0.95925 0.0
C748 C 0.70889 0.17151 0.95034 0.0
C749 C 0.70956 0.13868 0.96555 0.0
C750 C 0.72026 0.13465 0.98964 0.0
C751 C 0.73027 0.16347 0.99866 0.0
H752 H 0.70181 0.11635 0.95861 0.0
H753 H 0.79811 0.39259 0.0554 0.0
H754 H 0.17992 0.72137 0.98012 0.0
H755 H 0.20986 0.71094 0.97995 0.0
H756 H 0.21769 0.81463 0.0212 0.0
H757 H 0.18779 0.82511 0.02177 0.0
H758 H 0.23904 0.80408 0.97608 0.0
H759 H 0.22077 0.7377 0.06111 0.0
H760 H 0.20382 0.69342 0.08838 0.0
H761 H 0.22248 0.60804 0.03339 0.0
H762 H 0.23937 0.65193 0.00549 0.0
H763 H 0.32244 0.78007 0.023 0.0
H764 H 0.29238 0.78922 0.022 0.0
H765 H 0.28616 0.68705 0.97746 0.0
H766 H 0.31621 0.67751 0.97872 0.0
H767 H 0.26404 0.69607 0.02333 0.0
H768 H 0.2827 0.76279 0.93887 0.0
H769 H 0.29973 0.80734 0.91205 0.0
H770 H 0.28038 0.89241 0.9666 0.0
H771 H 0.26341 0.84826 0.99406 0.0
C772 C 0.188 0.7418 0.98945 0.0
C773 C 0.18143 0.77406 1.00102 0.0
C774 C 0.20511 0.73583 0.98926 0.0
C775 C 0.21601 0.76188 1.00078 0.0
C776 C 0.20952 0.79421 0.01211 0.0
C777 C 0.19242 0.80019 0.01233 0.0
C778 C 0.23419 0.75557 1.00091 0.0
C779 C 0.24452 0.7807 0.98674 0.0
C780 C 0.24132 0.72463 0.01424 0.0
C781 C 0.2312 0.69816 0.03101 0.0
C782 C 0.22115 0.70953 0.05466 0.0
C783 C 0.21157 0.6845 0.07027 0.0
C784 C 0.21203 0.64795 0.06257 0.0
C785 C 0.22211 0.63636 0.0393 0.0
C786 C 0.2317 0.6613 0.02359 0.0
C787 C 0.31466 0.75948 0.01312 0.0
C788 C 0.32169 0.72811 1.00088 0.0
C789 C 0.29751 0.76485 0.01238 0.0
C790 C 0.28706 0.73894 0.99944 0.0
C791 C 0.29401 0.70742 0.98747 0.0
C792 C 0.31118 0.70215 0.98801 0.0
C793 C 0.26886 0.74465 0.9986 0.0
C794 C 0.25854 0.7194 0.01264 0.0
C795 C 0.26174 0.77552 0.98522 0.0
C796 C 0.27191 0.80216 0.96872 0.0
C797 C 0.28219 0.79095 0.94533 0.0
C798 C 0.29181 0.81614 0.92997 0.0
C799 C 0.29117 0.85267 0.93767 0.0
C800 C 0.28088 0.86409 0.96069 0.0
C801 C 0.27124 0.83901 0.97614 0.0
H802 H 0.29863 0.87213 0.92575 0.0
H803 H 0.20461 0.62861 0.07468 0.0
H804 H 0.82254 0.72774 0.47554 0.0
H805 H 0.79256 0.71807 0.47671 0.0
H806 H 0.78667 0.81385 0.53011 0.0
H807 H 0.8167 0.82331 0.52937 0.0
H808 H 0.76746 0.76238 0.55055 0.0
H809 H 0.77762 0.81305 0.45497 0.0
H810 H 0.79097 0.81832 0.4061 0.0
H811 H 0.77305 0.71299 0.38232 0.0
H812 H 0.75978 0.70688 0.43123 0.0
H813 H 0.68038 0.78278 0.52532 0.0
H814 H 0.71037 0.79236 0.52589 0.0
H815 H 0.71767 0.68952 0.48311 0.0
H816 H 0.68779 0.67903 0.4833 0.0
H817 H 0.73588 0.74557 0.4573 0.0
H818 H 0.72561 0.6962 0.5541 0.0
H819 H 0.71195 0.69308 0.60281 0.0
H820 H 0.72968 0.79943 0.62381 0.0
H821 H 0.74326 0.8034 0.57501 0.0
C822 C 0.81484 0.74682 0.48741 0.0
C823 C 0.82197 0.77638 0.50224 0.0
C824 C 0.7977 0.7413 0.48805 0.0
C825 C 0.78729 0.76556 0.50311 0.0
C826 C 0.79442 0.79478 0.51833 0.0
C827 C 0.81159 0.80013 0.51793 0.0
C828 C 0.76899 0.76045 0.50297 0.0
C829 C 0.76054 0.75922 0.53012 0.0
C830 C 0.75994 0.75573 0.47636 0.0
C831 C 0.76784 0.75937 0.44687 0.0
C832 C 0.77663 0.7909 0.4394 0.0
C833 C 0.78416 0.79405 0.41168 0.0
C834 C 0.78289 0.76597 0.39114 0.0
C835 C 0.77404 0.73471 0.39826 0.0
C836 C 0.7665 0.73139 0.42597 0.0
C837 C 0.68834 0.76192 0.51638 0.0
C838 C 0.68158 0.73008 0.50428 0.0
C839 C 0.70549 0.76756 0.5166 0.0
C840 C 0.71624 0.74158 0.50464 0.0
C841 C 0.70958 0.70998 0.49233 0.0
C842 C 0.69246 0.70415 0.49233 0.0
C843 C 0.73444 0.74741 0.50482 0.0
C844 C 0.74284 0.7488 0.47768 0.0
C845 C 0.7434 0.75263 0.53139 0.0
C846 C 0.73531 0.75024 0.56078 0.0
C847 C 0.72648 0.71905 0.569 0.0
C848 C 0.71877 0.7171 0.59665 0.0
C849 C 0.71991 0.74608 0.61636 0.0
C850 C 0.72879 0.77703 0.6085 0.0
C851 C 0.73651 0.77913 0.58086 0.0
H852 H 0.71394 0.74452 0.63776 0.0
H853 H 0.78873 0.76847 0.36969 0.0
H854 H 0.18057 0.27594 0.53588 0.0
H855 H 0.21056 0.28574 0.53663 0.0
H856 H 0.21699 0.20056 0.47253 0.0
H857 H 0.18706 0.18991 0.47228 0.0
H858 H 0.2394 0.19531 0.51663 0.0
H859 H 0.21954 0.28844 0.45192 0.0
H860 H 0.20216 0.34025 0.43737 0.0
H861 H 0.22227 0.40295 0.50884 0.0
H862 H 0.23962 0.35131 0.52407 0.0
H863 H 0.32236 0.23382 0.47554 0.0
H864 H 0.29239 0.22438 0.47523 0.0
H865 H 0.28637 0.31088 0.53828 0.0
H866 H 0.3163 0.32137 0.53789 0.0
H867 H 0.26371 0.31557 0.49506 0.0
H868 H 0.2837 0.2224 0.55962 0.0
H869 H 0.30109 0.17054 0.57405 0.0
H870 H 0.28072 0.10783 0.50282 0.0
H871 H 0.26337 0.15952 0.48771 0.0
C872 C 0.18838 0.25912 0.52209 0.0
C873 C 0.18141 0.23222 0.50394 0.0
C874 C 0.2055 0.26497 0.52235 0.0
C875 C 0.21601 0.24414 0.50439 0.0
C876 C 0.20911 0.21703 0.48648 0.0
C877 C 0.19199 0.21121 0.48617 0.0
C878 C 0.2342 0.25039 0.50445 0.0
C879 C 0.24473 0.22149 0.51154 0.0
C880 C 0.24113 0.28475 0.49848 0.0
C881 C 0.23075 0.31588 0.48931 0.0
C882 C 0.22016 0.31318 0.46468 0.0
C883 C 0.21033 0.34253 0.45628 0.0
C884 C 0.21107 0.37484 0.47222 0.0
C885 C 0.22169 0.37789 0.49654 0.0
C886 C 0.23153 0.34859 0.50505 0.0
C887 C 0.31466 0.25106 0.48916 0.0
C888 C 0.32176 0.27833 0.50678 0.0
C889 C 0.29753 0.24538 0.48919 0.0
C890 C 0.28713 0.26663 0.50701 0.0
C891 C 0.29415 0.29405 0.52444 0.0
C892 C 0.31129 0.29979 0.5244 0.0
C893 C 0.26893 0.26048 0.50724 0.0
C894 C 0.25839 0.2894 0.5002 0.0
C895 C 0.26198 0.22613 0.51325 0.0
C896 C 0.27235 0.19495 0.52237 0.0
C897 C 0.28302 0.19765 0.5469 0.0
C898 C 0.29286 0.16827 0.55522 0.0
C899 C 0.29204 0.13594 0.53932 0.0
C900 C 0.28135 0.1329 0.5151 0.0
C901 C 0.27151 0.16222 0.50666 0.0
H902 H 0.29966 0.11322 0.5458 0.0
H903 H 0.20346 0.39754 0.46568 0.0
H904 H 0.57104 0.47887 0.12397 0.0
H905 H 0.5686 0.51348 0.16983 0.0
H906 H 0.56486 0.41433 0.21952 0.0
H907 H 0.56708 0.37957 0.17361 0.0
H908 H 0.54379 0.46276 0.24078 0.0
H909 H 0.60146 0.46215 0.2155 0.0
H910 H 0.62585 0.47126 0.18349 0.0
H911 H 0.61472 0.58442 0.17723 0.0
H912 H 0.59011 0.57588 0.20889 0.0
H913 H 0.56948 0.53078 0.38199 0.0
H914 H 0.56656 0.49852 0.33493 0.0
H915 H 0.56449 0.60017 0.2885 0.0
H916 H 0.5674 0.63259 0.33553 0.0
H917 H 0.58758 0.55209 0.26518 0.0
H918 H 0.53029 0.55159 0.29365 0.0
H919 H 0.50629 0.54061 0.32615 0.0
H920 H 0.5176 0.4273 0.32796 0.0
H921 H 0.54182 0.43767 0.29576 0.0
C922 C 0.56969 0.46445 0.14468 0.0
C923 C 0.56938 0.42648 0.1452 0.0
C924 C 0.5683 0.48426 0.17088 0.0
C925 C 0.56683 0.46652 0.19822 0.0
C926 C 0.566 0.42863 0.19872 0.0
C927 C 0.56725 0.40879 0.17246 0.0
C928 C 0.56657 0.48744 0.22632 0.0
C929 C 0.55346 0.482 0.24626 0.0
C930 C 0.57903 0.51306 0.23328 0.0
C931 C 0.59385 0.5183 0.21431 0.0
C932 C 0.60414 0.48892 0.20711 0.0
C933 C 0.61801 0.49399 0.18906 0.0
C934 C 0.6218 0.52838 0.17827 0.0
C935 C 0.61175 0.55779 0.18557 0.0
C936 C 0.59784 0.55285 0.20358 0.0
C937 C 0.56827 0.54622 0.36175 0.0
C938 C 0.56868 0.58419 0.3624 0.0
C939 C 0.5665 0.52779 0.33493 0.0
C940 C 0.56523 0.54696 0.30824 0.0
C941 C 0.56539 0.58488 0.30886 0.0
C942 C 0.56696 0.60335 0.33573 0.0
C943 C 0.56481 0.5274 0.27959 0.0
C944 C 0.57785 0.53302 0.25959 0.0
C945 C 0.55239 0.50169 0.27279 0.0
C946 C 0.53798 0.49548 0.29252 0.0
C947 C 0.52777 0.52438 0.30122 0.0
C948 C 0.51409 0.51825 0.31953 0.0
C949 C 0.51044 0.48327 0.32916 0.0
C950 C 0.52046 0.45437 0.3205 0.0
C951 C 0.53415 0.46036 0.3022 0.0
H952 H 0.49985 0.47851 0.3433 0.0
H953 H 0.63255 0.53225 0.1643 0.0
H954 H 0.44543 0.5391 0.12435 0.0
H955 H 0.44867 0.50461 0.17011 0.0
H956 H 0.42114 0.58593 0.21759 0.0
H957 H 0.41851 0.62132 0.17232 0.0
H958 H 0.44659 0.56418 0.24974 0.0
H959 H 0.40316 0.50558 0.19432 0.0
H960 H 0.39089 0.47546 0.15083 0.0
H961 H 0.42759 0.39171 0.15619 0.0
H962 H 0.44021 0.42162 0.19951 0.0
H963 H 0.41849 0.46793 0.37519 0.0
H964 H 0.42119 0.50169 0.3291 0.0
H965 H 0.44997 0.4149 0.29152 0.0
H966 H 0.4468 0.38028 0.33732 0.0
H967 H 0.42664 0.43751 0.25358 0.0
H968 H 0.46813 0.49456 0.31351 0.0
H969 H 0.47902 0.52516 0.35796 0.0
H970 H 0.44501 0.61278 0.34476 0.0
H971 H 0.43358 0.58236 0.3007 0.0
C972 C 0.44027 0.54994 0.1446 0.0
C973 C 0.43159 0.58292 0.14453 0.0
C974 C 0.44199 0.52997 0.17072 0.0
C975 C 0.43493 0.54237 0.19726 0.0
C976 C 0.42664 0.57569 0.1974 0.0
C977 C 0.42498 0.59573 0.17137 0.0
C978 C 0.43583 0.52047 0.22482 0.0
C979 C 0.44211 0.53657 0.25064 0.0
C980 C 0.43035 0.48413 0.22589 0.0
C981 C 0.42274 0.46605 0.19994 0.0
C982 C 0.40869 0.48089 0.18608 0.0
C983 C 0.40166 0.46383 0.16149 0.0
C984 C 0.40848 0.43175 0.1507 0.0
C985 C 0.42233 0.4166 0.16454 0.0
C986 C 0.42942 0.43358 0.18912 0.0
C987 C 0.42534 0.45589 0.3571 0.0
C988 C 0.43238 0.42128 0.35997 0.0
C989 C 0.42704 0.47544 0.33085 0.0
C990 C 0.43595 0.46105 0.30692 0.0
C991 C 0.4431 0.42663 0.30973 0.0
C992 C 0.44139 0.40699 0.33602 0.0
C993 C 0.43719 0.48138 0.27863 0.0
C994 C 0.43131 0.46497 0.25265 0.0
C995 C 0.44292 0.51753 0.27749 0.0
C996 C 0.4499 0.53601 0.30388 0.0
C997 C 0.46287 0.52021 0.3202 0.0
C998 C 0.46916 0.53754 0.34531 0.0
C999 C 0.46273 0.57087 0.35414 0.0
C1000 C 0.44998 0.58696 0.33789 0.0
C1001 C 0.44358 0.56968 0.31285 0.0
H1002 H 0.46763 0.58424 0.37356 0.0
H1003 H 0.40302 0.41858 0.13166 0.0
H1004 H 0.43181 0.63391 0.83249 0.0
H1005 H 0.43426 0.6025 0.78512 0.0
H1006 H 0.4332 0.49995 0.83031 0.0
H1007 H 0.4312 0.5312 0.8779 0.0
H1008 H 0.45674 0.50149 0.78669 0.0
H1009 H 0.39878 0.53244 0.79663 0.0
H1010 H 0.37528 0.57403 0.80422 0.0
H1011 H 0.38959 0.63433 0.72722 0.0
H1012 H 0.41331 0.59335 0.71941 0.0
H1013 H 0.43385 0.3822 0.67114 0.0
H1014 H 0.4359 0.41847 0.71615 0.0
H1015 H 0.43487 0.51592 0.6639 0.0
H1016 H 0.43238 0.47974 0.61874 0.0
H1017 H 0.41387 0.52049 0.70949 0.0
H1018 H 0.47053 0.48858 0.69698 0.0
H1019 H 0.49462 0.44881 0.68905 0.0
H1020 H 0.48379 0.39255 0.76979 0.0
H1021 H 0.45944 0.43157 0.77797 0.0
C1022 C 0.43232 0.60468 0.83242 0.0
C1023 C 0.43127 0.58507 0.85902 0.0
C1024 C 0.43358 0.58676 0.80528 0.0
C1025 C 0.43373 0.54886 0.80414 0.0
C1026 C 0.43305 0.52921 0.83066 0.0
C1027 C 0.43177 0.54711 0.85782 0.0
C1028 C 0.43428 0.52964 0.77529 0.0
C1029 C 0.44727 0.5053 0.76992 0.0
C1030 C 0.42223 0.53556 0.75303 0.0
C1031 C 0.40791 0.56006 0.75762 0.0
C1032 C 0.39698 0.55473 0.78145 0.0
C1033 C 0.38361 0.57816 0.78577 0.0
C1034 C 0.38097 0.60686 0.76626 0.0
C1035 C 0.39167 0.61212 0.74234 0.0
C1036 C 0.40507 0.58879 0.73794 0.0
C1037 C 0.43405 0.41136 0.6692 0.0
C1038 C 0.43292 0.42807 0.64133 0.0
C1039 C 0.4354 0.43206 0.69495 0.0
C1040 C 0.4357 0.46994 0.69342 0.0
C1041 C 0.43472 0.48673 0.66562 0.0
C1042 C 0.43342 0.46601 0.63981 0.0
C1043 C 0.43622 0.49188 0.72096 0.0
C1044 C 0.42342 0.51677 0.72613 0.0
C1045 C 0.44852 0.48664 0.74293 0.0
C1046 C 0.46306 0.46283 0.73795 0.0
C1047 C 0.47318 0.46751 0.71291 0.0
C1048 C 0.48691 0.44515 0.7084 0.0
C1049 C 0.49073 0.41817 0.72889 0.0
C1050 C 0.48082 0.41347 0.75393 0.0
C1051 C 0.46705 0.43571 0.75852 0.0
H1052 H 0.50139 0.40093 0.72538 0.0
H1053 H 0.37061 0.62498 0.76964 0.0
H1054 H 0.57846 0.37458 0.83282 0.0
H1055 H 0.57688 0.40859 0.78667 0.0
H1056 H 0.56504 0.50531 0.83527 0.0
H1057 H 0.56755 0.47223 0.88181 0.0
H1058 H 0.5441 0.48684 0.78104 0.0
H1059 H 0.60071 0.5038 0.81506 0.0
H1060 H 0.62785 0.48205 0.83276 0.0
H1061 H 0.63399 0.42025 0.75311 0.0
H1062 H 0.60674 0.4412 0.73514 0.0
H1063 H 0.55734 0.61985 0.66914 0.0
H1064 H 0.55541 0.58385 0.71443 0.0
H1065 H 0.58333 0.49847 0.6727 0.0
H1066 H 0.58553 0.53462 0.62768 0.0
H1067 H 0.59556 0.51003 0.72409 0.0
H1068 H 0.54085 0.49219 0.68777 0.0
H1069 H 0.51301 0.50744 0.66907 0.0
H1070 H 0.50207 0.56317 0.75003 0.0
H1071 H 0.52999 0.54892 0.76902 0.0
C1072 C 0.57574 0.40317 0.83391 0.0
C1073 C 0.57327 0.42056 0.86131 0.0
C1074 C 0.57467 0.42246 0.80741 0.0
C1075 C 0.57084 0.45937 0.80765 0.0
C1076 C 0.5679 0.47672 0.8347 0.0
C1077 C 0.56926 0.45763 0.86129 0.0
C1078 C 0.57055 0.4801 0.77967 0.0
C1079 C 0.55532 0.49247 0.76867 0.0
C1080 C 0.58517 0.48613 0.76323 0.0
C1081 C 0.6016 0.47375 0.77391 0.0
C1082 C 0.60777 0.4853 0.80145 0.0
C1083 C 0.62319 0.47317 0.8115 0.0
C1084 C 0.63262 0.4497 0.79411 0.0
C1085 C 0.62666 0.43839 0.76658 0.0
C1086 C 0.61124 0.45039 0.75645 0.0
C1087 C 0.56286 0.5932 0.66954 0.0
C1088 C 0.57167 0.58014 0.64492 0.0
C1089 C 0.56172 0.57257 0.69541 0.0
C1090 C 0.56914 0.53826 0.69701 0.0
C1091 C 0.57758 0.52489 0.67214 0.0
C1092 C 0.57886 0.54561 0.64641 0.0
C1093 C 0.56901 0.51718 0.72506 0.0
C1094 C 0.58423 0.50463 0.73622 0.0
C1095 C 0.55429 0.51043 0.74131 0.0
C1096 C 0.53763 0.51989 0.72967 0.0
C1097 C 0.53261 0.50813 0.70144 0.0
C1098 C 0.51679 0.51654 0.69081 0.0
C1099 C 0.50581 0.5364 0.7083 0.0
C1100 C 0.51061 0.54789 0.73647 0.0
C1101 C 0.52644 0.53968 0.74717 0.0
H1102 H 0.49355 0.54276 0.70007 0.0
H1103 H 0.64455 0.44034 0.80192 0.0
H1104 H 0.04617 0.91273 0.14991 0.0
H1105 H 0.04287 0.94275 0.19757 0.0
H1106 H 0.09592 0.95587 0.20389 0.0
H1107 H 0.09944 0.92276 0.15813 0.0
H1108 H 0.08603 0.94047 0.25431 0.0
H1109 H 0.06617 0.02657 0.18183 0.0
H1110 H 0.04838 0.0482 0.14111 0.0
H1111 H 0.00506 0.03024 0.1943 0.0
H1112 H 0.0226 0.00814 0.23524 0.0
H1113 H 0.09258 0.10283 0.33899 0.0
H1114 H 0.08952 0.06395 0.29583 0.0
H1115 H 0.04619 0.015 0.33439 0.0
H1116 H 0.04967 0.05215 0.37879 0.0
H1117 H 0.0477 0.04439 0.26528 0.0
H1118 H 0.06984 0.96181 0.33939 0.0
H1119 H 0.08937 0.94568 0.37926 0.0
H1120 H 0.13044 0.96271 0.32049 0.0
H1121 H 0.11114 0.97954 0.2804 0.0
C1122 C 0.05719 0.92137 0.16163 0.0
C1123 C 0.07309 0.91548 0.14965 0.0
C1124 C 0.05524 0.93918 0.18878 0.0
C1125 C 0.06911 0.95245 0.20422 0.0
C1126 C 0.08496 0.94616 0.1925 0.0
C1127 C 0.08694 0.92763 0.16586 0.0
C1128 C 0.06736 0.97279 0.23258 0.0
C1129 C 0.07765 0.96323 0.25646 0.0
C1130 C 0.05622 1.00217 0.23602 0.0
C1131 C 0.04568 0.01536 0.21144 0.0
C1132 C 0.05284 0.02702 0.18475 0.0
C1133 C 0.04281 0.0394 0.16165 0.0
C1134 C 0.0256 0.0405 0.16509 0.0
C1135 C 0.01839 0.02931 0.19166 0.0
C1136 C 0.02837 0.01689 0.21482 0.0
C1137 C 0.08251 0.08352 0.33871 0.0
C1138 C 0.07152 0.08048 0.36282 0.0
C1139 C 0.08069 0.0616 0.31377 0.0
C1140 C 0.06767 0.03664 0.31206 0.0
C1141 C 0.05629 0.03426 0.33537 0.0
C1142 C 0.05827 0.05572 0.36067 0.0
C1143 C 0.06654 0.01226 0.2862 0.0
C1144 C 0.05581 0.02118 0.26296 0.0
C1145 C 0.07745 0.98271 0.28307 0.0
C1146 C 0.08906 0.9723 0.30703 0.0
C1147 C 0.08304 0.96248 0.33507 0.0
C1148 C 0.09407 0.95313 0.35768 0.0
C1149 C 0.11114 0.95327 0.35244 0.0
C1150 C 0.11722 0.96266 0.32454 0.0
C1151 C 0.10624 0.97208 0.30186 0.0
H1152 H 0.11966 0.94601 0.36997 0.0
H1153 H 0.01785 0.0501 0.14718 0.0
H1154 H 0.94096 0.88327 0.33297 0.0
H1155 H 0.94382 0.91964 0.28786 0.0
H1156 H 0.93085 0.01543 0.33723 0.0
H1157 H 0.92762 0.97871 0.3821 0.0
H1158 H 0.91391 0.0141 0.28889 0.0
H1159 H 0.971 0.99924 0.31131 0.0
H1160 H 0.99728 0.96846 0.32308 0.0
H1161 H 0.99497 0.91089 0.2407 0.0
H1162 H 0.96852 0.94089 0.22863 0.0
H1163 H 0.93388 0.13474 0.17064 0.0
H1164 H 0.93661 0.10286 0.21801 0.0
H1165 H 0.93663 1.00078 0.17204 0.0
H1166 H 0.93367 0.03248 0.12467 0.0
H1167 H 0.96143 0.00871 0.21942 0.0
H1168 H 0.90265 0.02335 0.20013 0.0
H1169 H 0.87765 0.05901 0.18862 0.0
H1170 H 0.88499 0.12225 0.26721 0.0
H1171 H 0.9102 0.08729 0.27894 0.0
C1172 C 0.93895 0.91217 0.33409 0.0
C1173 C 0.93418 0.92843 0.36077 0.0
C1174 C 0.94065 0.93298 0.30842 0.0
C1175 C 0.93774 0.97044 0.30913 0.0
C1176 C 0.9332 0.98665 0.33608 0.0
C1177 C 0.93141 0.9658 0.36168 0.0
C1178 C 0.93835 0.99225 0.28146 0.0
C1179 C 0.92446 0.01331 0.27403 0.0
C1180 C 0.95198 0.99096 0.26168 0.0
C1181 C 0.96765 0.97204 0.26922 0.0
C1182 C 0.97597 0.97968 0.29586 0.0
C1183 C 0.99093 0.96245 0.30255 0.0
C1184 C 0.99777 0.93767 0.28268 0.0
C1185 C 0.98965 0.93005 0.25609 0.0
C1186 C 0.97467 0.94717 0.24931 0.0
C1187 C 0.9347 0.10553 0.17066 0.0
C1188 C 0.93353 0.08603 0.14406 0.0
C1189 C 0.93619 0.08739 0.19768 0.0
C1190 C 0.93676 0.0495 0.19847 0.0
C1191 C 0.93623 0.03003 0.17185 0.0
C1192 C 0.93446 0.04812 0.14489 0.0
C1193 C 0.93703 0.03004 0.22711 0.0
C1194 C 0.95101 0.00947 0.23456 0.0
C1195 C 0.92363 0.03215 0.24715 0.0
C1196 C 0.90841 0.05299 0.24022 0.0
C1197 C 0.89902 0.04508 0.21481 0.0
C1198 C 0.88479 0.06512 0.20827 0.0
C1199 C 0.87976 0.09295 0.22712 0.0
C1200 C 0.88892 0.10073 0.2526 0.0
C1201 C 0.90317 0.0808 0.25921 0.0
H1202 H 0.86874 0.10843 0.22203 0.0
H1203 H 0.00937 0.92443 0.28787 0.0
H1204 H 0.92606 0.87799 0.66901 0.0
H1205 H 0.92735 0.91146 0.71567 0.0
H1206 H 0.93773 0.00962 0.6678 0.0
H1207 H 0.93656 0.97622 0.62098 0.0
H1208 H 0.95763 1.00001 0.71918 0.0
H1209 H 0.8999 0.99621 0.69056 0.0
H1210 H 0.87402 0.96578 0.67554 0.0
H1211 H 0.87413 0.90475 0.75631 0.0
H1212 H 0.90015 0.93446 0.77161 0.0
H1213 H 0.93955 0.12721 0.8329 0.0
H1214 H 0.94152 0.09257 0.7869 0.0
H1215 H 0.92159 0.999 0.83138 0.0
H1216 H 0.91919 0.03388 0.87713 0.0
H1217 H 0.90702 0.00551 0.78131 0.0
H1218 H 0.96351 0.00854 0.81183 0.0
H1219 H 0.98984 0.03578 0.82792 0.0
H1220 H 0.99346 0.09326 0.74568 0.0
H1221 H 0.96683 0.06712 0.7294 0.0
C1222 C 0.92884 0.9066 0.66843 0.0
C1223 C 0.93116 0.9245 0.64131 0.0
C1224 C 0.92947 0.92572 0.69509 0.0
C1225 C 0.93251 0.96306 0.69515 0.0
C1226 C 0.93534 0.98083 0.66821 0.0
C1227 C 0.93456 0.96178 0.6415 0.0
C1228 C 0.93213 0.98377 0.72326 0.0
C1229 C 0.94654 1.00166 0.73266 0.0
C1230 C 0.91777 0.98496 0.74117 0.0
C1231 C 0.90206 0.96731 0.73209 0.0
C1232 C 0.89448 0.9761 0.70501 0.0
C1233 C 0.87977 0.95902 0.69647 0.0
C1234 C 0.87246 0.93328 0.71492 0.0
C1235 C 0.87982 0.92465 0.74201 0.0
C1236 C 0.89453 0.94163 0.75064 0.0
C1237 C 0.93576 0.09914 0.83289 0.0
C1238 C 0.92921 0.08324 0.85858 0.0
C1239 C 0.93692 0.07931 0.8066 0.0
C1240 C 0.93187 0.04296 0.80564 0.0
C1241 C 0.92552 0.02698 0.83145 0.0
C1242 C 0.92415 0.04692 0.8576 0.0
C1243 C 0.93259 0.02191 0.77756 0.0
C1244 C 0.91819 0.00394 0.76803 0.0
C1245 C 0.94705 0.02026 0.75979 0.0
C1246 C 0.96306 0.03615 0.76952 0.0
C1247 C 0.96982 0.02726 0.79727 0.0
C1248 C 0.98483 0.04247 0.80641 0.0
C1249 C 0.99335 0.06623 0.78783 0.0
C1250 C 0.98684 0.07487 0.76007 0.0
C1251 C 0.97177 0.05991 0.75089 0.0
H1252 H 0.00499 0.07794 0.79491 0.0
H1253 H 0.86107 0.92009 0.70827 0.0
H1254 H 0.08063 0.97298 0.87973 0.0
H1255 H 0.07812 0.00647 0.83321 0.0
H1256 H 0.06281 0.90903 0.78856 0.0
H1257 H 0.06532 0.87533 0.83506 0.0
H1258 H 0.08815 0.94753 0.75916 0.0
H1259 H 0.03468 0.97034 0.80254 0.0
H1260 H 0.01604 0.98946 0.84281 0.0
H1261 H 0.03735 0.09573 0.84111 0.0
H1262 H 0.05633 0.07707 0.80114 0.0
H1263 H 0.06733 0.02975 0.6232 0.0
H1264 H 0.06571 0.99526 0.66924 0.0
H1265 H 0.07325 0.0931 0.7194 0.0
H1266 H 0.07459 0.12779 0.6734 0.0
H1267 H 0.05094 0.05303 0.74595 0.0
H1268 H 0.10509 0.03228 0.70641 0.0
H1269 H 0.12578 0.01497 0.66887 0.0
H1270 H 0.10547 0.9078 0.66564 0.0
H1271 H 0.08449 0.92464 0.70289 0.0
C1272 C 0.07669 0.95873 0.86 0.0
C1273 C 0.07316 0.92155 0.86101 0.0
C1274 C 0.07518 0.97792 0.83351 0.0
C1275 C 0.0702 0.96025 0.80749 0.0
C1276 C 0.06663 0.92316 0.80842 0.0
C1277 C 0.06796 0.90402 0.835 0.0
C1278 C 0.06921 0.98035 0.77915 0.0
C1279 C 0.07982 0.97021 0.75603 0.0
C1280 C 0.05872 0.01065 0.77553 0.0
C1281 C 0.04705 0.02218 0.79906 0.0
C1282 C 0.03548 0.9977 0.81091 0.0
C1283 C 0.02487 0.00845 0.83369 0.0
C1284 C 0.02559 0.04371 0.84465 0.0
C1285 C 0.03686 0.06838 0.83269 0.0
C1286 C 0.04753 0.05774 0.80994 0.0
C1287 C 0.06862 0.04389 0.64406 0.0
C1288 C 0.07119 0.08145 0.64467 0.0
C1289 C 0.06772 0.02416 0.67036 0.0
C1290 C 0.06965 0.04145 0.69783 0.0
C1291 C 0.07173 0.07912 0.69851 0.0
C1292 C 0.07247 0.09893 0.6722 0.0
C1293 C 0.0699 0.02022 0.72578 0.0
C1294 C 0.0592 0.03019 0.7489 0.0
C1295 C 0.08052 0.99007 0.72961 0.0
C1296 C 0.0931 0.97985 0.70719 0.0
C1297 C 0.10494 0.00511 0.69751 0.0
C1298 C 0.11674 0.99537 0.67632 0.0
C1299 C 0.11691 0.96034 0.66481 0.0
C1300 C 0.1053 0.93495 0.67453 0.0
C1301 C 0.09346 0.94457 0.6957 0.0
H1302 H 0.12605 0.95284 0.64841 0.0
H1303 H 0.01735 0.052 0.86226 0.0
H1304 H 0.48615 0.84729 0.03009 0.0
H1305 H 0.50175 0.90395 0.03115 0.0
H1306 H 0.4641 0.9547 0.97754 0.0
H1307 H 0.44859 0.89796 0.97607 0.0
H1308 H 0.49346 0.97312 0.95806 0.0
H1309 H 0.46755 0.9702 0.05343 0.0
H1310 H 0.46011 0.94429 0.10189 0.0
H1311 H 0.51157 0.93963 0.12597 0.0
H1312 H 0.51934 0.96506 0.07747 0.0
H1313 H 0.51647 0.15572 0.98365 0.0
H1314 H 0.50154 0.09833 0.98331 0.0
H1315 H 0.54236 0.04715 0.02841 0.0
H1316 H 0.55761 0.10427 0.02825 0.0
H1317 H 0.5119 0.02886 0.05236 0.0
H1318 H 0.53738 0.03324 0.95638 0.0
H1319 H 0.5442 0.06047 0.90812 0.0
H1320 H 0.49251 0.06388 0.88554 0.0
H1321 H 0.48536 0.03714 0.93387 0.0
C1322 C 0.48114 0.87061 0.01872 0.0
C1323 C 0.46611 0.86817 0.00306 0.0
C1324 C 0.49006 0.90301 0.01935 0.0
C1325 C 0.48401 0.93382 0.00474 0.0
C1326 C 0.46905 0.93134 0.98895 0.0
C1327 C 0.4602 0.89887 0.98809 0.0
C1328 C 0.49334 0.96851 0.00559 0.0
C1329 C 0.49728 0.98551 0.97873 0.0
C1330 C 0.49867 0.9844 0.03249 0.0
C1331 C 0.49403 0.9692 0.0617 0.0
C1332 C 0.47729 0.96339 0.06897 0.0
C1333 C 0.47301 0.94884 0.09646 0.0
C1334 C 0.48537 0.94023 0.11696 0.0
C1335 C 0.50202 0.94626 0.11005 0.0
C1336 C 0.50637 0.96077 0.08257 0.0
C1337 C 0.5224 0.13222 0.99321 0.0
C1338 C 0.53833 0.13469 0.00582 0.0
C1339 C 0.51379 0.09944 0.99311 0.0
C1340 C 0.5209 0.0684 0.0056 0.0
C1341 C 0.53664 0.07081 0.01869 0.0
C1342 C 0.54531 0.10356 0.01867 0.0
C1343 C 0.51191 0.03339 0.00489 0.0
C1344 C 0.50805 0.01637 0.03174 0.0
C1345 C 0.50655 0.01762 0.97801 0.0
C1346 C 0.51083 0.03351 0.94886 0.0
C1347 C 0.52746 0.04006 0.94122 0.0
C1348 C 0.53139 0.05536 0.91384 0.0
C1349 C 0.51879 0.06398 0.89381 0.0
C1350 C 0.50225 0.05723 0.90109 0.0
C1351 C 0.49825 0.04198 0.92847 0.0
H1352 H 0.52186 0.07582 0.87261 0.0
H1353 H 0.48203 0.92897 0.13824 0.0
H1354 H 0.56045 0.90482 0.49638 0.0
H1355 H 0.54491 0.96159 0.49565 0.0
H1356 H 0.49941 0.90297 0.51002 0.0
H1357 H 0.51484 0.84602 0.51028 0.0
H1358 H 0.49649 0.95445 0.46615 0.0
H1359 H 0.51725 0.94774 0.56617 0.0
H1360 H 0.539 0.94143 0.60419 0.0
H1361 H 0.56341 0.03623 0.57106 0.0
H1362 H 0.54191 0.04281 0.53257 0.0
H1363 H 0.4439 0.10059 0.50015 0.0
H1364 H 0.45974 0.04481 0.50087 0.0
H1365 H 0.50531 0.10582 0.50215 0.0
H1366 H 0.48955 0.16186 0.50422 0.0
H1367 H 0.50871 0.05295 0.53734 0.0
H1368 H 0.48899 0.06101 0.43762 0.0
H1369 H 0.46822 0.06794 0.39796 0.0
H1370 H 0.44326 0.97209 0.42757 0.0
H1371 H 0.46376 0.96484 0.46766 0.0
C1372 C 0.54712 0.90399 0.4992 0.0
C1373 C 0.53888 0.87088 0.50344 0.0
C1374 C 0.53827 0.93648 0.499 0.0
C1375 C 0.52101 0.93655 0.50303 0.0
C1376 C 0.51273 0.90355 0.50695 0.0
C1377 C 0.52158 0.87106 0.50733 0.0
C1378 C 0.51157 0.97101 0.50303 0.0
C1379 C 0.49901 0.97587 0.48193 0.0
C1380 C 0.51521 0.99934 0.52303 0.0
C1381 C 0.52806 0.99556 0.54632 0.0
C1382 C 0.52732 0.96708 0.56686 0.0
C1383 C 0.53959 0.96348 0.58851 0.0
C1384 C 0.5526 0.98836 0.58999 0.0
C1385 C 0.55334 0.01695 0.56987 0.0
C1386 C 0.54111 0.02065 0.54814 0.0
C1387 C 0.45728 0.10238 0.5011 0.0
C1388 C 0.46534 0.13613 0.50217 0.0
C1389 C 0.46637 0.07024 0.50096 0.0
C1390 C 0.48379 0.07089 0.50092 0.0
C1391 C 0.4919 0.10445 0.50199 0.0
C1392 C 0.48281 0.13663 0.50277 0.0
C1393 C 0.49353 0.03663 0.50038 0.0
C1394 C 0.50617 0.03172 0.52143 0.0
C1395 C 0.49011 0.00842 0.48002 0.0
C1396 C 0.47783 0.01257 0.4558 0.0
C1397 C 0.47901 0.04154 0.43579 0.0
C1398 C 0.46729 0.0455 0.41321 0.0
C1399 C 0.45441 0.02052 0.41029 0.0
C1400 C 0.45324 0.99144 0.42988 0.0
C1401 C 0.46492 0.98737 0.45251 0.0
H1402 H 0.44535 0.02364 0.39281 0.0
H1403 H 0.56209 0.98552 0.60677 0.0
H1404 H 0.05669 0.60379 0.9807 0.0
H1405 H 0.04066 0.54778 0.98041 0.0
H1406 H 1.00134 0.60063 0.02845 0.0
H1407 H 0.01743 0.65671 0.02909 0.0
H1408 H 0.00643 0.53572 0.05049 0.0
H1409 H 0.9985 0.58328 0.95312 0.0
H1410 H 0.00692 0.60789 0.90473 0.0
H1411 H 0.03324 0.50991 0.88533 0.0
H1412 H 0.02516 0.48489 0.9338 0.0
H1413 H 0.94473 0.40202 0.0221 0.0
H1414 H 0.96048 0.45839 0.02314 0.0
H1415 H 0.00212 0.40462 0.98274 0.0
H1416 H 0.98663 0.34787 0.98223 0.0
H1417 H 0.99536 0.47027 0.95672 0.0
H1418 H 0.00294 0.42333 0.05503 0.0
H1419 H 0.99379 0.39933 0.1032 0.0
H1420 H 0.96702 0.49736 0.12033 0.0
H1421 H 0.97583 0.52176 0.07204 0.0
C1422 C 0.04458 0.60357 0.99103 0.0
C1423 C 0.0383 0.63479 0.00477 0.0
C1424 C 0.03541 0.57151 0.99084 0.0
C1425 C 0.01965 0.57006 0.004 0.0
C1426 C 0.01345 0.60105 0.01812 0.0
C1427 C 0.02268 0.63308 0.01852 0.0
C1428 C 0.0097 0.53617 0.00319 0.0
C1429 C 0.00381 0.52173 0.02992 0.0
C1430 C 0.00651 0.51743 0.97643 0.0
C1431 C 0.01136 0.53235 0.94722 0.0
C1432 C 0.00619 0.56709 0.93863 0.0
C1433 C 0.01088 0.5811 0.91117 0.0
C1434 C 0.02064 0.56052 0.892 0.0
C1435 C 0.0257 0.52584 0.90022 0.0
C1436 C 0.02105 0.51172 0.92767 0.0
C1437 C 0.95731 0.40197 0.01376 0.0
C1438 C 0.9644 0.37021 1.00218 0.0
C1439 C 0.96628 0.43432 0.01426 0.0
C1440 C 0.98253 0.43566 0.00322 0.0
C1441 C 0.98958 0.40422 0.99131 0.0
C1442 C 0.98066 0.37181 0.99093 0.0
C1443 C 0.99216 0.46989 0.00399 0.0
C1444 C 0.99797 0.48436 0.97725 0.0
C1445 C 0.99516 0.48879 0.03069 0.0
C1446 C 0.98991 0.47422 0.05978 0.0
C1447 C 0.99499 0.43965 0.06896 0.0
C1448 C 0.98989 0.426 0.0963 0.0
C1449 C 0.9798 0.44676 0.11478 0.0
C1450 C 0.97482 0.48128 0.10598 0.0
C1451 C 0.97988 0.49505 0.07863 0.0
H1452 H 0.97586 0.43614 0.13595 0.0
H1453 H 0.02426 0.57141 0.87074 0.0
H1454 H 0.05126 0.39441 0.54037 0.0
H1455 H 0.03595 0.45135 0.53983 0.0
H1456 H 0.00606 0.4124 0.46735 0.0
H1457 H 0.02136 0.35536 0.46774 0.0
H1458 H 0.01541 0.48045 0.45773 0.0
H1459 H 0.99095 0.4156 0.5386 0.0
H1460 H 0.99088 0.38139 0.58539 0.0
H1461 H 0.01263 0.47187 0.63049 0.0
H1462 H 0.01304 0.50647 0.58386 0.0
H1463 H 0.95227 0.61394 0.46605 0.0
H1464 H 0.96765 0.55706 0.46627 0.0
H1465 H 0.99776 0.5959 0.5385 0.0
H1466 H 0.98242 0.65289 0.5384 0.0
H1467 H 0.98824 0.52786 0.5482 0.0
H1468 H 0.0127 0.59269 0.46726 0.0
H1469 H 0.01274 0.62686 0.42045 0.0
H1470 H 0.99094 0.53636 0.37546 0.0
H1471 H 0.99056 0.5018 0.42212 0.0
C1472 C 0.04133 0.39781 0.52449 0.0
C1473 C 0.03749 0.37021 0.50419 0.0
C1474 C 0.03259 0.43042 0.52418 0.0
C1475 C 0.01969 0.43605 0.5038 0.0
C1476 C 0.01596 0.40873 0.48328 0.0
C1477 C 0.02474 0.37614 0.48349 0.0
C1478 C 0.01017 0.4705 0.50373 0.0
C1479 C 0.00928 0.49055 0.47742 0.0
C1480 C 0.00248 0.48418 0.52957 0.0
C1481 C 0.00217 0.4635 0.55767 0.0
C1482 C 0.99583 0.42811 0.55845 0.0
C1483 C 0.99571 0.40866 0.58495 0.0
C1484 C 1.00179 0.42441 0.61088 0.0
C1485 C 0.00795 0.45968 0.61038 0.0
C1486 C 0.00811 0.47924 0.58393 0.0
C1487 C 0.96227 0.61054 0.48179 0.0
C1488 C 0.96614 0.63808 0.50213 0.0
C1489 C 0.97105 0.57796 0.48192 0.0
C1490 C 0.98401 0.57231 0.50218 0.0
C1491 C 0.98781 0.5996 0.52268 0.0
C1492 C 0.97899 0.63215 0.52264 0.0
C1493 C 0.99349 0.53782 0.50221 0.0
C1494 C 0.99438 0.51775 0.52851 0.0
C1495 C 1.00117 0.52412 0.47636 0.0
C1496 C 1.00145 0.54479 0.44825 0.0
C1497 C 0.0078 0.58017 0.44744 0.0
C1498 C 0.0079 0.59959 0.42092 0.0
C1499 C 1.0018 0.58382 0.39501 0.0
C1500 C 0.99563 0.54856 0.39555 0.0
C1501 C 0.99548 0.52903 0.42202 0.0
H1502 H 1.0019 0.5989 0.37451 0.0
H1503 H 1.00169 0.40931 0.63138 0.0
loop_
_geom_bond_atom_site_label_1
_geom_bond_atom_site_label_2
_geom_bond_distance
_geom_bond_site_symmetry_2
_ccdc_geom_bond_type
Li0 N17 1.990 . S
Li0 O60 1.936 1_554 S
Li0 O61 1.970 . S
Li0 O62 1.986 . S
Li1 N25 1.991 . S
Li1 O60 1.969 1_554 S
Li1 O61 1.983 . S
Li1 O63 1.933 1_554 S
Li2 N47 1.990 . S
Li2 O60 1.980 . S
Li2 O62 1.930 1_556 S
Li2 O63 1.970 . S
Li3 N53 1.991 . S
Li3 O61 1.939 1_556 S
Li3 O62 1.969 1_556 S
Li3 O63 1.977 . S
C4 C6 1.346 . S
C4 C7 1.357 1_554 S
C4 O60 1.324 1_554 S
N5 C8 1.314 . S
N5 C9 1.279 1_554 S
C6 C4 1.346 . S
C6 C8 1.353 . S
C6 H64 0.929 . S
C7 C4 1.357 1_556 S
C7 C9 1.358 . S
C7 H65 0.930 . S
C8 N5 1.314 . S
C8 C6 1.353 . S
C8 H66 0.930 . S
C9 N5 1.279 1_556 S
C9 C7 1.358 . S
C9 H67 0.930 . S
C10 C13 1.348 . S
C10 C14 1.356 . S
C10 O61 1.325 . S
C11 N12 1.279 . S
C11 C14 1.358 . S
C11 H68 0.930 . S
N12 C11 1.279 . S
N12 C15 1.314 . S
C13 C10 1.348 . S
C13 C15 1.353 . S
C13 H69 0.929 . S
C14 C10 1.356 . S
C14 C11 1.358 . S
C14 H70 0.930 . S
C15 N12 1.314 . S
C15 C13 1.353 . S
C15 H71 0.930 . S
C16 N17 1.314 . S
C16 C21 1.353 . S
C16 H22 0.930 . S
N17 Li0 1.990 . S
N17 C16 1.314 . S
N17 C19 1.279 . S
C18 C19 1.358 . S
C18 C20 1.356 . S
C18 H72 0.930 . S
C19 N17 1.279 . S
C19 C18 1.358 . S
C19 H23 0.930 . S
C20 C18 1.356 . S
C20 C21 1.348 . S
C21 C16 1.353 . S
C21 C20 1.348 . S
C21 H73 0.929 . S
H22 C16 0.930 . S
H23 C19 0.930 . S
C24 N25 1.314 1_556 S
C24 C26 1.353 . S
C24 H30 0.930 . S
N25 Li1 1.991 . S
N25 C24 1.314 1_554 S
N25 C28 1.279 . S
C26 C24 1.353 . S
C26 C29 1.345 1_556 S
C26 H74 0.929 . S
C27 C28 1.358 . S
C27 C29 1.359 . S
C27 H75 0.930 . S
C28 N25 1.279 . S
C28 C27 1.358 . S
C28 H31 0.930 . S
C29 C26 1.345 1_554 S
C29 C27 1.359 . S
H30 C24 0.930 . S
H31 C28 0.930 . S
C32 C34 1.346 1_554 S
C32 C35 1.357 . S
C32 O62 1.324 . S
N33 C36 1.314 . S
N33 C37 1.279 1_556 S
C34 C32 1.346 1_556 S
C34 C36 1.353 . S
C34 H76 0.929 . S
C35 C32 1.357 . S
C35 C37 1.358 . S
C35 H77 0.930 . S
C36 N33 1.314 . S
C36 C34 1.353 . S
C36 H78 0.930 . S
C37 N33 1.279 1_554 S
C37 C35 1.358 . S
C37 H79 0.930 . S
C38 C39 1.348 . S
C38 C40 1.356 . S
C38 O63 1.325 . S
C39 C38 1.348 . S
C39 C41 1.353 . S
C39 H80 0.929 . S
C40 C38 1.356 . S
C40 C42 1.358 . S
C40 H81 0.930 . S
C41 C39 1.353 . S
C41 N43 1.314 . S
C41 H82 0.930 . S
C42 C40 1.358 . S
C42 N43 1.279 . S
C42 H83 0.930 . S
N43 C41 1.314 . S
N43 C42 1.279 . S
C44 C46 1.353 . S
C44 N47 1.314 . S
C44 H50 0.930 . S
C45 N47 1.279 . S
C45 C48 1.358 . S
C45 H51 0.930 . S
C46 C44 1.353 . S
C46 C49 1.348 . S
C46 H84 0.929 . S
N47 Li2 1.990 . S
N47 C44 1.314 . S
N47 C45 1.279 . S
C48 C45 1.358 . S
C48 C49 1.356 . S
C48 H85 0.930 . S
C49 C46 1.348 . S
C49 C48 1.356 . S
H50 C44 0.930 . S
H51 C45 0.930 . S
C52 N53 1.314 1_554 S
C52 C54 1.353 . S
C52 H58 0.930 . S
N53 Li3 1.991 . S
N53 C52 1.314 1_556 S
N53 C56 1.279 . S
C54 C52 1.353 . S
C54 C57 1.345 . S
C54 H86 0.929 . S
C55 C56 1.358 . S
C55 C57 1.359 1_556 S
C55 H87 0.930 . S
C56 N53 1.279 . S
C56 C55 1.358 . S
C56 H59 0.930 . S
C57 C54 1.345 . S
C57 C55 1.359 1_554 S
H58 C52 0.930 . S
H59 C56 0.930 . S
O60 Li0 1.936 1_556 S
O60 Li1 1.969 1_556 S
O60 Li2 1.980 . S
O60 C4 1.324 1_556 S
O61 Li0 1.970 . S
O61 Li1 1.983 . S
O61 Li3 1.939 1_554 S
O61 C10 1.325 . S
O62 Li0 1.986 . S
O62 Li2 1.930 1_554 S
O62 Li3 1.969 1_554 S
O62 C32 1.324 . S
O63 Li1 1.933 1_556 S
O63 Li2 1.970 . S
O63 Li3 1.977 . S
O63 C38 1.325 . S
H64 C6 0.929 . S
H65 C7 0.930 . S
H66 C8 0.930 . S
H67 C9 0.930 . S
H68 C11 0.930 . S
H69 C13 0.929 . S
H70 C14 0.930 . S
H71 C15 0.930 . S
H72 C18 0.930 . S
H73 C21 0.929 . S
H74 C26 0.929 . S
H75 C27 0.930 . S
H76 C34 0.929 . S
H77 C35 0.930 . S
H78 C36 0.930 . S
H79 C37 0.930 . S
H80 C39 0.929 . S
H81 C40 0.930 . S
H82 C41 0.930 . S
H83 C42 0.930 . S
H84 C46 0.929 . S
H85 C48 0.930 . S
H86 C54 0.929 . S
H87 C55 0.930 . S
Li88 N105 1.991 . S
Li88 O148 1.983 . S
Li88 O149 1.969 1_554 S
Li88 O150 1.933 1_554 S
Li89 N113 1.990 . S
Li89 O148 1.970 . S
Li89 O149 1.936 1_554 S
Li89 O151 1.986 . S
Li90 N135 1.991 . S
Li90 O148 1.939 1_556 S
Li90 O150 1.977 . S
Li90 O151 1.969 1_556 S
Li91 N141 1.990 . S
Li91 O149 1.980 . S
Li91 O150 1.970 . S
Li91 O151 1.930 1_556 S
C92 C94 1.348 . S
C92 C95 1.356 . S
C92 O148 1.325 . S
N93 C96 1.314 . S
N93 C97 1.279 . S
C94 C92 1.348 . S
C94 C96 1.353 . S
C94 H152 0.929 . S
C95 C92 1.356 . S
C95 C97 1.358 . S
C95 H153 0.930 . S
C96 N93 1.314 . S
C96 C94 1.353 . S
C96 H154 0.930 . S
C97 N93 1.279 . S
C97 C95 1.358 . S
C97 H155 0.930 . S
C98 C101 1.346 . S
C98 C102 1.357 1_554 S
C98 O149 1.324 1_554 S
C99 N100 1.279 1_556 S
C99 C102 1.358 . S
C99 H156 0.930 . S
N100 C99 1.279 1_554 S
N100 C103 1.314 . S
C101 C98 1.346 . S
C101 C103 1.353 . S
C101 H157 0.929 . S
C102 C98 1.357 1_556 S
C102 C99 1.358 . S
C102 H158 0.930 . S
C103 N100 1.314 . S
C103 C101 1.353 . S
C103 H159 0.930 . S
C104 N105 1.314 1_556 S
C104 C109 1.353 . S
C104 H110 0.930 . S
N105 Li88 1.991 . S
N105 C104 1.314 1_554 S
N105 C107 1.279 . S
C106 C107 1.358 . S
C106 C108 1.359 . S
C106 H160 0.930 . S
C107 N105 1.279 . S
C107 C106 1.358 . S
C107 H111 0.930 . S
C108 C106 1.359 . S
C108 C109 1.345 1_554 S
C109 C104 1.353 . S
C109 C108 1.345 1_556 S
C109 H161 0.929 . S
H110 C104 0.930 . S
H111 C107 0.930 . S
C112 N113 1.314 . S
C112 C114 1.353 . S
C112 H118 0.930 . S
N113 Li89 1.990 . S
N113 C112 1.314 . S
N113 C116 1.279 . S
C114 C112 1.353 . S
C114 C117 1.348 . S
C114 H162 0.929 . S
C115 C116 1.358 . S
C115 C117 1.356 . S
C115 H163 0.930 . S
C116 N113 1.279 . S
C116 C115 1.358 . S
C116 H119 0.930 . S
C117 C114 1.348 . S
C117 C115 1.356 . S
H118 C112 0.930 . S
H119 C116 0.930 . S
C120 C122 1.348 . S
C120 C123 1.356 . S
C120 O150 1.325 . S
N121 C124 1.314 . S
N121 C125 1.279 . S
C122 C120 1.348 . S
C122 C124 1.353 . S
C122 H164 0.929 . S
C123 C120 1.356 . S
C123 C125 1.358 . S
C123 H165 0.930 . S
C124 N121 1.314 . S
C124 C122 1.353 . S
C124 H166 0.930 . S
C125 N121 1.279 . S
C125 C123 1.358 . S
C125 H167 0.930 . S
C126 C127 1.346 1_554 S
C126 C128 1.357 . S
C126 O151 1.324 . S
C127 C126 1.346 1_556 S
C127 C129 1.353 . S
C127 H168 0.929 . S
C128 C126 1.357 . S
C128 C130 1.358 . S
C128 H169 0.930 . S
C129 C127 1.353 . S
C129 N131 1.314 . S
C129 H170 0.930 . S
C130 C128 1.358 . S
C130 N131 1.279 1_554 S
C130 H171 0.930 . S
N131 C129 1.314 . S
N131 C130 1.279 1_556 S
C132 C134 1.353 . S
C132 N135 1.314 1_554 S
C132 H138 0.930 . S
C133 N135 1.279 . S
C133 C136 1.358 . S
C133 H139 0.930 . S
C134 C132 1.353 . S
C134 C137 1.345 . S
C134 H172 0.929 . S
N135 Li90 1.991 . S
N135 C132 1.314 1_556 S
N135 C133 1.279 . S
C136 C133 1.358 . S
C136 C137 1.359 1_556 S
C136 H173 0.930 . S
C137 C134 1.345 . S
C137 C136 1.359 1_554 S
H138 C132 0.930 . S
H139 C133 0.930 . S
C140 N141 1.314 . S
C140 C142 1.353 . S
C140 H146 0.930 . S
N141 Li91 1.990 . S
N141 C140 1.314 . S
N141 C144 1.279 . S
C142 C140 1.353 . S
C142 C145 1.348 . S
C142 H174 0.929 . S
C143 C144 1.358 . S
C143 C145 1.356 . S
C143 H175 0.930 . S
C144 N141 1.279 . S
C144 C143 1.358 . S
C144 H147 0.930 . S
C145 C142 1.348 . S
C145 C143 1.356 . S
H146 C140 0.930 . S
H147 C144 0.930 . S
O148 Li88 1.983 . S
O148 Li89 1.970 . S
O148 Li90 1.939 1_554 S
O148 C92 1.325 . S
O149 Li88 1.969 1_556 S
O149 Li89 1.936 1_556 S
O149 Li91 1.980 . S
O149 C98 1.324 1_556 S
O150 Li88 1.933 1_556 S
O150 Li90 1.977 . S
O150 Li91 1.970 . S
O150 C120 1.325 . S
O151 Li89 1.986 . S
O151 Li90 1.969 1_554 S
O151 Li91 1.930 1_554 S
O151 C126 1.324 . S
H152 C94 0.929 . S
H153 C95 0.930 . S
H154 C96 0.930 . S
H155 C97 0.930 . S
H156 C99 0.930 . S
H157 C101 0.929 . S
H158 C102 0.930 . S
H159 C103 0.930 . S
H160 C106 0.930 . S
H161 C109 0.929 . S
H162 C114 0.929 . S
H163 C115 0.930 . S
H164 C122 0.929 . S
H165 C123 0.930 . S
H166 C124 0.930 . S
H167 C125 0.930 . S
H168 C127 0.929 . S
H169 C128 0.930 . S
H170 C129 0.930 . S
H171 C130 0.930 . S
H172 C134 0.929 . S
H173 C136 0.930 . S
H174 C142 0.929 . S
H175 C143 0.930 . S
Li176 N193 1.990 . S
Li176 O236 1.956 . S
Li176 O237 1.970 . S
Li176 O238 1.961 . S
Li177 N201 1.990 . S
Li177 O236 1.970 . S
Li177 O237 1.956 . S
Li177 O239 1.961 . S
Li178 N223 1.990 . S
Li178 O236 1.961 . S
Li178 O238 1.956 . S
Li178 O239 1.970 . S
Li179 N229 1.990 . S
Li179 O237 1.961 . S
Li179 O238 1.970 . S
Li179 O239 1.956 . S
C180 C182 1.348 . S
C180 C183 1.356 . S
C180 O236 1.325 . S
N181 C184 1.314 . S
N181 C185 1.279 . S
C182 C180 1.348 . S
C182 C184 1.353 . S
C182 H240 0.929 . S
C183 C180 1.356 . S
C183 C185 1.358 . S
C183 H241 0.930 . S
C184 N181 1.314 . S
C184 C182 1.353 . S
C184 H242 0.930 . S
C185 N181 1.279 . S
C185 C183 1.358 . S
C185 H243 0.930 . S
C186 C189 1.348 . S
C186 C190 1.356 . S
C186 O237 1.325 . S
C187 N188 1.279 . S
C187 C190 1.358 . S
C187 H244 0.930 . S
N188 C187 1.279 . S
N188 C191 1.314 . S
C189 C186 1.348 . S
C189 C191 1.353 . S
C189 H245 0.929 . S
C190 C186 1.356 . S
C190 C187 1.358 . S
C190 H246 0.930 . S
C191 N188 1.314 . S
C191 C189 1.353 . S
C191 H247 0.930 . S
C192 N193 1.314 . S
C192 C197 1.353 . S
C192 H198 0.930 . S
N193 Li176 1.990 . S
N193 C192 1.314 . S
N193 C195 1.279 . S
C194 C195 1.358 . S
C194 C196 1.356 . S
C194 H248 0.930 . S
C195 N193 1.279 . S
C195 C194 1.358 . S
C195 H199 0.930 . S
C196 C194 1.356 . S
C196 C197 1.348 . S
C197 C192 1.353 . S
C197 C196 1.348 . S
C197 H249 0.929 . S
H198 C192 0.930 . S
H199 C195 0.930 . S
C200 N201 1.314 . S
C200 C202 1.353 . S
C200 H206 0.930 . S
N201 Li177 1.990 . S
N201 C200 1.314 . S
N201 C204 1.279 . S
C202 C200 1.353 . S
C202 C205 1.348 . S
C202 H250 0.929 . S
C203 C204 1.358 . S
C203 C205 1.356 . S
C203 H251 0.930 . S
C204 N201 1.279 . S
C204 C203 1.358 . S
C204 H207 0.930 . S
C205 C202 1.348 . S
C205 C203 1.356 . S
H206 C200 0.930 . S
H207 C204 0.930 . S
C208 C210 1.348 . S
C208 C211 1.356 . S
C208 O238 1.325 . S
N209 C212 1.314 . S
N209 C213 1.279 . S
C210 C208 1.348 . S
C210 C212 1.353 . S
C210 H252 0.929 . S
C211 C208 1.356 . S
C211 C213 1.358 . S
C211 H253 0.930 . S
C212 N209 1.314 . S
C212 C210 1.353 . S
C212 H254 0.930 . S
C213 N209 1.279 . S
C213 C211 1.358 . S
C213 H255 0.930 . S
C214 C215 1.348 . S
C214 C216 1.356 . S
C214 O239 1.325 . S
C215 C214 1.348 . S
C215 C217 1.353 . S
C215 H256 0.929 . S
C216 C214 1.356 . S
C216 C218 1.358 . S
C216 H257 0.930 . S
C217 C215 1.353 . S
C217 N219 1.314 . S
C217 H258 0.930 . S
C218 C216 1.358 . S
C218 N219 1.279 . S
C218 H259 0.930 . S
N219 C217 1.314 . S
N219 C218 1.279 . S
C220 C222 1.353 . S
C220 N223 1.314 . S
C220 H226 0.930 . S
C221 N223 1.279 . S
C221 C224 1.358 . S
C221 H227 0.930 . S
C222 C220 1.353 . S
C222 C225 1.348 . S
C222 H260 0.929 . S
N223 Li178 1.990 . S
N223 C220 1.314 . S
N223 C221 1.279 . S
C224 C221 1.358 . S
C224 C225 1.356 . S
C224 H261 0.930 . S
C225 C222 1.348 . S
C225 C224 1.356 . S
H226 C220 0.930 . S
H227 C221 0.930 . S
C228 N229 1.314 . S
C228 C230 1.353 . S
C228 H234 0.930 . S
N229 Li179 1.990 . S
N229 C228 1.314 . S
N229 C232 1.279 . S
C230 C228 1.353 . S
C230 C233 1.348 . S
C230 H262 0.929 . S
C231 C232 1.358 . S
C231 C233 1.356 . S
C231 H263 0.930 . S
C232 N229 1.279 . S
C232 C231 1.358 . S
C232 H235 0.930 . S
C233 C230 1.348 . S
C233 C231 1.356 . S
H234 C228 0.930 . S
H235 C232 0.930 . S
O236 Li176 1.956 . S
O236 Li177 1.970 . S
O236 Li178 1.961 . S
O236 C180 1.325 . S
O237 Li176 1.970 . S
O237 Li177 1.956 . S
O237 Li179 1.961 . S
O237 C186 1.325 . S
O238 Li176 1.961 . S
O238 Li178 1.956 . S
O238 Li179 1.970 . S
O238 C208 1.325 . S
O239 Li177 1.961 . S
O239 Li178 1.970 . S
O239 Li179 1.956 . S
O239 C214 1.325 . S
H240 C182 0.929 . S
H241 C183 0.930 . S
H242 C184 0.930 . S
H243 C185 0.930 . S
H244 C187 0.930 . S
H245 C189 0.929 . S
H246 C190 0.930 . S
H247 C191 0.930 . S
H248 C194 0.930 . S
H249 C197 0.929 . S
H250 C202 0.929 . S
H251 C203 0.930 . S
H252 C210 0.929 . S
H253 C211 0.930 . S
H254 C212 0.930 . S
H255 C213 0.930 . S
H256 C215 0.929 . S
H257 C216 0.930 . S
H258 C217 0.930 . S
H259 C218 0.930 . S
H260 C222 0.929 . S
H261 C224 0.930 . S
H262 C230 0.929 . S
H263 C231 0.930 . S
Li264 N281 1.990 . S
Li264 O324 1.956 . S
Li264 O325 1.970 . S
Li264 O326 1.961 . S
Li265 N289 1.990 . S
Li265 O324 1.970 . S
Li265 O325 1.956 . S
Li265 O327 1.961 . S
Li266 N311 1.990 . S
Li266 O324 1.961 . S
Li266 O326 1.956 . S
Li266 O327 1.970 . S
Li267 N317 1.990 . S
Li267 O325 1.961 . S
Li267 O326 1.970 . S
Li267 O327 1.956 . S
C268 C270 1.348 . S
C268 C271 1.356 . S
C268 O324 1.325 . S
N269 C272 1.314 . S
N269 C273 1.279 . S
C270 C268 1.348 . S
C270 C272 1.353 . S
C270 H328 0.929 . S
C271 C268 1.356 . S
C271 C273 1.358 . S
C271 H329 0.930 . S
C272 N269 1.314 . S
C272 C270 1.353 . S
C272 H330 0.930 . S
C273 N269 1.279 . S
C273 C271 1.358 . S
C273 H331 0.930 . S
C274 C277 1.348 . S
C274 C278 1.356 . S
C274 O325 1.325 . S
C275 N276 1.279 . S
C275 C278 1.358 . S
C275 H332 0.930 . S
N276 C275 1.279 . S
N276 C279 1.314 . S
C277 C274 1.348 . S
C277 C279 1.353 . S
C277 H333 0.929 . S
C278 C274 1.356 . S
C278 C275 1.358 . S
C278 H334 0.930 . S
C279 N276 1.314 . S
C279 C277 1.353 . S
C279 H335 0.930 . S
C280 N281 1.314 . S
C280 C285 1.353 . S
C280 H286 0.930 . S
N281 Li264 1.990 . S
N281 C280 1.314 . S
N281 C283 1.279 . S
C282 C283 1.358 . S
C282 C284 1.356 . S
C282 H336 0.930 . S
C283 N281 1.279 . S
C283 C282 1.358 . S
C283 H287 0.930 . S
C284 C282 1.356 . S
C284 C285 1.348 . S
C285 C280 1.353 . S
C285 C284 1.348 . S
C285 H337 0.929 . S
H286 C280 0.930 . S
H287 C283 0.930 . S
C288 N289 1.314 . S
C288 C290 1.353 . S
C288 H294 0.930 . S
N289 Li265 1.990 . S
N289 C288 1.314 . S
N289 C292 1.279 . S
C290 C288 1.353 . S
C290 C293 1.348 . S
C290 H338 0.929 . S
C291 C292 1.358 . S
C291 C293 1.356 . S
C291 H339 0.930 . S
C292 N289 1.279 . S
C292 C291 1.358 . S
C292 H295 0.930 . S
C293 C290 1.348 . S
C293 C291 1.356 . S
H294 C288 0.930 . S
H295 C292 0.930 . S
C296 C298 1.348 . S
C296 C299 1.356 . S
C296 O326 1.325 . S
N297 C300 1.314 . S
N297 C301 1.279 . S
C298 C296 1.348 . S
C298 C300 1.353 . S
C298 H340 0.929 . S
C299 C296 1.356 . S
C299 C301 1.358 . S
C299 H341 0.930 . S
C300 N297 1.314 . S
C300 C298 1.353 . S
C300 H342 0.930 . S
C301 N297 1.279 . S
C301 C299 1.358 . S
C301 H343 0.930 . S
C302 C303 1.348 . S
C302 C304 1.356 . S
C302 O327 1.325 . S
C303 C302 1.348 . S
C303 C305 1.353 . S
C303 H344 0.929 . S
C304 C302 1.356 . S
C304 C306 1.358 . S
C304 H345 0.930 . S
C305 C303 1.353 . S
C305 N307 1.314 . S
C305 H346 0.930 . S
C306 C304 1.358 . S
C306 N307 1.279 . S
C306 H347 0.930 . S
N307 C305 1.314 . S
N307 C306 1.279 . S
C308 C310 1.353 . S
C308 N311 1.314 . S
C308 H314 0.930 . S
C309 N311 1.279 . S
C309 C312 1.358 . S
C309 H315 0.930 . S
C310 C308 1.353 . S
C310 C313 1.348 . S
C310 H348 0.929 . S
N311 Li266 1.990 . S
N311 C308 1.314 . S
N311 C309 1.279 . S
C312 C309 1.358 . S
C312 C313 1.356 . S
C312 H349 0.930 . S
C313 C310 1.348 . S
C313 C312 1.356 . S
H314 C308 0.930 . S
H315 C309 0.930 . S
C316 N317 1.314 . S
C316 C318 1.353 . S
C316 H322 0.930 . S
N317 Li267 1.990 . S
N317 C316 1.314 . S
N317 C320 1.279 . S
C318 C316 1.353 . S
C318 C321 1.348 . S
C318 H350 0.929 . S
C319 C320 1.358 . S
C319 C321 1.356 . S
C319 H351 0.930 . S
C320 N317 1.279 . S
C320 C319 1.358 . S
C320 H323 0.930 . S
C321 C318 1.348 . S
C321 C319 1.356 . S
H322 C316 0.930 . S
H323 C320 0.930 . S
O324 Li264 1.956 . S
O324 Li265 1.970 . S
O324 Li266 1.961 . S
O324 C268 1.325 . S
O325 Li264 1.970 . S
O325 Li265 1.956 . S
O325 Li267 1.961 . S
O325 C274 1.325 . S
O326 Li264 1.961 . S
O326 Li266 1.956 . S
O326 Li267 1.970 . S
O326 C296 1.325 . S
O327 Li265 1.961 . S
O327 Li266 1.970 . S
O327 Li267 1.956 . S
O327 C302 1.325 . S
H328 C270 0.929 . S
H329 C271 0.930 . S
H330 C272 0.930 . S
H331 C273 0.930 . S
H332 C275 0.930 . S
H333 C277 0.929 . S
H334 C278 0.930 . S
H335 C279 0.930 . S
H336 C282 0.930 . S
H337 C285 0.929 . S
H338 C290 0.929 . S
H339 C291 0.930 . S
H340 C298 0.929 . S
H341 C299 0.930 . S
H342 C300 0.930 . S
H343 C301 0.930 . S
H344 C303 0.929 . S
H345 C304 0.930 . S
H346 C305 0.930 . S
H347 C306 0.930 . S
H348 C310 0.929 . S
H349 C312 0.930 . S
H350 C318 0.929 . S
H351 C319 0.930 . S
Li352 N369 1.990 . S
Li352 O412 1.936 1_554 S
Li352 O413 1.970 . S
Li352 O414 1.986 . S
Li353 N377 1.991 . S
Li353 O412 1.969 1_554 S
Li353 O413 1.983 . S
Li353 O415 1.933 1_554 S
Li354 N399 1.990 . S
Li354 O412 1.980 . S
Li354 O414 1.930 1_556 S
Li354 O415 1.970 . S
Li355 N405 1.991 . S
Li355 O413 1.939 1_556 S
Li355 O414 1.969 1_556 S
Li355 O415 1.977 . S
C356 C358 1.346 . S
C356 C359 1.357 1_554 S
C356 O412 1.324 1_554 S
N357 C360 1.314 . S
N357 C361 1.279 1_554 S
C358 C356 1.346 . S
C358 C360 1.353 . S
C358 H416 0.929 . S
C359 C356 1.357 1_556 S
C359 C361 1.358 . S
C359 H417 0.930 . S
C360 N357 1.314 . S
C360 C358 1.353 . S
C360 H418 0.930 . S
C361 N357 1.279 1_556 S
C361 C359 1.358 . S
C361 H419 0.930 . S
C362 C365 1.348 . S
C362 C366 1.356 . S
C362 O413 1.325 . S
C363 N364 1.279 . S
C363 C366 1.358 . S
C363 H420 0.930 . S
N364 C363 1.279 . S
N364 C367 1.314 . S
C365 C362 1.348 . S
C365 C367 1.353 . S
C365 H421 0.929 . S
C366 C362 1.356 . S
C366 C363 1.358 . S
C366 H422 0.930 . S
C367 N364 1.314 . S
C367 C365 1.353 . S
C367 H423 0.930 . S
C368 N369 1.314 . S
C368 C373 1.353 . S
C368 H374 0.930 . S
N369 Li352 1.990 . S
N369 C368 1.314 . S
N369 C371 1.279 . S
C370 C371 1.358 . S
C370 C372 1.356 . S
C370 H424 0.930 . S
C371 N369 1.279 . S
C371 C370 1.358 . S
C371 H375 0.930 . S
C372 C370 1.356 . S
C372 C373 1.348 . S
C373 C368 1.353 . S
C373 C372 1.348 . S
C373 H425 0.929 . S
H374 C368 0.930 . S
H375 C371 0.930 . S
C376 N377 1.314 1_556 S
C376 C378 1.353 . S
C376 H382 0.930 . S
N377 Li353 1.991 . S
N377 C376 1.314 1_554 S
N377 C380 1.279 . S
C378 C376 1.353 . S
C378 C381 1.345 1_556 S
C378 H426 0.929 . S
C379 C380 1.358 . S
C379 C381 1.359 . S
C379 H427 0.930 . S
C380 N377 1.279 . S
C380 C379 1.358 . S
C380 H383 0.930 . S
C381 C378 1.345 1_554 S
C381 C379 1.359 . S
H382 C376 0.930 . S
H383 C380 0.930 . S
C384 C386 1.346 1_554 S
C384 C387 1.357 . S
C384 O414 1.324 . S
N385 C388 1.314 . S
N385 C389 1.279 1_556 S
C386 C384 1.346 1_556 S
C386 C388 1.353 . S
C386 H428 0.929 . S
C387 C384 1.357 . S
C387 C389 1.358 . S
C387 H429 0.930 . S
C388 N385 1.314 . S
C388 C386 1.353 . S
C388 H430 0.930 . S
C389 N385 1.279 1_554 S
C389 C387 1.358 . S
C389 H431 0.930 . S
C390 C391 1.348 . S
C390 C392 1.356 . S
C390 O415 1.325 . S
C391 C390 1.348 . S
C391 C393 1.353 . S
C391 H432 0.929 . S
C392 C390 1.356 . S
C392 C394 1.358 . S
C392 H433 0.930 . S
C393 C391 1.353 . S
C393 N395 1.314 . S
C393 H434 0.930 . S
C394 C392 1.358 . S
C394 N395 1.279 . S
C394 H435 0.930 . S
N395 C393 1.314 . S
N395 C394 1.279 . S
C396 C398 1.353 . S
C396 N399 1.314 . S
C396 H402 0.930 . S
C397 N399 1.279 . S
C397 C400 1.358 . S
C397 H403 0.930 . S
C398 C396 1.353 . S
C398 C401 1.348 . S
C398 H436 0.929 . S
N399 Li354 1.990 . S
N399 C396 1.314 . S
N399 C397 1.279 . S
C400 C397 1.358 . S
C400 C401 1.356 . S
C400 H437 0.930 . S
C401 C398 1.348 . S
C401 C400 1.356 . S
H402 C396 0.930 . S
H403 C397 0.930 . S
C404 N405 1.314 1_554 S
C404 C406 1.353 . S
C404 H410 0.930 . S
N405 Li355 1.991 . S
N405 C404 1.314 1_556 S
N405 C408 1.279 . S
C406 C404 1.353 . S
C406 C409 1.345 . S
C406 H438 0.929 . S
C407 C408 1.358 . S
C407 C409 1.359 1_556 S
C407 H439 0.930 . S
C408 N405 1.279 . S
C408 C407 1.358 . S
C408 H411 0.930 . S
C409 C406 1.345 . S
C409 C407 1.359 1_554 S
H410 C404 0.930 . S
H411 C408 0.930 . S
O412 Li352 1.936 1_556 S
O412 Li353 1.969 1_556 S
O412 Li354 1.980 . S
O412 C356 1.324 1_556 S
O413 Li352 1.970 . S
O413 Li353 1.983 . S
O413 Li355 1.939 1_554 S
O413 C362 1.325 . S
O414 Li352 1.986 . S
O414 Li354 1.930 1_554 S
O414 Li355 1.969 1_554 S
O414 C384 1.324 . S
O415 Li353 1.933 1_556 S
O415 Li354 1.970 . S
O415 Li355 1.977 . S
O415 C390 1.325 . S
H416 C358 0.929 . S
H417 C359 0.930 . S
H418 C360 0.930 . S
H419 C361 0.930 . S
H420 C363 0.930 . S
H421 C365 0.929 . S
H422 C366 0.930 . S
H423 C367 0.930 . S
H424 C370 0.930 . S
H425 C373 0.929 . S
H426 C378 0.929 . S
H427 C379 0.930 . S
H428 C386 0.929 . S
H429 C387 0.930 . S
H430 C388 0.930 . S
H431 C389 0.930 . S
H432 C391 0.929 . S
H433 C392 0.930 . S
H434 C393 0.930 . S
H435 C394 0.930 . S
H436 C398 0.929 . S
H437 C400 0.930 . S
H438 C406 0.929 . S
H439 C407 0.930 . S
Li440 N457 1.991 . S
Li440 O500 1.983 . S
Li440 O501 1.969 1_554 S
Li440 O502 1.933 1_554 S
Li441 N465 1.990 . S
Li441 O500 1.970 . S
Li441 O501 1.936 1_554 S
Li441 O503 1.986 . S
Li442 N487 1.991 . S
Li442 O500 1.939 1_556 S
Li442 O502 1.977 . S
Li442 O503 1.969 1_556 S
Li443 N493 1.990 . S
Li443 O501 1.980 . S
Li443 O502 1.970 . S
Li443 O503 1.930 1_556 S
C444 C446 1.348 . S
C444 C447 1.356 . S
C444 O500 1.325 . S
N445 C448 1.314 . S
N445 C449 1.279 . S
C446 C444 1.348 . S
C446 C448 1.353 . S
C446 H504 0.929 . S
C447 C444 1.356 . S
C447 C449 1.358 . S
C447 H505 0.930 . S
C448 N445 1.314 . S
C448 C446 1.353 . S
C448 H506 0.930 . S
C449 N445 1.279 . S
C449 C447 1.358 . S
C449 H507 0.930 . S
C450 C453 1.346 . S
C450 C454 1.357 1_554 S
C450 O501 1.324 1_554 S
C451 N452 1.279 1_556 S
C451 C454 1.358 . S
C451 H508 0.930 . S
N452 C451 1.279 1_554 S
N452 C455 1.314 . S
C453 C450 1.346 . S
C453 C455 1.353 . S
C453 H509 0.929 . S
C454 C450 1.357 1_556 S
C454 C451 1.358 . S
C454 H510 0.930 . S
C455 N452 1.314 . S
C455 C453 1.353 . S
C455 H511 0.930 . S
C456 N457 1.314 1_556 S
C456 C461 1.353 . S
C456 H462 0.930 . S
N457 Li440 1.991 . S
N457 C456 1.314 1_554 S
N457 C459 1.279 . S
C458 C459 1.358 . S
C458 C460 1.359 . S
C458 H512 0.930 . S
C459 N457 1.279 . S
C459 C458 1.358 . S
C459 H463 0.930 . S
C460 C458 1.359 . S
C460 C461 1.345 1_554 S
C461 C456 1.353 . S
C461 C460 1.345 1_556 S
C461 H513 0.929 . S
H462 C456 0.930 . S
H463 C459 0.930 . S
C464 N465 1.314 . S
C464 C466 1.353 . S
C464 H470 0.930 . S
N465 Li441 1.990 . S
N465 C464 1.314 . S
N465 C468 1.279 . S
C466 C464 1.353 . S
C466 C469 1.348 . S
C466 H514 0.929 . S
C467 C468 1.358 . S
C467 C469 1.356 . S
C467 H515 0.930 . S
C468 N465 1.279 . S
C468 C467 1.358 . S
C468 H471 0.930 . S
C469 C466 1.348 . S
C469 C467 1.356 . S
H470 C464 0.930 . S
H471 C468 0.930 . S
C472 C474 1.348 . S
C472 C475 1.356 . S
C472 O502 1.325 . S
N473 C476 1.314 . S
N473 C477 1.279 . S
C474 C472 1.348 . S
C474 C476 1.353 . S
C474 H516 0.929 . S
C475 C472 1.356 . S
C475 C477 1.358 . S
C475 H517 0.930 . S
C476 N473 1.314 . S
C476 C474 1.353 . S
C476 H518 0.930 . S
C477 N473 1.279 . S
C477 C475 1.358 . S
C477 H519 0.930 . S
C478 C479 1.346 1_554 S
C478 C480 1.357 . S
C478 O503 1.324 . S
C479 C478 1.346 1_556 S
C479 C481 1.353 . S
C479 H520 0.929 . S
C480 C478 1.357 . S
C480 C482 1.358 . S
C480 H521 0.930 . S
C481 C479 1.353 . S
C481 N483 1.314 . S
C481 H522 0.930 . S
C482 C480 1.358 . S
C482 N483 1.279 1_554 S
C482 H523 0.930 . S
N483 C481 1.314 . S
N483 C482 1.279 1_556 S
C484 C486 1.353 . S
C484 N487 1.314 1_554 S
C484 H490 0.930 . S
C485 N487 1.279 . S
C485 C488 1.358 . S
C485 H491 0.930 . S
C486 C484 1.353 . S
C486 C489 1.345 . S
C486 H524 0.929 . S
N487 Li442 1.991 . S
N487 C484 1.314 1_556 S
N487 C485 1.279 . S
C488 C485 1.358 . S
C488 C489 1.359 1_556 S
C488 H525 0.930 . S
C489 C486 1.345 . S
C489 C488 1.359 1_554 S
H490 C484 0.930 . S
H491 C485 0.930 . S
C492 N493 1.314 . S
C492 C494 1.353 . S
C492 H498 0.930 . S
N493 Li443 1.990 . S
N493 C492 1.314 . S
N493 C496 1.279 . S
C494 C492 1.353 . S
C494 C497 1.348 . S
C494 H526 0.929 . S
C495 C496 1.358 . S
C495 C497 1.356 . S
C495 H527 0.930 . S
C496 N493 1.279 . S
C496 C495 1.358 . S
C496 H499 0.930 . S
C497 C494 1.348 . S
C497 C495 1.356 . S
H498 C492 0.930 . S
H499 C496 0.930 . S
O500 Li440 1.983 . S
O500 Li441 1.970 . S
O500 Li442 1.939 1_554 S
O500 C444 1.325 . S
O501 Li440 1.969 1_556 S
O501 Li441 1.936 1_556 S
O501 Li443 1.980 . S
O501 C450 1.324 1_556 S
O502 Li440 1.933 1_556 S
O502 Li442 1.977 . S
O502 Li443 1.970 . S
O502 C472 1.325 . S
O503 Li441 1.986 . S
O503 Li442 1.969 1_554 S
O503 Li443 1.930 1_554 S
O503 C478 1.324 . S
H504 C446 0.929 . S
H505 C447 0.930 . S
H506 C448 0.930 . S
H507 C449 0.930 . S
H508 C451 0.930 . S
H509 C453 0.929 . S
H510 C454 0.930 . S
H511 C455 0.930 . S
H512 C458 0.930 . S
H513 C461 0.929 . S
H514 C466 0.929 . S
H515 C467 0.930 . S
H516 C474 0.929 . S
H517 C475 0.930 . S
H518 C476 0.930 . S
H519 C477 0.930 . S
H520 C479 0.929 . S
H521 C480 0.930 . S
H522 C481 0.930 . S
H523 C482 0.930 . S
H524 C486 0.929 . S
H525 C488 0.930 . S
H526 C494 0.929 . S
H527 C495 0.930 . S
Li528 N545 1.990 . S
Li528 O588 1.956 . S
Li528 O589 1.970 . S
Li528 O590 1.961 . S
Li529 N553 1.990 . S
Li529 O588 1.970 . S
Li529 O589 1.956 . S
Li529 O591 1.961 . S
Li530 N575 1.990 . S
Li530 O588 1.961 . S
Li530 O590 1.956 . S
Li530 O591 1.970 . S
Li531 N581 1.990 . S
Li531 O589 1.961 . S
Li531 O590 1.970 . S
Li531 O591 1.956 . S
C532 C534 1.348 . S
C532 C535 1.356 . S
C532 O588 1.325 . S
N533 C536 1.314 . S
N533 C537 1.279 . S
C534 C532 1.348 . S
C534 C536 1.353 . S
C534 H592 0.929 . S
C535 C532 1.356 . S
C535 C537 1.358 . S
C535 H593 0.930 . S
C536 N533 1.314 . S
C536 C534 1.353 . S
C536 H594 0.930 . S
C537 N533 1.279 . S
C537 C535 1.358 . S
C537 H595 0.930 . S
C538 C541 1.348 . S
C538 C542 1.356 . S
C538 O589 1.325 . S
C539 N540 1.279 . S
C539 C542 1.358 . S
C539 H596 0.930 . S
N540 C539 1.279 . S
N540 C543 1.314 . S
C541 C538 1.348 . S
C541 C543 1.353 . S
C541 H597 0.929 . S
C542 C538 1.356 . S
C542 C539 1.358 . S
C542 H598 0.930 . S
C543 N540 1.314 . S
C543 C541 1.353 . S
C543 H599 0.930 . S
C544 N545 1.314 . S
C544 C549 1.353 . S
C544 H550 0.930 . S
N545 Li528 1.990 . S
N545 C544 1.314 . S
N545 C547 1.279 . S
C546 C547 1.358 . S
C546 C548 1.356 . S
C546 H600 0.930 . S
C547 N545 1.279 . S
C547 C546 1.358 . S
C547 H551 0.930 . S
C548 C546 1.356 . S
C548 C549 1.348 . S
C549 C544 1.353 . S
C549 C548 1.348 . S
C549 H601 0.929 . S
H550 C544 0.930 . S
H551 C547 0.930 . S
C552 N553 1.314 . S
C552 C554 1.353 . S
C552 H558 0.930 . S
N553 Li529 1.990 . S
N553 C552 1.314 . S
N553 C556 1.279 . S
C554 C552 1.353 . S
C554 C557 1.348 . S
C554 H602 0.929 . S
C555 C556 1.358 . S
C555 C557 1.356 . S
C555 H603 0.930 . S
C556 N553 1.279 . S
C556 C555 1.358 . S
C556 H559 0.930 . S
C557 C554 1.348 . S
C557 C555 1.356 . S
H558 C552 0.930 . S
H559 C556 0.930 . S
C560 C562 1.348 . S
C560 C563 1.356 . S
C560 O590 1.325 . S
N561 C564 1.314 . S
N561 C565 1.279 . S
C562 C560 1.348 . S
C562 C564 1.353 . S
C562 H604 0.929 . S
C563 C560 1.356 . S
C563 C565 1.358 . S
C563 H605 0.930 . S
C564 N561 1.314 . S
C564 C562 1.353 . S
C564 H606 0.930 . S
C565 N561 1.279 . S
C565 C563 1.358 . S
C565 H607 0.930 . S
C566 C567 1.348 . S
C566 C568 1.356 . S
C566 O591 1.325 . S
C567 C566 1.348 . S
C567 C569 1.353 . S
C567 H608 0.929 . S
C568 C566 1.356 . S
C568 C570 1.358 . S
C568 H609 0.930 . S
C569 C567 1.353 . S
C569 N571 1.314 . S
C569 H610 0.930 . S
C570 C568 1.358 . S
C570 N571 1.279 . S
C570 H611 0.930 . S
N571 C569 1.314 . S
N571 C570 1.279 . S
C572 C574 1.353 . S
C572 N575 1.314 . S
C572 H578 0.930 . S
C573 N575 1.279 . S
C573 C576 1.358 . S
C573 H579 0.930 . S
C574 C572 1.353 . S
C574 C577 1.348 . S
C574 H612 0.929 . S
N575 Li530 1.990 . S
N575 C572 1.314 . S
N575 C573 1.279 . S
C576 C573 1.358 . S
C576 C577 1.356 . S
C576 H613 0.930 . S
C577 C574 1.348 . S
C577 C576 1.356 . S
H578 C572 0.930 . S
H579 C573 0.930 . S
C580 N581 1.314 . S
C580 C582 1.353 . S
C580 H586 0.930 . S
N581 Li531 1.990 . S
N581 C580 1.314 . S
N581 C584 1.279 . S
C582 C580 1.353 . S
C582 C585 1.348 . S
C582 H614 0.929 . S
C583 C584 1.358 . S
C583 C585 1.356 . S
C583 H615 0.930 . S
C584 N581 1.279 . S
C584 C583 1.358 . S
C584 H587 0.930 . S
C585 C582 1.348 . S
C585 C583 1.356 . S
H586 C580 0.930 . S
H587 C584 0.930 . S
O588 Li528 1.956 . S
O588 Li529 1.970 . S
O588 Li530 1.961 . S
O588 C532 1.325 . S
O589 Li528 1.970 . S
O589 Li529 1.956 . S
O589 Li531 1.961 . S
O589 C538 1.325 . S
O590 Li528 1.961 . S
O590 Li530 1.956 . S
O590 Li531 1.970 . S
O590 C560 1.325 . S
O591 Li529 1.961 . S
O591 Li530 1.970 . S
O591 Li531 1.956 . S
O591 C566 1.325 . S
H592 C534 0.929 . S
H593 C535 0.930 . S
H594 C536 0.930 . S
H595 C537 0.930 . S
H596 C539 0.930 . S
H597 C541 0.929 . S
H598 C542 0.930 . S
H599 C543 0.930 . S
H600 C546 0.930 . S
H601 C549 0.929 . S
H602 C554 0.929 . S
H603 C555 0.930 . S
H604 C562 0.929 . S
H605 C563 0.930 . S
H606 C564 0.930 . S
H607 C565 0.930 . S
H608 C567 0.929 . S
H609 C568 0.930 . S
H610 C569 0.930 . S
H611 C570 0.930 . S
H612 C574 0.929 . S
H613 C576 0.930 . S
H614 C582 0.929 . S
H615 C583 0.930 . S
Li616 N633 1.990 . S
Li616 O676 1.956 . S
Li616 O677 1.970 . S
Li616 O678 1.961 . S
Li617 N641 1.990 . S
Li617 O676 1.970 . S
Li617 O677 1.956 . S
Li617 O679 1.961 . S
Li618 N663 1.990 . S
Li618 O676 1.961 . S
Li618 O678 1.956 . S
Li618 O679 1.970 . S
Li619 N669 1.990 . S
Li619 O677 1.961 . S
Li619 O678 1.970 . S
Li619 O679 1.956 . S
C620 C622 1.348 . S
C620 C623 1.356 . S
C620 O676 1.325 . S
N621 C624 1.314 . S
N621 C625 1.279 . S
C622 C620 1.348 . S
C622 C624 1.353 . S
C622 H680 0.929 . S
C623 C620 1.356 . S
C623 C625 1.358 . S
C623 H681 0.930 . S
C624 N621 1.314 . S
C624 C622 1.353 . S
C624 H682 0.930 . S
C625 N621 1.279 . S
C625 C623 1.358 . S
C625 H683 0.930 . S
C626 C629 1.348 . S
C626 C630 1.356 . S
C626 O677 1.325 . S
C627 N628 1.279 . S
C627 C630 1.358 . S
C627 H684 0.930 . S
N628 C627 1.279 . S
N628 C631 1.314 . S
C629 C626 1.348 . S
C629 C631 1.353 . S
C629 H685 0.929 . S
C630 C626 1.356 . S
C630 C627 1.358 . S
C630 H686 0.930 . S
C631 N628 1.314 . S
C631 C629 1.353 . S
C631 H687 0.930 . S
C632 N633 1.314 . S
C632 C637 1.353 . S
C632 H638 0.930 . S
N633 Li616 1.990 . S
N633 C632 1.314 . S
N633 C635 1.279 . S
C634 C635 1.358 . S
C634 C636 1.356 . S
C634 H688 0.930 . S
C635 N633 1.279 . S
C635 C634 1.358 . S
C635 H639 0.930 . S
C636 C634 1.356 . S
C636 C637 1.348 . S
C637 C632 1.353 . S
C637 C636 1.348 . S
C637 H689 0.929 . S
H638 C632 0.930 . S
H639 C635 0.930 . S
C640 N641 1.314 . S
C640 C642 1.353 . S
C640 H646 0.930 . S
N641 Li617 1.990 . S
N641 C640 1.314 . S
N641 C644 1.279 . S
C642 C640 1.353 . S
C642 C645 1.348 . S
C642 H690 0.929 . S
C643 C644 1.358 . S
C643 C645 1.356 . S
C643 H691 0.930 . S
C644 N641 1.279 . S
C644 C643 1.358 . S
C644 H647 0.930 . S
C645 C642 1.348 . S
C645 C643 1.356 . S
H646 C640 0.930 . S
H647 C644 0.930 . S
C648 C650 1.348 . S
C648 C651 1.356 . S
C648 O678 1.325 . S
N649 C652 1.314 . S
N649 C653 1.279 . S
C650 C648 1.348 . S
C650 C652 1.353 . S
C650 H692 0.929 . S
C651 C648 1.356 . S
C651 C653 1.358 . S
C651 H693 0.930 . S
C652 N649 1.314 . S
C652 C650 1.353 . S
C652 H694 0.930 . S
C653 N649 1.279 . S
C653 C651 1.358 . S
C653 H695 0.930 . S
C654 C655 1.348 . S
C654 C656 1.356 . S
C654 O679 1.325 . S
C655 C654 1.348 . S
C655 C657 1.353 . S
C655 H696 0.929 . S
C656 C654 1.356 . S
C656 C658 1.358 . S
C656 H697 0.930 . S
C657 C655 1.353 . S
C657 N659 1.314 . S
C657 H698 0.930 . S
C658 C656 1.358 . S
C658 N659 1.279 . S
C658 H699 0.930 . S
N659 C657 1.314 . S
N659 C658 1.279 . S
C660 C662 1.353 . S
C660 N663 1.314 . S
C660 H666 0.930 . S
C661 N663 1.279 . S
C661 C664 1.358 . S
C661 H667 0.930 . S
C662 C660 1.353 . S
C662 C665 1.348 . S
C662 H700 0.929 . S
N663 Li618 1.990 . S
N663 C660 1.314 . S
N663 C661 1.279 . S
C664 C661 1.358 . S
C664 C665 1.356 . S
C664 H701 0.930 . S
C665 C662 1.348 . S
C665 C664 1.356 . S
H666 C660 0.930 . S
H667 C661 0.930 . S
C668 N669 1.314 . S
C668 C670 1.353 . S
C668 H674 0.930 . S
N669 Li619 1.990 . S
N669 C668 1.314 . S
N669 C672 1.279 . S
C670 C668 1.353 . S
C670 C673 1.348 . S
C670 H702 0.929 . S
C671 C672 1.358 . S
C671 C673 1.356 . S
C671 H703 0.930 . S
C672 N669 1.279 . S
C672 C671 1.358 . S
C672 H675 0.930 . S
C673 C670 1.348 . S
C673 C671 1.356 . S
H674 C668 0.930 . S
H675 C672 0.930 . S
O676 Li616 1.956 . S
O676 Li617 1.970 . S
O676 Li618 1.961 . S
O676 C620 1.325 . S
O677 Li616 1.970 . S
O677 Li617 1.956 . S
O677 Li619 1.961 . S
O677 C626 1.325 . S
O678 Li616 1.961 . S
O678 Li618 1.956 . S
O678 Li619 1.970 . S
O678 C648 1.325 . S
O679 Li617 1.961 . S
O679 Li618 1.970 . S
O679 Li619 1.956 . S
O679 C654 1.325 . S
H680 C622 0.929 . S
H681 C623 0.930 . S
H682 C624 0.930 . S
H683 C625 0.930 . S
H684 C627 0.930 . S
H685 C629 0.929 . S
H686 C630 0.930 . S
H687 C631 0.930 . S
H688 C634 0.930 . S
H689 C637 0.929 . S
H690 C642 0.929 . S
H691 C643 0.930 . S
H692 C650 0.929 . S
H693 C651 0.930 . S
H694 C652 0.930 . S
H695 C653 0.930 . S
H696 C655 0.929 . S
H697 C656 0.930 . S
H698 C657 0.930 . S
H699 C658 0.930 . S
H700 C662 0.929 . S
H701 C664 0.930 . S
H702 C670 0.929 . S
H703 C671 0.930 . S
H704 C722 0.951 . S
H705 C724 0.951 . S
H706 C726 0.950 . S
H707 C727 0.950 . S
H708 C729 0.950 . S
H709 C732 0.950 . S
H710 C733 0.950 . S
H711 C735 0.950 . S
H712 C736 0.950 . S
H713 C737 0.951 . S
H714 C739 0.951 . S
H715 C741 0.950 . S
H716 C742 0.950 . S
H717 C744 0.950 . S
H718 C747 0.950 . S
H719 C748 0.950 . S
H720 C750 0.950 . S
H721 C751 0.950 . S
C722 H704 0.951 . S
C722 C723 1.366 . S
C722 C724 1.388 . S
C723 C722 1.366 . S
C723 C727 1.384 1_556 S
C724 H705 0.951 . S
C724 C722 1.388 . S
C724 C725 1.366 1_556 S
C725 C724 1.366 1_554 S
C725 C726 1.414 . S
C725 C728 1.499 . S
C726 H706 0.950 . S
C726 C725 1.414 . S
C726 C727 1.374 . S
C727 H707 0.950 . S
C727 C723 1.384 1_554 S
C727 C726 1.374 . S
C728 C725 1.499 . S
C728 C729 1.373 1_554 S
C728 C730 1.389 . S
C729 H708 0.950 . S
C729 C728 1.373 1_556 S
C729 C745 1.377 . S
C730 C728 1.389 . S
C730 C731 1.524 . S
C730 C744 1.377 . S
C731 C730 1.524 . S
C731 C732 1.397 . S
C731 C736 1.363 . S
C732 H709 0.950 . S
C732 C731 1.397 . S
C732 C733 1.334 . S
C733 H710 0.950 . S
C733 C732 1.334 . S
C733 C734 1.287 . S
C734 C733 1.287 . S
C734 C735 1.524 . S
C734 H753 0.913 . S
C735 H711 0.950 . S
C735 C734 1.524 . S
C735 C736 1.415 . S
C736 H712 0.950 . S
C736 C731 1.363 . S
C736 C735 1.415 . S
C737 H713 0.951 . S
C737 C738 1.367 1_554 S
C737 C739 1.388 . S
C738 C737 1.367 1_556 S
C738 C742 1.384 . S
C739 H714 0.951 . S
C739 C737 1.388 . S
C739 C740 1.366 1_554 S
C740 C739 1.366 1_556 S
C740 C741 1.414 . S
C740 C743 1.499 . S
C741 H715 0.950 . S
C741 C740 1.414 . S
C741 C742 1.374 . S
C742 H716 0.950 . S
C742 C738 1.384 . S
C742 C741 1.374 . S
C743 C740 1.499 . S
C743 C744 1.373 1_556 S
C743 C745 1.389 . S
C744 H717 0.950 . S
C744 C730 1.377 . S
C744 C743 1.373 1_554 S
C745 C729 1.377 . S
C745 C743 1.389 . S
C745 C746 1.524 . S
C746 C745 1.524 . S
C746 C747 1.397 . S
C746 C751 1.363 . S
C747 H718 0.950 . S
C747 C746 1.397 . S
C747 C748 1.334 . S
C748 H719 0.950 . S
C748 C747 1.334 . S
C748 C749 1.287 . S
C749 C748 1.287 . S
C749 C750 1.524 . S
C749 H752 0.999 . S
C750 H720 0.950 . S
C750 C749 1.524 . S
C750 C751 1.415 . S
C751 H721 0.950 . S
C751 C746 1.363 . S
C751 C750 1.415 . S
H752 C749 0.999 . S
H753 C734 0.913 . S
H754 C772 0.951 . S
H755 C774 0.951 . S
H756 C776 0.950 . S
H757 C777 0.950 . S
H758 C779 0.950 . S
H759 C782 0.950 . S
H760 C783 0.950 . S
H761 C785 0.950 . S
H762 C786 0.950 . S
H763 C787 0.951 . S
H764 C789 0.951 . S
H765 C791 0.950 . S
H766 C792 0.950 . S
H767 C794 0.950 . S
H768 C797 0.950 . S
H769 C798 0.950 . S
H770 C800 0.950 . S
H771 C801 0.950 . S
C772 H754 0.951 . S
C772 C773 1.366 . S
C772 C774 1.388 . S
C773 C772 1.366 . S
C773 C777 1.384 1_556 S
C774 H755 0.951 . S
C774 C772 1.388 . S
C774 C775 1.366 1_556 S
C775 C774 1.366 1_554 S
C775 C776 1.414 . S
C775 C778 1.499 . S
C776 H756 0.950 . S
C776 C775 1.414 . S
C776 C777 1.374 . S
C777 H757 0.950 . S
C777 C773 1.384 1_554 S
C777 C776 1.374 . S
C778 C775 1.499 . S
C778 C779 1.373 1_554 S
C778 C780 1.389 . S
C779 H758 0.950 . S
C779 C778 1.373 1_556 S
C779 C795 1.377 . S
C780 C778 1.389 . S
C780 C781 1.524 . S
C780 C794 1.377 . S
C781 C780 1.524 . S
C781 C782 1.397 . S
C781 C786 1.363 . S
C782 H759 0.950 . S
C782 C781 1.397 . S
C782 C783 1.334 . S
C783 H760 0.950 . S
C783 C782 1.334 . S
C783 C784 1.287 . S
C784 C783 1.287 . S
C784 C785 1.524 . S
C784 H803 0.913 . S
C785 H761 0.950 . S
C785 C784 1.524 . S
C785 C786 1.415 . S
C786 H762 0.950 . S
C786 C781 1.363 . S
C786 C785 1.415 . S
C787 H763 0.951 . S
C787 C788 1.366 1_554 S
C787 C789 1.388 . S
C788 C787 1.366 1_556 S
C788 C792 1.384 . S
C789 H764 0.951 . S
C789 C787 1.388 . S
C789 C790 1.366 1_554 S
C790 C789 1.366 1_556 S
C790 C791 1.414 . S
C790 C793 1.499 . S
C791 H765 0.950 . S
C791 C790 1.414 . S
C791 C792 1.374 . S
C792 H766 0.950 . S
C792 C788 1.384 . S
C792 C791 1.374 . S
C793 C790 1.499 . S
C793 C794 1.373 1_556 S
C793 C795 1.389 . S
C794 H767 0.950 . S
C794 C780 1.377 . S
C794 C793 1.373 1_554 S
C795 C779 1.377 . S
C795 C793 1.389 . S
C795 C796 1.524 . S
C796 C795 1.524 . S
C796 C797 1.397 . S
C796 C801 1.363 . S
C797 H768 0.950 . S
C797 C796 1.397 . S
C797 C798 1.334 . S
C798 H769 0.950 . S
C798 C797 1.334 . S
C798 C799 1.287 . S
C799 C798 1.287 . S
C799 C800 1.524 . S
C799 H802 0.999 . S
C800 H770 0.950 . S
C800 C799 1.524 . S
C800 C801 1.415 . S
C801 H771 0.950 . S
C801 C796 1.363 . S
C801 C800 1.415 . S
H802 C799 0.999 . S
H803 C784 0.913 . S
H804 C822 0.951 . S
H805 C824 0.951 . S
H806 C826 0.950 . S
H807 C827 0.950 . S
H808 C829 0.950 . S
H809 C832 0.950 . S
H810 C833 0.950 . S
H811 C835 0.950 . S
H812 C836 0.950 . S
H813 C837 0.951 . S
H814 C839 0.951 . S
H815 C841 0.950 . S
H816 C842 0.950 . S
H817 C844 0.950 . S
H818 C847 0.950 . S
H819 C848 0.950 . S
H820 C850 0.950 . S
H821 C851 0.950 . S
C822 H804 0.951 . S
C822 C823 1.366 . S
C822 C824 1.388 . S
C823 C822 1.366 . S
C823 C827 1.385 . S
C824 H805 0.951 . S
C824 C822 1.388 . S
C824 C825 1.366 . S
C825 C824 1.366 . S
C825 C826 1.414 . S
C825 C828 1.499 . S
C826 H806 0.950 . S
C826 C825 1.414 . S
C826 C827 1.374 . S
C827 H807 0.950 . S
C827 C823 1.385 . S
C827 C826 1.374 . S
C828 C825 1.499 . S
C828 C829 1.373 . S
C828 C830 1.389 . S
C829 H808 0.950 . S
C829 C828 1.373 . S
C829 C845 1.377 . S
C830 C828 1.389 . S
C830 C831 1.524 . S
C830 C844 1.377 . S
C831 C830 1.524 . S
C831 C832 1.397 . S
C831 C836 1.363 . S
C832 H809 0.950 . S
C832 C831 1.397 . S
C832 C833 1.334 . S
C833 H810 0.950 . S
C833 C832 1.334 . S
C833 C834 1.287 . S
C834 C833 1.287 . S
C834 C835 1.524 . S
C834 H853 0.913 . S
C835 H811 0.950 . S
C835 C834 1.524 . S
C835 C836 1.415 . S
C836 H812 0.950 . S
C836 C831 1.363 . S
C836 C835 1.415 . S
C837 H813 0.951 . S
C837 C838 1.366 . S
C837 C839 1.388 . S
C838 C837 1.366 . S
C838 C842 1.385 . S
C839 H814 0.951 . S
C839 C837 1.388 . S
C839 C840 1.366 . S
C840 C839 1.366 . S
C840 C841 1.414 . S
C840 C843 1.499 . S
C841 H815 0.950 . S
C841 C840 1.414 . S
C841 C842 1.374 . S
C842 H816 0.950 . S
C842 C838 1.385 . S
C842 C841 1.374 . S
C843 C840 1.499 . S
C843 C844 1.373 . S
C843 C845 1.389 . S
C844 H817 0.950 . S
C844 C830 1.377 . S
C844 C843 1.373 . S
C845 C829 1.377 . S
C845 C843 1.389 . S
C845 C846 1.524 . S
C846 C845 1.524 . S
C846 C847 1.397 . S
C846 C851 1.363 . S
C847 H818 0.950 . S
C847 C846 1.397 . S
C847 C848 1.334 . S
C848 H819 0.950 . S
C848 C847 1.334 . S
C848 C849 1.287 . S
C849 C848 1.287 . S
C849 C850 1.524 . S
C849 H852 0.999 . S
C850 H820 0.950 . S
C850 C849 1.524 . S
C850 C851 1.415 . S
C851 H821 0.950 . S
C851 C846 1.363 . S
C851 C850 1.415 . S
H852 C849 0.999 . S
H853 C834 0.913 . S
H854 C872 0.951 . S
H855 C874 0.951 . S
H856 C876 0.950 . S
H857 C877 0.950 . S
H858 C879 0.950 . S
H859 C882 0.950 . S
H860 C883 0.950 . S
H861 C885 0.950 . S
H862 C886 0.950 . S
H863 C887 0.951 . S
H864 C889 0.951 . S
H865 C891 0.950 . S
H866 C892 0.950 . S
H867 C894 0.950 . S
H868 C897 0.950 . S
H869 C898 0.950 . S
H870 C900 0.950 . S
H871 C901 0.950 . S
C872 H854 0.951 . S
C872 C873 1.366 . S
C872 C874 1.388 . S
C873 C872 1.366 . S
C873 C877 1.385 . S
C874 H855 0.951 . S
C874 C872 1.388 . S
C874 C875 1.366 . S
C875 C874 1.366 . S
C875 C876 1.414 . S
C875 C878 1.499 . S
C876 H856 0.950 . S
C876 C875 1.414 . S
C876 C877 1.374 . S
C877 H857 0.950 . S
C877 C873 1.385 . S
C877 C876 1.374 . S
C878 C875 1.499 . S
C878 C879 1.373 . S
C878 C880 1.389 . S
C879 H858 0.950 . S
C879 C878 1.373 . S
C879 C895 1.377 . S
C880 C878 1.389 . S
C880 C881 1.524 . S
C880 C894 1.377 . S
C881 C880 1.524 . S
C881 C882 1.397 . S
C881 C886 1.363 . S
C882 H859 0.950 . S
C882 C881 1.397 . S
C882 C883 1.334 . S
C883 H860 0.950 . S
C883 C882 1.334 . S
C883 C884 1.287 . S
C884 C883 1.287 . S
C884 C885 1.524 . S
C884 H903 0.913 . S
C885 H861 0.950 . S
C885 C884 1.524 . S
C885 C886 1.415 . S
C886 H862 0.950 . S
C886 C881 1.363 . S
C886 C885 1.415 . S
C887 H863 0.951 . S
C887 C888 1.366 . S
C887 C889 1.388 . S
C888 C887 1.366 . S
C888 C892 1.385 . S
C889 H864 0.951 . S
C889 C887 1.388 . S
C889 C890 1.366 . S
C890 C889 1.366 . S
C890 C891 1.414 . S
C890 C893 1.499 . S
C891 H865 0.950 . S
C891 C890 1.414 . S
C891 C892 1.374 . S
C892 H866 0.950 . S
C892 C888 1.385 . S
C892 C891 1.374 . S
C893 C890 1.499 . S
C893 C894 1.373 . S
C893 C895 1.389 . S
C894 H867 0.950 . S
C894 C880 1.377 . S
C894 C893 1.373 . S
C895 C879 1.377 . S
C895 C893 1.389 . S
C895 C896 1.524 . S
C896 C895 1.524 . S
C896 C897 1.397 . S
C896 C901 1.363 . S
C897 H868 0.950 . S
C897 C896 1.397 . S
C897 C898 1.334 . S
C898 H869 0.950 . S
C898 C897 1.334 . S
C898 C899 1.287 . S
C899 C898 1.287 . S
C899 C900 1.524 . S
C899 H902 0.999 . S
C900 H870 0.950 . S
C900 C899 1.524 . S
C900 C901 1.415 . S
C901 H871 0.950 . S
C901 C896 1.363 . S
C901 C900 1.415 . S
H902 C899 0.999 . S
H903 C884 0.913 . S
H904 C922 0.951 . S
H905 C924 0.951 . S
H906 C926 0.950 . S
H907 C927 0.950 . S
H908 C929 0.950 . S
H909 C932 0.950 . S
H910 C933 0.950 . S
H911 C935 0.950 . S
H912 C936 0.950 . S
H913 C937 0.951 . S
H914 C939 0.951 . S
H915 C941 0.950 . S
H916 C942 0.950 . S
H917 C944 0.950 . S
H918 C947 0.950 . S
H919 C948 0.950 . S
H920 C950 0.950 . S
H921 C951 0.950 . S
C922 H904 0.951 . S
C922 C923 1.366 . S
C922 C924 1.388 . S
C923 C922 1.366 . S
C923 C927 1.385 . S
C924 H905 0.951 . S
C924 C922 1.388 . S
C924 C925 1.366 . S
C925 C924 1.366 . S
C925 C926 1.414 . S
C925 C928 1.499 . S
C926 H906 0.950 . S
C926 C925 1.414 . S
C926 C927 1.374 . S
C927 H907 0.950 . S
C927 C923 1.385 . S
C927 C926 1.374 . S
C928 C925 1.499 . S
C928 C929 1.373 . S
C928 C930 1.389 . S
C929 H908 0.950 . S
C929 C928 1.373 . S
C929 C945 1.377 . S
C930 C928 1.389 . S
C930 C931 1.524 . S
C930 C944 1.377 . S
C931 C930 1.524 . S
C931 C932 1.397 . S
C931 C936 1.363 . S
C932 H909 0.950 . S
C932 C931 1.397 . S
C932 C933 1.334 . S
C933 H910 0.950 . S
C933 C932 1.334 . S
C933 C934 1.287 . S
C934 C933 1.287 . S
C934 C935 1.524 . S
C934 H953 0.913 . S
C935 H911 0.950 . S
C935 C934 1.524 . S
C935 C936 1.415 . S
C936 H912 0.950 . S
C936 C931 1.363 . S
C936 C935 1.415 . S
C937 H913 0.951 . S
C937 C938 1.366 . S
C937 C939 1.388 . S
C938 C937 1.366 . S
C938 C942 1.385 . S
C939 H914 0.951 . S
C939 C937 1.388 . S
C939 C940 1.366 . S
C940 C939 1.366 . S
C940 C941 1.414 . S
C940 C943 1.499 . S
C941 H915 0.950 . S
C941 C940 1.414 . S
C941 C942 1.374 . S
C942 H916 0.950 . S
C942 C938 1.385 . S
C942 C941 1.374 . S
C943 C940 1.499 . S
C943 C944 1.373 . S
C943 C945 1.389 . S
C944 H917 0.950 . S
C944 C930 1.377 . S
C944 C943 1.373 . S
C945 C929 1.377 . S
C945 C943 1.389 . S
C945 C946 1.524 . S
C946 C945 1.524 . S
C946 C947 1.397 . S
C946 C951 1.363 . S
C947 H918 0.950 . S
C947 C946 1.397 . S
C947 C948 1.334 . S
C948 H919 0.950 . S
C948 C947 1.334 . S
C948 C949 1.287 . S
C949 C948 1.287 . S
C949 C950 1.524 . S
C949 H952 0.999 . S
C950 H920 0.950 . S
C950 C949 1.524 . S
C950 C951 1.415 . S
C951 H921 0.950 . S
C951 C946 1.363 . S
C951 C950 1.415 . S
H952 C949 0.999 . S
H953 C934 0.913 . S
H954 C972 0.951 . S
H955 C974 0.951 . S
H956 C976 0.950 . S
H957 C977 0.950 . S
H958 C979 0.950 . S
H959 C982 0.950 . S
H960 C983 0.950 . S
H961 C985 0.950 . S
H962 C986 0.950 . S
H963 C987 0.951 . S
H964 C989 0.951 . S
H965 C991 0.950 . S
H966 C992 0.950 . S
H967 C994 0.950 . S
H968 C997 0.950 . S
H969 C998 0.950 . S
H970 C1000 0.950 . S
H971 C1001 0.950 . S
C972 H954 0.951 . S
C972 C973 1.366 . S
C972 C974 1.388 . S
C973 C972 1.366 . S
C973 C977 1.385 . S
C974 H955 0.951 . S
C974 C972 1.388 . S
C974 C975 1.366 . S
C975 C974 1.366 . S
C975 C976 1.414 . S
C975 C978 1.499 . S
C976 H956 0.950 . S
C976 C975 1.414 . S
C976 C977 1.374 . S
C977 H957 0.950 . S
C977 C973 1.385 . S
C977 C976 1.374 . S
C978 C975 1.499 . S
C978 C979 1.373 . S
C978 C980 1.389 . S
C979 H958 0.950 . S
C979 C978 1.373 . S
C979 C995 1.377 . S
C980 C978 1.389 . S
C980 C981 1.524 . S
C980 C994 1.377 . S
C981 C980 1.524 . S
C981 C982 1.397 . S
C981 C986 1.363 . S
C982 H959 0.950 . S
C982 C981 1.397 . S
C982 C983 1.334 . S
C983 H960 0.950 . S
C983 C982 1.334 . S
C983 C984 1.287 . S
C984 C983 1.287 . S
C984 C985 1.524 . S
C984 H1003 0.913 . S
C985 H961 0.950 . S
C985 C984 1.524 . S
C985 C986 1.415 . S
C986 H962 0.950 . S
C986 C981 1.363 . S
C986 C985 1.415 . S
C987 H963 0.951 . S
C987 C988 1.366 . S
C987 C989 1.388 . S
C988 C987 1.366 . S
C988 C992 1.385 . S
C989 H964 0.951 . S
C989 C987 1.388 . S
C989 C990 1.366 . S
C990 C989 1.366 . S
C990 C991 1.414 . S
C990 C993 1.499 . S
C991 H965 0.950 . S
C991 C990 1.414 . S
C991 C992 1.374 . S
C992 H966 0.950 . S
C992 C988 1.385 . S
C992 C991 1.374 . S
C993 C990 1.499 . S
C993 C994 1.373 . S
C993 C995 1.389 . S
C994 H967 0.950 . S
C994 C980 1.377 . S
C994 C993 1.373 . S
C995 C979 1.377 . S
C995 C993 1.389 . S
C995 C996 1.524 . S
C996 C995 1.524 . S
C996 C997 1.397 . S
C996 C1001 1.363 . S
C997 H968 0.950 . S
C997 C996 1.397 . S
C997 C998 1.334 . S
C998 H969 0.950 . S
C998 C997 1.334 . S
C998 C999 1.287 . S
C999 C998 1.287 . S
C999 C1000 1.524 . S
C999 H1002 0.999 . S
C1000 H970 0.950 . S
C1000 C999 1.524 . S
C1000 C1001 1.415 . S
C1001 H971 0.950 . S
C1001 C996 1.363 . S
C1001 C1000 1.415 . S
H1002 C999 0.999 . S
H1003 C984 0.913 . S
H1004 C1022 0.951 . S
H1005 C1024 0.951 . S
H1006 C1026 0.950 . S
H1007 C1027 0.950 . S
H1008 C1029 0.950 . S
H1009 C1032 0.950 . S
H1010 C1033 0.950 . S
H1011 C1035 0.950 . S
H1012 C1036 0.950 . S
H1013 C1037 0.951 . S
H1014 C1039 0.951 . S
H1015 C1041 0.950 . S
H1016 C1042 0.950 . S
H1017 C1044 0.950 . S
H1018 C1047 0.950 . S
H1019 C1048 0.950 . S
H1020 C1050 0.950 . S
H1021 C1051 0.950 . S
C1022 H1004 0.951 . S
C1022 C1023 1.366 . S
C1022 C1024 1.388 . S
C1023 C1022 1.366 . S
C1023 C1027 1.385 . S
C1024 H1005 0.951 . S
C1024 C1022 1.388 . S
C1024 C1025 1.366 . S
C1025 C1024 1.366 . S
C1025 C1026 1.414 . S
C1025 C1028 1.499 . S
C1026 H1006 0.950 . S
C1026 C1025 1.414 . S
C1026 C1027 1.374 . S
C1027 H1007 0.950 . S
C1027 C1023 1.385 . S
C1027 C1026 1.374 . S
C1028 C1025 1.499 . S
C1028 C1029 1.373 . S
C1028 C1030 1.389 . S
C1029 H1008 0.950 . S
C1029 C1028 1.373 . S
C1029 C1045 1.377 . S
C1030 C1028 1.389 . S
C1030 C1031 1.524 . S
C1030 C1044 1.377 . S
C1031 C1030 1.524 . S
C1031 C1032 1.397 . S
C1031 C1036 1.363 . S
C1032 H1009 0.950 . S
C1032 C1031 1.397 . S
C1032 C1033 1.334 . S
C1033 H1010 0.950 . S
C1033 C1032 1.334 . S
C1033 C1034 1.287 . S
C1034 C1033 1.287 . S
C1034 C1035 1.524 . S
C1034 H1053 0.913 . S
C1035 H1011 0.950 . S
C1035 C1034 1.524 . S
C1035 C1036 1.415 . S
C1036 H1012 0.950 . S
C1036 C1031 1.363 . S
C1036 C1035 1.415 . S
C1037 H1013 0.951 . S
C1037 C1038 1.366 . S
C1037 C1039 1.388 . S
C1038 C1037 1.366 . S
C1038 C1042 1.385 . S
C1039 H1014 0.951 . S
C1039 C1037 1.388 . S
C1039 C1040 1.366 . S
C1040 C1039 1.366 . S
C1040 C1041 1.414 . S
C1040 C1043 1.499 . S
C1041 H1015 0.950 . S
C1041 C1040 1.414 . S
C1041 C1042 1.374 . S
C1042 H1016 0.950 . S
C1042 C1038 1.385 . S
C1042 C1041 1.374 . S
C1043 C1040 1.499 . S
C1043 C1044 1.373 . S
C1043 C1045 1.389 . S
C1044 H1017 0.950 . S
C1044 C1030 1.377 . S
C1044 C1043 1.373 . S
C1045 C1029 1.377 . S
C1045 C1043 1.389 . S
C1045 C1046 1.524 . S
C1046 C1045 1.524 . S
C1046 C1047 1.397 . S
C1046 C1051 1.363 . S
C1047 H1018 0.950 . S
C1047 C1046 1.397 . S
C1047 C1048 1.334 . S
C1048 H1019 0.950 . S
C1048 C1047 1.334 . S
C1048 C1049 1.287 . S
C1049 C1048 1.287 . S
C1049 C1050 1.524 . S
C1049 H1052 0.999 . S
C1050 H1020 0.950 . S
C1050 C1049 1.524 . S
C1050 C1051 1.415 . S
C1051 H1021 0.950 . S
C1051 C1046 1.363 . S
C1051 C1050 1.415 . S
H1052 C1049 0.999 . S
H1053 C1034 0.913 . S
H1054 C1072 0.951 . S
H1055 C1074 0.951 . S
H1056 C1076 0.950 . S
H1057 C1077 0.950 . S
H1058 C1079 0.950 . S
H1059 C1082 0.950 . S
H1060 C1083 0.950 . S
H1061 C1085 0.950 . S
H1062 C1086 0.950 . S
H1063 C1087 0.951 . S
H1064 C1089 0.951 . S
H1065 C1091 0.950 . S
H1066 C1092 0.950 . S
H1067 C1094 0.950 . S
H1068 C1097 0.950 . S
H1069 C1098 0.950 . S
H1070 C1100 0.950 . S
H1071 C1101 0.950 . S
C1072 H1054 0.951 . S
C1072 C1073 1.366 . S
C1072 C1074 1.388 . S
C1073 C1072 1.366 . S
C1073 C1077 1.385 . S
C1074 H1055 0.951 . S
C1074 C1072 1.388 . S
C1074 C1075 1.366 . S
C1075 C1074 1.366 . S
C1075 C1076 1.414 . S
C1075 C1078 1.499 . S
C1076 H1056 0.950 . S
C1076 C1075 1.414 . S
C1076 C1077 1.374 . S
C1077 H1057 0.950 . S
C1077 C1073 1.385 . S
C1077 C1076 1.374 . S
C1078 C1075 1.499 . S
C1078 C1079 1.373 . S
C1078 C1080 1.389 . S
C1079 H1058 0.950 . S
C1079 C1078 1.373 . S
C1079 C1095 1.377 . S
C1080 C1078 1.389 . S
C1080 C1081 1.524 . S
C1080 C1094 1.377 . S
C1081 C1080 1.524 . S
C1081 C1082 1.397 . S
C1081 C1086 1.363 . S
C1082 H1059 0.950 . S
C1082 C1081 1.397 . S
C1082 C1083 1.334 . S
C1083 H1060 0.950 . S
C1083 C1082 1.334 . S
C1083 C1084 1.287 . S
C1084 C1083 1.287 . S
C1084 C1085 1.524 . S
C1084 H1103 0.913 . S
C1085 H1061 0.950 . S
C1085 C1084 1.524 . S
C1085 C1086 1.415 . S
C1086 H1062 0.950 . S
C1086 C1081 1.363 . S
C1086 C1085 1.415 . S
C1087 H1063 0.951 . S
C1087 C1088 1.366 . S
C1087 C1089 1.388 . S
C1088 C1087 1.366 . S
C1088 C1092 1.385 . S
C1089 H1064 0.951 . S
C1089 C1087 1.388 . S
C1089 C1090 1.366 . S
C1090 C1089 1.366 . S
C1090 C1091 1.414 . S
C1090 C1093 1.499 . S
C1091 H1065 0.950 . S
C1091 C1090 1.414 . S
C1091 C1092 1.374 . S
C1092 H1066 0.950 . S
C1092 C1088 1.385 . S
C1092 C1091 1.374 . S
C1093 C1090 1.499 . S
C1093 C1094 1.373 . S
C1093 C1095 1.389 . S
C1094 H1067 0.950 . S
C1094 C1080 1.377 . S
C1094 C1093 1.373 . S
C1095 C1079 1.377 . S
C1095 C1093 1.389 . S
C1095 C1096 1.524 . S
C1096 C1095 1.524 . S
C1096 C1097 1.397 . S
C1096 C1101 1.363 . S
C1097 H1068 0.950 . S
C1097 C1096 1.397 . S
C1097 C1098 1.334 . S
C1098 H1069 0.950 . S
C1098 C1097 1.334 . S
C1098 C1099 1.287 . S
C1099 C1098 1.287 . S
C1099 C1100 1.524 . S
C1099 H1102 0.999 . S
C1100 H1070 0.950 . S
C1100 C1099 1.524 . S
C1100 C1101 1.415 . S
C1101 H1071 0.950 . S
C1101 C1096 1.363 . S
C1101 C1100 1.415 . S
H1102 C1099 0.999 . S
H1103 C1084 0.913 . S
H1104 C1122 0.951 . S
H1105 C1124 0.951 . S
H1106 C1126 0.950 . S
H1107 C1127 0.950 . S
H1108 C1129 0.950 . S
H1109 C1132 0.950 . S
H1110 C1133 0.950 . S
H1111 C1135 0.950 . S
H1112 C1136 0.950 . S
H1113 C1137 0.951 . S
H1114 C1139 0.951 . S
H1115 C1141 0.950 . S
H1116 C1142 0.950 . S
H1117 C1144 0.950 . S
H1118 C1147 0.950 . S
H1119 C1148 0.950 . S
H1120 C1150 0.950 . S
H1121 C1151 0.950 . S
C1122 H1104 0.951 . S
C1122 C1123 1.366 . S
C1122 C1124 1.388 . S
C1123 C1122 1.366 . S
C1123 C1127 1.385 . S
C1124 H1105 0.951 . S
C1124 C1122 1.388 . S
C1124 C1125 1.366 . S
C1125 C1124 1.366 . S
C1125 C1126 1.414 . S
C1125 C1128 1.499 . S
C1126 H1106 0.950 . S
C1126 C1125 1.414 . S
C1126 C1127 1.374 . S
C1127 H1107 0.950 . S
C1127 C1123 1.385 . S
C1127 C1126 1.374 . S
C1128 C1125 1.499 . S
C1128 C1129 1.373 . S
C1128 C1130 1.389 1_565 S
C1129 H1108 0.950 . S
C1129 C1128 1.373 . S
C1129 C1145 1.377 . S
C1130 C1128 1.389 1_545 S
C1130 C1131 1.524 . S
C1130 C1144 1.377 . S
C1131 C1130 1.524 . S
C1131 C1132 1.397 . S
C1131 C1136 1.363 . S
C1132 H1109 0.950 . S
C1132 C1131 1.397 . S
C1132 C1133 1.334 . S
C1133 H1110 0.950 . S
C1133 C1132 1.334 . S
C1133 C1134 1.287 . S
C1134 C1133 1.287 . S
C1134 C1135 1.524 . S
C1134 H1153 0.913 . S
C1135 H1111 0.950 . S
C1135 C1134 1.524 . S
C1135 C1136 1.415 . S
C1136 H1112 0.950 . S
C1136 C1131 1.363 . S
C1136 C1135 1.415 . S
C1137 H1113 0.951 . S
C1137 C1138 1.366 . S
C1137 C1139 1.388 . S
C1138 C1137 1.366 . S
C1138 C1142 1.385 . S
C1139 H1114 0.951 . S
C1139 C1137 1.388 . S
C1139 C1140 1.366 . S
C1140 C1139 1.366 . S
C1140 C1141 1.414 . S
C1140 C1143 1.499 . S
C1141 H1115 0.950 . S
C1141 C1140 1.414 . S
C1141 C1142 1.374 . S
C1142 H1116 0.950 . S
C1142 C1138 1.385 . S
C1142 C1141 1.374 . S
C1143 C1140 1.499 . S
C1143 C1144 1.373 . S
C1143 C1145 1.389 1_545 S
C1144 H1117 0.950 . S
C1144 C1130 1.377 . S
C1144 C1143 1.373 . S
C1145 C1129 1.377 . S
C1145 C1143 1.389 1_565 S
C1145 C1146 1.524 . S
C1146 C1145 1.524 . S
C1146 C1147 1.397 . S
C1146 C1151 1.363 . S
C1147 H1118 0.950 . S
C1147 C1146 1.397 . S
C1147 C1148 1.334 . S
C1148 H1119 0.950 . S
C1148 C1147 1.334 . S
C1148 C1149 1.287 . S
C1149 C1148 1.287 . S
C1149 C1150 1.524 . S
C1149 H1152 0.999 . S
C1150 H1120 0.950 . S
C1150 C1149 1.524 . S
C1150 C1151 1.415 . S
C1151 H1121 0.950 . S
C1151 C1146 1.363 . S
C1151 C1150 1.415 . S
H1152 C1149 0.999 . S
H1153 C1134 0.913 . S
H1154 C1172 0.951 . S
H1155 C1174 0.951 . S
H1156 C1176 0.950 1_545 S
H1157 C1177 0.950 . S
H1158 C1179 0.950 . S
H1159 C1182 0.950 . S
H1160 C1183 0.950 . S
H1161 C1185 0.950 . S
H1162 C1186 0.950 . S
H1163 C1187 0.951 . S
H1164 C1189 0.951 . S
H1165 C1191 0.950 1_565 S
H1166 C1192 0.950 . S
H1167 C1194 0.950 . S
H1168 C1197 0.950 . S
H1169 C1198 0.950 . S
H1170 C1200 0.950 . S
H1171 C1201 0.950 . S
C1172 H1154 0.951 . S
C1172 C1173 1.366 . S
C1172 C1174 1.388 . S
C1173 C1172 1.366 . S
C1173 C1177 1.385 . S
C1174 H1155 0.951 . S
C1174 C1172 1.388 . S
C1174 C1175 1.366 . S
C1175 C1174 1.366 . S
C1175 C1176 1.414 . S
C1175 C1178 1.499 . S
C1176 H1156 0.950 1_565 S
C1176 C1175 1.414 . S
C1176 C1177 1.374 . S
C1177 H1157 0.950 . S
C1177 C1173 1.385 . S
C1177 C1176 1.374 . S
C1178 C1175 1.499 . S
C1178 C1179 1.373 1_565 S
C1178 C1180 1.389 . S
C1179 H1158 0.950 . S
C1179 C1178 1.373 1_545 S
C1179 C1195 1.377 . S
C1180 C1178 1.389 . S
C1180 C1181 1.524 . S
C1180 C1194 1.377 . S
C1181 C1180 1.524 . S
C1181 C1182 1.397 . S
C1181 C1186 1.363 . S
C1182 H1159 0.950 . S
C1182 C1181 1.397 . S
C1182 C1183 1.334 . S
C1183 H1160 0.950 . S
C1183 C1182 1.334 . S
C1183 C1184 1.287 . S
C1184 C1183 1.287 . S
C1184 C1185 1.524 . S
C1184 H1203 0.913 . S
C1185 H1161 0.950 . S
C1185 C1184 1.524 . S
C1185 C1186 1.415 . S
C1186 H1162 0.950 . S
C1186 C1181 1.363 . S
C1186 C1185 1.415 . S
C1187 H1163 0.951 . S
C1187 C1188 1.366 . S
C1187 C1189 1.388 . S
C1188 C1187 1.366 . S
C1188 C1192 1.385 . S
C1189 H1164 0.951 . S
C1189 C1187 1.388 . S
C1189 C1190 1.366 . S
C1190 C1189 1.366 . S
C1190 C1191 1.414 . S
C1190 C1193 1.499 . S
C1191 H1165 0.950 1_545 S
C1191 C1190 1.414 . S
C1191 C1192 1.374 . S
C1192 H1166 0.950 . S
C1192 C1188 1.385 . S
C1192 C1191 1.374 . S
C1193 C1190 1.499 . S
C1193 C1194 1.373 1_545 S
C1193 C1195 1.389 . S
C1194 H1167 0.950 . S
C1194 C1180 1.377 . S
C1194 C1193 1.373 1_565 S
C1195 C1179 1.377 . S
C1195 C1193 1.389 . S
C1195 C1196 1.524 . S
C1196 C1195 1.524 . S
C1196 C1197 1.397 . S
C1196 C1201 1.363 . S
C1197 H1168 0.950 . S
C1197 C1196 1.397 . S
C1197 C1198 1.334 . S
C1198 H1169 0.950 . S
C1198 C1197 1.334 . S
C1198 C1199 1.287 . S
C1199 C1198 1.287 . S
C1199 C1200 1.524 . S
C1199 H1202 0.999 . S
C1200 H1170 0.950 . S
C1200 C1199 1.524 . S
C1200 C1201 1.415 . S
C1201 H1171 0.950 . S
C1201 C1196 1.363 . S
C1201 C1200 1.415 . S
H1202 C1199 0.999 . S
H1203 C1184 0.913 . S
H1204 C1222 0.951 . S
H1205 C1224 0.951 . S
H1206 C1226 0.950 1_545 S
H1207 C1227 0.950 . S
H1208 C1229 0.950 . S
H1209 C1232 0.950 . S
H1210 C1233 0.950 . S
H1211 C1235 0.950 . S
H1212 C1236 0.950 . S
H1213 C1237 0.951 . S
H1214 C1239 0.951 . S
H1215 C1241 0.950 1_565 S
H1216 C1242 0.950 . S
H1217 C1244 0.950 . S
H1218 C1247 0.950 . S
H1219 C1248 0.950 . S
H1220 C1250 0.950 . S
H1221 C1251 0.950 . S
C1222 H1204 0.951 . S
C1222 C1223 1.366 . S
C1222 C1224 1.388 . S
C1223 C1222 1.366 . S
C1223 C1227 1.385 . S
C1224 H1205 0.951 . S
C1224 C1222 1.388 . S
C1224 C1225 1.366 . S
C1225 C1224 1.366 . S
C1225 C1226 1.414 . S
C1225 C1228 1.499 . S
C1226 H1206 0.950 1_565 S
C1226 C1225 1.414 . S
C1226 C1227 1.374 . S
C1227 H1207 0.950 . S
C1227 C1223 1.385 . S
C1227 C1226 1.374 . S
C1228 C1225 1.499 . S
C1228 C1229 1.373 1_565 S
C1228 C1230 1.389 . S
C1229 H1208 0.950 . S
C1229 C1228 1.373 1_545 S
C1229 C1245 1.377 . S
C1230 C1228 1.389 . S
C1230 C1231 1.524 . S
C1230 C1244 1.377 . S
C1231 C1230 1.524 . S
C1231 C1232 1.397 . S
C1231 C1236 1.363 . S
C1232 H1209 0.950 . S
C1232 C1231 1.397 . S
C1232 C1233 1.334 . S
C1233 H1210 0.950 . S
C1233 C1232 1.334 . S
C1233 C1234 1.287 . S
C1234 C1233 1.287 . S
C1234 C1235 1.524 . S
C1234 H1253 0.913 . S
C1235 H1211 0.950 . S
C1235 C1234 1.524 . S
C1235 C1236 1.415 . S
C1236 H1212 0.950 . S
C1236 C1231 1.363 . S
C1236 C1235 1.415 . S
C1237 H1213 0.951 . S
C1237 C1238 1.366 . S
C1237 C1239 1.388 . S
C1238 C1237 1.366 . S
C1238 C1242 1.385 . S
C1239 H1214 0.951 . S
C1239 C1237 1.388 . S
C1239 C1240 1.366 . S
C1240 C1239 1.366 . S
C1240 C1241 1.414 . S
C1240 C1243 1.499 . S
C1241 H1215 0.950 1_545 S
C1241 C1240 1.414 . S
C1241 C1242 1.374 . S
C1242 H1216 0.950 . S
C1242 C1238 1.385 . S
C1242 C1241 1.374 . S
C1243 C1240 1.499 . S
C1243 C1244 1.373 1_545 S
C1243 C1245 1.389 . S
C1244 H1217 0.950 . S
C1244 C1230 1.377 . S
C1244 C1243 1.373 1_565 S
C1245 C1229 1.377 . S
C1245 C1243 1.389 . S
C1245 C1246 1.524 . S
C1246 C1245 1.524 . S
C1246 C1247 1.397 . S
C1246 C1251 1.363 . S
C1247 H1218 0.950 . S
C1247 C1246 1.397 . S
C1247 C1248 1.334 . S
C1248 H1219 0.950 . S
C1248 C1247 1.334 . S
C1248 C1249 1.287 . S
C1249 C1248 1.287 . S
C1249 C1250 1.524 . S
C1249 H1252 0.999 . S
C1250 H1220 0.950 . S
C1250 C1249 1.524 . S
C1250 C1251 1.415 . S
C1251 H1221 0.950 . S
C1251 C1246 1.363 . S
C1251 C1250 1.415 . S
H1252 C1249 0.999 . S
H1253 C1234 0.913 . S
H1254 C1272 0.951 . S
H1255 C1274 0.951 1_545 S
H1256 C1276 0.950 . S
H1257 C1277 0.950 . S
H1258 C1279 0.950 . S
H1259 C1282 0.950 . S
H1260 C1283 0.950 . S
H1261 C1285 0.950 . S
H1262 C1286 0.950 . S
H1263 C1287 0.951 . S
H1264 C1289 0.951 1_565 S
H1265 C1291 0.950 . S
H1266 C1292 0.950 . S
H1267 C1294 0.950 . S
H1268 C1297 0.950 . S
H1269 C1298 0.950 . S
H1270 C1300 0.950 . S
H1271 C1301 0.950 . S
C1272 H1254 0.951 . S
C1272 C1273 1.366 . S
C1272 C1274 1.388 . S
C1273 C1272 1.366 . S
C1273 C1277 1.385 . S
C1274 H1255 0.951 1_565 S
C1274 C1272 1.388 . S
C1274 C1275 1.366 . S
C1275 C1274 1.366 . S
C1275 C1276 1.414 . S
C1275 C1278 1.499 . S
C1276 H1256 0.950 . S
C1276 C1275 1.414 . S
C1276 C1277 1.374 . S
C1277 H1257 0.950 . S
C1277 C1273 1.385 . S
C1277 C1276 1.374 . S
C1278 C1275 1.499 . S
C1278 C1279 1.373 . S
C1278 C1280 1.389 1_565 S
C1279 H1258 0.950 . S
C1279 C1278 1.373 . S
C1279 C1295 1.377 . S
C1280 C1278 1.389 1_545 S
C1280 C1281 1.524 . S
C1280 C1294 1.377 . S
C1281 C1280 1.524 . S
C1281 C1282 1.397 1_545 S
C1281 C1286 1.363 . S
C1282 H1259 0.950 . S
C1282 C1281 1.397 1_565 S
C1282 C1283 1.334 . S
C1283 H1260 0.950 . S
C1283 C1282 1.334 . S
C1283 C1284 1.287 1_565 S
C1284 C1283 1.287 1_545 S
C1284 C1285 1.524 . S
C1284 H1303 0.913 . S
C1285 H1261 0.950 . S
C1285 C1284 1.524 . S
C1285 C1286 1.415 . S
C1286 H1262 0.950 . S
C1286 C1281 1.363 . S
C1286 C1285 1.415 . S
C1287 H1263 0.951 . S
C1287 C1288 1.366 . S
C1287 C1289 1.388 . S
C1288 C1287 1.366 . S
C1288 C1292 1.385 . S
C1289 H1264 0.951 1_545 S
C1289 C1287 1.388 . S
C1289 C1290 1.366 . S
C1290 C1289 1.366 . S
C1290 C1291 1.414 . S
C1290 C1293 1.499 . S
C1291 H1265 0.950 . S
C1291 C1290 1.414 . S
C1291 C1292 1.374 . S
C1292 H1266 0.950 . S
C1292 C1288 1.385 . S
C1292 C1291 1.374 . S
C1293 C1290 1.499 . S
C1293 C1294 1.373 . S
C1293 C1295 1.389 1_545 S
C1294 H1267 0.950 . S
C1294 C1280 1.377 . S
C1294 C1293 1.373 . S
C1295 C1279 1.377 . S
C1295 C1293 1.389 1_565 S
C1295 C1296 1.524 . S
C1296 C1295 1.524 . S
C1296 C1297 1.397 1_565 S
C1296 C1301 1.363 . S
C1297 H1268 0.950 . S
C1297 C1296 1.397 1_545 S
C1297 C1298 1.334 . S
C1298 H1269 0.950 . S
C1298 C1297 1.334 . S
C1298 C1299 1.287 1_545 S
C1299 C1298 1.287 1_565 S
C1299 C1300 1.524 . S
C1299 H1302 0.999 . S
C1300 H1270 0.950 . S
C1300 C1299 1.524 . S
C1300 C1301 1.415 . S
C1301 H1271 0.950 . S
C1301 C1296 1.363 . S
C1301 C1300 1.415 . S
H1302 C1299 0.999 . S
H1303 C1284 0.913 . S
H1304 C1322 0.951 . S
H1305 C1324 0.951 . S
H1306 C1326 0.950 . S
H1307 C1327 0.950 . S
H1308 C1329 0.950 . S
H1309 C1332 0.950 . S
H1310 C1333 0.950 . S
H1311 C1335 0.950 . S
H1312 C1336 0.950 . S
H1313 C1337 0.951 . S
H1314 C1339 0.951 . S
H1315 C1341 0.950 . S
H1316 C1342 0.950 . S
H1317 C1344 0.950 . S
H1318 C1347 0.950 . S
H1319 C1348 0.950 . S
H1320 C1350 0.950 . S
H1321 C1351 0.950 . S
C1322 H1304 0.951 . S
C1322 C1323 1.368 . S
C1322 C1324 1.388 . S
C1323 C1322 1.368 . S
C1323 C1327 1.383 1_554 S
C1324 H1305 0.951 . S
C1324 C1322 1.388 . S
C1324 C1325 1.366 . S
C1325 C1324 1.366 . S
C1325 C1326 1.414 1_554 S
C1325 C1328 1.499 . S
C1326 H1306 0.950 . S
C1326 C1325 1.414 1_556 S
C1326 C1327 1.374 . S
C1327 H1307 0.950 . S
C1327 C1323 1.383 1_556 S
C1327 C1326 1.374 . S
C1328 C1325 1.499 . S
C1328 C1329 1.373 1_554 S
C1328 C1330 1.389 . S
C1329 H1308 0.950 . S
C1329 C1328 1.373 1_556 S
C1329 C1345 1.377 1_565 S
C1330 C1328 1.389 . S
C1330 C1331 1.524 . S
C1330 C1344 1.377 1_565 S
C1331 C1330 1.524 . S
C1331 C1332 1.397 . S
C1331 C1336 1.363 . S
C1332 H1309 0.950 . S
C1332 C1331 1.397 . S
C1332 C1333 1.334 . S
C1333 H1310 0.950 . S
C1333 C1332 1.334 . S
C1333 C1334 1.287 . S
C1334 C1333 1.287 . S
C1334 C1335 1.524 . S
C1334 H1353 0.913 . S
C1335 H1311 0.950 . S
C1335 C1334 1.524 . S
C1335 C1336 1.415 . S
C1336 H1312 0.950 . S
C1336 C1331 1.363 . S
C1336 C1335 1.415 . S
C1337 H1313 0.951 . S
C1337 C1338 1.362 1_556 S
C1337 C1339 1.388 . S
C1338 C1337 1.362 1_554 S
C1338 C1342 1.388 . S
C1339 H1314 0.951 . S
C1339 C1337 1.388 . S
C1339 C1340 1.366 . S
C1340 C1339 1.366 . S
C1340 C1341 1.414 1_556 S
C1340 C1343 1.499 . S
C1341 H1315 0.950 . S
C1341 C1340 1.414 1_554 S
C1341 C1342 1.374 . S
C1342 H1316 0.950 . S
C1342 C1338 1.388 . S
C1342 C1341 1.374 . S
C1343 C1340 1.499 . S
C1343 C1344 1.343 1_556 S
C1343 C1345 1.418 . S
C1344 H1317 0.950 . S
C1344 C1330 1.377 1_545 S
C1344 C1343 1.343 1_554 S
C1345 C1329 1.377 1_545 S
C1345 C1343 1.418 . S
C1345 C1346 1.524 . S
C1346 C1345 1.524 . S
C1346 C1347 1.397 . S
C1346 C1351 1.363 . S
C1347 H1318 0.950 . S
C1347 C1346 1.397 . S
C1347 C1348 1.334 . S
C1348 H1319 0.950 . S
C1348 C1347 1.334 . S
C1348 C1349 1.287 . S
C1349 C1348 1.287 . S
C1349 C1350 1.524 . S
C1349 H1352 0.999 . S
C1350 H1320 0.950 . S
C1350 C1349 1.524 . S
C1350 C1351 1.415 . S
C1351 H1321 0.950 . S
C1351 C1346 1.363 . S
C1351 C1350 1.415 . S
H1352 C1349 0.999 . S
H1353 C1334 0.913 . S
H1354 C1372 0.951 . S
H1355 C1374 0.951 . S
H1356 C1376 0.950 . S
H1357 C1377 0.950 . S
H1358 C1379 0.950 . S
H1359 C1382 0.950 . S
H1360 C1383 0.950 . S
H1361 C1385 0.950 . S
H1362 C1386 0.950 . S
H1363 C1387 0.951 . S
H1364 C1389 0.951 . S
H1365 C1391 0.950 . S
H1366 C1392 0.950 . S
H1367 C1394 0.950 . S
H1368 C1397 0.950 . S
H1369 C1398 0.950 . S
H1370 C1400 0.950 . S
H1371 C1401 0.950 . S
C1372 H1354 0.951 . S
C1372 C1373 1.366 . S
C1372 C1374 1.388 . S
C1373 C1372 1.366 . S
C1373 C1377 1.385 . S
C1374 H1355 0.951 . S
C1374 C1372 1.388 . S
C1374 C1375 1.366 . S
C1375 C1374 1.366 . S
C1375 C1376 1.414 . S
C1375 C1378 1.499 . S
C1376 H1356 0.950 . S
C1376 C1375 1.414 . S
C1376 C1377 1.374 . S
C1377 H1357 0.950 . S
C1377 C1373 1.385 . S
C1377 C1376 1.374 . S
C1378 C1375 1.499 . S
C1378 C1379 1.373 . S
C1378 C1380 1.389 . S
C1379 H1358 0.950 . S
C1379 C1378 1.373 . S
C1379 C1395 1.377 1_565 S
C1380 C1378 1.389 . S
C1380 C1381 1.524 . S
C1380 C1394 1.377 1_565 S
C1381 C1380 1.524 . S
C1381 C1382 1.397 . S
C1381 C1386 1.363 1_565 S
C1382 H1359 0.950 . S
C1382 C1381 1.397 . S
C1382 C1383 1.334 . S
C1383 H1360 0.950 . S
C1383 C1382 1.334 . S
C1383 C1384 1.287 . S
C1384 C1383 1.287 . S
C1384 C1385 1.524 1_565 S
C1384 H1403 0.913 . S
C1385 H1361 0.950 . S
C1385 C1384 1.524 1_545 S
C1385 C1386 1.415 . S
C1386 H1362 0.950 . S
C1386 C1381 1.363 1_545 S
C1386 C1385 1.415 . S
C1387 H1363 0.951 . S
C1387 C1388 1.366 . S
C1387 C1389 1.388 . S
C1388 C1387 1.366 . S
C1388 C1392 1.385 . S
C1389 H1364 0.951 . S
C1389 C1387 1.388 . S
C1389 C1390 1.366 . S
C1390 C1389 1.366 . S
C1390 C1391 1.414 . S
C1390 C1393 1.499 . S
C1391 H1365 0.950 . S
C1391 C1390 1.414 . S
C1391 C1392 1.374 . S
C1392 H1366 0.950 . S
C1392 C1388 1.385 . S
C1392 C1391 1.374 . S
C1393 C1390 1.499 . S
C1393 C1394 1.373 . S
C1393 C1395 1.389 . S
C1394 H1367 0.950 . S
C1394 C1380 1.377 1_545 S
C1394 C1393 1.373 . S
C1395 C1379 1.377 1_545 S
C1395 C1393 1.389 . S
C1395 C1396 1.524 . S
C1396 C1395 1.524 . S
C1396 C1397 1.397 . S
C1396 C1401 1.363 1_545 S
C1397 H1368 0.950 . S
C1397 C1396 1.397 . S
C1397 C1398 1.334 . S
C1398 H1369 0.950 . S
C1398 C1397 1.334 . S
C1398 C1399 1.287 . S
C1399 C1398 1.287 . S
C1399 C1400 1.524 1_545 S
C1399 H1402 0.999 . S
C1400 H1370 0.950 . S
C1400 C1399 1.524 1_565 S
C1400 C1401 1.415 . S
C1401 H1371 0.950 . S
C1401 C1396 1.363 1_565 S
C1401 C1400 1.415 . S
H1402 C1399 0.999 . S
H1403 C1384 0.913 . S
H1404 C1422 0.951 . S
H1405 C1424 0.951 . S
H1406 C1426 0.950 1_655 S
H1407 C1427 0.950 . S
H1408 C1429 0.950 . S
H1409 C1432 0.924 1_655 S
H1410 C1433 0.950 . S
H1411 C1435 0.950 . S
H1412 C1436 0.950 . S
H1413 C1437 0.951 . S
H1414 C1439 0.951 . S
H1415 C1441 0.950 1_455 S
H1416 C1442 0.950 . S
H1417 C1444 0.950 . S
H1418 C1447 0.924 1_455 S
H1419 C1448 0.950 . S
H1420 C1450 0.950 . S
H1421 C1451 0.950 . S
C1422 H1404 0.951 . S
C1422 C1423 1.363 1_556 S
C1422 C1424 1.388 . S
C1423 C1422 1.363 1_554 S
C1423 C1427 1.387 . S
C1424 H1405 0.951 . S
C1424 C1422 1.388 . S
C1424 C1425 1.366 . S
C1425 C1424 1.366 . S
C1425 C1426 1.414 1_556 S
C1425 C1428 1.499 . S
C1426 H1406 0.950 1_455 S
C1426 C1425 1.414 1_554 S
C1426 C1427 1.374 . S
C1427 H1407 0.950 . S
C1427 C1423 1.387 . S
C1427 C1426 1.374 . S
C1428 C1425 1.499 . S
C1428 C1429 1.373 1_456 S
C1428 C1430 1.389 . S
C1429 H1408 0.950 . S
C1429 C1428 1.373 1_654 S
C1429 C1445 1.377 . S
C1430 C1428 1.389 . S
C1430 C1431 1.524 . S
C1430 C1444 1.377 . S
C1431 C1430 1.524 . S
C1431 C1432 1.397 . S
C1431 C1436 1.363 . S
C1432 H1409 0.924 1_455 S
C1432 C1431 1.397 . S
C1432 C1433 1.334 . S
C1433 H1410 0.950 . S
C1433 C1432 1.334 . S
C1433 C1434 1.287 . S
C1434 C1433 1.287 . S
C1434 C1435 1.524 . S
C1434 H1453 0.913 . S
C1435 H1411 0.950 . S
C1435 C1434 1.524 . S
C1435 C1436 1.415 . S
C1436 H1412 0.950 . S
C1436 C1431 1.363 . S
C1436 C1435 1.415 . S
C1437 H1413 0.951 . S
C1437 C1438 1.367 . S
C1437 C1439 1.388 . S
C1438 C1437 1.367 . S
C1438 C1442 1.383 1_554 S
C1439 H1414 0.951 . S
C1439 C1437 1.388 . S
C1439 C1440 1.366 . S
C1440 C1439 1.366 . S
C1440 C1441 1.414 1_554 S
C1440 C1443 1.499 . S
C1441 H1415 0.950 1_655 S
C1441 C1440 1.414 1_556 S
C1441 C1442 1.374 . S
C1442 H1416 0.950 . S
C1442 C1438 1.383 1_556 S
C1442 C1441 1.374 . S
C1443 C1440 1.499 . S
C1443 C1444 1.373 1_654 S
C1443 C1445 1.389 . S
C1444 H1417 0.950 . S
C1444 C1430 1.377 . S
C1444 C1443 1.373 1_456 S
C1445 C1429 1.377 . S
C1445 C1443 1.389 . S
C1445 C1446 1.524 . S
C1446 C1445 1.524 . S
C1446 C1447 1.397 . S
C1446 C1451 1.363 . S
C1447 H1418 0.924 1_655 S
C1447 C1446 1.397 . S
C1447 C1448 1.334 . S
C1448 H1419 0.950 . S
C1448 C1447 1.334 . S
C1448 C1449 1.287 . S
C1449 C1448 1.287 . S
C1449 C1450 1.524 . S
C1449 H1452 0.999 . S
C1450 H1420 0.950 . S
C1450 C1449 1.524 . S
C1450 C1451 1.415 . S
C1451 H1421 0.950 . S
C1451 C1446 1.363 . S
C1451 C1450 1.415 . S
H1452 C1449 0.999 . S
H1453 C1434 0.913 . S
H1454 C1472 0.951 . S
H1455 C1474 0.951 . S
H1456 C1476 0.950 1_655 S
H1457 C1477 0.950 . S
H1458 C1479 0.950 . S
H1459 C1482 0.950 . S
H1460 C1483 0.955 . S
H1461 C1485 0.950 . S
H1462 C1486 0.950 . S
H1463 C1487 0.951 . S
H1464 C1489 0.951 . S
H1465 C1491 0.950 1_455 S
H1466 C1492 0.950 . S
H1467 C1494 0.950 . S
H1468 C1497 0.950 . S
H1469 C1498 0.955 . S
H1470 C1500 0.950 . S
H1471 C1501 0.950 . S
C1472 H1454 0.951 . S
C1472 C1473 1.366 . S
C1472 C1474 1.388 . S
C1473 C1472 1.366 . S
C1473 C1477 1.385 . S
C1474 H1455 0.951 . S
C1474 C1472 1.388 . S
C1474 C1475 1.366 . S
C1475 C1474 1.366 . S
C1475 C1476 1.414 . S
C1475 C1478 1.499 . S
C1476 H1456 0.950 1_455 S
C1476 C1475 1.414 . S
C1476 C1477 1.374 . S
C1477 H1457 0.950 . S
C1477 C1473 1.385 . S
C1477 C1476 1.374 . S
C1478 C1475 1.499 . S
C1478 C1479 1.373 . S
C1478 C1480 1.389 . S
C1479 H1458 0.950 . S
C1479 C1478 1.373 . S
C1479 C1495 1.377 1_455 S
C1480 C1478 1.389 . S
C1480 C1481 1.524 . S
C1480 C1494 1.377 1_455 S
C1481 C1480 1.524 . S
C1481 C1482 1.397 1_455 S
C1481 C1486 1.363 . S
C1482 H1459 0.950 . S
C1482 C1481 1.397 1_655 S
C1482 C1483 1.335 . S
C1483 H1460 0.955 . S
C1483 C1482 1.335 . S
C1483 C1484 1.281 1_655 S
C1484 C1483 1.281 1_455 S
C1484 C1485 1.524 . S
C1484 H1503 0.913 . S
C1485 H1461 0.950 . S
C1485 C1484 1.524 . S
C1485 C1486 1.415 . S
C1486 H1462 0.950 . S
C1486 C1481 1.363 . S
C1486 C1485 1.415 . S
C1487 H1463 0.951 . S
C1487 C1488 1.366 . S
C1487 C1489 1.388 . S
C1488 C1487 1.366 . S
C1488 C1492 1.385 . S
C1489 H1464 0.951 . S
C1489 C1487 1.388 . S
C1489 C1490 1.366 . S
C1490 C1489 1.366 . S
C1490 C1491 1.414 . S
C1490 C1493 1.499 . S
C1491 H1465 0.950 1_655 S
C1491 C1490 1.414 . S
C1491 C1492 1.374 . S
C1492 H1466 0.950 . S
C1492 C1488 1.385 . S
C1492 C1491 1.374 . S
C1493 C1490 1.499 . S
C1493 C1494 1.373 . S
C1493 C1495 1.389 . S
C1494 H1467 0.950 . S
C1494 C1480 1.377 1_655 S
C1494 C1493 1.373 . S
C1495 C1479 1.377 1_655 S
C1495 C1493 1.389 . S
C1495 C1496 1.524 . S
C1496 C1495 1.524 . S
C1496 C1497 1.397 1_655 S
C1496 C1501 1.363 . S
C1497 H1468 0.950 . S
C1497 C1496 1.397 1_455 S
C1497 C1498 1.335 . S
C1498 H1469 0.955 . S
C1498 C1497 1.335 . S
C1498 C1499 1.281 1_455 S
C1499 C1498 1.281 1_655 S
C1499 C1500 1.524 . S
C1499 H1502 0.999 . S
C1500 H1470 0.950 . S
C1500 C1499 1.524 . S
C1500 C1501 1.415 . S
C1501 H1471 0.950 . S
C1501 C1496 1.363 . S
C1501 C1500 1.415 . S
H1502 C1499 0.999 . S
H1503 C1484 0.913 . S
C723 C460 1.563 1_556 S
C738 C29 1.563 1_556 S
C773 C381 1.563 1_556 S
C788 C108 1.563 1_556 S
C823 C673 1.563 . S
C838 C225 1.563 . S
C873 C577 1.563 . S
C888 C321 1.563 . S
C923 C20 1.279 . S
C938 C233 1.274 . S
C973 C117 1.279 . S
C988 C313 1.274 . S
C1023 C145 1.278 . S
C1038 C284 1.281 . S
C1073 C49 1.278 . S
C1088 C205 1.281 . S
C1123 C372 1.278 . S
C1138 C585 1.275 . S
C1173 C665 1.278 . S
C1188 C469 1.275 . S
C1223 C636 1.278 . S
C1238 C497 1.281 . S
C1273 C401 1.277 . S
C1288 C557 1.282 . S
C1323 C137 1.596 . S
C1338 C57 1.596 . S
C1373 C196 1.596 . S
C1388 C293 1.596 . S
C1423 C409 1.596 . S
C1438 C489 1.596 . S
C1473 C548 1.596 . S
C1488 C645 1.596 . S
