# Generated by pormake.
# Topology umv, (4)-cn, num edge types: 1
# Building blocks:
#     Node 0, Type 0, BuildingBlock: CEKHIL_clean_sbu_0, # of connection points: 4
#     Node 1, Type 0, BuildingBlock: CEKHIL_clean_sbu_0, # of connection points: 4
#     Node 2, Type 0, BuildingBlock: CEKHIL_clean_sbu_0, # of connection points: 4
#     Node 3, Type 0, BuildingBlock: CEKHIL_clean_sbu_0, # of connection points: 4
#     Node 4, Type 0, BuildingBlock: CEKHIL_clean_sbu_0, # of connection points: 4
#     Node 5, Type 0, BuildingBlock: CEKHIL_clean_sbu_0, # of connection points: 4
#     Node 6, Type 0, BuildingBlock: CEKHIL_clean_sbu_0, # of connection points: 4
#     Node 7, Type 0, BuildingBlock: CEKHIL_clean_sbu_0, # of connection points: 4
#     Node 8, Type 0, BuildingBlock: CEKHIL_clean_sbu_0, # of connection points: 4
#     Node 9, Type 0, BuildingBlock: CEKHIL_clean_sbu_0, # of connection points: 4
#     Node 10, Type 0, BuildingBlock: CEKHIL_clean_sbu_0, # of connection points: 4
#     Node 11, Type 0, BuildingBlock: CEKHIL_clean_sbu_0, # of connection points: 4
#     Node 12, Type 0, BuildingBlock: CEKHIL_clean_sbu_0, # of connection points: 4
#     Node 13, Type 0, BuildingBlock: CEKHIL_clean_sbu_0, # of connection points: 4
#     Node 14, Type 0, BuildingBlock: CEKHIL_clean_sbu_0, # of connection points: 4
#     Node 15, Type 0, BuildingBlock: CEKHIL_clean_sbu_0, # of connection points: 4
#     Node 16, Type 0, BuildingBlock: CEKHIL_clean_sbu_0, # of connection points: 4
#     Node 17, Type 0, BuildingBlock: CEKHIL_clean_sbu_0, # of connection points: 4
#     Node 18, Type 0, BuildingBlock: CEKHIL_clean_sbu_0, # of connection points: 4
#     Node 19, Type 0, BuildingBlock: CEKHIL_clean_sbu_0, # of connection points: 4
#     Node 20, Type 0, BuildingBlock: CEKHIL_clean_sbu_0, # of connection points: 4
#     Node 21, Type 0, BuildingBlock: CEKHIL_clean_sbu_0, # of connection points: 4
#     Node 22, Type 0, BuildingBlock: CEKHIL_clean_sbu_0, # of connection points: 4
#     Node 23, Type 0, BuildingBlock: CEKHIL_clean_sbu_0, # of connection points: 4
#     Node 24, Type 0, BuildingBlock: CEKHIL_clean_sbu_0, # of connection points: 4
#     Node 25, Type 0, BuildingBlock: CEKHIL_clean_sbu_0, # of connection points: 4
#     Node 26, Type 0, BuildingBlock: CEKHIL_clean_sbu_0, # of connection points: 4
#     Node 27, Type 0, BuildingBlock: CEKHIL_clean_sbu_0, # of connection points: 4
#     Node 28, Type 0, BuildingBlock: CEKHIL_clean_sbu_0, # of connection points: 4
#     Node 29, Type 0, BuildingBlock: CEKHIL_clean_sbu_0, # of connection points: 4
#     Node 30, Type 0, BuildingBlock: CEKHIL_clean_sbu_0, # of connection points: 4
#     Node 31, Type 0, BuildingBlock: CEKHIL_clean_sbu_0, # of connection points: 4
#     Edge 32, Type (0, 0), None
#     Edge 33, Type (0, 0), None
#     Edge 34, Type (0, 0), None
#     Edge 35, Type (0, 0), None
#     Edge 36, Type (0, 0), None
#     Edge 37, Type (0, 0), None
#     Edge 38, Type (0, 0), None
#     Edge 39, Type (0, 0), None
#     Edge 40, Type (0, 0), None
#     Edge 41, Type (0, 0), None
#     Edge 42, Type (0, 0), None
#     Edge 43, Type (0, 0), None
#     Edge 44, Type (0, 0), None
#     Edge 45, Type (0, 0), None
#     Edge 46, Type (0, 0), None
#     Edge 47, Type (0, 0), None
#     Edge 48, Type (0, 0), None
#     Edge 49, Type (0, 0), None
#     Edge 50, Type (0, 0), None
#     Edge 51, Type (0, 0), None
#     Edge 52, Type (0, 0), None
#     Edge 53, Type (0, 0), None
#     Edge 54, Type (0, 0), None
#     Edge 55, Type (0, 0), None
#     Edge 56, Type (0, 0), None
#     Edge 57, Type (0, 0), None
#     Edge 58, Type (0, 0), None
#     Edge 59, Type (0, 0), None
#     Edge 60, Type (0, 0), None
#     Edge 61, Type (0, 0), None
#     Edge 62, Type (0, 0), None
#     Edge 63, Type (0, 0), None
#     Edge 64, Type (0, 0), None
#     Edge 65, Type (0, 0), None
#     Edge 66, Type (0, 0), None
#     Edge 67, Type (0, 0), None
#     Edge 68, Type (0, 0), None
#     Edge 69, Type (0, 0), None
#     Edge 70, Type (0, 0), None
#     Edge 71, Type (0, 0), None
#     Edge 72, Type (0, 0), None
#     Edge 73, Type (0, 0), None
#     Edge 74, Type (0, 0), None
#     Edge 75, Type (0, 0), None
#     Edge 76, Type (0, 0), None
#     Edge 77, Type (0, 0), None
#     Edge 78, Type (0, 0), None
#     Edge 79, Type (0, 0), None
#     Edge 80, Type (0, 0), None
#     Edge 81, Type (0, 0), None
#     Edge 82, Type (0, 0), None
#     Edge 83, Type (0, 0), None
#     Edge 84, Type (0, 0), None
#     Edge 85, Type (0, 0), None
#     Edge 86, Type (0, 0), None
#     Edge 87, Type (0, 0), None
#     Edge 88, Type (0, 0), None
#     Edge 89, Type (0, 0), None
#     Edge 90, Type (0, 0), None
#     Edge 91, Type (0, 0), None
#     Edge 92, Type (0, 0), None
#     Edge 93, Type (0, 0), None
#     Edge 94, Type (0, 0), None
#     Edge 95, Type (0, 0), None
# Relax obj value: 0.119
# Max RMSD: 0.107
# Mean RMSD: 0.107
data_MOF--net-umv--node1-CEKHIL_clean_sbu_0--edge1-none
_symmetry_space_group_name_H-M    P1
_symmetry_Int_Tables_number       1
_symmetry_cell_setting            triclinic
loop_
_symmetry_equiv_pos_as_xyz
'x, y, z'
_cell_length_a     44.813458
_cell_length_b     11.279299
_cell_length_c     26.412532
_cell_angle_alpha  89.99999
_cell_angle_beta   90.000001
_cell_angle_gamma 90.016004
loop_
_atom_site_label
_atom_site_type_symbol
_atom_site_fract_x
_atom_site_fract_y
_atom_site_fract_z
_atom_type_partial_charge
Co0 Co 0.08674 0.09856 0.31812 0.0
O1 O 0.0443 0.13548 0.30496 0.0
O2 O 0.08008 0.17413 0.25118 0.0
C3 C 0.08125 0.91826 0.36092 0.0
O4 O 0.13343 0.08737 0.32418 0.0
Co5 Co 0.09808 0.10452 0.43614 0.0
O6 O 0.1395 0.11714 0.40848 0.0
C7 C 0.07626 0.30093 0.37708 0.0
C8 C 0.05236 0.19273 0.26462 0.0
C9 C 0.15027 0.10893 0.36357 0.0
O10 O 0.0913 0.25748 0.34158 0.0
O11 O 0.07296 0.24733 0.41941 0.0
O12 O 0.08156 0.92119 0.3114 0.0
O13 O 0.08087 0.02159 0.38008 0.0
Co14 Co 0.24762 0.12784 0.31812 0.0
O15 O 0.29006 0.09093 0.30496 0.0
O16 O 0.25428 0.05227 0.25118 0.0
C17 C 0.25311 0.30814 0.36092 0.0
O18 O 0.20093 0.13902 0.32418 0.0
Co19 Co 0.23628 0.12187 0.43614 0.0
O20 O 0.19487 0.10923 0.40848 0.0
C21 C 0.25811 0.92546 0.37708 0.0
C22 C 0.28201 0.03368 0.26462 0.0
C23 C 0.18409 0.11744 0.36357 0.0
O24 O 0.24306 0.96891 0.34158 0.0
O25 O 0.26141 0.97906 0.41941 0.0
O26 O 0.2528 0.3052 0.3114 0.0
O27 O 0.25349 0.2048 0.38007 0.0
Co28 Co 0.08674 0.12784 0.93558 0.0
O29 O 0.0443 0.09089 0.94876 0.0
O30 O 0.08008 0.05231 0.00253 0.0
C31 C 0.08125 0.30811 0.89277 0.0
O32 O 0.13343 0.13906 0.9295 0.0
Co33 Co 0.09807 0.12184 0.81756 0.0
O34 O 0.13949 0.10921 0.84521 0.0
C35 C 0.07625 0.9254 0.87663 0.0
C36 C 0.05235 0.03368 0.9891 0.0
C37 C 0.15027 0.11745 0.89012 0.0
O38 O 0.09129 0.9689 0.91214 0.0
O39 O 0.07295 0.97899 0.8343 0.0
O40 O 0.08157 0.30519 0.94228 0.0
O41 O 0.08086 0.20477 0.87362 0.0
Co42 Co 0.24761 0.09856 0.93558 0.0
O43 O 0.29006 0.13551 0.94875 0.0
O44 O 0.25428 0.17409 0.00253 0.0
C45 C 0.2531 0.91828 0.89277 0.0
O46 O 0.20092 0.08734 0.9295 0.0
Co47 Co 0.23628 0.10455 0.81756 0.0
O48 O 0.19487 0.11719 0.84521 0.0
C49 C 0.25811 0.30099 0.87663 0.0
C50 C 0.282 0.19273 0.9891 0.0
C51 C 0.18409 0.10895 0.89012 0.0
O52 O 0.24307 0.25749 0.91213 0.0
O53 O 0.2614 0.24739 0.8343 0.0
O54 O 0.25279 0.92121 0.94228 0.0
O55 O 0.25349 0.02162 0.87362 0.0
Co56 Co 0.99762 0.87784 0.68561 0.0
O57 O 1.04006 0.84091 0.69877 0.0
O58 O 1.00428 0.80227 0.75255 0.0
C59 C 1.00311 0.05813 0.64281 0.0
O60 O 0.95093 0.88903 0.67954 0.0
Co61 Co 0.98628 0.87187 0.56759 0.0
O62 O 0.94487 0.85925 0.59525 0.0
C63 C 1.0081 0.67546 0.62665 0.0
C64 C 1.03201 0.78367 0.73911 0.0
C65 C 0.93409 0.86746 0.64015 0.0
O66 O 0.99306 0.71891 0.66215 0.0
O67 O 1.0114 0.72906 0.58432 0.0
O68 O 1.00281 0.0552 0.69232 0.0
O69 O 1.00349 0.9548 0.62365 0.0
Co70 Co 0.83674 0.84855 0.68561 0.0
O71 O 0.7943 0.88546 0.69877 0.0
O72 O 0.83008 0.92412 0.75255 0.0
C73 C 0.83125 0.66825 0.64281 0.0
O74 O 0.88343 0.83737 0.67954 0.0
Co75 Co 0.84808 0.85452 0.56759 0.0
O76 O 0.88949 0.86716 0.59525 0.0
C77 C 0.82625 0.05093 0.62665 0.0
C78 C 0.80235 0.94271 0.73911 0.0
C79 C 0.90027 0.85895 0.64015 0.0
O80 O 0.8413 0.00748 0.66215 0.0
O81 O 0.82295 -0.00268 0.58432 0.0
O82 O 0.83156 0.67119 0.69232 0.0
O83 O 0.83087 0.77158 0.62365 0.0
Co84 Co 0.99762 0.84856 0.06815 0.0
O85 O 1.04006 0.88552 0.05498 0.0
O86 O 1.00428 0.92409 1.0012 0.0
C87 C 1.00311 0.66828 0.11096 0.0
O88 O 0.95093 0.83733 0.07422 0.0
Co89 Co 0.98628 0.85454 0.18617 0.0
O90 O 0.94487 0.86717 0.15851 0.0
C91 C 1.00811 0.05099 0.1271 0.0
C92 C 1.032 0.94275 0.01464 0.0
C93 C 0.93409 0.85893 0.11361 0.0
O94 O 0.99307 0.00749 0.09159 0.0
O95 O 1.01141 -0.0026 0.16943 0.0
O96 O 1.0028 0.67121 0.06144 0.0
O97 O 1.0035 0.77162 0.13011 0.0
Co98 Co 0.83675 0.87783 0.06815 0.0
O99 O 0.7943 0.84088 0.05497 0.0
O100 O 0.83008 0.8023 1.0012 0.0
C101 C 0.83126 0.05811 0.11096 0.0
O102 O 0.88344 0.88905 0.07422 0.0
Co103 Co 0.84808 0.87184 0.18617 0.0
O104 O 0.88949 0.85919 0.15851 0.0
C105 C 0.82625 0.6754 0.1271 0.0
C106 C 0.80236 0.78366 0.01463 0.0
C107 C 0.90027 0.86743 0.11361 0.0
O108 O 0.84129 0.71889 0.09159 0.0
O109 O 0.82295 0.72899 0.16943 0.0
O110 O 0.83157 0.05518 0.06144 0.0
O111 O 0.83087 0.95477 0.13011 0.0
Co112 Co 0.08674 0.59856 0.81812 0.0
O113 O 0.04429 0.63546 0.80496 0.0
O114 O 0.08007 0.67412 0.75118 0.0
C115 C 0.08125 0.41828 0.86093 0.0
O116 O 0.13343 0.58739 0.82419 0.0
Co117 Co 0.09807 0.60459 0.93615 0.0
O118 O 0.13949 0.61716 0.90849 0.0
C119 C 0.07622 0.80089 0.87707 0.0
C120 C 0.05235 0.69273 0.76462 0.0
C121 C 0.15027 0.60894 0.86358 0.0
O122 O 0.09129 0.75749 0.84158 0.0
O123 O 0.07296 0.74743 0.91944 0.0
O124 O 0.08155 0.4212 0.81142 0.0
O125 O 0.08087 0.52161 0.88009 0.0
Co126 Co 0.24762 0.62783 0.81812 0.0
O127 O 0.29006 0.59093 0.80496 0.0
O128 O 0.25429 0.55228 0.75118 0.0
C129 C 0.25311 0.80811 0.86093 0.0
O130 O 0.20093 0.63899 0.82419 0.0
Co131 Co 0.23628 0.62179 0.93615 0.0
O132 O 0.19487 0.6092 0.90849 0.0
C133 C 0.25814 0.42549 0.87706 0.0
C134 C 0.28201 0.53368 0.76461 0.0
C135 C 0.18409 0.61742 0.86358 0.0
O136 O 0.24307 0.4689 0.84158 0.0
O137 O 0.2614 0.47896 0.91944 0.0
O138 O 0.2528 0.80519 0.81142 0.0
O139 O 0.25349 0.70478 0.88009 0.0
Co140 Co 0.08674 0.62783 0.43558 0.0
O141 O 0.0443 0.5909 0.44876 0.0
O142 O 0.08008 0.55231 0.50253 0.0
C143 C 0.08125 0.80809 0.39276 0.0
O144 O 0.13343 0.63903 0.4295 0.0
Co145 Co 0.09808 0.62177 0.31755 0.0
O146 O 0.13949 0.60919 0.34521 0.0
C147 C 0.07622 0.42544 0.37665 0.0
C148 C 0.05235 0.53369 0.4891 0.0
C149 C 0.15027 0.61744 0.39011 0.0
O150 O 0.09128 0.46889 0.41214 0.0
O151 O 0.07296 0.47889 0.33427 0.0
O152 O 0.08157 0.80518 0.44227 0.0
O153 O 0.08087 0.70474 0.37361 0.0
Co154 Co 0.24762 0.59856 0.43558 0.0
O155 O 0.29007 0.63548 0.44876 0.0
O156 O 0.25428 0.67407 0.50253 0.0
C157 C 0.25311 0.4183 0.39276 0.0
O158 O 0.20093 0.58737 0.4295 0.0
Co159 Co 0.23629 0.60462 0.31755 0.0
O160 O 0.19487 0.61722 0.34521 0.0
C161 C 0.25815 0.80095 0.37665 0.0
C162 C 0.28201 0.69269 0.48911 0.0
C163 C 0.18409 0.60897 0.39011 0.0
O164 O 0.24309 0.7575 0.41214 0.0
O165 O 0.26141 0.7475 0.33427 0.0
O166 O 0.25279 0.42121 0.44227 0.0
O167 O 0.2535 0.52165 0.37361 0.0
Co168 Co 0.99762 0.37783 0.1856 0.0
O169 O 1.04007 0.34093 0.19877 0.0
O170 O 1.00429 0.30228 0.25255 0.0
C171 C 1.00311 0.55812 0.14279 0.0
O172 O 0.95093 0.38901 0.17954 0.0
Co173 Co 0.98629 0.3718 0.06758 0.0
O174 O 0.94487 0.35923 0.09524 0.0
C175 C 1.00814 0.1755 0.12666 0.0
C176 C 1.03201 0.28367 0.2391 0.0
C177 C 0.93409 0.36745 0.14015 0.0
O178 O 0.99307 0.21891 0.16215 0.0
O179 O 1.0114 0.22896 0.08429 0.0
O180 O 1.00281 0.55519 0.19231 0.0
O181 O 1.00349 0.45478 0.12364 0.0
Co182 Co 0.83674 0.34856 0.1856 0.0
O183 O 0.7943 0.38545 0.19877 0.0
O184 O 0.83008 0.42411 0.25255 0.0
C185 C 0.83125 0.16828 0.14279 0.0
O186 O 0.88343 0.3374 0.17954 0.0
Co187 Co 0.84808 0.3546 0.06758 0.0
O188 O 0.88949 0.36719 0.09524 0.0
C189 C 0.82622 0.55089 0.12666 0.0
C190 C 0.80235 0.44271 0.23911 0.0
C191 C 0.90027 0.35897 0.14015 0.0
O192 O 0.84129 0.50749 0.16215 0.0
O193 O 0.82296 0.49743 0.08429 0.0
O194 O 0.83156 0.1712 0.19231 0.0
O195 O 0.83087 0.27161 0.12364 0.0
Co196 Co 0.99762 0.34857 0.56815 0.0
O197 O 1.04006 0.38551 0.55497 0.0
O198 O 1.00428 0.42409 0.5012 0.0
C199 C 1.00311 0.1683 0.61097 0.0
O200 O 0.95093 0.33735 0.57423 0.0
Co201 Co 0.98628 0.35461 0.68618 0.0
O202 O 0.94487 0.36719 0.65852 0.0
C203 C 1.00814 0.55095 0.62708 0.0
C204 C 1.032 0.44275 0.51464 0.0
C205 C 0.93409 0.35894 0.61362 0.0
O206 O 0.99308 0.5075 0.59159 0.0
O207 O 1.0114 0.4975 0.66946 0.0
O208 O 1.00279 0.17122 0.56146 0.0
O209 O 1.00349 0.27165 0.63012 0.0
Co210 Co 0.83674 0.37783 0.56815 0.0
O211 O 0.79429 0.34091 0.55497 0.0
O212 O 0.83008 0.30232 0.50119 0.0
C213 C 0.83125 0.55809 0.61097 0.0
O214 O 0.88343 0.38902 0.57423 0.0
Co215 Co 0.84807 0.37176 0.68617 0.0
O216 O 0.88949 0.35916 0.65852 0.0
C217 C 0.82621 0.17544 0.62708 0.0
C218 C 0.80235 0.2837 0.51462 0.0
C219 C 0.90027 0.36741 0.61362 0.0
O220 O 0.84127 0.21889 0.59159 0.0
O221 O 0.82295 0.22889 0.66945 0.0
O222 O 0.83157 0.55518 0.56146 0.0
O223 O 0.83086 0.45474 0.63012 0.0
Co224 Co 0.58675 0.09856 0.81812 0.0
O225 O 0.5443 0.13548 0.80496 0.0
O226 O 0.58008 0.17413 0.75118 0.0
C227 C 0.58125 0.91826 0.86092 0.0
O228 O 0.63343 0.08737 0.82418 0.0
Co229 Co 0.59808 0.10452 0.93614 0.0
O230 O 0.6395 0.11715 0.90848 0.0
C231 C 0.57625 0.30093 0.87708 0.0
C232 C 0.55236 0.19273 0.76462 0.0
C233 C 0.65027 0.10894 0.86357 0.0
O234 O 0.5913 0.25748 0.84158 0.0
O235 O 0.57296 0.24733 0.91941 0.0
O236 O 0.58156 0.9212 0.8114 0.0
O237 O 0.58087 0.02159 0.88008 0.0
Co238 Co 0.74762 0.12783 0.81812 0.0
O239 O 0.79006 0.09091 0.80496 0.0
O240 O 0.75429 0.05226 0.75118 0.0
C241 C 0.75311 0.30813 0.86092 0.0
O242 O 0.70093 0.13903 0.82418 0.0
Co243 Co 0.73628 0.12187 0.93614 0.0
O244 O 0.69487 0.10924 0.90848 0.0
C245 C 0.75811 0.92546 0.87708 0.0
C246 C 0.78201 0.03364 0.76463 0.0
C247 C 0.68409 0.11745 0.86357 0.0
O248 O 0.74306 0.96891 0.84158 0.0
O249 O 0.7614 0.97906 0.91941 0.0
O250 O 0.75281 0.3052 0.8114 0.0
O251 O 0.75349 0.20481 0.88008 0.0
Co252 Co 0.58674 0.12783 0.43558 0.0
O253 O 0.5443 0.09089 0.44876 0.0
O254 O 0.58008 0.05231 0.50253 0.0
C255 C 0.58125 0.30811 0.39277 0.0
O256 O 0.63343 0.13905 0.42951 0.0
Co257 Co 0.59807 0.12184 0.31756 0.0
O258 O 0.63949 0.1092 0.34521 0.0
C259 C 0.57625 0.9254 0.37663 0.0
C260 C 0.55235 0.03368 0.4891 0.0
C261 C 0.65027 0.11744 0.39012 0.0
O262 O 0.59128 0.9689 0.41214 0.0
O263 O 0.57295 0.97899 0.3343 0.0
O264 O 0.58157 0.30519 0.44228 0.0
O265 O 0.58086 0.20477 0.37362 0.0
Co266 Co 0.74761 0.09856 0.43558 0.0
O267 O 0.79006 0.13553 0.44875 0.0
O268 O 0.75428 0.17411 0.50253 0.0
C269 C 0.75311 0.91828 0.39277 0.0
O270 O 0.70092 0.08733 0.42951 0.0
Co271 Co 0.73628 0.10454 0.31756 0.0
O272 O 0.69487 0.11718 0.34521 0.0
C273 C 0.75811 0.30099 0.37663 0.0
C274 C 0.782 0.19277 0.48909 0.0
C275 C 0.68409 0.10894 0.39012 0.0
O276 O 0.74306 0.25749 0.41213 0.0
O277 O 0.7614 0.2474 0.3343 0.0
O278 O 0.75279 0.92121 0.44228 0.0
O279 O 0.75349 0.02162 0.37362 0.0
Co280 Co 0.49762 0.87783 0.18561 0.0
O281 O 0.54006 0.84092 0.19877 0.0
O282 O 0.50428 0.80227 0.25255 0.0
C283 C 0.50311 0.05813 0.14281 0.0
O284 O 0.45093 0.88902 0.17954 0.0
Co285 Co 0.48628 0.87186 0.06759 0.0
O286 O 0.44487 0.85924 0.09525 0.0
C287 C 0.5081 0.67546 0.12665 0.0
C288 C 0.532 0.78367 0.23911 0.0
C289 C 0.43409 0.86745 0.14015 0.0
O290 O 0.49306 0.71891 0.16215 0.0
O291 O 0.5114 0.72906 0.08432 0.0
O292 O 0.5028 0.0552 0.19232 0.0
O293 O 0.50349 0.9548 0.12365 0.0
Co294 Co 0.33674 0.84855 0.18561 0.0
O295 O 0.2943 0.88548 0.19876 0.0
O296 O 0.33008 0.92413 0.25255 0.0
C297 C 0.33125 0.66825 0.14281 0.0
O298 O 0.38343 0.83736 0.17954 0.0
Co299 Co 0.34808 0.85452 0.06759 0.0
O300 O 0.38949 0.86715 0.09525 0.0
C301 C 0.32625 0.05093 0.12665 0.0
C302 C 0.30236 0.94275 0.2391 0.0
C303 C 0.40027 0.85894 0.14015 0.0
O304 O 0.3413 0.00748 0.16214 0.0
O305 O 0.32296 -0.00268 0.08431 0.0
O306 O 0.33155 0.67119 0.19232 0.0
O307 O 0.33087 0.77158 0.12365 0.0
Co308 Co 0.49762 0.84856 0.56815 0.0
O309 O 0.54006 0.88552 0.55498 0.0
O310 O 0.50428 0.9241 0.5012 0.0
C311 C 0.50311 0.66828 0.61096 0.0
O312 O 0.45093 0.83733 0.57422 0.0
Co313 Co 0.48628 0.85454 0.68617 0.0
O314 O 0.44487 0.86718 0.65851 0.0
C315 C 0.50811 0.05099 0.6271 0.0
C316 C 0.532 0.94275 0.51464 0.0
C317 C 0.43409 0.85894 0.61361 0.0
O318 O 0.49307 0.00749 0.59159 0.0
O319 O 0.51141 -0.0026 0.66943 0.0
O320 O 0.50279 0.67121 0.56144 0.0
O321 O 0.50349 0.77162 0.63011 0.0
Co322 Co 0.33675 0.87783 0.56815 0.0
O323 O 0.2943 0.84086 0.55498 0.0
O324 O 0.33008 0.80228 0.5012 0.0
C325 C 0.33125 0.05811 0.61096 0.0
O326 O 0.38343 0.88906 0.57422 0.0
Co327 Co 0.34808 0.87184 0.68617 0.0
O328 O 0.38949 0.8592 0.65851 0.0
C329 C 0.32625 0.6754 0.6271 0.0
C330 C 0.30236 0.78363 0.51464 0.0
C331 C 0.40027 0.86744 0.61361 0.0
O332 O 0.34129 0.7189 0.59159 0.0
O333 O 0.32296 0.72899 0.66943 0.0
O334 O 0.33157 0.05518 0.56144 0.0
O335 O 0.33087 0.95477 0.63011 0.0
Co336 Co 0.58674 0.59856 0.31812 0.0
O337 O 0.54429 0.63546 0.30496 0.0
O338 O 0.58007 0.67412 0.25118 0.0
C339 C 0.58125 0.41828 0.36093 0.0
O340 O 0.63343 0.58739 0.32419 0.0
Co341 Co 0.59807 0.60459 0.43615 0.0
O342 O 0.63949 0.61717 0.40849 0.0
C343 C 0.57622 0.80089 0.37707 0.0
C344 C 0.55235 0.69273 0.26462 0.0
C345 C 0.65027 0.60895 0.36358 0.0
O346 O 0.59129 0.75749 0.34158 0.0
O347 O 0.57296 0.74743 0.41944 0.0
O348 O 0.58156 0.4212 0.31142 0.0
O349 O 0.58087 0.52161 0.38009 0.0
Co350 Co 0.74762 0.62782 0.31812 0.0
O351 O 0.79006 0.59092 0.30496 0.0
O352 O 0.75429 0.55226 0.25118 0.0
C353 C 0.75311 0.80811 0.36093 0.0
O354 O 0.70093 0.639 0.32419 0.0
Co355 Co 0.73628 0.62179 0.43615 0.0
O356 O 0.69487 0.60921 0.40849 0.0
C357 C 0.75813 0.42549 0.37707 0.0
C358 C 0.78201 0.53365 0.26463 0.0
C359 C 0.68409 0.61743 0.36358 0.0
O360 O 0.74307 0.4689 0.34158 0.0
O361 O 0.7614 0.47895 0.41944 0.0
O362 O 0.7528 0.80519 0.31142 0.0
O363 O 0.75349 0.70478 0.38009 0.0
Co364 Co 0.58674 0.62782 0.93558 0.0
O365 O 0.5443 0.5909 0.94876 0.0
O366 O 0.58008 0.55231 0.00253 0.0
C367 C 0.58126 0.80809 0.89276 0.0
O368 O 0.63343 0.63903 0.9295 0.0
Co369 Co 0.59808 0.62177 0.81755 0.0
O370 O 0.63949 0.60918 0.84521 0.0
C371 C 0.57622 0.42544 0.87665 0.0
C372 C 0.55235 0.53369 0.9891 0.0
C373 C 0.65027 0.61743 0.89011 0.0
O374 O 0.59128 0.46889 0.91214 0.0
O375 O 0.57296 0.47889 0.83427 0.0
O376 O 0.58157 0.80518 0.94227 0.0
O377 O 0.58087 0.70474 0.87361 0.0
Co378 Co 0.74762 0.59856 0.93558 0.0
O379 O 0.79007 0.6355 0.94875 0.0
O380 O 0.75428 0.67408 0.00253 0.0
C381 C 0.75311 0.4183 0.89276 0.0
O382 O 0.70093 0.58736 0.9295 0.0
Co383 Co 0.73629 0.60462 0.81755 0.0
O384 O 0.69487 0.61721 0.84521 0.0
C385 C 0.75814 0.80095 0.87665 0.0
C386 C 0.78201 0.69273 0.98909 0.0
C387 C 0.68409 0.60896 0.89011 0.0
O388 O 0.74308 0.7575 0.91214 0.0
O389 O 0.7614 0.7475 0.83427 0.0
O390 O 0.75279 0.42121 0.94227 0.0
O391 O 0.7535 0.52165 0.87361 0.0
Co392 Co 0.49762 0.37783 0.6856 0.0
O393 O 0.54007 0.34093 0.69877 0.0
O394 O 0.50429 0.30228 0.75255 0.0
C395 C 0.50311 0.55811 0.64279 0.0
O396 O 0.45093 0.389 0.67954 0.0
Co397 Co 0.48629 0.37179 0.56758 0.0
O398 O 0.44487 0.35922 0.59524 0.0
C399 C 0.50814 0.1755 0.62666 0.0
C400 C 0.53201 0.28367 0.7391 0.0
C401 C 0.43409 0.36744 0.64015 0.0
O402 O 0.49307 0.2189 0.66215 0.0
O403 O 0.5114 0.22896 0.58429 0.0
O404 O 0.50281 0.55519 0.69231 0.0
O405 O 0.50349 0.45478 0.62364 0.0
Co406 Co 0.33674 0.34856 0.6856 0.0
O407 O 0.2943 0.38547 0.69877 0.0
O408 O 0.33008 0.42413 0.75255 0.0
C409 C 0.33125 0.16828 0.64279 0.0
O410 O 0.38343 0.33739 0.67954 0.0
Co411 Co 0.34808 0.3546 0.56758 0.0
O412 O 0.38949 0.36718 0.59524 0.0
C413 C 0.32623 0.55089 0.62666 0.0
C414 C 0.30235 0.44274 0.7391 0.0
C415 C 0.40027 0.35896 0.64015 0.0
O416 O 0.34129 0.50749 0.66214 0.0
O417 O 0.32296 0.49743 0.58429 0.0
O418 O 0.33156 0.1712 0.69231 0.0
O419 O 0.33087 0.27161 0.62364 0.0
Co420 Co 0.49762 0.34857 0.06815 0.0
O421 O 0.54006 0.38551 0.05497 0.0
O422 O 0.50428 0.4241 1.0012 0.0
C423 C 0.50311 0.1683 0.11097 0.0
O424 O 0.45093 0.33736 0.07423 0.0
Co425 Co 0.48628 0.35462 0.18618 0.0
O426 O 0.44487 0.3672 0.15852 0.0
C427 C 0.50814 0.55095 0.12708 0.0
C428 C 0.532 0.44275 0.01464 0.0
C429 C 0.43409 0.35895 0.11361 0.0
O430 O 0.49308 0.5075 0.09159 0.0
O431 O 0.5114 0.4975 0.16946 0.0
O432 O 0.50279 0.17122 0.06146 0.0
O433 O 0.50349 0.27165 0.13012 0.0
Co434 Co 0.33674 0.37782 0.06815 0.0
O435 O 0.29429 0.3409 0.05497 0.0
O436 O 0.33008 0.30231 1.0012 0.0
C437 C 0.33125 0.55809 0.11097 0.0
O438 O 0.38343 0.38903 0.07423 0.0
Co439 Co 0.34807 0.37177 0.18617 0.0
O440 O 0.38949 0.35917 0.15852 0.0
C441 C 0.32622 0.17544 0.12708 0.0
C442 C 0.30235 0.28366 0.01463 0.0
C443 C 0.40027 0.36742 0.11361 0.0
O444 O 0.34127 0.21889 0.09159 0.0
O445 O 0.32296 0.22888 0.16946 0.0
O446 O 0.33157 0.55518 0.06146 0.0
O447 O 0.33086 0.45474 0.13012 0.0
loop_
_geom_bond_atom_site_label_1
_geom_bond_atom_site_label_2
_geom_bond_distance
_geom_bond_site_symmetry_2
_ccdc_geom_bond_type
Co0 O1 2.216 . S
Co0 O2 2.091 . S
Co0 O4 2.004 . S
Co0 O10 2.021 . S
Co0 O12 2.137 1_545 S
Co0 O13 2.244 . S
O1 Co0 2.216 . S
O1 C8 1.247 . S
O2 Co0 2.091 . S
O2 C8 1.261 . S
C3 O12 1.247 . S
C3 O13 1.272 1_565 S
O4 Co0 2.004 . S
O4 C9 1.259 . S
Co5 O6 2.061 . S
Co5 O11 2.052 . S
Co5 O13 2.135 . S
O6 Co5 2.061 . S
O6 C9 1.235 . S
C7 O10 1.238 . S
C7 O11 1.241 . S
C8 O1 1.247 . S
C8 O2 1.261 . S
C9 O4 1.259 . S
C9 O6 1.235 . S
O10 Co0 2.021 . S
O10 C7 1.238 . S
O11 Co5 2.052 . S
O11 C7 1.241 . S
O12 Co0 2.137 1_565 S
O12 C3 1.247 . S
O13 Co0 2.244 . S
O13 C3 1.272 1_545 S
O13 Co5 2.135 . S
Co14 O15 2.216 . S
Co14 O16 2.091 . S
Co14 O18 2.004 . S
Co14 O24 2.021 1_545 S
Co14 O26 2.137 . S
Co14 O27 2.244 . S
O15 Co14 2.216 . S
O15 C22 1.247 . S
O16 Co14 2.091 . S
O16 C22 1.261 . S
C17 O26 1.247 . S
C17 O27 1.272 . S
O18 Co14 2.004 . S
O18 C23 1.259 . S
Co19 O20 2.061 . S
Co19 O25 2.052 1_545 S
Co19 O27 2.135 . S
O20 Co19 2.061 . S
O20 C23 1.235 . S
C21 O24 1.238 . S
C21 O25 1.241 . S
C22 O15 1.247 . S
C22 O16 1.261 . S
C23 O18 1.259 . S
C23 O20 1.235 . S
O24 Co14 2.021 1_565 S
O24 C21 1.238 . S
O25 Co19 2.052 1_565 S
O25 C21 1.241 . S
O26 Co14 2.137 . S
O26 C17 1.247 . S
O27 Co14 2.244 . S
O27 C17 1.272 . S
O27 Co19 2.135 . S
Co28 O29 2.216 . S
Co28 O30 2.091 1_556 S
Co28 O32 2.004 . S
Co28 O38 2.021 1_545 S
Co28 O40 2.137 . S
Co28 O41 2.244 . S
O29 Co28 2.216 . S
O29 C36 1.247 . S
O30 Co28 2.091 1_554 S
O30 C36 1.261 1_554 S
C31 O40 1.247 . S
C31 O41 1.272 . S
O32 Co28 2.004 . S
O32 C37 1.259 . S
Co33 O34 2.061 . S
Co33 O39 2.052 1_545 S
Co33 O41 2.135 . S
O34 Co33 2.061 . S
O34 C37 1.235 . S
C35 O38 1.238 . S
C35 O39 1.241 . S
C36 O29 1.247 . S
C36 O30 1.261 1_556 S
C37 O32 1.259 . S
C37 O34 1.235 . S
O38 Co28 2.021 1_565 S
O38 C35 1.238 . S
O39 Co33 2.052 1_565 S
O39 C35 1.241 . S
O40 Co28 2.137 . S
O40 C31 1.247 . S
O41 Co28 2.244 . S
O41 C31 1.272 . S
O41 Co33 2.135 . S
Co42 O43 2.216 . S
Co42 O44 2.091 1_556 S
Co42 O46 2.004 . S
Co42 O52 2.021 . S
Co42 O54 2.137 1_545 S
Co42 O55 2.244 . S
O43 Co42 2.216 . S
O43 C50 1.247 . S
O44 Co42 2.091 1_554 S
O44 C50 1.261 1_554 S
C45 O54 1.247 . S
C45 O55 1.272 1_565 S
O46 Co42 2.004 . S
O46 C51 1.259 . S
Co47 O48 2.061 . S
Co47 O53 2.052 . S
Co47 O55 2.135 . S
O48 Co47 2.061 . S
O48 C51 1.235 . S
C49 O52 1.238 . S
C49 O53 1.241 . S
C50 O43 1.247 . S
C50 O44 1.261 1_556 S
C51 O46 1.259 . S
C51 O48 1.235 . S
O52 Co42 2.021 . S
O52 C49 1.238 . S
O53 Co47 2.052 . S
O53 C49 1.241 . S
O54 Co42 2.137 1_565 S
O54 C45 1.247 . S
O55 Co42 2.244 . S
O55 C45 1.272 1_545 S
O55 Co47 2.135 . S
Co56 O57 2.216 . S
Co56 O58 2.091 . S
Co56 O60 2.004 . S
Co56 O66 2.021 . S
Co56 O68 2.137 1_565 S
Co56 O69 2.244 . S
O57 Co56 2.216 . S
O57 C64 1.247 . S
O58 Co56 2.091 . S
O58 C64 1.261 . S
C59 O68 1.247 . S
C59 O69 1.272 1_545 S
O60 Co56 2.004 . S
O60 C65 1.259 . S
Co61 O62 2.061 . S
Co61 O67 2.052 . S
Co61 O69 2.135 . S
O62 Co61 2.061 . S
O62 C65 1.235 . S
C63 O66 1.238 . S
C63 O67 1.241 . S
C64 O57 1.247 . S
C64 O58 1.261 . S
C65 O60 1.259 . S
C65 O62 1.235 . S
O66 Co56 2.021 . S
O66 C63 1.238 . S
O67 Co61 2.052 . S
O67 C63 1.241 . S
O68 Co56 2.137 1_545 S
O68 C59 1.247 . S
O69 Co56 2.244 . S
O69 C59 1.272 1_565 S
O69 Co61 2.135 . S
Co70 O71 2.216 . S
Co70 O72 2.091 . S
Co70 O74 2.004 . S
Co70 O80 2.021 1_565 S
Co70 O82 2.137 . S
Co70 O83 2.244 . S
O71 Co70 2.216 . S
O71 C78 1.247 . S
O72 Co70 2.091 . S
O72 C78 1.261 . S
C73 O82 1.247 . S
C73 O83 1.272 . S
O74 Co70 2.004 . S
O74 C79 1.259 . S
Co75 O76 2.061 . S
Co75 O81 2.052 1_565 S
Co75 O83 2.135 . S
O76 Co75 2.061 . S
O76 C79 1.235 . S
C77 O80 1.238 . S
C77 O81 1.241 . S
C78 O71 1.247 . S
C78 O72 1.261 . S
C79 O74 1.259 . S
C79 O76 1.235 . S
O80 Co70 2.021 1_545 S
O80 C77 1.238 . S
O81 Co75 2.052 1_545 S
O81 C77 1.241 . S
O82 Co70 2.137 . S
O82 C73 1.247 . S
O83 Co70 2.244 . S
O83 C73 1.272 . S
O83 Co75 2.135 . S
Co84 O85 2.216 . S
Co84 O86 2.091 1_554 S
Co84 O88 2.004 . S
Co84 O94 2.021 1_565 S
Co84 O96 2.137 . S
Co84 O97 2.244 . S
O85 Co84 2.216 . S
O85 C92 1.247 . S
O86 Co84 2.091 1_556 S
O86 C92 1.261 1_556 S
C87 O96 1.247 . S
C87 O97 1.272 . S
O88 Co84 2.004 . S
O88 C93 1.259 . S
Co89 O90 2.061 . S
Co89 O95 2.052 1_565 S
Co89 O97 2.135 . S
O90 Co89 2.061 . S
O90 C93 1.235 . S
C91 O94 1.238 . S
C91 O95 1.241 . S
C92 O85 1.247 . S
C92 O86 1.261 1_554 S
C93 O88 1.259 . S
C93 O90 1.235 . S
O94 Co84 2.021 1_545 S
O94 C91 1.238 . S
O95 Co89 2.052 1_545 S
O95 C91 1.241 . S
O96 Co84 2.137 . S
O96 C87 1.247 . S
O97 Co84 2.244 . S
O97 C87 1.272 . S
O97 Co89 2.135 . S
Co98 O99 2.216 . S
Co98 O100 2.091 1_554 S
Co98 O102 2.004 . S
Co98 O108 2.021 . S
Co98 O110 2.137 1_565 S
Co98 O111 2.244 . S
O99 Co98 2.216 . S
O99 C106 1.247 . S
O100 Co98 2.091 1_556 S
O100 C106 1.261 1_556 S
C101 O110 1.247 . S
C101 O111 1.272 1_545 S
O102 Co98 2.004 . S
O102 C107 1.259 . S
Co103 O104 2.061 . S
Co103 O109 2.052 . S
Co103 O111 2.135 . S
O104 Co103 2.061 . S
O104 C107 1.235 . S
C105 O108 1.238 . S
C105 O109 1.241 . S
C106 O99 1.247 . S
C106 O100 1.261 1_554 S
C107 O102 1.259 . S
C107 O104 1.235 . S
O108 Co98 2.021 . S
O108 C105 1.238 . S
O109 Co103 2.052 . S
O109 C105 1.241 . S
O110 Co98 2.137 1_545 S
O110 C101 1.247 . S
O111 Co98 2.244 . S
O111 C101 1.272 1_565 S
O111 Co103 2.135 . S
Co112 O113 2.216 . S
Co112 O114 2.091 . S
Co112 O116 2.004 . S
Co112 O122 2.021 . S
Co112 O124 2.137 . S
Co112 O125 2.244 . S
O113 Co112 2.216 . S
O113 C120 1.247 . S
O114 Co112 2.091 . S
O114 C120 1.261 . S
C115 O124 1.247 . S
C115 O125 1.272 . S
O116 Co112 2.004 . S
O116 C121 1.259 . S
Co117 O118 2.061 . S
Co117 O123 2.052 . S
Co117 O125 2.135 . S
O118 Co117 2.061 . S
O118 C121 1.235 . S
C119 O122 1.238 . S
C119 O123 1.241 . S
C120 O113 1.247 . S
C120 O114 1.261 . S
C121 O116 1.259 . S
C121 O118 1.235 . S
O122 Co112 2.021 . S
O122 C119 1.238 . S
O123 Co117 2.052 . S
O123 C119 1.241 . S
O124 Co112 2.137 . S
O124 C115 1.247 . S
O125 Co112 2.244 . S
O125 C115 1.272 . S
O125 Co117 2.135 . S
Co126 O127 2.216 . S
Co126 O128 2.091 . S
Co126 O130 2.004 . S
Co126 O136 2.021 . S
Co126 O138 2.137 . S
Co126 O139 2.244 . S
O127 Co126 2.216 . S
O127 C134 1.247 . S
O128 Co126 2.091 . S
O128 C134 1.261 . S
C129 O138 1.247 . S
C129 O139 1.272 . S
O130 Co126 2.004 . S
O130 C135 1.259 . S
Co131 O132 2.061 . S
Co131 O137 2.052 . S
Co131 O139 2.135 . S
O132 Co131 2.061 . S
O132 C135 1.235 . S
C133 O136 1.238 . S
C133 O137 1.241 . S
C134 O127 1.247 . S
C134 O128 1.261 . S
C135 O130 1.259 . S
C135 O132 1.235 . S
O136 Co126 2.021 . S
O136 C133 1.238 . S
O137 Co131 2.052 . S
O137 C133 1.241 . S
O138 Co126 2.137 . S
O138 C129 1.247 . S
O139 Co126 2.244 . S
O139 C129 1.272 . S
O139 Co131 2.135 . S
Co140 O141 2.216 . S
Co140 O142 2.091 . S
Co140 O144 2.004 . S
Co140 O150 2.021 . S
Co140 O152 2.137 . S
Co140 O153 2.244 . S
O141 Co140 2.216 . S
O141 C148 1.247 . S
O142 Co140 2.091 . S
O142 C148 1.261 . S
C143 O152 1.247 . S
C143 O153 1.272 . S
O144 Co140 2.004 . S
O144 C149 1.259 . S
Co145 O146 2.061 . S
Co145 O151 2.052 . S
Co145 O153 2.135 . S
O146 Co145 2.061 . S
O146 C149 1.235 . S
C147 O150 1.238 . S
C147 O151 1.241 . S
C148 O141 1.247 . S
C148 O142 1.261 . S
C149 O144 1.259 . S
C149 O146 1.235 . S
O150 Co140 2.021 . S
O150 C147 1.238 . S
O151 Co145 2.052 . S
O151 C147 1.241 . S
O152 Co140 2.137 . S
O152 C143 1.247 . S
O153 Co140 2.244 . S
O153 C143 1.272 . S
O153 Co145 2.135 . S
Co154 O155 2.216 . S
Co154 O156 2.091 . S
Co154 O158 2.004 . S
Co154 O164 2.021 . S
Co154 O166 2.137 . S
Co154 O167 2.244 . S
O155 Co154 2.216 . S
O155 C162 1.247 . S
O156 Co154 2.091 . S
O156 C162 1.261 . S
C157 O166 1.247 . S
C157 O167 1.272 . S
O158 Co154 2.004 . S
O158 C163 1.259 . S
Co159 O160 2.061 . S
Co159 O165 2.052 . S
Co159 O167 2.135 . S
O160 Co159 2.061 . S
O160 C163 1.235 . S
C161 O164 1.238 . S
C161 O165 1.241 . S
C162 O155 1.247 . S
C162 O156 1.261 . S
C163 O158 1.259 . S
C163 O160 1.235 . S
O164 Co154 2.021 . S
O164 C161 1.238 . S
O165 Co159 2.052 . S
O165 C161 1.241 . S
O166 Co154 2.137 . S
O166 C157 1.247 . S
O167 Co154 2.244 . S
O167 C157 1.272 . S
O167 Co159 2.135 . S
Co168 O169 2.216 . S
Co168 O170 2.091 . S
Co168 O172 2.004 . S
Co168 O178 2.021 . S
Co168 O180 2.137 . S
Co168 O181 2.244 . S
O169 Co168 2.216 . S
O169 C176 1.247 . S
O170 Co168 2.091 . S
O170 C176 1.261 . S
C171 O180 1.247 . S
C171 O181 1.272 . S
O172 Co168 2.004 . S
O172 C177 1.259 . S
Co173 O174 2.061 . S
Co173 O179 2.052 . S
Co173 O181 2.135 . S
O174 Co173 2.061 . S
O174 C177 1.235 . S
C175 O178 1.238 . S
C175 O179 1.241 . S
C176 O169 1.247 . S
C176 O170 1.261 . S
C177 O172 1.259 . S
C177 O174 1.235 . S
O178 Co168 2.021 . S
O178 C175 1.238 . S
O179 Co173 2.052 . S
O179 C175 1.241 . S
O180 Co168 2.137 . S
O180 C171 1.247 . S
O181 Co168 2.244 . S
O181 C171 1.272 . S
O181 Co173 2.135 . S
Co182 O183 2.216 . S
Co182 O184 2.091 . S
Co182 O186 2.004 . S
Co182 O192 2.021 . S
Co182 O194 2.137 . S
Co182 O195 2.244 . S
O183 Co182 2.216 . S
O183 C190 1.247 . S
O184 Co182 2.091 . S
O184 C190 1.261 . S
C185 O194 1.247 . S
C185 O195 1.272 . S
O186 Co182 2.004 . S
O186 C191 1.259 . S
Co187 O188 2.061 . S
Co187 O193 2.052 . S
Co187 O195 2.135 . S
O188 Co187 2.061 . S
O188 C191 1.235 . S
C189 O192 1.238 . S
C189 O193 1.241 . S
C190 O183 1.247 . S
C190 O184 1.261 . S
C191 O186 1.259 . S
C191 O188 1.235 . S
O192 Co182 2.021 . S
O192 C189 1.238 . S
O193 Co187 2.052 . S
O193 C189 1.241 . S
O194 Co182 2.137 . S
O194 C185 1.247 . S
O195 Co182 2.244 . S
O195 C185 1.272 . S
O195 Co187 2.135 . S
Co196 O197 2.216 . S
Co196 O198 2.091 . S
Co196 O200 2.004 . S
Co196 O206 2.021 . S
Co196 O208 2.137 . S
Co196 O209 2.244 . S
O197 Co196 2.216 . S
O197 C204 1.247 . S
O198 Co196 2.091 . S
O198 C204 1.261 . S
C199 O208 1.247 . S
C199 O209 1.272 . S
O200 Co196 2.004 . S
O200 C205 1.259 . S
Co201 O202 2.061 . S
Co201 O207 2.052 . S
Co201 O209 2.135 . S
O202 Co201 2.061 . S
O202 C205 1.235 . S
C203 O206 1.238 . S
C203 O207 1.241 . S
C204 O197 1.247 . S
C204 O198 1.261 . S
C205 O200 1.259 . S
C205 O202 1.235 . S
O206 Co196 2.021 . S
O206 C203 1.238 . S
O207 Co201 2.052 . S
O207 C203 1.241 . S
O208 Co196 2.137 . S
O208 C199 1.247 . S
O209 Co196 2.244 . S
O209 C199 1.272 . S
O209 Co201 2.135 . S
Co210 O211 2.216 . S
Co210 O212 2.091 . S
Co210 O214 2.004 . S
Co210 O220 2.021 . S
Co210 O222 2.137 . S
Co210 O223 2.244 . S
O211 Co210 2.216 . S
O211 C218 1.247 . S
O212 Co210 2.091 . S
O212 C218 1.261 . S
C213 O222 1.247 . S
C213 O223 1.272 . S
O214 Co210 2.004 . S
O214 C219 1.259 . S
Co215 O216 2.061 . S
Co215 O221 2.052 . S
Co215 O223 2.135 . S
O216 Co215 2.061 . S
O216 C219 1.235 . S
C217 O220 1.238 . S
C217 O221 1.241 . S
C218 O211 1.247 . S
C218 O212 1.261 . S
C219 O214 1.259 . S
C219 O216 1.235 . S
O220 Co210 2.021 . S
O220 C217 1.238 . S
O221 Co215 2.052 . S
O221 C217 1.241 . S
O222 Co210 2.137 . S
O222 C213 1.247 . S
O223 Co210 2.244 . S
O223 C213 1.272 . S
O223 Co215 2.135 . S
Co224 O225 2.216 . S
Co224 O226 2.091 . S
Co224 O228 2.004 . S
Co224 O234 2.021 . S
Co224 O236 2.137 1_545 S
Co224 O237 2.244 . S
O225 Co224 2.216 . S
O225 C232 1.247 . S
O226 Co224 2.091 . S
O226 C232 1.261 . S
C227 O236 1.247 . S
C227 O237 1.272 1_565 S
O228 Co224 2.004 . S
O228 C233 1.259 . S
Co229 O230 2.061 . S
Co229 O235 2.052 . S
Co229 O237 2.135 . S
O230 Co229 2.061 . S
O230 C233 1.235 . S
C231 O234 1.238 . S
C231 O235 1.241 . S
C232 O225 1.247 . S
C232 O226 1.261 . S
C233 O228 1.259 . S
C233 O230 1.235 . S
O234 Co224 2.021 . S
O234 C231 1.238 . S
O235 Co229 2.052 . S
O235 C231 1.241 . S
O236 Co224 2.137 1_565 S
O236 C227 1.247 . S
O237 Co224 2.244 . S
O237 C227 1.272 1_545 S
O237 Co229 2.135 . S
Co238 O239 2.216 . S
Co238 O240 2.091 . S
Co238 O242 2.004 . S
Co238 O248 2.021 1_545 S
Co238 O250 2.137 . S
Co238 O251 2.244 . S
O239 Co238 2.216 . S
O239 C246 1.247 . S
O240 Co238 2.091 . S
O240 C246 1.261 . S
C241 O250 1.247 . S
C241 O251 1.272 . S
O242 Co238 2.004 . S
O242 C247 1.259 . S
Co243 O244 2.061 . S
Co243 O249 2.052 1_545 S
Co243 O251 2.135 . S
O244 Co243 2.061 . S
O244 C247 1.235 . S
C245 O248 1.238 . S
C245 O249 1.241 . S
C246 O239 1.247 . S
C246 O240 1.261 . S
C247 O242 1.259 . S
C247 O244 1.235 . S
O248 Co238 2.021 1_565 S
O248 C245 1.238 . S
O249 Co243 2.052 1_565 S
O249 C245 1.241 . S
O250 Co238 2.137 . S
O250 C241 1.247 . S
O251 Co238 2.244 . S
O251 C241 1.272 . S
O251 Co243 2.135 . S
Co252 O253 2.216 . S
Co252 O254 2.091 . S
Co252 O256 2.004 . S
Co252 O262 2.021 1_545 S
Co252 O264 2.137 . S
Co252 O265 2.244 . S
O253 Co252 2.216 . S
O253 C260 1.247 . S
O254 Co252 2.091 . S
O254 C260 1.261 . S
C255 O264 1.247 . S
C255 O265 1.272 . S
O256 Co252 2.004 . S
O256 C261 1.259 . S
Co257 O258 2.061 . S
Co257 O263 2.052 1_545 S
Co257 O265 2.135 . S
O258 Co257 2.061 . S
O258 C261 1.235 . S
C259 O262 1.238 . S
C259 O263 1.241 . S
C260 O253 1.247 . S
C260 O254 1.261 . S
C261 O256 1.259 . S
C261 O258 1.235 . S
O262 Co252 2.021 1_565 S
O262 C259 1.238 . S
O263 Co257 2.052 1_565 S
O263 C259 1.241 . S
O264 Co252 2.137 . S
O264 C255 1.247 . S
O265 Co252 2.244 . S
O265 C255 1.272 . S
O265 Co257 2.135 . S
Co266 O267 2.216 . S
Co266 O268 2.091 . S
Co266 O270 2.004 . S
Co266 O276 2.021 . S
Co266 O278 2.137 1_545 S
Co266 O279 2.244 . S
O267 Co266 2.216 . S
O267 C274 1.247 . S
O268 Co266 2.091 . S
O268 C274 1.261 . S
C269 O278 1.247 . S
C269 O279 1.272 1_565 S
O270 Co266 2.004 . S
O270 C275 1.259 . S
Co271 O272 2.061 . S
Co271 O277 2.052 . S
Co271 O279 2.135 . S
O272 Co271 2.061 . S
O272 C275 1.235 . S
C273 O276 1.238 . S
C273 O277 1.241 . S
C274 O267 1.247 . S
C274 O268 1.261 . S
C275 O270 1.259 . S
C275 O272 1.235 . S
O276 Co266 2.021 . S
O276 C273 1.238 . S
O277 Co271 2.052 . S
O277 C273 1.241 . S
O278 Co266 2.137 1_565 S
O278 C269 1.247 . S
O279 Co266 2.244 . S
O279 C269 1.272 1_545 S
O279 Co271 2.135 . S
Co280 O281 2.216 . S
Co280 O282 2.091 . S
Co280 O284 2.004 . S
Co280 O290 2.021 . S
Co280 O292 2.137 1_565 S
Co280 O293 2.244 . S
O281 Co280 2.216 . S
O281 C288 1.247 . S
O282 Co280 2.091 . S
O282 C288 1.261 . S
C283 O292 1.247 . S
C283 O293 1.272 1_545 S
O284 Co280 2.004 . S
O284 C289 1.259 . S
Co285 O286 2.061 . S
Co285 O291 2.052 . S
Co285 O293 2.135 . S
O286 Co285 2.061 . S
O286 C289 1.235 . S
C287 O290 1.238 . S
C287 O291 1.241 . S
C288 O281 1.247 . S
C288 O282 1.261 . S
C289 O284 1.259 . S
C289 O286 1.235 . S
O290 Co280 2.021 . S
O290 C287 1.238 . S
O291 Co285 2.052 . S
O291 C287 1.241 . S
O292 Co280 2.137 1_545 S
O292 C283 1.247 . S
O293 Co280 2.244 . S
O293 C283 1.272 1_565 S
O293 Co285 2.135 . S
Co294 O295 2.216 . S
Co294 O296 2.091 . S
Co294 O298 2.004 . S
Co294 O304 2.021 1_565 S
Co294 O306 2.137 . S
Co294 O307 2.244 . S
O295 Co294 2.216 . S
O295 C302 1.247 . S
O296 Co294 2.091 . S
O296 C302 1.261 . S
C297 O306 1.247 . S
C297 O307 1.272 . S
O298 Co294 2.004 . S
O298 C303 1.259 . S
Co299 O300 2.061 . S
Co299 O305 2.052 1_565 S
Co299 O307 2.135 . S
O300 Co299 2.061 . S
O300 C303 1.235 . S
C301 O304 1.238 . S
C301 O305 1.241 . S
C302 O295 1.247 . S
C302 O296 1.261 . S
C303 O298 1.259 . S
C303 O300 1.235 . S
O304 Co294 2.021 1_545 S
O304 C301 1.238 . S
O305 Co299 2.052 1_545 S
O305 C301 1.241 . S
O306 Co294 2.137 . S
O306 C297 1.247 . S
O307 Co294 2.244 . S
O307 C297 1.272 . S
O307 Co299 2.135 . S
Co308 O309 2.216 . S
Co308 O310 2.091 . S
Co308 O312 2.004 . S
Co308 O318 2.021 1_565 S
Co308 O320 2.137 . S
Co308 O321 2.244 . S
O309 Co308 2.216 . S
O309 C316 1.247 . S
O310 Co308 2.091 . S
O310 C316 1.261 . S
C311 O320 1.247 . S
C311 O321 1.272 . S
O312 Co308 2.004 . S
O312 C317 1.259 . S
Co313 O314 2.061 . S
Co313 O319 2.052 1_565 S
Co313 O321 2.135 . S
O314 Co313 2.061 . S
O314 C317 1.235 . S
C315 O318 1.238 . S
C315 O319 1.241 . S
C316 O309 1.247 . S
C316 O310 1.261 . S
C317 O312 1.259 . S
C317 O314 1.235 . S
O318 Co308 2.021 1_545 S
O318 C315 1.238 . S
O319 Co313 2.052 1_545 S
O319 C315 1.241 . S
O320 Co308 2.137 . S
O320 C311 1.247 . S
O321 Co308 2.244 . S
O321 C311 1.272 . S
O321 Co313 2.135 . S
Co322 O323 2.216 . S
Co322 O324 2.091 . S
Co322 O326 2.004 . S
Co322 O332 2.021 . S
Co322 O334 2.137 1_565 S
Co322 O335 2.244 . S
O323 Co322 2.216 . S
O323 C330 1.247 . S
O324 Co322 2.091 . S
O324 C330 1.261 . S
C325 O334 1.247 . S
C325 O335 1.272 1_545 S
O326 Co322 2.004 . S
O326 C331 1.259 . S
Co327 O328 2.061 . S
Co327 O333 2.052 . S
Co327 O335 2.135 . S
O328 Co327 2.061 . S
O328 C331 1.235 . S
C329 O332 1.238 . S
C329 O333 1.241 . S
C330 O323 1.247 . S
C330 O324 1.261 . S
C331 O326 1.259 . S
C331 O328 1.235 . S
O332 Co322 2.021 . S
O332 C329 1.238 . S
O333 Co327 2.052 . S
O333 C329 1.241 . S
O334 Co322 2.137 1_545 S
O334 C325 1.247 . S
O335 Co322 2.244 . S
O335 C325 1.272 1_565 S
O335 Co327 2.135 . S
Co336 O337 2.216 . S
Co336 O338 2.091 . S
Co336 O340 2.004 . S
Co336 O346 2.021 . S
Co336 O348 2.137 . S
Co336 O349 2.244 . S
O337 Co336 2.216 . S
O337 C344 1.247 . S
O338 Co336 2.091 . S
O338 C344 1.261 . S
C339 O348 1.247 . S
C339 O349 1.272 . S
O340 Co336 2.004 . S
O340 C345 1.259 . S
Co341 O342 2.061 . S
Co341 O347 2.052 . S
Co341 O349 2.135 . S
O342 Co341 2.061 . S
O342 C345 1.235 . S
C343 O346 1.238 . S
C343 O347 1.241 . S
C344 O337 1.247 . S
C344 O338 1.261 . S
C345 O340 1.259 . S
C345 O342 1.235 . S
O346 Co336 2.021 . S
O346 C343 1.238 . S
O347 Co341 2.052 . S
O347 C343 1.241 . S
O348 Co336 2.137 . S
O348 C339 1.247 . S
O349 Co336 2.244 . S
O349 C339 1.272 . S
O349 Co341 2.135 . S
Co350 O351 2.216 . S
Co350 O352 2.091 . S
Co350 O354 2.004 . S
Co350 O360 2.021 . S
Co350 O362 2.137 . S
Co350 O363 2.244 . S
O351 Co350 2.216 . S
O351 C358 1.247 . S
O352 Co350 2.091 . S
O352 C358 1.261 . S
C353 O362 1.247 . S
C353 O363 1.272 . S
O354 Co350 2.004 . S
O354 C359 1.259 . S
Co355 O356 2.061 . S
Co355 O361 2.052 . S
Co355 O363 2.135 . S
O356 Co355 2.061 . S
O356 C359 1.235 . S
C357 O360 1.238 . S
C357 O361 1.241 . S
C358 O351 1.247 . S
C358 O352 1.261 . S
C359 O354 1.259 . S
C359 O356 1.235 . S
O360 Co350 2.021 . S
O360 C357 1.238 . S
O361 Co355 2.052 . S
O361 C357 1.241 . S
O362 Co350 2.137 . S
O362 C353 1.247 . S
O363 Co350 2.244 . S
O363 C353 1.272 . S
O363 Co355 2.135 . S
Co364 O365 2.216 . S
Co364 O366 2.091 1_556 S
Co364 O368 2.004 . S
Co364 O374 2.021 . S
Co364 O376 2.137 . S
Co364 O377 2.244 . S
O365 Co364 2.216 . S
O365 C372 1.247 . S
O366 Co364 2.091 1_554 S
O366 C372 1.261 1_554 S
C367 O376 1.247 . S
C367 O377 1.272 . S
O368 Co364 2.004 . S
O368 C373 1.259 . S
Co369 O370 2.061 . S
Co369 O375 2.052 . S
Co369 O377 2.135 . S
O370 Co369 2.061 . S
O370 C373 1.235 . S
C371 O374 1.238 . S
C371 O375 1.241 . S
C372 O365 1.247 . S
C372 O366 1.261 1_556 S
C373 O368 1.259 . S
C373 O370 1.235 . S
O374 Co364 2.021 . S
O374 C371 1.238 . S
O375 Co369 2.052 . S
O375 C371 1.241 . S
O376 Co364 2.137 . S
O376 C367 1.247 . S
O377 Co364 2.244 . S
O377 C367 1.272 . S
O377 Co369 2.135 . S
Co378 O379 2.216 . S
Co378 O380 2.091 1_556 S
Co378 O382 2.004 . S
Co378 O388 2.021 . S
Co378 O390 2.137 . S
Co378 O391 2.244 . S
O379 Co378 2.216 . S
O379 C386 1.247 . S
O380 Co378 2.091 1_554 S
O380 C386 1.261 1_554 S
C381 O390 1.247 . S
C381 O391 1.272 . S
O382 Co378 2.004 . S
O382 C387 1.259 . S
Co383 O384 2.061 . S
Co383 O389 2.052 . S
Co383 O391 2.135 . S
O384 Co383 2.061 . S
O384 C387 1.235 . S
C385 O388 1.238 . S
C385 O389 1.241 . S
C386 O379 1.247 . S
C386 O380 1.261 1_556 S
C387 O382 1.259 . S
C387 O384 1.235 . S
O388 Co378 2.021 . S
O388 C385 1.238 . S
O389 Co383 2.052 . S
O389 C385 1.241 . S
O390 Co378 2.137 . S
O390 C381 1.247 . S
O391 Co378 2.244 . S
O391 C381 1.272 . S
O391 Co383 2.135 . S
Co392 O393 2.216 . S
Co392 O394 2.091 . S
Co392 O396 2.004 . S
Co392 O402 2.021 . S
Co392 O404 2.137 . S
Co392 O405 2.244 . S
O393 Co392 2.216 . S
O393 C400 1.247 . S
O394 Co392 2.091 . S
O394 C400 1.261 . S
C395 O404 1.247 . S
C395 O405 1.272 . S
O396 Co392 2.004 . S
O396 C401 1.259 . S
Co397 O398 2.061 . S
Co397 O403 2.052 . S
Co397 O405 2.135 . S
O398 Co397 2.061 . S
O398 C401 1.235 . S
C399 O402 1.238 . S
C399 O403 1.241 . S
C400 O393 1.247 . S
C400 O394 1.261 . S
C401 O396 1.259 . S
C401 O398 1.235 . S
O402 Co392 2.021 . S
O402 C399 1.238 . S
O403 Co397 2.052 . S
O403 C399 1.241 . S
O404 Co392 2.137 . S
O404 C395 1.247 . S
O405 Co392 2.244 . S
O405 C395 1.272 . S
O405 Co397 2.135 . S
Co406 O407 2.216 . S
Co406 O408 2.091 . S
Co406 O410 2.004 . S
Co406 O416 2.021 . S
Co406 O418 2.137 . S
Co406 O419 2.244 . S
O407 Co406 2.216 . S
O407 C414 1.247 . S
O408 Co406 2.091 . S
O408 C414 1.261 . S
C409 O418 1.247 . S
C409 O419 1.272 . S
O410 Co406 2.004 . S
O410 C415 1.259 . S
Co411 O412 2.061 . S
Co411 O417 2.052 . S
Co411 O419 2.135 . S
O412 Co411 2.061 . S
O412 C415 1.235 . S
C413 O416 1.238 . S
C413 O417 1.241 . S
C414 O407 1.247 . S
C414 O408 1.261 . S
C415 O410 1.259 . S
C415 O412 1.235 . S
O416 Co406 2.021 . S
O416 C413 1.238 . S
O417 Co411 2.052 . S
O417 C413 1.241 . S
O418 Co406 2.137 . S
O418 C409 1.247 . S
O419 Co406 2.244 . S
O419 C409 1.272 . S
O419 Co411 2.135 . S
Co420 O421 2.216 . S
Co420 O422 2.091 1_554 S
Co420 O424 2.004 . S
Co420 O430 2.021 . S
Co420 O432 2.137 . S
Co420 O433 2.244 . S
O421 Co420 2.216 . S
O421 C428 1.247 . S
O422 Co420 2.091 1_556 S
O422 C428 1.261 1_556 S
C423 O432 1.247 . S
C423 O433 1.272 . S
O424 Co420 2.004 . S
O424 C429 1.259 . S
Co425 O426 2.061 . S
Co425 O431 2.052 . S
Co425 O433 2.135 . S
O426 Co425 2.061 . S
O426 C429 1.235 . S
C427 O430 1.238 . S
C427 O431 1.241 . S
C428 O421 1.247 . S
C428 O422 1.261 1_554 S
C429 O424 1.259 . S
C429 O426 1.235 . S
O430 Co420 2.021 . S
O430 C427 1.238 . S
O431 Co425 2.052 . S
O431 C427 1.241 . S
O432 Co420 2.137 . S
O432 C423 1.247 . S
O433 Co420 2.244 . S
O433 C423 1.272 . S
O433 Co425 2.135 . S
Co434 O435 2.216 . S
Co434 O436 2.091 1_554 S
Co434 O438 2.004 . S
Co434 O444 2.021 . S
Co434 O446 2.137 . S
Co434 O447 2.244 . S
O435 Co434 2.216 . S
O435 C442 1.247 . S
O436 Co434 2.091 1_556 S
O436 C442 1.261 1_556 S
C437 O446 1.247 . S
C437 O447 1.272 . S
O438 Co434 2.004 . S
O438 C443 1.259 . S
Co439 O440 2.061 . S
Co439 O445 2.052 . S
Co439 O447 2.135 . S
O440 Co439 2.061 . S
O440 C443 1.235 . S
C441 O444 1.238 . S
C441 O445 1.241 . S
C442 O435 1.247 . S
C442 O436 1.261 1_554 S
C443 O438 1.259 . S
C443 O440 1.235 . S
O444 Co434 2.021 . S
O444 C441 1.238 . S
O445 Co439 2.052 . S
O445 C441 1.241 . S
O446 Co434 2.137 . S
O446 C437 1.247 . S
O447 Co434 2.244 . S
O447 C437 1.272 . S
O447 Co439 2.135 . S
C9 C23 1.373 . S
C51 C37 1.373 . S
C65 C79 1.373 . S
C93 C107 1.373 . S
C121 C135 1.373 . S
C149 C163 1.373 . S
C177 C191 1.373 . S
C205 C219 1.373 . S
C247 C233 1.373 . S
C275 C261 1.373 . S
C303 C289 1.373 . S
C331 C317 1.373 . S
C359 C345 1.373 . S
C387 C373 1.373 . S
C415 C401 1.373 . S
C443 C429 1.373 . S
C8 C176 1.990 1_455 S
C22 C302 1.990 1_545 S
C36 C92 1.990 1_446 S
C50 C442 1.990 1_556 S
C64 C120 1.990 1_655 S
C246 C78 1.990 1_545 S
C386 C106 1.990 1_556 S
C134 C414 1.990 . S
C148 C204 1.990 1_455 S
C162 C330 1.990 . S
C190 C358 1.990 . S
C218 C274 1.990 . S
C400 C232 1.990 . S
C316 C260 1.990 1_565 S
C288 C344 1.990 . S
C428 C372 1.990 1_554 S
C147 C7 0.990 . S
C161 C21 0.990 . S
C35 C119 0.990 . S
C133 C49 0.990 . S
C63 C203 0.990 . S
C77 C217 0.990 . S
C175 C91 0.990 . S
C189 C105 0.990 . S
C231 C371 0.990 . S
C385 C245 0.990 . S
C343 C259 0.990 . S
C273 C357 0.990 . S
C427 C287 0.990 . S
C301 C441 0.990 . S
C399 C315 0.990 . S
C413 C329 0.990 . S
C143 C3 1.709 . S
C157 C17 1.709 . S
C115 C31 1.709 . S
C45 C129 1.709 . S
C199 C59 1.709 . S
C213 C73 1.709 . S
C171 C87 1.709 . S
C185 C101 1.709 . S
C367 C227 1.709 . S
C381 C241 1.709 . S
C339 C255 1.709 . S
C269 C353 1.709 . S
C423 C283 1.709 . S
C297 C437 1.709 . S
C395 C311 1.709 . S
C325 C409 1.709 . S
