# Generated by pormake.
# Topology fnw, (5)-cn, num edge types: 1
# Building blocks:
#     Node 0, Type 0, BuildingBlock: XOMCOT_clean_sbu_1, # of connection points: 5
#     Node 1, Type 0, BuildingBlock: XOMCOT_clean_sbu_1, # of connection points: 5
#     Node 2, Type 0, BuildingBlock: XOMCOT_clean_sbu_1, # of connection points: 5
#     Node 3, Type 0, BuildingBlock: XOMCOT_clean_sbu_1, # of connection points: 5
#     Node 4, Type 0, BuildingBlock: XOMCOT_clean_sbu_1, # of connection points: 5
#     Node 5, Type 0, BuildingBlock: XOMCOT_clean_sbu_1, # of connection points: 5
#     Node 6, Type 0, BuildingBlock: XOMCOT_clean_sbu_1, # of connection points: 5
#     Node 7, Type 0, BuildingBlock: XOMCOT_clean_sbu_1, # of connection points: 5
#     Node 8, Type 0, BuildingBlock: XOMCOT_clean_sbu_1, # of connection points: 5
#     Node 9, Type 0, BuildingBlock: XOMCOT_clean_sbu_1, # of connection points: 5
#     Node 10, Type 0, BuildingBlock: XOMCOT_clean_sbu_1, # of connection points: 5
#     Node 11, Type 0, BuildingBlock: XOMCOT_clean_sbu_1, # of connection points: 5
#     Edge 12, Type (0, 0), BuildingBlock: CIFDUS_clean_linker_0, # of connection points: 2
#     Edge 13, Type (0, 0), BuildingBlock: CIFDUS_clean_linker_0, # of connection points: 2
#     Edge 14, Type (0, 0), BuildingBlock: CIFDUS_clean_linker_0, # of connection points: 2
#     Edge 15, Type (0, 0), BuildingBlock: CIFDUS_clean_linker_0, # of connection points: 2
#     Edge 16, Type (0, 0), BuildingBlock: CIFDUS_clean_linker_0, # of connection points: 2
#     Edge 17, Type (0, 0), BuildingBlock: CIFDUS_clean_linker_0, # of connection points: 2
#     Edge 18, Type (0, 0), BuildingBlock: CIFDUS_clean_linker_0, # of connection points: 2
#     Edge 19, Type (0, 0), BuildingBlock: CIFDUS_clean_linker_0, # of connection points: 2
#     Edge 20, Type (0, 0), BuildingBlock: CIFDUS_clean_linker_0, # of connection points: 2
#     Edge 21, Type (0, 0), BuildingBlock: CIFDUS_clean_linker_0, # of connection points: 2
#     Edge 22, Type (0, 0), BuildingBlock: CIFDUS_clean_linker_0, # of connection points: 2
#     Edge 23, Type (0, 0), BuildingBlock: CIFDUS_clean_linker_0, # of connection points: 2
#     Edge 24, Type (0, 0), BuildingBlock: CIFDUS_clean_linker_0, # of connection points: 2
#     Edge 25, Type (0, 0), BuildingBlock: CIFDUS_clean_linker_0, # of connection points: 2
#     Edge 26, Type (0, 0), BuildingBlock: CIFDUS_clean_linker_0, # of connection points: 2
#     Edge 27, Type (0, 0), BuildingBlock: CIFDUS_clean_linker_0, # of connection points: 2
#     Edge 28, Type (0, 0), BuildingBlock: CIFDUS_clean_linker_0, # of connection points: 2
#     Edge 29, Type (0, 0), BuildingBlock: CIFDUS_clean_linker_0, # of connection points: 2
#     Edge 30, Type (0, 0), BuildingBlock: CIFDUS_clean_linker_0, # of connection points: 2
#     Edge 31, Type (0, 0), BuildingBlock: CIFDUS_clean_linker_0, # of connection points: 2
#     Edge 32, Type (0, 0), BuildingBlock: CIFDUS_clean_linker_0, # of connection points: 2
#     Edge 33, Type (0, 0), BuildingBlock: CIFDUS_clean_linker_0, # of connection points: 2
#     Edge 34, Type (0, 0), BuildingBlock: CIFDUS_clean_linker_0, # of connection points: 2
#     Edge 35, Type (0, 0), BuildingBlock: CIFDUS_clean_linker_0, # of connection points: 2
#     Edge 36, Type (0, 0), BuildingBlock: CIFDUS_clean_linker_0, # of connection points: 2
#     Edge 37, Type (0, 0), BuildingBlock: CIFDUS_clean_linker_0, # of connection points: 2
#     Edge 38, Type (0, 0), BuildingBlock: CIFDUS_clean_linker_0, # of connection points: 2
#     Edge 39, Type (0, 0), BuildingBlock: CIFDUS_clean_linker_0, # of connection points: 2
#     Edge 40, Type (0, 0), BuildingBlock: CIFDUS_clean_linker_0, # of connection points: 2
#     Edge 41, Type (0, 0), BuildingBlock: CIFDUS_clean_linker_0, # of connection points: 2
# Relax obj value: 0.361
# Max RMSD: 0.160
# Mean RMSD: 0.160
data_MOF--net-fnw--node1-XOMCOT_clean_sbu_1--edge1-CIFDUS_clean_linker_0
_symmetry_space_group_name_H-M    P1
_symmetry_Int_Tables_number       1
_symmetry_cell_setting            triclinic
loop_
_symmetry_equiv_pos_as_xyz
'x, y, z'
_cell_length_a     48.227663
_cell_length_b     48.174541
_cell_length_c     23.968005
_cell_angle_alpha  89.84966
_cell_angle_beta   90.044055
_cell_angle_gamma 120.18947
loop_
_atom_site_label
_atom_site_type_symbol
_atom_site_fract_x
_atom_site_fract_y
_atom_site_fract_z
_atom_type_partial_charge
C0 C 0.24884 0.48946 0.26646 0.0
C1 C 0.23228 0.50575 0.26849 0.0
N2 N 0.21655 0.49906 0.31756 0.0
N3 N 0.24352 0.47244 0.31386 0.0
C4 C 0.2237 0.47873 0.34427 0.0
H5 H 0.26444 0.49056 0.2331 0.0
Co6 Co 0.26271 0.44817 0.32919 0.0
C7 C 0.24496 0.4269 0.44688 0.0
O8 O 0.27473 0.43428 0.45524 0.0
N9 N 0.28275 0.42295 0.34331 0.0
C10 C 0.31787 0.40737 0.36558 0.0
C11 C 0.31062 0.43132 0.37029 0.0
C12 C 0.27377 0.39336 0.32284 0.0
N13 N 0.29486 0.38365 0.3351 0.0
O14 O 0.23083 0.41496 0.28174 0.0
H15 H 0.32549 0.45366 0.3918 0.0
H16 H 0.25286 0.37937 0.29724 0.0
O17 O 0.23625 0.43059 0.39802 0.0
C18 C 0.24396 0.41907 0.23363 0.0
O19 O 0.27483 0.43981 0.22934 0.0
N20 N 0.29528 0.48373 0.36656 0.0
C21 C 0.34342 0.54622 0.38981 0.0
C22 C 0.31535 0.53148 0.42201 0.0
C23 C 0.2914 0.50001 0.40971 0.0
C24 C 0.32245 0.49801 0.33494 0.0
C25 C 0.34722 0.52883 0.34688 0.0
H26 H 0.26893 0.48996 0.43192 0.0
H27 H 0.32428 0.48578 0.29856 0.0
H28 H 0.2151 0.4691 0.38552 0.0
H29 H 0.23289 0.52229 0.23722 0.0
H30 H 0.3397 0.40842 0.3798 0.0
H31 H 0.3113 0.54476 0.45426 0.0
H32 H 0.36809 0.5399 0.31991 0.0
C33 C 0.74119 0.20441 0.65728 0.0
C34 C 0.70903 0.18287 0.66417 0.0
N35 N 0.7009 0.18531 0.71689 0.0
N36 N 0.7534 0.22008 0.70564 0.0
C37 C 0.72826 0.20788 0.74122 0.0
H38 H 0.7543 0.20972 0.61849 0.0
Co39 Co 0.79464 0.25456 0.7157 0.0
C40 C 0.80975 0.25357 0.8366 0.0
O41 O 0.82703 0.28508 0.83575 0.0
N42 N 0.83658 0.28963 0.72482 0.0
C43 C 0.87952 0.33847 0.73028 0.0
C44 C 0.84728 0.32131 0.71856 0.0
C45 C 0.86298 0.2882 0.73897 0.0
N46 N 0.8894 0.31762 0.74342 0.0
O47 O 0.81132 0.22961 0.68105 0.0
H48 H 0.83277 0.33164 0.70699 0.0
H49 H 0.86252 0.26585 0.74674 0.0
O50 O 0.79567 0.23833 0.79187 0.0
C51 C 0.82247 0.24016 0.63215 0.0
O52 O 0.82772 0.26879 0.61807 0.0
N53 N 0.77683 0.27912 0.74055 0.0
C54 C 0.74858 0.31699 0.74906 0.0
C55 C 0.75406 0.30379 0.79702 0.0
C56 C 0.76755 0.28406 0.79176 0.0
C57 C 0.77057 0.29106 0.6937 0.0
C58 C 0.75652 0.31006 0.69693 0.0
H59 H 0.76945 0.27243 0.82867 0.0
H60 H 0.77703 0.28597 0.65334 0.0
H61 H 0.72959 0.21651 0.78331 0.0
H62 H 0.69241 0.16846 0.6317 0.0
H63 H 0.89422 0.36437 0.73056 0.0
H64 H 0.74746 0.3082 0.83783 0.0
H65 H 0.75255 0.31985 0.659 0.0
C66 C 0.46996 0.77112 0.25549 0.0
C67 C 0.44261 0.74179 0.26251 0.0
N68 N 0.44647 0.72774 0.30812 0.0
N69 N 0.49094 0.7755 0.29647 0.0
C70 C 0.47592 0.74856 0.32787 0.0
H71 H 0.47366 0.7888 0.2241 0.0
Co72 Co 0.52791 0.81451 0.3099 0.0
C73 C 0.55147 0.77777 0.37756 0.0
O74 O 0.55856 0.76632 0.33358 0.0
N75 N 0.56425 0.85386 0.32266 0.0
C76 C 0.60933 0.89563 0.3534 0.0
C77 C 0.58797 0.86337 0.36065 0.0
C78 C 0.57157 0.8805 0.29326 0.0
N79 N 0.59894 0.90638 0.31078 0.0
O80 O 0.55048 0.80398 0.25543 0.0
H81 H 0.58966 0.84818 0.39209 0.0
H82 H 0.5569 0.88073 0.25947 0.0
O83 O 0.53977 0.79609 0.37123 0.0
C84 C 0.54831 0.81347 0.20658 0.0
O85 O 0.53434 0.83072 0.20127 0.0
N86 N 0.50421 0.82499 0.35765 0.0
C87 C 0.44422 0.81281 0.39047 0.0
C88 C 0.46221 0.80452 0.42552 0.0
C89 C 0.49237 0.81074 0.40815 0.0
C90 C 0.48961 0.83829 0.32831 0.0
C91 C 0.4593 0.83237 0.34394 0.0
H92 H 0.50356 0.80008 0.43179 0.0
H93 H 0.49902 0.84899 0.28797 0.0
H94 H 0.48535 0.74493 0.36639 0.0
H95 H 0.42137 0.73177 0.23657 0.0
H96 H 0.63048 0.91001 0.3784 0.0
H97 H 0.45156 0.78997 0.46245 0.0
H98 H 0.4463 0.83929 0.31564 0.0
C99 C 0.71764 0.49789 0.66309 0.0
C100 C 0.71973 0.47054 0.66518 0.0
N101 N 0.73111 0.46899 0.71573 0.0
N102 N 0.72761 0.51346 0.71206 0.0
C103 C 0.73611 0.49552 0.74319 0.0
H104 H 0.70791 0.50519 0.62914 0.0
Co105 Co 0.72174 0.54728 0.73032 0.0
C106 C 0.74513 0.56665 0.84594 0.0
O107 O 0.72105 0.57168 0.85394 0.0
N108 N 0.71581 0.5818 0.74644 0.0
C109 C 0.72749 0.63186 0.76287 0.0
C110 C 0.73998 0.61235 0.75292 0.0
C111 C 0.6888 0.58342 0.75206 0.0
N112 N 0.69528 0.61361 0.76253 0.0
O113 O 0.75836 0.57497 0.68537 0.0
H114 H 0.76522 0.61998 0.75087 0.0
H115 H 0.66487 0.56292 0.74934 0.0
O116 O 0.74857 0.55669 0.79817 0.0
C117 C 0.75018 0.58013 0.63747 0.0
O118 O 0.71959 0.56942 0.62808 0.0
N119 N 0.68402 0.51761 0.76798 0.0
C120 C 0.63599 0.45361 0.77775 0.0
C121 C 0.65897 0.46824 0.81984 0.0
C122 C 0.68305 0.50023 0.81399 0.0
C123 C 0.65922 0.50494 0.73087 0.0
C124 C 0.63484 0.47287 0.73497 0.0
H125 H 0.70289 0.50857 0.84232 0.0
H126 H 0.66088 0.51819 0.69332 0.0
H127 H 0.74371 0.50057 0.78628 0.0
H128 H 0.71274 0.45278 0.63252 0.0
H129 H 0.74115 0.65759 0.76895 0.0
H130 H 0.66047 0.45415 0.85377 0.0
H131 H 0.61765 0.46245 0.70129 0.0
C132 C 0.21256 0.69535 0.29983 0.0
C133 C 0.24492 0.70607 0.3026 0.0
N134 N 0.25913 0.73418 0.33031 0.0
N135 N 0.20665 0.71639 0.32674 0.0
C136 C 0.23551 0.73999 0.34403 0.0
H137 H 0.19443 0.67338 0.2805 0.0
Co138 Co 0.16763 0.71395 0.33879 0.0
C139 C 0.18782 0.75805 0.43803 0.0
O140 O 0.18926 0.78236 0.41053 0.0
N141 N 0.12875 0.71219 0.35118 0.0
C142 C 0.08426 0.70611 0.38967 0.0
C143 C 0.11193 0.70527 0.39908 0.0
C144 C 0.11097 0.71719 0.31352 0.0
N145 N 0.08363 0.71367 0.33555 0.0
O146 O 0.18401 0.75445 0.30045 0.0
H147 H 0.11885 0.69905 0.43799 0.0
H148 H 0.1176 0.72243 0.2703 0.0
O149 O 0.18114 0.7323 0.41241 0.0
C150 C 0.17915 0.74615 0.24903 0.0
O151 O 0.16429 0.71531 0.23734 0.0
N152 N 0.1515 0.67282 0.36926 0.0
C153 C 0.14434 0.6118 0.3704 0.0
C154 C 0.16554 0.63557 0.40766 0.0
C155 C 0.16849 0.66596 0.40693 0.0
C156 C 0.12774 0.64897 0.33857 0.0
C157 C 0.12326 0.61803 0.33949 0.0
H158 H 0.18774 0.685 0.43053 0.0
H159 H 0.11463 0.6547 0.30849 0.0
H160 H 0.23908 0.76076 0.3673 0.0
H161 H 0.25708 0.69425 0.28558 0.0
H162 H 0.06544 0.69991 0.41999 0.0
H163 H 0.18238 0.6322 0.43247 0.0
H164 H 0.1056 0.60015 0.31179 0.0
C165 C 0.51842 0.2221 0.67271 0.0
C166 C 0.54095 0.25423 0.67701 0.0
N167 N 0.52698 0.26923 0.70154 0.0
N168 N 0.49063 0.21692 0.69537 0.0
C169 C 0.49647 0.24616 0.71178 0.0
H170 H 0.52218 0.20368 0.65477 0.0
Co171 Co 0.45285 0.17802 0.7035 0.0
C172 C 0.42844 0.18083 0.81546 0.0
O173 O 0.41969 0.15052 0.82349 0.0
N174 N 0.41391 0.13903 0.7107 0.0
C175 C 0.36103 0.10663 0.71563 0.0
C176 C 0.38529 0.13784 0.71114 0.0
C177 C 0.40626 0.10795 0.71526 0.0
N178 N 0.37423 0.08786 0.71823 0.0
O179 O 0.43248 0.19366 0.65425 0.0
H180 H 0.38219 0.15854 0.70932 0.0
H181 H 0.42351 0.09994 0.71633 0.0
O182 O 0.44154 0.19453 0.76921 0.0
C183 C 0.43006 0.183 0.60475 0.0
O184 O 0.43894 0.16172 0.59541 0.0
N185 N 0.47552 0.16324 0.74661 0.0
C186 C 0.52943 0.15932 0.77746 0.0
C187 C 0.51763 0.17451 0.81212 0.0
C188 C 0.49137 0.17718 0.79508 0.0
C189 C 0.48477 0.14578 0.71519 0.0
C190 C 0.51155 0.14345 0.72976 0.0
H191 H 0.48662 0.19355 0.81792 0.0
H192 H 0.47371 0.13687 0.67494 0.0
H193 H 0.47889 0.25042 0.73192 0.0
H194 H 0.56561 0.2657 0.66294 0.0
H195 H 0.33566 0.09843 0.71835 0.0
H196 H 0.53023 0.18682 0.84969 0.0
H197 H 0.51982 0.13207 0.70059 0.0
C198 C 0.45418 0.68663 0.85156 0.0
C199 C 0.42892 0.69187 0.8441 0.0
N200 N 0.43843 0.71698 0.8091 0.0
N201 N 0.47926 0.70805 0.82074 0.0
C202 C 0.46913 0.72653 0.79589 0.0
H203 H 0.45422 0.66819 0.87735 0.0
Co204 Co 0.51823 0.7096 0.81473 0.0
C205 C 0.53838 0.72516 0.69814 0.0
O206 O 0.54475 0.7017 0.70143 0.0
N207 N 0.55867 0.71249 0.81003 0.0
C208 C 0.61196 0.73722 0.80404 0.0
C209 C 0.58583 0.74125 0.8036 0.0
C210 C 0.56913 0.69122 0.81367 0.0
N211 N 0.60136 0.70576 0.81037 0.0
O212 O 0.53755 0.74874 0.8573 0.0
H213 H 0.58662 0.76394 0.79843 0.0
H214 H 0.55391 0.66565 0.81875 0.0
O215 O 0.52715 0.73211 0.74122 0.0
C216 C 0.53956 0.74063 0.90737 0.0
O217 O 0.53051 0.71038 0.9172 0.0
N218 N 0.49637 0.66877 0.78085 0.0
C219 C 0.4405 0.60877 0.775 0.0
C220 C 0.44719 0.63225 0.73409 0.0
C221 C 0.47533 0.66215 0.73768 0.0
C222 C 0.49166 0.64507 0.8174 0.0
C223 C 0.46458 0.61459 0.81387 0.0
H224 H 0.47721 0.68115 0.71112 0.0
H225 H 0.5062 0.65092 0.85458 0.0
H226 H 0.48377 0.74629 0.76807 0.0
H227 H 0.40555 0.6786 0.86361 0.0
H228 H 0.63678 0.75585 0.79896 0.0
H229 H 0.42924 0.6292 0.70372 0.0
H230 H 0.46081 0.59709 0.84581 0.0
C231 C 0.77683 0.50908 0.33947 0.0
C232 C 0.74421 0.48973 0.3453 0.0
N233 N 0.72999 0.49387 0.30013 0.0
N234 N 0.78306 0.52527 0.29091 0.0
C235 C 0.75409 0.51569 0.26798 0.0
H236 H 0.79497 0.51098 0.36831 0.0
Co237 Co 0.82372 0.55395 0.26527 0.0
C238 C 0.81447 0.55474 0.14254 0.0
O239 O 0.83597 0.54611 0.13481 0.0
N240 N 0.86584 0.584 0.2398 0.0
C241 C 0.91531 0.60633 0.205 0.0
C242 C 0.88639 0.57861 0.2096 0.0
C243 C 0.8833 0.61564 0.25246 0.0
N244 N 0.91354 0.62961 0.23269 0.0
O245 O 0.81842 0.58734 0.29721 0.0
H246 H 0.88173 0.55563 0.19412 0.0
H247 H 0.8749 0.62821 0.27829 0.0
O248 O 0.80664 0.55791 0.19228 0.0
C249 C 0.82885 0.59053 0.34725 0.0
O250 O 0.84639 0.57755 0.35999 0.0
N251 N 0.82789 0.51903 0.24367 0.0
C252 C 0.82365 0.4595 0.25522 0.0
C253 C 0.8033 0.46349 0.21826 0.0
C254 C 0.80552 0.49347 0.2136 0.0
C255 C 0.84869 0.51577 0.27782 0.0
C256 C 0.84746 0.48643 0.28329 0.0
H257 H 0.78729 0.49523 0.19026 0.0
H258 H 0.86482 0.53553 0.30423 0.0
H259 H 0.75066 0.52442 0.22847 0.0
H260 H 0.73198 0.4732 0.37932 0.0
H261 H 0.93692 0.6083 0.18749 0.0
H262 H 0.78402 0.44311 0.19696 0.0
H263 H 0.86366 0.48442 0.31215 0.0
C264 C 0.28047 0.76933 0.89872 0.0
C265 C 0.27249 0.73766 0.8947 0.0
N266 N 0.24971 0.72365 0.8553 0.0
N267 N 0.26302 0.77527 0.86169 0.0
C268 C 0.24443 0.74687 0.83589 0.0
H269 H 0.29817 0.78709 0.92644 0.0
Co270 Co 0.26813 0.81584 0.85083 0.0
C271 C 0.21215 0.78521 0.7677 0.0
O272 O 0.18876 0.76577 0.80108 0.0
N273 N 0.27298 0.85643 0.83994 0.0
C274 C 0.2589 0.89304 0.82317 0.0
C275 C 0.24793 0.86151 0.8363 0.0
C276 C 0.29904 0.88542 0.82929 0.0
N277 N 0.29103 0.908 0.81847 0.0
O278 O 0.23361 0.80499 0.90222 0.0
H279 H 0.22303 0.84315 0.84119 0.0
H280 H 0.32327 0.8898 0.827 0.0
O281 O 0.24051 0.80246 0.78625 0.0
C282 C 0.24442 0.81672 0.95045 0.0
O283 O 0.27548 0.8362 0.95594 0.0
N284 N 0.30357 0.82589 0.80577 0.0
C285 C 0.35467 0.8194 0.7696 0.0
C286 C 0.32747 0.80906 0.73589 0.0
C287 C 0.30203 0.81261 0.75467 0.0
C288 C 0.33114 0.83898 0.83619 0.0
C289 C 0.35724 0.83637 0.81849 0.0
H290 H 0.28016 0.80148 0.73066 0.0
H291 H 0.33155 0.84834 0.87737 0.0
H292 H 0.228 0.74313 0.8024 0.0
H293 H 0.28233 0.72574 0.91921 0.0
H294 H 0.2443 0.90401 0.81684 0.0
H295 H 0.3247 0.79572 0.69795 0.0
H296 H 0.37763 0.84422 0.84608 0.0
C297 C 0.51212 0.2923 0.28721 0.0
C298 C 0.533 0.28082 0.28999 0.0
N299 N 0.52744 0.26137 0.24599 0.0
N300 N 0.49332 0.28004 0.24189 0.0
C301 C 0.50324 0.26126 0.21739 0.0
H302 H 0.51093 0.3089 0.31603 0.0
Co303 Co 0.4619 0.29 0.22318 0.0
C304 C 0.45085 0.2731 0.10278 0.0
O305 O 0.45777 0.3025 0.09134 0.0
N306 N 0.42931 0.30041 0.20582 0.0
C307 C 0.40405 0.32617 0.17782 0.0
C308 C 0.43109 0.32389 0.17209 0.0
C309 C 0.40049 0.28892 0.23142 0.0
N310 N 0.38497 0.30443 0.21582 0.0
O311 O 0.43192 0.25257 0.26391 0.0
H312 H 0.45173 0.34049 0.1479 0.0
H313 H 0.39146 0.27079 0.26358 0.0
O314 O 0.45219 0.26508 0.1533 0.0
C315 C 0.43272 0.26092 0.31474 0.0
O316 O 0.44794 0.29177 0.32634 0.0
N317 N 0.49396 0.32816 0.19111 0.0
C318 C 0.55368 0.38396 0.18646 0.0
C319 C 0.54689 0.35771 0.15216 0.0
C320 C 0.51685 0.32981 0.15545 0.0
C321 C 0.49954 0.35424 0.22179 0.0
C322 C 0.52891 0.38264 0.21899 0.0
H323 H 0.51341 0.30859 0.13409 0.0
H324 H 0.48206 0.35212 0.25232 0.0
H325 H 0.49305 0.24783 0.17943 0.0
H326 H 0.55142 0.28695 0.32119 0.0
H327 H 0.40036 0.34472 0.15987 0.0
H328 H 0.56552 0.35744 0.12738 0.0
H329 H 0.53308 0.40242 0.24588 0.0
C330 C 0.21614 0.4896 0.92472 0.0
C331 C 0.2488 0.50892 0.92862 0.0
N332 N 0.26243 0.50231 0.88544 0.0
N333 N 0.2091 0.47086 0.87935 0.0
C334 C 0.23777 0.47908 0.85606 0.0
H335 H 0.19848 0.48937 0.95279 0.0
Co336 Co 0.16728 0.44175 0.8598 0.0
C337 C 0.16849 0.42048 0.74513 0.0
O338 O 0.14276 0.42268 0.73659 0.0
N339 N 0.12425 0.41135 0.84205 0.0
C340 C 0.08178 0.36335 0.82469 0.0
C341 C 0.11374 0.3796 0.83804 0.0
C342 C 0.09795 0.4137 0.83103 0.0
N343 N 0.07186 0.38482 0.82018 0.0
O344 O 0.16908 0.4112 0.91008 0.0
H345 H 0.12864 0.3689 0.84322 0.0
H346 H 0.09769 0.43596 0.83046 0.0
O347 O 0.18163 0.42701 0.79377 0.0
C348 C 0.15503 0.41065 0.95571 0.0
O349 O 0.13865 0.42572 0.95691 0.0
N350 N 0.16678 0.47479 0.81832 0.0
C351 C 0.18624 0.53928 0.79928 0.0
C352 C 0.19809 0.52359 0.76627 0.0
C353 C 0.1884 0.49147 0.77684 0.0
C354 C 0.15336 0.48916 0.84805 0.0
C355 C 0.16234 0.52123 0.83861 0.0
H356 H 0.20166 0.48189 0.75642 0.0
H357 H 0.13849 0.47693 0.88382 0.0
H358 H 0.24055 0.46833 0.81849 0.0
H359 H 0.26147 0.527 0.96017 0.0
H360 H 0.06723 0.3378 0.81721 0.0
H361 H 0.2169 0.53683 0.73597 0.0
H362 H 0.15319 0.53263 0.86603 0.0
C363 C 0.73685 0.2278 0.33507 0.0
C364 C 0.74868 0.26033 0.33994 0.0
N365 N 0.76627 0.27485 0.29411 0.0
N366 N 0.74706 0.22199 0.28654 0.0
C367 C 0.76526 0.25113 0.26297 0.0
H368 H 0.72047 0.20941 0.36356 0.0
Co369 Co 0.73333 0.18174 0.25661 0.0
C370 C 0.77274 0.19369 0.15402 0.0
O371 O 0.77755 0.16984 0.1663 0.0
N372 N 0.71879 0.14093 0.22663 0.0
C373 C 0.69343 0.09845 0.17118 0.0
C374 C 0.70521 0.13088 0.17585 0.0
C375 C 0.71516 0.11422 0.25184 0.0
N376 N 0.69974 0.08812 0.2191 0.0
O377 O 0.76987 0.18251 0.29078 0.0
H378 H 0.70275 0.14595 0.14503 0.0
H379 H 0.72163 0.1132 0.2946 0.0
O380 O 0.75659 0.20094 0.1871 0.0
C381 C 0.76269 0.17243 0.3411 0.0
O382 O 0.73244 0.15894 0.35624 0.0
N383 N 0.69668 0.18126 0.23019 0.0
C384 C 0.64342 0.18929 0.22804 0.0
C385 C 0.67009 0.20822 0.19387 0.0
C386 C 0.69669 0.20384 0.19559 0.0
C387 C 0.66999 0.16091 0.25983 0.0
C388 C 0.64295 0.16428 0.25892 0.0
H389 H 0.71814 0.22047 0.17312 0.0
H390 H 0.67065 0.14363 0.2879 0.0
H391 H 0.77654 0.25494 0.22267 0.0
H392 H 0.74309 0.27208 0.37286 0.0
H393 H 0.68008 0.08338 0.13632 0.0
H394 H 0.67155 0.22796 0.16978 0.0
H395 H 0.6227 0.14884 0.28526 0.0
H396 H 0.33986 0.31517 0.17291 0.0
H397 H 0.37486 0.29812 0.32725 0.0
H398 H 0.34356 0.31593 0.38016 0.0
H399 H 0.31574 0.34694 0.38131 0.0
H400 H 0.28244 0.366 0.22706 0.0
H401 H 0.30284 0.33637 0.17538 0.0
C402 C 0.33983 0.31456 0.21814 0.0
C403 C 0.36002 0.30593 0.24605 0.0
C404 C 0.3224 0.32563 0.24827 0.0
C405 C 0.35953 0.30467 0.30469 0.0
C406 C 0.34189 0.31519 0.33503 0.0
C407 C 0.31218 0.34369 0.3366 0.0
C408 C 0.29817 0.35896 0.30787 0.0
C409 C 0.32466 0.32731 0.30713 0.0
C410 C 0.29317 0.3544 0.25004 0.0
C411 C 0.30514 0.33776 0.22042 0.0
H412 H 0.94529 0.37269 0.72423 0.0
H413 H 0.90518 0.28002 0.80462 0.0
H414 H 0.95836 0.29299 0.83585 0.0
H415 H 0.0162 0.33067 0.8412 0.0
H416 H 0.0564 0.4237 0.76288 0.0
H417 H 0.003 0.41098 0.73174 0.0
C418 C 0.94801 0.35539 0.74901 0.0
C419 C 0.92104 0.3253 0.76158 0.0
C420 C 0.97868 0.3632 0.76777 0.0
C421 C 0.92537 0.30311 0.7932 0.0
C422 C 0.95582 0.31061 0.81161 0.0
C423 C 0.0133 0.34809 0.81707 0.0
C424 C 0.04026 0.37803 0.80422 0.0
C425 C 0.98261 0.34053 0.79906 0.0
C426 C 0.03602 0.40062 0.77384 0.0
C427 C 0.00552 0.39325 0.75566 0.0
H428 H 0.64107 0.03925 0.19757 0.0
H429 H 0.72958 0.06432 0.28141 0.0
H430 H 0.7063 0.00919 0.31678 0.0
H431 H 0.66027 0.95448 0.32487 0.0
H432 H 0.57051 0.93154 0.2462 0.0
H433 H 0.59502 0.98507 0.20691 0.0
C434 C 0.65535 0.03241 0.22282 0.0
C435 C 0.68699 0.05544 0.2365 0.0
C436 C 0.64158 0.00115 0.24394 0.0
C437 C 0.70514 0.04674 0.27044 0.0
C438 C 0.69183 0.01535 0.2906 0.0
C439 C 0.64589 0.96113 0.29961 0.0
C440 C 0.61353 0.93855 0.28847 0.0
C441 C 0.65992 0.99243 0.27805 0.0
C442 C 0.59558 0.94785 0.2549 0.0
C443 C 0.60951 0.97869 0.23254 0.0
H444 H 0.70531 0.66525 0.82105 0.0
H445 H 0.63434 0.58629 0.72326 0.0
H446 H 0.59742 0.60671 0.73353 0.0
H447 H 0.58694 0.64926 0.76484 0.0
H448 H 0.65935 0.72947 0.858 0.0
H449 H 0.69449 0.70663 0.85422 0.0
C450 C 0.68189 0.65261 0.80158 0.0
C451 C 0.67277 0.62449 0.77096 0.0
C452 C 0.66117 0.66484 0.80657 0.0
C453 C 0.64192 0.60789 0.74735 0.0
C454 C 0.62087 0.61967 0.75289 0.0
C455 C 0.61023 0.66138 0.78493 0.0
C456 C 0.62073 0.69097 0.81146 0.0
C457 C 0.63044 0.64837 0.78175 0.0
C458 C 0.65107 0.70682 0.8368 0.0
C459 C 0.67105 0.69376 0.83478 0.0
H460 H 0.0299 0.70997 0.37893 0.0
H461 H 0.07646 0.7147 0.22207 0.0
H462 H 0.02669 0.69692 0.17312 0.0
H463 H 0.96811 0.66693 0.17756 0.0
H464 H 0.9208 0.6563 0.3352 0.0
H465 H 0.97227 0.69013 0.38019 0.0
C466 C 0.02941 0.70735 0.33406 0.0
C467 C 0.05681 0.71183 0.3053 0.0
C468 C 0.0002 0.6958 0.30588 0.0
C469 C 0.05584 0.71028 0.24649 0.0
C470 C 0.02716 0.70005 0.21796 0.0
C471 C 0.96914 0.67289 0.2214 0.0
C472 C 0.94093 0.65826 0.25328 0.0
C473 C -0.00112 0.69066 0.2477 0.0
C474 C 0.94221 0.66689 0.30967 0.0
C475 C 0.97174 0.68592 0.3357 0.0
H476 H 0.27658 0.94164 0.74711 0.0
H477 H 0.35254 0.94754 0.85035 0.0
H478 H 0.38682 0.00414 0.82448 0.0
H479 H 0.39338 0.05285 0.77746 0.0
H480 H 0.3164 0.04609 0.67587 0.0
H481 H 0.28409 0.98886 0.6964 0.0
C482 C 0.30057 0.95537 0.7642 0.0
C483 C 0.31188 0.94068 0.80121 0.0
C484 C 0.31984 0.9877 0.74952 0.0
C485 C 0.34336 0.95843 0.82177 0.0
C486 C 0.36286 0.99076 0.80717 0.0
C487 C 0.36976 0.03866 0.75915 0.0
C488 C 0.3571 0.05363 0.72566 0.0
C489 C 0.35117 0.00576 0.77166 0.0
C490 C 0.32637 0.03511 0.7025 0.0
C491 C 0.30794 0.00243 0.71411 0.0
H492 H 0.20483 0.40081 0.98237 0.0
H493 H 0.12074 0.39759 0.05155 0.0
H494 H 0.13813 0.3944 0.14557 0.0
H495 H 0.18188 0.40213 0.20894 0.0
H496 H 0.26627 0.40614 0.13967 0.0
H497 H 0.24397 0.39873 0.04599 0.0
C498 C 0.18983 0.39836 1.01787 0.0
C499 C 0.16178 0.39995 1.00975 0.0
C500 C 0.20028 0.39709 0.07239 0.0
C501 C 0.1427 0.39686 0.05647 0.0
C502 C 0.15267 0.39513 0.1105 0.0
C503 C 0.19481 0.4002 0.17356 0.0
C504 C 0.22582 0.40504 0.1813 0.0
C505 C 0.18211 0.39665 0.11921 0.0
C506 C 0.24244 0.4028 0.13482 0.0
C507 C 0.22978 0.39872 0.08104 0.0
H508 H 0.75717 0.14336 0.44049 0.0
H509 H 0.82181 0.22689 0.34414 0.0
H510 H 0.85179 0.25329 0.42879 0.0
H511 H 0.85153 0.2569 0.53116 0.0
H512 H 0.78499 0.17438 0.62784 0.0
H513 H 0.76452 0.14298 0.5423 0.0
C514 C 0.77852 0.16691 0.43777 0.0
C515 C 0.787 0.18333 0.38618 0.0
C516 C 0.795 0.18229 0.48694 0.0
C517 C 0.81481 0.2137 0.38315 0.0
C518 C 0.83173 0.22895 0.43177 0.0
C519 C 0.83329 0.2317 0.5337 0.0
C520 C 0.81923 0.21826 0.5858 0.0
C521 C 0.8209 0.21415 0.48414 0.0
C522 C 0.79609 0.18545 0.58845 0.0
C523 C 0.78408 0.16757 0.53934 0.0
H524 H 0.54978 0.83358 0.10018 0.0
H525 H 0.56285 0.7654 0.19728 0.0
H526 H 0.56518 0.73928 0.1114 0.0
H527 H 0.55695 0.73198 1.01027 0.0
H528 H 0.5417 0.79869 0.91317 0.0
H529 H 0.54719 0.82958 0.99776 0.0
C530 C 0.5536 0.81326 0.10266 0.0
C531 C 0.55574 0.80121 0.15529 0.0
C532 C 0.55426 0.79801 0.05317 0.0
C533 C 0.56106 0.77513 0.15753 0.0
C534 C 0.5622 0.76008 0.10839 0.0
C535 C 0.55522 0.75353 1.00736 0.0
C536 C 0.54849 0.76281 0.95551 0.0
C537 C 0.5578 0.77071 0.0562 0.0
C538 C 0.54682 0.79102 0.95245 0.0
C539 C 0.54976 0.80854 1.0009 0.0
H540 H 0.85188 0.60539 0.45228 0.0
H541 H 0.77501 0.59629 0.34734 0.0
H542 H 0.74567 0.5972 0.42993 0.0
H543 H 0.73813 0.59136 0.53157 0.0
H544 H 0.81341 0.59627 0.63613 0.0
H545 H 0.84724 0.60645 0.55396 0.0
C546 C 0.82901 0.60435 0.44731 0.0
C547 C 0.81546 0.60038 0.39372 0.0
C548 C 0.81178 0.60357 0.49502 0.0
C549 C 0.78602 0.59943 0.38799 0.0
C550 C 0.76908 0.59957 0.43532 0.0
C551 C 0.76215 0.59519 0.53664 0.0
C552 C 0.77301 0.5925 0.58998 0.0
C553 C 0.78111 0.60017 0.48904 0.0
C554 C 0.80434 0.59794 0.59566 0.0
C555 C 0.82365 0.60366 0.54861 0.0
H556 H 0.2612 0.83937 0.05632 0.0
H557 H 0.18226 0.76747 0.95945 0.0
H558 H 0.1529 0.7423 0.04531 0.0
H559 H 0.15299 0.73644 0.14689 0.0
H560 H 0.23262 0.80647 0.24436 0.0
H561 H 0.25822 0.83719 0.15916 0.0
C562 C 0.23734 0.81848 0.05386 0.0
C563 C 0.22414 0.80503 1.00135 0.0
C564 C 0.22086 0.80378 0.10351 0.0
C565 C 0.19306 0.77822 0.9991 0.0
C566 C 0.17633 0.76374 0.04826 0.0
C567 C 0.17569 0.7588 0.14965 0.0
C568 C 0.19112 0.76906 0.20173 0.0
C569 C 0.19048 0.77567 0.10054 0.0
C570 C 0.22025 0.79819 0.20485 0.0
C571 C 0.23499 0.81551 0.15605 0.0
H572 H 0.4192 0.16196 0.49762 0.0
H573 H 0.42292 0.23591 0.60411 0.0
H574 H 0.41881 0.26409 0.5224 0.0
H575 H 0.42167 0.27134 0.42089 0.0
H576 H 0.42052 0.19884 0.31404 0.0
H577 H 0.41538 0.16603 0.39589 0.0
C578 C 0.41863 0.18401 0.5031 0.0
C579 C 0.42188 0.19708 0.5569 0.0
C580 C 0.41685 0.20036 0.45586 0.0
C581 C 0.42065 0.22542 0.56325 0.0
C582 C 0.41843 0.24161 0.51649 0.0
C583 C 0.41968 0.24806 0.41538 0.0
C584 C 0.42187 0.23769 0.36151 0.0
C585 C 0.41763 0.22985 0.4626 0.0
C586 C 0.41885 0.20734 0.355 0.0
C587 C 0.41623 0.18874 0.40185 0.0
H588 H 0.82674 0.54918 1.03396 0.0
H589 H 0.76774 0.57145 0.13879 0.0
H590 H 0.7426 0.57893 0.05571 0.0
H591 H 0.73652 0.57772 0.95394 0.0
H592 H 0.79444 0.5538 0.84953 0.0
H593 H 0.82124 0.54874 0.93238 0.0
C594 C 0.80841 0.55572 0.03891 0.0
C595 C 0.79911 0.55968 0.09276 0.0
C596 C 0.794 0.5598 0.99109 0.0
C597 C 0.77534 0.56821 0.098 0.0
C598 C 0.76099 0.5725 0.05048 0.0
C599 C 0.75517 0.57163 0.94905 0.0
C600 C 0.76346 0.56618 0.89534 0.0
C601 C 0.77005 0.56822 0.99688 0.0
C602 C 0.78764 0.55822 0.89016 0.0
C603 C 0.80287 0.5552 0.93757 0.0
H604 H 0.1799 0.7339 0.69907 0.0
H605 H 0.23511 0.83726 0.70015 0.0
H606 H 0.23188 0.83849 0.59826 0.0
H607 H 0.21487 0.80993 0.50813 0.0
H608 H 0.16387 0.7063 0.50754 0.0
H609 H 0.16416 0.7054 0.60908 0.0
C610 C 0.19071 0.75663 0.67688 0.0
C611 C 0.20717 0.78545 0.70689 0.0
C612 C 0.18991 0.7571 0.61812 0.0
C613 C 0.22198 0.81478 0.67774 0.0
C614 C 0.22028 0.81549 0.61952 0.0
C615 C 0.20384 0.78719 0.53028 0.0
C616 C 0.18941 0.75829 0.5 0.0
C617 C 0.2046 0.78678 0.58911 0.0
C618 C 0.1754 0.72899 0.5295 0.0
C619 C 0.17537 0.72839 0.58778 0.0
H620 H 0.42271 0.16494 0.92569 0.0
H621 H 0.43749 0.24145 0.81336 0.0
H622 H 0.4445 0.27602 0.89276 0.0
H623 H 0.44888 0.28534 0.99307 0.0
H624 H 0.43642 0.21009 0.10647 0.0
H625 H 0.42599 0.17406 1.02726 0.0
C626 C 0.42706 0.18904 0.91853 0.0
C627 C 0.42951 0.20058 0.86355 0.0
C628 C 0.43173 0.20903 0.96444 0.0
C629 C 0.43551 0.23198 0.85513 0.0
C630 C 0.43959 0.25178 0.90053 0.0
C631 C 0.44379 0.26103 1.00079 0.0
C632 C 0.44352 0.25048 0.0558 0.0
C633 C 0.43819 0.24069 0.95524 0.0
C634 C 0.43682 0.21886 0.06464 0.0
C635 C 0.43086 0.19827 1.01935 0.0
H636 H 0.25986 0.42265 0.55473 0.0
H637 H 0.18326 0.41611 0.45176 0.0
H638 H 0.15188 0.41063 0.5356 0.0
H639 H 0.14802 0.41172 0.63754 0.0
H640 H 0.22596 0.42138 0.7404 0.0
H641 H 0.25499 0.42135 0.65665 0.0
C642 C 0.23617 0.41974 0.5503 0.0
C643 C 0.22403 0.41996 0.49668 0.0
C644 C 0.21861 0.4173 0.59866 0.0
C645 C 0.19324 0.41605 0.49223 0.0
C646 C 0.17534 0.41302 0.54024 0.0
C647 C 0.17125 0.41353 0.64197 0.0
C648 C 0.18483 0.41671 0.69552 0.0
C649 C 0.18806 0.41422 0.59362 0.0
C650 C 0.21491 0.41891 0.69998 0.0
C651 C 0.23156 0.41901 0.65202 0.0
H652 H 0.81212 0.27974 0.93724 0.0
H653 H 0.7904 0.19035 0.8597 0.0
H654 H 0.77892 0.16428 0.95176 0.0
H655 H 0.77434 0.16705 0.05462 0.0
H656 H 0.79205 0.25591 0.12907 0.0
H657 H 0.80602 0.28213 0.03794 0.0
C658 C 0.8051 0.25457 0.94032 0.0
C659 C 0.80248 0.23709 0.89162 0.0
C660 C 0.79785 0.23971 0.99297 0.0
C661 C 0.79268 0.20435 0.89649 0.0
C662 C 0.78617 0.1895 0.94913 0.0
C663 C 0.78159 0.19224 0.05083 0.0
C664 C 0.78253 0.20964 0.09875 0.0
C665 C 0.78866 0.20695 0.99773 0.0
C666 C 0.79121 0.24203 0.09305 0.0
C667 C 0.7992 0.25703 0.04088 0.0
H668 H 0.55301 0.7081 0.59975 0.0
H669 H 0.53121 0.777 0.67171 0.0
H670 H 0.53579 0.80088 0.57915 0.0
H671 H 0.54511 0.80132 0.47777 0.0
H672 H 0.56306 0.72961 0.40652 0.0
H673 H 0.56195 0.70836 0.49954 0.0
C674 C 0.54934 0.72845 0.59558 0.0
C675 C 0.54177 0.74073 0.64291 0.0
C676 C 0.55153 0.74164 0.54237 0.0
C677 C 0.53703 0.76703 0.63617 0.0
C678 C 0.53968 0.78069 0.58322 0.0
C679 C 0.54825 0.78072 0.48231 0.0
C680 C 0.55346 0.76669 0.4347 0.0
C681 C 0.54666 0.76799 0.53596 0.0
C682 C 0.55886 0.74085 0.44207 0.0
C683 C 0.55807 0.72856 0.49532 0.0
H684 H 0.1822 0.51799 0.2572 0.0
H685 H 0.21099 0.51284 0.42535 0.0
H686 H 0.18669 0.54374 0.45874 0.0
H687 H 0.16239 0.57714 0.4381 0.0
H688 H 0.13801 0.58502 0.26732 0.0
H689 H 0.15451 0.54759 0.23776 0.0
C690 C 0.18303 0.52352 0.30119 0.0
C691 C 0.19877 0.51354 0.33851 0.0
C692 C 0.16962 0.54177 0.31981 0.0
C693 C 0.19897 0.52018 0.39568 0.0
C694 C 0.18525 0.53804 0.41473 0.0
C695 C 0.16045 0.57054 0.39448 0.0
C696 C 0.14889 0.58424 0.35537 0.0
C697 C 0.17129 0.54974 0.37688 0.0
C698 C 0.14608 0.57469 0.29909 0.0
C699 C 0.15602 0.55351 0.28168 0.0
H700 H 0.67869 0.21642 0.77832 0.0
H701 H 0.65064 0.12596 0.69903 0.0
H702 H 0.59417 0.10733 0.71967 0.0
H703 H 0.55282 0.11945 0.75037 0.0
H704 H 0.58197 0.21307 0.81933 0.0
H705 H 0.63763 0.22699 0.81521 0.0
C706 C 0.66027 0.19232 0.76697 0.0
C707 C 0.66868 0.17254 0.73721 0.0
C708 C 0.62792 0.18231 0.77718 0.0
C709 C 0.64456 0.14159 0.72172 0.0
C710 C 0.61235 0.131 0.73345 0.0
C711 C 0.57125 0.14287 0.76477 0.0
C712 C 0.56272 0.16506 0.78477 0.0
C713 C 0.60368 0.1516 0.75948 0.0
C714 C 0.58722 0.19501 0.80454 0.0
C715 C 0.61937 0.20333 0.80147 0.0
H716 H 0.45933 0.68537 0.35711 0.0
H717 H 0.3822 0.70164 0.31152 0.0
H718 H 0.3428 0.64752 0.34283 0.0
H719 H 0.33049 0.59365 0.3726 0.0
H720 H 0.40754 0.57591 0.41054 0.0
H721 H 0.44693 0.63268 0.39429 0.0
C722 C 0.43389 0.67716 0.35503 0.0
C723 C 0.42357 0.69716 0.3315 0.0
C724 C 0.41146 0.64579 0.37184 0.0
C725 C 0.39059 0.68632 0.32852 0.0
C726 C 0.36811 0.6555 0.34665 0.0
C727 C 0.35587 0.60255 0.37897 0.0
C728 C 0.36628 0.581 0.3933 0.0
C729 C 0.37827 0.63474 0.36696 0.0
C730 C 0.39918 0.59236 0.40007 0.0
C731 C 0.42161 0.62466 0.3903 0.0
H732 H 0.77551 0.37465 0.80025 0.0
H733 H 0.69394 0.30884 0.70191 0.0
H734 H 0.67907 0.35 0.68784 0.0
H735 H 0.6936 0.40646 0.69294 0.0
H736 H 0.77668 0.47348 0.78686 0.0
H737 H 0.78661 0.43015 0.81404 0.0
C738 C 0.75402 0.36923 0.77712 0.0
C739 C 0.7358 0.33902 0.75199 0.0
C740 C 0.74634 0.39336 0.7676 0.0
C741 C 0.70821 0.33208 0.72147 0.0
C742 C 0.69988 0.35561 0.71314 0.0
C743 C 0.71384 0.41151 0.71941 0.0
C744 C 0.73486 0.44312 0.73682 0.0
C745 C 0.71952 0.38666 0.73409 0.0
C746 C 0.76035 0.44929 0.77269 0.0
C747 C 0.76606 0.42457 0.78803 0.0
H748 H 0.29787 0.71275 0.3638 0.0
H749 H 0.29441 0.79879 0.33019 0.0
H750 H 0.35151 0.8318 0.35278 0.0
H751 H 0.40312 0.83566 0.37597 0.0
H752 H 0.40588 0.74885 0.40819 0.0
H753 H 0.34831 0.71673 0.39385 0.0
C754 C 0.30976 0.73872 0.36137 0.0
C755 C 0.29236 0.75344 0.34472 0.0
C756 C 0.34232 0.75737 0.37491 0.0
C757 C 0.30757 0.78709 0.34288 0.0
C758 C 0.34012 0.80589 0.35575 0.0
C759 C 0.39095 0.80977 0.3808 0.0
C760 C 0.40875 0.79478 0.39352 0.0
C761 C 0.35782 0.79125 0.37117 0.0
C762 C 0.39272 0.76116 0.3997 0.0
C763 C 0.35981 0.74265 0.39065 0.0
H764 H 0.57284 0.41399 0.75107 0.0
H765 H 0.66038 0.41401 0.78865 0.0
H766 H 0.63436 0.35685 0.76849 0.0
H767 H 0.58737 0.30712 0.73665 0.0
H768 H 0.49947 0.30615 0.69956 0.0
H769 H 0.52479 0.36322 0.72308 0.0
C770 C 0.586 0.40132 0.75539 0.0
C771 C 0.61834 0.41816 0.77193 0.0
C772 C 0.5709 0.36832 0.74341 0.0
C773 C 0.63524 0.40149 0.77723 0.0
C774 C 0.62049 0.36884 0.76513 0.0
C775 C 0.57388 0.31951 0.73346 0.0
C776 C 0.54177 0.30265 0.71593 0.0
C777 C 0.58848 0.35211 0.74756 0.0
C778 C 0.52424 0.31871 0.71313 0.0
C779 C 0.53871 0.35131 0.72643 0.0
H780 H 0.33662 0.75723 0.7581 0.0
H781 H 0.42039 0.85157 0.76827 0.0
H782 H 0.45471 0.82763 0.77581 0.0
H783 H 0.45976 0.77966 0.7908 0.0
H784 H 0.37505 0.68574 0.78765 0.0
H785 H 0.342 0.70961 0.76611 0.0
C786 C 0.36249 0.77255 0.76016 0.0
C787 C 0.37611 0.80607 0.76191 0.0
C788 C 0.38172 0.75863 0.76686 0.0
C789 C 0.40953 0.82569 0.76636 0.0
C790 C 0.42905 0.81201 0.77107 0.0
C791 C 0.43417 0.76449 0.78432 0.0
C792 C 0.41975 0.73105 0.7912 0.0
C793 C 0.41528 0.77848 0.77311 0.0
C794 C 0.38652 0.71157 0.78339 0.0
C795 C 0.36769 0.72519 0.77083 0.0
H796 H 0.58112 0.40828 0.28614 0.0
H797 H 0.60219 0.41568 0.10996 0.0
H798 H 0.65913 0.4523 0.12969 0.0
H799 H 0.70305 0.47872 0.19788 0.0
H800 H 0.68105 0.47048 0.37371 0.0
H801 H 0.62396 0.43769 0.35308 0.0
C802 C 0.59793 0.41856 0.25177 0.0
C803 C 0.58736 0.40947 0.19657 0.0
C804 C 0.63044 0.4391 0.26347 0.0
C805 C 0.60975 0.42228 0.15281 0.0
C806 C 0.64226 0.44316 0.16409 0.0
C807 C 0.68573 0.47025 0.23159 0.0
C808 C 0.69629 0.47683 0.28733 0.0
C809 C 0.65292 0.45124 0.21939 0.0
C810 C 0.67355 0.46529 0.33059 0.0
C811 C 0.64093 0.44669 0.3188 0.0
H812 H 0.15965 0.57776 0.80001 0.0
H813 H 0.25046 0.58055 0.80388 0.0
H814 H 0.27846 0.63835 0.81951 0.0
H815 H 0.27688 0.6876 0.83919 0.0
H816 H 0.18675 0.68574 0.83323 0.0
H817 H 0.1587 0.62828 0.8113 0.0
C818 C 0.18559 0.59117 0.8036 0.0
C819 C 0.20292 0.5749 0.80062 0.0
C820 C 0.20161 0.62451 0.81283 0.0
C821 C 0.23656 0.59254 0.80514 0.0
C822 C 0.2526 0.62558 0.81467 0.0
C823 C 0.25112 0.6745 0.83291 0.0
C824 C 0.23376 0.69056 0.83847 0.0
C825 C 0.23533 0.64169 0.81972 0.0
C826 C 0.2005 0.67371 0.82913 0.0
C827 C 0.1845 0.6409 0.81681 0.0
H828 H 0.5508 0.23578 0.31793 0.0
H829 H 0.54358 0.25128 0.14282 0.0
H830 H 0.57794 0.22874 0.12049 0.0
H831 H 0.61282 0.20754 0.15206 0.0
H832 H 0.61938 0.19286 0.32828 0.0
H833 H 0.58249 0.21196 0.3488 0.0
C834 C 0.55673 0.23415 0.27489 0.0
C835 C 0.54501 0.24543 0.23215 0.0
C836 C 0.57642 0.2213 0.2626 0.0
C837 C 0.55227 0.24261 0.17641 0.0
C838 C 0.57206 0.22992 0.16372 0.0
C839 C 0.60597 0.20837 0.19484 0.0
C840 C 0.61874 0.19855 0.23845 0.0
C841 C 0.58471 0.21964 0.20661 0.0
C842 C 0.60951 0.19965 0.29373 0.0
C843 C 0.5886 0.21085 0.30566 0.0
H844 H 0.41116 0.58713 0.875 0.0
H845 H 0.39325 0.57233 0.698 0.0
H846 H 0.33608 0.53613 0.71664 0.0
H847 H 0.29065 0.51243 0.78374 0.0
H848 H 0.31064 0.52742 0.96009 0.0
H849 H 0.3678 0.55938 0.94093 0.0
C850 C 0.39519 0.57524 0.84019 0.0
C851 C 0.40682 0.58247 0.78505 0.0
C852 C 0.36255 0.55472 0.85115 0.0
C853 C 0.38509 0.56745 0.74087 0.0
C854 C 0.35236 0.54673 0.75152 0.0
C855 C 0.30759 0.52221 0.81791 0.0
C856 C 0.29628 0.51797 0.8733 0.0
C857 C 0.3407 0.54076 0.80656 0.0
C858 C 0.31857 0.53095 0.91711 0.0
C859 C 0.35132 0.5491 0.90621 0.0
H860 H 0.78873 0.32601 0.36174 0.0
H861 H 0.77202 0.29775 0.18881 0.0
H862 H 0.79046 0.353 0.16091 0.0
H863 H 0.80861 0.40904 0.18598 0.0
H864 H 0.82335 0.43669 0.35942 0.0
H865 H 0.80867 0.38226 0.38657 0.0
C866 C 0.78917 0.33201 0.318 0.0
C867 C 0.77903 0.3078 0.27759 0.0
C868 C 0.79947 0.36379 0.30223 0.0
C869 C 0.78011 0.31595 0.22086 0.0
C870 C 0.79042 0.34754 0.20482 0.0
C871 C 0.80871 0.40312 0.22965 0.0
C872 C 0.81723 0.42693 0.27046 0.0
C873 C 0.79978 0.37159 0.24519 0.0
C874 C 0.81748 0.41899 0.32695 0.0
C875 C 0.80879 0.38777 0.34266 0.0
loop_
_geom_bond_atom_site_label_1
_geom_bond_atom_site_label_2
_geom_bond_distance
_geom_bond_site_symmetry_2
_ccdc_geom_bond_type
C0 C1 1.351 . S
C0 N3 1.368 . S
C0 H5 0.931 . S
C1 C0 1.351 . S
C1 N2 1.373 . S
C1 H29 0.930 . S
N2 C1 1.373 . S
N2 C4 1.340 . S
N3 C0 1.368 . S
N3 C4 1.321 . S
N3 Co6 2.135 . S
C4 N2 1.340 . S
C4 N3 1.321 . S
C4 H28 0.930 . S
H5 C0 0.931 . S
Co6 N3 2.135 . S
Co6 N9 2.121 . S
Co6 O14 2.055 . S
Co6 O17 2.039 . S
Co6 N20 2.140 . S
C7 O8 1.227 . S
C7 O17 1.265 . S
O8 C7 1.227 . S
N9 Co6 2.121 . S
N9 C11 1.375 . S
N9 C12 1.313 . S
C10 C11 1.338 . S
C10 N13 1.377 . S
C10 H30 0.930 . S
C11 N9 1.375 . S
C11 C10 1.338 . S
C11 H15 0.931 . S
C12 N9 1.313 . S
C12 N13 1.344 . S
C12 H16 0.930 . S
N13 C10 1.377 . S
N13 C12 1.344 . S
O14 Co6 2.055 . S
O14 C18 1.253 . S
H15 C11 0.931 . S
H16 C12 0.930 . S
O17 Co6 2.039 . S
O17 C7 1.265 . S
C18 O14 1.253 . S
C18 O19 1.227 . S
O19 C18 1.227 . S
N20 Co6 2.140 . S
N20 C23 1.346 . S
N20 C24 1.345 . S
C21 C22 1.387 . S
C21 C25 1.391 . S
C22 C21 1.387 . S
C22 C23 1.369 . S
C22 H31 0.929 . S
C23 N20 1.346 . S
C23 C22 1.369 . S
C23 H26 0.928 . S
C24 N20 1.345 . S
C24 C25 1.371 . S
C24 H27 0.931 . S
C25 C21 1.391 . S
C25 C24 1.371 . S
C25 H32 0.930 . S
H26 C23 0.928 . S
H27 C24 0.931 . S
H28 C4 0.930 . S
H29 C1 0.930 . S
H30 C10 0.930 . S
H31 C22 0.929 . S
H32 C25 0.930 . S
C33 C34 1.351 . S
C33 N36 1.368 . S
C33 H38 0.931 . S
C34 C33 1.351 . S
C34 N35 1.373 . S
C34 H62 0.930 . S
N35 C34 1.373 . S
N35 C37 1.340 . S
N36 C33 1.368 . S
N36 C37 1.321 . S
N36 Co39 2.135 . S
C37 N35 1.340 . S
C37 N36 1.321 . S
C37 H61 0.930 . S
H38 C33 0.931 . S
Co39 N36 2.135 . S
Co39 N42 2.121 . S
Co39 O47 2.055 . S
Co39 O50 2.039 . S
Co39 N53 2.140 . S
C40 O41 1.227 . S
C40 O50 1.265 . S
O41 C40 1.227 . S
N42 Co39 2.121 . S
N42 C44 1.375 . S
N42 C45 1.313 . S
C43 C44 1.338 . S
C43 N46 1.377 . S
C43 H63 0.930 . S
C44 N42 1.375 . S
C44 C43 1.338 . S
C44 H48 0.931 . S
C45 N42 1.313 . S
C45 N46 1.344 . S
C45 H49 0.930 . S
N46 C43 1.377 . S
N46 C45 1.344 . S
O47 Co39 2.055 . S
O47 C51 1.253 . S
H48 C44 0.931 . S
H49 C45 0.930 . S
O50 Co39 2.039 . S
O50 C40 1.265 . S
C51 O47 1.253 . S
C51 O52 1.227 . S
O52 C51 1.227 . S
N53 Co39 2.140 . S
N53 C56 1.346 . S
N53 C57 1.345 . S
C54 C55 1.387 . S
C54 C58 1.391 . S
C55 C54 1.387 . S
C55 C56 1.369 . S
C55 H64 0.929 . S
C56 N53 1.346 . S
C56 C55 1.369 . S
C56 H59 0.928 . S
C57 N53 1.345 . S
C57 C58 1.371 . S
C57 H60 0.931 . S
C58 C54 1.391 . S
C58 C57 1.371 . S
C58 H65 0.930 . S
H59 C56 0.928 . S
H60 C57 0.931 . S
H61 C37 0.930 . S
H62 C34 0.930 . S
H63 C43 0.930 . S
H64 C55 0.929 . S
H65 C58 0.930 . S
C66 C67 1.351 . S
C66 N69 1.368 . S
C66 H71 0.931 . S
C67 C66 1.351 . S
C67 N68 1.373 . S
C67 H95 0.930 . S
N68 C67 1.373 . S
N68 C70 1.340 . S
N69 C66 1.368 . S
N69 C70 1.321 . S
N69 Co72 2.135 . S
C70 N68 1.340 . S
C70 N69 1.321 . S
C70 H94 0.930 . S
H71 C66 0.931 . S
Co72 N69 2.135 . S
Co72 N75 2.121 . S
Co72 O80 2.055 . S
Co72 O83 2.039 . S
Co72 N86 2.140 . S
C73 O74 1.227 . S
C73 O83 1.265 . S
O74 C73 1.227 . S
N75 Co72 2.121 . S
N75 C77 1.375 . S
N75 C78 1.313 . S
C76 C77 1.338 . S
C76 N79 1.377 . S
C76 H96 0.930 . S
C77 N75 1.375 . S
C77 C76 1.338 . S
C77 H81 0.931 . S
C78 N75 1.313 . S
C78 N79 1.344 . S
C78 H82 0.930 . S
N79 C76 1.377 . S
N79 C78 1.344 . S
O80 Co72 2.055 . S
O80 C84 1.253 . S
H81 C77 0.931 . S
H82 C78 0.930 . S
O83 Co72 2.039 . S
O83 C73 1.265 . S
C84 O80 1.253 . S
C84 O85 1.227 . S
O85 C84 1.227 . S
N86 Co72 2.140 . S
N86 C89 1.346 . S
N86 C90 1.345 . S
C87 C88 1.387 . S
C87 C91 1.391 . S
C88 C87 1.387 . S
C88 C89 1.369 . S
C88 H97 0.929 . S
C89 N86 1.346 . S
C89 C88 1.369 . S
C89 H92 0.928 . S
C90 N86 1.345 . S
C90 C91 1.371 . S
C90 H93 0.931 . S
C91 C87 1.391 . S
C91 C90 1.371 . S
C91 H98 0.930 . S
H92 C89 0.928 . S
H93 C90 0.931 . S
H94 C70 0.930 . S
H95 C67 0.930 . S
H96 C76 0.930 . S
H97 C88 0.929 . S
H98 C91 0.930 . S
C99 C100 1.351 . S
C99 N102 1.368 . S
C99 H104 0.931 . S
C100 C99 1.351 . S
C100 N101 1.373 . S
C100 H128 0.930 . S
N101 C100 1.373 . S
N101 C103 1.340 . S
N102 C99 1.368 . S
N102 C103 1.321 . S
N102 Co105 2.135 . S
C103 N101 1.340 . S
C103 N102 1.321 . S
C103 H127 0.930 . S
H104 C99 0.931 . S
Co105 N102 2.135 . S
Co105 N108 2.121 . S
Co105 O113 2.055 . S
Co105 O116 2.039 . S
Co105 N119 2.140 . S
C106 O107 1.227 . S
C106 O116 1.265 . S
O107 C106 1.227 . S
N108 Co105 2.121 . S
N108 C110 1.375 . S
N108 C111 1.313 . S
C109 C110 1.338 . S
C109 N112 1.377 . S
C109 H129 0.930 . S
C110 N108 1.375 . S
C110 C109 1.338 . S
C110 H114 0.931 . S
C111 N108 1.313 . S
C111 N112 1.344 . S
C111 H115 0.930 . S
N112 C109 1.377 . S
N112 C111 1.344 . S
O113 Co105 2.055 . S
O113 C117 1.253 . S
H114 C110 0.931 . S
H115 C111 0.930 . S
O116 Co105 2.039 . S
O116 C106 1.265 . S
C117 O113 1.253 . S
C117 O118 1.227 . S
O118 C117 1.227 . S
N119 Co105 2.140 . S
N119 C122 1.346 . S
N119 C123 1.345 . S
C120 C121 1.387 . S
C120 C124 1.391 . S
C121 C120 1.387 . S
C121 C122 1.369 . S
C121 H130 0.929 . S
C122 N119 1.346 . S
C122 C121 1.369 . S
C122 H125 0.928 . S
C123 N119 1.345 . S
C123 C124 1.371 . S
C123 H126 0.931 . S
C124 C120 1.391 . S
C124 C123 1.371 . S
C124 H131 0.930 . S
H125 C122 0.928 . S
H126 C123 0.931 . S
H127 C103 0.930 . S
H128 C100 0.930 . S
H129 C109 0.930 . S
H130 C121 0.929 . S
H131 C124 0.930 . S
C132 C133 1.351 . S
C132 N135 1.368 . S
C132 H137 0.931 . S
C133 C132 1.351 . S
C133 N134 1.373 . S
C133 H161 0.930 . S
N134 C133 1.373 . S
N134 C136 1.340 . S
N135 C132 1.368 . S
N135 C136 1.321 . S
N135 Co138 2.135 . S
C136 N134 1.340 . S
C136 N135 1.321 . S
C136 H160 0.930 . S
H137 C132 0.931 . S
Co138 N135 2.135 . S
Co138 N141 2.121 . S
Co138 O146 2.055 . S
Co138 O149 2.039 . S
Co138 N152 2.140 . S
C139 O140 1.227 . S
C139 O149 1.265 . S
O140 C139 1.227 . S
N141 Co138 2.121 . S
N141 C143 1.375 . S
N141 C144 1.313 . S
C142 C143 1.338 . S
C142 N145 1.377 . S
C142 H162 0.930 . S
C143 N141 1.375 . S
C143 C142 1.338 . S
C143 H147 0.931 . S
C144 N141 1.313 . S
C144 N145 1.344 . S
C144 H148 0.930 . S
N145 C142 1.377 . S
N145 C144 1.344 . S
O146 Co138 2.055 . S
O146 C150 1.253 . S
H147 C143 0.931 . S
H148 C144 0.930 . S
O149 Co138 2.039 . S
O149 C139 1.265 . S
C150 O146 1.253 . S
C150 O151 1.227 . S
O151 C150 1.227 . S
N152 Co138 2.140 . S
N152 C155 1.346 . S
N152 C156 1.345 . S
C153 C154 1.387 . S
C153 C157 1.391 . S
C154 C153 1.387 . S
C154 C155 1.369 . S
C154 H163 0.929 . S
C155 N152 1.346 . S
C155 C154 1.369 . S
C155 H158 0.928 . S
C156 N152 1.345 . S
C156 C157 1.371 . S
C156 H159 0.931 . S
C157 C153 1.391 . S
C157 C156 1.371 . S
C157 H164 0.930 . S
H158 C155 0.928 . S
H159 C156 0.931 . S
H160 C136 0.930 . S
H161 C133 0.930 . S
H162 C142 0.930 . S
H163 C154 0.929 . S
H164 C157 0.930 . S
C165 C166 1.351 . S
C165 N168 1.368 . S
C165 H170 0.931 . S
C166 C165 1.351 . S
C166 N167 1.373 . S
C166 H194 0.930 . S
N167 C166 1.373 . S
N167 C169 1.340 . S
N168 C165 1.368 . S
N168 C169 1.321 . S
N168 Co171 2.135 . S
C169 N167 1.340 . S
C169 N168 1.321 . S
C169 H193 0.930 . S
H170 C165 0.931 . S
Co171 N168 2.135 . S
Co171 N174 2.121 . S
Co171 O179 2.055 . S
Co171 O182 2.039 . S
Co171 N185 2.140 . S
C172 O173 1.227 . S
C172 O182 1.265 . S
O173 C172 1.227 . S
N174 Co171 2.121 . S
N174 C176 1.375 . S
N174 C177 1.313 . S
C175 C176 1.338 . S
C175 N178 1.377 . S
C175 H195 0.930 . S
C176 N174 1.375 . S
C176 C175 1.338 . S
C176 H180 0.931 . S
C177 N174 1.313 . S
C177 N178 1.344 . S
C177 H181 0.930 . S
N178 C175 1.377 . S
N178 C177 1.344 . S
O179 Co171 2.055 . S
O179 C183 1.253 . S
H180 C176 0.931 . S
H181 C177 0.930 . S
O182 Co171 2.039 . S
O182 C172 1.265 . S
C183 O179 1.253 . S
C183 O184 1.227 . S
O184 C183 1.227 . S
N185 Co171 2.140 . S
N185 C188 1.346 . S
N185 C189 1.345 . S
C186 C187 1.387 . S
C186 C190 1.391 . S
C187 C186 1.387 . S
C187 C188 1.369 . S
C187 H196 0.929 . S
C188 N185 1.346 . S
C188 C187 1.369 . S
C188 H191 0.928 . S
C189 N185 1.345 . S
C189 C190 1.371 . S
C189 H192 0.931 . S
C190 C186 1.391 . S
C190 C189 1.371 . S
C190 H197 0.930 . S
H191 C188 0.928 . S
H192 C189 0.931 . S
H193 C169 0.930 . S
H194 C166 0.930 . S
H195 C175 0.930 . S
H196 C187 0.929 . S
H197 C190 0.930 . S
C198 C199 1.351 . S
C198 N201 1.368 . S
C198 H203 0.931 . S
C199 C198 1.351 . S
C199 N200 1.373 . S
C199 H227 0.930 . S
N200 C199 1.373 . S
N200 C202 1.340 . S
N201 C198 1.368 . S
N201 C202 1.321 . S
N201 Co204 2.135 . S
C202 N200 1.340 . S
C202 N201 1.321 . S
C202 H226 0.930 . S
H203 C198 0.931 . S
Co204 N201 2.135 . S
Co204 N207 2.121 . S
Co204 O212 2.055 . S
Co204 O215 2.039 . S
Co204 N218 2.140 . S
C205 O206 1.227 . S
C205 O215 1.265 . S
O206 C205 1.227 . S
N207 Co204 2.121 . S
N207 C209 1.375 . S
N207 C210 1.313 . S
C208 C209 1.338 . S
C208 N211 1.377 . S
C208 H228 0.930 . S
C209 N207 1.375 . S
C209 C208 1.338 . S
C209 H213 0.931 . S
C210 N207 1.313 . S
C210 N211 1.344 . S
C210 H214 0.930 . S
N211 C208 1.377 . S
N211 C210 1.344 . S
O212 Co204 2.055 . S
O212 C216 1.253 . S
H213 C209 0.931 . S
H214 C210 0.930 . S
O215 Co204 2.039 . S
O215 C205 1.265 . S
C216 O212 1.253 . S
C216 O217 1.227 . S
O217 C216 1.227 . S
N218 Co204 2.140 . S
N218 C221 1.346 . S
N218 C222 1.345 . S
C219 C220 1.387 . S
C219 C223 1.391 . S
C220 C219 1.387 . S
C220 C221 1.369 . S
C220 H229 0.929 . S
C221 N218 1.346 . S
C221 C220 1.369 . S
C221 H224 0.928 . S
C222 N218 1.345 . S
C222 C223 1.371 . S
C222 H225 0.931 . S
C223 C219 1.391 . S
C223 C222 1.371 . S
C223 H230 0.930 . S
H224 C221 0.928 . S
H225 C222 0.931 . S
H226 C202 0.930 . S
H227 C199 0.930 . S
H228 C208 0.930 . S
H229 C220 0.929 . S
H230 C223 0.930 . S
C231 C232 1.351 . S
C231 N234 1.368 . S
C231 H236 0.931 . S
C232 C231 1.351 . S
C232 N233 1.373 . S
C232 H260 0.930 . S
N233 C232 1.373 . S
N233 C235 1.340 . S
N234 C231 1.368 . S
N234 C235 1.321 . S
N234 Co237 2.135 . S
C235 N233 1.340 . S
C235 N234 1.321 . S
C235 H259 0.930 . S
H236 C231 0.931 . S
Co237 N234 2.135 . S
Co237 N240 2.121 . S
Co237 O245 2.055 . S
Co237 O248 2.039 . S
Co237 N251 2.140 . S
C238 O239 1.227 . S
C238 O248 1.265 . S
O239 C238 1.227 . S
N240 Co237 2.121 . S
N240 C242 1.375 . S
N240 C243 1.313 . S
C241 C242 1.338 . S
C241 N244 1.377 . S
C241 H261 0.930 . S
C242 N240 1.375 . S
C242 C241 1.338 . S
C242 H246 0.931 . S
C243 N240 1.313 . S
C243 N244 1.344 . S
C243 H247 0.930 . S
N244 C241 1.377 . S
N244 C243 1.344 . S
O245 Co237 2.055 . S
O245 C249 1.253 . S
H246 C242 0.931 . S
H247 C243 0.930 . S
O248 Co237 2.039 . S
O248 C238 1.265 . S
C249 O245 1.253 . S
C249 O250 1.227 . S
O250 C249 1.227 . S
N251 Co237 2.140 . S
N251 C254 1.346 . S
N251 C255 1.345 . S
C252 C253 1.387 . S
C252 C256 1.391 . S
C253 C252 1.387 . S
C253 C254 1.369 . S
C253 H262 0.929 . S
C254 N251 1.346 . S
C254 C253 1.369 . S
C254 H257 0.928 . S
C255 N251 1.345 . S
C255 C256 1.371 . S
C255 H258 0.931 . S
C256 C252 1.391 . S
C256 C255 1.371 . S
C256 H263 0.930 . S
H257 C254 0.928 . S
H258 C255 0.931 . S
H259 C235 0.930 . S
H260 C232 0.930 . S
H261 C241 0.930 . S
H262 C253 0.929 . S
H263 C256 0.930 . S
C264 C265 1.351 . S
C264 N267 1.368 . S
C264 H269 0.931 . S
C265 C264 1.351 . S
C265 N266 1.373 . S
C265 H293 0.930 . S
N266 C265 1.373 . S
N266 C268 1.340 . S
N267 C264 1.368 . S
N267 C268 1.321 . S
N267 Co270 2.135 . S
C268 N266 1.340 . S
C268 N267 1.321 . S
C268 H292 0.930 . S
H269 C264 0.931 . S
Co270 N267 2.135 . S
Co270 N273 2.121 . S
Co270 O278 2.055 . S
Co270 O281 2.039 . S
Co270 N284 2.140 . S
C271 O272 1.227 . S
C271 O281 1.265 . S
O272 C271 1.227 . S
N273 Co270 2.121 . S
N273 C275 1.375 . S
N273 C276 1.313 . S
C274 C275 1.338 . S
C274 N277 1.377 . S
C274 H294 0.930 . S
C275 N273 1.375 . S
C275 C274 1.338 . S
C275 H279 0.931 . S
C276 N273 1.313 . S
C276 N277 1.344 . S
C276 H280 0.930 . S
N277 C274 1.377 . S
N277 C276 1.344 . S
O278 Co270 2.055 . S
O278 C282 1.253 . S
H279 C275 0.931 . S
H280 C276 0.930 . S
O281 Co270 2.039 . S
O281 C271 1.265 . S
C282 O278 1.253 . S
C282 O283 1.227 . S
O283 C282 1.227 . S
N284 Co270 2.140 . S
N284 C287 1.346 . S
N284 C288 1.345 . S
C285 C286 1.387 . S
C285 C289 1.391 . S
C286 C285 1.387 . S
C286 C287 1.369 . S
C286 H295 0.929 . S
C287 N284 1.346 . S
C287 C286 1.369 . S
C287 H290 0.928 . S
C288 N284 1.345 . S
C288 C289 1.371 . S
C288 H291 0.931 . S
C289 C285 1.391 . S
C289 C288 1.371 . S
C289 H296 0.930 . S
H290 C287 0.928 . S
H291 C288 0.931 . S
H292 C268 0.930 . S
H293 C265 0.930 . S
H294 C274 0.930 . S
H295 C286 0.929 . S
H296 C289 0.930 . S
C297 C298 1.351 . S
C297 N300 1.368 . S
C297 H302 0.931 . S
C298 C297 1.351 . S
C298 N299 1.373 . S
C298 H326 0.930 . S
N299 C298 1.373 . S
N299 C301 1.340 . S
N300 C297 1.368 . S
N300 C301 1.321 . S
N300 Co303 2.135 . S
C301 N299 1.340 . S
C301 N300 1.321 . S
C301 H325 0.930 . S
H302 C297 0.931 . S
Co303 N300 2.135 . S
Co303 N306 2.121 . S
Co303 O311 2.055 . S
Co303 O314 2.039 . S
Co303 N317 2.140 . S
C304 O305 1.227 . S
C304 O314 1.265 . S
O305 C304 1.227 . S
N306 Co303 2.121 . S
N306 C308 1.375 . S
N306 C309 1.313 . S
C307 C308 1.338 . S
C307 N310 1.377 . S
C307 H327 0.930 . S
C308 N306 1.375 . S
C308 C307 1.338 . S
C308 H312 0.931 . S
C309 N306 1.313 . S
C309 N310 1.344 . S
C309 H313 0.930 . S
N310 C307 1.377 . S
N310 C309 1.344 . S
O311 Co303 2.055 . S
O311 C315 1.253 . S
H312 C308 0.931 . S
H313 C309 0.930 . S
O314 Co303 2.039 . S
O314 C304 1.265 . S
C315 O311 1.253 . S
C315 O316 1.227 . S
O316 C315 1.227 . S
N317 Co303 2.140 . S
N317 C320 1.346 . S
N317 C321 1.345 . S
C318 C319 1.387 . S
C318 C322 1.391 . S
C319 C318 1.387 . S
C319 C320 1.369 . S
C319 H328 0.929 . S
C320 N317 1.346 . S
C320 C319 1.369 . S
C320 H323 0.928 . S
C321 N317 1.345 . S
C321 C322 1.371 . S
C321 H324 0.931 . S
C322 C318 1.391 . S
C322 C321 1.371 . S
C322 H329 0.930 . S
H323 C320 0.928 . S
H324 C321 0.931 . S
H325 C301 0.930 . S
H326 C298 0.930 . S
H327 C307 0.930 . S
H328 C319 0.929 . S
H329 C322 0.930 . S
C330 C331 1.351 . S
C330 N333 1.368 . S
C330 H335 0.931 . S
C331 C330 1.351 . S
C331 N332 1.373 . S
C331 H359 0.930 . S
N332 C331 1.373 . S
N332 C334 1.340 . S
N333 C330 1.368 . S
N333 C334 1.321 . S
N333 Co336 2.135 . S
C334 N332 1.340 . S
C334 N333 1.321 . S
C334 H358 0.930 . S
H335 C330 0.931 . S
Co336 N333 2.135 . S
Co336 N339 2.121 . S
Co336 O344 2.055 . S
Co336 O347 2.039 . S
Co336 N350 2.140 . S
C337 O338 1.227 . S
C337 O347 1.265 . S
O338 C337 1.227 . S
N339 Co336 2.121 . S
N339 C341 1.375 . S
N339 C342 1.313 . S
C340 C341 1.338 . S
C340 N343 1.377 . S
C340 H360 0.930 . S
C341 N339 1.375 . S
C341 C340 1.338 . S
C341 H345 0.931 . S
C342 N339 1.313 . S
C342 N343 1.344 . S
C342 H346 0.930 . S
N343 C340 1.377 . S
N343 C342 1.344 . S
O344 Co336 2.055 . S
O344 C348 1.253 . S
H345 C341 0.931 . S
H346 C342 0.930 . S
O347 Co336 2.039 . S
O347 C337 1.265 . S
C348 O344 1.253 . S
C348 O349 1.227 . S
O349 C348 1.227 . S
N350 Co336 2.140 . S
N350 C353 1.346 . S
N350 C354 1.345 . S
C351 C352 1.387 . S
C351 C355 1.391 . S
C352 C351 1.387 . S
C352 C353 1.369 . S
C352 H361 0.929 . S
C353 N350 1.346 . S
C353 C352 1.369 . S
C353 H356 0.928 . S
C354 N350 1.345 . S
C354 C355 1.371 . S
C354 H357 0.931 . S
C355 C351 1.391 . S
C355 C354 1.371 . S
C355 H362 0.930 . S
H356 C353 0.928 . S
H357 C354 0.931 . S
H358 C334 0.930 . S
H359 C331 0.930 . S
H360 C340 0.930 . S
H361 C352 0.929 . S
H362 C355 0.930 . S
C363 C364 1.351 . S
C363 N366 1.368 . S
C363 H368 0.931 . S
C364 C363 1.351 . S
C364 N365 1.373 . S
C364 H392 0.930 . S
N365 C364 1.373 . S
N365 C367 1.340 . S
N366 C363 1.368 . S
N366 C367 1.321 . S
N366 Co369 2.135 . S
C367 N365 1.340 . S
C367 N366 1.321 . S
C367 H391 0.930 . S
H368 C363 0.931 . S
Co369 N366 2.135 . S
Co369 N372 2.121 . S
Co369 O377 2.055 . S
Co369 O380 2.039 . S
Co369 N383 2.140 . S
C370 O371 1.227 . S
C370 O380 1.265 . S
O371 C370 1.227 . S
N372 Co369 2.121 . S
N372 C374 1.375 . S
N372 C375 1.313 . S
C373 C374 1.338 . S
C373 N376 1.377 . S
C373 H393 0.930 . S
C374 N372 1.375 . S
C374 C373 1.338 . S
C374 H378 0.931 . S
C375 N372 1.313 . S
C375 N376 1.344 . S
C375 H379 0.930 . S
N376 C373 1.377 . S
N376 C375 1.344 . S
O377 Co369 2.055 . S
O377 C381 1.253 . S
H378 C374 0.931 . S
H379 C375 0.930 . S
O380 Co369 2.039 . S
O380 C370 1.265 . S
C381 O377 1.253 . S
C381 O382 1.227 . S
O382 C381 1.227 . S
N383 Co369 2.140 . S
N383 C386 1.346 . S
N383 C387 1.345 . S
C384 C385 1.387 . S
C384 C388 1.391 . S
C385 C384 1.387 . S
C385 C386 1.369 . S
C385 H394 0.929 . S
C386 N383 1.346 . S
C386 C385 1.369 . S
C386 H389 0.928 . S
C387 N383 1.345 . S
C387 C388 1.371 . S
C387 H390 0.931 . S
C388 C384 1.391 . S
C388 C387 1.371 . S
C388 H395 0.930 . S
H389 C386 0.928 . S
H390 C387 0.931 . S
H391 C367 0.930 . S
H392 C364 0.930 . S
H393 C373 0.930 . S
H394 C385 0.929 . S
H395 C388 0.930 . S
H396 C402 0.930 . S
H397 C405 0.930 . S
H398 C406 0.930 . S
H399 C407 0.930 . S
H400 C410 0.930 . S
H401 C411 0.930 . S
C402 H396 0.930 . S
C402 C403 1.355 . S
C402 C404 1.415 . S
C403 C402 1.355 . S
C403 C405 1.419 . S
C404 C402 1.415 . S
C404 C409 1.425 . S
C404 C411 1.409 . S
C405 H397 0.930 . S
C405 C403 1.419 . S
C405 C406 1.362 . S
C406 H398 0.930 . S
C406 C405 1.362 . S
C406 C409 1.409 . S
C407 H399 0.930 . S
C407 C408 1.355 . S
C407 C409 1.415 . S
C408 C407 1.355 . S
C408 C410 1.419 . S
C409 C404 1.425 . S
C409 C406 1.409 . S
C409 C407 1.415 . S
C410 H400 0.930 . S
C410 C408 1.419 . S
C410 C411 1.362 . S
C411 H401 0.930 . S
C411 C404 1.409 . S
C411 C410 1.362 . S
H412 C418 0.930 . S
H413 C421 0.930 . S
H414 C422 0.930 . S
H415 C423 0.930 . S
H416 C426 0.930 . S
H417 C427 0.930 . S
C418 H412 0.930 . S
C418 C419 1.355 . S
C418 C420 1.415 . S
C419 C418 1.355 . S
C419 C421 1.419 . S
C420 C418 1.415 . S
C420 C425 1.425 1_655 S
C420 C427 1.409 1_655 S
C421 H413 0.930 . S
C421 C419 1.419 . S
C421 C422 1.362 . S
C422 H414 0.930 . S
C422 C421 1.362 . S
C422 C425 1.409 1_655 S
C423 H415 0.930 . S
C423 C424 1.355 . S
C423 C425 1.415 . S
C424 C423 1.355 . S
C424 C426 1.419 . S
C425 C420 1.425 1_455 S
C425 C422 1.409 1_455 S
C425 C423 1.415 . S
C426 H416 0.930 . S
C426 C424 1.419 . S
C426 C427 1.362 . S
C427 H417 0.930 . S
C427 C420 1.409 1_455 S
C427 C426 1.362 . S
H428 C434 0.930 . S
H429 C437 0.930 . S
H430 C438 0.930 . S
H431 C439 0.930 . S
H432 C442 0.930 . S
H433 C443 0.930 . S
C434 H428 0.930 . S
C434 C435 1.355 . S
C434 C436 1.415 . S
C435 C434 1.355 . S
C435 C437 1.419 . S
C436 C434 1.415 . S
C436 C441 1.425 1_545 S
C436 C443 1.409 1_545 S
C437 H429 0.930 . S
C437 C435 1.419 . S
C437 C438 1.362 . S
C438 H430 0.930 . S
C438 C437 1.362 . S
C438 C441 1.409 1_545 S
C439 H431 0.930 . S
C439 C440 1.355 . S
C439 C441 1.415 . S
C440 C439 1.355 . S
C440 C442 1.419 . S
C441 C436 1.425 1_565 S
C441 C438 1.409 1_565 S
C441 C439 1.415 . S
C442 H432 0.930 . S
C442 C440 1.419 . S
C442 C443 1.362 . S
C443 H433 0.930 . S
C443 C436 1.409 1_565 S
C443 C442 1.362 . S
H444 C450 0.930 . S
H445 C453 0.930 . S
H446 C454 0.930 . S
H447 C455 0.930 . S
H448 C458 0.930 . S
H449 C459 0.930 . S
C450 H444 0.930 . S
C450 C451 1.355 . S
C450 C452 1.415 . S
C451 C450 1.355 . S
C451 C453 1.419 . S
C452 C450 1.415 . S
C452 C457 1.425 . S
C452 C459 1.409 . S
C453 H445 0.930 . S
C453 C451 1.419 . S
C453 C454 1.362 . S
C454 H446 0.930 . S
C454 C453 1.362 . S
C454 C457 1.409 . S
C455 H447 0.930 . S
C455 C456 1.355 . S
C455 C457 1.415 . S
C456 C455 1.355 . S
C456 C458 1.419 . S
C457 C452 1.425 . S
C457 C454 1.409 . S
C457 C455 1.415 . S
C458 H448 0.930 . S
C458 C456 1.419 . S
C458 C459 1.362 . S
C459 H449 0.930 . S
C459 C452 1.409 . S
C459 C458 1.362 . S
H460 C466 0.930 . S
H461 C469 0.930 . S
H462 C470 0.930 . S
H463 C471 0.930 . S
H464 C474 0.930 . S
H465 C475 0.930 . S
C466 H460 0.930 . S
C466 C467 1.355 . S
C466 C468 1.415 . S
C467 C466 1.355 . S
C467 C469 1.419 . S
C468 C466 1.415 . S
C468 C473 1.425 1_455 S
C468 C475 1.409 1_455 S
C469 H461 0.930 . S
C469 C467 1.419 . S
C469 C470 1.362 . S
C470 H462 0.930 . S
C470 C469 1.362 . S
C470 C473 1.409 1_455 S
C471 H463 0.930 . S
C471 C472 1.355 . S
C471 C473 1.415 . S
C472 C471 1.355 . S
C472 C474 1.419 . S
C473 C468 1.425 1_655 S
C473 C470 1.409 1_655 S
C473 C471 1.415 . S
C474 H464 0.930 . S
C474 C472 1.419 . S
C474 C475 1.362 . S
C475 H465 0.930 . S
C475 C468 1.409 1_655 S
C475 C474 1.362 . S
H476 C482 0.930 . S
H477 C485 0.930 . S
H478 C486 0.930 . S
H479 C487 0.930 . S
H480 C490 0.930 . S
H481 C491 0.930 . S
C482 H476 0.930 . S
C482 C483 1.355 . S
C482 C484 1.415 . S
C483 C482 1.355 . S
C483 C485 1.419 . S
C484 C482 1.415 . S
C484 C489 1.425 1_565 S
C484 C491 1.409 1_565 S
C485 H477 0.930 . S
C485 C483 1.419 . S
C485 C486 1.362 . S
C486 H478 0.930 . S
C486 C485 1.362 . S
C486 C489 1.409 1_565 S
C487 H479 0.930 . S
C487 C488 1.355 . S
C487 C489 1.415 . S
C488 C487 1.355 . S
C488 C490 1.419 . S
C489 C484 1.425 1_545 S
C489 C486 1.409 1_545 S
C489 C487 1.415 . S
C490 H480 0.930 . S
C490 C488 1.419 . S
C490 C491 1.362 . S
C491 H481 0.930 . S
C491 C484 1.409 1_545 S
C491 C490 1.362 . S
H492 C498 0.930 . S
H493 C501 0.930 . S
H494 C502 0.930 . S
H495 C503 0.930 . S
H496 C506 0.930 . S
H497 C507 0.930 . S
C498 H492 0.930 . S
C498 C499 1.355 . S
C498 C500 1.415 . S
C499 C498 1.355 . S
C499 C501 1.419 . S
C500 C498 1.415 . S
C500 C505 1.425 1_556 S
C500 C507 1.409 1_556 S
C501 H493 0.930 . S
C501 C499 1.419 . S
C501 C502 1.362 . S
C502 H494 0.930 . S
C502 C501 1.362 . S
C502 C505 1.409 1_556 S
C503 H495 0.930 . S
C503 C504 1.355 . S
C503 C505 1.415 . S
C504 C503 1.355 . S
C504 C506 1.419 . S
C505 C500 1.425 1_554 S
C505 C502 1.409 1_554 S
C505 C503 1.415 . S
C506 H496 0.930 . S
C506 C504 1.419 . S
C506 C507 1.362 . S
C507 H497 0.930 . S
C507 C500 1.409 1_554 S
C507 C506 1.362 . S
H508 C514 0.930 . S
H509 C517 0.930 . S
H510 C518 0.930 . S
H511 C519 0.930 . S
H512 C522 0.930 . S
H513 C523 0.930 . S
C514 H508 0.930 . S
C514 C515 1.355 . S
C514 C516 1.415 . S
C515 C514 1.355 . S
C515 C517 1.419 . S
C516 C514 1.415 . S
C516 C521 1.425 . S
C516 C523 1.409 . S
C517 H509 0.930 . S
C517 C515 1.419 . S
C517 C518 1.362 . S
C518 H510 0.930 . S
C518 C517 1.362 . S
C518 C521 1.409 . S
C519 H511 0.930 . S
C519 C520 1.355 . S
C519 C521 1.415 . S
C520 C519 1.355 . S
C520 C522 1.419 . S
C521 C516 1.425 . S
C521 C518 1.409 . S
C521 C519 1.415 . S
C522 H512 0.930 . S
C522 C520 1.419 . S
C522 C523 1.362 . S
C523 H513 0.930 . S
C523 C516 1.409 . S
C523 C522 1.362 . S
H524 C530 0.930 . S
H525 C533 0.930 . S
H526 C534 0.930 . S
H527 C535 0.930 . S
H528 C538 0.930 . S
H529 C539 0.930 . S
C530 H524 0.930 . S
C530 C531 1.355 . S
C530 C532 1.415 . S
C531 C530 1.355 . S
C531 C533 1.419 . S
C532 C530 1.415 . S
C532 C537 1.425 1_554 S
C532 C539 1.409 1_554 S
C533 H525 0.930 . S
C533 C531 1.419 . S
C533 C534 1.362 . S
C534 H526 0.930 . S
C534 C533 1.362 . S
C534 C537 1.409 1_554 S
C535 H527 0.930 . S
C535 C536 1.355 . S
C535 C537 1.415 . S
C536 C535 1.355 . S
C536 C538 1.419 . S
C537 C532 1.425 1_556 S
C537 C534 1.409 1_556 S
C537 C535 1.415 . S
C538 H528 0.930 . S
C538 C536 1.419 . S
C538 C539 1.362 . S
C539 H529 0.930 . S
C539 C532 1.409 1_556 S
C539 C538 1.362 . S
H540 C546 0.930 . S
H541 C549 0.930 . S
H542 C550 0.930 . S
H543 C551 0.930 . S
H544 C554 0.930 . S
H545 C555 0.930 . S
C546 H540 0.930 . S
C546 C547 1.355 . S
C546 C548 1.415 . S
C547 C546 1.355 . S
C547 C549 1.419 . S
C548 C546 1.415 . S
C548 C553 1.425 . S
C548 C555 1.409 . S
C549 H541 0.930 . S
C549 C547 1.419 . S
C549 C550 1.362 . S
C550 H542 0.930 . S
C550 C549 1.362 . S
C550 C553 1.409 . S
C551 H543 0.930 . S
C551 C552 1.355 . S
C551 C553 1.415 . S
C552 C551 1.355 . S
C552 C554 1.419 . S
C553 C548 1.425 . S
C553 C550 1.409 . S
C553 C551 1.415 . S
C554 H544 0.930 . S
C554 C552 1.419 . S
C554 C555 1.362 . S
C555 H545 0.930 . S
C555 C548 1.409 . S
C555 C554 1.362 . S
H556 C562 0.930 . S
H557 C565 0.930 . S
H558 C566 0.930 . S
H559 C567 0.930 . S
H560 C570 0.930 . S
H561 C571 0.930 . S
C562 H556 0.930 . S
C562 C563 1.355 . S
C562 C564 1.415 . S
C563 C562 1.355 . S
C563 C565 1.419 . S
C564 C562 1.415 . S
C564 C569 1.425 1_556 S
C564 C571 1.409 1_556 S
C565 H557 0.930 . S
C565 C563 1.419 . S
C565 C566 1.362 . S
C566 H558 0.930 . S
C566 C565 1.362 . S
C566 C569 1.409 1_556 S
C567 H559 0.930 . S
C567 C568 1.355 . S
C567 C569 1.415 . S
C568 C567 1.355 . S
C568 C570 1.419 . S
C569 C564 1.425 1_554 S
C569 C566 1.409 1_554 S
C569 C567 1.415 . S
C570 H560 0.930 . S
C570 C568 1.419 . S
C570 C571 1.362 . S
C571 H561 0.930 . S
C571 C564 1.409 1_554 S
C571 C570 1.362 . S
H572 C578 0.930 . S
H573 C581 0.930 . S
H574 C582 0.930 . S
H575 C583 0.930 . S
H576 C586 0.930 . S
H577 C587 0.930 . S
C578 H572 0.930 . S
C578 C579 1.355 . S
C578 C580 1.415 . S
C579 C578 1.355 . S
C579 C581 1.419 . S
C580 C578 1.415 . S
C580 C585 1.425 . S
C580 C587 1.409 . S
C581 H573 0.930 . S
C581 C579 1.419 . S
C581 C582 1.362 . S
C582 H574 0.930 . S
C582 C581 1.362 . S
C582 C585 1.409 . S
C583 H575 0.930 . S
C583 C584 1.355 . S
C583 C585 1.415 . S
C584 C583 1.355 . S
C584 C586 1.419 . S
C585 C580 1.425 . S
C585 C582 1.409 . S
C585 C583 1.415 . S
C586 H576 0.930 . S
C586 C584 1.419 . S
C586 C587 1.362 . S
C587 H577 0.930 . S
C587 C580 1.409 . S
C587 C586 1.362 . S
H588 C594 0.930 . S
H589 C597 0.930 . S
H590 C598 0.930 . S
H591 C599 0.930 . S
H592 C602 0.930 . S
H593 C603 0.930 . S
C594 H588 0.930 . S
C594 C595 1.355 . S
C594 C596 1.415 . S
C595 C594 1.355 . S
C595 C597 1.419 . S
C596 C594 1.415 . S
C596 C601 1.425 1_554 S
C596 C603 1.409 1_554 S
C597 H589 0.930 . S
C597 C595 1.419 . S
C597 C598 1.362 . S
C598 H590 0.930 . S
C598 C597 1.362 . S
C598 C601 1.409 1_554 S
C599 H591 0.930 . S
C599 C600 1.355 . S
C599 C601 1.415 . S
C600 C599 1.355 . S
C600 C602 1.419 . S
C601 C596 1.425 1_556 S
C601 C598 1.409 1_556 S
C601 C599 1.415 . S
C602 H592 0.930 . S
C602 C600 1.419 . S
C602 C603 1.362 . S
C603 H593 0.930 . S
C603 C596 1.409 1_556 S
C603 C602 1.362 . S
H604 C610 0.930 . S
H605 C613 0.930 . S
H606 C614 0.930 . S
H607 C615 0.930 . S
H608 C618 0.930 . S
H609 C619 0.930 . S
C610 H604 0.930 . S
C610 C611 1.355 . S
C610 C612 1.415 . S
C611 C610 1.355 . S
C611 C613 1.419 . S
C612 C610 1.415 . S
C612 C617 1.425 . S
C612 C619 1.409 . S
C613 H605 0.930 . S
C613 C611 1.419 . S
C613 C614 1.362 . S
C614 H606 0.930 . S
C614 C613 1.362 . S
C614 C617 1.409 . S
C615 H607 0.930 . S
C615 C616 1.355 . S
C615 C617 1.415 . S
C616 C615 1.355 . S
C616 C618 1.419 . S
C617 C612 1.425 . S
C617 C614 1.409 . S
C617 C615 1.415 . S
C618 H608 0.930 . S
C618 C616 1.419 . S
C618 C619 1.362 . S
C619 H609 0.930 . S
C619 C612 1.409 . S
C619 C618 1.362 . S
H620 C626 0.930 . S
H621 C629 0.930 . S
H622 C630 0.930 . S
H623 C631 0.930 . S
H624 C634 0.930 . S
H625 C635 0.930 . S
C626 H620 0.930 . S
C626 C627 1.355 . S
C626 C628 1.415 . S
C627 C626 1.355 . S
C627 C629 1.419 . S
C628 C626 1.415 . S
C628 C633 1.425 1_556 S
C628 C635 1.409 1_556 S
C629 H621 0.930 . S
C629 C627 1.419 . S
C629 C630 1.362 . S
C630 H622 0.930 . S
C630 C629 1.362 . S
C630 C633 1.409 1_556 S
C631 H623 0.930 . S
C631 C632 1.355 . S
C631 C633 1.415 . S
C632 C631 1.355 . S
C632 C634 1.419 . S
C633 C628 1.425 1_554 S
C633 C630 1.409 1_554 S
C633 C631 1.415 . S
C634 H624 0.930 . S
C634 C632 1.419 . S
C634 C635 1.362 . S
C635 H625 0.930 . S
C635 C628 1.409 1_554 S
C635 C634 1.362 . S
H636 C642 0.930 . S
H637 C645 0.930 . S
H638 C646 0.930 . S
H639 C647 0.930 . S
H640 C650 0.930 . S
H641 C651 0.930 . S
C642 H636 0.930 . S
C642 C643 1.355 . S
C642 C644 1.415 . S
C643 C642 1.355 . S
C643 C645 1.419 . S
C644 C642 1.415 . S
C644 C649 1.425 . S
C644 C651 1.409 . S
C645 H637 0.930 . S
C645 C643 1.419 . S
C645 C646 1.362 . S
C646 H638 0.930 . S
C646 C645 1.362 . S
C646 C649 1.409 . S
C647 H639 0.930 . S
C647 C648 1.355 . S
C647 C649 1.415 . S
C648 C647 1.355 . S
C648 C650 1.419 . S
C649 C644 1.425 . S
C649 C646 1.409 . S
C649 C647 1.415 . S
C650 H640 0.930 . S
C650 C648 1.419 . S
C650 C651 1.362 . S
C651 H641 0.930 . S
C651 C644 1.409 . S
C651 C650 1.362 . S
H652 C658 0.930 . S
H653 C661 0.930 . S
H654 C662 0.930 . S
H655 C663 0.930 . S
H656 C666 0.930 . S
H657 C667 0.930 . S
C658 H652 0.930 . S
C658 C659 1.355 . S
C658 C660 1.415 . S
C659 C658 1.355 . S
C659 C661 1.419 . S
C660 C658 1.415 . S
C660 C665 1.425 1_556 S
C660 C667 1.409 1_556 S
C661 H653 0.930 . S
C661 C659 1.419 . S
C661 C662 1.362 . S
C662 H654 0.930 . S
C662 C661 1.362 . S
C662 C665 1.409 1_556 S
C663 H655 0.930 . S
C663 C664 1.355 . S
C663 C665 1.415 . S
C664 C663 1.355 . S
C664 C666 1.419 . S
C665 C660 1.425 1_554 S
C665 C662 1.409 1_554 S
C665 C663 1.415 . S
C666 H656 0.930 . S
C666 C664 1.419 . S
C666 C667 1.362 . S
C667 H657 0.930 . S
C667 C660 1.409 1_554 S
C667 C666 1.362 . S
H668 C674 0.930 . S
H669 C677 0.930 . S
H670 C678 0.930 . S
H671 C679 0.930 . S
H672 C682 0.930 . S
H673 C683 0.930 . S
C674 H668 0.930 . S
C674 C675 1.355 . S
C674 C676 1.415 . S
C675 C674 1.355 . S
C675 C677 1.419 . S
C676 C674 1.415 . S
C676 C681 1.425 . S
C676 C683 1.409 . S
C677 H669 0.930 . S
C677 C675 1.419 . S
C677 C678 1.362 . S
C678 H670 0.930 . S
C678 C677 1.362 . S
C678 C681 1.409 . S
C679 H671 0.930 . S
C679 C680 1.355 . S
C679 C681 1.415 . S
C680 C679 1.355 . S
C680 C682 1.419 . S
C681 C676 1.425 . S
C681 C678 1.409 . S
C681 C679 1.415 . S
C682 H672 0.930 . S
C682 C680 1.419 . S
C682 C683 1.362 . S
C683 H673 0.930 . S
C683 C676 1.409 . S
C683 C682 1.362 . S
H684 C690 0.930 . S
H685 C693 0.930 . S
H686 C694 0.930 . S
H687 C695 0.930 . S
H688 C698 0.930 . S
H689 C699 0.930 . S
C690 H684 0.930 . S
C690 C691 1.355 . S
C690 C692 1.415 . S
C691 C690 1.355 . S
C691 C693 1.419 . S
C692 C690 1.415 . S
C692 C697 1.425 . S
C692 C699 1.409 . S
C693 H685 0.930 . S
C693 C691 1.419 . S
C693 C694 1.362 . S
C694 H686 0.930 . S
C694 C693 1.362 . S
C694 C697 1.409 . S
C695 H687 0.930 . S
C695 C696 1.355 . S
C695 C697 1.415 . S
C696 C695 1.355 . S
C696 C698 1.419 . S
C697 C692 1.425 . S
C697 C694 1.409 . S
C697 C695 1.415 . S
C698 H688 0.930 . S
C698 C696 1.419 . S
C698 C699 1.362 . S
C699 H689 0.930 . S
C699 C692 1.409 . S
C699 C698 1.362 . S
H700 C706 0.930 . S
H701 C709 0.930 . S
H702 C710 0.930 . S
H703 C711 0.930 . S
H704 C714 0.930 . S
H705 C715 0.930 . S
C706 H700 0.930 . S
C706 C707 1.355 . S
C706 C708 1.415 . S
C707 C706 1.355 . S
C707 C709 1.419 . S
C708 C706 1.415 . S
C708 C713 1.425 . S
C708 C715 1.409 . S
C709 H701 0.930 . S
C709 C707 1.419 . S
C709 C710 1.362 . S
C710 H702 0.930 . S
C710 C709 1.362 . S
C710 C713 1.409 . S
C711 H703 0.930 . S
C711 C712 1.355 . S
C711 C713 1.415 . S
C712 C711 1.355 . S
C712 C714 1.419 . S
C713 C708 1.425 . S
C713 C710 1.409 . S
C713 C711 1.415 . S
C714 H704 0.930 . S
C714 C712 1.419 . S
C714 C715 1.362 . S
C715 H705 0.930 . S
C715 C708 1.409 . S
C715 C714 1.362 . S
H716 C722 0.930 . S
H717 C725 0.930 . S
H718 C726 0.930 . S
H719 C727 0.930 . S
H720 C730 0.930 . S
H721 C731 0.930 . S
C722 H716 0.930 . S
C722 C723 1.355 . S
C722 C724 1.415 . S
C723 C722 1.355 . S
C723 C725 1.419 . S
C724 C722 1.415 . S
C724 C729 1.425 . S
C724 C731 1.409 . S
C725 H717 0.930 . S
C725 C723 1.419 . S
C725 C726 1.362 . S
C726 H718 0.930 . S
C726 C725 1.362 . S
C726 C729 1.409 . S
C727 H719 0.930 . S
C727 C728 1.355 . S
C727 C729 1.415 . S
C728 C727 1.355 . S
C728 C730 1.419 . S
C729 C724 1.425 . S
C729 C726 1.409 . S
C729 C727 1.415 . S
C730 H720 0.930 . S
C730 C728 1.419 . S
C730 C731 1.362 . S
C731 H721 0.930 . S
C731 C724 1.409 . S
C731 C730 1.362 . S
H732 C738 0.930 . S
H733 C741 0.930 . S
H734 C742 0.930 . S
H735 C743 0.930 . S
H736 C746 0.930 . S
H737 C747 0.930 . S
C738 H732 0.930 . S
C738 C739 1.355 . S
C738 C740 1.415 . S
C739 C738 1.355 . S
C739 C741 1.419 . S
C740 C738 1.415 . S
C740 C745 1.425 . S
C740 C747 1.409 . S
C741 H733 0.930 . S
C741 C739 1.419 . S
C741 C742 1.362 . S
C742 H734 0.930 . S
C742 C741 1.362 . S
C742 C745 1.409 . S
C743 H735 0.930 . S
C743 C744 1.355 . S
C743 C745 1.415 . S
C744 C743 1.355 . S
C744 C746 1.419 . S
C745 C740 1.425 . S
C745 C742 1.409 . S
C745 C743 1.415 . S
C746 H736 0.930 . S
C746 C744 1.419 . S
C746 C747 1.362 . S
C747 H737 0.930 . S
C747 C740 1.409 . S
C747 C746 1.362 . S
H748 C754 0.930 . S
H749 C757 0.930 . S
H750 C758 0.930 . S
H751 C759 0.930 . S
H752 C762 0.930 . S
H753 C763 0.930 . S
C754 H748 0.930 . S
C754 C755 1.355 . S
C754 C756 1.415 . S
C755 C754 1.355 . S
C755 C757 1.419 . S
C756 C754 1.415 . S
C756 C761 1.425 . S
C756 C763 1.409 . S
C757 H749 0.930 . S
C757 C755 1.419 . S
C757 C758 1.362 . S
C758 H750 0.930 . S
C758 C757 1.362 . S
C758 C761 1.409 . S
C759 H751 0.930 . S
C759 C760 1.355 . S
C759 C761 1.415 . S
C760 C759 1.355 . S
C760 C762 1.419 . S
C761 C756 1.425 . S
C761 C758 1.409 . S
C761 C759 1.415 . S
C762 H752 0.930 . S
C762 C760 1.419 . S
C762 C763 1.362 . S
C763 H753 0.930 . S
C763 C756 1.409 . S
C763 C762 1.362 . S
H764 C770 0.930 . S
H765 C773 0.930 . S
H766 C774 0.930 . S
H767 C775 0.930 . S
H768 C778 0.930 . S
H769 C779 0.930 . S
C770 H764 0.930 . S
C770 C771 1.355 . S
C770 C772 1.415 . S
C771 C770 1.355 . S
C771 C773 1.419 . S
C772 C770 1.415 . S
C772 C777 1.425 . S
C772 C779 1.409 . S
C773 H765 0.930 . S
C773 C771 1.419 . S
C773 C774 1.362 . S
C774 H766 0.930 . S
C774 C773 1.362 . S
C774 C777 1.409 . S
C775 H767 0.930 . S
C775 C776 1.355 . S
C775 C777 1.415 . S
C776 C775 1.355 . S
C776 C778 1.419 . S
C777 C772 1.425 . S
C777 C774 1.409 . S
C777 C775 1.415 . S
C778 H768 0.930 . S
C778 C776 1.419 . S
C778 C779 1.362 . S
C779 H769 0.930 . S
C779 C772 1.409 . S
C779 C778 1.362 . S
H780 C786 0.930 . S
H781 C789 0.930 . S
H782 C790 0.930 . S
H783 C791 0.930 . S
H784 C794 0.930 . S
H785 C795 0.930 . S
C786 H780 0.930 . S
C786 C787 1.355 . S
C786 C788 1.415 . S
C787 C786 1.355 . S
C787 C789 1.419 . S
C788 C786 1.415 . S
C788 C793 1.425 . S
C788 C795 1.409 . S
C789 H781 0.930 . S
C789 C787 1.419 . S
C789 C790 1.362 . S
C790 H782 0.930 . S
C790 C789 1.362 . S
C790 C793 1.409 . S
C791 H783 0.930 . S
C791 C792 1.355 . S
C791 C793 1.415 . S
C792 C791 1.355 . S
C792 C794 1.419 . S
C793 C788 1.425 . S
C793 C790 1.409 . S
C793 C791 1.415 . S
C794 H784 0.930 . S
C794 C792 1.419 . S
C794 C795 1.362 . S
C795 H785 0.930 . S
C795 C788 1.409 . S
C795 C794 1.362 . S
H796 C802 0.930 . S
H797 C805 0.930 . S
H798 C806 0.930 . S
H799 C807 0.930 . S
H800 C810 0.930 . S
H801 C811 0.930 . S
C802 H796 0.930 . S
C802 C803 1.355 . S
C802 C804 1.415 . S
C803 C802 1.355 . S
C803 C805 1.419 . S
C804 C802 1.415 . S
C804 C809 1.425 . S
C804 C811 1.409 . S
C805 H797 0.930 . S
C805 C803 1.419 . S
C805 C806 1.362 . S
C806 H798 0.930 . S
C806 C805 1.362 . S
C806 C809 1.409 . S
C807 H799 0.930 . S
C807 C808 1.355 . S
C807 C809 1.415 . S
C808 C807 1.355 . S
C808 C810 1.419 . S
C809 C804 1.425 . S
C809 C806 1.409 . S
C809 C807 1.415 . S
C810 H800 0.930 . S
C810 C808 1.419 . S
C810 C811 1.362 . S
C811 H801 0.930 . S
C811 C804 1.409 . S
C811 C810 1.362 . S
H812 C818 0.930 . S
H813 C821 0.930 . S
H814 C822 0.930 . S
H815 C823 0.930 . S
H816 C826 0.930 . S
H817 C827 0.930 . S
C818 H812 0.930 . S
C818 C819 1.355 . S
C818 C820 1.415 . S
C819 C818 1.355 . S
C819 C821 1.419 . S
C820 C818 1.415 . S
C820 C825 1.425 . S
C820 C827 1.409 . S
C821 H813 0.930 . S
C821 C819 1.419 . S
C821 C822 1.362 . S
C822 H814 0.930 . S
C822 C821 1.362 . S
C822 C825 1.409 . S
C823 H815 0.930 . S
C823 C824 1.355 . S
C823 C825 1.415 . S
C824 C823 1.355 . S
C824 C826 1.419 . S
C825 C820 1.425 . S
C825 C822 1.409 . S
C825 C823 1.415 . S
C826 H816 0.930 . S
C826 C824 1.419 . S
C826 C827 1.362 . S
C827 H817 0.930 . S
C827 C820 1.409 . S
C827 C826 1.362 . S
H828 C834 0.930 . S
H829 C837 0.930 . S
H830 C838 0.930 . S
H831 C839 0.930 . S
H832 C842 0.930 . S
H833 C843 0.930 . S
C834 H828 0.930 . S
C834 C835 1.355 . S
C834 C836 1.415 . S
C835 C834 1.355 . S
C835 C837 1.419 . S
C836 C834 1.415 . S
C836 C841 1.425 . S
C836 C843 1.409 . S
C837 H829 0.930 . S
C837 C835 1.419 . S
C837 C838 1.362 . S
C838 H830 0.930 . S
C838 C837 1.362 . S
C838 C841 1.409 . S
C839 H831 0.930 . S
C839 C840 1.355 . S
C839 C841 1.415 . S
C840 C839 1.355 . S
C840 C842 1.419 . S
C841 C836 1.425 . S
C841 C838 1.409 . S
C841 C839 1.415 . S
C842 H832 0.930 . S
C842 C840 1.419 . S
C842 C843 1.362 . S
C843 H833 0.930 . S
C843 C836 1.409 . S
C843 C842 1.362 . S
H844 C850 0.930 . S
H845 C853 0.930 . S
H846 C854 0.930 . S
H847 C855 0.930 . S
H848 C858 0.930 . S
H849 C859 0.930 . S
C850 H844 0.930 . S
C850 C851 1.355 . S
C850 C852 1.415 . S
C851 C850 1.355 . S
C851 C853 1.419 . S
C852 C850 1.415 . S
C852 C857 1.425 . S
C852 C859 1.409 . S
C853 H845 0.930 . S
C853 C851 1.419 . S
C853 C854 1.362 . S
C854 H846 0.930 . S
C854 C853 1.362 . S
C854 C857 1.409 . S
C855 H847 0.930 . S
C855 C856 1.355 . S
C855 C857 1.415 . S
C856 C855 1.355 . S
C856 C858 1.419 . S
C857 C852 1.425 . S
C857 C854 1.409 . S
C857 C855 1.415 . S
C858 H848 0.930 . S
C858 C856 1.419 . S
C858 C859 1.362 . S
C859 H849 0.930 . S
C859 C852 1.409 . S
C859 C858 1.362 . S
H860 C866 0.930 . S
H861 C869 0.930 . S
H862 C870 0.930 . S
H863 C871 0.930 . S
H864 C874 0.930 . S
H865 C875 0.930 . S
C866 H860 0.930 . S
C866 C867 1.355 . S
C866 C868 1.415 . S
C867 C866 1.355 . S
C867 C869 1.419 . S
C868 C866 1.415 . S
C868 C873 1.425 . S
C868 C875 1.409 . S
C869 H861 0.930 . S
C869 C867 1.419 . S
C869 C870 1.362 . S
C870 H862 0.930 . S
C870 C869 1.362 . S
C870 C873 1.409 . S
C871 H863 0.930 . S
C871 C872 1.355 . S
C871 C873 1.415 . S
C872 C871 1.355 . S
C872 C874 1.419 . S
C873 C868 1.425 . S
C873 C870 1.409 . S
C873 C871 1.415 . S
C874 H864 0.930 . S
C874 C872 1.419 . S
C874 C875 1.362 . S
C875 H865 0.930 . S
C875 C868 1.409 . S
C875 C874 1.362 . S
C403 N310 1.710 . S
C408 N13 1.716 . S
C419 N46 1.703 . S
C424 N343 1.685 . S
C435 N376 1.685 . S
C440 N79 1.703 . S
C451 N112 1.669 . S
C456 N211 1.688 . S
C467 N145 1.670 . S
C472 N244 1.688 . S
C483 N277 1.696 . S
C488 N178 1.710 . S
C499 C348 1.727 . S
C504 C18 1.741 . S
C515 C381 1.719 . S
C520 C51 1.767 . S
C531 C84 1.731 . S
C536 C216 1.771 . S
C547 C249 1.758 . S
C552 C117 1.754 . S
C563 C282 1.768 . S
C568 C150 1.720 . S
C579 C183 1.771 . S
C584 C315 1.724 . S
C595 C238 0.982 . S
C600 C106 0.894 . S
C611 C271 0.855 . S
C616 C139 0.946 . S
C627 C172 0.882 . S
C632 C304 0.982 . S
C643 C7 0.973 . S
C648 C337 0.863 . S
C659 C40 0.895 . S
C664 C370 0.882 . S
C675 C205 0.969 . S
C680 C73 0.932 . S
C691 N2 1.287 . S
C696 C153 1.370 . S
C707 N35 1.337 . S
C712 C186 1.361 . S
C723 N68 1.279 . S
C728 C21 1.370 . S
C739 C54 1.363 . S
C744 N101 1.313 . S
C755 N134 1.324 . S
C760 C87 1.362 . S
C771 C120 1.363 . S
C776 N167 1.300 . S
C787 C285 1.371 . S
C792 N200 1.264 . S
C803 C318 1.371 . S
C808 N233 1.250 . S
C819 C351 1.362 . S
C824 N266 1.324 . S
C835 N299 1.329 . S
C840 C384 1.365 . S
C851 C219 1.367 . S
C856 N332 1.265 . S
C867 N365 1.293 . S
C872 C252 1.369 . S
