# Generated by pormake.
# Topology ths, (3)-cn, num edge types: 1
# Building blocks:
#     Node 0, Type 0, BuildingBlock: OLANEW_clean_sbu_2, # of connection points: 3
#     Node 1, Type 0, BuildingBlock: OLANEW_clean_sbu_2, # of connection points: 3
#     Node 2, Type 0, BuildingBlock: OLANEW_clean_sbu_2, # of connection points: 3
#     Node 3, Type 0, BuildingBlock: OLANEW_clean_sbu_2, # of connection points: 3
#     Node 4, Type 0, BuildingBlock: OLANEW_clean_sbu_2, # of connection points: 3
#     Node 5, Type 0, BuildingBlock: OLANEW_clean_sbu_2, # of connection points: 3
#     Node 6, Type 0, BuildingBlock: OLANEW_clean_sbu_2, # of connection points: 3
#     Node 7, Type 0, BuildingBlock: OLANEW_clean_sbu_2, # of connection points: 3
#     Edge 8, Type (0, 0), BuildingBlock: UVAHIK_clean_linker_0, # of connection points: 2
#     Edge 9, Type (0, 0), BuildingBlock: UVAHIK_clean_linker_0, # of connection points: 2
#     Edge 10, Type (0, 0), BuildingBlock: UVAHIK_clean_linker_0, # of connection points: 2
#     Edge 11, Type (0, 0), BuildingBlock: UVAHIK_clean_linker_0, # of connection points: 2
#     Edge 12, Type (0, 0), BuildingBlock: UVAHIK_clean_linker_0, # of connection points: 2
#     Edge 13, Type (0, 0), BuildingBlock: UVAHIK_clean_linker_0, # of connection points: 2
#     Edge 14, Type (0, 0), BuildingBlock: UVAHIK_clean_linker_0, # of connection points: 2
#     Edge 15, Type (0, 0), BuildingBlock: UVAHIK_clean_linker_0, # of connection points: 2
#     Edge 16, Type (0, 0), BuildingBlock: UVAHIK_clean_linker_0, # of connection points: 2
#     Edge 17, Type (0, 0), BuildingBlock: UVAHIK_clean_linker_0, # of connection points: 2
#     Edge 18, Type (0, 0), BuildingBlock: UVAHIK_clean_linker_0, # of connection points: 2
#     Edge 19, Type (0, 0), BuildingBlock: UVAHIK_clean_linker_0, # of connection points: 2
# Relax obj value: 0.000
# Max RMSD: 0.062
# Mean RMSD: 0.058
data_MOF--net-ths--node1-OLANEW_clean_sbu_2--edge1-UVAHIK_clean_linker_0
_symmetry_space_group_name_H-M    P1
_symmetry_Int_Tables_number       1
_symmetry_cell_setting            triclinic
loop_
_symmetry_equiv_pos_as_xyz
'x, y, z'
_cell_length_a     40.163688
_cell_length_b     40.166183
_cell_length_c     100.98295
_cell_angle_alpha  101.28449
_cell_angle_beta   90.011595
_cell_angle_gamma 89.98845
loop_
_atom_site_label
_atom_site_type_symbol
_atom_site_fract_x
_atom_site_fract_y
_atom_site_fract_z
_atom_type_partial_charge
O0 O 0.12784 0.73943 0.0443 0.0
Cd1 Cd 0.12023 0.73123 0.01984 0.0
O2 O 0.17739 0.76297 0.04447 0.0
Cd3 Cd 0.1807 0.74575 0.02264 0.0
O4 O 0.17681 0.70163 0.00622 0.0
C5 C 0.19082 0.6749 0.00845 0.0
O6 O 0.20803 0.6767 0.01964 0.0
C7 C 0.15262 0.75409 0.05083 0.0
C8 C 0.09946 0.79112 0.01224 0.0
O9 O 0.07822 0.76911 0.01454 0.0
O10 O 0.13043 0.78469 0.01347 0.0
O11 O 0.69327 0.82635 0.32789 0.0
Cd12 Cd 0.72075 0.85158 0.31068 0.0
O13 O 0.66037 0.79963 0.312 0.0
Cd14 Cd 0.61536 0.77148 0.30452 0.0
O15 O 0.56663 0.75633 0.29578 0.0
C16 C 0.54452 0.77934 0.29686 0.0
O17 O 0.55197 0.81011 0.30331 0.0
C18 C 0.66881 0.80654 0.32438 0.0
C19 C 0.78534 0.82839 0.30443 0.0
O20 O 0.77985 0.85425 0.31384 0.0
O21 O 0.76019 0.81315 0.29816 0.0
O22 O 0.62962 0.27117 0.54225 0.0
Cd23 Cd 0.62075 0.2526 0.51796 0.0
O24 O 0.68292 0.25838 0.54101 0.0
Cd25 Cd 0.67806 0.23033 0.5203 0.0
O26 O 0.66634 0.18303 0.50636 0.0
C27 C 0.66671 0.15692 0.51172 0.0
O28 O 0.67443 0.16066 0.52457 0.0
C29 C 0.65791 0.27109 0.54792 0.0
C30 C 0.5968 0.30564 0.50646 0.0
O31 O 0.5768 0.28444 0.51023 0.0
O32 O 0.6281 0.30163 0.50806 0.0
O33 O 0.15349 0.25716 0.81505 0.0
Cd34 Cd 0.16137 0.26454 0.7918 0.0
O35 O 0.13986 0.20327 0.80913 0.0
Cd36 Cd 0.13188 0.20706 0.78811 0.0
O37 O 0.09341 0.21403 0.7736 0.0
C38 C 0.07831 0.24239 0.77558 0.0
O39 O 0.08834 0.26663 0.78547 0.0
C40 C 0.14636 0.22896 0.8183 0.0
C41 C 0.2288 0.26496 0.78507 0.0
O42 O 0.21366 0.29241 0.79041 0.0
O43 O 0.21202 0.23728 0.7829 0.0
O44 O 0.00675 0.1759 0.94931 0.0
Cd45 Cd 0.9818 0.16947 0.97073 0.0
O46 O 0.02733 0.22451 0.9597 0.0
Cd47 Cd 0.05776 0.27047 0.96177 0.0
O48 O 0.08354 0.3191 0.96406 0.0
C49 C 0.0745 0.34085 0.95717 0.0
O50 O 0.04987 0.33338 0.94854 0.0
C51 C 0.02383 0.20231 0.94892 0.0
C52 C 0.99939 0.10771 0.97745 0.0
O53 O 0.97236 0.11069 0.97103 0.0
O54 O 0.01798 0.13397 0.98072 0.0
O55 O 0.1635 0.72666 0.1967 0.0
Cd56 Cd 0.1609 0.71899 0.22016 0.0
O57 O 0.16887 0.78226 0.20168 0.0
Cd58 Cd 0.15463 0.78364 0.2226 0.0
O59 O 0.11992 0.78398 0.23924 0.0
C60 C 0.09529 0.76381 0.23692 0.0
O61 O 0.09316 0.74335 0.22508 0.0
C62 C 0.16817 0.75477 0.19295 0.0
C63 C 0.22333 0.72597 0.23262 0.0
O64 O 0.21344 0.69707 0.22606 0.0
O65 O 0.20371 0.75139 0.2333 0.0
O66 O 0.47215 0.66536 0.42851 0.0
Cd67 Cd 0.44536 0.65066 0.44833 0.0
O68 O 0.49163 0.70979 0.4424 0.0
Cd69 Cd 0.52129 0.75595 0.44881 0.0
O70 O 0.54634 0.80446 0.4559 0.0
C71 C 0.54738 0.82693 0.44862 0.0
O72 O 0.53357 0.82047 0.43659 0.0
C73 C 0.48908 0.6926 0.43043 0.0
C74 C 0.47175 0.59269 0.45571 0.0
O75 O 0.44601 0.59086 0.44809 0.0
O76 O 0.48519 0.62186 0.45971 0.0
O77 O 0.67983 0.2977 0.69773 0.0
Cd78 Cd 0.67989 0.28934 0.72102 0.0
O79 O 0.62609 0.30776 0.69658 0.0
Cd80 Cd 0.61269 0.3018 0.71696 0.0
O81 O 0.57481 0.29799 0.73215 0.0
C82 C 0.55839 0.27055 0.73111 0.0
O83 O 0.56636 0.24468 0.72152 0.0
C84 C 0.65473 0.30469 0.69111 0.0
C85 C 0.74544 0.28054 0.72894 0.0
O86 O 0.72773 0.25513 0.72331 0.0
O87 O 0.73195 0.31003 0.73103 0.0
C88 C 0.07834 0.40003 0.95274 0.0
C89 C 0.09033 0.37478 0.95938 0.0
C90 C 0.09203 0.43267 0.95545 0.0
C91 C 0.16539 0.48199 0.97051 0.0
H92 H 0.10306 0.55706 0.97792 0.0
C93 C 0.19919 0.61209 0.00258 0.0
C94 C 0.18458 0.64153 -0.00042 0.0
C95 C 0.19048 0.58007 0.99528 0.0
C96 C 0.1209 0.53652 0.97562 0.0
H97 H 0.12678 0.36377 0.9738 0.0
H98 H 0.15047 0.42065 0.97857 0.0
H99 H 0.0825 0.4998 0.96954 0.0
H100 H 0.15054 0.66053 0.98611 0.0
H101 H 0.13556 0.6045 0.97325 0.0
H102 H 0.20372 0.51864 0.97688 0.0
C103 C 0.13067 0.41518 0.97118 0.0
C104 C 0.10909 0.50365 0.97084 0.0
C105 C 0.11692 0.38262 0.96852 0.0
C106 C 0.16214 0.63833 0.98872 0.0
C107 C 0.1534 0.60623 0.9814 0.0
C108 C 0.17722 0.51488 0.97526 0.0
C109 C 0.11813 0.4407 0.96481 0.0
C110 C 0.13112 0.47593 0.9685 0.0
C111 C 0.16697 0.57669 0.98479 0.0
C112 C 0.15504 0.54244 0.97815 0.0
H113 H 0.05797 0.3948 0.9456 0.0
H114 H 0.08206 0.45169 0.95027 0.0
H115 H 0.18305 0.46122 0.96857 0.0
H116 H 0.2166 0.61362 0.01087 0.0
H117 H 0.20114 0.5579 0.99828 0.0
C118 C 0.06813 0.78973 0.25891 0.0
C119 C 0.06773 0.76564 0.24676 0.0
C120 C 0.0405 0.79365 0.2675 0.0
C121 C 0.96083 0.75317 0.27459 0.0
H122 H 0.93199 0.84614 0.28708 0.0
C123 C 0.82542 0.78977 0.28984 0.0
C124 C 0.81972 0.81746 0.30048 0.0
C125 C 0.85776 0.7812 0.28534 0.0
C126 C 0.93995 0.82003 0.2839 0.0
H127 H 0.03859 0.72573 0.23443 0.0
H128 H 0.99041 0.73284 0.24929 0.0
H129 H 0.98531 0.83497 0.27566 0.0
H130 H 0.84365 0.85701 0.31509 0.0
H131 H 0.90014 0.84189 0.30726 0.0
H132 H 0.91489 0.73831 0.28251 0.0
C133 C 0.01212 0.74851 0.25227 0.0
C134 C 0.97057 0.81361 0.27736 0.0
C135 C 0.0397 0.7446 0.24369 0.0
C136 C 0.84717 0.83565 0.30682 0.0
C137 C 0.87953 0.8271 0.3023 0.0
C138 C 0.93015 0.7596 0.28113 0.0
C139 C 0.01192 0.77353 0.26414 0.0
C140 C 0.98112 0.78012 0.2724 0.0
C141 C 0.88515 0.80013 0.29136 0.0
C142 C 0.9191 0.79311 0.28565 0.0
H143 H 0.08942 0.80619 0.26162 0.0
H144 H 0.04131 0.81281 0.27668 0.0
H145 H 0.96848 0.72707 0.27109 0.0
H146 H 0.80482 0.77521 0.28474 0.0
H147 H 0.86118 0.76052 0.27679 0.0
C148 C 0.55082 0.33473 0.49637 0.0
C149 C 0.58414 0.33412 0.50055 0.0
C150 C 0.53881 0.3618 0.4909 0.0
C151 C 0.56702 0.43497 0.47604 0.0
H152 H 0.47684 0.46674 0.4844 0.0
C153 C 0.51664 0.56295 0.46613 0.0
C154 C 0.48517 0.56215 0.45998 0.0
C155 C 0.52896 0.53435 0.47048 0.0
C156 C 0.50198 0.45793 0.48189 0.0
H157 H 0.63093 0.36153 0.50238 0.0
H158 H 0.60981 0.40922 0.49328 0.0
H159 H 0.49787 0.41866 0.49333 0.0
H160 H 0.44198 0.53071 0.45354 0.0
H161 H 0.46335 0.48091 0.46134 0.0
H162 H 0.57124 0.4751 0.46492 0.0
C163 C 0.59308 0.38842 0.49385 0.0
C164 C 0.51404 0.43028 0.48696 0.0
C165 C 0.60518 0.36115 0.49916 0.0
C166 C 0.46633 0.53211 0.45823 0.0
C167 C 0.47846 0.50367 0.46275 0.0
C168 C 0.55507 0.4629 0.47112 0.0
C169 C 0.55972 0.38913 0.48964 0.0
C170 C 0.54674 0.41839 0.4841 0.0
C171 C 0.50986 0.50454 0.46894 0.0
C172 C 0.52243 0.47464 0.47399 0.0
H173 H 0.53404 0.31415 0.49723 0.0
H174 H 0.51317 0.36109 0.48755 0.0
H175 H 0.59209 0.4262 0.4734 0.0
H176 H 0.53177 0.5857 0.46761 0.0
H177 H 0.55314 0.53577 0.47531 0.0
C178 C 0.03084 0.27815 0.77039 0.0
C179 C 0.04739 0.2467 0.7681 0.0
C180 C 0.99978 0.28144 0.76454 0.0
C181 C 0.92647 0.23073 0.7519 0.0
H182 H 0.90048 0.31081 0.73835 0.0
C183 C 0.79596 0.24406 0.72935 0.0
C184 C 0.78057 0.27604 0.73269 0.0
C185 C 0.82931 0.23996 0.73268 0.0
C186 C 0.90724 0.28843 0.74222 0.0
H187 H 0.04487 0.19436 0.75741 0.0
H188 H 0.99063 0.20017 0.74717 0.0
H189 H 0.9579 0.30472 0.7454 0.0
H190 H 0.78811 0.32876 0.74222 0.0
H191 H 0.84603 0.3215 0.74825 0.0
H192 H 0.87576 0.2147 0.74901 0.0
C193 C 0.00158 0.22218 0.75362 0.0
C194 C 0.94018 0.2849 0.74622 0.0
C195 C 0.03275 0.21892 0.75941 0.0
C196 C 0.79924 0.3038 0.73947 0.0
C197 C 0.83255 0.29968 0.74283 0.0
C198 C 0.89352 0.2343 0.74795 0.0
C199 C 0.98448 0.25333 0.75632 0.0
C200 C 0.9501 0.25614 0.75121 0.0
C201 C 0.84803 0.26772 0.73946 0.0
C202 C 0.88341 0.26333 0.74317 0.0
H203 H 0.04143 0.30008 0.77701 0.0
H204 H 0.98717 0.30572 0.76691 0.0
H205 H 0.93318 0.20851 0.7559 0.0
H206 H 0.78234 0.22218 0.72407 0.0
H207 H 0.84054 0.21508 0.72978 0.0
C208 C 0.5094 0.23904 0.73788 0.0
C209 C 0.52827 0.26904 0.73946 0.0
C210 C 0.47907 0.23853 0.74463 0.0
C211 C 0.41146 0.2958 0.75896 0.0
H212 H 0.38113 0.21878 0.77361 0.0
C213 C 0.28304 0.29551 0.78449 0.0
C214 C 0.26448 0.26533 0.78138 0.0
C215 C 0.31648 0.2961 0.7807 0.0
C216 C 0.38913 0.24037 0.76946 0.0
H217 H 0.53076 0.32164 0.74985 0.0
H218 H 0.4779 0.32067 0.76167 0.0
H219 H 0.43784 0.21943 0.76495 0.0
H220 H 0.26663 0.21197 0.772 0.0
H221 H 0.32476 0.21311 0.76519 0.0
H222 H 0.36269 0.31647 0.76316 0.0
C223 C 0.48638 0.29767 0.75507 0.0
C224 C 0.42165 0.24076 0.76453 0.0
C225 C 0.51677 0.29815 0.74835 0.0
C226 C 0.28023 0.23564 0.77457 0.0
C227 C 0.31366 0.23624 0.77074 0.0
C228 C 0.37896 0.29537 0.76385 0.0
C229 C 0.46688 0.26803 0.75308 0.0
C230 C 0.4331 0.26837 0.75913 0.0
C231 C 0.33214 0.26654 0.77368 0.0
C232 C 0.36727 0.26754 0.76906 0.0
H233 H 0.51755 0.21614 0.73113 0.0
H234 H 0.46455 0.21536 0.7428 0.0
H235 H 0.4193 0.3172 0.75466 0.0
H236 H 0.27172 0.3188 0.78981 0.0
H237 H 0.33008 0.31975 0.78331 0.0
C238 C 0.27837 0.70236 0.23815 0.0
C239 C 0.25645 0.73004 0.23917 0.0
C240 C 0.30977 0.7065 0.24425 0.0
C241 C 0.37208 0.77247 0.25739 0.0
H242 H 0.40715 0.70493 0.27635 0.0
C243 C 0.48765 0.79822 0.29142 0.0
C244 C 0.51136 0.77215 0.29053 0.0
C245 C 0.45676 0.79201 0.28508 0.0
C246 C 0.39785 0.72383 0.27096 0.0
H247 H 0.2502 0.7837 0.24753 0.0
H248 H 0.30467 0.7908 0.25827 0.0
H249 H 0.35284 0.69604 0.26533 0.0
H250 H 0.521 0.71891 0.28242 0.0
H251 H 0.467 0.70812 0.27127 0.0
H252 H 0.4169 0.80035 0.26306 0.0
C253 C 0.29786 0.766 0.25258 0.0
C254 C 0.36675 0.71873 0.26464 0.0
C255 C 0.26653 0.76187 0.24649 0.0
C256 C 0.50328 0.73955 0.28331 0.0
C257 C 0.47229 0.73332 0.27697 0.0
C258 C 0.40308 0.77758 0.26371 0.0
C259 C 0.31992 0.73842 0.25149 0.0
C260 C 0.3534 0.74314 0.25787 0.0
C261 C 0.4488 0.75958 0.27769 0.0
C262 C 0.41622 0.75347 0.27066 0.0
H263 H 0.27138 0.67751 0.23256 0.0
H264 H 0.3263 0.68482 0.24311 0.0
H265 H 0.36284 0.79145 0.25202 0.0
H266 H 0.49297 0.82359 0.29695 0.0
H267 H 0.43901 0.81265 0.28601 0.0
C268 C 0.57699 0.86754 0.46681 0.0
C269 C 0.56294 0.86036 0.45382 0.0
C270 C 0.59072 0.89942 0.47191 0.0
C271 C 0.58745 0.98856 0.46793 0.0
H272 H 0.66775 0.99666 0.48965 0.0
C273 C 0.64746 0.11865 0.49034 0.0
C274 C 0.65771 0.12299 0.50388 0.0
C275 C 0.63803 0.08657 0.48319 0.0
C276 C 0.64519 0.99483 0.48367 0.0
H277 H 0.55278 0.88094 0.4359 0.0
H278 H 0.57698 0.93656 0.44479 0.0
H279 H 0.64748 0.94057 0.47905 0.0
H280 H 0.66636 0.09697 0.52049 0.0
H281 H 0.64973 0.04138 0.50812 0.0
H282 H 0.58492 0.04284 0.47274 0.0
C283 C 0.57701 0.91761 0.45109 0.0
C284 C 0.63357 0.96269 0.4776 0.0
C285 C 0.5633 0.88567 0.44597 0.0
C286 C 0.65868 0.09455 0.51006 0.0
C287 C 0.64935 0.06258 0.50293 0.0
C288 C 0.59908 0.02074 0.47401 0.0
C289 C 0.59074 0.9249 0.46414 0.0
C290 C 0.6043 0.95915 0.46982 0.0
C291 C 0.63879 0.05819 0.48944 0.0
C292 C 0.62782 0.02421 0.48211 0.0
H293 H 0.57707 0.84866 0.47314 0.0
H294 H 0.60066 0.90434 0.48208 0.0
H295 H 0.56462 0.98671 0.46213 0.0
H296 H 0.64648 0.14005 0.48528 0.0
H297 H 0.63029 0.08396 0.47277 0.0
C298 C 0.11165 0.84923 0.008 0.0
C299 C 0.08862 0.82311 0.00838 0.0
C300 C 0.10147 0.87961 0.00449 0.0
C301 C 0.02624 0.93144 0.00155 0.0
H302 H 0.08527 0.97703 0.98046 0.0
C303 C 0.98644 0.04762 0.97913 0.0
C304 C 0.009 0.0749 0.98091 0.0
C305 C 0.99563 0.01662 0.98239 0.0
C306 C 0.06863 0.96469 0.98643 0.0
H307 H 0.03688 0.80824 0.00522 0.0
H308 H 0.01926 0.86089 -0.00126 0.0
H309 H 0.10211 0.92316 0.98605 0.0
H310 H 0.05891 0.091 0.98747 0.0
H311 H 0.075 0.03677 0.99303 0.0
H312 H 0.99257 0.97292 0.00169 0.0
C313 C 0.04507 0.85825 0.00145 0.0
C314 C 0.0783 0.93386 0.98969 0.0
C315 C 0.05521 0.82796 0.00509 0.0
C316 C 0.04095 0.07049 0.98598 0.0
C317 C 0.05024 0.03939 0.9891 0.0
C318 C 0.01645 0.96214 0.99817 0.0
C319 C 0.06807 0.88451 0.00113 0.0
C320 C 0.05734 0.91693 0.99737 0.0
C321 C 0.02768 0.01215 0.98735 0.0
C322 C 0.03766 0.97918 0.99066 0.0
H323 H 0.13754 0.84639 0.01057 0.0
H324 H 0.11978 0.89945 0.0046 0.0
H325 H 0.00966 0.91945 0.00765 0.0
H326 H 0.96163 0.05023 0.97525 0.0
H327 H 0.97783 0.99596 0.98084 0.0
C328 C 0.15709 0.72895 0.16877 0.0
C329 C 0.17024 0.75575 0.17841 0.0
C330 C 0.15601 0.73113 0.15515 0.0
C331 C 0.19404 0.76827 0.12912 0.0
H332 H 0.10721 0.75816 0.11201 0.0
C333 C 0.17645 0.78073 0.07342 0.0
C334 C 0.15341 0.75869 0.06573 0.0
C335 C 0.17819 0.7834 0.08743 0.0
C336 C 0.13175 0.76055 0.11652 0.0
H337 H 0.19381 0.80523 0.18128 0.0
H338 H 0.19284 0.80846 0.15728 0.0
H339 H 0.11243 0.75523 0.13578 0.0
H340 H 0.11416 0.72217 0.06669 0.0
H341 H 0.11802 0.72571 0.09087 0.0
H342 H 0.21379 0.77201 0.1098 0.0
C343 C 0.18298 0.78608 0.16038 0.0
C344 C 0.13463 0.75907 0.13017 0.0
C345 C 0.18345 0.78423 0.17408 0.0
C346 C 0.13197 0.73966 0.07234 0.0
C347 C 0.13407 0.74189 0.08627 0.0
C348 C 0.1913 0.76909 0.11537 0.0
C349 C 0.16867 0.75982 0.15087 0.0
C350 C 0.1658 0.76266 0.13654 0.0
C351 C 0.15728 0.76369 0.09403 0.0
C352 C 0.16012 0.76492 0.10885 0.0
H353 H 0.14661 0.70673 0.1718 0.0
H354 H 0.14507 0.71048 0.14795 0.0
H355 H 0.21836 0.77099 0.13385 0.0
H356 H 0.19319 0.79587 0.06861 0.0
H357 H 0.19596 0.80093 0.09307 0.0
C358 C 0.51585 0.67936 0.40763 0.0
C359 C 0.50581 0.70349 0.41894 0.0
C360 C 0.532 0.68952 0.3968 0.0
C361 C 0.54854 0.76591 0.38187 0.0
H362 H 0.62015 0.71042 0.36356 0.0
C363 C 0.64436 0.81424 0.34746 0.0
C364 C 0.64938 0.79362 0.33469 0.0
C365 C 0.62558 0.80247 0.35723 0.0
C366 C 0.60001 0.72598 0.36853 0.0
H367 H 0.50233 0.75732 0.42721 0.0
H368 H 0.53251 0.77499 0.40896 0.0
H369 H 0.58975 0.69149 0.38166 0.0
H370 H 0.64007 0.74406 0.3223 0.0
H371 H 0.60749 0.72322 0.33952 0.0
H372 H 0.55988 0.80098 0.36901 0.0
C373 C 0.52787 0.74818 0.40831 0.0
C374 C 0.58244 0.71512 0.37886 0.0
C375 C 0.51134 0.73801 0.41902 0.0
C376 C 0.63594 0.76071 0.33197 0.0
C377 C 0.61762 0.74869 0.34184 0.0
C378 C 0.56647 0.77699 0.3717 0.0
C379 C 0.53854 0.72408 0.39706 0.0
C380 C 0.55656 0.73503 0.38573 0.0
C381 C 0.61208 0.76959 0.35452 0.0
C382 C 0.59244 0.7572 0.36498 0.0
H383 H 0.51146 0.65255 0.40718 0.0
H384 H 0.53911 0.67025 0.3882 0.0
H385 H 0.52831 0.78159 0.38666 0.0
H386 H 0.65455 0.83969 0.34982 0.0
H387 H 0.62193 0.81893 0.36699 0.0
C388 C 0.69214 0.28194 0.5691 0.0
C389 C 0.66123 0.28334 0.56269 0.0
C390 C 0.69459 0.29 0.58317 0.0
C391 C 0.64983 0.33058 0.61435 0.0
H392 H 0.69981 0.26623 0.63056 0.0
C393 C 0.63065 0.3152 0.6694 0.0
C394 C 0.65848 0.30818 0.67684 0.0
C395 C 0.6337 0.31666 0.65575 0.0
C396 C 0.68622 0.28481 0.62623 0.0
H397 H 0.60893 0.29577 0.56603 0.0
H398 H 0.61317 0.30945 0.59054 0.0
H399 H 0.70045 0.26142 0.60617 0.0
H400 H 0.71163 0.29821 0.67583 0.0
H401 H 0.71697 0.30099 0.65201 0.0
H402 H 0.63501 0.35347 0.63444 0.0
C403 C 0.63559 0.30242 0.5847 0.0
C404 C 0.6866 0.28206 0.61223 0.0
C405 C 0.63312 0.29438 0.57063 0.0
C406 C 0.68964 0.30349 0.67039 0.0
C407 C 0.69268 0.30493 0.65672 0.0
C408 C 0.64945 0.33333 0.62837 0.0
C409 C 0.66622 0.29964 0.59115 0.0
C410 C 0.66803 0.3046 0.60611 0.0
C411 C 0.66467 0.31114 0.6492 0.0
C412 C 0.66725 0.31016 0.63445 0.0
H413 H 0.71435 0.27376 0.56328 0.0
H414 H 0.71866 0.28814 0.58781 0.0
H415 H 0.63566 0.34865 0.60996 0.0
H416 H 0.60627 0.31895 0.67403 0.0
H417 H 0.61155 0.32106 0.65022 0.0
C418 C 0.0449 0.23861 0.93313 0.0
C419 C 0.03994 0.20633 0.93616 0.0
C420 C 0.06032 0.24215 0.92108 0.0
C421 C 0.11173 0.19509 0.89281 0.0
H422 H 0.0783 0.26354 0.87396 0.0
C423 C 0.13646 0.19535 0.83639 0.0
C424 C 0.14236 0.22681 0.83269 0.0
C425 C 0.12843 0.19376 0.84972 0.0
C426 C 0.08825 0.24463 0.8792 0.0
H427 H 0.04603 0.15231 0.92871 0.0
H428 H 0.07189 0.15829 0.90747 0.0
H429 H 0.05452 0.25893 0.89568 0.0
H430 H 0.14594 0.28114 0.84023 0.0
H431 H 0.13171 0.27827 0.86348 0.0
H432 H 0.14468 0.18015 0.87599 0.0
C433 C 0.06504 0.18104 0.91461 0.0
C434 C 0.07465 0.24199 0.89167 0.0
C435 C 0.04987 0.17756 0.92672 0.0
C436 C 0.14147 0.25649 0.84273 0.0
C437 C 0.13312 0.25491 0.85603 0.0
C438 C 0.12512 0.19755 0.88026 0.0
C439 C 0.07057 0.2134 0.91165 0.0
C440 C 0.08605 0.21704 0.89861 0.0
C441 C 0.12585 0.2236 0.85959 0.0
C442 C 0.11336 0.22222 0.87329 0.0
H443 H 0.03612 0.26116 0.93989 0.0
H444 H 0.06419 0.26748 0.91918 0.0
H445 H 0.12156 0.17599 0.89797 0.0
H446 H 0.13704 0.172 0.82891 0.0
H447 H 0.12277 0.16928 0.85215 0.0
loop_
_geom_bond_atom_site_label_1
_geom_bond_atom_site_label_2
_geom_bond_distance
_geom_bond_site_symmetry_2
_ccdc_geom_bond_type
O0 Cd1 2.300 . S
O0 C7 1.275 . S
Cd1 O0 2.300 . S
Cd1 O9 2.381 . S
Cd1 O10 2.378 . S
O2 Cd3 2.385 . S
O2 C7 1.255 . S
Cd3 O2 2.385 . S
Cd3 O4 2.317 . S
O4 Cd3 2.317 . S
O4 C5 1.232 . S
C5 O4 1.232 . S
C5 O6 1.218 . S
O6 C5 1.218 . S
C7 O0 1.275 . S
C7 O2 1.255 . S
C8 O9 1.258 . S
C8 O10 1.256 . S
O9 Cd1 2.381 . S
O9 C8 1.258 . S
O10 Cd1 2.378 . S
O10 C8 1.256 . S
O11 Cd12 2.300 . S
O11 C18 1.275 . S
Cd12 O11 2.300 . S
Cd12 O20 2.381 . S
Cd12 O21 2.378 . S
O13 Cd14 2.385 . S
O13 C18 1.255 . S
Cd14 O13 2.385 . S
Cd14 O15 2.317 . S
O15 Cd14 2.317 . S
O15 C16 1.232 . S
C16 O15 1.232 . S
C16 O17 1.218 . S
O17 C16 1.218 . S
C18 O11 1.275 . S
C18 O13 1.255 . S
C19 O20 1.258 . S
C19 O21 1.256 . S
O20 Cd12 2.381 . S
O20 C19 1.258 . S
O21 Cd12 2.378 . S
O21 C19 1.256 . S
O22 Cd23 2.300 . S
O22 C29 1.275 . S
Cd23 O22 2.300 . S
Cd23 O31 2.381 . S
Cd23 O32 2.378 . S
O24 Cd25 2.385 . S
O24 C29 1.255 . S
Cd25 O24 2.385 . S
Cd25 O26 2.317 . S
O26 Cd25 2.317 . S
O26 C27 1.232 . S
C27 O26 1.232 . S
C27 O28 1.218 . S
O28 C27 1.218 . S
C29 O22 1.275 . S
C29 O24 1.255 . S
C30 O31 1.258 . S
C30 O32 1.256 . S
O31 Cd23 2.381 . S
O31 C30 1.258 . S
O32 Cd23 2.378 . S
O32 C30 1.256 . S
O33 Cd34 2.300 . S
O33 C40 1.275 . S
Cd34 O33 2.300 . S
Cd34 O42 2.381 . S
Cd34 O43 2.378 . S
O35 Cd36 2.385 . S
O35 C40 1.255 . S
Cd36 O35 2.385 . S
Cd36 O37 2.317 . S
O37 Cd36 2.317 . S
O37 C38 1.232 . S
C38 O37 1.232 . S
C38 O39 1.218 . S
O39 C38 1.218 . S
C40 O33 1.275 . S
C40 O35 1.255 . S
C41 O42 1.258 . S
C41 O43 1.256 . S
O42 Cd34 2.381 . S
O42 C41 1.258 . S
O43 Cd34 2.378 . S
O43 C41 1.256 . S
O44 Cd45 2.300 . S
O44 C51 1.275 . S
Cd45 O44 2.300 . S
Cd45 O53 2.381 . S
Cd45 O54 2.378 . S
O46 Cd47 2.385 . S
O46 C51 1.255 . S
Cd47 O46 2.385 . S
Cd47 O48 2.317 . S
O48 Cd47 2.317 . S
O48 C49 1.232 . S
C49 O48 1.232 . S
C49 O50 1.218 . S
O50 C49 1.218 . S
C51 O44 1.275 . S
C51 O46 1.255 . S
C52 O53 1.258 . S
C52 O54 1.256 . S
O53 Cd45 2.381 . S
O53 C52 1.258 . S
O54 Cd45 2.378 . S
O54 C52 1.256 . S
O55 Cd56 2.300 . S
O55 C62 1.275 . S
Cd56 O55 2.300 . S
Cd56 O64 2.381 . S
Cd56 O65 2.378 . S
O57 Cd58 2.385 . S
O57 C62 1.255 . S
Cd58 O57 2.385 . S
Cd58 O59 2.317 . S
O59 Cd58 2.317 . S
O59 C60 1.232 . S
C60 O59 1.232 . S
C60 O61 1.218 . S
O61 C60 1.218 . S
C62 O55 1.275 . S
C62 O57 1.255 . S
C63 O64 1.258 . S
C63 O65 1.256 . S
O64 Cd56 2.381 . S
O64 C63 1.258 . S
O65 Cd56 2.378 . S
O65 C63 1.256 . S
O66 Cd67 2.300 . S
O66 C73 1.275 . S
Cd67 O66 2.300 . S
Cd67 O75 2.381 . S
Cd67 O76 2.378 . S
O68 Cd69 2.385 . S
O68 C73 1.255 . S
Cd69 O68 2.385 . S
Cd69 O70 2.317 . S
O70 Cd69 2.317 . S
O70 C71 1.232 . S
C71 O70 1.232 . S
C71 O72 1.218 . S
O72 C71 1.218 . S
C73 O66 1.275 . S
C73 O68 1.255 . S
C74 O75 1.258 . S
C74 O76 1.256 . S
O75 Cd67 2.381 . S
O75 C74 1.258 . S
O76 Cd67 2.378 . S
O76 C74 1.256 . S
O77 Cd78 2.300 . S
O77 C84 1.275 . S
Cd78 O77 2.300 . S
Cd78 O86 2.381 . S
Cd78 O87 2.378 . S
O79 Cd80 2.385 . S
O79 C84 1.255 . S
Cd80 O79 2.385 . S
Cd80 O81 2.317 . S
O81 Cd80 2.317 . S
O81 C82 1.232 . S
C82 O81 1.232 . S
C82 O83 1.218 . S
O83 C82 1.218 . S
C84 O77 1.275 . S
C84 O79 1.255 . S
C85 O86 1.258 . S
C85 O87 1.256 . S
O86 Cd78 2.381 . S
O86 C85 1.258 . S
O87 Cd78 2.378 . S
O87 C85 1.256 . S
C88 C89 1.349 . S
C88 C90 1.327 . S
C88 H113 0.950 . S
C89 C88 1.349 . S
C89 C105 1.349 . S
C90 C88 1.327 . S
C90 C109 1.429 . S
C90 H114 0.950 . S
C91 C108 1.574 . S
C91 C110 1.368 1_554 S
C91 H115 0.949 . S
H92 C96 0.949 . S
C93 C94 1.349 . S
C93 C95 1.327 . S
C93 H116 0.950 . S
C94 C93 1.349 . S
C94 C106 1.349 . S
C95 C93 1.327 . S
C95 C111 1.429 . S
C95 H117 0.950 . S
C96 H92 0.949 . S
C96 C104 1.574 . S
C96 C112 1.368 1_556 S
H97 C105 0.950 . S
H98 C103 0.950 1_554 S
H99 C104 0.949 . S
H100 C106 0.950 . S
H101 C107 0.950 1_556 S
H102 C108 0.949 . S
C103 H98 0.950 1_556 S
C103 C105 1.327 . S
C103 C109 1.429 . S
C104 C96 1.574 . S
C104 H99 0.949 . S
C104 C110 1.368 . S
C105 C89 1.349 . S
C105 H97 0.950 . S
C105 C103 1.327 . S
C106 C94 1.349 . S
C106 H100 0.950 . S
C106 C107 1.327 . S
C107 H101 0.950 1_554 S
C107 C106 1.327 . S
C107 C111 1.429 . S
C108 C91 1.574 . S
C108 H102 0.949 . S
C108 C112 1.368 . S
C109 C90 1.429 . S
C109 C103 1.429 . S
C109 C110 1.523 . S
C110 C91 1.368 1_556 S
C110 C104 1.368 . S
C110 C109 1.523 . S
C111 C95 1.429 . S
C111 C107 1.429 . S
C111 C112 1.523 . S
C112 C96 1.368 1_554 S
C112 C108 1.368 . S
C112 C111 1.523 . S
H113 C88 0.950 . S
H114 C90 0.950 . S
H115 C91 0.949 . S
H116 C93 0.950 . S
H117 C95 0.950 . S
C118 C119 1.349 . S
C118 C120 1.327 . S
C118 H143 0.950 . S
C119 C118 1.349 . S
C119 C135 1.349 . S
C120 C118 1.327 . S
C120 C139 1.429 1_455 S
C120 H144 0.950 1_455 S
C121 C138 1.574 . S
C121 C140 1.368 . S
C121 H145 0.949 . S
H122 C126 0.949 . S
C123 C124 1.349 . S
C123 C125 1.327 . S
C123 H146 0.950 . S
C124 C123 1.349 . S
C124 C136 1.349 . S
C125 C123 1.327 . S
C125 C141 1.429 . S
C125 H147 0.950 . S
C126 H122 0.949 . S
C126 C134 1.574 . S
C126 C142 1.368 . S
H127 C135 0.950 . S
H128 C133 0.950 . S
H129 C134 0.949 . S
H130 C136 0.950 . S
H131 C137 0.950 . S
H132 C138 0.949 . S
C133 H128 0.950 . S
C133 C135 1.327 . S
C133 C139 1.429 1_455 S
C134 C126 1.574 . S
C134 H129 0.949 . S
C134 C140 1.368 . S
C135 C119 1.349 . S
C135 H127 0.950 . S
C135 C133 1.327 . S
C136 C124 1.349 . S
C136 H130 0.950 . S
C136 C137 1.327 . S
C137 H131 0.950 . S
C137 C136 1.327 . S
C137 C141 1.429 . S
C138 C121 1.574 . S
C138 H132 0.949 . S
C138 C142 1.368 . S
C139 C120 1.429 1_655 S
C139 C133 1.429 1_655 S
C139 C140 1.523 . S
C140 C121 1.368 . S
C140 C134 1.368 . S
C140 C139 1.523 . S
C141 C125 1.429 . S
C141 C137 1.429 . S
C141 C142 1.523 . S
C142 C126 1.368 . S
C142 C138 1.368 . S
C142 C141 1.523 . S
H143 C118 0.950 . S
H144 C120 0.950 1_655 S
H145 C121 0.949 . S
H146 C123 0.950 . S
H147 C125 0.950 . S
C148 C149 1.349 . S
C148 C150 1.327 . S
C148 H173 0.950 . S
C149 C148 1.349 . S
C149 C165 1.349 . S
C150 C148 1.327 . S
C150 C169 1.429 . S
C150 H174 0.950 . S
C151 C168 1.574 . S
C151 C170 1.368 . S
C151 H175 0.949 . S
H152 C156 0.949 . S
C153 C154 1.349 . S
C153 C155 1.327 . S
C153 H176 0.950 . S
C154 C153 1.349 . S
C154 C166 1.349 . S
C155 C153 1.327 . S
C155 C171 1.429 . S
C155 H177 0.950 . S
C156 H152 0.949 . S
C156 C164 1.574 . S
C156 C172 1.368 . S
H157 C165 0.950 . S
H158 C163 0.950 . S
H159 C164 0.949 . S
H160 C166 0.950 . S
H161 C167 0.950 . S
H162 C168 0.949 . S
C163 H158 0.950 . S
C163 C165 1.327 . S
C163 C169 1.429 . S
C164 C156 1.574 . S
C164 H159 0.949 . S
C164 C170 1.368 . S
C165 C149 1.349 . S
C165 H157 0.950 . S
C165 C163 1.327 . S
C166 C154 1.349 . S
C166 H160 0.950 . S
C166 C167 1.327 . S
C167 H161 0.950 . S
C167 C166 1.327 . S
C167 C171 1.429 . S
C168 C151 1.574 . S
C168 H162 0.949 . S
C168 C172 1.368 . S
C169 C150 1.429 . S
C169 C163 1.429 . S
C169 C170 1.523 . S
C170 C151 1.368 . S
C170 C164 1.368 . S
C170 C169 1.523 . S
C171 C155 1.429 . S
C171 C167 1.429 . S
C171 C172 1.523 . S
C172 C156 1.368 . S
C172 C168 1.368 . S
C172 C171 1.523 . S
H173 C148 0.950 . S
H174 C150 0.950 . S
H175 C151 0.949 . S
H176 C153 0.950 . S
H177 C155 0.950 . S
C178 C179 1.349 . S
C178 C180 1.327 . S
C178 H203 0.950 . S
C179 C178 1.349 . S
C179 C195 1.349 . S
C180 C178 1.327 . S
C180 C199 1.429 1_455 S
C180 H204 0.950 . S
C181 C198 1.574 . S
C181 C200 1.368 . S
C181 H205 0.949 . S
H182 C186 0.949 . S
C183 C184 1.349 . S
C183 C185 1.327 . S
C183 H206 0.950 . S
C184 C183 1.349 . S
C184 C196 1.349 . S
C185 C183 1.327 . S
C185 C201 1.429 . S
C185 H207 0.950 . S
C186 H182 0.949 . S
C186 C194 1.574 . S
C186 C202 1.368 . S
H187 C195 0.950 . S
H188 C193 0.950 1_655 S
H189 C194 0.949 . S
H190 C196 0.950 . S
H191 C197 0.950 . S
H192 C198 0.949 . S
C193 H188 0.950 1_455 S
C193 C195 1.327 . S
C193 C199 1.429 1_455 S
C194 C186 1.574 . S
C194 H189 0.949 . S
C194 C200 1.368 . S
C195 C179 1.349 . S
C195 H187 0.950 . S
C195 C193 1.327 . S
C196 C184 1.349 . S
C196 H190 0.950 . S
C196 C197 1.327 . S
C197 H191 0.950 . S
C197 C196 1.327 . S
C197 C201 1.429 . S
C198 C181 1.574 . S
C198 H192 0.949 . S
C198 C202 1.368 . S
C199 C180 1.429 1_655 S
C199 C193 1.429 1_655 S
C199 C200 1.523 . S
C200 C181 1.368 . S
C200 C194 1.368 . S
C200 C199 1.523 . S
C201 C185 1.429 . S
C201 C197 1.429 . S
C201 C202 1.523 . S
C202 C186 1.368 . S
C202 C198 1.368 . S
C202 C201 1.523 . S
H203 C178 0.950 . S
H204 C180 0.950 . S
H205 C181 0.949 . S
H206 C183 0.950 . S
H207 C185 0.950 . S
C208 C209 1.349 . S
C208 C210 1.327 . S
C208 H233 0.950 . S
C209 C208 1.349 . S
C209 C225 1.349 . S
C210 C208 1.327 . S
C210 C229 1.429 . S
C210 H234 0.950 . S
C211 C228 1.574 . S
C211 C230 1.368 . S
C211 H235 0.949 . S
H212 C216 0.949 . S
C213 C214 1.349 . S
C213 C215 1.327 . S
C213 H236 0.950 . S
C214 C213 1.349 . S
C214 C226 1.349 . S
C215 C213 1.327 . S
C215 C231 1.429 . S
C215 H237 0.950 . S
C216 H212 0.949 . S
C216 C224 1.574 . S
C216 C232 1.368 . S
H217 C225 0.950 . S
H218 C223 0.950 . S
H219 C224 0.949 . S
H220 C226 0.950 . S
H221 C227 0.950 . S
H222 C228 0.949 . S
C223 H218 0.950 . S
C223 C225 1.327 . S
C223 C229 1.429 . S
C224 C216 1.574 . S
C224 H219 0.949 . S
C224 C230 1.368 . S
C225 C209 1.349 . S
C225 H217 0.950 . S
C225 C223 1.327 . S
C226 C214 1.349 . S
C226 H220 0.950 . S
C226 C227 1.327 . S
C227 H221 0.950 . S
C227 C226 1.327 . S
C227 C231 1.429 . S
C228 C211 1.574 . S
C228 H222 0.949 . S
C228 C232 1.368 . S
C229 C210 1.429 . S
C229 C223 1.429 . S
C229 C230 1.523 . S
C230 C211 1.368 . S
C230 C224 1.368 . S
C230 C229 1.523 . S
C231 C215 1.429 . S
C231 C227 1.429 . S
C231 C232 1.523 . S
C232 C216 1.368 . S
C232 C228 1.368 . S
C232 C231 1.523 . S
H233 C208 0.950 . S
H234 C210 0.950 . S
H235 C211 0.949 . S
H236 C213 0.950 . S
H237 C215 0.950 . S
C238 C239 1.349 . S
C238 C240 1.327 . S
C238 H263 0.950 . S
C239 C238 1.349 . S
C239 C255 1.349 . S
C240 C238 1.327 . S
C240 C259 1.429 . S
C240 H264 0.950 . S
C241 C258 1.574 . S
C241 C260 1.368 . S
C241 H265 0.949 . S
H242 C246 0.949 . S
C243 C244 1.349 . S
C243 C245 1.327 . S
C243 H266 0.950 . S
C244 C243 1.349 . S
C244 C256 1.349 . S
C245 C243 1.327 . S
C245 C261 1.429 . S
C245 H267 0.950 . S
C246 H242 0.949 . S
C246 C254 1.574 . S
C246 C262 1.368 . S
H247 C255 0.950 . S
H248 C253 0.950 . S
H249 C254 0.949 . S
H250 C256 0.950 . S
H251 C257 0.950 . S
H252 C258 0.949 . S
C253 H248 0.950 . S
C253 C255 1.327 . S
C253 C259 1.429 . S
C254 C246 1.574 . S
C254 H249 0.949 . S
C254 C260 1.368 . S
C255 C239 1.349 . S
C255 H247 0.950 . S
C255 C253 1.327 . S
C256 C244 1.349 . S
C256 H250 0.950 . S
C256 C257 1.327 . S
C257 H251 0.950 . S
C257 C256 1.327 . S
C257 C261 1.429 . S
C258 C241 1.574 . S
C258 H252 0.949 . S
C258 C262 1.368 . S
C259 C240 1.429 . S
C259 C253 1.429 . S
C259 C260 1.523 . S
C260 C241 1.368 . S
C260 C254 1.368 . S
C260 C259 1.523 . S
C261 C245 1.429 . S
C261 C257 1.429 . S
C261 C262 1.523 . S
C262 C246 1.368 . S
C262 C258 1.368 . S
C262 C261 1.523 . S
H263 C238 0.950 . S
H264 C240 0.950 . S
H265 C241 0.949 . S
H266 C243 0.950 . S
H267 C245 0.950 . S
C268 C269 1.349 . S
C268 C270 1.327 . S
C268 H293 0.950 . S
C269 C268 1.349 . S
C269 C285 1.349 . S
C270 C268 1.327 . S
C270 C289 1.429 . S
C270 H294 0.950 . S
C271 C288 1.574 1_565 S
C271 C290 1.368 . S
C271 H295 0.949 . S
H272 C276 0.949 . S
C273 C274 1.349 . S
C273 C275 1.327 . S
C273 H296 0.950 . S
C274 C273 1.349 . S
C274 C286 1.349 . S
C275 C273 1.327 . S
C275 C291 1.429 . S
C275 H297 0.950 . S
C276 H272 0.949 . S
C276 C284 1.574 1_545 S
C276 C292 1.368 . S
H277 C285 0.950 . S
H278 C283 0.950 . S
H279 C284 0.949 . S
H280 C286 0.950 . S
H281 C287 0.950 . S
H282 C288 0.949 . S
C283 H278 0.950 . S
C283 C285 1.327 . S
C283 C289 1.429 . S
C284 C276 1.574 1_565 S
C284 H279 0.949 . S
C284 C290 1.368 . S
C285 C269 1.349 . S
C285 H277 0.950 . S
C285 C283 1.327 . S
C286 C274 1.349 . S
C286 H280 0.950 . S
C286 C287 1.327 . S
C287 H281 0.950 . S
C287 C286 1.327 . S
C287 C291 1.429 . S
C288 C271 1.574 1_545 S
C288 H282 0.949 . S
C288 C292 1.368 . S
C289 C270 1.429 . S
C289 C283 1.429 . S
C289 C290 1.523 . S
C290 C271 1.368 . S
C290 C284 1.368 . S
C290 C289 1.523 . S
C291 C275 1.429 . S
C291 C287 1.429 . S
C291 C292 1.523 . S
C292 C276 1.368 . S
C292 C288 1.368 . S
C292 C291 1.523 . S
H293 C268 0.950 . S
H294 C270 0.950 . S
H295 C271 0.949 . S
H296 C273 0.950 . S
H297 C275 0.950 . S
C298 C299 1.349 . S
C298 C300 1.327 . S
C298 H323 0.950 . S
C299 C298 1.349 . S
C299 C315 1.349 . S
C300 C298 1.327 . S
C300 C319 1.429 . S
C300 H324 0.950 . S
C301 C318 1.574 1_565 S
C301 C320 1.368 1_556 S
C301 H325 0.949 . S
H302 C306 0.949 . S
C303 C304 1.349 . S
C303 C305 1.327 . S
C303 H326 0.950 . S
C304 C303 1.349 . S
C304 C316 1.349 . S
C305 C303 1.327 . S
C305 C321 1.429 . S
C305 H327 0.950 . S
C306 H302 0.949 . S
C306 C314 1.574 1_545 S
C306 C322 1.368 1_554 S
H307 C315 0.950 . S
H308 C313 0.950 1_556 S
H309 C314 0.949 . S
H310 C316 0.950 . S
H311 C317 0.950 1_554 S
H312 C318 0.949 . S
C313 H308 0.950 1_554 S
C313 C315 1.327 . S
C313 C319 1.429 . S
C314 C306 1.574 1_565 S
C314 H309 0.949 . S
C314 C320 1.368 . S
C315 C299 1.349 . S
C315 H307 0.950 . S
C315 C313 1.327 . S
C316 C304 1.349 . S
C316 H310 0.950 . S
C316 C317 1.327 . S
C317 H311 0.950 1_556 S
C317 C316 1.327 . S
C317 C321 1.429 . S
C318 C301 1.574 1_545 S
C318 H312 0.949 . S
C318 C322 1.368 . S
C319 C300 1.429 . S
C319 C313 1.429 . S
C319 C320 1.523 . S
C320 C301 1.368 1_554 S
C320 C314 1.368 . S
C320 C319 1.523 . S
C321 C305 1.429 . S
C321 C317 1.429 . S
C321 C322 1.523 . S
C322 C306 1.368 1_556 S
C322 C318 1.368 . S
C322 C321 1.523 . S
H323 C298 0.950 . S
H324 C300 0.950 . S
H325 C301 0.949 . S
H326 C303 0.950 . S
H327 C305 0.950 . S
C328 C329 1.349 . S
C328 C330 1.327 . S
C328 H353 0.950 . S
C329 C328 1.349 . S
C329 C345 1.349 . S
C330 C328 1.327 . S
C330 C349 1.429 . S
C330 H354 0.950 . S
C331 C348 1.574 . S
C331 C350 1.368 . S
C331 H355 0.949 . S
H332 C336 0.949 . S
C333 C334 1.349 . S
C333 C335 1.327 . S
C333 H356 0.950 . S
C334 C333 1.349 . S
C334 C346 1.349 . S
C335 C333 1.327 . S
C335 C351 1.429 . S
C335 H357 0.950 . S
C336 H332 0.949 . S
C336 C344 1.574 . S
C336 C352 1.368 . S
H337 C345 0.950 . S
H338 C343 0.950 . S
H339 C344 0.949 . S
H340 C346 0.950 . S
H341 C347 0.950 . S
H342 C348 0.949 . S
C343 H338 0.950 . S
C343 C345 1.327 . S
C343 C349 1.429 . S
C344 C336 1.574 . S
C344 H339 0.949 . S
C344 C350 1.368 . S
C345 C329 1.349 . S
C345 H337 0.950 . S
C345 C343 1.327 . S
C346 C334 1.349 . S
C346 H340 0.950 . S
C346 C347 1.327 . S
C347 H341 0.950 . S
C347 C346 1.327 . S
C347 C351 1.429 . S
C348 C331 1.574 . S
C348 H342 0.949 . S
C348 C352 1.368 . S
C349 C330 1.429 . S
C349 C343 1.429 . S
C349 C350 1.523 . S
C350 C331 1.368 . S
C350 C344 1.368 . S
C350 C349 1.523 . S
C351 C335 1.429 . S
C351 C347 1.429 . S
C351 C352 1.523 . S
C352 C336 1.368 . S
C352 C348 1.368 . S
C352 C351 1.523 . S
H353 C328 0.950 . S
H354 C330 0.950 . S
H355 C331 0.949 . S
H356 C333 0.950 . S
H357 C335 0.950 . S
C358 C359 1.349 . S
C358 C360 1.327 . S
C358 H383 0.950 . S
C359 C358 1.349 . S
C359 C375 1.349 . S
C360 C358 1.327 . S
C360 C379 1.429 . S
C360 H384 0.950 . S
C361 C378 1.574 . S
C361 C380 1.368 . S
C361 H385 0.949 . S
H362 C366 0.949 . S
C363 C364 1.349 . S
C363 C365 1.327 . S
C363 H386 0.950 . S
C364 C363 1.349 . S
C364 C376 1.349 . S
C365 C363 1.327 . S
C365 C381 1.429 . S
C365 H387 0.950 . S
C366 H362 0.949 . S
C366 C374 1.574 . S
C366 C382 1.368 . S
H367 C375 0.950 . S
H368 C373 0.950 . S
H369 C374 0.949 . S
H370 C376 0.950 . S
H371 C377 0.950 . S
H372 C378 0.949 . S
C373 H368 0.950 . S
C373 C375 1.327 . S
C373 C379 1.429 . S
C374 C366 1.574 . S
C374 H369 0.949 . S
C374 C380 1.368 . S
C375 C359 1.349 . S
C375 H367 0.950 . S
C375 C373 1.327 . S
C376 C364 1.349 . S
C376 H370 0.950 . S
C376 C377 1.327 . S
C377 H371 0.950 . S
C377 C376 1.327 . S
C377 C381 1.429 . S
C378 C361 1.574 . S
C378 H372 0.949 . S
C378 C382 1.368 . S
C379 C360 1.429 . S
C379 C373 1.429 . S
C379 C380 1.523 . S
C380 C361 1.368 . S
C380 C374 1.368 . S
C380 C379 1.523 . S
C381 C365 1.429 . S
C381 C377 1.429 . S
C381 C382 1.523 . S
C382 C366 1.368 . S
C382 C378 1.368 . S
C382 C381 1.523 . S
H383 C358 0.950 . S
H384 C360 0.950 . S
H385 C361 0.949 . S
H386 C363 0.950 . S
H387 C365 0.950 . S
C388 C389 1.349 . S
C388 C390 1.327 . S
C388 H413 0.950 . S
C389 C388 1.349 . S
C389 C405 1.349 . S
C390 C388 1.327 . S
C390 C409 1.429 . S
C390 H414 0.950 . S
C391 C408 1.574 . S
C391 C410 1.368 . S
C391 H415 0.949 . S
H392 C396 0.949 . S
C393 C394 1.349 . S
C393 C395 1.327 . S
C393 H416 0.950 . S
C394 C393 1.349 . S
C394 C406 1.349 . S
C395 C393 1.327 . S
C395 C411 1.429 . S
C395 H417 0.950 . S
C396 H392 0.949 . S
C396 C404 1.574 . S
C396 C412 1.368 . S
H397 C405 0.950 . S
H398 C403 0.950 . S
H399 C404 0.949 . S
H400 C406 0.950 . S
H401 C407 0.950 . S
H402 C408 0.949 . S
C403 H398 0.950 . S
C403 C405 1.327 . S
C403 C409 1.429 . S
C404 C396 1.574 . S
C404 H399 0.949 . S
C404 C410 1.368 . S
C405 C389 1.349 . S
C405 H397 0.950 . S
C405 C403 1.327 . S
C406 C394 1.349 . S
C406 H400 0.950 . S
C406 C407 1.327 . S
C407 H401 0.950 . S
C407 C406 1.327 . S
C407 C411 1.429 . S
C408 C391 1.574 . S
C408 H402 0.949 . S
C408 C412 1.368 . S
C409 C390 1.429 . S
C409 C403 1.429 . S
C409 C410 1.523 . S
C410 C391 1.368 . S
C410 C404 1.368 . S
C410 C409 1.523 . S
C411 C395 1.429 . S
C411 C407 1.429 . S
C411 C412 1.523 . S
C412 C396 1.368 . S
C412 C408 1.368 . S
C412 C411 1.523 . S
H413 C388 0.950 . S
H414 C390 0.950 . S
H415 C391 0.949 . S
H416 C393 0.950 . S
H417 C395 0.950 . S
C418 C419 1.349 . S
C418 C420 1.327 . S
C418 H443 0.950 . S
C419 C418 1.349 . S
C419 C435 1.349 . S
C420 C418 1.327 . S
C420 C439 1.429 . S
C420 H444 0.950 . S
C421 C438 1.574 . S
C421 C440 1.368 . S
C421 H445 0.949 . S
H422 C426 0.949 . S
C423 C424 1.349 . S
C423 C425 1.327 . S
C423 H446 0.950 . S
C424 C423 1.349 . S
C424 C436 1.349 . S
C425 C423 1.327 . S
C425 C441 1.429 . S
C425 H447 0.950 . S
C426 H422 0.949 . S
C426 C434 1.574 . S
C426 C442 1.368 . S
H427 C435 0.950 . S
H428 C433 0.950 . S
H429 C434 0.949 . S
H430 C436 0.950 . S
H431 C437 0.950 . S
H432 C438 0.949 . S
C433 H428 0.950 . S
C433 C435 1.327 . S
C433 C439 1.429 . S
C434 C426 1.574 . S
C434 H429 0.949 . S
C434 C440 1.368 . S
C435 C419 1.349 . S
C435 H427 0.950 . S
C435 C433 1.327 . S
C436 C424 1.349 . S
C436 H430 0.950 . S
C436 C437 1.327 . S
C437 H431 0.950 . S
C437 C436 1.327 . S
C437 C441 1.429 . S
C438 C421 1.574 . S
C438 H432 0.949 . S
C438 C442 1.368 . S
C439 C420 1.429 . S
C439 C433 1.429 . S
C439 C440 1.523 . S
C440 C421 1.368 . S
C440 C434 1.368 . S
C440 C439 1.523 . S
C441 C425 1.429 . S
C441 C437 1.429 . S
C441 C442 1.523 . S
C442 C426 1.368 . S
C442 C438 1.368 . S
C442 C441 1.523 . S
H443 C418 0.950 . S
H444 C420 0.950 . S
H445 C421 0.949 . S
H446 C423 0.950 . S
H447 C425 0.950 . S
C89 C49 1.292 . S
C94 C5 1.292 . S
C119 C60 1.292 . S
C124 C19 1.490 . S
C149 C30 1.502 . S
C154 C74 1.502 . S
C179 C38 1.292 . S
C184 C85 1.490 . S
C209 C82 1.292 . S
C214 C41 1.489 . S
C239 C63 1.489 . S
C244 C16 1.292 . S
C269 C71 1.292 . S
C274 C27 1.292 . S
C299 C8 1.502 . S
C304 C52 1.502 . S
C329 C62 1.465 . S
C334 C7 1.456 . S
C359 C73 1.456 . S
C364 C18 1.465 . S
C389 C29 1.456 . S
C394 C84 1.465 . S
C419 C51 1.456 . S
C424 C40 1.465 . S
