# Generated by pormake.
# Topology wgn, (5)-cn, num edge types: 1
# Building blocks:
#     Node 0, Type 0, BuildingBlock: BEQFEK_clean_sbu_0, # of connection points: 5
#     Node 1, Type 0, BuildingBlock: BEQFEK_clean_sbu_0, # of connection points: 5
#     Node 2, Type 0, BuildingBlock: BEQFEK_clean_sbu_0, # of connection points: 5
#     Node 3, Type 0, BuildingBlock: BEQFEK_clean_sbu_0, # of connection points: 5
#     Node 4, Type 0, BuildingBlock: BEQFEK_clean_sbu_0, # of connection points: 5
#     Node 5, Type 0, BuildingBlock: BEQFEK_clean_sbu_0, # of connection points: 5
#     Node 6, Type 0, BuildingBlock: BEQFEK_clean_sbu_0, # of connection points: 5
#     Node 7, Type 0, BuildingBlock: BEQFEK_clean_sbu_0, # of connection points: 5
#     Node 8, Type 0, BuildingBlock: BEQFEK_clean_sbu_0, # of connection points: 5
#     Node 9, Type 0, BuildingBlock: BEQFEK_clean_sbu_0, # of connection points: 5
#     Node 10, Type 0, BuildingBlock: BEQFEK_clean_sbu_0, # of connection points: 5
#     Node 11, Type 0, BuildingBlock: BEQFEK_clean_sbu_0, # of connection points: 5
#     Node 12, Type 0, BuildingBlock: BEQFEK_clean_sbu_0, # of connection points: 5
#     Node 13, Type 0, BuildingBlock: BEQFEK_clean_sbu_0, # of connection points: 5
#     Node 14, Type 0, BuildingBlock: BEQFEK_clean_sbu_0, # of connection points: 5
#     Node 15, Type 0, BuildingBlock: BEQFEK_clean_sbu_0, # of connection points: 5
#     Node 16, Type 0, BuildingBlock: BEQFEK_clean_sbu_0, # of connection points: 5
#     Node 17, Type 0, BuildingBlock: BEQFEK_clean_sbu_0, # of connection points: 5
#     Node 18, Type 0, BuildingBlock: BEQFEK_clean_sbu_0, # of connection points: 5
#     Node 19, Type 0, BuildingBlock: BEQFEK_clean_sbu_0, # of connection points: 5
#     Node 20, Type 0, BuildingBlock: BEQFEK_clean_sbu_0, # of connection points: 5
#     Node 21, Type 0, BuildingBlock: BEQFEK_clean_sbu_0, # of connection points: 5
#     Node 22, Type 0, BuildingBlock: BEQFEK_clean_sbu_0, # of connection points: 5
#     Node 23, Type 0, BuildingBlock: BEQFEK_clean_sbu_0, # of connection points: 5
#     Node 24, Type 0, BuildingBlock: BEQFEK_clean_sbu_0, # of connection points: 5
#     Node 25, Type 0, BuildingBlock: BEQFEK_clean_sbu_0, # of connection points: 5
#     Node 26, Type 0, BuildingBlock: BEQFEK_clean_sbu_0, # of connection points: 5
#     Node 27, Type 0, BuildingBlock: BEQFEK_clean_sbu_0, # of connection points: 5
#     Node 28, Type 0, BuildingBlock: BEQFEK_clean_sbu_0, # of connection points: 5
#     Node 29, Type 0, BuildingBlock: BEQFEK_clean_sbu_0, # of connection points: 5
#     Node 30, Type 0, BuildingBlock: BEQFEK_clean_sbu_0, # of connection points: 5
#     Node 31, Type 0, BuildingBlock: BEQFEK_clean_sbu_0, # of connection points: 5
#     Edge 32, Type (0, 0), BuildingBlock: KIFKEQ_clean_linker_1, # of connection points: 2
#     Edge 33, Type (0, 0), BuildingBlock: KIFKEQ_clean_linker_1, # of connection points: 2
#     Edge 34, Type (0, 0), BuildingBlock: KIFKEQ_clean_linker_1, # of connection points: 2
#     Edge 35, Type (0, 0), BuildingBlock: KIFKEQ_clean_linker_1, # of connection points: 2
#     Edge 36, Type (0, 0), BuildingBlock: KIFKEQ_clean_linker_1, # of connection points: 2
#     Edge 37, Type (0, 0), BuildingBlock: KIFKEQ_clean_linker_1, # of connection points: 2
#     Edge 38, Type (0, 0), BuildingBlock: KIFKEQ_clean_linker_1, # of connection points: 2
#     Edge 39, Type (0, 0), BuildingBlock: KIFKEQ_clean_linker_1, # of connection points: 2
#     Edge 40, Type (0, 0), BuildingBlock: KIFKEQ_clean_linker_1, # of connection points: 2
#     Edge 41, Type (0, 0), BuildingBlock: KIFKEQ_clean_linker_1, # of connection points: 2
#     Edge 42, Type (0, 0), BuildingBlock: KIFKEQ_clean_linker_1, # of connection points: 2
#     Edge 43, Type (0, 0), BuildingBlock: KIFKEQ_clean_linker_1, # of connection points: 2
#     Edge 44, Type (0, 0), BuildingBlock: KIFKEQ_clean_linker_1, # of connection points: 2
#     Edge 45, Type (0, 0), BuildingBlock: KIFKEQ_clean_linker_1, # of connection points: 2
#     Edge 46, Type (0, 0), BuildingBlock: KIFKEQ_clean_linker_1, # of connection points: 2
#     Edge 47, Type (0, 0), BuildingBlock: KIFKEQ_clean_linker_1, # of connection points: 2
#     Edge 48, Type (0, 0), BuildingBlock: KIFKEQ_clean_linker_1, # of connection points: 2
#     Edge 49, Type (0, 0), BuildingBlock: KIFKEQ_clean_linker_1, # of connection points: 2
#     Edge 50, Type (0, 0), BuildingBlock: KIFKEQ_clean_linker_1, # of connection points: 2
#     Edge 51, Type (0, 0), BuildingBlock: KIFKEQ_clean_linker_1, # of connection points: 2
#     Edge 52, Type (0, 0), BuildingBlock: KIFKEQ_clean_linker_1, # of connection points: 2
#     Edge 53, Type (0, 0), BuildingBlock: KIFKEQ_clean_linker_1, # of connection points: 2
#     Edge 54, Type (0, 0), BuildingBlock: KIFKEQ_clean_linker_1, # of connection points: 2
#     Edge 55, Type (0, 0), BuildingBlock: KIFKEQ_clean_linker_1, # of connection points: 2
#     Edge 56, Type (0, 0), BuildingBlock: KIFKEQ_clean_linker_1, # of connection points: 2
#     Edge 57, Type (0, 0), BuildingBlock: KIFKEQ_clean_linker_1, # of connection points: 2
#     Edge 58, Type (0, 0), BuildingBlock: KIFKEQ_clean_linker_1, # of connection points: 2
#     Edge 59, Type (0, 0), BuildingBlock: KIFKEQ_clean_linker_1, # of connection points: 2
#     Edge 60, Type (0, 0), BuildingBlock: KIFKEQ_clean_linker_1, # of connection points: 2
#     Edge 61, Type (0, 0), BuildingBlock: KIFKEQ_clean_linker_1, # of connection points: 2
#     Edge 62, Type (0, 0), BuildingBlock: KIFKEQ_clean_linker_1, # of connection points: 2
#     Edge 63, Type (0, 0), BuildingBlock: KIFKEQ_clean_linker_1, # of connection points: 2
#     Edge 64, Type (0, 0), BuildingBlock: KIFKEQ_clean_linker_1, # of connection points: 2
#     Edge 65, Type (0, 0), BuildingBlock: KIFKEQ_clean_linker_1, # of connection points: 2
#     Edge 66, Type (0, 0), BuildingBlock: KIFKEQ_clean_linker_1, # of connection points: 2
#     Edge 67, Type (0, 0), BuildingBlock: KIFKEQ_clean_linker_1, # of connection points: 2
#     Edge 68, Type (0, 0), BuildingBlock: KIFKEQ_clean_linker_1, # of connection points: 2
#     Edge 69, Type (0, 0), BuildingBlock: KIFKEQ_clean_linker_1, # of connection points: 2
#     Edge 70, Type (0, 0), BuildingBlock: KIFKEQ_clean_linker_1, # of connection points: 2
#     Edge 71, Type (0, 0), BuildingBlock: KIFKEQ_clean_linker_1, # of connection points: 2
#     Edge 72, Type (0, 0), BuildingBlock: KIFKEQ_clean_linker_1, # of connection points: 2
#     Edge 73, Type (0, 0), BuildingBlock: KIFKEQ_clean_linker_1, # of connection points: 2
#     Edge 74, Type (0, 0), BuildingBlock: KIFKEQ_clean_linker_1, # of connection points: 2
#     Edge 75, Type (0, 0), BuildingBlock: KIFKEQ_clean_linker_1, # of connection points: 2
#     Edge 76, Type (0, 0), BuildingBlock: KIFKEQ_clean_linker_1, # of connection points: 2
#     Edge 77, Type (0, 0), BuildingBlock: KIFKEQ_clean_linker_1, # of connection points: 2
#     Edge 78, Type (0, 0), BuildingBlock: KIFKEQ_clean_linker_1, # of connection points: 2
#     Edge 79, Type (0, 0), BuildingBlock: KIFKEQ_clean_linker_1, # of connection points: 2
#     Edge 80, Type (0, 0), BuildingBlock: KIFKEQ_clean_linker_1, # of connection points: 2
#     Edge 81, Type (0, 0), BuildingBlock: KIFKEQ_clean_linker_1, # of connection points: 2
#     Edge 82, Type (0, 0), BuildingBlock: KIFKEQ_clean_linker_1, # of connection points: 2
#     Edge 83, Type (0, 0), BuildingBlock: KIFKEQ_clean_linker_1, # of connection points: 2
#     Edge 84, Type (0, 0), BuildingBlock: KIFKEQ_clean_linker_1, # of connection points: 2
#     Edge 85, Type (0, 0), BuildingBlock: KIFKEQ_clean_linker_1, # of connection points: 2
#     Edge 86, Type (0, 0), BuildingBlock: KIFKEQ_clean_linker_1, # of connection points: 2
#     Edge 87, Type (0, 0), BuildingBlock: KIFKEQ_clean_linker_1, # of connection points: 2
#     Edge 88, Type (0, 0), BuildingBlock: KIFKEQ_clean_linker_1, # of connection points: 2
#     Edge 89, Type (0, 0), BuildingBlock: KIFKEQ_clean_linker_1, # of connection points: 2
#     Edge 90, Type (0, 0), BuildingBlock: KIFKEQ_clean_linker_1, # of connection points: 2
#     Edge 91, Type (0, 0), BuildingBlock: KIFKEQ_clean_linker_1, # of connection points: 2
#     Edge 92, Type (0, 0), BuildingBlock: KIFKEQ_clean_linker_1, # of connection points: 2
#     Edge 93, Type (0, 0), BuildingBlock: KIFKEQ_clean_linker_1, # of connection points: 2
#     Edge 94, Type (0, 0), BuildingBlock: KIFKEQ_clean_linker_1, # of connection points: 2
#     Edge 95, Type (0, 0), BuildingBlock: KIFKEQ_clean_linker_1, # of connection points: 2
#     Edge 96, Type (0, 0), BuildingBlock: KIFKEQ_clean_linker_1, # of connection points: 2
#     Edge 97, Type (0, 0), BuildingBlock: KIFKEQ_clean_linker_1, # of connection points: 2
#     Edge 98, Type (0, 0), BuildingBlock: KIFKEQ_clean_linker_1, # of connection points: 2
#     Edge 99, Type (0, 0), BuildingBlock: KIFKEQ_clean_linker_1, # of connection points: 2
#     Edge 100, Type (0, 0), BuildingBlock: KIFKEQ_clean_linker_1, # of connection points: 2
#     Edge 101, Type (0, 0), BuildingBlock: KIFKEQ_clean_linker_1, # of connection points: 2
#     Edge 102, Type (0, 0), BuildingBlock: KIFKEQ_clean_linker_1, # of connection points: 2
#     Edge 103, Type (0, 0), BuildingBlock: KIFKEQ_clean_linker_1, # of connection points: 2
#     Edge 104, Type (0, 0), BuildingBlock: KIFKEQ_clean_linker_1, # of connection points: 2
#     Edge 105, Type (0, 0), BuildingBlock: KIFKEQ_clean_linker_1, # of connection points: 2
#     Edge 106, Type (0, 0), BuildingBlock: KIFKEQ_clean_linker_1, # of connection points: 2
#     Edge 107, Type (0, 0), BuildingBlock: KIFKEQ_clean_linker_1, # of connection points: 2
#     Edge 108, Type (0, 0), BuildingBlock: KIFKEQ_clean_linker_1, # of connection points: 2
#     Edge 109, Type (0, 0), BuildingBlock: KIFKEQ_clean_linker_1, # of connection points: 2
#     Edge 110, Type (0, 0), BuildingBlock: KIFKEQ_clean_linker_1, # of connection points: 2
#     Edge 111, Type (0, 0), BuildingBlock: KIFKEQ_clean_linker_1, # of connection points: 2
# Relax obj value: 0.173
# Max RMSD: 0.142
# Mean RMSD: 0.139
data_MOF--net-wgn--node1-BEQFEK_clean_sbu_0--edge1-KIFKEQ_clean_linker_1
_symmetry_space_group_name_H-M    P1
_symmetry_Int_Tables_number       1
_symmetry_cell_setting            triclinic
loop_
_symmetry_equiv_pos_as_xyz
'x, y, z'
_cell_length_a     31.349558
_cell_length_b     31.35264
_cell_length_c     149.86883
_cell_angle_alpha  90.063601
_cell_angle_beta   90.064901
_cell_angle_gamma 89.981851
loop_
_atom_site_label
_atom_site_type_symbol
_atom_site_fract_x
_atom_site_fract_y
_atom_site_fract_z
_atom_type_partial_charge
Co0 Co 0.28484 0.14599 0.33342 0.0
Co1 Co 0.27911 0.1505 0.3122 0.0
C2 C 0.23374 0.21362 0.32366 0.0
O3 O 0.24795 0.19733 0.3309 0.0
O4 O 0.24122 0.19652 0.31612 0.0
C5 C 0.26168 0.12155 0.35212 0.0
O6 O 0.22195 0.11676 0.3495 0.0
C7 C 0.26246 0.17485 0.29349 0.0
C8 C 0.31261 0.13869 0.28647 0.0
C9 C 0.28214 0.17017 0.28522 0.0
N10 N 0.28106 0.14808 0.29935 0.0
N11 N 0.31076 0.12631 0.29506 0.0
C12 C 0.22683 0.20447 0.29584 0.0
H13 H 0.20537 0.18901 0.30075 0.0
H14 H 0.20805 0.21334 0.28984 0.0
H15 H 0.2403 0.23376 0.2989 0.0
C16 C 0.26886 0.05457 0.32923 0.0
N17 N 0.27063 0.09583 0.3267 0.0
N18 N 0.26697 0.09781 0.31794 0.0
C19 C 0.26146 0.05806 0.31469 0.0
C20 C 0.26273 0.02933 0.32173 0.0
C21 C 0.27987 0.03904 0.3384 0.0
H22 H 0.30578 0.05876 0.34127 0.0
H23 H 0.2513 0.04153 0.34272 0.0
H24 H 0.29047 0.00529 0.33832 0.0
O25 O 0.34245 0.16412 0.33015 0.0
O26 O 0.33673 0.16973 0.31544 0.0
H27 H 0.28835 0.04311 0.30199 0.0
H28 H 0.23815 0.01746 0.30416 0.0
C29 C 0.25639 0.04754 0.30501 0.0
H30 H 0.23976 0.07384 0.3015 0.0
H31 H 0.33177 0.10506 0.29813 0.0
O32 O 0.28962 0.13381 0.34653 0.0
C33 C 0.3581 0.17376 0.32261 0.0
Co34 Co 0.09519 0.02381 0.58412 0.0
Co35 Co 0.08982 0.02273 0.56278 0.0
C36 C 0.0238 0.98022 0.57421 0.0
O37 O 0.04118 0.99144 0.58158 0.0
O38 O 0.04092 0.98866 0.56672 0.0
C39 C 0.0926 0.04861 0.60273 0.0
O40 O 0.06013 0.07174 0.60001 0.0
C41 C 0.06525 0.00576 0.54398 0.0
C42 C 0.10057 0.05654 0.53699 0.0
C43 C 0.07007 0.02516 0.53567 0.0
N44 N 0.09113 0.02529 0.54991 0.0
N45 N 0.11229 0.05545 0.54563 0.0
C46 C 0.03643 0.96949 0.5463 0.0
H47 H 0.05127 0.94959 0.55157 0.0
H48 H 0.02981 0.94935 0.54036 0.0
H49 H 0.00589 0.98242 0.54888 0.0
C50 C 0.18325 -0.00139 0.57978 0.0
N51 N 0.14271 0.00514 0.57715 0.0
N52 N 0.14124 0.00514 0.56835 0.0
C53 C 0.18087 -0.00139 0.56513 0.0
C54 C 0.20898 0.99489 0.57229 0.0
C55 C 0.19739 -0.00128 0.58932 0.0
H56 H 0.17612 0.97779 0.59328 0.0
H57 H 0.23071 0.98725 0.59003 0.0
H58 H 0.19494 0.0316 0.59203 0.0
O59 O 0.08206 0.08368 0.58117 0.0
O60 O 0.07679 0.08117 0.56642 0.0
H61 H 0.19485 0.03695 0.55376 0.0
H62 H 0.22311 0.98722 0.55393 0.0
C63 C 0.19224 0.00266 0.55548 0.0
H64 H 0.16698 0.98808 0.55129 0.0
H65 H 0.13293 0.077 0.54872 0.0
O66 O 0.11085 0.02384 0.59717 0.0
C67 C 0.07446 0.10157 0.57373 0.0
Co68 Co 0.2015 0.85675 0.83372 0.0
Co69 Co 0.21371 0.85078 0.8126 0.0
C70 C 0.25633 0.78914 0.82468 0.0
O71 O 0.23872 0.80493 0.83164 0.0
O72 O 0.25218 0.80663 0.81708 0.0
C73 C 0.22165 0.882 0.85253 0.0
O74 O 0.26136 0.88787 0.85003 0.0
C75 C 0.22132 0.81471 0.79464 0.0
C76 C 0.20114 0.86706 0.7858 0.0
C77 C 0.21384 0.82469 0.78572 0.0
N78 N 0.21512 0.84995 0.79966 0.0
N79 N 0.20217 0.88084 0.79431 0.0
C80 C 0.22571 0.77094 0.79854 0.0
H81 H 0.21048 0.76953 0.8052 0.0
H82 H 0.26004 0.76313 0.79924 0.0
H83 H 0.21037 0.74661 0.79422 0.0
C84 C 0.22011 0.94775 0.82963 0.0
N85 N 0.21762 0.90656 0.82706 0.0
N86 N 0.22526 0.9041 0.8184 0.0
C87 C 0.23538 0.9434 0.81539 0.0
C88 C 0.23164 0.97233 0.82235 0.0
C89 C 0.20611 0.96415 0.83854 0.0
H90 H 0.17975 0.94433 0.84119 0.0
H91 H 0.23342 0.96294 0.84324 0.0
H92 H 0.19513 -0.00227 0.8381 0.0
O93 O 0.14482 0.83891 0.82986 0.0
O94 O 0.15544 0.83128 0.81532 0.0
H95 H 0.2256 0.96809 0.80225 0.0
H96 H 0.27776 0.97693 0.80665 0.0
C97 C 0.25145 0.9533 0.80624 0.0
H98 H 0.26326 0.92402 0.80291 0.0
H99 H 0.19097 0.91033 0.79648 0.0
O100 O 0.19435 0.86906 0.84685 0.0
C101 C 0.1317 0.82819 0.82216 0.0
Co102 Co 0.391 0.95371 0.08284 0.0
Co103 Co 0.39372 0.96449 0.06168 0.0
C104 C 0.45929 0.00509 0.07335 0.0
O105 O 0.44318 0.98985 0.08051 0.0
O106 O 0.44148 -0.0005 0.06581 0.0
C107 C 0.36687 0.97306 0.10174 0.0
O108 O 0.35942 0.01261 0.09931 0.0
C109 C 0.41735 0.98421 0.04306 0.0
C110 C 0.37374 0.94223 0.03553 0.0
C111 C 0.40817 0.96944 0.03453 0.0
N112 N 0.38979 0.96637 0.04885 0.0
N113 N 0.36382 0.94131 0.04427 0.0
C114 C 0.4522 0.0142 0.04568 0.0
H115 H 0.43957 0.03789 0.05051 0.0
H116 H 0.46531 0.03131 0.03982 0.0
H117 H 0.47816 -0.00403 0.04897 0.0
C118 C 0.2995 0.9731 0.07916 0.0
N119 N 0.3406 0.97105 0.07651 0.0
N120 N 0.34221 0.97758 0.06781 0.0
C121 C 0.30252 0.98576 0.06479 0.0
C122 C 0.27416 0.98276 0.07185 0.0
C123 C 0.28382 0.95891 0.08812 0.0
H124 H 0.3042 0.93289 0.09073 0.0
H125 H 0.28479 0.98627 0.0928 0.0
H126 H 0.25042 0.94734 0.08776 0.0
O127 O 0.40694 0.89658 0.07876 0.0
O128 O 0.41055 0.90523 0.06409 0.0
H129 H 0.28342 0.96549 0.05177 0.0
H130 H 0.2632 0.01675 0.05498 0.0
C131 C 0.29151 0.99551 0.0553 0.0
H132 H 0.31879 0.01103 0.0519 0.0
H133 H 0.34097 0.92152 0.04717 0.0
O134 O 0.38037 0.94635 0.09599 0.0
C135 C 0.41469 0.88214 0.071 0.0
Co136 Co 0.27073 0.86296 0.18151 0.0
Co137 Co 0.28105 0.85548 0.2026 0.0
C138 C 0.22811 0.79318 0.19183 0.0
O139 O 0.235 0.81135 0.18433 0.0
O140 O 0.24287 0.80842 0.19908 0.0
C141 C 0.28188 0.85693 0.16238 0.0
O142 O 0.29362 0.8177 0.16424 0.0
C143 C 0.26639 0.83336 0.22152 0.0
C144 C 0.32419 0.85972 0.22788 0.0
C145 C 0.28844 0.83507 0.22957 0.0
N146 N 0.28846 0.85532 0.21534 0.0
N147 N 0.32291 0.87111 0.21922 0.0
C148 C 0.22511 0.8112 0.21969 0.0
H149 H 0.23195 0.77814 0.21747 0.0
H150 H 0.20741 0.82791 0.21431 0.0
H151 H 0.20514 0.8099 0.22579 0.0
C152 C 0.25504 0.95268 0.18679 0.0
N153 N 0.25978 0.91132 0.18902 0.0
N154 N 0.26419 0.90854 0.19775 0.0
C155 C 0.26248 0.94798 0.20133 0.0
C156 C 0.2571 0.97746 0.19448 0.0
C157 C 0.2512 0.96828 0.1774 0.0
H158 H 0.22802 0.9482 0.1737 0.0
H159 H 0.24048 0.002 0.17716 0.0
H160 H 0.28266 0.9655 0.17406 0.0
O161 O 0.32988 0.8434 0.18318 0.0
O162 O 0.33701 0.8402 0.1979 0.0
H163 H 0.30747 0.95309 0.21195 0.0
H164 H 0.26416 0.99027 0.21283 0.0
C165 C 0.27272 0.9573 0.21089 0.0
H166 H 0.25561 0.93452 0.21527 0.0
H167 H 0.34664 0.88799 0.21586 0.0
O168 O 0.26827 0.88069 0.16865 0.0
C169 C 0.35204 0.83555 0.19009 0.0
Co170 Co 0.38392 0.03989 0.43171 0.0
Co171 Co 0.38657 0.03049 0.45283 0.0
C172 C 0.45147 0.98774 0.44131 0.0
O173 O 0.43539 0.00266 0.4341 0.0
O174 O 0.43387 0.9942 0.44883 0.0
C175 C 0.36021 0.0192 0.41291 0.0
O176 O 0.35463 0.97945 0.41541 0.0
C177 C 0.40697 0.00824 0.47148 0.0
C178 C 0.37039 0.05707 0.47883 0.0
C179 C 0.40047 0.02515 0.47994 0.0
N180 N 0.38243 0.02966 0.46562 0.0
N181 N 0.3605 0.05866 0.47009 0.0
C182 C 0.43619 0.97254 0.46896 0.0
H183 H 0.42172 0.95338 0.46351 0.0
H184 H 0.44271 0.95149 0.47475 0.0
H185 H 0.46674 0.98611 0.46654 0.0
C186 C 0.29186 0.02368 0.43543 0.0
N187 N 0.33307 0.02433 0.43807 0.0
N188 N 0.33455 0.01875 0.44679 0.0
C189 C 0.29459 0.01299 0.44988 0.0
C190 C 0.26616 0.01629 0.44281 0.0
C191 C 0.27686 0.03706 0.42636 0.0
H192 H 0.29733 0.06302 0.42377 0.0
H193 H 0.27868 0.00939 0.42177 0.0
H194 H 0.24337 0.04848 0.42651 0.0
O195 O 0.40143 0.09699 0.43558 0.0
O196 O 0.40488 0.08904 0.45027 0.0
H197 H 0.27954 0.0372 0.46282 0.0
H198 H 0.25314 0.98803 0.46007 0.0
C199 C 0.28356 0.00592 0.45947 0.0
H200 H 0.3094 0.988 0.46286 0.0
H201 H 0.34056 0.08119 0.46711 0.0
O202 O 0.37276 0.04662 0.4186 0.0
C203 C 0.40964 0.11163 0.44331 0.0
Co204 Co 0.20431 0.13096 0.68341 0.0
Co205 Co 0.21636 0.13676 0.70456 0.0
C206 C 0.26066 0.19725 0.6923 0.0
O207 O 0.2434 0.18125 0.6853 0.0
O208 O 0.2557 0.18035 0.69996 0.0
C209 C 0.21691 0.11833 0.66358 0.0
O210 O 0.25659 0.13131 0.66435 0.0
C211 C 0.23132 0.16633 0.72304 0.0
C212 C 0.1866 0.12549 0.73052 0.0
C213 C 0.21333 0.16037 0.73143 0.0
N214 N 0.21625 0.13599 0.71747 0.0
N215 N 0.18965 0.11166 0.72204 0.0
C216 C 0.25578 0.20447 0.71993 0.0
H217 H 0.23745 0.22081 0.7146 0.0
H218 H 0.28655 0.19369 0.71706 0.0
H219 H 0.26196 0.22761 0.72536 0.0
C220 C 0.22285 0.04038 0.68739 0.0
N221 N 0.21975 0.08127 0.69009 0.0
N222 N 0.22482 0.08296 0.69882 0.0
C223 C 0.23208 0.04312 0.7019 0.0
C224 C 0.23035 0.01466 0.69476 0.0
C225 C 0.21843 0.02639 0.67788 0.0
H226 H 0.24012 0.04559 0.67366 0.0
H227 H 0.22643 0.99218 0.67701 0.0
H228 H 0.18524 0.03218 0.6756 0.0
O229 O 0.14867 0.1523 0.68738 0.0
O230 O 0.15978 0.15946 0.7019 0.0
H231 H 0.20501 0.02416 0.71433 0.0
H232 H 0.25771 0.00415 0.71255 0.0
C233 C 0.2368 0.03218 0.71157 0.0
H234 H 0.25044 0.05949 0.71529 0.0
H235 H 0.17073 0.08789 0.7192 0.0
O236 O 0.19342 0.11654 0.6705 0.0
C237 C 0.1364 0.16422 0.69506 0.0
Co238 Co 0.11067 0.95044 0.93348 0.0
Co239 Co 0.11597 0.95374 0.95478 0.0
C240 C 0.04173 0.98989 0.94436 0.0
O241 O 0.0569 0.98242 0.9366 0.0
O242 O 0.06271 0.98105 0.95137 0.0
C243 C 0.1241 0.9729 0.91424 0.0
O244 O 0.12326 0.01334 0.91654 0.0
C245 C 0.098 0.98098 0.9732 0.0
C246 C 0.12788 0.92887 0.98084 0.0
C247 C 0.10056 0.9634 0.98172 0.0
N248 N 0.12155 0.95715 0.96756 0.0
N249 N 0.13995 0.92652 0.97224 0.0
C250 C 0.07442 0.02033 0.97046 0.0
H251 H 0.04129 0.01201 0.96865 0.0
H252 H 0.08992 0.03505 0.96456 0.0
H253 H 0.0734 0.04359 0.97605 0.0
C254 C 0.20109 0.97589 0.93603 0.0
N255 N 0.16127 0.97112 0.93929 0.0
N256 N 0.16295 0.9733 0.94808 0.0
C257 C 0.20353 0.98001 0.95064 0.0
C258 C 0.22907 0.98164 0.9431 0.0
C259 C 0.21329 0.96673 0.92655 0.0
H260 H 0.19732 0.93716 0.92425 0.0
H261 H 0.20281 0.99359 0.92228 0.0
H262 H 0.24822 0.96278 0.92575 0.0
O263 O 0.10016 0.89155 0.9375 0.0
O264 O 0.10659 0.8934 0.95226 0.0
H265 H 0.21888 0.94616 0.96256 0.0
H266 H 0.25066 0.99341 0.96078 0.0
C267 C 0.21821 0.97956 0.96014 0.0
H268 H 0.1956 -0.0021 0.96434 0.0
H269 H 0.15815 0.90206 0.96944 0.0
O270 O 0.11873 0.94445 0.92019 0.0
C271 C 0.09944 0.87314 0.94506 0.0
Co272 Co 0.70561 0.84906 0.71254 0.0
Co273 Co 0.67266 0.85665 0.69256 0.0
C274 C 0.7306 0.78724 0.69764 0.0
O275 O 0.73074 0.80102 0.70564 0.0
O276 O 0.71041 0.80673 0.6915 0.0
C277 C 0.76258 0.8243 0.7266 0.0
O278 O 0.78558 0.8102 0.7199 0.0
C279 C 0.66276 0.87062 0.67294 0.0
C280 C 0.59768 0.89778 0.67265 0.0
C281 C 0.63184 0.8872 0.66725 0.0
N282 N 0.6477 0.87221 0.68135 0.0
N283 N 0.60869 0.8882 0.68109 0.0
C284 C 0.70514 0.85226 0.6704 0.0
H285 H 0.7154 0.82797 0.6753 0.0
H286 H 0.72938 0.87802 0.67031 0.0
H287 H 0.70365 0.83771 0.66365 0.0
C288 C 0.72451 0.94139 0.70903 0.0
N289 N 0.712 0.9021 0.70643 0.0
N290 N 0.69986 0.9039 0.69801 0.0
C291 C 0.70491 0.94391 0.69498 0.0
C292 C 0.71995 0.96921 0.70186 0.0
C293 C 0.73742 0.95242 0.71836 0.0
H294 H 0.71961 0.93242 0.72319 0.0
H295 H 0.77194 0.94563 0.71919 0.0
H296 H 0.73176 0.9867 0.71979 0.0
O297 O 0.64487 0.83473 0.71395 0.0
O298 O 0.62401 0.83833 0.69984 0.0
H299 H 0.66135 0.95968 0.68449 0.0
H300 H 0.71095 0.98889 0.68407 0.0
C301 C 0.69628 0.95754 0.68558 0.0
H302 H 0.70968 0.9337 0.68092 0.0
H303 H 0.58965 0.89295 0.68671 0.0
O304 O 0.72947 0.84646 0.72494 0.0
C305 C 0.61622 0.8308 0.70801 0.0
Co306 Co 0.88767 0.9624 0.46182 0.0
Co307 Co 0.88331 0.94198 0.44118 0.0
C308 C 0.94855 -0.00069 0.44736 0.0
O309 O 0.93541 0.99169 0.45527 0.0
O310 O 0.92841 0.98533 0.44057 0.0
C311 C 0.91147 0.0136 0.47691 0.0
O312 O 0.92579 0.03915 0.47066 0.0
C313 C 0.87023 0.93493 0.4215 0.0
C314 C 0.84464 0.86932 0.42074 0.0
C315 C 0.85457 0.90448 0.41556 0.0
N316 N 0.86915 0.91835 0.42979 0.0
N317 N 0.8542 0.87904 0.42924 0.0
C318 C 0.88297 0.97991 0.41954 0.0
H319 H 0.87922 9e-05 0.42558 0.0
H320 H 0.86354 0.99308 0.41399 0.0
H321 H 0.91704 0.98049 0.41754 0.0
C322 C 0.7937 0.97548 0.45862 0.0
N323 N 0.83404 0.96824 0.45583 0.0
N324 N 0.83344 0.96157 0.44714 0.0
C325 C 0.79318 0.96569 0.44412 0.0
C326 C 0.76656 0.97429 0.45126 0.0
C327 C 0.78138 0.9812 0.46817 0.0
H328 H 0.78511 0.95032 0.4717 0.0
H329 H 0.80319 0.00448 0.47139 0.0
H330 H 0.74785 0.99221 0.46879 0.0
O331 O 0.90495 0.90222 0.46219 0.0
O332 O 0.91067 0.89426 0.44754 0.0
H333 H 0.78173 0.9235 0.43318 0.0
H334 H 0.74668 0.96879 0.43339 0.0
C335 C 0.77983 0.95808 0.43466 0.0
H336 H 0.80159 0.97533 0.4301 0.0
H337 H 0.84982 0.85904 0.43473 0.0
O338 O 0.88952 0.98118 0.47463 0.0
C339 C 0.91671 0.88082 0.45544 0.0
Co340 Co 0.78297 0.14536 0.21127 0.0
Co341 Co 0.8076 0.13817 0.19084 0.0
C342 C 0.7517 0.20691 0.1967 0.0
O343 O 0.75538 0.1934 0.20469 0.0
O344 O 0.76903 0.18732 0.1902 0.0
C345 C 0.72988 0.16929 0.22605 0.0
O346 O 0.70448 0.18266 0.21966 0.0
C347 C 0.81275 0.1268 0.17117 0.0
C348 C 0.87533 0.09465 0.17011 0.0
C349 C 0.84128 0.10919 0.16507 0.0
N350 N 0.82936 0.12253 0.1794 0.0
N351 N 0.86686 0.1036 0.1787 0.0
C352 C 0.76924 0.14446 0.16939 0.0
H353 H 0.74879 0.14106 0.17538 0.0
H354 H 0.75417 0.12795 0.16364 0.0
H355 H 0.772 0.17891 0.16781 0.0
C356 C 0.76654 0.05211 0.20813 0.0
N357 N 0.77506 0.09206 0.20528 0.0
N358 N 0.7828 0.09077 0.19664 0.0
C359 C 0.7782 0.05055 0.19369 0.0
C360 C 0.76881 0.02445 0.20086 0.0
C361 C 0.76066 0.04029 0.21771 0.0
H362 H 0.7773 0.06347 0.22209 0.0
H363 H 0.72612 0.04112 0.21931 0.0
H364 H 0.77269 0.00757 0.21901 0.0
O365 O 0.84409 0.15917 0.21186 0.0
O366 O 0.8585 0.15686 0.1974 0.0
H367 H 0.81682 0.03378 0.18246 0.0
H368 H 0.76635 0.00635 0.18288 0.0
C369 C 0.78256 0.03724 0.18414 0.0
H370 H 0.76821 0.06172 0.17974 0.0
H371 H 0.88648 0.09628 0.18411 0.0
O372 O 0.76302 0.14805 0.22395 0.0
C373 C 0.86996 0.16369 0.20542 0.0
Co374 Co 0.60102 0.02302 0.96055 0.0
Co375 Co 0.61086 0.05177 0.94041 0.0
C376 C 0.54382 0.99161 0.94524 0.0
O377 O 0.55667 0.99336 0.9533 0.0
O378 O 0.56279 0.01215 0.9391 0.0
C379 C 0.55574 0.00077 0.97528 0.0
O380 O 0.52722 0.01339 0.96943 0.0
C381 C 0.62298 0.05892 0.92089 0.0
C382 C 0.65504 0.12159 0.92004 0.0
C383 C 0.64025 0.088 0.91488 0.0
N384 N 0.62751 0.07477 0.92917 0.0
N385 N 0.64647 0.1123 0.9286 0.0
C386 C 0.60521 0.01561 0.91894 0.0
H387 H 0.61041 0.99411 0.92472 0.0
H388 H 0.62024 0.0017 0.9129 0.0
H389 H 0.57034 0.01834 0.91779 0.0
C390 C 0.69545 0.0098 0.95804 0.0
N391 N 0.65571 0.01815 0.95502 0.0
N392 N 0.65795 0.02729 0.94644 0.0
C393 C 0.69856 0.0238 0.9437 0.0
C394 C 0.72391 0.01371 0.95096 0.0
C395 C 0.70627 0.00209 0.96761 0.0
H396 H 0.68071 0.01457 0.97202 0.0
H397 H 0.70934 0.96724 0.96872 0.0
H398 H 0.73723 0.01721 0.96933 0.0
O399 O 0.58399 0.08326 0.96128 0.0
O400 O 0.58973 0.10147 0.94706 0.0
H401 H 0.71639 0.06397 0.9328 0.0
H402 H 0.74408 0.01363 0.93308 0.0
C403 C 0.71294 0.02948 0.93425 0.0
H404 H 0.68908 0.01559 0.92964 0.0
H405 H 0.65381 0.13147 0.93409 0.0
O406 O 0.59504 0.00113 0.97308 0.0
C407 C 0.58042 0.11061 0.95508 0.0
Co408 Co 0.71228 0.13654 0.80191 0.0
Co409 Co 0.68316 0.13039 0.82208 0.0
C410 C 0.7372 0.20138 0.81635 0.0
O411 O 0.73626 0.18667 0.80842 0.0
O412 O 0.71938 0.1816 0.82275 0.0
C413 C 0.76766 0.16158 0.78776 0.0
O414 O 0.79174 0.17413 0.79444 0.0
C415 C 0.67553 0.11893 0.84181 0.0
C416 C 0.60986 0.0935 0.84253 0.0
C417 C 0.64461 0.10453 0.84775 0.0
N418 N 0.65972 0.11592 0.83347 0.0
N419 N 0.62046 0.10079 0.83399 0.0
C420 C 0.71851 0.13687 0.84401 0.0
H421 H 0.72999 0.15789 0.8386 0.0
H422 H 0.74162 0.11032 0.84477 0.0
H423 H 0.71736 0.15497 0.85038 0.0
C424 C 0.73203 0.04438 0.80559 0.0
N425 N 0.72101 0.08411 0.8082 0.0
N426 N 0.71103 0.08309 0.81675 0.0
C427 C 0.71659 0.04322 0.81986 0.0
C428 C 0.7298 0.01729 0.81292 0.0
C429 C 0.74072 0.03209 0.79613 0.0
H430 H 0.71045 0.03338 0.79229 0.0
H431 H 0.76305 0.05537 0.7931 0.0
H432 H 0.75422 -0.00059 0.7957 0.0
O433 O 0.65111 0.14873 0.80069 0.0
O434 O 0.63307 0.14704 0.81497 0.0
H435 H 0.66961 0.03011 0.8298 0.0
H436 H 0.71573 -0.00395 0.83045 0.0
C437 C 0.70477 0.02902 0.82906 0.0
H438 H 0.71928 0.05083 0.83403 0.0
H439 H 0.60078 0.09548 0.82848 0.0
O440 O 0.73468 0.1393 0.78943 0.0
C441 C 0.62356 0.15322 0.80682 0.0
Co442 Co 0.59314 0.96648 0.55393 0.0
Co443 Co 0.60262 0.95405 0.57467 0.0
C444 C 0.52745 0.99584 0.56819 0.0
O445 O 0.54219 0.98893 0.5604 0.0
O446 O 0.54905 0.9865 0.57511 0.0
C447 C 0.54816 0.96774 0.53868 0.0
O448 O 0.52654 0.94448 0.54439 0.0
C449 C 0.61402 0.95113 0.59442 0.0
C450 C 0.65578 0.89449 0.59543 0.0
C451 C 0.6352 0.92508 0.60052 0.0
N452 N 0.62195 0.93632 0.58615 0.0
N453 N 0.64678 0.90244 0.58683 0.0
C454 C 0.58869 0.99059 0.59625 0.0
H455 H 0.58994 0.01235 0.59042 0.0
H456 H 0.60096 0.00724 0.60227 0.0
H457 H 0.55488 0.98167 0.5974 0.0
C458 C 0.68425 0.99242 0.55633 0.0
N459 N 0.64485 0.98409 0.55948 0.0
N460 N 0.64656 0.98261 0.56826 0.0
C461 C 0.6863 0.99244 0.57095 0.0
C462 C 0.71186 -0.00198 0.56351 0.0
C463 C 0.69627 0.98906 0.54671 0.0
H464 H 0.67026 0.00192 0.54246 0.0
H465 H 0.72649 0.00638 0.54538 0.0
H466 H 0.70075 0.95493 0.54497 0.0
O467 O 0.58921 0.90423 0.55426 0.0
O468 O 0.58845 0.89907 0.56896 0.0
H469 H 0.71057 0.95691 0.58202 0.0
H470 H 0.72926 0.01093 0.58156 0.0
C471 C 0.70117 0.99016 0.58044 0.0
H472 H 0.67532 0.00041 0.58499 0.0
H473 H 0.65758 0.88466 0.58139 0.0
O474 O 0.58378 0.98337 0.5412 0.0
C475 C 0.58491 0.88219 0.56129 0.0
Co476 Co 0.77401 0.84584 0.30237 0.0
Co477 Co 0.78946 0.85212 0.32318 0.0
C478 C 0.73811 0.78356 0.31676 0.0
O479 O 0.74705 0.79714 0.30896 0.0
O480 O 0.74892 0.80454 0.32369 0.0
C481 C 0.72118 0.82083 0.28767 0.0
O482 O 0.69486 0.81051 0.29413 0.0
C483 C 0.79915 0.86535 0.34299 0.0
C484 C 0.86225 0.89682 0.343 0.0
C485 C 0.82999 0.88309 0.3486 0.0
N486 N 0.81268 0.86904 0.33449 0.0
N487 N 0.85043 0.88779 0.3346 0.0
C488 C 0.75869 0.84352 0.34564 0.0
H489 H 0.74882 0.82028 0.34046 0.0
H490 H 0.73306 0.86771 0.34633 0.0
H491 H 0.76265 0.82693 0.35212 0.0
C492 C 0.75742 0.93938 0.30525 0.0
N493 N 0.76413 0.89921 0.30818 0.0
N494 N 0.76757 0.90007 0.31695 0.0
C495 C 0.76129 0.94016 0.31987 0.0
C496 C 0.75523 0.9666 0.31258 0.0
C497 C 0.75669 0.95178 0.29563 0.0
H498 H 0.78991 0.95268 0.29309 0.0
H499 H 0.73891 0.92758 0.29171 0.0
H500 H 0.74201 0.98373 0.29474 0.0
O501 O 0.83509 0.83233 0.30232 0.0
O502 O 0.8393 0.82759 0.31705 0.0
H503 H 0.79994 0.95772 0.33103 0.0
H504 H 0.74933 0.98441 0.3307 0.0
C505 C 0.76566 0.95368 0.32941 0.0
H506 H 0.7519 0.92899 0.33384 0.0
H507 H 0.86822 0.8944 0.32888 0.0
O508 O 0.75518 0.84107 0.28962 0.0
C509 C 0.85523 0.82196 0.30934 0.0
Co510 Co 0.89262 0.03354 0.05191 0.0
Co511 Co 0.8847 0.05866 0.07234 0.0
C512 C 0.95666 0.00681 0.06648 0.0
O513 O 0.94246 0.00955 0.05853 0.0
O514 O 0.93622 0.02278 0.07302 0.0
C515 C 0.92035 0.98049 0.03751 0.0
O516 O 0.93272 0.95575 0.04409 0.0
C517 C 0.87183 0.06653 0.0921 0.0
C518 C 0.84255 0.13066 0.09255 0.0
C519 C 0.85543 0.09712 0.09791 0.0
N520 N 0.86825 0.0814 0.0837 0.0
N521 N 0.85077 0.11972 0.08406 0.0
C522 C 0.8922 0.0249 0.09448 0.0
H523 H 0.91418 0.01429 0.08915 0.0
H524 H 0.867 0.00035 0.09526 0.0
H525 H 0.90984 0.02764 0.10088 0.0
C526 C 0.80023 0.01245 0.05516 0.0
N527 N 0.83981 0.02304 0.05796 0.0
N528 N 0.83835 0.03087 0.0666 0.0
C529 C 0.79849 0.02401 0.06959 0.0
C530 C 0.77286 0.01252 0.06247 0.0
C531 C 0.78825 0.00637 0.04559 0.0
H532 H 0.78746 0.03793 0.04225 0.0
H533 H 0.81275 0.98664 0.04219 0.0
H534 H 0.75642 0.99112 0.04497 0.0
O535 O 0.90358 0.09501 0.05115 0.0
O536 O 0.90138 0.10982 0.06559 0.0
H537 H 0.78215 0.068 0.07993 0.0
H538 H 0.75205 0.01922 0.08026 0.0
C539 C 0.78396 0.03302 0.07892 0.0
H540 H 0.80714 0.01948 0.08372 0.0
H541 H 0.84454 0.13858 0.07847 0.0
O542 O 0.89733 0.01287 0.03929 0.0
C543 C 0.90753 0.12122 0.05756 0.0
Co544 Co 0.78793 0.63358 0.83251 0.0
Co545 Co 0.78132 0.63903 0.81126 0.0
C546 C 0.73883 0.70331 0.82319 0.0
O547 O 0.75263 0.68643 0.83041 0.0
O548 O 0.74594 0.68639 0.81561 0.0
C549 C 0.7793 0.63543 0.85244 0.0
O550 O 0.75614 0.67016 0.85168 0.0
C551 C 0.76554 0.6663 0.79264 0.0
C552 C 0.8104 0.62478 0.78532 0.0
C553 C 0.78309 0.65911 0.78424 0.0
N554 N 0.78153 0.63725 0.79837 0.0
N555 N 0.80809 0.61241 0.79391 0.0
C556 C 0.74012 0.70425 0.79552 0.0
H557 H 0.75914 0.72319 0.80035 0.0
H558 H 0.7108 0.69313 0.79893 0.0
H559 H 0.7313 0.72521 0.78987 0.0
C560 C 0.76459 0.54453 0.8284 0.0
N561 N 0.76977 0.58523 0.82572 0.0
N562 N 0.7668 0.58693 0.81695 0.0
C563 C 0.75898 0.54737 0.81381 0.0
C564 C 0.75781 0.51915 0.82094 0.0
C565 C 0.77219 0.52977 0.83776 0.0
H566 H 0.80496 0.53881 0.83983 0.0
H567 H 0.74941 0.54601 0.8423 0.0
H568 H 0.7686 0.49478 0.83847 0.0
O569 O 0.84608 0.64925 0.82894 0.0
O570 O 0.84018 0.65448 0.81424 0.0
H571 H 0.78578 0.52899 0.8013 0.0
H572 H 0.73367 0.50748 0.80338 0.0
C573 C 0.75401 0.53623 0.80416 0.0
H574 H 0.73961 0.56325 0.80047 0.0
H575 H 0.82724 0.58914 0.79686 0.0
O576 O 0.79338 0.61729 0.84544 0.0
C577 C 0.86206 0.65752 0.82135 0.0
Co578 Co 0.60782 0.54149 0.08274 0.0
Co579 Co 0.60267 0.52863 0.06153 0.0
C580 C 0.53817 0.49009 0.07393 0.0
O581 O 0.55525 0.50589 0.08094 0.0
O582 O 0.55506 0.49478 0.06628 0.0
C583 C 0.62999 0.52299 0.10175 0.0
O584 O 0.6315 0.4824 0.09959 0.0
C585 C 0.57171 0.51001 0.04329 0.0
C586 C 0.61858 0.5432 0.03484 0.0
C587 C 0.58049 0.521 0.03452 0.0
N588 N 0.60342 0.52444 0.04859 0.0
N589 N 0.63121 0.54448 0.04345 0.0
C590 C 0.53253 0.4881 0.04661 0.0
H591 H 0.5147 0.50991 0.05109 0.0
H592 H 0.54225 0.45961 0.05048 0.0
H593 H 0.51143 0.4779 0.04106 0.0
C594 C 0.69773 0.51882 0.079 0.0
N595 N 0.65683 0.52212 0.07628 0.0
N596 N 0.65502 0.51554 0.06757 0.0
C597 C 0.69467 0.50639 0.06461 0.0
C598 C 0.72291 0.50852 0.07173 0.0
C599 C 0.71345 0.53206 0.08802 0.0
H600 H 0.69584 0.56064 0.09034 0.0
H601 H 0.70815 0.50563 0.0928 0.0
H602 H 0.74802 0.53956 0.08796 0.0
O603 O 0.59236 0.5982 0.07839 0.0
O604 O 0.58706 0.58849 0.06375 0.0
H605 H 0.71634 0.52641 0.05179 0.0
H606 H 0.73317 0.47392 0.0549 0.0
C607 C 0.70604 0.49666 0.05515 0.0
H608 H 0.67832 0.48286 0.05157 0.0
H609 H 0.65728 0.56166 0.04585 0.0
O610 O 0.62034 0.55037 0.09581 0.0
C611 C 0.58408 0.61217 0.07062 0.0
Co612 Co 0.71395 0.35163 0.33304 0.0
Co613 Co 0.7152 0.34711 0.31172 0.0
C614 C 0.75798 0.2806 0.32302 0.0
O615 O 0.74669 0.29771 0.33041 0.0
O616 O 0.74946 0.298 0.31556 0.0
C617 C 0.68806 0.34886 0.35156 0.0
O618 O 0.66398 0.31748 0.34865 0.0
C619 C 0.73268 0.32386 0.29291 0.0
C620 C 0.68101 0.35821 0.28597 0.0
C621 C 0.71309 0.3285 0.28461 0.0
N622 N 0.71259 0.34906 0.29887 0.0
N623 N 0.68191 0.36968 0.29462 0.0
C624 C 0.76954 0.29568 0.2952 0.0
H625 H 0.78909 0.31066 0.30053 0.0
H626 H 0.78981 0.28973 0.28926 0.0
H627 H 0.7572 0.26477 0.2977 0.0
C628 C 0.7374 0.44044 0.32884 0.0
N629 N 0.7321 0.39976 0.32617 0.0
N630 N 0.73236 0.39848 0.31738 0.0
C631 C 0.73792 0.43832 0.3142 0.0
C632 C 0.74064 0.46643 0.32137 0.0
C633 C 0.73631 0.45442 0.33839 0.0
H634 H 0.75773 0.43378 0.3424 0.0
H635 H 0.74663 0.48808 0.33915 0.0
H636 H 0.70341 0.45084 0.34101 0.0
O637 O 0.65412 0.33849 0.33001 0.0
O638 O 0.65675 0.33388 0.31524 0.0
H639 H 0.69928 0.45173 0.30282 0.0
H640 H 0.74844 0.48092 0.30302 0.0
C641 C 0.73363 0.44975 0.30454 0.0
H642 H 0.74874 0.42487 0.30035 0.0
H643 H 0.65986 0.38968 0.29774 0.0
O644 O 0.71385 0.36661 0.34614 0.0
C645 C 0.63628 0.33128 0.32253 0.0
Co646 Co 0.8912 0.45724 0.58383 0.0
Co647 Co 0.89764 0.45866 0.5626 0.0
C648 C 0.95999 0.50617 0.57422 0.0
O649 O 0.94286 0.49399 0.58154 0.0
O650 O 0.94387 0.49644 0.56668 0.0
C651 C 0.8956 0.4606 0.60372 0.0
O652 O 0.93493 0.47459 0.60297 0.0
C653 C 0.92145 0.47626 0.54385 0.0
C654 C 0.88906 0.42332 0.53689 0.0
C655 C 0.91776 0.45631 0.53557 0.0
N656 N 0.89664 0.45554 0.54977 0.0
N657 N 0.87722 0.42409 0.54552 0.0
C658 C 0.94841 0.51398 0.54617 0.0
H659 H 0.9323 0.53353 0.55133 0.0
H660 H 0.95452 0.53397 0.5402 0.0
H661 H 0.97932 0.50264 0.54889 0.0
C662 C 0.80147 0.47644 0.57927 0.0
N663 N 0.84249 0.472 0.57676 0.0
N664 N 0.84448 0.47211 0.56798 0.0
C665 C 0.80473 0.47662 0.56463 0.0
C666 C 0.77598 0.47893 0.5717 0.0
C667 C 0.78685 0.47655 0.58877 0.0
H668 H 0.8076 0.49792 0.59277 0.0
H669 H 0.75333 0.48756 0.58937 0.0
H670 H 0.78955 0.44381 0.59152 0.0
O671 O 0.90982 0.39883 0.58094 0.0
O672 O 0.91553 0.40155 0.56621 0.0
H673 H 0.79384 0.43851 0.55307 0.0
H674 H 0.76261 0.48635 0.55331 0.0
C675 C 0.79426 0.47274 0.55492 0.0
H676 H 0.81889 0.48914 0.55089 0.0
H677 H 0.85784 0.4015 0.54862 0.0
O678 O 0.87381 0.45362 0.5967 0.0
C679 C 0.91942 0.38161 0.57353 0.0
Co680 Co 0.8015 0.35702 0.68395 0.0
Co681 Co 0.79788 0.36016 0.70522 0.0
C682 C 0.76635 0.28489 0.69425 0.0
O683 O 0.77185 0.30141 0.68655 0.0
O684 O 0.77502 0.30542 0.70134 0.0
C685 C 0.78363 0.36884 0.66433 0.0
O686 O 0.74293 0.36167 0.66578 0.0
C687 C 0.77014 0.33748 0.72334 0.0
C688 C 0.81742 0.37202 0.73151 0.0
C689 C 0.78573 0.34127 0.73201 0.0
N690 N 0.79244 0.36375 0.71798 0.0
N691 N 0.82017 0.38481 0.72296 0.0
C692 C 0.73432 0.30984 0.72017 0.0
H693 H 0.747 0.27832 0.71817 0.0
H694 H 0.7186 0.32451 0.71428 0.0
H695 H 0.71057 0.30505 0.72556 0.0
C696 C 0.76816 0.4447 0.68675 0.0
N697 N 0.77694 0.40536 0.68989 0.0
N698 N 0.77495 0.40623 0.69869 0.0
C699 C 0.76458 0.44582 0.70137 0.0
C700 C 0.76022 0.4716 0.69392 0.0
C701 C 0.7748 0.45791 0.67726 0.0
H702 H 0.80689 0.44765 0.67501 0.0
H703 H 0.75059 0.44204 0.673 0.0
H704 H 0.77196 0.49289 0.67637 0.0
O705 O 0.86046 0.34917 0.68825 0.0
O706 O 0.85895 0.35606 0.70299 0.0
H707 H 0.79692 0.4632 0.71338 0.0
H708 H 0.74705 0.49085 0.71166 0.0
C709 C 0.76371 0.45979 0.71092 0.0
H710 H 0.74741 0.43538 0.71503 0.0
H711 H 0.84308 0.40565 0.72042 0.0
O712 O 0.80974 0.36756 0.67083 0.0
C713 C 0.8793 0.34987 0.69578 0.0
Co714 Co 0.88516 0.5446 0.93295 0.0
Co715 Co 0.88771 0.53436 0.95413 0.0
C716 C 0.95065 0.48953 0.94241 0.0
O717 O 0.93529 0.50538 0.93522 0.0
O718 O 0.93314 0.49623 0.94995 0.0
C719 C 0.86795 0.52663 0.91359 0.0
O720 O 0.87181 0.48569 0.91526 0.0
C721 C 0.91127 0.51514 0.97275 0.0
C722 C 0.86936 0.55886 0.98025 0.0
C723 C 0.90302 0.53069 0.98125 0.0
N724 N 0.88393 0.5334 0.96696 0.0
N725 N 0.85896 0.55952 0.97152 0.0
C726 C 0.94525 0.48416 0.97014 0.0
H727 H 0.9315 0.46008 0.96554 0.0
H728 H 0.95882 0.46762 0.97604 0.0
H729 H 0.97106 0.50145 0.96661 0.0
C730 C 0.79335 0.52832 0.93654 0.0
N731 N 0.83426 0.52999 0.93933 0.0
N732 N 0.83526 0.52467 0.94806 0.0
C733 C 0.79516 0.51824 0.95102 0.0
C734 C 0.76722 0.5209 0.94385 0.0
C735 C 0.77932 0.53905 0.92726 0.0
H736 H 0.79616 0.56808 0.92494 0.0
H737 H 0.78778 0.51232 0.92274 0.0
H738 H 0.74446 0.54471 0.92686 0.0
O739 O 0.90531 0.60059 0.93696 0.0
O740 O 0.90907 0.59179 0.95162 0.0
H741 H 0.77632 0.5399 0.96394 0.0
H742 H 0.75449 0.48914 0.96083 0.0
C743 C 0.78349 0.5094 0.96051 0.0
H744 H 0.81012 0.49318 0.964 0.0
H745 H 0.83659 0.57986 0.96861 0.0
O746 O 0.87294 0.55338 0.9199 0.0
C747 C 0.91483 0.61431 0.94469 0.0
Co748 Co 0.69891 0.63984 0.18204 0.0
Co749 Co 0.68656 0.63816 0.2032 0.0
C750 C 0.7348 0.7082 0.19352 0.0
O751 O 0.73235 0.69199 0.1857 0.0
O752 O 0.71895 0.6893 0.20024 0.0
C753 C 0.72694 0.62097 0.16305 0.0
O754 O 0.76701 0.61864 0.16558 0.0
C755 C 0.70795 0.65366 0.2221 0.0
C756 C 0.64901 0.63245 0.22877 0.0
C757 C 0.68713 0.65366 0.2303 0.0
N758 N 0.68275 0.63454 0.216 0.0
N759 N 0.64787 0.6213 0.22009 0.0
C760 C 0.75182 0.66978 0.22013 0.0
H761 H 0.76505 0.65345 0.21417 0.0
H762 H 0.77306 0.6646 0.22596 0.0
H763 H 0.75065 0.70438 0.21878 0.0
C764 C 0.71921 0.54879 0.18597 0.0
N765 N 0.71243 0.58924 0.18871 0.0
N766 N 0.70848 0.58931 0.19747 0.0
C767 C 0.71339 0.54938 0.20057 0.0
C768 C 0.72009 0.52228 0.19339 0.0
C769 C 0.71737 0.53486 0.17641 0.0
H770 H 0.69058 0.55108 0.17299 0.0
H771 H 0.74759 0.54375 0.17307 0.0
H772 H 0.71285 0.49993 0.17576 0.0
O773 O 0.63922 0.65494 0.18434 0.0
O774 O 0.62847 0.64924 0.19892 0.0
H775 H 0.67435 0.5381 0.21199 0.0
H776 H 0.72145 0.50484 0.21146 0.0
C777 C 0.70864 0.53726 0.21017 0.0
H778 H 0.72572 0.56062 0.21443 0.0
H779 H 0.62213 0.60692 0.21685 0.0
O780 O 0.69823 0.62959 0.16877 0.0
C781 C 0.61485 0.65704 0.19109 0.0
Co782 Co 0.60605 0.45263 0.43268 0.0
Co783 Co 0.60173 0.46172 0.45394 0.0
C784 C 0.537 0.50294 0.44192 0.0
O785 O 0.55375 0.48873 0.43473 0.0
O786 O 0.55399 0.4962 0.44951 0.0
C787 C 0.62191 0.46842 0.41303 0.0
O788 O 0.61493 0.50936 0.4142 0.0
C789 C 0.57725 0.48362 0.47247 0.0
C790 C 0.61462 0.43636 0.48006 0.0
C791 C 0.58267 0.46661 0.48099 0.0
N792 N 0.6041 0.46371 0.46681 0.0
N793 N 0.62656 0.43576 0.47144 0.0
C794 C 0.54697 0.51797 0.4697 0.0
H795 H 0.56162 0.53768 0.46439 0.0
H796 H 0.53857 0.5388 0.47543 0.0
H797 H 0.51749 0.50314 0.46702 0.0
C798 C 0.69607 0.47458 0.43654 0.0
N799 N 0.65522 0.47081 0.43923 0.0
N800 N 0.65364 0.47495 0.44799 0.0
C801 C 0.69335 0.48223 0.45109 0.0
C802 C 0.72161 0.48183 0.44397 0.0
C803 C 0.71077 0.46508 0.42725 0.0
H804 H 0.6971 0.43424 0.42502 0.0
H805 H 0.69903 0.49041 0.42271 0.0
H806 H 0.746 0.46326 0.42676 0.0
O807 O 0.58978 0.39553 0.43674 0.0
O808 O 0.58562 0.40246 0.45144 0.0
H809 H 0.70921 0.45599 0.4638 0.0
H810 H 0.73441 0.50629 0.46148 0.0
C811 C 0.70442 0.48778 0.46073 0.0
H812 H 0.67821 0.5044 0.46428 0.0
H813 H 0.64806 0.41423 0.46862 0.0
O814 O 0.61928 0.44322 0.41966 0.0
C815 C 0.58187 0.38017 0.4444 0.0
Co816 Co 0.22086 0.35961 0.21302 0.0
Co817 Co 0.20016 0.36006 0.19243 0.0
C818 C 0.25605 0.2951 0.19903 0.0
O819 O 0.24838 0.30981 0.20681 0.0
O820 O 0.24309 0.31456 0.19208 0.0
C821 C 0.27434 0.33807 0.22778 0.0
O822 O 0.29958 0.32451 0.22139 0.0
C823 C 0.1906 0.36967 0.17262 0.0
C824 C 0.1233 0.39062 0.17209 0.0
C825 C 0.15827 0.38189 0.16677 0.0
N826 N 0.17529 0.37176 0.18101 0.0
N827 N 0.13504 0.38415 0.1806 0.0
C828 C 0.2345 0.35455 0.17032 0.0
H829 H 0.24734 0.33376 0.17565 0.0
H830 H 0.25593 0.38252 0.16965 0.0
H831 H 0.23426 0.33693 0.16389 0.0
C832 C 0.23262 0.45293 0.20914 0.0
N833 N 0.22685 0.41198 0.20661 0.0
N834 N 0.22009 0.411 0.19793 0.0
C835 C 0.22272 0.45088 0.19465 0.0
C836 C 0.23038 0.47891 0.20162 0.0
C837 C 0.23696 0.46702 0.21863 0.0
H838 H 0.25811 0.4447 0.22229 0.0
H839 H 0.24978 0.49998 0.21904 0.0
H840 H 0.20511 0.46615 0.22184 0.0
O841 O 0.16049 0.34381 0.21378 0.0
O842 O 0.15282 0.33438 0.1992 0.0
H843 H 0.17845 0.45903 0.18395 0.0
H844 H 0.22243 0.49562 0.18358 0.0
C845 C 0.21317 0.4624 0.18516 0.0
H846 H 0.23044 0.44044 0.18064 0.0
H847 H 0.11553 0.3883 0.18617 0.0
O848 O 0.24121 0.35935 0.22568 0.0
C849 C 0.13917 0.33054 0.20714 0.0
Co850 Co 0.38582 0.46057 0.96237 0.0
Co851 Co 0.38141 0.43959 0.94176 0.0
C852 C 0.44982 0.49405 0.94841 0.0
O853 O 0.4351 0.48934 0.95629 0.0
O854 O 0.43073 0.47818 0.94167 0.0
C855 C 0.4064 0.51076 0.97805 0.0
O856 O 0.41711 0.54028 0.97226 0.0
C857 C 0.3728 0.43554 0.92194 0.0
C858 C 0.34026 0.37328 0.92062 0.0
C859 C 0.35577 0.40726 0.91571 0.0
N860 N 0.36723 0.41887 0.93013 0.0
N861 N 0.34809 0.38156 0.92927 0.0
C862 C 0.39136 0.47875 0.9203 0.0
H863 H 0.38756 0.4992 0.92629 0.0
H864 H 0.37584 0.4941 0.91447 0.0
H865 H 0.42596 0.47541 0.9189 0.0
C866 C 0.29146 0.47331 0.95884 0.0
N867 N 0.33245 0.46833 0.9562 0.0
N868 N 0.3329 0.4632 0.94747 0.0
C869 C 0.29297 0.46663 0.94428 0.0
C870 C 0.26499 0.47173 0.95134 0.0
C871 C 0.27763 0.47437 0.96838 0.0
H872 H 0.30345 0.46263 0.97281 0.0
H873 H 0.26988 0.50775 0.97024 0.0
H874 H 0.24844 0.45484 0.96931 0.0
O875 O 0.40036 0.3998 0.96256 0.0
O876 O 0.39981 0.38757 0.94802 0.0
H877 H 0.27875 0.43157 0.93237 0.0
H878 H 0.25091 0.48161 0.93329 0.0
C879 C 0.28169 0.4652 0.93457 0.0
H880 H 0.30696 0.48096 0.9306 0.0
H881 H 0.33987 0.36192 0.93461 0.0
O882 O 0.38795 0.47706 0.97528 0.0
C883 C 0.40586 0.37497 0.95597 0.0
Co884 Co 0.27384 0.62978 0.71363 0.0
Co885 Co 0.29869 0.62523 0.69323 0.0
C886 C 0.2469 0.69633 0.69956 0.0
O887 O 0.24979 0.68082 0.70741 0.0
O888 O 0.26229 0.67669 0.69284 0.0
C889 C 0.22078 0.65221 0.72863 0.0
O890 O 0.1942 0.66555 0.72245 0.0
C891 C 0.30619 0.61463 0.67347 0.0
C892 C 0.36884 0.58238 0.67282 0.0
C893 C 0.3355 0.59677 0.66756 0.0
N894 N 0.32162 0.61045 0.68181 0.0
N895 N 0.35923 0.59155 0.68134 0.0
C896 C 0.26302 0.63238 0.6714 0.0
H897 H 0.24198 0.63005 0.67733 0.0
H898 H 0.24843 0.61521 0.66568 0.0
H899 H 0.26626 0.66656 0.66961 0.0
C900 C 0.25523 0.53753 0.7099 0.0
N901 N 0.26403 0.57776 0.70727 0.0
N902 N 0.27147 0.57752 0.69861 0.0
C903 C 0.26585 0.53771 0.69544 0.0
C904 C 0.25592 0.51089 0.70247 0.0
C905 C 0.25069 0.52438 0.71943 0.0
H906 H 0.22937 0.54704 0.72296 0.0
H907 H 0.23791 0.49146 0.71996 0.0
H908 H 0.28243 0.52579 0.72271 0.0
O909 O 0.33507 0.64082 0.71454 0.0
O910 O 0.34985 0.64159 0.70011 0.0
H911 H 0.26114 0.49265 0.68451 0.0
H912 H 0.26152 0.54806 0.68135 0.0
C913 C 0.27498 0.52435 0.68605 0.0
H914 H 0.30997 0.52247 0.68507 0.0
H915 H 0.37806 0.5842 0.68687 0.0
O916 O 0.25396 0.63164 0.72629 0.0
C917 C 0.36121 0.64635 0.70819 0.0
Co918 Co 0.10442 0.52887 0.46277 0.0
Co919 Co 0.11283 0.54756 0.44218 0.0
C920 C 0.03999 0.49932 0.44836 0.0
O921 O 0.054 0.50452 0.45629 0.0
O922 O 0.06112 0.51227 0.44163 0.0
C923 C 0.07911 0.47644 0.47743 0.0
O924 O 0.06644 0.45106 0.47098 0.0
C925 C 0.12639 0.55189 0.42252 0.0
C926 C 0.161 0.61322 0.42172 0.0
C927 C 0.14584 0.57985 0.41655 0.0
N928 N 0.13034 0.56815 0.43079 0.0
N929 N 0.15074 0.6049 0.43023 0.0
C930 C 0.10715 0.50921 0.4206 0.0
H931 H 0.10831 0.48878 0.42664 0.0
H932 H 0.12415 0.49328 0.41502 0.0
H933 H 0.07322 0.51352 0.41868 0.0
C934 C 0.19659 0.50661 0.45992 0.0
N935 N 0.15705 0.51593 0.45693 0.0
N936 N 0.1586 0.52046 0.44819 0.0
C937 C 0.19847 0.51234 0.44535 0.0
C938 C 0.22407 0.50384 0.45266 0.0
C939 C 0.20842 0.50469 0.46957 0.0
H940 H 0.20607 0.53717 0.47249 0.0
H941 H 0.18548 0.48399 0.47317 0.0
H942 H 0.24137 0.49244 0.47048 0.0
O943 O 0.09493 0.59083 0.46306 0.0
O944 O 0.09634 0.60012 0.44844 0.0
H945 H 0.21732 0.55243 0.43453 0.0
H946 H 0.24407 0.50178 0.43471 0.0
C947 C 0.21317 0.51796 0.43592 0.0
H948 H 0.18908 0.50469 0.43128 0.0
H949 H 0.15816 0.62412 0.43571 0.0
O950 O 0.10031 0.50972 0.47545 0.0
C951 C 0.09069 0.61462 0.45627 0.0
Co952 Co 0.21664 0.64748 0.30366 0.0
Co953 Co 0.1996 0.63841 0.32432 0.0
C954 C 0.24822 0.71057 0.31828 0.0
O955 O 0.24195 0.69655 0.31039 0.0
O956 O 0.23574 0.68959 0.32506 0.0
C957 C 0.22479 0.69321 0.28862 0.0
O958 O 0.20323 0.71671 0.29431 0.0
C959 C 0.19223 0.62262 0.34403 0.0
C960 C 0.12908 0.59119 0.34415 0.0
C961 C 0.16196 0.60439 0.34965 0.0
N962 N 0.17779 0.61979 0.33558 0.0
N963 N 0.14006 0.601 0.33574 0.0
C964 C 0.23304 0.64398 0.34664 0.0
H965 H 0.24285 0.66734 0.34149 0.0
H966 H 0.25849 0.61955 0.34723 0.0
H967 H 0.2296 0.66024 0.35318 0.0
C968 C 0.23714 0.55449 0.30619 0.0
N969 N 0.22942 0.59424 0.30927 0.0
N970 N 0.22567 0.59253 0.31803 0.0
C971 C 0.23293 0.55237 0.32079 0.0
C972 C 0.23979 0.5267 0.31341 0.0
C973 C 0.23712 0.54265 0.29653 0.0
H974 H 0.20374 0.53721 0.29434 0.0
H975 H 0.25057 0.56904 0.29249 0.0
H976 H 0.25558 0.51288 0.29542 0.0
O977 O 0.15467 0.65651 0.30352 0.0
O978 O 0.14726 0.65693 0.31818 0.0
H979 H 0.19332 0.53337 0.33167 0.0
H980 H 0.24408 0.50688 0.33142 0.0
C981 C 0.22772 0.53769 0.33023 0.0
H982 H 0.24106 0.56187 0.33484 0.0
H983 H 0.12163 0.59496 0.33008 0.0
O984 O 0.23616 0.65588 0.29104 0.0
C985 C 0.13194 0.66222 0.31041 0.0
Co986 Co 0.10303 0.46981 0.0542 0.0
Co987 Co 0.11216 0.44142 0.07435 0.0
C988 C 0.04137 0.49631 0.06925 0.0
O989 O 0.05562 0.49506 0.0613 0.0
O990 O 0.06115 0.47794 0.0756 0.0
C991 C 0.0574 0.48977 0.03946 0.0
O992 O 0.03012 0.47236 0.04501 0.0
C993 C 0.12532 0.43324 0.09389 0.0
C994 C 0.15888 0.37126 0.09444 0.0
C995 C 0.14395 0.40421 0.09974 0.0
N996 N 0.12938 0.41801 0.08554 0.0
N997 N 0.14915 0.38083 0.08594 0.0
C998 C 0.10679 0.47601 0.09603 0.0
H999 H 0.10998 0.49768 0.09022 0.0
H1000 H 0.12281 0.49024 0.10193 0.0
H1001 H 0.07234 0.47227 0.09753 0.0
C1002 C 0.19596 0.48862 0.05712 0.0
N1003 N 0.15654 0.47824 0.06001 0.0
N1004 N 0.15861 0.4693 0.0686 0.0
C1005 C 0.19886 0.47529 0.07147 0.0
C1006 C 0.22394 0.48725 0.06432 0.0
C1007 C 0.20718 0.49559 0.04755 0.0
H1008 H 0.20881 0.46423 0.04413 0.0
H1009 H 0.18194 0.51475 0.04425 0.0
H1010 H 0.23853 0.51177 0.04692 0.0
O1011 O 0.09043 0.40882 0.05313 0.0
O1012 O 0.09381 0.39112 0.06741 0.0
H1013 H 0.21687 0.43048 0.08152 0.0
H1014 H 0.24607 0.47976 0.08199 0.0
C1015 C 0.21427 0.46551 0.0807 0.0
H1016 H 0.19135 0.47815 0.08566 0.0
H1017 H 0.15647 0.3622 0.08037 0.0
O1018 O 0.09637 0.49314 0.04182 0.0
C1019 C 0.08651 0.38147 0.05931 0.0
Co1020 Co 0.28201 0.35665 0.80272 0.0
Co1021 Co 0.31184 0.36196 0.82292 0.0
C1022 C 0.25862 0.29055 0.81705 0.0
O1023 O 0.25935 0.30576 0.80916 0.0
O1024 O 0.27601 0.31029 0.82353 0.0
C1025 C 0.22649 0.33127 0.78851 0.0
O1026 O 0.2037 0.31648 0.79518 0.0
C1027 C 0.32043 0.37362 0.84267 0.0
C1028 C 0.38588 0.39968 0.84327 0.0
C1029 C 0.35142 0.38866 0.84856 0.0
N1030 N 0.33589 0.37636 0.8343 0.0
N1031 N 0.37506 0.3918 0.83475 0.0
C1032 C 0.27767 0.35542 0.84494 0.0
H1033 H 0.26639 0.33381 0.83959 0.0
H1034 H 0.25427 0.38176 0.84561 0.0
H1035 H 0.2791 0.33787 0.85136 0.0
C1036 C 0.26206 0.4485 0.80665 0.0
N1037 N 0.2731 0.40865 0.80918 0.0
N1038 N 0.28334 0.40936 0.81772 0.0
C1039 C 0.2779 0.44914 0.82091 0.0
C1040 C 0.26454 0.47535 0.81404 0.0
C1041 C 0.25335 0.46116 0.79722 0.0
H1042 H 0.23081 0.43814 0.79415 0.0
H1043 H 0.24007 0.49395 0.79685 0.0
H1044 H 0.28356 0.45977 0.79338 0.0
O1045 O 0.34322 0.34547 0.80136 0.0
O1046 O 0.36169 0.34602 0.81563 0.0
H1047 H 0.32521 0.46215 0.83082 0.0
H1048 H 0.27896 0.49598 0.83158 0.0
C1049 C 0.29002 0.46309 0.83013 0.0
H1050 H 0.27578 0.44109 0.83506 0.0
H1051 H 0.39447 0.39711 0.82921 0.0
O1052 O 0.25883 0.35444 0.79025 0.0
C1053 C 0.37099 0.34066 0.80745 0.0
Co1054 Co 0.39495 0.52804 0.55411 0.0
Co1055 Co 0.3918 0.54272 0.57497 0.0
C1056 C 0.45794 0.48929 0.56807 0.0
O1057 O 0.44366 0.49902 0.56035 0.0
O1058 O 0.43812 0.50038 0.57512 0.0
C1059 C 0.41824 0.47776 0.53893 0.0
O1060 O 0.431 0.45124 0.54516 0.0
C1061 C 0.37934 0.55051 0.59483 0.0
C1062 C 0.3542 0.61637 0.59526 0.0
C1063 C 0.36441 0.58196 0.60063 0.0
N1064 N 0.37739 0.5658 0.58643 0.0
N1065 N 0.36247 0.60519 0.5868 0.0
C1066 C 0.39679 0.50757 0.59719 0.0
H1067 H 0.41875 0.49607 0.59192 0.0
H1068 H 0.37006 0.48455 0.59774 0.0
H1069 H 0.41378 0.50881 0.60368 0.0
C1070 C 0.30132 0.51401 0.55738 0.0
N1071 N 0.34192 0.51978 0.56015 0.0
N1072 N 0.34204 0.52344 0.56892 0.0
C1073 C 0.30201 0.5186 0.57199 0.0
C1074 C 0.27471 0.5129 0.56482 0.0
C1075 C 0.2881 0.51252 0.54781 0.0
H1076 H 0.31119 0.49311 0.54393 0.0
H1077 H 0.25547 0.49918 0.54708 0.0
H1078 H 0.28853 0.54537 0.54506 0.0
O1079 O 0.41073 0.58857 0.55419 0.0
O1080 O 0.41764 0.5919 0.56888 0.0
H1081 H 0.28966 0.55826 0.58329 0.0
H1082 H 0.2573 0.51109 0.58294 0.0
C1083 C 0.28957 0.52386 0.58158 0.0
H1084 H 0.31292 0.50717 0.58589 0.0
H1085 H 0.35779 0.6245 0.58121 0.0
O1086 O 0.39709 0.51069 0.54121 0.0
C1087 C 0.42288 0.60792 0.56118 0.0
H1088 H 0.38941 0.22216 0.3091 0.0
H1089 H 0.42016 0.17479 0.33541 0.0
H1090 H 0.45392 0.26478 0.30914 0.0
H1091 H 0.48605 0.21603 0.33529 0.0
H1092 H 0.57929 0.32523 0.33632 0.0
H1093 H 0.51104 0.28791 0.33618 0.0
H1094 H 0.52835 0.2586 0.30821 0.0
H1095 H 0.59501 0.29731 0.30823 0.0
C1096 C 0.41046 0.22015 0.31482 0.0
C1097 C 0.39984 0.19507 0.32225 0.0
C1098 C 0.44746 0.24464 0.31485 0.0
C1099 C 0.47504 0.24401 0.32224 0.0
C1100 C 0.46498 0.21797 0.32958 0.0
C1101 C 0.42756 0.19393 0.3296 0.0
C1102 C 0.56805 0.31144 0.33011 0.0
C1103 C 0.59258 0.3141 0.3223 0.0
C1104 C 0.52923 0.28966 0.33006 0.0
C1105 C 0.51453 0.26982 0.32221 0.0
C1106 C 0.53843 0.27389 0.31434 0.0
C1107 C 0.57682 0.29605 0.31437 0.0
H1108 H 0.9215 0.32173 0.58682 0.0
H1109 H 0.96666 0.34783 0.56013 0.0
H1110 H 0.96173 0.25503 0.58688 0.0
H1111 H 0.00828 0.28289 0.56036 0.0
H1112 H 0.0384 0.14221 0.55962 0.0
H1113 H 4e-05 0.209 0.55971 0.0
H1114 H 0.03285 0.22747 0.58749 0.0
H1115 H 0.06979 0.15892 0.58752 0.0
C1116 C 0.93993 0.31317 0.58098 0.0
C1117 C 0.9406 0.33973 0.57344 0.0
C1118 C 0.96339 0.27529 0.58105 0.0
C1119 C 0.98835 0.2637 0.57364 0.0
C1120 C 0.98881 0.29038 0.56612 0.0
C1121 C 0.9649 0.32771 0.56599 0.0
C1122 C 0.03798 0.16065 0.56573 0.0
C1123 C 0.05707 0.1452 0.57358 0.0
C1124 C 0.016 0.19914 0.56578 0.0
C1125 C 0.0132 0.22355 0.57361 0.0
C1126 C 0.03372 0.20897 0.58138 0.0
C1127 C 0.05529 0.16999 0.58138 0.0
H1128 H 0.89917 0.69522 0.80694 0.0
H1129 H 0.9212 0.66418 0.83468 0.0
H1130 H 0.96368 0.73794 0.80679 0.0
H1131 H 0.98674 0.70581 0.83443 0.0
H1132 H 0.06772 0.82476 0.83446 0.0
H1133 H 0.00385 0.78074 0.83386 0.0
H1134 H 0.03983 0.73633 0.8076 0.0
H1135 H 0.10284 0.7814 0.80806 0.0
C1136 C 0.91829 0.69669 0.81296 0.0
C1137 C 0.90486 0.67668 0.82086 0.0
C1138 C 0.95532 0.7212 0.81286 0.0
C1139 C 0.97987 0.72581 0.82064 0.0
C1140 C 0.96779 0.70376 0.8284 0.0
C1141 C 0.93053 0.67954 0.82852 0.0
C1142 C 0.06165 0.80605 0.82852 0.0
C1143 C 0.0903 0.80645 0.82133 0.0
C1144 C 0.02537 0.78046 0.82821 0.0
C1145 C 0.01726 0.75451 0.82075 0.0
C1146 C 0.0451 0.75612 0.81343 0.0
C1147 C 0.08118 0.78202 0.81369 0.0
H1148 H 0.45428 0.84896 0.05636 0.0
H1149 H 0.42116 0.82024 0.08371 0.0
H1150 H 0.49828 0.78515 0.05574 0.0
H1151 H 0.46412 0.75571 0.08299 0.0
H1152 H 0.58236 0.67578 0.08302 0.0
H1153 H 0.53979 0.74062 0.08253 0.0
H1154 H 0.49734 0.70825 0.05591 0.0
H1155 H 0.54094 0.64409 0.05629 0.0
C1156 C 0.4556 0.82853 0.06217 0.0
C1157 C 0.43461 0.83983 0.07012 0.0
C1158 C 0.48087 0.79199 0.06182 0.0
C1159 C 0.4853 0.76594 0.06937 0.0
C1160 C 0.46227 0.7759 0.07714 0.0
C1161 C 0.43729 0.81258 0.07752 0.0
C1162 C 0.56451 0.68288 0.07701 0.0
C1163 C 0.5647 0.6547 0.06973 0.0
C1164 C 0.53976 0.71974 0.07676 0.0
C1165 C 0.51448 0.72894 0.06926 0.0
C1166 C 0.51651 0.702 0.06179 0.0
C1167 C 0.54157 0.66527 0.062 0.0
H1168 H 0.58183 0.6941 0.17615 0.0
H1169 H 0.55157 0.66303 0.20354 0.0
H1170 H 0.51879 0.73888 0.1753 0.0
H1171 H 0.48755 0.70671 0.20256 0.0
H1172 H 0.41517 0.82999 0.20247 0.0
H1173 H 0.47679 0.78292 0.20206 0.0
H1174 H 0.44219 0.74282 0.1754 0.0
H1175 H 0.38126 0.79105 0.17571 0.0
C1176 C 0.56113 0.6959 0.18192 0.0
C1177 C 0.57206 0.67564 0.18997 0.0
C1178 C 0.52497 0.7216 0.18142 0.0
C1179 C 0.49887 0.72712 0.18893 0.0
C1180 C 0.50791 0.70409 0.19675 0.0
C1181 C 0.54428 0.6787 0.19728 0.0
C1182 C 0.42121 0.81171 0.19647 0.0
C1183 C 0.39339 0.81398 0.18914 0.0
C1184 C 0.45611 0.78433 0.19627 0.0
C1185 C 0.46361 0.75837 0.18879 0.0
C1186 C 0.43715 0.7624 0.18127 0.0
C1187 C 0.40241 0.79018 0.18143 0.0
H1188 H 0.57857 0.31868 0.43152 0.0
H1189 H 0.53912 0.34652 0.45855 0.0
H1190 H 0.53575 0.25393 0.4317 0.0
H1191 H 0.49512 0.28279 0.45861 0.0
H1192 H 0.45063 0.14381 0.45787 0.0
H1193 H 0.49549 0.20684 0.45849 0.0
H1194 H 0.46097 0.23731 0.43129 0.0
H1195 H 0.41729 0.17322 0.43054 0.0
C1196 C 0.56106 0.31076 0.43752 0.0
C1197 C 0.56199 0.33777 0.445 0.0
C1198 C 0.53615 0.27398 0.43759 0.0
C1199 C 0.51139 0.26375 0.4451 0.0
C1200 C 0.51396 0.28969 0.45273 0.0
C1201 C 0.53923 0.32623 0.4527 0.0
C1202 C 0.4521 0.16425 0.45205 0.0
C1203 C 0.43067 0.15341 0.44413 0.0
C1204 C 0.47786 0.20039 0.45242 0.0
C1205 C 0.4823 0.22666 0.44489 0.0
C1206 C 0.45911 0.21701 0.43712 0.0
C1207 C 0.43369 0.1806 0.43672 0.0
H1208 H 0.07174 0.17305 0.68296 0.0
H1209 H 0.11528 0.21683 0.70879 0.0
H1210 H 0.01368 0.22464 0.68347 0.0
H1211 H 0.05877 0.26959 0.7091 0.0
H1212 H 0.92121 0.32108 0.71049 0.0
H1213 H 0.98457 0.27696 0.7106 0.0
H1214 H 0.00161 0.29959 0.68237 0.0
H1215 H 0.93672 0.34232 0.68218 0.0
C1216 C 0.06874 0.19351 0.68876 0.0
C1217 C 0.09788 0.19074 0.69584 0.0
C1218 C 0.03595 0.22353 0.68899 0.0
C1219 C 0.03208 0.25175 0.69626 0.0
C1220 C 0.06064 0.24818 0.70343 0.0
C1221 C 0.09298 0.21777 0.70326 0.0
C1222 C 0.93901 0.31759 0.70434 0.0
C1223 C 0.92356 0.33447 0.69629 0.0
C1224 C 0.97543 0.29219 0.70441 0.0
C1225 C -0.00252 0.28383 0.69644 0.0
C1226 C 0.9844 0.30426 0.68855 0.0
C1227 C 0.9476 0.32919 0.68846 0.0
H1228 H 0.0675 0.83389 0.95978 0.0
H1229 H 0.09023 0.81508 0.9316 0.0
H1230 H 0.02229 0.77132 0.96003 0.0
H1231 H 0.04646 0.75094 0.93193 0.0
H1232 H 0.9222 0.67828 0.93245 0.0
H1233 H 0.97178 0.738 0.93292 0.0
H1234 H 0.01575 0.69695 0.9589 0.0
H1235 H 0.96486 0.63872 0.95861 0.0
C1236 C 0.06399 0.81557 0.95369 0.0
C1237 C 0.0819 0.82973 0.94563 0.0
C1238 C 0.03797 0.77963 0.95384 0.0
C1239 C 0.02997 0.75671 0.94595 0.0
C1240 C 0.05089 0.76879 0.93806 0.0
C1241 C 0.07642 0.80515 0.93788 0.0
C1242 C 0.94197 0.68254 0.93831 0.0
C1243 C 0.93961 0.65393 0.94549 0.0
C1244 C 0.97083 0.71632 0.93854 0.0
C1245 C -0.00168 0.72172 0.94588 0.0
C1246 C 0.99489 0.69388 0.95317 0.0
C1247 C 0.96558 0.66054 0.95301 0.0
H1248 H 0.38889 0.68423 0.72366 0.0
H1249 H 0.42797 0.65323 0.69674 0.0
H1250 H 0.45042 0.73185 0.72514 0.0
H1251 H 0.48892 0.70057 0.69828 0.0
H1252 H 0.54378 0.83144 0.69809 0.0
H1253 H 0.48355 0.7832 0.69958 0.0
H1254 H 0.53569 0.73461 0.72423 0.0
H1255 H 0.59656 0.78315 0.72277 0.0
C1256 C 0.41117 0.6866 0.71816 0.0
C1257 C 0.40319 0.66566 0.71002 0.0
C1258 C 0.44618 0.71395 0.71902 0.0
C1259 C 0.47339 0.7206 0.71173 0.0
C1260 C 0.46758 0.6967 0.70391 0.0
C1261 C 0.43287 0.66942 0.70305 0.0
C1262 C 0.54205 0.8112 0.70394 0.0
C1263 C 0.57525 0.81048 0.71023 0.0
C1264 C 0.50775 0.78342 0.70475 0.0
C1265 C 0.50591 0.75449 0.71188 0.0
C1266 C 0.53683 0.75644 0.71863 0.0
C1267 C 0.57143 0.78434 0.71781 0.0
H1268 H 0.06402 0.65565 0.47153 0.0
H1269 H 0.07765 0.67197 0.44302 0.0
H1270 H 0.02584 0.72362 0.47237 0.0
H1271 H 0.03811 0.73759 0.44377 0.0
H1272 H 0.98951 0.86706 0.44662 0.0
H1273 H 0.03883 0.80809 0.4482 0.0
H1274 H 0.95757 0.75258 0.46842 0.0
H1275 H 0.90949 0.81418 0.46724 0.0
C1276 C 0.05938 0.67392 0.46548 0.0
C1277 C 0.0737 0.6583 0.45721 0.0
C1278 C 0.03709 0.71257 0.46594 0.0
C1279 C 0.02867 0.73605 0.45814 0.0
C1280 C 0.04457 0.72099 0.44996 0.0
C1281 C 0.06711 0.68294 0.44952 0.0
C1282 C 0.98222 0.8422 0.4514 0.0
C1283 C 0.94531 0.84431 0.45665 0.0
C1284 C 0.01045 0.80836 0.45231 0.0
C1285 C 0.00175 0.77499 0.45829 0.0
C1286 C 0.96538 0.77785 0.46378 0.0
C1287 C 0.93759 0.81268 0.46305 0.0
H1288 H 0.90364 0.1949 0.22107 0.0
H1289 H 0.93343 0.17241 0.19328 0.0
H1290 H 0.9721 0.23142 0.22294 0.0
H1291 H 6e-05 0.20979 0.19505 0.0
H1292 H 0.12936 0.25258 0.20031 0.0
H1293 H 0.06821 0.20555 0.20159 0.0
H1294 H 0.00483 0.29864 0.21829 0.0
H1295 H 0.06805 0.34484 0.2174 0.0
C1296 C 0.92493 0.19727 0.21541 0.0
C1297 C 0.91306 0.18091 0.20702 0.0
C1298 C 0.96388 0.2185 0.21646 0.0
C1299 C 0.99149 0.22353 0.20916 0.0
C1300 C 0.98001 0.20586 0.20088 0.0
C1301 C 0.94148 0.18463 0.19984 0.0
C1302 C 0.10241 0.26277 0.20431 0.0
C1303 C 0.10258 0.30251 0.20858 0.0
C1304 C 0.06742 0.23592 0.20504 0.0
C1305 C 0.03126 0.24879 0.20986 0.0
C1306 C 0.03229 0.28779 0.21454 0.0
C1307 C 0.06809 0.31438 0.21398 0.0
H1308 H 0.5338 0.13408 0.96976 0.0
H1309 H 0.58049 0.18051 0.94442 0.0
H1310 H 0.48839 0.19735 0.97112 0.0
H1311 H 0.53556 0.24327 0.94583 0.0
H1312 H 0.44515 0.34428 0.97102 0.0
H1313 H 0.48974 0.2803 0.972 0.0
H1314 H 0.45475 0.24668 0.94502 0.0
H1315 H 0.41065 0.31019 0.94398 0.0
C1316 C 0.53514 0.1582 0.9646 0.0
C1317 C 0.56011 0.15206 0.95691 0.0
C1318 C 0.50909 0.19423 0.96537 0.0
C1319 C 0.50778 0.22438 0.95847 0.0
C1320 C 0.53519 0.21978 0.95113 0.0
C1321 C 0.56109 0.184 0.95035 0.0
C1322 C 0.44624 0.32268 0.96538 0.0
C1323 C 0.42503 0.33258 0.95736 0.0
C1324 C 0.47182 0.28623 0.96594 0.0
C1325 C 0.47642 0.25942 0.95851 0.0
C1326 C 0.45257 0.2676 0.95077 0.0
C1327 C 0.42713 0.3038 0.95019 0.0
H1328 H 0.60042 0.19691 0.79173 0.0
H1329 H 0.55371 0.15632 0.8175 0.0
H1330 H 0.54006 0.24616 0.79039 0.0
H1331 H 0.49397 0.20531 0.81612 0.0
H1332 H 0.44114 0.33665 0.81807 0.0
H1333 H 0.50112 0.28818 0.81636 0.0
H1334 H 0.45463 0.25036 0.79042 0.0
H1335 H 0.39407 0.29909 0.79208 0.0
C1336 C 0.57667 0.19751 0.79697 0.0
C1337 C 0.58218 0.17336 0.8048 0.0
C1338 C 0.54236 0.22584 0.79621 0.0
C1339 C 0.51339 0.23024 0.80328 0.0
C1340 C 0.51671 0.2032 0.8107 0.0
C1341 C 0.55071 0.17496 0.81145 0.0
C1342 C 0.44411 0.31881 0.8119 0.0
C1343 C 0.41246 0.32106 0.80529 0.0
C1344 C 0.47826 0.29087 0.81096 0.0
C1345 C 0.48152 0.26479 0.80338 0.0
C1346 C 0.45237 0.26994 0.79636 0.0
C1347 C 0.41794 0.29796 0.79731 0.0
H1348 H 0.56812 0.83529 0.54619 0.0
H1349 H 0.56605 0.82911 0.57502 0.0
H1350 H 0.53273 0.76594 0.54545 0.0
H1351 H 0.52918 0.76178 0.57429 0.0
H1352 H 0.48893 0.62837 0.57178 0.0
H1353 H 0.53523 0.6899 0.57087 0.0
H1354 H 0.46349 0.7361 0.54817 0.0
H1355 H 0.41847 0.6722 0.54877 0.0
C1356 C 0.56061 0.81896 0.55235 0.0
C1357 C 0.56978 0.83776 0.56066 0.0
C1358 C 0.5399 0.77951 0.55193 0.0
C1359 C 0.52785 0.75838 0.55981 0.0
C1360 C 0.53856 0.77663 0.56808 0.0
C1361 C 0.5596 0.81556 0.5685 0.0
C1362 C 0.48293 0.65174 0.5666 0.0
C1363 C 0.44958 0.6462 0.56046 0.0
C1364 C 0.50949 0.68705 0.56608 0.0
C1365 C 0.50265 0.7184 0.55955 0.0
C1366 C 0.46984 0.71237 0.55324 0.0
C1367 C 0.44376 0.67618 0.55363 0.0
H1368 H 0.08647 0.67951 0.29511 0.0
H1369 H 0.07972 0.68627 0.32391 0.0
H1370 H 0.01738 0.71564 0.2941 0.0
H1371 H 0.0129 0.72375 0.3229 0.0
H1372 H 0.87806 0.75777 0.32015 0.0
H1373 H 0.9413 0.7138 0.31944 0.0
H1374 H 0.98504 0.7848 0.29647 0.0
H1375 H 0.91937 0.82751 0.29688 0.0
C1376 C 0.07016 0.68837 0.30121 0.0
C1377 C 0.08849 0.67985 0.30959 0.0
C1378 C 0.03089 0.70945 0.30063 0.0
C1379 C 0.00954 0.72251 0.30841 0.0
C1380 C 0.02782 0.71335 0.31676 0.0
C1381 C 0.06647 0.69196 0.31734 0.0
C1382 C 0.90124 0.76415 0.31496 0.0
C1383 C 0.89449 0.79665 0.30869 0.0
C1384 C 0.93755 0.73894 0.31455 0.0
C1385 C 0.96874 0.74633 0.30802 0.0
C1386 C 0.9615 0.77817 0.30157 0.0
C1387 C 0.92429 0.80289 0.30184 0.0
H1388 H 0.90763 0.18894 0.06886 0.0
H1389 H 0.95112 0.14872 0.04279 0.0
H1390 H 0.95347 0.2513 0.06801 0.0
H1391 H -0.00264 0.21153 0.042 0.0
H1392 H 0.04561 0.35661 0.04398 0.0
H1393 H -0.00126 0.29471 0.04228 0.0
H1394 H 0.03477 0.25138 0.06856 0.0
H1395 H 0.08128 0.31281 0.07032 0.0
C1396 C 0.92632 0.19386 0.06287 0.0
C1397 C 0.92636 0.16358 0.05596 0.0
C1398 C 0.95278 0.22936 0.06242 0.0
C1399 C 0.97975 0.23533 0.05506 0.0
C1400 C 0.97706 0.20728 0.04778 0.0
C1401 C 0.95048 0.17153 0.04823 0.0
C1402 C 0.04432 0.33329 0.0493 0.0
C1403 C 0.06657 0.33992 0.05735 0.0
C1404 C 0.01738 0.29805 0.04833 0.0
C1405 C 0.01237 0.26917 0.05539 0.0
C1406 C 0.03725 0.27397 0.06312 0.0
C1407 C 0.06412 0.30896 0.06409 0.0
H1408 H 0.29213 0.14464 0.26802 0.0
H1409 H 0.26672 0.25665 0.28393 0.0
H1410 H 0.29197 0.18849 0.25456 0.0
H1411 H 0.26565 0.30024 0.27049 0.0
H1412 H 0.33569 0.28337 0.23382 0.0
H1413 H 0.3369 0.24464 0.24789 0.0
H1414 H 0.22405 0.31203 0.25648 0.0
H1415 H 0.22284 0.35116 0.24238 0.0
C1416 C 0.28593 0.17851 0.26864 0.0
C1417 C 0.27821 0.19678 0.27704 0.0
C1418 C 0.28614 0.20371 0.26094 0.0
C1419 C 0.27882 0.24792 0.26145 0.0
C1420 C 0.27072 0.2662 0.26985 0.0
C1421 C 0.2708 0.24101 0.27756 0.0
C1422 C 0.31144 0.29052 0.23875 0.0
C1423 C 0.27899 0.32026 0.23692 0.0
C1424 C 0.31193 0.26794 0.24678 0.0
C1425 C 0.28015 0.27468 0.25324 0.0
C1426 C 0.249 0.30608 0.25164 0.0
C1427 C 0.24835 0.32855 0.24356 0.0
H1428 H 0.89781 0.96064 0.49128 0.0
H1429 H 0.96436 0.07532 0.48347 0.0
H1430 H 0.93471 0.96196 0.50567 0.0
H1431 H 0.00077 0.0767 0.49781 0.0
H1432 H 0.09805 0.03564 0.51868 0.0
H1433 H 0.05671 0.03367 0.50489 0.0
H1434 H 0.94342 0.00259 0.51988 0.0
H1435 H 0.98458 0.00529 0.53368 0.0
C1436 C 0.9197 0.98652 0.49268 0.0
C1437 C 0.92826 0.01771 0.48617 0.0
C1438 C 0.94088 0.98725 0.50093 0.0
C1439 C 0.97126 0.01903 0.50284 0.0
C1440 C 0.9783 0.05122 0.49649 0.0
C1441 C 0.95705 0.05063 0.48828 0.0
C1442 C 0.0644 0.02799 0.51903 0.0
C1443 C 0.04502 0.01962 0.5273 0.0
C1444 C 0.0406 0.02716 0.51113 0.0
C1445 C -0.00335 0.01813 0.51127 0.0
C1446 C 0.97731 0.00906 0.51952 0.0
C1447 C 0.00113 0.01013 0.52744 0.0
H1448 H 0.15038 0.68573 0.73682 0.0
H1449 H 0.28391 0.6592 0.74115 0.0
H1450 H 0.14736 0.72352 0.75102 0.0
H1451 H 0.28177 0.6989 0.75506 0.0
H1452 H 0.2632 0.75316 0.78257 0.0
H1453 H 0.26113 0.70593 0.76974 0.0
H1454 H 0.16774 0.78807 0.75725 0.0
H1455 H 0.16712 0.83305 0.77045 0.0
C1456 C 0.17903 0.6877 0.74084 0.0
C1457 C 0.21734 0.66943 0.73784 0.0
C1458 C 0.17751 0.70989 0.74895 0.0
C1459 C 0.21448 0.71513 0.7542 0.0
C1460 C 0.25241 0.69532 0.75133 0.0
C1461 C 0.25371 0.6725 0.7433 0.0
C1462 C 0.24115 0.76042 0.77724 0.0
C1463 C 0.21421 0.79623 0.77773 0.0
C1464 C 0.24061 0.73369 0.76974 0.0
C1465 C 0.21397 0.74263 0.7624 0.0
C1466 C 0.18784 0.77916 0.76282 0.0
C1467 C 0.18789 0.80544 0.77038 0.0
H1468 H 0.4947 0.96419 0.03216 0.0
H1469 H 0.37672 0.98544 0.01803 0.0
H1470 H 0.53405 0.96774 0.01812 0.0
H1471 H 0.41575 0.99061 1.00403 0.0
H1472 H 0.48431 0.95719 0.97925 0.0
H1473 H 0.45142 0.94775 0.99377 0.0
H1474 H 0.55846 0.01154 1.00619 0.0
H1475 H 0.59241 0.01888 0.99153 0.0
C1476 C 0.47733 0.97067 0.02606 0.0
C1477 C 0.43271 0.97518 0.02618 0.0
C1478 C 0.49986 0.97257 0.018 0.0
C1479 C 0.47823 0.9791 0.00988 0.0
C1480 C 0.43358 0.98444 0.01009 0.0
C1481 C 0.41111 0.98197 0.01812 0.0
C1482 C 0.5012 0.96842 0.98511 0.0
C1483 C 0.54081 0.98883 0.98428 0.0
C1484 C 0.48208 0.96357 0.99344 0.0
C1485 C 0.50157 0.97994 1.00118 0.0
C1486 C 0.54243 -0.00155 1.0004 0.0
C1487 C 0.56202 0.00261 0.99202 0.0
H1488 H 0.30261 0.86463 0.24632 0.0
H1489 H 0.25703 0.75388 0.23208 0.0
H1490 H 0.29017 0.8282 0.26046 0.0
H1491 H 0.24325 0.71788 0.24623 0.0
H1492 H 0.26317 0.65421 0.27412 0.0
H1493 H 0.28016 0.68707 0.25966 0.0
H1494 H 0.22713 0.80637 0.26887 0.0
H1495 H 0.21076 0.77429 0.28312 0.0
C1496 C 0.28953 0.83265 0.24622 0.0
C1497 C 0.27952 0.81274 0.23809 0.0
C1498 C 0.2823 0.81179 0.25431 0.0
C1499 C 0.26527 0.77028 0.25447 0.0
C1500 C 0.25637 0.74983 0.24633 0.0
C1501 C 0.26346 0.77084 0.23822 0.0
C1502 C 0.2553 0.68744 0.27303 0.0
C1503 C 0.23568 0.71155 0.27979 0.0
C1504 C 0.26481 0.7062 0.26475 0.0
C1505 C 0.25525 0.74945 0.26314 0.0
C1506 C 0.23559 0.77324 0.26992 0.0
C1507 C 0.22593 0.75461 0.2781 0.0
H1508 H 0.48605 0.00923 0.48228 0.0
H1509 H 0.36776 0.02377 0.49668 0.0
H1510 H 0.52358 0.99563 0.49629 0.0
H1511 H 0.40542 0.01155 0.51071 0.0
H1512 H 0.47346 0.93691 0.53224 0.0
H1513 H 0.43981 0.95101 0.51801 0.0
H1514 H 0.54555 0.03152 0.51049 0.0
H1515 H 0.58006 0.0169 0.5249 0.0
C1516 C 0.46791 0.00879 0.48842 0.0
C1517 C 0.42363 0.0161 0.48836 0.0
C1518 C 0.4896 0.00183 0.49646 0.0
C1519 C 0.46746 0.00213 0.5046 0.0
C1520 C 0.42331 0.01034 0.50453 0.0
C1521 C 0.40173 0.01746 0.49651 0.0
C1522 C 0.48983 0.95762 0.52759 0.0
C1523 C 0.52947 0.97597 0.52975 0.0
C1524 C 0.47027 0.9659 0.51943 0.0
C1525 C 0.4897 0.99276 0.51316 0.0
C1526 C 0.52984 0.01054 0.51519 0.0
C1527 C 0.54953 0.00231 0.52344 0.0
H1528 H 0.27271 0.3474 0.77328 0.0
H1529 H 0.16677 0.27327 0.78319 0.0
H1530 H 0.26832 0.30971 0.75903 0.0
H1531 H 0.16334 0.23481 0.76917 0.0
H1532 H 0.14585 0.19009 0.7409 0.0
H1533 H 0.14638 0.23672 0.75392 0.0
H1534 H 0.28416 0.24089 0.75297 0.0
H1535 H 0.28317 0.19505 0.73975 0.0
C1536 C 0.24816 0.32345 0.77239 0.0
C1537 C 0.22015 0.31339 0.77941 0.0
C1538 C 0.24595 0.30146 0.76425 0.0
C1539 C 0.21574 0.26879 0.76293 0.0
C1540 C 0.18672 0.26001 0.76985 0.0
C1541 C 0.18879 0.28209 0.77794 0.0
C1542 C 0.17622 0.20113 0.74347 0.0
C1543 C 0.21445 0.18924 0.73928 0.0
C1544 C 0.17659 0.22779 0.75096 0.0
C1545 C 0.21532 0.24271 0.75456 0.0
C1546 C 0.25365 0.2308 0.75032 0.0
C1547 C 0.25319 0.20439 0.74276 0.0
H1548 H 0.9135 0.03368 0.02298 0.0
H1549 H 0.97535 0.91829 0.03199 0.0
H1550 H 0.9567 0.03241 0.00942 0.0
H1551 H 0.01794 0.9168 0.01843 0.0
H1552 H 0.01629 0.98883 0.98244 0.0
H1553 H 0.97068 0.99327 0.99551 0.0
H1554 H 0.077 0.9575 0.01225 0.0
H1555 H 0.12287 0.95341 0.99913 0.0
C1556 C 0.9357 0.00762 0.02201 0.0
C1557 C 0.94103 0.97621 0.02862 0.0
C1558 C 0.96055 0.00694 0.01423 0.0
C1559 C 0.99138 0.97492 0.0129 0.0
C1560 C 0.99527 0.94252 0.01933 0.0
C1561 C 0.97043 0.94313 0.02708 0.0
C1562 C 0.03052 0.98343 0.9889 0.0
C1563 C 0.07371 0.97176 0.98972 0.0
C1564 C 0.00407 0.9855 0.99642 0.0
C1565 C 0.01999 0.97545 1.00494 0.0
C1566 C 0.06343 0.96474 1.00578 0.0
C1567 C 0.08985 0.96278 0.99826 0.0
H1568 H 0.84935 0.68889 0.77444 0.0
H1569 H 0.71198 0.69026 0.77582 0.0
H1570 H 0.84697 0.73381 0.76118 0.0
H1571 H 0.70919 0.73448 0.76239 0.0
H1572 H 0.71721 0.84037 0.74193 0.0
H1573 H 0.72334 0.80361 0.75624 0.0
H1574 H 0.82892 0.72996 0.74592 0.0
H1575 H 0.8237 0.7675 0.73181 0.0
C1576 C 0.81859 0.69878 0.77186 0.0
C1577 C 0.78087 0.68651 0.7762 0.0
C1578 C 0.81716 0.72444 0.76424 0.0
C1579 C 0.77788 0.73798 0.76067 0.0
C1580 C 0.74007 0.7255 0.76503 0.0
C1581 C 0.74158 0.70004 0.7727 0.0
C1582 C 0.74222 0.81689 0.74278 0.0
C1583 C 0.76989 0.8069 0.7357 0.0
C1584 C 0.74545 0.79543 0.75096 0.0
C1585 C 0.77635 0.7634 0.75224 0.0
C1586 C 0.80501 0.75469 0.74525 0.0
C1587 C 0.80192 0.77623 0.73712 0.0
H1588 H 0.70264 0.35639 0.26761 0.0
H1589 H 0.73366 0.2433 0.28269 0.0
H1590 H 0.70559 0.31501 0.25383 0.0
H1591 H 0.73724 0.20211 0.26892 0.0
H1592 H 0.78161 0.1565 0.24063 0.0
H1593 H 0.77875 0.19375 0.25496 0.0
H1594 H 0.6641 0.25867 0.24654 0.0
H1595 H 0.66708 0.22194 0.23224 0.0
C1596 C 0.71063 0.32282 0.26798 0.0
C1597 C 0.71899 0.30355 0.27626 0.0
C1598 C 0.71201 0.299 0.26009 0.0
C1599 C 0.72154 0.25516 0.26026 0.0
C1600 C 0.73044 0.23592 0.26853 0.0
C1601 C 0.72886 0.25976 0.27644 0.0
C1602 C 0.75542 0.17823 0.24189 0.0
C1603 C 0.72473 0.18637 0.23524 0.0
C1604 C 0.7538 0.1996 0.25011 0.0
C1605 C 0.72158 0.22973 0.25185 0.0
C1606 C 0.68989 0.23639 0.24535 0.0
C1607 C 0.69139 0.21495 0.23717 0.0
H1608 H 0.76696 0.25518 0.73249 0.0
H1609 H 0.79081 0.3639 0.74949 0.0
H1610 H 0.7627 0.20932 0.74553 0.0
H1611 H 0.78728 0.3177 0.76257 0.0
H1612 H 0.71776 0.1517 0.77279 0.0
H1613 H 0.71999 0.19426 0.75914 0.0
H1614 H 0.83125 0.2604 0.76901 0.0
H1615 H 0.82897 0.2183 0.78264 0.0
C1616 C 0.76988 0.26972 0.739 0.0
C1617 C 0.77813 0.31365 0.73992 0.0
C1618 C 0.76797 0.24315 0.7465 0.0
C1619 C 0.77491 0.25972 0.75509 0.0
C1620 C 0.78243 0.30374 0.75603 0.0
C1621 C 0.78411 0.3303 0.74854 0.0
C1622 C 0.74313 0.17481 0.77199 0.0
C1623 C 0.77303 0.18169 0.77886 0.0
C1624 C 0.74435 0.19927 0.76417 0.0
C1625 C 0.77534 0.23128 0.76306 0.0
C1626 C 0.80636 0.2367 0.76974 0.0
C1627 C 0.8053 0.21217 0.77752 0.0
H1628 H 0.77671 0.82181 0.27348 0.0
H1629 H 0.65299 0.77516 0.28155 0.0
H1630 H 0.77117 0.78118 0.25961 0.0
H1631 H 0.64712 0.73538 0.26766 0.0
H1632 H 0.66937 0.63056 0.24738 0.0
H1633 H 0.67802 0.67285 0.26095 0.0
H1634 H 0.73375 0.77477 0.2455 0.0
H1635 H 0.72509 0.73256 0.232 0.0
C1636 C 0.74799 0.80354 0.27223 0.0
C1637 C 0.71539 0.80166 0.27867 0.0
C1638 C 0.74483 0.78017 0.26427 0.0
C1639 C 0.70898 0.75437 0.26255 0.0
C1640 C 0.67567 0.75399 0.26884 0.0
C1641 C 0.67884 0.77726 0.27678 0.0
C1642 C 0.68405 0.66176 0.24691 0.0
C1643 C 0.69745 0.6776 0.23861 0.0
C1644 C 0.68865 0.68622 0.25467 0.0
C1645 C 0.70637 0.72745 0.25433 0.0
C1646 C 0.72058 0.74296 0.24605 0.0
C1647 C 0.71602 0.71843 0.23828 0.0
H1648 H 0.42525 0.44364 0.98899 0.0
H1649 H 0.4302 0.58115 0.98767 0.0
H1650 H 0.46563 0.44537 1.00297 0.0
H1651 H 0.4695 0.58273 1.00183 0.0
H1652 H 0.50263 0.55791 0.03242 0.0
H1653 H 0.45627 0.5557 0.01918 0.0
H1654 H 0.54754 0.47482 1.00584 0.0
H1655 H 0.59449 0.47827 0.01897 0.0
C1656 C 0.434 0.47429 0.99179 0.0
C1657 C 0.4244 0.51232 0.98722 0.0
C1658 C 0.45742 0.47519 0.99975 0.0
C1659 C 0.47081 0.51414 1.00344 0.0
C1660 C 0.45944 0.55228 0.99913 0.0
C1661 C 0.43693 0.55136 0.99104 0.0
C1662 C 0.51256 0.53956 0.02665 0.0
C1663 C 0.55186 0.51799 0.02669 0.0
C1664 C 0.4862 0.53842 0.0191 0.0
C1665 C 0.49827 0.51491 0.01153 0.0
C1666 C 0.53736 0.49287 0.01162 0.0
C1667 C 0.5642 0.4949 0.0191 0.0
H1668 H 0.027 0.41285 0.48342 0.0
H1669 H 0.09041 0.52808 0.49208 0.0
H1670 H 0.98973 0.40903 0.49763 0.0
H1671 H 0.05256 0.52443 0.5063 0.0
H1672 H 0.00253 0.47848 0.53387 0.0
H1673 H 0.04425 0.48282 0.52019 0.0
H1674 H 0.93253 0.44933 0.50483 0.0
H1675 H 0.89066 0.44551 0.51852 0.0
C1676 C 0.0334 0.43714 0.48839 0.0
C1677 C 0.06158 0.47091 0.48657 0.0
C1678 C 0.01166 0.43516 0.49651 0.0
C1679 C 0.01758 0.46681 0.50305 0.0
C1680 C 0.04729 0.4995 0.50141 0.0
C1681 C 0.069 0.50158 0.49326 0.0
C1682 C 0.98645 0.47341 0.52757 0.0
C1683 C 0.94287 0.46275 0.52728 0.0
C1684 C 0.01057 0.47543 0.51972 0.0
C1685 C 0.99183 0.46625 0.51141 0.0
C1686 C 0.94817 0.45597 0.51112 0.0
C1687 C 0.92407 0.4541 0.51896 0.0
H1688 H 0.9895 0.53642 0.98331 0.0
H1689 H 0.87307 0.51374 0.99783 0.0
H1690 H 0.03035 0.5315 0.99716 0.0
H1691 H 0.91359 0.50685 0.01162 0.0
H1692 H 0.98526 0.53366 0.03637 0.0
H1693 H 0.95047 0.54645 0.02214 0.0
H1694 H 0.0564 0.4865 0.00854 0.0
H1695 H 0.09229 0.47614 0.02291 0.0
C1696 C 0.97281 0.52943 0.98946 0.0
C1697 C 0.92822 0.52484 0.98951 0.0
C1698 C -0.00381 0.52667 0.99741 0.0
C1699 C 0.97547 0.51904 1.00558 0.0
C1700 C 0.93077 0.51385 1.00554 0.0
C1701 C 0.90743 0.51729 0.99762 0.0
C1702 C 0.00149 0.52415 0.03031 0.0
C1703 C 0.0414 0.50402 0.03071 0.0
C1704 C 0.98129 0.53086 0.02214 0.0
C1705 C -9e-05 0.51649 0.01414 0.0
C1706 C 0.04102 0.49817 0.01452 0.0
C1707 C 0.06174 0.49227 0.02275 0.0
H1708 H 0.60961 0.46037 0.49817 0.0
H1709 H 0.49621 0.48311 0.48249 0.0
H1710 H 0.5669 0.46243 0.51176 0.0
H1711 H 0.45379 0.48629 0.4961 0.0
H1712 H 0.40495 0.53032 0.52447 0.0
H1713 H 0.44326 0.52942 0.51023 0.0
H1714 H 0.51111 0.4164 0.51854 0.0
H1715 H 0.47315 0.41716 0.53269 0.0
C1716 C 0.5757 0.46648 0.49762 0.0
C1717 C 0.55671 0.47264 0.48922 0.0
C1718 C 0.55116 0.4674 0.50541 0.0
C1719 C 0.50688 0.47441 0.50501 0.0
C1720 C 0.4879 0.48141 0.49664 0.0
C1721 C 0.51244 0.48011 0.48883 0.0
C1722 C 0.42755 0.50489 0.5232 0.0
C1723 C 0.43608 0.47396 0.52976 0.0
C1724 C 0.44952 0.50442 0.51504 0.0
C1725 C 0.48076 0.47325 0.51332 0.0
C1726 C 0.4879 0.44136 0.51973 0.0
C1727 C 0.46578 0.44161 0.52782 0.0
H1728 H 0.31509 0.98023 0.31147 0.0
H1729 H 0.21555 0.97274 0.33123 0.0
H1730 H 0.32035 0.9025 0.31124 0.0
H1731 H 0.21984 0.89495 0.33092 0.0
H1732 H 0.25446 0.75765 0.3337 0.0
H1733 H 0.26325 0.83478 0.33484 0.0
H1734 H 0.28104 0.84215 0.3063 0.0
H1735 H 0.27378 0.76539 0.30518 0.0
C1736 C 0.29391 0.96179 0.31567 0.0
C1737 C 0.26456 0.98223 0.32129 0.0
C1738 C 0.29701 0.91729 0.31558 0.0
C1739 C 0.27063 0.89232 0.32108 0.0
C1740 C 0.24127 0.91307 0.32672 0.0
C1741 C 0.2384 0.95755 0.32684 0.0
C1742 C 0.26137 0.7756 0.3277 0.0
C1743 C 0.26294 0.75527 0.31934 0.0
C1744 C 0.26588 0.81992 0.32834 0.0
C1745 C 0.27199 0.84486 0.32064 0.0
C1746 C 0.27654 0.8241 0.31238 0.0
C1747 C 0.27224 0.77989 0.31174 0.0
H1748 H 0.26465 0.94284 0.56353 0.0
H1749 H 0.25904 0.05403 0.58049 0.0
H1750 H 0.3423 0.95034 0.56257 0.0
H1751 H 0.33688 0.06044 0.57985 0.0
H1752 H 0.48102 0.0088 0.58352 0.0
H1753 H 0.40316 0.01209 0.58471 0.0
H1754 H 0.39274 0.00998 0.556 0.0
H1755 H 0.46998 0.00749 0.55474 0.0
C1756 C 0.28008 0.96889 0.56702 0.0
C1757 C 0.25601 -0.002 0.57202 0.0
C1758 C 0.32435 0.97313 0.5665 0.0
C1759 C 0.34534 0.00614 0.5711 0.0
C1760 C 0.32138 0.03469 0.57627 0.0
C1761 C 0.27701 0.03088 0.57666 0.0
C1762 C 0.46219 0.01016 0.57746 0.0
C1763 C 0.48181 0.00739 0.56904 0.0
C1764 C 0.41768 0.01192 0.57815 0.0
C1765 C 0.39218 0.01044 0.57044 0.0
C1766 C 0.41179 0.01041 0.56204 0.0
C1767 C 0.4561 0.00929 0.56134 0.0
H1768 H 0.23409 0.23381 0.8042 0.0
H1769 H 0.25122 0.24576 0.83272 0.0
H1770 H 0.22485 0.1576 0.80578 0.0
H1771 H 0.23991 0.16921 0.83436 0.0
H1772 H 0.2779 0.02782 0.83246 0.0
H1773 H 0.27811 0.10568 0.8316 0.0
H1774 H 0.18382 0.10004 0.81053 0.0
H1775 H 0.18534 0.02238 0.8112 0.0
C1776 C 0.23471 0.22038 0.81086 0.0
C1777 C 0.24385 0.24601 0.81833 0.0
C1778 C 0.22925 0.17642 0.81177 0.0
C1779 C 0.23218 0.15687 0.8202 0.0
C1780 C 0.23854 0.18292 0.82774 0.0
C1781 C 0.2445 0.22695 0.82682 0.0
C1782 C 0.25749 0.0435 0.82763 0.0
C1783 C 0.23221 0.01938 0.82179 0.0
C1784 C 0.25715 0.08808 0.82719 0.0
C1785 C 0.23096 0.10943 0.82099 0.0
C1786 C 0.20506 0.08491 0.81526 0.0
C1787 C 0.20592 0.04039 0.81563 0.0
H1788 H 0.01331 0.98082 0.05376 0.0
H1789 H 0.0008 -0.00095 0.08224 0.0
H1790 H 0.08943 0.97097 0.05548 0.0
H1791 H 0.07725 0.98735 0.08401 0.0
H1792 H 0.21801 0.02873 0.08177 0.0
H1793 H 0.14015 0.02706 0.08102 0.0
H1794 H 0.14712 0.92984 0.06056 0.0
H1795 H 0.22481 0.93297 0.06116 0.0
C1796 C 0.02658 0.98157 0.06044 0.0
C1797 C 0.00088 0.99132 0.06785 0.0
C1798 C 0.07046 0.97573 0.06143 0.0
C1799 C 0.08979 0.97899 0.06988 0.0
C1800 C 0.06363 0.98571 0.07738 0.0
C1801 C 0.01967 0.99192 0.07638 0.0
C1802 C 0.20263 0.00719 0.07711 0.0
C1803 C 0.22711 0.98161 0.0714 0.0
C1804 C 0.15809 0.00579 0.07674 0.0
C1805 C 0.13715 0.9783 0.07071 0.0
C1806 C 0.162 0.95198 0.06515 0.0
C1807 C 0.2065 0.9538 0.06547 0.0
H1808 H 0.27463 0.23941 0.21251 0.0
H1809 H 0.27002 0.2487 0.18373 0.0
H1810 H 0.27973 0.16215 0.21135 0.0
H1811 H 0.27552 0.17115 0.18264 0.0
H1812 H 0.31282 0.02761 0.18527 0.0
H1813 H 0.32143 0.10517 0.18626 0.0
H1814 H 0.22179 0.1102 0.20611 0.0
H1815 H 0.21233 0.03293 0.20489 0.0
C1816 C 0.27587 0.2252 0.20593 0.0
C1817 C 0.27126 0.2504 0.19821 0.0
C1818 C 0.27842 0.18083 0.20528 0.0
C1819 C 0.27708 0.16066 0.19692 0.0
C1820 C 0.27645 0.18589 0.18918 0.0
C1821 C 0.27341 0.23036 0.18981 0.0
C1822 C 0.29252 0.04545 0.18978 0.0
C1823 C 0.26195 0.0244 0.19503 0.0
C1824 C 0.29761 0.08971 0.19037 0.0
C1825 C 0.27264 0.11361 0.19633 0.0
C1826 C 0.24207 0.09246 0.20158 0.0
C1827 C 0.23658 0.04834 0.20088 0.0
H1828 H 0.00431 0.02456 0.46038 0.0
H1829 H 0.99302 0.01098 0.43177 0.0
H1830 H 0.08076 0.03347 0.45892 0.0
H1831 H 0.06974 0.02137 0.43029 0.0
H1832 H 0.20828 0.97276 0.4328 0.0
H1833 H 0.13055 0.97768 0.4334 0.0
H1834 H 0.14064 0.07343 0.45409 0.0
H1835 H 0.21827 0.06751 0.45357 0.0
C1836 C 0.01789 0.02479 0.45374 0.0
C1837 C 0.99239 0.0164 0.4462 0.0
C1838 C 0.06196 0.02998 0.4529 0.0
C1839 C 0.0817 0.02727 0.4445 0.0
C1840 C 0.05576 0.02248 0.43689 0.0
C1841 C 0.01162 0.01708 0.43773 0.0
C1842 C 0.19368 0.99478 0.43746 0.0
C1843 C 0.21906 0.01924 0.44323 0.0
C1844 C 0.1492 -0.00199 0.43776 0.0
C1845 C 0.12914 0.02607 0.44379 0.0
C1846 C 0.15485 0.05103 0.44946 0.0
C1847 C 0.19931 0.04756 0.44919 0.0
H1848 H 0.16929 0.96166 0.68806 0.0
H1849 H 0.28977 0.96112 0.70202 0.0
H1850 H 0.16704 0.88343 0.68878 0.0
H1851 H 0.28614 0.8833 0.70321 0.0
H1852 H 0.23215 0.75407 0.71283 0.0
H1853 H 0.22529 0.83109 0.71134 0.0
H1854 H 0.22357 0.81874 0.68269 0.0
H1855 H 0.23169 0.74119 0.68409 0.0
C1856 C 0.19521 0.94479 0.69129 0.0
C1857 C 0.22944 0.96741 0.6951 0.0
C1858 C 0.1938 0.90021 0.69172 0.0
C1859 C 0.22616 0.87764 0.69613 0.0
C1860 C 0.26049 0.90019 0.69989 0.0
C1861 C 0.26238 0.94463 0.69928 0.0
C1862 C 0.22944 0.76741 0.70619 0.0
C1863 C 0.23287 0.74132 0.69857 0.0
C1864 C 0.22578 0.8116 0.70536 0.0
C1865 C 0.22447 0.83064 0.69691 0.0
C1866 C 0.22463 0.80462 0.68928 0.0
C1867 C 0.22917 0.7603 0.69009 0.0
H1868 H 0.49809 0.9937 0.92963 0.0
H1869 H 0.49196 0.94974 0.95694 0.0
H1870 H 0.42132 0.98364 0.92819 0.0
H1871 H 0.41548 0.94128 0.9556 0.0
H1872 H 0.27652 0.91815 0.95034 0.0
H1873 H 0.35376 0.90866 0.94945 0.0
H1874 H 0.36327 0.025 0.93408 0.0
H1875 H 0.28581 0.03333 0.93479 0.0
C1876 C 0.48063 0.98089 0.93526 0.0
C1877 C 0.50107 0.97347 0.94347 0.0
C1878 C 0.43653 0.97563 0.93446 0.0
C1879 C 0.41207 0.96287 0.94186 0.0
C1880 C 0.43319 0.95125 0.94977 0.0
C1881 C 0.47723 0.95625 0.95055 0.0
C1882 C 0.29539 0.94166 0.94682 0.0
C1883 C 0.27576 0.97685 0.94276 0.0
C1884 C 0.33949 0.93619 0.94627 0.0
C1885 C 0.36479 0.96601 0.94169 0.0
C1886 C 0.34476 0.00096 0.93752 0.0
C1887 C 0.30058 0.00617 0.93802 0.0
H1888 H 0.7862 0.23526 0.70838 0.0
H1889 H 0.72639 0.23002 0.6824 0.0
H1890 H 0.77309 0.16014 0.71051 0.0
H1891 H 0.71432 0.15312 0.68447 0.0
H1892 H 0.66137 0.02717 0.69639 0.0
H1893 H 0.67149 0.10371 0.69418 0.0
H1894 H 0.79996 0.09293 0.70441 0.0
H1895 H 0.78962 0.01618 0.70658 0.0
C1896 C 0.76945 0.21824 0.70316 0.0
C1897 C 0.75629 0.23902 0.6953 0.0
C1898 C 0.7627 0.17482 0.70434 0.0
C1899 C 0.74285 0.15066 0.69766 0.0
C1900 C 0.72943 0.17115 0.68977 0.0
C1901 C 0.7364 0.21502 0.68856 0.0
C1902 C 0.6917 0.04135 0.69818 0.0
C1903 C 0.72488 0.01601 0.7016 0.0
C1904 C 0.69757 0.08499 0.69685 0.0
C1905 C 0.73662 0.10423 0.69902 0.0
C1906 C 0.7694 0.07899 0.70271 0.0
C1907 C 0.76354 0.03522 0.704 0.0
H1908 H 0.7118 0.91264 0.45686 0.0
H1909 H 0.71623 0.03591 0.44425 0.0
H1910 H 0.63543 0.90739 0.45352 0.0
H1911 H 0.63986 0.03177 0.44111 0.0
H1912 H 0.51446 0.00171 0.42898 0.0
H1913 H 0.59101 0.99516 0.43155 0.0
H1914 H 0.56652 0.93476 0.45693 0.0
H1915 H 0.49026 0.93945 0.45415 0.0
C1916 C 0.69598 0.9391 0.45359 0.0
C1917 C 0.71945 0.97491 0.4509 0.0
C1918 C 0.65235 0.93606 0.45161 0.0
C1919 C 0.63141 0.96885 0.4469 0.0
C1920 C 0.65497 0.00538 0.44453 0.0
C1921 C 0.69851 0.00824 0.44647 0.0
C1922 C 0.52538 0.98562 0.43496 0.0
C1923 C 0.49612 0.9718 0.44144 0.0
C1924 C 0.56936 0.98261 0.43652 0.0
C1925 C 0.5851 0.96573 0.44459 0.0
C1926 C 0.5558 0.94825 0.45067 0.0
C1927 C 0.5119 0.95108 0.44908 0.0
H1928 H 0.76938 0.76456 0.18128 0.0
H1929 H 0.73038 0.75419 0.20885 0.0
H1930 H 0.78114 0.84127 0.1835 0.0
H1931 H 0.74337 0.82906 0.21107 0.0
H1932 H 0.70871 0.97074 0.20768 0.0
H1933 H 0.7055 0.89312 0.20596 0.0
H1934 H 0.82573 0.89498 0.1919 0.0
H1935 H 0.82893 0.97235 0.19371 0.0
C1936 C 0.76442 0.77817 0.18784 0.0
C1937 C 0.74941 0.75279 0.1949 0.0
C1938 C 0.77111 0.82205 0.18912 0.0
C1939 C 0.76262 0.84119 0.19745 0.0
C1940 C 0.74956 0.81544 0.20455 0.0
C1941 C 0.74292 0.77204 0.20329 0.0
C1942 C 0.73463 0.95435 0.20436 0.0
C1943 C 0.76874 0.97734 0.20075 0.0
C1944 C 0.73286 0.91004 0.20334 0.0
C1945 C 0.76527 0.88804 0.19871 0.0
C1946 C 0.79997 0.9111 0.19533 0.0
C1947 C 0.80182 0.95528 0.1964 0.0
H1948 H 0.77556 0.07592 0.9446 0.0
H1949 H 0.77792 0.9529 0.95746 0.0
H1950 H 0.85299 0.07376 0.94289 0.0
H1951 H 0.85567 0.95073 0.95584 0.0
H1952 H 0.99472 0.97876 0.95932 0.0
H1953 H 0.91921 0.98852 0.9614 0.0
H1954 H 0.90707 0.03095 0.93412 0.0
H1955 H 0.98441 0.02255 0.93206 0.0
C1956 C 0.79283 0.04846 0.94709 0.0
C1957 C 0.77098 0.01429 0.95108 0.0
C1958 C 0.83702 0.04718 0.94607 0.0
C1959 C 0.86029 0.01194 0.94914 0.0
C1960 C 0.83853 0.97845 0.95345 0.0
C1961 C 0.79418 0.97966 0.95442 0.0
C1962 C 0.97664 0.99175 0.95381 0.0
C1963 C -0.00388 0.00096 0.94557 0.0
C1964 C 0.93294 -0.00359 0.95498 0.0
C1965 C 0.90717 0.01009 0.94792 0.0
C1966 C 0.92637 0.02053 0.9397 0.0
C1967 C 0.97054 0.01573 0.93852 0.0
H1968 H 0.66718 0.96354 0.80755 0.0
H1969 H 0.79166 0.96655 0.81972 0.0
H1970 H 0.66076 0.88763 0.81111 0.0
H1971 H 0.78645 0.89039 0.82303 0.0
H1972 H 0.75511 0.7661 0.83544 0.0
H1973 H 0.74988 0.8427 0.8328 0.0
H1974 H 0.68622 0.81839 0.80771 0.0
H1975 H 0.68952 0.74226 0.8106 0.0
C1976 C 0.69371 0.94739 0.81073 0.0
C1977 C 0.73025 0.97029 0.81321 0.0
C1978 C 0.69 0.90406 0.81284 0.0
C1979 C 0.72284 0.88283 0.81747 0.0
C1980 C 0.76006 0.90579 0.81965 0.0
C1981 C 0.76357 0.94914 0.8176 0.0
C1982 C 0.73852 0.77717 0.82953 0.0
C1983 C 0.72339 0.74802 0.82315 0.0
C1984 C 0.73631 0.82111 0.82792 0.0
C1985 C 0.71893 0.83681 0.81989 0.0
C1986 C 0.70011 0.80768 0.81394 0.0
C1987 C 0.7021 0.76387 0.81558 0.0
H1988 H 0.96185 -0.00149 0.58642 0.0
H1989 H 0.98285 0.93456 0.56128 0.0
H1990 H 0.88535 -0.00041 0.58346 0.0
H1991 H 0.90663 0.937 0.55816 0.0
H1992 H 0.76924 0.05581 0.56959 0.0
H1993 H 0.84448 0.043 0.57296 0.0
H1994 H 0.83404 0.91618 0.56183 0.0
H1995 H 0.75885 0.92964 0.55836 0.0
C1996 C 0.95006 0.98341 0.5804 0.0
C1997 C 0.97848 0.96714 0.574 0.0
C1998 C 0.90628 0.98479 0.57861 0.0
C1999 C 0.89009 0.96973 0.57043 0.0
C2000 C 0.91803 0.94928 0.56448 0.0
C2001 C 0.96177 0.9479 0.56627 0.0
C2002 C 0.78351 0.02567 0.56768 0.0
C2003 C 0.75872 0.9939 0.56364 0.0
C2004 C 0.82626 0.01795 0.56975 0.0
C2005 C 0.84503 0.97817 0.56785 0.0
C2006 C 0.82058 0.94711 0.56339 0.0
C2007 C 0.77774 0.95491 0.56132 0.0
H2008 H 0.74221 0.21793 0.33526 0.0
H2009 H 0.80373 0.24076 0.30996 0.0
H2010 H 0.74485 0.1413 0.33246 0.0
H2011 H 0.80478 0.16442 0.30698 0.0
H2012 H 0.8202 0.01765 0.30713 0.0
H2013 H 0.82955 0.09361 0.31051 0.0
H2014 H 0.70413 0.09636 0.32246 0.0
H2015 H 0.69562 0.02044 0.31922 0.0
C2016 C 0.75743 0.2066 0.32921 0.0
C2017 C 0.77209 0.23549 0.32275 0.0
C2018 C 0.75819 0.16267 0.32752 0.0
C2019 C 0.77373 0.14674 0.31936 0.0
C2020 C 0.79224 0.17546 0.3133 0.0
C2021 C 0.79154 0.21931 0.315 0.0
C2022 C 0.79439 0.03498 0.31029 0.0
C2023 C 0.75707 0.01364 0.31286 0.0
C2024 C 0.7998 0.07831 0.3123 0.0
C2025 C 0.76794 0.10098 0.31692 0.0
C2026 C 0.72982 0.07971 0.31912 0.0
C2027 C 0.72452 0.03649 0.31713 0.0
H2028 H 0.72164 0.94989 0.06873 0.0
H2029 H 0.71947 0.07617 0.05746 0.0
H2030 H 0.64561 0.95532 0.07216 0.0
H2031 H 0.64364 0.08269 0.06112 0.0
H2032 H 0.49773 0.05542 0.06087 0.0
H2033 H 0.57369 0.05823 0.05774 0.0
H2034 H 0.59934 0.99149 0.08238 0.0
H2035 H 0.52295 0.98687 0.08528 0.0
C2036 C 0.70442 0.97843 0.06682 0.0
C2037 C 0.72583 0.01224 0.06268 0.0
C2038 C 0.66116 0.98203 0.06895 0.0
C2039 C 0.63851 0.01981 0.06708 0.0
C2040 C 0.65987 0.05307 0.06262 0.0
C2041 C 0.70315 0.04929 0.06045 0.0
C2042 C 0.5196 0.04206 0.06571 0.0
C2043 C 0.50414 0.02012 0.07323 0.0
C2044 C 0.56332 0.04376 0.06392 0.0
C2045 C 0.59272 0.02393 0.06966 0.0
C2046 C 0.5775 0.00586 0.07765 0.0
C2047 C 0.53368 0.00398 0.07942 0.0
H2048 H 0.81374 0.46945 0.81182 0.0
H2049 H 0.70479 0.4634 0.8293 0.0
H2050 H 0.81717 0.39162 0.81145 0.0
H2051 H 0.70733 0.38546 0.82883 0.0
H2052 H 0.73801 0.24735 0.83193 0.0
H2053 H 0.74802 0.32411 0.83348 0.0
H2054 H 0.77814 0.33287 0.80541 0.0
H2055 H 0.76943 0.25633 0.80391 0.0
C2056 C 0.79025 0.45128 0.8155 0.0
C2057 C 0.7588 0.47211 0.82053 0.0
C2058 C 0.79223 0.40677 0.81531 0.0
C2059 C 0.76262 0.3822 0.82013 0.0
C2060 C 0.73117 0.40332 0.82518 0.0
C2061 C 0.72936 0.44785 0.82539 0.0
C2062 C 0.74779 0.26549 0.82614 0.0
C2063 C 0.75241 0.24565 0.81777 0.0
C2064 C 0.75305 0.3096 0.82701 0.0
C2065 C 0.76302 0.33482 0.81954 0.0
C2066 C 0.7706 0.31451 0.81132 0.0
C2067 C 0.7655 0.27046 0.81046 0.0
H2068 H 0.77868 0.4583 0.08076 0.0
H2069 H 0.77224 0.56337 0.06231 0.0
H2070 H 0.85646 0.46312 0.08089 0.0
H2071 H 0.84976 0.5701 0.06271 0.0
H2072 H 0.98815 0.5313 0.05684 0.0
H2073 H 0.91147 0.53712 0.05772 0.0
H2074 H 0.91617 0.5025 0.08563 0.0
H2075 H 0.99335 0.49424 0.08459 0.0
C2076 C 0.79418 0.4824 0.07673 0.0
C2077 C 0.76992 0.50991 0.0714 0.0
C2078 C 0.83864 0.48572 0.0769 0.0
C2079 C 0.85969 0.51719 0.07184 0.0
C2080 C 0.83495 0.54499 0.06657 0.0
C2081 C 0.79055 0.54116 0.0663 0.0
C2082 C 0.97309 0.52562 0.06323 0.0
C2083 C -0.003 0.51145 0.0706 0.0
C2084 C 0.92881 0.52918 0.06375 0.0
C2085 C 0.90723 0.51941 0.0717 0.0
C2086 C 0.93153 0.50898 0.07931 0.0
C2087 C 0.97593 0.50487 0.07876 0.0
H2088 H 0.72219 0.72644 0.30341 0.0
H2089 H 0.72337 0.73833 0.33217 0.0
H2090 H 0.71893 0.64923 0.3048 0.0
H2091 H 0.71919 0.66063 0.33348 0.0
H2092 H 0.68001 0.5151 0.32951 0.0
H2093 H 0.67119 0.59274 0.32871 0.0
H2094 H 0.78119 0.60072 0.3115 0.0
H2095 H 0.79121 0.52344 0.31265 0.0
C2096 C 0.72054 0.7128 0.31004 0.0
C2097 C 0.72377 0.73871 0.31769 0.0
C2098 C 0.71897 0.6685 0.31081 0.0
C2099 C 0.71971 0.64916 0.31924 0.0
C2100 C 0.71882 0.67493 0.32691 0.0
C2101 C 0.72105 0.71939 0.32614 0.0
C2102 C 0.70263 0.53361 0.32566 0.0
C2103 C 0.73622 0.51341 0.3211 0.0
C2104 C 0.69741 0.57785 0.32517 0.0
C2105 C 0.72518 0.60244 0.31996 0.0
C2106 C 0.75892 0.58226 0.31545 0.0
C2107 C 0.76462 0.53818 0.31608 0.0
H2108 H 0.72068 0.53042 0.56266 0.0
H2109 H 0.7251 0.42055 0.57995 0.0
H2110 H 0.64303 0.52369 0.56166 0.0
H2111 H 0.64713 0.41499 0.57928 0.0
H2112 H 0.50465 0.47211 0.58321 0.0
H2113 H 0.58225 0.4646 0.58413 0.0
H2114 H 0.59016 0.46574 0.5554 0.0
H2115 H 0.51301 0.47244 0.5544 0.0
C2116 C 0.70503 0.50467 0.56618 0.0
C2117 C 0.72884 0.47577 0.57129 0.0
C2118 C 0.66068 0.50088 0.56564 0.0
C2119 C 0.63922 0.46858 0.57034 0.0
C2120 C 0.66293 0.44015 0.5756 0.0
C2121 C 0.70741 0.44348 0.57601 0.0
C2122 C 0.52275 0.46944 0.57709 0.0
C2123 C 0.50249 0.47345 0.56874 0.0
C2124 C 0.56719 0.46529 0.57762 0.0
C2125 C 0.5921 0.46551 0.56983 0.0
C2126 C 0.57167 0.46625 0.5615 0.0
C2127 C 0.52737 0.46978 0.56096 0.0
H2128 H 0.70292 0.52457 0.68602 0.0
H2129 H 0.81974 0.5236 0.70122 0.0
H2130 H 0.70389 0.60264 0.68588 0.0
H2131 H 0.82175 0.60145 0.70091 0.0
H2132 H 0.77153 0.73451 0.70934 0.0
H2133 H 0.78328 0.65857 0.70766 0.0
H2134 H 0.74011 0.6652 0.6803 0.0
H2135 H 0.72707 0.74144 0.68205 0.0
C2136 C 0.72886 0.54129 0.68928 0.0
C2137 C 0.76081 0.51856 0.69376 0.0
C2138 C 0.7298 0.58584 0.68913 0.0
C2139 C 0.76296 0.60833 0.69339 0.0
C2140 C 0.79545 0.5852 0.69769 0.0
C2141 C 0.7943 0.54073 0.69789 0.0
C2142 C 0.76539 0.72011 0.70289 0.0
C2143 C 0.74769 0.74404 0.69587 0.0
C2144 C 0.77227 0.67641 0.70192 0.0
C2145 C 0.76192 0.65563 0.69389 0.0
C2146 C 0.74745 0.68013 0.68664 0.0
C2147 C 0.74042 0.72392 0.68762 0.0
H2148 H 0.50525 0.52007 0.96144 0.0
H2149 H 0.49446 0.50511 0.93284 0.0
H2150 H 0.58154 0.53109 0.95996 0.0
H2151 H 0.57085 0.51744 0.93135 0.0
H2152 H 0.71119 0.47419 0.93397 0.0
H2153 H 0.6333 0.47586 0.93461 0.0
H2154 H 0.63954 0.57382 0.9549 0.0
H2155 H 0.71735 0.57125 0.95433 0.0
C2156 C 0.51889 0.52032 0.9548 0.0
C2157 C 0.49366 0.51109 0.94727 0.0
C2158 C 0.56282 0.52673 0.95395 0.0
C2159 C 0.58259 0.52437 0.94554 0.0
C2160 C 0.55685 0.51837 0.93795 0.0
C2161 C 0.51291 0.51178 0.9388 0.0
C2162 C 0.69571 0.49609 0.93853 0.0
C2163 C 0.72006 0.52223 0.94416 0.0
C2164 C 0.65114 0.49739 0.93886 0.0
C2165 C 0.63 0.52508 0.9448 0.0
C2166 C 0.65465 0.55169 0.95034 0.0
C2167 C 0.6992 0.55018 0.95003 0.0
H2168 H 0.66044 0.47039 0.20085 0.0
H2169 H 0.77743 0.46876 0.18574 0.0
H2170 H 0.65881 0.3924 0.20073 0.0
H2171 H 0.77618 0.39079 0.18562 0.0
H2172 H 0.7504 0.25304 0.18119 0.0
H2173 H 0.73657 0.32923 0.17974 0.0
H2174 H 0.70022 0.33492 0.20751 0.0
H2175 H 0.71326 0.25888 0.20895 0.0
C2176 C 0.68598 0.45318 0.19757 0.0
C2177 C 0.71939 0.47524 0.1934 0.0
C2178 C 0.68494 0.40866 0.19745 0.0
C2179 C 0.71726 0.38544 0.19313 0.0
C2180 C 0.7504 0.40774 0.18887 0.0
C2181 C 0.75141 0.45225 0.189 0.0
C2182 C 0.73839 0.27028 0.18693 0.0
C2183 C 0.73359 0.24993 0.19523 0.0
C2184 C 0.73087 0.31402 0.18611 0.0
C2185 C 0.71817 0.3382 0.19355 0.0
C2186 C 0.70995 0.3172 0.20164 0.0
C2187 C 0.71754 0.27352 0.20247 0.0
H2188 H 0.77081 0.42817 0.45381 0.0
H2189 H 0.778 0.53135 0.43488 0.0
H2190 H 0.8486 0.42418 0.45427 0.0
H2191 H 0.85593 0.52817 0.43541 0.0
H2192 H 0.99398 0.49437 0.4328 0.0
H2193 H 0.91703 0.4852 0.43136 0.0
H2194 H 0.90755 0.46491 0.4598 0.0
H2195 H 0.98424 0.47286 0.46122 0.0
C2196 C 0.78921 0.4503 0.44983 0.0
C2197 C 0.76869 0.48034 0.44438 0.0
C2198 C 0.83371 0.44797 0.45006 0.0
C2199 C 0.8586 0.47577 0.44486 0.0
C2200 C 0.83781 0.50573 0.43937 0.0
C2201 C 0.79328 0.50791 0.43912 0.0
C2202 C 0.97562 0.48693 0.43872 0.0
C2203 C 0.99533 0.48481 0.44714 0.0
C2204 C 0.93142 0.48216 0.43791 0.0
C2205 C 0.90598 0.47512 0.44549 0.0
C2206 C 0.92608 0.47014 0.45381 0.0
C2207 C 0.97021 0.47482 0.45462 0.0
H2208 H 0.16905 0.53094 0.20851 0.0
H2209 H 0.28489 0.53189 0.19307 0.0
H2210 H 0.1585 0.60694 0.20534 0.0
H2211 H 0.27535 0.60781 0.19004 0.0
H2212 H 0.23459 0.73165 0.17896 0.0
H2213 H 0.23094 0.65483 0.18143 0.0
H2214 H 0.18577 0.67694 0.20827 0.0
H2215 H 0.18752 0.7535 0.20561 0.0
C2216 C 0.19272 0.54782 0.20461 0.0
C2217 C 0.2279 0.52594 0.20107 0.0
C2218 C 0.18661 0.59121 0.20273 0.0
C2219 C 0.21564 0.61348 0.19729 0.0
C2220 C 0.25167 0.59156 0.19404 0.0
C2221 C 0.25763 0.54829 0.1959 0.0
C2222 C 0.22223 0.7201 0.18526 0.0
C2223 C 0.2121 0.74871 0.19215 0.0
C2224 C 0.22096 0.67601 0.18675 0.0
C2225 C 0.20948 0.65962 0.19516 0.0
C2226 C 0.19514 0.68824 0.20174 0.0
C2227 C 0.19629 0.73225 0.20023 0.0
H2228 H 0.01407 0.50042 0.93 0.0
H2229 H 0.98797 0.44101 0.95541 0.0
H2230 H 0.09073 0.4911 0.93262 0.0
H2231 H 0.06448 0.43374 0.95814 0.0
H2232 H 0.20326 0.52158 0.95916 0.0
H2233 H 0.12566 0.51763 0.95662 0.0
H2234 H 0.14356 0.4083 0.93957 0.0
H2235 H 0.22033 0.41081 0.9424 0.0
C2236 C 0.02444 0.48432 0.93602 0.0
C2237 C 0.99474 0.47212 0.94257 0.0
C2238 C 0.06831 0.47955 0.93756 0.0
C2239 C 0.08311 0.46274 0.94567 0.0
C2240 C 0.05364 0.44749 0.95191 0.0
C2241 C 0.00989 0.45161 0.95031 0.0
C2242 C 0.19046 0.49629 0.95502 0.0
C2243 C 0.21787 0.4671 0.95083 0.0
C2244 C 0.1463 0.49418 0.95352 0.0
C2245 C 0.12913 0.46301 0.9478 0.0
C2246 C 0.15627 0.43287 0.94391 0.0
C2247 C 0.20013 0.43457 0.9455 0.0
H2248 H 0.32167 0.46064 0.70778 0.0
H2249 H 0.19721 0.45655 0.69562 0.0
H2250 H 0.33237 0.38512 0.70423 0.0
H2251 H 0.20679 0.38084 0.69229 0.0
H2252 H 0.24376 0.25893 0.67986 0.0
H2253 H 0.24621 0.33558 0.68246 0.0
H2254 H 0.31077 0.31421 0.70754 0.0
H2255 H 0.31024 0.23788 0.70471 0.0
C2256 C 0.29613 0.44304 0.70459 0.0
C2257 C 0.25837 0.46389 0.70209 0.0
C2258 C 0.3023 0.39992 0.70248 0.0
C2259 C 0.27075 0.37687 0.69782 0.0
C2260 C 0.23228 0.39771 0.69566 0.0
C2261 C 0.2263 0.4408 0.69772 0.0
C2262 C 0.26004 0.27061 0.68575 0.0
C2263 C 0.27598 0.24208 0.69217 0.0
C2264 C 0.26064 0.31462 0.68734 0.0
C2265 C 0.27719 0.33111 0.69538 0.0
C2266 C 0.29732 0.30284 0.70132 0.0
C2267 C 0.29698 0.2589 0.6997 0.0
H2268 H 0.49805 0.55335 0.45433 0.0
H2269 H 0.47401 0.48441 0.4299 0.0
H2270 H 0.42194 0.55511 0.45745 0.0
H2271 H 0.39754 0.48779 0.43279 0.0
H2272 H 0.27747 0.44221 0.44672 0.0
H2273 H 0.35329 0.44987 0.44328 0.0
H2274 H 0.35097 0.57815 0.45389 0.0
H2275 H 0.27528 0.56957 0.45752 0.0
C2276 C 0.47637 0.53975 0.44948 0.0
C2277 C 0.49218 0.51794 0.44197 0.0
C2278 C 0.43263 0.54081 0.45126 0.0
C2279 C 0.40365 0.52037 0.44552 0.0
C2280 C 0.41914 0.50261 0.43751 0.0
C2281 C 0.46297 0.50145 0.43575 0.0
C2282 C 0.29369 0.47148 0.44853 0.0
C2283 C 0.27109 0.50502 0.45251 0.0
C2284 C 0.3368 0.47632 0.4464 0.0
C2285 C 0.35811 0.515 0.44814 0.0
C2286 C 0.33568 0.54793 0.45248 0.0
C2287 C 0.29251 0.54296 0.45463 0.0
H2288 H 0.29899 0.47147 0.31968 0.0
H2289 H 0.17357 0.47713 0.30797 0.0
H2290 H 0.28896 0.39576 0.32292 0.0
H2291 H 0.16275 0.40138 0.31133 0.0
H2292 H 0.2493 0.27612 0.33598 0.0
H2293 H 0.24734 0.35261 0.33314 0.0
H2294 H 0.18579 0.32958 0.30779 0.0
H2295 H 0.18625 0.25328 0.3108 0.0
C2296 C 0.26962 0.45606 0.31764 0.0
C2297 C 0.23728 0.47968 0.31349 0.0
C2298 C 0.26344 0.41299 0.31964 0.0
C2299 C 0.22462 0.39265 0.31757 0.0
C2300 C 0.19299 0.41599 0.31302 0.0
C2301 C 0.19927 0.45918 0.31102 0.0
C2302 C 0.23378 0.28741 0.32997 0.0
C2303 C 0.21868 0.25847 0.32353 0.0
C2304 C 0.23344 0.33128 0.32825 0.0
C2305 C 0.21784 0.34715 0.32008 0.0
C2306 C 0.19849 0.31854 0.3141 0.0
C2307 C 0.19877 0.2747 0.31583 0.0
H2308 H 0.27509 0.42112 0.05984 0.0
H2309 H 0.27721 0.55023 0.06967 0.0
H2310 H 0.3511 0.41362 0.06325 0.0
H2311 H 0.35348 0.54375 0.07284 0.0
H2312 H 0.47625 0.51229 0.08589 0.0
H2313 H 0.39955 0.50874 0.08331 0.0
H2314 H 0.42131 0.43552 0.0593 0.0
H2315 H 0.49765 0.43719 0.06216 0.0
C2316 C 0.2924 0.44832 0.06245 0.0
C2317 C 0.27092 0.48651 0.06433 0.0
C2318 C 0.33577 0.44401 0.06448 0.0
C2319 C 0.35839 0.47785 0.06846 0.0
C2320 C 0.33691 0.51666 0.06999 0.0
C2321 C 0.29353 0.52081 0.06801 0.0
C2322 C 0.46459 0.49401 0.08025 0.0
C2323 C 0.49315 0.47577 0.07412 0.0
C2324 C 0.42061 0.49274 0.07866 0.0
C2325 C 0.40426 0.47318 0.07092 0.0
C2326 C 0.43263 0.45125 0.06528 0.0
C2327 C 0.47653 0.45233 0.06691 0.0
H2328 H 0.32797 0.52879 0.809 0.0
H2329 H 0.20259 0.52645 0.82069 0.0
H2330 H 0.3347 0.60457 0.81269 0.0
H2331 H 0.20813 0.60249 0.82413 0.0
H2332 H 0.2391 0.72618 0.83683 0.0
H2333 H 0.24419 0.64968 0.83411 0.0
H2334 H 0.31023 0.67419 0.80934 0.0
H2335 H 0.307 0.7503 0.8123 0.0
C2336 C 0.30133 0.54506 0.8121 0.0
C2337 C 0.26443 0.52237 0.81441 0.0
C2338 C 0.30522 0.58833 0.81429 0.0
C2339 C 0.27221 0.60972 0.81884 0.0
C2340 C 0.23466 0.58697 0.82084 0.0
C2341 C 0.23097 0.54369 0.8187 0.0
C2342 C 0.25621 0.71521 0.83099 0.0
C2343 C 0.27203 0.74447 0.82472 0.0
C2344 C 0.25834 0.67129 0.82932 0.0
C2345 C 0.2763 0.65566 0.82134 0.0
C2346 C 0.29588 0.68483 0.81553 0.0
C2347 C 0.29402 0.72864 0.81723 0.0
H2348 H 0.2218 0.57575 0.55891 0.0
H2349 H 0.22242 0.45381 0.57213 0.0
H2350 H 0.14546 0.5835 0.5621 0.0
H2351 H 0.1462 0.46067 0.57518 0.0
H2352 H 0.02176 0.4954 0.58694 0.0
H2353 H 0.09851 0.50099 0.58455 0.0
H2354 H 0.07591 0.556 0.55855 0.0
H2355 H -0.00061 0.55207 0.56112 0.0
C2356 C 0.2052 0.5502 0.56231 0.0
C2357 C 0.22761 0.51408 0.56524 0.0
C2358 C 0.16163 0.55469 0.5642 0.0
C2359 C 0.13972 0.52308 0.56905 0.0
C2360 C 0.16216 0.48621 0.57165 0.0
C2361 C 0.20561 0.48184 0.56978 0.0
C2362 C 0.03314 0.51022 0.58086 0.0
C2363 C 0.00439 0.52257 0.57415 0.0
C2364 C 0.0772 0.51267 0.57941 0.0
C2365 C 0.09347 0.5276 0.57123 0.0
C2366 C 0.06469 0.54398 0.5649 0.0
C2367 C 0.02069 0.54163 0.56637 0.0
H2368 H 0.21562 0.07752 0.36467 0.0
H2369 H 0.33905 0.13464 0.3601 0.0
H2370 H 0.23993 0.05232 0.37926 0.0
H2371 H 0.36326 0.10932 0.37462 0.0
H2372 H 0.37466 0.09676 0.40514 0.0
H2373 H 0.35017 0.12198 0.39064 0.0
H2374 H 0.29157 -0.0003 0.38559 0.0
H2375 H 0.31593 0.97439 0.40016 0.0
C2376 C 0.24781 0.08495 0.36679 0.0
C2377 C 0.2753 0.10822 0.36121 0.0
C2378 C 0.26187 0.07017 0.37512 0.0
C2379 C 0.3036 0.07868 0.37811 0.0
C2380 C 0.33082 0.1025 0.37257 0.0
C2381 C 0.31693 0.11691 0.36423 0.0
C2382 C 0.35675 0.0751 0.40093 0.0
C2383 C 0.34738 0.03347 0.40383 0.0
C2384 C 0.34281 0.08956 0.39259 0.0
C2385 C 0.31879 0.06292 0.38695 0.0
C2386 C 0.30958 0.0212 0.38981 0.0
C2387 C 0.32389 0.00657 0.39813 0.0
H2388 H 0.13509 0.09421 0.65966 0.0
H2389 H 0.25842 0.113 0.64746 0.0
H2390 H 0.10534 0.07431 0.64522 0.0
H2391 H 0.2284 0.09336 0.63295 0.0
H2392 H 0.16772 0.01792 0.60975 0.0
H2393 H 0.19809 0.03259 0.62449 0.0
H2394 H 0.08772 0.10872 0.63109 0.0
H2395 H 0.05732 0.09388 0.61645 0.0
C2396 C 0.15594 0.09412 0.6539 0.0
C2397 C 0.1992 0.10546 0.65474 0.0
C2398 C 0.13877 0.08285 0.6456 0.0
C2399 C 0.16437 0.08234 0.63789 0.0
C2400 C 0.20781 0.093 0.63875 0.0
C2401 C 0.22498 0.10455 0.64707 0.0
C2402 C 0.14976 0.03746 0.61438 0.0
C2403 C 0.11 0.05465 0.6119 0.0
C2404 C 0.16734 0.04616 0.62281 0.0
C2405 C 0.14544 0.07194 0.62899 0.0
C2406 C 0.10532 0.08838 0.62655 0.0
C2407 C 0.08793 0.07997 0.61812 0.0
H2408 H 0.14656 0.86172 0.86083 0.0
H2409 H 0.26449 0.93021 0.86492 0.0
H2410 H 0.12208 0.88392 0.8756 0.0
H2411 H 0.2398 0.95259 0.87968 0.0
H2412 H 0.15883 0.02251 0.90104 0.0
H2413 H 0.18249 0.00011 0.88621 0.0
H2414 H 0.14085 0.87164 0.89173 0.0
H2415 H 0.1174 0.89386 0.90657 0.0
C2416 C 0.16735 0.88139 0.86488 0.0
C2417 C 0.20757 0.89407 0.86168 0.0
C2418 C 0.15334 0.89401 0.87336 0.0
C2419 C 0.17891 0.92014 0.87881 0.0
C2420 C 0.21915 0.93281 0.87562 0.0
C2421 C 0.23343 0.91968 0.86718 0.0
C2422 C 0.15443 0.98955 0.89908 0.0
C2423 C 0.13612 0.96003 0.90501 0.0
C2424 C 0.16832 0.97665 0.8906 0.0
C2425 C 0.1637 0.93405 0.88779 0.0
C2426 C 0.14463 0.90474 0.89366 0.0
C2427 C 0.13129 0.91748 0.90218 0.0
H2428 H 0.39309 0.90043 0.11017 0.0
H2429 H 0.313 0.01108 0.11376 0.0
H2430 H 0.37121 0.8736 0.12467 0.0
H2431 H 0.28924 0.98335 0.12811 0.0
H2432 H 0.28566 0.94097 0.15738 0.0
H2433 H 0.3066 0.96989 0.14297 0.0
H2434 H 0.31547 0.84188 0.13235 0.0
H2435 H 0.2967 0.81318 0.1469 0.0
C2436 C 0.37062 0.91898 0.11405 0.0
C2437 C 0.35493 0.95797 0.1108 0.0
C2438 C 0.35763 0.90336 0.12237 0.0
C2439 C 0.32793 0.9259 0.12762 0.0
C2440 C 0.31254 0.96519 0.12437 0.0
C2441 C 0.32608 0.98113 0.11611 0.0
C2442 C 0.29177 0.91903 0.15195 0.0
C2443 C 0.2897 0.87471 0.15333 0.0
C2444 C 0.30369 0.93564 0.14363 0.0
C2445 C 0.3133 0.90839 0.13642 0.0
C2446 C 0.30956 0.86404 0.13775 0.0
C2447 C 0.29829 0.84747 0.1461 0.0
H2448 H 0.69998 0.90023 0.61129 0.0
H2449 H 0.57152 0.94995 0.61211 0.0
H2450 H 0.69969 0.89291 0.62742 0.0
H2451 H 0.57205 0.9449 0.62832 0.0
H2452 H 0.56772 0.8764 0.65531 0.0
H2453 H 0.569 0.88969 0.63929 0.0
H2454 H 0.70044 0.93031 0.64132 0.0
H2455 H 0.69913 0.91629 0.65731 0.0
C2456 C 0.67196 0.91047 0.61493 0.0
C2457 C 0.636 0.92623 0.6104 0.0
C2458 C 0.67192 0.90656 0.6242 0.0
C2459 C 0.63585 0.9183 0.62919 0.0
C2460 C 0.60024 0.93515 0.62468 0.0
C2461 C 0.60022 0.93888 0.61537 0.0
C2462 C 0.59691 0.88799 0.65231 0.0
C2463 C 0.63363 0.89427 0.65751 0.0
C2464 C 0.59756 0.896 0.64314 0.0
C2465 C 0.63484 0.91106 0.639 0.0
C2466 C 0.67143 0.91793 0.64426 0.0
C2467 C 0.67082 0.90962 0.65342 0.0
H2468 H 0.89987 0.87951 0.35921 0.0
H2469 H 0.76339 0.89766 0.36026 0.0
H2470 H 0.90412 0.88856 0.37531 0.0
H2471 H 0.7676 0.90643 0.37643 0.0
H2472 H 0.7913 0.86744 0.40595 0.0
H2473 H 0.78364 0.86414 0.38979 0.0
H2474 H 0.89586 0.94278 0.38683 0.0
H2475 H 0.90434 0.94482 0.40301 0.0
C2476 C 0.8707 0.88531 0.36288 0.0
C2477 C 0.83117 0.88692 0.35846 0.0
C2478 C 0.8732 0.89082 0.37211 0.0
C2479 C 0.83623 0.89833 0.37716 0.0
C2480 C 0.79661 0.90009 0.37274 0.0
C2481 C 0.79413 0.89463 0.36348 0.0
C2482 C 0.81414 0.88435 0.40185 0.0
C2483 C 0.84817 0.90679 0.40578 0.0
C2484 C 0.80955 0.8827 0.39259 0.0
C2485 C 0.83914 0.90315 0.38701 0.0
C2486 C 0.87269 0.92639 0.39094 0.0
C2487 C 0.8772 0.92815 0.40023 0.0
H2488 H 0.83718 0.02969 0.10905 0.0
H2489 H 0.86483 0.16461 0.10902 0.0
H2490 H 0.83029 0.03134 0.12526 0.0
H2491 H 0.85801 0.16633 0.12519 0.0
H2492 H 0.80532 0.16534 0.15312 0.0
H2493 H 0.80541 0.16022 0.13689 0.0
H2494 H 0.87414 0.04101 0.13854 0.0
H2495 H 0.87237 0.04524 0.15476 0.0
C2496 C 0.84267 0.05949 0.1125 0.0
C2497 C 0.85246 0.09684 0.10777 0.0
C2498 C 0.83837 0.06053 0.1218 0.0
C2499 C 0.84353 0.09899 0.12653 0.0
C2500 C 0.85312 0.13631 0.12175 0.0
C2501 C 0.85734 0.13526 0.11249 0.0
C2502 C 0.81928 0.13743 0.15004 0.0
C2503 C 0.8382 0.10534 0.15524 0.0
C2504 C 0.82001 0.13483 0.14072 0.0
C2505 C 0.83992 0.10026 0.13641 0.0
C2506 C 0.85809 0.0678 0.14163 0.0
C2507 C 0.85736 0.07041 0.15093 0.0
H2508 H 0.58145 0.05525 0.90314 0.0
H2509 H 0.70376 0.11831 0.90439 0.0
H2510 H 0.58444 0.05649 0.8869 0.0
H2511 H 0.70605 0.12105 0.88813 0.0
H2512 H 0.71228 0.08257 0.85855 0.0
H2513 H 0.71235 0.07599 0.87477 0.0
H2514 H 0.57904 0.11083 0.87536 0.0
H2515 H 0.57907 0.1176 0.85918 0.0
C2516 C 0.60937 0.06857 0.89996 0.0
C2517 C 0.64276 0.08595 0.90504 0.0
C2518 C 0.61076 0.06995 0.89064 0.0
C2519 C 0.64545 0.08896 0.88622 0.0
C2520 C 0.67913 0.10574 0.89132 0.0
C2521 C 0.67768 0.10442 0.90063 0.0
C2522 C 0.68328 0.08977 0.86215 0.0
C2523 C 0.64591 0.10157 0.8576 0.0
C2524 C 0.68322 0.08563 0.87144 0.0
C2525 C 0.64569 0.09285 0.87635 0.0
C2526 C 0.60832 0.10441 0.87177 0.0
C2527 C 0.60841 0.10856 0.86251 0.0
H2528 H 0.75349 0.66426 0.86888 0.0
H2529 H 0.83125 0.5676 0.85633 0.0
H2530 H 0.77393 0.63715 0.88352 0.0
H2531 H 0.85257 0.54124 0.87095 0.0
H2532 H 0.85108 0.47894 0.8986 0.0
H2533 H 0.82816 0.50417 0.88395 0.0
H2534 H 0.83379 0.63424 0.89342 0.0
H2535 H 0.85565 0.60899 0.90808 0.0
C2536 C 0.775 0.63728 0.86923 0.0
C2537 C 0.79072 0.61824 0.8614 0.0
C2538 C 0.787 0.62186 0.87765 0.0
C2539 C 0.81515 0.58703 0.87847 0.0
C2540 C 0.83045 0.56772 0.87062 0.0
C2541 C 0.81837 0.58306 0.86221 0.0
C2542 C 0.84748 0.51292 0.89755 0.0
C2543 C 0.85527 0.54185 0.90455 0.0
C2544 C 0.83449 0.52746 0.88913 0.0
C2545 C 0.82894 0.57134 0.88746 0.0
C2546 C 0.83698 0.60021 0.89446 0.0
C2547 C 0.84991 0.5857 0.90288 0.0
H2548 H 0.65031 0.63549 0.15487 0.0
H2549 H 0.77396 0.57871 0.15035 0.0
H2550 H 0.62714 0.61215 0.1401 0.0
H2551 H 0.75055 0.55516 0.13555 0.0
H2552 H 0.67263 0.47748 0.11459 0.0
H2553 H 0.6972 0.50243 0.12919 0.0
H2554 H 0.64291 0.62641 0.12394 0.0
H2555 H 0.61853 0.60166 0.10934 0.0
C2556 C 0.67268 0.61824 0.15071 0.0
C2557 C 0.71406 0.60906 0.15381 0.0
C2558 C 0.65939 0.60498 0.14222 0.0
C2559 C 0.68692 0.58166 0.13665 0.0
C2560 C 0.72843 0.57271 0.13971 0.0
C2561 C 0.74196 0.58652 0.14817 0.0
C2562 C 0.66574 0.51001 0.11656 0.0
C2563 C 0.64345 0.5375 0.11079 0.0
C2564 C 0.68016 0.5244 0.1249 0.0
C2565 C 0.67212 0.56645 0.12773 0.0
C2566 C 0.6494 0.59377 0.122 0.0
C2567 C 0.63551 0.57957 0.11361 0.0
H2568 H 0.63882 0.31518 0.36481 0.0
H2569 H 0.72296 0.42082 0.35919 0.0
H2570 H 0.62447 0.34444 0.37954 0.0
H2571 H 0.70899 0.44994 0.37407 0.0
H2572 H 0.63287 0.51237 0.39731 0.0
H2573 H 0.65131 0.48349 0.38264 0.0
H2574 H 0.65731 0.35687 0.39389 0.0
H2575 H 0.63834 0.38549 0.40846 0.0
C2576 C 0.65465 0.34447 0.36675 0.0
C2577 C 0.68213 0.36554 0.36079 0.0
C2578 C 0.64653 0.36121 0.37524 0.0
C2579 C 0.66553 0.39963 0.37803 0.0
C2580 C 0.69341 0.42054 0.37211 0.0
C2581 C 0.70172 0.40364 0.36361 0.0
C2582 C 0.63814 0.47837 0.39665 0.0
C2583 C 0.63381 0.45131 0.40408 0.0
C2584 C 0.64903 0.46182 0.38825 0.0
C2585 C 0.65571 0.41776 0.38705 0.0
C2586 C 0.65181 0.39085 0.39451 0.0
C2587 C 0.64107 0.40736 0.4029 0.0
H2588 H 0.86618 0.37589 0.65865 0.0
H2589 H 0.73622 0.39155 0.64966 0.0
H2590 H 0.89202 0.39868 0.64413 0.0
H2591 H 0.76202 0.41605 0.6352 0.0
H2592 H 0.82195 0.41705 0.60735 0.0
H2593 H 0.79478 0.39474 0.62181 0.0
H2594 H 0.9005 0.45809 0.63477 0.0
H2595 H 0.92855 0.47887 0.62025 0.0
C2596 C 0.84305 0.38439 0.65358 0.0
C2597 C 0.79906 0.38175 0.65534 0.0
C2598 C 0.85792 0.39791 0.64524 0.0
C2599 C 0.82926 0.40962 0.63843 0.0
C2600 C 0.78519 0.4068 0.6402 0.0
C2601 C 0.7703 0.39287 0.64852 0.0
C2602 C 0.83934 0.42641 0.61329 0.0
C2603 C 0.8776 0.44965 0.61261 0.0
C2604 C 0.82358 0.41376 0.62162 0.0
C2605 C 0.84539 0.42433 0.62953 0.0
C2606 C 0.88318 0.44848 0.62885 0.0
C2607 C 0.89917 0.46076 0.62051 0.0
H2608 H 0.08629 0.43483 0.11197 0.0
H2609 H 0.21005 0.37527 0.10973 0.0
H2610 H 0.09176 0.43208 0.12819 0.0
H2611 H 0.21496 0.37127 0.12596 0.0
H2612 H 0.22385 0.40735 0.15573 0.0
H2613 H 0.2216 0.41559 0.13954 0.0
H2614 H 0.08984 0.37538 0.13942 0.0
H2615 H 0.09221 0.36672 0.15555 0.0
C2616 C 0.11503 0.42198 0.11493 0.0
C2617 C 0.14803 0.40588 0.10957 0.0
C2618 C 0.11789 0.41977 0.12423 0.0
C2619 C 0.15375 0.40133 0.12836 0.0
C2620 C 0.18713 0.38607 0.12299 0.0
C2621 C 0.18418 0.38811 0.1137 0.0
C2622 C 0.19476 0.39925 0.15224 0.0
C2623 C 0.15849 0.38543 0.15691 0.0
C2624 C 0.19334 0.4044 0.14296 0.0
C2625 C 0.1555 0.39626 0.1382 0.0
C2626 C 0.11928 0.38256 0.1429 0.0
C2627 C 0.12074 0.37732 0.15214 0.0
H2628 H 0.41746 0.37829 0.86004 0.0
H2629 H 0.28362 0.41072 0.8593 0.0
H2630 H 0.41763 0.3868 0.87619 0.0
H2631 H 0.28368 0.41906 0.87548 0.0
H2632 H 0.29248 0.37756 0.90507 0.0
H2633 H 0.29042 0.37512 0.88884 0.0
H2634 H 0.41144 0.44081 0.8878 0.0
H2635 H 0.41421 0.4418 0.90407 0.0
C2636 C 0.38801 0.38714 0.86333 0.0
C2637 C 0.35028 0.39276 0.8584 0.0
C2638 C 0.38819 0.39233 0.87258 0.0
C2639 C 0.35067 0.40359 0.87713 0.0
C2640 C 0.31297 0.40965 0.87219 0.0
C2641 C 0.31281 0.40446 0.86292 0.0
C2642 C 0.31849 0.39183 0.90137 0.0
C2643 C 0.35326 0.41035 0.90586 0.0
C2644 C 0.31715 0.39069 0.89207 0.0
C2645 C 0.35075 0.40777 0.88701 0.0
C2646 C 0.38518 0.42708 0.8915 0.0
C2647 C 0.38646 0.4283 0.90083 0.0
H2648 H 0.36706 0.53156 0.65769 0.0
H2649 H 0.30202 0.6524 0.65518 0.0
H2650 H 0.37216 0.52641 0.64151 0.0
H2651 H 0.30578 0.64656 0.63896 0.0
H2652 H 0.37368 0.64904 0.61186 0.0
H2653 H 0.36251 0.65128 0.62791 0.0
H2654 H 0.33097 0.51717 0.62774 0.0
H2655 H 0.34194 0.515 0.61162 0.0
C2656 C 0.35319 0.55671 0.65367 0.0
C2657 C 0.33376 0.5922 0.65772 0.0
C2658 C 0.35586 0.55358 0.64439 0.0
C2659 C 0.33947 0.58608 0.63894 0.0
C2660 C 0.31906 0.62113 0.64299 0.0
C2661 C 0.31628 0.62418 0.65229 0.0
C2662 C 0.36446 0.61996 0.61524 0.0
C2663 C 0.3596 0.58163 0.61047 0.0
C2664 C 0.35772 0.62134 0.62444 0.0
C2665 C 0.34569 0.58445 0.62911 0.0
C2666 C 0.34079 0.54603 0.62435 0.0
C2667 C 0.3475 0.54467 0.61511 0.0
H2668 H 0.22918 0.58511 0.36077 0.0
H2669 H 0.09398 0.61139 0.36065 0.0
H2670 H 0.22682 0.57459 0.3769 0.0
H2671 H 0.09156 0.60136 0.37673 0.0
H2672 H 0.0905 0.54534 0.4042 0.0
H2673 H 0.09692 0.54741 0.38802 0.0
H2674 H 0.2167 0.61459 0.39051 0.0
H2675 H 0.2113 0.61055 0.40668 0.0
C2676 C 0.19918 0.58952 0.36421 0.0
C2677 C 0.16193 0.59987 0.35947 0.0
C2678 C 0.19772 0.58317 0.37344 0.0
C2679 C 0.15896 0.58697 0.37811 0.0
C2680 C 0.12179 0.59735 0.37334 0.0
C2681 C 0.12324 0.60348 0.36413 0.0
C2682 C 0.11886 0.55926 0.40132 0.0
C2683 C 0.15069 0.5772 0.40674 0.0
C2684 C 0.12219 0.56117 0.39202 0.0
C2685 C 0.15722 0.58141 0.38796 0.0
C2686 C 0.18954 0.59834 0.3934 0.0
C2687 C 0.18626 0.59632 0.40267 0.0
loop_
_geom_bond_atom_site_label_1
_geom_bond_atom_site_label_2
_geom_bond_distance
_geom_bond_site_symmetry_2
_ccdc_geom_bond_type
Co0 O3 1.970 . S
Co0 N17 1.989 . S
Co0 O25 1.967 . S
Co0 O32 1.920 . S
Co1 O4 1.966 . S
Co1 N10 2.022 . S
Co1 N18 1.993 . S
Co1 O26 1.941 . S
C2 O3 1.258 . S
C2 O4 1.263 . S
O3 Co0 1.970 . S
O3 C2 1.258 . S
O4 Co1 1.966 . S
O4 C2 1.263 . S
C5 O6 1.235 . S
C5 O32 1.289 . S
O6 C5 1.235 . S
C7 C9 1.400 . S
C7 N10 1.351 . S
C7 C12 1.501 . S
C8 C9 1.387 . S
C8 N11 1.341 . S
C9 C7 1.400 . S
C9 C8 1.387 . S
N10 Co1 2.022 . S
N10 C7 1.351 . S
N10 N11 1.365 . S
N11 C8 1.341 . S
N11 N10 1.365 . S
N11 H31 0.862 . S
C12 C7 1.501 . S
C12 H13 0.961 . S
C12 H14 0.961 . S
C12 H15 0.960 . S
H13 C12 0.961 . S
H14 C12 0.961 . S
H15 C12 0.960 . S
C16 N17 1.342 . S
C16 C20 1.401 . S
C16 C21 1.499 . S
N17 Co0 1.989 . S
N17 C16 1.342 . S
N17 N18 1.388 . S
N18 Co1 1.993 . S
N18 N17 1.388 . S
N18 C19 1.346 . S
C19 N18 1.346 . S
C19 C20 1.396 . S
C19 C29 1.510 . S
C20 C16 1.401 . S
C20 C19 1.396 . S
C21 C16 1.499 . S
C21 H22 0.959 . S
C21 H23 0.960 . S
C21 H24 0.961 . S
H22 C21 0.959 . S
H23 C21 0.960 . S
H24 C21 0.961 . S
O25 Co0 1.967 . S
O25 C33 1.258 . S
O26 Co1 1.941 . S
O26 C33 1.266 . S
H27 C29 0.959 . S
H28 C29 0.961 . S
C29 C19 1.510 . S
C29 H27 0.959 . S
C29 H28 0.961 . S
C29 H30 0.960 . S
H30 C29 0.960 . S
H31 N11 0.862 . S
O32 Co0 1.920 . S
O32 C5 1.289 . S
C33 O25 1.258 . S
C33 O26 1.266 . S
Co34 O37 1.970 . S
Co34 N51 1.989 . S
Co34 O59 1.967 . S
Co34 O66 1.920 . S
Co35 O38 1.966 1_455 S
Co35 N44 2.022 . S
Co35 N52 1.993 . S
Co35 O60 1.941 . S
C36 O37 1.258 1_655 S
C36 O38 1.264 . S
O37 Co34 1.970 . S
O37 C36 1.258 1_455 S
O38 Co35 1.966 1_655 S
O38 C36 1.264 . S
C39 O40 1.235 . S
C39 O66 1.289 . S
O40 C39 1.235 . S
C41 C43 1.400 . S
C41 N44 1.351 . S
C41 C46 1.506 1_545 S
C42 C43 1.387 . S
C42 N45 1.341 . S
C43 C41 1.400 . S
C43 C42 1.387 . S
N44 Co35 2.022 . S
N44 C41 1.351 . S
N44 N45 1.365 . S
N45 C42 1.341 . S
N45 N44 1.365 . S
N45 H65 0.862 . S
C46 C41 1.506 1_565 S
C46 H47 0.959 1_455 S
C46 H48 0.964 . S
C46 H49 0.954 1_455 S
H47 C46 0.959 1_655 S
H48 C46 0.964 . S
H49 C46 0.954 1_655 S
C50 N51 1.342 . S
C50 C54 1.401 . S
C50 C55 1.499 . S
N51 Co34 1.989 . S
N51 C50 1.342 . S
N51 N52 1.388 . S
N52 Co35 1.993 . S
N52 N51 1.388 . S
N52 C53 1.346 . S
C53 N52 1.346 . S
C53 C54 1.396 . S
C53 C63 1.510 . S
C54 C50 1.401 . S
C54 C53 1.396 . S
C55 C50 1.499 . S
C55 H56 0.959 . S
C55 H57 0.960 . S
C55 H58 0.961 . S
H56 C55 0.959 . S
H57 C55 0.960 . S
H58 C55 0.961 . S
O59 Co34 1.967 . S
O59 C67 1.258 . S
O60 Co35 1.941 . S
O60 C67 1.266 . S
H61 C63 0.959 . S
H62 C63 0.961 1_565 S
C63 C53 1.510 . S
C63 H61 0.959 . S
C63 H62 0.961 1_545 S
C63 H64 0.960 . S
H64 C63 0.960 . S
H65 N45 0.862 . S
O66 Co34 1.920 . S
O66 C39 1.289 . S
C67 O59 1.258 . S
C67 O60 1.266 . S
Co68 O71 1.970 . S
Co68 N85 1.989 . S
Co68 O93 1.967 . S
Co68 O100 1.920 . S
Co69 O72 1.966 . S
Co69 N78 2.022 . S
Co69 N86 1.993 . S
Co69 O94 1.941 . S
C70 O71 1.258 . S
C70 O72 1.263 . S
O71 Co68 1.970 . S
O71 C70 1.258 . S
O72 Co69 1.966 . S
O72 C70 1.263 . S
C73 O74 1.235 . S
C73 O100 1.289 . S
O74 C73 1.235 . S
C75 C77 1.400 . S
C75 N78 1.351 . S
C75 C80 1.501 . S
C76 C77 1.387 . S
C76 N79 1.341 . S
C77 C75 1.400 . S
C77 C76 1.387 . S
N78 Co69 2.022 . S
N78 C75 1.351 . S
N78 N79 1.365 . S
N79 C76 1.341 . S
N79 N78 1.365 . S
N79 H99 0.862 . S
C80 C75 1.501 . S
C80 H81 0.961 . S
C80 H82 0.961 . S
C80 H83 0.960 . S
H81 C80 0.961 . S
H82 C80 0.961 . S
H83 C80 0.960 . S
C84 N85 1.342 . S
C84 C88 1.401 . S
C84 C89 1.499 . S
N85 Co68 1.989 . S
N85 C84 1.342 . S
N85 N86 1.388 . S
N86 Co69 1.993 . S
N86 N85 1.388 . S
N86 C87 1.346 . S
C87 N86 1.346 . S
C87 C88 1.396 . S
C87 C97 1.510 . S
C88 C84 1.401 . S
C88 C87 1.396 . S
C89 C84 1.499 . S
C89 H90 0.959 . S
C89 H91 0.960 . S
C89 H92 0.961 . S
H90 C89 0.959 . S
H91 C89 0.960 . S
H92 C89 0.961 . S
O93 Co68 1.967 . S
O93 C101 1.258 . S
O94 Co69 1.941 . S
O94 C101 1.266 . S
H95 C97 0.959 . S
H96 C97 0.961 . S
C97 C87 1.510 . S
C97 H95 0.959 . S
C97 H96 0.961 . S
C97 H98 0.960 . S
H98 C97 0.960 . S
H99 N79 0.862 . S
O100 Co68 1.920 . S
O100 C73 1.289 . S
C101 O93 1.258 . S
C101 O94 1.266 . S
Co102 O105 1.970 . S
Co102 N119 1.989 . S
Co102 O127 1.967 . S
Co102 O134 1.920 . S
Co103 O106 1.966 . S
Co103 N112 2.022 . S
Co103 N120 1.993 . S
Co103 O128 1.941 . S
C104 O105 1.258 . S
C104 O106 1.263 . S
O105 Co102 1.970 . S
O105 C104 1.258 . S
O106 Co103 1.966 . S
O106 C104 1.263 . S
C107 O108 1.235 . S
C107 O134 1.289 . S
O108 C107 1.235 . S
C109 C111 1.400 . S
C109 N112 1.351 . S
C109 C114 1.501 1_565 S
C110 C111 1.387 . S
C110 N113 1.341 . S
C111 C109 1.400 . S
C111 C110 1.387 . S
N112 Co103 2.022 . S
N112 C109 1.351 . S
N112 N113 1.365 . S
N113 C110 1.341 . S
N113 N112 1.365 . S
N113 H133 0.862 . S
C114 C109 1.501 1_545 S
C114 H115 0.961 . S
C114 H116 0.961 . S
C114 H117 0.960 . S
H115 C114 0.961 . S
H116 C114 0.961 . S
H117 C114 0.960 . S
C118 N119 1.342 . S
C118 C122 1.401 . S
C118 C123 1.499 . S
N119 Co102 1.989 . S
N119 C118 1.342 . S
N119 N120 1.388 . S
N120 Co103 1.993 . S
N120 N119 1.388 . S
N120 C121 1.346 . S
C121 N120 1.346 . S
C121 C122 1.396 . S
C121 C131 1.510 . S
C122 C118 1.401 . S
C122 C121 1.396 . S
C123 C118 1.499 . S
C123 H124 0.959 . S
C123 H125 0.960 . S
C123 H126 0.961 . S
H124 C123 0.959 . S
H125 C123 0.960 . S
H126 C123 0.961 . S
O127 Co102 1.967 . S
O127 C135 1.258 . S
O128 Co103 1.941 . S
O128 C135 1.266 . S
H129 C131 0.959 . S
H130 C131 0.961 1_545 S
C131 C121 1.510 . S
C131 H129 0.959 . S
C131 H130 0.961 1_565 S
C131 H132 0.960 . S
H132 C131 0.960 . S
H133 N113 0.862 . S
O134 Co102 1.920 . S
O134 C107 1.289 . S
C135 O127 1.258 . S
C135 O128 1.266 . S
Co136 O139 1.970 . S
Co136 N153 1.989 . S
Co136 O161 1.967 . S
Co136 O168 1.920 . S
Co137 O140 1.966 . S
Co137 N146 2.022 . S
Co137 N154 1.993 . S
Co137 O162 1.941 . S
C138 O139 1.258 . S
C138 O140 1.263 . S
O139 Co136 1.970 . S
O139 C138 1.258 . S
O140 Co137 1.966 . S
O140 C138 1.263 . S
C141 O142 1.235 . S
C141 O168 1.289 . S
O142 C141 1.235 . S
C143 C145 1.400 . S
C143 N146 1.351 . S
C143 C148 1.501 . S
C144 C145 1.387 . S
C144 N147 1.341 . S
C145 C143 1.400 . S
C145 C144 1.387 . S
N146 Co137 2.022 . S
N146 C143 1.351 . S
N146 N147 1.365 . S
N147 C144 1.341 . S
N147 N146 1.365 . S
N147 H167 0.862 . S
C148 C143 1.501 . S
C148 H149 0.961 . S
C148 H150 0.961 . S
C148 H151 0.960 . S
H149 C148 0.961 . S
H150 C148 0.961 . S
H151 C148 0.960 . S
C152 N153 1.342 . S
C152 C156 1.401 . S
C152 C157 1.499 . S
N153 Co136 1.989 . S
N153 C152 1.342 . S
N153 N154 1.388 . S
N154 Co137 1.993 . S
N154 N153 1.388 . S
N154 C155 1.346 . S
C155 N154 1.346 . S
C155 C156 1.396 . S
C155 C165 1.510 . S
C156 C152 1.401 . S
C156 C155 1.396 . S
C157 C152 1.499 . S
C157 H158 0.959 . S
C157 H159 0.960 . S
C157 H160 0.961 . S
H158 C157 0.959 . S
H159 C157 0.960 . S
H160 C157 0.961 . S
O161 Co136 1.967 . S
O161 C169 1.258 . S
O162 Co137 1.941 . S
O162 C169 1.266 . S
H163 C165 0.959 . S
H164 C165 0.961 . S
C165 C155 1.510 . S
C165 H163 0.959 . S
C165 H164 0.961 . S
C165 H166 0.960 . S
H166 C165 0.960 . S
H167 N147 0.862 . S
O168 Co136 1.920 . S
O168 C141 1.289 . S
C169 O161 1.258 . S
C169 O162 1.266 . S
Co170 O173 1.970 . S
Co170 N187 1.989 . S
Co170 O195 1.967 . S
Co170 O202 1.920 . S
Co171 O174 1.966 . S
Co171 N180 2.022 . S
Co171 N188 1.993 . S
Co171 O196 1.941 . S
C172 O173 1.258 . S
C172 O174 1.263 . S
O173 Co170 1.970 . S
O173 C172 1.258 . S
O174 Co171 1.966 . S
O174 C172 1.263 . S
C175 O176 1.235 . S
C175 O202 1.289 . S
O176 C175 1.235 . S
C177 C179 1.400 . S
C177 N180 1.351 . S
C177 C182 1.501 1_545 S
C178 C179 1.387 . S
C178 N181 1.341 . S
C179 C177 1.400 . S
C179 C178 1.387 . S
N180 Co171 2.022 . S
N180 C177 1.351 . S
N180 N181 1.365 . S
N181 C178 1.341 . S
N181 N180 1.365 . S
N181 H201 0.862 . S
C182 C177 1.501 1_565 S
C182 H183 0.961 . S
C182 H184 0.961 . S
C182 H185 0.960 . S
H183 C182 0.961 . S
H184 C182 0.961 . S
H185 C182 0.960 . S
C186 N187 1.342 . S
C186 C190 1.401 . S
C186 C191 1.499 . S
N187 Co170 1.989 . S
N187 C186 1.342 . S
N187 N188 1.388 . S
N188 Co171 1.993 . S
N188 N187 1.388 . S
N188 C189 1.346 . S
C189 N188 1.346 . S
C189 C190 1.396 . S
C189 C199 1.510 . S
C190 C186 1.401 . S
C190 C189 1.396 . S
C191 C186 1.499 . S
C191 H192 0.959 . S
C191 H193 0.960 . S
C191 H194 0.961 . S
H192 C191 0.959 . S
H193 C191 0.960 . S
H194 C191 0.961 . S
O195 Co170 1.967 . S
O195 C203 1.258 . S
O196 Co171 1.941 . S
O196 C203 1.266 . S
H197 C199 0.959 . S
H198 C199 0.961 1_565 S
C199 C189 1.510 . S
C199 H197 0.959 . S
C199 H198 0.961 1_545 S
C199 H200 0.960 . S
H200 C199 0.960 . S
H201 N181 0.862 . S
O202 Co170 1.920 . S
O202 C175 1.289 . S
C203 O195 1.258 . S
C203 O196 1.266 . S
Co204 O207 1.970 . S
Co204 N221 1.989 . S
Co204 O229 1.967 . S
Co204 O236 1.920 . S
Co205 O208 1.966 . S
Co205 N214 2.022 . S
Co205 N222 1.993 . S
Co205 O230 1.941 . S
C206 O207 1.258 . S
C206 O208 1.263 . S
O207 Co204 1.970 . S
O207 C206 1.258 . S
O208 Co205 1.966 . S
O208 C206 1.263 . S
C209 O210 1.235 . S
C209 O236 1.289 . S
O210 C209 1.235 . S
C211 C213 1.400 . S
C211 N214 1.351 . S
C211 C216 1.501 . S
C212 C213 1.387 . S
C212 N215 1.341 . S
C213 C211 1.400 . S
C213 C212 1.387 . S
N214 Co205 2.022 . S
N214 C211 1.351 . S
N214 N215 1.365 . S
N215 C212 1.341 . S
N215 N214 1.365 . S
N215 H235 0.862 . S
C216 C211 1.501 . S
C216 H217 0.961 . S
C216 H218 0.961 . S
C216 H219 0.960 . S
H217 C216 0.961 . S
H218 C216 0.961 . S
H219 C216 0.960 . S
C220 N221 1.342 . S
C220 C224 1.401 . S
C220 C225 1.499 . S
N221 Co204 1.989 . S
N221 C220 1.342 . S
N221 N222 1.388 . S
N222 Co205 1.993 . S
N222 N221 1.388 . S
N222 C223 1.346 . S
C223 N222 1.346 . S
C223 C224 1.396 . S
C223 C233 1.510 . S
C224 C220 1.401 . S
C224 C223 1.396 . S
C225 C220 1.499 . S
C225 H226 0.959 . S
C225 H227 0.960 . S
C225 H228 0.961 . S
H226 C225 0.959 . S
H227 C225 0.960 . S
H228 C225 0.961 . S
O229 Co204 1.967 . S
O229 C237 1.258 . S
O230 Co205 1.941 . S
O230 C237 1.266 . S
H231 C233 0.959 . S
H232 C233 0.961 . S
C233 C223 1.510 . S
C233 H231 0.959 . S
C233 H232 0.961 . S
C233 H234 0.960 . S
H234 C233 0.960 . S
H235 N215 0.862 . S
O236 Co204 1.920 . S
O236 C209 1.289 . S
C237 O229 1.258 . S
C237 O230 1.266 . S
Co238 O241 1.970 . S
Co238 N255 1.989 . S
Co238 O263 1.967 . S
Co238 O270 1.920 . S
Co239 O242 1.966 1_455 S
Co239 N248 2.022 . S
Co239 N256 1.993 . S
Co239 O264 1.941 . S
C240 O241 1.258 1_655 S
C240 O242 1.264 . S
O241 Co238 1.970 . S
O241 C240 1.258 1_455 S
O242 Co239 1.966 1_655 S
O242 C240 1.264 . S
C243 O244 1.235 . S
C243 O270 1.289 . S
O244 C243 1.235 . S
C245 C247 1.400 . S
C245 N248 1.351 . S
C245 C250 1.506 1_565 S
C246 C247 1.387 . S
C246 N249 1.341 . S
C247 C245 1.400 . S
C247 C246 1.387 . S
N248 Co239 2.022 . S
N248 C245 1.351 . S
N248 N249 1.365 . S
N249 C246 1.341 . S
N249 N248 1.365 . S
N249 H269 0.862 . S
C250 C245 1.506 1_545 S
C250 H251 0.959 1_455 S
C250 H252 0.964 . S
C250 H253 0.954 1_455 S
H251 C250 0.959 1_655 S
H252 C250 0.964 . S
H253 C250 0.954 1_655 S
C254 N255 1.342 . S
C254 C258 1.401 . S
C254 C259 1.499 . S
N255 Co238 1.989 . S
N255 C254 1.342 . S
N255 N256 1.388 . S
N256 Co239 1.993 . S
N256 N255 1.388 . S
N256 C257 1.346 . S
C257 N256 1.346 . S
C257 C258 1.396 . S
C257 C267 1.510 . S
C258 C254 1.401 . S
C258 C257 1.396 . S
C259 C254 1.499 . S
C259 H260 0.959 . S
C259 H261 0.960 . S
C259 H262 0.961 . S
H260 C259 0.959 . S
H261 C259 0.960 . S
H262 C259 0.961 . S
O263 Co238 1.967 . S
O263 C271 1.258 . S
O264 Co239 1.941 . S
O264 C271 1.266 . S
H265 C267 0.959 . S
H266 C267 0.961 1_545 S
C267 C257 1.510 . S
C267 H265 0.959 . S
C267 H266 0.961 1_565 S
C267 H268 0.960 . S
H268 C267 0.960 . S
H269 N249 0.862 . S
O270 Co238 1.920 . S
O270 C243 1.289 . S
C271 O263 1.258 . S
C271 O264 1.266 . S
Co272 O275 1.970 . S
Co272 N289 1.989 . S
Co272 O297 1.967 . S
Co272 O304 1.920 . S
Co273 O276 1.966 . S
Co273 N282 2.022 . S
Co273 N290 1.993 . S
Co273 O298 1.941 . S
C274 O275 1.258 . S
C274 O276 1.263 . S
O275 Co272 1.970 . S
O275 C274 1.258 . S
O276 Co273 1.966 . S
O276 C274 1.263 . S
C277 O278 1.235 . S
C277 O304 1.289 . S
O278 C277 1.235 . S
C279 C281 1.400 . S
C279 N282 1.351 . S
C279 C284 1.501 . S
C280 C281 1.387 . S
C280 N283 1.341 . S
C281 C279 1.400 . S
C281 C280 1.387 . S
N282 Co273 2.022 . S
N282 C279 1.351 . S
N282 N283 1.365 . S
N283 C280 1.341 . S
N283 N282 1.365 . S
N283 H303 0.862 . S
C284 C279 1.501 . S
C284 H285 0.961 . S
C284 H286 0.961 . S
C284 H287 0.960 . S
H285 C284 0.961 . S
H286 C284 0.961 . S
H287 C284 0.960 . S
C288 N289 1.342 . S
C288 C292 1.401 . S
C288 C293 1.499 . S
N289 Co272 1.989 . S
N289 C288 1.342 . S
N289 N290 1.388 . S
N290 Co273 1.993 . S
N290 N289 1.388 . S
N290 C291 1.346 . S
C291 N290 1.346 . S
C291 C292 1.396 . S
C291 C301 1.510 . S
C292 C288 1.401 . S
C292 C291 1.396 . S
C293 C288 1.499 . S
C293 H294 0.959 . S
C293 H295 0.960 . S
C293 H296 0.961 . S
H294 C293 0.959 . S
H295 C293 0.960 . S
H296 C293 0.961 . S
O297 Co272 1.967 . S
O297 C305 1.258 . S
O298 Co273 1.941 . S
O298 C305 1.266 . S
H299 C301 0.959 . S
H300 C301 0.961 . S
C301 C291 1.510 . S
C301 H299 0.959 . S
C301 H300 0.961 . S
C301 H302 0.960 . S
H302 C301 0.960 . S
H303 N283 0.862 . S
O304 Co272 1.920 . S
O304 C277 1.289 . S
C305 O297 1.258 . S
C305 O298 1.266 . S
Co306 O309 1.970 . S
Co306 N323 1.989 . S
Co306 O331 1.967 . S
Co306 O338 1.920 . S
Co307 O310 1.966 . S
Co307 N316 2.022 . S
Co307 N324 1.993 . S
Co307 O332 1.941 . S
C308 O309 1.258 1_455 S
C308 O310 1.263 1_455 S
O309 Co306 1.970 . S
O309 C308 1.258 1_655 S
O310 Co307 1.966 . S
O310 C308 1.263 1_655 S
C311 O312 1.235 1_565 S
C311 O338 1.289 . S
O312 C311 1.235 1_545 S
C313 C315 1.400 . S
C313 N316 1.351 . S
C313 C318 1.501 . S
C314 C315 1.387 . S
C314 N317 1.341 . S
C315 C313 1.400 . S
C315 C314 1.387 . S
N316 Co307 2.022 . S
N316 C313 1.351 . S
N316 N317 1.365 . S
N317 C314 1.341 . S
N317 N316 1.365 . S
N317 H337 0.862 . S
C318 C313 1.501 . S
C318 H319 0.961 . S
C318 H320 0.961 1_565 S
C318 H321 0.960 . S
H319 C318 0.961 . S
H320 C318 0.961 1_545 S
H321 C318 0.960 . S
C322 N323 1.342 . S
C322 C326 1.401 . S
C322 C327 1.499 . S
N323 Co306 1.989 . S
N323 C322 1.342 . S
N323 N324 1.388 . S
N324 Co307 1.993 . S
N324 N323 1.388 . S
N324 C325 1.346 . S
C325 N324 1.346 . S
C325 C326 1.396 . S
C325 C335 1.510 . S
C326 C322 1.401 . S
C326 C325 1.396 . S
C327 C322 1.499 . S
C327 H328 0.959 . S
C327 H329 0.960 1_565 S
C327 H330 0.961 . S
H328 C327 0.959 . S
H329 C327 0.960 1_545 S
H330 C327 0.961 . S
O331 Co306 1.967 . S
O331 C339 1.258 . S
O332 Co307 1.941 . S
O332 C339 1.266 . S
H333 C335 0.959 . S
H334 C335 0.961 . S
C335 C325 1.510 . S
C335 H333 0.959 . S
C335 H334 0.961 . S
C335 H336 0.960 . S
H336 C335 0.960 . S
H337 N317 0.862 . S
O338 Co306 1.920 . S
O338 C311 1.289 . S
C339 O331 1.258 . S
C339 O332 1.266 . S
Co340 O343 1.970 . S
Co340 N357 1.989 . S
Co340 O365 1.967 . S
Co340 O372 1.920 . S
Co341 O344 1.966 . S
Co341 N350 2.022 . S
Co341 N358 1.993 . S
Co341 O366 1.941 . S
C342 O343 1.258 . S
C342 O344 1.263 . S
O343 Co340 1.970 . S
O343 C342 1.258 . S
O344 Co341 1.966 . S
O344 C342 1.263 . S
C345 O346 1.235 . S
C345 O372 1.289 . S
O346 C345 1.235 . S
C347 C349 1.400 . S
C347 N350 1.351 . S
C347 C352 1.501 . S
C348 C349 1.387 . S
C348 N351 1.341 . S
C349 C347 1.400 . S
C349 C348 1.387 . S
N350 Co341 2.022 . S
N350 C347 1.351 . S
N350 N351 1.365 . S
N351 C348 1.341 . S
N351 N350 1.365 . S
N351 H371 0.862 . S
C352 C347 1.501 . S
C352 H353 0.961 . S
C352 H354 0.961 . S
C352 H355 0.960 . S
H353 C352 0.961 . S
H354 C352 0.961 . S
H355 C352 0.960 . S
C356 N357 1.342 . S
C356 C360 1.401 . S
C356 C361 1.499 . S
N357 Co340 1.989 . S
N357 C356 1.342 . S
N357 N358 1.388 . S
N358 Co341 1.993 . S
N358 N357 1.388 . S
N358 C359 1.346 . S
C359 N358 1.346 . S
C359 C360 1.396 . S
C359 C369 1.510 . S
C360 C356 1.401 . S
C360 C359 1.396 . S
C361 C356 1.499 . S
C361 H362 0.959 . S
C361 H363 0.960 . S
C361 H364 0.961 . S
H362 C361 0.959 . S
H363 C361 0.960 . S
H364 C361 0.961 . S
O365 Co340 1.967 . S
O365 C373 1.258 . S
O366 Co341 1.941 . S
O366 C373 1.266 . S
H367 C369 0.959 . S
H368 C369 0.961 . S
C369 C359 1.510 . S
C369 H367 0.959 . S
C369 H368 0.961 . S
C369 H370 0.960 . S
H370 C369 0.960 . S
H371 N351 0.862 . S
O372 Co340 1.920 . S
O372 C345 1.289 . S
C373 O365 1.258 . S
C373 O366 1.266 . S
Co374 O377 1.970 . S
Co374 N391 1.989 . S
Co374 O399 1.967 . S
Co374 O406 1.920 . S
Co375 O378 1.966 . S
Co375 N384 2.022 . S
Co375 N392 1.993 . S
Co375 O400 1.941 . S
C376 O377 1.258 . S
C376 O378 1.263 . S
O377 Co374 1.970 . S
O377 C376 1.258 . S
O378 Co375 1.966 . S
O378 C376 1.263 . S
C379 O380 1.235 1_545 S
C379 O406 1.289 . S
O380 C379 1.235 1_565 S
C381 C383 1.400 . S
C381 N384 1.351 . S
C381 C386 1.501 . S
C382 C383 1.387 . S
C382 N385 1.341 . S
C383 C381 1.400 . S
C383 C382 1.387 . S
N384 Co375 2.022 . S
N384 C381 1.351 . S
N384 N385 1.365 . S
N385 C382 1.341 . S
N385 N384 1.365 . S
N385 H405 0.862 . S
C386 C381 1.501 . S
C386 H387 0.961 . S
C386 H388 0.961 1_545 S
C386 H389 0.960 . S
H387 C386 0.961 . S
H388 C386 0.961 1_565 S
H389 C386 0.960 . S
C390 N391 1.342 . S
C390 C394 1.401 . S
C390 C395 1.499 . S
N391 Co374 1.989 . S
N391 C390 1.342 . S
N391 N392 1.388 . S
N392 Co375 1.993 . S
N392 N391 1.388 . S
N392 C393 1.346 . S
C393 N392 1.346 . S
C393 C394 1.396 . S
C393 C403 1.510 . S
C394 C390 1.401 . S
C394 C393 1.396 . S
C395 C390 1.499 . S
C395 H396 0.959 . S
C395 H397 0.960 1_545 S
C395 H398 0.961 . S
H396 C395 0.959 . S
H397 C395 0.960 1_565 S
H398 C395 0.961 . S
O399 Co374 1.967 . S
O399 C407 1.258 . S
O400 Co375 1.941 . S
O400 C407 1.266 . S
H401 C403 0.959 . S
H402 C403 0.961 . S
C403 C393 1.510 . S
C403 H401 0.959 . S
C403 H402 0.961 . S
C403 H404 0.960 . S
H404 C403 0.960 . S
H405 N385 0.862 . S
O406 Co374 1.920 . S
O406 C379 1.289 . S
C407 O399 1.258 . S
C407 O400 1.266 . S
Co408 O411 1.970 . S
Co408 N425 1.989 . S
Co408 O433 1.967 . S
Co408 O440 1.920 . S
Co409 O412 1.966 . S
Co409 N418 2.022 . S
Co409 N426 1.993 . S
Co409 O434 1.941 . S
C410 O411 1.258 . S
C410 O412 1.263 . S
O411 Co408 1.970 . S
O411 C410 1.258 . S
O412 Co409 1.966 . S
O412 C410 1.263 . S
C413 O414 1.235 . S
C413 O440 1.289 . S
O414 C413 1.235 . S
C415 C417 1.400 . S
C415 N418 1.351 . S
C415 C420 1.501 . S
C416 C417 1.387 . S
C416 N419 1.341 . S
C417 C415 1.400 . S
C417 C416 1.387 . S
N418 Co409 2.022 . S
N418 C415 1.351 . S
N418 N419 1.365 . S
N419 C416 1.341 . S
N419 N418 1.365 . S
N419 H439 0.862 . S
C420 C415 1.501 . S
C420 H421 0.961 . S
C420 H422 0.961 . S
C420 H423 0.960 . S
H421 C420 0.961 . S
H422 C420 0.961 . S
H423 C420 0.960 . S
C424 N425 1.342 . S
C424 C428 1.401 . S
C424 C429 1.499 . S
N425 Co408 1.989 . S
N425 C424 1.342 . S
N425 N426 1.388 . S
N426 Co409 1.993 . S
N426 N425 1.388 . S
N426 C427 1.346 . S
C427 N426 1.346 . S
C427 C428 1.396 . S
C427 C437 1.510 . S
C428 C424 1.401 . S
C428 C427 1.396 . S
C429 C424 1.499 . S
C429 H430 0.959 . S
C429 H431 0.960 . S
C429 H432 0.961 . S
H430 C429 0.959 . S
H431 C429 0.960 . S
H432 C429 0.961 . S
O433 Co408 1.967 . S
O433 C441 1.258 . S
O434 Co409 1.941 . S
O434 C441 1.266 . S
H435 C437 0.959 . S
H436 C437 0.961 . S
C437 C427 1.510 . S
C437 H435 0.959 . S
C437 H436 0.961 . S
C437 H438 0.960 . S
H438 C437 0.960 . S
H439 N419 0.862 . S
O440 Co408 1.920 . S
O440 C413 1.289 . S
C441 O433 1.258 . S
C441 O434 1.266 . S
Co442 O445 1.970 . S
Co442 N459 1.989 . S
Co442 O467 1.967 . S
Co442 O474 1.920 . S
Co443 O446 1.966 . S
Co443 N452 2.022 . S
Co443 N460 1.993 . S
Co443 O468 1.941 . S
C444 O445 1.258 . S
C444 O446 1.263 . S
O445 Co442 1.970 . S
O445 C444 1.258 . S
O446 Co443 1.966 . S
O446 C444 1.263 . S
C447 O448 1.235 1_565 S
C447 O474 1.289 . S
O448 C447 1.235 1_545 S
C449 C451 1.400 . S
C449 N452 1.351 . S
C449 C454 1.501 . S
C450 C451 1.387 . S
C450 N453 1.341 . S
C451 C449 1.400 . S
C451 C450 1.387 . S
N452 Co443 2.022 . S
N452 C449 1.351 . S
N452 N453 1.365 . S
N453 C450 1.341 . S
N453 N452 1.365 . S
N453 H473 0.862 . S
C454 C449 1.501 . S
C454 H455 0.961 . S
C454 H456 0.961 1_565 S
C454 H457 0.960 . S
H455 C454 0.961 . S
H456 C454 0.961 1_545 S
H457 C454 0.960 . S
C458 N459 1.342 . S
C458 C462 1.401 . S
C458 C463 1.499 . S
N459 Co442 1.989 . S
N459 C458 1.342 . S
N459 N460 1.388 . S
N460 Co443 1.993 . S
N460 N459 1.388 . S
N460 C461 1.346 . S
C461 N460 1.346 . S
C461 C462 1.396 . S
C461 C471 1.510 . S
C462 C458 1.401 . S
C462 C461 1.396 . S
C463 C458 1.499 . S
C463 H464 0.959 . S
C463 H465 0.960 1_565 S
C463 H466 0.961 . S
H464 C463 0.959 . S
H465 C463 0.960 1_545 S
H466 C463 0.961 . S
O467 Co442 1.967 . S
O467 C475 1.258 . S
O468 Co443 1.941 . S
O468 C475 1.266 . S
H469 C471 0.959 . S
H470 C471 0.961 . S
C471 C461 1.510 . S
C471 H469 0.959 . S
C471 H470 0.961 . S
C471 H472 0.960 . S
H472 C471 0.960 . S
H473 N453 0.862 . S
O474 Co442 1.920 . S
O474 C447 1.289 . S
C475 O467 1.258 . S
C475 O468 1.266 . S
Co476 O479 1.970 . S
Co476 N493 1.989 . S
Co476 O501 1.967 . S
Co476 O508 1.920 . S
Co477 O480 1.966 . S
Co477 N486 2.022 . S
Co477 N494 1.993 . S
Co477 O502 1.941 . S
C478 O479 1.258 . S
C478 O480 1.263 . S
O479 Co476 1.970 . S
O479 C478 1.258 . S
O480 Co477 1.966 . S
O480 C478 1.263 . S
C481 O482 1.235 . S
C481 O508 1.289 . S
O482 C481 1.235 . S
C483 C485 1.400 . S
C483 N486 1.351 . S
C483 C488 1.501 . S
C484 C485 1.387 . S
C484 N487 1.341 . S
C485 C483 1.400 . S
C485 C484 1.387 . S
N486 Co477 2.022 . S
N486 C483 1.351 . S
N486 N487 1.365 . S
N487 C484 1.341 . S
N487 N486 1.365 . S
N487 H507 0.862 . S
C488 C483 1.501 . S
C488 H489 0.961 . S
C488 H490 0.961 . S
C488 H491 0.960 . S
H489 C488 0.961 . S
H490 C488 0.961 . S
H491 C488 0.960 . S
C492 N493 1.342 . S
C492 C496 1.401 . S
C492 C497 1.499 . S
N493 Co476 1.989 . S
N493 C492 1.342 . S
N493 N494 1.388 . S
N494 Co477 1.993 . S
N494 N493 1.388 . S
N494 C495 1.346 . S
C495 N494 1.346 . S
C495 C496 1.396 . S
C495 C505 1.510 . S
C496 C492 1.401 . S
C496 C495 1.396 . S
C497 C492 1.499 . S
C497 H498 0.959 . S
C497 H499 0.960 . S
C497 H500 0.961 . S
H498 C497 0.959 . S
H499 C497 0.960 . S
H500 C497 0.961 . S
O501 Co476 1.967 . S
O501 C509 1.258 . S
O502 Co477 1.941 . S
O502 C509 1.266 . S
H503 C505 0.959 . S
H504 C505 0.961 . S
C505 C495 1.510 . S
C505 H503 0.959 . S
C505 H504 0.961 . S
C505 H506 0.960 . S
H506 C505 0.960 . S
H507 N487 0.862 . S
O508 Co476 1.920 . S
O508 C481 1.289 . S
C509 O501 1.258 . S
C509 O502 1.266 . S
Co510 O513 1.970 . S
Co510 N527 1.989 . S
Co510 O535 1.967 . S
Co510 O542 1.920 . S
Co511 O514 1.966 . S
Co511 N520 2.022 . S
Co511 N528 1.993 . S
Co511 O536 1.941 . S
C512 O513 1.258 1_455 S
C512 O514 1.263 1_455 S
O513 Co510 1.970 . S
O513 C512 1.258 1_655 S
O514 Co511 1.966 . S
O514 C512 1.263 1_655 S
C515 O516 1.235 1_545 S
C515 O542 1.289 . S
O516 C515 1.235 1_565 S
C517 C519 1.400 . S
C517 N520 1.351 . S
C517 C522 1.501 . S
C518 C519 1.387 . S
C518 N521 1.341 . S
C519 C517 1.400 . S
C519 C518 1.387 . S
N520 Co511 2.022 . S
N520 C517 1.351 . S
N520 N521 1.365 . S
N521 C518 1.341 . S
N521 N520 1.365 . S
N521 H541 0.862 . S
C522 C517 1.501 . S
C522 H523 0.961 . S
C522 H524 0.961 1_545 S
C522 H525 0.960 . S
H523 C522 0.961 . S
H524 C522 0.961 1_565 S
H525 C522 0.960 . S
C526 N527 1.342 . S
C526 C530 1.401 . S
C526 C531 1.499 . S
N527 Co510 1.989 . S
N527 C526 1.342 . S
N527 N528 1.388 . S
N528 Co511 1.993 . S
N528 N527 1.388 . S
N528 C529 1.346 . S
C529 N528 1.346 . S
C529 C530 1.396 . S
C529 C539 1.510 . S
C530 C526 1.401 . S
C530 C529 1.396 . S
C531 C526 1.499 . S
C531 H532 0.959 . S
C531 H533 0.960 1_545 S
C531 H534 0.961 . S
H532 C531 0.959 . S
H533 C531 0.960 1_565 S
H534 C531 0.961 . S
O535 Co510 1.967 . S
O535 C543 1.258 . S
O536 Co511 1.941 . S
O536 C543 1.266 . S
H537 C539 0.959 . S
H538 C539 0.961 . S
C539 C529 1.510 . S
C539 H537 0.959 . S
C539 H538 0.961 . S
C539 H540 0.960 . S
H540 C539 0.960 . S
H541 N521 0.862 . S
O542 Co510 1.920 . S
O542 C515 1.289 . S
C543 O535 1.258 . S
C543 O536 1.266 . S
Co544 O547 1.970 . S
Co544 N561 1.989 . S
Co544 O569 1.967 . S
Co544 O576 1.920 . S
Co545 O548 1.966 . S
Co545 N554 2.022 . S
Co545 N562 1.993 . S
Co545 O570 1.941 . S
C546 O547 1.258 . S
C546 O548 1.263 . S
O547 Co544 1.970 . S
O547 C546 1.258 . S
O548 Co545 1.966 . S
O548 C546 1.263 . S
C549 O550 1.235 . S
C549 O576 1.289 . S
O550 C549 1.235 . S
C551 C553 1.400 . S
C551 N554 1.351 . S
C551 C556 1.501 . S
C552 C553 1.387 . S
C552 N555 1.341 . S
C553 C551 1.400 . S
C553 C552 1.387 . S
N554 Co545 2.022 . S
N554 C551 1.351 . S
N554 N555 1.365 . S
N555 C552 1.341 . S
N555 N554 1.365 . S
N555 H575 0.862 . S
C556 C551 1.501 . S
C556 H557 0.961 . S
C556 H558 0.961 . S
C556 H559 0.960 . S
H557 C556 0.961 . S
H558 C556 0.961 . S
H559 C556 0.960 . S
C560 N561 1.342 . S
C560 C564 1.401 . S
C560 C565 1.499 . S
N561 Co544 1.989 . S
N561 C560 1.342 . S
N561 N562 1.388 . S
N562 Co545 1.993 . S
N562 N561 1.388 . S
N562 C563 1.346 . S
C563 N562 1.346 . S
C563 C564 1.396 . S
C563 C573 1.510 . S
C564 C560 1.401 . S
C564 C563 1.396 . S
C565 C560 1.499 . S
C565 H566 0.959 . S
C565 H567 0.960 . S
C565 H568 0.961 . S
H566 C565 0.959 . S
H567 C565 0.960 . S
H568 C565 0.961 . S
O569 Co544 1.967 . S
O569 C577 1.258 . S
O570 Co545 1.941 . S
O570 C577 1.266 . S
H571 C573 0.959 . S
H572 C573 0.961 . S
C573 C563 1.510 . S
C573 H571 0.959 . S
C573 H572 0.961 . S
C573 H574 0.960 . S
H574 C573 0.960 . S
H575 N555 0.862 . S
O576 Co544 1.920 . S
O576 C549 1.289 . S
C577 O569 1.258 . S
C577 O570 1.266 . S
Co578 O581 1.970 . S
Co578 N595 1.989 . S
Co578 O603 1.967 . S
Co578 O610 1.920 . S
Co579 O582 1.966 . S
Co579 N588 2.022 . S
Co579 N596 1.993 . S
Co579 O604 1.941 . S
C580 O581 1.258 . S
C580 O582 1.263 . S
O581 Co578 1.970 . S
O581 C580 1.258 . S
O582 Co579 1.966 . S
O582 C580 1.263 . S
C583 O584 1.235 . S
C583 O610 1.289 . S
O584 C583 1.235 . S
C585 C587 1.400 . S
C585 N588 1.351 . S
C585 C590 1.501 . S
C586 C587 1.387 . S
C586 N589 1.341 . S
C587 C585 1.400 . S
C587 C586 1.387 . S
N588 Co579 2.022 . S
N588 C585 1.351 . S
N588 N589 1.365 . S
N589 C586 1.341 . S
N589 N588 1.365 . S
N589 H609 0.862 . S
C590 C585 1.501 . S
C590 H591 0.961 . S
C590 H592 0.961 . S
C590 H593 0.960 . S
H591 C590 0.961 . S
H592 C590 0.961 . S
H593 C590 0.960 . S
C594 N595 1.342 . S
C594 C598 1.401 . S
C594 C599 1.499 . S
N595 Co578 1.989 . S
N595 C594 1.342 . S
N595 N596 1.388 . S
N596 Co579 1.993 . S
N596 N595 1.388 . S
N596 C597 1.346 . S
C597 N596 1.346 . S
C597 C598 1.396 . S
C597 C607 1.510 . S
C598 C594 1.401 . S
C598 C597 1.396 . S
C599 C594 1.499 . S
C599 H600 0.959 . S
C599 H601 0.960 . S
C599 H602 0.961 . S
H600 C599 0.959 . S
H601 C599 0.960 . S
H602 C599 0.961 . S
O603 Co578 1.967 . S
O603 C611 1.258 . S
O604 Co579 1.941 . S
O604 C611 1.266 . S
H605 C607 0.959 . S
H606 C607 0.961 . S
C607 C597 1.510 . S
C607 H605 0.959 . S
C607 H606 0.961 . S
C607 H608 0.960 . S
H608 C607 0.960 . S
H609 N589 0.862 . S
O610 Co578 1.920 . S
O610 C583 1.289 . S
C611 O603 1.258 . S
C611 O604 1.266 . S
Co612 O615 1.970 . S
Co612 N629 1.989 . S
Co612 O637 1.967 . S
Co612 O644 1.920 . S
Co613 O616 1.966 . S
Co613 N622 2.022 . S
Co613 N630 1.993 . S
Co613 O638 1.941 . S
C614 O615 1.258 . S
C614 O616 1.263 . S
O615 Co612 1.970 . S
O615 C614 1.258 . S
O616 Co613 1.966 . S
O616 C614 1.263 . S
C617 O618 1.235 . S
C617 O644 1.289 . S
O618 C617 1.235 . S
C619 C621 1.400 . S
C619 N622 1.351 . S
C619 C624 1.501 . S
C620 C621 1.387 . S
C620 N623 1.341 . S
C621 C619 1.400 . S
C621 C620 1.387 . S
N622 Co613 2.022 . S
N622 C619 1.351 . S
N622 N623 1.365 . S
N623 C620 1.341 . S
N623 N622 1.365 . S
N623 H643 0.862 . S
C624 C619 1.501 . S
C624 H625 0.961 . S
C624 H626 0.961 . S
C624 H627 0.960 . S
H625 C624 0.961 . S
H626 C624 0.961 . S
H627 C624 0.960 . S
C628 N629 1.342 . S
C628 C632 1.401 . S
C628 C633 1.499 . S
N629 Co612 1.989 . S
N629 C628 1.342 . S
N629 N630 1.388 . S
N630 Co613 1.993 . S
N630 N629 1.388 . S
N630 C631 1.346 . S
C631 N630 1.346 . S
C631 C632 1.396 . S
C631 C641 1.510 . S
C632 C628 1.401 . S
C632 C631 1.396 . S
C633 C628 1.499 . S
C633 H634 0.959 . S
C633 H635 0.960 . S
C633 H636 0.961 . S
H634 C633 0.959 . S
H635 C633 0.960 . S
H636 C633 0.961 . S
O637 Co612 1.967 . S
O637 C645 1.258 . S
O638 Co613 1.941 . S
O638 C645 1.266 . S
H639 C641 0.959 . S
H640 C641 0.961 . S
C641 C631 1.510 . S
C641 H639 0.959 . S
C641 H640 0.961 . S
C641 H642 0.960 . S
H642 C641 0.960 . S
H643 N623 0.862 . S
O644 Co612 1.920 . S
O644 C617 1.289 . S
C645 O637 1.258 . S
C645 O638 1.266 . S
Co646 O649 1.970 . S
Co646 N663 1.989 . S
Co646 O671 1.967 . S
Co646 O678 1.920 . S
Co647 O650 1.970 . S
Co647 N656 2.022 . S
Co647 N664 1.993 . S
Co647 O672 1.941 . S
C648 O649 1.258 1_455 S
C648 O650 1.262 1_455 S
O649 Co646 1.970 . S
O649 C648 1.258 1_655 S
O650 Co647 1.970 . S
O650 C648 1.262 1_655 S
C651 O652 1.235 . S
C651 O678 1.289 . S
O652 C651 1.235 . S
C653 C655 1.400 . S
C653 N656 1.351 . S
C653 C658 1.514 . S
C654 C655 1.387 . S
C654 N657 1.341 . S
C655 C653 1.400 . S
C655 C654 1.387 . S
N656 Co647 2.022 . S
N656 C653 1.351 . S
N656 N657 1.365 . S
N657 C654 1.341 . S
N657 N656 1.365 . S
N657 H677 0.862 . S
C658 C653 1.514 . S
C658 H659 0.957 1_655 S
C658 H660 0.968 . S
C658 H661 0.944 1_655 S
H659 C658 0.957 1_455 S
H660 C658 0.968 . S
H661 C658 0.944 1_455 S
C662 N663 1.342 . S
C662 C666 1.401 . S
C662 C667 1.499 . S
N663 Co646 1.989 . S
N663 C662 1.342 . S
N663 N664 1.388 . S
N664 Co647 1.993 . S
N664 N663 1.388 . S
N664 C665 1.346 . S
C665 N664 1.346 . S
C665 C666 1.396 . S
C665 C675 1.510 . S
C666 C662 1.401 . S
C666 C665 1.396 . S
C667 C662 1.499 . S
C667 H668 0.959 . S
C667 H669 0.960 . S
C667 H670 0.961 . S
H668 C667 0.959 . S
H669 C667 0.960 . S
H670 C667 0.961 . S
O671 Co646 1.967 . S
O671 C679 1.258 . S
O672 Co647 1.941 . S
O672 C679 1.266 . S
H673 C675 0.959 . S
H674 C675 0.961 . S
C675 C665 1.510 . S
C675 H673 0.959 . S
C675 H674 0.961 . S
C675 H676 0.960 . S
H676 C675 0.960 . S
H677 N657 0.862 . S
O678 Co646 1.920 . S
O678 C651 1.289 . S
C679 O671 1.258 . S
C679 O672 1.266 . S
Co680 O683 1.970 . S
Co680 N697 1.989 . S
Co680 O705 1.967 . S
Co680 O712 1.920 . S
Co681 O684 1.966 . S
Co681 N690 2.022 . S
Co681 N698 1.993 . S
Co681 O706 1.941 . S
C682 O683 1.258 . S
C682 O684 1.263 . S
O683 Co680 1.970 . S
O683 C682 1.258 . S
O684 Co681 1.966 . S
O684 C682 1.263 . S
C685 O686 1.235 . S
C685 O712 1.289 . S
O686 C685 1.235 . S
C687 C689 1.400 . S
C687 N690 1.351 . S
C687 C692 1.501 . S
C688 C689 1.387 . S
C688 N691 1.341 . S
C689 C687 1.400 . S
C689 C688 1.387 . S
N690 Co681 2.022 . S
N690 C687 1.351 . S
N690 N691 1.365 . S
N691 C688 1.341 . S
N691 N690 1.365 . S
N691 H711 0.862 . S
C692 C687 1.501 . S
C692 H693 0.961 . S
C692 H694 0.961 . S
C692 H695 0.960 . S
H693 C692 0.961 . S
H694 C692 0.961 . S
H695 C692 0.960 . S
C696 N697 1.342 . S
C696 C700 1.401 . S
C696 C701 1.499 . S
N697 Co680 1.989 . S
N697 C696 1.342 . S
N697 N698 1.388 . S
N698 Co681 1.993 . S
N698 N697 1.388 . S
N698 C699 1.346 . S
C699 N698 1.346 . S
C699 C700 1.396 . S
C699 C709 1.510 . S
C700 C696 1.401 . S
C700 C699 1.396 . S
C701 C696 1.499 . S
C701 H702 0.959 . S
C701 H703 0.960 . S
C701 H704 0.961 . S
H702 C701 0.959 . S
H703 C701 0.960 . S
H704 C701 0.961 . S
O705 Co680 1.967 . S
O705 C713 1.258 . S
O706 Co681 1.941 . S
O706 C713 1.266 . S
H707 C709 0.959 . S
H708 C709 0.961 . S
C709 C699 1.510 . S
C709 H707 0.959 . S
C709 H708 0.961 . S
C709 H710 0.960 . S
H710 C709 0.960 . S
H711 N691 0.862 . S
O712 Co680 1.920 . S
O712 C685 1.289 . S
C713 O705 1.258 . S
C713 O706 1.266 . S
Co714 O717 1.970 . S
Co714 N731 1.989 . S
Co714 O739 1.967 . S
Co714 O746 1.920 . S
Co715 O718 1.970 . S
Co715 N724 2.022 . S
Co715 N732 1.993 . S
Co715 O740 1.941 . S
C716 O717 1.258 1_455 S
C716 O718 1.262 1_455 S
O717 Co714 1.970 . S
O717 C716 1.258 1_655 S
O718 Co715 1.970 . S
O718 C716 1.262 1_655 S
C719 O720 1.235 . S
C719 O746 1.289 . S
O720 C719 1.235 . S
C721 C723 1.400 . S
C721 N724 1.351 . S
C721 C726 1.514 . S
C722 C723 1.387 . S
C722 N725 1.341 . S
C723 C721 1.400 . S
C723 C722 1.387 . S
N724 Co715 2.022 . S
N724 C721 1.351 . S
N724 N725 1.365 . S
N725 C722 1.341 . S
N725 N724 1.365 . S
N725 H745 0.862 . S
C726 C721 1.514 . S
C726 H727 0.957 1_655 S
C726 H728 0.968 . S
C726 H729 0.944 1_655 S
H727 C726 0.957 1_455 S
H728 C726 0.968 . S
H729 C726 0.944 1_455 S
C730 N731 1.342 . S
C730 C734 1.401 . S
C730 C735 1.499 . S
N731 Co714 1.989 . S
N731 C730 1.342 . S
N731 N732 1.388 . S
N732 Co715 1.993 . S
N732 N731 1.388 . S
N732 C733 1.346 . S
C733 N732 1.346 . S
C733 C734 1.396 . S
C733 C743 1.510 . S
C734 C730 1.401 . S
C734 C733 1.396 . S
C735 C730 1.499 . S
C735 H736 0.959 . S
C735 H737 0.960 . S
C735 H738 0.961 . S
H736 C735 0.959 . S
H737 C735 0.960 . S
H738 C735 0.961 . S
O739 Co714 1.967 . S
O739 C747 1.258 . S
O740 Co715 1.941 . S
O740 C747 1.266 . S
H741 C743 0.959 . S
H742 C743 0.961 . S
C743 C733 1.510 . S
C743 H741 0.959 . S
C743 H742 0.961 . S
C743 H744 0.960 . S
H744 C743 0.960 . S
H745 N725 0.862 . S
O746 Co714 1.920 . S
O746 C719 1.289 . S
C747 O739 1.258 . S
C747 O740 1.266 . S
Co748 O751 1.970 . S
Co748 N765 1.989 . S
Co748 O773 1.967 . S
Co748 O780 1.920 . S
Co749 O752 1.966 . S
Co749 N758 2.022 . S
Co749 N766 1.993 . S
Co749 O774 1.941 . S
C750 O751 1.258 . S
C750 O752 1.263 . S
O751 Co748 1.970 . S
O751 C750 1.258 . S
O752 Co749 1.966 . S
O752 C750 1.263 . S
C753 O754 1.235 . S
C753 O780 1.289 . S
O754 C753 1.235 . S
C755 C757 1.400 . S
C755 N758 1.351 . S
C755 C760 1.501 . S
C756 C757 1.387 . S
C756 N759 1.341 . S
C757 C755 1.400 . S
C757 C756 1.387 . S
N758 Co749 2.022 . S
N758 C755 1.351 . S
N758 N759 1.365 . S
N759 C756 1.341 . S
N759 N758 1.365 . S
N759 H779 0.862 . S
C760 C755 1.501 . S
C760 H761 0.961 . S
C760 H762 0.961 . S
C760 H763 0.960 . S
H761 C760 0.961 . S
H762 C760 0.961 . S
H763 C760 0.960 . S
C764 N765 1.342 . S
C764 C768 1.401 . S
C764 C769 1.499 . S
N765 Co748 1.989 . S
N765 C764 1.342 . S
N765 N766 1.388 . S
N766 Co749 1.993 . S
N766 N765 1.388 . S
N766 C767 1.346 . S
C767 N766 1.346 . S
C767 C768 1.396 . S
C767 C777 1.510 . S
C768 C764 1.401 . S
C768 C767 1.396 . S
C769 C764 1.499 . S
C769 H770 0.959 . S
C769 H771 0.960 . S
C769 H772 0.961 . S
H770 C769 0.959 . S
H771 C769 0.960 . S
H772 C769 0.961 . S
O773 Co748 1.967 . S
O773 C781 1.258 . S
O774 Co749 1.941 . S
O774 C781 1.266 . S
H775 C777 0.959 . S
H776 C777 0.961 . S
C777 C767 1.510 . S
C777 H775 0.959 . S
C777 H776 0.961 . S
C777 H778 0.960 . S
H778 C777 0.960 . S
H779 N759 0.862 . S
O780 Co748 1.920 . S
O780 C753 1.289 . S
C781 O773 1.258 . S
C781 O774 1.266 . S
Co782 O785 1.970 . S
Co782 N799 1.989 . S
Co782 O807 1.967 . S
Co782 O814 1.920 . S
Co783 O786 1.966 . S
Co783 N792 2.022 . S
Co783 N800 1.993 . S
Co783 O808 1.941 . S
C784 O785 1.258 . S
C784 O786 1.263 . S
O785 Co782 1.970 . S
O785 C784 1.258 . S
O786 Co783 1.966 . S
O786 C784 1.263 . S
C787 O788 1.235 . S
C787 O814 1.289 . S
O788 C787 1.235 . S
C789 C791 1.400 . S
C789 N792 1.351 . S
C789 C794 1.501 . S
C790 C791 1.387 . S
C790 N793 1.341 . S
C791 C789 1.400 . S
C791 C790 1.387 . S
N792 Co783 2.022 . S
N792 C789 1.351 . S
N792 N793 1.365 . S
N793 C790 1.341 . S
N793 N792 1.365 . S
N793 H813 0.862 . S
C794 C789 1.501 . S
C794 H795 0.961 . S
C794 H796 0.961 . S
C794 H797 0.960 . S
H795 C794 0.961 . S
H796 C794 0.961 . S
H797 C794 0.960 . S
C798 N799 1.342 . S
C798 C802 1.401 . S
C798 C803 1.499 . S
N799 Co782 1.989 . S
N799 C798 1.342 . S
N799 N800 1.388 . S
N800 Co783 1.993 . S
N800 N799 1.388 . S
N800 C801 1.346 . S
C801 N800 1.346 . S
C801 C802 1.396 . S
C801 C811 1.510 . S
C802 C798 1.401 . S
C802 C801 1.396 . S
C803 C798 1.499 . S
C803 H804 0.959 . S
C803 H805 0.960 . S
C803 H806 0.961 . S
H804 C803 0.959 . S
H805 C803 0.960 . S
H806 C803 0.961 . S
O807 Co782 1.967 . S
O807 C815 1.258 . S
O808 Co783 1.941 . S
O808 C815 1.266 . S
H809 C811 0.959 . S
H810 C811 0.961 . S
C811 C801 1.510 . S
C811 H809 0.959 . S
C811 H810 0.961 . S
C811 H812 0.960 . S
H812 C811 0.960 . S
H813 N793 0.862 . S
O814 Co782 1.920 . S
O814 C787 1.289 . S
C815 O807 1.258 . S
C815 O808 1.266 . S
Co816 O819 1.970 . S
Co816 N833 1.989 . S
Co816 O841 1.967 . S
Co816 O848 1.920 . S
Co817 O820 1.966 . S
Co817 N826 2.022 . S
Co817 N834 1.993 . S
Co817 O842 1.941 . S
C818 O819 1.258 . S
C818 O820 1.263 . S
O819 Co816 1.970 . S
O819 C818 1.258 . S
O820 Co817 1.966 . S
O820 C818 1.263 . S
C821 O822 1.235 . S
C821 O848 1.289 . S
O822 C821 1.235 . S
C823 C825 1.400 . S
C823 N826 1.351 . S
C823 C828 1.501 . S
C824 C825 1.387 . S
C824 N827 1.341 . S
C825 C823 1.400 . S
C825 C824 1.387 . S
N826 Co817 2.022 . S
N826 C823 1.351 . S
N826 N827 1.365 . S
N827 C824 1.341 . S
N827 N826 1.365 . S
N827 H847 0.862 . S
C828 C823 1.501 . S
C828 H829 0.961 . S
C828 H830 0.961 . S
C828 H831 0.960 . S
H829 C828 0.961 . S
H830 C828 0.961 . S
H831 C828 0.960 . S
C832 N833 1.342 . S
C832 C836 1.401 . S
C832 C837 1.499 . S
N833 Co816 1.989 . S
N833 C832 1.342 . S
N833 N834 1.388 . S
N834 Co817 1.993 . S
N834 N833 1.388 . S
N834 C835 1.346 . S
C835 N834 1.346 . S
C835 C836 1.396 . S
C835 C845 1.510 . S
C836 C832 1.401 . S
C836 C835 1.396 . S
C837 C832 1.499 . S
C837 H838 0.959 . S
C837 H839 0.960 . S
C837 H840 0.961 . S
H838 C837 0.959 . S
H839 C837 0.960 . S
H840 C837 0.961 . S
O841 Co816 1.967 . S
O841 C849 1.258 . S
O842 Co817 1.941 . S
O842 C849 1.266 . S
H843 C845 0.959 . S
H844 C845 0.961 . S
C845 C835 1.510 . S
C845 H843 0.959 . S
C845 H844 0.961 . S
C845 H846 0.960 . S
H846 C845 0.960 . S
H847 N827 0.862 . S
O848 Co816 1.920 . S
O848 C821 1.289 . S
C849 O841 1.258 . S
C849 O842 1.266 . S
Co850 O853 1.970 . S
Co850 N867 1.989 . S
Co850 O875 1.967 . S
Co850 O882 1.920 . S
Co851 O854 1.966 . S
Co851 N860 2.022 . S
Co851 N868 1.993 . S
Co851 O876 1.941 . S
C852 O853 1.258 . S
C852 O854 1.263 . S
O853 Co850 1.970 . S
O853 C852 1.258 . S
O854 Co851 1.966 . S
O854 C852 1.263 . S
C855 O856 1.235 . S
C855 O882 1.289 . S
O856 C855 1.235 . S
C857 C859 1.400 . S
C857 N860 1.351 . S
C857 C862 1.501 . S
C858 C859 1.387 . S
C858 N861 1.341 . S
C859 C857 1.400 . S
C859 C858 1.387 . S
N860 Co851 2.022 . S
N860 C857 1.351 . S
N860 N861 1.365 . S
N861 C858 1.341 . S
N861 N860 1.365 . S
N861 H881 0.862 . S
C862 C857 1.501 . S
C862 H863 0.961 . S
C862 H864 0.961 . S
C862 H865 0.960 . S
H863 C862 0.961 . S
H864 C862 0.961 . S
H865 C862 0.960 . S
C866 N867 1.342 . S
C866 C870 1.401 . S
C866 C871 1.499 . S
N867 Co850 1.989 . S
N867 C866 1.342 . S
N867 N868 1.388 . S
N868 Co851 1.993 . S
N868 N867 1.388 . S
N868 C869 1.346 . S
C869 N868 1.346 . S
C869 C870 1.396 . S
C869 C879 1.510 . S
C870 C866 1.401 . S
C870 C869 1.396 . S
C871 C866 1.499 . S
C871 H872 0.959 . S
C871 H873 0.960 . S
C871 H874 0.961 . S
H872 C871 0.959 . S
H873 C871 0.960 . S
H874 C871 0.961 . S
O875 Co850 1.967 . S
O875 C883 1.258 . S
O876 Co851 1.941 . S
O876 C883 1.266 . S
H877 C879 0.959 . S
H878 C879 0.961 . S
C879 C869 1.510 . S
C879 H877 0.959 . S
C879 H878 0.961 . S
C879 H880 0.960 . S
H880 C879 0.960 . S
H881 N861 0.862 . S
O882 Co850 1.920 . S
O882 C855 1.289 . S
C883 O875 1.258 . S
C883 O876 1.266 . S
Co884 O887 1.970 . S
Co884 N901 1.989 . S
Co884 O909 1.967 . S
Co884 O916 1.920 . S
Co885 O888 1.966 . S
Co885 N894 2.022 . S
Co885 N902 1.993 . S
Co885 O910 1.941 . S
C886 O887 1.258 . S
C886 O888 1.263 . S
O887 Co884 1.970 . S
O887 C886 1.258 . S
O888 Co885 1.966 . S
O888 C886 1.263 . S
C889 O890 1.235 . S
C889 O916 1.289 . S
O890 C889 1.235 . S
C891 C893 1.400 . S
C891 N894 1.351 . S
C891 C896 1.501 . S
C892 C893 1.387 . S
C892 N895 1.341 . S
C893 C891 1.400 . S
C893 C892 1.387 . S
N894 Co885 2.022 . S
N894 C891 1.351 . S
N894 N895 1.365 . S
N895 C892 1.341 . S
N895 N894 1.365 . S
N895 H915 0.862 . S
C896 C891 1.501 . S
C896 H897 0.961 . S
C896 H898 0.961 . S
C896 H899 0.960 . S
H897 C896 0.961 . S
H898 C896 0.961 . S
H899 C896 0.960 . S
C900 N901 1.342 . S
C900 C904 1.401 . S
C900 C905 1.499 . S
N901 Co884 1.989 . S
N901 C900 1.342 . S
N901 N902 1.388 . S
N902 Co885 1.993 . S
N902 N901 1.388 . S
N902 C903 1.346 . S
C903 N902 1.346 . S
C903 C904 1.396 . S
C903 C913 1.510 . S
C904 C900 1.401 . S
C904 C903 1.396 . S
C905 C900 1.499 . S
C905 H906 0.959 . S
C905 H907 0.960 . S
C905 H908 0.961 . S
H906 C905 0.959 . S
H907 C905 0.960 . S
H908 C905 0.961 . S
O909 Co884 1.967 . S
O909 C917 1.258 . S
O910 Co885 1.941 . S
O910 C917 1.266 . S
H911 C913 0.959 . S
H912 C913 0.961 . S
C913 C903 1.510 . S
C913 H911 0.959 . S
C913 H912 0.961 . S
C913 H914 0.960 . S
H914 C913 0.960 . S
H915 N895 0.862 . S
O916 Co884 1.920 . S
O916 C889 1.289 . S
C917 O909 1.258 . S
C917 O910 1.266 . S
Co918 O921 1.970 . S
Co918 N935 1.989 . S
Co918 O943 1.967 . S
Co918 O950 1.920 . S
Co919 O922 1.966 . S
Co919 N928 2.022 . S
Co919 N936 1.993 . S
Co919 O944 1.941 . S
C920 O921 1.258 1_655 S
C920 O922 1.263 1_655 S
O921 Co918 1.970 . S
O921 C920 1.258 1_455 S
O922 Co919 1.966 . S
O922 C920 1.263 1_455 S
C923 O924 1.235 . S
C923 O950 1.289 . S
O924 C923 1.235 . S
C925 C927 1.400 . S
C925 N928 1.351 . S
C925 C930 1.501 . S
C926 C927 1.387 . S
C926 N929 1.341 . S
C927 C925 1.400 . S
C927 C926 1.387 . S
N928 Co919 2.022 . S
N928 C925 1.351 . S
N928 N929 1.365 . S
N929 C926 1.341 . S
N929 N928 1.365 . S
N929 H949 0.862 . S
C930 C925 1.501 . S
C930 H931 0.961 . S
C930 H932 0.961 . S
C930 H933 0.960 . S
H931 C930 0.961 . S
H932 C930 0.961 . S
H933 C930 0.960 . S
C934 N935 1.342 . S
C934 C938 1.401 . S
C934 C939 1.499 . S
N935 Co918 1.989 . S
N935 C934 1.342 . S
N935 N936 1.388 . S
N936 Co919 1.993 . S
N936 N935 1.388 . S
N936 C937 1.346 . S
C937 N936 1.346 . S
C937 C938 1.396 . S
C937 C947 1.510 . S
C938 C934 1.401 . S
C938 C937 1.396 . S
C939 C934 1.499 . S
C939 H940 0.959 . S
C939 H941 0.960 . S
C939 H942 0.961 . S
H940 C939 0.959 . S
H941 C939 0.960 . S
H942 C939 0.961 . S
O943 Co918 1.967 . S
O943 C951 1.258 . S
O944 Co919 1.941 . S
O944 C951 1.266 . S
H945 C947 0.959 . S
H946 C947 0.961 . S
C947 C937 1.510 . S
C947 H945 0.959 . S
C947 H946 0.961 . S
C947 H948 0.960 . S
H948 C947 0.960 . S
H949 N929 0.862 . S
O950 Co918 1.920 . S
O950 C923 1.289 . S
C951 O943 1.258 . S
C951 O944 1.266 . S
Co952 O955 1.970 . S
Co952 N969 1.989 . S
Co952 O977 1.967 . S
Co952 O984 1.920 . S
Co953 O956 1.966 . S
Co953 N962 2.022 . S
Co953 N970 1.993 . S
Co953 O978 1.941 . S
C954 O955 1.258 . S
C954 O956 1.263 . S
O955 Co952 1.970 . S
O955 C954 1.258 . S
O956 Co953 1.966 . S
O956 C954 1.263 . S
C957 O958 1.235 . S
C957 O984 1.289 . S
O958 C957 1.235 . S
C959 C961 1.400 . S
C959 N962 1.351 . S
C959 C964 1.501 . S
C960 C961 1.387 . S
C960 N963 1.341 . S
C961 C959 1.400 . S
C961 C960 1.387 . S
N962 Co953 2.022 . S
N962 C959 1.351 . S
N962 N963 1.365 . S
N963 C960 1.341 . S
N963 N962 1.365 . S
N963 H983 0.862 . S
C964 C959 1.501 . S
C964 H965 0.961 . S
C964 H966 0.961 . S
C964 H967 0.960 . S
H965 C964 0.961 . S
H966 C964 0.961 . S
H967 C964 0.960 . S
C968 N969 1.342 . S
C968 C972 1.401 . S
C968 C973 1.499 . S
N969 Co952 1.989 . S
N969 C968 1.342 . S
N969 N970 1.388 . S
N970 Co953 1.993 . S
N970 N969 1.388 . S
N970 C971 1.346 . S
C971 N970 1.346 . S
C971 C972 1.396 . S
C971 C981 1.510 . S
C972 C968 1.401 . S
C972 C971 1.396 . S
C973 C968 1.499 . S
C973 H974 0.959 . S
C973 H975 0.960 . S
C973 H976 0.961 . S
H974 C973 0.959 . S
H975 C973 0.960 . S
H976 C973 0.961 . S
O977 Co952 1.967 . S
O977 C985 1.258 . S
O978 Co953 1.941 . S
O978 C985 1.266 . S
H979 C981 0.959 . S
H980 C981 0.961 . S
C981 C971 1.510 . S
C981 H979 0.959 . S
C981 H980 0.961 . S
C981 H982 0.960 . S
H982 C981 0.960 . S
H983 N963 0.862 . S
O984 Co952 1.920 . S
O984 C957 1.289 . S
C985 O977 1.258 . S
C985 O978 1.266 . S
Co986 O989 1.970 . S
Co986 N1003 1.989 . S
Co986 O1011 1.967 . S
Co986 O1018 1.920 . S
Co987 O990 1.966 . S
Co987 N996 2.022 . S
Co987 N1004 1.993 . S
Co987 O1012 1.941 . S
C988 O989 1.258 1_655 S
C988 O990 1.263 1_655 S
O989 Co986 1.970 . S
O989 C988 1.258 1_455 S
O990 Co987 1.966 . S
O990 C988 1.263 1_455 S
C991 O992 1.235 . S
C991 O1018 1.289 . S
O992 C991 1.235 . S
C993 C995 1.400 . S
C993 N996 1.351 . S
C993 C998 1.501 . S
C994 C995 1.387 . S
C994 N997 1.341 . S
C995 C993 1.400 . S
C995 C994 1.387 . S
N996 Co987 2.022 . S
N996 C993 1.351 . S
N996 N997 1.365 . S
N997 C994 1.341 . S
N997 N996 1.365 . S
N997 H1017 0.862 . S
C998 C993 1.501 . S
C998 H999 0.961 . S
C998 H1000 0.961 . S
C998 H1001 0.960 . S
H999 C998 0.961 . S
H1000 C998 0.961 . S
H1001 C998 0.960 . S
C1002 N1003 1.342 . S
C1002 C1006 1.401 . S
C1002 C1007 1.499 . S
N1003 Co986 1.989 . S
N1003 C1002 1.342 . S
N1003 N1004 1.388 . S
N1004 Co987 1.993 . S
N1004 N1003 1.388 . S
N1004 C1005 1.346 . S
C1005 N1004 1.346 . S
C1005 C1006 1.396 . S
C1005 C1015 1.510 . S
C1006 C1002 1.401 . S
C1006 C1005 1.396 . S
C1007 C1002 1.499 . S
C1007 H1008 0.959 . S
C1007 H1009 0.960 . S
C1007 H1010 0.961 . S
H1008 C1007 0.959 . S
H1009 C1007 0.960 . S
H1010 C1007 0.961 . S
O1011 Co986 1.967 . S
O1011 C1019 1.258 . S
O1012 Co987 1.941 . S
O1012 C1019 1.266 . S
H1013 C1015 0.959 . S
H1014 C1015 0.961 . S
C1015 C1005 1.510 . S
C1015 H1013 0.959 . S
C1015 H1014 0.961 . S
C1015 H1016 0.960 . S
H1016 C1015 0.960 . S
H1017 N997 0.862 . S
O1018 Co986 1.920 . S
O1018 C991 1.289 . S
C1019 O1011 1.258 . S
C1019 O1012 1.266 . S
Co1020 O1023 1.970 . S
Co1020 N1037 1.989 . S
Co1020 O1045 1.967 . S
Co1020 O1052 1.920 . S
Co1021 O1024 1.966 . S
Co1021 N1030 2.022 . S
Co1021 N1038 1.993 . S
Co1021 O1046 1.941 . S
C1022 O1023 1.258 . S
C1022 O1024 1.263 . S
O1023 Co1020 1.970 . S
O1023 C1022 1.258 . S
O1024 Co1021 1.966 . S
O1024 C1022 1.263 . S
C1025 O1026 1.235 . S
C1025 O1052 1.289 . S
O1026 C1025 1.235 . S
C1027 C1029 1.400 . S
C1027 N1030 1.351 . S
C1027 C1032 1.501 . S
C1028 C1029 1.387 . S
C1028 N1031 1.341 . S
C1029 C1027 1.400 . S
C1029 C1028 1.387 . S
N1030 Co1021 2.022 . S
N1030 C1027 1.351 . S
N1030 N1031 1.365 . S
N1031 C1028 1.341 . S
N1031 N1030 1.365 . S
N1031 H1051 0.862 . S
C1032 C1027 1.501 . S
C1032 H1033 0.961 . S
C1032 H1034 0.961 . S
C1032 H1035 0.960 . S
H1033 C1032 0.961 . S
H1034 C1032 0.961 . S
H1035 C1032 0.960 . S
C1036 N1037 1.342 . S
C1036 C1040 1.401 . S
C1036 C1041 1.499 . S
N1037 Co1020 1.989 . S
N1037 C1036 1.342 . S
N1037 N1038 1.388 . S
N1038 Co1021 1.993 . S
N1038 N1037 1.388 . S
N1038 C1039 1.346 . S
C1039 N1038 1.346 . S
C1039 C1040 1.396 . S
C1039 C1049 1.510 . S
C1040 C1036 1.401 . S
C1040 C1039 1.396 . S
C1041 C1036 1.499 . S
C1041 H1042 0.959 . S
C1041 H1043 0.960 . S
C1041 H1044 0.961 . S
H1042 C1041 0.959 . S
H1043 C1041 0.960 . S
H1044 C1041 0.961 . S
O1045 Co1020 1.967 . S
O1045 C1053 1.258 . S
O1046 Co1021 1.941 . S
O1046 C1053 1.266 . S
H1047 C1049 0.959 . S
H1048 C1049 0.961 . S
C1049 C1039 1.510 . S
C1049 H1047 0.959 . S
C1049 H1048 0.961 . S
C1049 H1050 0.960 . S
H1050 C1049 0.960 . S
H1051 N1031 0.862 . S
O1052 Co1020 1.920 . S
O1052 C1025 1.289 . S
C1053 O1045 1.258 . S
C1053 O1046 1.266 . S
Co1054 O1057 1.970 . S
Co1054 N1071 1.989 . S
Co1054 O1079 1.967 . S
Co1054 O1086 1.920 . S
Co1055 O1058 1.966 . S
Co1055 N1064 2.022 . S
Co1055 N1072 1.993 . S
Co1055 O1080 1.941 . S
C1056 O1057 1.258 . S
C1056 O1058 1.263 . S
O1057 Co1054 1.970 . S
O1057 C1056 1.258 . S
O1058 Co1055 1.966 . S
O1058 C1056 1.263 . S
C1059 O1060 1.235 . S
C1059 O1086 1.289 . S
O1060 C1059 1.235 . S
C1061 C1063 1.400 . S
C1061 N1064 1.351 . S
C1061 C1066 1.501 . S
C1062 C1063 1.387 . S
C1062 N1065 1.341 . S
C1063 C1061 1.400 . S
C1063 C1062 1.387 . S
N1064 Co1055 2.022 . S
N1064 C1061 1.351 . S
N1064 N1065 1.365 . S
N1065 C1062 1.341 . S
N1065 N1064 1.365 . S
N1065 H1085 0.862 . S
C1066 C1061 1.501 . S
C1066 H1067 0.961 . S
C1066 H1068 0.961 . S
C1066 H1069 0.960 . S
H1067 C1066 0.961 . S
H1068 C1066 0.961 . S
H1069 C1066 0.960 . S
C1070 N1071 1.342 . S
C1070 C1074 1.401 . S
C1070 C1075 1.499 . S
N1071 Co1054 1.989 . S
N1071 C1070 1.342 . S
N1071 N1072 1.388 . S
N1072 Co1055 1.993 . S
N1072 N1071 1.388 . S
N1072 C1073 1.346 . S
C1073 N1072 1.346 . S
C1073 C1074 1.396 . S
C1073 C1083 1.510 . S
C1074 C1070 1.401 . S
C1074 C1073 1.396 . S
C1075 C1070 1.499 . S
C1075 H1076 0.959 . S
C1075 H1077 0.960 . S
C1075 H1078 0.961 . S
H1076 C1075 0.959 . S
H1077 C1075 0.960 . S
H1078 C1075 0.961 . S
O1079 Co1054 1.967 . S
O1079 C1087 1.258 . S
O1080 Co1055 1.941 . S
O1080 C1087 1.266 . S
H1081 C1083 0.959 . S
H1082 C1083 0.961 . S
C1083 C1073 1.510 . S
C1083 H1081 0.959 . S
C1083 H1082 0.961 . S
C1083 H1084 0.960 . S
H1084 C1083 0.960 . S
H1085 N1065 0.862 . S
O1086 Co1054 1.920 . S
O1086 C1059 1.289 . S
C1087 O1079 1.258 . S
C1087 O1080 1.266 . S
H1088 C1096 0.950 . S
H1089 C1101 0.950 . S
H1090 C1098 0.950 . S
H1091 C1100 0.950 . S
H1092 C1102 0.950 . S
H1093 C1104 0.950 . S
H1094 C1106 0.950 . S
H1095 C1107 0.950 . S
C1096 H1088 0.950 . S
C1096 C1097 1.386 . S
C1096 C1098 1.391 . S
C1097 C1096 1.386 . S
C1097 C1101 1.393 . S
C1098 H1090 0.950 . S
C1098 C1096 1.391 . S
C1098 C1099 1.400 . S
C1099 C1098 1.400 . S
C1099 C1100 1.398 . S
C1099 C1105 1.491 . S
C1100 H1091 0.950 . S
C1100 C1099 1.398 . S
C1100 C1101 1.391 . S
C1101 H1089 0.950 . S
C1101 C1097 1.393 . S
C1101 C1100 1.391 . S
C1102 H1092 0.950 . S
C1102 C1103 1.386 . S
C1102 C1104 1.391 . S
C1103 C1102 1.386 . S
C1103 C1107 1.393 . S
C1104 H1093 0.950 . S
C1104 C1102 1.391 . S
C1104 C1105 1.400 . S
C1105 C1099 1.491 . S
C1105 C1104 1.400 . S
C1105 C1106 1.398 . S
C1106 H1094 0.950 . S
C1106 C1105 1.398 . S
C1106 C1107 1.391 . S
C1107 H1095 0.950 . S
C1107 C1103 1.393 . S
C1107 C1106 1.391 . S
H1108 C1116 0.950 . S
H1109 C1121 0.950 . S
H1110 C1118 0.950 . S
H1111 C1120 0.950 . S
H1112 C1122 0.950 . S
H1113 C1124 0.950 . S
H1114 C1126 0.950 . S
H1115 C1127 0.950 . S
C1116 H1108 0.950 . S
C1116 C1117 1.386 . S
C1116 C1118 1.391 . S
C1117 C1116 1.386 . S
C1117 C1121 1.393 . S
C1118 H1110 0.950 . S
C1118 C1116 1.391 . S
C1118 C1119 1.400 . S
C1119 C1118 1.400 . S
C1119 C1120 1.398 . S
C1119 C1125 1.491 1_655 S
C1120 H1111 0.950 . S
C1120 C1119 1.398 . S
C1120 C1121 1.391 . S
C1121 H1109 0.950 . S
C1121 C1117 1.393 . S
C1121 C1120 1.391 . S
C1122 H1112 0.950 . S
C1122 C1123 1.386 . S
C1122 C1124 1.391 . S
C1123 C1122 1.386 . S
C1123 C1127 1.393 . S
C1124 H1113 0.950 . S
C1124 C1122 1.391 . S
C1124 C1125 1.400 . S
C1125 C1119 1.491 1_455 S
C1125 C1124 1.400 . S
C1125 C1126 1.398 . S
C1126 H1114 0.950 . S
C1126 C1125 1.398 . S
C1126 C1127 1.391 . S
C1127 H1115 0.950 . S
C1127 C1123 1.393 . S
C1127 C1126 1.391 . S
H1128 C1136 0.950 . S
H1129 C1141 0.950 . S
H1130 C1138 0.950 . S
H1131 C1140 0.950 . S
H1132 C1142 0.950 . S
H1133 C1144 0.950 . S
H1134 C1146 0.950 . S
H1135 C1147 0.950 . S
C1136 H1128 0.950 . S
C1136 C1137 1.386 . S
C1136 C1138 1.391 . S
C1137 C1136 1.386 . S
C1137 C1141 1.393 . S
C1138 H1130 0.950 . S
C1138 C1136 1.391 . S
C1138 C1139 1.400 . S
C1139 C1138 1.400 . S
C1139 C1140 1.398 . S
C1139 C1145 1.491 1_655 S
C1140 H1131 0.950 . S
C1140 C1139 1.398 . S
C1140 C1141 1.391 . S
C1141 H1129 0.950 . S
C1141 C1137 1.393 . S
C1141 C1140 1.391 . S
C1142 H1132 0.950 . S
C1142 C1143 1.386 . S
C1142 C1144 1.391 . S
C1143 C1142 1.386 . S
C1143 C1147 1.393 . S
C1144 H1133 0.950 . S
C1144 C1142 1.391 . S
C1144 C1145 1.400 . S
C1145 C1139 1.491 1_455 S
C1145 C1144 1.400 . S
C1145 C1146 1.398 . S
C1146 H1134 0.950 . S
C1146 C1145 1.398 . S
C1146 C1147 1.391 . S
C1147 H1135 0.950 . S
C1147 C1143 1.393 . S
C1147 C1146 1.391 . S
H1148 C1156 0.950 . S
H1149 C1161 0.950 . S
H1150 C1158 0.950 . S
H1151 C1160 0.950 . S
H1152 C1162 0.950 . S
H1153 C1164 0.950 . S
H1154 C1166 0.950 . S
H1155 C1167 0.950 . S
C1156 H1148 0.950 . S
C1156 C1157 1.386 . S
C1156 C1158 1.391 . S
C1157 C1156 1.386 . S
C1157 C1161 1.393 . S
C1158 H1150 0.950 . S
C1158 C1156 1.391 . S
C1158 C1159 1.400 . S
C1159 C1158 1.400 . S
C1159 C1160 1.398 . S
C1159 C1165 1.491 . S
C1160 H1151 0.950 . S
C1160 C1159 1.398 . S
C1160 C1161 1.391 . S
C1161 H1149 0.950 . S
C1161 C1157 1.393 . S
C1161 C1160 1.391 . S
C1162 H1152 0.950 . S
C1162 C1163 1.386 . S
C1162 C1164 1.391 . S
C1163 C1162 1.386 . S
C1163 C1167 1.393 . S
C1164 H1153 0.950 . S
C1164 C1162 1.391 . S
C1164 C1165 1.400 . S
C1165 C1159 1.491 . S
C1165 C1164 1.400 . S
C1165 C1166 1.398 . S
C1166 H1154 0.950 . S
C1166 C1165 1.398 . S
C1166 C1167 1.391 . S
C1167 H1155 0.950 . S
C1167 C1163 1.393 . S
C1167 C1166 1.391 . S
H1168 C1176 0.950 . S
H1169 C1181 0.950 . S
H1170 C1178 0.950 . S
H1171 C1180 0.950 . S
H1172 C1182 0.950 . S
H1173 C1184 0.950 . S
H1174 C1186 0.950 . S
H1175 C1187 0.950 . S
C1176 H1168 0.950 . S
C1176 C1177 1.386 . S
C1176 C1178 1.391 . S
C1177 C1176 1.386 . S
C1177 C1181 1.393 . S
C1178 H1170 0.950 . S
C1178 C1176 1.391 . S
C1178 C1179 1.400 . S
C1179 C1178 1.400 . S
C1179 C1180 1.398 . S
C1179 C1185 1.491 . S
C1180 H1171 0.950 . S
C1180 C1179 1.398 . S
C1180 C1181 1.391 . S
C1181 H1169 0.950 . S
C1181 C1177 1.393 . S
C1181 C1180 1.391 . S
C1182 H1172 0.950 . S
C1182 C1183 1.386 . S
C1182 C1184 1.391 . S
C1183 C1182 1.386 . S
C1183 C1187 1.393 . S
C1184 H1173 0.950 . S
C1184 C1182 1.391 . S
C1184 C1185 1.400 . S
C1185 C1179 1.491 . S
C1185 C1184 1.400 . S
C1185 C1186 1.398 . S
C1186 H1174 0.950 . S
C1186 C1185 1.398 . S
C1186 C1187 1.391 . S
C1187 H1175 0.950 . S
C1187 C1183 1.393 . S
C1187 C1186 1.391 . S
H1188 C1196 0.950 . S
H1189 C1201 0.950 . S
H1190 C1198 0.950 . S
H1191 C1200 0.950 . S
H1192 C1202 0.950 . S
H1193 C1204 0.950 . S
H1194 C1206 0.950 . S
H1195 C1207 0.950 . S
C1196 H1188 0.950 . S
C1196 C1197 1.386 . S
C1196 C1198 1.391 . S
C1197 C1196 1.386 . S
C1197 C1201 1.393 . S
C1198 H1190 0.950 . S
C1198 C1196 1.391 . S
C1198 C1199 1.400 . S
C1199 C1198 1.400 . S
C1199 C1200 1.398 . S
C1199 C1205 1.491 . S
C1200 H1191 0.950 . S
C1200 C1199 1.398 . S
C1200 C1201 1.391 . S
C1201 H1189 0.950 . S
C1201 C1197 1.393 . S
C1201 C1200 1.391 . S
C1202 H1192 0.950 . S
C1202 C1203 1.386 . S
C1202 C1204 1.391 . S
C1203 C1202 1.386 . S
C1203 C1207 1.393 . S
C1204 H1193 0.950 . S
C1204 C1202 1.391 . S
C1204 C1205 1.400 . S
C1205 C1199 1.491 . S
C1205 C1204 1.400 . S
C1205 C1206 1.398 . S
C1206 H1194 0.950 . S
C1206 C1205 1.398 . S
C1206 C1207 1.391 . S
C1207 H1195 0.950 . S
C1207 C1203 1.393 . S
C1207 C1206 1.391 . S
H1208 C1216 0.950 . S
H1209 C1221 0.950 . S
H1210 C1218 0.950 . S
H1211 C1220 0.950 . S
H1212 C1222 0.950 . S
H1213 C1224 0.950 . S
H1214 C1226 0.950 . S
H1215 C1227 0.950 . S
C1216 H1208 0.950 . S
C1216 C1217 1.386 . S
C1216 C1218 1.391 . S
C1217 C1216 1.386 . S
C1217 C1221 1.393 . S
C1218 H1210 0.950 . S
C1218 C1216 1.391 . S
C1218 C1219 1.400 . S
C1219 C1218 1.400 . S
C1219 C1220 1.398 . S
C1219 C1225 1.491 1_455 S
C1220 H1211 0.950 . S
C1220 C1219 1.398 . S
C1220 C1221 1.391 . S
C1221 H1209 0.950 . S
C1221 C1217 1.393 . S
C1221 C1220 1.391 . S
C1222 H1212 0.950 . S
C1222 C1223 1.386 . S
C1222 C1224 1.391 . S
C1223 C1222 1.386 . S
C1223 C1227 1.393 . S
C1224 H1213 0.950 . S
C1224 C1222 1.391 . S
C1224 C1225 1.400 . S
C1225 C1219 1.491 1_655 S
C1225 C1224 1.400 . S
C1225 C1226 1.398 . S
C1226 H1214 0.950 . S
C1226 C1225 1.398 . S
C1226 C1227 1.391 . S
C1227 H1215 0.950 . S
C1227 C1223 1.393 . S
C1227 C1226 1.391 . S
H1228 C1236 0.950 . S
H1229 C1241 0.950 . S
H1230 C1238 0.950 . S
H1231 C1240 0.950 . S
H1232 C1242 0.950 . S
H1233 C1244 0.950 . S
H1234 C1246 0.950 . S
H1235 C1247 0.950 . S
C1236 H1228 0.950 . S
C1236 C1237 1.386 . S
C1236 C1238 1.391 . S
C1237 C1236 1.386 . S
C1237 C1241 1.393 . S
C1238 H1230 0.950 . S
C1238 C1236 1.391 . S
C1238 C1239 1.400 . S
C1239 C1238 1.400 . S
C1239 C1240 1.398 . S
C1239 C1245 1.491 1_455 S
C1240 H1231 0.950 . S
C1240 C1239 1.398 . S
C1240 C1241 1.391 . S
C1241 H1229 0.950 . S
C1241 C1237 1.393 . S
C1241 C1240 1.391 . S
C1242 H1232 0.950 . S
C1242 C1243 1.386 . S
C1242 C1244 1.391 . S
C1243 C1242 1.386 . S
C1243 C1247 1.393 . S
C1244 H1233 0.950 . S
C1244 C1242 1.391 . S
C1244 C1245 1.400 . S
C1245 C1239 1.491 1_655 S
C1245 C1244 1.400 . S
C1245 C1246 1.398 . S
C1246 H1234 0.950 . S
C1246 C1245 1.398 . S
C1246 C1247 1.391 . S
C1247 H1235 0.950 . S
C1247 C1243 1.393 . S
C1247 C1246 1.391 . S
H1248 C1256 0.950 . S
H1249 C1261 0.950 . S
H1250 C1258 0.950 . S
H1251 C1260 0.950 . S
H1252 C1262 0.950 . S
H1253 C1264 0.950 . S
H1254 C1266 0.950 . S
H1255 C1267 0.950 . S
C1256 H1248 0.950 . S
C1256 C1257 1.386 . S
C1256 C1258 1.391 . S
C1257 C1256 1.386 . S
C1257 C1261 1.393 . S
C1258 H1250 0.950 . S
C1258 C1256 1.391 . S
C1258 C1259 1.400 . S
C1259 C1258 1.400 . S
C1259 C1260 1.398 . S
C1259 C1265 1.491 . S
C1260 H1251 0.950 . S
C1260 C1259 1.398 . S
C1260 C1261 1.391 . S
C1261 H1249 0.950 . S
C1261 C1257 1.393 . S
C1261 C1260 1.391 . S
C1262 H1252 0.950 . S
C1262 C1263 1.386 . S
C1262 C1264 1.391 . S
C1263 C1262 1.386 . S
C1263 C1267 1.393 . S
C1264 H1253 0.950 . S
C1264 C1262 1.391 . S
C1264 C1265 1.400 . S
C1265 C1259 1.491 . S
C1265 C1264 1.400 . S
C1265 C1266 1.398 . S
C1266 H1254 0.950 . S
C1266 C1265 1.398 . S
C1266 C1267 1.391 . S
C1267 H1255 0.950 . S
C1267 C1263 1.393 . S
C1267 C1266 1.391 . S
H1268 C1276 0.950 . S
H1269 C1281 0.950 . S
H1270 C1278 0.958 . S
H1271 C1280 0.950 . S
H1272 C1282 0.950 . S
H1273 C1284 0.950 . S
H1274 C1286 0.950 . S
H1275 C1287 0.950 . S
C1276 H1268 0.950 . S
C1276 C1277 1.386 . S
C1276 C1278 1.386 1_455 S
C1277 C1276 1.386 . S
C1277 C1281 1.393 . S
C1278 H1270 0.958 . S
C1278 C1276 1.386 1_655 S
C1278 C1279 1.397 1_655 S
C1279 C1278 1.397 1_455 S
C1279 C1280 1.398 . S
C1279 C1285 1.491 1_455 S
C1280 H1271 0.950 . S
C1280 C1279 1.398 . S
C1280 C1281 1.391 . S
C1281 H1269 0.950 . S
C1281 C1277 1.393 . S
C1281 C1280 1.391 . S
C1282 H1272 0.950 . S
C1282 C1283 1.386 . S
C1282 C1284 1.391 1_655 S
C1283 C1282 1.386 . S
C1283 C1287 1.393 . S
C1284 H1273 0.950 . S
C1284 C1282 1.391 1_455 S
C1284 C1285 1.400 1_455 S
C1285 C1279 1.491 1_655 S
C1285 C1284 1.400 1_655 S
C1285 C1286 1.398 . S
C1286 H1274 0.950 . S
C1286 C1285 1.398 . S
C1286 C1287 1.391 . S
C1287 H1275 0.950 . S
C1287 C1283 1.393 . S
C1287 C1286 1.391 . S
H1288 C1296 0.950 . S
H1289 C1301 0.950 . S
H1290 C1298 0.950 . S
H1291 C1300 0.950 . S
H1292 C1302 0.950 . S
H1293 C1304 0.950 . S
H1294 C1306 0.950 . S
H1295 C1307 0.950 . S
C1296 H1288 0.950 . S
C1296 C1297 1.386 . S
C1296 C1298 1.391 . S
C1297 C1296 1.386 . S
C1297 C1301 1.393 . S
C1298 H1290 0.950 . S
C1298 C1296 1.391 . S
C1298 C1299 1.400 . S
C1299 C1298 1.400 . S
C1299 C1300 1.398 . S
C1299 C1305 1.491 1_655 S
C1300 H1291 0.950 . S
C1300 C1299 1.398 . S
C1300 C1301 1.391 . S
C1301 H1289 0.950 . S
C1301 C1297 1.393 . S
C1301 C1300 1.391 . S
C1302 H1292 0.950 . S
C1302 C1303 1.386 . S
C1302 C1304 1.391 . S
C1303 C1302 1.386 . S
C1303 C1307 1.393 . S
C1304 H1293 0.950 . S
C1304 C1302 1.391 . S
C1304 C1305 1.400 . S
C1305 C1299 1.491 1_455 S
C1305 C1304 1.400 . S
C1305 C1306 1.398 . S
C1306 H1294 0.950 . S
C1306 C1305 1.398 . S
C1306 C1307 1.391 . S
C1307 H1295 0.950 . S
C1307 C1303 1.393 . S
C1307 C1306 1.391 . S
H1308 C1316 0.950 . S
H1309 C1321 0.950 . S
H1310 C1318 0.950 . S
H1311 C1320 0.950 . S
H1312 C1322 0.950 . S
H1313 C1324 0.950 . S
H1314 C1326 0.950 . S
H1315 C1327 0.950 . S
C1316 H1308 0.950 . S
C1316 C1317 1.386 . S
C1316 C1318 1.391 . S
C1317 C1316 1.386 . S
C1317 C1321 1.393 . S
C1318 H1310 0.950 . S
C1318 C1316 1.391 . S
C1318 C1319 1.400 . S
C1319 C1318 1.400 . S
C1319 C1320 1.398 . S
C1319 C1325 1.491 . S
C1320 H1311 0.950 . S
C1320 C1319 1.398 . S
C1320 C1321 1.391 . S
C1321 H1309 0.950 . S
C1321 C1317 1.393 . S
C1321 C1320 1.391 . S
C1322 H1312 0.950 . S
C1322 C1323 1.386 . S
C1322 C1324 1.391 . S
C1323 C1322 1.386 . S
C1323 C1327 1.393 . S
C1324 H1313 0.950 . S
C1324 C1322 1.391 . S
C1324 C1325 1.400 . S
C1325 C1319 1.491 . S
C1325 C1324 1.400 . S
C1325 C1326 1.398 . S
C1326 H1314 0.950 . S
C1326 C1325 1.398 . S
C1326 C1327 1.391 . S
C1327 H1315 0.950 . S
C1327 C1323 1.393 . S
C1327 C1326 1.391 . S
H1328 C1336 0.950 . S
H1329 C1341 0.950 . S
H1330 C1338 0.950 . S
H1331 C1340 0.950 . S
H1332 C1342 0.950 . S
H1333 C1344 0.950 . S
H1334 C1346 0.950 . S
H1335 C1347 0.950 . S
C1336 H1328 0.950 . S
C1336 C1337 1.386 . S
C1336 C1338 1.391 . S
C1337 C1336 1.386 . S
C1337 C1341 1.393 . S
C1338 H1330 0.950 . S
C1338 C1336 1.391 . S
C1338 C1339 1.400 . S
C1339 C1338 1.400 . S
C1339 C1340 1.398 . S
C1339 C1345 1.491 . S
C1340 H1331 0.950 . S
C1340 C1339 1.398 . S
C1340 C1341 1.391 . S
C1341 H1329 0.950 . S
C1341 C1337 1.393 . S
C1341 C1340 1.391 . S
C1342 H1332 0.950 . S
C1342 C1343 1.386 . S
C1342 C1344 1.391 . S
C1343 C1342 1.386 . S
C1343 C1347 1.393 . S
C1344 H1333 0.950 . S
C1344 C1342 1.391 . S
C1344 C1345 1.400 . S
C1345 C1339 1.491 . S
C1345 C1344 1.400 . S
C1345 C1346 1.398 . S
C1346 H1334 0.950 . S
C1346 C1345 1.398 . S
C1346 C1347 1.391 . S
C1347 H1335 0.950 . S
C1347 C1343 1.393 . S
C1347 C1346 1.391 . S
H1348 C1356 0.950 . S
H1349 C1361 0.950 . S
H1350 C1358 0.950 . S
H1351 C1360 0.950 . S
H1352 C1362 0.950 . S
H1353 C1364 0.950 . S
H1354 C1366 0.950 . S
H1355 C1367 0.950 . S
C1356 H1348 0.950 . S
C1356 C1357 1.386 . S
C1356 C1358 1.391 . S
C1357 C1356 1.386 . S
C1357 C1361 1.393 . S
C1358 H1350 0.950 . S
C1358 C1356 1.391 . S
C1358 C1359 1.400 . S
C1359 C1358 1.400 . S
C1359 C1360 1.398 . S
C1359 C1365 1.491 . S
C1360 H1351 0.950 . S
C1360 C1359 1.398 . S
C1360 C1361 1.391 . S
C1361 H1349 0.950 . S
C1361 C1357 1.393 . S
C1361 C1360 1.391 . S
C1362 H1352 0.950 . S
C1362 C1363 1.386 . S
C1362 C1364 1.391 . S
C1363 C1362 1.386 . S
C1363 C1367 1.393 . S
C1364 H1353 0.950 . S
C1364 C1362 1.391 . S
C1364 C1365 1.400 . S
C1365 C1359 1.491 . S
C1365 C1364 1.400 . S
C1365 C1366 1.398 . S
C1366 H1354 0.950 . S
C1366 C1365 1.398 . S
C1366 C1367 1.391 . S
C1367 H1355 0.950 . S
C1367 C1363 1.393 . S
C1367 C1366 1.391 . S
H1368 C1376 0.950 . S
H1369 C1381 0.950 . S
H1370 C1378 0.950 . S
H1371 C1380 0.950 . S
H1372 C1382 0.950 . S
H1373 C1384 0.950 . S
H1374 C1386 0.950 . S
H1375 C1387 0.950 . S
C1376 H1368 0.950 . S
C1376 C1377 1.386 . S
C1376 C1378 1.391 . S
C1377 C1376 1.386 . S
C1377 C1381 1.393 . S
C1378 H1370 0.950 . S
C1378 C1376 1.391 . S
C1378 C1379 1.400 . S
C1379 C1378 1.400 . S
C1379 C1380 1.398 . S
C1379 C1385 1.491 1_455 S
C1380 H1371 0.950 . S
C1380 C1379 1.398 . S
C1380 C1381 1.391 . S
C1381 H1369 0.950 . S
C1381 C1377 1.393 . S
C1381 C1380 1.391 . S
C1382 H1372 0.950 . S
C1382 C1383 1.386 . S
C1382 C1384 1.391 . S
C1383 C1382 1.386 . S
C1383 C1387 1.393 . S
C1384 H1373 0.950 . S
C1384 C1382 1.391 . S
C1384 C1385 1.400 . S
C1385 C1379 1.491 1_655 S
C1385 C1384 1.400 . S
C1385 C1386 1.398 . S
C1386 H1374 0.950 . S
C1386 C1385 1.398 . S
C1386 C1387 1.391 . S
C1387 H1375 0.950 . S
C1387 C1383 1.393 . S
C1387 C1386 1.391 . S
H1388 C1396 0.950 1_455 S
H1389 C1401 0.950 . S
H1390 C1398 0.950 . S
H1391 C1400 0.950 . S
H1392 C1402 0.950 1_655 S
H1393 C1404 0.950 . S
H1394 C1406 0.950 . S
H1395 C1407 0.950 . S
C1396 H1388 0.950 1_655 S
C1396 C1397 1.386 . S
C1396 C1398 1.391 1_655 S
C1397 C1396 1.386 . S
C1397 C1401 1.393 . S
C1398 H1390 0.950 . S
C1398 C1396 1.391 1_455 S
C1398 C1399 1.400 1_455 S
C1399 C1398 1.400 1_655 S
C1399 C1400 1.398 . S
C1399 C1405 1.491 1_655 S
C1400 H1391 0.950 . S
C1400 C1399 1.398 . S
C1400 C1401 1.391 . S
C1401 H1389 0.950 . S
C1401 C1397 1.393 . S
C1401 C1400 1.391 . S
C1402 H1392 0.950 1_455 S
C1402 C1403 1.386 . S
C1402 C1404 1.391 1_455 S
C1403 C1402 1.386 . S
C1403 C1407 1.393 . S
C1404 H1393 0.950 . S
C1404 C1402 1.391 1_655 S
C1404 C1405 1.400 1_655 S
C1405 C1399 1.491 1_455 S
C1405 C1404 1.400 1_455 S
C1405 C1406 1.398 . S
C1406 H1394 0.950 . S
C1406 C1405 1.398 . S
C1406 C1407 1.391 . S
C1407 H1395 0.950 . S
C1407 C1403 1.393 . S
C1407 C1406 1.391 . S
H1408 C1416 0.950 . S
H1409 C1421 0.950 . S
H1410 C1418 0.950 . S
H1411 C1420 0.950 . S
H1412 C1422 0.950 . S
H1413 C1424 0.950 . S
H1414 C1426 0.950 . S
H1415 C1427 0.950 . S
C1416 H1408 0.950 . S
C1416 C1417 1.386 . S
C1416 C1418 1.391 . S
C1417 C1416 1.386 . S
C1417 C1421 1.393 . S
C1418 H1410 0.950 . S
C1418 C1416 1.391 . S
C1418 C1419 1.400 . S
C1419 C1418 1.400 . S
C1419 C1420 1.398 . S
C1419 C1425 1.491 . S
C1420 H1411 0.950 . S
C1420 C1419 1.398 . S
C1420 C1421 1.391 . S
C1421 H1409 0.950 . S
C1421 C1417 1.393 . S
C1421 C1420 1.391 . S
C1422 H1412 0.950 . S
C1422 C1423 1.386 . S
C1422 C1424 1.391 . S
C1423 C1422 1.386 . S
C1423 C1427 1.393 . S
C1424 H1413 0.950 . S
C1424 C1422 1.391 . S
C1424 C1425 1.400 . S
C1425 C1419 1.491 . S
C1425 C1424 1.400 . S
C1425 C1426 1.398 . S
C1426 H1414 0.950 . S
C1426 C1425 1.398 . S
C1426 C1427 1.391 . S
C1427 H1415 0.950 . S
C1427 C1423 1.393 . S
C1427 C1426 1.391 . S
H1428 C1436 0.950 . S
H1429 C1441 0.950 1_545 S
H1430 C1438 0.950 . S
H1431 C1440 0.950 . S
H1432 C1442 0.950 . S
H1433 C1444 0.950 . S
H1434 C1446 0.950 . S
H1435 C1447 0.950 . S
C1436 H1428 0.950 . S
C1436 C1437 1.386 . S
C1436 C1438 1.391 . S
C1437 C1436 1.386 . S
C1437 C1441 1.393 1_655 S
C1438 H1430 0.950 . S
C1438 C1436 1.391 . S
C1438 C1439 1.400 . S
C1439 C1438 1.400 . S
C1439 C1440 1.398 1_665 S
C1439 C1445 1.491 1_655 S
C1440 H1431 0.950 . S
C1440 C1439 1.398 1_445 S
C1440 C1441 1.391 1_545 S
C1441 H1429 0.950 1_565 S
C1441 C1437 1.393 1_455 S
C1441 C1440 1.391 1_565 S
C1442 H1432 0.950 . S
C1442 C1443 1.386 1_545 S
C1442 C1444 1.391 . S
C1443 C1442 1.386 1_565 S
C1443 C1447 1.393 1_455 S
C1444 H1433 0.950 . S
C1444 C1442 1.391 . S
C1444 C1445 1.400 1_545 S
C1445 C1439 1.491 1_455 S
C1445 C1444 1.400 1_565 S
C1445 C1446 1.398 1_455 S
C1446 H1434 0.950 . S
C1446 C1445 1.398 1_655 S
C1446 C1447 1.391 . S
C1447 H1435 0.950 . S
C1447 C1443 1.393 1_655 S
C1447 C1446 1.391 . S
H1448 C1456 0.950 . S
H1449 C1461 0.950 . S
H1450 C1458 0.950 . S
H1451 C1460 0.950 . S
H1452 C1462 0.950 . S
H1453 C1464 0.950 . S
H1454 C1466 0.950 . S
H1455 C1467 0.950 . S
C1456 H1448 0.950 . S
C1456 C1457 1.386 . S
C1456 C1458 1.391 . S
C1457 C1456 1.386 . S
C1457 C1461 1.393 . S
C1458 H1450 0.950 . S
C1458 C1456 1.391 . S
C1458 C1459 1.400 . S
C1459 C1458 1.400 . S
C1459 C1460 1.398 . S
C1459 C1465 1.491 . S
C1460 H1451 0.950 . S
C1460 C1459 1.398 . S
C1460 C1461 1.391 . S
C1461 H1449 0.950 . S
C1461 C1457 1.393 . S
C1461 C1460 1.391 . S
C1462 H1452 0.950 . S
C1462 C1463 1.386 . S
C1462 C1464 1.391 . S
C1463 C1462 1.386 . S
C1463 C1467 1.393 . S
C1464 H1453 0.950 . S
C1464 C1462 1.391 . S
C1464 C1465 1.400 . S
C1465 C1459 1.491 . S
C1465 C1464 1.400 . S
C1465 C1466 1.398 . S
C1466 H1454 0.950 . S
C1466 C1465 1.398 . S
C1466 C1467 1.391 . S
C1467 H1455 0.950 . S
C1467 C1463 1.393 . S
C1467 C1466 1.391 . S
H1468 C1476 0.950 . S
H1469 C1481 0.950 . S
H1470 C1478 0.950 . S
H1471 C1480 0.963 . S
H1472 C1482 0.950 . S
H1473 C1484 0.950 . S
H1474 C1486 0.950 . S
H1475 C1487 0.950 . S
C1476 H1468 0.950 . S
C1476 C1477 1.386 . S
C1476 C1478 1.391 . S
C1477 C1476 1.386 . S
C1477 C1481 1.393 . S
C1478 H1470 0.950 . S
C1478 C1476 1.391 . S
C1478 C1479 1.400 . S
C1479 C1478 1.400 . S
C1479 C1480 1.398 . S
C1479 C1485 1.491 1_554 S
C1480 H1471 0.963 . S
C1480 C1479 1.398 . S
C1480 C1481 1.391 . S
C1481 H1469 0.950 . S
C1481 C1477 1.393 . S
C1481 C1480 1.391 . S
C1482 H1472 0.950 . S
C1482 C1483 1.386 . S
C1482 C1484 1.391 . S
C1483 C1482 1.386 . S
C1483 C1487 1.393 . S
C1484 H1473 0.950 . S
C1484 C1482 1.391 . S
C1484 C1485 1.400 . S
C1485 C1479 1.491 1_556 S
C1485 C1484 1.400 . S
C1485 C1486 1.398 . S
C1486 H1474 0.950 . S
C1486 C1485 1.398 . S
C1486 C1487 1.391 . S
C1487 H1475 0.950 . S
C1487 C1483 1.393 . S
C1487 C1486 1.391 . S
H1488 C1496 0.950 . S
H1489 C1501 0.950 . S
H1490 C1498 0.950 . S
H1491 C1500 0.950 . S
H1492 C1502 0.950 . S
H1493 C1504 0.950 . S
H1494 C1506 0.950 . S
H1495 C1507 0.950 . S
C1496 H1488 0.950 . S
C1496 C1497 1.386 . S
C1496 C1498 1.391 . S
C1497 C1496 1.386 . S
C1497 C1501 1.393 . S
C1498 H1490 0.950 . S
C1498 C1496 1.391 . S
C1498 C1499 1.400 . S
C1499 C1498 1.400 . S
C1499 C1500 1.398 . S
C1499 C1505 1.491 . S
C1500 H1491 0.950 . S
C1500 C1499 1.398 . S
C1500 C1501 1.391 . S
C1501 H1489 0.950 . S
C1501 C1497 1.393 . S
C1501 C1500 1.391 . S
C1502 H1492 0.950 . S
C1502 C1503 1.386 . S
C1502 C1504 1.391 . S
C1503 C1502 1.386 . S
C1503 C1507 1.393 . S
C1504 H1493 0.950 . S
C1504 C1502 1.391 . S
C1504 C1505 1.400 . S
C1505 C1499 1.491 . S
C1505 C1504 1.400 . S
C1505 C1506 1.398 . S
C1506 H1494 0.950 . S
C1506 C1505 1.398 . S
C1506 C1507 1.391 . S
C1507 H1495 0.950 . S
C1507 C1503 1.393 . S
C1507 C1506 1.391 . S
H1508 C1516 0.950 . S
H1509 C1521 0.950 . S
H1510 C1518 0.950 . S
H1511 C1520 0.950 . S
H1512 C1522 0.950 . S
H1513 C1524 0.950 . S
H1514 C1526 0.950 1_545 S
H1515 C1527 0.950 1_545 S
C1516 H1508 0.950 . S
C1516 C1517 1.386 1_545 S
C1516 C1518 1.391 . S
C1517 C1516 1.386 1_565 S
C1517 C1521 1.393 . S
C1518 H1510 0.950 . S
C1518 C1516 1.391 . S
C1518 C1519 1.400 1_545 S
C1519 C1518 1.400 1_565 S
C1519 C1520 1.398 . S
C1519 C1525 1.491 . S
C1520 H1511 0.950 . S
C1520 C1519 1.398 . S
C1520 C1521 1.391 . S
C1521 H1509 0.950 . S
C1521 C1517 1.393 . S
C1521 C1520 1.391 . S
C1522 H1512 0.950 . S
C1522 C1523 1.386 . S
C1522 C1524 1.391 . S
C1523 C1522 1.386 . S
C1523 C1527 1.393 . S
C1524 H1513 0.950 . S
C1524 C1522 1.391 . S
C1524 C1525 1.400 . S
C1525 C1519 1.491 . S
C1525 C1524 1.400 . S
C1525 C1526 1.398 . S
C1526 H1514 0.950 1_565 S
C1526 C1525 1.398 . S
C1526 C1527 1.391 . S
C1527 H1515 0.950 1_565 S
C1527 C1523 1.393 . S
C1527 C1526 1.391 . S
H1528 C1536 0.950 . S
H1529 C1541 0.950 . S
H1530 C1538 0.950 . S
H1531 C1540 0.950 . S
H1532 C1542 0.950 . S
H1533 C1544 0.950 . S
H1534 C1546 0.950 . S
H1535 C1547 0.950 . S
C1536 H1528 0.950 . S
C1536 C1537 1.386 . S
C1536 C1538 1.391 . S
C1537 C1536 1.386 . S
C1537 C1541 1.393 . S
C1538 H1530 0.950 . S
C1538 C1536 1.391 . S
C1538 C1539 1.400 . S
C1539 C1538 1.400 . S
C1539 C1540 1.398 . S
C1539 C1545 1.491 . S
C1540 H1531 0.950 . S
C1540 C1539 1.398 . S
C1540 C1541 1.391 . S
C1541 H1529 0.950 . S
C1541 C1537 1.393 . S
C1541 C1540 1.391 . S
C1542 H1532 0.950 . S
C1542 C1543 1.386 . S
C1542 C1544 1.391 . S
C1543 C1542 1.386 . S
C1543 C1547 1.393 . S
C1544 H1533 0.950 . S
C1544 C1542 1.391 . S
C1544 C1545 1.400 . S
C1545 C1539 1.491 . S
C1545 C1544 1.400 . S
C1545 C1546 1.398 . S
C1546 H1534 0.950 . S
C1546 C1545 1.398 . S
C1546 C1547 1.391 . S
C1547 H1535 0.950 . S
C1547 C1543 1.393 . S
C1547 C1546 1.391 . S
H1548 C1556 0.950 1_455 S
H1549 C1561 0.950 . S
H1550 C1558 0.950 . S
H1551 C1560 0.950 . S
H1552 C1562 0.950 1_655 S
H1553 C1564 0.950 . S
H1554 C1566 0.950 . S
H1555 C1567 0.950 . S
C1556 H1548 0.950 1_655 S
C1556 C1557 1.386 . S
C1556 C1558 1.391 1_655 S
C1557 C1556 1.386 . S
C1557 C1561 1.393 1_545 S
C1558 H1550 0.950 . S
C1558 C1556 1.391 1_455 S
C1558 C1559 1.400 1_455 S
C1559 C1558 1.400 1_655 S
C1559 C1560 1.398 1_545 S
C1559 C1565 1.491 1_654 S
C1560 H1551 0.950 . S
C1560 C1559 1.398 1_565 S
C1560 C1561 1.391 . S
C1561 H1549 0.950 . S
C1561 C1557 1.393 1_565 S
C1561 C1560 1.391 . S
C1562 H1552 0.950 1_455 S
C1562 C1563 1.386 1_565 S
C1562 C1564 1.391 1_455 S
C1563 C1562 1.386 1_545 S
C1563 C1567 1.393 . S
C1564 H1553 0.950 . S
C1564 C1562 1.391 1_655 S
C1564 C1565 1.400 1_665 S
C1565 C1559 1.491 1_456 S
C1565 C1564 1.400 1_445 S
C1565 C1566 1.398 . S
C1566 H1554 0.950 . S
C1566 C1565 1.398 . S
C1566 C1567 1.391 . S
C1567 H1555 0.950 . S
C1567 C1563 1.393 . S
C1567 C1566 1.391 . S
H1568 C1576 0.950 . S
H1569 C1581 0.950 . S
H1570 C1578 0.950 . S
H1571 C1580 0.950 . S
H1572 C1582 0.950 . S
H1573 C1584 0.950 . S
H1574 C1586 0.950 . S
H1575 C1587 0.950 . S
C1576 H1568 0.950 . S
C1576 C1577 1.386 . S
C1576 C1578 1.391 . S
C1577 C1576 1.386 . S
C1577 C1581 1.393 . S
C1578 H1570 0.950 . S
C1578 C1576 1.391 . S
C1578 C1579 1.400 . S
C1579 C1578 1.400 . S
C1579 C1580 1.398 . S
C1579 C1585 1.491 . S
C1580 H1571 0.950 . S
C1580 C1579 1.398 . S
C1580 C1581 1.391 . S
C1581 H1569 0.950 . S
C1581 C1577 1.393 . S
C1581 C1580 1.391 . S
C1582 H1572 0.950 . S
C1582 C1583 1.386 . S
C1582 C1584 1.391 . S
C1583 C1582 1.386 . S
C1583 C1587 1.393 . S
C1584 H1573 0.950 . S
C1584 C1582 1.391 . S
C1584 C1585 1.400 . S
C1585 C1579 1.491 . S
C1585 C1584 1.400 . S
C1585 C1586 1.398 . S
C1586 H1574 0.950 . S
C1586 C1585 1.398 . S
C1586 C1587 1.391 . S
C1587 H1575 0.950 . S
C1587 C1583 1.393 . S
C1587 C1586 1.391 . S
H1588 C1596 0.950 . S
H1589 C1601 0.950 . S
H1590 C1598 0.950 . S
H1591 C1600 0.950 . S
H1592 C1602 0.950 . S
H1593 C1604 0.950 . S
H1594 C1606 0.950 . S
H1595 C1607 0.950 . S
C1596 H1588 0.950 . S
C1596 C1597 1.386 . S
C1596 C1598 1.391 . S
C1597 C1596 1.386 . S
C1597 C1601 1.393 . S
C1598 H1590 0.950 . S
C1598 C1596 1.391 . S
C1598 C1599 1.400 . S
C1599 C1598 1.400 . S
C1599 C1600 1.398 . S
C1599 C1605 1.491 . S
C1600 H1591 0.950 . S
C1600 C1599 1.398 . S
C1600 C1601 1.391 . S
C1601 H1589 0.950 . S
C1601 C1597 1.393 . S
C1601 C1600 1.391 . S
C1602 H1592 0.950 . S
C1602 C1603 1.386 . S
C1602 C1604 1.391 . S
C1603 C1602 1.386 . S
C1603 C1607 1.393 . S
C1604 H1593 0.950 . S
C1604 C1602 1.391 . S
C1604 C1605 1.400 . S
C1605 C1599 1.491 . S
C1605 C1604 1.400 . S
C1605 C1606 1.398 . S
C1606 H1594 0.950 . S
C1606 C1605 1.398 . S
C1606 C1607 1.391 . S
C1607 H1595 0.950 . S
C1607 C1603 1.393 . S
C1607 C1606 1.391 . S
H1608 C1616 0.950 . S
H1609 C1621 0.950 . S
H1610 C1618 0.950 . S
H1611 C1620 0.950 . S
H1612 C1622 0.950 . S
H1613 C1624 0.950 . S
H1614 C1626 0.950 . S
H1615 C1627 0.950 . S
C1616 H1608 0.950 . S
C1616 C1617 1.386 . S
C1616 C1618 1.391 . S
C1617 C1616 1.386 . S
C1617 C1621 1.393 . S
C1618 H1610 0.950 . S
C1618 C1616 1.391 . S
C1618 C1619 1.400 . S
C1619 C1618 1.400 . S
C1619 C1620 1.398 . S
C1619 C1625 1.491 . S
C1620 H1611 0.950 . S
C1620 C1619 1.398 . S
C1620 C1621 1.391 . S
C1621 H1609 0.950 . S
C1621 C1617 1.393 . S
C1621 C1620 1.391 . S
C1622 H1612 0.950 . S
C1622 C1623 1.386 . S
C1622 C1624 1.391 . S
C1623 C1622 1.386 . S
C1623 C1627 1.393 . S
C1624 H1613 0.950 . S
C1624 C1622 1.391 . S
C1624 C1625 1.400 . S
C1625 C1619 1.491 . S
C1625 C1624 1.400 . S
C1625 C1626 1.398 . S
C1626 H1614 0.950 . S
C1626 C1625 1.398 . S
C1626 C1627 1.391 . S
C1627 H1615 0.950 . S
C1627 C1623 1.393 . S
C1627 C1626 1.391 . S
H1628 C1636 0.950 . S
H1629 C1641 0.950 . S
H1630 C1638 0.950 . S
H1631 C1640 0.950 . S
H1632 C1642 0.950 . S
H1633 C1644 0.950 . S
H1634 C1646 0.950 . S
H1635 C1647 0.950 . S
C1636 H1628 0.950 . S
C1636 C1637 1.386 . S
C1636 C1638 1.391 . S
C1637 C1636 1.386 . S
C1637 C1641 1.393 . S
C1638 H1630 0.950 . S
C1638 C1636 1.391 . S
C1638 C1639 1.400 . S
C1639 C1638 1.400 . S
C1639 C1640 1.398 . S
C1639 C1645 1.491 . S
C1640 H1631 0.950 . S
C1640 C1639 1.398 . S
C1640 C1641 1.391 . S
C1641 H1629 0.950 . S
C1641 C1637 1.393 . S
C1641 C1640 1.391 . S
C1642 H1632 0.950 . S
C1642 C1643 1.386 . S
C1642 C1644 1.391 . S
C1643 C1642 1.386 . S
C1643 C1647 1.393 . S
C1644 H1633 0.950 . S
C1644 C1642 1.391 . S
C1644 C1645 1.400 . S
C1645 C1639 1.491 . S
C1645 C1644 1.400 . S
C1645 C1646 1.398 . S
C1646 H1634 0.950 . S
C1646 C1645 1.398 . S
C1646 C1647 1.391 . S
C1647 H1635 0.950 . S
C1647 C1643 1.393 . S
C1647 C1646 1.391 . S
H1648 C1656 0.950 . S
H1649 C1661 0.950 . S
H1650 C1658 0.950 . S
H1651 C1660 0.950 . S
H1652 C1662 0.950 . S
H1653 C1664 0.950 . S
H1654 C1666 0.950 . S
H1655 C1667 0.950 . S
C1656 H1648 0.950 . S
C1656 C1657 1.386 . S
C1656 C1658 1.391 . S
C1657 C1656 1.386 . S
C1657 C1661 1.393 . S
C1658 H1650 0.950 . S
C1658 C1656 1.391 . S
C1658 C1659 1.400 . S
C1659 C1658 1.400 . S
C1659 C1660 1.398 . S
C1659 C1665 1.491 1_556 S
C1660 H1651 0.950 . S
C1660 C1659 1.398 . S
C1660 C1661 1.391 . S
C1661 H1649 0.950 . S
C1661 C1657 1.393 . S
C1661 C1660 1.391 . S
C1662 H1652 0.950 . S
C1662 C1663 1.386 . S
C1662 C1664 1.391 . S
C1663 C1662 1.386 . S
C1663 C1667 1.393 . S
C1664 H1653 0.950 . S
C1664 C1662 1.391 . S
C1664 C1665 1.400 . S
C1665 C1659 1.491 1_554 S
C1665 C1664 1.400 . S
C1665 C1666 1.398 . S
C1666 H1654 0.950 . S
C1666 C1665 1.398 . S
C1666 C1667 1.391 . S
C1667 H1655 0.950 . S
C1667 C1663 1.393 . S
C1667 C1666 1.391 . S
H1668 C1676 0.950 1_655 S
H1669 C1681 0.950 . S
H1670 C1678 0.950 . S
H1671 C1680 0.950 . S
H1672 C1682 0.950 1_455 S
H1673 C1684 0.950 . S
H1674 C1686 0.950 . S
H1675 C1687 0.950 . S
C1676 H1668 0.950 1_455 S
C1676 C1677 1.386 . S
C1676 C1678 1.391 1_455 S
C1677 C1676 1.386 . S
C1677 C1681 1.393 . S
C1678 H1670 0.950 . S
C1678 C1676 1.391 1_655 S
C1678 C1679 1.400 1_655 S
C1679 C1678 1.400 1_455 S
C1679 C1680 1.398 . S
C1679 C1685 1.491 1_455 S
C1680 H1671 0.950 . S
C1680 C1679 1.398 . S
C1680 C1681 1.391 . S
C1681 H1669 0.950 . S
C1681 C1677 1.393 . S
C1681 C1680 1.391 . S
C1682 H1672 0.950 1_655 S
C1682 C1683 1.386 . S
C1682 C1684 1.391 1_655 S
C1683 C1682 1.386 . S
C1683 C1687 1.393 . S
C1684 H1673 0.950 . S
C1684 C1682 1.391 1_455 S
C1684 C1685 1.400 1_455 S
C1685 C1679 1.491 1_655 S
C1685 C1684 1.400 1_655 S
C1685 C1686 1.398 . S
C1686 H1674 0.950 . S
C1686 C1685 1.398 . S
C1686 C1687 1.391 . S
C1687 H1675 0.950 . S
C1687 C1683 1.393 . S
C1687 C1686 1.391 . S
H1688 C1696 0.950 . S
H1689 C1701 0.950 . S
H1690 C1698 0.950 . S
H1691 C1700 0.968 . S
H1692 C1702 0.950 . S
H1693 C1704 0.950 . S
H1694 C1706 0.950 . S
H1695 C1707 0.950 . S
C1696 H1688 0.950 . S
C1696 C1697 1.386 1_455 S
C1696 C1698 1.391 . S
C1697 C1696 1.386 1_655 S
C1697 C1701 1.393 . S
C1698 H1690 0.950 . S
C1698 C1696 1.391 . S
C1698 C1699 1.400 1_455 S
C1699 C1698 1.400 1_655 S
C1699 C1700 1.398 . S
C1699 C1705 1.491 1_656 S
C1700 H1691 0.968 . S
C1700 C1699 1.398 . S
C1700 C1701 1.391 . S
C1701 H1689 0.950 . S
C1701 C1697 1.393 . S
C1701 C1700 1.391 . S
C1702 H1692 0.950 . S
C1702 C1703 1.386 1_655 S
C1702 C1704 1.391 . S
C1703 C1702 1.386 1_455 S
C1703 C1707 1.393 . S
C1704 H1693 0.950 . S
C1704 C1702 1.391 . S
C1704 C1705 1.400 1_655 S
C1705 C1699 1.491 1_454 S
C1705 C1704 1.400 1_455 S
C1705 C1706 1.398 . S
C1706 H1694 0.950 . S
C1706 C1705 1.398 . S
C1706 C1707 1.391 . S
C1707 H1695 0.950 . S
C1707 C1703 1.393 . S
C1707 C1706 1.391 . S
H1708 C1716 0.950 . S
H1709 C1721 0.950 . S
H1710 C1718 0.950 . S
H1711 C1720 0.950 . S
H1712 C1722 0.950 . S
H1713 C1724 0.950 . S
H1714 C1726 0.950 . S
H1715 C1727 0.950 . S
C1716 H1708 0.950 . S
C1716 C1717 1.386 . S
C1716 C1718 1.391 . S
C1717 C1716 1.386 . S
C1717 C1721 1.393 . S
C1718 H1710 0.950 . S
C1718 C1716 1.391 . S
C1718 C1719 1.400 . S
C1719 C1718 1.400 . S
C1719 C1720 1.398 . S
C1719 C1725 1.491 . S
C1720 H1711 0.950 . S
C1720 C1719 1.398 . S
C1720 C1721 1.391 . S
C1721 H1709 0.950 . S
C1721 C1717 1.393 . S
C1721 C1720 1.391 . S
C1722 H1712 0.950 . S
C1722 C1723 1.386 . S
C1722 C1724 1.391 . S
C1723 C1722 1.386 . S
C1723 C1727 1.393 . S
C1724 H1713 0.950 . S
C1724 C1722 1.391 . S
C1724 C1725 1.400 . S
C1725 C1719 1.491 . S
C1725 C1724 1.400 . S
C1725 C1726 1.398 . S
C1726 H1714 0.950 . S
C1726 C1725 1.398 . S
C1726 C1727 1.391 . S
C1727 H1715 0.950 . S
C1727 C1723 1.393 . S
C1727 C1726 1.391 . S
H1728 C1736 0.950 . S
H1729 C1741 0.950 . S
H1730 C1738 0.950 . S
H1731 C1740 0.950 . S
H1732 C1742 0.950 . S
H1733 C1744 0.950 . S
H1734 C1746 0.950 . S
H1735 C1747 0.950 . S
C1736 H1728 0.950 . S
C1736 C1737 1.386 . S
C1736 C1738 1.391 1_545 S
C1737 C1736 1.386 . S
C1737 C1741 1.393 . S
C1738 H1730 0.950 . S
C1738 C1736 1.391 1_565 S
C1738 C1739 1.400 . S
C1739 C1738 1.400 . S
C1739 C1740 1.398 . S
C1739 C1745 1.491 . S
C1740 H1731 0.950 . S
C1740 C1739 1.398 . S
C1740 C1741 1.391 1_565 S
C1741 H1729 0.950 . S
C1741 C1737 1.393 . S
C1741 C1740 1.391 1_545 S
C1742 H1732 0.950 . S
C1742 C1743 1.386 . S
C1742 C1744 1.391 . S
C1743 C1742 1.386 . S
C1743 C1747 1.393 . S
C1744 H1733 0.950 . S
C1744 C1742 1.391 . S
C1744 C1745 1.400 . S
C1745 C1739 1.491 . S
C1745 C1744 1.400 . S
C1745 C1746 1.398 . S
C1746 H1734 0.950 . S
C1746 C1745 1.398 . S
C1746 C1747 1.391 . S
C1747 H1735 0.950 . S
C1747 C1743 1.393 . S
C1747 C1746 1.391 . S
H1748 C1756 0.950 . S
H1749 C1761 0.950 . S
H1750 C1758 0.950 . S
H1751 C1760 0.950 . S
H1752 C1762 0.950 . S
H1753 C1764 0.950 . S
H1754 C1766 0.950 . S
H1755 C1767 0.950 . S
C1756 H1748 0.950 . S
C1756 C1757 1.386 1_565 S
C1756 C1758 1.391 . S
C1757 C1756 1.386 1_545 S
C1757 C1761 1.393 . S
C1758 H1750 0.950 . S
C1758 C1756 1.391 . S
C1758 C1759 1.400 1_565 S
C1759 C1758 1.400 1_545 S
C1759 C1760 1.398 . S
C1759 C1765 1.491 1_545 S
C1760 H1751 0.950 . S
C1760 C1759 1.398 . S
C1760 C1761 1.391 . S
C1761 H1749 0.950 . S
C1761 C1757 1.393 . S
C1761 C1760 1.391 . S
C1762 H1752 0.950 . S
C1762 C1763 1.386 1_545 S
C1762 C1764 1.391 . S
C1763 C1762 1.386 1_565 S
C1763 C1767 1.393 . S
C1764 H1753 0.950 . S
C1764 C1762 1.391 . S
C1764 C1765 1.400 1_545 S
C1765 C1759 1.491 1_565 S
C1765 C1764 1.400 1_565 S
C1765 C1766 1.398 . S
C1766 H1754 0.950 . S
C1766 C1765 1.398 . S
C1766 C1767 1.391 . S
C1767 H1755 0.950 . S
C1767 C1763 1.393 . S
C1767 C1766 1.391 . S
H1768 C1776 0.950 . S
H1769 C1781 0.950 . S
H1770 C1778 0.950 . S
H1771 C1780 0.950 . S
H1772 C1782 0.950 . S
H1773 C1784 0.950 . S
H1774 C1786 0.950 . S
H1775 C1787 0.950 . S
C1776 H1768 0.950 . S
C1776 C1777 1.386 . S
C1776 C1778 1.391 . S
C1777 C1776 1.386 . S
C1777 C1781 1.393 . S
C1778 H1770 0.950 . S
C1778 C1776 1.391 . S
C1778 C1779 1.400 . S
C1779 C1778 1.400 . S
C1779 C1780 1.398 . S
C1779 C1785 1.491 . S
C1780 H1771 0.950 . S
C1780 C1779 1.398 . S
C1780 C1781 1.391 . S
C1781 H1769 0.950 . S
C1781 C1777 1.393 . S
C1781 C1780 1.391 . S
C1782 H1772 0.950 . S
C1782 C1783 1.386 . S
C1782 C1784 1.391 1_565 S
C1783 C1782 1.386 . S
C1783 C1787 1.393 . S
C1784 H1773 0.950 . S
C1784 C1782 1.391 1_545 S
C1784 C1785 1.400 . S
C1785 C1779 1.491 . S
C1785 C1784 1.400 . S
C1785 C1786 1.398 . S
C1786 H1774 0.950 . S
C1786 C1785 1.398 . S
C1786 C1787 1.391 1_545 S
C1787 H1775 0.950 . S
C1787 C1783 1.393 . S
C1787 C1786 1.391 1_565 S
H1788 C1796 0.950 . S
H1789 C1801 0.950 . S
H1790 C1798 0.950 . S
H1791 C1800 0.950 1_565 S
H1792 C1802 0.950 . S
H1793 C1804 0.950 . S
H1794 C1806 0.950 . S
H1795 C1807 0.950 . S
C1796 H1788 0.950 . S
C1796 C1797 1.386 . S
C1796 C1798 1.391 . S
C1797 C1796 1.386 . S
C1797 C1801 1.393 . S
C1798 H1790 0.950 . S
C1798 C1796 1.391 . S
C1798 C1799 1.400 . S
C1799 C1798 1.400 . S
C1799 C1800 1.398 . S
C1799 C1805 1.491 1_545 S
C1800 H1791 0.950 1_545 S
C1800 C1799 1.398 . S
C1800 C1801 1.391 . S
C1801 H1789 0.950 . S
C1801 C1797 1.393 . S
C1801 C1800 1.391 . S
C1802 H1792 0.950 . S
C1802 C1803 1.386 . S
C1802 C1804 1.391 . S
C1803 C1802 1.386 . S
C1803 C1807 1.393 . S
C1804 H1793 0.950 . S
C1804 C1802 1.391 . S
C1804 C1805 1.400 . S
C1805 C1799 1.491 1_565 S
C1805 C1804 1.400 . S
C1805 C1806 1.398 1_565 S
C1806 H1794 0.950 . S
C1806 C1805 1.398 1_545 S
C1806 C1807 1.391 1_545 S
C1807 H1795 0.950 . S
C1807 C1803 1.393 . S
C1807 C1806 1.391 1_565 S
H1808 C1816 0.950 . S
H1809 C1821 0.950 . S
H1810 C1818 0.950 . S
H1811 C1820 0.950 . S
H1812 C1822 0.950 . S
H1813 C1824 0.950 . S
H1814 C1826 0.950 . S
H1815 C1827 0.950 . S
C1816 H1808 0.950 . S
C1816 C1817 1.386 . S
C1816 C1818 1.391 . S
C1817 C1816 1.386 . S
C1817 C1821 1.393 . S
C1818 H1810 0.950 . S
C1818 C1816 1.391 . S
C1818 C1819 1.400 . S
C1819 C1818 1.400 . S
C1819 C1820 1.398 . S
C1819 C1825 1.491 . S
C1820 H1811 0.950 . S
C1820 C1819 1.398 . S
C1820 C1821 1.391 . S
C1821 H1809 0.950 . S
C1821 C1817 1.393 . S
C1821 C1820 1.391 . S
C1822 H1812 0.950 . S
C1822 C1823 1.386 . S
C1822 C1824 1.391 1_565 S
C1823 C1822 1.386 . S
C1823 C1827 1.393 . S
C1824 H1813 0.950 . S
C1824 C1822 1.391 1_545 S
C1824 C1825 1.400 . S
C1825 C1819 1.491 . S
C1825 C1824 1.400 . S
C1825 C1826 1.398 . S
C1826 H1814 0.950 . S
C1826 C1825 1.398 . S
C1826 C1827 1.391 1_545 S
C1827 H1815 0.950 . S
C1827 C1823 1.393 . S
C1827 C1826 1.391 1_565 S
H1828 C1836 0.950 . S
H1829 C1841 0.950 . S
H1830 C1838 0.950 . S
H1831 C1840 0.950 . S
H1832 C1842 0.950 . S
H1833 C1844 0.950 . S
H1834 C1846 0.950 . S
H1835 C1847 0.950 . S
C1836 H1828 0.950 . S
C1836 C1837 1.386 1_545 S
C1836 C1838 1.391 . S
C1837 C1836 1.386 1_565 S
C1837 C1841 1.393 . S
C1838 H1830 0.950 . S
C1838 C1836 1.391 . S
C1838 C1839 1.400 1_545 S
C1839 C1838 1.400 1_565 S
C1839 C1840 1.398 . S
C1839 C1845 1.491 1_565 S
C1840 H1831 0.950 . S
C1840 C1839 1.398 . S
C1840 C1841 1.391 . S
C1841 H1829 0.950 . S
C1841 C1837 1.393 . S
C1841 C1840 1.391 . S
C1842 H1832 0.950 . S
C1842 C1843 1.386 1_565 S
C1842 C1844 1.391 . S
C1843 C1842 1.386 1_545 S
C1843 C1847 1.393 . S
C1844 H1833 0.950 . S
C1844 C1842 1.391 . S
C1844 C1845 1.400 1_565 S
C1845 C1839 1.491 1_545 S
C1845 C1844 1.400 1_545 S
C1845 C1846 1.398 . S
C1846 H1834 0.950 . S
C1846 C1845 1.398 . S
C1846 C1847 1.391 . S
C1847 H1835 0.950 . S
C1847 C1843 1.393 . S
C1847 C1846 1.391 . S
H1848 C1856 0.950 . S
H1849 C1861 0.950 . S
H1850 C1858 0.950 . S
H1851 C1860 0.950 . S
H1852 C1862 0.950 . S
H1853 C1864 0.950 . S
H1854 C1866 0.950 . S
H1855 C1867 0.950 . S
C1856 H1848 0.950 . S
C1856 C1857 1.386 . S
C1856 C1858 1.391 1_545 S
C1857 C1856 1.386 . S
C1857 C1861 1.393 . S
C1858 H1850 0.950 . S
C1858 C1856 1.391 1_565 S
C1858 C1859 1.400 . S
C1859 C1858 1.400 . S
C1859 C1860 1.398 . S
C1859 C1865 1.491 . S
C1860 H1851 0.950 . S
C1860 C1859 1.398 . S
C1860 C1861 1.391 1_565 S
C1861 H1849 0.950 . S
C1861 C1857 1.393 . S
C1861 C1860 1.391 1_545 S
C1862 H1852 0.950 . S
C1862 C1863 1.386 . S
C1862 C1864 1.391 . S
C1863 C1862 1.386 . S
C1863 C1867 1.393 . S
C1864 H1853 0.950 . S
C1864 C1862 1.391 . S
C1864 C1865 1.400 . S
C1865 C1859 1.491 . S
C1865 C1864 1.400 . S
C1865 C1866 1.398 . S
C1866 H1854 0.950 . S
C1866 C1865 1.398 . S
C1866 C1867 1.391 . S
C1867 H1855 0.950 . S
C1867 C1863 1.393 . S
C1867 C1866 1.391 . S
H1868 C1876 0.950 . S
H1869 C1881 0.950 . S
H1870 C1878 0.950 . S
H1871 C1880 0.950 . S
H1872 C1882 0.950 . S
H1873 C1884 0.950 . S
H1874 C1886 0.950 . S
H1875 C1887 0.950 . S
C1876 H1868 0.950 . S
C1876 C1877 1.386 . S
C1876 C1878 1.391 . S
C1877 C1876 1.386 . S
C1877 C1881 1.393 1_545 S
C1878 H1870 0.950 . S
C1878 C1876 1.391 . S
C1878 C1879 1.400 . S
C1879 C1878 1.400 . S
C1879 C1880 1.398 1_545 S
C1879 C1885 1.489 1_545 S
C1880 H1871 0.950 . S
C1880 C1879 1.398 1_565 S
C1880 C1881 1.391 . S
C1881 H1869 0.950 . S
C1881 C1877 1.393 1_565 S
C1881 C1880 1.391 . S
C1882 H1872 0.950 . S
C1882 C1883 1.386 . S
C1882 C1884 1.391 . S
C1883 C1882 1.386 . S
C1883 C1887 1.393 1_565 S
C1884 H1873 0.950 . S
C1884 C1882 1.391 . S
C1884 C1885 1.413 . S
C1885 C1879 1.489 1_565 S
C1885 C1884 1.413 . S
C1885 C1886 1.388 1_565 S
C1886 H1874 0.950 . S
C1886 C1885 1.388 1_545 S
C1886 C1887 1.391 . S
C1887 H1875 0.950 . S
C1887 C1883 1.393 1_545 S
C1887 C1886 1.391 . S
H1888 C1896 0.950 . S
H1889 C1901 0.950 . S
H1890 C1898 0.950 . S
H1891 C1900 0.950 . S
H1892 C1902 0.950 . S
H1893 C1904 0.950 . S
H1894 C1906 0.950 . S
H1895 C1907 0.950 . S
C1896 H1888 0.950 . S
C1896 C1897 1.386 . S
C1896 C1898 1.391 . S
C1897 C1896 1.386 . S
C1897 C1901 1.393 . S
C1898 H1890 0.950 . S
C1898 C1896 1.391 . S
C1898 C1899 1.400 . S
C1899 C1898 1.400 . S
C1899 C1900 1.398 . S
C1899 C1905 1.491 . S
C1900 H1891 0.950 . S
C1900 C1899 1.398 . S
C1900 C1901 1.391 . S
C1901 H1889 0.950 . S
C1901 C1897 1.393 . S
C1901 C1900 1.391 . S
C1902 H1892 0.950 . S
C1902 C1903 1.386 . S
C1902 C1904 1.391 1_565 S
C1903 C1902 1.386 . S
C1903 C1907 1.393 . S
C1904 H1893 0.950 . S
C1904 C1902 1.391 1_545 S
C1904 C1905 1.400 . S
C1905 C1899 1.491 . S
C1905 C1904 1.400 . S
C1905 C1906 1.398 . S
C1906 H1894 0.950 . S
C1906 C1905 1.398 . S
C1906 C1907 1.391 1_545 S
C1907 H1895 0.950 . S
C1907 C1903 1.393 . S
C1907 C1906 1.391 1_565 S
H1908 C1916 0.950 . S
H1909 C1921 0.950 . S
H1910 C1918 0.950 . S
H1911 C1920 0.950 . S
H1912 C1922 0.950 . S
H1913 C1924 0.950 . S
H1914 C1926 0.950 . S
H1915 C1927 0.950 . S
C1916 H1908 0.950 . S
C1916 C1917 1.386 . S
C1916 C1918 1.391 . S
C1917 C1916 1.386 . S
C1917 C1921 1.393 1_565 S
C1918 H1910 0.950 . S
C1918 C1916 1.391 . S
C1918 C1919 1.400 . S
C1919 C1918 1.400 . S
C1919 C1920 1.398 1_565 S
C1919 C1925 1.491 1_565 S
C1920 H1911 0.950 . S
C1920 C1919 1.398 1_545 S
C1920 C1921 1.391 . S
C1921 H1909 0.950 . S
C1921 C1917 1.393 1_545 S
C1921 C1920 1.391 . S
C1922 H1912 0.950 . S
C1922 C1923 1.386 . S
C1922 C1924 1.391 . S
C1923 C1922 1.386 . S
C1923 C1927 1.393 1_545 S
C1924 H1913 0.950 . S
C1924 C1922 1.391 . S
C1924 C1925 1.400 . S
C1925 C1919 1.491 1_545 S
C1925 C1924 1.400 . S
C1925 C1926 1.398 1_545 S
C1926 H1914 0.950 . S
C1926 C1925 1.398 1_565 S
C1926 C1927 1.391 . S
C1927 H1915 0.950 . S
C1927 C1923 1.393 1_565 S
C1927 C1926 1.391 . S
H1928 C1936 0.950 . S
H1929 C1941 0.950 . S
H1930 C1938 0.950 . S
H1931 C1940 0.950 . S
H1932 C1942 0.950 . S
H1933 C1944 0.950 . S
H1934 C1946 0.950 . S
H1935 C1947 0.950 . S
C1936 H1928 0.950 . S
C1936 C1937 1.386 . S
C1936 C1938 1.391 . S
C1937 C1936 1.386 . S
C1937 C1941 1.393 . S
C1938 H1930 0.950 . S
C1938 C1936 1.391 . S
C1938 C1939 1.400 . S
C1939 C1938 1.400 . S
C1939 C1940 1.398 . S
C1939 C1945 1.491 . S
C1940 H1931 0.950 . S
C1940 C1939 1.398 . S
C1940 C1941 1.391 . S
C1941 H1929 0.950 . S
C1941 C1937 1.393 . S
C1941 C1940 1.391 . S
C1942 H1932 0.950 . S
C1942 C1943 1.386 . S
C1942 C1944 1.391 1_545 S
C1943 C1942 1.386 . S
C1943 C1947 1.393 . S
C1944 H1933 0.950 . S
C1944 C1942 1.391 1_565 S
C1944 C1945 1.400 . S
C1945 C1939 1.491 . S
C1945 C1944 1.400 . S
C1945 C1946 1.398 . S
C1946 H1934 0.950 . S
C1946 C1945 1.398 . S
C1946 C1947 1.391 1_565 S
C1947 H1935 0.950 . S
C1947 C1943 1.393 . S
C1947 C1946 1.391 1_545 S
H1948 C1956 0.950 . S
H1949 C1961 0.950 . S
H1950 C1958 0.950 . S
H1951 C1960 0.950 . S
H1952 C1962 0.950 . S
H1953 C1964 0.950 . S
H1954 C1966 0.950 . S
H1955 C1967 0.950 . S
C1956 H1948 0.950 . S
C1956 C1957 1.386 . S
C1956 C1958 1.391 . S
C1957 C1956 1.386 . S
C1957 C1961 1.393 1_545 S
C1958 H1950 0.950 . S
C1958 C1956 1.391 . S
C1958 C1959 1.400 . S
C1959 C1958 1.400 . S
C1959 C1960 1.398 1_545 S
C1959 C1965 1.491 1_545 S
C1960 H1951 0.950 . S
C1960 C1959 1.398 1_565 S
C1960 C1961 1.391 . S
C1961 H1949 0.950 . S
C1961 C1957 1.393 1_565 S
C1961 C1960 1.391 . S
C1962 H1952 0.950 . S
C1962 C1963 1.386 . S
C1962 C1964 1.391 . S
C1963 C1962 1.386 . S
C1963 C1967 1.393 1_565 S
C1964 H1953 0.950 . S
C1964 C1962 1.391 . S
C1964 C1965 1.400 . S
C1965 C1959 1.491 1_565 S
C1965 C1964 1.400 . S
C1965 C1966 1.398 1_565 S
C1966 H1954 0.950 . S
C1966 C1965 1.398 1_545 S
C1966 C1967 1.391 . S
C1967 H1955 0.950 . S
C1967 C1963 1.393 1_545 S
C1967 C1966 1.391 . S
H1968 C1976 0.950 . S
H1969 C1981 0.950 . S
H1970 C1978 0.950 . S
H1971 C1980 0.950 . S
H1972 C1982 0.950 . S
H1973 C1984 0.950 . S
H1974 C1986 0.950 . S
H1975 C1987 0.950 . S
C1976 H1968 0.950 . S
C1976 C1977 1.386 . S
C1976 C1978 1.391 1_545 S
C1977 C1976 1.386 . S
C1977 C1981 1.393 . S
C1978 H1970 0.950 . S
C1978 C1976 1.391 1_565 S
C1978 C1979 1.400 . S
C1979 C1978 1.400 . S
C1979 C1980 1.398 . S
C1979 C1985 1.491 . S
C1980 H1971 0.950 . S
C1980 C1979 1.398 . S
C1980 C1981 1.391 1_565 S
C1981 H1969 0.950 . S
C1981 C1977 1.393 . S
C1981 C1980 1.391 1_545 S
C1982 H1972 0.950 . S
C1982 C1983 1.386 . S
C1982 C1984 1.391 . S
C1983 C1982 1.386 . S
C1983 C1987 1.393 . S
C1984 H1973 0.950 . S
C1984 C1982 1.391 . S
C1984 C1985 1.400 . S
C1985 C1979 1.491 . S
C1985 C1984 1.400 . S
C1985 C1986 1.398 . S
C1986 H1974 0.950 . S
C1986 C1985 1.398 . S
C1986 C1987 1.391 . S
C1987 H1975 0.950 . S
C1987 C1983 1.393 . S
C1987 C1986 1.391 . S
H1988 C1996 0.950 . S
H1989 C2001 0.950 . S
H1990 C1998 0.950 1_565 S
H1991 C2000 0.950 . S
H1992 C2002 0.950 . S
H1993 C2004 0.950 1_545 S
H1994 C2006 0.950 . S
H1995 C2007 0.950 . S
C1996 H1988 0.950 . S
C1996 C1997 1.386 . S
C1996 C1998 1.391 . S
C1997 C1996 1.386 . S
C1997 C2001 1.393 . S
C1998 H1990 0.950 1_545 S
C1998 C1996 1.391 . S
C1998 C1999 1.400 . S
C1999 C1998 1.400 . S
C1999 C2000 1.398 . S
C1999 C2005 1.491 1_545 S
C2000 H1991 0.950 . S
C2000 C1999 1.398 . S
C2000 C2001 1.391 . S
C2001 H1989 0.950 . S
C2001 C1997 1.393 . S
C2001 C2000 1.391 . S
C2002 H1992 0.950 . S
C2002 C2003 1.386 . S
C2002 C2004 1.391 . S
C2003 C2002 1.386 . S
C2003 C2007 1.393 . S
C2004 H1993 0.950 1_565 S
C2004 C2002 1.391 . S
C2004 C2005 1.400 . S
C2005 C1999 1.491 1_565 S
C2005 C2004 1.400 . S
C2005 C2006 1.398 . S
C2006 H1994 0.950 . S
C2006 C2005 1.398 . S
C2006 C2007 1.391 . S
C2007 H1995 0.950 . S
C2007 C2003 1.393 . S
C2007 C2006 1.391 . S
H2008 C2016 0.950 . S
H2009 C2021 0.950 . S
H2010 C2018 0.950 . S
H2011 C2020 0.950 . S
H2012 C2022 0.950 . S
H2013 C2024 0.950 . S
H2014 C2026 0.950 . S
H2015 C2027 0.950 . S
C2016 H2008 0.950 . S
C2016 C2017 1.386 . S
C2016 C2018 1.391 . S
C2017 C2016 1.386 . S
C2017 C2021 1.393 . S
C2018 H2010 0.950 . S
C2018 C2016 1.391 . S
C2018 C2019 1.400 . S
C2019 C2018 1.400 . S
C2019 C2020 1.398 . S
C2019 C2025 1.491 . S
C2020 H2011 0.950 . S
C2020 C2019 1.398 . S
C2020 C2021 1.391 . S
C2021 H2009 0.950 . S
C2021 C2017 1.393 . S
C2021 C2020 1.391 . S
C2022 H2012 0.950 . S
C2022 C2023 1.386 . S
C2022 C2024 1.391 1_565 S
C2023 C2022 1.386 . S
C2023 C2027 1.393 . S
C2024 H2013 0.950 . S
C2024 C2022 1.391 1_545 S
C2024 C2025 1.400 . S
C2025 C2019 1.491 . S
C2025 C2024 1.400 . S
C2025 C2026 1.398 . S
C2026 H2014 0.950 . S
C2026 C2025 1.398 . S
C2026 C2027 1.391 1_545 S
C2027 H2015 0.950 . S
C2027 C2023 1.393 . S
C2027 C2026 1.391 1_565 S
H2028 C2036 0.950 . S
H2029 C2041 0.950 . S
H2030 C2038 0.950 . S
H2031 C2040 0.950 . S
H2032 C2042 0.950 . S
H2033 C2044 0.950 . S
H2034 C2046 0.950 . S
H2035 C2047 0.950 . S
C2036 H2028 0.950 . S
C2036 C2037 1.386 1_565 S
C2036 C2038 1.391 . S
C2037 C2036 1.386 1_545 S
C2037 C2041 1.393 . S
C2038 H2030 0.950 . S
C2038 C2036 1.391 . S
C2038 C2039 1.400 1_565 S
C2039 C2038 1.400 1_545 S
C2039 C2040 1.398 . S
C2039 C2045 1.491 1_545 S
C2040 H2031 0.950 . S
C2040 C2039 1.398 . S
C2040 C2041 1.391 . S
C2041 H2029 0.950 . S
C2041 C2037 1.393 . S
C2041 C2040 1.391 . S
C2042 H2032 0.950 . S
C2042 C2043 1.386 1_545 S
C2042 C2044 1.391 . S
C2043 C2042 1.386 1_565 S
C2043 C2047 1.393 . S
C2044 H2033 0.950 . S
C2044 C2042 1.391 . S
C2044 C2045 1.400 1_545 S
C2045 C2039 1.491 1_565 S
C2045 C2044 1.400 1_565 S
C2045 C2046 1.398 . S
C2046 H2034 0.950 . S
C2046 C2045 1.398 . S
C2046 C2047 1.391 . S
C2047 H2035 0.950 . S
C2047 C2043 1.393 . S
C2047 C2046 1.391 . S
H2048 C2056 0.950 . S
H2049 C2061 0.950 . S
H2050 C2058 0.950 . S
H2051 C2060 0.950 . S
H2052 C2062 0.950 . S
H2053 C2064 0.950 . S
H2054 C2066 0.950 . S
H2055 C2067 0.950 . S
C2056 H2048 0.950 . S
C2056 C2057 1.386 . S
C2056 C2058 1.391 . S
C2057 C2056 1.386 . S
C2057 C2061 1.393 . S
C2058 H2050 0.950 . S
C2058 C2056 1.391 . S
C2058 C2059 1.400 . S
C2059 C2058 1.400 . S
C2059 C2060 1.398 . S
C2059 C2065 1.491 . S
C2060 H2051 0.950 . S
C2060 C2059 1.398 . S
C2060 C2061 1.391 . S
C2061 H2049 0.950 . S
C2061 C2057 1.393 . S
C2061 C2060 1.391 . S
C2062 H2052 0.950 . S
C2062 C2063 1.386 . S
C2062 C2064 1.391 . S
C2063 C2062 1.386 . S
C2063 C2067 1.393 . S
C2064 H2053 0.950 . S
C2064 C2062 1.391 . S
C2064 C2065 1.400 . S
C2065 C2059 1.491 . S
C2065 C2064 1.400 . S
C2065 C2066 1.398 . S
C2066 H2054 0.950 . S
C2066 C2065 1.398 . S
C2066 C2067 1.391 . S
C2067 H2055 0.950 . S
C2067 C2063 1.393 . S
C2067 C2066 1.391 . S
H2068 C2076 0.950 . S
H2069 C2081 0.950 . S
H2070 C2078 0.950 . S
H2071 C2080 0.950 . S
H2072 C2082 0.950 . S
H2073 C2084 0.950 . S
H2074 C2086 0.950 . S
H2075 C2087 0.950 . S
C2076 H2068 0.950 . S
C2076 C2077 1.386 . S
C2076 C2078 1.391 . S
C2077 C2076 1.386 . S
C2077 C2081 1.393 . S
C2078 H2070 0.950 . S
C2078 C2076 1.391 . S
C2078 C2079 1.400 . S
C2079 C2078 1.400 . S
C2079 C2080 1.398 . S
C2079 C2085 1.491 . S
C2080 H2071 0.950 . S
C2080 C2079 1.398 . S
C2080 C2081 1.391 . S
C2081 H2069 0.950 . S
C2081 C2077 1.393 . S
C2081 C2080 1.391 . S
C2082 H2072 0.950 . S
C2082 C2083 1.386 . S
C2082 C2084 1.391 . S
C2083 C2082 1.386 . S
C2083 C2087 1.393 . S
C2084 H2073 0.950 . S
C2084 C2082 1.391 . S
C2084 C2085 1.400 . S
C2085 C2079 1.491 . S
C2085 C2084 1.400 . S
C2085 C2086 1.398 . S
C2086 H2074 0.950 . S
C2086 C2085 1.398 . S
C2086 C2087 1.391 . S
C2087 H2075 0.950 . S
C2087 C2083 1.393 . S
C2087 C2086 1.391 . S
H2088 C2096 0.950 . S
H2089 C2101 0.950 . S
H2090 C2098 0.950 . S
H2091 C2100 0.950 . S
H2092 C2102 0.950 . S
H2093 C2104 0.950 . S
H2094 C2106 0.950 . S
H2095 C2107 0.950 . S
C2096 H2088 0.950 . S
C2096 C2097 1.386 . S
C2096 C2098 1.391 . S
C2097 C2096 1.386 . S
C2097 C2101 1.393 . S
C2098 H2090 0.950 . S
C2098 C2096 1.391 . S
C2098 C2099 1.400 . S
C2099 C2098 1.400 . S
C2099 C2100 1.398 . S
C2099 C2105 1.491 . S
C2100 H2091 0.950 . S
C2100 C2099 1.398 . S
C2100 C2101 1.391 . S
C2101 H2089 0.950 . S
C2101 C2097 1.393 . S
C2101 C2100 1.391 . S
C2102 H2092 0.950 . S
C2102 C2103 1.386 . S
C2102 C2104 1.391 . S
C2103 C2102 1.386 . S
C2103 C2107 1.393 . S
C2104 H2093 0.950 . S
C2104 C2102 1.391 . S
C2104 C2105 1.400 . S
C2105 C2099 1.491 . S
C2105 C2104 1.400 . S
C2105 C2106 1.398 . S
C2106 H2094 0.950 . S
C2106 C2105 1.398 . S
C2106 C2107 1.391 . S
C2107 H2095 0.950 . S
C2107 C2103 1.393 . S
C2107 C2106 1.391 . S
H2108 C2116 0.950 . S
H2109 C2121 0.950 . S
H2110 C2118 0.950 . S
H2111 C2120 0.950 . S
H2112 C2122 0.950 . S
H2113 C2124 0.950 . S
H2114 C2126 0.950 . S
H2115 C2127 0.950 . S
C2116 H2108 0.950 . S
C2116 C2117 1.386 . S
C2116 C2118 1.391 . S
C2117 C2116 1.386 . S
C2117 C2121 1.393 . S
C2118 H2110 0.950 . S
C2118 C2116 1.391 . S
C2118 C2119 1.400 . S
C2119 C2118 1.400 . S
C2119 C2120 1.398 . S
C2119 C2125 1.491 . S
C2120 H2111 0.950 . S
C2120 C2119 1.398 . S
C2120 C2121 1.391 . S
C2121 H2109 0.950 . S
C2121 C2117 1.393 . S
C2121 C2120 1.391 . S
C2122 H2112 0.950 . S
C2122 C2123 1.386 . S
C2122 C2124 1.391 . S
C2123 C2122 1.386 . S
C2123 C2127 1.393 . S
C2124 H2113 0.950 . S
C2124 C2122 1.391 . S
C2124 C2125 1.400 . S
C2125 C2119 1.491 . S
C2125 C2124 1.400 . S
C2125 C2126 1.398 . S
C2126 H2114 0.950 . S
C2126 C2125 1.398 . S
C2126 C2127 1.391 . S
C2127 H2115 0.950 . S
C2127 C2123 1.393 . S
C2127 C2126 1.391 . S
H2128 C2136 0.950 . S
H2129 C2141 0.950 . S
H2130 C2138 0.950 . S
H2131 C2140 0.950 . S
H2132 C2142 0.950 . S
H2133 C2144 0.950 . S
H2134 C2146 0.950 . S
H2135 C2147 0.950 . S
C2136 H2128 0.950 . S
C2136 C2137 1.386 . S
C2136 C2138 1.391 . S
C2137 C2136 1.386 . S
C2137 C2141 1.393 . S
C2138 H2130 0.950 . S
C2138 C2136 1.391 . S
C2138 C2139 1.400 . S
C2139 C2138 1.400 . S
C2139 C2140 1.398 . S
C2139 C2145 1.491 . S
C2140 H2131 0.950 . S
C2140 C2139 1.398 . S
C2140 C2141 1.391 . S
C2141 H2129 0.950 . S
C2141 C2137 1.393 . S
C2141 C2140 1.391 . S
C2142 H2132 0.950 . S
C2142 C2143 1.386 . S
C2142 C2144 1.391 . S
C2143 C2142 1.386 . S
C2143 C2147 1.393 . S
C2144 H2133 0.950 . S
C2144 C2142 1.391 . S
C2144 C2145 1.400 . S
C2145 C2139 1.491 . S
C2145 C2144 1.400 . S
C2145 C2146 1.398 . S
C2146 H2134 0.950 . S
C2146 C2145 1.398 . S
C2146 C2147 1.391 . S
C2147 H2135 0.950 . S
C2147 C2143 1.393 . S
C2147 C2146 1.391 . S
H2148 C2156 0.950 . S
H2149 C2161 0.950 . S
H2150 C2158 0.950 . S
H2151 C2160 0.950 . S
H2152 C2162 0.950 . S
H2153 C2164 0.950 . S
H2154 C2166 0.950 . S
H2155 C2167 0.950 . S
C2156 H2148 0.950 . S
C2156 C2157 1.386 . S
C2156 C2158 1.391 . S
C2157 C2156 1.386 . S
C2157 C2161 1.393 . S
C2158 H2150 0.950 . S
C2158 C2156 1.391 . S
C2158 C2159 1.400 . S
C2159 C2158 1.400 . S
C2159 C2160 1.398 . S
C2159 C2165 1.491 . S
C2160 H2151 0.950 . S
C2160 C2159 1.398 . S
C2160 C2161 1.391 . S
C2161 H2149 0.950 . S
C2161 C2157 1.393 . S
C2161 C2160 1.391 . S
C2162 H2152 0.950 . S
C2162 C2163 1.386 . S
C2162 C2164 1.391 . S
C2163 C2162 1.386 . S
C2163 C2167 1.393 . S
C2164 H2153 0.950 . S
C2164 C2162 1.391 . S
C2164 C2165 1.400 . S
C2165 C2159 1.491 . S
C2165 C2164 1.400 . S
C2165 C2166 1.398 . S
C2166 H2154 0.950 . S
C2166 C2165 1.398 . S
C2166 C2167 1.391 . S
C2167 H2155 0.950 . S
C2167 C2163 1.393 . S
C2167 C2166 1.391 . S
H2168 C2176 0.950 . S
H2169 C2181 0.950 . S
H2170 C2178 0.950 . S
H2171 C2180 0.950 . S
H2172 C2182 0.950 . S
H2173 C2184 0.950 . S
H2174 C2186 0.950 . S
H2175 C2187 0.950 . S
C2176 H2168 0.950 . S
C2176 C2177 1.386 . S
C2176 C2178 1.391 . S
C2177 C2176 1.386 . S
C2177 C2181 1.393 . S
C2178 H2170 0.950 . S
C2178 C2176 1.391 . S
C2178 C2179 1.400 . S
C2179 C2178 1.400 . S
C2179 C2180 1.398 . S
C2179 C2185 1.491 . S
C2180 H2171 0.950 . S
C2180 C2179 1.398 . S
C2180 C2181 1.391 . S
C2181 H2169 0.950 . S
C2181 C2177 1.393 . S
C2181 C2180 1.391 . S
C2182 H2172 0.950 . S
C2182 C2183 1.386 . S
C2182 C2184 1.391 . S
C2183 C2182 1.386 . S
C2183 C2187 1.393 . S
C2184 H2173 0.950 . S
C2184 C2182 1.391 . S
C2184 C2185 1.400 . S
C2185 C2179 1.491 . S
C2185 C2184 1.400 . S
C2185 C2186 1.398 . S
C2186 H2174 0.950 . S
C2186 C2185 1.398 . S
C2186 C2187 1.391 . S
C2187 H2175 0.950 . S
C2187 C2183 1.393 . S
C2187 C2186 1.391 . S
H2188 C2196 0.950 . S
H2189 C2201 0.950 . S
H2190 C2198 0.950 . S
H2191 C2200 0.950 . S
H2192 C2202 0.950 . S
H2193 C2204 0.950 . S
H2194 C2206 0.950 . S
H2195 C2207 0.950 . S
C2196 H2188 0.950 . S
C2196 C2197 1.386 . S
C2196 C2198 1.391 . S
C2197 C2196 1.386 . S
C2197 C2201 1.393 . S
C2198 H2190 0.950 . S
C2198 C2196 1.391 . S
C2198 C2199 1.400 . S
C2199 C2198 1.400 . S
C2199 C2200 1.398 . S
C2199 C2205 1.491 . S
C2200 H2191 0.950 . S
C2200 C2199 1.398 . S
C2200 C2201 1.391 . S
C2201 H2189 0.950 . S
C2201 C2197 1.393 . S
C2201 C2200 1.391 . S
C2202 H2192 0.950 . S
C2202 C2203 1.386 . S
C2202 C2204 1.391 . S
C2203 C2202 1.386 . S
C2203 C2207 1.393 . S
C2204 H2193 0.950 . S
C2204 C2202 1.391 . S
C2204 C2205 1.400 . S
C2205 C2199 1.491 . S
C2205 C2204 1.400 . S
C2205 C2206 1.398 . S
C2206 H2194 0.950 . S
C2206 C2205 1.398 . S
C2206 C2207 1.391 . S
C2207 H2195 0.950 . S
C2207 C2203 1.393 . S
C2207 C2206 1.391 . S
H2208 C2216 0.950 . S
H2209 C2221 0.950 . S
H2210 C2218 0.950 . S
H2211 C2220 0.950 . S
H2212 C2222 0.950 . S
H2213 C2224 0.950 . S
H2214 C2226 0.950 . S
H2215 C2227 0.950 . S
C2216 H2208 0.950 . S
C2216 C2217 1.386 . S
C2216 C2218 1.391 . S
C2217 C2216 1.386 . S
C2217 C2221 1.393 . S
C2218 H2210 0.950 . S
C2218 C2216 1.391 . S
C2218 C2219 1.400 . S
C2219 C2218 1.400 . S
C2219 C2220 1.398 . S
C2219 C2225 1.491 . S
C2220 H2211 0.950 . S
C2220 C2219 1.398 . S
C2220 C2221 1.391 . S
C2221 H2209 0.950 . S
C2221 C2217 1.393 . S
C2221 C2220 1.391 . S
C2222 H2212 0.950 . S
C2222 C2223 1.386 . S
C2222 C2224 1.391 . S
C2223 C2222 1.386 . S
C2223 C2227 1.393 . S
C2224 H2213 0.950 . S
C2224 C2222 1.391 . S
C2224 C2225 1.400 . S
C2225 C2219 1.491 . S
C2225 C2224 1.400 . S
C2225 C2226 1.398 . S
C2226 H2214 0.950 . S
C2226 C2225 1.398 . S
C2226 C2227 1.391 . S
C2227 H2215 0.950 . S
C2227 C2223 1.393 . S
C2227 C2226 1.391 . S
H2228 C2236 0.950 . S
H2229 C2241 0.950 . S
H2230 C2238 0.950 . S
H2231 C2240 0.950 . S
H2232 C2242 0.950 . S
H2233 C2244 0.950 . S
H2234 C2246 0.950 . S
H2235 C2247 0.950 . S
C2236 H2228 0.950 . S
C2236 C2237 1.386 . S
C2236 C2238 1.391 . S
C2237 C2236 1.386 . S
C2237 C2241 1.393 . S
C2238 H2230 0.950 . S
C2238 C2236 1.391 . S
C2238 C2239 1.400 . S
C2239 C2238 1.400 . S
C2239 C2240 1.398 . S
C2239 C2245 1.491 . S
C2240 H2231 0.950 . S
C2240 C2239 1.398 . S
C2240 C2241 1.391 . S
C2241 H2229 0.950 . S
C2241 C2237 1.393 . S
C2241 C2240 1.391 . S
C2242 H2232 0.950 . S
C2242 C2243 1.386 . S
C2242 C2244 1.391 . S
C2243 C2242 1.386 . S
C2243 C2247 1.393 . S
C2244 H2233 0.950 . S
C2244 C2242 1.391 . S
C2244 C2245 1.400 . S
C2245 C2239 1.491 . S
C2245 C2244 1.400 . S
C2245 C2246 1.398 . S
C2246 H2234 0.950 . S
C2246 C2245 1.398 . S
C2246 C2247 1.391 . S
C2247 H2235 0.950 . S
C2247 C2243 1.393 . S
C2247 C2246 1.391 . S
H2248 C2256 0.950 . S
H2249 C2261 0.950 . S
H2250 C2258 0.950 . S
H2251 C2260 0.950 . S
H2252 C2262 0.950 . S
H2253 C2264 0.950 . S
H2254 C2266 0.950 . S
H2255 C2267 0.950 . S
C2256 H2248 0.950 . S
C2256 C2257 1.386 . S
C2256 C2258 1.391 . S
C2257 C2256 1.386 . S
C2257 C2261 1.393 . S
C2258 H2250 0.950 . S
C2258 C2256 1.391 . S
C2258 C2259 1.400 . S
C2259 C2258 1.400 . S
C2259 C2260 1.398 . S
C2259 C2265 1.491 . S
C2260 H2251 0.950 . S
C2260 C2259 1.398 . S
C2260 C2261 1.391 . S
C2261 H2249 0.950 . S
C2261 C2257 1.393 . S
C2261 C2260 1.391 . S
C2262 H2252 0.950 . S
C2262 C2263 1.386 . S
C2262 C2264 1.391 . S
C2263 C2262 1.386 . S
C2263 C2267 1.393 . S
C2264 H2253 0.950 . S
C2264 C2262 1.391 . S
C2264 C2265 1.400 . S
C2265 C2259 1.491 . S
C2265 C2264 1.400 . S
C2265 C2266 1.398 . S
C2266 H2254 0.950 . S
C2266 C2265 1.398 . S
C2266 C2267 1.391 . S
C2267 H2255 0.950 . S
C2267 C2263 1.393 . S
C2267 C2266 1.391 . S
H2268 C2276 0.950 . S
H2269 C2281 0.950 . S
H2270 C2278 0.950 . S
H2271 C2280 0.950 . S
H2272 C2282 0.950 . S
H2273 C2284 0.950 . S
H2274 C2286 0.950 . S
H2275 C2287 0.950 . S
C2276 H2268 0.950 . S
C2276 C2277 1.386 . S
C2276 C2278 1.391 . S
C2277 C2276 1.386 . S
C2277 C2281 1.393 . S
C2278 H2270 0.950 . S
C2278 C2276 1.391 . S
C2278 C2279 1.400 . S
C2279 C2278 1.400 . S
C2279 C2280 1.398 . S
C2279 C2285 1.491 . S
C2280 H2271 0.950 . S
C2280 C2279 1.398 . S
C2280 C2281 1.391 . S
C2281 H2269 0.950 . S
C2281 C2277 1.393 . S
C2281 C2280 1.391 . S
C2282 H2272 0.950 . S
C2282 C2283 1.386 . S
C2282 C2284 1.391 . S
C2283 C2282 1.386 . S
C2283 C2287 1.393 . S
C2284 H2273 0.950 . S
C2284 C2282 1.391 . S
C2284 C2285 1.400 . S
C2285 C2279 1.491 . S
C2285 C2284 1.400 . S
C2285 C2286 1.398 . S
C2286 H2274 0.950 . S
C2286 C2285 1.398 . S
C2286 C2287 1.391 . S
C2287 H2275 0.950 . S
C2287 C2283 1.393 . S
C2287 C2286 1.391 . S
H2288 C2296 0.950 . S
H2289 C2301 0.950 . S
H2290 C2298 0.950 . S
H2291 C2300 0.950 . S
H2292 C2302 0.950 . S
H2293 C2304 0.950 . S
H2294 C2306 0.950 . S
H2295 C2307 0.950 . S
C2296 H2288 0.950 . S
C2296 C2297 1.386 . S
C2296 C2298 1.391 . S
C2297 C2296 1.386 . S
C2297 C2301 1.393 . S
C2298 H2290 0.950 . S
C2298 C2296 1.391 . S
C2298 C2299 1.400 . S
C2299 C2298 1.400 . S
C2299 C2300 1.398 . S
C2299 C2305 1.491 . S
C2300 H2291 0.950 . S
C2300 C2299 1.398 . S
C2300 C2301 1.391 . S
C2301 H2289 0.950 . S
C2301 C2297 1.393 . S
C2301 C2300 1.391 . S
C2302 H2292 0.950 . S
C2302 C2303 1.386 . S
C2302 C2304 1.391 . S
C2303 C2302 1.386 . S
C2303 C2307 1.393 . S
C2304 H2293 0.950 . S
C2304 C2302 1.391 . S
C2304 C2305 1.400 . S
C2305 C2299 1.491 . S
C2305 C2304 1.400 . S
C2305 C2306 1.398 . S
C2306 H2294 0.950 . S
C2306 C2305 1.398 . S
C2306 C2307 1.391 . S
C2307 H2295 0.950 . S
C2307 C2303 1.393 . S
C2307 C2306 1.391 . S
H2308 C2316 0.950 . S
H2309 C2321 0.950 . S
H2310 C2318 0.950 . S
H2311 C2320 0.950 . S
H2312 C2322 0.950 . S
H2313 C2324 0.950 . S
H2314 C2326 0.950 . S
H2315 C2327 0.950 . S
C2316 H2308 0.950 . S
C2316 C2317 1.386 . S
C2316 C2318 1.391 . S
C2317 C2316 1.386 . S
C2317 C2321 1.393 . S
C2318 H2310 0.950 . S
C2318 C2316 1.391 . S
C2318 C2319 1.400 . S
C2319 C2318 1.400 . S
C2319 C2320 1.398 . S
C2319 C2325 1.491 . S
C2320 H2311 0.950 . S
C2320 C2319 1.398 . S
C2320 C2321 1.391 . S
C2321 H2309 0.950 . S
C2321 C2317 1.393 . S
C2321 C2320 1.391 . S
C2322 H2312 0.950 . S
C2322 C2323 1.386 . S
C2322 C2324 1.391 . S
C2323 C2322 1.386 . S
C2323 C2327 1.393 . S
C2324 H2313 0.950 . S
C2324 C2322 1.391 . S
C2324 C2325 1.400 . S
C2325 C2319 1.491 . S
C2325 C2324 1.400 . S
C2325 C2326 1.398 . S
C2326 H2314 0.950 . S
C2326 C2325 1.398 . S
C2326 C2327 1.391 . S
C2327 H2315 0.950 . S
C2327 C2323 1.393 . S
C2327 C2326 1.391 . S
H2328 C2336 0.950 . S
H2329 C2341 0.950 . S
H2330 C2338 0.950 . S
H2331 C2340 0.950 . S
H2332 C2342 0.950 . S
H2333 C2344 0.950 . S
H2334 C2346 0.950 . S
H2335 C2347 0.950 . S
C2336 H2328 0.950 . S
C2336 C2337 1.386 . S
C2336 C2338 1.391 . S
C2337 C2336 1.386 . S
C2337 C2341 1.393 . S
C2338 H2330 0.950 . S
C2338 C2336 1.391 . S
C2338 C2339 1.400 . S
C2339 C2338 1.400 . S
C2339 C2340 1.398 . S
C2339 C2345 1.491 . S
C2340 H2331 0.950 . S
C2340 C2339 1.398 . S
C2340 C2341 1.391 . S
C2341 H2329 0.950 . S
C2341 C2337 1.393 . S
C2341 C2340 1.391 . S
C2342 H2332 0.950 . S
C2342 C2343 1.386 . S
C2342 C2344 1.391 . S
C2343 C2342 1.386 . S
C2343 C2347 1.393 . S
C2344 H2333 0.950 . S
C2344 C2342 1.391 . S
C2344 C2345 1.400 . S
C2345 C2339 1.491 . S
C2345 C2344 1.400 . S
C2345 C2346 1.398 . S
C2346 H2334 0.950 . S
C2346 C2345 1.398 . S
C2346 C2347 1.391 . S
C2347 H2335 0.950 . S
C2347 C2343 1.393 . S
C2347 C2346 1.391 . S
H2348 C2356 0.950 . S
H2349 C2361 0.950 . S
H2350 C2358 0.950 . S
H2351 C2360 0.950 . S
H2352 C2362 0.950 . S
H2353 C2364 0.950 . S
H2354 C2366 0.950 . S
H2355 C2367 0.950 . S
C2356 H2348 0.950 . S
C2356 C2357 1.386 . S
C2356 C2358 1.391 . S
C2357 C2356 1.386 . S
C2357 C2361 1.393 . S
C2358 H2350 0.950 . S
C2358 C2356 1.391 . S
C2358 C2359 1.400 . S
C2359 C2358 1.400 . S
C2359 C2360 1.398 . S
C2359 C2365 1.491 . S
C2360 H2351 0.950 . S
C2360 C2359 1.398 . S
C2360 C2361 1.391 . S
C2361 H2349 0.950 . S
C2361 C2357 1.393 . S
C2361 C2360 1.391 . S
C2362 H2352 0.950 . S
C2362 C2363 1.386 . S
C2362 C2364 1.391 . S
C2363 C2362 1.386 . S
C2363 C2367 1.393 . S
C2364 H2353 0.950 . S
C2364 C2362 1.391 . S
C2364 C2365 1.400 . S
C2365 C2359 1.491 . S
C2365 C2364 1.400 . S
C2365 C2366 1.398 . S
C2366 H2354 0.950 . S
C2366 C2365 1.398 . S
C2366 C2367 1.391 . S
C2367 H2355 0.950 . S
C2367 C2363 1.393 . S
C2367 C2366 1.391 . S
H2368 C2376 0.950 . S
H2369 C2381 0.950 . S
H2370 C2378 0.950 . S
H2371 C2380 0.950 . S
H2372 C2382 0.950 . S
H2373 C2384 0.950 . S
H2374 C2386 0.950 . S
H2375 C2387 0.950 . S
C2376 H2368 0.950 . S
C2376 C2377 1.386 . S
C2376 C2378 1.391 . S
C2377 C2376 1.386 . S
C2377 C2381 1.393 . S
C2378 H2370 0.950 . S
C2378 C2376 1.391 . S
C2378 C2379 1.400 . S
C2379 C2378 1.400 . S
C2379 C2380 1.398 . S
C2379 C2385 1.491 . S
C2380 H2371 0.950 . S
C2380 C2379 1.398 . S
C2380 C2381 1.391 . S
C2381 H2369 0.950 . S
C2381 C2377 1.393 . S
C2381 C2380 1.391 . S
C2382 H2372 0.950 . S
C2382 C2383 1.386 . S
C2382 C2384 1.391 . S
C2383 C2382 1.386 . S
C2383 C2387 1.393 . S
C2384 H2373 0.950 . S
C2384 C2382 1.391 . S
C2384 C2385 1.400 . S
C2385 C2379 1.491 . S
C2385 C2384 1.400 . S
C2385 C2386 1.398 . S
C2386 H2374 0.950 . S
C2386 C2385 1.398 . S
C2386 C2387 1.391 . S
C2387 H2375 0.950 . S
C2387 C2383 1.393 . S
C2387 C2386 1.391 . S
H2388 C2396 0.950 . S
H2389 C2401 0.950 . S
H2390 C2398 0.950 . S
H2391 C2400 0.950 . S
H2392 C2402 0.950 . S
H2393 C2404 0.950 . S
H2394 C2406 0.950 . S
H2395 C2407 0.950 . S
C2396 H2388 0.950 . S
C2396 C2397 1.386 . S
C2396 C2398 1.391 . S
C2397 C2396 1.386 . S
C2397 C2401 1.393 . S
C2398 H2390 0.950 . S
C2398 C2396 1.391 . S
C2398 C2399 1.400 . S
C2399 C2398 1.400 . S
C2399 C2400 1.398 . S
C2399 C2405 1.491 . S
C2400 H2391 0.950 . S
C2400 C2399 1.398 . S
C2400 C2401 1.391 . S
C2401 H2389 0.950 . S
C2401 C2397 1.393 . S
C2401 C2400 1.391 . S
C2402 H2392 0.950 . S
C2402 C2403 1.386 . S
C2402 C2404 1.391 . S
C2403 C2402 1.386 . S
C2403 C2407 1.393 . S
C2404 H2393 0.950 . S
C2404 C2402 1.391 . S
C2404 C2405 1.400 . S
C2405 C2399 1.491 . S
C2405 C2404 1.400 . S
C2405 C2406 1.398 . S
C2406 H2394 0.950 . S
C2406 C2405 1.398 . S
C2406 C2407 1.391 . S
C2407 H2395 0.950 . S
C2407 C2403 1.393 . S
C2407 C2406 1.391 . S
H2408 C2416 0.950 . S
H2409 C2421 0.950 . S
H2410 C2418 0.950 . S
H2411 C2420 0.950 . S
H2412 C2422 0.950 . S
H2413 C2424 0.950 . S
H2414 C2426 0.950 . S
H2415 C2427 0.950 . S
C2416 H2408 0.950 . S
C2416 C2417 1.386 . S
C2416 C2418 1.391 . S
C2417 C2416 1.386 . S
C2417 C2421 1.393 . S
C2418 H2410 0.950 . S
C2418 C2416 1.391 . S
C2418 C2419 1.400 . S
C2419 C2418 1.400 . S
C2419 C2420 1.398 . S
C2419 C2425 1.491 . S
C2420 H2411 0.950 . S
C2420 C2419 1.398 . S
C2420 C2421 1.391 . S
C2421 H2409 0.950 . S
C2421 C2417 1.393 . S
C2421 C2420 1.391 . S
C2422 H2412 0.950 . S
C2422 C2423 1.386 . S
C2422 C2424 1.391 . S
C2423 C2422 1.386 . S
C2423 C2427 1.393 . S
C2424 H2413 0.950 . S
C2424 C2422 1.391 . S
C2424 C2425 1.400 . S
C2425 C2419 1.491 . S
C2425 C2424 1.400 . S
C2425 C2426 1.398 . S
C2426 H2414 0.950 . S
C2426 C2425 1.398 . S
C2426 C2427 1.391 . S
C2427 H2415 0.950 . S
C2427 C2423 1.393 . S
C2427 C2426 1.391 . S
H2428 C2436 0.950 . S
H2429 C2441 0.950 . S
H2430 C2438 0.950 . S
H2431 C2440 0.950 . S
H2432 C2442 0.950 . S
H2433 C2444 0.950 . S
H2434 C2446 0.950 . S
H2435 C2447 0.950 . S
C2436 H2428 0.950 . S
C2436 C2437 1.386 . S
C2436 C2438 1.391 . S
C2437 C2436 1.386 . S
C2437 C2441 1.393 . S
C2438 H2430 0.950 . S
C2438 C2436 1.391 . S
C2438 C2439 1.400 . S
C2439 C2438 1.400 . S
C2439 C2440 1.398 . S
C2439 C2445 1.491 . S
C2440 H2431 0.950 . S
C2440 C2439 1.398 . S
C2440 C2441 1.391 . S
C2441 H2429 0.950 . S
C2441 C2437 1.393 . S
C2441 C2440 1.391 . S
C2442 H2432 0.950 . S
C2442 C2443 1.386 . S
C2442 C2444 1.391 . S
C2443 C2442 1.386 . S
C2443 C2447 1.393 . S
C2444 H2433 0.950 . S
C2444 C2442 1.391 . S
C2444 C2445 1.400 . S
C2445 C2439 1.491 . S
C2445 C2444 1.400 . S
C2445 C2446 1.398 . S
C2446 H2434 0.950 . S
C2446 C2445 1.398 . S
C2446 C2447 1.391 . S
C2447 H2435 0.950 . S
C2447 C2443 1.393 . S
C2447 C2446 1.391 . S
H2448 C2456 0.950 . S
H2449 C2461 0.950 . S
H2450 C2458 0.950 . S
H2451 C2460 0.950 . S
H2452 C2462 0.950 . S
H2453 C2464 0.950 . S
H2454 C2466 0.950 . S
H2455 C2467 0.950 . S
C2456 H2448 0.950 . S
C2456 C2457 1.386 . S
C2456 C2458 1.391 . S
C2457 C2456 1.386 . S
C2457 C2461 1.393 . S
C2458 H2450 0.950 . S
C2458 C2456 1.391 . S
C2458 C2459 1.400 . S
C2459 C2458 1.400 . S
C2459 C2460 1.398 . S
C2459 C2465 1.491 . S
C2460 H2451 0.950 . S
C2460 C2459 1.398 . S
C2460 C2461 1.391 . S
C2461 H2449 0.950 . S
C2461 C2457 1.393 . S
C2461 C2460 1.391 . S
C2462 H2452 0.950 . S
C2462 C2463 1.386 . S
C2462 C2464 1.391 . S
C2463 C2462 1.386 . S
C2463 C2467 1.393 . S
C2464 H2453 0.950 . S
C2464 C2462 1.391 . S
C2464 C2465 1.400 . S
C2465 C2459 1.491 . S
C2465 C2464 1.400 . S
C2465 C2466 1.398 . S
C2466 H2454 0.950 . S
C2466 C2465 1.398 . S
C2466 C2467 1.391 . S
C2467 H2455 0.950 . S
C2467 C2463 1.393 . S
C2467 C2466 1.391 . S
H2468 C2476 0.950 . S
H2469 C2481 0.950 . S
H2470 C2478 0.950 . S
H2471 C2480 0.950 . S
H2472 C2482 0.950 . S
H2473 C2484 0.950 . S
H2474 C2486 0.950 . S
H2475 C2487 0.950 . S
C2476 H2468 0.950 . S
C2476 C2477 1.386 . S
C2476 C2478 1.391 . S
C2477 C2476 1.386 . S
C2477 C2481 1.393 . S
C2478 H2470 0.950 . S
C2478 C2476 1.391 . S
C2478 C2479 1.400 . S
C2479 C2478 1.400 . S
C2479 C2480 1.398 . S
C2479 C2485 1.491 . S
C2480 H2471 0.950 . S
C2480 C2479 1.398 . S
C2480 C2481 1.391 . S
C2481 H2469 0.950 . S
C2481 C2477 1.393 . S
C2481 C2480 1.391 . S
C2482 H2472 0.950 . S
C2482 C2483 1.386 . S
C2482 C2484 1.391 . S
C2483 C2482 1.386 . S
C2483 C2487 1.393 . S
C2484 H2473 0.950 . S
C2484 C2482 1.391 . S
C2484 C2485 1.400 . S
C2485 C2479 1.491 . S
C2485 C2484 1.400 . S
C2485 C2486 1.398 . S
C2486 H2474 0.950 . S
C2486 C2485 1.398 . S
C2486 C2487 1.391 . S
C2487 H2475 0.950 . S
C2487 C2483 1.393 . S
C2487 C2486 1.391 . S
H2488 C2496 0.950 . S
H2489 C2501 0.950 . S
H2490 C2498 0.950 . S
H2491 C2500 0.950 . S
H2492 C2502 0.950 . S
H2493 C2504 0.950 . S
H2494 C2506 0.950 . S
H2495 C2507 0.950 . S
C2496 H2488 0.950 . S
C2496 C2497 1.386 . S
C2496 C2498 1.391 . S
C2497 C2496 1.386 . S
C2497 C2501 1.393 . S
C2498 H2490 0.950 . S
C2498 C2496 1.391 . S
C2498 C2499 1.400 . S
C2499 C2498 1.400 . S
C2499 C2500 1.398 . S
C2499 C2505 1.491 . S
C2500 H2491 0.950 . S
C2500 C2499 1.398 . S
C2500 C2501 1.391 . S
C2501 H2489 0.950 . S
C2501 C2497 1.393 . S
C2501 C2500 1.391 . S
C2502 H2492 0.950 . S
C2502 C2503 1.386 . S
C2502 C2504 1.391 . S
C2503 C2502 1.386 . S
C2503 C2507 1.393 . S
C2504 H2493 0.950 . S
C2504 C2502 1.391 . S
C2504 C2505 1.400 . S
C2505 C2499 1.491 . S
C2505 C2504 1.400 . S
C2505 C2506 1.398 . S
C2506 H2494 0.950 . S
C2506 C2505 1.398 . S
C2506 C2507 1.391 . S
C2507 H2495 0.950 . S
C2507 C2503 1.393 . S
C2507 C2506 1.391 . S
H2508 C2516 0.950 . S
H2509 C2521 0.950 . S
H2510 C2518 0.950 . S
H2511 C2520 0.950 . S
H2512 C2522 0.950 . S
H2513 C2524 0.950 . S
H2514 C2526 0.950 . S
H2515 C2527 0.950 . S
C2516 H2508 0.950 . S
C2516 C2517 1.386 . S
C2516 C2518 1.391 . S
C2517 C2516 1.386 . S
C2517 C2521 1.393 . S
C2518 H2510 0.950 . S
C2518 C2516 1.391 . S
C2518 C2519 1.400 . S
C2519 C2518 1.400 . S
C2519 C2520 1.398 . S
C2519 C2525 1.491 . S
C2520 H2511 0.950 . S
C2520 C2519 1.398 . S
C2520 C2521 1.391 . S
C2521 H2509 0.950 . S
C2521 C2517 1.393 . S
C2521 C2520 1.391 . S
C2522 H2512 0.950 . S
C2522 C2523 1.386 . S
C2522 C2524 1.391 . S
C2523 C2522 1.386 . S
C2523 C2527 1.393 . S
C2524 H2513 0.950 . S
C2524 C2522 1.391 . S
C2524 C2525 1.400 . S
C2525 C2519 1.491 . S
C2525 C2524 1.400 . S
C2525 C2526 1.398 . S
C2526 H2514 0.950 . S
C2526 C2525 1.398 . S
C2526 C2527 1.391 . S
C2527 H2515 0.950 . S
C2527 C2523 1.393 . S
C2527 C2526 1.391 . S
H2528 C2536 0.950 . S
H2529 C2541 0.950 . S
H2530 C2538 0.950 . S
H2531 C2540 0.950 . S
H2532 C2542 0.950 . S
H2533 C2544 0.950 . S
H2534 C2546 0.950 . S
H2535 C2547 0.950 . S
C2536 H2528 0.950 . S
C2536 C2537 1.386 . S
C2536 C2538 1.391 . S
C2537 C2536 1.386 . S
C2537 C2541 1.393 . S
C2538 H2530 0.950 . S
C2538 C2536 1.391 . S
C2538 C2539 1.400 . S
C2539 C2538 1.400 . S
C2539 C2540 1.398 . S
C2539 C2545 1.491 . S
C2540 H2531 0.950 . S
C2540 C2539 1.398 . S
C2540 C2541 1.391 . S
C2541 H2529 0.950 . S
C2541 C2537 1.393 . S
C2541 C2540 1.391 . S
C2542 H2532 0.950 . S
C2542 C2543 1.386 . S
C2542 C2544 1.391 . S
C2543 C2542 1.386 . S
C2543 C2547 1.393 . S
C2544 H2533 0.950 . S
C2544 C2542 1.391 . S
C2544 C2545 1.400 . S
C2545 C2539 1.491 . S
C2545 C2544 1.400 . S
C2545 C2546 1.398 . S
C2546 H2534 0.950 . S
C2546 C2545 1.398 . S
C2546 C2547 1.391 . S
C2547 H2535 0.950 . S
C2547 C2543 1.393 . S
C2547 C2546 1.391 . S
H2548 C2556 0.950 . S
H2549 C2561 0.950 . S
H2550 C2558 0.950 . S
H2551 C2560 0.950 . S
H2552 C2562 0.950 . S
H2553 C2564 0.950 . S
H2554 C2566 0.950 . S
H2555 C2567 0.950 . S
C2556 H2548 0.950 . S
C2556 C2557 1.386 . S
C2556 C2558 1.391 . S
C2557 C2556 1.386 . S
C2557 C2561 1.393 . S
C2558 H2550 0.950 . S
C2558 C2556 1.391 . S
C2558 C2559 1.400 . S
C2559 C2558 1.400 . S
C2559 C2560 1.398 . S
C2559 C2565 1.491 . S
C2560 H2551 0.950 . S
C2560 C2559 1.398 . S
C2560 C2561 1.391 . S
C2561 H2549 0.950 . S
C2561 C2557 1.393 . S
C2561 C2560 1.391 . S
C2562 H2552 0.950 . S
C2562 C2563 1.386 . S
C2562 C2564 1.391 . S
C2563 C2562 1.386 . S
C2563 C2567 1.393 . S
C2564 H2553 0.950 . S
C2564 C2562 1.391 . S
C2564 C2565 1.400 . S
C2565 C2559 1.491 . S
C2565 C2564 1.400 . S
C2565 C2566 1.398 . S
C2566 H2554 0.950 . S
C2566 C2565 1.398 . S
C2566 C2567 1.391 . S
C2567 H2555 0.950 . S
C2567 C2563 1.393 . S
C2567 C2566 1.391 . S
H2568 C2576 0.950 . S
H2569 C2581 0.950 . S
H2570 C2578 0.950 . S
H2571 C2580 0.950 . S
H2572 C2582 0.950 . S
H2573 C2584 0.950 . S
H2574 C2586 0.950 . S
H2575 C2587 0.950 . S
C2576 H2568 0.950 . S
C2576 C2577 1.386 . S
C2576 C2578 1.391 . S
C2577 C2576 1.386 . S
C2577 C2581 1.393 . S
C2578 H2570 0.950 . S
C2578 C2576 1.391 . S
C2578 C2579 1.400 . S
C2579 C2578 1.400 . S
C2579 C2580 1.398 . S
C2579 C2585 1.491 . S
C2580 H2571 0.950 . S
C2580 C2579 1.398 . S
C2580 C2581 1.391 . S
C2581 H2569 0.950 . S
C2581 C2577 1.393 . S
C2581 C2580 1.391 . S
C2582 H2572 0.950 . S
C2582 C2583 1.386 . S
C2582 C2584 1.391 . S
C2583 C2582 1.386 . S
C2583 C2587 1.393 . S
C2584 H2573 0.950 . S
C2584 C2582 1.391 . S
C2584 C2585 1.400 . S
C2585 C2579 1.491 . S
C2585 C2584 1.400 . S
C2585 C2586 1.398 . S
C2586 H2574 0.950 . S
C2586 C2585 1.398 . S
C2586 C2587 1.391 . S
C2587 H2575 0.950 . S
C2587 C2583 1.393 . S
C2587 C2586 1.391 . S
H2588 C2596 0.950 . S
H2589 C2601 0.950 . S
H2590 C2598 0.950 . S
H2591 C2600 0.950 . S
H2592 C2602 0.950 . S
H2593 C2604 0.950 . S
H2594 C2606 0.950 . S
H2595 C2607 0.950 . S
C2596 H2588 0.950 . S
C2596 C2597 1.386 . S
C2596 C2598 1.391 . S
C2597 C2596 1.386 . S
C2597 C2601 1.393 . S
C2598 H2590 0.950 . S
C2598 C2596 1.391 . S
C2598 C2599 1.400 . S
C2599 C2598 1.400 . S
C2599 C2600 1.398 . S
C2599 C2605 1.491 . S
C2600 H2591 0.950 . S
C2600 C2599 1.398 . S
C2600 C2601 1.391 . S
C2601 H2589 0.950 . S
C2601 C2597 1.393 . S
C2601 C2600 1.391 . S
C2602 H2592 0.950 . S
C2602 C2603 1.386 . S
C2602 C2604 1.391 . S
C2603 C2602 1.386 . S
C2603 C2607 1.393 . S
C2604 H2593 0.950 . S
C2604 C2602 1.391 . S
C2604 C2605 1.400 . S
C2605 C2599 1.491 . S
C2605 C2604 1.400 . S
C2605 C2606 1.398 . S
C2606 H2594 0.950 . S
C2606 C2605 1.398 . S
C2606 C2607 1.391 . S
C2607 H2595 0.950 . S
C2607 C2603 1.393 . S
C2607 C2606 1.391 . S
H2608 C2616 0.950 . S
H2609 C2621 0.950 . S
H2610 C2618 0.950 . S
H2611 C2620 0.950 . S
H2612 C2622 0.950 . S
H2613 C2624 0.950 . S
H2614 C2626 0.950 . S
H2615 C2627 0.950 . S
C2616 H2608 0.950 . S
C2616 C2617 1.386 . S
C2616 C2618 1.391 . S
C2617 C2616 1.386 . S
C2617 C2621 1.393 . S
C2618 H2610 0.950 . S
C2618 C2616 1.391 . S
C2618 C2619 1.400 . S
C2619 C2618 1.400 . S
C2619 C2620 1.398 . S
C2619 C2625 1.491 . S
C2620 H2611 0.950 . S
C2620 C2619 1.398 . S
C2620 C2621 1.391 . S
C2621 H2609 0.950 . S
C2621 C2617 1.393 . S
C2621 C2620 1.391 . S
C2622 H2612 0.950 . S
C2622 C2623 1.386 . S
C2622 C2624 1.391 . S
C2623 C2622 1.386 . S
C2623 C2627 1.393 . S
C2624 H2613 0.950 . S
C2624 C2622 1.391 . S
C2624 C2625 1.400 . S
C2625 C2619 1.491 . S
C2625 C2624 1.400 . S
C2625 C2626 1.398 . S
C2626 H2614 0.950 . S
C2626 C2625 1.398 . S
C2626 C2627 1.391 . S
C2627 H2615 0.950 . S
C2627 C2623 1.393 . S
C2627 C2626 1.391 . S
H2628 C2636 0.950 . S
H2629 C2641 0.950 . S
H2630 C2638 0.950 . S
H2631 C2640 0.950 . S
H2632 C2642 0.950 . S
H2633 C2644 0.950 . S
H2634 C2646 0.950 . S
H2635 C2647 0.950 . S
C2636 H2628 0.950 . S
C2636 C2637 1.386 . S
C2636 C2638 1.391 . S
C2637 C2636 1.386 . S
C2637 C2641 1.393 . S
C2638 H2630 0.950 . S
C2638 C2636 1.391 . S
C2638 C2639 1.400 . S
C2639 C2638 1.400 . S
C2639 C2640 1.398 . S
C2639 C2645 1.491 . S
C2640 H2631 0.950 . S
C2640 C2639 1.398 . S
C2640 C2641 1.391 . S
C2641 H2629 0.950 . S
C2641 C2637 1.393 . S
C2641 C2640 1.391 . S
C2642 H2632 0.950 . S
C2642 C2643 1.386 . S
C2642 C2644 1.391 . S
C2643 C2642 1.386 . S
C2643 C2647 1.393 . S
C2644 H2633 0.950 . S
C2644 C2642 1.391 . S
C2644 C2645 1.400 . S
C2645 C2639 1.491 . S
C2645 C2644 1.400 . S
C2645 C2646 1.398 . S
C2646 H2634 0.950 . S
C2646 C2645 1.398 . S
C2646 C2647 1.391 . S
C2647 H2635 0.950 . S
C2647 C2643 1.393 . S
C2647 C2646 1.391 . S
H2648 C2656 0.950 . S
H2649 C2661 0.950 . S
H2650 C2658 0.950 . S
H2651 C2660 0.950 . S
H2652 C2662 0.950 . S
H2653 C2664 0.950 . S
H2654 C2666 0.950 . S
H2655 C2667 0.950 . S
C2656 H2648 0.950 . S
C2656 C2657 1.386 . S
C2656 C2658 1.391 . S
C2657 C2656 1.386 . S
C2657 C2661 1.393 . S
C2658 H2650 0.950 . S
C2658 C2656 1.391 . S
C2658 C2659 1.400 . S
C2659 C2658 1.400 . S
C2659 C2660 1.398 . S
C2659 C2665 1.491 . S
C2660 H2651 0.950 . S
C2660 C2659 1.398 . S
C2660 C2661 1.391 . S
C2661 H2649 0.950 . S
C2661 C2657 1.393 . S
C2661 C2660 1.391 . S
C2662 H2652 0.950 . S
C2662 C2663 1.386 . S
C2662 C2664 1.391 . S
C2663 C2662 1.386 . S
C2663 C2667 1.393 . S
C2664 H2653 0.950 . S
C2664 C2662 1.391 . S
C2664 C2665 1.400 . S
C2665 C2659 1.491 . S
C2665 C2664 1.400 . S
C2665 C2666 1.398 . S
C2666 H2654 0.950 . S
C2666 C2665 1.398 . S
C2666 C2667 1.391 . S
C2667 H2655 0.950 . S
C2667 C2663 1.393 . S
C2667 C2666 1.391 . S
H2668 C2676 0.950 . S
H2669 C2681 0.950 . S
H2670 C2678 0.950 . S
H2671 C2680 0.950 . S
H2672 C2682 0.950 . S
H2673 C2684 0.950 . S
H2674 C2686 0.950 . S
H2675 C2687 0.950 . S
C2676 H2668 0.950 . S
C2676 C2677 1.386 . S
C2676 C2678 1.391 . S
C2677 C2676 1.386 . S
C2677 C2681 1.393 . S
C2678 H2670 0.950 . S
C2678 C2676 1.391 . S
C2678 C2679 1.400 . S
C2679 C2678 1.400 . S
C2679 C2680 1.398 . S
C2679 C2685 1.491 . S
C2680 H2671 0.950 . S
C2680 C2679 1.398 . S
C2680 C2681 1.391 . S
C2681 H2669 0.950 . S
C2681 C2677 1.393 . S
C2681 C2680 1.391 . S
C2682 H2672 0.950 . S
C2682 C2683 1.386 . S
C2682 C2684 1.391 . S
C2683 C2682 1.386 . S
C2683 C2687 1.393 . S
C2684 H2673 0.950 . S
C2684 C2682 1.391 . S
C2684 C2685 1.400 . S
C2685 C2679 1.491 . S
C2685 C2684 1.400 . S
C2685 C2686 1.398 . S
C2686 H2674 0.950 . S
C2686 C2685 1.398 . S
C2686 C2687 1.391 . S
C2687 H2675 0.950 . S
C2687 C2683 1.393 . S
C2687 C2686 1.391 . S
C1097 C33 0.171 . S
C1103 C645 0.160 . S
C1117 C679 0.217 . S
C1123 C67 0.217 . S
C1137 C577 0.122 . S
C1143 C101 0.121 . S
C1157 C135 0.124 . S
C1163 C611 0.131 . S
C1177 C781 0.181 . S
C1183 C169 0.191 . S
C1197 C815 0.211 . S
C1203 C203 0.205 . S
C1217 C237 0.212 . S
C1223 C713 0.216 . S
C1237 C271 0.122 . S
C1243 C747 0.121 . S
C1257 C917 0.208 . S
C1263 C305 0.279 . S
C1277 C951 0.283 . S
C1283 C339 0.252 . S
C1297 C373 0.285 . S
C1303 C849 0.240 . S
C1317 C407 0.278 . S
C1323 C883 0.206 . S
C1337 C441 0.259 . S
C1343 C1053 0.280 . S
C1357 C475 0.286 . S
C1363 C1087 0.232 . S
C1377 C985 0.286 . S
C1383 C509 0.234 . S
C1397 C543 0.277 . S
C1403 C1019 0.206 . S
C1417 C9 1.458 . S
C1423 C821 1.542 . S
C1437 C311 1.547 . S
C1443 C43 1.437 1_565 S
C1457 C889 1.554 . S
C1463 C77 1.457 . S
C1477 C111 1.434 1_545 S
C1483 C379 1.551 . S
C1497 C145 1.468 . S
C1503 C957 1.544 . S
C1517 C179 1.437 1_565 S
C1523 C447 1.553 . S
C1537 C1025 1.542 . S
C1543 C213 1.462 . S
C1557 C515 1.543 . S
C1563 C247 1.466 1_545 S
C1577 C553 1.454 . S
C1583 C277 1.555 . S
C1597 C621 1.468 . S
C1603 C345 1.549 . S
C1617 C689 1.445 . S
C1623 C413 1.555 . S
C1637 C481 1.545 . S
C1643 C757 1.440 . S
C1657 C855 1.543 . S
C1663 C587 1.464 . S
C1677 C923 1.552 . S
C1683 C655 1.463 . S
C1697 C723 1.435 . S
C1703 C991 1.552 . S
C1717 C791 1.469 . S
C1723 C1059 1.547 . S
C1737 C20 1.451 . S
C1743 C954 1.434 . S
C1757 C54 1.456 . S
C1763 C444 1.442 . S
C1777 C1022 1.434 . S
C1783 C88 1.451 . S
C1797 C512 1.439 . S
C1803 C122 1.455 . S
C1817 C818 1.445 . S
C1823 C156 1.458 . S
C1837 C308 1.434 . S
C1843 C190 1.451 . S
C1857 C224 1.455 . S
C1863 C886 1.444 . S
C1877 C376 1.448 . S
C1883 C258 1.459 . S
C1897 C682 1.383 . S
C1903 C292 1.391 . S
C1917 C326 1.399 . S
C1923 C172 1.390 . S
C1937 C750 1.386 . S
C1943 C360 1.398 . S
C1957 C394 1.398 . S
C1963 C240 1.385 . S
C1977 C428 1.399 . S
C1983 C546 1.389 . S
C1997 C36 1.378 . S
C2003 C462 1.393 . S
C2017 C614 1.379 . S
C2023 C496 1.389 . S
C2037 C530 1.388 . S
C2043 C104 1.376 . S
C2057 C564 1.453 . S
C2063 C410 1.436 . S
C2077 C598 1.459 . S
C2083 C988 1.449 . S
C2097 C478 1.442 . S
C2103 C632 1.456 . S
C2117 C666 1.457 . S
C2123 C1056 1.443 . S
C2137 C700 1.457 . S
C2143 C274 1.448 . S
C2157 C852 1.434 . S
C2163 C734 1.451 . S
C2177 C768 1.450 . S
C2183 C342 1.435 . S
C2197 C802 1.451 . S
C2203 C920 1.436 . S
C2217 C836 1.398 . S
C2223 C138 1.392 . S
C2237 C716 1.384 . S
C2243 C870 1.397 . S
C2257 C904 1.397 . S
C2263 C206 1.391 . S
C2277 C784 1.389 . S
C2283 C938 1.399 . S
C2297 C972 1.391 . S
C2303 C2 1.383 . S
C2317 C1006 1.399 . S
C2323 C580 1.391 . S
C2337 C1040 1.398 . S
C2343 C70 1.392 . S
C2357 C1074 1.397 . S
C2363 C648 1.391 . S
C2377 C5 1.972 . S
C2383 C175 1.971 . S
C2397 C209 1.979 . S
C2403 C39 1.977 . S
C2417 C73 1.979 . S
C2423 C243 1.979 . S
C2437 C107 1.979 . S
C2443 C141 1.975 . S
C2457 C451 1.319 . S
C2463 C281 1.316 . S
C2477 C485 1.296 . S
C2483 C315 1.277 . S
C2497 C519 1.289 . S
C2503 C349 1.309 . S
C2517 C383 1.271 . S
C2523 C417 1.277 . S
C2537 C549 1.972 . S
C2543 C719 1.975 . S
C2557 C753 1.979 . S
C2563 C583 1.979 . S
C2577 C617 1.978 . S
C2583 C787 1.980 . S
C2597 C685 1.979 . S
C2603 C651 1.976 . S
C2617 C995 1.276 . S
C2623 C825 1.294 . S
C2637 C1029 1.281 . S
C2643 C859 1.271 . S
C2657 C893 1.317 . S
C2663 C1063 1.300 . S
C2677 C961 1.291 . S
C2683 C927 1.311 . S
