# Generated by pormake.
# Topology vbb, (4)-cn, num edge types: 1
# Building blocks:
#     Node 0, Type 0, BuildingBlock: NAWXER_clean_sbu_0, # of connection points: 4
#     Node 1, Type 0, BuildingBlock: NAWXER_clean_sbu_0, # of connection points: 4
#     Node 2, Type 0, BuildingBlock: NAWXER_clean_sbu_0, # of connection points: 4
#     Node 3, Type 0, BuildingBlock: NAWXER_clean_sbu_0, # of connection points: 4
#     Node 4, Type 0, BuildingBlock: NAWXER_clean_sbu_0, # of connection points: 4
#     Node 5, Type 0, BuildingBlock: NAWXER_clean_sbu_0, # of connection points: 4
#     Node 6, Type 0, BuildingBlock: NAWXER_clean_sbu_0, # of connection points: 4
#     Node 7, Type 0, BuildingBlock: NAWXER_clean_sbu_0, # of connection points: 4
#     Node 8, Type 0, BuildingBlock: NAWXER_clean_sbu_0, # of connection points: 4
#     Node 9, Type 0, BuildingBlock: NAWXER_clean_sbu_0, # of connection points: 4
#     Node 10, Type 0, BuildingBlock: NAWXER_clean_sbu_0, # of connection points: 4
#     Node 11, Type 0, BuildingBlock: NAWXER_clean_sbu_0, # of connection points: 4
#     Node 12, Type 0, BuildingBlock: NAWXER_clean_sbu_0, # of connection points: 4
#     Node 13, Type 0, BuildingBlock: NAWXER_clean_sbu_0, # of connection points: 4
#     Node 14, Type 0, BuildingBlock: NAWXER_clean_sbu_0, # of connection points: 4
#     Node 15, Type 0, BuildingBlock: NAWXER_clean_sbu_0, # of connection points: 4
#     Node 16, Type 0, BuildingBlock: NAWXER_clean_sbu_0, # of connection points: 4
#     Node 17, Type 0, BuildingBlock: NAWXER_clean_sbu_0, # of connection points: 4
#     Node 18, Type 0, BuildingBlock: NAWXER_clean_sbu_0, # of connection points: 4
#     Node 19, Type 0, BuildingBlock: NAWXER_clean_sbu_0, # of connection points: 4
#     Node 20, Type 0, BuildingBlock: NAWXER_clean_sbu_0, # of connection points: 4
#     Node 21, Type 0, BuildingBlock: NAWXER_clean_sbu_0, # of connection points: 4
#     Node 22, Type 0, BuildingBlock: NAWXER_clean_sbu_0, # of connection points: 4
#     Node 23, Type 0, BuildingBlock: NAWXER_clean_sbu_0, # of connection points: 4
#     Node 24, Type 0, BuildingBlock: NAWXER_clean_sbu_0, # of connection points: 4
#     Node 25, Type 0, BuildingBlock: NAWXER_clean_sbu_0, # of connection points: 4
#     Node 26, Type 0, BuildingBlock: NAWXER_clean_sbu_0, # of connection points: 4
#     Node 27, Type 0, BuildingBlock: NAWXER_clean_sbu_0, # of connection points: 4
#     Node 28, Type 0, BuildingBlock: NAWXER_clean_sbu_0, # of connection points: 4
#     Node 29, Type 0, BuildingBlock: NAWXER_clean_sbu_0, # of connection points: 4
#     Node 30, Type 0, BuildingBlock: NAWXER_clean_sbu_0, # of connection points: 4
#     Node 31, Type 0, BuildingBlock: NAWXER_clean_sbu_0, # of connection points: 4
#     Edge 32, Type (0, 0), BuildingBlock: XIVTED_clean_linker_0, # of connection points: 2
#     Edge 33, Type (0, 0), BuildingBlock: XIVTED_clean_linker_0, # of connection points: 2
#     Edge 34, Type (0, 0), BuildingBlock: XIVTED_clean_linker_0, # of connection points: 2
#     Edge 35, Type (0, 0), BuildingBlock: XIVTED_clean_linker_0, # of connection points: 2
#     Edge 36, Type (0, 0), BuildingBlock: XIVTED_clean_linker_0, # of connection points: 2
#     Edge 37, Type (0, 0), BuildingBlock: XIVTED_clean_linker_0, # of connection points: 2
#     Edge 38, Type (0, 0), BuildingBlock: XIVTED_clean_linker_0, # of connection points: 2
#     Edge 39, Type (0, 0), BuildingBlock: XIVTED_clean_linker_0, # of connection points: 2
#     Edge 40, Type (0, 0), BuildingBlock: XIVTED_clean_linker_0, # of connection points: 2
#     Edge 41, Type (0, 0), BuildingBlock: XIVTED_clean_linker_0, # of connection points: 2
#     Edge 42, Type (0, 0), BuildingBlock: XIVTED_clean_linker_0, # of connection points: 2
#     Edge 43, Type (0, 0), BuildingBlock: XIVTED_clean_linker_0, # of connection points: 2
#     Edge 44, Type (0, 0), BuildingBlock: XIVTED_clean_linker_0, # of connection points: 2
#     Edge 45, Type (0, 0), BuildingBlock: XIVTED_clean_linker_0, # of connection points: 2
#     Edge 46, Type (0, 0), BuildingBlock: XIVTED_clean_linker_0, # of connection points: 2
#     Edge 47, Type (0, 0), BuildingBlock: XIVTED_clean_linker_0, # of connection points: 2
#     Edge 48, Type (0, 0), BuildingBlock: XIVTED_clean_linker_0, # of connection points: 2
#     Edge 49, Type (0, 0), BuildingBlock: XIVTED_clean_linker_0, # of connection points: 2
#     Edge 50, Type (0, 0), BuildingBlock: XIVTED_clean_linker_0, # of connection points: 2
#     Edge 51, Type (0, 0), BuildingBlock: XIVTED_clean_linker_0, # of connection points: 2
#     Edge 52, Type (0, 0), BuildingBlock: XIVTED_clean_linker_0, # of connection points: 2
#     Edge 53, Type (0, 0), BuildingBlock: XIVTED_clean_linker_0, # of connection points: 2
#     Edge 54, Type (0, 0), BuildingBlock: XIVTED_clean_linker_0, # of connection points: 2
#     Edge 55, Type (0, 0), BuildingBlock: XIVTED_clean_linker_0, # of connection points: 2
#     Edge 56, Type (0, 0), BuildingBlock: XIVTED_clean_linker_0, # of connection points: 2
#     Edge 57, Type (0, 0), BuildingBlock: XIVTED_clean_linker_0, # of connection points: 2
#     Edge 58, Type (0, 0), BuildingBlock: XIVTED_clean_linker_0, # of connection points: 2
#     Edge 59, Type (0, 0), BuildingBlock: XIVTED_clean_linker_0, # of connection points: 2
#     Edge 60, Type (0, 0), BuildingBlock: XIVTED_clean_linker_0, # of connection points: 2
#     Edge 61, Type (0, 0), BuildingBlock: XIVTED_clean_linker_0, # of connection points: 2
#     Edge 62, Type (0, 0), BuildingBlock: XIVTED_clean_linker_0, # of connection points: 2
#     Edge 63, Type (0, 0), BuildingBlock: XIVTED_clean_linker_0, # of connection points: 2
#     Edge 64, Type (0, 0), BuildingBlock: XIVTED_clean_linker_0, # of connection points: 2
#     Edge 65, Type (0, 0), BuildingBlock: XIVTED_clean_linker_0, # of connection points: 2
#     Edge 66, Type (0, 0), BuildingBlock: XIVTED_clean_linker_0, # of connection points: 2
#     Edge 67, Type (0, 0), BuildingBlock: XIVTED_clean_linker_0, # of connection points: 2
#     Edge 68, Type (0, 0), BuildingBlock: XIVTED_clean_linker_0, # of connection points: 2
#     Edge 69, Type (0, 0), BuildingBlock: XIVTED_clean_linker_0, # of connection points: 2
#     Edge 70, Type (0, 0), BuildingBlock: XIVTED_clean_linker_0, # of connection points: 2
#     Edge 71, Type (0, 0), BuildingBlock: XIVTED_clean_linker_0, # of connection points: 2
#     Edge 72, Type (0, 0), BuildingBlock: XIVTED_clean_linker_0, # of connection points: 2
#     Edge 73, Type (0, 0), BuildingBlock: XIVTED_clean_linker_0, # of connection points: 2
#     Edge 74, Type (0, 0), BuildingBlock: XIVTED_clean_linker_0, # of connection points: 2
#     Edge 75, Type (0, 0), BuildingBlock: XIVTED_clean_linker_0, # of connection points: 2
#     Edge 76, Type (0, 0), BuildingBlock: XIVTED_clean_linker_0, # of connection points: 2
#     Edge 77, Type (0, 0), BuildingBlock: XIVTED_clean_linker_0, # of connection points: 2
#     Edge 78, Type (0, 0), BuildingBlock: XIVTED_clean_linker_0, # of connection points: 2
#     Edge 79, Type (0, 0), BuildingBlock: XIVTED_clean_linker_0, # of connection points: 2
#     Edge 80, Type (0, 0), BuildingBlock: XIVTED_clean_linker_0, # of connection points: 2
#     Edge 81, Type (0, 0), BuildingBlock: XIVTED_clean_linker_0, # of connection points: 2
#     Edge 82, Type (0, 0), BuildingBlock: XIVTED_clean_linker_0, # of connection points: 2
#     Edge 83, Type (0, 0), BuildingBlock: XIVTED_clean_linker_0, # of connection points: 2
#     Edge 84, Type (0, 0), BuildingBlock: XIVTED_clean_linker_0, # of connection points: 2
#     Edge 85, Type (0, 0), BuildingBlock: XIVTED_clean_linker_0, # of connection points: 2
#     Edge 86, Type (0, 0), BuildingBlock: XIVTED_clean_linker_0, # of connection points: 2
#     Edge 87, Type (0, 0), BuildingBlock: XIVTED_clean_linker_0, # of connection points: 2
#     Edge 88, Type (0, 0), BuildingBlock: XIVTED_clean_linker_0, # of connection points: 2
#     Edge 89, Type (0, 0), BuildingBlock: XIVTED_clean_linker_0, # of connection points: 2
#     Edge 90, Type (0, 0), BuildingBlock: XIVTED_clean_linker_0, # of connection points: 2
#     Edge 91, Type (0, 0), BuildingBlock: XIVTED_clean_linker_0, # of connection points: 2
#     Edge 92, Type (0, 0), BuildingBlock: XIVTED_clean_linker_0, # of connection points: 2
#     Edge 93, Type (0, 0), BuildingBlock: XIVTED_clean_linker_0, # of connection points: 2
#     Edge 94, Type (0, 0), BuildingBlock: XIVTED_clean_linker_0, # of connection points: 2
#     Edge 95, Type (0, 0), BuildingBlock: XIVTED_clean_linker_0, # of connection points: 2
# Relax obj value: 0.012
# Max RMSD: 0.099
# Mean RMSD: 0.097
data_MOF--net-vbb--node1-NAWXER_clean_sbu_0--edge1-XIVTED_clean_linker_0
_symmetry_space_group_name_H-M    P1
_symmetry_Int_Tables_number       1
_symmetry_cell_setting            triclinic
loop_
_symmetry_equiv_pos_as_xyz
'x, y, z'
_cell_length_a     55.135589
_cell_length_b     23.162591
_cell_length_c     116.43121
_cell_angle_alpha  89.878615
_cell_angle_beta   90.020349
_cell_angle_gamma 89.994617
loop_
_atom_site_label
_atom_site_type_symbol
_atom_site_fract_x
_atom_site_fract_y
_atom_site_fract_z
_atom_type_partial_charge
C0 C 0.5438 0.03642 0.07276 0.0
C1 C 0.46221 0.95035 0.07037 0.0
O2 O 0.52671 0.07118 0.07003 0.0
Zn3 Zn 0.48906 0.07206 0.06688 0.0
O4 O 0.53906 0.98305 0.07424 0.0
Zn5 Zn 0.50404 0.9871 0.07128 0.0
O6 O 0.50256 0.00497 0.05355 0.0
O7 O 0.48706 0.09138 0.05045 0.0
O8 O 0.48149 0.92168 0.07247 0.0
O9 O 0.46364 0.00433 0.06817 0.0
O10 O 0.47758 0.12144 0.07949 0.0
O11 O 0.4917 0.03696 0.08527 0.0
C12 C 0.49591 0.0445 0.04654 0.0
C13 C 0.48195 0.08564 0.08758 0.0
C14 C 0.71041 0.21044 0.0729 0.0
C15 C 0.79224 0.2953 0.07035 0.0
O16 O 0.72742 0.17553 0.07017 0.0
Zn17 Zn 0.76502 0.17408 0.06697 0.0
O18 O 0.71524 0.26378 0.07434 0.0
Zn19 Zn 0.75026 0.25939 0.07134 0.0
O20 O 0.75153 0.24145 0.05364 0.0
O21 O 0.76685 0.15492 0.05053 0.0
O22 O 0.77309 0.32438 0.07246 0.0
O23 O 0.79058 0.24139 0.06818 0.0
O24 O 0.77651 0.12464 0.07962 0.0
O25 O 0.7626 0.20936 0.08532 0.0
C26 C 0.75802 0.20193 0.04664 0.0
C27 C 0.77229 0.16062 0.08767 0.0
C28 C 0.49603 0.20052 0.21246 0.0
C29 C 0.48106 0.15546 0.17165 0.0
O30 O 0.5024 0.23947 0.20527 0.0
Zn31 Zn 0.50336 0.25571 0.18748 0.0
O32 O 0.48716 0.1532 0.20878 0.0
Zn33 Zn 0.48865 0.17096 0.19226 0.0
O34 O 0.52619 0.17195 0.18887 0.0
O35 O 0.5383 0.25982 0.18429 0.0
O36 O 0.477 0.12023 0.17988 0.0
O37 O 0.49074 0.20447 0.17375 0.0
O38 O 0.48064 0.3207 0.18614 0.0
O39 O 0.46306 0.2383 0.19086 0.0
C40 C 0.54314 0.20659 0.18591 0.0
C41 C 0.46147 0.29204 0.18846 0.0
C42 C 0.71135 0.04208 0.18602 0.0
C43 C 0.79333 0.95825 0.18884 0.0
O44 O 0.7282 0.07699 0.18896 0.0
Zn45 Zn 0.76567 0.07877 0.19243 0.0
O46 O 0.71632 0.98888 0.18449 0.0
Zn47 Zn 0.75126 0.99351 0.18773 0.0
O48 O 0.75205 0.01011 0.20548 0.0
O49 O 0.76704 0.09664 0.20892 0.0
O50 O 0.77432 0.92902 0.18653 0.0
O51 O 0.79146 0.01197 0.19117 0.0
O52 O 0.77727 0.12939 0.17998 0.0
O53 O 0.76381 0.04477 0.17398 0.0
C54 C 0.75827 0.0492 0.21263 0.0
C55 C 0.77338 0.09386 0.17181 0.0
C56 C 0.50909 0.94765 0.96256 0.0
C57 C 0.52326 0.9068 0.92152 0.0
O58 O 0.51784 0.90068 0.95865 0.0
Zn59 Zn 0.51604 0.92023 0.94222 0.0
O60 O 0.50262 0.98738 0.95556 0.0
Zn61 Zn 0.50135 0.0055 0.93784 0.0
O62 O 0.46637 0.01019 0.93481 0.0
O63 O 0.47842 0.9218 0.93901 0.0
O64 O 0.51364 0.95562 0.92385 0.0
O65 O 0.52746 0.8708 0.9296 0.0
O66 O 0.54168 0.98755 0.94101 0.0
O67 O 0.52411 0.07052 0.9367 0.0
C68 C 0.46146 0.95688 0.93626 0.0
C69 C 0.54329 0.04153 0.93883 0.0
C70 C 0.21213 0.70312 0.93849 0.0
C71 C 0.29428 0.78613 0.93576 0.0
O72 O 0.23116 0.67351 0.93641 0.0
Zn73 Zn 0.25425 0.73804 0.93741 0.0
O74 O 0.214 0.75708 0.94058 0.0
Zn75 Zn 0.23983 0.82389 0.94168 0.0
O76 O 0.22853 0.87313 0.92894 0.0
O77 O 0.24198 0.78776 0.92338 0.0
O78 O 0.2774 0.82147 0.93846 0.0
O79 O 0.28925 0.73286 0.93439 0.0
O80 O 0.25309 0.75661 0.95507 0.0
O81 O 0.23815 0.84358 0.9581 0.0
C82 C 0.23248 0.83664 0.92096 0.0
C83 C 0.2468 0.79645 0.96204 0.0
C84 C 0.50957 0.79585 0.79644 0.0
C85 C 0.52394 0.83937 0.83736 0.0
O86 O 0.51855 0.84289 0.8002 0.0
Zn87 Zn 0.51666 0.82471 0.8167 0.0
O88 O 0.50293 0.75686 0.80356 0.0
Zn89 Zn 0.5016 0.74006 0.82132 0.0
O90 O 0.46659 0.73651 0.82435 0.0
O91 O 0.47904 0.82427 0.8199 0.0
O92 O 0.51413 0.79062 0.83516 0.0
O93 O 0.52824 0.87479 0.8292 0.0
O94 O 0.542 0.75687 0.81813 0.0
O95 O 0.5241 0.67459 0.82264 0.0
C96 C 0.46193 0.78984 0.82275 0.0
C97 C 0.54339 0.70302 0.82046 0.0
C98 C 0.23188 0.90564 0.83689 0.0
C99 C 0.24661 0.94598 0.79587 0.0
O100 O 0.22791 0.86926 0.82889 0.0
Zn101 Zn 0.23943 0.9185 0.8162 0.0
O102 O 0.24148 0.95444 0.83451 0.0
Zn103 Zn 0.25396 0.00416 0.82053 0.0
O104 O 0.23095 0.06886 0.82153 0.0
O105 O 0.21372 0.98556 0.81723 0.0
O106 O 0.25291 0.98579 0.80285 0.0
O107 O 0.2379 0.8989 0.79979 0.0
O108 O 0.27694 0.92044 0.81956 0.0
O109 O 0.28896 0.0089 0.82365 0.0
C110 C 0.2119 0.0395 0.81935 0.0
C111 C 0.29386 0.95553 0.82232 0.0
C112 C 0.49668 0.54492 0.54654 0.0
C113 C 0.48196 0.58805 0.58746 0.0
O114 O 0.50323 0.50591 0.55368 0.0
Zn115 Zn 0.50442 0.48893 0.57143 0.0
O116 O 0.48773 0.59204 0.55029 0.0
Zn117 Zn 0.4895 0.5739 0.5668 0.0
O118 O 0.52706 0.57315 0.5701 0.0
O119 O 0.53942 0.48531 0.57454 0.0
O120 O 0.47783 0.62379 0.57933 0.0
O121 O 0.49175 0.53931 0.58524 0.0
O122 O 0.48174 0.42366 0.57266 0.0
O123 O 0.46408 0.50629 0.56815 0.0
C124 C 0.54412 0.53865 0.57298 0.0
C125 C 0.46253 0.45245 0.57046 0.0
C126 C 0.75901 0.69533 0.54634 0.0
C127 C 0.77427 0.65385 0.58729 0.0
O128 O 0.75284 0.73499 0.55338 0.0
Zn129 Zn 0.75206 0.75292 0.57109 0.0
O130 O 0.76775 0.64813 0.5502 0.0
Zn131 Zn 0.76648 0.66733 0.56664 0.0
O132 O 0.72903 0.6693 0.5701 0.0
O133 O 0.71709 0.75768 0.5743 0.0
O134 O 0.77812 0.6177 0.57923 0.0
O135 O 0.76469 0.70277 0.58499 0.0
O136 O 0.77512 0.81751 0.57208 0.0
O137 O 0.79225 0.73428 0.56766 0.0
C138 C 0.71216 0.70435 0.57292 0.0
C139 C 0.79412 0.78817 0.56982 0.0
C140 C 0.49752 0.70187 0.7123 0.0
C141 C 0.48232 0.66052 0.67134 0.0
O142 O 0.50387 0.74132 0.70522 0.0
Zn143 Zn 0.50477 0.75917 0.68749 0.0
O144 O 0.48859 0.65486 0.70849 0.0
Zn145 Zn 0.49004 0.67388 0.69202 0.0
O146 O 0.52755 0.67516 0.68862 0.0
O147 O 0.53974 0.76329 0.68431 0.0
O148 O 0.47831 0.62446 0.67943 0.0
O149 O 0.49206 0.70925 0.67362 0.0
O150 O 0.48193 0.82421 0.68642 0.0
O151 O 0.4645 0.7413 0.69088 0.0
C152 C 0.54453 0.70992 0.68577 0.0
C153 C 0.46282 0.79521 0.68866 0.0
C154 C 0.71068 0.53372 0.68573 0.0
C155 C 0.79217 0.44709 0.68856 0.0
O156 O 0.72777 0.56824 0.68854 0.0
Zn157 Zn 0.76532 0.56887 0.69189 0.0
O158 O 0.71536 0.48031 0.68428 0.0
Zn159 Zn 0.75034 0.48388 0.68744 0.0
O160 O 0.75142 0.50161 0.70515 0.0
O161 O 0.76698 0.58781 0.70834 0.0
O162 O 0.77294 0.41841 0.68638 0.0
O163 O 0.79067 0.50102 0.69074 0.0
O164 O 0.77715 0.61821 0.67928 0.0
O165 O 0.76315 0.53366 0.67353 0.0
C166 C 0.75794 0.54093 0.71219 0.0
C167 C 0.77303 0.58223 0.67122 0.0
C168 C 0.50735 0.44676 0.46257 0.0
C169 C 0.52259 0.40415 0.42167 0.0
O170 O 0.51616 0.3995 0.45882 0.0
Zn171 Zn 0.51485 0.41811 0.44232 0.0
O172 O 0.50116 0.48615 0.45544 0.0
Zn173 Zn 0.50043 0.5036 0.43771 0.0
O174 O 0.4655 0.50837 0.43445 0.0
O175 O 0.47738 0.42006 0.43884 0.0
O176 O 0.513 0.45309 0.4239 0.0
O177 O 0.52651 0.36823 0.42979 0.0
O178 O 0.54061 0.48498 0.44118 0.0
O179 O 0.5235 0.56814 0.4366 0.0
C180 C 0.46053 0.4551 0.43593 0.0
C181 C 0.54249 0.53881 0.43892 0.0
C182 C 0.24531 0.29938 0.46214 0.0
C183 C 0.23007 0.34316 0.42129 0.0
O184 O 0.23647 0.34669 0.45839 0.0
Zn185 Zn 0.23778 0.32841 0.44191 0.0
O186 O 0.25152 0.26017 0.45501 0.0
Zn187 Zn 0.25227 0.2432 0.43727 0.0
O188 O 0.2872 0.23859 0.43405 0.0
O189 O 0.27528 0.32673 0.43846 0.0
O190 O 0.23967 0.29412 0.42348 0.0
O191 O 0.22616 0.3788 0.42943 0.0
O192 O 0.21204 0.26141 0.44071 0.0
O193 O 0.22933 0.17853 0.43615 0.0
C194 C 0.29214 0.29182 0.43555 0.0
C195 C 0.21027 0.20761 0.43844 0.0
C196 C 0.50857 0.29633 0.2965 0.0
C197 C 0.52306 0.33889 0.33748 0.0
O198 O 0.51727 0.34364 0.30028 0.0
Zn199 Zn 0.51573 0.32494 0.31678 0.0
O200 O 0.50234 0.25689 0.30361 0.0
Zn201 Zn 0.50135 0.2393 0.32133 0.0
O202 O 0.46638 0.23422 0.32442 0.0
O203 O 0.47819 0.32263 0.32008 0.0
O204 O 0.51359 0.28987 0.3352 0.0
O205 O 0.52706 0.37489 0.32938 0.0
O206 O 0.54159 0.25829 0.31807 0.0
O207 O 0.52448 0.17493 0.32249 0.0
C208 C 0.46134 0.28743 0.32291 0.0
C209 C 0.54349 0.20446 0.32032 0.0
C210 C 0.29426 0.45852 0.32249 0.0
C211 C 0.21239 0.54282 0.31954 0.0
O212 O 0.28932 0.51186 0.32384 0.0
Zn213 Zn 0.25437 0.50709 0.32073 0.0
O214 O 0.27734 0.42337 0.31975 0.0
Zn215 Zn 0.23978 0.42161 0.31643 0.0
O216 O 0.23817 0.40178 0.30004 0.0
O217 O 0.2533 0.4886 0.30304 0.0
O218 O 0.21412 0.48884 0.31744 0.0
O219 O 0.23149 0.57201 0.32171 0.0
O220 O 0.2419 0.45746 0.33474 0.0
O221 O 0.22816 0.37251 0.3291 0.0
C222 C 0.24693 0.44873 0.29609 0.0
C223 C 0.23224 0.40873 0.33712 0.0
C224 C 0.98295 0.08592 0.5876 0.0
C225 C 0.9969 0.04542 0.54652 0.0
O226 O 0.99254 0.03715 0.58522 0.0
Zn227 Zn 0.00472 0.98735 0.57121 0.0
O228 O 0.97873 0.12212 0.57956 0.0
Zn229 Zn 0.99007 0.07294 0.56687 0.0
O230 O 0.9644 0.00589 0.56811 0.0
O231 O 0.98177 0.92254 0.57232 0.0
O232 O 0.9882 0.09245 0.55043 0.0
O233 O 0.00336 0.00568 0.55351 0.0
O234 O 0.03976 0.98263 0.57419 0.0
O235 O 0.02767 0.07109 0.57007 0.0
C236 C 0.96266 0.95193 0.57026 0.0
C237 C 0.04464 0.03599 0.57278 0.0
C238 C 0.27361 0.159 0.58701 0.0
C239 C 0.2583 0.20271 0.54617 0.0
O240 O 0.26389 0.20789 0.58482 0.0
Zn241 Zn 0.25111 0.25862 0.57104 0.0
O242 O 0.27753 0.12334 0.57888 0.0
Zn243 Zn 0.26578 0.1736 0.56639 0.0
O244 O 0.29137 0.24095 0.56763 0.0
O245 O 0.27391 0.32357 0.57222 0.0
O246 O 0.26721 0.15546 0.54991 0.0
O247 O 0.25198 0.2418 0.5533 0.0
O248 O 0.21617 0.26268 0.57427 0.0
O249 O 0.22826 0.17475 0.5698 0.0
C250 C 0.29304 0.29473 0.56993 0.0
C251 C 0.21132 0.20945 0.57272 0.0
C252 C 0.04321 0.20263 0.68607 0.0
C253 C 0.96149 0.2881 0.68861 0.0
O254 O 0.02623 0.16805 0.68902 0.0
Zn255 Zn 0.9887 0.16703 0.69239 0.0
O256 O 0.03841 0.25589 0.68446 0.0
Zn257 Zn 0.00344 0.25192 0.68763 0.0
O258 O 1.00245 0.2355 0.70541 0.0
O259 O 0.98717 0.14928 0.70892 0.0
O260 O 0.98065 0.31687 0.68632 0.0
O261 O 0.96312 0.23434 0.69099 0.0
O262 O 0.97708 0.11649 0.67996 0.0
O263 O 0.99083 0.20085 0.6739 0.0
C264 C 0.99606 0.19658 0.71259 0.0
C265 C 0.98114 0.1519 0.67177 0.0
C266 C 0.21132 0.03705 0.68566 0.0
C267 C 0.29312 0.95203 0.68836 0.0
O268 O 0.22834 0.07196 0.68837 0.0
Zn269 Zn 0.26591 0.07338 0.69161 0.0
O270 O 0.21611 0.98366 0.68429 0.0
Zn271 Zn 0.25115 0.98797 0.6873 0.0
O272 O 0.25245 0.0062 0.70499 0.0
O273 O 0.26771 0.09283 0.70803 0.0
O274 O 0.27397 0.92292 0.68626 0.0
O275 O 0.29147 0.006 0.69048 0.0
O276 O 0.27742 0.12255 0.67892 0.0
O277 O 0.26358 0.03763 0.67329 0.0
C278 C 0.25893 0.04584 0.71196 0.0
C279 C 0.27328 0.08632 0.67091 0.0
C280 C 0.02262 0.90588 0.42152 0.0
C281 C 0.00868 0.94635 0.46261 0.0
O282 O 0.02699 0.86977 0.42956 0.0
Zn283 Zn 0.01548 0.91877 0.44225 0.0
O284 O 0.01282 0.95442 0.4239 0.0
Zn285 Zn 1.00045 0.00397 0.4379 0.0
O286 O 0.0231 0.06934 0.43672 0.0
O287 O 0.04084 0.98648 0.44097 0.0
O288 O 1.00201 0.98587 0.45561 0.0
O289 O 0.01752 0.89946 0.45869 0.0
O290 O 0.97787 0.91966 0.4391 0.0
O291 O 0.96539 0.00777 0.43495 0.0
C292 C 0.04234 0.04045 0.43879 0.0
C293 C 0.96074 0.95432 0.43639 0.0
C294 C 0.74519 0.79603 0.46251 0.0
C295 C 0.73091 0.83694 0.42145 0.0
O296 O 0.73641 0.8431 0.45861 0.0
Zn297 Zn 0.73821 0.82394 0.44217 0.0
O298 O 0.75166 0.75651 0.45551 0.0
Zn299 Zn 0.75299 0.73844 0.43784 0.0
O300 O 0.78804 0.73425 0.43484 0.0
O301 O 0.77576 0.82248 0.43895 0.0
O302 O 0.74059 0.78824 0.42384 0.0
O303 O 0.72676 0.8732 0.42946 0.0
O304 O 0.71267 0.75665 0.44096 0.0
O305 O 0.73012 0.67348 0.43675 0.0
C306 C 0.7928 0.78765 0.43624 0.0
C307 C 0.71098 0.70272 0.43881 0.0
C308 C 0.96238 0.79332 0.32266 0.0
C309 C 0.04426 0.70897 0.31993 0.0
O310 O 0.96726 0.73997 0.32409 0.0
Zn311 Zn 1.00225 0.74458 0.32098 0.0
O312 O 0.97932 0.82832 0.31986 0.0
Zn313 Zn 0.01685 0.83004 0.31654 0.0
O314 O 0.01845 0.84928 0.30008 0.0
O315 O 0.00335 0.76256 0.30327 0.0
O316 O 0.04254 0.76291 0.31774 0.0
O317 O 0.02516 0.67975 0.32208 0.0
O318 O 0.01466 0.7946 0.33492 0.0
O319 O 0.02831 0.87958 0.32916 0.0
C320 C 0.0097 0.80218 0.29622 0.0
C321 C 0.02424 0.84347 0.33723 0.0
C322 C 0.7122 0.04175 0.32015 0.0
C323 C 0.79409 0.95746 0.32316 0.0
O324 O 0.73121 0.07102 0.32243 0.0
Zn325 Zn 0.75423 0.00631 0.32139 0.0
O326 O 0.71405 0.98792 0.31793 0.0
Zn327 Zn 0.73972 0.92086 0.31683 0.0
O328 O 0.72799 0.87104 0.32939 0.0
O329 O 0.7415 0.95593 0.33522 0.0
O330 O 0.7772 0.92255 0.32028 0.0
O331 O 0.78918 0.01074 0.32462 0.0
O332 O 0.75344 0.98888 0.30368 0.0
O333 O 0.73836 0.90233 0.30035 0.0
C334 C 0.73183 0.90706 0.33747 0.0
C335 C 0.74721 0.94958 0.29658 0.0
C336 C 0.96199 0.45161 0.07034 0.0
C337 C 0.04387 0.53611 0.07294 0.0
O338 O 0.96371 0.50545 0.06807 0.0
Zn339 Zn 0.98937 0.57258 0.06679 0.0
O340 O 0.98109 0.4225 0.07257 0.0
Zn341 Zn 0.004 0.48728 0.07137 0.0
O342 O 0.99156 0.53778 0.08522 0.0
O343 O 0.97791 0.62256 0.07933 0.0
O344 O 0.03901 0.48282 0.07446 0.0
O345 O 0.02691 0.57099 0.0701 0.0
O346 O 0.98775 0.59116 0.0503 0.0
O347 O 0.0029 0.50461 0.05363 0.0
C348 C 0.98195 0.58671 0.08745 0.0
C349 C 0.99654 0.54392 0.04652 0.0
C350 C 0.29339 0.78859 0.06971 0.0
C351 C 0.21191 0.70195 0.07228 0.0
O352 O 0.29195 0.73473 0.06744 0.0
Zn353 Zn 0.26657 0.66691 0.06616 0.0
O354 O 0.27412 0.81706 0.07192 0.0
Zn355 Zn 0.25159 0.75165 0.07068 0.0
O356 O 0.26424 0.70125 0.08456 0.0
O357 O 0.27826 0.61695 0.07868 0.0
O358 O 0.2166 0.7553 0.07378 0.0
O359 O 0.22898 0.66743 0.06945 0.0
O360 O 0.26835 0.64839 0.04972 0.0
O361 O 0.25286 0.73464 0.05294 0.0
C362 C 0.27406 0.65251 0.0868 0.0
C363 C 0.25945 0.69544 0.04588 0.0
C364 C 0.04403 0.71166 0.1861 0.0
C365 C 0.96194 0.79504 0.18857 0.0
O366 O 0.02712 0.67649 0.18885 0.0
Zn367 Zn 0.98955 0.67433 0.19206 0.0
O368 O 0.03905 0.76493 0.18463 0.0
Zn369 Zn 0.00403 0.75995 0.18764 0.0
O370 O 0.00278 0.74203 0.20535 0.0
O371 O 0.98781 0.65518 0.20852 0.0
O372 O 0.981 0.82452 0.18647 0.0
O373 O 0.96376 0.74115 0.19078 0.0
O374 O 0.97831 0.62466 0.17943 0.0
O375 O 0.99185 0.70977 0.17368 0.0
C376 C 0.99643 0.70239 0.21239 0.0
C377 C 0.98236 0.66081 0.17136 0.0
C378 C 0.2924 0.45234 0.18832 0.0
C379 C 0.21083 0.53861 0.18597 0.0
O380 O 0.29099 0.50633 0.19047 0.0
Zn381 Zn 0.26562 0.57416 0.19172 0.0
O382 O 0.27311 0.42365 0.18628 0.0
Zn383 Zn 0.25058 0.48914 0.18744 0.0
O384 O 0.2629 0.53876 0.17339 0.0
O385 O 0.27709 0.62331 0.17903 0.0
O386 O 0.21554 0.48522 0.18454 0.0
O387 O 0.22794 0.57336 0.18864 0.0
O388 O 0.26779 0.59356 0.20812 0.0
O389 O 0.25222 0.50719 0.20513 0.0
C390 C 0.27271 0.58733 0.171 0.0
C391 C 0.25895 0.54671 0.21209 0.0
C392 C 0.02306 0.40605 0.92152 0.0
C393 C 0.00822 0.44889 0.96243 0.0
O394 O 0.02698 0.37017 0.92965 0.0
Zn395 Zn 0.01553 0.42026 0.94218 0.0
O396 O 0.01358 0.45512 0.92375 0.0
Zn397 Zn 1.00123 0.50585 0.93758 0.0
O398 O 0.02439 0.57017 0.93644 0.0
O399 O 0.04142 0.48686 0.94098 0.0
O400 O 1.00206 0.48837 0.95532 0.0
O401 O 0.01691 0.40154 0.95867 0.0
O402 O 0.97802 0.4226 0.93878 0.0
O403 O 0.96628 0.51101 0.9344 0.0
C404 C 0.04337 0.54068 0.93872 0.0
C405 C 0.96121 0.45782 0.9359 0.0
C406 C 0.7321 0.33618 0.9214 0.0
C407 C 0.74699 0.2942 0.96235 0.0
O408 O 0.72801 0.37195 0.9295 0.0
Zn409 Zn 0.73971 0.32221 0.94206 0.0
O410 O 0.74183 0.28738 0.92367 0.0
Zn411 Zn 0.75444 0.23716 0.93759 0.0
O412 O 0.73173 0.17201 0.9365 0.0
O413 O 0.71415 0.25474 0.9409 0.0
O414 O 0.75342 0.25476 0.95531 0.0
O415 O 0.73809 0.34121 0.95849 0.0
O416 O 0.77729 0.32101 0.93873 0.0
O417 O 0.78938 0.23285 0.93445 0.0
C418 C 0.71256 0.20082 0.93871 0.0
C419 C 0.79425 0.28614 0.93591 0.0
C420 C 0.04335 0.20299 0.82039 0.0
C421 C 0.9614 0.28704 0.82307 0.0
O422 O 0.0243 0.17368 0.82261 0.0
Zn423 Zn 1.00128 0.23832 0.82143 0.0
O424 O 0.04153 0.25678 0.81809 0.0
Zn425 Zn 0.0158 0.32366 0.81677 0.0
O426 O 0.02734 0.37388 0.82926 0.0
O427 O 0.01374 0.2892 0.83522 0.0
O428 O 0.97831 0.32193 0.82017 0.0
O429 O 0.9663 0.23376 0.82459 0.0
O430 O 1.00216 0.25539 0.80369 0.0
O431 O 0.01724 0.34187 0.80025 0.0
C432 C 0.02333 0.3382 0.83742 0.0
C433 C 0.00842 0.29456 0.79653 0.0
C434 C 0.71208 0.54045 0.82024 0.0
C435 C 0.79347 0.45335 0.82284 0.0
O436 O 0.73137 0.5688 0.82246 0.0
Zn437 Zn 0.75385 0.50326 0.82123 0.0
O438 O 0.71346 0.4866 0.81796 0.0
Zn439 Zn 0.73878 0.41866 0.81666 0.0
O440 O 0.72701 0.36867 0.82916 0.0
O441 O 0.74114 0.45279 0.83509 0.0
O442 O 0.77637 0.41895 0.81998 0.0
O443 O 0.78882 0.50671 0.82436 0.0
O444 O 0.75267 0.48636 0.80348 0.0
O445 O 0.73703 0.40032 0.8002 0.0
C446 C 0.73126 0.4041 0.8373 0.0
C447 C 0.74607 0.44729 0.7964 0.0
H448 H 0.47235 0.19019 0.0981 0.0
H449 H 0.47431 0.04949 0.16122 0.0
H450 H 0.47783 0.00726 0.1048 0.0
H451 H 0.47386 0.23285 0.15453 0.0
H452 H 0.46937 0.03236 0.14051 0.0
H453 H 0.46679 0.20635 0.11879 0.0
C454 C 0.47212 0.15352 0.10389 0.0
C455 C 0.47597 0.09752 0.09974 0.0
C456 C 0.47013 0.07635 0.14362 0.0
C457 C 0.46966 0.11537 0.12333 0.0
C458 C 0.47284 0.08601 0.15543 0.0
C459 C 0.47492 0.14253 0.15957 0.0
C460 C 0.46939 0.12361 0.13597 0.0
C461 C 0.47283 0.18843 0.15169 0.0
C462 C 0.46901 0.16264 0.11569 0.0
C463 C 0.47539 0.05139 0.10763 0.0
N464 N 0.4704 0.17798 0.1403 0.0
N465 N 0.47252 0.06136 0.11901 0.0
H466 H 0.77993 0.19953 0.16114 0.0
H467 H 0.78159 0.05622 0.09841 0.0
H468 H 0.78108 0.0159 0.15492 0.0
H469 H 0.77715 0.23958 0.10466 0.0
H470 H 0.78734 0.04081 0.11912 0.0
H471 H 0.78497 0.21584 0.1404 0.0
C472 C 0.78157 0.1628 0.15545 0.0
C473 C 0.77965 0.10642 0.15972 0.0
C474 C 0.78531 0.08445 0.11591 0.0
C475 C 0.78527 0.1244 0.1361 0.0
C476 C 0.78209 0.09313 0.1041 0.0
C477 C 0.77845 0.14904 0.09983 0.0
C478 C 0.78497 0.13207 0.12344 0.0
C479 C 0.77939 0.19551 0.10759 0.0
C480 C 0.78435 0.17198 0.14362 0.0
C481 C 0.78197 0.06022 0.15197 0.0
N482 N 0.78235 0.18596 0.11899 0.0
N483 N 0.78443 0.07021 0.14056 0.0
H484 H 0.53139 0.94473 0.84794 0.0
H485 H 0.5321 0.80215 0.9109 0.0
H486 H 0.53028 0.7612 0.85443 0.0
H487 H 0.52817 0.98549 0.90441 0.0
H488 H 0.53755 0.78634 0.89019 0.0
H489 H 0.53639 0.96104 0.86867 0.0
C490 C 0.53251 0.908 0.85369 0.0
C491 C 0.53 0.8517 0.84949 0.0
C492 C 0.5357 0.83006 0.89335 0.0
C493 C 0.53562 0.86969 0.8731 0.0
C494 C 0.53266 0.83898 0.90516 0.0
C495 C 0.52926 0.89501 0.90936 0.0
C496 C 0.53543 0.87757 0.88575 0.0
C497 C 0.53024 0.94134 0.90154 0.0
C498 C 0.53527 0.91719 0.86551 0.0
C499 C 0.53166 0.8055 0.85731 0.0
N500 N 0.53303 0.93157 0.89014 0.0
N501 N 0.53415 0.81551 0.86872 0.0
H502 H 0.22402 0.98553 0.85342 0.0
H503 H 0.22506 0.75657 0.90441 0.0
H504 H 0.22552 0.80122 0.8481 0.0
H505 H 0.2256 0.94091 0.90975 0.0
H506 H 0.21964 0.77223 0.88394 0.0
H507 H 0.21897 0.96975 0.87392 0.0
C508 C 0.22313 0.94151 0.85657 0.0
C509 C 0.22561 0.89447 0.84904 0.0
C510 C 0.22074 0.80935 0.88956 0.0
C511 C 0.21986 0.87625 0.87264 0.0
C512 C 0.2239 0.80057 0.90128 0.0
C513 C 0.22621 0.84767 0.9088 0.0
C514 C 0.22001 0.86574 0.88522 0.0
C515 C 0.22406 0.90346 0.90426 0.0
C516 C 0.22019 0.93265 0.8683 0.0
C517 C 0.22382 0.83863 0.85359 0.0
N518 N 0.22138 0.91098 0.89271 0.0
N519 N 0.22136 0.83105 0.86514 0.0
H520 H 0.47401 0.50894 0.60418 0.0
H521 H 0.47495 0.74 0.65461 0.0
H522 H 0.47548 0.69299 0.59838 0.0
H523 H 0.47519 0.55589 0.66039 0.0
H524 H 0.46956 0.72356 0.63417 0.0
H525 H 0.46883 0.52562 0.62463 0.0
C526 C 0.47308 0.55309 0.60721 0.0
C527 C 0.4756 0.59979 0.59957 0.0
C528 C 0.47058 0.68666 0.63987 0.0
C529 C 0.4697 0.61906 0.62311 0.0
C530 C 0.47371 0.6959 0.65158 0.0
C531 C 0.47594 0.64909 0.65922 0.0
C532 C 0.46979 0.63011 0.63568 0.0
C533 C 0.47371 0.59314 0.65481 0.0
C534 C 0.47006 0.56247 0.61892 0.0
C535 C 0.47376 0.65583 0.60397 0.0
N536 N 0.47106 0.58517 0.64328 0.0
N537 N 0.47123 0.66393 0.6155 0.0
H538 H 0.78037 0.50254 0.6546 0.0
H539 H 0.7825 0.73309 0.60391 0.0
H540 H 0.78052 0.6867 0.66018 0.0
H541 H 0.7804 0.54899 0.59835 0.0
H542 H 0.78751 0.71656 0.62439 0.0
H543 H 0.78606 0.51874 0.63416 0.0
C544 C 0.78175 0.5466 0.65153 0.0
C545 C 0.77954 0.59351 0.6591 0.0
C546 C 0.78618 0.67967 0.61872 0.0
C547 C 0.78605 0.61221 0.63556 0.0
C548 C 0.78326 0.68896 0.607 0.0
C549 C 0.78061 0.64221 0.59942 0.0
C550 C 0.7863 0.62313 0.62299 0.0
C551 C 0.78223 0.5862 0.6039 0.0
C552 C 0.78506 0.5557 0.63982 0.0
C553 C 0.78197 0.64939 0.65464 0.0
N554 N 0.78466 0.5782 0.61544 0.0
N555 N 0.78479 0.65723 0.64311 0.0
H556 H 0.53035 0.29918 0.41096 0.0
H557 H 0.53077 0.44382 0.34821 0.0
H558 H 0.52916 0.48295 0.40473 0.0
H559 H 0.52924 0.26006 0.35445 0.0
H560 H 0.53599 0.45928 0.36895 0.0
H561 H 0.53577 0.28368 0.39024 0.0
C562 C 0.53153 0.33614 0.40527 0.0
C563 C 0.52887 0.39225 0.40955 0.0
C564 C 0.53473 0.41556 0.36574 0.0
C565 C 0.53496 0.3752 0.38593 0.0
C566 C 0.53183 0.40686 0.35391 0.0
C567 C 0.52914 0.35076 0.34963 0.0
C568 C 0.53501 0.36778 0.37326 0.0
C569 C 0.53074 0.30424 0.35739 0.0
C570 C 0.53454 0.32741 0.39345 0.0
C571 C 0.53063 0.43876 0.40179 0.0
N572 N 0.53335 0.31379 0.3688 0.0
N573 N 0.53334 0.4292 0.39039 0.0
H574 H 0.22261 0.30462 0.34789 0.0
H575 H 0.22377 0.44873 0.41054 0.0
H576 H 0.22741 0.488 0.35406 0.0
H577 H 0.22231 0.26503 0.40442 0.0
H578 H 0.21901 0.46483 0.38979 0.0
H579 H 0.21654 0.28956 0.3686 0.0
C580 C 0.22213 0.34161 0.35356 0.0
C581 C 0.22595 0.39741 0.34927 0.0
C582 C 0.21949 0.421 0.39303 0.0
C583 C 0.21907 0.38084 0.37287 0.0
C584 C 0.22211 0.41194 0.40487 0.0
C585 C 0.22387 0.3556 0.40918 0.0
C586 C 0.21856 0.37333 0.38553 0.0
C587 C 0.22154 0.30932 0.40145 0.0
C588 C 0.21872 0.33313 0.36537 0.0
C589 C 0.22503 0.44399 0.35701 0.0
N590 N 0.21923 0.31919 0.39002 0.0
N591 N 0.22189 0.43463 0.3684 0.0
H592 H 0.97323 0.18999 0.5983 0.0
H593 H 0.97497 0.04622 0.66113 0.0
H594 H 0.9787 0.00675 0.60466 0.0
H595 H 0.97337 0.22986 0.65482 0.0
H596 H 0.97027 0.02998 0.64039 0.0
H597 H 0.96737 0.20509 0.619 0.0
C598 C 0.97295 0.15303 0.60401 0.0
C599 C 0.97688 0.09726 0.59977 0.0
C600 C 0.97071 0.07383 0.64359 0.0
C601 C 0.97023 0.11389 0.62338 0.0
C602 C 0.97329 0.08296 0.65542 0.0
C603 C 0.97499 0.13933 0.65967 0.0
C604 C 0.96975 0.12146 0.63603 0.0
C605 C 0.97264 0.18556 0.65189 0.0
C606 C 0.96966 0.16154 0.61582 0.0
C607 C 0.97622 0.05074 0.60756 0.0
N608 N 0.97036 0.17562 0.64047 0.0
N609 N 0.97318 0.06012 0.61896 0.0
H610 H 0.28251 0.2377 0.60363 0.0
H611 H 0.27984 0.00658 0.65421 0.0
H612 H 0.27946 0.05377 0.59797 0.0
H613 H 0.28101 0.19067 0.65987 0.0
H614 H 0.28532 0.02284 0.63376 0.0
H615 H 0.2877 0.22073 0.62409 0.0
C616 C 0.28311 0.19351 0.6067 0.0
C617 C 0.28013 0.14695 0.59909 0.0
C618 C 0.28459 0.05977 0.63944 0.0
C619 C 0.28601 0.12736 0.62264 0.0
C620 C 0.28139 0.05064 0.65115 0.0
C621 C 0.27954 0.09752 0.65876 0.0
C622 C 0.28582 0.11629 0.63521 0.0
C623 C 0.28217 0.15338 0.65431 0.0
C624 C 0.28612 0.18396 0.6184 0.0
C625 C 0.28154 0.09083 0.60353 0.0
N626 N 0.28489 0.16126 0.64277 0.0
N627 N 0.28407 0.08258 0.61507 0.0
H628 H 0.03113 0.94833 0.34809 0.0
H629 H 0.03175 0.80186 0.41068 0.0
H630 H 0.03105 0.76436 0.35409 0.0
H631 H 0.02761 0.98553 0.40461 0.0
H632 H 0.03748 0.78734 0.38995 0.0
H633 H 0.03592 0.96341 0.36886 0.0
C634 C 0.03244 0.91125 0.35374 0.0
C635 C 0.03027 0.85517 0.34938 0.0
C636 C 0.03552 0.83084 0.3932 0.0
C637 C 0.03563 0.87175 0.37306 0.0
C638 C 0.03231 0.83902 0.40503 0.0
C639 C 0.02877 0.89477 0.40936 0.0
C640 C 0.03527 0.87882 0.38572 0.0
C641 C 0.02978 0.94157 0.40164 0.0
C642 C 0.03508 0.91974 0.36558 0.0
C643 C 0.03216 0.8085 0.35709 0.0
N644 N 0.03273 0.93252 0.39023 0.0
N645 N 0.03451 0.81782 0.36853 0.0
H646 H 0.72367 0.75699 0.40487 0.0
H647 H 0.72316 0.98652 0.35398 0.0
H648 H 0.72397 0.94128 0.41027 0.0
H649 H 0.72551 0.80232 0.34857 0.0
H650 H 0.71762 0.97038 0.37443 0.0
H651 H 0.71854 0.77279 0.38438 0.0
C652 C 0.72251 0.801 0.40175 0.0
C653 C 0.72468 0.84805 0.40929 0.0
C654 C 0.71913 0.93338 0.36881 0.0
C655 C 0.71882 0.86629 0.3857 0.0
C656 C 0.72235 0.94245 0.3571 0.0
C657 C 0.72523 0.89556 0.34957 0.0
C658 C 0.71891 0.87693 0.37312 0.0
C659 C 0.72352 0.83963 0.35408 0.0
C660 C 0.71952 0.80987 0.39001 0.0
C661 C 0.72254 0.90386 0.40476 0.0
N662 N 0.72078 0.83184 0.36561 0.0
N663 N 0.72003 0.91147 0.39321 0.0
H664 H 0.97564 0.74003 0.1545 0.0
H665 H 0.9742 0.50793 0.10427 0.0
H666 H 0.97517 0.55605 0.16046 0.0
H667 H 0.97568 0.69186 0.09831 0.0
H668 H 0.96923 0.52505 0.12471 0.0
H669 H 0.9704 0.72321 0.13407 0.0
C670 C 0.9743 0.69588 0.15151 0.0
C671 C 0.97626 0.64921 0.15921 0.0
C672 C 0.97042 0.56177 0.11897 0.0
C673 C 0.97025 0.62979 0.13567 0.0
C674 C 0.97332 0.55214 0.10726 0.0
C675 C 0.97577 0.59867 0.09957 0.0
C676 C 0.97011 0.61845 0.12311 0.0
C677 C 0.97401 0.65481 0.10394 0.0
C678 C 0.97123 0.68642 0.13981 0.0
C679 C 0.97391 0.5932 0.15484 0.0
N680 N 0.97159 0.66316 0.11546 0.0
N681 N 0.97132 0.58501 0.14331 0.0
H682 H 0.28219 0.69149 0.16022 0.0
H683 H 0.28102 0.54724 0.09756 0.0
H684 H 0.27733 0.50812 0.15405 0.0
H685 H 0.28115 0.73097 0.10367 0.0
H686 H 0.28597 0.53135 0.11831 0.0
H687 H 0.28799 0.7066 0.1395 0.0
C688 C 0.2826 0.65451 0.15454 0.0
C689 C 0.27884 0.59869 0.15884 0.0
C690 C 0.28515 0.57515 0.11506 0.0
C691 C 0.28543 0.61533 0.13522 0.0
C692 C 0.28242 0.58409 0.10323 0.0
C693 C 0.28024 0.64035 0.09892 0.0
C694 C 0.28578 0.62286 0.12256 0.0
C695 C 0.28225 0.68672 0.10665 0.0
C696 C 0.28585 0.66303 0.14273 0.0
C697 C 0.27967 0.55214 0.1511 0.0
N698 N 0.28468 0.67696 0.11807 0.0
N699 N 0.28267 0.56152 0.13969 0.0
H700 H 0.03098 0.44351 0.848 0.0
H701 H 0.03105 0.3009 0.91093 0.0
H702 H 0.02975 0.25995 0.85447 0.0
H703 H 0.02916 0.48443 0.90446 0.0
H704 H 0.03645 0.28482 0.89023 0.0
H705 H 0.03621 0.4597 0.86872 0.0
C706 C 0.03211 0.40674 0.85374 0.0
C707 C 0.02949 0.35048 0.84954 0.0
C708 C 0.03506 0.32863 0.89338 0.0
C709 C 0.03537 0.36833 0.87315 0.0
C710 C 0.03206 0.33769 0.90519 0.0
C711 C 0.02922 0.3939 0.9094 0.0
C712 C 0.0353 0.37618 0.8858 0.0
C713 C 0.03077 0.44018 0.90158 0.0
C714 C 0.03501 0.41587 0.86556 0.0
C715 C 0.03119 0.30423 0.85735 0.0
N716 N 0.03349 0.43029 0.89019 0.0
N717 N 0.0338 0.31418 0.86875 0.0
H718 H 0.7235 0.44112 0.91076 0.0
H719 H 0.72342 0.29883 0.84793 0.0
H720 H 0.72633 0.2577 0.90439 0.0
H721 H 0.72494 0.48233 0.85429 0.0
H722 H 0.71824 0.28252 0.86866 0.0
H723 H 0.71782 0.45718 0.89006 0.0
C724 C 0.72264 0.40434 0.90505 0.0
C725 C 0.72582 0.34819 0.90928 0.0
C726 C 0.71948 0.32637 0.86547 0.0
C727 C 0.71941 0.36591 0.88568 0.0
C728 C 0.72235 0.33556 0.85365 0.0
C729 C 0.72505 0.39183 0.84942 0.0
C730 C 0.71923 0.37385 0.87303 0.0
C731 C 0.72344 0.43804 0.8572 0.0
C732 C 0.71948 0.4134 0.89324 0.0
C733 C 0.72445 0.30192 0.90149 0.0
N734 N 0.72085 0.42803 0.86861 0.0
N735 N 0.72156 0.31182 0.8901 0.0
H736 H 0.3063 0.90325 0.0724 0.0
H737 H 0.44931 0.8351 0.07181 0.0
H738 H 0.33654 0.7325 0.06825 0.0
H739 H 0.41909 0.00697 0.07007 0.0
H740 H 0.40789 0.79598 0.07217 0.0
H741 H 0.34771 0.94223 0.07316 0.0
C742 C 0.32156 0.87407 0.07165 0.0
C743 C 0.31788 0.81468 0.07018 0.0
C744 C 0.41043 0.84229 0.07171 0.0
C745 C 0.36515 0.85856 0.07113 0.0
C746 C 0.43405 0.8645 0.07152 0.0
C747 C 0.43772 0.92425 0.07081 0.0
C748 C 0.39045 0.88021 0.07128 0.0
C749 C 0.41723 0.9605 0.0705 0.0
C750 C 0.34518 0.89621 0.07208 0.0
C751 C 0.33839 0.77871 0.0693 0.0
N752 N 0.39456 0.93795 0.07074 0.0
N753 N 0.36105 0.80117 0.06979 0.0
H754 H 0.80576 0.41007 0.0721 0.0
H755 H 0.94838 0.33714 0.0727 0.0
H756 H 0.83506 0.2375 0.0698 0.0
H757 H 0.91918 0.50934 0.06913 0.0
H758 H 0.90673 0.2995 0.07326 0.0
H759 H 0.8474 0.44783 0.07265 0.0
C760 C 0.82086 0.38024 0.07172 0.0
C761 C 0.81686 0.32069 0.07081 0.0
C762 C 0.90955 0.34555 0.07235 0.0
C763 C 0.86438 0.36317 0.0715 0.0
C764 C 0.9333 0.36692 0.07204 0.0
C765 C 0.93734 0.42632 0.07078 0.0
C766 C 0.8898 0.38397 0.0715 0.0
C767 C 0.91705 0.46309 0.07001 0.0
C768 C 0.84461 0.40168 0.07202 0.0
C769 C 0.83717 0.28386 0.07039 0.0
N770 N 0.89425 0.44136 0.07038 0.0
N771 N 0.85995 0.30565 0.07074 0.0
H772 H 0.44829 0.40652 0.18571 0.0
H773 H 0.3054 0.33714 0.1869 0.0
H774 H 0.41845 0.2354 0.19003 0.0
H775 H 0.33545 0.50918 0.18845 0.0
H776 H 0.34687 0.29829 0.18638 0.0
H777 H 0.4068 0.44507 0.18507 0.0
C778 C 0.4331 0.37717 0.18652 0.0
C779 C 0.43691 0.31781 0.18801 0.0
C780 C 0.34428 0.34457 0.18683 0.0
C781 C 0.38955 0.3612 0.18721 0.0
C782 C 0.32064 0.36663 0.18711 0.0
C783 C 0.3169 0.42635 0.18782 0.0
C784 C 0.36422 0.38262 0.18716 0.0
C785 C 0.33736 0.46272 0.18803 0.0
C786 C 0.40944 0.39906 0.18616 0.0
C787 C 0.41649 0.2816 0.18897 0.0
N788 N 0.36005 0.44032 0.18771 0.0
N789 N 0.39378 0.30383 0.18855 0.0
H790 H 0.83598 0.01644 0.19038 0.0
H791 H 0.91931 0.73634 0.18863 0.0
H792 H 0.80733 0.84413 0.18626 0.0
H793 H 0.94798 0.90976 0.18728 0.0
H794 H 0.87845 0.77498 0.1882 0.0
H795 H 0.87682 0.97791 0.18974 0.0
C796 C 0.83822 0.97027 0.18936 0.0
C797 C 0.81804 0.93334 0.18844 0.0
C798 C 0.89361 0.8047 0.18797 0.0
C799 C 0.86522 0.88899 0.18767 0.0
C800 C 0.91707 0.78277 0.18826 0.0
C801 C 0.93724 0.81998 0.18808 0.0
C802 C 0.89007 0.86447 0.18756 0.0
C803 C 0.93301 0.87955 0.18747 0.0
C804 C 0.86168 0.94842 0.18895 0.0
C805 C 0.82229 0.87412 0.18704 0.0
N806 N 0.90985 0.9 0.1873 0.0
N807 N 0.84546 0.85371 0.18675 0.0
H808 H 0.69934 0.08605 0.93658 0.0
H809 H 0.55652 0.15639 0.9369 0.0
H810 H 0.66957 0.25775 0.93986 0.0
H811 H 0.58627 0.98437 0.93966 0.0
H812 H 0.59804 0.19481 0.93637 0.0
H813 H 0.65782 0.04758 0.93611 0.0
C814 C 0.68416 0.11555 0.9372 0.0
C815 C 0.688 0.17506 0.93835 0.0
C816 C 0.59538 0.14863 0.9371 0.0
C817 C 0.64061 0.13176 0.93773 0.0
C818 C 0.5717 0.12681 0.93739 0.0
C819 C 0.56786 0.06722 0.93841 0.0
C820 C 0.61525 0.11049 0.93774 0.0
C821 C 0.58826 0.03074 0.93897 0.0
C822 C 0.66048 0.0937 0.93694 0.0
C823 C 0.66759 0.21144 0.93907 0.0
N824 N 0.61099 0.05291 0.93862 0.0
N825 N 0.64486 0.18926 0.93874 0.0
H826 H 0.16953 0.76194 0.93881 0.0
H827 H 0.08597 0.48214 0.94018 0.0
H828 H 0.19808 0.58849 0.93716 0.0
H829 H 0.05748 0.65485 0.9363 0.0
H830 H 0.12685 0.52049 0.93962 0.0
H831 H 0.12865 0.72349 0.9384 0.0
C832 C 0.16726 0.71554 0.93838 0.0
C833 C 0.18741 0.67827 0.9381 0.0
C834 C 0.11173 0.5501 0.93887 0.0
C835 C 0.1402 0.63399 0.93761 0.0
C836 C 0.08825 0.52836 0.93923 0.0
C837 C 0.06811 0.56545 0.93835 0.0
C838 C 0.11533 0.60959 0.93768 0.0
C839 C 0.07241 0.62472 0.93704 0.0
C840 C 0.14378 0.69372 0.9381 0.0
C841 C 0.18314 0.61875 0.93743 0.0
N842 N 0.0956 0.64502 0.9368 0.0
N843 N 0.15995 0.5984 0.93726 0.0
H844 H 0.55621 0.58786 0.82236 0.0
H845 H 0.69928 0.65537 0.82259 0.0
H846 H 0.58656 0.75936 0.81985 0.0
H847 H 0.66889 0.48438 0.81913 0.0
H848 H 0.65789 0.69461 0.82325 0.0
H849 H 0.5976 0.54859 0.82287 0.0
C850 C 0.57149 0.61715 0.82193 0.0
C851 C 0.56786 0.67683 0.82097 0.0
C852 C 0.66039 0.64848 0.82235 0.0
C853 C 0.6151 0.63261 0.82162 0.0
C854 C 0.68399 0.62619 0.82197 0.0
C855 C 0.68761 0.56666 0.82072 0.0
C856 C 0.64038 0.61084 0.82155 0.0
C857 C 0.66708 0.5307 0.82001 0.0
C858 C 0.5951 0.59485 0.82221 0.0
C859 C 0.58839 0.71293 0.82049 0.0
N860 N 0.64443 0.5533 0.82044 0.0
N861 N 0.61104 0.6903 0.82082 0.0
H862 H 0.08596 0.26165 0.82057 0.0
H863 H 0.16921 0.98175 0.81738 0.0
H864 H 0.05727 0.08815 0.82128 0.0
H865 H 0.19795 0.15346 0.82229 0.0
H866 H 0.12839 0.0203 0.81821 0.0
H867 H 0.12682 0.22294 0.82073 0.0
C868 C 0.08821 0.21519 0.82074 0.0
C869 C 0.06803 0.17798 0.82082 0.0
C870 C 0.14355 0.04965 0.81913 0.0
C871 C 0.11519 0.13342 0.82101 0.0
C872 C 0.167 0.0278 0.8186 0.0
C873 C 0.1872 0.06454 0.81971 0.0
C874 C 0.14004 0.1089 0.82071 0.0
C875 C 0.18298 0.1236 0.82136 0.0
C876 C 0.11166 0.19322 0.82088 0.0
C877 C 0.07225 0.11836 0.82118 0.0
N878 N 0.15982 0.14402 0.82177 0.0
N879 N 0.09542 0.09788 0.8212 0.0
H880 H 0.4492 0.33741 0.57193 0.0
H881 H 0.30647 0.40902 0.57269 0.0
H882 H 0.41965 0.50995 0.57022 0.0
H883 H 0.33593 0.2376 0.56836 0.0
H884 H 0.34806 0.44693 0.57344 0.0
H885 H 0.40761 0.29924 0.57233 0.0
C886 C 0.43405 0.36715 0.57166 0.0
C887 C 0.43796 0.42681 0.57094 0.0
C888 C 0.34532 0.40099 0.57232 0.0
C889 C 0.39051 0.38386 0.57146 0.0
C890 C 0.3216 0.37947 0.57189 0.0
C891 C 0.31765 0.32021 0.57038 0.0
C892 C 0.36512 0.36285 0.57132 0.0
C893 C 0.33799 0.28374 0.56944 0.0
C894 C 0.41034 0.34548 0.57187 0.0
C895 C 0.41761 0.46352 0.57066 0.0
N896 N 0.36076 0.3056 0.56994 0.0
N897 N 0.39485 0.4415 0.57091 0.0
H898 H 0.8368 0.73036 0.56777 0.0
H899 H 0.92001 0.01045 0.57055 0.0
H900 H 0.80812 0.90213 0.57267 0.0
H901 H 0.9488 0.83703 0.57113 0.0
H902 H 0.87917 0.97165 0.57085 0.0
H903 H 0.87763 0.76894 0.56842 0.0
C904 C 0.83902 0.77643 0.56896 0.0
C905 C 0.81883 0.81318 0.57011 0.0
C906 C 0.89435 0.94196 0.57094 0.0
C907 C 0.86601 0.85759 0.5709 0.0
C908 C 0.91779 0.96399 0.57072 0.0
C909 C 0.93799 0.92684 0.57072 0.0
C910 C 0.89085 0.88215 0.57109 0.0
C911 C 0.93381 0.86721 0.57109 0.0
C912 C 0.86247 0.7983 0.56938 0.0
C913 C 0.82308 0.87227 0.57171 0.0
N914 N 0.91065 0.84666 0.57119 0.0
N915 N 0.84624 0.8927 0.57201 0.0
H916 H 0.44928 0.90969 0.68618 0.0
H917 H 0.30663 0.83717 0.68681 0.0
H918 H 0.41998 0.7378 0.69011 0.0
H919 H 0.33595 0.0098 0.68886 0.0
H920 H 0.34827 0.79933 0.68639 0.0
H921 H 0.40764 0.94747 0.68557 0.0
C922 C 0.43418 0.88001 0.68692 0.0
C923 C 0.43819 0.82065 0.68828 0.0
C924 C 0.34548 0.84551 0.68694 0.0
C925 C 0.39067 0.86315 0.6875 0.0
C926 C 0.32173 0.867 0.68716 0.0
C927 C 0.31774 0.92659 0.68796 0.0
C928 C 0.36525 0.88401 0.68742 0.0
C929 C 0.33805 0.96341 0.68835 0.0
C930 C 0.41044 0.90146 0.68658 0.0
C931 C 0.41788 0.78402 0.68914 0.0
N932 N 0.36084 0.94157 0.68808 0.0
N933 N 0.39509 0.80581 0.68873 0.0
H934 H 0.80535 0.33212 0.68667 0.0
H935 H 0.94817 0.40274 0.68628 0.0
H936 H 0.83516 0.50407 0.6893 0.0
H937 H 0.91855 0.23091 0.68972 0.0
H938 H 0.90662 0.44098 0.6857 0.0
H939 H 0.84689 0.29365 0.68612 0.0
C940 C 0.82054 0.36167 0.68713 0.0
C941 C 0.81672 0.42125 0.68813 0.0
C942 C 0.90932 0.39488 0.68659 0.0
C943 C 0.86411 0.37796 0.68742 0.0
C944 C 0.93302 0.37316 0.6869 0.0
C945 C 0.9369 0.3137 0.68814 0.0
C946 C 0.88947 0.35674 0.68741 0.0
C947 C 0.91653 0.27721 0.68887 0.0
C948 C 0.84423 0.33982 0.68682 0.0
C949 C 0.83713 0.4577 0.68864 0.0
N950 N 0.89378 0.29927 0.68849 0.0
N951 N 0.85985 0.43552 0.68827 0.0
H952 H 0.58515 0.48082 0.44083 0.0
H953 H 0.6683 0.76112 0.43857 0.0
H954 H 0.55649 0.65287 0.43615 0.0
H955 H 0.69717 0.58781 0.4378 0.0
H956 H 0.6275 0.72226 0.43814 0.0
H957 H 0.62599 0.51942 0.44025 0.0
C958 C 0.58738 0.52695 0.4397 0.0
C959 C 0.5672 0.56378 0.4386 0.0
C960 C 0.64268 0.69261 0.43804 0.0
C961 C 0.61438 0.60821 0.4379 0.0
C962 C 0.66611 0.71467 0.43833 0.0
C963 C 0.68633 0.67756 0.43831 0.0
C964 C 0.63921 0.6328 0.43779 0.0
C965 C 0.68217 0.61794 0.43786 0.0
C966 C 0.61084 0.54883 0.43933 0.0
C967 C 0.57145 0.62294 0.43707 0.0
N968 N 0.65902 0.59735 0.43768 0.0
N969 N 0.59461 0.64339 0.43681 0.0
H970 H 0.08526 0.983 0.43902 0.0
H971 H 0.16742 0.26519 0.43979 0.0
H972 H 0.05573 0.15554 0.43724 0.0
H973 H 0.19664 0.09313 0.43618 0.0
H974 H 0.12669 0.22578 0.43933 0.0
H975 H 0.12591 0.02269 0.43844 0.0
C976 C 0.08727 0.02947 0.43853 0.0
C977 C 0.06691 0.0661 0.43827 0.0
C978 C 0.14194 0.19655 0.43862 0.0
C979 C 0.11386 0.11182 0.43756 0.0
C980 C 0.16533 0.2189 0.43892 0.0
C981 C 0.18563 0.18229 0.43809 0.0
C982 C 0.1386 0.13694 0.43754 0.0
C983 C 0.18158 0.1229 0.43688 0.0
C984 C 0.11061 0.052 0.43815 0.0
C985 C 0.07084 0.12575 0.4375 0.0
N986 N 0.15849 0.10201 0.43669 0.0
N987 N 0.09391 0.14682 0.43724 0.0
H988 H 0.66956 0.98353 0.31864 0.0
H989 H 0.58607 0.26337 0.32005 0.0
H990 H 0.69817 0.15599 0.32258 0.0
H991 H 0.55755 0.08987 0.32176 0.0
H992 H 0.62697 0.22493 0.32048 0.0
H993 H 0.62872 0.02199 0.31922 0.0
C994 C 0.66732 0.02973 0.3196 0.0
C995 C 0.68748 0.06671 0.3205 0.0
C996 C 0.61184 0.19516 0.32079 0.0
C997 C 0.64029 0.11099 0.3212 0.0
C998 C 0.58836 0.21697 0.32049 0.0
C999 C 0.56821 0.17967 0.32078 0.0
C1000 C 0.61542 0.13543 0.3213 0.0
C1001 C 0.5725 0.12015 0.32149 0.0
C1002 C 0.64385 0.05154 0.31999 0.0
C1003 C 0.68322 0.12595 0.32183 0.0
N1004 N 0.59568 0.09982 0.32166 0.0
N1005 N 0.66004 0.14634 0.32209 0.0
H1006 H 0.16955 0.48534 0.31806 0.0
H1007 H 0.08707 0.76695 0.31954 0.0
H1008 H 0.19874 0.6573 0.32189 0.0
H1009 H 0.0579 0.59408 0.32131 0.0
H1010 H 0.12782 0.72762 0.31987 0.0
H1011 H 0.12883 0.52462 0.31866 0.0
C1012 C 0.16746 0.53159 0.319 0.0
C1013 C 0.18775 0.56819 0.31986 0.0
C1014 C 0.11258 0.69818 0.32021 0.0
C1015 C 0.14071 0.61341 0.32058 0.0
C1016 C 0.08918 0.7205 0.31998 0.0
C1017 C 0.0689 0.68365 0.32032 0.0
C1018 C 0.11594 0.63836 0.32071 0.0
C1019 C 0.07296 0.62403 0.321 0.0
C1020 C 0.14407 0.55387 0.31939 0.0
C1021 C 0.18369 0.62754 0.32116 0.0
N1022 N 0.09607 0.60318 0.32112 0.0
N1023 N 0.16059 0.64837 0.32143 0.0
H1024 H 0.48081 0.11152 0.02819 0.0
H1025 H 0.52404 0.88042 0.98091 0.0
H1026 H 0.51611 0.95018 0.03639 0.0
H1027 H 0.48883 0.04189 0.97271 0.0
H1028 H 0.52103 0.90476 1.00137 0.0
H1029 H 0.48373 0.08708 0.00773 0.0
C1030 C 0.48924 0.0712 0.02571 0.0
C1031 C 0.49817 0.03295 0.03405 0.0
C1032 C 0.51394 0.93476 0.99507 0.0
C1033 C 0.50149 0.00444 0.01069 0.0
C1034 C 0.5156 0.92074 0.98339 0.0
C1035 C 0.50674 0.95907 0.97505 0.0
C1036 C 0.50332 0.98746 0.99841 0.0
C1037 C 0.49601 0.0109 0.9788 0.0
C1038 C 0.49086 0.05712 0.01404 0.0
C1039 C 0.50889 0.98111 0.03031 0.0
N1040 N 0.49465 0.02353 0.99015 0.0
N1041 N 0.5102 0.96842 0.01895 0.0
H1042 H 0.7365 0.29492 0.03655 0.0
H1043 H 0.76857 0.20113 0.97239 0.0
H1044 H 0.77417 0.13699 0.02823 0.0
H1045 H 0.731 0.3591 0.98078 0.0
H1046 H 0.77099 0.17758 0.9927 0.0
H1047 H 0.73418 0.31843 0.01625 0.0
C1048 C 0.74427 0.26491 0.03045 0.0
C1049 C 0.75564 0.21376 0.03416 0.0
C1050 C 0.76225 0.21744 0.99014 0.0
C1051 C 0.75303 0.241 0.01072 0.0
C1052 C 0.76086 0.23114 0.97851 0.0
C1053 C 0.74947 0.28231 0.97482 0.0
C1054 C 0.75218 0.25502 0.99825 0.0
C1055 C 0.73995 0.3193 0.9832 0.0
C1056 C 0.74293 0.27858 0.01882 0.0
C1057 C 0.76523 0.17677 0.02579 0.0
N1058 N 0.74146 0.30483 0.99453 0.0
N1059 N 0.76375 0.19121 0.01445 0.0
H1060 H 0.51703 0.2951 0.22215 0.0
H1061 H 0.48735 0.20239 0.28672 0.0
H1062 H 0.48082 0.13602 0.23114 0.0
H1063 H 0.52391 0.36122 0.27786 0.0
H1064 H 0.48459 0.17825 0.26648 0.0
H1065 H 0.51979 0.3196 0.2424 0.0
C1066 C 0.50968 0.26505 0.22839 0.0
C1067 C 0.4986 0.21325 0.22489 0.0
C1068 C 0.49319 0.21844 0.26892 0.0
C1069 C 0.50171 0.24163 0.24825 0.0
C1070 C 0.49478 0.23247 0.28052 0.0
C1071 C 0.50598 0.28406 0.28405 0.0
C1072 C 0.50284 0.25609 0.26068 0.0
C1073 C 0.51512 0.3211 0.27555 0.0
C1074 C 0.51127 0.27929 0.23998 0.0
C1075 C 0.48952 0.17629 0.23342 0.0
N1076 N 0.5134 0.3063 0.26425 0.0
N1077 N 0.49124 0.19128 0.2447 0.0
H1078 H 0.73629 0.95585 0.22235 0.0
H1079 H 0.76954 0.04224 0.2868 0.0
H1080 H 0.77457 0.11207 0.23129 0.0
H1081 H 0.73071 0.88664 0.27796 0.0
H1082 H 0.77187 0.06753 0.26658 0.0
H1083 H 0.73399 0.9303 0.24257 0.0
C1084 C 0.74418 0.98506 0.22857 0.0
C1085 C 0.75574 0.03632 0.22506 0.0
C1086 C 0.76287 0.02779 0.26902 0.0
C1087 C 0.75317 0.00672 0.24839 0.0
C1088 C 0.76153 0.01309 0.2806 0.0
C1089 C 0.7498 0.96211 0.28414 0.0
C1090 C 0.75242 0.99143 0.2608 0.0
C1091 C 0.73993 0.92624 0.27565 0.0
C1092 C 0.74285 0.97022 0.24015 0.0
C1093 C 0.76548 0.07226 0.23357 0.0
N1094 N 0.7414 0.9417 0.26436 0.0
N1095 N 0.76403 0.05667 0.24484 0.0
H1096 H 0.23128 0.86255 0.98039 0.0
H1097 H 0.27494 0.62987 0.02748 0.0
H1098 H 0.26768 0.70282 0.97216 0.0
H1099 H 0.23881 0.78977 0.03585 0.0
H1100 H 0.27218 0.65557 0.00706 0.0
H1101 H 0.2341 0.83724 1.00085 0.0
C1102 C 0.23994 0.82245 0.98287 0.0
C1103 C 0.24917 0.78483 0.97452 0.0
C1104 C 0.26483 0.68494 0.01339 0.0
C1105 C 0.25236 0.75533 0.99785 0.0
C1106 C 0.26635 0.67012 0.02504 0.0
C1107 C 0.25716 0.70763 0.03341 0.0
C1108 C 0.25404 0.73761 0.01011 0.0
C1109 C 0.24624 0.75943 0.02973 0.0
C1110 C 0.2415 0.80786 0.99453 0.0
C1111 C 0.26019 0.73323 0.97825 0.0
N1112 N 0.24503 0.77285 0.01839 0.0
N1113 N 0.26142 0.72004 0.98959 0.0
H1114 H 0.51927 0.79492 0.72217 0.0
H1115 H 0.48823 0.70213 0.78659 0.0
H1116 H 0.48175 0.63713 0.73087 0.0
H1117 H 0.52545 0.86025 0.77785 0.0
H1118 H 0.48568 0.67806 0.76633 0.0
H1119 H 0.52199 0.81866 0.74244 0.0
C1120 C 0.51163 0.76498 0.72835 0.0
C1121 C 0.50017 0.71381 0.72476 0.0
C1122 C 0.49438 0.71807 0.7688 0.0
C1123 C 0.50324 0.74133 0.74815 0.0
C1124 C 0.49585 0.73207 0.78041 0.0
C1125 C 0.50715 0.78346 0.78399 0.0
C1126 C 0.50428 0.75557 0.7606 0.0
C1127 C 0.51657 0.82029 0.77552 0.0
C1128 C 0.5132 0.77879 0.73996 0.0
C1129 C 0.49075 0.67693 0.73322 0.0
N1130 N 0.51496 0.80555 0.76421 0.0
N1131 N 0.49244 0.69151 0.74453 0.0
H1132 H 0.27467 0.11176 0.73029 0.0
H1133 H 0.23105 0.8799 0.77753 0.0
H1134 H 0.23809 0.95219 0.72211 0.0
H1135 H 0.26752 0.03958 0.78573 0.0
H1136 H 0.23379 0.90511 0.75708 0.0
H1137 H 0.27203 0.08647 0.75074 0.0
C1138 C 0.266 0.07169 0.73278 0.0
C1139 C 0.25667 0.03413 0.72445 0.0
C1140 C 0.24123 0.93452 0.76338 0.0
C1141 C 0.25369 0.00462 0.74778 0.0
C1142 C 0.23972 0.91998 0.77505 0.0
C1143 C 0.24899 0.95761 0.78338 0.0
C1144 C 0.25208 0.98702 0.76005 0.0
C1145 C 0.26001 0.00917 0.77964 0.0
C1146 C 0.26455 0.0571 0.74445 0.0
C1147 C 0.24566 0.98256 0.72819 0.0
N1148 N 0.26119 0.02233 0.7683 0.0
N1149 N 0.24452 0.96937 0.73954 0.0
H1150 H 0.48515 0.53949 0.47233 0.0
H1151 H 0.51869 0.45196 0.53677 0.0
H1152 H 0.52375 0.38343 0.48121 0.0
H1153 H 0.48 0.60792 0.52791 0.0
H1154 H 0.52084 0.42682 0.51655 0.0
H1155 H 0.48283 0.56444 0.49256 0.0
C1156 C 0.49311 0.51018 0.47854 0.0
C1157 C 0.50477 0.45916 0.47501 0.0
C1158 C 0.51191 0.4666 0.51899 0.0
C1159 C 0.50217 0.48808 0.49835 0.0
C1160 C 0.51067 0.48121 0.53057 0.0
C1161 C 0.49905 0.53228 0.5341 0.0
C1162 C 0.50146 0.50313 0.51076 0.0
C1163 C 0.48914 0.56825 0.52561 0.0
C1164 C 0.49177 0.52468 0.49012 0.0
C1165 C 0.51458 0.42307 0.48351 0.0
N1166 N 0.49052 0.55289 0.51433 0.0
N1167 N 0.51312 0.43834 0.49479 0.0
H1168 H 0.77388 0.62913 0.5279 0.0
H1169 H 0.7299 0.86206 0.48093 0.0
H1170 H 0.73826 0.78958 0.53634 0.0
H1171 H 0.76581 0.70186 0.47257 0.0
H1172 H 0.73288 0.83661 0.50137 0.0
H1173 H 0.77069 0.65451 0.50748 0.0
C1174 C 0.76531 0.66942 0.52548 0.0
C1175 C 0.75641 0.7072 0.53387 0.0
C1176 C 0.74013 0.80714 0.49503 0.0
C1177 C 0.75279 0.73681 0.51056 0.0
C1178 C 0.73848 0.82181 0.48337 0.0
C1179 C 0.74755 0.78414 0.47499 0.0
C1180 C 0.75093 0.75447 0.49831 0.0
C1181 C 0.75846 0.73234 0.47868 0.0
C1182 C 0.76355 0.68406 0.51383 0.0
C1183 C 0.7455 0.75904 0.53021 0.0
N1184 N 0.7598 0.71909 0.49002 0.0
N1185 N 0.74405 0.77229 0.51887 0.0
H1186 H 0.76772 0.54056 0.78646 0.0
H1187 H 0.73604 0.44819 0.72217 0.0
H1188 H 0.73004 0.383 0.77789 0.0
H1189 H 0.77404 0.6054 0.73068 0.0
H1190 H 0.73343 0.42446 0.74245 0.0
H1191 H 0.77028 0.56452 0.76618 0.0
C1192 C 0.76 0.51073 0.78031 0.0
C1193 C 0.74856 0.45954 0.78394 0.0
C1194 C 0.74231 0.4642 0.73993 0.0
C1195 C 0.75144 0.4873 0.76053 0.0
C1196 C 0.74382 0.478 0.7283 0.0
C1197 C 0.75537 0.52901 0.72465 0.0
C1198 C 0.75243 0.50151 0.74807 0.0
C1199 C 0.76496 0.56574 0.73307 0.0
C1200 C 0.76148 0.52466 0.76869 0.0
C1201 C 0.73903 0.4228 0.77551 0.0
N1202 N 0.76333 0.55117 0.74439 0.0
N1203 N 0.74064 0.43749 0.7642 0.0
H1204 H 0.26688 0.20555 0.47189 0.0
H1205 H 0.23677 0.29658 0.53641 0.0
H1206 H 0.2299 0.36362 0.48078 0.0
H1207 H 0.27381 0.13859 0.52753 0.0
H1208 H 0.23394 0.32118 0.51617 0.0
H1209 H 0.26975 0.18101 0.49213 0.0
C1210 C 0.25938 0.23538 0.4781 0.0
C1211 C 0.24803 0.28687 0.47457 0.0
C1212 C 0.24266 0.28109 0.51861 0.0
C1213 C 0.25128 0.25844 0.49794 0.0
C1214 C 0.24429 0.26678 0.5302 0.0
C1215 C 0.25564 0.21529 0.53373 0.0
C1216 C 0.25244 0.24379 0.51037 0.0
C1217 C 0.2649 0.17862 0.52523 0.0
C1218 C 0.26104 0.22111 0.4897 0.0
C1219 C 0.2388 0.32359 0.48308 0.0
N1220 N 0.26315 0.19367 0.51394 0.0
N1221 N 0.24058 0.30856 0.49437 0.0
H1222 H 0.23147 0.38209 0.27781 0.0
H1223 H 0.27478 0.61301 0.23034 0.0
H1224 H 0.26772 0.54227 0.28586 0.0
H1225 H 0.23839 0.45297 0.22233 0.0
H1226 H 0.27226 0.58816 0.25082 0.0
H1227 H 0.23423 0.40674 0.25734 0.0
C1228 C 0.2401 0.42217 0.27529 0.0
C1229 C 0.2493 0.4601 0.28359 0.0
C1230 C 0.2648 0.55858 0.24455 0.0
C1231 C 0.25241 0.48886 0.26023 0.0
C1232 C 0.26619 0.57291 0.23287 0.0
C1233 C 0.25685 0.53511 0.22458 0.0
C1234 C 0.254 0.50612 0.24795 0.0
C1235 C 0.24594 0.48353 0.22838 0.0
C1236 C 0.24161 0.43638 0.26361 0.0
C1237 C 0.26025 0.51164 0.2798 0.0
N1238 N 0.24486 0.4706 0.23974 0.0
N1239 N 0.26145 0.52448 0.26844 0.0
H1240 H 0.02445 0.88019 0.48096 0.0
H1241 H 0.98129 0.11179 0.52816 0.0
H1242 H 0.98807 0.04016 0.47274 0.0
H1243 H 0.01751 0.95163 0.53638 0.0
H1244 H 0.98391 0.08681 0.50772 0.0
H1245 H 0.0219 0.90525 0.5014 0.0
C1246 C 0.01585 0.92031 0.48344 0.0
C1247 C 0.00653 0.95803 0.4751 0.0
C1248 C 0.99131 0.05724 0.51402 0.0
C1249 C 0.00365 0.98727 0.49843 0.0
C1250 C 0.98987 0.07165 0.52568 0.0
C1251 C 0.99912 0.03384 0.53403 0.0
C1252 C 1.00208 0.00469 0.51069 0.0
C1253 C 0.01002 0.98219 0.53029 0.0
C1254 C 0.01445 0.93476 0.4951 0.0
C1255 C 0.99561 0.00965 0.47883 0.0
N1256 N 0.01115 0.96918 0.51895 0.0
N1257 N 0.99452 0.02271 0.49017 0.0
H1258 H 0.0175 0.29068 0.72224 0.0
H1259 H 0.98682 0.20082 0.78685 0.0
H1260 H 0.98043 0.13283 0.73132 0.0
H1261 H 0.02406 0.35851 0.77783 0.0
H1262 H 0.9841 0.17602 0.76664 0.0
H1263 H 0.02017 0.31567 0.74246 0.0
C1264 C 0.00994 0.26099 0.72849 0.0
C1265 C 0.99863 0.20942 0.72502 0.0
C1266 C 0.99283 0.2161 0.76904 0.0
C1267 C 1.00165 0.23837 0.74835 0.0
C1268 C 0.9944 0.23051 0.78062 0.0
C1269 C 0.00578 0.28197 0.7841 0.0
C1270 C 0.00271 0.25323 0.76076 0.0
C1271 C 0.01512 0.31851 0.77556 0.0
C1272 C 0.01148 0.27552 0.74007 0.0
C1273 C 0.98931 0.17291 0.73357 0.0
N1274 N 0.01343 0.30334 0.76428 0.0
N1275 N 0.99098 0.18818 0.74484 0.0
H1276 H 0.98147 0.63579 0.23083 0.0
H1277 H 0.02462 0.86876 0.27778 0.0
H1278 H 0.01663 0.797 0.22241 0.0
H1279 H 0.98934 0.70772 0.28621 0.0
H1280 H 0.02162 0.84363 0.25735 0.0
H1281 H 0.98441 0.66097 0.25126 0.0
C1282 C 0.98988 0.67622 0.23326 0.0
C1283 C 0.99875 0.71424 0.22487 0.0
C1284 C 0.01451 0.8139 0.2637 0.0
C1285 C 1.00208 0.7436 0.24818 0.0
C1286 C 0.01617 0.82838 0.27535 0.0
C1287 C 0.00729 0.79039 0.28375 0.0
C1288 C 0.00389 0.76107 0.26044 0.0
C1289 C 0.99654 0.73845 0.28008 0.0
C1290 C 0.9915 0.69073 0.24491 0.0
C1291 C 0.00944 0.76625 0.22854 0.0
N1292 N 0.99519 0.72536 0.26874 0.0
N1293 N 0.01076 0.77935 0.23987 0.0
H1294 H 0.98689 0.54266 0.97225 0.0
H1295 H 0.01782 0.45013 0.0367 0.0
H1296 H 0.02376 0.38411 0.98104 0.0
H1297 H 0.98083 0.60854 0.02792 0.0
H1298 H 0.0203 0.42592 0.01645 0.0
H1299 H 0.98433 0.56681 0.9925 0.0
C1300 C 0.99443 0.51264 0.97844 0.0
C1301 C 0.00566 0.46113 0.97488 0.0
C1302 C 0.01167 0.46602 0.01891 0.0
C1303 C 0.00276 0.48912 0.99826 0.0
C1304 C 0.01024 0.4801 0.03051 0.0
C1305 C 0.999 0.5316 0.03407 0.0
C1306 C 1.00181 0.50354 0.0107 0.0
C1307 C 0.98965 0.5685 0.02559 0.0
C1308 C 0.99294 0.52669 0.99004 0.0
C1309 C 0.01494 0.42417 0.98336 0.0
N1310 N 0.99122 0.55366 0.01429 0.0
N1311 N 0.01334 0.43898 0.99466 0.0
H1312 H 0.58722 0.97817 0.07539 0.0
H1313 H 0.66696 0.26899 0.07514 0.0
H1314 H 0.55687 0.14972 0.0732 0.0
H1315 H 0.6973 0.09727 0.07374 0.0
H1316 H 0.62628 0.22617 0.07625 0.0
H1317 H 0.62784 0.02113 0.07659 0.0
C1318 C 0.58906 0.02472 0.07522 0.0
C1319 C 0.5686 0.06024 0.07409 0.0
C1320 C 0.6419 0.19796 0.07574 0.0
C1321 C 0.61491 0.10975 0.07548 0.0
C1322 C 0.6651 0.22245 0.07514 0.0
C1323 C 0.68557 0.18682 0.07425 0.0
C1324 C 0.63922 0.13747 0.07552 0.0
C1325 C 0.68206 0.12662 0.07429 0.0
C1326 C 0.61223 0.04929 0.07589 0.0
C1327 C 0.5721 0.12044 0.07395 0.0
N1328 N 0.65941 0.10396 0.07488 0.0
N1329 N 0.59473 0.14319 0.07459 0.0
H1330 H 0.55612 0.0933 0.1852 0.0
H1331 H 0.6983 0.15518 0.1848 0.0
H1332 H 0.58662 0.26475 0.18336 0.0
H1333 H 0.66786 0.98352 0.18382 0.0
H1334 H 0.65772 0.19558 0.18355 0.0
H1335 H 0.59668 0.05268 0.18399 0.0
C1336 C 0.57137 0.12259 0.18451 0.0
C1337 C 0.56791 0.18277 0.18448 0.0
C1338 C 0.65984 0.1491 0.18355 0.0
C1339 C 0.61468 0.13595 0.18309 0.0
C1340 C 0.68306 0.12579 0.18429 0.0
C1341 C 0.68655 0.06563 0.18452 0.0
C1342 C 0.63974 0.11221 0.18309 0.0
C1343 C 0.66605 0.03005 0.1837 0.0
C1344 C 0.59458 0.09915 0.18379 0.0
C1345 C 0.58841 0.21821 0.18345 0.0
N1346 N 0.64349 0.05391 0.18311 0.0
N1347 N 0.61095 0.19425 0.18288 0.0
H1348 H 0.41827 0.01591 0.93347 0.0
H1349 H 0.33754 0.72663 0.93372 0.0
H1350 H 0.44802 0.84382 0.93585 0.0
H1351 H 0.30778 0.89898 0.93475 0.0
H1352 H 0.37839 0.76862 0.93268 0.0
H1353 H 0.37753 0.9737 0.93215 0.0
C1354 C 0.41627 0.9694 0.93366 0.0
C1355 C 0.43659 0.93351 0.93487 0.0
C1356 C 0.36286 0.79715 0.93309 0.0
C1357 C 0.39015 0.88485 0.93335 0.0
C1358 C 0.33956 0.77314 0.93365 0.0
C1359 C 0.31921 0.8092 0.93442 0.0
C1360 C 0.36575 0.85759 0.93325 0.0
C1361 C 0.32292 0.86932 0.93429 0.0
C1362 C 0.39303 0.94526 0.93292 0.0
C1363 C 0.4329 0.87338 0.93503 0.0
N1364 N 0.34566 0.89152 0.93376 0.0
N1365 N 0.4102 0.85105 0.93432 0.0
H1366 H 0.44909 0.90331 0.82311 0.0
H1367 H 0.3068 0.84249 0.82388 0.0
H1368 H 0.41833 0.73224 0.82535 0.0
H1369 H 0.33745 0.01401 0.82418 0.0
H1370 H 0.34735 0.80192 0.82514 0.0
H1371 H 0.40858 0.94434 0.8242 0.0
C1372 C 0.4338 0.87418 0.82386 0.0
C1373 C 0.43718 0.81398 0.82405 0.0
C1374 C 0.34529 0.84841 0.82499 0.0
C1375 C 0.39046 0.86127 0.82529 0.0
C1376 C 0.32208 0.87182 0.82424 0.0
C1377 C 0.31866 0.93197 0.82382 0.0
C1378 C 0.36544 0.88521 0.82526 0.0
C1379 C 0.33921 0.96748 0.82445 0.0
C1380 C 0.41062 0.89786 0.82451 0.0
C1381 C 0.41662 0.77878 0.82514 0.0
N1382 N 0.36176 0.94352 0.82506 0.0
N1383 N 0.39411 0.80296 0.82565 0.0
H1384 H 0.69924 0.59134 0.57458 0.0
H1385 H 0.55696 0.6521 0.57342 0.0
H1386 H 0.66855 0.76283 0.57473 0.0
H1387 H 0.5877 0.481 0.5757 0.0
H1388 H 0.59744 0.69311 0.57464 0.0
H1389 H 0.65869 0.55075 0.57578 0.0
C1390 C 0.68395 0.62066 0.5749 0.0
C1391 C 0.68736 0.68081 0.57445 0.0
C1392 C 0.5954 0.64663 0.57493 0.0
C1393 C 0.64058 0.63401 0.57581 0.0
C1394 C 0.57224 0.62296 0.5742 0.0
C1395 C 0.56887 0.56275 0.57436 0.0
C1396 C 0.61556 0.61005 0.57577 0.0
C1397 C 0.58942 0.52754 0.57551 0.0
C1398 C 0.66074 0.59724 0.57561 0.0
C1399 C 0.6668 0.71631 0.57502 0.0
N1400 N 0.61191 0.55173 0.57609 0.0
N1401 N 0.64425 0.69233 0.57559 0.0
H1402 H 0.58807 0.76797 0.68336 0.0
H1403 H 0.66713 0.47603 0.68313 0.0
H1404 H 0.55737 0.59663 0.68483 0.0
H1405 H 0.6979 0.64717 0.68508 0.0
H1406 H 0.62661 0.51957 0.68189 0.0
H1407 H 0.62864 0.72461 0.68212 0.0
C1408 C 0.58983 0.7214 0.68335 0.0
C1409 C 0.56929 0.68603 0.68431 0.0
C1410 C 0.64229 0.5475 0.68254 0.0
C1411 C 0.61551 0.63607 0.68289 0.0
C1412 C 0.6654 0.52261 0.68323 0.0
C1413 C 0.68595 0.55784 0.68431 0.0
C1414 C 0.63976 0.60801 0.68289 0.0
C1415 C 0.6826 0.6181 0.68437 0.0
C1416 C 0.61296 0.6966 0.68267 0.0
C1417 C 0.57266 0.62578 0.68424 0.0
N1418 N 0.66002 0.64116 0.68372 0.0
N1419 N 0.59526 0.60283 0.68358 0.0
H1420 H 0.44739 0.34203 0.43485 0.0
H1421 H 0.30527 0.40492 0.43446 0.0
H1422 H 0.41713 0.51384 0.43351 0.0
H1423 H 0.33559 0.23315 0.43333 0.0
H1424 H 0.3459 0.44517 0.43331 0.0
H1425 H 0.40679 0.30184 0.4335 0.0
C1426 C 0.43219 0.3715 0.43424 0.0
C1427 C 0.43573 0.43164 0.4344 0.0
C1428 C 0.34374 0.3987 0.43325 0.0
C1429 C 0.3889 0.3853 0.43285 0.0
C1430 C 0.32049 0.37547 0.43394 0.0
C1431 C 0.31696 0.31533 0.4341 0.0
C1432 C 0.36382 0.36172 0.43278 0.0
C1433 C 0.33743 0.27967 0.43327 0.0
C1434 C 0.40895 0.3483 0.43344 0.0
C1435 C 0.41527 0.46732 0.43346 0.0
N1436 N 0.36002 0.30344 0.43273 0.0
N1437 N 0.3927 0.44358 0.43281 0.0
H1438 H 0.4181 0.22814 0.32532 0.0
H1439 H 0.33748 0.51762 0.32502 0.0
H1440 H 0.44789 0.40035 0.32364 0.0
H1441 H 0.30765 0.34549 0.32331 0.0
H1442 H 0.37823 0.47538 0.32636 0.0
H1443 H 0.37729 0.27029 0.32643 0.0
C1444 C 0.4161 0.27465 0.32525 0.0
C1445 C 0.43644 0.31061 0.32428 0.0
C1446 C 0.36271 0.44694 0.32573 0.0
C1447 C 0.38995 0.3592 0.32555 0.0
C1448 C 0.33946 0.4711 0.32499 0.0
C1449 C 0.31912 0.4352 0.32395 0.0
C1450 C 0.36556 0.38651 0.32548 0.0
C1451 C 0.32278 0.37505 0.32398 0.0
C1452 C 0.39283 0.29876 0.32586 0.0
C1453 C 0.43275 0.37075 0.32426 0.0
N1454 N 0.34549 0.3527 0.32469 0.0
N1455 N 0.41003 0.39304 0.32484 0.0
H1456 H 0.08805 0.97721 0.57505 0.0
H1457 H 0.16795 0.2678 0.57542 0.0
H1458 H 0.05783 0.14907 0.57367 0.0
H1459 H 0.19821 0.09621 0.57326 0.0
H1460 H 0.1273 0.22492 0.57664 0.0
H1461 H 0.12875 0.01987 0.57625 0.0
C1462 C 0.08994 0.02375 0.57507 0.0
C1463 C 0.06949 0.05947 0.57416 0.0
C1464 C 0.1429 0.19674 0.57594 0.0
C1465 C 0.11587 0.10863 0.57553 0.0
C1466 C 0.16608 0.22126 0.57527 0.0
C1467 C 0.18652 0.1857 0.57414 0.0
C1468 C 0.14019 0.13629 0.57553 0.0
C1469 C 0.183 0.12551 0.57401 0.0
C1470 C 0.11315 0.04815 0.57572 0.0
C1471 C 0.07304 0.11965 0.57424 0.0
N1472 N 0.16035 0.10281 0.57465 0.0
N1473 N 0.0957 0.14223 0.57487 0.0
H1474 H 0.19839 0.15023 0.68433 0.0
H1475 H 0.05612 0.08927 0.68551 0.0
H1476 H 0.16769 0.97878 0.68384 0.0
H1477 H 0.08674 0.26052 0.68336 0.0
H1478 H 0.09662 0.04842 0.68422 0.0
H1479 H 0.15782 0.19091 0.68327 0.0
C1480 C 0.18309 0.12094 0.68397 0.0
C1481 C 0.1865 0.06077 0.68427 0.0
C1482 C 0.09455 0.0949 0.68398 0.0
C1483 C 0.13971 0.10766 0.68306 0.0
C1484 C 0.07138 0.11848 0.68474 0.0
C1485 C 0.06797 0.17868 0.68464 0.0
C1486 C 0.11468 0.13157 0.68316 0.0
C1487 C 0.08849 0.21398 0.68351 0.0
C1488 C 0.15987 0.14441 0.68334 0.0
C1489 C 0.16594 0.02532 0.68365 0.0
N1490 N 0.111 0.18988 0.68289 0.0
N1491 N 0.14339 0.04933 0.68316 0.0
H1492 H 0.94798 0.84088 0.43566 0.0
H1493 H 0.80561 0.90092 0.43506 0.0
H1494 H 0.91706 0.01199 0.43404 0.0
H1495 H 0.83649 0.72967 0.43429 0.0
H1496 H 0.84611 0.94187 0.43398 0.0
H1497 H 0.90751 0.79978 0.43447 0.0
C1498 C 0.93266 0.87001 0.43503 0.0
C1499 C 0.93598 0.93023 0.43504 0.0
C1500 C 0.84411 0.89536 0.43399 0.0
C1501 C 0.88931 0.88284 0.43368 0.0
C1502 C 0.82093 0.87173 0.43464 0.0
C1503 C 0.81759 0.81152 0.43486 0.0
C1504 C 0.86431 0.85874 0.43363 0.0
C1505 C 0.83819 0.77622 0.43416 0.0
C1506 C 0.9095 0.84629 0.43432 0.0
C1507 C 0.91539 0.96543 0.43409 0.0
N1508 N 0.8607 0.80039 0.43366 0.0
N1509 N 0.8929 0.94119 0.43352 0.0
H1510 H 0.94932 0.9065 0.3236 0.0
H1511 H 0.80714 0.84434 0.32437 0.0
H1512 H 0.91892 0.73486 0.3251 0.0
H1513 H 0.83761 0.01598 0.32522 0.0
H1514 H 0.84775 0.80391 0.32544 0.0
H1515 H 0.90876 0.94692 0.32497 0.0
C1516 C 0.93409 0.87711 0.32425 0.0
C1517 C 0.93759 0.81694 0.32414 0.0
C1518 C 0.84563 0.85039 0.32545 0.0
C1519 C 0.8908 0.86356 0.32571 0.0
C1520 C 0.82239 0.87372 0.32481 0.0
C1521 C 0.81891 0.93388 0.3246 0.0
C1522 C 0.86574 0.88728 0.32582 0.0
C1523 C 0.83942 0.96945 0.32533 0.0
C1524 C 0.91089 0.90044 0.32506 0.0
C1525 C 0.91711 0.78139 0.32512 0.0
N1526 N 0.86199 0.94558 0.32582 0.0
N1527 N 0.89456 0.80526 0.32578 0.0
H1528 H 0.19907 0.58849 0.07286 0.0
H1529 H 0.0568 0.64924 0.07419 0.0
H1530 H 0.16836 0.75963 0.07497 0.0
H1531 H 0.0875 0.47778 0.0748 0.0
H1532 H 0.09736 0.68991 0.07517 0.0
H1533 H 0.1586 0.54751 0.07423 0.0
C1534 C 0.1838 0.61764 0.07364 0.0
C1535 C 0.18718 0.67785 0.07371 0.0
C1536 C 0.09531 0.64341 0.07515 0.0
C1537 C 0.1405 0.6306 0.07528 0.0
C1538 C 0.0721 0.61995 0.07456 0.0
C1539 C 0.06868 0.55978 0.07431 0.0
C1540 C 0.11548 0.60665 0.07543 0.0
C1541 C 0.08926 0.52432 0.07494 0.0
C1542 C 0.16064 0.59399 0.07445 0.0
C1543 C 0.16664 0.71308 0.07485 0.0
N1544 N 0.11181 0.54833 0.07539 0.0
N1545 N 0.14415 0.68891 0.07551 0.0
H1546 H 0.08739 0.77067 0.18386 0.0
H1547 H 0.16744 0.4803 0.18341 0.0
H1548 H 0.05731 0.59867 0.1852 0.0
H1549 H 0.19768 0.6519 0.18559 0.0
H1550 H 0.12678 0.52313 0.18228 0.0
H1551 H 0.12813 0.72817 0.18269 0.0
C1552 C 0.08931 0.72414 0.18384 0.0
C1553 C 0.0689 0.68832 0.18473 0.0
C1554 C 0.14237 0.55133 0.18296 0.0
C1555 C 0.11532 0.63936 0.1834 0.0
C1556 C 0.16556 0.52684 0.18359 0.0
C1557 C 0.186 0.5624 0.18469 0.0
C1558 C 0.13965 0.61177 0.18339 0.0
C1559 C 0.18247 0.62259 0.18486 0.0
C1560 C 0.11255 0.69984 0.1832 0.0
C1561 C 0.07249 0.62816 0.18465 0.0
N1562 N 0.15981 0.64527 0.18425 0.0
N1563 N 0.09518 0.60569 0.18404 0.0
H1564 H 0.83751 0.22741 0.93323 0.0
H1565 H 0.91796 0.51713 0.93351 0.0
H1566 H 0.80754 0.39929 0.93536 0.0
H1567 H 0.94781 0.34492 0.93497 0.0
H1568 H 0.87717 0.47493 0.93229 0.0
H1569 H 0.87822 0.26988 0.93198 0.0
C1570 C 0.83945 0.27393 0.93337 0.0
C1571 C 0.81908 0.30969 0.9345 0.0
C1572 C 0.89271 0.44648 0.93283 0.0
C1573 C 0.86549 0.35865 0.93307 0.0
C1574 C 0.91597 0.47061 0.9335 0.0
C1575 C 0.93633 0.43465 0.93445 0.0
C1576 C 0.88986 0.38603 0.93306 0.0
C1577 C 0.93266 0.37451 0.93438 0.0
C1578 C 0.86267 0.29822 0.93268 0.0
C1579 C 0.8227 0.36985 0.93461 0.0
N1580 N 0.90996 0.35221 0.93374 0.0
N1581 N 0.84538 0.39232 0.93395 0.0
H1582 H 0.94853 0.40016 0.82438 0.0
H1583 H 0.80622 0.33984 0.82344 0.0
H1584 H 0.91778 0.22876 0.82504 0.0
H1585 H 0.83707 0.51085 0.82547 0.0
H1586 H 0.84669 0.29869 0.82472 0.0
H1587 H 0.908 0.4409 0.8255 0.0
C1588 C 0.93323 0.3709 0.82479 0.0
C1589 C 0.93661 0.31072 0.82451 0.0
C1590 C 0.84467 0.34518 0.82494 0.0
C1591 C 0.88986 0.35769 0.82579 0.0
C1592 C 0.82152 0.36892 0.82418 0.0
C1593 C 0.81819 0.42914 0.82425 0.0
C1594 C 0.86485 0.38171 0.82572 0.0
C1595 C 0.83875 0.46429 0.82535 0.0
C1596 C 0.91003 0.3944 0.82546 0.0
C1597 C 0.91604 0.2753 0.8252 0.0
N1598 N 0.86124 0.44004 0.82596 0.0
N1599 N 0.89351 0.29935 0.82572 0.0
loop_
_geom_bond_atom_site_label_1
_geom_bond_atom_site_label_2
_geom_bond_distance
_geom_bond_site_symmetry_2
_ccdc_geom_bond_type
C0 O2 1.247 . S
C0 O4 1.258 . S
C1 O8 1.247 . S
C1 O9 1.258 1_565 S
O2 C0 1.247 . S
O2 Zn3 2.028 . S
Zn3 O2 2.028 . S
Zn3 O7 2.035 . S
Zn3 O9 2.035 . S
Zn3 O10 2.028 . S
O4 C0 1.258 . S
O4 Zn5 2.035 1_545 S
Zn5 O4 2.035 1_565 S
Zn5 O6 2.028 . S
Zn5 O8 2.028 . S
Zn5 O11 2.035 . S
O6 Zn5 2.028 . S
O6 C12 1.247 . S
O7 Zn3 2.035 . S
O7 C12 1.258 1_545 S
O8 C1 1.247 . S
O8 Zn5 2.028 . S
O9 C1 1.258 1_545 S
O9 Zn3 2.035 . S
O10 Zn3 2.028 . S
O10 C13 1.247 . S
O11 Zn5 2.035 . S
O11 C13 1.258 1_565 S
C12 O6 1.247 . S
C12 O7 1.258 1_565 S
C13 O10 1.247 . S
C13 O11 1.258 1_545 S
C14 O16 1.247 . S
C14 O18 1.258 . S
C15 O22 1.247 . S
C15 O23 1.258 . S
O16 C14 1.247 . S
O16 Zn17 2.028 . S
Zn17 O16 2.028 . S
Zn17 O21 2.035 . S
Zn17 O23 2.035 . S
Zn17 O24 2.028 . S
O18 C14 1.258 . S
O18 Zn19 2.035 . S
Zn19 O18 2.035 . S
Zn19 O20 2.028 . S
Zn19 O22 2.028 . S
Zn19 O25 2.035 . S
O20 Zn19 2.028 . S
O20 C26 1.247 . S
O21 Zn17 2.035 . S
O21 C26 1.258 . S
O22 C15 1.247 . S
O22 Zn19 2.028 . S
O23 C15 1.258 . S
O23 Zn17 2.035 . S
O24 Zn17 2.028 . S
O24 C27 1.247 . S
O25 Zn19 2.035 . S
O25 C27 1.258 . S
C26 O20 1.247 . S
C26 O21 1.258 . S
C27 O24 1.247 . S
C27 O25 1.258 . S
C28 O30 1.247 . S
C28 O32 1.258 . S
C29 O36 1.247 . S
C29 O37 1.258 . S
O30 C28 1.247 . S
O30 Zn31 2.028 . S
Zn31 O30 2.028 . S
Zn31 O35 2.035 . S
Zn31 O37 2.035 . S
Zn31 O38 2.028 . S
O32 C28 1.258 . S
O32 Zn33 2.035 . S
Zn33 O32 2.035 . S
Zn33 O34 2.028 . S
Zn33 O36 2.028 . S
Zn33 O39 2.035 . S
O34 Zn33 2.028 . S
O34 C40 1.247 . S
O35 Zn31 2.035 . S
O35 C40 1.258 . S
O36 C29 1.247 . S
O36 Zn33 2.028 . S
O37 C29 1.258 . S
O37 Zn31 2.035 . S
O38 Zn31 2.028 . S
O38 C41 1.247 . S
O39 Zn33 2.035 . S
O39 C41 1.258 . S
C40 O34 1.247 . S
C40 O35 1.258 . S
C41 O38 1.247 . S
C41 O39 1.258 . S
C42 O44 1.247 . S
C42 O46 1.258 . S
C43 O50 1.247 . S
C43 O51 1.258 1_565 S
O44 C42 1.247 . S
O44 Zn45 2.028 . S
Zn45 O44 2.028 . S
Zn45 O49 2.035 . S
Zn45 O51 2.035 . S
Zn45 O52 2.028 . S
O46 C42 1.258 . S
O46 Zn47 2.035 1_545 S
Zn47 O46 2.035 1_565 S
Zn47 O48 2.028 . S
Zn47 O50 2.028 . S
Zn47 O53 2.035 . S
O48 Zn47 2.028 . S
O48 C54 1.247 . S
O49 Zn45 2.035 . S
O49 C54 1.258 1_545 S
O50 C43 1.247 . S
O50 Zn47 2.028 . S
O51 C43 1.258 1_545 S
O51 Zn45 2.035 . S
O52 Zn45 2.028 . S
O52 C55 1.247 . S
O53 Zn47 2.035 . S
O53 C55 1.258 1_565 S
C54 O48 1.247 . S
C54 O49 1.258 1_565 S
C55 O52 1.247 . S
C55 O53 1.258 1_545 S
C56 O58 1.247 1_545 S
C56 O60 1.258 . S
C57 O64 1.247 1_565 S
C57 O65 1.258 . S
O58 C56 1.247 1_565 S
O58 Zn59 2.028 . S
Zn59 O58 2.028 . S
Zn59 O63 2.035 . S
Zn59 O65 2.035 . S
Zn59 O66 2.028 . S
O60 C56 1.258 . S
O60 Zn61 2.035 . S
Zn61 O60 2.035 . S
Zn61 O62 2.028 1_545 S
Zn61 O64 2.028 . S
Zn61 O67 2.035 . S
O62 Zn61 2.028 1_565 S
O62 C68 1.247 . S
O63 Zn59 2.035 . S
O63 C68 1.258 . S
O64 C57 1.247 1_545 S
O64 Zn61 2.028 . S
O65 C57 1.258 . S
O65 Zn59 2.035 . S
O66 Zn59 2.028 . S
O66 C69 1.247 1_565 S
O67 Zn61 2.035 . S
O67 C69 1.258 . S
C68 O62 1.247 . S
C68 O63 1.258 . S
C69 O66 1.247 1_545 S
C69 O67 1.258 . S
C70 O72 1.247 . S
C70 O74 1.258 . S
C71 O78 1.247 . S
C71 O79 1.258 . S
O72 C70 1.247 . S
O72 Zn73 2.028 . S
Zn73 O72 2.028 . S
Zn73 O77 2.035 . S
Zn73 O79 2.035 . S
Zn73 O80 2.028 . S
O74 C70 1.258 . S
O74 Zn75 2.035 . S
Zn75 O74 2.035 . S
Zn75 O76 2.028 . S
Zn75 O78 2.028 . S
Zn75 O81 2.035 . S
O76 Zn75 2.028 . S
O76 C82 1.247 . S
O77 Zn73 2.035 . S
O77 C82 1.258 . S
O78 C71 1.247 . S
O78 Zn75 2.028 . S
O79 C71 1.258 . S
O79 Zn73 2.035 . S
O80 Zn73 2.028 . S
O80 C83 1.247 . S
O81 Zn75 2.035 . S
O81 C83 1.258 . S
C82 O76 1.247 . S
C82 O77 1.258 . S
C83 O80 1.247 . S
C83 O81 1.258 . S
C84 O86 1.247 . S
C84 O88 1.258 . S
C85 O92 1.247 . S
C85 O93 1.258 . S
O86 C84 1.247 . S
O86 Zn87 2.028 . S
Zn87 O86 2.028 . S
Zn87 O91 2.035 . S
Zn87 O93 2.035 . S
Zn87 O94 2.028 . S
O88 C84 1.258 . S
O88 Zn89 2.035 . S
Zn89 O88 2.035 . S
Zn89 O90 2.028 . S
Zn89 O92 2.028 . S
Zn89 O95 2.035 . S
O90 Zn89 2.028 . S
O90 C96 1.247 . S
O91 Zn87 2.035 . S
O91 C96 1.258 . S
O92 C85 1.247 . S
O92 Zn89 2.028 . S
O93 C85 1.258 . S
O93 Zn87 2.035 . S
O94 Zn87 2.028 . S
O94 C97 1.247 . S
O95 Zn89 2.035 . S
O95 C97 1.258 . S
C96 O90 1.247 . S
C96 O91 1.258 . S
C97 O94 1.247 . S
C97 O95 1.258 . S
C98 O100 1.247 . S
C98 O102 1.258 1_565 S
C99 O106 1.247 . S
C99 O107 1.258 1_545 S
O100 C98 1.247 . S
O100 Zn101 2.028 . S
Zn101 O100 2.028 . S
Zn101 O105 2.035 . S
Zn101 O107 2.035 . S
Zn101 O108 2.028 . S
O102 C98 1.258 1_545 S
O102 Zn103 2.035 . S
Zn103 O102 2.035 . S
Zn103 O104 2.028 . S
Zn103 O106 2.028 . S
Zn103 O109 2.035 1_545 S
O104 Zn103 2.028 . S
O104 C110 1.247 . S
O105 Zn101 2.035 . S
O105 C110 1.258 1_565 S
O106 C99 1.247 . S
O106 Zn103 2.028 . S
O107 C99 1.258 1_565 S
O107 Zn101 2.035 . S
O108 Zn101 2.028 . S
O108 C111 1.247 . S
O109 Zn103 2.035 1_565 S
O109 C111 1.258 . S
C110 O104 1.247 . S
C110 O105 1.258 1_545 S
C111 O108 1.247 . S
C111 O109 1.258 . S
C112 O114 1.247 . S
C112 O116 1.258 . S
C113 O120 1.247 . S
C113 O121 1.258 . S
O114 C112 1.247 . S
O114 Zn115 2.028 . S
Zn115 O114 2.028 . S
Zn115 O119 2.035 . S
Zn115 O121 2.035 . S
Zn115 O122 2.028 . S
O116 C112 1.258 . S
O116 Zn117 2.035 . S
Zn117 O116 2.035 . S
Zn117 O118 2.028 . S
Zn117 O120 2.028 . S
Zn117 O123 2.035 . S
O118 Zn117 2.028 . S
O118 C124 1.247 . S
O119 Zn115 2.035 . S
O119 C124 1.258 . S
O120 C113 1.247 . S
O120 Zn117 2.028 . S
O121 C113 1.258 . S
O121 Zn115 2.035 . S
O122 Zn115 2.028 . S
O122 C125 1.247 . S
O123 Zn117 2.035 . S
O123 C125 1.258 . S
C124 O118 1.247 . S
C124 O119 1.258 . S
C125 O122 1.247 . S
C125 O123 1.258 . S
C126 O128 1.247 . S
C126 O130 1.258 . S
C127 O134 1.247 . S
C127 O135 1.258 . S
O128 C126 1.247 . S
O128 Zn129 2.028 . S
Zn129 O128 2.028 . S
Zn129 O133 2.035 . S
Zn129 O135 2.035 . S
Zn129 O136 2.028 . S
O130 C126 1.258 . S
O130 Zn131 2.035 . S
Zn131 O130 2.035 . S
Zn131 O132 2.028 . S
Zn131 O134 2.028 . S
Zn131 O137 2.035 . S
O132 Zn131 2.028 . S
O132 C138 1.247 . S
O133 Zn129 2.035 . S
O133 C138 1.258 . S
O134 C127 1.247 . S
O134 Zn131 2.028 . S
O135 C127 1.258 . S
O135 Zn129 2.035 . S
O136 Zn129 2.028 . S
O136 C139 1.247 . S
O137 Zn131 2.035 . S
O137 C139 1.258 . S
C138 O132 1.247 . S
C138 O133 1.258 . S
C139 O136 1.247 . S
C139 O137 1.258 . S
C140 O142 1.247 . S
C140 O144 1.258 . S
C141 O148 1.247 . S
C141 O149 1.258 . S
O142 C140 1.247 . S
O142 Zn143 2.028 . S
Zn143 O142 2.028 . S
Zn143 O147 2.035 . S
Zn143 O149 2.035 . S
Zn143 O150 2.028 . S
O144 C140 1.258 . S
O144 Zn145 2.035 . S
Zn145 O144 2.035 . S
Zn145 O146 2.028 . S
Zn145 O148 2.028 . S
Zn145 O151 2.035 . S
O146 Zn145 2.028 . S
O146 C152 1.247 . S
O147 Zn143 2.035 . S
O147 C152 1.258 . S
O148 C141 1.247 . S
O148 Zn145 2.028 . S
O149 C141 1.258 . S
O149 Zn143 2.035 . S
O150 Zn143 2.028 . S
O150 C153 1.247 . S
O151 Zn145 2.035 . S
O151 C153 1.258 . S
C152 O146 1.247 . S
C152 O147 1.258 . S
C153 O150 1.247 . S
C153 O151 1.258 . S
C154 O156 1.247 . S
C154 O158 1.258 . S
C155 O162 1.247 . S
C155 O163 1.258 . S
O156 C154 1.247 . S
O156 Zn157 2.028 . S
Zn157 O156 2.028 . S
Zn157 O161 2.035 . S
Zn157 O163 2.035 . S
Zn157 O164 2.028 . S
O158 C154 1.258 . S
O158 Zn159 2.035 . S
Zn159 O158 2.035 . S
Zn159 O160 2.028 . S
Zn159 O162 2.028 . S
Zn159 O165 2.035 . S
O160 Zn159 2.028 . S
O160 C166 1.247 . S
O161 Zn157 2.035 . S
O161 C166 1.258 . S
O162 C155 1.247 . S
O162 Zn159 2.028 . S
O163 C155 1.258 . S
O163 Zn157 2.035 . S
O164 Zn157 2.028 . S
O164 C167 1.247 . S
O165 Zn159 2.035 . S
O165 C167 1.258 . S
C166 O160 1.247 . S
C166 O161 1.258 . S
C167 O164 1.247 . S
C167 O165 1.258 . S
C168 O170 1.247 . S
C168 O172 1.258 . S
C169 O176 1.247 . S
C169 O177 1.258 . S
O170 C168 1.247 . S
O170 Zn171 2.028 . S
Zn171 O170 2.028 . S
Zn171 O175 2.035 . S
Zn171 O177 2.035 . S
Zn171 O178 2.028 . S
O172 C168 1.258 . S
O172 Zn173 2.035 . S
Zn173 O172 2.035 . S
Zn173 O174 2.028 . S
Zn173 O176 2.028 . S
Zn173 O179 2.035 . S
O174 Zn173 2.028 . S
O174 C180 1.247 . S
O175 Zn171 2.035 . S
O175 C180 1.258 . S
O176 C169 1.247 . S
O176 Zn173 2.028 . S
O177 C169 1.258 . S
O177 Zn171 2.035 . S
O178 Zn171 2.028 . S
O178 C181 1.247 . S
O179 Zn173 2.035 . S
O179 C181 1.258 . S
C180 O174 1.247 . S
C180 O175 1.258 . S
C181 O178 1.247 . S
C181 O179 1.258 . S
C182 O184 1.247 . S
C182 O186 1.258 . S
C183 O190 1.247 . S
C183 O191 1.258 . S
O184 C182 1.247 . S
O184 Zn185 2.028 . S
Zn185 O184 2.028 . S
Zn185 O189 2.035 . S
Zn185 O191 2.035 . S
Zn185 O192 2.028 . S
O186 C182 1.258 . S
O186 Zn187 2.035 . S
Zn187 O186 2.035 . S
Zn187 O188 2.028 . S
Zn187 O190 2.028 . S
Zn187 O193 2.035 . S
O188 Zn187 2.028 . S
O188 C194 1.247 . S
O189 Zn185 2.035 . S
O189 C194 1.258 . S
O190 C183 1.247 . S
O190 Zn187 2.028 . S
O191 C183 1.258 . S
O191 Zn185 2.035 . S
O192 Zn185 2.028 . S
O192 C195 1.247 . S
O193 Zn187 2.035 . S
O193 C195 1.258 . S
C194 O188 1.247 . S
C194 O189 1.258 . S
C195 O192 1.247 . S
C195 O193 1.258 . S
C196 O198 1.247 . S
C196 O200 1.258 . S
C197 O204 1.247 . S
C197 O205 1.258 . S
O198 C196 1.247 . S
O198 Zn199 2.028 . S
Zn199 O198 2.028 . S
Zn199 O203 2.035 . S
Zn199 O205 2.035 . S
Zn199 O206 2.028 . S
O200 C196 1.258 . S
O200 Zn201 2.035 . S
Zn201 O200 2.035 . S
Zn201 O202 2.028 . S
Zn201 O204 2.028 . S
Zn201 O207 2.035 . S
O202 Zn201 2.028 . S
O202 C208 1.247 . S
O203 Zn199 2.035 . S
O203 C208 1.258 . S
O204 C197 1.247 . S
O204 Zn201 2.028 . S
O205 C197 1.258 . S
O205 Zn199 2.035 . S
O206 Zn199 2.028 . S
O206 C209 1.247 . S
O207 Zn201 2.035 . S
O207 C209 1.258 . S
C208 O202 1.247 . S
C208 O203 1.258 . S
C209 O206 1.247 . S
C209 O207 1.258 . S
C210 O212 1.247 . S
C210 O214 1.258 . S
C211 O218 1.247 . S
C211 O219 1.258 . S
O212 C210 1.247 . S
O212 Zn213 2.028 . S
Zn213 O212 2.028 . S
Zn213 O217 2.035 . S
Zn213 O219 2.035 . S
Zn213 O220 2.028 . S
O214 C210 1.258 . S
O214 Zn215 2.035 . S
Zn215 O214 2.035 . S
Zn215 O216 2.028 . S
Zn215 O218 2.028 . S
Zn215 O221 2.035 . S
O216 Zn215 2.028 . S
O216 C222 1.247 . S
O217 Zn213 2.035 . S
O217 C222 1.258 . S
O218 C211 1.247 . S
O218 Zn215 2.028 . S
O219 C211 1.258 . S
O219 Zn213 2.035 . S
O220 Zn213 2.028 . S
O220 C223 1.247 . S
O221 Zn215 2.035 . S
O221 C223 1.258 . S
C222 O216 1.247 . S
C222 O217 1.258 . S
C223 O220 1.247 . S
C223 O221 1.258 . S
C224 O226 1.246 1_545 S
C224 O228 1.259 1_455 S
C225 O232 1.249 1_565 S
C225 O233 1.255 1_655 S
O226 C224 1.246 1_565 S
O226 Zn227 2.028 . S
Zn227 O226 2.028 . S
Zn227 O231 2.035 1_455 S
Zn227 O233 2.035 . S
Zn227 O234 2.028 1_565 S
O228 C224 1.259 1_655 S
O228 Zn229 2.035 . S
Zn229 O228 2.035 . S
Zn229 O230 2.028 . S
Zn229 O232 2.028 . S
Zn229 O235 2.035 1_655 S
O230 Zn229 2.028 . S
O230 C236 1.247 1_545 S
O231 Zn227 2.035 1_655 S
O231 C236 1.258 . S
O232 C225 1.249 1_545 S
O232 Zn229 2.028 . S
O233 C225 1.255 1_455 S
O233 Zn227 2.035 . S
O234 Zn227 2.028 1_545 S
O234 C237 1.247 . S
O235 Zn229 2.035 1_455 S
O235 C237 1.258 . S
C236 O230 1.247 1_565 S
C236 O231 1.258 . S
C237 O234 1.247 . S
C237 O235 1.258 . S
C238 O240 1.247 . S
C238 O242 1.258 . S
C239 O246 1.247 . S
C239 O247 1.258 . S
O240 C238 1.247 . S
O240 Zn241 2.028 . S
Zn241 O240 2.028 . S
Zn241 O245 2.035 . S
Zn241 O247 2.035 . S
Zn241 O248 2.028 . S
O242 C238 1.258 . S
O242 Zn243 2.035 . S
Zn243 O242 2.035 . S
Zn243 O244 2.028 . S
Zn243 O246 2.028 . S
Zn243 O249 2.035 . S
O244 Zn243 2.028 . S
O244 C250 1.247 . S
O245 Zn241 2.035 . S
O245 C250 1.258 . S
O246 C239 1.247 . S
O246 Zn243 2.028 . S
O247 C239 1.258 . S
O247 Zn241 2.035 . S
O248 Zn241 2.028 . S
O248 C251 1.247 . S
O249 Zn243 2.035 . S
O249 C251 1.258 . S
C250 O244 1.247 . S
C250 O245 1.258 . S
C251 O248 1.247 . S
C251 O249 1.258 . S
C252 O254 1.247 . S
C252 O256 1.258 . S
C253 O260 1.247 . S
C253 O261 1.258 . S
O254 C252 1.247 . S
O254 Zn255 2.028 1_455 S
Zn255 O254 2.028 1_655 S
Zn255 O259 2.035 . S
Zn255 O261 2.035 . S
Zn255 O262 2.028 . S
O256 C252 1.258 . S
O256 Zn257 2.035 . S
Zn257 O256 2.035 . S
Zn257 O258 2.028 . S
Zn257 O260 2.028 1_455 S
Zn257 O263 2.035 . S
O258 Zn257 2.028 . S
O258 C264 1.245 1_455 S
O259 Zn255 2.035 . S
O259 C264 1.259 . S
O260 C253 1.247 . S
O260 Zn257 2.028 1_655 S
O261 C253 1.258 . S
O261 Zn255 2.035 . S
O262 Zn255 2.028 . S
O262 C265 1.245 . S
O263 Zn257 2.035 . S
O263 C265 1.259 1_455 S
C264 O258 1.245 1_655 S
C264 O259 1.259 . S
C265 O262 1.245 . S
C265 O263 1.259 1_655 S
C266 O268 1.247 . S
C266 O270 1.258 . S
C267 O274 1.247 . S
C267 O275 1.258 1_565 S
O268 C266 1.247 . S
O268 Zn269 2.028 . S
Zn269 O268 2.028 . S
Zn269 O273 2.035 . S
Zn269 O275 2.035 . S
Zn269 O276 2.028 . S
O270 C266 1.258 . S
O270 Zn271 2.035 1_545 S
Zn271 O270 2.035 1_565 S
Zn271 O272 2.028 . S
Zn271 O274 2.028 . S
Zn271 O277 2.035 . S
O272 Zn271 2.028 . S
O272 C278 1.247 . S
O273 Zn269 2.035 . S
O273 C278 1.258 1_545 S
O274 C267 1.247 . S
O274 Zn271 2.028 . S
O275 C267 1.258 1_545 S
O275 Zn269 2.035 . S
O276 Zn269 2.028 . S
O276 C279 1.247 . S
O277 Zn271 2.035 . S
O277 C279 1.258 1_565 S
C278 O272 1.247 . S
C278 O273 1.258 1_565 S
C279 O276 1.247 . S
C279 O277 1.258 1_545 S
C280 O282 1.245 . S
C280 O284 1.259 1_465 S
C281 O288 1.245 1_455 S
C281 O289 1.259 1_545 S
O282 C280 1.245 . S
O282 Zn283 2.028 . S
Zn283 O282 2.028 . S
Zn283 O287 2.035 . S
Zn283 O289 2.035 . S
Zn283 O290 2.028 1_455 S
O284 C280 1.259 1_645 S
O284 Zn285 2.035 . S
Zn285 O284 2.035 . S
Zn285 O286 2.028 1_655 S
Zn285 O288 2.028 . S
Zn285 O291 2.035 1_545 S
O286 Zn285 2.028 1_455 S
O286 C292 1.247 . S
O287 Zn283 2.035 . S
O287 C292 1.258 1_565 S
O288 C281 1.245 1_655 S
O288 Zn285 2.028 . S
O289 C281 1.259 1_565 S
O289 Zn283 2.035 . S
O290 Zn283 2.028 1_655 S
O290 C293 1.247 . S
O291 Zn285 2.035 1_565 S
O291 C293 1.258 . S
C292 O286 1.247 . S
C292 O287 1.258 1_545 S
C293 O290 1.247 . S
C293 O291 1.258 . S
C294 O296 1.247 . S
C294 O298 1.258 . S
C295 O302 1.247 . S
C295 O303 1.258 . S
O296 C294 1.247 . S
O296 Zn297 2.028 . S
Zn297 O296 2.028 . S
Zn297 O301 2.035 . S
Zn297 O303 2.035 . S
Zn297 O304 2.028 . S
O298 C294 1.258 . S
O298 Zn299 2.035 . S
Zn299 O298 2.035 . S
Zn299 O300 2.028 . S
Zn299 O302 2.028 . S
Zn299 O305 2.035 . S
O300 Zn299 2.028 . S
O300 C306 1.247 . S
O301 Zn297 2.035 . S
O301 C306 1.258 . S
O302 C295 1.247 . S
O302 Zn299 2.028 . S
O303 C295 1.258 . S
O303 Zn297 2.035 . S
O304 Zn297 2.028 . S
O304 C307 1.247 . S
O305 Zn299 2.035 . S
O305 C307 1.258 . S
C306 O300 1.247 . S
C306 O301 1.258 . S
C307 O304 1.247 . S
C307 O305 1.258 . S
C308 O310 1.247 . S
C308 O312 1.258 . S
C309 O316 1.247 . S
C309 O317 1.258 . S
O310 C308 1.247 . S
O310 Zn311 2.028 . S
Zn311 O310 2.028 . S
Zn311 O315 2.035 . S
Zn311 O317 2.035 1_655 S
Zn311 O318 2.028 . S
O312 C308 1.258 . S
O312 Zn313 2.035 1_655 S
Zn313 O312 2.035 1_455 S
Zn313 O314 2.028 . S
Zn313 O316 2.028 . S
Zn313 O319 2.035 . S
O314 Zn313 2.028 . S
O314 C320 1.249 . S
O315 Zn311 2.035 . S
O315 C320 1.255 1_655 S
O316 C309 1.247 . S
O316 Zn313 2.028 . S
O317 C309 1.258 . S
O317 Zn311 2.035 1_455 S
O318 Zn311 2.028 . S
O318 C321 1.246 . S
O319 Zn313 2.035 . S
O319 C321 1.259 1_455 S
C320 O314 1.249 . S
C320 O315 1.255 1_455 S
C321 O318 1.246 . S
C321 O319 1.259 1_655 S
C322 O324 1.247 . S
C322 O326 1.258 1_545 S
C323 O330 1.247 . S
C323 O331 1.258 . S
O324 C322 1.247 . S
O324 Zn325 2.028 . S
Zn325 O324 2.028 . S
Zn325 O329 2.035 . S
Zn325 O331 2.035 1_545 S
Zn325 O332 2.028 . S
O326 C322 1.258 1_565 S
O326 Zn327 2.035 . S
Zn327 O326 2.035 . S
Zn327 O328 2.028 . S
Zn327 O330 2.028 . S
Zn327 O333 2.035 . S
O328 Zn327 2.028 . S
O328 C334 1.247 . S
O329 Zn325 2.035 . S
O329 C334 1.258 1_545 S
O330 C323 1.247 . S
O330 Zn327 2.028 . S
O331 C323 1.258 . S
O331 Zn325 2.035 1_565 S
O332 Zn325 2.028 . S
O332 C335 1.247 . S
O333 Zn327 2.035 . S
O333 C335 1.258 1_565 S
C334 O328 1.247 . S
C334 O329 1.258 1_565 S
C335 O332 1.247 . S
C335 O333 1.258 1_545 S
C336 O338 1.247 . S
C336 O340 1.258 . S
C337 O344 1.247 . S
C337 O345 1.258 . S
O338 C336 1.247 . S
O338 Zn339 2.028 . S
Zn339 O338 2.028 . S
Zn339 O343 2.035 . S
Zn339 O345 2.035 1_655 S
Zn339 O346 2.028 . S
O340 C336 1.258 . S
O340 Zn341 2.035 1_655 S
Zn341 O340 2.035 1_455 S
Zn341 O342 2.028 . S
Zn341 O344 2.028 . S
Zn341 O347 2.035 . S
O342 Zn341 2.028 . S
O342 C348 1.246 . S
O343 Zn339 2.035 . S
O343 C348 1.259 1_655 S
O344 C337 1.247 . S
O344 Zn341 2.028 . S
O345 C337 1.258 . S
O345 Zn339 2.035 1_455 S
O346 Zn339 2.028 . S
O346 C349 1.249 . S
O347 Zn341 2.035 . S
O347 C349 1.255 1_455 S
C348 O342 1.246 . S
C348 O343 1.259 1_455 S
C349 O346 1.249 . S
C349 O347 1.255 1_655 S
C350 O352 1.247 . S
C350 O354 1.258 . S
C351 O358 1.247 . S
C351 O359 1.258 . S
O352 C350 1.247 . S
O352 Zn353 2.028 . S
Zn353 O352 2.028 . S
Zn353 O357 2.035 . S
Zn353 O359 2.035 . S
Zn353 O360 2.028 . S
O354 C350 1.258 . S
O354 Zn355 2.035 . S
Zn355 O354 2.035 . S
Zn355 O356 2.028 . S
Zn355 O358 2.028 . S
Zn355 O361 2.035 . S
O356 Zn355 2.028 . S
O356 C362 1.247 . S
O357 Zn353 2.035 . S
O357 C362 1.258 . S
O358 C351 1.247 . S
O358 Zn355 2.028 . S
O359 C351 1.258 . S
O359 Zn353 2.035 . S
O360 Zn353 2.028 . S
O360 C363 1.247 . S
O361 Zn355 2.035 . S
O361 C363 1.258 . S
C362 O356 1.247 . S
C362 O357 1.258 . S
C363 O360 1.247 . S
C363 O361 1.258 . S
C364 O366 1.247 . S
C364 O368 1.258 . S
C365 O372 1.247 . S
C365 O373 1.258 . S
O366 C364 1.247 . S
O366 Zn367 2.028 1_455 S
Zn367 O366 2.028 1_655 S
Zn367 O371 2.035 . S
Zn367 O373 2.035 . S
Zn367 O374 2.028 . S
O368 C364 1.258 . S
O368 Zn369 2.035 . S
Zn369 O368 2.035 . S
Zn369 O370 2.028 . S
Zn369 O372 2.028 1_455 S
Zn369 O375 2.035 . S
O370 Zn369 2.028 . S
O370 C376 1.245 1_455 S
O371 Zn367 2.035 . S
O371 C376 1.259 . S
O372 C365 1.247 . S
O372 Zn369 2.028 1_655 S
O373 C365 1.258 . S
O373 Zn367 2.035 . S
O374 Zn367 2.028 . S
O374 C377 1.245 . S
O375 Zn369 2.035 . S
O375 C377 1.259 1_455 S
C376 O370 1.245 1_655 S
C376 O371 1.259 . S
C377 O374 1.245 . S
C377 O375 1.259 1_655 S
C378 O380 1.247 . S
C378 O382 1.258 . S
C379 O386 1.247 . S
C379 O387 1.258 . S
O380 C378 1.247 . S
O380 Zn381 2.028 . S
Zn381 O380 2.028 . S
Zn381 O385 2.035 . S
Zn381 O387 2.035 . S
Zn381 O388 2.028 . S
O382 C378 1.258 . S
O382 Zn383 2.035 . S
Zn383 O382 2.035 . S
Zn383 O384 2.028 . S
Zn383 O386 2.028 . S
Zn383 O389 2.035 . S
O384 Zn383 2.028 . S
O384 C390 1.247 . S
O385 Zn381 2.035 . S
O385 C390 1.258 . S
O386 C379 1.247 . S
O386 Zn383 2.028 . S
O387 C379 1.258 . S
O387 Zn381 2.035 . S
O388 Zn381 2.028 . S
O388 C391 1.247 . S
O389 Zn383 2.035 . S
O389 C391 1.258 . S
C390 O384 1.247 . S
C390 O385 1.258 . S
C391 O388 1.247 . S
C391 O389 1.258 . S
C392 O394 1.245 . S
C392 O396 1.259 1_455 S
C393 O400 1.245 1_455 S
C393 O401 1.259 . S
O394 C392 1.245 . S
O394 Zn395 2.028 . S
Zn395 O394 2.028 . S
Zn395 O399 2.035 . S
Zn395 O401 2.035 . S
Zn395 O402 2.028 1_455 S
O396 C392 1.259 1_655 S
O396 Zn397 2.035 . S
Zn397 O396 2.035 . S
Zn397 O398 2.028 1_655 S
Zn397 O400 2.028 . S
Zn397 O403 2.035 . S
O398 Zn397 2.028 1_455 S
O398 C404 1.247 . S
O399 Zn395 2.035 . S
O399 C404 1.258 . S
O400 C393 1.245 1_655 S
O400 Zn397 2.028 . S
O401 C393 1.259 . S
O401 Zn395 2.035 . S
O402 Zn395 2.028 1_655 S
O402 C405 1.247 . S
O403 Zn397 2.035 . S
O403 C405 1.258 . S
C404 O398 1.247 . S
C404 O399 1.258 . S
C405 O402 1.247 . S
C405 O403 1.258 . S
C406 O408 1.247 . S
C406 O410 1.258 . S
C407 O414 1.247 . S
C407 O415 1.258 . S
O408 C406 1.247 . S
O408 Zn409 2.028 . S
Zn409 O408 2.028 . S
Zn409 O413 2.035 . S
Zn409 O415 2.035 . S
Zn409 O416 2.028 . S
O410 C406 1.258 . S
O410 Zn411 2.035 . S
Zn411 O410 2.035 . S
Zn411 O412 2.028 . S
Zn411 O414 2.028 . S
Zn411 O417 2.035 . S
O412 Zn411 2.028 . S
O412 C418 1.247 . S
O413 Zn409 2.035 . S
O413 C418 1.258 . S
O414 C407 1.247 . S
O414 Zn411 2.028 . S
O415 C407 1.258 . S
O415 Zn409 2.035 . S
O416 Zn409 2.028 . S
O416 C419 1.247 . S
O417 Zn411 2.035 . S
O417 C419 1.258 . S
C418 O412 1.247 . S
C418 O413 1.258 . S
C419 O416 1.247 . S
C419 O417 1.258 . S
C420 O422 1.247 . S
C420 O424 1.258 . S
C421 O428 1.247 . S
C421 O429 1.258 . S
O422 C420 1.247 . S
O422 Zn423 2.028 1_455 S
Zn423 O422 2.028 1_655 S
Zn423 O427 2.035 . S
Zn423 O429 2.035 . S
Zn423 O430 2.028 . S
O424 C420 1.258 . S
O424 Zn425 2.035 . S
Zn425 O424 2.035 . S
Zn425 O426 2.028 . S
Zn425 O428 2.028 1_455 S
Zn425 O431 2.035 . S
O426 Zn425 2.028 . S
O426 C432 1.245 . S
O427 Zn423 2.035 . S
O427 C432 1.259 1_655 S
O428 C421 1.247 . S
O428 Zn425 2.028 1_655 S
O429 C421 1.258 . S
O429 Zn423 2.035 . S
O430 Zn423 2.028 . S
O430 C433 1.245 1_655 S
O431 Zn425 2.035 . S
O431 C433 1.259 . S
C432 O426 1.245 . S
C432 O427 1.259 1_455 S
C433 O430 1.245 1_455 S
C433 O431 1.259 . S
C434 O436 1.247 . S
C434 O438 1.258 . S
C435 O442 1.247 . S
C435 O443 1.258 . S
O436 C434 1.247 . S
O436 Zn437 2.028 . S
Zn437 O436 2.028 . S
Zn437 O441 2.035 . S
Zn437 O443 2.035 . S
Zn437 O444 2.028 . S
O438 C434 1.258 . S
O438 Zn439 2.035 . S
Zn439 O438 2.035 . S
Zn439 O440 2.028 . S
Zn439 O442 2.028 . S
Zn439 O445 2.035 . S
O440 Zn439 2.028 . S
O440 C446 1.247 . S
O441 Zn437 2.035 . S
O441 C446 1.258 . S
O442 C435 1.247 . S
O442 Zn439 2.028 . S
O443 C435 1.258 . S
O443 Zn437 2.035 . S
O444 Zn437 2.028 . S
O444 C447 1.247 . S
O445 Zn439 2.035 . S
O445 C447 1.258 . S
C446 O440 1.247 . S
C446 O441 1.258 . S
C447 O444 1.247 . S
C447 O445 1.258 . S
H448 C454 0.930 . S
H449 C458 0.930 . S
H450 C463 0.929 1_565 S
H451 C461 0.929 . S
H452 C456 0.929 . S
H453 C462 0.929 . S
C454 H448 0.930 . S
C454 C455 1.367 . S
C454 C462 1.378 . S
C455 C454 1.367 . S
C455 C463 1.433 . S
C456 H452 0.929 . S
C456 C458 1.378 . S
C456 C460 1.350 . S
C457 C460 1.463 . S
C457 C462 1.350 . S
C457 N465 1.427 . S
C458 H449 0.930 . S
C458 C456 1.378 . S
C458 C459 1.367 . S
C459 C458 1.367 . S
C459 C461 1.433 . S
C460 C456 1.350 . S
C460 C457 1.463 . S
C460 N464 1.427 . S
C461 H451 0.929 . S
C461 C459 1.433 . S
C461 N464 1.384 . S
C462 H453 0.929 . S
C462 C454 1.378 . S
C462 C457 1.350 . S
C463 H450 0.929 1_545 S
C463 C455 1.433 . S
C463 N465 1.384 . S
N464 C460 1.427 . S
N464 C461 1.384 . S
N465 C457 1.427 . S
N465 C463 1.384 . S
H466 C472 0.930 . S
H467 C476 0.930 . S
H468 C481 0.929 . S
H469 C479 0.929 . S
H470 C474 0.929 . S
H471 C480 0.929 . S
C472 H466 0.930 . S
C472 C473 1.367 . S
C472 C480 1.378 . S
C473 C472 1.367 . S
C473 C481 1.433 . S
C474 H470 0.929 . S
C474 C476 1.378 . S
C474 C478 1.350 . S
C475 C478 1.463 . S
C475 C480 1.350 . S
C475 N483 1.427 . S
C476 H467 0.930 . S
C476 C474 1.378 . S
C476 C477 1.367 . S
C477 C476 1.367 . S
C477 C479 1.433 . S
C478 C474 1.350 . S
C478 C475 1.463 . S
C478 N482 1.427 . S
C479 H469 0.929 . S
C479 C477 1.433 . S
C479 N482 1.384 . S
C480 H471 0.929 . S
C480 C472 1.378 . S
C480 C475 1.350 . S
C481 H468 0.929 . S
C481 C473 1.433 . S
C481 N483 1.384 . S
N482 C478 1.427 . S
N482 C479 1.384 . S
N483 C475 1.427 . S
N483 C481 1.384 . S
H484 C490 0.930 . S
H485 C494 0.930 . S
H486 C499 0.929 . S
H487 C497 0.938 . S
H488 C492 0.929 . S
H489 C498 0.929 . S
C490 H484 0.930 . S
C490 C491 1.367 . S
C490 C498 1.378 . S
C491 C490 1.367 . S
C491 C499 1.433 . S
C492 H488 0.929 . S
C492 C494 1.378 . S
C492 C496 1.350 . S
C493 C496 1.463 . S
C493 C498 1.350 . S
C493 N501 1.427 . S
C494 H485 0.930 . S
C494 C492 1.378 . S
C494 C495 1.367 . S
C495 C494 1.367 . S
C495 C497 1.433 . S
C496 C492 1.350 . S
C496 C493 1.463 . S
C496 N500 1.427 . S
C497 H487 0.938 . S
C497 C495 1.433 . S
C497 N500 1.384 . S
C498 H489 0.929 . S
C498 C490 1.378 . S
C498 C493 1.350 . S
C499 H486 0.929 . S
C499 C491 1.433 . S
C499 N501 1.384 . S
N500 C496 1.427 . S
N500 C497 1.384 . S
N501 C493 1.427 . S
N501 C499 1.384 . S
H502 C508 0.930 . S
H503 C512 0.930 . S
H504 C517 0.929 . S
H505 C515 0.929 . S
H506 C510 0.929 . S
H507 C516 0.929 . S
C508 H502 0.930 . S
C508 C509 1.367 . S
C508 C516 1.378 . S
C509 C508 1.367 . S
C509 C517 1.433 . S
C510 H506 0.929 . S
C510 C512 1.378 . S
C510 C514 1.350 . S
C511 C514 1.463 . S
C511 C516 1.350 . S
C511 N519 1.427 . S
C512 H503 0.930 . S
C512 C510 1.378 . S
C512 C513 1.367 . S
C513 C512 1.367 . S
C513 C515 1.433 . S
C514 C510 1.350 . S
C514 C511 1.463 . S
C514 N518 1.427 . S
C515 H505 0.929 . S
C515 C513 1.433 . S
C515 N518 1.384 . S
C516 H507 0.929 . S
C516 C508 1.378 . S
C516 C511 1.350 . S
C517 H504 0.929 . S
C517 C509 1.433 . S
C517 N519 1.384 . S
N518 C514 1.427 . S
N518 C515 1.384 . S
N519 C511 1.427 . S
N519 C517 1.384 . S
H520 C526 0.930 . S
H521 C530 0.930 . S
H522 C535 0.929 . S
H523 C533 0.929 . S
H524 C528 0.929 . S
H525 C534 0.929 . S
C526 H520 0.930 . S
C526 C527 1.367 . S
C526 C534 1.378 . S
C527 C526 1.367 . S
C527 C535 1.433 . S
C528 H524 0.929 . S
C528 C530 1.378 . S
C528 C532 1.350 . S
C529 C532 1.463 . S
C529 C534 1.350 . S
C529 N537 1.427 . S
C530 H521 0.930 . S
C530 C528 1.378 . S
C530 C531 1.367 . S
C531 C530 1.367 . S
C531 C533 1.433 . S
C532 C528 1.350 . S
C532 C529 1.463 . S
C532 N536 1.427 . S
C533 H523 0.929 . S
C533 C531 1.433 . S
C533 N536 1.384 . S
C534 H525 0.929 . S
C534 C526 1.378 . S
C534 C529 1.350 . S
C535 H522 0.929 . S
C535 C527 1.433 . S
C535 N537 1.384 . S
N536 C532 1.427 . S
N536 C533 1.384 . S
N537 C529 1.427 . S
N537 C535 1.384 . S
H538 C544 0.930 . S
H539 C548 0.930 . S
H540 C553 0.929 . S
H541 C551 0.929 . S
H542 C546 0.929 . S
H543 C552 0.929 . S
C544 H538 0.930 . S
C544 C545 1.367 . S
C544 C552 1.378 . S
C545 C544 1.367 . S
C545 C553 1.433 . S
C546 H542 0.929 . S
C546 C548 1.378 . S
C546 C550 1.350 . S
C547 C550 1.463 . S
C547 C552 1.350 . S
C547 N555 1.427 . S
C548 H539 0.930 . S
C548 C546 1.378 . S
C548 C549 1.367 . S
C549 C548 1.367 . S
C549 C551 1.433 . S
C550 C546 1.350 . S
C550 C547 1.463 . S
C550 N554 1.427 . S
C551 H541 0.929 . S
C551 C549 1.433 . S
C551 N554 1.384 . S
C552 H543 0.929 . S
C552 C544 1.378 . S
C552 C547 1.350 . S
C553 H540 0.929 . S
C553 C545 1.433 . S
C553 N555 1.384 . S
N554 C550 1.427 . S
N554 C551 1.384 . S
N555 C547 1.427 . S
N555 C553 1.384 . S
H556 C562 0.930 . S
H557 C566 0.930 . S
H558 C571 0.929 . S
H559 C569 0.929 . S
H560 C564 0.929 . S
H561 C570 0.929 . S
C562 H556 0.930 . S
C562 C563 1.367 . S
C562 C570 1.378 . S
C563 C562 1.367 . S
C563 C571 1.433 . S
C564 H560 0.929 . S
C564 C566 1.378 . S
C564 C568 1.350 . S
C565 C568 1.463 . S
C565 C570 1.350 . S
C565 N573 1.427 . S
C566 H557 0.930 . S
C566 C564 1.378 . S
C566 C567 1.367 . S
C567 C566 1.367 . S
C567 C569 1.433 . S
C568 C564 1.350 . S
C568 C565 1.463 . S
C568 N572 1.427 . S
C569 H559 0.929 . S
C569 C567 1.433 . S
C569 N572 1.384 . S
C570 H561 0.929 . S
C570 C562 1.378 . S
C570 C565 1.350 . S
C571 H558 0.929 . S
C571 C563 1.433 . S
C571 N573 1.384 . S
N572 C568 1.427 . S
N572 C569 1.384 . S
N573 C565 1.427 . S
N573 C571 1.384 . S
H574 C580 0.930 . S
H575 C584 0.930 . S
H576 C589 0.929 . S
H577 C587 0.929 . S
H578 C582 0.929 . S
H579 C588 0.929 . S
C580 H574 0.930 . S
C580 C581 1.367 . S
C580 C588 1.378 . S
C581 C580 1.367 . S
C581 C589 1.433 . S
C582 H578 0.929 . S
C582 C584 1.378 . S
C582 C586 1.350 . S
C583 C586 1.463 . S
C583 C588 1.350 . S
C583 N591 1.427 . S
C584 H575 0.930 . S
C584 C582 1.378 . S
C584 C585 1.367 . S
C585 C584 1.367 . S
C585 C587 1.433 . S
C586 C582 1.350 . S
C586 C583 1.463 . S
C586 N590 1.427 . S
C587 H577 0.929 . S
C587 C585 1.433 . S
C587 N590 1.384 . S
C588 H579 0.929 . S
C588 C580 1.378 . S
C588 C583 1.350 . S
C589 H576 0.929 . S
C589 C581 1.433 . S
C589 N591 1.384 . S
N590 C586 1.427 . S
N590 C587 1.384 . S
N591 C583 1.427 . S
N591 C589 1.384 . S
H592 C598 0.930 . S
H593 C602 0.930 . S
H594 C607 0.929 . S
H595 C605 0.929 . S
H596 C600 0.929 . S
H597 C606 0.929 . S
C598 H592 0.930 . S
C598 C599 1.324 1_655 S
C598 C606 1.378 . S
C599 C598 1.324 1_455 S
C599 C607 1.478 . S
C600 H596 0.929 . S
C600 C602 1.378 . S
C600 C604 1.350 . S
C601 C604 1.465 . S
C601 C606 1.318 1_455 S
C601 N609 1.460 . S
C602 H593 0.930 . S
C602 C600 1.378 . S
C602 C603 1.367 . S
C603 C602 1.367 . S
C603 C605 1.433 1_455 S
C604 C600 1.350 . S
C604 C601 1.465 . S
C604 N608 1.427 1_455 S
C605 H595 0.929 . S
C605 C603 1.433 1_655 S
C605 N608 1.384 . S
C606 H597 0.929 . S
C606 C598 1.378 . S
C606 C601 1.318 1_655 S
C607 H594 0.929 . S
C607 C599 1.478 . S
C607 N609 1.384 . S
N608 C604 1.427 1_655 S
N608 C605 1.384 . S
N609 C601 1.460 . S
N609 C607 1.384 . S
H610 C616 0.930 . S
H611 C620 0.930 1_565 S
H612 C625 0.929 . S
H613 C623 0.929 . S
H614 C618 0.929 . S
H615 C624 0.929 . S
C616 H610 0.930 . S
C616 C617 1.367 . S
C616 C624 1.378 . S
C617 C616 1.367 . S
C617 C625 1.433 . S
C618 H614 0.929 . S
C618 C620 1.378 . S
C618 C622 1.350 . S
C619 C622 1.463 . S
C619 C624 1.350 . S
C619 N627 1.427 . S
C620 H611 0.930 1_545 S
C620 C618 1.378 . S
C620 C621 1.367 . S
C621 C620 1.367 . S
C621 C623 1.433 . S
C622 C618 1.350 . S
C622 C619 1.463 . S
C622 N626 1.427 . S
C623 H613 0.929 . S
C623 C621 1.433 . S
C623 N626 1.384 . S
C624 H615 0.929 . S
C624 C616 1.378 . S
C624 C619 1.350 . S
C625 H612 0.929 . S
C625 C617 1.433 . S
C625 N627 1.384 . S
N626 C622 1.427 . S
N626 C623 1.384 . S
N627 C619 1.427 . S
N627 C625 1.384 . S
H628 C634 0.930 . S
H629 C638 0.930 . S
H630 C643 0.929 . S
H631 C641 0.929 . S
H632 C636 0.929 . S
H633 C642 0.929 . S
C634 H628 0.930 . S
C634 C635 1.367 . S
C634 C642 1.378 . S
C635 C634 1.367 . S
C635 C643 1.433 1_655 S
C636 H632 0.929 . S
C636 C638 1.378 . S
C636 C640 1.318 1_455 S
C637 C640 1.465 . S
C637 C642 1.350 . S
C637 N645 1.427 1_655 S
C638 H629 0.930 . S
C638 C636 1.378 . S
C638 C639 1.367 1_455 S
C639 C638 1.367 1_655 S
C639 C641 1.433 . S
C640 C636 1.318 1_655 S
C640 C637 1.465 . S
C640 N644 1.460 . S
C641 H631 0.929 . S
C641 C639 1.433 . S
C641 N644 1.384 . S
C642 H633 0.929 . S
C642 C634 1.378 . S
C642 C637 1.350 . S
C643 H630 0.929 . S
C643 C635 1.433 1_455 S
C643 N645 1.384 . S
N644 C640 1.460 . S
N644 C641 1.384 . S
N645 C637 1.427 1_455 S
N645 C643 1.384 . S
H646 C652 0.930 . S
H647 C656 0.930 1_545 S
H648 C661 0.929 . S
H649 C659 0.929 . S
H650 C654 0.929 . S
H651 C660 0.929 . S
C652 H646 0.930 . S
C652 C653 1.367 . S
C652 C660 1.378 . S
C653 C652 1.367 . S
C653 C661 1.433 . S
C654 H650 0.929 . S
C654 C656 1.378 . S
C654 C658 1.350 . S
C655 C658 1.463 . S
C655 C660 1.350 . S
C655 N663 1.427 . S
C656 H647 0.930 1_565 S
C656 C654 1.378 . S
C656 C657 1.367 . S
C657 C656 1.367 . S
C657 C659 1.433 . S
C658 C654 1.350 . S
C658 C655 1.463 . S
C658 N662 1.427 . S
C659 H649 0.929 . S
C659 C657 1.433 . S
C659 N662 1.384 . S
C660 H651 0.929 . S
C660 C652 1.378 . S
C660 C655 1.350 . S
C661 H648 0.929 . S
C661 C653 1.433 . S
C661 N663 1.384 . S
N662 C658 1.427 . S
N662 C659 1.384 . S
N663 C655 1.427 . S
N663 C661 1.384 . S
H664 C670 0.930 . S
H665 C674 0.930 . S
H666 C679 0.929 . S
H667 C677 0.929 . S
H668 C672 0.929 . S
H669 C678 0.929 . S
C670 H664 0.930 . S
C670 C671 1.367 . S
C670 C678 1.378 . S
C671 C670 1.367 . S
C671 C679 1.433 1_455 S
C672 H668 0.929 . S
C672 C674 1.378 . S
C672 C676 1.319 1_655 S
C673 C676 1.465 . S
C673 C678 1.350 . S
C673 N681 1.427 1_455 S
C674 H665 0.930 . S
C674 C672 1.378 . S
C674 C675 1.367 1_655 S
C675 C674 1.367 1_455 S
C675 C677 1.433 . S
C676 C672 1.319 1_455 S
C676 C673 1.465 . S
C676 N680 1.459 . S
C677 H667 0.929 . S
C677 C675 1.433 . S
C677 N680 1.384 . S
C678 H669 0.929 . S
C678 C670 1.378 . S
C678 C673 1.350 . S
C679 H666 0.929 . S
C679 C671 1.433 1_655 S
C679 N681 1.384 . S
N680 C676 1.459 . S
N680 C677 1.384 . S
N681 C673 1.427 1_655 S
N681 C679 1.384 . S
H682 C688 0.930 . S
H683 C692 0.930 . S
H684 C697 0.929 . S
H685 C695 0.929 . S
H686 C690 0.929 . S
H687 C696 0.929 . S
C688 H682 0.930 . S
C688 C689 1.367 . S
C688 C696 1.378 . S
C689 C688 1.367 . S
C689 C697 1.433 . S
C690 H686 0.929 . S
C690 C692 1.378 . S
C690 C694 1.350 . S
C691 C694 1.463 . S
C691 C696 1.350 . S
C691 N699 1.427 . S
C692 H683 0.930 . S
C692 C690 1.378 . S
C692 C693 1.367 . S
C693 C692 1.367 . S
C693 C695 1.433 . S
C694 C690 1.350 . S
C694 C691 1.463 . S
C694 N698 1.427 . S
C695 H685 0.929 . S
C695 C693 1.433 . S
C695 N698 1.384 . S
C696 H687 0.929 . S
C696 C688 1.378 . S
C696 C691 1.350 . S
C697 H684 0.929 . S
C697 C689 1.433 . S
C697 N699 1.384 . S
N698 C694 1.427 . S
N698 C695 1.384 . S
N699 C691 1.427 . S
N699 C697 1.384 . S
H700 C706 0.930 . S
H701 C710 0.930 . S
H702 C715 0.929 . S
H703 C713 0.929 . S
H704 C708 0.929 . S
H705 C714 0.929 . S
C706 H700 0.930 . S
C706 C707 1.367 . S
C706 C714 1.378 . S
C707 C706 1.367 . S
C707 C715 1.433 1_655 S
C708 H704 0.929 . S
C708 C710 1.378 . S
C708 C712 1.350 1_455 S
C709 C712 1.463 . S
C709 C714 1.350 . S
C709 N717 1.427 1_655 S
C710 H701 0.930 . S
C710 C708 1.378 . S
C710 C711 1.367 1_455 S
C711 C710 1.367 1_655 S
C711 C713 1.433 . S
C712 C708 1.350 1_655 S
C712 C709 1.463 . S
C712 N716 1.427 . S
C713 H703 0.929 . S
C713 C711 1.433 . S
C713 N716 1.384 . S
C714 H705 0.929 . S
C714 C706 1.378 . S
C714 C709 1.350 . S
C715 H702 0.929 . S
C715 C707 1.433 1_455 S
C715 N717 1.384 . S
N716 C712 1.427 . S
N716 C713 1.384 . S
N717 C709 1.427 1_455 S
N717 C715 1.384 . S
H718 C724 0.930 . S
H719 C728 0.930 . S
H720 C733 0.929 . S
H721 C731 0.929 . S
H722 C726 0.929 . S
H723 C732 0.929 . S
C724 H718 0.930 . S
C724 C725 1.367 . S
C724 C732 1.378 . S
C725 C724 1.367 . S
C725 C733 1.433 . S
C726 H722 0.929 . S
C726 C728 1.378 . S
C726 C730 1.350 . S
C727 C730 1.463 . S
C727 C732 1.350 . S
C727 N735 1.427 . S
C728 H719 0.930 . S
C728 C726 1.378 . S
C728 C729 1.367 . S
C729 C728 1.367 . S
C729 C731 1.433 . S
C730 C726 1.350 . S
C730 C727 1.463 . S
C730 N734 1.427 . S
C731 H721 0.929 . S
C731 C729 1.433 . S
C731 N734 1.384 . S
C732 H723 0.929 . S
C732 C724 1.378 . S
C732 C727 1.350 . S
C733 H720 0.929 . S
C733 C725 1.433 . S
C733 N735 1.384 . S
N734 C730 1.427 . S
N734 C731 1.384 . S
N735 C727 1.427 . S
N735 C733 1.384 . S
H736 C742 0.930 . S
H737 C746 0.930 . S
H738 C751 0.929 . S
H739 C749 0.929 . S
H740 C744 0.929 . S
H741 C750 0.929 . S
C742 H736 0.930 . S
C742 C743 1.367 . S
C742 C750 1.378 . S
C743 C742 1.367 . S
C743 C751 1.433 . S
C744 H740 0.929 . S
C744 C746 1.378 . S
C744 C748 1.350 . S
C745 C748 1.463 . S
C745 C750 1.350 . S
C745 N753 1.427 . S
C746 H737 0.930 . S
C746 C744 1.378 . S
C746 C747 1.367 . S
C747 C746 1.367 . S
C747 C749 1.433 . S
C748 C744 1.350 . S
C748 C745 1.463 . S
C748 N752 1.427 . S
C749 H739 0.929 . S
C749 C747 1.433 . S
C749 N752 1.384 . S
C750 H741 0.929 . S
C750 C742 1.378 . S
C750 C745 1.350 . S
C751 H738 0.929 . S
C751 C743 1.433 . S
C751 N753 1.384 . S
N752 C748 1.427 . S
N752 C749 1.384 . S
N753 C745 1.427 . S
N753 C751 1.384 . S
H754 C760 0.930 . S
H755 C764 0.930 . S
H756 C769 0.929 . S
H757 C767 0.929 . S
H758 C762 0.929 . S
H759 C768 0.929 . S
C760 H754 0.930 . S
C760 C761 1.367 . S
C760 C768 1.378 . S
C761 C760 1.367 . S
C761 C769 1.433 . S
C762 H758 0.929 . S
C762 C764 1.378 . S
C762 C766 1.350 . S
C763 C766 1.463 . S
C763 C768 1.350 . S
C763 N771 1.427 . S
C764 H755 0.930 . S
C764 C762 1.378 . S
C764 C765 1.367 . S
C765 C764 1.367 . S
C765 C767 1.433 . S
C766 C762 1.350 . S
C766 C763 1.463 . S
C766 N770 1.427 . S
C767 H757 0.929 . S
C767 C765 1.433 . S
C767 N770 1.384 . S
C768 H759 0.929 . S
C768 C760 1.378 . S
C768 C763 1.350 . S
C769 H756 0.929 . S
C769 C761 1.433 . S
C769 N771 1.384 . S
N770 C766 1.427 . S
N770 C767 1.384 . S
N771 C763 1.427 . S
N771 C769 1.384 . S
H772 C778 0.930 . S
H773 C782 0.930 . S
H774 C787 0.929 . S
H775 C785 0.929 . S
H776 C780 0.929 . S
H777 C786 0.929 . S
C778 H772 0.930 . S
C778 C779 1.367 . S
C778 C786 1.378 . S
C779 C778 1.367 . S
C779 C787 1.433 . S
C780 H776 0.929 . S
C780 C782 1.378 . S
C780 C784 1.350 . S
C781 C784 1.463 . S
C781 C786 1.350 . S
C781 N789 1.427 . S
C782 H773 0.930 . S
C782 C780 1.378 . S
C782 C783 1.367 . S
C783 C782 1.367 . S
C783 C785 1.433 . S
C784 C780 1.350 . S
C784 C781 1.463 . S
C784 N788 1.427 . S
C785 H775 0.929 . S
C785 C783 1.433 . S
C785 N788 1.384 . S
C786 H777 0.929 . S
C786 C778 1.378 . S
C786 C781 1.350 . S
C787 H774 0.929 . S
C787 C779 1.433 . S
C787 N789 1.384 . S
N788 C784 1.427 . S
N788 C785 1.384 . S
N789 C781 1.427 . S
N789 C787 1.384 . S
H790 C796 0.930 . S
H791 C800 0.930 . S
H792 C805 0.929 . S
H793 C803 0.929 . S
H794 C798 0.929 . S
H795 C804 0.929 . S
C796 H790 0.930 . S
C796 C797 1.367 . S
C796 C804 1.378 . S
C797 C796 1.367 . S
C797 C805 1.433 . S
C798 H794 0.929 . S
C798 C800 1.378 . S
C798 C802 1.350 . S
C799 C802 1.463 . S
C799 C804 1.350 . S
C799 N807 1.427 . S
C800 H791 0.930 . S
C800 C798 1.378 . S
C800 C801 1.367 . S
C801 C800 1.367 . S
C801 C803 1.433 . S
C802 C798 1.350 . S
C802 C799 1.463 . S
C802 N806 1.427 . S
C803 H793 0.929 . S
C803 C801 1.433 . S
C803 N806 1.384 . S
C804 H795 0.929 . S
C804 C796 1.378 . S
C804 C799 1.350 . S
C805 H792 0.929 . S
C805 C797 1.433 . S
C805 N807 1.384 . S
N806 C802 1.427 . S
N806 C803 1.384 . S
N807 C799 1.427 . S
N807 C805 1.384 . S
H808 C814 0.930 . S
H809 C818 0.930 . S
H810 C823 0.929 . S
H811 C821 0.929 . S
H812 C816 0.929 . S
H813 C822 0.929 . S
C814 H808 0.930 . S
C814 C815 1.367 . S
C814 C822 1.378 . S
C815 C814 1.367 . S
C815 C823 1.433 . S
C816 H812 0.929 . S
C816 C818 1.378 . S
C816 C820 1.350 . S
C817 C820 1.463 . S
C817 C822 1.350 . S
C817 N825 1.427 . S
C818 H809 0.930 . S
C818 C816 1.378 . S
C818 C819 1.367 . S
C819 C818 1.367 . S
C819 C821 1.433 . S
C820 C816 1.350 . S
C820 C817 1.463 . S
C820 N824 1.427 . S
C821 H811 0.929 . S
C821 C819 1.433 . S
C821 N824 1.384 . S
C822 H813 0.929 . S
C822 C814 1.378 . S
C822 C817 1.350 . S
C823 H810 0.929 . S
C823 C815 1.433 . S
C823 N825 1.384 . S
N824 C820 1.427 . S
N824 C821 1.384 . S
N825 C817 1.427 . S
N825 C823 1.384 . S
H826 C832 0.930 . S
H827 C836 0.930 . S
H828 C841 0.929 . S
H829 C839 0.929 . S
H830 C834 0.929 . S
H831 C840 0.929 . S
C832 H826 0.930 . S
C832 C833 1.367 . S
C832 C840 1.378 . S
C833 C832 1.367 . S
C833 C841 1.433 . S
C834 H830 0.929 . S
C834 C836 1.378 . S
C834 C838 1.350 . S
C835 C838 1.463 . S
C835 C840 1.350 . S
C835 N843 1.427 . S
C836 H827 0.930 . S
C836 C834 1.378 . S
C836 C837 1.367 . S
C837 C836 1.367 . S
C837 C839 1.433 . S
C838 C834 1.350 . S
C838 C835 1.463 . S
C838 N842 1.427 . S
C839 H829 0.929 . S
C839 C837 1.433 . S
C839 N842 1.384 . S
C840 H831 0.929 . S
C840 C832 1.378 . S
C840 C835 1.350 . S
C841 H828 0.929 . S
C841 C833 1.433 . S
C841 N843 1.384 . S
N842 C838 1.427 . S
N842 C839 1.384 . S
N843 C835 1.427 . S
N843 C841 1.384 . S
H844 C850 0.930 . S
H845 C854 0.930 . S
H846 C859 0.929 . S
H847 C857 0.929 . S
H848 C852 0.929 . S
H849 C858 0.929 . S
C850 H844 0.930 . S
C850 C851 1.367 . S
C850 C858 1.378 . S
C851 C850 1.367 . S
C851 C859 1.433 . S
C852 H848 0.929 . S
C852 C854 1.378 . S
C852 C856 1.350 . S
C853 C856 1.463 . S
C853 C858 1.350 . S
C853 N861 1.427 . S
C854 H845 0.930 . S
C854 C852 1.378 . S
C854 C855 1.367 . S
C855 C854 1.367 . S
C855 C857 1.433 . S
C856 C852 1.350 . S
C856 C853 1.463 . S
C856 N860 1.427 . S
C857 H847 0.929 . S
C857 C855 1.433 . S
C857 N860 1.384 . S
C858 H849 0.929 . S
C858 C850 1.378 . S
C858 C853 1.350 . S
C859 H846 0.929 . S
C859 C851 1.433 . S
C859 N861 1.384 . S
N860 C856 1.427 . S
N860 C857 1.384 . S
N861 C853 1.427 . S
N861 C859 1.384 . S
H862 C868 0.930 . S
H863 C872 0.930 . S
H864 C877 0.929 . S
H865 C875 0.929 . S
H866 C870 0.929 . S
H867 C876 0.929 . S
C868 H862 0.930 . S
C868 C869 1.367 . S
C868 C876 1.378 . S
C869 C868 1.367 . S
C869 C877 1.433 . S
C870 H866 0.929 . S
C870 C872 1.378 . S
C870 C874 1.350 . S
C871 C874 1.463 . S
C871 C876 1.350 . S
C871 N879 1.427 . S
C872 H863 0.930 . S
C872 C870 1.378 . S
C872 C873 1.367 . S
C873 C872 1.367 . S
C873 C875 1.433 . S
C874 C870 1.350 . S
C874 C871 1.463 . S
C874 N878 1.427 . S
C875 H865 0.929 . S
C875 C873 1.433 . S
C875 N878 1.384 . S
C876 H867 0.929 . S
C876 C868 1.378 . S
C876 C871 1.350 . S
C877 H864 0.929 . S
C877 C869 1.433 . S
C877 N879 1.384 . S
N878 C874 1.427 . S
N878 C875 1.384 . S
N879 C871 1.427 . S
N879 C877 1.384 . S
H880 C886 0.930 . S
H881 C890 0.930 . S
H882 C895 0.929 . S
H883 C893 0.929 . S
H884 C888 0.929 . S
H885 C894 0.929 . S
C886 H880 0.930 . S
C886 C887 1.367 . S
C886 C894 1.378 . S
C887 C886 1.367 . S
C887 C895 1.433 . S
C888 H884 0.929 . S
C888 C890 1.378 . S
C888 C892 1.350 . S
C889 C892 1.463 . S
C889 C894 1.350 . S
C889 N897 1.427 . S
C890 H881 0.930 . S
C890 C888 1.378 . S
C890 C891 1.367 . S
C891 C890 1.367 . S
C891 C893 1.433 . S
C892 C888 1.350 . S
C892 C889 1.463 . S
C892 N896 1.427 . S
C893 H883 0.929 . S
C893 C891 1.433 . S
C893 N896 1.384 . S
C894 H885 0.929 . S
C894 C886 1.378 . S
C894 C889 1.350 . S
C895 H882 0.929 . S
C895 C887 1.433 . S
C895 N897 1.384 . S
N896 C892 1.427 . S
N896 C893 1.384 . S
N897 C889 1.427 . S
N897 C895 1.384 . S
H898 C904 0.930 . S
H899 C908 0.930 1_545 S
H900 C913 0.929 . S
H901 C911 0.929 . S
H902 C906 0.929 . S
H903 C912 0.929 . S
C904 H898 0.930 . S
C904 C905 1.367 . S
C904 C912 1.378 . S
C905 C904 1.367 . S
C905 C913 1.433 . S
C906 H902 0.929 . S
C906 C908 1.378 . S
C906 C910 1.350 . S
C907 C910 1.463 . S
C907 C912 1.350 . S
C907 N915 1.427 . S
C908 H899 0.930 1_565 S
C908 C906 1.378 . S
C908 C909 1.367 . S
C909 C908 1.367 . S
C909 C911 1.433 . S
C910 C906 1.350 . S
C910 C907 1.463 . S
C910 N914 1.427 . S
C911 H901 0.929 . S
C911 C909 1.433 . S
C911 N914 1.384 . S
C912 H903 0.929 . S
C912 C904 1.378 . S
C912 C907 1.350 . S
C913 H900 0.929 . S
C913 C905 1.433 . S
C913 N915 1.384 . S
N914 C910 1.427 . S
N914 C911 1.384 . S
N915 C907 1.427 . S
N915 C913 1.384 . S
H916 C922 0.930 . S
H917 C926 0.930 . S
H918 C931 0.929 . S
H919 C929 0.929 . S
H920 C924 0.929 . S
H921 C930 0.929 . S
C922 H916 0.930 . S
C922 C923 1.367 . S
C922 C930 1.378 . S
C923 C922 1.367 . S
C923 C931 1.433 . S
C924 H920 0.929 . S
C924 C926 1.378 . S
C924 C928 1.350 . S
C925 C928 1.463 . S
C925 C930 1.350 . S
C925 N933 1.427 . S
C926 H917 0.930 . S
C926 C924 1.378 . S
C926 C927 1.367 . S
C927 C926 1.367 . S
C927 C929 1.433 . S
C928 C924 1.350 . S
C928 C925 1.463 . S
C928 N932 1.427 . S
C929 H919 0.929 . S
C929 C927 1.433 . S
C929 N932 1.384 . S
C930 H921 0.929 . S
C930 C922 1.378 . S
C930 C925 1.350 . S
C931 H918 0.929 . S
C931 C923 1.433 . S
C931 N933 1.384 . S
N932 C928 1.427 . S
N932 C929 1.384 . S
N933 C925 1.427 . S
N933 C931 1.384 . S
H934 C940 0.930 . S
H935 C944 0.930 . S
H936 C949 0.929 . S
H937 C947 0.929 . S
H938 C942 0.929 . S
H939 C948 0.929 . S
C940 H934 0.930 . S
C940 C941 1.367 . S
C940 C948 1.378 . S
C941 C940 1.367 . S
C941 C949 1.433 . S
C942 H938 0.929 . S
C942 C944 1.378 . S
C942 C946 1.350 . S
C943 C946 1.463 . S
C943 C948 1.350 . S
C943 N951 1.427 . S
C944 H935 0.930 . S
C944 C942 1.378 . S
C944 C945 1.367 . S
C945 C944 1.367 . S
C945 C947 1.433 . S
C946 C942 1.350 . S
C946 C943 1.463 . S
C946 N950 1.427 . S
C947 H937 0.929 . S
C947 C945 1.433 . S
C947 N950 1.384 . S
C948 H939 0.929 . S
C948 C940 1.378 . S
C948 C943 1.350 . S
C949 H936 0.929 . S
C949 C941 1.433 . S
C949 N951 1.384 . S
N950 C946 1.427 . S
N950 C947 1.384 . S
N951 C943 1.427 . S
N951 C949 1.384 . S
H952 C958 0.930 . S
H953 C962 0.930 . S
H954 C967 0.929 . S
H955 C965 0.929 . S
H956 C960 0.929 . S
H957 C966 0.929 . S
C958 H952 0.930 . S
C958 C959 1.367 . S
C958 C966 1.378 . S
C959 C958 1.367 . S
C959 C967 1.433 . S
C960 H956 0.929 . S
C960 C962 1.378 . S
C960 C964 1.350 . S
C961 C964 1.463 . S
C961 C966 1.350 . S
C961 N969 1.427 . S
C962 H953 0.930 . S
C962 C960 1.378 . S
C962 C963 1.367 . S
C963 C962 1.367 . S
C963 C965 1.433 . S
C964 C960 1.350 . S
C964 C961 1.463 . S
C964 N968 1.427 . S
C965 H955 0.929 . S
C965 C963 1.433 . S
C965 N968 1.384 . S
C966 H957 0.929 . S
C966 C958 1.378 . S
C966 C961 1.350 . S
C967 H954 0.929 . S
C967 C959 1.433 . S
C967 N969 1.384 . S
N968 C964 1.427 . S
N968 C965 1.384 . S
N969 C961 1.427 . S
N969 C967 1.384 . S
H970 C976 0.930 1_565 S
H971 C980 0.930 . S
H972 C985 0.929 . S
H973 C983 0.929 . S
H974 C978 0.929 . S
H975 C984 0.929 . S
C976 H970 0.930 1_545 S
C976 C977 1.367 . S
C976 C984 1.378 . S
C977 C976 1.367 . S
C977 C985 1.433 . S
C978 H974 0.929 . S
C978 C980 1.378 . S
C978 C982 1.350 . S
C979 C982 1.463 . S
C979 C984 1.350 . S
C979 N987 1.427 . S
C980 H971 0.930 . S
C980 C978 1.378 . S
C980 C981 1.367 . S
C981 C980 1.367 . S
C981 C983 1.433 . S
C982 C978 1.350 . S
C982 C979 1.463 . S
C982 N986 1.427 . S
C983 H973 0.929 . S
C983 C981 1.433 . S
C983 N986 1.384 . S
C984 H975 0.929 . S
C984 C976 1.378 . S
C984 C979 1.350 . S
C985 H972 0.929 . S
C985 C977 1.433 . S
C985 N987 1.384 . S
N986 C982 1.427 . S
N986 C983 1.384 . S
N987 C979 1.427 . S
N987 C985 1.384 . S
H988 C994 0.930 . S
H989 C998 0.930 . S
H990 C1003 0.929 . S
H991 C1001 0.929 . S
H992 C996 0.929 . S
H993 C1002 0.929 . S
C994 H988 0.930 . S
C994 C995 1.367 . S
C994 C1002 1.378 . S
C995 C994 1.367 . S
C995 C1003 1.433 . S
C996 H992 0.929 . S
C996 C998 1.378 . S
C996 C1000 1.350 . S
C997 C1000 1.463 . S
C997 C1002 1.350 . S
C997 N1005 1.427 . S
C998 H989 0.930 . S
C998 C996 1.378 . S
C998 C999 1.367 . S
C999 C998 1.367 . S
C999 C1001 1.433 . S
C1000 C996 1.350 . S
C1000 C997 1.463 . S
C1000 N1004 1.427 . S
C1001 H991 0.929 . S
C1001 C999 1.433 . S
C1001 N1004 1.384 . S
C1002 H993 0.929 . S
C1002 C994 1.378 . S
C1002 C997 1.350 . S
C1003 H990 0.929 . S
C1003 C995 1.433 . S
C1003 N1005 1.384 . S
N1004 C1000 1.427 . S
N1004 C1001 1.384 . S
N1005 C997 1.427 . S
N1005 C1003 1.384 . S
H1006 C1012 0.930 . S
H1007 C1016 0.930 . S
H1008 C1021 0.929 . S
H1009 C1019 0.929 . S
H1010 C1014 0.929 . S
H1011 C1020 0.929 . S
C1012 H1006 0.930 . S
C1012 C1013 1.367 . S
C1012 C1020 1.378 . S
C1013 C1012 1.367 . S
C1013 C1021 1.433 . S
C1014 H1010 0.929 . S
C1014 C1016 1.378 . S
C1014 C1018 1.350 . S
C1015 C1018 1.463 . S
C1015 C1020 1.350 . S
C1015 N1023 1.427 . S
C1016 H1007 0.930 . S
C1016 C1014 1.378 . S
C1016 C1017 1.367 . S
C1017 C1016 1.367 . S
C1017 C1019 1.433 . S
C1018 C1014 1.350 . S
C1018 C1015 1.463 . S
C1018 N1022 1.427 . S
C1019 H1009 0.929 . S
C1019 C1017 1.433 . S
C1019 N1022 1.384 . S
C1020 H1011 0.929 . S
C1020 C1012 1.378 . S
C1020 C1015 1.350 . S
C1021 H1008 0.929 . S
C1021 C1013 1.433 . S
C1021 N1023 1.384 . S
N1022 C1018 1.427 . S
N1022 C1019 1.384 . S
N1023 C1015 1.427 . S
N1023 C1021 1.384 . S
H1024 C1030 0.930 . S
H1025 C1034 0.930 . S
H1026 C1039 0.929 . S
H1027 C1037 0.929 . S
H1028 C1032 0.929 . S
H1029 C1038 0.929 . S
C1030 H1024 0.930 . S
C1030 C1031 1.367 1_545 S
C1030 C1038 1.378 . S
C1031 C1030 1.367 1_565 S
C1031 C1039 1.433 . S
C1032 H1028 0.929 . S
C1032 C1034 1.378 . S
C1032 C1036 1.342 1_565 S
C1033 C1036 1.462 1_564 S
C1033 C1038 1.343 1_565 S
C1033 N1041 1.435 . S
C1034 H1025 0.930 . S
C1034 C1032 1.378 . S
C1034 C1035 1.367 1_565 S
C1035 C1034 1.367 1_545 S
C1035 C1037 1.433 . S
C1036 C1032 1.342 1_545 S
C1036 C1033 1.462 1_546 S
C1036 N1040 1.436 . S
C1037 H1027 0.929 . S
C1037 C1035 1.433 . S
C1037 N1040 1.384 . S
C1038 H1029 0.929 . S
C1038 C1030 1.378 . S
C1038 C1033 1.343 1_545 S
C1039 H1026 0.929 . S
C1039 C1031 1.433 . S
C1039 N1041 1.384 . S
N1040 C1036 1.436 . S
N1040 C1037 1.384 . S
N1041 C1033 1.435 . S
N1041 C1039 1.384 . S
H1042 C1048 0.930 . S
H1043 C1052 0.930 . S
H1044 C1057 0.929 . S
H1045 C1055 0.929 . S
H1046 C1050 0.929 . S
H1047 C1056 0.929 . S
C1048 H1042 0.930 . S
C1048 C1049 1.367 . S
C1048 C1056 1.378 . S
C1049 C1048 1.367 . S
C1049 C1057 1.433 . S
C1050 H1046 0.929 . S
C1050 C1052 1.378 . S
C1050 C1054 1.350 . S
C1051 C1054 1.463 1_554 S
C1051 C1056 1.350 . S
C1051 N1059 1.427 . S
C1052 H1043 0.930 . S
C1052 C1050 1.378 . S
C1052 C1053 1.367 . S
C1053 C1052 1.367 . S
C1053 C1055 1.433 . S
C1054 C1050 1.350 . S
C1054 C1051 1.463 1_556 S
C1054 N1058 1.427 . S
C1055 H1045 0.929 . S
C1055 C1053 1.433 . S
C1055 N1058 1.384 . S
C1056 H1047 0.929 . S
C1056 C1048 1.378 . S
C1056 C1051 1.350 . S
C1057 H1044 0.929 . S
C1057 C1049 1.433 . S
C1057 N1059 1.384 . S
N1058 C1054 1.427 . S
N1058 C1055 1.384 . S
N1059 C1051 1.427 . S
N1059 C1057 1.384 . S
H1060 C1066 0.930 . S
H1061 C1070 0.930 . S
H1062 C1075 0.929 . S
H1063 C1073 0.929 . S
H1064 C1068 0.929 . S
H1065 C1074 0.929 . S
C1066 H1060 0.930 . S
C1066 C1067 1.367 . S
C1066 C1074 1.378 . S
C1067 C1066 1.367 . S
C1067 C1075 1.433 . S
C1068 H1064 0.929 . S
C1068 C1070 1.378 . S
C1068 C1072 1.350 . S
C1069 C1072 1.463 . S
C1069 C1074 1.350 . S
C1069 N1077 1.427 . S
C1070 H1061 0.930 . S
C1070 C1068 1.378 . S
C1070 C1071 1.367 . S
C1071 C1070 1.367 . S
C1071 C1073 1.433 . S
C1072 C1068 1.350 . S
C1072 C1069 1.463 . S
C1072 N1076 1.427 . S
C1073 H1063 0.929 . S
C1073 C1071 1.433 . S
C1073 N1076 1.384 . S
C1074 H1065 0.929 . S
C1074 C1066 1.378 . S
C1074 C1069 1.350 . S
C1075 H1062 0.929 . S
C1075 C1067 1.433 . S
C1075 N1077 1.384 . S
N1076 C1072 1.427 . S
N1076 C1073 1.384 . S
N1077 C1069 1.427 . S
N1077 C1075 1.384 . S
H1078 C1084 0.930 . S
H1079 C1088 0.930 . S
H1080 C1093 0.929 . S
H1081 C1091 0.929 . S
H1082 C1086 0.929 . S
H1083 C1092 0.929 . S
C1084 H1078 0.930 . S
C1084 C1085 1.367 . S
C1084 C1092 1.378 . S
C1085 C1084 1.367 . S
C1085 C1093 1.433 1_565 S
C1086 H1082 0.929 . S
C1086 C1088 1.378 . S
C1086 C1090 1.350 . S
C1087 C1090 1.463 1_565 S
C1087 C1092 1.350 . S
C1087 N1095 1.427 1_565 S
C1088 H1079 0.930 . S
C1088 C1086 1.378 . S
C1088 C1089 1.367 . S
C1089 C1088 1.367 . S
C1089 C1091 1.433 1_545 S
C1090 C1086 1.350 . S
C1090 C1087 1.463 1_545 S
C1090 N1094 1.427 1_545 S
C1091 H1081 0.929 . S
C1091 C1089 1.433 1_565 S
C1091 N1094 1.384 . S
C1092 H1083 0.929 . S
C1092 C1084 1.378 . S
C1092 C1087 1.350 . S
C1093 H1080 0.929 . S
C1093 C1085 1.433 1_545 S
C1093 N1095 1.384 . S
N1094 C1090 1.427 1_565 S
N1094 C1091 1.384 . S
N1095 C1087 1.427 1_545 S
N1095 C1093 1.384 . S
H1096 C1102 0.930 . S
H1097 C1106 0.930 . S
H1098 C1111 0.929 . S
H1099 C1109 0.929 . S
H1100 C1104 0.929 . S
H1101 C1110 0.929 . S
C1102 H1096 0.930 . S
C1102 C1103 1.367 . S
C1102 C1110 1.378 . S
C1103 C1102 1.367 . S
C1103 C1111 1.433 . S
C1104 H1100 0.929 . S
C1104 C1106 1.378 . S
C1104 C1108 1.350 . S
C1105 C1108 1.463 1_556 S
C1105 C1110 1.350 . S
C1105 N1113 1.427 . S
C1106 H1097 0.930 . S
C1106 C1104 1.378 . S
C1106 C1107 1.367 . S
C1107 C1106 1.367 . S
C1107 C1109 1.433 . S
C1108 C1104 1.350 . S
C1108 C1105 1.463 1_554 S
C1108 N1112 1.427 . S
C1109 H1099 0.929 . S
C1109 C1107 1.433 . S
C1109 N1112 1.384 . S
C1110 H1101 0.929 . S
C1110 C1102 1.378 . S
C1110 C1105 1.350 . S
C1111 H1098 0.929 . S
C1111 C1103 1.433 . S
C1111 N1113 1.384 . S
N1112 C1108 1.427 . S
N1112 C1109 1.384 . S
N1113 C1105 1.427 . S
N1113 C1111 1.384 . S
H1114 C1120 0.930 . S
H1115 C1124 0.930 . S
H1116 C1129 0.929 . S
H1117 C1127 0.929 . S
H1118 C1122 0.929 . S
H1119 C1128 0.929 . S
C1120 H1114 0.930 . S
C1120 C1121 1.367 . S
C1120 C1128 1.378 . S
C1121 C1120 1.367 . S
C1121 C1129 1.433 . S
C1122 H1118 0.929 . S
C1122 C1124 1.378 . S
C1122 C1126 1.350 . S
C1123 C1126 1.463 . S
C1123 C1128 1.350 . S
C1123 N1131 1.427 . S
C1124 H1115 0.930 . S
C1124 C1122 1.378 . S
C1124 C1125 1.367 . S
C1125 C1124 1.367 . S
C1125 C1127 1.433 . S
C1126 C1122 1.350 . S
C1126 C1123 1.463 . S
C1126 N1130 1.427 . S
C1127 H1117 0.929 . S
C1127 C1125 1.433 . S
C1127 N1130 1.384 . S
C1128 H1119 0.929 . S
C1128 C1120 1.378 . S
C1128 C1123 1.350 . S
C1129 H1116 0.929 . S
C1129 C1121 1.433 . S
C1129 N1131 1.384 . S
N1130 C1126 1.427 . S
N1130 C1127 1.384 . S
N1131 C1123 1.427 . S
N1131 C1129 1.384 . S
H1132 C1138 0.930 . S
H1133 C1142 0.930 . S
H1134 C1147 0.929 . S
H1135 C1145 0.929 . S
H1136 C1140 0.929 . S
H1137 C1146 0.929 . S
C1138 H1132 0.930 . S
C1138 C1139 1.367 1_545 S
C1138 C1146 1.378 . S
C1139 C1138 1.367 1_565 S
C1139 C1147 1.433 . S
C1140 H1136 0.929 . S
C1140 C1142 1.378 . S
C1140 C1144 1.349 . S
C1141 C1144 1.462 . S
C1141 C1146 1.350 1_565 S
C1141 N1149 1.427 . S
C1142 H1133 0.930 . S
C1142 C1140 1.378 . S
C1142 C1143 1.367 1_565 S
C1143 C1142 1.367 1_545 S
C1143 C1145 1.433 . S
C1144 C1140 1.349 . S
C1144 C1141 1.462 . S
C1144 N1148 1.428 1_565 S
C1145 H1135 0.929 . S
C1145 C1143 1.433 . S
C1145 N1148 1.384 . S
C1146 H1137 0.929 . S
C1146 C1138 1.378 . S
C1146 C1141 1.350 1_545 S
C1147 H1134 0.929 . S
C1147 C1139 1.433 . S
C1147 N1149 1.384 . S
N1148 C1144 1.428 1_545 S
N1148 C1145 1.384 . S
N1149 C1141 1.427 . S
N1149 C1147 1.384 . S
H1150 C1156 0.930 . S
H1151 C1160 0.930 . S
H1152 C1165 0.929 . S
H1153 C1163 0.929 . S
H1154 C1158 0.929 . S
H1155 C1164 0.929 . S
C1156 H1150 0.930 . S
C1156 C1157 1.367 . S
C1156 C1164 1.378 . S
C1157 C1156 1.367 . S
C1157 C1165 1.433 . S
C1158 H1154 0.929 . S
C1158 C1160 1.378 . S
C1158 C1162 1.350 . S
C1159 C1162 1.463 . S
C1159 C1164 1.350 . S
C1159 N1167 1.427 . S
C1160 H1151 0.930 . S
C1160 C1158 1.378 . S
C1160 C1161 1.367 . S
C1161 C1160 1.367 . S
C1161 C1163 1.433 . S
C1162 C1158 1.350 . S
C1162 C1159 1.463 . S
C1162 N1166 1.427 . S
C1163 H1153 0.929 . S
C1163 C1161 1.433 . S
C1163 N1166 1.384 . S
C1164 H1155 0.929 . S
C1164 C1156 1.378 . S
C1164 C1159 1.350 . S
C1165 H1152 0.929 . S
C1165 C1157 1.433 . S
C1165 N1167 1.384 . S
N1166 C1162 1.427 . S
N1166 C1163 1.384 . S
N1167 C1159 1.427 . S
N1167 C1165 1.384 . S
H1168 C1174 0.930 . S
H1169 C1178 0.930 . S
H1170 C1183 0.929 . S
H1171 C1181 0.929 . S
H1172 C1176 0.929 . S
H1173 C1182 0.929 . S
C1174 H1168 0.930 . S
C1174 C1175 1.367 . S
C1174 C1182 1.378 . S
C1175 C1174 1.367 . S
C1175 C1183 1.433 . S
C1176 H1172 0.929 . S
C1176 C1178 1.378 . S
C1176 C1180 1.350 . S
C1177 C1180 1.463 . S
C1177 C1182 1.350 . S
C1177 N1185 1.427 . S
C1178 H1169 0.930 . S
C1178 C1176 1.378 . S
C1178 C1179 1.367 . S
C1179 C1178 1.367 . S
C1179 C1181 1.433 . S
C1180 C1176 1.350 . S
C1180 C1177 1.463 . S
C1180 N1184 1.427 . S
C1181 H1171 0.929 . S
C1181 C1179 1.433 . S
C1181 N1184 1.384 . S
C1182 H1173 0.929 . S
C1182 C1174 1.378 . S
C1182 C1177 1.350 . S
C1183 H1170 0.929 . S
C1183 C1175 1.433 . S
C1183 N1185 1.384 . S
N1184 C1180 1.427 . S
N1184 C1181 1.384 . S
N1185 C1177 1.427 . S
N1185 C1183 1.384 . S
H1186 C1192 0.930 . S
H1187 C1196 0.930 . S
H1188 C1201 0.929 . S
H1189 C1199 0.929 . S
H1190 C1194 0.929 . S
H1191 C1200 0.929 . S
C1192 H1186 0.930 . S
C1192 C1193 1.367 . S
C1192 C1200 1.378 . S
C1193 C1192 1.367 . S
C1193 C1201 1.433 . S
C1194 H1190 0.929 . S
C1194 C1196 1.378 . S
C1194 C1198 1.350 . S
C1195 C1198 1.463 . S
C1195 C1200 1.350 . S
C1195 N1203 1.427 . S
C1196 H1187 0.930 . S
C1196 C1194 1.378 . S
C1196 C1197 1.367 . S
C1197 C1196 1.367 . S
C1197 C1199 1.433 . S
C1198 C1194 1.350 . S
C1198 C1195 1.463 . S
C1198 N1202 1.427 . S
C1199 H1189 0.929 . S
C1199 C1197 1.433 . S
C1199 N1202 1.384 . S
C1200 H1191 0.929 . S
C1200 C1192 1.378 . S
C1200 C1195 1.350 . S
C1201 H1188 0.929 . S
C1201 C1193 1.433 . S
C1201 N1203 1.384 . S
N1202 C1198 1.427 . S
N1202 C1199 1.384 . S
N1203 C1195 1.427 . S
N1203 C1201 1.384 . S
H1204 C1210 0.930 . S
H1205 C1214 0.930 . S
H1206 C1219 0.929 . S
H1207 C1217 0.929 . S
H1208 C1212 0.929 . S
H1209 C1218 0.929 . S
C1210 H1204 0.930 . S
C1210 C1211 1.367 . S
C1210 C1218 1.378 . S
C1211 C1210 1.367 . S
C1211 C1219 1.433 . S
C1212 H1208 0.929 . S
C1212 C1214 1.378 . S
C1212 C1216 1.350 . S
C1213 C1216 1.463 . S
C1213 C1218 1.350 . S
C1213 N1221 1.427 . S
C1214 H1205 0.930 . S
C1214 C1212 1.378 . S
C1214 C1215 1.367 . S
C1215 C1214 1.367 . S
C1215 C1217 1.433 . S
C1216 C1212 1.350 . S
C1216 C1213 1.463 . S
C1216 N1220 1.427 . S
C1217 H1207 0.929 . S
C1217 C1215 1.433 . S
C1217 N1220 1.384 . S
C1218 H1209 0.929 . S
C1218 C1210 1.378 . S
C1218 C1213 1.350 . S
C1219 H1206 0.929 . S
C1219 C1211 1.433 . S
C1219 N1221 1.384 . S
N1220 C1216 1.427 . S
N1220 C1217 1.384 . S
N1221 C1213 1.427 . S
N1221 C1219 1.384 . S
H1222 C1228 0.930 . S
H1223 C1232 0.930 . S
H1224 C1237 0.929 . S
H1225 C1235 0.929 . S
H1226 C1230 0.929 . S
H1227 C1236 0.929 . S
C1228 H1222 0.930 . S
C1228 C1229 1.367 . S
C1228 C1236 1.378 . S
C1229 C1228 1.367 . S
C1229 C1237 1.433 . S
C1230 H1226 0.929 . S
C1230 C1232 1.378 . S
C1230 C1234 1.350 . S
C1231 C1234 1.463 . S
C1231 C1236 1.350 . S
C1231 N1239 1.427 . S
C1232 H1223 0.930 . S
C1232 C1230 1.378 . S
C1232 C1233 1.367 . S
C1233 C1232 1.367 . S
C1233 C1235 1.433 . S
C1234 C1230 1.350 . S
C1234 C1231 1.463 . S
C1234 N1238 1.427 . S
C1235 H1225 0.929 . S
C1235 C1233 1.433 . S
C1235 N1238 1.384 . S
C1236 H1227 0.929 . S
C1236 C1228 1.378 . S
C1236 C1231 1.350 . S
C1237 H1224 0.929 . S
C1237 C1229 1.433 . S
C1237 N1239 1.384 . S
N1238 C1234 1.427 . S
N1238 C1235 1.384 . S
N1239 C1231 1.427 . S
N1239 C1237 1.384 . S
H1240 C1246 0.930 . S
H1241 C1250 0.930 . S
H1242 C1255 0.929 . S
H1243 C1253 0.929 . S
H1244 C1248 0.929 . S
H1245 C1254 0.929 . S
C1246 H1240 0.930 . S
C1246 C1247 1.367 1_565 S
C1246 C1254 1.378 . S
C1247 C1246 1.367 1_545 S
C1247 C1255 1.433 1_455 S
C1248 H1244 0.929 . S
C1248 C1250 1.378 . S
C1248 C1252 1.356 . S
C1249 C1252 1.461 1_465 S
C1249 C1254 1.360 . S
C1249 N1257 1.418 1_465 S
C1250 H1241 0.930 . S
C1250 C1248 1.378 . S
C1250 C1251 1.367 1_545 S
C1251 C1250 1.367 1_565 S
C1251 C1253 1.433 1_655 S
C1252 C1248 1.356 . S
C1252 C1249 1.461 1_645 S
C1252 N1256 1.422 1_645 S
C1253 H1243 0.929 . S
C1253 C1251 1.433 1_455 S
C1253 N1256 1.384 . S
C1254 H1245 0.929 . S
C1254 C1246 1.378 . S
C1254 C1249 1.360 . S
C1255 H1242 0.929 . S
C1255 C1247 1.433 1_655 S
C1255 N1257 1.384 . S
N1256 C1252 1.422 1_465 S
N1256 C1253 1.384 . S
N1257 C1249 1.418 1_645 S
N1257 C1255 1.384 . S
H1258 C1264 0.930 . S
H1259 C1268 0.930 . S
H1260 C1273 0.929 . S
H1261 C1271 0.929 . S
H1262 C1266 0.929 . S
H1263 C1272 0.929 . S
C1264 H1258 0.930 . S
C1264 C1265 1.367 . S
C1264 C1272 1.378 . S
C1265 C1264 1.367 . S
C1265 C1273 1.433 1_655 S
C1266 H1262 0.929 . S
C1266 C1268 1.378 . S
C1266 C1270 1.366 . S
C1267 C1270 1.460 1_655 S
C1267 C1272 1.372 . S
C1267 N1275 1.407 1_655 S
C1268 H1259 0.930 . S
C1268 C1266 1.378 . S
C1268 C1269 1.367 . S
C1269 C1268 1.367 . S
C1269 C1271 1.433 1_455 S
C1270 C1266 1.366 . S
C1270 C1267 1.460 1_455 S
C1270 N1274 1.412 1_455 S
C1271 H1261 0.929 . S
C1271 C1269 1.433 1_655 S
C1271 N1274 1.384 . S
C1272 H1263 0.929 . S
C1272 C1264 1.378 . S
C1272 C1267 1.372 . S
C1273 H1260 0.929 . S
C1273 C1265 1.433 1_455 S
C1273 N1275 1.384 . S
N1274 C1270 1.412 1_655 S
N1274 C1271 1.384 . S
N1275 C1267 1.407 1_455 S
N1275 C1273 1.384 . S
H1276 C1282 0.930 . S
H1277 C1286 0.930 . S
H1278 C1291 0.929 . S
H1279 C1289 0.929 . S
H1280 C1284 0.929 . S
H1281 C1290 0.929 . S
C1282 H1276 0.930 . S
C1282 C1283 1.367 1_455 S
C1282 C1290 1.378 . S
C1283 C1282 1.367 1_655 S
C1283 C1291 1.433 . S
C1284 H1280 0.929 . S
C1284 C1286 1.378 . S
C1284 C1288 1.354 . S
C1285 C1288 1.462 1_455 S
C1285 C1290 1.348 . S
C1285 N1293 1.429 1_455 S
C1286 H1277 0.930 . S
C1286 C1284 1.378 . S
C1286 C1287 1.345 1_655 S
C1287 C1286 1.345 1_455 S
C1287 C1289 1.456 . S
C1288 C1284 1.354 . S
C1288 C1285 1.462 1_655 S
C1288 N1292 1.423 1_655 S
C1289 H1279 0.929 . S
C1289 C1287 1.456 . S
C1289 N1292 1.384 . S
C1290 H1281 0.929 . S
C1290 C1282 1.378 . S
C1290 C1285 1.348 . S
C1291 H1278 0.929 . S
C1291 C1283 1.433 . S
C1291 N1293 1.384 . S
N1292 C1288 1.423 1_455 S
N1292 C1289 1.384 . S
N1293 C1285 1.429 1_655 S
N1293 C1291 1.384 . S
H1294 C1300 0.930 . S
H1295 C1304 0.930 . S
H1296 C1309 0.929 . S
H1297 C1307 0.929 . S
H1298 C1302 0.929 . S
H1299 C1308 0.929 . S
C1300 H1294 0.930 . S
C1300 C1301 1.367 . S
C1300 C1308 1.378 . S
C1301 C1300 1.367 . S
C1301 C1309 1.433 1_455 S
C1302 H1298 0.929 . S
C1302 C1304 1.378 . S
C1302 C1306 1.359 . S
C1303 C1306 1.461 1_456 S
C1303 C1308 1.364 . S
C1303 N1311 1.414 1_455 S
C1304 H1295 0.930 . S
C1304 C1302 1.378 . S
C1304 C1305 1.367 . S
C1305 C1304 1.367 . S
C1305 C1307 1.433 1_655 S
C1306 C1302 1.359 . S
C1306 C1303 1.461 1_654 S
C1306 N1310 1.419 1_655 S
C1307 H1297 0.929 . S
C1307 C1305 1.433 1_455 S
C1307 N1310 1.384 . S
C1308 H1299 0.929 . S
C1308 C1300 1.378 . S
C1308 C1303 1.364 . S
C1309 H1296 0.929 . S
C1309 C1301 1.433 1_655 S
C1309 N1311 1.384 . S
N1310 C1306 1.419 1_455 S
N1310 C1307 1.384 . S
N1311 C1303 1.414 1_655 S
N1311 C1309 1.384 . S
H1312 C1318 0.930 . S
H1313 C1322 0.930 . S
H1314 C1327 0.929 . S
H1315 C1325 0.929 . S
H1316 C1320 0.929 . S
H1317 C1326 0.929 . S
C1318 H1312 0.930 . S
C1318 C1319 1.367 . S
C1318 C1326 1.378 . S
C1319 C1318 1.367 . S
C1319 C1327 1.433 . S
C1320 H1316 0.929 . S
C1320 C1322 1.378 . S
C1320 C1324 1.350 . S
C1321 C1324 1.463 . S
C1321 C1326 1.350 . S
C1321 N1329 1.427 . S
C1322 H1313 0.930 . S
C1322 C1320 1.378 . S
C1322 C1323 1.367 . S
C1323 C1322 1.367 . S
C1323 C1325 1.433 . S
C1324 C1320 1.350 . S
C1324 C1321 1.463 . S
C1324 N1328 1.427 . S
C1325 H1315 0.929 . S
C1325 C1323 1.433 . S
C1325 N1328 1.384 . S
C1326 H1317 0.929 . S
C1326 C1318 1.378 . S
C1326 C1321 1.350 . S
C1327 H1314 0.929 . S
C1327 C1319 1.433 . S
C1327 N1329 1.384 . S
N1328 C1324 1.427 . S
N1328 C1325 1.384 . S
N1329 C1321 1.427 . S
N1329 C1327 1.384 . S
H1330 C1336 0.930 . S
H1331 C1340 0.930 . S
H1332 C1345 0.929 . S
H1333 C1343 0.929 . S
H1334 C1338 0.929 . S
H1335 C1344 0.929 . S
C1336 H1330 0.930 . S
C1336 C1337 1.367 . S
C1336 C1344 1.378 . S
C1337 C1336 1.367 . S
C1337 C1345 1.433 . S
C1338 H1334 0.929 . S
C1338 C1340 1.378 . S
C1338 C1342 1.350 . S
C1339 C1342 1.463 . S
C1339 C1344 1.350 . S
C1339 N1347 1.427 . S
C1340 H1331 0.930 . S
C1340 C1338 1.378 . S
C1340 C1341 1.367 . S
C1341 C1340 1.367 . S
C1341 C1343 1.433 . S
C1342 C1338 1.350 . S
C1342 C1339 1.463 . S
C1342 N1346 1.427 . S
C1343 H1333 0.929 . S
C1343 C1341 1.433 . S
C1343 N1346 1.384 . S
C1344 H1335 0.929 . S
C1344 C1336 1.378 . S
C1344 C1339 1.350 . S
C1345 H1332 0.929 . S
C1345 C1337 1.433 . S
C1345 N1347 1.384 . S
N1346 C1342 1.427 . S
N1346 C1343 1.384 . S
N1347 C1339 1.427 . S
N1347 C1345 1.384 . S
H1348 C1354 0.930 . S
H1349 C1358 0.930 . S
H1350 C1363 0.929 . S
H1351 C1361 0.929 . S
H1352 C1356 0.929 . S
H1353 C1362 0.929 . S
C1354 H1348 0.930 . S
C1354 C1355 1.367 . S
C1354 C1362 1.378 . S
C1355 C1354 1.367 . S
C1355 C1363 1.433 . S
C1356 H1352 0.929 . S
C1356 C1358 1.378 . S
C1356 C1360 1.350 . S
C1357 C1360 1.463 . S
C1357 C1362 1.350 . S
C1357 N1365 1.427 . S
C1358 H1349 0.930 . S
C1358 C1356 1.378 . S
C1358 C1359 1.367 . S
C1359 C1358 1.367 . S
C1359 C1361 1.433 . S
C1360 C1356 1.350 . S
C1360 C1357 1.463 . S
C1360 N1364 1.427 . S
C1361 H1351 0.929 . S
C1361 C1359 1.433 . S
C1361 N1364 1.384 . S
C1362 H1353 0.929 . S
C1362 C1354 1.378 . S
C1362 C1357 1.350 . S
C1363 H1350 0.929 . S
C1363 C1355 1.433 . S
C1363 N1365 1.384 . S
N1364 C1360 1.427 . S
N1364 C1361 1.384 . S
N1365 C1357 1.427 . S
N1365 C1363 1.384 . S
H1366 C1372 0.930 . S
H1367 C1376 0.930 . S
H1368 C1381 0.929 . S
H1369 C1379 0.929 . S
H1370 C1374 0.929 . S
H1371 C1380 0.929 . S
C1372 H1366 0.930 . S
C1372 C1373 1.367 . S
C1372 C1380 1.378 . S
C1373 C1372 1.367 . S
C1373 C1381 1.433 . S
C1374 H1370 0.929 . S
C1374 C1376 1.378 . S
C1374 C1378 1.350 . S
C1375 C1378 1.463 . S
C1375 C1380 1.350 . S
C1375 N1383 1.427 . S
C1376 H1367 0.930 . S
C1376 C1374 1.378 . S
C1376 C1377 1.367 . S
C1377 C1376 1.367 . S
C1377 C1379 1.433 . S
C1378 C1374 1.350 . S
C1378 C1375 1.463 . S
C1378 N1382 1.427 . S
C1379 H1369 0.929 . S
C1379 C1377 1.433 . S
C1379 N1382 1.384 . S
C1380 H1371 0.929 . S
C1380 C1372 1.378 . S
C1380 C1375 1.350 . S
C1381 H1368 0.929 . S
C1381 C1373 1.433 . S
C1381 N1383 1.384 . S
N1382 C1378 1.427 . S
N1382 C1379 1.384 . S
N1383 C1375 1.427 . S
N1383 C1381 1.384 . S
H1384 C1390 0.930 . S
H1385 C1394 0.930 . S
H1386 C1399 0.929 . S
H1387 C1397 0.929 . S
H1388 C1392 0.929 . S
H1389 C1398 0.929 . S
C1390 H1384 0.930 . S
C1390 C1391 1.367 . S
C1390 C1398 1.378 . S
C1391 C1390 1.367 . S
C1391 C1399 1.433 . S
C1392 H1388 0.929 . S
C1392 C1394 1.378 . S
C1392 C1396 1.350 . S
C1393 C1396 1.463 . S
C1393 C1398 1.350 . S
C1393 N1401 1.427 . S
C1394 H1385 0.930 . S
C1394 C1392 1.378 . S
C1394 C1395 1.367 . S
C1395 C1394 1.367 . S
C1395 C1397 1.433 . S
C1396 C1392 1.350 . S
C1396 C1393 1.463 . S
C1396 N1400 1.427 . S
C1397 H1387 0.929 . S
C1397 C1395 1.433 . S
C1397 N1400 1.384 . S
C1398 H1389 0.929 . S
C1398 C1390 1.378 . S
C1398 C1393 1.350 . S
C1399 H1386 0.929 . S
C1399 C1391 1.433 . S
C1399 N1401 1.384 . S
N1400 C1396 1.427 . S
N1400 C1397 1.384 . S
N1401 C1393 1.427 . S
N1401 C1399 1.384 . S
H1402 C1408 0.930 . S
H1403 C1412 0.930 . S
H1404 C1417 0.929 . S
H1405 C1415 0.929 . S
H1406 C1410 0.929 . S
H1407 C1416 0.929 . S
C1408 H1402 0.930 . S
C1408 C1409 1.367 . S
C1408 C1416 1.378 . S
C1409 C1408 1.367 . S
C1409 C1417 1.433 . S
C1410 H1406 0.929 . S
C1410 C1412 1.378 . S
C1410 C1414 1.350 . S
C1411 C1414 1.463 . S
C1411 C1416 1.350 . S
C1411 N1419 1.427 . S
C1412 H1403 0.930 . S
C1412 C1410 1.378 . S
C1412 C1413 1.367 . S
C1413 C1412 1.367 . S
C1413 C1415 1.433 . S
C1414 C1410 1.350 . S
C1414 C1411 1.463 . S
C1414 N1418 1.427 . S
C1415 H1405 0.929 . S
C1415 C1413 1.433 . S
C1415 N1418 1.384 . S
C1416 H1407 0.929 . S
C1416 C1408 1.378 . S
C1416 C1411 1.350 . S
C1417 H1404 0.929 . S
C1417 C1409 1.433 . S
C1417 N1419 1.384 . S
N1418 C1414 1.427 . S
N1418 C1415 1.384 . S
N1419 C1411 1.427 . S
N1419 C1417 1.384 . S
H1420 C1426 0.930 . S
H1421 C1430 0.930 . S
H1422 C1435 0.929 . S
H1423 C1433 0.929 . S
H1424 C1428 0.929 . S
H1425 C1434 0.929 . S
C1426 H1420 0.930 . S
C1426 C1427 1.367 . S
C1426 C1434 1.378 . S
C1427 C1426 1.367 . S
C1427 C1435 1.433 . S
C1428 H1424 0.929 . S
C1428 C1430 1.378 . S
C1428 C1432 1.350 . S
C1429 C1432 1.463 . S
C1429 C1434 1.350 . S
C1429 N1437 1.427 . S
C1430 H1421 0.930 . S
C1430 C1428 1.378 . S
C1430 C1431 1.367 . S
C1431 C1430 1.367 . S
C1431 C1433 1.433 . S
C1432 C1428 1.350 . S
C1432 C1429 1.463 . S
C1432 N1436 1.427 . S
C1433 H1423 0.929 . S
C1433 C1431 1.433 . S
C1433 N1436 1.384 . S
C1434 H1425 0.929 . S
C1434 C1426 1.378 . S
C1434 C1429 1.350 . S
C1435 H1422 0.929 . S
C1435 C1427 1.433 . S
C1435 N1437 1.384 . S
N1436 C1432 1.427 . S
N1436 C1433 1.384 . S
N1437 C1429 1.427 . S
N1437 C1435 1.384 . S
H1438 C1444 0.930 . S
H1439 C1448 0.930 . S
H1440 C1453 0.929 . S
H1441 C1451 0.929 . S
H1442 C1446 0.929 . S
H1443 C1452 0.929 . S
C1444 H1438 0.930 . S
C1444 C1445 1.367 . S
C1444 C1452 1.378 . S
C1445 C1444 1.367 . S
C1445 C1453 1.433 . S
C1446 H1442 0.929 . S
C1446 C1448 1.378 . S
C1446 C1450 1.350 . S
C1447 C1450 1.463 . S
C1447 C1452 1.350 . S
C1447 N1455 1.427 . S
C1448 H1439 0.930 . S
C1448 C1446 1.378 . S
C1448 C1449 1.367 . S
C1449 C1448 1.367 . S
C1449 C1451 1.433 . S
C1450 C1446 1.350 . S
C1450 C1447 1.463 . S
C1450 N1454 1.427 . S
C1451 H1441 0.929 . S
C1451 C1449 1.433 . S
C1451 N1454 1.384 . S
C1452 H1443 0.929 . S
C1452 C1444 1.378 . S
C1452 C1447 1.350 . S
C1453 H1440 0.929 . S
C1453 C1445 1.433 . S
C1453 N1455 1.384 . S
N1454 C1450 1.427 . S
N1454 C1451 1.384 . S
N1455 C1447 1.427 . S
N1455 C1453 1.384 . S
H1456 C1462 0.930 . S
H1457 C1466 0.930 . S
H1458 C1471 0.929 . S
H1459 C1469 0.929 . S
H1460 C1464 0.929 . S
H1461 C1470 0.929 . S
C1462 H1456 0.930 . S
C1462 C1463 1.367 . S
C1462 C1470 1.378 . S
C1463 C1462 1.367 . S
C1463 C1471 1.433 . S
C1464 H1460 0.929 . S
C1464 C1466 1.378 . S
C1464 C1468 1.350 . S
C1465 C1468 1.463 . S
C1465 C1470 1.350 . S
C1465 N1473 1.427 . S
C1466 H1457 0.930 . S
C1466 C1464 1.378 . S
C1466 C1467 1.367 . S
C1467 C1466 1.367 . S
C1467 C1469 1.433 . S
C1468 C1464 1.350 . S
C1468 C1465 1.463 . S
C1468 N1472 1.427 . S
C1469 H1459 0.929 . S
C1469 C1467 1.433 . S
C1469 N1472 1.384 . S
C1470 H1461 0.929 . S
C1470 C1462 1.378 . S
C1470 C1465 1.350 . S
C1471 H1458 0.929 . S
C1471 C1463 1.433 . S
C1471 N1473 1.384 . S
N1472 C1468 1.427 . S
N1472 C1469 1.384 . S
N1473 C1465 1.427 . S
N1473 C1471 1.384 . S
H1474 C1480 0.930 . S
H1475 C1484 0.930 . S
H1476 C1489 0.929 . S
H1477 C1487 0.929 . S
H1478 C1482 0.929 . S
H1479 C1488 0.929 . S
C1480 H1474 0.930 . S
C1480 C1481 1.367 . S
C1480 C1488 1.378 . S
C1481 C1480 1.367 . S
C1481 C1489 1.433 . S
C1482 H1478 0.929 . S
C1482 C1484 1.378 . S
C1482 C1486 1.350 . S
C1483 C1486 1.463 . S
C1483 C1488 1.350 . S
C1483 N1491 1.427 . S
C1484 H1475 0.930 . S
C1484 C1482 1.378 . S
C1484 C1485 1.367 . S
C1485 C1484 1.367 . S
C1485 C1487 1.433 . S
C1486 C1482 1.350 . S
C1486 C1483 1.463 . S
C1486 N1490 1.427 . S
C1487 H1477 0.929 . S
C1487 C1485 1.433 . S
C1487 N1490 1.384 . S
C1488 H1479 0.929 . S
C1488 C1480 1.378 . S
C1488 C1483 1.350 . S
C1489 H1476 0.929 . S
C1489 C1481 1.433 . S
C1489 N1491 1.384 . S
N1490 C1486 1.427 . S
N1490 C1487 1.384 . S
N1491 C1483 1.427 . S
N1491 C1489 1.384 . S
H1492 C1498 0.930 . S
H1493 C1502 0.930 . S
H1494 C1507 0.929 . S
H1495 C1505 0.929 . S
H1496 C1500 0.929 . S
H1497 C1506 0.929 . S
C1498 H1492 0.930 . S
C1498 C1499 1.367 . S
C1498 C1506 1.378 . S
C1499 C1498 1.367 . S
C1499 C1507 1.433 . S
C1500 H1496 0.929 . S
C1500 C1502 1.378 . S
C1500 C1504 1.350 . S
C1501 C1504 1.463 . S
C1501 C1506 1.350 . S
C1501 N1509 1.427 . S
C1502 H1493 0.930 . S
C1502 C1500 1.378 . S
C1502 C1503 1.367 . S
C1503 C1502 1.367 . S
C1503 C1505 1.433 . S
C1504 C1500 1.350 . S
C1504 C1501 1.463 . S
C1504 N1508 1.427 . S
C1505 H1495 0.929 . S
C1505 C1503 1.433 . S
C1505 N1508 1.384 . S
C1506 H1497 0.929 . S
C1506 C1498 1.378 . S
C1506 C1501 1.350 . S
C1507 H1494 0.929 . S
C1507 C1499 1.433 . S
C1507 N1509 1.384 . S
N1508 C1504 1.427 . S
N1508 C1505 1.384 . S
N1509 C1501 1.427 . S
N1509 C1507 1.384 . S
H1510 C1516 0.930 . S
H1511 C1520 0.930 . S
H1512 C1525 0.929 . S
H1513 C1523 0.929 1_545 S
H1514 C1518 0.929 . S
H1515 C1524 0.929 . S
C1516 H1510 0.930 . S
C1516 C1517 1.367 . S
C1516 C1524 1.378 . S
C1517 C1516 1.367 . S
C1517 C1525 1.433 . S
C1518 H1514 0.929 . S
C1518 C1520 1.378 . S
C1518 C1522 1.350 . S
C1519 C1522 1.463 . S
C1519 C1524 1.350 . S
C1519 N1527 1.427 . S
C1520 H1511 0.930 . S
C1520 C1518 1.378 . S
C1520 C1521 1.367 . S
C1521 C1520 1.367 . S
C1521 C1523 1.433 . S
C1522 C1518 1.350 . S
C1522 C1519 1.463 . S
C1522 N1526 1.427 . S
C1523 H1513 0.929 1_565 S
C1523 C1521 1.433 . S
C1523 N1526 1.384 . S
C1524 H1515 0.929 . S
C1524 C1516 1.378 . S
C1524 C1519 1.350 . S
C1525 H1512 0.929 . S
C1525 C1517 1.433 . S
C1525 N1527 1.384 . S
N1526 C1522 1.427 . S
N1526 C1523 1.384 . S
N1527 C1519 1.427 . S
N1527 C1525 1.384 . S
H1528 C1534 0.930 . S
H1529 C1538 0.930 . S
H1530 C1543 0.929 . S
H1531 C1541 0.929 . S
H1532 C1536 0.929 . S
H1533 C1542 0.929 . S
C1534 H1528 0.930 . S
C1534 C1535 1.367 . S
C1534 C1542 1.378 . S
C1535 C1534 1.367 . S
C1535 C1543 1.433 . S
C1536 H1532 0.929 . S
C1536 C1538 1.378 . S
C1536 C1540 1.350 . S
C1537 C1540 1.463 . S
C1537 C1542 1.350 . S
C1537 N1545 1.427 . S
C1538 H1529 0.930 . S
C1538 C1536 1.378 . S
C1538 C1539 1.367 . S
C1539 C1538 1.367 . S
C1539 C1541 1.433 . S
C1540 C1536 1.350 . S
C1540 C1537 1.463 . S
C1540 N1544 1.427 . S
C1541 H1531 0.929 . S
C1541 C1539 1.433 . S
C1541 N1544 1.384 . S
C1542 H1533 0.929 . S
C1542 C1534 1.378 . S
C1542 C1537 1.350 . S
C1543 H1530 0.929 . S
C1543 C1535 1.433 . S
C1543 N1545 1.384 . S
N1544 C1540 1.427 . S
N1544 C1541 1.384 . S
N1545 C1537 1.427 . S
N1545 C1543 1.384 . S
H1546 C1552 0.930 . S
H1547 C1556 0.930 . S
H1548 C1561 0.929 . S
H1549 C1559 0.929 . S
H1550 C1554 0.929 . S
H1551 C1560 0.929 . S
C1552 H1546 0.930 . S
C1552 C1553 1.367 . S
C1552 C1560 1.378 . S
C1553 C1552 1.367 . S
C1553 C1561 1.433 . S
C1554 H1550 0.929 . S
C1554 C1556 1.378 . S
C1554 C1558 1.350 . S
C1555 C1558 1.463 . S
C1555 C1560 1.350 . S
C1555 N1563 1.427 . S
C1556 H1547 0.930 . S
C1556 C1554 1.378 . S
C1556 C1557 1.367 . S
C1557 C1556 1.367 . S
C1557 C1559 1.433 . S
C1558 C1554 1.350 . S
C1558 C1555 1.463 . S
C1558 N1562 1.427 . S
C1559 H1549 0.929 . S
C1559 C1557 1.433 . S
C1559 N1562 1.384 . S
C1560 H1551 0.929 . S
C1560 C1552 1.378 . S
C1560 C1555 1.350 . S
C1561 H1548 0.929 . S
C1561 C1553 1.433 . S
C1561 N1563 1.384 . S
N1562 C1558 1.427 . S
N1562 C1559 1.384 . S
N1563 C1555 1.427 . S
N1563 C1561 1.384 . S
H1564 C1570 0.930 . S
H1565 C1574 0.930 . S
H1566 C1579 0.929 . S
H1567 C1577 0.929 . S
H1568 C1572 0.929 . S
H1569 C1578 0.929 . S
C1570 H1564 0.930 . S
C1570 C1571 1.367 . S
C1570 C1578 1.378 . S
C1571 C1570 1.367 . S
C1571 C1579 1.433 . S
C1572 H1568 0.929 . S
C1572 C1574 1.378 . S
C1572 C1576 1.350 . S
C1573 C1576 1.463 . S
C1573 C1578 1.350 . S
C1573 N1581 1.427 . S
C1574 H1565 0.930 . S
C1574 C1572 1.378 . S
C1574 C1575 1.367 . S
C1575 C1574 1.367 . S
C1575 C1577 1.433 . S
C1576 C1572 1.350 . S
C1576 C1573 1.463 . S
C1576 N1580 1.427 . S
C1577 H1567 0.929 . S
C1577 C1575 1.433 . S
C1577 N1580 1.384 . S
C1578 H1569 0.929 . S
C1578 C1570 1.378 . S
C1578 C1573 1.350 . S
C1579 H1566 0.929 . S
C1579 C1571 1.433 . S
C1579 N1581 1.384 . S
N1580 C1576 1.427 . S
N1580 C1577 1.384 . S
N1581 C1573 1.427 . S
N1581 C1579 1.384 . S
H1582 C1588 0.930 . S
H1583 C1592 0.930 . S
H1584 C1597 0.929 . S
H1585 C1595 0.929 . S
H1586 C1590 0.929 . S
H1587 C1596 0.929 . S
C1588 H1582 0.930 . S
C1588 C1589 1.367 . S
C1588 C1596 1.378 . S
C1589 C1588 1.367 . S
C1589 C1597 1.433 . S
C1590 H1586 0.929 . S
C1590 C1592 1.378 . S
C1590 C1594 1.350 . S
C1591 C1594 1.463 . S
C1591 C1596 1.350 . S
C1591 N1599 1.427 . S
C1592 H1583 0.930 . S
C1592 C1590 1.378 . S
C1592 C1593 1.367 . S
C1593 C1592 1.367 . S
C1593 C1595 1.433 . S
C1594 C1590 1.350 . S
C1594 C1591 1.463 . S
C1594 N1598 1.427 . S
C1595 H1585 0.929 . S
C1595 C1593 1.433 . S
C1595 N1598 1.384 . S
C1596 H1587 0.929 . S
C1596 C1588 1.378 . S
C1596 C1591 1.350 . S
C1597 H1584 0.929 . S
C1597 C1589 1.433 . S
C1597 N1599 1.384 . S
N1598 C1594 1.427 . S
N1598 C1595 1.384 . S
N1599 C1591 1.427 . S
N1599 C1597 1.384 . S
C455 C13 1.595 . S
C459 C29 1.596 . S
C473 C55 1.591 . S
C477 C27 1.589 . S
C491 C85 1.598 . S
C495 C57 1.596 . S
C509 C98 1.592 . S
C513 C82 1.595 . S
C527 C113 1.599 . S
C531 C141 1.601 . S
C545 C167 1.594 . S
C549 C127 1.594 . S
C563 C169 1.598 . S
C567 C197 1.596 . S
C581 C223 1.592 . S
C585 C183 1.590 . S
C599 C224 1.583 . S
C603 C265 1.586 1_455 S
C617 C238 1.600 . S
C621 C279 1.598 . S
C635 C321 1.586 . S
C639 C280 1.582 1_655 S
C653 C295 1.599 . S
C657 C334 1.599 . S
C671 C377 1.587 1_455 S
C675 C348 1.586 . S
C689 C390 1.595 . S
C693 C362 1.598 . S
C707 C432 1.583 1_655 S
C711 C392 1.582 1_655 S
C725 C406 1.594 . S
C729 C446 1.592 . S
C743 C350 1.706 . S
C747 C1 1.708 . S
C761 C15 1.705 . S
C765 C336 1.697 . S
C779 C41 1.706 . S
C783 C378 1.707 . S
C797 C43 1.705 . S
C801 C365 1.697 . S
C815 C418 1.705 . S
C819 C69 1.709 . S
C833 C70 1.703 . S
C837 C404 1.700 . S
C851 C97 1.708 . S
C855 C434 1.705 . S
C869 C420 1.702 . S
C873 C110 1.700 . S
C887 C125 1.706 . S
C891 C250 1.708 . S
C905 C139 1.703 . S
C909 C236 1.699 . S
C923 C153 1.705 . S
C927 C267 1.708 . S
C941 C155 1.704 . S
C945 C253 1.696 . S
C959 C181 1.709 . S
C963 C307 1.706 . S
C977 C292 1.704 . S
C981 C195 1.699 . S
C995 C322 1.709 . S
C999 C209 1.706 . S
C1013 C211 1.705 . S
C1017 C309 1.698 . S
C1031 C12 1.595 . S
C1035 C56 1.593 . S
C1049 C26 1.595 . S
C1053 C407 1.595 . S
C1067 C28 1.603 . S
C1071 C196 1.602 . S
C1085 C54 1.595 . S
C1089 C335 1.595 . S
C1103 C83 1.594 . S
C1107 C363 1.592 . S
C1121 C140 1.603 . S
C1125 C84 1.602 . S
C1139 C278 1.594 . S
C1143 C99 1.594 . S
C1157 C168 1.598 . S
C1161 C112 1.599 . S
C1175 C126 1.591 . S
C1179 C294 1.589 . S
C1193 C447 1.598 . S
C1197 C166 1.599 . S
C1211 C182 1.594 . S
C1215 C239 1.594 . S
C1229 C222 1.591 . S
C1233 C391 1.591 . S
C1247 C281 1.585 . S
C1251 C225 1.583 . S
C1265 C264 1.591 . S
C1269 C433 1.591 . S
C1283 C376 1.583 . S
C1287 C320 1.581 . S
C1301 C393 1.591 . S
C1305 C349 1.590 . S
C1319 C0 1.308 . S
C1323 C14 1.306 . S
C1337 C40 1.311 . S
C1341 C42 1.307 . S
C1355 C68 1.305 . S
C1359 C71 1.309 . S
C1373 C96 1.310 . S
C1377 C111 1.309 . S
C1391 C138 1.311 . S
C1395 C124 1.308 . S
C1409 C152 1.308 . S
C1413 C154 1.306 . S
C1427 C180 1.311 . S
C1431 C194 1.308 . S
C1445 C208 1.309 . S
C1449 C210 1.306 . S
C1463 C237 1.316 . S
C1467 C251 1.318 . S
C1481 C266 1.317 . S
C1485 C252 1.321 . S
C1499 C293 1.317 . S
C1503 C306 1.319 . S
C1517 C308 1.317 . S
C1521 C323 1.321 . S
C1535 C351 1.317 . S
C1539 C337 1.318 . S
C1553 C364 1.312 . S
C1557 C379 1.320 . S
C1571 C419 1.312 . S
C1575 C405 1.320 . S
C1589 C421 1.318 . S
C1593 C435 1.320 . S
