# Generated by pormake.
# Topology lcs-e, (6)-cn, num edge types: 1
# Building blocks:
#     Node 0, Type 0, BuildingBlock: BETDEL_clean_sbu_0, # of connection points: 6
#     Node 1, Type 0, BuildingBlock: BETDEL_clean_sbu_0, # of connection points: 6
#     Node 2, Type 0, BuildingBlock: BETDEL_clean_sbu_0, # of connection points: 6
#     Node 3, Type 0, BuildingBlock: BETDEL_clean_sbu_0, # of connection points: 6
#     Node 4, Type 0, BuildingBlock: BETDEL_clean_sbu_0, # of connection points: 6
#     Node 5, Type 0, BuildingBlock: BETDEL_clean_sbu_0, # of connection points: 6
#     Node 6, Type 0, BuildingBlock: BETDEL_clean_sbu_0, # of connection points: 6
#     Node 7, Type 0, BuildingBlock: BETDEL_clean_sbu_0, # of connection points: 6
#     Node 8, Type 0, BuildingBlock: BETDEL_clean_sbu_0, # of connection points: 6
#     Node 9, Type 0, BuildingBlock: BETDEL_clean_sbu_0, # of connection points: 6
#     Node 10, Type 0, BuildingBlock: BETDEL_clean_sbu_0, # of connection points: 6
#     Node 11, Type 0, BuildingBlock: BETDEL_clean_sbu_0, # of connection points: 6
#     Node 12, Type 0, BuildingBlock: BETDEL_clean_sbu_0, # of connection points: 6
#     Node 13, Type 0, BuildingBlock: BETDEL_clean_sbu_0, # of connection points: 6
#     Node 14, Type 0, BuildingBlock: BETDEL_clean_sbu_0, # of connection points: 6
#     Node 15, Type 0, BuildingBlock: BETDEL_clean_sbu_0, # of connection points: 6
#     Node 16, Type 0, BuildingBlock: BETDEL_clean_sbu_0, # of connection points: 6
#     Node 17, Type 0, BuildingBlock: BETDEL_clean_sbu_0, # of connection points: 6
#     Node 18, Type 0, BuildingBlock: BETDEL_clean_sbu_0, # of connection points: 6
#     Node 19, Type 0, BuildingBlock: BETDEL_clean_sbu_0, # of connection points: 6
#     Node 20, Type 0, BuildingBlock: BETDEL_clean_sbu_0, # of connection points: 6
#     Node 21, Type 0, BuildingBlock: BETDEL_clean_sbu_0, # of connection points: 6
#     Node 22, Type 0, BuildingBlock: BETDEL_clean_sbu_0, # of connection points: 6
#     Node 23, Type 0, BuildingBlock: BETDEL_clean_sbu_0, # of connection points: 6
#     Node 24, Type 0, BuildingBlock: BETDEL_clean_sbu_0, # of connection points: 6
#     Node 25, Type 0, BuildingBlock: BETDEL_clean_sbu_0, # of connection points: 6
#     Node 26, Type 0, BuildingBlock: BETDEL_clean_sbu_0, # of connection points: 6
#     Node 27, Type 0, BuildingBlock: BETDEL_clean_sbu_0, # of connection points: 6
#     Node 28, Type 0, BuildingBlock: BETDEL_clean_sbu_0, # of connection points: 6
#     Node 29, Type 0, BuildingBlock: BETDEL_clean_sbu_0, # of connection points: 6
#     Node 30, Type 0, BuildingBlock: BETDEL_clean_sbu_0, # of connection points: 6
#     Node 31, Type 0, BuildingBlock: BETDEL_clean_sbu_0, # of connection points: 6
#     Node 32, Type 0, BuildingBlock: BETDEL_clean_sbu_0, # of connection points: 6
#     Node 33, Type 0, BuildingBlock: BETDEL_clean_sbu_0, # of connection points: 6
#     Node 34, Type 0, BuildingBlock: BETDEL_clean_sbu_0, # of connection points: 6
#     Node 35, Type 0, BuildingBlock: BETDEL_clean_sbu_0, # of connection points: 6
#     Node 36, Type 0, BuildingBlock: BETDEL_clean_sbu_0, # of connection points: 6
#     Node 37, Type 0, BuildingBlock: BETDEL_clean_sbu_0, # of connection points: 6
#     Node 38, Type 0, BuildingBlock: BETDEL_clean_sbu_0, # of connection points: 6
#     Node 39, Type 0, BuildingBlock: BETDEL_clean_sbu_0, # of connection points: 6
#     Node 40, Type 0, BuildingBlock: BETDEL_clean_sbu_0, # of connection points: 6
#     Node 41, Type 0, BuildingBlock: BETDEL_clean_sbu_0, # of connection points: 6
#     Node 42, Type 0, BuildingBlock: BETDEL_clean_sbu_0, # of connection points: 6
#     Node 43, Type 0, BuildingBlock: BETDEL_clean_sbu_0, # of connection points: 6
#     Node 44, Type 0, BuildingBlock: BETDEL_clean_sbu_0, # of connection points: 6
#     Node 45, Type 0, BuildingBlock: BETDEL_clean_sbu_0, # of connection points: 6
#     Node 46, Type 0, BuildingBlock: BETDEL_clean_sbu_0, # of connection points: 6
#     Node 47, Type 0, BuildingBlock: BETDEL_clean_sbu_0, # of connection points: 6
#     Edge 48, Type (0, 0), BuildingBlock: KIFKEQ_clean_linker_1, # of connection points: 2
#     Edge 49, Type (0, 0), BuildingBlock: KIFKEQ_clean_linker_1, # of connection points: 2
#     Edge 50, Type (0, 0), BuildingBlock: KIFKEQ_clean_linker_1, # of connection points: 2
#     Edge 51, Type (0, 0), BuildingBlock: KIFKEQ_clean_linker_1, # of connection points: 2
#     Edge 52, Type (0, 0), BuildingBlock: KIFKEQ_clean_linker_1, # of connection points: 2
#     Edge 53, Type (0, 0), BuildingBlock: KIFKEQ_clean_linker_1, # of connection points: 2
#     Edge 54, Type (0, 0), BuildingBlock: KIFKEQ_clean_linker_1, # of connection points: 2
#     Edge 55, Type (0, 0), BuildingBlock: KIFKEQ_clean_linker_1, # of connection points: 2
#     Edge 56, Type (0, 0), BuildingBlock: KIFKEQ_clean_linker_1, # of connection points: 2
#     Edge 57, Type (0, 0), BuildingBlock: KIFKEQ_clean_linker_1, # of connection points: 2
#     Edge 58, Type (0, 0), BuildingBlock: KIFKEQ_clean_linker_1, # of connection points: 2
#     Edge 59, Type (0, 0), BuildingBlock: KIFKEQ_clean_linker_1, # of connection points: 2
#     Edge 60, Type (0, 0), BuildingBlock: KIFKEQ_clean_linker_1, # of connection points: 2
#     Edge 61, Type (0, 0), BuildingBlock: KIFKEQ_clean_linker_1, # of connection points: 2
#     Edge 62, Type (0, 0), BuildingBlock: KIFKEQ_clean_linker_1, # of connection points: 2
#     Edge 63, Type (0, 0), BuildingBlock: KIFKEQ_clean_linker_1, # of connection points: 2
#     Edge 64, Type (0, 0), BuildingBlock: KIFKEQ_clean_linker_1, # of connection points: 2
#     Edge 65, Type (0, 0), BuildingBlock: KIFKEQ_clean_linker_1, # of connection points: 2
#     Edge 66, Type (0, 0), BuildingBlock: KIFKEQ_clean_linker_1, # of connection points: 2
#     Edge 67, Type (0, 0), BuildingBlock: KIFKEQ_clean_linker_1, # of connection points: 2
#     Edge 68, Type (0, 0), BuildingBlock: KIFKEQ_clean_linker_1, # of connection points: 2
#     Edge 69, Type (0, 0), BuildingBlock: KIFKEQ_clean_linker_1, # of connection points: 2
#     Edge 70, Type (0, 0), BuildingBlock: KIFKEQ_clean_linker_1, # of connection points: 2
#     Edge 71, Type (0, 0), BuildingBlock: KIFKEQ_clean_linker_1, # of connection points: 2
#     Edge 72, Type (0, 0), BuildingBlock: KIFKEQ_clean_linker_1, # of connection points: 2
#     Edge 73, Type (0, 0), BuildingBlock: KIFKEQ_clean_linker_1, # of connection points: 2
#     Edge 74, Type (0, 0), BuildingBlock: KIFKEQ_clean_linker_1, # of connection points: 2
#     Edge 75, Type (0, 0), BuildingBlock: KIFKEQ_clean_linker_1, # of connection points: 2
#     Edge 76, Type (0, 0), BuildingBlock: KIFKEQ_clean_linker_1, # of connection points: 2
#     Edge 77, Type (0, 0), BuildingBlock: KIFKEQ_clean_linker_1, # of connection points: 2
#     Edge 78, Type (0, 0), BuildingBlock: KIFKEQ_clean_linker_1, # of connection points: 2
#     Edge 79, Type (0, 0), BuildingBlock: KIFKEQ_clean_linker_1, # of connection points: 2
#     Edge 80, Type (0, 0), BuildingBlock: KIFKEQ_clean_linker_1, # of connection points: 2
#     Edge 81, Type (0, 0), BuildingBlock: KIFKEQ_clean_linker_1, # of connection points: 2
#     Edge 82, Type (0, 0), BuildingBlock: KIFKEQ_clean_linker_1, # of connection points: 2
#     Edge 83, Type (0, 0), BuildingBlock: KIFKEQ_clean_linker_1, # of connection points: 2
#     Edge 84, Type (0, 0), BuildingBlock: KIFKEQ_clean_linker_1, # of connection points: 2
#     Edge 85, Type (0, 0), BuildingBlock: KIFKEQ_clean_linker_1, # of connection points: 2
#     Edge 86, Type (0, 0), BuildingBlock: KIFKEQ_clean_linker_1, # of connection points: 2
#     Edge 87, Type (0, 0), BuildingBlock: KIFKEQ_clean_linker_1, # of connection points: 2
#     Edge 88, Type (0, 0), BuildingBlock: KIFKEQ_clean_linker_1, # of connection points: 2
#     Edge 89, Type (0, 0), BuildingBlock: KIFKEQ_clean_linker_1, # of connection points: 2
#     Edge 90, Type (0, 0), BuildingBlock: KIFKEQ_clean_linker_1, # of connection points: 2
#     Edge 91, Type (0, 0), BuildingBlock: KIFKEQ_clean_linker_1, # of connection points: 2
#     Edge 92, Type (0, 0), BuildingBlock: KIFKEQ_clean_linker_1, # of connection points: 2
#     Edge 93, Type (0, 0), BuildingBlock: KIFKEQ_clean_linker_1, # of connection points: 2
#     Edge 94, Type (0, 0), BuildingBlock: KIFKEQ_clean_linker_1, # of connection points: 2
#     Edge 95, Type (0, 0), BuildingBlock: KIFKEQ_clean_linker_1, # of connection points: 2
#     Edge 96, Type (0, 0), BuildingBlock: KIFKEQ_clean_linker_1, # of connection points: 2
#     Edge 97, Type (0, 0), BuildingBlock: KIFKEQ_clean_linker_1, # of connection points: 2
#     Edge 98, Type (0, 0), BuildingBlock: KIFKEQ_clean_linker_1, # of connection points: 2
#     Edge 99, Type (0, 0), BuildingBlock: KIFKEQ_clean_linker_1, # of connection points: 2
#     Edge 100, Type (0, 0), BuildingBlock: KIFKEQ_clean_linker_1, # of connection points: 2
#     Edge 101, Type (0, 0), BuildingBlock: KIFKEQ_clean_linker_1, # of connection points: 2
#     Edge 102, Type (0, 0), BuildingBlock: KIFKEQ_clean_linker_1, # of connection points: 2
#     Edge 103, Type (0, 0), BuildingBlock: KIFKEQ_clean_linker_1, # of connection points: 2
#     Edge 104, Type (0, 0), BuildingBlock: KIFKEQ_clean_linker_1, # of connection points: 2
#     Edge 105, Type (0, 0), BuildingBlock: KIFKEQ_clean_linker_1, # of connection points: 2
#     Edge 106, Type (0, 0), BuildingBlock: KIFKEQ_clean_linker_1, # of connection points: 2
#     Edge 107, Type (0, 0), BuildingBlock: KIFKEQ_clean_linker_1, # of connection points: 2
#     Edge 108, Type (0, 0), BuildingBlock: KIFKEQ_clean_linker_1, # of connection points: 2
#     Edge 109, Type (0, 0), BuildingBlock: KIFKEQ_clean_linker_1, # of connection points: 2
#     Edge 110, Type (0, 0), BuildingBlock: KIFKEQ_clean_linker_1, # of connection points: 2
#     Edge 111, Type (0, 0), BuildingBlock: KIFKEQ_clean_linker_1, # of connection points: 2
#     Edge 112, Type (0, 0), BuildingBlock: KIFKEQ_clean_linker_1, # of connection points: 2
#     Edge 113, Type (0, 0), BuildingBlock: KIFKEQ_clean_linker_1, # of connection points: 2
#     Edge 114, Type (0, 0), BuildingBlock: KIFKEQ_clean_linker_1, # of connection points: 2
#     Edge 115, Type (0, 0), BuildingBlock: KIFKEQ_clean_linker_1, # of connection points: 2
#     Edge 116, Type (0, 0), BuildingBlock: KIFKEQ_clean_linker_1, # of connection points: 2
#     Edge 117, Type (0, 0), BuildingBlock: KIFKEQ_clean_linker_1, # of connection points: 2
#     Edge 118, Type (0, 0), BuildingBlock: KIFKEQ_clean_linker_1, # of connection points: 2
#     Edge 119, Type (0, 0), BuildingBlock: KIFKEQ_clean_linker_1, # of connection points: 2
#     Edge 120, Type (0, 0), BuildingBlock: KIFKEQ_clean_linker_1, # of connection points: 2
#     Edge 121, Type (0, 0), BuildingBlock: KIFKEQ_clean_linker_1, # of connection points: 2
#     Edge 122, Type (0, 0), BuildingBlock: KIFKEQ_clean_linker_1, # of connection points: 2
#     Edge 123, Type (0, 0), BuildingBlock: KIFKEQ_clean_linker_1, # of connection points: 2
#     Edge 124, Type (0, 0), BuildingBlock: KIFKEQ_clean_linker_1, # of connection points: 2
#     Edge 125, Type (0, 0), BuildingBlock: KIFKEQ_clean_linker_1, # of connection points: 2
#     Edge 126, Type (0, 0), BuildingBlock: KIFKEQ_clean_linker_1, # of connection points: 2
#     Edge 127, Type (0, 0), BuildingBlock: KIFKEQ_clean_linker_1, # of connection points: 2
#     Edge 128, Type (0, 0), BuildingBlock: KIFKEQ_clean_linker_1, # of connection points: 2
#     Edge 129, Type (0, 0), BuildingBlock: KIFKEQ_clean_linker_1, # of connection points: 2
#     Edge 130, Type (0, 0), BuildingBlock: KIFKEQ_clean_linker_1, # of connection points: 2
#     Edge 131, Type (0, 0), BuildingBlock: KIFKEQ_clean_linker_1, # of connection points: 2
#     Edge 132, Type (0, 0), BuildingBlock: KIFKEQ_clean_linker_1, # of connection points: 2
#     Edge 133, Type (0, 0), BuildingBlock: KIFKEQ_clean_linker_1, # of connection points: 2
#     Edge 134, Type (0, 0), BuildingBlock: KIFKEQ_clean_linker_1, # of connection points: 2
#     Edge 135, Type (0, 0), BuildingBlock: KIFKEQ_clean_linker_1, # of connection points: 2
#     Edge 136, Type (0, 0), BuildingBlock: KIFKEQ_clean_linker_1, # of connection points: 2
#     Edge 137, Type (0, 0), BuildingBlock: KIFKEQ_clean_linker_1, # of connection points: 2
#     Edge 138, Type (0, 0), BuildingBlock: KIFKEQ_clean_linker_1, # of connection points: 2
#     Edge 139, Type (0, 0), BuildingBlock: KIFKEQ_clean_linker_1, # of connection points: 2
#     Edge 140, Type (0, 0), BuildingBlock: KIFKEQ_clean_linker_1, # of connection points: 2
#     Edge 141, Type (0, 0), BuildingBlock: KIFKEQ_clean_linker_1, # of connection points: 2
#     Edge 142, Type (0, 0), BuildingBlock: KIFKEQ_clean_linker_1, # of connection points: 2
#     Edge 143, Type (0, 0), BuildingBlock: KIFKEQ_clean_linker_1, # of connection points: 2
#     Edge 144, Type (0, 0), BuildingBlock: KIFKEQ_clean_linker_1, # of connection points: 2
#     Edge 145, Type (0, 0), BuildingBlock: KIFKEQ_clean_linker_1, # of connection points: 2
#     Edge 146, Type (0, 0), BuildingBlock: KIFKEQ_clean_linker_1, # of connection points: 2
#     Edge 147, Type (0, 0), BuildingBlock: KIFKEQ_clean_linker_1, # of connection points: 2
#     Edge 148, Type (0, 0), BuildingBlock: KIFKEQ_clean_linker_1, # of connection points: 2
#     Edge 149, Type (0, 0), BuildingBlock: KIFKEQ_clean_linker_1, # of connection points: 2
#     Edge 150, Type (0, 0), BuildingBlock: KIFKEQ_clean_linker_1, # of connection points: 2
#     Edge 151, Type (0, 0), BuildingBlock: KIFKEQ_clean_linker_1, # of connection points: 2
#     Edge 152, Type (0, 0), BuildingBlock: KIFKEQ_clean_linker_1, # of connection points: 2
#     Edge 153, Type (0, 0), BuildingBlock: KIFKEQ_clean_linker_1, # of connection points: 2
#     Edge 154, Type (0, 0), BuildingBlock: KIFKEQ_clean_linker_1, # of connection points: 2
#     Edge 155, Type (0, 0), BuildingBlock: KIFKEQ_clean_linker_1, # of connection points: 2
#     Edge 156, Type (0, 0), BuildingBlock: KIFKEQ_clean_linker_1, # of connection points: 2
#     Edge 157, Type (0, 0), BuildingBlock: KIFKEQ_clean_linker_1, # of connection points: 2
#     Edge 158, Type (0, 0), BuildingBlock: KIFKEQ_clean_linker_1, # of connection points: 2
#     Edge 159, Type (0, 0), BuildingBlock: KIFKEQ_clean_linker_1, # of connection points: 2
#     Edge 160, Type (0, 0), BuildingBlock: KIFKEQ_clean_linker_1, # of connection points: 2
#     Edge 161, Type (0, 0), BuildingBlock: KIFKEQ_clean_linker_1, # of connection points: 2
#     Edge 162, Type (0, 0), BuildingBlock: KIFKEQ_clean_linker_1, # of connection points: 2
#     Edge 163, Type (0, 0), BuildingBlock: KIFKEQ_clean_linker_1, # of connection points: 2
#     Edge 164, Type (0, 0), BuildingBlock: KIFKEQ_clean_linker_1, # of connection points: 2
#     Edge 165, Type (0, 0), BuildingBlock: KIFKEQ_clean_linker_1, # of connection points: 2
#     Edge 166, Type (0, 0), BuildingBlock: KIFKEQ_clean_linker_1, # of connection points: 2
#     Edge 167, Type (0, 0), BuildingBlock: KIFKEQ_clean_linker_1, # of connection points: 2
#     Edge 168, Type (0, 0), BuildingBlock: KIFKEQ_clean_linker_1, # of connection points: 2
#     Edge 169, Type (0, 0), BuildingBlock: KIFKEQ_clean_linker_1, # of connection points: 2
#     Edge 170, Type (0, 0), BuildingBlock: KIFKEQ_clean_linker_1, # of connection points: 2
#     Edge 171, Type (0, 0), BuildingBlock: KIFKEQ_clean_linker_1, # of connection points: 2
#     Edge 172, Type (0, 0), BuildingBlock: KIFKEQ_clean_linker_1, # of connection points: 2
#     Edge 173, Type (0, 0), BuildingBlock: KIFKEQ_clean_linker_1, # of connection points: 2
#     Edge 174, Type (0, 0), BuildingBlock: KIFKEQ_clean_linker_1, # of connection points: 2
#     Edge 175, Type (0, 0), BuildingBlock: KIFKEQ_clean_linker_1, # of connection points: 2
#     Edge 176, Type (0, 0), BuildingBlock: KIFKEQ_clean_linker_1, # of connection points: 2
#     Edge 177, Type (0, 0), BuildingBlock: KIFKEQ_clean_linker_1, # of connection points: 2
#     Edge 178, Type (0, 0), BuildingBlock: KIFKEQ_clean_linker_1, # of connection points: 2
#     Edge 179, Type (0, 0), BuildingBlock: KIFKEQ_clean_linker_1, # of connection points: 2
#     Edge 180, Type (0, 0), BuildingBlock: KIFKEQ_clean_linker_1, # of connection points: 2
#     Edge 181, Type (0, 0), BuildingBlock: KIFKEQ_clean_linker_1, # of connection points: 2
#     Edge 182, Type (0, 0), BuildingBlock: KIFKEQ_clean_linker_1, # of connection points: 2
#     Edge 183, Type (0, 0), BuildingBlock: KIFKEQ_clean_linker_1, # of connection points: 2
#     Edge 184, Type (0, 0), BuildingBlock: KIFKEQ_clean_linker_1, # of connection points: 2
#     Edge 185, Type (0, 0), BuildingBlock: KIFKEQ_clean_linker_1, # of connection points: 2
#     Edge 186, Type (0, 0), BuildingBlock: KIFKEQ_clean_linker_1, # of connection points: 2
#     Edge 187, Type (0, 0), BuildingBlock: KIFKEQ_clean_linker_1, # of connection points: 2
#     Edge 188, Type (0, 0), BuildingBlock: KIFKEQ_clean_linker_1, # of connection points: 2
#     Edge 189, Type (0, 0), BuildingBlock: KIFKEQ_clean_linker_1, # of connection points: 2
#     Edge 190, Type (0, 0), BuildingBlock: KIFKEQ_clean_linker_1, # of connection points: 2
#     Edge 191, Type (0, 0), BuildingBlock: KIFKEQ_clean_linker_1, # of connection points: 2
# Relax obj value: 0.433
# Max RMSD: 0.319
# Mean RMSD: 0.284
data_MOF--net-lcs-e--node1-BETDEL_clean_sbu_0--edge1-KIFKEQ_clean_linker_1
_symmetry_space_group_name_H-M    P1
_symmetry_Int_Tables_number       1
_symmetry_cell_setting            triclinic
loop_
_symmetry_equiv_pos_as_xyz
'x, y, z'
_cell_length_a     58.125015
_cell_length_b     59.514211
_cell_length_c     57.650716
_cell_angle_alpha  88.688467
_cell_angle_beta   89.699831
_cell_angle_gamma 88.56435
loop_
_atom_site_label
_atom_site_type_symbol
_atom_site_fract_x
_atom_site_fract_y
_atom_site_fract_z
_atom_type_partial_charge
Dy0 Dy 0.00706 0.37229 0.25542 0.0
C1 C 0.0254 0.44286 0.32003 0.0
C2 C 0.00429 0.32882 0.23882 0.0
Dy3 Dy 0.01932 0.40947 0.28933 0.0
O4 O 0.9879 0.34432 0.23726 0.0
O5 O 0.02208 0.33768 0.24827 0.0
O6 O 0.99854 0.40104 0.22918 0.0
O7 O 0.99262 0.40568 0.26422 0.0
C8 C 0.99204 0.41556 0.24476 0.0
C9 C 0.04589 0.37176 0.29302 0.0
O10 O 0.98896 0.39547 0.30812 0.0
O11 O 0.98287 0.3646 0.28498 0.0
O12 O 0.02372 0.42166 0.32527 0.0
O13 O 0.0229 0.44603 0.29773 0.0
O14 O 0.05337 0.39197 0.29455 0.0
O15 O 0.02457 0.37314 0.28905 0.0
O16 O 0.04218 0.3822 0.24318 0.0
O17 O 0.04072 0.41802 0.25809 0.0
C18 C 0.97873 0.3763 0.30399 0.0
C19 C 0.0505 0.40267 0.24467 0.0
Dy20 Dy 0.86236 0.7503 0.55353 0.0
C21 C 0.8448 0.83108 0.49513 0.0
C22 C 0.88415 0.71461 0.57469 0.0
Dy23 Dy 0.858 0.79381 0.5196 0.0
O24 O 0.86303 0.72105 0.57889 0.0
O25 O 0.8924 0.72659 0.55766 0.0
O26 O 0.83806 0.76291 0.58176 0.0
O27 O 0.84497 0.78168 0.5519 0.0
C28 C 0.83378 0.7818 0.57056 0.0
C29 C 0.89634 0.76856 0.51341 0.0
O30 O 0.87667 0.80823 0.54901 0.0
O31 O 0.88602 0.77491 0.56957 0.0
O32 O 0.84972 0.81173 0.48592 0.0
O33 O 0.84707 0.82997 0.51752 0.0
O34 O 0.89402 0.78942 0.50673 0.0
O35 O 0.87672 0.76113 0.51965 0.0
O36 O 0.83061 0.74102 0.53376 0.0
O37 O 0.82503 0.77563 0.51403 0.0
C38 C 0.8874 0.797 0.56606 0.0
C39 C 0.8176 0.75567 0.52133 0.0
Dy40 Dy 0.46674 0.6196 0.7391 0.0
C41 C 0.5185 0.63139 0.82249 0.0
C42 C 0.44995 0.60229 0.69947 0.0
Dy43 Dy 0.49688 0.62329 0.78179 0.0
O44 O 0.44344 0.62135 0.70827 0.0
O45 O 0.46636 0.59311 0.71195 0.0
O46 O 0.43738 0.63925 0.75398 0.0
O47 O 0.47177 0.64531 0.76415 0.0
C48 C 0.4507 0.64969 0.76815 0.0
C49 C 0.50472 0.58461 0.75703 0.0
O50 O 0.46481 0.61055 0.79874 0.0
O51 O 0.4455 0.60062 0.76526 0.0
O52 O 0.52875 0.62654 0.80312 0.0
O53 O 0.49633 0.63156 0.81975 0.0
O54 O 0.52053 0.59565 0.76735 0.0
O55 O 0.4862 0.59531 0.76078 0.0
O56 O 0.49122 0.64676 0.72585 0.0
O57 O 0.50861 0.65367 0.76095 0.0
C58 C 0.44702 0.60166 0.78823 0.0
C59 C 0.50437 0.6595 0.73896 0.0
Dy60 Dy 0.61945 0.22048 0.02981 0.0
C61 C 0.60571 0.28545 0.09762 0.0
C62 C 0.6318 0.19127 0.99653 0.0
Dy63 Dy 0.61585 0.2553 0.06449 0.0
O64 O 0.62717 0.18587 0.01786 0.0
O65 O 0.63008 0.21289 0.99316 0.0
O66 O 0.58845 0.2026 0.04348 0.0
O67 O 0.6089 0.21955 0.06643 0.0
C68 C 0.59077 0.20855 0.06484 0.0
C69 C 0.6508 0.26311 0.03501 0.0
O70 O 0.63794 0.22976 0.08355 0.0
O71 O 0.65181 0.21409 0.05015 0.0
O72 O 0.61769 0.26702 0.10089 0.0
O73 O 0.59889 0.28739 0.07626 0.0
O74 O 0.64953 0.27032 0.05591 0.0
O75 O 0.63153 0.25507 0.02924 0.0
O76 O 0.58688 0.23725 0.01663 0.0
O77 O 0.57958 0.25574 0.05058 0.0
C78 C 0.653 0.21648 0.07284 0.0
C79 C 0.57251 0.24831 0.03042 0.0
Dy80 Dy 0.99468 0.63513 0.2145 0.0
C81 C 0.06615 0.61216 0.28057 0.0
C82 C 0.96678 0.65468 0.18186 0.0
Dy83 Dy 0.03165 0.62807 0.25273 0.0
O84 O 0.98883 0.65185 0.18027 0.0
O85 O 0.95923 0.6463 0.20151 0.0
O86 O 0.00683 0.60383 0.19562 0.0
O87 O 0.02875 0.6216 0.21647 0.0
C88 C 0.02704 0.60405 0.20521 0.0
C89 C 0.00607 0.66606 0.25791 0.0
O90 O 0.05179 0.64849 0.22684 0.0
O91 O 0.02019 0.66231 0.20615 0.0
O92 O 0.04549 0.61729 0.2879 0.0
O93 O 0.06788 0.6162 0.25846 0.0
O94 O 0.02633 0.66225 0.26673 0.0
O95 O 0.99864 0.64762 0.24998 0.0
O96 O 0.98188 0.60203 0.23009 0.0
O97 O 0.01362 0.59486 0.25386 0.0
C98 C 0.04264 0.66199 0.21048 0.0
C99 C 0.99475 0.58806 0.24346 0.0
Dy100 Dy 0.61318 0.7913 0.51892 0.0
C101 C 0.59621 0.73758 0.43919 0.0
C102 C 0.62328 0.81495 0.55751 0.0
Dy103 Dy 0.60706 0.75755 0.47905 0.0
O104 O 0.60428 0.81678 0.54581 0.0
O105 O 0.63635 0.79914 0.54884 0.0
O106 O 0.60766 0.82069 0.49437 0.0
O107 O 0.59205 0.78997 0.48821 0.0
C108 C 0.59549 0.80945 0.48 0.0
C109 C 0.64348 0.74636 0.50626 0.0
O110 O 0.63137 0.78182 0.46308 0.0
O111 O 0.6445 0.79738 0.49699 0.0
O112 O 0.59607 0.72748 0.45949 0.0
O113 O 0.60192 0.75841 0.44085 0.0
O114 O 0.63919 0.73763 0.4864 0.0
O115 O 0.62508 0.75674 0.51268 0.0
O116 O 0.57766 0.7773 0.52812 0.0
O117 O 0.57338 0.75311 0.49721 0.0
C118 C 0.64585 0.79444 0.47428 0.0
C119 C 0.565 0.76337 0.51575 0.0
Dy120 Dy 0.50371 0.37208 0.72098 0.0
C121 C 0.42063 0.37734 0.77369 0.0
C122 C 0.54273 0.36537 0.69547 0.0
Dy123 Dy 0.46193 0.37122 0.75204 0.0
O124 O 0.52793 0.38182 0.6927 0.0
O125 O 0.53696 0.35313 0.71351 0.0
O126 O 0.48395 0.38697 0.69125 0.0
O127 O 0.4741 0.39462 0.72554 0.0
C128 C 0.46864 0.39665 0.70437 0.0
C129 C 0.49203 0.33552 0.7612 0.0
O130 O 0.44743 0.35402 0.72156 0.0
O131 O 0.48277 0.34577 0.70428 0.0
O132 O 0.44032 0.3751 0.78412 0.0
O133 O 0.42342 0.37557 0.75144 0.0
O134 O 0.47993 0.34617 0.77668 0.0
O135 O 0.48771 0.3454 0.7421 0.0
O136 O 0.51392 0.39933 0.74589 0.0
O137 O 0.47764 0.4042 0.76159 0.0
C138 C 0.46007 0.34394 0.70551 0.0
C139 C 0.49872 0.41169 0.75776 0.0
Dy140 Dy 0.86599 0.25382 0.96874 0.0
C141 C 0.86281 0.1813 0.03544 0.0
C142 C 0.87569 0.28591 0.93601 0.0
Dy143 Dy 0.86794 0.21712 0.00649 0.0
O144 O 0.86617 0.26694 0.93225 0.0
O145 O 0.87967 0.2878 0.95808 0.0
O146 O 0.83537 0.23803 0.95208 0.0
O147 O 0.85894 0.21809 0.97032 0.0
C148 C 0.83987 0.2179 0.96029 0.0
C149 C 0.90115 0.24719 0.01269 0.0
O150 O 0.89052 0.20167 0.97896 0.0
O151 O 0.89864 0.23523 0.95997 0.0
O152 O 0.8731 0.18073 0.01548 0.0
O153 O 0.85487 0.20144 0.03953 0.0
O154 O 0.90014 0.22775 0.02313 0.0
O155 O 0.88135 0.25136 0.00361 0.0
O156 O 0.83398 0.26421 0.98862 0.0
O157 O 0.8312 0.23026 0.00888 0.0
C158 C 0.90284 0.21355 0.96384 0.0
C159 C 0.82189 0.24967 0.00133 0.0
Dy160 Dy 0.30619 0.01106 0.36728 0.0
C161 C 0.24233 0.08556 0.36736 0.0
C162 C 0.33246 0.97382 0.35859 0.0
Dy163 Dy 0.27022 0.04834 0.36483 0.0
O164 O 0.33497 0.9868 0.37613 0.0
O165 O 0.31468 0.98057 0.34649 0.0
O166 O 0.33268 0.03231 0.38303 0.0
O167 O 0.29746 0.03949 0.3892 0.0
C168 C 0.3177 0.04657 0.39142 0.0
C169 C 0.26428 0.01605 0.33252 0.0
O170 O 0.29922 0.06547 0.3458 0.0
O171 O 0.32248 0.03354 0.34074 0.0
O172 O 0.23661 0.06537 0.37352 0.0
O173 O 0.26332 0.08549 0.35956 0.0
O174 O 0.24764 0.02675 0.3429 0.0
O175 O 0.28277 0.0236 0.34001 0.0
O176 O 0.28146 0.99772 0.39421 0.0
O177 O 0.26247 0.0317 0.39984 0.0
C178 C 0.31786 0.05526 0.33718 0.0
C179 C 0.26758 0.01069 0.40678 0.0
Dy180 Dy 0.21582 1.00319 0.62504 0.0
C181 C 0.27821 0.07223 0.6021 0.0
C182 C 0.1772 0.98214 0.64007 0.0
Dy183 Dy 0.25543 0.036 0.6187 0.0
O184 O 0.17875 1.00315 0.63429 0.0
O185 O 0.19723 0.97189 0.63764 0.0
O186 O 0.20091 0.01589 0.59093 0.0
O187 O 0.21903 0.03716 0.61202 0.0
C188 C 0.2093 0.03573 0.59278 0.0
C189 C 0.26134 0.00993 0.65659 0.0
O190 O 0.23288 0.05534 0.643 0.0
O191 O 0.21264 0.02466 0.65629 0.0
O192 O 0.28841 0.05439 0.61121 0.0
O193 O 0.2562 0.06991 0.60207 0.0
O194 O 0.27154 0.02886 0.65274 0.0
O195 O 0.2516 1.0035 0.63798 0.0
O196 O 0.23253 0.9875 0.59359 0.0
O197 O 0.25938 0.01539 0.58668 0.0
C198 C 0.21834 0.04594 0.6578 0.0
C199 C 0.24832 0.99736 0.58022 0.0
Dy200 Dy 0.24977 0.96652 0.87182 0.0
C201 C 0.17708 0.03472 0.87375 0.0
C202 C 0.28223 0.93391 0.87872 0.0
Dy203 Dy 0.21426 0.00619 0.87685 0.0
O204 O 0.26163 0.93079 0.87108 0.0
O205 O 0.28531 0.95508 0.88277 0.0
O206 O 0.23368 0.95534 0.83841 0.0
O207 O 0.21453 0.973 0.86271 0.0
C208 C 0.21406 0.96544 0.84267 0.0
C209 C 0.25063 0.00792 0.90706 0.0
O210 O 0.19738 0.98102 0.90064 0.0
O211 O 0.22752 0.95404 0.90113 0.0
O212 O 0.19774 0.03951 0.867 0.0
O213 O 0.17691 0.01461 0.88292 0.0
O214 O 0.23933 0.02537 0.89862 0.0
O215 O 0.24152 0.99126 0.89826 0.0
O216 O 0.26266 0.99114 0.84497 0.0
O217 O 0.22764 0.00957 0.83999 0.0
C218 C 0.20708 0.9618 0.90844 0.0
C219 C 0.248 1.00298 0.8317 0.0
Dy220 Dy 0.25376 0.94904 0.12109 0.0
C221 C 0.33876 0.99365 0.1153 0.0
C222 C 0.21385 0.92663 0.1152 0.0
Dy223 Dy 0.29562 0.97713 0.11595 0.0
O224 O 0.22705 0.92499 0.13328 0.0
O225 O 0.22154 0.94219 0.10118 0.0
O226 O 0.27382 0.92079 0.13899 0.0
O227 O 0.28353 0.95424 0.14243 0.0
C228 C 0.2893 0.93407 0.1467 0.0
C229 C 0.26352 0.98789 0.08305 0.0
O230 O 0.30871 0.94581 0.09924 0.0
O231 O 0.27414 0.9273 0.09714 0.0
O232 O 0.31994 0.0058 0.11653 0.0
O233 O 0.334 0.97257 0.11421 0.0
O234 O 0.2758 1.00221 0.09385 0.0
O235 O 0.26844 0.96849 0.09137 0.0
O236 O 0.24467 0.97597 0.14753 0.0
O237 O 0.28176 0.98869 0.15036 0.0
C238 C 0.29651 0.92848 0.09313 0.0
C239 C 0.26048 0.98738 0.15876 0.0
Dy240 Dy 0.3701 0.25351 0.04837 0.0
C241 C 0.35277 0.32659 0.98309 0.0
C242 C 0.38603 0.2249 0.08217 0.0
Dy243 Dy 0.36602 0.29064 0.01006 0.0
O244 O 0.3863 0.22031 0.06013 0.0
O245 O 0.37644 0.24442 0.08536 0.0
O246 O 0.33703 0.26542 0.06503 0.0
O247 O 0.35785 0.28787 0.04645 0.0
C248 C 0.33877 0.28568 0.0564 0.0
C249 C 0.40119 0.26165 0.00213 0.0
O250 O 0.38638 0.30817 0.03694 0.0
O251 O 0.40011 0.27569 0.05529 0.0
O252 O 0.34329 0.30707 0.98271 0.0
O253 O 0.36958 0.32624 0.99778 0.0
O254 O 0.39843 0.28095 0.9915 0.0
O255 O 0.38245 0.25697 0.01252 0.0
O256 O 0.33797 0.24139 0.03069 0.0
O257 O 0.33178 0.274 0.00823 0.0
C258 C 0.40104 0.29765 0.05129 0.0
C259 C 0.32446 0.25472 0.01729 0.0
Dy260 Dy 0.99444 0.87055 0.20673 0.0
C261 C 0.91199 0.87837 0.26127 0.0
C262 C 0.03484 0.86335 0.18398 0.0
Dy263 Dy 0.95289 0.87138 0.23913 0.0
O264 O 0.01878 0.87769 0.17775 0.0
O265 O 0.0291 0.85306 0.20327 0.0
O266 O 0.97391 0.8842 0.17698 0.0
O267 O 0.96526 0.89332 0.21134 0.0
C268 C 0.95917 0.89449 0.19032 0.0
C269 C 0.98363 0.83652 0.24903 0.0
O270 O 0.93804 0.85326 0.20936 0.0
O271 O 0.97301 0.84342 0.19192 0.0
O272 O 0.91418 0.87379 0.23943 0.0
O273 O 0.93207 0.87857 0.27099 0.0
O274 O 0.97108 0.84692 0.26432 0.0
O275 O 0.97866 0.84563 0.22979 0.0
O276 O 0.0045 0.89928 0.22978 0.0
O277 O 0.96905 0.90438 0.24748 0.0
C278 C 0.95023 0.84214 0.19365 0.0
C279 C 0.98999 0.91159 0.2425 0.0
Dy280 Dy 0.11523 0.72309 0.52137 0.0
C281 C 0.10436 0.78183 0.59685 0.0
C282 C 0.12434 0.69483 0.48618 0.0
Dy283 Dy 0.11475 0.75724 0.55921 0.0
O284 O 0.1159 0.68912 0.50618 0.0
O285 O 0.12825 0.71624 0.48522 0.0
O286 O 0.08459 0.70588 0.53801 0.0
O287 O 0.10811 0.72205 0.55812 0.0
C288 C 0.08948 0.71201 0.55885 0.0
C289 C 0.14868 0.76474 0.52894 0.0
O290 O 0.14016 0.73201 0.57431 0.0
O291 O 0.14774 0.71322 0.54023 0.0
O292 O 0.11019 0.76069 0.59733 0.0
O293 O 0.1045 0.78986 0.57568 0.0
O294 O 0.14804 0.77222 0.54988 0.0
O295 O 0.12895 0.75725 0.52347 0.0
O296 O 0.08286 0.74171 0.51056 0.0
O297 O 0.07836 0.76006 0.54523 0.0
C298 C 0.15242 0.71716 0.56224 0.0
C299 C 0.06988 0.7532 0.52533 0.0
Dy300 Dy 0.996 0.59881 0.70884 0.0
C301 C 0.99865 0.6808 0.76045 0.0
C302 C 0.98687 0.56105 0.68469 0.0
Dy303 Dy 0.99937 0.63682 0.74446 0.0
O304 O 0.99246 0.58033 0.67574 0.0
O305 O 0.98782 0.56198 0.70719 0.0
O306 O 0.99108 0.6237 0.68034 0.0
O307 O 0.97836 0.63149 0.71349 0.0
C308 C 0.98178 0.63906 0.69311 0.0
C309 C 0.01468 0.59457 0.75779 0.0
O310 O 0.9646 0.6251 0.75475 0.0
O311 O 0.96489 0.59363 0.73149 0.0
O312 O 0.01608 0.66651 0.76223 0.0
O313 O 0.98174 0.67053 0.75101 0.0
O314 O 0.0052 0.60889 0.77209 0.0
O315 O 0.01709 0.60441 0.7385 0.0
O316 O 0.03196 0.60879 0.70208 0.0
O317 O 0.02546 0.64444 0.71646 0.0
C318 C 0.95529 0.60641 0.74762 0.0
C319 C 0.03702 0.63035 0.70285 0.0
Dy320 Dy 0.14285 0.2103 0.47666 0.0
C321 C 0.1213 0.29407 0.4288 0.0
C322 C 0.15712 0.17259 0.50013 0.0
Dy323 Dy 0.13653 0.25406 0.44763 0.0
O324 O 0.15157 0.19157 0.50971 0.0
O325 O 0.15488 0.17419 0.47772 0.0
O326 O 0.10674 0.21147 0.4897 0.0
O327 O 0.1224 0.242 0.48095 0.0
C328 C 0.10338 0.23282 0.48621 0.0
C329 C 0.16015 0.22166 0.42626 0.0
O330 O 0.16913 0.26298 0.46654 0.0
O331 O 0.17462 0.22882 0.48653 0.0
O332 O 0.14126 0.28465 0.42469 0.0
O333 O 0.11057 0.28232 0.44449 0.0
O334 O 0.14773 0.23673 0.41503 0.0
O335 O 0.1605 0.22588 0.44755 0.0
O336 O 0.12334 0.19735 0.44674 0.0
O337 O 0.10892 0.23227 0.43417 0.0
C338 C 0.18191 0.249 0.4799 0.0
C339 C 0.10906 0.21001 0.4339 0.0
Dy340 Dy 0.50029 0.38707 0.22109 0.0
C341 C 0.54949 0.40909 0.30513 0.0
C342 C 0.47994 0.37204 0.18217 0.0
Dy343 Dy 0.5289 0.39403 0.26606 0.0
O344 O 0.46891 0.37777 0.20098 0.0
O345 O 0.50191 0.37465 0.18469 0.0
O346 O 0.48814 0.42283 0.21918 0.0
O347 O 0.49658 0.40886 0.25197 0.0
C348 C 0.49201 0.42717 0.24067 0.0
C349 C 0.5494 0.36793 0.2349 0.0
O350 O 0.50978 0.36241 0.27744 0.0
O351 O 0.48986 0.3569 0.24301 0.0
O352 O 0.54973 0.38838 0.29844 0.0
O353 O 0.53627 0.4212 0.2914 0.0
O354 O 0.561 0.37962 0.24936 0.0
O355 O 0.52826 0.3699 0.23921 0.0
O356 O 0.53161 0.40283 0.20596 0.0
O357 O 0.54464 0.41796 0.24023 0.0
C358 C 0.49659 0.34985 0.2641 0.0
C359 C 0.54559 0.41584 0.21738 0.0
Dy360 Dy 0.39375 0.75438 0.94832 0.0
C361 C 0.38572 0.79898 0.03386 0.0
C362 C 0.39704 0.73422 0.90667 0.0
Dy363 Dy 0.39533 0.78295 0.99109 0.0
O364 O 0.39626 0.72372 0.92661 0.0
O365 O 0.39567 0.75581 0.90937 0.0
O366 O 0.3714 0.72938 0.96807 0.0
O367 O 0.36886 0.76274 0.97563 0.0
C368 C 0.36079 0.74393 0.98102 0.0
C369 C 0.41685 0.80134 0.955 0.0
O370 O 0.42543 0.75911 0.99904 0.0
O371 O 0.42925 0.74527 0.9621 0.0
O372 O 0.40093 0.80706 0.01955 0.0
O373 O 0.37641 0.78148 0.02504 0.0
O374 O 0.40834 0.813 0.97204 0.0
O375 O 0.41627 0.78046 0.95998 0.0
O376 O 0.37315 0.78413 0.93531 0.0
O377 O 0.36742 0.80117 0.97094 0.0
C378 C 0.43776 0.7483 0.98312 0.0
C379 C 0.36393 0.80021 0.94821 0.0
Dy380 Dy 0.96808 0.38433 0.75837 0.0
C381 C 0.05036 0.36225 0.81019 0.0
C382 C 0.9311 0.3997 0.73409 0.0
Dy383 Dy 0.00996 0.37606 0.78994 0.0
O384 O 0.93075 0.39371 0.7559 0.0
O385 O 0.9517 0.3972 0.72537 0.0
O386 O 0.96891 0.34952 0.74543 0.0
O387 O 0.99999 0.36288 0.75618 0.0
C388 C 0.99009 0.34475 0.75068 0.0
C389 C 0.9754 0.39877 0.81009 0.0
O390 O 0.02026 0.40946 0.77263 0.0
O391 O 0.98716 0.41614 0.75085 0.0
O392 O 0.04119 0.38231 0.81124 0.0
O393 O 0.03782 0.34989 0.79722 0.0
O394 O 0.98994 0.38601 0.82177 0.0
O395 O 0.98146 0.39975 0.78906 0.0
O396 O 0.95175 0.36552 0.78751 0.0
O397 O 0.98548 0.3497 0.8029 0.0
C398 C 0.00698 0.423 0.75919 0.0
C399 C 0.96263 0.35118 0.8018 0.0
Dy400 Dy 0.38988 0.24528 0.52869 0.0
C401 C 0.37437 0.19289 0.4471 0.0
C402 C 0.40067 0.26656 0.56782 0.0
Dy403 Dy 0.38601 0.21376 0.48698 0.0
O404 O 0.39971 0.27628 0.54733 0.0
O405 O 0.39582 0.24544 0.56678 0.0
O406 O 0.35552 0.26162 0.52277 0.0
O407 O 0.37295 0.24794 0.49417 0.0
C408 C 0.35363 0.2559 0.50139 0.0
C409 C 0.40448 0.19433 0.52505 0.0
O410 O 0.42099 0.2288 0.47869 0.0
O411 O 0.42464 0.24984 0.51212 0.0
O412 O 0.39373 0.18986 0.45804 0.0
O413 O 0.36212 0.20832 0.45727 0.0
O414 O 0.3931 0.18316 0.50995 0.0
O415 O 0.40655 0.21431 0.51787 0.0
O416 O 0.36764 0.21893 0.54397 0.0
O417 O 0.35543 0.20499 0.509 0.0
C418 C 0.43337 0.2413 0.49277 0.0
C419 C 0.35387 0.20638 0.53187 0.0
Dy420 Dy 0.54173 0.63587 0.25057 0.0
C421 C 0.45904 0.64765 0.30436 0.0
C422 C 0.58354 0.62923 0.22996 0.0
Dy423 Dy 0.49892 0.63677 0.28205 0.0
O424 O 0.58013 0.63071 0.25217 0.0
O425 O 0.56412 0.63165 0.219 0.0
O426 O 0.52471 0.66206 0.22615 0.0
O427 O 0.5165 0.66181 0.26055 0.0
C428 C 0.51233 0.67222 0.24179 0.0
C429 C 0.53332 0.6114 0.29846 0.0
O430 O 0.48842 0.60975 0.25723 0.0
O431 O 0.52459 0.6034 0.24137 0.0
O432 O 0.47247 0.63055 0.30956 0.0
O433 O 0.46683 0.6581 0.28595 0.0
O434 O 0.51813 0.62105 0.31183 0.0
O435 O 0.5278 0.61376 0.27735 0.0
O436 O 0.55621 0.65292 0.28134 0.0
O437 O 0.52101 0.66202 0.29879 0.0
C438 C 0.50318 0.59682 0.24543 0.0
C439 C 0.54376 0.66331 0.29739 0.0
Dy440 Dy 0.14271 0.78569 0.0049 0.0
C441 C 0.13642 0.71397 0.07404 0.0
C442 C 0.14686 0.82785 0.98672 0.0
Dy443 Dy 0.1467 0.74575 0.04099 0.0
O444 O 0.12887 0.81561 0.98389 0.0
O445 O 0.16247 0.81676 0.99847 0.0
O446 O 0.12438 0.76372 0.97993 0.0
O447 O 0.12073 0.7579 0.01535 0.0
C448 C 0.11409 0.75146 0.99574 0.0
C449 C 0.17531 0.78018 0.04727 0.0
O450 O 0.17411 0.73479 0.0153 0.0
O451 O 0.17722 0.76955 0.99643 0.0
O452 O 0.14931 0.73111 0.07691 0.0
O453 O 0.12985 0.71343 0.05245 0.0
O454 O 0.17965 0.75989 0.05522 0.0
O455 O 0.15544 0.78028 0.03921 0.0
O456 O 0.12067 0.79945 0.0337 0.0
O457 O 0.11915 0.76723 0.05749 0.0
C458 C 0.18587 0.74928 0.00215 0.0
C459 C 0.11301 0.78842 0.05242 0.0
Dy460 Dy 0.72848 0.95667 0.63933 0.0
C461 C 0.67047 0.03509 0.64249 0.0
C462 C 0.75207 0.91726 0.63406 0.0
Dy463 Dy 0.69551 0.99644 0.63695 0.0
O464 O 0.75921 0.93687 0.62757 0.0
O465 O 0.73208 0.91905 0.6441 0.0
O466 O 0.75477 0.97667 0.65842 0.0
O467 O 0.72037 0.98402 0.66301 0.0
C468 C 0.74013 0.98976 0.66899 0.0
C469 C 0.67999 0.95947 0.6174 0.0
O470 O 0.71958 0.00677 0.60794 0.0
O471 O 0.73462 0.97101 0.6032 0.0
O472 O 0.66675 0.02024 0.62691 0.0
O473 O 0.68878 0.02933 0.65428 0.0
O474 O 0.6666 0.97434 0.62711 0.0
O475 O 0.70035 0.96632 0.61659 0.0
O476 O 0.69996 0.94362 0.66226 0.0
O477 O 0.68256 0.97848 0.66861 0.0
C478 C 0.73123 0.99197 0.59532 0.0
C479 C 0.6846 0.95658 0.67312 0.0
Dy480 Dy 0.74357 0.96026 0.37973 0.0
C481 C 0.80399 0.03534 0.36351 0.0
C482 C 0.72383 0.92152 0.39426 0.0
Dy483 Dy 0.77567 1.00116 0.37631 0.0
O484 O 0.71241 0.93984 0.38836 0.0
O485 O 0.74573 0.92442 0.39202 0.0
O486 O 0.72579 0.96758 0.34661 0.0
O487 O 0.74063 0.99451 0.36426 0.0
C488 C 0.73198 0.98837 0.34506 0.0
C489 C 0.78874 0.96792 0.40562 0.0
O490 O 0.75399 0.01224 0.40681 0.0
O491 O 0.73784 0.97734 0.41368 0.0
O492 O 0.80766 0.02081 0.38017 0.0
O493 O 0.78423 0.03168 0.35394 0.0
O494 O 0.79337 0.98876 0.40922 0.0
O495 O 0.77922 0.9663 0.38633 0.0
O496 O 0.76819 0.94692 0.35322 0.0
O497 O 0.78843 0.97981 0.3468 0.0
C498 C 0.74265 0.99786 0.42043 0.0
C499 C 0.78373 0.95874 0.34163 0.0
Dy500 Dy 0.78026 1.00151 0.12879 0.0
C501 C 0.70819 0.06857 0.1327 0.0
C502 C 0.81873 0.97481 0.12972 0.0
Dy503 Dy 0.74436 0.03878 0.13434 0.0
O504 O 0.8183 0.99626 0.12525 0.0
O505 O 0.79799 0.96772 0.13303 0.0
O506 O 0.75679 0.98337 0.1044 0.0
O507 O 0.75515 0.01777 0.10527 0.0
C508 C 0.7469 1.00127 0.09523 0.0
C509 C 0.78328 0.04609 0.15698 0.0
O510 O 0.73045 0.01293 0.15936 0.0
O511 O 0.76494 0.99372 0.1642 0.0
O512 O 0.72371 0.06736 0.14876 0.0
O513 O 0.71197 0.0528 0.11777 0.0
O514 O 0.76924 0.06205 0.14977 0.0
O515 O 0.77417 0.02719 0.15436 0.0
O516 O 0.79839 0.0298 0.11111 0.0
O517 O 0.7663 0.05356 0.10636 0.0
C518 C 0.74412 0.99948 0.17202 0.0
C519 C 0.78837 0.04846 0.1027 0.0
Dy520 Dy 0.70844 0.02213 0.88195 0.0
C521 C 0.78884 0.07645 0.88595 0.0
C522 C 0.6642 0.0082 0.87986 0.0
Dy523 Dy 0.75058 0.05169 0.87904 0.0
O524 O 0.6704 0.02885 0.88118 0.0
O525 O 0.68226 0.99481 0.87992 0.0
O526 O 0.72649 0.99846 0.90747 0.0
O527 O 0.73401 0.03219 0.90742 0.0
C528 C 0.73861 0.01351 0.91746 0.0
C529 C 0.71583 0.06564 0.85189 0.0
O530 O 0.76138 0.02485 0.85326 0.0
O531 O 0.72534 0.00939 0.84942 0.0
O532 O 0.77496 0.07853 0.86845 0.0
O533 O 0.78286 0.05929 0.89888 0.0
O534 O 0.73059 0.07922 0.86035 0.0
O535 O 0.72188 0.04552 0.85642 0.0
O536 O 0.69444 0.05344 0.89777 0.0
O537 O 0.72889 0.07112 0.90393 0.0
C538 C 0.74686 0.01191 0.84201 0.0
C539 C 0.70627 0.0701 0.90606 0.0
Dy540 Dy 0.65101 0.71221 0.97864 0.0
C541 C 0.62877 0.78844 0.92056 0.0
C542 C 0.66829 0.67742 0.00448 0.0
Dy543 Dy 0.64168 0.75045 0.94486 0.0
O544 O 0.66526 0.67709 0.98217 0.0
O545 O 0.66178 0.69672 0.01273 0.0
O546 O 0.61613 0.71359 0.99435 0.0
O547 O 0.62958 0.74363 0.98046 0.0
C548 C 0.61151 0.73431 0.9885 0.0
C549 C 0.66382 0.71571 0.92625 0.0
O550 O 0.67603 0.76172 0.95893 0.0
O551 O 0.68178 0.73271 0.98597 0.0
O552 O 0.64575 0.77502 0.91522 0.0
O553 O 0.61948 0.78165 0.93994 0.0
O554 O 0.64876 0.72807 0.91491 0.0
O555 O 0.66696 0.72313 0.94628 0.0
O556 O 0.6292 0.6951 0.95298 0.0
O557 O 0.6121 0.72788 0.93823 0.0
C558 C 0.68905 0.7509 0.9748 0.0
C559 C 0.61283 0.70568 0.94079 0.0
Dy560 Dy 0.04576 0.13912 0.74825 0.0
C561 C 0.98567 0.16104 0.82275 0.0
C562 C 0.08261 0.12626 0.72222 0.0
Dy563 Dy 0.01097 0.1459 0.78646 0.0
O564 O 0.08273 0.14118 0.73816 0.0
O565 O 0.06206 0.11838 0.72008 0.0
O566 O 0.03782 0.17091 0.72852 0.0
O567 O 0.01233 0.15801 0.75024 0.0
C568 C 0.0188 0.17573 0.73931 0.0
C569 C 0.04324 0.11423 0.79667 0.0
O570 O 0.99626 0.1144 0.77121 0.0
O571 O 0.02837 0.10572 0.74885 0.0
O572 O 0.00778 0.15832 0.82221 0.0
O573 O 0.97676 0.15578 0.8029 0.0
O574 O 0.02238 0.11387 0.80463 0.0
O575 O 0.04606 0.1323 0.7854 0.0
O576 O 0.06534 0.15964 0.77284 0.0
O577 O 0.03299 0.17619 0.78868 0.0
C578 C 0.00871 0.09983 0.75875 0.0
C579 C 0.05541 0.17586 0.78485 0.0
Dy580 Dy 0.88578 0.25124 0.44232 0.0
C581 C 0.87857 0.31387 0.51546 0.0
C582 C 0.89292 0.2264 0.40403 0.0
Dy583 Dy 0.88716 0.28469 0.48077 0.0
O584 O 0.89083 0.21797 0.42492 0.0
O585 O 0.8913 0.24814 0.40424 0.0
O586 O 0.85134 0.23871 0.45149 0.0
O587 O 0.87179 0.25135 0.47823 0.0
C588 C 0.85156 0.24524 0.47275 0.0
C589 C 0.91422 0.2945 0.44387 0.0
O590 O 0.91791 0.2637 0.49181 0.0
O591 O 0.92174 0.24587 0.45671 0.0
O592 O 0.88769 0.31889 0.49557 0.0
O593 O 0.87403 0.29259 0.51669 0.0
O594 O 0.91935 0.29963 0.46496 0.0
O595 O 0.89471 0.28602 0.44396 0.0
O596 O 0.86199 0.27801 0.42752 0.0
O597 O 0.85504 0.29602 0.46211 0.0
C598 C 0.93036 0.25181 0.4769 0.0
C599 C 0.85031 0.29293 0.43998 0.0
Dy600 Dy 0.50044 0.87452 0.76445 0.0
C601 C 0.5193 0.94563 0.82834 0.0
C602 C 0.50151 0.83011 0.75023 0.0
Dy603 Dy 0.50787 0.90984 0.80232 0.0
O604 O 0.48941 0.84649 0.74016 0.0
O605 O 0.51278 0.83842 0.76724 0.0
O606 O 0.49211 0.904 0.73915 0.0
O607 O 0.4843 0.90675 0.77424 0.0
C608 C 0.48499 0.9177 0.75533 0.0
C609 C 0.52338 0.86832 0.81265 0.0
O610 O 0.47215 0.90025 0.81147 0.0
O611 O 0.47387 0.86654 0.79196 0.0
O612 O 0.5149 0.92566 0.83634 0.0
O613 O 0.51639 0.94632 0.806 0.0
O614 O 0.5147 0.88198 0.82768 0.0
O615 O 0.52468 0.87819 0.79309 0.0
O616 O 0.53471 0.88581 0.75226 0.0
O617 O 0.53734 0.91583 0.77732 0.0
C618 C 0.4649 0.87958 0.80828 0.0
C619 C 0.54525 0.90374 0.75972 0.0
Dy620 Dy 0.95983 0.11352 0.23432 0.0
C621 C 0.01414 0.1404 0.31136 0.0
C622 C 0.94031 0.09323 0.19739 0.0
Dy623 Dy 0.98895 0.12392 0.27647 0.0
O624 O 0.93968 0.11474 0.20099 0.0
O625 O 0.95291 0.0832 0.21319 0.0
O626 O 0.92778 0.1283 0.25082 0.0
O627 O 0.96048 0.14046 0.25835 0.0
C628 C 0.93941 0.14204 0.26319 0.0
C629 C 0.99638 0.08189 0.26093 0.0
O630 O 0.95784 0.1105 0.29448 0.0
O631 O 0.94526 0.09133 0.26261 0.0
O632 O 0.02247 0.1342 0.29145 0.0
O633 O 0.992 0.13769 0.3122 0.0
O634 O 0.99922 0.08819 0.28199 0.0
O635 O 0.99262 0.09925 0.24784 0.0
O636 O 0.97795 0.14484 0.21992 0.0
O637 O 0.9997 0.15229 0.25256 0.0
C638 C 0.94417 0.09578 0.28504 0.0
C639 C 0.99221 0.15796 0.23147 0.0
Dy640 Dy 0.49185 0.12984 0.71336 0.0
C641 C 0.56648 0.11813 0.77811 0.0
C642 C 0.46135 0.14031 0.67906 0.0
Dy643 Dy 0.52823 0.12959 0.75311 0.0
O644 O 0.48034 0.12873 0.67667 0.0
O645 O 0.45871 0.14647 0.70051 0.0
O646 O 0.50591 0.09604 0.70102 0.0
O647 O 0.52621 0.1177 0.71864 0.0
C648 C 0.52583 0.09842 0.7107 0.0
C649 C 0.49451 0.16218 0.7581 0.0
O650 O 0.54745 0.14847 0.72491 0.0
O651 O 0.51704 0.15462 0.69889 0.0
O652 O 0.55903 0.13877 0.7745 0.0
O653 O 0.55285 0.10421 0.76857 0.0
O654 O 0.50446 0.15099 0.77522 0.0
O655 O 0.50263 0.15407 0.73959 0.0
O656 O 0.4768 0.10344 0.73719 0.0
O657 O 0.50952 0.09691 0.75936 0.0
C658 C 0.53863 0.15777 0.7055 0.0
C659 C 0.48961 0.09016 0.7511 0.0
Dy660 Dy 0.12045 0.29768 0.00497 0.0
C661 C 0.11563 0.24268 0.92442 0.0
C662 C 0.12393 0.32574 0.04134 0.0
Dy663 Dy 0.12026 0.26001 0.96694 0.0
O664 O 0.1103 0.32875 0.02375 0.0
O665 O 0.13507 0.30655 0.03972 0.0
O666 O 0.11752 0.32398 0.9766 0.0
O667 O 0.10319 0.29224 0.97254 0.0
C668 C 0.1072 0.31081 0.96254 0.0
C669 C 0.15115 0.24839 1.00082 0.0
O670 O 0.14776 0.28277 0.95412 0.0
O671 O 0.15466 0.30235 0.98783 0.0
O672 O 0.11137 0.2317 0.94376 0.0
O673 O 0.12244 0.26278 0.92844 0.0
O674 O 0.14606 0.23563 0.98364 0.0
O675 O 0.13684 0.26484 1.00002 0.0
O676 O 0.08545 0.28211 0.01216 0.0
O677 O 0.08437 0.25719 0.98141 0.0
C678 C 0.15995 0.29686 0.96623 0.0
C679 C 0.07422 0.26775 0.99901 0.0
Dy680 Dy 0.35863 0.75921 0.45948 0.0
C681 C 0.36676 0.67688 0.51351 0.0
C682 C 0.36476 0.79336 0.42792 0.0
Dy683 Dy 0.36688 0.71881 0.494 0.0
O684 O 0.35534 0.77436 0.42382 0.0
O685 O 0.3701 0.7942 0.44983 0.0
O686 O 0.3272 0.74175 0.44503 0.0
O687 O 0.3544 0.72371 0.45959 0.0
C688 C 0.33473 0.72184 0.45155 0.0
C689 C 0.39108 0.75569 0.50504 0.0
O690 O 0.39051 0.7085 0.46444 0.0
O691 O 0.38974 0.74268 0.44386 0.0
O692 O 0.38406 0.69028 0.5146 0.0
O693 O 0.34975 0.68659 0.50249 0.0
O694 O 0.38151 0.74214 0.52013 0.0
O695 O 0.38551 0.74921 0.48512 0.0
O696 O 0.33159 0.76728 0.48606 0.0
O697 O 0.33029 0.73111 0.50169 0.0
C698 C 0.3975 0.72166 0.44684 0.0
C699 C 0.32043 0.75121 0.49745 0.0
Dy700 Dy 0.80434 0.5012 0.86417 0.0
C701 C 0.75119 0.58272 0.86601 0.0
C702 C 0.82613 0.46049 0.86026 0.0
Dy703 Dy 0.77314 0.54208 0.86289 0.0
O704 O 0.8294 0.47465 0.87659 0.0
O705 O 0.81042 0.4684 0.84608 0.0
O706 O 0.83401 0.5204 0.87655 0.0
O707 O 0.80031 0.53042 0.88621 0.0
C708 C 0.82129 0.53578 0.88632 0.0
C709 C 0.76218 0.51125 0.83026 0.0
O710 O 0.8024 0.55486 0.84089 0.0
O711 O 0.82085 0.52033 0.83497 0.0
O712 O 0.7411 0.56361 0.86483 0.0
O713 O 0.77337 0.57973 0.86521 0.0
O714 O 0.74732 0.52338 0.84167 0.0
O715 O 0.78172 0.51624 0.83751 0.0
O716 O 0.77844 0.49108 0.89151 0.0
O717 O 0.76373 0.52672 0.89788 0.0
C718 C 0.81877 0.54234 0.83094 0.0
C719 C 0.76672 0.50538 0.90463 0.0
Dy720 Dy 0.71475 0.50078 0.12123 0.0
C721 C 0.78042 0.57039 0.10674 0.0
C722 C 0.68764 0.46618 0.13443 0.0
Dy723 Dy 0.75327 0.53495 0.11685 0.0
O724 O 0.68327 0.48028 0.11743 0.0
O725 O 0.70733 0.47053 0.14375 0.0
O726 O 0.68907 0.52537 0.10568 0.0
O727 O 0.72415 0.52623 0.09606 0.0
C728 C 0.70486 0.53616 0.0942 0.0
C729 C 0.75925 0.50451 0.15311 0.0
O730 O 0.72631 0.55547 0.13551 0.0
O731 O 0.70385 0.52564 0.14807 0.0
O732 O 0.78615 0.54944 0.1038 0.0
O733 O 0.75994 0.57208 0.11574 0.0
O734 O 0.77572 0.51356 0.14109 0.0
O735 O 0.74098 0.51284 0.14468 0.0
O736 O 0.73587 0.48507 0.09208 0.0
O737 O 0.75868 0.5157 0.08392 0.0
C738 C 0.70926 0.54721 0.14823 0.0
C739 C 0.75081 0.49577 0.07839 0.0
Dy740 Dy 0.74504 0.46572 0.37104 0.0
C741 C 0.672 0.53129 0.36453 0.0
C742 C 0.77959 0.43446 0.37559 0.0
Dy743 Dy 0.71052 0.50529 0.37104 0.0
O744 O 0.76294 0.43391 0.36079 0.0
O745 O 0.77779 0.4526 0.38775 0.0
O746 O 0.71831 0.44195 0.36077 0.0
O747 O 0.71549 0.47587 0.34976 0.0
C748 C 0.70524 0.45728 0.35082 0.0
C749 C 0.74468 0.50868 0.40366 0.0
O750 O 0.69226 0.48124 0.39462 0.0
O751 O 0.7237 0.45724 0.40241 0.0
O752 O 0.67233 0.50978 0.36864 0.0
O753 O 0.69278 0.53888 0.36477 0.0
O754 O 0.73423 0.52571 0.39332 0.0
O755 O 0.73566 0.49145 0.39592 0.0
O756 O 0.75973 0.48694 0.34195 0.0
O757 O 0.72751 0.50982 0.33597 0.0
C758 C 0.70204 0.46403 0.40612 0.0
C759 C 0.74757 0.50135 0.32876 0.0
Dy760 Dy 0.75639 0.46243 0.61754 0.0
C761 C 0.84339 0.50421 0.62043 0.0
C762 C 0.71827 0.43732 0.61206 0.0
Dy763 Dy 0.7988 0.49187 0.61539 0.0
O764 O 0.73182 0.43647 0.62985 0.0
O765 O 0.72454 0.45343 0.59787 0.0
O766 O 0.7765 0.43507 0.6365 0.0
O767 O 0.78448 0.46892 0.64056 0.0
C768 C 0.79066 0.44899 0.64537 0.0
C769 C 0.76877 0.50127 0.5799 0.0
O770 O 0.8126 0.46045 0.59927 0.0
O771 O 0.77818 0.44273 0.59293 0.0
O772 O 0.83651 0.48385 0.61845 0.0
O773 O 0.82586 0.51826 0.61904 0.0
O774 O 0.78165 0.51592 0.58967 0.0
O775 O 0.77317 0.48235 0.58956 0.0
O776 O 0.74509 0.48939 0.64299 0.0
O777 O 0.78116 0.5044 0.64784 0.0
C778 C 0.80082 0.44371 0.59097 0.0
C779 C 0.75948 0.5019 0.65489 0.0
Dy780 Dy 0.48613 0.1004 0.20729 0.0
C781 C 0.50646 0.17886 0.25707 0.0
C782 C 0.4682 0.06925 0.1797 0.0
Dy783 Dy 0.50291 0.13435 0.24434 0.0
O784 O 0.4629 0.09053 0.17904 0.0
O785 O 0.48301 0.0645 0.19608 0.0
O786 O 0.49208 0.12695 0.18051 0.0
O787 O 0.48081 0.13606 0.21353 0.0
C788 C 0.48654 0.14358 0.19369 0.0
C789 C 0.51389 0.0896 0.25122 0.0
O790 O 0.46688 0.12911 0.25745 0.0
O791 O 0.45479 0.10326 0.23019 0.0
O792 O 0.50506 0.16175 0.27183 0.0
O793 O 0.50689 0.17114 0.23619 0.0
O794 O 0.52696 0.10559 0.25875 0.0
O795 O 0.49612 0.09877 0.24283 0.0
O796 O 0.52402 0.10042 0.20043 0.0
O797 O 0.53079 0.13464 0.21733 0.0
C798 C 0.45115 0.11574 0.24882 0.0
C799 C 0.5363 0.11878 0.20235 0.0
Dy800 Dy 0.99031 0.89423 0.72559 0.0
C801 C 0.06542 0.91052 0.78274 0.0
C802 C 0.96058 0.88258 0.69208 0.0
Dy803 Dy 0.02785 0.8964 0.76045 0.0
O804 O 0.95773 0.87833 0.71409 0.0
O805 O 0.97932 0.8935 0.68855 0.0
O806 O 0.97679 0.92903 0.73042 0.0
O807 O 0.9933 0.91262 0.75875 0.0
C808 C 0.98574 0.93162 0.75065 0.0
C809 C 0.03468 0.8637 0.73002 0.0
O810 O 0.01047 0.86581 0.77636 0.0
O811 O 0.98691 0.86084 0.74468 0.0
O812 O 0.06472 0.90366 0.76171 0.0
O813 O 0.0452 0.90911 0.79266 0.0
O814 O 0.04258 0.86254 0.75103 0.0
O815 O 0.02579 0.88283 0.72611 0.0
O816 O 0.01819 0.90999 0.704 0.0
O817 O 0.03459 0.92531 0.73576 0.0
C818 C 0.99632 0.85315 0.76434 0.0
C819 C 0.03251 0.92431 0.71304 0.0
Dy820 Dy 0.47618 0.87859 0.25099 0.0
C821 C 0.54169 0.86743 0.326 0.0
C822 C 0.4385 0.88766 0.22426 0.0
Dy823 Dy 0.51159 0.87913 0.29171 0.0
O824 O 0.4461 0.86747 0.22972 0.0
O825 O 0.45172 0.90251 0.23292 0.0
O826 O 0.50056 0.85629 0.23041 0.0
O827 O 0.50087 0.85431 0.26614 0.0
C828 C 0.50957 0.84551 0.24826 0.0
C829 C 0.47847 0.91153 0.29218 0.0
O830 O 0.52773 0.90445 0.26728 0.0
O831 O 0.49557 0.91074 0.24417 0.0
O832 O 0.5237 0.88054 0.32823 0.0
O833 O 0.54361 0.86066 0.30471 0.0
O834 O 0.49811 0.91364 0.30256 0.0
O835 O 0.47783 0.89199 0.28488 0.0
O836 O 0.45572 0.86154 0.27965 0.0
O837 O 0.48491 0.85648 0.30722 0.0
C838 C 0.51547 0.91744 0.25258 0.0
C839 C 0.46351 0.85335 0.3 0.0
Dy840 Dy 0.89308 0.73949 0.01773 0.0
C841 C 0.8907 0.67611 0.94436 0.0
C842 C 0.8918 0.76291 0.05763 0.0
Dy843 Dy 0.89815 0.70274 0.98134 0.0
O844 O 0.88847 0.74155 0.05617 0.0
O845 O 0.8956 0.77169 0.03716 0.0
O846 O 0.87309 0.76167 0.99232 0.0
O847 O 0.87067 0.72726 0.99064 0.0
C848 C 0.86319 0.74553 0.98165 0.0
C849 C 0.91831 0.69287 0.02185 0.0
O850 O 0.92878 0.72421 0.97083 0.0
O851 O 0.92923 0.74537 0.00416 0.0
O852 O 0.90629 0.67241 0.96017 0.0
O853 O 0.88016 0.69529 0.94793 0.0
O854 O 0.91106 0.67744 0.0082 0.0
O855 O 0.9167 0.71183 0.01177 0.0
O856 O 0.87135 0.71276 0.03427 0.0
O857 O 0.86986 0.68861 0.00306 0.0
C858 C 0.9394 0.73829 0.98475 0.0
C859 C 0.86391 0.69445 0.02435 0.0
Dy860 Dy 0.63479 0.29324 0.5076 0.0
C861 C 0.63007 0.21894 0.57264 0.0
C862 C 0.63887 0.33365 0.48579 0.0
Dy863 Dy 0.63876 0.25406 0.54284 0.0
O864 O 0.63853 0.31464 0.47503 0.0
O865 O 0.63741 0.33031 0.50794 0.0
O866 O 0.6018 0.28331 0.49277 0.0
O867 O 0.62379 0.25785 0.50758 0.0
C868 C 0.60342 0.2626 0.50007 0.0
C869 C 0.66218 0.29113 0.55319 0.0
O870 O 0.66983 0.24532 0.52118 0.0
O871 O 0.67157 0.28034 0.50268 0.0
O872 O 0.64463 0.2346 0.57609 0.0
O873 O 0.62077 0.22194 0.5523 0.0
O874 O 0.66903 0.27107 0.5599 0.0
O875 O 0.64317 0.28965 0.54349 0.0
O876 O 0.60913 0.30496 0.53425 0.0
O877 O 0.60692 0.27192 0.55613 0.0
C878 C 0.68132 0.26065 0.50896 0.0
C879 C 0.5998 0.29285 0.55133 0.0
Dy880 Dy 0.24076 0.45615 0.14079 0.0
C881 C 0.16849 0.51538 0.16327 0.0
C882 C 0.26629 0.42254 0.12212 0.0
Dy883 Dy 0.20376 0.4897 0.14736 0.0
O884 O 0.26173 0.42414 0.14408 0.0
O885 O 0.25752 0.43956 0.11059 0.0
O886 O 0.26043 0.46289 0.17257 0.0
O887 O 0.24027 0.48939 0.15753 0.0
C888 C 0.25136 0.48273 0.17561 0.0
C889 C 0.19369 0.45821 0.11629 0.0
O890 O 0.21863 0.50638 0.11551 0.0
O891 O 0.24475 0.47745 0.10811 0.0
O892 O 0.16844 0.49381 0.16146 0.0
O893 O 0.18817 0.52336 0.15658 0.0
O894 O 0.18597 0.47878 0.11492 0.0
O895 O 0.20435 0.45538 0.13497 0.0
O896 O 0.21446 0.43734 0.16224 0.0
O897 O 0.20276 0.46922 0.18031 0.0
C898 C 0.23395 0.49646 0.10175 0.0
C899 C 0.20337 0.44714 0.17961 0.0
Dy900 Dy 0.25269 0.46999 0.88895 0.0
C901 C 0.31103 0.54631 0.87571 0.0
C902 C 0.23561 0.42835 0.89627 0.0
Dy903 Dy 0.28693 0.50883 0.88637 0.0
O904 O 0.22301 0.44661 0.89363 0.0
O905 O 0.25721 0.4329 0.89459 0.0
O906 O 0.22871 0.48857 0.86366 0.0
O907 O 0.26348 0.49385 0.86197 0.0
C908 C 0.24462 0.49986 0.85291 0.0
C909 C 0.3003 0.47411 0.91286 0.0
O910 O 0.26294 0.52098 0.91521 0.0
O911 O 0.24258 0.4882 0.92147 0.0
O912 O 0.31619 0.53166 0.89198 0.0
O913 O 0.29191 0.54099 0.86575 0.0
O914 O 0.31476 0.48729 0.90236 0.0
O915 O 0.27995 0.48175 0.91063 0.0
O916 O 0.28166 0.45391 0.86924 0.0
O917 O 0.30227 0.48586 0.85952 0.0
C918 C 0.24849 0.50857 0.92792 0.0
C919 C 0.2987 0.46394 0.85812 0.0
Dy920 Dy 0.29308 0.50769 0.63414 0.0
C921 C 0.2225 0.57719 0.63127 0.0
C922 C 0.32974 0.47876 0.63949 0.0
Dy923 Dy 0.25757 0.54653 0.63666 0.0
O924 O 0.33067 0.49878 0.63014 0.0
O925 O 0.30866 0.47427 0.64507 0.0
O926 O 0.26946 0.48846 0.61069 0.0
O927 O 0.26807 0.52284 0.60985 0.0
C928 C 0.25933 0.50597 0.60098 0.0
C929 C 0.29642 0.55405 0.65908 0.0
O930 O 0.24305 0.52346 0.66439 0.0
O931 O 0.27647 0.50221 0.66944 0.0
O932 O 0.23846 0.57777 0.64684 0.0
O933 O 0.22517 0.5592 0.61899 0.0
O934 O 0.28286 0.57 0.65094 0.0
O935 O 0.28688 0.53527 0.65742 0.0
O936 O 0.31222 0.53441 0.61456 0.0
O937 O 0.28041 0.55816 0.60755 0.0
C938 C 0.25593 0.50918 0.67706 0.0
C939 C 0.3024 0.55231 0.6042 0.0
Dy940 Dy 0.20628 0.51729 0.38966 0.0
C941 C 0.28446 0.57489 0.38978 0.0
C942 C 0.16208 0.50346 0.38791 0.0
Dy943 Dy 0.24697 0.54886 0.38507 0.0
O944 O 0.16837 0.52409 0.38897 0.0
O945 O 0.18008 0.48994 0.38818 0.0
O946 O 0.22588 0.49471 0.41518 0.0
O947 O 0.23227 0.52871 0.41391 0.0
C948 C 0.23802 0.51042 0.42411 0.0
C949 C 0.21037 0.56067 0.35961 0.0
O950 O 0.25805 0.52228 0.35916 0.0
O951 O 0.22261 0.50549 0.35632 0.0
O952 O 0.27004 0.57614 0.37268 0.0
O953 O 0.27939 0.55799 0.40349 0.0
O954 O 0.22435 0.57529 0.36759 0.0
O955 O 0.21802 0.54106 0.36382 0.0
O956 O 0.19176 0.5483 0.40595 0.0
O957 O 0.22557 0.56753 0.41077 0.0
C958 C 0.24367 0.50911 0.34806 0.0
C959 C 0.20309 0.56564 0.41356 0.0
H960 H 0.01205 0.44392 0.21196 0.0
H961 H 0.96743 0.4447 0.27185 0.0
H962 H 0.01113 0.48534 0.21071 0.0
H963 H 0.9658 0.48595 0.27008 0.0
H964 H 0.95466 0.56252 0.24281 0.0
H965 H 0.95227 0.52109 0.24173 0.0
H966 H 0.02629 0.51531 0.23999 0.0
H967 H 0.02871 0.55601 0.24195 0.0
C968 C 0.00162 0.45286 0.22453 0.0
C969 C 0.98967 0.44079 0.24188 0.0
C970 C 1.00117 0.47667 0.22391 0.0
C971 C 0.98824 0.48921 0.24022 0.0
C972 C 0.97571 0.47706 0.25707 0.0
C973 C 0.9767 0.45332 0.25809 0.0
C974 C 0.97038 0.55239 0.24236 0.0
C975 C 0.99186 0.56286 0.24289 0.0
C976 C 0.96905 0.5286 0.24172 0.0
C977 C 0.98912 0.51466 0.24067 0.0
C978 C 0.01045 0.52528 0.24064 0.0
C979 C 0.01179 0.54878 0.24201 0.0
H980 H 0.7884 0.77798 0.49147 0.0
H981 H 0.78884 0.72672 0.54567 0.0
H982 H 0.74685 0.77844 0.49115 0.0
H983 H 0.74651 0.72645 0.54461 0.0
H984 H 0.66741 0.7467 0.54855 0.0
H985 H 0.70973 0.74805 0.55306 0.0
H986 H 0.71694 0.75651 0.47881 0.0
H987 H 0.67598 0.75563 0.47456 0.0
C988 C 0.77968 0.76634 0.50302 0.0
C989 C 0.7923 0.75206 0.51836 0.0
C990 C 0.7556 0.76663 0.50286 0.0
C991 C 0.74297 0.75245 0.51782 0.0
C992 C 0.7555 0.73781 0.53299 0.0
C993 C 0.77984 0.73761 0.53325 0.0
C994 C 0.67813 0.74953 0.53339 0.0
C995 C 0.66806 0.75151 0.51126 0.0
C996 C 0.70241 0.74991 0.53588 0.0
C997 C 0.71703 0.75245 0.51629 0.0
C998 C 0.70662 0.75497 0.49443 0.0
C999 C 0.68281 0.75448 0.492 0.0
H1000 H 0.53829 0.43722 0.75166 0.0
H1001 H 0.46638 0.44339 0.76983 0.0
H1002 H 0.54112 0.47824 0.75235 0.0
H1003 H 0.46849 0.4835 0.76863 0.0
H1004 H 0.47546 0.55661 0.77971 0.0
H1005 H 0.47634 0.51614 0.78275 0.0
H1006 H 0.53579 0.51373 0.73727 0.0
H1007 H 0.53578 0.55498 0.73609 0.0
C1008 C 0.52313 0.44721 0.75604 0.0
C1009 C 0.50222 0.43655 0.76108 0.0
C1010 C 0.5246 0.47099 0.75608 0.0
C1011 C 0.50509 0.48503 0.76064 0.0
C1012 C 0.48432 0.47406 0.76575 0.0
C1013 C 0.48303 0.45054 0.7663 0.0
C1014 C 0.48872 0.5475 0.77024 0.0
C1015 C 0.50536 0.55927 0.75739 0.0
C1016 C 0.48916 0.52389 0.77178 0.0
C1017 C 0.50584 0.51075 0.75986 0.0
C1018 C 0.52265 0.52268 0.74698 0.0
C1019 C 0.52257 0.54653 0.74603 0.0
H1020 H 0.79419 0.28707 0.99002 0.0
H1021 H 0.79098 0.21989 0.01956 0.0
H1022 H 0.75216 0.29096 0.99325 0.0
H1023 H 0.74934 0.22377 0.02261 0.0
H1024 H 0.67219 0.22906 0.00996 0.0
H1025 H 0.71332 0.22644 0.99987 0.0
H1026 H 0.72196 0.29412 0.02308 0.0
H1027 H 0.68126 0.2965 0.03328 0.0
C1028 C 0.78466 0.27319 0.99735 0.0
C1029 C 0.79632 0.25326 0.00472 0.0
C1030 C 0.76045 0.27538 0.99914 0.0
C1031 C 0.74708 0.25759 0.008 0.0
C1032 C 0.75879 0.23772 0.01531 0.0
C1033 C 0.7829 0.23564 0.01382 0.0
C1034 C 0.6827 0.24361 0.01213 0.0
C1035 C 0.67326 0.2631 0.02219 0.0
C1036 C 0.70644 0.24203 0.00669 0.0
C1037 C 0.72126 0.26001 0.01085 0.0
C1038 C 0.71131 0.27996 0.01943 0.0
C1039 C 0.68783 0.28136 0.02521 0.0
H1040 H 0.28914 0.97816 0.43405 0.0
H1041 H 0.23358 0.02759 0.43548 0.0
H1042 H 0.28399 0.97073 0.47565 0.0
H1043 H 0.22808 0.01967 0.47705 0.0
H1044 H 0.21446 0.98722 0.54961 0.0
H1045 H 0.21723 0.98747 0.50708 0.0
H1046 H 0.29052 0.99594 0.51148 0.0
H1047 H 0.28762 0.99642 0.55387 0.0
C1048 C 0.27542 0.98706 0.44304 0.0
C1049 C 0.26172 1.00345 0.4312 0.0
C1050 C 0.2726 0.9829 0.46701 0.0
C1051 C 0.25564 0.9946 0.4798 0.0
C1052 C 0.2412 0.0102 0.46777 0.0
C1053 C 0.24436 0.01476 0.44389 0.0
C1054 C 0.23127 0.98837 0.54154 0.0
C1055 C 0.25089 0.99137 0.55526 0.0
C1056 C 0.23281 0.98886 0.51712 0.0
C1057 C 0.25409 0.99179 0.50577 0.0
C1058 C 0.27388 0.99348 0.51956 0.0
C1059 C 0.27224 0.99361 0.54391 0.0
H1060 H 0.29575 0.00941 0.68736 0.0
H1061 H 0.22489 0.99069 0.68144 0.0
H1062 H 0.29305 0.00667 0.72932 0.0
H1063 H 0.22194 0.98829 0.72401 0.0
H1064 H 0.21786 0.01854 0.798 0.0
H1065 H 0.22109 0.01516 0.75603 0.0
H1066 H 0.28866 0.98438 0.76418 0.0
H1067 H 0.28551 0.98789 0.80623 0.0
C1068 C 0.27969 0.00398 0.69504 0.0
C1069 C 0.26054 1.00039 0.68083 0.0
C1070 C 0.27811 1.00253 0.71928 0.0
C1071 C 0.25718 0.99765 0.73038 0.0
C1072 C 0.23828 0.99255 0.71618 0.0
C1073 C 0.24001 0.99365 0.69168 0.0
C1074 C 0.23361 0.01132 0.79093 0.0
C1075 C 0.25156 0.00379 0.8058 0.0
C1076 C 0.23528 0.00903 0.76672 0.0
C1077 C 0.25503 0.99926 0.75644 0.0
C1078 C 0.27318 0.99211 0.77127 0.0
C1079 C 0.27144 0.99425 0.79551 0.0
H1080 H 0.26779 0.02698 0.05752 0.0
H1081 H 0.24983 0.9576 0.0506 0.0
H1082 H 0.26713 0.03224 0.01565 0.0
H1083 H 0.24794 0.96305 0.00848 0.0
H1084 H 0.26698 0.97149 0.93239 0.0
H1085 H 0.2692 0.96703 0.97449 0.0
H1086 H 0.24725 0.03647 0.98156 0.0
H1087 H 0.24614 0.04103 0.93955 0.0
C1088 C 0.26316 0.0129 0.04708 0.0
C1089 C 0.25889 0.99182 0.05765 0.0
C1090 C 0.26272 0.01594 0.02283 0.0
C1091 C 0.2577 0.99808 0.00814 0.0
C1092 C 0.25248 0.97719 0.01885 0.0
C1093 C 0.25318 0.97409 0.04317 0.0
C1094 C 0.26323 0.98597 0.94295 0.0
C1095 C 0.25661 0.00669 0.93237 0.0
C1096 C 0.26407 0.98331 0.96727 0.0
C1097 C 0.25807 1.00124 0.98195 0.0
C1098 C 0.25228 0.0222 0.97123 0.0
C1099 C 0.25168 0.0249 0.94691 0.0
H1100 H 0.29036 0.97237 0.1911 0.0
H1101 H 0.22555 0.00873 0.18461 0.0
H1102 H 0.28961 0.97675 0.23254 0.0
H1103 H 0.22529 0.01449 0.22687 0.0
H1104 H 0.22495 0.00837 0.30735 0.0
H1105 H 0.22212 1.00073 0.26583 0.0
H1106 H 0.29627 1.00223 0.26025 0.0
H1107 H 0.29893 0.00853 0.30144 0.0
C1108 C 0.27601 0.98173 0.19857 0.0
C1109 C 0.25825 0.99062 0.18434 0.0
C1110 C 0.27565 0.9844 0.22257 0.0
C1111 C 0.25774 0.99657 0.23348 0.0
C1112 C 0.23946 0.00499 0.21932 0.0
C1113 C 0.2396 1.00185 0.19503 0.0
C1114 C 0.24063 0.00659 0.29725 0.0
C1115 C 0.26219 0.00885 0.3079 0.0
C1116 C 0.23901 1.0025 0.27329 0.0
C1117 C 0.25892 1.00071 0.25925 0.0
C1118 C 0.28043 1.00285 0.27018 0.0
C1119 C 0.28203 0.00661 0.29402 0.0
H1120 H 0.43522 0.26214 0.97062 0.0
H1121 H 0.42152 0.24068 0.04114 0.0
H1122 H 0.4763 0.25731 0.9771 0.0
H1123 H 0.46307 0.2361 0.04792 0.0
H1124 H 0.53704 0.26366 0.05803 0.0
H1125 H 0.49571 0.26199 0.05133 0.0
H1126 H 0.50887 0.23223 0.98485 0.0
H1127 H 0.55027 0.23401 0.99147 0.0
C1128 C 0.44097 0.25575 0.98742 0.0
C1129 C 0.42492 0.25192 0.00536 0.0
C1130 C 0.46467 0.25304 0.99116 0.0
C1131 C 0.47325 0.24663 0.01314 0.0
C1132 C 0.45716 0.24145 0.03084 0.0
C1133 C 0.43325 0.24383 0.02691 0.0
C1134 C 0.53121 0.25693 0.04185 0.0
C1135 C 0.54723 0.24921 0.02518 0.0
C1136 C 0.50739 0.25567 0.03817 0.0
C1137 C 0.49875 0.2468 0.01762 0.0
C1138 C 0.51476 0.23928 1.00085 0.0
C1139 C 0.53861 0.24038 0.00461 0.0
H1140 H 0.93475 0.22006 0.99657 0.0
H1141 H 0.9219 0.28921 0.01426 0.0
H1142 H 0.97514 0.22639 0.99325 0.0
H1143 H 0.96365 0.2959 0.01087 0.0
H1144 H 0.0434 0.28848 0.02971 0.0
H1145 H 1.00114 0.28674 0.03005 0.0
H1146 H 0.00448 0.24239 0.97186 0.0
H1147 H 0.04593 0.24325 0.9722 0.0
C1148 C 0.94038 0.23709 0.9986 0.0
C1149 C 0.92453 0.25432 0.00463 0.0
C1150 C 0.96396 0.2407 0.99696 0.0
C1151 C 0.97314 0.26174 0.00159 0.0
C1152 C 0.95739 0.27939 0.0072 0.0
C1153 C 0.93334 0.27572 0.00868 0.0
C1154 C 0.03509 0.27806 0.01726 0.0
C1155 C 0.04847 0.26566 1.00125 0.0
C1156 C 0.01074 0.27735 0.0172 0.0
C1157 C 0.99902 0.26431 1.00106 0.0
C1158 C 0.01253 0.25225 0.98496 0.0
C1159 C 0.03662 0.25277 0.98517 0.0
H1160 H 0.96469 0.68957 0.26587 0.0
H1161 H 0.03316 0.69737 0.2384 0.0
H1162 H 0.95873 0.73084 0.2638 0.0
H1163 H 0.02722 0.73768 0.23577 0.0
H1164 H 0.00431 0.80959 0.21688 0.0
H1165 H 0.0067 0.76858 0.21633 0.0
H1166 H 0.97378 0.76512 0.28352 0.0
H1167 H 0.97135 0.80635 0.28401 0.0
C1168 C 0.97809 0.69989 0.25852 0.0
C1169 C 0.99912 0.68986 0.25151 0.0
C1170 C 0.97488 0.72362 0.2577 0.0
C1171 C 0.9925 0.73785 0.24956 0.0
C1172 C 0.01305 0.72756 0.24177 0.0
C1173 C 0.01637 0.70417 0.24303 0.0
C1174 C 0.99789 0.80014 0.23174 0.0
C1175 C 0.98795 0.81149 0.25062 0.0
C1176 C 0.99913 0.7765 0.23138 0.0
C1177 C 0.99029 0.76325 0.24982 0.0
C1178 C 0.98048 0.77459 0.26883 0.0
C1179 C 0.97943 0.79833 0.26928 0.0
H1180 H 0.53554 0.78811 0.54465 0.0
H1181 H 0.53558 0.73526 0.49454 0.0
H1182 H 0.49307 0.78925 0.54414 0.0
H1183 H 0.49389 0.737 0.49362 0.0
H1184 H 0.41418 0.75951 0.54668 0.0
H1185 H 0.45594 0.76235 0.55231 0.0
H1186 H 0.46542 0.76866 0.47828 0.0
H1187 H 0.42398 0.76641 0.47264 0.0
C1188 C 0.52667 0.77646 0.5339 0.0
C1189 C 0.53936 0.76165 0.51961 0.0
C1190 C 0.50227 0.77723 0.53348 0.0
C1191 C 0.48997 0.76353 0.51846 0.0
C1192 C 0.50267 0.74812 0.50506 0.0
C1193 C 0.52678 0.74706 0.50576 0.0
C1194 C 0.42508 0.76217 0.53163 0.0
C1195 C 0.41547 0.76263 0.50917 0.0
C1196 C 0.44909 0.76371 0.53488 0.0
C1197 C 0.46418 0.76537 0.51575 0.0
C1198 C 0.45442 0.76708 0.49343 0.0
C1199 C 0.43052 0.76595 0.49021 0.0
H1200 H 0.92535 0.75904 0.478 0.0
H1201 H 0.92174 0.75788 0.55256 0.0
H1202 H 0.96719 0.75485 0.47983 0.0
H1203 H 0.96329 0.7528 0.55465 0.0
H1204 H 0.03761 0.7756 0.5518 0.0
H1205 H 0.99588 0.77528 0.54892 0.0
H1206 H 0.0017 0.73401 0.48845 0.0
H1207 H 0.04362 0.73475 0.49107 0.0
C1208 C 0.93336 0.75669 0.49484 0.0
C1209 C 0.9198 0.75781 0.51511 0.0
C1210 C 0.95752 0.75451 0.49592 0.0
C1211 C 0.96903 0.75372 0.51741 0.0
C1212 C 0.95533 0.75371 0.53771 0.0
C1213 C 0.93118 0.75595 0.53656 0.0
C1214 C 0.0301 0.76665 0.53767 0.0
C1215 C 0.04429 0.75533 0.52159 0.0
C1216 C 0.00597 0.76619 0.53621 0.0
C1217 C 0.99503 0.75431 0.51865 0.0
C1218 C 0.00924 0.74345 0.50219 0.0
C1219 C 0.03344 0.74393 0.50365 0.0
H1220 H 0.03161 0.18233 0.23203 0.0
H1221 H 0.95924 0.18915 0.21757 0.0
H1222 H 0.03498 0.22294 0.23029 0.0
H1223 H 0.96184 0.22997 0.21763 0.0
H1224 H 0.97158 0.30621 0.21354 0.0
H1225 H 0.96962 0.26576 0.20705 0.0
H1226 H 0.03066 0.25482 0.24884 0.0
H1227 H 0.03321 0.29488 0.25364 0.0
C1228 C 0.01642 0.19257 0.22799 0.0
C1229 C 0.99529 0.18222 0.22436 0.0
C1230 C 0.01815 0.21618 0.22757 0.0
C1231 C 0.99859 0.23063 0.22446 0.0
C1232 C 0.97755 0.22008 0.2199 0.0
C1233 C 0.976 0.19638 0.21968 0.0
C1234 C 0.98471 0.29509 0.22104 0.0
C1235 C 0.00268 0.30406 0.23395 0.0
C1236 C 0.98354 0.27162 0.21751 0.0
C1237 C 1.00005 0.25615 0.22718 0.0
C1238 C 0.01785 0.26547 0.24026 0.0
C1239 C 0.01925 0.28881 0.2433 0.0
H1240 H 0.5218 0.79662 0.77597 0.0
H1241 H 0.48309 0.80712 0.71295 0.0
H1242 H 0.52373 0.75663 0.76972 0.0
H1243 H 0.48585 0.76649 0.70585 0.0
H1244 H 0.47514 0.68858 0.71475 0.0
H1245 H 0.47463 0.72966 0.71523 0.0
H1246 H 0.54002 0.72728 0.75059 0.0
H1247 H 0.53968 0.68641 0.75116 0.0
C1248 C 0.51388 0.7904 0.76048 0.0
C1249 C 0.50234 0.80538 0.74496 0.0
C1250 C 0.51522 0.76718 0.75669 0.0
C1251 C 0.50536 0.75772 0.73696 0.0
C1252 C 0.49366 0.77274 0.72134 0.0
C1253 C 0.49212 0.7962 0.72532 0.0
C1254 C 0.48978 0.69685 0.72197 0.0
C1255 C 0.5076 0.68394 0.7327 0.0
C1256 C 0.48942 0.72063 0.72243 0.0
C1257 C 0.50698 0.73237 0.73349 0.0
C1258 C 0.52563 0.7193 0.74262 0.0
C1259 C 0.52576 0.69563 0.74252 0.0
H1260 H 0.97648 0.45631 0.74522 0.0
H1261 H 0.04613 0.44712 0.77008 0.0
H1262 H 0.97982 0.49684 0.74713 0.0
H1263 H 0.04963 0.48836 0.77104 0.0
H1264 H 0.04505 0.56554 0.73716 0.0
H1265 H 0.04545 0.52424 0.73794 0.0
H1266 H 0.98665 0.52509 0.78376 0.0
H1267 H 0.98684 0.56647 0.78373 0.0
C1268 C 0.99277 0.4628 0.7507 0.0
C1269 C 0.01112 0.44799 0.75733 0.0
C1270 C 0.99453 0.48625 0.752 0.0
C1271 C 0.01487 0.49599 0.75946 0.0
C1272 C 0.03364 0.48143 0.76528 0.0
C1273 C 0.03168 0.45775 0.76459 0.0
C1274 C 0.03253 0.55691 0.74785 0.0
C1275 C 0.01613 0.56942 0.76066 0.0
C1276 C 0.03277 0.53321 0.74828 0.0
C1277 C 0.01615 0.52123 0.76095 0.0
C1278 C 0.99979 0.53373 0.77388 0.0
C1279 C 0.99997 0.55746 0.774 0.0
H1280 H 0.2076 0.28532 0.4647 0.0
H1281 H 0.21377 0.22203 0.50264 0.0
H1282 H 0.24967 0.28843 0.46536 0.0
H1283 H 0.25533 0.22503 0.50287 0.0
H1284 H 0.32914 0.22277 0.47995 0.0
H1285 H 0.28772 0.223 0.47399 0.0
H1286 H 0.28321 0.29256 0.49322 0.0
H1287 H 0.32481 0.29217 0.49939 0.0
C1288 C 0.21776 0.27226 0.4735 0.0
C1289 C 0.20697 0.25345 0.48365 0.0
C1290 C 0.24196 0.27397 0.47372 0.0
C1291 C 0.25605 0.25673 0.48371 0.0
C1292 C 0.24519 0.23838 0.4945 0.0
C1293 C 0.22115 0.23684 0.4946 0.0
C1294 C 0.3197 0.23839 0.48194 0.0
C1295 C 0.3307 0.25756 0.48973 0.0
C1296 C 0.29567 0.23843 0.47894 0.0
C1297 C 0.28191 0.25773 0.48344 0.0
C1298 C 0.29312 0.2774 0.48951 0.0
C1299 C 0.31708 0.27721 0.49286 0.0
H1300 H 0.45632 0.45686 0.23557 0.0
H1301 H 0.52584 0.45198 0.26089 0.0
H1302 H 0.45734 0.49785 0.23676 0.0
H1303 H 0.52703 0.49298 0.26209 0.0
H1304 H 0.53244 0.56378 0.22915 0.0
H1305 H 0.5285 0.52324 0.23207 0.0
H1306 H 0.46007 0.53231 0.26015 0.0
H1307 H 0.46406 0.57322 0.25747 0.0
C1308 C 0.47155 0.4645 0.24232 0.0
C1309 C 0.49074 0.45088 0.24881 0.0
C1310 C 0.47221 0.48811 0.24282 0.0
C1311 C 0.49235 0.49899 0.24926 0.0
C1312 C 0.51125 0.48534 0.25676 0.0
C1313 C 0.51044 0.46166 0.25658 0.0
C1314 C 0.51633 0.55732 0.23565 0.0
C1315 C 0.49853 0.57216 0.24295 0.0
C1316 C 0.51422 0.53387 0.23765 0.0
C1317 C 0.49413 0.52424 0.24678 0.0
C1318 C 0.47586 0.53898 0.2531 0.0
C1319 C 0.47809 0.56255 0.25138 0.0
H1320 H 0.33123 0.77702 0.99611 0.0
H1321 H 0.33292 0.7067 0.97955 0.0
H1322 H 0.28953 0.77621 1.00041 0.0
H1323 H 0.29083 0.70582 0.98411 0.0
H1324 H 0.21453 0.71305 0.0157 0.0
H1325 H 0.25667 0.70996 0.01204 0.0
H1326 H 0.25675 0.77307 0.9738 0.0
H1327 H 0.21515 0.77608 0.97715 0.0
C1328 C 0.32278 0.76124 0.99368 0.0
C1329 C 0.33569 0.74195 0.98736 0.0
C1330 C 0.29868 0.76081 0.99596 0.0
C1331 C 0.28648 0.74103 0.99226 0.0
C1332 C 0.29947 0.72139 0.9871 0.0
C1333 C 0.32369 0.72188 0.98453 0.0
C1334 C 0.22346 0.72604 0.00608 0.0
C1335 C 0.21105 0.74482 0.99674 0.0
C1336 C 0.24774 0.72431 0.00406 0.0
C1337 C 0.26041 0.74146 0.99297 0.0
C1338 C 0.24786 0.75972 0.98291 0.0
C1339 C 0.22375 0.76131 0.98467 0.0
H1340 H 0.75986 0.03166 0.44758 0.0
H1341 H 0.71607 0.97407 0.45085 0.0
H1342 H 0.75841 0.03347 0.49026 0.0
H1343 H 0.71527 0.97563 0.49287 0.0
H1344 H 0.74946 0.96331 0.56331 0.0
H1345 H 0.75123 0.96844 0.52139 0.0
H1346 H 0.72599 0.03678 0.52728 0.0
H1347 H 0.72364 0.03161 0.56973 0.0
C1348 C 0.7495 0.01976 0.45721 0.0
C1349 C 0.73819 1.00265 0.44554 0.0
C1350 C 0.7488 0.02073 0.48169 0.0
C1351 C 0.73704 0.00444 0.49498 0.0
C1352 C 0.72477 0.98821 0.48321 0.0
C1353 C 0.72518 0.98743 0.45898 0.0
C1354 C 0.74457 0.97963 0.55592 0.0
C1355 C 0.73624 0.99699 0.57017 0.0
C1356 C 0.74552 0.9825 0.53175 0.0
C1357 C 0.73852 1.00293 0.52093 0.0
C1358 C 0.73151 0.02084 0.53509 0.0
C1359 C 0.7302 0.01785 0.55944 0.0
H1360 H 0.69588 0.99229 0.31642 0.0
H1361 H 0.7677 0.00778 0.32045 0.0
H1362 H 0.69755 0.99563 0.27431 0.0
H1363 H 0.7696 0.011 0.27812 0.0
H1364 H 0.77216 0.98015 0.20548 0.0
H1365 H 0.76854 0.98299 0.24742 0.0
H1366 H 0.70296 0.01775 0.23896 0.0
H1367 H 0.70647 0.01481 0.19689 0.0
C1368 C 0.71184 0.99745 0.30834 0.0
C1369 C 0.7316 0.99995 0.32196 0.0
C1370 C 0.71286 0.99913 0.28407 0.0
C1371 C 0.73383 1.00308 0.27261 0.0
C1372 C 0.75323 0.00743 0.28629 0.0
C1373 C 0.75209 0.00601 0.31069 0.0
C1374 C 0.75673 0.98807 0.21247 0.0
C1375 C 0.73956 0.99712 0.19755 0.0
C1376 C 0.75486 0.99005 0.23662 0.0
C1377 C 0.73568 1.00102 0.24672 0.0
C1378 C 0.71802 0.00924 0.2319 0.0
C1379 C 0.71996 0.00738 0.20769 0.0
H1380 H 0.7323 0.0467 0.94914 0.0
H1381 H 0.75107 0.97646 0.94461 0.0
H1382 H 0.73152 0.0434 0.99094 0.0
H1383 H 0.75231 0.97325 0.98692 0.0
H1384 H 0.73747 0.96744 0.06457 0.0
H1385 H 0.73552 0.97018 0.02224 0.0
H1386 H 0.74767 0.0415 0.02537 0.0
H1387 H 0.74746 0.03885 0.06707 0.0
C1388 C 0.73699 0.03059 0.95712 0.0
C1389 C 0.74198 0.0119 0.94328 0.0
C1390 C 0.73666 0.02863 0.98147 0.0
C1391 C 0.74195 0.008 0.99315 0.0
C1392 C 0.74762 0.9894 0.97913 0.0
C1393 C 0.74732 0.99127 0.95466 0.0
C1394 C 0.73913 0.98376 0.05613 0.0
C1395 C 0.74249 1.00289 0.06952 0.0
C1396 C 0.73844 0.98537 0.03163 0.0
C1397 C 0.74161 0.0061 0.01958 0.0
C1398 C 0.7446 0.0252 0.03327 0.0
C1399 C 0.74466 0.02367 0.05761 0.0
H1400 H 0.70833 0.0041 0.70074 0.0
H1401 H 0.78119 0.99028 0.69307 0.0
H1402 H 0.71326 0.00801 0.74238 0.0
H1403 H 0.78617 0.9946 0.73507 0.0
H1404 H 0.78073 0.02691 0.81168 0.0
H1405 H 0.78142 0.02306 0.7693 0.0
H1406 H 0.72356 0.97923 0.77415 0.0
H1407 H 0.72304 0.98266 0.81608 0.0
C1408 C 0.72552 1.0023 0.70783 0.0
C1409 C 0.74432 0.9967 0.69341 0.0
C1410 C 0.72832 0.00436 0.73183 0.0
C1411 C 0.75006 1.0012 0.74224 0.0
C1412 C 0.76917 0.99705 0.72768 0.0
C1413 C 0.76631 0.99466 0.70358 0.0
C1414 C 0.76864 0.01586 0.8038 0.0
C1415 C 0.75176 0.00519 0.81751 0.0
C1416 C 0.76892 0.01382 0.77944 0.0
C1417 C 0.75217 1.00128 0.76821 0.0
C1418 C 0.73637 0.98946 0.78209 0.0
C1419 C 0.73625 0.99128 0.80628 0.0
H1420 H 0.46416 0.75637 0.02174 0.0
H1421 H 0.46979 0.73414 0.95111 0.0
H1422 H 0.50619 0.75711 0.02411 0.0
H1423 H 0.51155 0.73503 0.9535 0.0
H1424 H 0.58527 0.75867 0.956 0.0
H1425 H 0.54318 0.7623 0.95575 0.0
H1426 H 0.54065 0.73213 0.02446 0.0
H1427 H 0.58249 0.72832 0.02449 0.0
C1428 C 0.47426 0.75127 0.00684 0.0
C1429 C 0.46329 0.74505 0.9863 0.0
C1430 C 0.49846 0.75185 0.00814 0.0
C1431 C 0.51244 0.74652 0.98885 0.0
C1432 C 0.50147 0.73975 0.96855 0.0
C1433 C 0.47737 0.73891 0.96734 0.0
C1434 C 0.57584 0.75356 0.97135 0.0
C1435 C 0.58743 0.74346 0.99038 0.0
C1436 C 0.55158 0.75528 0.97109 0.0
C1437 C 0.53831 0.74724 0.99 0.0
C1438 C 0.55009 0.73861 0.00962 0.0
C1439 C 0.57419 0.73656 0.00968 0.0
H1440 H 0.96662 0.76405 0.01169 0.0
H1441 H 0.97088 0.71999 0.9533 0.0
H1442 H 0.00833 0.76495 0.01316 0.0
H1443 H 0.0131 0.72111 0.95472 0.0
H1444 H 0.08159 0.74192 0.02904 0.0
H1445 H 0.04008 0.7391 0.02434 0.0
H1446 H 0.04804 0.74518 0.95006 0.0
H1447 H 0.0898 0.74813 0.95479 0.0
C1448 C 0.97636 0.75476 0.99885 0.0
C1449 C 0.96497 0.74192 0.98235 0.0
C1450 C 1.00051 0.7551 0.9999 0.0
C1451 C 0.0144 0.74278 0.98437 0.0
C1452 C 0.00312 0.73081 0.96705 0.0
C1453 C 0.9788 0.73026 0.96615 0.0
C1454 C 0.07465 0.74228 0.01163 0.0
C1455 C 0.08933 0.74531 0.99233 0.0
C1456 C 0.05066 0.74091 0.00893 0.0
C1457 C 0.04037 0.7423 0.9868 0.0
C1458 C 0.05515 0.74406 0.96738 0.0
C1459 C 0.07921 0.74569 0.97011 0.0
H1460 H 0.03184 0.21093 0.71262 0.0
H1461 H 0.99165 0.19627 0.77395 0.0
H1462 H 0.02736 0.25084 0.71903 0.0
H1463 H 0.98735 0.23689 0.78076 0.0
H1464 H 0.96355 0.31185 0.76809 0.0
H1465 H 0.96995 0.27146 0.76741 0.0
H1466 H 0.03893 0.28141 0.74169 0.0
H1467 H 0.03214 0.32242 0.74203 0.0
C1468 C 0.02186 0.21622 0.72755 0.0
C1469 C 0.01211 0.20008 0.74273 0.0
C1470 C 0.0196 0.23935 0.73143 0.0
C1471 C 0.0074 0.24754 0.7507 0.0
C1472 C 0.99693 0.23146 0.76566 0.0
C1473 C 0.99924 0.20805 0.76172 0.0
C1474 C 0.98035 0.30553 0.76273 0.0
C1475 C 0.99733 0.32061 0.75509 0.0
C1476 C 0.98403 0.28213 0.7624 0.0
C1477 C 0.00484 0.27272 0.75418 0.0
C1478 C 0.02243 0.28783 0.74773 0.0
C1479 C 0.01875 0.31145 0.74823 0.0
H1480 H 0.46171 0.22302 0.52497 0.0
H1481 H 0.46325 0.25674 0.45813 0.0
H1482 H 0.50342 0.22163 0.52611 0.0
H1483 H 0.50546 0.25681 0.45966 0.0
H1484 H 0.58227 0.24852 0.4615 0.0
H1485 H 0.54157 0.24022 0.45819 0.0
H1486 H 0.53533 0.24124 0.53293 0.0
H1487 H 0.57618 0.24805 0.53588 0.0
C1488 C 0.4711 0.23032 0.51048 0.0
C1489 C 0.45909 0.24012 0.49152 0.0
C1490 C 0.49522 0.22971 0.51121 0.0
C1491 C 0.50844 0.23939 0.4932 0.0
C1492 C 0.49629 0.24885 0.47387 0.0
C1493 C 0.47195 0.24901 0.47295 0.0
C1494 C 0.57241 0.24568 0.47725 0.0
C1495 C 0.58283 0.24827 0.49899 0.0
C1496 C 0.54874 0.24158 0.47536 0.0
C1497 C 0.53446 0.24046 0.4952 0.0
C1498 C 0.54532 0.24164 0.51706 0.0
C1499 C 0.56909 0.24537 0.51889 0.0
H1500 H 0.96286 0.23588 0.44634 0.0
H1501 H 0.95605 0.26153 0.51556 0.0
H1502 H 0.00456 0.23544 0.44995 0.0
H1503 H 0.99806 0.26095 0.51918 0.0
H1504 H 0.07382 0.2292 0.52229 0.0
H1505 H 0.032 0.23454 0.52153 0.0
H1506 H 0.03659 0.26196 0.4518 0.0
H1507 H 0.07826 0.25654 0.45266 0.0
C1508 C 0.97016 0.24117 0.46251 0.0
C1509 C 0.9558 0.24861 0.48071 0.0
C1510 C 0.99423 0.24121 0.46444 0.0
C1511 C 0.00487 0.24848 0.48473 0.0
C1512 C 0.99056 0.25524 0.50327 0.0
C1513 C 0.9664 0.25548 0.50123 0.0
C1514 C 0.06599 0.23725 0.50713 0.0
C1515 C 0.07971 0.24303 0.48779 0.0
C1516 C 0.04192 0.24014 0.50663 0.0
C1517 C 0.03071 0.24845 0.48651 0.0
C1518 C 0.04451 0.25528 0.46754 0.0
C1519 C 0.06864 0.25264 0.46819 0.0
H1520 H 0.03487 0.70877 0.77034 0.0
H1521 H 0.96133 0.70951 0.76147 0.0
H1522 H 0.03361 0.7498 0.77422 0.0
H1523 H 0.95976 0.75 0.76621 0.0
H1524 H 0.96556 0.82417 0.74637 0.0
H1525 H 0.96657 0.7835 0.74741 0.0
H1526 H 0.02442 0.7834 0.79411 0.0
H1527 H 0.02384 0.82467 0.79228 0.0
C1528 C 0.01836 0.7176 0.76962 0.0
C1529 C 0.99822 0.70562 0.76549 0.0
C1530 C 0.01757 0.74129 0.77192 0.0
C1531 C 0.99658 0.75384 0.77029 0.0
C1532 C 0.97643 0.74151 0.767 0.0
C1533 C 0.97727 0.71801 0.7645 0.0
C1534 C 0.97831 0.81564 0.75728 0.0
C1535 C 0.99446 0.82815 0.76943 0.0
C1536 C 0.97887 0.79197 0.75794 0.0
C1537 C 0.99558 0.77951 0.77088 0.0
C1538 C 0.01138 0.79202 0.78366 0.0
C1539 C 0.01082 0.81588 0.78296 0.0
H1540 H 0.52033 0.32209 0.29591 0.0
H1541 H 0.46761 0.32063 0.2436 0.0
H1542 H 0.52221 0.28074 0.29701 0.0
H1543 H 0.46961 0.27977 0.24464 0.0
H1544 H 0.50337 0.21288 0.22515 0.0
H1545 H 0.49911 0.25306 0.23051 0.0
H1546 H 0.50199 0.24269 0.30473 0.0
H1547 H 0.50611 0.20167 0.29926 0.0
C1548 C 0.50862 0.31309 0.28516 0.0
C1549 C 0.49381 0.32507 0.26964 0.0
C1550 C 0.50982 0.28925 0.28569 0.0
C1551 C 0.49641 0.27665 0.27057 0.0
C1552 C 0.48061 0.28868 0.25622 0.0
C1553 C 0.47931 0.31232 0.25579 0.0
C1554 C 0.50316 0.21896 0.24272 0.0
C1555 C 0.50508 0.20373 0.26174 0.0
C1556 C 0.50052 0.24221 0.2458 0.0
C1557 C 0.49987 0.25144 0.26808 0.0
C1558 C 0.50238 0.23634 0.28727 0.0
C1559 C 0.50473 0.21277 0.28416 0.0
H1560 H 0.46564 0.06379 0.72127 0.0
H1561 H 0.50368 0.05966 0.78528 0.0
H1562 H 0.46357 0.02266 0.72132 0.0
H1563 H 0.50109 0.01863 0.78562 0.0
H1564 H 0.49294 0.94682 0.71767 0.0
H1565 H 0.49166 0.98827 0.71703 0.0
H1566 H 0.47178 0.98756 0.78918 0.0
H1567 H 0.4722 0.94652 0.78955 0.0
C1568 C 0.47303 0.05423 0.73573 0.0
C1569 C 0.4845 0.06539 0.7535 0.0
C1570 C 0.47213 0.0305 0.73556 0.0
C1571 C 0.48222 0.01704 0.75342 0.0
C1572 C 0.49297 0.02824 0.7716 0.0
C1573 C 0.49436 0.05192 0.77148 0.0
C1574 C 0.48802 0.9555 0.73331 0.0
C1575 C 0.4829 0.94308 0.75372 0.0
C1576 C 0.48728 0.97935 0.73297 0.0
C1577 C 0.4818 0.99153 0.75314 0.0
C1578 C 0.47636 0.979 0.77336 0.0
C1579 C 0.47658 0.95531 0.77354 0.0
H1580 H 0.18099 0.21264 0.00262 0.0
H1581 H 0.17609 0.28256 0.02047 0.0
H1582 H 0.22254 0.21261 0.00854 0.0
H1583 H 0.21795 0.28278 0.02554 0.0
H1584 H 0.29825 0.21993 0.03597 0.0
H1585 H 0.256 0.21758 0.03649 0.0
H1586 H 0.2506 0.27951 0.99638 0.0
H1587 H 0.29215 0.28167 0.99531 0.0
C1588 C 0.18869 0.22796 0.00828 0.0
C1589 C 0.17504 0.24773 0.01061 0.0
C1590 C 0.21263 0.22792 0.01163 0.0
C1591 C 0.22383 0.24777 0.01707 0.0
C1592 C 0.21002 0.26724 0.0209 0.0
C1593 C 0.18592 0.26714 0.01803 0.0
C1594 C 0.28808 0.23283 0.02693 0.0
C1595 C 0.29898 0.25088 0.01549 0.0
C1596 C 0.2638 0.23159 0.02738 0.0
C1597 C 0.24974 0.2486 0.01684 0.0
C1598 C 0.2607 0.26635 0.00514 0.0
C1599 C 0.28476 0.26738 0.00432 0.0
H1600 H 0.99765 0.05911 0.21826 0.0
H1601 H 0.99414 0.04823 0.29248 0.0
H1602 H 0.99778 0.01782 0.21331 0.0
H1603 H 0.99459 0.0082 0.28766 0.0
H1604 H 0.96796 0.9394 0.27288 0.0
H1605 H 0.96911 0.98009 0.27467 0.0
H1606 H 0.02154 0.98111 0.22143 0.0
H1607 H 0.02014 0.9399 0.2194 0.0
C1608 C 0.99683 0.04809 0.23343 0.0
C1609 C 0.99582 0.05724 0.25575 0.0
C1610 C 0.9971 0.0244 0.23066 0.0
C1611 C 0.99605 0.00945 0.25012 0.0
C1612 C 0.99505 0.01888 0.2722 0.0
C1613 C 0.99493 0.04212 0.27493 0.0
C1614 C 0.98009 0.94812 0.26179 0.0
C1615 C 0.99423 0.93606 0.24629 0.0
C1616 C 0.98069 0.97164 0.26273 0.0
C1617 C 0.9954 0.98418 0.24816 0.0
C1618 C 0.00981 0.97218 0.23277 0.0
C1619 C 0.00932 0.94845 0.23193 0.0
H1620 H 0.28983 0.72029 0.51493 0.0
H1621 H 0.29255 0.78868 0.48871 0.0
H1622 H 0.24796 0.72378 0.51779 0.0
H1623 H 0.25072 0.79204 0.4912 0.0
H1624 H 0.17892 0.79802 0.52611 0.0
H1625 H 0.21983 0.79507 0.51785 0.0
H1626 H 0.21184 0.72664 0.49655 0.0
H1627 H 0.17039 0.7298 0.50496 0.0
C1628 C 0.2816 0.7362 0.50998 0.0
C1629 C 0.29494 0.75429 0.50187 0.0
C1630 C 0.25739 0.73808 0.51128 0.0
C1631 C 0.24556 0.75815 0.50458 0.0
C1632 C 0.25895 0.77633 0.49675 0.0
C1633 C 0.28314 0.77442 0.49538 0.0
C1634 C 0.18567 0.78256 0.51882 0.0
C1635 C 0.1711 0.76427 0.516 0.0
C1636 C 0.20936 0.7808 0.51419 0.0
C1637 C 0.2196 0.76051 0.50676 0.0
C1638 C 0.20482 0.74247 0.50263 0.0
C1639 C 0.18086 0.74437 0.50705 0.0
H1640 H 0.73423 0.52396 0.93398 0.0
H1641 H 0.78805 0.47276 0.93175 0.0
H1642 H 0.72989 0.51694 0.97591 0.0
H1643 H 0.78424 0.46645 0.97372 0.0
H1644 H 0.78948 0.49849 0.05128 0.0
H1645 H 0.79172 0.4971 0.00881 0.0
H1646 H 0.72001 0.48066 0.00632 0.0
H1647 H 0.718 0.48109 0.04889 0.0
C1648 C 0.74485 0.51094 0.9423 0.0
C1649 C 0.76133 0.4988 0.9293 0.0
C1650 C 0.74238 0.50694 0.96636 0.0
C1651 C 0.75676 0.49115 0.97818 0.0
C1652 C 0.7729 0.4787 0.96515 0.0
C1653 C 0.77493 0.48223 0.94102 0.0
C1654 C 0.77443 0.49371 0.04174 0.0
C1655 C 0.75372 0.48939 0.0536 0.0
C1656 C 0.77566 0.49309 0.01738 0.0
C1657 C 0.75601 0.48888 0.00415 0.0
C1658 C 0.73544 0.48394 0.01599 0.0
C1659 C 0.73439 0.48388 0.04042 0.0
H1660 H 0.7604 0.53999 0.18119 0.0
H1661 H 0.7619 0.46756 0.18307 0.0
H1662 H 0.76039 0.54038 0.22351 0.0
H1663 H 0.76179 0.46777 0.2258 0.0
H1664 H 0.77912 0.47693 0.30309 0.0
H1665 H 0.78402 0.47742 0.26089 0.0
H1666 H 0.7339 0.53196 0.25492 0.0
H1667 H 0.72911 0.53157 0.29692 0.0
C1668 C 0.76102 0.5241 0.19076 0.0
C1669 C 0.76139 0.50374 0.17883 0.0
C1670 C 0.76082 0.5243 0.21506 0.0
C1671 C 0.761 0.50412 0.22827 0.0
C1672 C 0.76189 0.48366 0.21628 0.0
C1673 C 0.76192 0.48348 0.1918 0.0
C1674 C 0.7695 0.48938 0.29285 0.0
C1675 C 0.75379 0.50432 0.30362 0.0
C1676 C 0.77209 0.48944 0.26855 0.0
C1677 C 0.75926 0.50461 0.25431 0.0
C1678 C 0.74426 0.52013 0.26519 0.0
C1679 C 0.74151 0.51993 0.28941 0.0
H1680 H 0.75192 0.4694 0.55091 0.0
H1681 H 0.77333 0.53822 0.55082 0.0
H1682 H 0.74696 0.47191 0.50886 0.0
H1683 H 0.76931 0.5406 0.50878 0.0
H1684 H 0.74223 0.54427 0.43372 0.0
H1685 H 0.7464 0.54299 0.47586 0.0
H1686 H 0.76593 0.47257 0.47323 0.0
H1687 H 0.76092 0.47383 0.43127 0.0
C1688 C 0.75542 0.48516 0.54196 0.0
C1689 C 0.76298 0.5036 0.55449 0.0
C1690 C 0.7529 0.48655 0.51763 0.0
C1691 C 0.75799 0.50641 0.50485 0.0
C1692 C 0.76494 0.52503 0.51761 0.0
C1693 C 0.76732 0.52366 0.54193 0.0
C1694 C 0.7478 0.5286 0.44208 0.0
C1695 C 0.75133 0.50919 0.42885 0.0
C1696 C 0.75018 0.52781 0.46645 0.0
C1697 C 0.7563 0.50758 0.47852 0.0
C1698 C 0.76064 0.4884 0.46504 0.0
C1699 C 0.75812 0.48918 0.44074 0.0
H1700 H 0.72193 0.51336 0.80463 0.0
H1701 H 0.79493 0.49982 0.79819 0.0
H1702 H 0.71824 0.51255 0.76217 0.0
H1703 H 0.79129 0.49931 0.75612 0.0
H1704 H 0.72434 0.48663 0.68355 0.0
H1705 H 0.72291 0.48771 0.72611 0.0
H1706 H 0.78289 0.52891 0.72563 0.0
H1707 H 0.78419 0.52814 0.6835 0.0
C1708 C 0.73712 0.50981 0.79425 0.0
C1709 C 0.75876 0.50674 0.805 0.0
C1710 C 0.73501 0.50943 0.76986 0.0
C1711 C 0.75453 0.50631 0.75556 0.0
C1712 C 0.77593 0.50225 0.76644 0.0
C1713 C 0.77799 0.50232 0.79069 0.0
C1714 C 0.73679 0.49652 0.69244 0.0
C1715 C 0.75443 0.50725 0.67981 0.0
C1716 C 0.73608 0.49698 0.71694 0.0
C1717 C 0.75312 0.50794 0.72946 0.0
C1718 C 0.76979 0.51982 0.71672 0.0
C1719 C 0.77036 0.51958 0.6924 0.0
H1720 H 0.50726 0.30686 0.72723 0.0
H1721 H 0.48162 0.30608 0.79749 0.0
H1722 H 0.50666 0.2659 0.72699 0.0
H1723 H 0.48019 0.26514 0.79715 0.0
H1724 H 0.49686 0.18888 0.79669 0.0
H1725 H 0.49763 0.22977 0.7981 0.0
H1726 H 0.48467 0.23419 0.72442 0.0
H1727 H 0.4848 0.19323 0.72303 0.0
C1728 C 0.50167 0.29796 0.74278 0.0
C1729 C 0.49467 0.31012 0.76243 0.0
C1730 C 0.50097 0.27424 0.74256 0.0
C1731 C 0.49307 0.26156 0.76195 0.0
C1732 C 0.48663 0.27379 0.78183 0.0
C1733 C 0.48746 0.29753 0.78208 0.0
C1734 C 0.4938 0.19853 0.78081 0.0
C1735 C 0.49067 0.18739 0.75975 0.0
C1736 C 0.49426 0.22226 0.78159 0.0
C1737 C 0.4915 0.23594 0.76135 0.0
C1738 C 0.48748 0.2247 0.74043 0.0
C1739 C 0.48716 0.20098 0.73965 0.0
H1740 H 0.49759 0.94792 0.22054 0.0
H1741 H 0.54485 0.94353 0.27796 0.0
H1742 H 0.49987 0.98866 0.21999 0.0
H1743 H 0.54681 0.98468 0.27774 0.0
H1744 H 0.55347 0.06275 0.26114 0.0
H1745 H 0.55717 0.0213 0.25994 0.0
H1746 H 0.48519 0.01816 0.24264 0.0
H1747 H 0.48169 0.05867 0.24376 0.0
C1748 C 0.50883 0.95556 0.23287 0.0
C1749 C 0.52104 0.94203 0.24925 0.0
C1750 C 0.50993 0.97918 0.23276 0.0
C1751 C 0.52314 0.99045 0.24918 0.0
C1752 C 0.53643 0.97691 0.26476 0.0
C1753 C 0.53538 0.95313 0.26482 0.0
C1754 C 0.53848 0.05312 0.25717 0.0
C1755 C 0.51734 0.06433 0.25225 0.0
C1756 C 0.54056 0.02927 0.25646 0.0
C1757 C 0.52159 0.01597 0.2507 0.0
C1758 C 0.50047 0.02741 0.24643 0.0
C1759 C 0.49842 0.05092 0.24722 0.0
H1760 H 0.83772 0.78459 0.97265 0.0
H1761 H 0.83163 0.71251 0.97734 0.0
H1762 H 0.7956 0.78883 0.97055 0.0
H1763 H 0.78983 0.7168 0.97568 0.0
H1764 H 0.71639 0.77858 0.94728 0.0
H1765 H 0.75872 0.77886 0.94624 0.0
H1766 H 0.76121 0.73292 0.00512 0.0
H1767 H 0.71945 0.73294 0.00659 0.0
C1768 C 0.82749 0.76963 0.97273 0.0
C1769 C 0.83824 0.74819 0.97528 0.0
C1770 C 0.8033 0.77208 0.97161 0.0
C1771 C 0.78923 0.75319 0.97338 0.0
C1772 C 0.80006 0.73176 0.97468 0.0
C1773 C 0.82413 0.72929 0.97542 0.0
C1774 C 0.72594 0.76905 0.96042 0.0
C1775 C 0.71423 0.75569 0.97697 0.0
C1776 C 0.75026 0.76908 0.9597 0.0
C1777 C 0.76344 0.75549 0.97527 0.0
C1778 C 0.7517 0.74319 0.99252 0.0
C1779 C 0.72759 0.7434 0.99346 0.0
H1780 H 0.97031 0.07787 0.7765 0.0
H1781 H 0.03539 0.06501 0.74225 0.0
H1782 H 0.96425 0.03714 0.77943 0.0
H1783 H 0.02949 0.02482 0.7455 0.0
H1784 H 0.02312 0.95212 0.7706 0.0
H1785 H 0.02791 0.99284 0.77418 0.0
H1786 H 0.95714 0.00458 0.75418 0.0
H1787 H 0.95265 0.96423 0.75014 0.0
C1788 C 0.98323 0.06651 0.76941 0.0
C1789 C 0.00323 0.07511 0.7589 0.0
C1790 C 0.97983 0.04305 0.7712 0.0
C1791 C 0.99652 0.02742 0.76299 0.0
C1792 C 0.0164 0.03609 0.75246 0.0
C1793 C 0.01961 0.05939 0.75032 0.0
C1794 C 0.00841 0.96331 0.76771 0.0
C1795 C 0.98741 0.95472 0.7603 0.0
C1796 C 0.0112 0.98678 0.76943 0.0
C1797 C 0.99296 1.00228 0.76423 0.0
C1798 C 0.97157 0.99342 0.75847 0.0
C1799 C 0.96896 0.97014 0.75628 0.0
H1800 H 0.70891 0.22318 0.51913 0.0
H1801 H 0.71209 0.29061 0.49029 0.0
H1802 H 0.75073 0.21909 0.51558 0.0
H1803 H 0.75378 0.28645 0.48661 0.0
H1804 H 0.83126 0.28005 0.49762 0.0
H1805 H 0.79025 0.28351 0.50784 0.0
H1806 H 0.78062 0.21525 0.48684 0.0
H1807 H 0.82119 0.21202 0.47662 0.0
C1808 C 0.71841 0.23708 0.51179 0.0
C1809 C 0.70678 0.25715 0.50479 0.0
C1810 C 0.74255 0.23476 0.5098 0.0
C1811 C 0.75597 0.25249 0.50095 0.0
C1812 C 0.7443 0.27252 0.4939 0.0
C1813 C 0.72018 0.27478 0.49571 0.0
C1814 C 0.82057 0.26555 0.49602 0.0
C1815 C 0.82973 0.24562 0.48658 0.0
C1816 C 0.79687 0.26763 0.50149 0.0
C1817 C 0.78177 0.24974 0.49794 0.0
C1818 C 0.79144 0.22938 0.49004 0.0
C1819 C 0.8149 0.22746 0.48431 0.0
H1820 H 0.27139 0.49083 0.073 0.0
H1821 H 0.20249 0.51946 0.07417 0.0
H1822 H 0.27373 0.49863 0.03116 0.0
H1823 H 0.20462 0.52664 0.03213 0.0
H1824 H 0.21113 0.49742 0.95473 0.0
H1825 H 0.20763 0.49892 0.99704 0.0
H1826 H 0.27268 0.53193 1.00016 0.0
H1827 H 0.27587 0.53105 0.95776 0.0
C1828 C 0.25689 0.49919 0.06444 0.0
C1829 C 0.23684 0.50472 0.07715 0.0
C1830 C 0.25823 0.50366 0.04039 0.0
C1831 C 0.23935 0.51323 0.02817 0.0
C1832 C 0.21948 0.51923 0.04094 0.0
C1833 C 0.21835 0.5153 0.06511 0.0
C1834 C 0.22432 0.50571 0.96434 0.0
C1835 C 0.24362 0.51439 0.95266 0.0
C1836 C 0.22235 0.50648 0.98866 0.0
C1837 C 0.23995 0.51541 0.00211 0.0
C1838 C 0.25885 0.52486 0.9904 0.0
C1839 C 0.26052 0.52461 0.96601 0.0
H1840 H 0.20714 0.49836 0.82355 0.0
H1841 H 0.2797 0.51198 0.82398 0.0
H1842 H 0.20759 0.49983 0.78091 0.0
H1843 H 0.28018 0.51319 0.78172 0.0
H1844 H 0.2187 0.52544 0.70249 0.0
H1845 H 0.21412 0.52473 0.74485 0.0
H1846 H 0.27656 0.48444 0.75143 0.0
H1847 H 0.28108 0.48494 0.70947 0.0
C1848 C 0.22308 0.5021 0.81462 0.0
C1849 C 0.2434 0.50495 0.82735 0.0
C1850 C 0.22335 0.50285 0.79013 0.0
C1851 C 0.24402 0.50619 0.77774 0.0
C1852 C 0.26404 0.51009 0.79055 0.0
C1853 C 0.26371 0.50961 0.8149 0.0
C1854 C 0.2312 0.51601 0.71292 0.0
C1855 C 0.25032 0.5053 0.7023 0.0
C1856 C 0.2286 0.51569 0.73728 0.0
C1857 C 0.2452 0.50491 0.7517 0.0
C1858 C 0.26367 0.49335 0.741 0.0
C1859 C 0.26613 0.49345 0.71677 0.0
H1860 H 0.24709 0.47091 0.57298 0.0
H1861 H 0.25928 0.54205 0.57079 0.0
H1862 H 0.24212 0.47169 0.53086 0.0
H1863 H 0.25656 0.5427 0.52917 0.0
H1864 H 0.2351 0.54499 0.45453 0.0
H1865 H 0.2376 0.54351 0.49627 0.0
H1866 H 0.25603 0.47267 0.49413 0.0
H1867 H 0.25146 0.47409 0.45198 0.0
C1868 C 0.24864 0.48675 0.56355 0.0
C1869 C 0.25346 0.50641 0.57556 0.0
C1870 C 0.24618 0.48721 0.53914 0.0
C1871 C 0.24898 0.50726 0.5258 0.0
C1872 C 0.2536 0.52688 0.53814 0.0
C1873 C 0.2554 0.52651 0.56242 0.0
C1874 C 0.23993 0.52909 0.46287 0.0
C1875 C 0.24324 0.50969 0.44963 0.0
C1876 C 0.24153 0.52819 0.48718 0.0
C1877 C 0.24721 0.50795 0.49941 0.0
C1878 C 0.25117 0.4886 0.48595 0.0
C1879 C 0.24893 0.48942 0.46154 0.0
H1880 H 0.21465 0.48874 0.3182 0.0
H1881 H 0.28136 0.51902 0.32023 0.0
H1882 H 0.21728 0.48696 0.2762 0.0
H1883 H 0.28409 0.51677 0.27786 0.0
H1884 H 0.28721 0.48078 0.2051 0.0
H1885 H 0.28689 0.48797 0.24655 0.0
H1886 H 0.217 0.51365 0.24122 0.0
H1887 H 0.21758 0.5069 0.19928 0.0
C1888 C 0.23013 0.49471 0.30983 0.0
C1889 C 0.24786 0.50396 0.32296 0.0
C1890 C 0.23144 0.49397 0.28555 0.0
C1891 C 0.25067 0.50212 0.27346 0.0
C1892 C 0.26893 0.51044 0.28654 0.0
C1893 C 0.26747 0.51153 0.31093 0.0
C1894 C 0.272 0.48868 0.21259 0.0
C1895 C 0.25245 0.49331 0.19878 0.0
C1896 C 0.2718 0.49272 0.23646 0.0
C1897 C 0.25184 0.50107 0.24743 0.0
C1898 C 0.23261 0.5069 0.23341 0.0
C1899 C 0.23299 0.5033 0.2093 0.0
H1900 H 0.49792 0.81438 0.28168 0.0
H1901 H 0.52653 0.81889 0.21272 0.0
H1902 H 0.49616 0.77428 0.27909 0.0
H1903 H 0.52693 0.77792 0.21058 0.0
H1904 H 0.51312 0.70286 0.20451 0.0
H1905 H 0.51284 0.74388 0.20565 0.0
H1906 H 0.50784 0.73963 0.28059 0.0
H1907 H 0.50568 0.69953 0.27884 0.0
C1908 C 0.50459 0.80672 0.26608 0.0
C1909 C 0.51257 0.82023 0.24749 0.0
C1910 C 0.50372 0.7832 0.26455 0.0
C1911 C 0.51153 0.77177 0.24461 0.0
C1912 C 0.52024 0.78541 0.22621 0.0
C1913 C 0.52044 0.80916 0.22751 0.0
C1914 C 0.51139 0.71085 0.22114 0.0
C1915 C 0.50938 0.69755 0.24156 0.0
C1916 C 0.51164 0.73463 0.22194 0.0
C1917 C 0.51047 0.74609 0.24327 0.0
C1918 C 0.50824 0.73245 0.26356 0.0
C1919 C 0.50726 0.70891 0.26265 0.0
H1920 H 0.08945 0.35436 0.29503 0.0
H1921 H 0.02374 0.35408 0.33007 0.0
H1922 H 0.1073 0.33532 0.32855 0.0
H1923 H 0.04149 0.33729 0.36425 0.0
H1924 H 0.07606 0.29359 0.41891 0.0
H1925 H 0.05753 0.30858 0.38435 0.0
H1926 H 0.12031 0.3421 0.36479 0.0
H1927 H 0.13943 0.3249 0.39857 0.0
C1928 C 0.07881 0.34973 0.30978 0.0
C1929 C 0.05525 0.35524 0.3099 0.0
C1930 C 0.08906 0.33936 0.32926 0.0
C1931 C 0.07606 0.33511 0.34957 0.0
C1932 C 0.05219 0.33982 0.34905 0.0
C1933 C 0.04188 0.34943 0.32933 0.0
C1934 C 0.08576 0.30456 0.40745 0.0
C1935 C 0.10913 0.30825 0.41143 0.0
C1936 C 0.07511 0.31321 0.38747 0.0
C1937 C 0.08734 0.32648 0.37133 0.0
C1938 C 0.11042 0.33136 0.37625 0.0
C1939 C 0.12132 0.32198 0.3959 0.0
H1940 H 0.96554 0.89037 0.64591 0.0
H1941 H 0.92619 0.85258 0.69645 0.0
H1942 H 0.94784 0.87002 0.6147 0.0
H1943 H 0.90825 0.83231 0.66514 0.0
H1944 H 0.90734 0.78157 0.60641 0.0
H1945 H 0.92345 0.80395 0.63692 0.0
H1946 H 0.91004 0.86448 0.59593 0.0
H1947 H 0.89412 0.84224 0.56527 0.0
C1948 C 0.95276 0.87799 0.65027 0.0
C1949 C 0.94721 0.87292 0.67348 0.0
C1950 C 0.94265 0.86638 0.63244 0.0
C1951 C 0.92691 0.84946 0.63759 0.0
C1952 C 0.92064 0.84505 0.66079 0.0
C1953 C 0.93069 0.85677 0.67864 0.0
C1954 C 0.908 0.79962 0.60378 0.0
C1955 C 0.89939 0.81013 0.58343 0.0
C1956 C 0.91701 0.81243 0.62135 0.0
C1957 C 0.91768 0.83593 0.61884 0.0
C1958 C 0.90973 0.84637 0.59825 0.0
C1959 C 0.90063 0.8336 0.58072 0.0
H1960 H 0.40764 0.65008 0.78594 0.0
H1961 H 0.47419 0.67983 0.79324 0.0
H1962 H 0.3929 0.67182 0.81846 0.0
H1963 H 0.45923 0.70194 0.8257 0.0
H1964 H 0.41367 0.75322 0.86683 0.0
H1965 H 0.42627 0.73356 0.83186 0.0
H1966 H 0.40431 0.67073 0.8625 0.0
H1967 H 0.39213 0.69023 0.89752 0.0
C1968 C 0.41901 0.66149 0.79437 0.0
C1969 C 0.44198 0.66345 0.78716 0.0
C1970 C 0.4106 0.67381 0.81295 0.0
C1971 C 0.42494 0.68856 0.82435 0.0
C1972 C 0.44784 0.69082 0.81692 0.0
C1973 C 0.45639 0.67815 0.79854 0.0
C1974 C 0.41128 0.73527 0.86588 0.0
C1975 C 0.40196 0.72314 0.8847 0.0
C1976 C 0.41862 0.72406 0.84604 0.0
C1977 C 0.41628 0.70071 0.84469 0.0
C1978 C 0.40616 0.68877 0.86319 0.0
C1979 C 0.39923 0.69989 0.88314 0.0
H1980 H 0.57895 0.16454 0.06399 0.0
H1981 H 0.58622 0.21997 0.11001 0.0
H1982 H 0.5712 0.13962 0.09686 0.0
H1983 H 0.57652 0.19564 0.14301 0.0
H1984 H 0.5722 0.14767 0.20225 0.0
H1985 H 0.58756 0.16775 0.16853 0.0
H1986 H 0.54572 0.1281 0.12389 0.0
H1987 H 0.53218 0.10703 0.1573 0.0
C1988 C 0.57823 0.17152 0.08117 0.0
C1989 C 0.58286 0.19426 0.08445 0.0
C1990 C 0.57376 0.1572 0.10016 0.0
C1991 C 0.57319 0.16535 0.12293 0.0
C1992 C 0.57736 0.18836 0.12599 0.0
C1993 C 0.58249 0.20253 0.10703 0.0
C1994 C 0.56709 0.1427 0.18511 0.0
C1995 C 0.551 0.12573 0.18251 0.0
C1996 C 0.57547 0.15457 0.16571 0.0
C1997 C 0.56742 0.15023 0.14324 0.0
C1998 C 0.55261 0.13206 0.14065 0.0
C1999 C 0.54481 0.11978 0.15998 0.0
H2000 H 0.08967 0.65843 0.20781 0.0
H2001 H 0.03041 0.68822 0.17272 0.0
H2002 H 0.11379 0.66835 0.1746 0.0
H2003 H 0.05462 0.69823 0.13967 0.0
H2004 H 0.09707 0.68968 0.07431 0.0
H2005 H 0.07523 0.67759 0.10863 0.0
H2006 H 0.12931 0.7005 0.15274 0.0
H2007 H 0.15111 0.71228 0.11854 0.0
C2008 C 0.08185 0.66756 0.19329 0.0
C2009 C 0.05804 0.67244 0.19296 0.0
C2010 C 0.09569 0.67312 0.17417 0.0
C2011 C 0.08602 0.68363 0.15429 0.0
C2012 C 0.06247 0.68959 0.15448 0.0
C2013 C 0.04866 0.68413 0.1736 0.0
C2014 C 0.10453 0.69152 0.09132 0.0
C2015 C 0.12576 0.70188 0.09379 0.0
C2016 C 0.0919 0.68494 0.11098 0.0
C2017 C 0.10037 0.68847 0.13342 0.0
C2018 C 0.1223 0.69752 0.13574 0.0
C2019 C 0.13481 0.70421 0.11614 0.0
H2020 H 0.56862 0.78953 0.44799 0.0
H2021 H 0.61159 0.84662 0.45805 0.0
H2022 H 0.56077 0.8028 0.40816 0.0
H2023 H 0.60347 0.86002 0.41855 0.0
H2024 H 0.54881 0.88967 0.3653 0.0
H2025 H 0.56544 0.87469 0.40131 0.0
H2026 H 0.58107 0.81168 0.36828 0.0
H2027 H 0.56464 0.827 0.3318 0.0
C2028 C 0.57655 0.80476 0.44158 0.0
C2029 C 0.59061 0.81711 0.45603 0.0
C2030 C 0.57219 0.81226 0.41882 0.0
C2031 C 0.58157 0.8324 0.41034 0.0
C2032 C 0.59596 0.8445 0.42472 0.0
C2033 C 0.60045 0.83691 0.44734 0.0
C2034 C 0.55633 0.87282 0.36558 0.0
C2035 C 0.55555 0.85947 0.34589 0.0
C2036 C 0.56586 0.86426 0.38615 0.0
C2037 C 0.57443 0.84202 0.38755 0.0
C2038 C 0.57447 0.82886 0.36759 0.0
C2039 C 0.5653 0.83765 0.34676 0.0
H2040 H 0.47782 0.30751 0.68377 0.0
H2041 H 0.41728 0.35095 0.68764 0.0
H2042 H 0.46086 0.28791 0.65152 0.0
H2043 H 0.40044 0.33146 0.65503 0.0
H2044 H 0.40352 0.31142 0.57512 0.0
H2045 H 0.4153 0.32923 0.61096 0.0
H2046 H 0.42398 0.26384 0.64424 0.0
H2047 H 0.41191 0.24606 0.60866 0.0
C2048 C 0.46079 0.31266 0.67784 0.0
C2049 C 0.44879 0.33066 0.68804 0.0
C2050 C 0.45109 0.30143 0.65953 0.0
C2051 C 0.42946 0.30833 0.65092 0.0
C2052 C 0.4172 0.32599 0.66145 0.0
C2053 C 0.42672 0.33696 0.6801 0.0
C2054 C 0.40779 0.30095 0.59019 0.0
C2055 C 0.40695 0.27747 0.58926 0.0
C2056 C 0.41432 0.31108 0.61063 0.0
C2057 C 0.42043 0.2978 0.63018 0.0
C2058 C 0.41934 0.27434 0.6293 0.0
C2059 C 0.41245 0.26424 0.60902 0.0
H2060 H 0.00509 0.17465 0.86195 0.0
H2061 H 0.93902 0.16185 0.83155 0.0
H2062 H 0.9865 0.18411 0.89826 0.0
H2063 H 0.92012 0.17181 0.86836 0.0
H2064 H 0.89782 0.1723 0.94535 0.0
H2065 H 0.91801 0.15791 0.91108 0.0
H2066 H 0.96121 0.21597 0.9101 0.0
H2067 H 0.9412 0.23018 0.94414 0.0
C2068 C 0.9865 0.17396 0.86302 0.0
C2069 C 0.97341 0.16768 0.84393 0.0
C2070 C 0.9759 0.17938 0.88385 0.0
C2071 C 0.95194 0.17867 0.88609 0.0
C2072 C 0.9387 0.17223 0.86707 0.0
C2073 C 0.94941 0.16682 0.84602 0.0
C2074 C 0.91214 0.18153 0.93819 0.0
C2075 C 0.91817 0.20222 0.94735 0.0
C2076 C 0.92337 0.17352 0.91841 0.0
C2077 C 0.94094 0.18597 0.90787 0.0
C2078 C 0.94777 0.20599 0.91794 0.0
C2079 C 0.93642 0.21409 0.93744 0.0
H2080 H 0.36369 0.05029 0.34215 0.0
H2081 H 0.31201 0.08989 0.30507 0.0
H2082 H 0.39395 0.07006 0.32132 0.0
H2083 H 0.34267 0.10942 0.28345 0.0
H2084 H 0.41024 0.10175 0.23176 0.0
H2085 H 0.3758 0.09177 0.25393 0.0
H2086 H 0.40811 0.11265 0.3168 0.0
H2087 H 0.44242 0.12308 0.29469 0.0
C2088 C 0.35884 0.06329 0.32951 0.0
C2089 C 0.33556 0.06846 0.32502 0.0
C2090 C 0.37615 0.07471 0.31775 0.0
C2091 C 0.37061 0.09128 0.30087 0.0
C2092 C 0.34731 0.09672 0.29646 0.0
C2093 C 0.32986 0.08562 0.30878 0.0
C2094 C 0.40982 0.10467 0.25024 0.0
C2095 C 0.42914 0.11302 0.26152 0.0
C2096 C 0.39005 0.09911 0.26286 0.0
C2097 C 0.38939 0.10141 0.28703 0.0
C2098 C 0.40824 0.11075 0.29815 0.0
C2099 C 0.42784 0.11673 0.28548 0.0
H2100 H 0.19022 0.03597 0.54961 0.0
H2101 H 0.21297 0.07964 0.60322 0.0
H2102 H 0.17739 0.06889 0.52644 0.0
H2103 H 0.2019 0.11231 0.57966 0.0
H2104 H 0.1552 0.16496 0.54658 0.0
H2105 H 0.16777 0.13129 0.56811 0.0
H2106 H 0.18989 0.10083 0.50405 0.0
H2107 H 0.17625 0.13435 0.48244 0.0
C2108 C 0.1928 0.05261 0.55623 0.0
C2109 C 0.20283 0.05532 0.57802 0.0
C2110 C 0.18565 0.07145 0.54293 0.0
C2111 C 0.18852 0.09327 0.55123 0.0
C2112 C 0.19903 0.0958 0.57288 0.0
C2113 C 0.20582 0.07705 0.58622 0.0
C2114 C 0.16272 0.15103 0.53714 0.0
C2115 C 0.16483 0.15218 0.51293 0.0
C2116 C 0.17009 0.13178 0.54945 0.0
C2117 C 0.18008 0.1134 0.53784 0.0
C2118 C 0.18206 0.11457 0.51351 0.0
C2119 C 0.17439 0.13378 0.50115 0.0
H2120 H 0.17208 0.98354 0.85229 0.0
H2121 H 0.20726 0.93633 0.8078 0.0
H2122 H 0.13506 0.97162 0.83795 0.0
H2123 H 0.17026 0.92396 0.79378 0.0
H2124 H 0.10252 0.92173 0.75786 0.0
H2125 H 0.13784 0.93749 0.77108 0.0
H2126 H 0.11132 0.93763 0.84129 0.0
H2127 H 0.07502 0.92218 0.82768 0.0
C2128 C 0.17185 0.97079 0.83923 0.0
C2129 C 0.1924 0.96077 0.83114 0.0
C2130 C 0.15069 0.9638 0.83126 0.0
C2131 C 0.14979 0.94669 0.81502 0.0
C2132 C 0.17045 0.93731 0.80623 0.0
C2133 C 0.19162 0.94438 0.81417 0.0
C2134 C 0.10412 0.92506 0.77618 0.0
C2135 C 0.0862 0.92047 0.79189 0.0
C2136 C 0.12444 0.93405 0.78371 0.0
C2137 C 0.12745 0.93848 0.8072 0.0
C2138 C 0.10934 0.93442 0.823 0.0
C2139 C 0.0887 0.9255 0.81534 0.0
H2140 H 0.40433 0.83293 0.05753 0.0
H2141 H 0.34153 0.79697 0.04861 0.0
H2142 H 0.38267 0.86333 0.07592 0.0
H2143 H 0.31964 0.82778 0.06535 0.0
H2144 H 0.28479 0.88531 0.1016 0.0
H2145 H 0.30787 0.85159 0.09438 0.0
H2146 H 0.35933 0.89217 0.06021 0.0
H2147 H 0.3368 0.92599 0.06892 0.0
C2148 C 0.38596 0.8313 0.06013 0.0
C2149 C 0.37452 0.81282 0.05152 0.0
C2150 C 0.37347 0.84887 0.07023 0.0
C2151 C 0.34929 0.84844 0.07133 0.0
C2152 C 0.3382 0.82881 0.06483 0.0
C2153 C 0.35077 0.81103 0.05525 0.0
C2154 C 0.30092 0.88695 0.09226 0.0
C2155 C 0.30892 0.90818 0.08548 0.0
C2156 C 0.31422 0.86761 0.08823 0.0
C2157 C 0.33561 0.86906 0.07687 0.0
C2158 C 0.34329 0.89038 0.06961 0.0
C2159 C 0.33021 0.90976 0.07416 0.0
H2160 H 0.41394 0.86199 0.19476 0.0
H2161 H 0.41404 0.92641 0.22757 0.0
H2162 H 0.37809 0.87289 0.17487 0.0
H2163 H 0.37779 0.93679 0.20931 0.0
H2164 H 0.32494 0.96009 0.15812 0.0
H2165 H 0.36156 0.94815 0.1748 0.0
H2166 H 0.33856 0.87952 0.17879 0.0
H2167 H 0.30257 0.89149 0.16009 0.0
C2168 C 0.40615 0.87839 0.1978 0.0
C2169 C 0.41679 0.89349 0.21238 0.0
C2170 C 0.38554 0.88462 0.1866 0.0
C2171 C 0.375 0.90587 0.19024 0.0
C2172 C 0.38561 0.92061 0.20538 0.0
C2173 C 0.40636 0.9146 0.21605 0.0
C2174 C 0.32785 0.94243 0.16234 0.0
C2175 C 0.31102 0.9267 0.15778 0.0
C2176 C 0.34877 0.93555 0.17221 0.0
C2177 C 0.35309 0.91283 0.1785 0.0
C2178 C 0.33609 0.89709 0.17393 0.0
C2179 C 0.31534 0.90395 0.16347 0.0
H2180 H 0.39688 0.16453 0.41771 0.0
H2181 H 0.32956 0.18181 0.44468 0.0
H2182 H 0.38163 0.1308 0.40095 0.0
H2183 H 0.31461 0.14725 0.43001 0.0
H2184 H 0.29031 0.08459 0.3955 0.0
H2185 H 0.30296 0.12254 0.40316 0.0
H2186 H 0.37227 0.09612 0.4141 0.0
H2187 H 0.35984 0.05909 0.4043 0.0
C2188 C 0.37873 0.16121 0.41974 0.0
C2189 C 0.36442 0.17569 0.43247 0.0
C2190 C 0.36999 0.14164 0.41055 0.0
C2191 C 0.34695 0.13565 0.41474 0.0
C2192 C 0.33235 0.15108 0.42621 0.0
C2193 C 0.34094 0.171 0.4347 0.0
C2194 C 0.30823 0.08712 0.39938 0.0
C2195 C 0.32413 0.06903 0.39906 0.0
C2196 C 0.31555 0.10885 0.40393 0.0
C2197 C 0.33885 0.11277 0.40895 0.0
C2198 C 0.35442 0.09425 0.40946 0.0
C2199 C 0.34722 0.0728 0.40426 0.0
H2200 H 0.21303 0.09171 0.65591 0.0
H2201 H 0.19069 0.0322 0.69327 0.0
H2202 H 0.18081 0.1132 0.67239 0.0
H2203 H 0.1585 0.0537 0.70944 0.0
H2204 H 0.08752 0.08766 0.6982 0.0
H2205 H 0.12373 0.06972 0.68588 0.0
H2206 H 0.16124 0.12606 0.71068 0.0
H2207 H 0.12504 0.14397 0.72309 0.0
C2208 C 0.20175 0.0834 0.66822 0.0
C2209 C 0.20406 0.06018 0.67294 0.0
C2210 C 0.18325 0.09568 0.67751 0.0
C2211 C 0.16694 0.08484 0.69155 0.0
C2212 C 0.1706 0.06222 0.69813 0.0
C2213 C 0.18911 0.05 0.68901 0.0
C2214 C 0.10347 0.09631 0.70066 0.0
C2215 C 0.10363 0.11708 0.71158 0.0
C2216 C 0.12414 0.08599 0.6939 0.0
C2217 C 0.14518 0.09641 0.69778 0.0
C2218 C 0.14522 0.1177 0.70765 0.0
C2219 C 0.12456 0.12791 0.71465 0.0
H2220 H 0.12837 0.8498 0.94857 0.0
H2221 H 0.17108 0.85874 0.00851 0.0
H2222 H 0.13915 0.88699 0.93344 0.0
H2223 H 0.1809 0.89604 0.99422 0.0
H2224 H 0.22576 0.93317 0.94043 0.0
H2225 H 0.20649 0.90423 0.9627 0.0
H2226 H 0.14075 0.92849 0.93623 0.0
H2227 H 0.16044 0.95759 0.9133 0.0
C2228 C 0.1395 0.86003 0.95875 0.0
C2229 C 0.14941 0.85138 0.9793 0.0
C2230 C 0.14554 0.88133 0.95025 0.0
C2231 C 0.16125 0.89425 0.96245 0.0
C2232 C 0.16926 0.88627 0.98413 0.0
C2233 C 0.16365 0.86493 0.99231 0.0
C2234 C 0.20715 0.93261 0.93966 0.0
C2235 C 0.19458 0.94744 0.92503 0.0
C2236 C 0.19604 0.91612 0.9526 0.0
C2237 C 0.17205 0.91403 0.95123 0.0
C2238 C 0.15927 0.92963 0.93749 0.0
C2239 C 0.17048 0.94636 0.92457 0.0
H2240 H 0.27106 0.41562 0.07616 0.0
H2241 H 0.28295 0.38459 0.14369 0.0
H2242 H 0.28446 0.38122 0.05771 0.0
H2243 H 0.2969 0.35031 0.12524 0.0
H2244 H 0.30282 0.28604 0.08679 0.0
H2245 H 0.28253 0.31941 0.10133 0.0
H2246 H 0.32159 0.3613 0.05406 0.0
H2247 H 0.34136 0.32811 0.03933 0.0
C2248 C 0.27681 0.40149 0.08701 0.0
C2249 C 0.27623 0.40264 0.11127 0.0
C2250 C 0.28435 0.38184 0.07647 0.0
C2251 C 0.29149 0.36314 0.09009 0.0
C2252 C 0.29103 0.36439 0.11439 0.0
C2253 C 0.28341 0.38403 0.12492 0.0
C2254 C 0.30664 0.30238 0.07926 0.0
C2255 C 0.32383 0.30473 0.06233 0.0
C2256 C 0.29521 0.3214 0.08764 0.0
C2257 C 0.30083 0.34285 0.07904 0.0
C2258 C 0.3169 0.34494 0.06093 0.0
C2259 C 0.3283 0.32599 0.05261 0.0
H2260 H 0.79006 0.11816 0.86658 0.0
H2261 H 0.81621 0.07841 0.92461 0.0
H2262 H 0.80239 0.15198 0.88438 0.0
H2263 H 0.8307 0.11236 0.94188 0.0
H2264 H 0.82891 0.17813 0.98092 0.0
H2265 H 0.81954 0.14325 0.96203 0.0
H2266 H 0.82859 0.1764 0.89501 0.0
H2267 H 0.83567 0.21142 0.9142 0.0
C2268 C 0.7993 0.11657 0.88283 0.0
C2269 C 0.80207 0.09559 0.89423 0.0
C2270 C 0.80654 0.13614 0.89314 0.0
C2271 C 0.81746 0.13531 0.91491 0.0
C2272 C 0.82176 0.11398 0.9255 0.0
C2273 C 0.81387 0.09437 0.91541 0.0
C2274 C 0.82827 0.17788 0.96215 0.0
C2275 C 0.83226 0.19748 0.94898 0.0
C2276 C 0.82337 0.15778 0.95121 0.0
C2277 C 0.82319 0.15665 0.92677 0.0
C2278 C 0.82775 0.17644 0.91376 0.0
C2279 C 0.83186 0.19664 0.92473 0.0
H2280 H 0.07131 0.61242 0.21436 0.0
H2281 H 0.02795 0.56459 0.18169 0.0
H2282 H 0.10509 0.59057 0.2042 0.0
H2283 H 0.06249 0.54272 0.1704 0.0
H2284 H 0.12895 0.49901 0.18046 0.0
H2285 H 0.09371 0.51999 0.18961 0.0
H2286 H 0.12639 0.58184 0.16896 0.0
H2287 H 0.16194 0.56079 0.16029 0.0
C2288 C 0.06896 0.5971 0.20513 0.0
C2289 C 0.04702 0.59003 0.19902 0.0
C2290 C 0.08843 0.58477 0.19895 0.0
C2291 C 0.0864 0.56516 0.18629 0.0
C2292 C 0.06442 0.55783 0.18025 0.0
C2293 C 0.04476 0.57028 0.18658 0.0
C2294 C 0.12859 0.51712 0.17799 0.0
C2295 C 0.14806 0.52845 0.16987 0.0
C2296 C 0.10838 0.52903 0.18298 0.0
C2297 C 0.10736 0.55243 0.17987 0.0
C2298 C 0.12687 0.56377 0.1717 0.0
C2299 C 0.14716 0.55183 0.16681 0.0
H2300 H 0.64275 0.80486 0.42822 0.0
H2301 H 0.68326 0.81693 0.48921 0.0
H2302 H 0.66322 0.83402 0.40696 0.0
H2303 H 0.70389 0.84609 0.46767 0.0
H2304 H 0.74672 0.88592 0.41412 0.0
H2305 H 0.73026 0.85221 0.43186 0.0
H2306 H 0.66212 0.87684 0.41335 0.0
H2307 H 0.67857 0.9107 0.39577 0.0
C2308 C 0.65642 0.81332 0.43693 0.0
C2309 C 0.66131 0.80875 0.46046 0.0
C2310 C 0.66797 0.83014 0.42478 0.0
C2311 C 0.68488 0.84238 0.43579 0.0
C2312 C 0.6909 0.83681 0.45882 0.0
C2313 C 0.67908 0.8202 0.47113 0.0
C2314 C 0.72824 0.88402 0.4137 0.0
C2315 C 0.71383 0.90082 0.40366 0.0
C2316 C 0.71888 0.86482 0.42389 0.0
C2317 C 0.695 0.862 0.42388 0.0
C2318 C 0.68063 0.87857 0.41333 0.0
C2319 C 0.68998 0.89793 0.40341 0.0
H2320 H 0.93741 0.88527 0.15059 0.0
H2321 H 0.93289 0.92696 0.21091 0.0
H2322 H 0.9026 0.90372 0.13489 0.0
H2323 H 0.89828 0.94588 0.19479 0.0
H2324 H 0.8608 0.99126 0.13774 0.0
H2325 H 0.89434 0.97063 0.15335 0.0
H2326 H 0.85751 0.90866 0.15074 0.0
H2327 H 0.82351 0.92942 0.1357 0.0
C2328 C 0.92892 0.89841 0.16043 0.0
C2329 C 0.93777 0.90498 0.18178 0.0
C2330 C 0.90905 0.9088 0.15152 0.0
C2331 C 0.8981 0.92618 0.16364 0.0
C2332 C 0.9067 0.93254 0.18518 0.0
C2333 C 0.92633 0.92177 0.19437 0.0
C2334 C 0.85996 0.9732 0.14022 0.0
C2335 C 0.8397 0.96183 0.13556 0.0
C2336 C 0.87901 0.96151 0.14932 0.0
C2337 C 0.87818 0.93825 0.1534 0.0
C2338 C 0.85832 0.92667 0.14775 0.0
C2339 C 0.83904 0.93846 0.1391 0.0
H2340 H 0.2179 0.61615 0.65444 0.0
H2341 H 0.19643 0.5833 0.59241 0.0
H2342 H 0.20273 0.65198 0.63905 0.0
H2343 H 0.18077 0.61911 0.57716 0.0
H2344 H 0.18375 0.68777 0.54379 0.0
H2345 H 0.19917 0.65358 0.56254 0.0
H2346 H 0.16788 0.67323 0.62738 0.0
H2347 H 0.15275 0.70761 0.60877 0.0
C2348 C 0.20937 0.61652 0.63777 0.0
C2349 C 0.20844 0.59706 0.6245 0.0
C2350 C 0.20075 0.63704 0.62895 0.0
C2351 C 0.19107 0.63841 0.6067 0.0
C2352 C 0.18872 0.61861 0.59413 0.0
C2353 C 0.19733 0.59808 0.60297 0.0
C2354 C 0.18064 0.68506 0.56218 0.0
C2355 C 0.16688 0.70027 0.57475 0.0
C2356 C 0.18919 0.66534 0.57283 0.0
C2357 C 0.18413 0.66046 0.59624 0.0
C2358 C 0.17194 0.67651 0.60928 0.0
C2359 C 0.16343 0.69629 0.59863 0.0
H2360 H 0.04392 0.48338 0.30865 0.0
H2361 H 0.03358 0.43661 0.36593 0.0
H2362 H 0.07406 0.50129 0.33047 0.0
H2363 H 0.06372 0.45446 0.38767 0.0
H2364 H 0.14479 0.46128 0.38779 0.0
H2365 H 0.10606 0.45101 0.37637 0.0
H2366 H 0.08716 0.52124 0.36661 0.0
H2367 H 0.12581 0.5315 0.37819 0.0
C2368 C 0.0474 0.47756 0.32626 0.0
C2369 C 0.03678 0.4584 0.33547 0.0
C2370 C 0.0647 0.48776 0.33874 0.0
C2371 C 0.07153 0.47885 0.36051 0.0
C2372 C 0.05903 0.46134 0.37074 0.0
C2373 C 0.04169 0.45126 0.35835 0.0
C2374 C 0.1322 0.47447 0.38364 0.0
C2375 C 0.13822 0.4971 0.38378 0.0
C2376 C 0.11002 0.46866 0.37726 0.0
C2377 C 0.09362 0.48539 0.37068 0.0
C2378 C 0.09947 0.50806 0.37159 0.0
C2379 C 0.12155 0.51387 0.37826 0.0
H2380 H 0.43749 0.61234 0.83313 0.0
H2381 H 0.41064 0.57692 0.77493 0.0
H2382 H 0.40267 0.60445 0.85524 0.0
H2383 H 0.3761 0.56856 0.79722 0.0
H2384 H 0.30905 0.56916 0.83412 0.0
H2385 H 0.34157 0.58575 0.81348 0.0
H2386 H 0.38449 0.57283 0.87357 0.0
H2387 H 0.35195 0.55694 0.89423 0.0
C2388 C 0.42433 0.60255 0.82518 0.0
C2389 C 0.42693 0.59504 0.80235 0.0
C2390 C 0.40431 0.59815 0.83782 0.0
C2391 C 0.38651 0.58604 0.82795 0.0
C2392 C 0.38924 0.57838 0.80517 0.0
C2393 C 0.40918 0.5829 0.79249 0.0
C2394 C 0.32525 0.5706 0.84311 0.0
C2395 C 0.32809 0.56163 0.86566 0.0
C2396 C 0.34395 0.5798 0.83122 0.0
C2397 C 0.36576 0.58015 0.84171 0.0
C2398 C 0.36797 0.57289 0.86497 0.0
C2399 C 0.34931 0.56375 0.87683 0.0
H2400 H 0.92864 0.72336 0.58188 0.0
H2401 H 0.87262 0.68398 0.60859 0.0
H2402 H 0.95184 0.71226 0.61496 0.0
H2403 H 0.89679 0.6708 0.64102 0.0
H2404 H 0.93906 0.65694 0.70355 0.0
H2405 H 0.91489 0.67875 0.67603 0.0
H2406 H 0.97281 0.68253 0.62861 0.0
H2407 H 0.99668 0.66243 0.65648 0.0
C2408 C 0.92158 0.71162 0.59451 0.0
C2409 C 0.89903 0.70408 0.59248 0.0
C2410 C 0.93489 0.70529 0.61361 0.0
C2411 C 0.92637 0.69047 0.63075 0.0
C2412 C 0.90383 0.68259 0.62846 0.0
C2413 C 0.89014 0.68965 0.60965 0.0
C2414 C 0.94668 0.66352 0.68768 0.0
C2415 C 0.96952 0.658 0.68187 0.0
C2416 C 0.93279 0.67553 0.67169 0.0
C2417 C 0.94165 0.68192 0.64975 0.0
C2418 C 0.96522 0.67817 0.64523 0.0
C2419 C 0.97901 0.66656 0.66123 0.0
H2420 H 0.09104 0.22881 0.39448 0.0
H2421 H 0.09334 0.167 0.43541 0.0
H2422 H 0.06786 0.2108 0.36542 0.0
H2423 H 0.06949 0.14918 0.40631 0.0
H2424 H 0.00181 0.14467 0.35672 0.0
H2425 H 0.02468 0.16056 0.38779 0.0
H2426 H 0.0797 0.17302 0.33901 0.0
H2427 H 0.05723 0.15662 0.30813 0.0
C2428 C 0.08636 0.21146 0.39741 0.0
C2429 C 0.09399 0.19927 0.41719 0.0
C2430 C 0.07322 0.2012 0.38074 0.0
C2431 C 0.06706 0.17871 0.38376 0.0
C2432 C 0.07409 0.16659 0.40376 0.0
C2433 C 0.08772 0.17674 0.42028 0.0
C2434 C 0.01885 0.15069 0.35274 0.0
C2435 C 0.02783 0.14952 0.33013 0.0
C2436 C 0.03189 0.15963 0.37046 0.0
C2437 C 0.05381 0.16792 0.36561 0.0
C2438 C 0.06278 0.1667 0.34303 0.0
C2439 C 0.04998 0.15734 0.32546 0.0
H2440 H 0.52698 0.34221 0.20483 0.0
H2441 H 0.59337 0.36987 0.21884 0.0
H2442 H 0.54216 0.32621 0.16912 0.0
H2443 H 0.60879 0.35324 0.18333 0.0
H2444 H 0.62587 0.2875 0.13956 0.0
H2445 H 0.61359 0.31066 0.17198 0.0
H2446 H 0.55985 0.34129 0.12953 0.0
H2447 H 0.57238 0.31827 0.09685 0.0
C2448 C 0.54475 0.34501 0.2001 0.0
C2449 C 0.559 0.35741 0.21425 0.0
C2450 C 0.55338 0.33596 0.17972 0.0
C2451 C 0.57649 0.33884 0.17353 0.0
C2452 C 0.59086 0.35099 0.18784 0.0
C2453 C 0.58212 0.36034 0.2081 0.0
C2454 C 0.61168 0.29945 0.13709 0.0
C2455 C 0.59986 0.30109 0.11596 0.0
C2456 C 0.6048 0.31275 0.15551 0.0
C2457 C 0.58581 0.32757 0.15307 0.0
C2458 C 0.57452 0.32985 0.13166 0.0
C2459 C 0.58166 0.31678 0.11308 0.0
H2460 H 0.40047 0.84171 0.93955 0.0
H2461 H 0.44028 0.78373 0.91764 0.0
H2462 H 0.406 0.85979 0.90197 0.0
H2463 H 0.44723 0.80254 0.88003 0.0
H2464 H 0.44821 0.83681 0.8098 0.0
H2465 H 0.43307 0.81684 0.84374 0.0
H2466 H 0.43563 0.87793 0.88271 0.0
H2467 H 0.44979 0.89791 0.84879 0.0
C2468 C 0.41068 0.8329 0.92669 0.0
C2469 C 0.42034 0.81147 0.93165 0.0
C2470 C 0.41392 0.84335 0.90509 0.0
C2471 C 0.42747 0.83293 0.88798 0.0
C2472 C 0.43656 0.81107 0.89268 0.0
C2473 C 0.43284 0.80035 0.91429 0.0
C2474 C 0.44489 0.84613 0.82543 0.0
C2475 C 0.45037 0.869 0.82653 0.0
C2476 C 0.4365 0.83456 0.84502 0.0
C2477 C 0.43343 0.84558 0.86618 0.0
C2478 C 0.43749 0.8688 0.86675 0.0
C2479 C 0.44569 0.88037 0.84718 0.0
H2480 H 0.8626 0.28646 0.89126 0.0
H2481 H 0.91029 0.31608 0.93816 0.0
H2482 H 0.88305 0.3027 0.85828 0.0
H2483 H 0.93082 0.33269 0.90493 0.0
H2484 H 0.97822 0.32819 0.84052 0.0
H2485 H 0.95535 0.3156 0.87372 0.0
H2486 H 0.89321 0.33805 0.83854 0.0
H2487 H 0.91587 0.35024 0.80522 0.0
C2488 C 0.87714 0.29697 0.89449 0.0
C2489 C 0.88496 0.30002 0.91716 0.0
C2490 C 0.88885 0.30626 0.87561 0.0
C2491 C 0.9087 0.31869 0.87904 0.0
C2492 C 0.91576 0.32285 0.90183 0.0
C2493 C 0.90388 0.31364 0.9208 0.0
C2494 C 0.95966 0.33006 0.83967 0.0
C2495 C 0.94888 0.34011 0.82015 0.0
C2496 C 0.94661 0.32321 0.85885 0.0
C2497 C 0.92255 0.32616 0.85882 0.0
C2498 C 0.91173 0.33553 0.83902 0.0
C2499 C 0.92474 0.3424 0.81989 0.0
H2500 H 0.45582 0.11691 0.64028 0.0
H2501 H 0.43486 0.17869 0.673 0.0
H2502 H 0.43804 0.13004 0.60415 0.0
H2503 H 0.41718 0.19216 0.63639 0.0
H2504 H 0.42915 0.21539 0.55769 0.0
H2505 H 0.43717 0.20236 0.59742 0.0
H2506 H 0.40005 0.14178 0.58537 0.0
H2507 H 0.39169 0.15503 0.54575 0.0
C2508 C 0.44691 0.13313 0.63981 0.0
C2509 C 0.44667 0.14685 0.65928 0.0
C2510 C 0.43668 0.14061 0.61917 0.0
C2511 C 0.42636 0.16214 0.61748 0.0
C2512 C 0.42515 0.17551 0.63729 0.0
C2513 C 0.43505 0.16778 0.6582 0.0
C2514 C 0.42247 0.19944 0.56367 0.0
C2515 C 0.40983 0.1862 0.54875 0.0
C2516 C 0.42691 0.19207 0.58641 0.0
C2517 C 0.41908 0.17115 0.59447 0.0
C2518 C 0.4063 0.15796 0.57954 0.0
C2519 C 0.40169 0.16545 0.55688 0.0
H2520 H 0.58928 0.75888 0.39785 0.0
H2521 H 0.59215 0.69298 0.43095 0.0
H2522 H 0.5802 0.74197 0.36092 0.0
H2523 H 0.58325 0.67602 0.39379 0.0
H2524 H 0.58531 0.6543 0.31745 0.0
H2525 H 0.60116 0.67306 0.35111 0.0
H2526 H 0.54336 0.72012 0.35016 0.0
H2527 H 0.5274 0.70127 0.31703 0.0
C2528 C 0.58812 0.74076 0.39714 0.0
C2529 C 0.59118 0.72715 0.41713 0.0
C2530 C 0.58301 0.73115 0.37607 0.0
C2531 C 0.5812 0.70778 0.37466 0.0
C2532 C 0.58487 0.69409 0.39452 0.0
C2533 C 0.58969 0.70375 0.41572 0.0
C2534 C 0.57635 0.66896 0.3242 0.0
C2535 C 0.55521 0.67643 0.31484 0.0
C2536 C 0.58528 0.67951 0.34344 0.0
C2537 C 0.57338 0.69791 0.35307 0.0
C2538 C 0.55288 0.70605 0.34288 0.0
C2539 C 0.54375 0.69525 0.32403 0.0
H2540 H 0.11603 0.83307 0.06052 0.0
H2541 H 0.08505 0.77217 0.08648 0.0
H2542 H 0.10247 0.85279 0.09471 0.0
H2543 H 0.07072 0.79205 0.12028 0.0
H2544 H 0.06215 0.82541 0.18739 0.0
H2545 H 0.08374 0.80832 0.15553 0.0
H2546 H 0.06789 0.86667 0.11186 0.0
H2547 H 0.04727 0.88389 0.14381 0.0
C2548 C 0.10576 0.82407 0.07323 0.0
C2549 C 0.10133 0.80117 0.07076 0.0
C2550 C 0.09817 0.83531 0.09293 0.0
C2551 C 0.08578 0.82392 0.11038 0.0
C2552 C 0.08077 0.80116 0.10748 0.0
C2553 C 0.0886 0.78987 0.08794 0.0
C2554 C 0.06404 0.83483 0.17121 0.0
C2555 C 0.05288 0.85578 0.16787 0.0
C2556 C 0.07608 0.82495 0.15287 0.0
C2557 C 0.07699 0.8359 0.13098 0.0
C2558 C 0.06755 0.85775 0.12844 0.0
C2559 C 0.05568 0.86763 0.14676 0.0
H2560 H 0.65797 0.97876 0.70436 0.0
H2561 H 0.67285 0.91233 0.67857 0.0
H2562 H 0.62591 0.96445 0.72661 0.0
H2563 H 0.64096 0.89764 0.70179 0.0
H2564 H 0.57734 0.93195 0.77627 0.0
H2565 H 0.61377 0.94206 0.75847 0.0
H2566 H 0.59958 0.89985 0.70047 0.0
H2567 H 0.56349 0.88907 0.71873 0.0
C2568 C 0.65467 0.96094 0.70381 0.0
C2569 C 0.66787 0.9467 0.68956 0.0
C2570 C 0.63632 0.95267 0.71677 0.0
C2571 C 0.63072 0.92988 0.71596 0.0
C2572 C 0.6446 0.91536 0.70254 0.0
C2573 C 0.66304 0.92369 0.68947 0.0
C2574 C 0.58199 0.92479 0.75973 0.0
C2575 C 0.56739 0.90987 0.74881 0.0
C2576 C 0.6029 0.9306 0.7495 0.0
C2577 C 0.60961 0.92187 0.72795 0.0
C2578 C 0.59517 0.90664 0.71723 0.0
C2579 C 0.57434 0.90063 0.7276 0.0
H2580 H 0.84876 0.83938 0.44881 0.0
H2581 H 0.82478 0.86862 0.51266 0.0
H2582 H 0.83684 0.8735 0.4275 0.0
H2583 H 0.81163 0.90231 0.49133 0.0
H2584 H 0.80826 0.96764 0.4486 0.0
H2585 H 0.82348 0.93486 0.47047 0.0
H2586 H 0.80298 0.89188 0.41506 0.0
H2587 H 0.78973 0.92457 0.39279 0.0
C2588 C 0.84073 0.85309 0.45819 0.0
C2589 C 0.83756 0.85148 0.48224 0.0
C2590 C 0.83379 0.87257 0.44603 0.0
C2591 C 0.8231 0.8906 0.45768 0.0
C2592 C 0.8201 0.88892 0.48186 0.0
C2593 C 0.82744 0.86958 0.49405 0.0
C2594 C 0.80719 0.95114 0.44121 0.0
C2595 C 0.79747 0.9485 0.41927 0.0
C2596 C 0.81571 0.93236 0.45373 0.0
C2597 C 0.81444 0.91071 0.44452 0.0
C2598 C 0.80462 0.90828 0.42256 0.0
C2599 C 0.79653 0.92699 0.40997 0.0
H2600 H 0.80318 0.08639 0.15801 0.0
H2601 H 0.8188 0.01537 0.16572 0.0
H2602 H 0.8432 0.09464 0.16293 0.0
H2603 H 0.85979 0.02346 0.16911 0.0
H2604 H 0.92409 0.05144 0.20592 0.0
H2605 H 0.88727 0.0376 0.19361 0.0
H2606 H 0.87924 0.09497 0.14662 0.0
H2607 H 0.91533 0.10962 0.16053 0.0
C2608 C 0.81531 0.07244 0.16054 0.0
C2609 C 0.80785 0.0502 0.16132 0.0
C2610 C 0.83849 0.07716 0.16294 0.0
C2611 C 0.85511 0.05976 0.16589 0.0
C2612 C 0.8476 0.03737 0.16686 0.0
C2613 C 0.82414 0.03266 0.16479 0.0
C2614 C 0.91471 0.06079 0.19251 0.0
C2615 C 0.92236 0.08179 0.18442 0.0
C2616 C 0.8935 0.05282 0.18539 0.0
C2617 C 0.87972 0.06547 0.16963 0.0
C2618 C 0.88882 0.0852 0.15954 0.0
C2619 C 0.90972 0.09347 0.16718 0.0
H2620 H 0.6255 0.14676 0.99933 0.0
H2621 H 0.65424 0.19897 0.95556 0.0
H2622 H 0.64141 0.11829 0.97386 0.0
H2623 H 0.6704 0.1702 0.92984 0.0
H2624 H 0.72356 0.10944 0.9208 0.0
H2625 H 0.70237 0.14047 0.93853 0.0
H2626 H 0.63924 0.10425 0.93289 0.0
H2627 H 0.6603 0.07307 0.91531 0.0
C2628 C 0.63495 0.1521 0.984 0.0
C2629 C 0.63892 0.17489 0.97936 0.0
C2630 C 0.64388 0.13585 0.96937 0.0
C2631 C 0.65711 0.14217 0.95002 0.0
C2632 C 0.66029 0.16506 0.94479 0.0
C2633 C 0.65105 0.18141 0.95935 0.0
C2634 C 0.70517 0.10808 0.92333 0.0
C2635 C 0.69363 0.0887 0.91701 0.0
C2636 C 0.69303 0.12596 0.93314 0.0
C2637 C 0.66924 0.12467 0.93687 0.0
C2638 C 0.65762 0.10552 0.93017 0.0
C2639 C 0.66971 0.08768 0.92025 0.0
H2640 H 0.59191 0.14094 0.80936 0.0
H2641 H 0.59001 0.07924 0.77164 0.0
H2642 H 0.62763 0.12787 0.82807 0.0
H2643 H 0.62621 0.06675 0.78883 0.0
H2644 H 0.68063 0.03977 0.83772 0.0
H2645 H 0.64379 0.05269 0.8218 0.0
H2646 H 0.66664 0.12136 0.82262 0.0
H2647 H 0.70251 0.1084 0.84047 0.0
C2648 C 0.5993 0.12469 0.80496 0.0
C2649 C 0.58823 0.11101 0.78927 0.0
C2650 C 0.61985 0.11721 0.8155 0.0
C2651 C 0.62994 0.09613 0.81009 0.0
C2652 C 0.61881 0.08275 0.79401 0.0
C2653 C 0.5981 0.08999 0.78397 0.0
C2654 C 0.67757 0.05762 0.83474 0.0
C2655 C 0.69423 0.0731 0.84057 0.0
C2656 C 0.65655 0.06509 0.82531 0.0
C2657 C 0.65206 0.08818 0.82082 0.0
C2658 C 0.66911 0.10355 0.82627 0.0
C2659 C 0.68985 0.0961 0.83623 0.0
H2660 H 0.6409 0.93935 0.6315 0.0
H2661 H 0.70335 0.92759 0.59235 0.0
H2662 H 0.62808 0.90196 0.62256 0.0
H2663 H 0.69008 0.89035 0.58232 0.0
H2664 H 0.5986 0.85087 0.57287 0.0
H2665 H 0.61331 0.88432 0.5902 0.0
H2666 H 0.68108 0.85284 0.59416 0.0
H2667 H 0.66627 0.81945 0.57587 0.0
C2668 C 0.6518 0.92877 0.62078 0.0
C2669 C 0.67289 0.9365 0.6122 0.0
C2670 C 0.64445 0.90732 0.61561 0.0
C2671 C 0.65782 0.89314 0.6014 0.0
C2672 C 0.67936 0.90066 0.59347 0.0
C2673 C 0.68689 0.92209 0.59896 0.0
C2674 C 0.61652 0.85087 0.57793 0.0
C2675 C 0.63129 0.83259 0.57295 0.0
C2676 C 0.62502 0.87009 0.58796 0.0
C2677 C 0.6485 0.87148 0.59345 0.0
C2678 C 0.66301 0.85256 0.58977 0.0
C2679 C 0.65447 0.8333 0.57959 0.0
H2680 H 0.82273 0.97451 0.3212 0.0
H2681 H 0.77964 0.91626 0.32482 0.0
H2682 H 0.85182 0.95285 0.30022 0.0
H2683 H 0.80892 0.89478 0.30331 0.0
H2684 H 0.86852 0.88023 0.24316 0.0
H2685 H 0.83444 0.89921 0.25997 0.0
H2686 H 0.87391 0.91474 0.32044 0.0
H2687 H 0.90762 0.89555 0.30411 0.0
C2688 C 0.81918 0.95727 0.3171 0.0
C2689 C 0.799 0.947 0.32503 0.0
C2690 C 0.83588 0.94491 0.30514 0.0
C2691 C 0.83257 0.9222 0.30051 0.0
C2692 C 0.81175 0.91231 0.30679 0.0
C2693 C 0.79509 0.9246 0.3191 0.0
C2694 C 0.86969 0.88731 0.26025 0.0
C2695 C 0.89064 0.88654 0.27235 0.0
C2696 C 0.8503 0.89814 0.26976 0.0
C2697 C 0.85184 0.90857 0.29125 0.0
C2698 C 0.8725 0.90697 0.30371 0.0
C2699 C 0.89169 0.89591 0.29442 0.0
H2700 H 0.83523 0.17889 0.07338 0.0
H2701 H 0.87915 0.13887 0.02884 0.0
H2702 H 0.82046 0.14456 0.09134 0.0
H2703 H 0.86436 0.10454 0.04694 0.0
H2704 H 0.83528 0.05061 0.10235 0.0
H2705 H 0.85791 0.08269 0.08913 0.0
H2706 H 0.79578 0.11691 0.06528 0.0
H2707 H 0.77321 0.08508 0.07798 0.0
C2708 C 0.84215 0.16278 0.06792 0.0
C2709 C 0.8579 0.16133 0.04953 0.0
C2710 C 0.83373 0.14324 0.07813 0.0
C2711 C 0.84116 0.12218 0.07013 0.0
C2712 C 0.8585 0.12071 0.05327 0.0
C2713 C 0.8668 0.14027 0.04291 0.0
C2714 C 0.82656 0.06478 0.0938 0.0
C2715 C 0.80249 0.06548 0.09127 0.0
C2716 C 0.83946 0.0831 0.08649 0.0
C2717 C 0.82834 0.10222 0.07684 0.0
C2718 C 0.80452 0.10243 0.07327 0.0
C2719 C 0.79169 0.08417 0.08035 0.0
H2720 H 0.65673 0.69672 0.88475 0.0
H2721 H 0.70086 0.69312 0.94486 0.0
H2722 H 0.67898 0.66601 0.86739 0.0
H2723 H 0.72307 0.66228 0.92754 0.0
H2724 H 0.77005 0.62165 0.87964 0.0
H2725 H 0.74933 0.65538 0.89285 0.0
H2726 H 0.68466 0.62493 0.87727 0.0
H2727 H 0.70531 0.59136 0.8641 0.0
C2728 C 0.67123 0.68936 0.89418 0.0
C2729 C 0.67716 0.69717 0.91608 0.0
C2730 C 0.6839 0.67182 0.8843 0.0
C2731 C 0.70277 0.66193 0.8961 0.0
C2732 C 0.70879 0.66988 0.91796 0.0
C2733 C 0.696 0.68733 0.92793 0.0
C2734 C 0.75143 0.6224 0.8787 0.0
C2735 C 0.73919 0.60402 0.87095 0.0
C2736 C 0.73962 0.64155 0.8864 0.0
C2737 C 0.71545 0.64261 0.88618 0.0
C2738 C 0.70331 0.62457 0.87745 0.0
C2739 C 0.71509 0.60538 0.86999 0.0
H2740 H 0.20401 0.88876 0.13997 0.0
H2741 H 0.19512 0.92056 0.07245 0.0
H2742 H 0.19453 0.85278 0.1241 0.0
H2743 H 0.18452 0.88457 0.05658 0.0
H2744 H 0.20021 0.81447 0.0293 0.0
H2745 H 0.20513 0.85124 0.04653 0.0
H2746 H 0.16836 0.82854 0.10782 0.0
H2747 H 0.16456 0.79169 0.09083 0.0
C2748 C 0.19913 0.88821 0.12188 0.0
C2749 C 0.20054 0.90742 0.1074 0.0
C2750 C 0.19373 0.8675 0.11271 0.0
C2751 C 0.18932 0.86558 0.08888 0.0
C2752 C 0.18855 0.88528 0.07486 0.0
C2753 C 0.19418 0.90601 0.08403 0.0
C2754 C 0.1939 0.81729 0.04674 0.0
C2755 C 0.18278 0.8002 0.05915 0.0
C2756 C 0.19622 0.83844 0.05645 0.0
C2757 C 0.18699 0.84301 0.07857 0.0
C2758 C 0.17605 0.82562 0.09098 0.0
C2759 C 0.17405 0.80444 0.08138 0.0
H2760 H 0.83145 0.43813 0.8197 0.0
H2761 H 0.85897 0.44294 0.88878 0.0
H2762 H 0.86638 0.41777 0.80762 0.0
H2763 H 0.89394 0.4233 0.87672 0.0
H2764 H 0.95492 0.38439 0.85006 0.0
H2765 H 0.91523 0.39154 0.86232 0.0
H2766 H 0.90398 0.4335 0.80097 0.0
H2767 H 0.94344 0.42568 0.78846 0.0
C2768 C 0.84463 0.43415 0.83247 0.0
C2769 C 0.84281 0.44239 0.85502 0.0
C2770 C 0.86471 0.42276 0.82552 0.0
C2771 C 0.88316 0.4195 0.84105 0.0
C2772 C 0.88012 0.42554 0.8643 0.0
C2773 C 0.86008 0.43686 0.87123 0.0
C2774 C 0.94394 0.39523 0.83931 0.0
C2775 C 0.95216 0.40466 0.81842 0.0
C2776 C 0.9212 0.39919 0.84623 0.0
C2777 C 0.90639 0.41295 0.83254 0.0
C2778 C 0.91475 0.42239 0.81164 0.0
C2779 C 0.93742 0.41824 0.80464 0.0
H2780 H 0.31838 0.183 0.51465 0.0
H2781 H 0.35794 0.19208 0.57694 0.0
H2782 H 0.29989 0.15085 0.53303 0.0
H2783 H 0.33939 0.15987 0.59525 0.0
H2784 H 0.32388 0.08287 0.60306 0.0
H2785 H 0.34087 0.11759 0.58765 0.0
H2786 H 0.27349 0.14203 0.56619 0.0
H2787 H 0.2567 0.10768 0.58124 0.0
C2788 C 0.32279 0.17839 0.5324 0.0
C2789 C 0.3396 0.19 0.54434 0.0
C2790 C 0.31225 0.16 0.5429 0.0
C2791 C 0.31846 0.15281 0.56544 0.0
C2792 C 0.33456 0.16495 0.57774 0.0
C2793 C 0.34491 0.18354 0.56735 0.0
C2794 C 0.31283 0.09573 0.59504 0.0
C2795 C 0.2891 0.09264 0.59318 0.0
C2796 C 0.32245 0.11557 0.58642 0.0
C2797 C 0.30841 0.13238 0.57574 0.0
C2798 C 0.28468 0.12924 0.57413 0.0
C2799 C 0.27512 0.10959 0.5828 0.0
H2800 H 0.08852 0.11434 0.78457 0.0
H2801 H 0.04062 0.08507 0.83341 0.0
H2802 H 0.12042 0.09536 0.80495 0.0
H2803 H 0.0724 0.06703 0.8545 0.0
H2804 H 0.13347 0.01978 0.87211 0.0
H2805 H 0.10071 0.03832 0.85302 0.0
H2806 H 0.14135 0.09725 0.83994 0.0
H2807 H 0.17446 0.07807 0.85805 0.0
C2808 C 0.08487 0.10381 0.79965 0.0
C2809 C 0.06222 0.10117 0.80749 0.0
C2810 C 0.10311 0.09316 0.81152 0.0
C2811 C 0.09902 0.07991 0.8316 0.0
C2812 C 0.0762 0.07692 0.83902 0.0
C2813 C 0.05798 0.0873 0.82697 0.0
C2814 C 0.13522 0.03686 0.86553 0.0
C2815 C 0.1564 0.04756 0.86648 0.0
C2816 C 0.11646 0.0475 0.85456 0.0
C2817 C 0.11846 0.06919 0.84466 0.0
C2818 C 0.13939 0.08032 0.84682 0.0
C2819 C 0.15825 0.06951 0.85747 0.0
H2820 H 0.78377 0.39609 0.35147 0.0
H2821 H 0.80688 0.42784 0.41352 0.0
H2822 H 0.79963 0.36009 0.36563 0.0
H2823 H 0.82321 0.39183 0.42755 0.0
H2824 H 0.81976 0.32234 0.45948 0.0
H2825 H 0.80458 0.35711 0.44176 0.0
H2826 H 0.83505 0.33878 0.37612 0.0
H2827 H 0.85003 0.30381 0.39374 0.0
C2828 C 0.7928 0.39545 0.36787 0.0
C2829 C 0.79398 0.41461 0.38155 0.0
C2830 C 0.80184 0.37485 0.37597 0.0
C2831 C 0.81216 0.37311 0.39789 0.0
C2832 C 0.81479 0.39264 0.41082 0.0
C2833 C 0.80578 0.41328 0.40268 0.0
C2834 C 0.82279 0.32549 0.44115 0.0
C2835 C 0.83623 0.31047 0.42804 0.0
C2836 C 0.81438 0.34553 0.43109 0.0
C2837 C 0.81924 0.35089 0.40776 0.0
C2838 C 0.83118 0.3351 0.39419 0.0
C2839 C 0.83958 0.315 0.40425 0.0
H2840 H 0.97757 0.56205 0.63865 0.0
H2841 H 0.96259 0.52574 0.70246 0.0
H2842 H 0.94447 0.5455 0.62035 0.0
H2843 H 0.92958 0.50888 0.68391 0.0
H2844 H 0.87702 0.47547 0.63624 0.0
H2845 H 0.91553 0.48469 0.64943 0.0
H2846 H 0.90175 0.55459 0.63168 0.0
H2847 H 0.86302 0.54544 0.61893 0.0
C2848 C 0.96771 0.54989 0.64852 0.0
C2849 C 0.97246 0.54538 0.67207 0.0
C2850 C 0.94865 0.5406 0.63807 0.0
C2851 C 0.93425 0.52632 0.65087 0.0
C2852 C 0.94041 0.51991 0.67369 0.0
C2853 C 0.95936 0.52945 0.68426 0.0
C2854 C 0.88234 0.49278 0.63492 0.0
C2855 C 0.86712 0.5098 0.62653 0.0
C2856 C 0.90431 0.49801 0.64254 0.0
C2857 C 0.91163 0.52029 0.64142 0.0
C2858 C 0.89662 0.53721 0.63243 0.0
C2859 C 0.87446 0.53204 0.62524 0.0
H2860 H 0.6825 0.45926 0.18048 0.0
H2861 H 0.65156 0.44574 0.11462 0.0
H2862 H 0.64809 0.44745 0.20044 0.0
H2863 H 0.61761 0.4315 0.13453 0.0
H2864 H 0.54948 0.43301 0.17313 0.0
H2865 H 0.58493 0.44274 0.15284 0.0
H2866 H 0.62401 0.4218 0.21376 0.0
H2867 H 0.58863 0.41476 0.23435 0.0
C2868 C 0.66861 0.45273 0.17035 0.0
C2869 C 0.6696 0.4533 0.14609 0.0
C2870 C 0.64872 0.44587 0.1818 0.0
C2871 C 0.62962 0.43861 0.16924 0.0
C2872 C 0.63148 0.43763 0.14489 0.0
C2873 C 0.65112 0.44533 0.13342 0.0
C2874 C 0.56573 0.4311 0.18217 0.0
C2875 C 0.56635 0.42368 0.20539 0.0
C2876 C 0.58616 0.43622 0.17046 0.0
C2877 C 0.60769 0.4331 0.1815 0.0
C2878 C 0.60802 0.42523 0.2047 0.0
C2879 C 0.58762 0.42108 0.2166 0.0
H2880 H 0.59019 0.81412 0.92729 0.0
H2881 H 0.64037 0.79532 0.87526 0.0
H2882 H 0.56564 0.83098 0.89717 0.0
H2883 H 0.61546 0.81153 0.84495 0.0
H2884 H 0.56909 0.86464 0.80297 0.0
H2885 H 0.5974 0.84584 0.82851 0.0
H2886 H 0.54224 0.81495 0.86731 0.0
H2887 H 0.51415 0.83447 0.84236 0.0
C2888 C 0.59614 0.81401 0.90945 0.0
C2889 C 0.61703 0.80334 0.90354 0.0
C2890 C 0.58195 0.82328 0.89215 0.0
C2891 C 0.58832 0.82187 0.86863 0.0
C2892 C 0.61003 0.81269 0.86289 0.0
C2893 C 0.62431 0.80353 0.88025 0.0
C2894 C 0.56319 0.85304 0.81636 0.0
C2895 C 0.53961 0.85088 0.82089 0.0
C2896 C 0.57934 0.84248 0.83112 0.0
C2897 C 0.57196 0.82957 0.85037 0.0
C2898 C 0.54838 0.82544 0.8531 0.0
C2899 C 0.53232 0.8362 0.83859 0.0
H2900 H 0.43931 0.28309 0.07492 0.0
H2901 H 0.39523 0.34169 0.06287 0.0
H2902 H 0.45951 0.30285 0.10506 0.0
H2903 H 0.4154 0.36138 0.09315 0.0
H2904 H 0.43429 0.37093 0.17152 0.0
H2905 H 0.41698 0.35488 0.13718 0.0
H2906 H 0.48463 0.3366 0.11143 0.0
H2907 H 0.50191 0.35279 0.14564 0.0
C2908 C 0.4342 0.30032 0.07844 0.0
C2909 C 0.41565 0.31082 0.06658 0.0
C2910 C 0.4458 0.31164 0.09566 0.0
C2911 C 0.43888 0.33357 0.10158 0.0
C2912 C 0.42093 0.3444 0.08908 0.0
C2913 C 0.40955 0.3332 0.07161 0.0
C2914 C 0.44541 0.36362 0.15843 0.0
C2915 C 0.46939 0.36306 0.16121 0.0
C2916 C 0.43555 0.35457 0.13873 0.0
C2917 C 0.44948 0.34454 0.12162 0.0
C2918 C 0.47349 0.34414 0.12438 0.0
C2919 C 0.48335 0.35345 0.14391 0.0
H2920 H 0.89312 0.18081 0.39934 0.0
H2921 H 0.90215 0.24344 0.36135 0.0
H2922 H 0.90211 0.16001 0.36395 0.0
H2923 H 0.91122 0.22277 0.32634 0.0
H2924 H 0.95999 0.17607 0.28418 0.0
H2925 H 0.94655 0.19617 0.31825 0.0
H2926 H 0.88547 0.15629 0.32084 0.0
H2927 H 0.89883 0.13626 0.28629 0.0
C2928 C 0.89688 0.19005 0.38342 0.0
C2929 C 0.89716 0.21362 0.38297 0.0
C2930 C 0.90184 0.17823 0.36326 0.0
C2931 C 0.90739 0.18991 0.34263 0.0
C2932 C 0.90713 0.21347 0.34215 0.0
C2933 C 0.90195 0.22524 0.36213 0.0
C2934 C 0.94358 0.17179 0.29189 0.0
C2935 C 0.93028 0.15486 0.28266 0.0
C2936 C 0.93592 0.18325 0.3113 0.0
C2937 C 0.91499 0.17774 0.32196 0.0
C2938 C 0.90167 0.16074 0.31281 0.0
C2939 C 0.90918 0.14949 0.29305 0.0
H2940 H 0.10608 0.71705 0.60211 0.0
H2941 H 0.05591 0.68049 0.5641 0.0
H2942 H 0.09689 0.69596 0.63717 0.0
H2943 H 0.04617 0.65942 0.59977 0.0
H2944 H 0.05008 0.61112 0.66194 0.0
H2945 H 0.06318 0.63086 0.62692 0.0
H2946 H 0.06611 0.69245 0.6649 0.0
H2947 H 0.05355 0.67274 0.69989 0.0
C2948 C 0.09276 0.70474 0.60131 0.0
C2949 C 0.0816 0.70055 0.58034 0.0
C2950 C 0.08752 0.69259 0.62149 0.0
C2951 C 0.07087 0.67595 0.62129 0.0
C2952 C 0.05937 0.67192 0.60038 0.0
C2953 C 0.0647 0.68414 0.58005 0.0
C2954 C 0.05422 0.62871 0.66301 0.0
C2955 C 0.05074 0.64036 0.68375 0.0
C2956 C 0.06132 0.6401 0.64282 0.0
C2957 C 0.06526 0.6633 0.64302 0.0
C2958 C 0.06326 0.67457 0.66413 0.0
C2959 C 0.05612 0.66323 0.68425 0.0
H2960 H 0.58567 0.15423 0.70321 0.0
H2961 H 0.52647 0.18431 0.66832 0.0
H2962 H 0.61013 0.16572 0.67064 0.0
H2963 H 0.55086 0.19589 0.63606 0.0
H2964 H 0.59254 0.19247 0.57131 0.0
H2965 H 0.57193 0.17681 0.60473 0.0
H2966 H 0.6251 0.19929 0.65022 0.0
H2967 H 0.64588 0.21452 0.61677 0.0
C2968 C 0.57797 0.16374 0.68887 0.0
C2969 C 0.55413 0.16832 0.6883 0.0
C2970 C 0.59195 0.17015 0.67015 0.0
C2971 C 0.58231 0.18123 0.65057 0.0
C2972 C 0.55868 0.18677 0.65059 0.0
C2973 C 0.54476 0.18039 0.66922 0.0
C2974 C 0.60012 0.19347 0.58838 0.0
C2975 C 0.62067 0.20482 0.59152 0.0
C2976 C 0.5882 0.18478 0.60753 0.0
C2977 C 0.59666 0.1873 0.63014 0.0
C2978 C 0.61814 0.19711 0.63305 0.0
C2979 C 0.63003 0.20582 0.61389 0.0
H2980 H 0.06405 0.31846 0.81797 0.0
H2981 H 0.07435 0.38599 0.84094 0.0
H2982 H 0.08375 0.30343 0.85258 0.0
H2983 H 0.09314 0.37122 0.87567 0.0
H2984 H 0.12927 0.34202 0.93639 0.0
H2985 H 0.12305 0.35184 0.89561 0.0
H2986 H 0.07142 0.30091 0.89212 0.0
H2987 H 0.07859 0.29048 0.93268 0.0
C2988 C 0.0711 0.33008 0.8301 0.0
C2989 C 0.06747 0.35337 0.82699 0.0
C2990 C 0.08213 0.32149 0.85004 0.0
C2991 C 0.0896 0.33608 0.86719 0.0
C2992 C 0.08777 0.35942 0.86287 0.0
C2993 C 0.07689 0.36795 0.84294 0.0
C2994 C 0.11675 0.33283 0.92678 0.0
C2995 C 0.10412 0.31575 0.93764 0.0
C2996 C 0.11318 0.33843 0.90342 0.0
C2997 C 0.09653 0.32739 0.89058 0.0
C2998 C 0.08457 0.30964 0.90133 0.0
C2999 C 0.08843 0.3038 0.92464 0.0
H3000 H 0.9075 0.8504 0.17618 0.0
H3001 H 0.96594 0.80425 0.1728 0.0
H3002 H 0.88908 0.83066 0.14466 0.0
H3003 H 0.94725 0.78425 0.14174 0.0
H3004 H 0.89652 0.74355 0.10035 0.0
H3005 H 0.90758 0.76189 0.13599 0.0
H3006 H 0.90479 0.82635 0.10009 0.0
H3007 H 0.89431 0.80795 0.06416 0.0
C3008 C 0.91613 0.83575 0.16903 0.0
C3009 C 0.93809 0.82877 0.17678 0.0
C3010 C 0.90566 0.82459 0.15101 0.0
C3011 C 0.9168 0.80601 0.14099 0.0
C3012 C 0.93831 0.79846 0.14942 0.0
C3013 C 0.94901 0.80992 0.16704 0.0
C3014 C 0.89789 0.76168 0.10019 0.0
C3015 C 0.89476 0.77441 0.07959 0.0
C3016 C 0.90423 0.7721 0.12051 0.0
C3017 C 0.90701 0.79542 0.1206 0.0
C3018 C 0.90255 0.80832 0.10036 0.0
C3019 C 0.89666 0.79784 0.07988 0.0
H3020 H 0.43479 0.62764 0.33928 0.0
H3021 H 0.45328 0.69221 0.31032 0.0
H3022 H 0.41999 0.64579 0.37405 0.0
H3023 H 0.44078 0.71016 0.34546 0.0
H3024 H 0.40203 0.74058 0.40391 0.0
H3025 H 0.41274 0.72245 0.36876 0.0
H3026 H 0.43155 0.66183 0.40788 0.0
H3027 H 0.41836 0.67969 0.44346 0.0
C3028 C 0.43522 0.64579 0.34024 0.0
C3029 C 0.4448 0.6586 0.32208 0.0
C3030 C 0.42728 0.65618 0.36037 0.0
C3031 C 0.42948 0.6795 0.36298 0.0
C3032 C 0.43826 0.69229 0.3442 0.0
C3033 C 0.44543 0.682 0.32386 0.0
C3034 C 0.4087 0.72345 0.40528 0.0
C3035 C 0.40931 0.71159 0.42667 0.0
C3036 C 0.41502 0.71297 0.38486 0.0
C3037 C 0.42305 0.69052 0.38516 0.0
C3038 C 0.42487 0.67895 0.40675 0.0
C3039 C 0.41776 0.6893 0.42728 0.0
H3040 H 0.82594 0.58741 0.82401 0.0
H3041 H 0.85131 0.52165 0.80421 0.0
H3042 H 0.85715 0.60469 0.80194 0.0
H3043 H 0.88263 0.53875 0.78293 0.0
H3044 H 0.93369 0.62197 0.78673 0.0
H3045 H 0.8987 0.60787 0.8049 0.0
H3046 H 0.89167 0.56104 0.74932 0.0
H3047 H 0.92685 0.57458 0.73161 0.0
C3048 C 0.83799 0.57667 0.81477 0.0
C3049 C 0.83612 0.55316 0.81586 0.0
C3050 C 0.85599 0.58655 0.80232 0.0
C3051 C 0.87242 0.57311 0.79069 0.0
C3052 C 0.87012 0.54966 0.79136 0.0
C3053 C 0.85219 0.53982 0.80374 0.0
C3054 C 0.92457 0.60877 0.77832 0.0
C3055 C 0.93322 0.59921 0.75788 0.0
C3056 C 0.90443 0.60079 0.78865 0.0
C3057 C 0.89248 0.58319 0.77866 0.0
C3058 C 0.9007 0.57429 0.75773 0.0
C3059 C 0.92086 0.58212 0.74754 0.0
H3060 H 0.66721 0.56381 0.09674 0.0
H3061 H 0.7345 0.5573 0.06503 0.0
H3062 H 0.66083 0.59978 0.07615 0.0
H3063 H 0.72804 0.59322 0.0443 0.0
H3064 H 0.68772 0.63867 0.98902 0.0
H3065 H 0.69883 0.6053 0.01222 0.0
H3066 H 0.6784 0.63942 0.07465 0.0
H3067 H 0.66744 0.67292 0.05145 0.0
C3068 C 0.68058 0.57012 0.08536 0.0
C3069 C 0.70119 0.55782 0.08215 0.0
C3070 C 0.67704 0.59071 0.07379 0.0
C3071 C 0.69397 0.59911 0.05871 0.0
C3072 C 0.71472 0.58693 0.05577 0.0
C3073 C 0.71838 0.56647 0.06757 0.0
C3074 C 0.68586 0.63907 0.00771 0.0
C3075 C 0.67664 0.65816 0.01853 0.0
C3076 C 0.69232 0.6201 0.02094 0.0
C3077 C 0.68936 0.61992 0.04512 0.0
C3078 C 0.68067 0.63922 0.05599 0.0
C3079 C 0.6745 0.65831 0.04277 0.0
H3080 H 0.67422 0.48054 0.32234 0.0
H3081 H 0.67992 0.42643 0.37324 0.0
H3082 H 0.63395 0.47098 0.31564 0.0
H3083 H 0.63986 0.41817 0.36827 0.0
H3084 H 0.58312 0.38569 0.3281 0.0
H3085 H 0.61917 0.39985 0.34144 0.0
H3086 H 0.59486 0.468 0.32684 0.0
H3087 H 0.55884 0.45337 0.3122 0.0
C3088 C 0.66674 0.46692 0.33236 0.0
C3089 C 0.6803 0.45393 0.34791 0.0
C3090 C 0.64361 0.46153 0.32874 0.0
C3091 C 0.6336 0.44337 0.34102 0.0
C3092 C 0.64699 0.43162 0.35775 0.0
C3093 C 0.67005 0.4365 0.36075 0.0
C3094 C 0.58518 0.40373 0.32829 0.0
C3095 C 0.56814 0.41837 0.31908 0.0
C3096 C 0.60597 0.41198 0.33603 0.0
C3097 C 0.61022 0.43521 0.33517 0.0
C3098 C 0.59247 0.45001 0.32738 0.0
C3099 C 0.57165 0.44167 0.31936 0.0
H3100 H 0.89331 0.35629 0.51706 0.0
H3101 H 0.84655 0.3101 0.55009 0.0
H3102 H 0.87565 0.38724 0.53799 0.0
H3103 H 0.82889 0.34126 0.57153 0.0
H3104 H 0.78313 0.4065 0.57149 0.0
H3105 H 0.80428 0.37356 0.55772 0.0
H3106 H 0.8684 0.40378 0.57577 0.0
H3107 H 0.84738 0.43692 0.58917 0.0
C3108 C 0.8796 0.35272 0.52931 0.0
C3109 C 0.8711 0.33096 0.53191 0.0
C3110 C 0.86955 0.37042 0.54136 0.0
C3111 C 0.85074 0.36667 0.55617 0.0
C3112 C 0.84318 0.3446 0.55993 0.0
C3113 C 0.85338 0.32679 0.5479 0.0
C3114 C 0.80174 0.40619 0.57241 0.0
C3115 C 0.81359 0.42443 0.58117 0.0
C3116 C 0.81382 0.38718 0.56484 0.0
C3117 C 0.83796 0.38605 0.56589 0.0
C3118 C 0.8498 0.40427 0.57467 0.0
C3119 C 0.83774 0.42328 0.58222 0.0
H3120 H 0.88655 0.39505 0.74664 0.0
H3121 H 0.93006 0.42264 0.69266 0.0
H3122 H 0.8524 0.40758 0.72483 0.0
H3123 H 0.89572 0.43581 0.67117 0.0
H3124 H 0.82293 0.47639 0.66264 0.0
H3125 H 0.85806 0.46498 0.68359 0.0
H3126 H 0.83913 0.39549 0.68 0.0
H3127 H 0.80457 0.40672 0.65813 0.0
C3128 C 0.88876 0.40391 0.73018 0.0
C3129 C 0.91079 0.40781 0.72116 0.0
C3130 C 0.8693 0.41101 0.71777 0.0
C3131 C 0.87166 0.42253 0.69646 0.0
C3132 C 0.89367 0.42693 0.68765 0.0
C3133 C 0.91318 0.41936 0.69983 0.0
C3134 C 0.82645 0.45868 0.6661 0.0
C3135 C 0.81127 0.44237 0.65864 0.0
C3136 C 0.84643 0.45222 0.67806 0.0
C3137 C 0.85107 0.42943 0.68324 0.0
C3138 C 0.83573 0.41317 0.67613 0.0
C3139 C 0.81606 0.41958 0.6637 0.0
H3140 H 0.86328 0.55125 0.8754 0.0
H3141 H 0.79965 0.57066 0.90929 0.0
H3142 H 0.87969 0.58693 0.88484 0.0
H3143 H 0.81647 0.60661 0.91946 0.0
H3144 H 0.84954 0.6756 0.92151 0.0
H3145 H 0.83163 0.64281 0.90485 0.0
H3146 H 0.89318 0.60299 0.9198 0.0
H3147 H 0.91098 0.63562 0.93597 0.0
C3148 C 0.85281 0.56314 0.88505 0.0
C3149 C 0.83031 0.55799 0.89201 0.0
C3150 C 0.86226 0.58364 0.89046 0.0
C3151 C 0.84957 0.59955 0.90321 0.0
C3152 C 0.82669 0.59476 0.90953 0.0
C3153 C 0.81712 0.57414 0.90392 0.0
C3154 C 0.85941 0.65996 0.9206 0.0
C3155 C 0.88171 0.65815 0.92991 0.0
C3156 C 0.84904 0.64112 0.91137 0.0
C3157 C 0.86087 0.62021 0.91113 0.0
C3158 C 0.88361 0.61884 0.91944 0.0
C3159 C 0.89387 0.63756 0.92872 0.0
H3160 H 0.59398 0.62944 0.18393 0.0
H3161 H 0.6223 0.61315 0.25151 0.0
H3162 H 0.62823 0.61288 0.16561 0.0
H3163 H 0.65649 0.59638 0.23318 0.0
H3164 H 0.68629 0.53675 0.18801 0.0
H3165 H 0.6591 0.56063 0.20916 0.0
H3166 H 0.67235 0.61579 0.16138 0.0
H3167 H 0.69985 0.59186 0.14024 0.0
C3168 C 0.60774 0.6227 0.19483 0.0
C3169 C 0.6055 0.62241 0.21908 0.0
C3170 C 0.62737 0.61334 0.18437 0.0
C3171 C 0.64492 0.60328 0.19801 0.0
C3172 C 0.64313 0.60394 0.2223 0.0
C3173 C 0.62364 0.61358 0.23276 0.0
C3174 C 0.68366 0.55407 0.18224 0.0
C3175 C 0.69507 0.56247 0.16248 0.0
C3176 C 0.66824 0.56778 0.19444 0.0
C3177 C 0.66366 0.59003 0.18688 0.0
C3178 C 0.67559 0.59867 0.16752 0.0
C3179 C 0.69137 0.58504 0.15553 0.0
H3180 H 0.71702 0.43995 0.44371 0.0
H3181 H 0.6559 0.45803 0.40442 0.0
H3182 H 0.69562 0.41142 0.46517 0.0
H3183 H 0.63479 0.42866 0.4253 0.0
H3184 H 0.63958 0.34532 0.43966 0.0
H3185 H 0.64938 0.38221 0.42295 0.0
H3186 H 0.65535 0.40845 0.49177 0.0
H3187 H 0.64519 0.37203 0.50848 0.0
C3188 C 0.6989 0.43809 0.44004 0.0
C3189 C 0.68812 0.45081 0.42227 0.0
C3190 C 0.68671 0.42189 0.45229 0.0
C3191 C 0.66377 0.41796 0.44658 0.0
C3192 C 0.65252 0.43157 0.42983 0.0
C3193 C 0.66455 0.44829 0.41802 0.0
C3194 C 0.6425 0.35914 0.4511 0.0
C3195 C 0.64199 0.35591 0.47524 0.0
C3196 C 0.64785 0.38016 0.44161 0.0
C3197 C 0.65294 0.3979 0.45624 0.0
C3198 C 0.65129 0.39493 0.48031 0.0
C3199 C 0.64565 0.37411 0.48976 0.0
H3200 H 0.83961 0.82596 0.56091 0.0
H3201 H 0.79795 0.78032 0.60101 0.0
H3202 H 0.8193 0.85762 0.57723 0.0
H3203 H 0.7759 0.81228 0.61644 0.0
H3204 H 0.75751 0.87662 0.65685 0.0
H3205 H 0.77648 0.84272 0.64156 0.0
H3206 H 0.78525 0.87733 0.57529 0.0
H3207 H 0.76839 0.9112 0.5913 0.0
C3208 C 0.82567 0.82271 0.5728 0.0
C3209 C 0.82019 0.80078 0.57949 0.0
C3210 C 0.81382 0.84092 0.58216 0.0
C3211 C 0.79559 0.83762 0.59793 0.0
C3212 C 0.78996 0.8155 0.60454 0.0
C3213 C 0.80239 0.79722 0.59558 0.0
C3214 C 0.76375 0.87676 0.63911 0.0
C3215 C 0.76217 0.89641 0.62534 0.0
C3216 C 0.77438 0.85739 0.63024 0.0
C3217 C 0.78284 0.85736 0.60727 0.0
C3218 C 0.77987 0.87689 0.5933 0.0
C3219 C 0.77007 0.89629 0.60239 0.0
H3220 H 0.29079 0.61375 0.36525 0.0
H3221 H 0.30529 0.58102 0.43138 0.0
H3222 H 0.30246 0.64956 0.38064 0.0
H3223 H 0.3168 0.61687 0.44685 0.0
H3224 H 0.35575 0.68133 0.45848 0.0
H3225 H 0.34587 0.64552 0.44299 0.0
H3226 H 0.28647 0.67659 0.40945 0.0
H3227 H 0.29656 0.71309 0.42527 0.0
C3228 C 0.29701 0.61412 0.38292 0.0
C3229 C 0.29719 0.5946 0.39713 0.0
C3230 C 0.30331 0.6347 0.39182 0.0
C3231 C 0.31007 0.63613 0.41507 0.0
C3232 C 0.31163 0.61631 0.42885 0.0
C3233 C 0.30524 0.59573 0.41996 0.0
C3234 C 0.34029 0.68061 0.44821 0.0
C3235 C 0.32674 0.70005 0.44336 0.0
C3236 C 0.33469 0.65997 0.43924 0.0
C3237 C 0.31544 0.65818 0.42497 0.0
C3238 C 0.30161 0.67755 0.42022 0.0
C3239 C 0.3072 0.69836 0.42941 0.0
H3240 H 0.53144 0.06391 0.68028 0.0
H3241 H 0.5687 0.10774 0.72454 0.0
H3242 H 0.56792 0.05056 0.6635 0.0
H3243 H 0.60464 0.09555 0.70718 0.0
H3244 H 0.66687 0.05236 0.68549 0.0
H3245 H 0.63164 0.06618 0.70365 0.0
H3246 H 0.59676 0.06443 0.63762 0.0
H3247 H 0.6319 0.04947 0.61978 0.0
C3248 C 0.54741 0.07042 0.68661 0.0
C3249 C 0.54727 0.08688 0.70359 0.0
C3250 C 0.56825 0.06312 0.67678 0.0
C3251 C 0.58919 0.07234 0.68367 0.0
C3252 C 0.58895 0.08797 0.70151 0.0
C3253 C 0.56826 0.09499 0.71148 0.0
C3254 C 0.65185 0.05556 0.67474 0.0
C3255 C 0.65199 0.04983 0.65129 0.0
C3256 C 0.63157 0.06335 0.68516 0.0
C3257 C 0.6112 0.06592 0.6722 0.0
C3258 C 0.61195 0.06193 0.64826 0.0
C3259 C 0.63216 0.05382 0.63792 0.0
H3260 H 0.19462 0.32099 0.98454 0.0
H3261 H 0.16319 0.30403 0.9196 0.0
H3262 H 0.21619 0.35039 0.96437 0.0
H3263 H 0.18434 0.33367 0.89977 0.0
H3264 H 0.19166 0.41379 0.89391 0.0
H3265 H 0.17738 0.37765 0.90831 0.0
H3266 H 0.2462 0.35725 0.92902 0.0
H3267 H 0.26061 0.39308 0.91408 0.0
C3268 C 0.19277 0.32315 0.96592 0.0
C3269 C 0.17707 0.3104 0.9537 0.0
C3270 C 0.20511 0.3399 0.95441 0.0
C3271 C 0.2016 0.34432 0.93065 0.0
C3272 C 0.18716 0.33057 0.91814 0.0
C3273 C 0.1752 0.31353 0.92952 0.0
C3274 C 0.20373 0.40141 0.90119 0.0
C3275 C 0.22714 0.40611 0.90297 0.0
C3276 C 0.19563 0.38078 0.9093 0.0
C3277 C 0.21079 0.3648 0.91967 0.0
C3278 C 0.23428 0.36935 0.92104 0.0
C3279 C 0.24244 0.38978 0.91249 0.0
H3280 H 0.37456 0.48548 0.62822 0.0
H3281 H 0.33032 0.4422 0.6686 0.0
H3282 H 0.40837 0.46554 0.64438 0.0
H3283 H 0.36415 0.4225 0.68499 0.0
H3284 H 0.43235 0.41519 0.72845 0.0
H3285 H 0.39802 0.43428 0.71194 0.0
H3286 H 0.4254 0.42495 0.64295 0.0
H3287 H 0.45921 0.40559 0.65927 0.0
C3288 C 0.37211 0.47153 0.64031 0.0
C3289 C 0.34992 0.46523 0.64706 0.0
C3290 C 0.39139 0.46021 0.6496 0.0
C3291 C 0.38876 0.44265 0.66603 0.0
C3292 C 0.36656 0.43615 0.67253 0.0
C3293 C 0.34728 0.44725 0.66298 0.0
C3294 C 0.43091 0.4172 0.70979 0.0
C3295 C 0.44831 0.40891 0.69511 0.0
C3296 C 0.41134 0.42803 0.70037 0.0
C3297 C 0.40919 0.43104 0.6762 0.0
C3298 C 0.42676 0.42297 0.66163 0.0
C3299 C 0.44605 0.41187 0.67099 0.0
H3300 H 0.68509 0.08008 0.09315 0.0
H3301 H 0.70134 0.10371 0.1613 0.0
H3302 H 0.67267 0.1181 0.08136 0.0
H3303 H 0.68911 0.14179 0.14942 0.0
H3304 H 0.64528 0.2033 0.11784 0.0
H3305 H 0.65583 0.16664 0.13495 0.0
H3306 H 0.69777 0.15193 0.07487 0.0
H3307 H 0.6872 0.18844 0.05764 0.0
C3308 C 0.68534 0.09326 0.1058 0.0
C3309 C 0.69439 0.08911 0.128 0.0
C3310 C 0.67858 0.11504 0.09898 0.0
C3311 C 0.68065 0.1329 0.11432 0.0
C3312 C 0.68757 0.12833 0.13724 0.0
C3313 C 0.69445 0.10655 0.14403 0.0
C3314 C 0.6574 0.19258 0.10863 0.0
C3315 C 0.66519 0.19859 0.08624 0.0
C3316 C 0.66322 0.17152 0.11835 0.0
C3317 C 0.67694 0.15627 0.10583 0.0
C3318 C 0.68653 0.16316 0.08451 0.0
C3319 C 0.68076 0.18417 0.07482 0.0
H3320 H 0.5384 0.98419 0.81163 0.0
H3321 H 0.53345 0.94159 0.87303 0.0
H3322 H 0.57157 1.00239 0.82821 0.0
H3323 H 0.56664 0.95967 0.88949 0.0
H3324 H 0.64722 0.96592 0.88203 0.0
H3325 H 0.60784 0.955 0.87387 0.0
H3326 H 0.58808 0.0247 0.86167 0.0
H3327 H 0.62741 0.03563 0.87006 0.0
C3328 C 0.54386 0.97932 0.829 0.0
C3329 C 0.53364 0.96129 0.84092 0.0
C3330 C 0.56287 0.98968 0.83848 0.0
C3331 C 0.5719 0.98205 0.8599 0.0
C3332 C 0.56021 0.96557 0.87277 0.0
C3333 C 0.54112 0.95537 0.86341 0.0
C3334 C 0.63437 0.97887 0.87792 0.0
C3335 C 0.64027 1.00154 0.87664 0.0
C3336 C 0.61183 0.97269 0.87342 0.0
C3337 C 0.59492 0.98907 0.86727 0.0
C3338 C 0.60078 0.01179 0.86638 0.0
C3339 C 0.62324 0.01799 0.87122 0.0
H3340 H 0.80609 0.05562 0.32053 0.0
H3341 H 0.84339 0.0464 0.38474 0.0
H3342 H 0.84014 0.07213 0.30239 0.0
H3343 H 0.87735 0.06262 0.36668 0.0
H3344 H 0.93013 0.10711 0.32887 0.0
H3345 H 0.8946 0.09643 0.3486 0.0
H3346 H 0.87767 0.0547 0.29111 0.0
H3347 H 0.91292 0.06537 0.27136 0.0
C3348 C 0.82136 0.05767 0.3309 0.0
C3349 C 0.82219 0.04969 0.35396 0.0
C3350 C 0.84091 0.06685 0.32048 0.0
C3351 C 0.86153 0.06834 0.33304 0.0
C3352 C 0.86175 0.06177 0.35658 0.0
C3353 C 0.8423 0.05247 0.3669 0.0
C3354 C 0.91901 0.09539 0.32059 0.0
C3355 C 0.92444 0.08705 0.29855 0.0
C3356 C 0.89858 0.0894 0.33184 0.0
C3357 C 0.88316 0.07501 0.32123 0.0
C3358 C 0.88892 0.06625 0.29949 0.0
C3359 C 0.90931 0.07215 0.2883 0.0
H3360 H 0.41651 0.18957 0.07762 0.0
H3361 H 0.38615 0.2345 0.12768 0.0
H3362 H 0.44295 0.17458 0.10732 0.0
H3363 H 0.41293 0.22016 0.15707 0.0
H3364 H 0.50096 0.16526 0.15501 0.0
H3365 H 0.47617 0.18732 0.12864 0.0
H3366 H 0.42197 0.18692 0.1803 0.0
H3367 H 0.44706 0.16547 0.20682 0.0
C3368 C 0.41532 0.19598 0.09503 0.0
C3369 C 0.39932 0.21306 0.10043 0.0
C3370 C 0.43068 0.18775 0.11192 0.0
C3371 C 0.4303 0.19657 0.1344 0.0
C3372 C 0.41366 0.21306 0.13994 0.0
C3373 C 0.3983 0.2212 0.12312 0.0
C3374 C 0.48408 0.17078 0.16101 0.0
C3375 C 0.47572 0.16352 0.1827 0.0
C3376 C 0.46977 0.18302 0.14582 0.0
C3377 C 0.44687 0.18806 0.15211 0.0
C3378 C 0.43948 0.18311 0.17489 0.0
C3379 C 0.4539 0.17099 0.19018 0.0
H3380 H 0.57279 0.72052 0.92035 0.0
H3381 H 0.61555 0.66085 0.93178 0.0
H3382 H 0.54809 0.69961 0.89493 0.0
H3383 H 0.59071 0.63996 0.90648 0.0
H3384 H 0.56416 0.62731 0.83138 0.0
H3385 H 0.58497 0.64299 0.8636 0.0
H3386 H 0.52078 0.66747 0.89287 0.0
H3387 H 0.49989 0.65167 0.86046 0.0
C3388 C 0.57673 0.70287 0.9177 0.0
C3389 C 0.59626 0.6924 0.92786 0.0
C3390 C 0.56247 0.69086 0.90329 0.0
C3391 C 0.56757 0.66819 0.89863 0.0
C3392 C 0.58651 0.65747 0.90961 0.0
C3393 C 0.60065 0.66942 0.92417 0.0
C3394 C 0.55448 0.63571 0.8449 0.0
C3395 C 0.53048 0.63838 0.84346 0.0
C3396 C 0.56636 0.64458 0.86341 0.0
C3397 C 0.55449 0.65649 0.88072 0.0
C3398 C 0.53036 0.65849 0.87968 0.0
C3399 C 0.51842 0.64937 0.86124 0.0
H3400 H 0.09215 0.82613 0.59934 0.0
H3401 H 0.09675 0.76408 0.63964 0.0
H3402 H 0.07461 0.84497 0.63249 0.0
H3403 H 0.07848 0.78254 0.67239 0.0
H3404 H 0.06708 0.8301 0.73315 0.0
H3405 H 0.08501 0.8102 0.70102 0.0
H3406 H 0.03836 0.84465 0.65314 0.0
H3407 H 0.02105 0.86509 0.68521 0.0
C3408 C 0.08946 0.81661 0.61533 0.0
C3409 C 0.09573 0.79378 0.61708 0.0
C3410 C 0.07924 0.82727 0.63418 0.0
C3411 C 0.07497 0.81513 0.65492 0.0
C3412 C 0.08175 0.79237 0.65672 0.0
C3413 C 0.09216 0.78181 0.63798 0.0
C3414 C 0.06054 0.83317 0.71577 0.0
C3415 C 0.04294 0.84923 0.71148 0.0
C3416 C 0.07075 0.82179 0.6974 0.0
C3417 C 0.0633 0.82615 0.67455 0.0
C3418 C 0.04485 0.8414 0.6705 0.0
C3419 C 0.03479 0.85291 0.68884 0.0
H3420 H 0.89818 0.29299 0.39978 0.0
H3421 H 0.9521 0.3209 0.4406 0.0
H3422 H 0.91167 0.31348 0.36561 0.0
H3423 H 0.96598 0.34129 0.40611 0.0
H3424 H 0.96941 0.39295 0.34706 0.0
H3425 H 0.95383 0.37275 0.38056 0.0
H3426 H 0.94335 0.3149 0.33834 0.0
H3427 H 0.95854 0.33516 0.3047 0.0
C3428 C 0.91318 0.30324 0.40137 0.0
C3429 C 0.92413 0.3053 0.42288 0.0
C3430 C 0.92091 0.31502 0.38174 0.0
C3431 C 0.93982 0.32916 0.38311 0.0
C3432 C 0.95111 0.33084 0.40455 0.0
C3433 C 0.94334 0.31901 0.42425 0.0
C3434 C 0.96339 0.37607 0.34475 0.0
C3435 C 0.96529 0.36571 0.3231 0.0
C3436 C 0.95473 0.36438 0.36408 0.0
C3437 C 0.94769 0.34207 0.36224 0.0
C3438 C 0.94855 0.33209 0.34037 0.0
C3439 C 0.95723 0.34376 0.32103 0.0
H3440 H 0.4163 0.85356 0.29772 0.0
H3441 H 0.47347 0.83263 0.34151 0.0
H3442 H 0.3895 0.843 0.32873 0.0
H3443 H 0.44679 0.82215 0.37221 0.0
H3444 H 0.3975 0.82522 0.43133 0.0
H3445 H 0.4198 0.84134 0.39922 0.0
H3446 H 0.37635 0.80889 0.35021 0.0
H3447 H 0.35398 0.79305 0.38225 0.0
C3448 C 0.42315 0.84639 0.31377 0.0
C3449 C 0.44705 0.84397 0.31712 0.0
C3450 C 0.4078 0.8405 0.33157 0.0
C3451 C 0.41607 0.8322 0.35307 0.0
C3452 C 0.4399 0.82909 0.35608 0.0
C3453 C 0.45519 0.83486 0.33833 0.0
C3454 C 0.3923 0.82215 0.41369 0.0
C3455 C 0.37415 0.8078 0.40924 0.0
C3456 C 0.40521 0.83113 0.39531 0.0
C3457 C 0.40009 0.82598 0.37221 0.0
C3458 C 0.38072 0.81316 0.36779 0.0
C3459 C 0.36791 0.8041 0.38614 0.0
H3460 H 0.92381 0.6444 0.16606 0.0
H3461 H 0.98063 0.68867 0.15472 0.0
H3462 H 0.90767 0.65654 0.12831 0.0
H3463 H 0.96509 0.70047 0.11743 0.0
H3464 H 0.93114 0.72401 0.05272 0.0
H3465 H 0.93614 0.71885 0.09449 0.0
H3466 H 0.92089 0.64846 0.08888 0.0
H3467 H 0.91504 0.65393 0.04727 0.0
C3468 C 0.93236 0.65725 0.15585 0.0
C3469 C 0.95344 0.66556 0.16304 0.0
C3470 C 0.92335 0.664 0.13419 0.0
C3471 C 0.93526 0.67927 0.11972 0.0
C3472 C 0.95532 0.68887 0.12808 0.0
C3473 C 0.96431 0.68203 0.14945 0.0
C3474 C 0.92855 0.70752 0.06051 0.0
C3475 C 0.92247 0.68942 0.04686 0.0
C3476 C 0.93144 0.70455 0.08441 0.0
C3477 C 0.92876 0.68326 0.09508 0.0
C3478 C 0.92255 0.66518 0.08134 0.0
C3479 C 0.91949 0.66823 0.05745 0.0
H3480 H 0.11212 0.26763 0.88467 0.0
H3481 H 0.11002 0.19943 0.91184 0.0
H3482 H 0.10215 0.25457 0.84614 0.0
H3483 H 0.10064 0.18634 0.87315 0.0
H3484 H 0.09947 0.16774 0.79874 0.0
H3485 H 0.11891 0.18628 0.83019 0.0
H3486 H 0.06281 0.23498 0.83412 0.0
H3487 H 0.04307 0.21626 0.8029 0.0
C3488 C 0.10991 0.24981 0.88227 0.0
C3489 C 0.11166 0.23445 0.90109 0.0
C3490 C 0.10428 0.24241 0.86029 0.0
C3491 C 0.10089 0.21951 0.85681 0.0
C3492 C 0.10354 0.20406 0.87546 0.0
C3493 C 0.1087 0.21152 0.89753 0.0
C3494 C 0.09165 0.18285 0.80576 0.0
C3495 C 0.06965 0.19044 0.7987 0.0
C3496 C 0.10272 0.19333 0.82379 0.0
C3497 C 0.09215 0.21179 0.83458 0.0
C3498 C 0.07125 0.22076 0.82595 0.0
C3499 C 0.05997 0.21004 0.8082 0.0
H3500 H 0.56614 0.32507 0.69188 0.0
H3501 H 0.54961 0.38701 0.6545 0.0
H3502 H 0.57939 0.30825 0.65578 0.0
H3503 H 0.56106 0.37001 0.61847 0.0
H3504 H 0.57448 0.27489 0.58699 0.0
H3505 H 0.56312 0.29369 0.62251 0.0
H3506 H 0.58847 0.35629 0.59396 0.0
H3507 H 0.59798 0.33797 0.55813 0.0
C3508 C 0.56584 0.33521 0.67604 0.0
C3509 C 0.55677 0.35727 0.67594 0.0
C3510 C 0.57291 0.32546 0.65524 0.0
C3511 C 0.5707 0.33751 0.63398 0.0
C3512 C 0.56317 0.36013 0.63434 0.0
C3513 C 0.55658 0.36995 0.65511 0.0
C3514 C 0.57691 0.29282 0.58811 0.0
C3515 C 0.58725 0.30487 0.56979 0.0
C3516 C 0.57088 0.30353 0.60867 0.0
C3517 C 0.57545 0.32644 0.61149 0.0
C3518 C 0.58453 0.3387 0.59256 0.0
C3519 C 0.58999 0.32813 0.57185 0.0
H3520 H 0.07033 0.44358 0.23897 0.0
H3521 H 0.0819 0.37296 0.22605 0.0
H3522 H 0.10895 0.45133 0.225 0.0
H3523 H 0.12087 0.38064 0.21265 0.0
H3524 H 0.18017 0.41004 0.16677 0.0
H3525 H 0.14323 0.39797 0.18227 0.0
H3526 H 0.14797 0.44604 0.237 0.0
H3527 H 0.1845 0.45853 0.22104 0.0
C3528 C 0.08109 0.4297 0.23308 0.0
C3529 C 0.07299 0.40765 0.23367 0.0
C3530 C 0.10338 0.4341 0.22531 0.0
C3531 C 0.11827 0.41655 0.2181 0.0
C3532 C 0.10991 0.39457 0.21801 0.0
C3533 C 0.08751 0.39019 0.22566 0.0
C3534 C 0.17368 0.41749 0.18257 0.0
C3535 C 0.18521 0.43527 0.19268 0.0
C3536 C 0.15238 0.41068 0.19138 0.0
C3537 C 0.14229 0.42141 0.21057 0.0
C3538 C 0.15485 0.43788 0.22178 0.0
C3539 C 0.17598 0.4448 0.21286 0.0
H3540 H 0.27414 0.44513 0.9387 0.0
H3541 H 0.34093 0.45226 0.9065 0.0
H3542 H 0.286 0.40764 0.95362 0.0
H3543 H 0.35262 0.41512 0.92117 0.0
H3544 H 0.3743 0.36611 0.97982 0.0
H3545 H 0.3603 0.40098 0.96151 0.0
H3546 H 0.2987 0.36817 0.94003 0.0
H3547 H 0.31284 0.33293 0.95862 0.0
C3548 C 0.29125 0.43861 0.93476 0.0
C3549 C 0.30675 0.45157 0.92177 0.0
C3550 C 0.29796 0.4172 0.94311 0.0
C3551 C 0.32027 0.40866 0.93865 0.0
C3552 C 0.33545 0.42147 0.92513 0.0
C3553 C 0.32877 0.44273 0.91682 0.0
C3554 C 0.35787 0.36626 0.97101 0.0
C3555 C 0.34467 0.34691 0.97047 0.0
C3556 C 0.34989 0.38618 0.96049 0.0
C3557 C 0.32849 0.38718 0.9493 0.0
C3558 C 0.31523 0.36779 0.94865 0.0
C3559 C 0.32336 0.34768 0.95908 0.0
H3560 H 0.43676 0.5595 0.70679 0.0
H3561 H 0.42733 0.6171 0.66081 0.0
H3562 H 0.40081 0.54435 0.69348 0.0
H3563 H 0.3924 0.60108 0.64571 0.0
H3564 H 0.31678 0.59397 0.66014 0.0
H3565 H 0.35704 0.60158 0.6638 0.0
H3566 H 0.37273 0.53015 0.66916 0.0
H3567 H 0.33145 0.52273 0.66717 0.0
C3568 C 0.4276 0.56827 0.69283 0.0
C3569 C 0.43449 0.58957 0.68498 0.0
C3570 C 0.4069 0.5596 0.68519 0.0
C3571 C 0.39313 0.57192 0.66916 0.0
C3572 C 0.402 0.59163 0.65887 0.0
C3573 C 0.42222 0.60068 0.66715 0.0
C3574 C 0.32877 0.57984 0.66219 0.0
C3575 C 0.32103 0.55773 0.66309 0.0
C3576 C 0.35206 0.58417 0.66383 0.0
C3577 C 0.36846 0.56649 0.66607 0.0
C3578 C 0.36067 0.54422 0.66732 0.0
C3579 C 0.33708 0.53991 0.66608 0.0
H3580 H 0.15666 0.69924 0.45201 0.0
H3581 H 0.10831 0.65316 0.48264 0.0
H3582 H 0.17434 0.66831 0.43025 0.0
H3583 H 0.12592 0.62246 0.46136 0.0
H3584 H 0.21974 0.60258 0.43424 0.0
H3585 H 0.19797 0.6359 0.44606 0.0
H3586 H 0.13502 0.6061 0.42367 0.0
H3587 H 0.15665 0.5726 0.41219 0.0
C3588 C 0.14944 0.68266 0.45351 0.0
C3589 C 0.13142 0.67834 0.46906 0.0
C3590 C 0.15962 0.665 0.44129 0.0
C3591 C 0.15166 0.64301 0.44444 0.0
C3592 C 0.13233 0.63924 0.45851 0.0
C3593 C 0.12233 0.65677 0.47077 0.0
C3594 C 0.20124 0.60308 0.43197 0.0
C3595 C 0.18986 0.58486 0.42264 0.0
C3596 C 0.18885 0.62229 0.43838 0.0
C3597 C 0.16488 0.62362 0.4355 0.0
C3598 C 0.1535 0.60543 0.42611 0.0
C3599 C 0.16587 0.58619 0.41978 0.0
H3600 H 0.10328 0.5893 0.2646 0.0
H3601 H 0.07129 0.61249 0.32777 0.0
H3602 H 0.13594 0.57411 0.2867 0.0
H3603 H 0.10456 0.59757 0.35004 0.0
H3604 H 0.18629 0.59996 0.36411 0.0
H3605 H 0.14842 0.60985 0.34804 0.0
H3606 H 0.14445 0.54359 0.31956 0.0
H3607 H 0.18229 0.53357 0.3359 0.0
C3608 C 0.10322 0.59103 0.28327 0.0
C3609 C 0.08495 0.60217 0.29455 0.0
C3610 C 0.1218 0.58217 0.2959 0.0
C3611 C 0.12263 0.58464 0.32 0.0
C3612 C 0.10419 0.59548 0.33143 0.0
C3613 C 0.08527 0.60397 0.31877 0.0
C3614 C 0.17724 0.5875 0.35451 0.0
C3615 C 0.18724 0.56618 0.35079 0.0
C3616 C 0.15551 0.59306 0.34561 0.0
C3617 C 0.14367 0.57747 0.33257 0.0
C3618 C 0.15338 0.55588 0.3295 0.0
C3619 C 0.17496 0.55021 0.33873 0.0
H3620 H 0.11003 0.36923 0.03713 0.0
H3621 H 0.15317 0.32414 0.07856 0.0
H3622 H 0.12647 0.40118 0.05534 0.0
H3623 H 0.16862 0.35627 0.09845 0.0
H3624 H 0.21275 0.41722 0.10827 0.0
H3625 H 0.19417 0.38475 0.09239 0.0
H3626 H 0.13056 0.42385 0.086 0.0
H3627 H 0.14992 0.45659 0.10006 0.0
C3628 C 0.12256 0.36614 0.05076 0.0
C3629 C 0.13044 0.34422 0.05636 0.0
C3630 C 0.13198 0.38456 0.06137 0.0
C3631 C 0.14917 0.38154 0.07832 0.0
C3632 C 0.15593 0.3594 0.08501 0.0
C3633 C 0.14683 0.34091 0.07393 0.0
C3634 C 0.19491 0.41883 0.103 0.0
C3635 C 0.18284 0.43939 0.10492 0.0
C3636 C 0.18407 0.40013 0.09429 0.0
C3637 C 0.16069 0.40142 0.08795 0.0
C3638 C 0.14867 0.42216 0.09013 0.0
C3639 C 0.15972 0.441 0.09821 0.0
H3640 H 0.30705 0.41907 0.86348 0.0
H3641 H 0.32586 0.47695 0.82154 0.0
H3642 H 0.33409 0.39557 0.84173 0.0
H3643 H 0.35289 0.45322 0.79962 0.0
H3644 H 0.38383 0.39839 0.753 0.0
H3645 H 0.35207 0.41841 0.77238 0.0
H3646 H 0.3786 0.3958 0.83897 0.0
H3647 H 0.4105 0.37614 0.81966 0.0
C3648 C 0.31676 0.42672 0.84941 0.0
C3649 C 0.31439 0.44984 0.84416 0.0
C3650 C 0.33227 0.41327 0.83707 0.0
C3651 C 0.34544 0.42261 0.81902 0.0
C3652 C 0.34271 0.44562 0.81335 0.0
C3653 C 0.32743 0.45919 0.82597 0.0
C3654 C 0.38254 0.39732 0.77175 0.0
C3655 C 0.3995 0.38576 0.78492 0.0
C3656 C 0.36454 0.40891 0.78279 0.0
C3657 C 0.36306 0.40871 0.80711 0.0
C3658 C 0.37934 0.3961 0.82019 0.0
C3659 C 0.39754 0.38487 0.80917 0.0
H3660 H 0.34575 0.64221 0.49462 0.0
H3661 H 0.38439 0.66062 0.55468 0.0
H3662 H 0.33521 0.60719 0.51403 0.0
H3663 H 0.3729 0.62583 0.5748 0.0
H3664 H 0.34916 0.55749 0.60337 0.0
H3665 H 0.37072 0.5838 0.5786 0.0
H3666 H 0.30724 0.60537 0.54521 0.0
H3667 H 0.28611 0.57922 0.56936 0.0
C3668 C 0.35235 0.63845 0.51187 0.0
C3669 C 0.36551 0.65407 0.52341 0.0
C3670 C 0.34626 0.61849 0.52301 0.0
C3671 C 0.35269 0.61408 0.54615 0.0
C3672 C 0.3677 0.62879 0.55696 0.0
C3673 C 0.37421 0.64869 0.54553 0.0
C3674 C 0.34002 0.5676 0.59038 0.0
C3675 C 0.316 0.56638 0.58824 0.0
C3676 C 0.3523 0.5827 0.57635 0.0
C3677 C 0.34072 0.59649 0.55982 0.0
C3678 C 0.31679 0.59468 0.55741 0.0
C3679 C 0.3046 0.57984 0.57144 0.0
H3680 H 0.25047 0.1287 0.35325 0.0
H3681 H 0.20291 0.08782 0.39241 0.0
H3682 H 0.22932 0.16272 0.36545 0.0
H3683 H 0.18232 0.12175 0.40495 0.0
H3684 H 0.18593 0.1892 0.44821 0.0
H3685 H 0.20418 0.15601 0.43109 0.0
H3686 H 0.1807 0.17825 0.36329 0.0
H3687 H 0.16146 0.21112 0.38056 0.0
C3688 C 0.23534 0.12702 0.36414 0.0
C3689 C 0.22829 0.10577 0.37199 0.0
C3690 C 0.22331 0.14638 0.37104 0.0
C3691 C 0.20442 0.14459 0.38613 0.0
C3692 C 0.19692 0.12335 0.39331 0.0
C3693 C 0.20865 0.10404 0.38611 0.0
C3694 C 0.18444 0.18687 0.42972 0.0
C3695 C 0.17204 0.20241 0.41571 0.0
C3696 C 0.19492 0.16802 0.41996 0.0
C3697 C 0.19361 0.16476 0.39601 0.0
C3698 C 0.18182 0.18058 0.38183 0.0
C3699 C 0.17088 0.19925 0.39168 0.0
H3700 H 0.6395 0.33133 0.5512 0.0
H3701 H 0.70216 0.29947 0.57675 0.0
H3702 H 0.65116 0.36709 0.56561 0.0
H3703 H 0.71376 0.33576 0.5921 0.0
H3704 H 0.71183 0.39899 0.63735 0.0
H3705 H 0.69862 0.36324 0.62317 0.0
H3706 H 0.68264 0.39501 0.55694 0.0
H3707 H 0.69621 0.43084 0.57102 0.0
C3708 C 0.65602 0.332 0.55952 0.0
C3709 C 0.67017 0.31262 0.56227 0.0
C3710 C 0.6626 0.35256 0.56797 0.0
C3711 C 0.68339 0.35426 0.57983 0.0
C3712 C 0.69755 0.33485 0.58303 0.0
C3713 C 0.69101 0.31416 0.57421 0.0
C3714 C 0.70504 0.39848 0.61991 0.0
C3715 C 0.70501 0.41772 0.60527 0.0
C3716 C 0.69781 0.37793 0.61173 0.0
C3717 C 0.69005 0.37628 0.58886 0.0
C3718 C 0.68865 0.39582 0.57465 0.0
C3719 C 0.69619 0.41636 0.58275 0.0
H3720 H 0.47266 0.9461 0.32246 0.0
H3721 H 0.43594 0.90358 0.27639 0.0
H3722 H 0.43594 0.95992 0.3383 0.0
H3723 H 0.39968 0.91639 0.29268 0.0
H3724 H 0.33732 0.95925 0.31456 0.0
H3725 H 0.37297 0.94636 0.29643 0.0
H3726 H 0.40652 0.94508 0.36327 0.0
H3727 H 0.37097 0.95898 0.38117 0.0
C3728 C 0.45677 0.94005 0.31546 0.0
C3729 C 0.45711 0.92373 0.29832 0.0
C3730 C 0.43578 0.94763 0.32475 0.0
C3731 C 0.41489 0.93888 0.31709 0.0
C3732 C 0.41535 0.92358 0.29894 0.0
C3733 C 0.43621 0.91623 0.28957 0.0
C3734 C 0.35216 0.95565 0.32544 0.0
C3735 C 0.35149 0.96012 0.34922 0.0
C3736 C 0.37265 0.94839 0.31505 0.0
C3737 C 0.39275 0.94517 0.32833 0.0
C3738 C 0.39154 0.94809 0.35244 0.0
C3739 C 0.3711 0.95562 0.36277 0.0
H3740 H 0.77948 0.61417 0.12038 0.0
H3741 H 0.80972 0.56894 0.0707 0.0
H3742 H 0.80055 0.64536 0.10265 0.0
H3743 H 0.82889 0.59981 0.05171 0.0
H3744 H 0.87693 0.65155 0.03071 0.0
H3745 H 0.85868 0.62285 0.05402 0.0
H3746 H 0.8039 0.67035 0.07142 0.0
H3747 H 0.82424 0.69994 0.04993 0.0
C3748 C 0.79064 0.611 0.10564 0.0
C3749 C 0.79341 0.58923 0.09709 0.0
C3750 C 0.8025 0.62885 0.09529 0.0
C3751 C 0.81678 0.62523 0.07582 0.0
C3752 C 0.81892 0.60333 0.06716 0.0
C3753 C 0.80775 0.58553 0.07793 0.0
C3754 C 0.86115 0.65588 0.03981 0.0
C3755 C 0.85184 0.67775 0.03852 0.0
C3756 C 0.85041 0.63934 0.05295 0.0
C3757 C 0.82933 0.64392 0.06419 0.0
C3758 C 0.82016 0.66612 0.06318 0.0
C3759 C 0.83159 0.68304 0.05072 0.0
H3760 H 0.55348 0.61881 0.33949 0.0
H3761 H 0.56138 0.5809 0.27681 0.0
H3762 H 0.58824 0.6005 0.35533 0.0
H3763 H 0.59604 0.56209 0.29302 0.0
H3764 H 0.63229 0.51425 0.3493 0.0
H3765 H 0.59977 0.53489 0.33163 0.0
H3766 H 0.63336 0.59754 0.34305 0.0
H3767 H 0.66635 0.57681 0.36029 0.0
C3768 C 0.56271 0.60654 0.32914 0.0
C3769 C 0.55478 0.60098 0.30709 0.0
C3770 C 0.5826 0.59624 0.33813 0.0
C3771 C 0.59456 0.57991 0.32538 0.0
C3772 C 0.58689 0.5746 0.30314 0.0
C3773 C 0.56721 0.5853 0.2939 0.0
C3774 C 0.63265 0.53244 0.34821 0.0
C3775 C 0.65167 0.54404 0.35622 0.0
C3776 C 0.61421 0.54416 0.3379 0.0
C3777 C 0.61434 0.56767 0.33586 0.0
C3778 C 0.63305 0.57936 0.34443 0.0
C3779 C 0.65177 0.56758 0.35433 0.0
H3780 H 0.35693 0.80668 0.90172 0.0
H3781 H 0.34428 0.83712 0.96821 0.0
H3782 H 0.34087 0.84021 0.8822 0.0
H3783 H 0.32812 0.87046 0.94858 0.0
H3784 H 0.31976 0.93484 0.90681 0.0
H3785 H 0.34165 0.90207 0.92212 0.0
H3786 H 0.30172 0.85866 0.87976 0.0
H3787 H 0.28008 0.89121 0.86449 0.0
C3788 C 0.35045 0.82035 0.91219 0.0
C3789 C 0.3517 0.81918 0.93653 0.0
C3790 C 0.34143 0.83957 0.90098 0.0
C3791 C 0.33358 0.85794 0.91392 0.0
C3792 C 0.33452 0.85667 0.93822 0.0
C3793 C 0.34346 0.83744 0.94944 0.0
C3794 C 0.31613 0.91832 0.90043 0.0
C3795 C 0.29821 0.91536 0.88472 0.0
C3796 C 0.32846 0.89964 0.90928 0.0
C3797 C 0.32311 0.87791 0.90227 0.0
C3798 C 0.30623 0.87523 0.88535 0.0
C3799 C 0.29381 0.89382 0.87671 0.0
H3800 H 0.35101 0.03715 0.11449 0.0
H3801 H 0.37841 0.96937 0.12306 0.0
H3802 H 0.38806 0.05184 0.12491 0.0
H3803 H 0.41591 0.98411 0.13337 0.0
H3804 H 0.45666 0.02591 0.18986 0.0
H3805 H 0.42899 0.00423 0.16823 0.0
H3806 H 0.42823 0.05531 0.11368 0.0
H3807 H 0.45495 0.07721 0.13573 0.0
C3808 C 0.36518 0.02543 0.11811 0.0
C3809 C 0.36195 1.00222 0.1181 0.0
C3810 C 0.38647 0.03379 0.1239 0.0
C3811 C 0.40493 0.01908 0.12988 0.0
C3812 C 0.40195 0.99578 0.1289 0.0
C3813 C 0.38059 0.9874 0.12291 0.0
C3814 C 0.45107 0.03202 0.17291 0.0
C3815 C 0.45736 0.05329 0.16455 0.0
C3816 C 0.43533 0.01964 0.16048 0.0
C3817 C 0.42608 0.02841 0.13953 0.0
C3818 C 0.43466 0.04845 0.13004 0.0
C3819 C 0.44996 0.06092 0.1426 0.0
H3820 H 0.16702 0.93783 0.65067 0.0
H3821 H 0.13809 0.00543 0.64901 0.0
H3822 H 0.13013 0.92396 0.66595 0.0
H3823 H 0.10192 0.99177 0.66407 0.0
H3824 H 0.05588 0.96191 0.7222 0.0
H3825 H 0.09083 0.97488 0.70313 0.0
H3826 H 0.08646 0.92191 0.65353 0.0
H3827 H 0.0512 0.90894 0.67261 0.0
C3828 C 0.15284 0.94963 0.65347 0.0
C3829 C 0.15546 0.97268 0.64877 0.0
C3830 C 0.13176 0.94174 0.66204 0.0
C3831 C 0.11323 0.95686 0.66625 0.0
C3832 C 0.11593 0.97977 0.66121 0.0
C3833 C 0.1367 0.98756 0.65253 0.0
C3834 C 0.06207 0.95336 0.7069 0.0
C3835 C 0.05067 0.93463 0.6987 0.0
C3836 C 0.08213 0.96069 0.69606 0.0
C3837 C 0.09143 0.94927 0.67696 0.0
C3838 C 0.07975 0.93086 0.66835 0.0
C3839 C 0.0594 0.92371 0.67902 0.0
loop_
_geom_bond_atom_site_label_1
_geom_bond_atom_site_label_2
_geom_bond_distance
_geom_bond_site_symmetry_2
_ccdc_geom_bond_type
Dy0 O4 2.398 1_455 S
Dy0 O5 2.491 . S
Dy0 O6 2.403 1_455 S
Dy0 O7 2.664 . S
Dy0 O11 2.326 1_455 S
Dy0 O15 2.310 . S
Dy0 O16 2.351 . S
C1 O12 1.185 . S
C1 O13 1.355 . S
C2 O4 1.185 . S
C2 O5 1.355 1_655 S
Dy3 O7 2.310 . S
Dy3 O10 2.351 . S
Dy3 O12 2.398 . S
Dy3 O13 2.491 . S
Dy3 O14 2.403 . S
Dy3 O15 2.664 . S
Dy3 O17 2.326 . S
O4 Dy0 2.398 1_655 S
O4 C2 1.185 . S
O5 Dy0 2.491 . S
O5 C2 1.355 1_455 S
O6 Dy0 2.403 1_655 S
O6 C8 1.254 1_655 S
O7 Dy0 2.664 . S
O7 Dy3 2.310 . S
O7 C8 1.268 . S
C8 O6 1.254 1_455 S
C8 O7 1.268 . S
C9 O14 1.254 . S
C9 O15 1.268 . S
O10 Dy3 2.351 . S
O10 C18 1.249 1_455 S
O11 Dy0 2.326 1_655 S
O11 C18 1.267 . S
O12 C1 1.185 . S
O12 Dy3 2.398 . S
O13 C1 1.355 . S
O13 Dy3 2.491 . S
O14 Dy3 2.403 . S
O14 C9 1.254 . S
O15 Dy0 2.310 . S
O15 Dy3 2.664 . S
O15 C9 1.268 . S
O16 Dy0 2.351 . S
O16 C19 1.249 . S
O17 Dy3 2.326 . S
O17 C19 1.267 . S
C18 O10 1.249 1_655 S
C18 O11 1.267 . S
C19 O16 1.249 . S
C19 O17 1.267 . S
Dy20 O24 2.398 . S
Dy20 O25 2.491 . S
Dy20 O26 2.403 . S
Dy20 O27 2.664 . S
Dy20 O31 2.326 . S
Dy20 O35 2.310 . S
Dy20 O36 2.351 . S
C21 O32 1.185 . S
C21 O33 1.355 . S
C22 O24 1.185 . S
C22 O25 1.355 . S
Dy23 O27 2.310 . S
Dy23 O30 2.351 . S
Dy23 O32 2.398 . S
Dy23 O33 2.491 . S
Dy23 O34 2.403 . S
Dy23 O35 2.664 . S
Dy23 O37 2.326 . S
O24 Dy20 2.398 . S
O24 C22 1.185 . S
O25 Dy20 2.491 . S
O25 C22 1.355 . S
O26 Dy20 2.403 . S
O26 C28 1.254 . S
O27 Dy20 2.664 . S
O27 Dy23 2.310 . S
O27 C28 1.268 . S
C28 O26 1.254 . S
C28 O27 1.268 . S
C29 O34 1.254 . S
C29 O35 1.268 . S
O30 Dy23 2.351 . S
O30 C38 1.249 . S
O31 Dy20 2.326 . S
O31 C38 1.267 . S
O32 C21 1.185 . S
O32 Dy23 2.398 . S
O33 C21 1.355 . S
O33 Dy23 2.491 . S
O34 Dy23 2.403 . S
O34 C29 1.254 . S
O35 Dy20 2.310 . S
O35 Dy23 2.664 . S
O35 C29 1.268 . S
O36 Dy20 2.351 . S
O36 C39 1.249 . S
O37 Dy23 2.326 . S
O37 C39 1.267 . S
C38 O30 1.249 . S
C38 O31 1.267 . S
C39 O36 1.249 . S
C39 O37 1.267 . S
Dy40 O44 2.398 . S
Dy40 O45 2.491 . S
Dy40 O46 2.403 . S
Dy40 O47 2.664 . S
Dy40 O51 2.326 . S
Dy40 O55 2.310 . S
Dy40 O56 2.351 . S
C41 O52 1.185 . S
C41 O53 1.355 . S
C42 O44 1.185 . S
C42 O45 1.355 . S
Dy43 O47 2.310 . S
Dy43 O50 2.351 . S
Dy43 O52 2.398 . S
Dy43 O53 2.491 . S
Dy43 O54 2.403 . S
Dy43 O55 2.664 . S
Dy43 O57 2.326 . S
O44 Dy40 2.398 . S
O44 C42 1.185 . S
O45 Dy40 2.491 . S
O45 C42 1.355 . S
O46 Dy40 2.403 . S
O46 C48 1.254 . S
O47 Dy40 2.664 . S
O47 Dy43 2.310 . S
O47 C48 1.268 . S
C48 O46 1.254 . S
C48 O47 1.268 . S
C49 O54 1.254 . S
C49 O55 1.268 . S
O50 Dy43 2.351 . S
O50 C58 1.249 . S
O51 Dy40 2.326 . S
O51 C58 1.267 . S
O52 C41 1.185 . S
O52 Dy43 2.398 . S
O53 C41 1.355 . S
O53 Dy43 2.491 . S
O54 Dy43 2.403 . S
O54 C49 1.254 . S
O55 Dy40 2.310 . S
O55 Dy43 2.664 . S
O55 C49 1.268 . S
O56 Dy40 2.351 . S
O56 C59 1.249 . S
O57 Dy43 2.326 . S
O57 C59 1.267 . S
C58 O50 1.249 . S
C58 O51 1.267 . S
C59 O56 1.249 . S
C59 O57 1.267 . S
Dy60 O64 2.398 . S
Dy60 O65 2.491 . S
Dy60 O66 2.403 . S
Dy60 O67 2.664 . S
Dy60 O71 2.326 . S
Dy60 O75 2.310 . S
Dy60 O76 2.351 . S
C61 O72 1.185 . S
C61 O73 1.355 . S
C62 O64 1.185 . S
C62 O65 1.355 . S
Dy63 O67 2.310 . S
Dy63 O70 2.351 . S
Dy63 O72 2.398 . S
Dy63 O73 2.491 . S
Dy63 O74 2.403 . S
Dy63 O75 2.664 . S
Dy63 O77 2.326 . S
O64 Dy60 2.398 . S
O64 C62 1.185 . S
O65 Dy60 2.491 . S
O65 C62 1.355 . S
O66 Dy60 2.403 . S
O66 C68 1.254 . S
O67 Dy60 2.664 . S
O67 Dy63 2.310 . S
O67 C68 1.268 . S
C68 O66 1.254 . S
C68 O67 1.268 . S
C69 O74 1.254 . S
C69 O75 1.268 . S
O70 Dy63 2.351 . S
O70 C78 1.249 . S
O71 Dy60 2.326 . S
O71 C78 1.267 . S
O72 C61 1.185 . S
O72 Dy63 2.398 . S
O73 C61 1.355 . S
O73 Dy63 2.491 . S
O74 Dy63 2.403 . S
O74 C69 1.254 . S
O75 Dy60 2.310 . S
O75 Dy63 2.664 . S
O75 C69 1.268 . S
O76 Dy60 2.351 . S
O76 C79 1.249 . S
O77 Dy63 2.326 . S
O77 C79 1.267 . S
C78 O70 1.249 . S
C78 O71 1.267 . S
C79 O76 1.249 . S
C79 O77 1.267 . S
Dy80 O84 2.413 . S
Dy80 O85 2.512 . S
Dy80 O86 2.372 1_655 S
Dy80 O87 2.619 1_655 S
Dy80 O91 2.290 1_655 S
Dy80 O95 2.297 1_655 S
Dy80 O96 2.355 . S
C81 O92 1.185 . S
C81 O93 1.355 . S
C82 O84 1.185 . S
C82 O85 1.355 . S
Dy83 O87 2.310 . S
Dy83 O90 2.351 . S
Dy83 O92 2.398 . S
Dy83 O93 2.491 . S
Dy83 O94 2.403 . S
Dy83 O95 2.664 . S
Dy83 O97 2.326 . S
O84 Dy80 2.413 . S
O84 C82 1.185 . S
O85 Dy80 2.512 . S
O85 C82 1.355 . S
O86 Dy80 2.372 1_455 S
O86 C88 1.254 . S
O87 Dy80 2.619 1_455 S
O87 Dy83 2.310 . S
O87 C88 1.268 . S
C88 O86 1.254 . S
C88 O87 1.268 . S
C89 O94 1.254 . S
C89 O95 1.268 . S
O90 Dy83 2.351 . S
O90 C98 1.249 . S
O91 Dy80 2.290 1_455 S
O91 C98 1.267 . S
O92 C81 1.185 . S
O92 Dy83 2.398 . S
O93 C81 1.355 . S
O93 Dy83 2.491 . S
O94 Dy83 2.403 . S
O94 C89 1.254 . S
O95 Dy80 2.297 1_455 S
O95 Dy83 2.664 . S
O95 C89 1.268 . S
O96 Dy80 2.355 . S
O96 C99 1.249 1_655 S
O97 Dy83 2.326 . S
O97 C99 1.267 . S
C98 O90 1.249 . S
C98 O91 1.267 . S
C99 O96 1.249 1_455 S
C99 O97 1.267 . S
Dy100 O104 2.398 . S
Dy100 O105 2.491 . S
Dy100 O106 2.403 . S
Dy100 O107 2.664 . S
Dy100 O111 2.326 . S
Dy100 O115 2.310 . S
Dy100 O116 2.351 . S
C101 O112 1.185 . S
C101 O113 1.355 . S
C102 O104 1.185 . S
C102 O105 1.355 . S
Dy103 O107 2.310 . S
Dy103 O110 2.351 . S
Dy103 O112 2.398 . S
Dy103 O113 2.491 . S
Dy103 O114 2.403 . S
Dy103 O115 2.664 . S
Dy103 O117 2.326 . S
O104 Dy100 2.398 . S
O104 C102 1.185 . S
O105 Dy100 2.491 . S
O105 C102 1.355 . S
O106 Dy100 2.403 . S
O106 C108 1.254 . S
O107 Dy100 2.664 . S
O107 Dy103 2.310 . S
O107 C108 1.268 . S
C108 O106 1.254 . S
C108 O107 1.268 . S
C109 O114 1.254 . S
C109 O115 1.268 . S
O110 Dy103 2.351 . S
O110 C118 1.249 . S
O111 Dy100 2.326 . S
O111 C118 1.267 . S
O112 C101 1.185 . S
O112 Dy103 2.398 . S
O113 C101 1.355 . S
O113 Dy103 2.491 . S
O114 Dy103 2.403 . S
O114 C109 1.254 . S
O115 Dy100 2.310 . S
O115 Dy103 2.664 . S
O115 C109 1.268 . S
O116 Dy100 2.351 . S
O116 C119 1.249 . S
O117 Dy103 2.326 . S
O117 C119 1.267 . S
C118 O110 1.249 . S
C118 O111 1.267 . S
C119 O116 1.249 . S
C119 O117 1.267 . S
Dy120 O124 2.398 . S
Dy120 O125 2.491 . S
Dy120 O126 2.403 . S
Dy120 O127 2.664 . S
Dy120 O131 2.326 . S
Dy120 O135 2.310 . S
Dy120 O136 2.351 . S
C121 O132 1.185 . S
C121 O133 1.355 . S
C122 O124 1.185 . S
C122 O125 1.355 . S
Dy123 O127 2.310 . S
Dy123 O130 2.351 . S
Dy123 O132 2.398 . S
Dy123 O133 2.491 . S
Dy123 O134 2.403 . S
Dy123 O135 2.664 . S
Dy123 O137 2.326 . S
O124 Dy120 2.398 . S
O124 C122 1.185 . S
O125 Dy120 2.491 . S
O125 C122 1.355 . S
O126 Dy120 2.403 . S
O126 C128 1.254 . S
O127 Dy120 2.664 . S
O127 Dy123 2.310 . S
O127 C128 1.268 . S
C128 O126 1.254 . S
C128 O127 1.268 . S
C129 O134 1.254 . S
C129 O135 1.268 . S
O130 Dy123 2.351 . S
O130 C138 1.249 . S
O131 Dy120 2.326 . S
O131 C138 1.267 . S
O132 C121 1.185 . S
O132 Dy123 2.398 . S
O133 C121 1.355 . S
O133 Dy123 2.491 . S
O134 Dy123 2.403 . S
O134 C129 1.254 . S
O135 Dy120 2.310 . S
O135 Dy123 2.664 . S
O135 C129 1.268 . S
O136 Dy120 2.351 . S
O136 C139 1.249 . S
O137 Dy123 2.326 . S
O137 C139 1.267 . S
C138 O130 1.249 . S
C138 O131 1.267 . S
C139 O136 1.249 . S
C139 O137 1.267 . S
Dy140 O144 2.398 . S
Dy140 O145 2.491 . S
Dy140 O146 2.403 . S
Dy140 O147 2.664 . S
Dy140 O151 2.326 . S
Dy140 O155 2.310 . S
Dy140 O156 2.351 . S
C141 O152 1.185 . S
C141 O153 1.355 . S
C142 O144 1.185 . S
C142 O145 1.355 . S
Dy143 O147 2.292 1_554 S
Dy143 O150 2.331 1_554 S
Dy143 O152 2.421 . S
Dy143 O153 2.502 . S
Dy143 O154 2.414 . S
Dy143 O155 2.657 1_554 S
Dy143 O157 2.337 . S
O144 Dy140 2.398 . S
O144 C142 1.185 . S
O145 Dy140 2.491 . S
O145 C142 1.355 . S
O146 Dy140 2.403 . S
O146 C148 1.254 . S
O147 Dy140 2.664 . S
O147 Dy143 2.292 1_556 S
O147 C148 1.268 . S
C148 O146 1.254 . S
C148 O147 1.268 . S
C149 O154 1.254 . S
C149 O155 1.268 1_554 S
O150 Dy143 2.331 1_556 S
O150 C158 1.249 . S
O151 Dy140 2.326 . S
O151 C158 1.267 . S
O152 C141 1.185 . S
O152 Dy143 2.421 . S
O153 C141 1.355 . S
O153 Dy143 2.502 . S
O154 Dy143 2.414 . S
O154 C149 1.254 . S
O155 Dy140 2.310 . S
O155 Dy143 2.657 1_556 S
O155 C149 1.268 1_556 S
O156 Dy140 2.351 . S
O156 C159 1.249 1_556 S
O157 Dy143 2.337 . S
O157 C159 1.267 . S
C158 O150 1.249 . S
C158 O151 1.267 . S
C159 O156 1.249 1_554 S
C159 O157 1.267 . S
Dy160 O164 2.398 . S
Dy160 O165 2.469 1_545 S
Dy160 O166 2.403 . S
Dy160 O167 2.664 . S
Dy160 O171 2.326 . S
Dy160 O175 2.310 . S
Dy160 O176 2.351 . S
C161 O172 1.185 . S
C161 O173 1.355 . S
C162 O164 1.185 1_565 S
C162 O165 1.359 . S
Dy163 O167 2.310 . S
Dy163 O170 2.351 . S
Dy163 O172 2.398 . S
Dy163 O173 2.491 . S
Dy163 O174 2.403 . S
Dy163 O175 2.664 . S
Dy163 O177 2.326 . S
O164 Dy160 2.398 . S
O164 C162 1.185 1_545 S
O165 Dy160 2.469 1_565 S
O165 C162 1.359 . S
O166 Dy160 2.403 . S
O166 C168 1.254 . S
O167 Dy160 2.664 . S
O167 Dy163 2.310 . S
O167 C168 1.268 . S
C168 O166 1.254 . S
C168 O167 1.268 . S
C169 O174 1.254 . S
C169 O175 1.268 . S
O170 Dy163 2.351 . S
O170 C178 1.249 . S
O171 Dy160 2.326 . S
O171 C178 1.267 . S
O172 C161 1.185 . S
O172 Dy163 2.398 . S
O173 C161 1.355 . S
O173 Dy163 2.491 . S
O174 Dy163 2.403 . S
O174 C169 1.254 . S
O175 Dy160 2.310 . S
O175 Dy163 2.664 . S
O175 C169 1.268 . S
O176 Dy160 2.351 . S
O176 C179 1.249 . S
O177 Dy163 2.326 . S
O177 C179 1.267 . S
C178 O170 1.249 . S
C178 O171 1.267 . S
C179 O176 1.249 . S
C179 O177 1.267 . S
Dy180 O184 2.398 . S
Dy180 O185 2.491 . S
Dy180 O186 2.403 . S
Dy180 O187 2.664 . S
Dy180 O191 2.326 . S
Dy180 O195 2.310 . S
Dy180 O196 2.351 . S
C181 O192 1.185 . S
C181 O193 1.355 . S
C182 O184 1.185 . S
C182 O185 1.355 . S
Dy183 O187 2.310 . S
Dy183 O190 2.351 . S
Dy183 O192 2.398 . S
Dy183 O193 2.491 . S
Dy183 O194 2.403 . S
Dy183 O195 2.664 . S
Dy183 O197 2.326 . S
O184 Dy180 2.398 . S
O184 C182 1.185 . S
O185 Dy180 2.491 . S
O185 C182 1.355 . S
O186 Dy180 2.403 . S
O186 C188 1.254 . S
O187 Dy180 2.664 . S
O187 Dy183 2.310 . S
O187 C188 1.268 . S
C188 O186 1.254 . S
C188 O187 1.268 . S
C189 O194 1.254 . S
C189 O195 1.268 . S
O190 Dy183 2.351 . S
O190 C198 1.249 . S
O191 Dy180 2.326 . S
O191 C198 1.267 . S
O192 C181 1.185 . S
O192 Dy183 2.398 . S
O193 C181 1.355 . S
O193 Dy183 2.491 . S
O194 Dy183 2.403 . S
O194 C189 1.254 . S
O195 Dy180 2.310 . S
O195 Dy183 2.664 . S
O195 C189 1.268 . S
O196 Dy180 2.351 . S
O196 C199 1.249 . S
O197 Dy183 2.326 . S
O197 C199 1.267 . S
C198 O190 1.249 . S
C198 O191 1.267 . S
C199 O196 1.249 . S
C199 O197 1.267 . S
Dy200 O204 2.398 . S
Dy200 O205 2.491 . S
Dy200 O206 2.403 . S
Dy200 O207 2.664 . S
Dy200 O211 2.326 . S
Dy200 O215 2.310 . S
Dy200 O216 2.351 . S
C201 O212 1.185 . S
C201 O213 1.355 . S
C202 O204 1.185 . S
C202 O205 1.355 . S
Dy203 O207 2.310 1_545 S
Dy203 O210 2.351 1_545 S
Dy203 O212 2.398 . S
Dy203 O213 2.491 . S
Dy203 O214 2.403 . S
Dy203 O215 2.664 1_545 S
Dy203 O217 2.326 . S
O204 Dy200 2.398 . S
O204 C202 1.185 . S
O205 Dy200 2.491 . S
O205 C202 1.355 . S
O206 Dy200 2.403 . S
O206 C208 1.254 . S
O207 Dy200 2.664 . S
O207 Dy203 2.310 1_565 S
O207 C208 1.268 . S
C208 O206 1.254 . S
C208 O207 1.268 . S
C209 O214 1.254 . S
C209 O215 1.268 1_545 S
O210 Dy203 2.351 1_565 S
O210 C218 1.249 . S
O211 Dy200 2.326 . S
O211 C218 1.267 . S
O212 C201 1.185 . S
O212 Dy203 2.398 . S
O213 C201 1.355 . S
O213 Dy203 2.491 . S
O214 Dy203 2.403 . S
O214 C209 1.254 . S
O215 Dy200 2.310 . S
O215 Dy203 2.664 1_565 S
O215 C209 1.268 1_565 S
O216 Dy200 2.351 . S
O216 C219 1.249 1_565 S
O217 Dy203 2.326 . S
O217 C219 1.267 . S
C218 O210 1.249 . S
C218 O211 1.267 . S
C219 O216 1.249 1_545 S
C219 O217 1.267 . S
Dy220 O224 2.398 . S
Dy220 O225 2.491 . S
Dy220 O226 2.403 . S
Dy220 O227 2.664 . S
Dy220 O231 2.326 . S
Dy220 O235 2.310 . S
Dy220 O236 2.351 . S
C221 O232 1.185 . S
C221 O233 1.355 . S
C222 O224 1.185 . S
C222 O225 1.355 . S
Dy223 O227 2.310 . S
Dy223 O230 2.351 . S
Dy223 O232 2.398 1_565 S
Dy223 O233 2.491 1_565 S
Dy223 O234 2.403 1_565 S
Dy223 O235 2.664 . S
Dy223 O237 2.326 1_565 S
O224 Dy220 2.398 . S
O224 C222 1.185 . S
O225 Dy220 2.491 . S
O225 C222 1.355 . S
O226 Dy220 2.403 . S
O226 C228 1.254 . S
O227 Dy220 2.664 . S
O227 Dy223 2.310 . S
O227 C228 1.268 . S
C228 O226 1.254 . S
C228 O227 1.268 . S
C229 O234 1.254 1_565 S
C229 O235 1.268 . S
O230 Dy223 2.351 . S
O230 C238 1.249 . S
O231 Dy220 2.326 . S
O231 C238 1.267 . S
O232 C221 1.185 . S
O232 Dy223 2.398 1_545 S
O233 C221 1.355 . S
O233 Dy223 2.491 1_545 S
O234 Dy223 2.403 1_545 S
O234 C229 1.254 1_545 S
O235 Dy220 2.310 . S
O235 Dy223 2.664 . S
O235 C229 1.268 . S
O236 Dy220 2.351 . S
O236 C239 1.249 . S
O237 Dy223 2.326 1_545 S
O237 C239 1.267 1_545 S
C238 O230 1.249 . S
C238 O231 1.267 . S
C239 O236 1.249 . S
C239 O237 1.267 1_565 S
Dy240 O244 2.398 . S
Dy240 O245 2.491 . S
Dy240 O246 2.403 . S
Dy240 O247 2.664 . S
Dy240 O251 2.326 . S
Dy240 O255 2.310 . S
Dy240 O256 2.351 . S
C241 O252 1.185 . S
C241 O253 1.355 1_556 S
C242 O244 1.185 . S
C242 O245 1.355 . S
Dy243 O247 2.310 . S
Dy243 O250 2.351 . S
Dy243 O252 2.398 1_554 S
Dy243 O253 2.491 . S
Dy243 O254 2.403 . S
Dy243 O255 2.664 . S
Dy243 O257 2.326 . S
O244 Dy240 2.398 . S
O244 C242 1.185 . S
O245 Dy240 2.491 . S
O245 C242 1.355 . S
O246 Dy240 2.403 . S
O246 C248 1.254 . S
O247 Dy240 2.664 . S
O247 Dy243 2.310 . S
O247 C248 1.268 . S
C248 O246 1.254 . S
C248 O247 1.268 . S
C249 O254 1.254 . S
C249 O255 1.268 . S
O250 Dy243 2.351 . S
O250 C258 1.249 . S
O251 Dy240 2.326 . S
O251 C258 1.267 . S
O252 C241 1.185 . S
O252 Dy243 2.398 1_556 S
O253 C241 1.355 1_554 S
O253 Dy243 2.491 . S
O254 Dy243 2.403 . S
O254 C249 1.254 . S
O255 Dy240 2.310 . S
O255 Dy243 2.664 . S
O255 C249 1.268 . S
O256 Dy240 2.351 . S
O256 C259 1.249 . S
O257 Dy243 2.326 . S
O257 C259 1.267 . S
C258 O250 1.249 . S
C258 O251 1.267 . S
C259 O256 1.249 . S
C259 O257 1.267 . S
Dy260 O264 2.398 . S
Dy260 O265 2.491 . S
Dy260 O266 2.403 1_455 S
Dy260 O267 2.664 1_455 S
Dy260 O271 2.326 1_455 S
Dy260 O275 2.310 1_455 S
Dy260 O276 2.351 . S
C261 O272 1.185 . S
C261 O273 1.355 . S
C262 O264 1.185 . S
C262 O265 1.355 . S
Dy263 O267 2.310 . S
Dy263 O270 2.351 . S
Dy263 O272 2.398 . S
Dy263 O273 2.491 . S
Dy263 O274 2.403 . S
Dy263 O275 2.664 . S
Dy263 O277 2.326 . S
O264 Dy260 2.398 . S
O264 C262 1.185 . S
O265 Dy260 2.491 . S
O265 C262 1.355 . S
O266 Dy260 2.403 1_655 S
O266 C268 1.254 . S
O267 Dy260 2.664 1_655 S
O267 Dy263 2.310 . S
O267 C268 1.268 . S
C268 O266 1.254 . S
C268 O267 1.268 . S
C269 O274 1.254 . S
C269 O275 1.268 . S
O270 Dy263 2.351 . S
O270 C278 1.249 . S
O271 Dy260 2.326 1_655 S
O271 C278 1.267 . S
O272 C261 1.185 . S
O272 Dy263 2.398 . S
O273 C261 1.355 . S
O273 Dy263 2.491 . S
O274 Dy263 2.403 . S
O274 C269 1.254 . S
O275 Dy260 2.310 1_655 S
O275 Dy263 2.664 . S
O275 C269 1.268 . S
O276 Dy260 2.351 . S
O276 C279 1.249 1_455 S
O277 Dy263 2.326 . S
O277 C279 1.267 . S
C278 O270 1.249 . S
C278 O271 1.267 . S
C279 O276 1.249 1_655 S
C279 O277 1.267 . S
Dy280 O284 2.398 . S
Dy280 O285 2.491 . S
Dy280 O286 2.403 . S
Dy280 O287 2.664 . S
Dy280 O291 2.326 . S
Dy280 O295 2.310 . S
Dy280 O296 2.351 . S
C281 O292 1.185 . S
C281 O293 1.355 . S
C282 O284 1.185 . S
C282 O285 1.355 . S
Dy283 O287 2.310 . S
Dy283 O290 2.351 . S
Dy283 O292 2.398 . S
Dy283 O293 2.491 . S
Dy283 O294 2.403 . S
Dy283 O295 2.664 . S
Dy283 O297 2.326 . S
O284 Dy280 2.398 . S
O284 C282 1.185 . S
O285 Dy280 2.491 . S
O285 C282 1.355 . S
O286 Dy280 2.403 . S
O286 C288 1.254 . S
O287 Dy280 2.664 . S
O287 Dy283 2.310 . S
O287 C288 1.268 . S
C288 O286 1.254 . S
C288 O287 1.268 . S
C289 O294 1.254 . S
C289 O295 1.268 . S
O290 Dy283 2.351 . S
O290 C298 1.249 . S
O291 Dy280 2.326 . S
O291 C298 1.267 . S
O292 C281 1.185 . S
O292 Dy283 2.398 . S
O293 C281 1.355 . S
O293 Dy283 2.491 . S
O294 Dy283 2.403 . S
O294 C289 1.254 . S
O295 Dy280 2.310 . S
O295 Dy283 2.664 . S
O295 C289 1.268 . S
O296 Dy280 2.351 . S
O296 C299 1.249 . S
O297 Dy283 2.326 . S
O297 C299 1.267 . S
C298 O290 1.249 . S
C298 O291 1.267 . S
C299 O296 1.249 . S
C299 O297 1.267 . S
Dy300 O304 2.398 . S
Dy300 O305 2.491 . S
Dy300 O306 2.403 . S
Dy300 O307 2.664 . S
Dy300 O311 2.326 . S
Dy300 O315 2.310 . S
Dy300 O316 2.351 . S
C301 O312 1.185 . S
C301 O313 1.355 1_455 S
C302 O304 1.185 . S
C302 O305 1.355 . S
Dy303 O307 2.310 . S
Dy303 O310 2.351 . S
Dy303 O312 2.398 1_655 S
Dy303 O313 2.491 . S
Dy303 O314 2.403 1_655 S
Dy303 O315 2.664 . S
Dy303 O317 2.326 1_655 S
O304 Dy300 2.398 . S
O304 C302 1.185 . S
O305 Dy300 2.491 . S
O305 C302 1.355 . S
O306 Dy300 2.403 . S
O306 C308 1.254 . S
O307 Dy300 2.664 . S
O307 Dy303 2.310 . S
O307 C308 1.268 . S
C308 O306 1.254 . S
C308 O307 1.268 . S
C309 O314 1.254 1_655 S
C309 O315 1.268 . S
O310 Dy303 2.351 . S
O310 C318 1.249 . S
O311 Dy300 2.326 . S
O311 C318 1.267 . S
O312 C301 1.185 . S
O312 Dy303 2.398 1_455 S
O313 C301 1.355 1_655 S
O313 Dy303 2.491 . S
O314 Dy303 2.403 1_455 S
O314 C309 1.254 1_455 S
O315 Dy300 2.310 . S
O315 Dy303 2.664 . S
O315 C309 1.268 . S
O316 Dy300 2.351 . S
O316 C319 1.249 1_655 S
O317 Dy303 2.326 1_455 S
O317 C319 1.267 . S
C318 O310 1.249 . S
C318 O311 1.267 . S
C319 O316 1.249 1_455 S
C319 O317 1.267 . S
Dy320 O324 2.398 . S
Dy320 O325 2.491 . S
Dy320 O326 2.403 . S
Dy320 O327 2.664 . S
Dy320 O331 2.326 . S
Dy320 O335 2.310 . S
Dy320 O336 2.351 . S
C321 O332 1.185 . S
C321 O333 1.355 . S
C322 O324 1.185 . S
C322 O325 1.355 . S
Dy323 O327 2.310 . S
Dy323 O330 2.351 . S
Dy323 O332 2.398 . S
Dy323 O333 2.491 . S
Dy323 O334 2.403 . S
Dy323 O335 2.664 . S
Dy323 O337 2.326 . S
O324 Dy320 2.398 . S
O324 C322 1.185 . S
O325 Dy320 2.491 . S
O325 C322 1.355 . S
O326 Dy320 2.403 . S
O326 C328 1.254 . S
O327 Dy320 2.664 . S
O327 Dy323 2.310 . S
O327 C328 1.268 . S
C328 O326 1.254 . S
C328 O327 1.268 . S
C329 O334 1.254 . S
C329 O335 1.268 . S
O330 Dy323 2.351 . S
O330 C338 1.249 . S
O331 Dy320 2.326 . S
O331 C338 1.267 . S
O332 C321 1.185 . S
O332 Dy323 2.398 . S
O333 C321 1.355 . S
O333 Dy323 2.491 . S
O334 Dy323 2.403 . S
O334 C329 1.254 . S
O335 Dy320 2.310 . S
O335 Dy323 2.664 . S
O335 C329 1.268 . S
O336 Dy320 2.351 . S
O336 C339 1.249 . S
O337 Dy323 2.326 . S
O337 C339 1.267 . S
C338 O330 1.249 . S
C338 O331 1.267 . S
C339 O336 1.249 . S
C339 O337 1.267 . S
Dy340 O344 2.398 . S
Dy340 O345 2.491 . S
Dy340 O346 2.403 . S
Dy340 O347 2.664 . S
Dy340 O351 2.326 . S
Dy340 O355 2.310 . S
Dy340 O356 2.351 . S
C341 O352 1.185 . S
C341 O353 1.355 . S
C342 O344 1.185 . S
C342 O345 1.355 . S
Dy343 O347 2.310 . S
Dy343 O350 2.351 . S
Dy343 O352 2.398 . S
Dy343 O353 2.491 . S
Dy343 O354 2.403 . S
Dy343 O355 2.664 . S
Dy343 O357 2.326 . S
O344 Dy340 2.398 . S
O344 C342 1.185 . S
O345 Dy340 2.491 . S
O345 C342 1.355 . S
O346 Dy340 2.403 . S
O346 C348 1.254 . S
O347 Dy340 2.664 . S
O347 Dy343 2.310 . S
O347 C348 1.268 . S
C348 O346 1.254 . S
C348 O347 1.268 . S
C349 O354 1.254 . S
C349 O355 1.268 . S
O350 Dy343 2.351 . S
O350 C358 1.249 . S
O351 Dy340 2.326 . S
O351 C358 1.267 . S
O352 C341 1.185 . S
O352 Dy343 2.398 . S
O353 C341 1.355 . S
O353 Dy343 2.491 . S
O354 Dy343 2.403 . S
O354 C349 1.254 . S
O355 Dy340 2.310 . S
O355 Dy343 2.664 . S
O355 C349 1.268 . S
O356 Dy340 2.351 . S
O356 C359 1.249 . S
O357 Dy343 2.326 . S
O357 C359 1.267 . S
C358 O350 1.249 . S
C358 O351 1.267 . S
C359 O356 1.249 . S
C359 O357 1.267 . S
Dy360 O364 2.398 . S
Dy360 O365 2.491 . S
Dy360 O366 2.403 . S
Dy360 O367 2.664 . S
Dy360 O371 2.326 . S
Dy360 O375 2.310 . S
Dy360 O376 2.351 . S
C361 O372 1.185 . S
C361 O373 1.355 . S
C362 O364 1.185 . S
C362 O365 1.355 . S
Dy363 O367 2.310 . S
Dy363 O370 2.351 . S
Dy363 O372 2.398 . S
Dy363 O373 2.491 . S
Dy363 O374 2.403 . S
Dy363 O375 2.664 . S
Dy363 O377 2.326 . S
O364 Dy360 2.398 . S
O364 C362 1.185 . S
O365 Dy360 2.491 . S
O365 C362 1.355 . S
O366 Dy360 2.403 . S
O366 C368 1.254 . S
O367 Dy360 2.664 . S
O367 Dy363 2.310 . S
O367 C368 1.268 . S
C368 O366 1.254 . S
C368 O367 1.268 . S
C369 O374 1.254 . S
C369 O375 1.268 . S
O370 Dy363 2.351 . S
O370 C378 1.249 . S
O371 Dy360 2.326 . S
O371 C378 1.267 . S
O372 C361 1.185 . S
O372 Dy363 2.398 . S
O373 C361 1.355 . S
O373 Dy363 2.491 . S
O374 Dy363 2.403 . S
O374 C369 1.254 . S
O375 Dy360 2.310 . S
O375 Dy363 2.664 . S
O375 C369 1.268 . S
O376 Dy360 2.351 . S
O376 C379 1.249 . S
O377 Dy363 2.326 . S
O377 C379 1.267 . S
C378 O370 1.249 . S
C378 O371 1.267 . S
C379 O376 1.249 . S
C379 O377 1.267 . S
Dy380 O384 2.398 . S
Dy380 O385 2.491 . S
Dy380 O386 2.403 . S
Dy380 O387 2.664 . S
Dy380 O391 2.326 . S
Dy380 O395 2.310 . S
Dy380 O396 2.351 . S
C381 O392 1.185 . S
C381 O393 1.355 . S
C382 O384 1.185 . S
C382 O385 1.355 . S
Dy383 O387 2.297 1_455 S
Dy383 O390 2.355 . S
Dy383 O392 2.413 . S
Dy383 O393 2.512 . S
Dy383 O394 2.372 1_455 S
Dy383 O395 2.619 1_455 S
Dy383 O397 2.290 1_455 S
O384 Dy380 2.398 . S
O384 C382 1.185 . S
O385 Dy380 2.491 . S
O385 C382 1.355 . S
O386 Dy380 2.403 . S
O386 C388 1.254 . S
O387 Dy380 2.664 . S
O387 Dy383 2.297 1_655 S
O387 C388 1.268 . S
C388 O386 1.254 . S
C388 O387 1.268 . S
C389 O394 1.254 . S
C389 O395 1.268 . S
O390 Dy383 2.355 . S
O390 C398 1.249 1_455 S
O391 Dy380 2.326 . S
O391 C398 1.267 . S
O392 C381 1.185 . S
O392 Dy383 2.413 . S
O393 C381 1.355 . S
O393 Dy383 2.512 . S
O394 Dy383 2.372 1_655 S
O394 C389 1.254 . S
O395 Dy380 2.310 . S
O395 Dy383 2.619 1_655 S
O395 C389 1.268 . S
O396 Dy380 2.351 . S
O396 C399 1.249 . S
O397 Dy383 2.290 1_655 S
O397 C399 1.267 . S
C398 O390 1.249 1_655 S
C398 O391 1.267 . S
C399 O396 1.249 . S
C399 O397 1.267 . S
Dy400 O404 2.398 . S
Dy400 O405 2.491 . S
Dy400 O406 2.403 . S
Dy400 O407 2.664 . S
Dy400 O411 2.326 . S
Dy400 O415 2.310 . S
Dy400 O416 2.351 . S
C401 O412 1.185 . S
C401 O413 1.355 . S
C402 O404 1.185 . S
C402 O405 1.355 . S
Dy403 O407 2.310 . S
Dy403 O410 2.351 . S
Dy403 O412 2.398 . S
Dy403 O413 2.491 . S
Dy403 O414 2.403 . S
Dy403 O415 2.664 . S
Dy403 O417 2.326 . S
O404 Dy400 2.398 . S
O404 C402 1.185 . S
O405 Dy400 2.491 . S
O405 C402 1.355 . S
O406 Dy400 2.403 . S
O406 C408 1.254 . S
O407 Dy400 2.664 . S
O407 Dy403 2.310 . S
O407 C408 1.268 . S
C408 O406 1.254 . S
C408 O407 1.268 . S
C409 O414 1.254 . S
C409 O415 1.268 . S
O410 Dy403 2.351 . S
O410 C418 1.249 . S
O411 Dy400 2.326 . S
O411 C418 1.267 . S
O412 C401 1.185 . S
O412 Dy403 2.398 . S
O413 C401 1.355 . S
O413 Dy403 2.491 . S
O414 Dy403 2.403 . S
O414 C409 1.254 . S
O415 Dy400 2.310 . S
O415 Dy403 2.664 . S
O415 C409 1.268 . S
O416 Dy400 2.351 . S
O416 C419 1.249 . S
O417 Dy403 2.326 . S
O417 C419 1.267 . S
C418 O410 1.249 . S
C418 O411 1.267 . S
C419 O416 1.249 . S
C419 O417 1.267 . S
Dy420 O424 2.398 . S
Dy420 O425 2.491 . S
Dy420 O426 2.403 . S
Dy420 O427 2.664 . S
Dy420 O431 2.326 . S
Dy420 O435 2.310 . S
Dy420 O436 2.351 . S
C421 O432 1.185 . S
C421 O433 1.355 . S
C422 O424 1.185 . S
C422 O425 1.355 . S
Dy423 O427 2.310 . S
Dy423 O430 2.351 . S
Dy423 O432 2.398 . S
Dy423 O433 2.491 . S
Dy423 O434 2.403 . S
Dy423 O435 2.664 . S
Dy423 O437 2.326 . S
O424 Dy420 2.398 . S
O424 C422 1.185 . S
O425 Dy420 2.491 . S
O425 C422 1.355 . S
O426 Dy420 2.403 . S
O426 C428 1.254 . S
O427 Dy420 2.664 . S
O427 Dy423 2.310 . S
O427 C428 1.268 . S
C428 O426 1.254 . S
C428 O427 1.268 . S
C429 O434 1.254 . S
C429 O435 1.268 . S
O430 Dy423 2.351 . S
O430 C438 1.249 . S
O431 Dy420 2.326 . S
O431 C438 1.267 . S
O432 C421 1.185 . S
O432 Dy423 2.398 . S
O433 C421 1.355 . S
O433 Dy423 2.491 . S
O434 Dy423 2.403 . S
O434 C429 1.254 . S
O435 Dy420 2.310 . S
O435 Dy423 2.664 . S
O435 C429 1.268 . S
O436 Dy420 2.351 . S
O436 C439 1.249 . S
O437 Dy423 2.326 . S
O437 C439 1.267 . S
C438 O430 1.249 . S
C438 O431 1.267 . S
C439 O436 1.249 . S
C439 O437 1.267 . S
Dy440 O444 2.421 . S
Dy440 O445 2.502 . S
Dy440 O446 2.414 . S
Dy440 O447 2.657 1_556 S
Dy440 O451 2.337 . S
Dy440 O455 2.292 1_556 S
Dy440 O456 2.331 1_556 S
C441 O452 1.185 . S
C441 O453 1.355 . S
C442 O444 1.185 . S
C442 O445 1.355 . S
Dy443 O447 2.310 . S
Dy443 O450 2.351 . S
Dy443 O452 2.398 . S
Dy443 O453 2.491 . S
Dy443 O454 2.403 . S
Dy443 O455 2.664 . S
Dy443 O457 2.326 . S
O444 Dy440 2.421 . S
O444 C442 1.185 . S
O445 Dy440 2.502 . S
O445 C442 1.355 . S
O446 Dy440 2.414 . S
O446 C448 1.254 . S
O447 Dy440 2.657 1_554 S
O447 Dy443 2.310 . S
O447 C448 1.268 1_554 S
C448 O446 1.254 . S
C448 O447 1.268 1_556 S
C449 O454 1.254 . S
C449 O455 1.268 . S
O450 Dy443 2.351 . S
O450 C458 1.249 1_554 S
O451 Dy440 2.337 . S
O451 C458 1.267 . S
O452 C441 1.185 . S
O452 Dy443 2.398 . S
O453 C441 1.355 . S
O453 Dy443 2.491 . S
O454 Dy443 2.403 . S
O454 C449 1.254 . S
O455 Dy440 2.292 1_554 S
O455 Dy443 2.664 . S
O455 C449 1.268 . S
O456 Dy440 2.331 1_554 S
O456 C459 1.249 . S
O457 Dy443 2.326 . S
O457 C459 1.267 . S
C458 O450 1.249 1_556 S
C458 O451 1.267 . S
C459 O456 1.249 . S
C459 O457 1.267 . S
Dy460 O464 2.398 . S
Dy460 O465 2.491 . S
Dy460 O466 2.403 . S
Dy460 O467 2.664 . S
Dy460 O471 2.326 . S
Dy460 O475 2.310 . S
Dy460 O476 2.351 . S
C461 O472 1.185 1_545 S
C461 O473 1.359 . S
C462 O464 1.185 . S
C462 O465 1.355 . S
Dy463 O467 2.310 . S
Dy463 O470 2.351 . S
Dy463 O472 2.398 . S
Dy463 O473 2.469 1_565 S
Dy463 O474 2.403 . S
Dy463 O475 2.664 . S
Dy463 O477 2.326 . S
O464 Dy460 2.398 . S
O464 C462 1.185 . S
O465 Dy460 2.491 . S
O465 C462 1.355 . S
O466 Dy460 2.403 . S
O466 C468 1.254 . S
O467 Dy460 2.664 . S
O467 Dy463 2.310 . S
O467 C468 1.268 . S
C468 O466 1.254 . S
C468 O467 1.268 . S
C469 O474 1.254 . S
C469 O475 1.268 . S
O470 Dy463 2.351 . S
O470 C478 1.249 . S
O471 Dy460 2.326 . S
O471 C478 1.267 . S
O472 C461 1.185 1_565 S
O472 Dy463 2.398 . S
O473 C461 1.359 . S
O473 Dy463 2.469 1_545 S
O474 Dy463 2.403 . S
O474 C469 1.254 . S
O475 Dy460 2.310 . S
O475 Dy463 2.664 . S
O475 C469 1.268 . S
O476 Dy460 2.351 . S
O476 C479 1.249 . S
O477 Dy463 2.326 . S
O477 C479 1.267 . S
C478 O470 1.249 . S
C478 O471 1.267 . S
C479 O476 1.249 . S
C479 O477 1.267 . S
Dy480 O484 2.398 . S
Dy480 O485 2.491 . S
Dy480 O486 2.403 . S
Dy480 O487 2.664 . S
Dy480 O491 2.326 . S
Dy480 O495 2.310 . S
Dy480 O496 2.351 . S
C481 O492 1.185 . S
C481 O493 1.355 . S
C482 O484 1.185 . S
C482 O485 1.355 . S
Dy483 O487 2.310 . S
Dy483 O490 2.351 . S
Dy483 O492 2.398 . S
Dy483 O493 2.491 . S
Dy483 O494 2.403 . S
Dy483 O495 2.664 . S
Dy483 O497 2.326 . S
O484 Dy480 2.398 . S
O484 C482 1.185 . S
O485 Dy480 2.491 . S
O485 C482 1.355 . S
O486 Dy480 2.403 . S
O486 C488 1.254 . S
O487 Dy480 2.664 . S
O487 Dy483 2.310 . S
O487 C488 1.268 . S
C488 O486 1.254 . S
C488 O487 1.268 . S
C489 O494 1.254 . S
C489 O495 1.268 . S
O490 Dy483 2.351 . S
O490 C498 1.249 . S
O491 Dy480 2.326 . S
O491 C498 1.267 . S
O492 C481 1.185 . S
O492 Dy483 2.398 . S
O493 C481 1.355 . S
O493 Dy483 2.491 . S
O494 Dy483 2.403 . S
O494 C489 1.254 . S
O495 Dy480 2.310 . S
O495 Dy483 2.664 . S
O495 C489 1.268 . S
O496 Dy480 2.351 . S
O496 C499 1.249 . S
O497 Dy483 2.326 . S
O497 C499 1.267 . S
C498 O490 1.249 . S
C498 O491 1.267 . S
C499 O496 1.249 . S
C499 O497 1.267 . S
Dy500 O504 2.398 . S
Dy500 O505 2.491 . S
Dy500 O506 2.403 . S
Dy500 O507 2.664 1_565 S
Dy500 O511 2.326 . S
Dy500 O515 2.310 1_565 S
Dy500 O516 2.351 1_565 S
C501 O512 1.185 . S
C501 O513 1.355 . S
C502 O504 1.185 . S
C502 O505 1.355 . S
Dy503 O507 2.310 . S
Dy503 O510 2.351 . S
Dy503 O512 2.398 . S
Dy503 O513 2.491 . S
Dy503 O514 2.403 . S
Dy503 O515 2.664 . S
Dy503 O517 2.326 . S
O504 Dy500 2.398 . S
O504 C502 1.185 . S
O505 Dy500 2.491 . S
O505 C502 1.355 . S
O506 Dy500 2.403 . S
O506 C508 1.254 . S
O507 Dy500 2.664 1_545 S
O507 Dy503 2.310 . S
O507 C508 1.268 1_545 S
C508 O506 1.254 . S
C508 O507 1.268 1_565 S
C509 O514 1.254 . S
C509 O515 1.268 . S
O510 Dy503 2.351 . S
O510 C518 1.249 1_545 S
O511 Dy500 2.326 . S
O511 C518 1.267 . S
O512 C501 1.185 . S
O512 Dy503 2.398 . S
O513 C501 1.355 . S
O513 Dy503 2.491 . S
O514 Dy503 2.403 . S
O514 C509 1.254 . S
O515 Dy500 2.310 1_545 S
O515 Dy503 2.664 . S
O515 C509 1.268 . S
O516 Dy500 2.351 1_545 S
O516 C519 1.249 . S
O517 Dy503 2.326 . S
O517 C519 1.267 . S
C518 O510 1.249 1_565 S
C518 O511 1.267 . S
C519 O516 1.249 . S
C519 O517 1.267 . S
Dy520 O524 2.398 1_545 S
Dy520 O525 2.491 1_545 S
Dy520 O526 2.403 1_545 S
Dy520 O527 2.664 . S
Dy520 O531 2.326 1_545 S
Dy520 O535 2.310 . S
Dy520 O536 2.351 . S
C521 O532 1.185 . S
C521 O533 1.355 . S
C522 O524 1.185 . S
C522 O525 1.355 . S
Dy523 O527 2.310 . S
Dy523 O530 2.351 . S
Dy523 O532 2.398 . S
Dy523 O533 2.491 . S
Dy523 O534 2.403 . S
Dy523 O535 2.664 . S
Dy523 O537 2.326 . S
O524 Dy520 2.398 1_565 S
O524 C522 1.185 . S
O525 Dy520 2.491 1_565 S
O525 C522 1.355 . S
O526 Dy520 2.403 1_565 S
O526 C528 1.254 1_565 S
O527 Dy520 2.664 . S
O527 Dy523 2.310 . S
O527 C528 1.268 . S
C528 O526 1.254 1_545 S
C528 O527 1.268 . S
C529 O534 1.254 . S
C529 O535 1.268 . S
O530 Dy523 2.351 . S
O530 C538 1.249 . S
O531 Dy520 2.326 1_565 S
O531 C538 1.267 1_565 S
O532 C521 1.185 . S
O532 Dy523 2.398 . S
O533 C521 1.355 . S
O533 Dy523 2.491 . S
O534 Dy523 2.403 . S
O534 C529 1.254 . S
O535 Dy520 2.310 . S
O535 Dy523 2.664 . S
O535 C529 1.268 . S
O536 Dy520 2.351 . S
O536 C539 1.249 . S
O537 Dy523 2.326 . S
O537 C539 1.267 . S
C538 O530 1.249 . S
C538 O531 1.267 1_545 S
C539 O536 1.249 . S
C539 O537 1.267 . S
Dy540 O544 2.398 1_556 S
Dy540 O545 2.491 . S
Dy540 O546 2.403 . S
Dy540 O547 2.664 . S
Dy540 O551 2.326 . S
Dy540 O555 2.310 . S
Dy540 O556 2.351 . S
C541 O552 1.185 . S
C541 O553 1.355 . S
C542 O544 1.185 . S
C542 O545 1.355 1_554 S
Dy543 O547 2.310 . S
Dy543 O550 2.351 . S
Dy543 O552 2.398 . S
Dy543 O553 2.491 . S
Dy543 O554 2.403 . S
Dy543 O555 2.664 . S
Dy543 O557 2.326 . S
O544 Dy540 2.398 1_554 S
O544 C542 1.185 . S
O545 Dy540 2.491 . S
O545 C542 1.355 1_556 S
O546 Dy540 2.403 . S
O546 C548 1.254 . S
O547 Dy540 2.664 . S
O547 Dy543 2.310 . S
O547 C548 1.268 . S
C548 O546 1.254 . S
C548 O547 1.268 . S
C549 O554 1.254 . S
C549 O555 1.268 . S
O550 Dy543 2.351 . S
O550 C558 1.249 . S
O551 Dy540 2.326 . S
O551 C558 1.267 . S
O552 C541 1.185 . S
O552 Dy543 2.398 . S
O553 C541 1.355 . S
O553 Dy543 2.491 . S
O554 Dy543 2.403 . S
O554 C549 1.254 . S
O555 Dy540 2.310 . S
O555 Dy543 2.664 . S
O555 C549 1.268 . S
O556 Dy540 2.351 . S
O556 C559 1.249 . S
O557 Dy543 2.326 . S
O557 C559 1.267 . S
C558 O550 1.249 . S
C558 O551 1.267 . S
C559 O556 1.249 . S
C559 O557 1.267 . S
Dy560 O564 2.398 . S
Dy560 O565 2.491 . S
Dy560 O566 2.403 . S
Dy560 O567 2.664 . S
Dy560 O571 2.326 . S
Dy560 O575 2.310 . S
Dy560 O576 2.351 . S
C561 O572 1.185 . S
C561 O573 1.355 . S
C562 O564 1.185 . S
C562 O565 1.355 . S
Dy563 O567 2.310 1_655 S
Dy563 O570 2.351 . S
Dy563 O572 2.398 . S
Dy563 O573 2.491 . S
Dy563 O574 2.403 1_655 S
Dy563 O575 2.664 1_655 S
Dy563 O577 2.326 1_655 S
O564 Dy560 2.398 . S
O564 C562 1.185 . S
O565 Dy560 2.491 . S
O565 C562 1.355 . S
O566 Dy560 2.403 . S
O566 C568 1.254 . S
O567 Dy560 2.664 . S
O567 Dy563 2.310 1_455 S
O567 C568 1.268 . S
C568 O566 1.254 . S
C568 O567 1.268 . S
C569 O574 1.254 . S
C569 O575 1.268 . S
O570 Dy563 2.351 . S
O570 C578 1.249 1_655 S
O571 Dy560 2.326 . S
O571 C578 1.267 . S
O572 C561 1.185 . S
O572 Dy563 2.398 . S
O573 C561 1.355 . S
O573 Dy563 2.491 . S
O574 Dy563 2.403 1_455 S
O574 C569 1.254 . S
O575 Dy560 2.310 . S
O575 Dy563 2.664 1_455 S
O575 C569 1.268 . S
O576 Dy560 2.351 . S
O576 C579 1.249 . S
O577 Dy563 2.326 1_455 S
O577 C579 1.267 . S
C578 O570 1.249 1_455 S
C578 O571 1.267 . S
C579 O576 1.249 . S
C579 O577 1.267 . S
Dy580 O584 2.398 . S
Dy580 O585 2.491 . S
Dy580 O586 2.403 . S
Dy580 O587 2.664 . S
Dy580 O591 2.326 . S
Dy580 O595 2.310 . S
Dy580 O596 2.351 . S
C581 O592 1.185 . S
C581 O593 1.355 . S
C582 O584 1.185 . S
C582 O585 1.355 . S
Dy583 O587 2.310 . S
Dy583 O590 2.351 . S
Dy583 O592 2.398 . S
Dy583 O593 2.491 . S
Dy583 O594 2.403 . S
Dy583 O595 2.664 . S
Dy583 O597 2.326 . S
O584 Dy580 2.398 . S
O584 C582 1.185 . S
O585 Dy580 2.491 . S
O585 C582 1.355 . S
O586 Dy580 2.403 . S
O586 C588 1.254 . S
O587 Dy580 2.664 . S
O587 Dy583 2.310 . S
O587 C588 1.268 . S
C588 O586 1.254 . S
C588 O587 1.268 . S
C589 O594 1.254 . S
C589 O595 1.268 . S
O590 Dy583 2.351 . S
O590 C598 1.249 . S
O591 Dy580 2.326 . S
O591 C598 1.267 . S
O592 C581 1.185 . S
O592 Dy583 2.398 . S
O593 C581 1.355 . S
O593 Dy583 2.491 . S
O594 Dy583 2.403 . S
O594 C589 1.254 . S
O595 Dy580 2.310 . S
O595 Dy583 2.664 . S
O595 C589 1.268 . S
O596 Dy580 2.351 . S
O596 C599 1.249 . S
O597 Dy583 2.326 . S
O597 C599 1.267 . S
C598 O590 1.249 . S
C598 O591 1.267 . S
C599 O596 1.249 . S
C599 O597 1.267 . S
Dy600 O604 2.398 . S
Dy600 O605 2.491 . S
Dy600 O606 2.403 . S
Dy600 O607 2.664 . S
Dy600 O611 2.326 . S
Dy600 O615 2.310 . S
Dy600 O616 2.351 . S
C601 O612 1.185 . S
C601 O613 1.355 . S
C602 O604 1.185 . S
C602 O605 1.355 . S
Dy603 O607 2.310 . S
Dy603 O610 2.351 . S
Dy603 O612 2.398 . S
Dy603 O613 2.491 . S
Dy603 O614 2.403 . S
Dy603 O615 2.664 . S
Dy603 O617 2.326 . S
O604 Dy600 2.398 . S
O604 C602 1.185 . S
O605 Dy600 2.491 . S
O605 C602 1.355 . S
O606 Dy600 2.403 . S
O606 C608 1.254 . S
O607 Dy600 2.664 . S
O607 Dy603 2.310 . S
O607 C608 1.268 . S
C608 O606 1.254 . S
C608 O607 1.268 . S
C609 O614 1.254 . S
C609 O615 1.268 . S
O610 Dy603 2.351 . S
O610 C618 1.249 . S
O611 Dy600 2.326 . S
O611 C618 1.267 . S
O612 C601 1.185 . S
O612 Dy603 2.398 . S
O613 C601 1.355 . S
O613 Dy603 2.491 . S
O614 Dy603 2.403 . S
O614 C609 1.254 . S
O615 Dy600 2.310 . S
O615 Dy603 2.664 . S
O615 C609 1.268 . S
O616 Dy600 2.351 . S
O616 C619 1.249 . S
O617 Dy603 2.326 . S
O617 C619 1.267 . S
C618 O610 1.249 . S
C618 O611 1.267 . S
C619 O616 1.249 . S
C619 O617 1.267 . S
Dy620 O624 2.398 . S
Dy620 O625 2.491 . S
Dy620 O626 2.403 . S
Dy620 O627 2.664 . S
Dy620 O631 2.326 . S
Dy620 O635 2.310 . S
Dy620 O636 2.351 . S
C621 O632 1.185 . S
C621 O633 1.355 1_455 S
C622 O624 1.185 . S
C622 O625 1.355 . S
Dy623 O627 2.310 . S
Dy623 O630 2.351 . S
Dy623 O632 2.398 1_655 S
Dy623 O633 2.491 . S
Dy623 O634 2.403 . S
Dy623 O635 2.664 . S
Dy623 O637 2.326 . S
O624 Dy620 2.398 . S
O624 C622 1.185 . S
O625 Dy620 2.491 . S
O625 C622 1.355 . S
O626 Dy620 2.403 . S
O626 C628 1.254 . S
O627 Dy620 2.664 . S
O627 Dy623 2.310 . S
O627 C628 1.268 . S
C628 O626 1.254 . S
C628 O627 1.268 . S
C629 O634 1.254 . S
C629 O635 1.268 . S
O630 Dy623 2.351 . S
O630 C638 1.249 . S
O631 Dy620 2.326 . S
O631 C638 1.267 . S
O632 C621 1.185 . S
O632 Dy623 2.398 1_455 S
O633 C621 1.355 1_655 S
O633 Dy623 2.491 . S
O634 Dy623 2.403 . S
O634 C629 1.254 . S
O635 Dy620 2.310 . S
O635 Dy623 2.664 . S
O635 C629 1.268 . S
O636 Dy620 2.351 . S
O636 C639 1.249 . S
O637 Dy623 2.326 . S
O637 C639 1.267 . S
C638 O630 1.249 . S
C638 O631 1.267 . S
C639 O636 1.249 . S
C639 O637 1.267 . S
Dy640 O644 2.398 . S
Dy640 O645 2.491 . S
Dy640 O646 2.403 . S
Dy640 O647 2.664 . S
Dy640 O651 2.326 . S
Dy640 O655 2.310 . S
Dy640 O656 2.351 . S
C641 O652 1.185 . S
C641 O653 1.355 . S
C642 O644 1.185 . S
C642 O645 1.355 . S
Dy643 O647 2.310 . S
Dy643 O650 2.351 . S
Dy643 O652 2.398 . S
Dy643 O653 2.491 . S
Dy643 O654 2.403 . S
Dy643 O655 2.664 . S
Dy643 O657 2.326 . S
O644 Dy640 2.398 . S
O644 C642 1.185 . S
O645 Dy640 2.491 . S
O645 C642 1.355 . S
O646 Dy640 2.403 . S
O646 C648 1.254 . S
O647 Dy640 2.664 . S
O647 Dy643 2.310 . S
O647 C648 1.268 . S
C648 O646 1.254 . S
C648 O647 1.268 . S
C649 O654 1.254 . S
C649 O655 1.268 . S
O650 Dy643 2.351 . S
O650 C658 1.249 . S
O651 Dy640 2.326 . S
O651 C658 1.267 . S
O652 C641 1.185 . S
O652 Dy643 2.398 . S
O653 C641 1.355 . S
O653 Dy643 2.491 . S
O654 Dy643 2.403 . S
O654 C649 1.254 . S
O655 Dy640 2.310 . S
O655 Dy643 2.664 . S
O655 C649 1.268 . S
O656 Dy640 2.351 . S
O656 C659 1.249 . S
O657 Dy643 2.326 . S
O657 C659 1.267 . S
C658 O650 1.249 . S
C658 O651 1.267 . S
C659 O656 1.249 . S
C659 O657 1.267 . S
Dy660 O664 2.398 . S
Dy660 O665 2.491 . S
Dy660 O666 2.403 1_554 S
Dy660 O667 2.664 1_554 S
Dy660 O671 2.326 1_554 S
Dy660 O675 2.310 . S
Dy660 O676 2.351 . S
C661 O672 1.185 . S
C661 O673 1.355 . S
C662 O664 1.185 . S
C662 O665 1.355 . S
Dy663 O667 2.310 . S
Dy663 O670 2.351 . S
Dy663 O672 2.398 . S
Dy663 O673 2.491 . S
Dy663 O674 2.403 . S
Dy663 O675 2.664 1_556 S
Dy663 O677 2.326 . S
O664 Dy660 2.398 . S
O664 C662 1.185 . S
O665 Dy660 2.491 . S
O665 C662 1.355 . S
O666 Dy660 2.403 1_556 S
O666 C668 1.254 . S
O667 Dy660 2.664 1_556 S
O667 Dy663 2.310 . S
O667 C668 1.268 . S
C668 O666 1.254 . S
C668 O667 1.268 . S
C669 O674 1.254 1_554 S
C669 O675 1.268 . S
O670 Dy663 2.351 . S
O670 C678 1.249 . S
O671 Dy660 2.326 1_556 S
O671 C678 1.267 . S
O672 C661 1.185 . S
O672 Dy663 2.398 . S
O673 C661 1.355 . S
O673 Dy663 2.491 . S
O674 Dy663 2.403 . S
O674 C669 1.254 1_556 S
O675 Dy660 2.310 . S
O675 Dy663 2.664 1_554 S
O675 C669 1.268 . S
O676 Dy660 2.351 . S
O676 C679 1.249 . S
O677 Dy663 2.326 . S
O677 C679 1.267 1_556 S
C678 O670 1.249 . S
C678 O671 1.267 . S
C679 O676 1.249 . S
C679 O677 1.267 1_554 S
Dy680 O684 2.398 . S
Dy680 O685 2.491 . S
Dy680 O686 2.403 . S
Dy680 O687 2.664 . S
Dy680 O691 2.326 . S
Dy680 O695 2.310 . S
Dy680 O696 2.351 . S
C681 O692 1.185 . S
C681 O693 1.355 . S
C682 O684 1.185 . S
C682 O685 1.355 . S
Dy683 O687 2.310 . S
Dy683 O690 2.351 . S
Dy683 O692 2.398 . S
Dy683 O693 2.491 . S
Dy683 O694 2.403 . S
Dy683 O695 2.664 . S
Dy683 O697 2.326 . S
O684 Dy680 2.398 . S
O684 C682 1.185 . S
O685 Dy680 2.491 . S
O685 C682 1.355 . S
O686 Dy680 2.403 . S
O686 C688 1.254 . S
O687 Dy680 2.664 . S
O687 Dy683 2.310 . S
O687 C688 1.268 . S
C688 O686 1.254 . S
C688 O687 1.268 . S
C689 O694 1.254 . S
C689 O695 1.268 . S
O690 Dy683 2.351 . S
O690 C698 1.249 . S
O691 Dy680 2.326 . S
O691 C698 1.267 . S
O692 C681 1.185 . S
O692 Dy683 2.398 . S
O693 C681 1.355 . S
O693 Dy683 2.491 . S
O694 Dy683 2.403 . S
O694 C689 1.254 . S
O695 Dy680 2.310 . S
O695 Dy683 2.664 . S
O695 C689 1.268 . S
O696 Dy680 2.351 . S
O696 C699 1.249 . S
O697 Dy683 2.326 . S
O697 C699 1.267 . S
C698 O690 1.249 . S
C698 O691 1.267 . S
C699 O696 1.249 . S
C699 O697 1.267 . S
Dy700 O704 2.398 . S
Dy700 O705 2.491 . S
Dy700 O706 2.403 . S
Dy700 O707 2.664 . S
Dy700 O711 2.326 . S
Dy700 O715 2.310 . S
Dy700 O716 2.351 . S
C701 O712 1.185 . S
C701 O713 1.355 . S
C702 O704 1.185 . S
C702 O705 1.355 . S
Dy703 O707 2.310 . S
Dy703 O710 2.351 . S
Dy703 O712 2.398 . S
Dy703 O713 2.491 . S
Dy703 O714 2.403 . S
Dy703 O715 2.664 . S
Dy703 O717 2.326 . S
O704 Dy700 2.398 . S
O704 C702 1.185 . S
O705 Dy700 2.491 . S
O705 C702 1.355 . S
O706 Dy700 2.403 . S
O706 C708 1.254 . S
O707 Dy700 2.664 . S
O707 Dy703 2.310 . S
O707 C708 1.268 . S
C708 O706 1.254 . S
C708 O707 1.268 . S
C709 O714 1.254 . S
C709 O715 1.268 . S
O710 Dy703 2.351 . S
O710 C718 1.249 . S
O711 Dy700 2.326 . S
O711 C718 1.267 . S
O712 C701 1.185 . S
O712 Dy703 2.398 . S
O713 C701 1.355 . S
O713 Dy703 2.491 . S
O714 Dy703 2.403 . S
O714 C709 1.254 . S
O715 Dy700 2.310 . S
O715 Dy703 2.664 . S
O715 C709 1.268 . S
O716 Dy700 2.351 . S
O716 C719 1.249 . S
O717 Dy703 2.326 . S
O717 C719 1.267 . S
C718 O710 1.249 . S
C718 O711 1.267 . S
C719 O716 1.249 . S
C719 O717 1.267 . S
Dy720 O724 2.398 . S
Dy720 O725 2.491 . S
Dy720 O726 2.403 . S
Dy720 O727 2.664 . S
Dy720 O731 2.326 . S
Dy720 O735 2.310 . S
Dy720 O736 2.351 . S
C721 O732 1.185 . S
C721 O733 1.355 . S
C722 O724 1.185 . S
C722 O725 1.355 . S
Dy723 O727 2.310 . S
Dy723 O730 2.351 . S
Dy723 O732 2.398 . S
Dy723 O733 2.491 . S
Dy723 O734 2.403 . S
Dy723 O735 2.664 . S
Dy723 O737 2.326 . S
O724 Dy720 2.398 . S
O724 C722 1.185 . S
O725 Dy720 2.491 . S
O725 C722 1.355 . S
O726 Dy720 2.403 . S
O726 C728 1.254 . S
O727 Dy720 2.664 . S
O727 Dy723 2.310 . S
O727 C728 1.268 . S
C728 O726 1.254 . S
C728 O727 1.268 . S
C729 O734 1.254 . S
C729 O735 1.268 . S
O730 Dy723 2.351 . S
O730 C738 1.249 . S
O731 Dy720 2.326 . S
O731 C738 1.267 . S
O732 C721 1.185 . S
O732 Dy723 2.398 . S
O733 C721 1.355 . S
O733 Dy723 2.491 . S
O734 Dy723 2.403 . S
O734 C729 1.254 . S
O735 Dy720 2.310 . S
O735 Dy723 2.664 . S
O735 C729 1.268 . S
O736 Dy720 2.351 . S
O736 C739 1.249 . S
O737 Dy723 2.326 . S
O737 C739 1.267 . S
C738 O730 1.249 . S
C738 O731 1.267 . S
C739 O736 1.249 . S
C739 O737 1.267 . S
Dy740 O744 2.398 . S
Dy740 O745 2.491 . S
Dy740 O746 2.403 . S
Dy740 O747 2.664 . S
Dy740 O751 2.326 . S
Dy740 O755 2.310 . S
Dy740 O756 2.351 . S
C741 O752 1.185 . S
C741 O753 1.355 . S
C742 O744 1.185 . S
C742 O745 1.355 . S
Dy743 O747 2.310 . S
Dy743 O750 2.351 . S
Dy743 O752 2.398 . S
Dy743 O753 2.491 . S
Dy743 O754 2.403 . S
Dy743 O755 2.664 . S
Dy743 O757 2.326 . S
O744 Dy740 2.398 . S
O744 C742 1.185 . S
O745 Dy740 2.491 . S
O745 C742 1.355 . S
O746 Dy740 2.403 . S
O746 C748 1.254 . S
O747 Dy740 2.664 . S
O747 Dy743 2.310 . S
O747 C748 1.268 . S
C748 O746 1.254 . S
C748 O747 1.268 . S
C749 O754 1.254 . S
C749 O755 1.268 . S
O750 Dy743 2.351 . S
O750 C758 1.249 . S
O751 Dy740 2.326 . S
O751 C758 1.267 . S
O752 C741 1.185 . S
O752 Dy743 2.398 . S
O753 C741 1.355 . S
O753 Dy743 2.491 . S
O754 Dy743 2.403 . S
O754 C749 1.254 . S
O755 Dy740 2.310 . S
O755 Dy743 2.664 . S
O755 C749 1.268 . S
O756 Dy740 2.351 . S
O756 C759 1.249 . S
O757 Dy743 2.326 . S
O757 C759 1.267 . S
C758 O750 1.249 . S
C758 O751 1.267 . S
C759 O756 1.249 . S
C759 O757 1.267 . S
Dy760 O764 2.398 . S
Dy760 O765 2.491 . S
Dy760 O766 2.403 . S
Dy760 O767 2.664 . S
Dy760 O771 2.326 . S
Dy760 O775 2.310 . S
Dy760 O776 2.351 . S
C761 O772 1.185 . S
C761 O773 1.355 . S
C762 O764 1.185 . S
C762 O765 1.355 . S
Dy763 O767 2.310 . S
Dy763 O770 2.351 . S
Dy763 O772 2.398 . S
Dy763 O773 2.491 . S
Dy763 O774 2.403 . S
Dy763 O775 2.664 . S
Dy763 O777 2.326 . S
O764 Dy760 2.398 . S
O764 C762 1.185 . S
O765 Dy760 2.491 . S
O765 C762 1.355 . S
O766 Dy760 2.403 . S
O766 C768 1.254 . S
O767 Dy760 2.664 . S
O767 Dy763 2.310 . S
O767 C768 1.268 . S
C768 O766 1.254 . S
C768 O767 1.268 . S
C769 O774 1.254 . S
C769 O775 1.268 . S
O770 Dy763 2.351 . S
O770 C778 1.249 . S
O771 Dy760 2.326 . S
O771 C778 1.267 . S
O772 C761 1.185 . S
O772 Dy763 2.398 . S
O773 C761 1.355 . S
O773 Dy763 2.491 . S
O774 Dy763 2.403 . S
O774 C769 1.254 . S
O775 Dy760 2.310 . S
O775 Dy763 2.664 . S
O775 C769 1.268 . S
O776 Dy760 2.351 . S
O776 C779 1.249 . S
O777 Dy763 2.326 . S
O777 C779 1.267 . S
C778 O770 1.249 . S
C778 O771 1.267 . S
C779 O776 1.249 . S
C779 O777 1.267 . S
Dy780 O784 2.398 . S
Dy780 O785 2.491 . S
Dy780 O786 2.403 . S
Dy780 O787 2.664 . S
Dy780 O791 2.326 . S
Dy780 O795 2.310 . S
Dy780 O796 2.351 . S
C781 O792 1.185 . S
C781 O793 1.355 . S
C782 O784 1.185 . S
C782 O785 1.355 . S
Dy783 O787 2.310 . S
Dy783 O790 2.351 . S
Dy783 O792 2.398 . S
Dy783 O793 2.491 . S
Dy783 O794 2.403 . S
Dy783 O795 2.664 . S
Dy783 O797 2.326 . S
O784 Dy780 2.398 . S
O784 C782 1.185 . S
O785 Dy780 2.491 . S
O785 C782 1.355 . S
O786 Dy780 2.403 . S
O786 C788 1.254 . S
O787 Dy780 2.664 . S
O787 Dy783 2.310 . S
O787 C788 1.268 . S
C788 O786 1.254 . S
C788 O787 1.268 . S
C789 O794 1.254 . S
C789 O795 1.268 . S
O790 Dy783 2.351 . S
O790 C798 1.249 . S
O791 Dy780 2.326 . S
O791 C798 1.267 . S
O792 C781 1.185 . S
O792 Dy783 2.398 . S
O793 C781 1.355 . S
O793 Dy783 2.491 . S
O794 Dy783 2.403 . S
O794 C789 1.254 . S
O795 Dy780 2.310 . S
O795 Dy783 2.664 . S
O795 C789 1.268 . S
O796 Dy780 2.351 . S
O796 C799 1.249 . S
O797 Dy783 2.326 . S
O797 C799 1.267 . S
C798 O790 1.249 . S
C798 O791 1.267 . S
C799 O796 1.249 . S
C799 O797 1.267 . S
Dy800 O804 2.398 1_455 S
Dy800 O805 2.491 . S
Dy800 O806 2.403 . S
Dy800 O807 2.664 . S
Dy800 O811 2.326 . S
Dy800 O815 2.310 . S
Dy800 O816 2.351 . S
C801 O812 1.185 . S
C801 O813 1.355 . S
C802 O804 1.185 . S
C802 O805 1.355 1_655 S
Dy803 O807 2.310 . S
Dy803 O810 2.351 . S
Dy803 O812 2.398 . S
Dy803 O813 2.491 . S
Dy803 O814 2.403 . S
Dy803 O815 2.664 . S
Dy803 O817 2.326 . S
O804 Dy800 2.398 1_655 S
O804 C802 1.185 . S
O805 Dy800 2.491 . S
O805 C802 1.355 1_455 S
O806 Dy800 2.403 . S
O806 C808 1.254 . S
O807 Dy800 2.664 . S
O807 Dy803 2.310 . S
O807 C808 1.268 . S
C808 O806 1.254 . S
C808 O807 1.268 . S
C809 O814 1.254 . S
C809 O815 1.268 . S
O810 Dy803 2.351 . S
O810 C818 1.249 . S
O811 Dy800 2.326 . S
O811 C818 1.267 . S
O812 C801 1.185 . S
O812 Dy803 2.398 . S
O813 C801 1.355 . S
O813 Dy803 2.491 . S
O814 Dy803 2.403 . S
O814 C809 1.254 . S
O815 Dy800 2.310 . S
O815 Dy803 2.664 . S
O815 C809 1.268 . S
O816 Dy800 2.351 . S
O816 C819 1.249 . S
O817 Dy803 2.326 . S
O817 C819 1.267 . S
C818 O810 1.249 . S
C818 O811 1.267 . S
C819 O816 1.249 . S
C819 O817 1.267 . S
Dy820 O824 2.398 . S
Dy820 O825 2.491 . S
Dy820 O826 2.403 . S
Dy820 O827 2.664 . S
Dy820 O831 2.326 . S
Dy820 O835 2.310 . S
Dy820 O836 2.351 . S
C821 O832 1.185 . S
C821 O833 1.355 . S
C822 O824 1.185 . S
C822 O825 1.355 . S
Dy823 O827 2.310 . S
Dy823 O830 2.351 . S
Dy823 O832 2.398 . S
Dy823 O833 2.491 . S
Dy823 O834 2.403 . S
Dy823 O835 2.664 . S
Dy823 O837 2.326 . S
O824 Dy820 2.398 . S
O824 C822 1.185 . S
O825 Dy820 2.491 . S
O825 C822 1.355 . S
O826 Dy820 2.403 . S
O826 C828 1.254 . S
O827 Dy820 2.664 . S
O827 Dy823 2.310 . S
O827 C828 1.268 . S
C828 O826 1.254 . S
C828 O827 1.268 . S
C829 O834 1.254 . S
C829 O835 1.268 . S
O830 Dy823 2.351 . S
O830 C838 1.249 . S
O831 Dy820 2.326 . S
O831 C838 1.267 . S
O832 C821 1.185 . S
O832 Dy823 2.398 . S
O833 C821 1.355 . S
O833 Dy823 2.491 . S
O834 Dy823 2.403 . S
O834 C829 1.254 . S
O835 Dy820 2.310 . S
O835 Dy823 2.664 . S
O835 C829 1.268 . S
O836 Dy820 2.351 . S
O836 C839 1.249 . S
O837 Dy823 2.326 . S
O837 C839 1.267 . S
C838 O830 1.249 . S
C838 O831 1.267 . S
C839 O836 1.249 . S
C839 O837 1.267 . S
Dy840 O844 2.398 . S
Dy840 O845 2.491 . S
Dy840 O846 2.403 . S
Dy840 O847 2.664 1_554 S
Dy840 O851 2.326 . S
Dy840 O855 2.310 . S
Dy840 O856 2.351 . S
C841 O852 1.185 . S
C841 O853 1.355 . S
C842 O844 1.185 . S
C842 O845 1.355 . S
Dy843 O847 2.310 . S
Dy843 O850 2.351 . S
Dy843 O852 2.398 . S
Dy843 O853 2.491 . S
Dy843 O854 2.403 1_556 S
Dy843 O855 2.664 1_556 S
Dy843 O857 2.326 1_556 S
O844 Dy840 2.398 . S
O844 C842 1.185 . S
O845 Dy840 2.491 . S
O845 C842 1.355 . S
O846 Dy840 2.403 . S
O846 C848 1.254 1_554 S
O847 Dy840 2.664 1_556 S
O847 Dy843 2.310 . S
O847 C848 1.268 . S
C848 O846 1.254 1_556 S
C848 O847 1.268 . S
C849 O854 1.254 . S
C849 O855 1.268 . S
O850 Dy843 2.351 . S
O850 C858 1.249 . S
O851 Dy840 2.326 . S
O851 C858 1.267 1_554 S
O852 C841 1.185 . S
O852 Dy843 2.398 . S
O853 C841 1.355 . S
O853 Dy843 2.491 . S
O854 Dy843 2.403 1_554 S
O854 C849 1.254 . S
O855 Dy840 2.310 . S
O855 Dy843 2.664 1_554 S
O855 C849 1.268 . S
O856 Dy840 2.351 . S
O856 C859 1.249 . S
O857 Dy843 2.326 1_554 S
O857 C859 1.267 . S
C858 O850 1.249 . S
C858 O851 1.267 1_556 S
C859 O856 1.249 . S
C859 O857 1.267 . S
Dy860 O864 2.398 . S
Dy860 O865 2.491 . S
Dy860 O866 2.403 . S
Dy860 O867 2.664 . S
Dy860 O871 2.326 . S
Dy860 O875 2.310 . S
Dy860 O876 2.351 . S
C861 O872 1.185 . S
C861 O873 1.355 . S
C862 O864 1.185 . S
C862 O865 1.355 . S
Dy863 O867 2.310 . S
Dy863 O870 2.351 . S
Dy863 O872 2.398 . S
Dy863 O873 2.491 . S
Dy863 O874 2.403 . S
Dy863 O875 2.664 . S
Dy863 O877 2.326 . S
O864 Dy860 2.398 . S
O864 C862 1.185 . S
O865 Dy860 2.491 . S
O865 C862 1.355 . S
O866 Dy860 2.403 . S
O866 C868 1.254 . S
O867 Dy860 2.664 . S
O867 Dy863 2.310 . S
O867 C868 1.268 . S
C868 O866 1.254 . S
C868 O867 1.268 . S
C869 O874 1.254 . S
C869 O875 1.268 . S
O870 Dy863 2.351 . S
O870 C878 1.249 . S
O871 Dy860 2.326 . S
O871 C878 1.267 . S
O872 C861 1.185 . S
O872 Dy863 2.398 . S
O873 C861 1.355 . S
O873 Dy863 2.491 . S
O874 Dy863 2.403 . S
O874 C869 1.254 . S
O875 Dy860 2.310 . S
O875 Dy863 2.664 . S
O875 C869 1.268 . S
O876 Dy860 2.351 . S
O876 C879 1.249 . S
O877 Dy863 2.326 . S
O877 C879 1.267 . S
C878 O870 1.249 . S
C878 O871 1.267 . S
C879 O876 1.249 . S
C879 O877 1.267 . S
Dy880 O884 2.398 . S
Dy880 O885 2.491 . S
Dy880 O886 2.403 . S
Dy880 O887 2.664 . S
Dy880 O891 2.326 . S
Dy880 O895 2.310 . S
Dy880 O896 2.351 . S
C881 O892 1.185 . S
C881 O893 1.355 . S
C882 O884 1.185 . S
C882 O885 1.355 . S
Dy883 O887 2.310 . S
Dy883 O890 2.351 . S
Dy883 O892 2.398 . S
Dy883 O893 2.491 . S
Dy883 O894 2.403 . S
Dy883 O895 2.664 . S
Dy883 O897 2.326 . S
O884 Dy880 2.398 . S
O884 C882 1.185 . S
O885 Dy880 2.491 . S
O885 C882 1.355 . S
O886 Dy880 2.403 . S
O886 C888 1.254 . S
O887 Dy880 2.664 . S
O887 Dy883 2.310 . S
O887 C888 1.268 . S
C888 O886 1.254 . S
C888 O887 1.268 . S
C889 O894 1.254 . S
C889 O895 1.268 . S
O890 Dy883 2.351 . S
O890 C898 1.249 . S
O891 Dy880 2.326 . S
O891 C898 1.267 . S
O892 C881 1.185 . S
O892 Dy883 2.398 . S
O893 C881 1.355 . S
O893 Dy883 2.491 . S
O894 Dy883 2.403 . S
O894 C889 1.254 . S
O895 Dy880 2.310 . S
O895 Dy883 2.664 . S
O895 C889 1.268 . S
O896 Dy880 2.351 . S
O896 C899 1.249 . S
O897 Dy883 2.326 . S
O897 C899 1.267 . S
C898 O890 1.249 . S
C898 O891 1.267 . S
C899 O896 1.249 . S
C899 O897 1.267 . S
Dy900 O904 2.398 . S
Dy900 O905 2.491 . S
Dy900 O906 2.403 . S
Dy900 O907 2.664 . S
Dy900 O911 2.326 . S
Dy900 O915 2.310 . S
Dy900 O916 2.351 . S
C901 O912 1.185 . S
C901 O913 1.355 . S
C902 O904 1.185 . S
C902 O905 1.355 . S
Dy903 O907 2.310 . S
Dy903 O910 2.351 . S
Dy903 O912 2.398 . S
Dy903 O913 2.491 . S
Dy903 O914 2.403 . S
Dy903 O915 2.664 . S
Dy903 O917 2.326 . S
O904 Dy900 2.398 . S
O904 C902 1.185 . S
O905 Dy900 2.491 . S
O905 C902 1.355 . S
O906 Dy900 2.403 . S
O906 C908 1.254 . S
O907 Dy900 2.664 . S
O907 Dy903 2.310 . S
O907 C908 1.268 . S
C908 O906 1.254 . S
C908 O907 1.268 . S
C909 O914 1.254 . S
C909 O915 1.268 . S
O910 Dy903 2.351 . S
O910 C918 1.249 . S
O911 Dy900 2.326 . S
O911 C918 1.267 . S
O912 C901 1.185 . S
O912 Dy903 2.398 . S
O913 C901 1.355 . S
O913 Dy903 2.491 . S
O914 Dy903 2.403 . S
O914 C909 1.254 . S
O915 Dy900 2.310 . S
O915 Dy903 2.664 . S
O915 C909 1.268 . S
O916 Dy900 2.351 . S
O916 C919 1.249 . S
O917 Dy903 2.326 . S
O917 C919 1.267 . S
C918 O910 1.249 . S
C918 O911 1.267 . S
C919 O916 1.249 . S
C919 O917 1.267 . S
Dy920 O924 2.398 . S
Dy920 O925 2.491 . S
Dy920 O926 2.403 . S
Dy920 O927 2.664 . S
Dy920 O931 2.326 . S
Dy920 O935 2.310 . S
Dy920 O936 2.351 . S
C921 O932 1.185 . S
C921 O933 1.355 . S
C922 O924 1.185 . S
C922 O925 1.355 . S
Dy923 O927 2.310 . S
Dy923 O930 2.351 . S
Dy923 O932 2.398 . S
Dy923 O933 2.491 . S
Dy923 O934 2.403 . S
Dy923 O935 2.664 . S
Dy923 O937 2.326 . S
O924 Dy920 2.398 . S
O924 C922 1.185 . S
O925 Dy920 2.491 . S
O925 C922 1.355 . S
O926 Dy920 2.403 . S
O926 C928 1.254 . S
O927 Dy920 2.664 . S
O927 Dy923 2.310 . S
O927 C928 1.268 . S
C928 O926 1.254 . S
C928 O927 1.268 . S
C929 O934 1.254 . S
C929 O935 1.268 . S
O930 Dy923 2.351 . S
O930 C938 1.249 . S
O931 Dy920 2.326 . S
O931 C938 1.267 . S
O932 C921 1.185 . S
O932 Dy923 2.398 . S
O933 C921 1.355 . S
O933 Dy923 2.491 . S
O934 Dy923 2.403 . S
O934 C929 1.254 . S
O935 Dy920 2.310 . S
O935 Dy923 2.664 . S
O935 C929 1.268 . S
O936 Dy920 2.351 . S
O936 C939 1.249 . S
O937 Dy923 2.326 . S
O937 C939 1.267 . S
C938 O930 1.249 . S
C938 O931 1.267 . S
C939 O936 1.249 . S
C939 O937 1.267 . S
Dy940 O944 2.398 . S
Dy940 O945 2.491 . S
Dy940 O946 2.403 . S
Dy940 O947 2.664 . S
Dy940 O951 2.326 . S
Dy940 O955 2.310 . S
Dy940 O956 2.351 . S
C941 O952 1.185 . S
C941 O953 1.355 . S
C942 O944 1.185 . S
C942 O945 1.355 . S
Dy943 O947 2.310 . S
Dy943 O950 2.351 . S
Dy943 O952 2.398 . S
Dy943 O953 2.491 . S
Dy943 O954 2.403 . S
Dy943 O955 2.664 . S
Dy943 O957 2.326 . S
O944 Dy940 2.398 . S
O944 C942 1.185 . S
O945 Dy940 2.491 . S
O945 C942 1.355 . S
O946 Dy940 2.403 . S
O946 C948 1.254 . S
O947 Dy940 2.664 . S
O947 Dy943 2.310 . S
O947 C948 1.268 . S
C948 O946 1.254 . S
C948 O947 1.268 . S
C949 O954 1.254 . S
C949 O955 1.268 . S
O950 Dy943 2.351 . S
O950 C958 1.249 . S
O951 Dy940 2.326 . S
O951 C958 1.267 . S
O952 C941 1.185 . S
O952 Dy943 2.398 . S
O953 C941 1.355 . S
O953 Dy943 2.491 . S
O954 Dy943 2.403 . S
O954 C949 1.254 . S
O955 Dy940 2.310 . S
O955 Dy943 2.664 . S
O955 C949 1.268 . S
O956 Dy940 2.351 . S
O956 C959 1.249 . S
O957 Dy943 2.326 . S
O957 C959 1.267 . S
C958 O950 1.249 . S
C958 O951 1.267 . S
C959 O956 1.249 . S
C959 O957 1.267 . S
H960 C968 0.950 . S
H961 C973 0.950 . S
H962 C970 0.950 . S
H963 C972 0.950 . S
H964 C974 0.950 . S
H965 C976 0.950 . S
H966 C978 0.950 . S
H967 C979 0.950 . S
C968 H960 0.950 . S
C968 C969 1.386 . S
C968 C970 1.391 . S
C969 C968 1.386 . S
C969 C973 1.393 1_455 S
C970 H962 0.950 . S
C970 C968 1.391 . S
C970 C971 1.400 . S
C971 C970 1.400 . S
C971 C972 1.398 1_455 S
C971 C977 1.491 . S
C972 H963 0.950 . S
C972 C971 1.398 1_655 S
C972 C973 1.391 . S
C973 H961 0.950 . S
C973 C969 1.393 1_655 S
C973 C972 1.391 . S
C974 H964 0.950 . S
C974 C975 1.386 1_655 S
C974 C976 1.391 . S
C975 C974 1.386 1_455 S
C975 C979 1.393 . S
C976 H965 0.950 . S
C976 C974 1.391 . S
C976 C977 1.400 1_655 S
C977 C971 1.491 . S
C977 C976 1.400 1_455 S
C977 C978 1.398 . S
C978 H966 0.950 . S
C978 C977 1.398 . S
C978 C979 1.391 . S
C979 H967 0.950 . S
C979 C975 1.393 . S
C979 C978 1.391 . S
H980 C988 0.950 . S
H981 C993 0.950 . S
H982 C990 0.950 . S
H983 C992 0.950 . S
H984 C994 0.950 . S
H985 C996 0.950 . S
H986 C998 0.950 . S
H987 C999 0.950 . S
C988 H980 0.950 . S
C988 C989 1.386 . S
C988 C990 1.391 . S
C989 C988 1.386 . S
C989 C993 1.393 . S
C990 H982 0.950 . S
C990 C988 1.391 . S
C990 C991 1.400 . S
C991 C990 1.400 . S
C991 C992 1.398 . S
C991 C997 1.491 . S
C992 H983 0.950 . S
C992 C991 1.398 . S
C992 C993 1.391 . S
C993 H981 0.950 . S
C993 C989 1.393 . S
C993 C992 1.391 . S
C994 H984 0.950 . S
C994 C995 1.386 . S
C994 C996 1.391 . S
C995 C994 1.386 . S
C995 C999 1.393 . S
C996 H985 0.950 . S
C996 C994 1.391 . S
C996 C997 1.400 . S
C997 C991 1.491 . S
C997 C996 1.400 . S
C997 C998 1.398 . S
C998 H986 0.950 . S
C998 C997 1.398 . S
C998 C999 1.391 . S
C999 H987 0.950 . S
C999 C995 1.393 . S
C999 C998 1.391 . S
H1000 C1008 0.950 . S
H1001 C1013 0.950 . S
H1002 C1010 0.950 . S
H1003 C1012 0.950 . S
H1004 C1014 0.950 . S
H1005 C1016 0.950 . S
H1006 C1018 0.950 . S
H1007 C1019 0.950 . S
C1008 H1000 0.950 . S
C1008 C1009 1.386 . S
C1008 C1010 1.391 . S
C1009 C1008 1.386 . S
C1009 C1013 1.393 . S
C1010 H1002 0.950 . S
C1010 C1008 1.391 . S
C1010 C1011 1.400 . S
C1011 C1010 1.400 . S
C1011 C1012 1.398 . S
C1011 C1017 1.491 . S
C1012 H1003 0.950 . S
C1012 C1011 1.398 . S
C1012 C1013 1.391 . S
C1013 H1001 0.950 . S
C1013 C1009 1.393 . S
C1013 C1012 1.391 . S
C1014 H1004 0.950 . S
C1014 C1015 1.386 . S
C1014 C1016 1.391 . S
C1015 C1014 1.386 . S
C1015 C1019 1.393 . S
C1016 H1005 0.950 . S
C1016 C1014 1.391 . S
C1016 C1017 1.400 . S
C1017 C1011 1.491 . S
C1017 C1016 1.400 . S
C1017 C1018 1.398 . S
C1018 H1006 0.950 . S
C1018 C1017 1.398 . S
C1018 C1019 1.391 . S
C1019 H1007 0.950 . S
C1019 C1015 1.393 . S
C1019 C1018 1.391 . S
H1020 C1028 0.951 1_556 S
H1021 C1033 0.950 . S
H1022 C1030 0.950 . S
H1023 C1032 0.950 . S
H1024 C1034 0.950 . S
H1025 C1036 0.950 . S
H1026 C1038 0.950 . S
H1027 C1039 0.950 . S
C1028 H1020 0.951 1_554 S
C1028 C1029 1.386 . S
C1028 C1030 1.391 . S
C1029 C1028 1.386 . S
C1029 C1033 1.393 . S
C1030 H1022 0.950 . S
C1030 C1028 1.391 . S
C1030 C1031 1.400 . S
C1031 C1030 1.400 . S
C1031 C1032 1.398 . S
C1031 C1037 1.491 . S
C1032 H1023 0.950 . S
C1032 C1031 1.398 . S
C1032 C1033 1.391 . S
C1033 H1021 0.950 . S
C1033 C1029 1.393 . S
C1033 C1032 1.391 . S
C1034 H1024 0.950 . S
C1034 C1035 1.386 . S
C1034 C1036 1.391 . S
C1035 C1034 1.386 . S
C1035 C1039 1.393 . S
C1036 H1025 0.950 . S
C1036 C1034 1.391 . S
C1036 C1037 1.400 . S
C1037 C1031 1.491 . S
C1037 C1036 1.400 . S
C1037 C1038 1.398 . S
C1038 H1026 0.950 . S
C1038 C1037 1.398 . S
C1038 C1039 1.391 . S
C1039 H1027 0.950 . S
C1039 C1035 1.393 . S
C1039 C1038 1.391 . S
H1040 C1048 0.950 . S
H1041 C1053 0.950 . S
H1042 C1050 0.950 . S
H1043 C1052 0.950 . S
H1044 C1054 0.950 . S
H1045 C1056 0.950 . S
H1046 C1058 0.950 . S
H1047 C1059 0.950 . S
C1048 H1040 0.950 . S
C1048 C1049 1.386 . S
C1048 C1050 1.391 . S
C1049 C1048 1.386 . S
C1049 C1053 1.393 . S
C1050 H1042 0.950 . S
C1050 C1048 1.391 . S
C1050 C1051 1.400 . S
C1051 C1050 1.400 . S
C1051 C1052 1.398 . S
C1051 C1057 1.491 . S
C1052 H1043 0.950 . S
C1052 C1051 1.398 . S
C1052 C1053 1.391 . S
C1053 H1041 0.950 . S
C1053 C1049 1.393 . S
C1053 C1052 1.391 . S
C1054 H1044 0.950 . S
C1054 C1055 1.386 . S
C1054 C1056 1.391 . S
C1055 C1054 1.386 . S
C1055 C1059 1.393 . S
C1056 H1045 0.950 . S
C1056 C1054 1.391 . S
C1056 C1057 1.400 . S
C1057 C1051 1.491 . S
C1057 C1056 1.400 . S
C1057 C1058 1.398 . S
C1058 H1046 0.950 . S
C1058 C1057 1.398 . S
C1058 C1059 1.391 . S
C1059 H1047 0.950 . S
C1059 C1055 1.393 . S
C1059 C1058 1.391 . S
H1060 C1068 0.950 . S
H1061 C1073 0.950 . S
H1062 C1070 0.950 . S
H1063 C1072 0.950 . S
H1064 C1074 0.950 . S
H1065 C1076 0.950 . S
H1066 C1078 0.950 . S
H1067 C1079 0.950 . S
C1068 H1060 0.950 . S
C1068 C1069 1.386 . S
C1068 C1070 1.391 . S
C1069 C1068 1.386 . S
C1069 C1073 1.393 . S
C1070 H1062 0.950 . S
C1070 C1068 1.391 . S
C1070 C1071 1.400 . S
C1071 C1070 1.400 . S
C1071 C1072 1.398 . S
C1071 C1077 1.491 . S
C1072 H1063 0.950 . S
C1072 C1071 1.398 . S
C1072 C1073 1.391 . S
C1073 H1061 0.950 . S
C1073 C1069 1.393 . S
C1073 C1072 1.391 . S
C1074 H1064 0.950 . S
C1074 C1075 1.386 . S
C1074 C1076 1.391 . S
C1075 C1074 1.386 . S
C1075 C1079 1.393 . S
C1076 H1065 0.950 . S
C1076 C1074 1.391 . S
C1076 C1077 1.400 . S
C1077 C1071 1.491 . S
C1077 C1076 1.400 . S
C1077 C1078 1.398 . S
C1078 H1066 0.950 . S
C1078 C1077 1.398 . S
C1078 C1079 1.391 . S
C1079 H1067 0.950 . S
C1079 C1075 1.393 . S
C1079 C1078 1.391 . S
H1080 C1088 0.950 . S
H1081 C1093 0.950 . S
H1082 C1090 0.950 . S
H1083 C1092 0.950 . S
H1084 C1094 0.950 . S
H1085 C1096 0.950 . S
H1086 C1098 0.950 . S
H1087 C1099 0.950 . S
C1088 H1080 0.950 . S
C1088 C1089 1.386 1_545 S
C1088 C1090 1.391 . S
C1089 C1088 1.386 1_565 S
C1089 C1093 1.393 . S
C1090 H1082 0.950 . S
C1090 C1088 1.391 . S
C1090 C1091 1.400 1_545 S
C1091 C1090 1.400 1_565 S
C1091 C1092 1.398 . S
C1091 C1097 1.491 1_564 S
C1092 H1083 0.950 . S
C1092 C1091 1.398 . S
C1092 C1093 1.391 . S
C1093 H1081 0.950 . S
C1093 C1089 1.393 . S
C1093 C1092 1.391 . S
C1094 H1084 0.950 . S
C1094 C1095 1.386 1_565 S
C1094 C1096 1.391 . S
C1095 C1094 1.386 1_545 S
C1095 C1099 1.393 . S
C1096 H1085 0.950 . S
C1096 C1094 1.391 . S
C1096 C1097 1.400 1_565 S
C1097 C1091 1.491 1_546 S
C1097 C1096 1.400 1_545 S
C1097 C1098 1.398 . S
C1098 H1086 0.950 . S
C1098 C1097 1.398 . S
C1098 C1099 1.391 . S
C1099 H1087 0.950 . S
C1099 C1095 1.393 . S
C1099 C1098 1.391 . S
H1100 C1108 0.950 . S
H1101 C1113 0.950 . S
H1102 C1110 0.950 . S
H1103 C1112 0.950 . S
H1104 C1114 0.950 . S
H1105 C1116 0.950 . S
H1106 C1118 0.931 1_565 S
H1107 C1119 0.950 1_565 S
C1108 H1100 0.950 . S
C1108 C1109 1.386 1_565 S
C1108 C1110 1.391 . S
C1109 C1108 1.386 1_545 S
C1109 C1113 1.393 . S
C1110 H1102 0.950 . S
C1110 C1108 1.391 . S
C1110 C1111 1.400 1_565 S
C1111 C1110 1.400 1_545 S
C1111 C1112 1.398 . S
C1111 C1117 1.491 . S
C1112 H1103 0.950 . S
C1112 C1111 1.398 . S
C1112 C1113 1.391 . S
C1113 H1101 0.950 . S
C1113 C1109 1.393 . S
C1113 C1112 1.391 . S
C1114 H1104 0.950 . S
C1114 C1115 1.386 . S
C1114 C1116 1.391 . S
C1115 C1114 1.386 . S
C1115 C1119 1.393 . S
C1116 H1105 0.950 . S
C1116 C1114 1.391 . S
C1116 C1117 1.400 . S
C1117 C1111 1.491 . S
C1117 C1116 1.400 . S
C1117 C1118 1.414 . S
C1118 H1106 0.931 1_545 S
C1118 C1117 1.414 . S
C1118 C1119 1.395 . S
C1119 H1107 0.950 1_545 S
C1119 C1115 1.393 . S
C1119 C1118 1.395 . S
H1120 C1128 0.950 1_556 S
H1121 C1133 0.950 . S
H1122 C1130 0.950 1_556 S
H1123 C1132 0.950 . S
H1124 C1134 0.950 . S
H1125 C1136 0.950 . S
H1126 C1138 0.935 1_556 S
H1127 C1139 0.950 . S
C1128 H1120 0.950 1_554 S
C1128 C1129 1.386 . S
C1128 C1130 1.391 . S
C1129 C1128 1.386 . S
C1129 C1133 1.393 . S
C1130 H1122 0.950 1_554 S
C1130 C1128 1.391 . S
C1130 C1131 1.400 . S
C1131 C1130 1.400 . S
C1131 C1132 1.398 . S
C1131 C1137 1.491 . S
C1132 H1123 0.950 . S
C1132 C1131 1.398 . S
C1132 C1133 1.391 . S
C1133 H1121 0.950 . S
C1133 C1129 1.393 . S
C1133 C1132 1.391 . S
C1134 H1124 0.950 . S
C1134 C1135 1.386 . S
C1134 C1136 1.391 . S
C1135 C1134 1.386 . S
C1135 C1139 1.393 . S
C1136 H1125 0.950 . S
C1136 C1134 1.391 . S
C1136 C1137 1.400 . S
C1137 C1131 1.491 . S
C1137 C1136 1.400 . S
C1137 C1138 1.398 . S
C1138 H1126 0.935 1_554 S
C1138 C1137 1.398 . S
C1138 C1139 1.391 . S
C1139 H1127 0.950 . S
C1139 C1135 1.393 . S
C1139 C1138 1.391 . S
H1140 C1148 0.950 . S
H1141 C1153 0.950 . S
H1142 C1150 0.950 . S
H1143 C1152 0.950 . S
H1144 C1154 0.950 . S
H1145 C1156 0.950 1_655 S
H1146 C1158 0.950 1_655 S
H1147 C1159 0.950 . S
C1148 H1140 0.950 . S
C1148 C1149 1.386 1_556 S
C1148 C1150 1.391 . S
C1149 C1148 1.386 1_554 S
C1149 C1153 1.393 . S
C1150 H1142 0.950 . S
C1150 C1148 1.391 . S
C1150 C1151 1.400 1_556 S
C1151 C1150 1.400 1_554 S
C1151 C1152 1.398 . S
C1151 C1157 1.491 . S
C1152 H1143 0.950 . S
C1152 C1151 1.398 . S
C1152 C1153 1.391 . S
C1153 H1141 0.950 . S
C1153 C1149 1.393 . S
C1153 C1152 1.391 . S
C1154 H1144 0.950 . S
C1154 C1155 1.386 . S
C1154 C1156 1.391 . S
C1155 C1154 1.386 . S
C1155 C1159 1.393 1_554 S
C1156 H1145 0.950 1_455 S
C1156 C1154 1.391 . S
C1156 C1157 1.400 1_455 S
C1157 C1151 1.491 . S
C1157 C1156 1.400 1_655 S
C1157 C1158 1.398 1_654 S
C1158 H1146 0.950 1_455 S
C1158 C1157 1.398 1_456 S
C1158 C1159 1.391 . S
C1159 H1147 0.950 . S
C1159 C1155 1.393 1_556 S
C1159 C1158 1.391 . S
H1160 C1168 0.950 . S
H1161 C1173 0.950 . S
H1162 C1170 0.950 . S
H1163 C1172 0.950 . S
H1164 C1174 0.950 . S
H1165 C1176 0.950 . S
H1166 C1178 0.950 . S
H1167 C1179 0.950 . S
C1168 H1160 0.950 . S
C1168 C1169 1.402 . S
C1168 C1170 1.391 . S
C1169 C1168 1.402 . S
C1169 C1173 1.374 1_655 S
C1170 H1162 0.950 . S
C1170 C1168 1.391 . S
C1170 C1171 1.381 1_655 S
C1171 C1170 1.381 1_455 S
C1171 C1172 1.417 . S
C1171 C1177 1.494 . S
C1172 H1163 0.950 . S
C1172 C1171 1.417 . S
C1172 C1173 1.391 . S
C1173 H1161 0.950 . S
C1173 C1169 1.374 1_455 S
C1173 C1172 1.391 . S
C1174 H1164 0.950 . S
C1174 C1175 1.386 . S
C1174 C1176 1.391 . S
C1175 C1174 1.386 . S
C1175 C1179 1.393 1_455 S
C1176 H1165 0.950 . S
C1176 C1174 1.391 . S
C1176 C1177 1.400 . S
C1177 C1171 1.494 . S
C1177 C1176 1.400 . S
C1177 C1178 1.398 1_455 S
C1178 H1166 0.950 . S
C1178 C1177 1.398 1_655 S
C1178 C1179 1.391 . S
C1179 H1167 0.950 . S
C1179 C1175 1.393 1_655 S
C1179 C1178 1.391 . S
H1180 C1188 0.950 . S
H1181 C1193 0.950 . S
H1182 C1190 0.950 . S
H1183 C1192 0.950 . S
H1184 C1194 0.950 . S
H1185 C1196 0.950 . S
H1186 C1198 0.950 . S
H1187 C1199 0.950 . S
C1188 H1180 0.950 . S
C1188 C1189 1.386 . S
C1188 C1190 1.391 . S
C1189 C1188 1.386 . S
C1189 C1193 1.393 . S
C1190 H1182 0.950 . S
C1190 C1188 1.391 . S
C1190 C1191 1.400 . S
C1191 C1190 1.400 . S
C1191 C1192 1.398 . S
C1191 C1197 1.491 . S
C1192 H1183 0.950 . S
C1192 C1191 1.398 . S
C1192 C1193 1.391 . S
C1193 H1181 0.950 . S
C1193 C1189 1.393 . S
C1193 C1192 1.391 . S
C1194 H1184 0.950 . S
C1194 C1195 1.386 . S
C1194 C1196 1.391 . S
C1195 C1194 1.386 . S
C1195 C1199 1.393 . S
C1196 H1185 0.950 . S
C1196 C1194 1.391 . S
C1196 C1197 1.400 . S
C1197 C1191 1.491 . S
C1197 C1196 1.400 . S
C1197 C1198 1.398 . S
C1198 H1186 0.950 . S
C1198 C1197 1.398 . S
C1198 C1199 1.391 . S
C1199 H1187 0.950 . S
C1199 C1195 1.393 . S
C1199 C1198 1.391 . S
H1200 C1208 0.950 . S
H1201 C1213 0.950 . S
H1202 C1210 0.950 . S
H1203 C1212 0.950 . S
H1204 C1214 0.950 . S
H1205 C1216 0.950 . S
H1206 C1218 0.950 . S
H1207 C1219 0.950 . S
C1208 H1200 0.950 . S
C1208 C1209 1.386 . S
C1208 C1210 1.391 . S
C1209 C1208 1.386 . S
C1209 C1213 1.393 . S
C1210 H1202 0.950 . S
C1210 C1208 1.391 . S
C1210 C1211 1.400 . S
C1211 C1210 1.400 . S
C1211 C1212 1.398 . S
C1211 C1217 1.491 1_655 S
C1212 H1203 0.950 . S
C1212 C1211 1.398 . S
C1212 C1213 1.391 . S
C1213 H1201 0.950 . S
C1213 C1209 1.393 . S
C1213 C1212 1.391 . S
C1214 H1204 0.950 . S
C1214 C1215 1.386 . S
C1214 C1216 1.391 . S
C1215 C1214 1.386 . S
C1215 C1219 1.393 . S
C1216 H1205 0.950 . S
C1216 C1214 1.391 . S
C1216 C1217 1.400 . S
C1217 C1211 1.491 1_455 S
C1217 C1216 1.400 . S
C1217 C1218 1.398 . S
C1218 H1206 0.950 . S
C1218 C1217 1.398 . S
C1218 C1219 1.391 . S
C1219 H1207 0.950 . S
C1219 C1215 1.393 . S
C1219 C1218 1.391 . S
H1220 C1228 0.950 . S
H1221 C1233 0.950 . S
H1222 C1230 0.950 . S
H1223 C1232 0.950 . S
H1224 C1234 0.950 . S
H1225 C1236 0.950 . S
H1226 C1238 0.961 . S
H1227 C1239 0.950 1_455 S
C1228 H1220 0.950 . S
C1228 C1229 1.386 1_455 S
C1228 C1230 1.391 . S
C1229 C1228 1.386 1_655 S
C1229 C1233 1.393 . S
C1230 H1222 0.950 . S
C1230 C1228 1.391 . S
C1230 C1231 1.400 1_455 S
C1231 C1230 1.400 1_655 S
C1231 C1232 1.398 . S
C1231 C1237 1.491 . S
C1232 H1223 0.950 . S
C1232 C1231 1.398 . S
C1232 C1233 1.391 . S
C1233 H1221 0.950 . S
C1233 C1229 1.393 . S
C1233 C1232 1.391 . S
C1234 H1224 0.950 . S
C1234 C1235 1.386 . S
C1234 C1236 1.391 . S
C1235 C1234 1.386 . S
C1235 C1239 1.393 . S
C1236 H1225 0.950 . S
C1236 C1234 1.391 . S
C1236 C1237 1.400 . S
C1237 C1231 1.491 . S
C1237 C1236 1.400 . S
C1237 C1238 1.389 1_655 S
C1238 H1226 0.961 . S
C1238 C1237 1.389 1_455 S
C1238 C1239 1.390 1_455 S
C1239 H1227 0.950 1_655 S
C1239 C1235 1.393 . S
C1239 C1238 1.390 1_655 S
H1240 C1248 0.950 . S
H1241 C1253 0.950 . S
H1242 C1250 0.950 . S
H1243 C1252 0.950 . S
H1244 C1254 0.950 . S
H1245 C1256 0.950 . S
H1246 C1258 0.950 . S
H1247 C1259 0.950 . S
C1248 H1240 0.950 . S
C1248 C1249 1.386 . S
C1248 C1250 1.391 . S
C1249 C1248 1.386 . S
C1249 C1253 1.393 . S
C1250 H1242 0.950 . S
C1250 C1248 1.391 . S
C1250 C1251 1.400 . S
C1251 C1250 1.400 . S
C1251 C1252 1.398 . S
C1251 C1257 1.491 . S
C1252 H1243 0.950 . S
C1252 C1251 1.398 . S
C1252 C1253 1.391 . S
C1253 H1241 0.950 . S
C1253 C1249 1.393 . S
C1253 C1252 1.391 . S
C1254 H1244 0.950 . S
C1254 C1255 1.386 . S
C1254 C1256 1.391 . S
C1255 C1254 1.386 . S
C1255 C1259 1.393 . S
C1256 H1245 0.950 . S
C1256 C1254 1.391 . S
C1256 C1257 1.400 . S
C1257 C1251 1.491 . S
C1257 C1256 1.400 . S
C1257 C1258 1.398 . S
C1258 H1246 0.950 . S
C1258 C1257 1.398 . S
C1258 C1259 1.391 . S
C1259 H1247 0.950 . S
C1259 C1255 1.393 . S
C1259 C1258 1.391 . S
H1260 C1268 0.950 . S
H1261 C1273 0.950 . S
H1262 C1270 0.950 . S
H1263 C1272 0.950 . S
H1264 C1274 0.950 . S
H1265 C1276 0.950 . S
H1266 C1278 0.950 . S
H1267 C1279 0.950 . S
C1268 H1260 0.950 . S
C1268 C1269 1.386 . S
C1268 C1270 1.391 . S
C1269 C1268 1.386 . S
C1269 C1273 1.393 1_655 S
C1270 H1262 0.950 . S
C1270 C1268 1.391 . S
C1270 C1271 1.400 . S
C1271 C1270 1.400 . S
C1271 C1272 1.398 1_655 S
C1271 C1277 1.491 . S
C1272 H1263 0.950 . S
C1272 C1271 1.398 1_455 S
C1272 C1273 1.391 . S
C1273 H1261 0.950 . S
C1273 C1269 1.393 1_455 S
C1273 C1272 1.391 . S
C1274 H1264 0.950 . S
C1274 C1275 1.386 1_455 S
C1274 C1276 1.391 . S
C1275 C1274 1.386 1_655 S
C1275 C1279 1.393 . S
C1276 H1265 0.950 . S
C1276 C1274 1.391 . S
C1276 C1277 1.400 1_455 S
C1277 C1271 1.491 . S
C1277 C1276 1.400 1_655 S
C1277 C1278 1.398 . S
C1278 H1266 0.950 . S
C1278 C1277 1.398 . S
C1278 C1279 1.391 . S
C1279 H1267 0.950 . S
C1279 C1275 1.393 . S
C1279 C1278 1.391 . S
H1280 C1288 0.950 . S
H1281 C1293 0.950 . S
H1282 C1290 0.950 . S
H1283 C1292 0.950 . S
H1284 C1294 0.950 . S
H1285 C1296 0.950 . S
H1286 C1298 0.950 . S
H1287 C1299 0.950 . S
C1288 H1280 0.950 . S
C1288 C1289 1.386 . S
C1288 C1290 1.391 . S
C1289 C1288 1.386 . S
C1289 C1293 1.393 . S
C1290 H1282 0.950 . S
C1290 C1288 1.391 . S
C1290 C1291 1.400 . S
C1291 C1290 1.400 . S
C1291 C1292 1.398 . S
C1291 C1297 1.491 . S
C1292 H1283 0.950 . S
C1292 C1291 1.398 . S
C1292 C1293 1.391 . S
C1293 H1281 0.950 . S
C1293 C1289 1.393 . S
C1293 C1292 1.391 . S
C1294 H1284 0.950 . S
C1294 C1295 1.386 . S
C1294 C1296 1.391 . S
C1295 C1294 1.386 . S
C1295 C1299 1.393 . S
C1296 H1285 0.950 . S
C1296 C1294 1.391 . S
C1296 C1297 1.400 . S
C1297 C1291 1.491 . S
C1297 C1296 1.400 . S
C1297 C1298 1.398 . S
C1298 H1286 0.950 . S
C1298 C1297 1.398 . S
C1298 C1299 1.391 . S
C1299 H1287 0.950 . S
C1299 C1295 1.393 . S
C1299 C1298 1.391 . S
H1300 C1308 0.950 . S
H1301 C1313 0.950 . S
H1302 C1310 0.950 . S
H1303 C1312 0.950 . S
H1304 C1314 0.950 . S
H1305 C1316 0.950 . S
H1306 C1318 0.950 . S
H1307 C1319 0.950 . S
C1308 H1300 0.950 . S
C1308 C1309 1.386 . S
C1308 C1310 1.391 . S
C1309 C1308 1.386 . S
C1309 C1313 1.393 . S
C1310 H1302 0.950 . S
C1310 C1308 1.391 . S
C1310 C1311 1.400 . S
C1311 C1310 1.400 . S
C1311 C1312 1.398 . S
C1311 C1317 1.491 . S
C1312 H1303 0.950 . S
C1312 C1311 1.398 . S
C1312 C1313 1.391 . S
C1313 H1301 0.950 . S
C1313 C1309 1.393 . S
C1313 C1312 1.391 . S
C1314 H1304 0.950 . S
C1314 C1315 1.386 . S
C1314 C1316 1.391 . S
C1315 C1314 1.386 . S
C1315 C1319 1.393 . S
C1316 H1305 0.950 . S
C1316 C1314 1.391 . S
C1316 C1317 1.400 . S
C1317 C1311 1.491 . S
C1317 C1316 1.400 . S
C1317 C1318 1.398 . S
C1318 H1306 0.950 . S
C1318 C1317 1.398 . S
C1318 C1319 1.391 . S
C1319 H1307 0.950 . S
C1319 C1315 1.393 . S
C1319 C1318 1.391 . S
H1320 C1328 0.950 . S
H1321 C1333 0.950 1_554 S
H1322 C1330 0.950 . S
H1323 C1332 0.950 1_554 S
H1324 C1334 0.950 . S
H1325 C1336 0.953 . S
H1326 C1338 0.950 . S
H1327 C1339 0.950 . S
C1328 H1320 0.950 . S
C1328 C1329 1.386 . S
C1328 C1330 1.391 . S
C1329 C1328 1.386 . S
C1329 C1333 1.393 . S
C1330 H1322 0.950 . S
C1330 C1328 1.391 . S
C1330 C1331 1.400 . S
C1331 C1330 1.400 . S
C1331 C1332 1.398 . S
C1331 C1337 1.491 . S
C1332 H1323 0.950 1_556 S
C1332 C1331 1.398 . S
C1332 C1333 1.391 . S
C1333 H1321 0.950 1_556 S
C1333 C1329 1.393 . S
C1333 C1332 1.391 . S
C1334 H1324 0.950 . S
C1334 C1335 1.386 1_554 S
C1334 C1336 1.392 . S
C1335 C1334 1.386 1_556 S
C1335 C1339 1.393 . S
C1336 H1325 0.953 . S
C1336 C1334 1.392 . S
C1336 C1337 1.396 1_554 S
C1337 C1331 1.491 . S
C1337 C1336 1.396 1_556 S
C1337 C1338 1.398 . S
C1338 H1326 0.950 . S
C1338 C1337 1.398 . S
C1338 C1339 1.391 . S
C1339 H1327 0.950 . S
C1339 C1335 1.393 . S
C1339 C1338 1.391 . S
H1340 C1348 0.950 . S
H1341 C1353 0.950 . S
H1342 C1350 0.950 . S
H1343 C1352 0.950 . S
H1344 C1354 0.950 . S
H1345 C1356 0.950 . S
H1346 C1358 0.950 . S
H1347 C1359 0.950 . S
C1348 H1340 0.950 . S
C1348 C1349 1.386 . S
C1348 C1350 1.391 . S
C1349 C1348 1.386 . S
C1349 C1353 1.393 . S
C1350 H1342 0.950 . S
C1350 C1348 1.391 . S
C1350 C1351 1.400 . S
C1351 C1350 1.400 . S
C1351 C1352 1.398 . S
C1351 C1357 1.491 . S
C1352 H1343 0.950 . S
C1352 C1351 1.398 . S
C1352 C1353 1.391 . S
C1353 H1341 0.950 . S
C1353 C1349 1.393 . S
C1353 C1352 1.391 . S
C1354 H1344 0.950 . S
C1354 C1355 1.386 . S
C1354 C1356 1.391 . S
C1355 C1354 1.386 . S
C1355 C1359 1.393 . S
C1356 H1345 0.950 . S
C1356 C1354 1.391 . S
C1356 C1357 1.400 . S
C1357 C1351 1.491 . S
C1357 C1356 1.400 . S
C1357 C1358 1.398 . S
C1358 H1346 0.950 . S
C1358 C1357 1.398 . S
C1358 C1359 1.391 . S
C1359 H1347 0.950 . S
C1359 C1355 1.393 . S
C1359 C1358 1.391 . S
H1360 C1368 0.950 . S
H1361 C1373 0.950 . S
H1362 C1370 0.950 . S
H1363 C1372 0.950 . S
H1364 C1374 0.950 . S
H1365 C1376 0.950 . S
H1366 C1378 0.950 . S
H1367 C1379 0.950 . S
C1368 H1360 0.950 . S
C1368 C1369 1.386 . S
C1368 C1370 1.391 . S
C1369 C1368 1.386 . S
C1369 C1373 1.393 . S
C1370 H1362 0.950 . S
C1370 C1368 1.391 . S
C1370 C1371 1.400 . S
C1371 C1370 1.400 . S
C1371 C1372 1.398 . S
C1371 C1377 1.491 . S
C1372 H1363 0.950 . S
C1372 C1371 1.398 . S
C1372 C1373 1.391 . S
C1373 H1361 0.950 . S
C1373 C1369 1.393 . S
C1373 C1372 1.391 . S
C1374 H1364 0.950 . S
C1374 C1375 1.386 . S
C1374 C1376 1.391 . S
C1375 C1374 1.386 . S
C1375 C1379 1.393 . S
C1376 H1365 0.950 . S
C1376 C1374 1.391 . S
C1376 C1377 1.400 . S
C1377 C1371 1.491 . S
C1377 C1376 1.400 . S
C1377 C1378 1.398 . S
C1378 H1366 0.950 . S
C1378 C1377 1.398 . S
C1378 C1379 1.391 . S
C1379 H1367 0.950 . S
C1379 C1375 1.393 . S
C1379 C1378 1.391 . S
H1380 C1388 0.950 . S
H1381 C1393 0.950 . S
H1382 C1390 0.950 . S
H1383 C1392 0.950 . S
H1384 C1394 0.950 . S
H1385 C1396 0.950 . S
H1386 C1398 0.950 . S
H1387 C1399 0.950 . S
C1388 H1380 0.950 . S
C1388 C1389 1.386 . S
C1388 C1390 1.391 . S
C1389 C1388 1.386 . S
C1389 C1393 1.393 1_545 S
C1390 H1382 0.950 . S
C1390 C1388 1.391 . S
C1390 C1391 1.409 . S
C1391 C1390 1.409 . S
C1391 C1392 1.391 1_545 S
C1391 C1397 1.490 1_546 S
C1392 H1383 0.950 . S
C1392 C1391 1.391 1_565 S
C1392 C1393 1.391 . S
C1393 H1381 0.950 . S
C1393 C1389 1.393 1_565 S
C1393 C1392 1.391 . S
C1394 H1384 0.950 . S
C1394 C1395 1.386 . S
C1394 C1396 1.391 . S
C1395 C1394 1.386 . S
C1395 C1399 1.393 1_565 S
C1396 H1385 0.950 . S
C1396 C1394 1.391 . S
C1396 C1397 1.413 . S
C1397 C1391 1.490 1_564 S
C1397 C1396 1.413 . S
C1397 C1398 1.388 1_565 S
C1398 H1386 0.950 . S
C1398 C1397 1.388 1_545 S
C1398 C1399 1.391 . S
C1399 H1387 0.950 . S
C1399 C1395 1.393 1_545 S
C1399 C1398 1.391 . S
H1400 C1408 0.950 . S
H1401 C1413 0.965 . S
H1402 C1410 0.950 . S
H1403 C1412 0.950 . S
H1404 C1414 0.950 . S
H1405 C1416 0.950 . S
H1406 C1418 0.950 . S
H1407 C1419 0.950 . S
C1408 H1400 0.950 . S
C1408 C1409 1.386 . S
C1408 C1410 1.391 . S
C1409 C1408 1.386 . S
C1409 C1413 1.375 1_565 S
C1410 H1402 0.950 . S
C1410 C1408 1.391 . S
C1410 C1411 1.400 . S
C1411 C1410 1.400 . S
C1411 C1412 1.398 1_565 S
C1411 C1417 1.491 . S
C1412 H1403 0.950 . S
C1412 C1411 1.398 1_545 S
C1412 C1413 1.393 . S
C1413 H1401 0.965 . S
C1413 C1409 1.375 1_545 S
C1413 C1412 1.393 . S
C1414 H1404 0.950 . S
C1414 C1415 1.386 1_545 S
C1414 C1416 1.391 . S
C1415 C1414 1.386 1_565 S
C1415 C1419 1.393 . S
C1416 H1405 0.950 . S
C1416 C1414 1.391 . S
C1416 C1417 1.400 1_545 S
C1417 C1411 1.491 . S
C1417 C1416 1.400 1_565 S
C1417 C1418 1.398 . S
C1418 H1406 0.950 . S
C1418 C1417 1.398 . S
C1418 C1419 1.391 . S
C1419 H1407 0.950 . S
C1419 C1415 1.393 . S
C1419 C1418 1.391 . S
H1420 C1428 0.925 1_554 S
H1421 C1433 0.950 . S
H1422 C1430 0.950 1_554 S
H1423 C1432 0.950 . S
H1424 C1434 0.950 . S
H1425 C1436 0.950 . S
H1426 C1438 0.950 1_554 S
H1427 C1439 0.950 1_554 S
C1428 H1420 0.925 1_556 S
C1428 C1429 1.386 . S
C1428 C1430 1.391 . S
C1429 C1428 1.386 . S
C1429 C1433 1.393 . S
C1430 H1422 0.950 1_556 S
C1430 C1428 1.391 . S
C1430 C1431 1.400 . S
C1431 C1430 1.400 . S
C1431 C1432 1.398 . S
C1431 C1437 1.491 . S
C1432 H1423 0.950 . S
C1432 C1431 1.398 . S
C1432 C1433 1.391 . S
C1433 H1421 0.950 . S
C1433 C1429 1.393 . S
C1433 C1432 1.391 . S
C1434 H1424 0.950 . S
C1434 C1435 1.386 . S
C1434 C1436 1.391 . S
C1435 C1434 1.386 . S
C1435 C1439 1.393 . S
C1436 H1425 0.950 . S
C1436 C1434 1.391 . S
C1436 C1437 1.400 . S
C1437 C1431 1.491 . S
C1437 C1436 1.400 . S
C1437 C1438 1.398 . S
C1438 H1426 0.950 1_556 S
C1438 C1437 1.398 . S
C1438 C1439 1.391 . S
C1439 H1427 0.950 1_556 S
C1439 C1435 1.393 . S
C1439 C1438 1.391 . S
H1440 C1448 0.949 1_554 S
H1441 C1453 0.950 . S
H1442 C1450 0.956 1_455 S
H1443 C1452 0.950 1_455 S
H1444 C1454 0.950 . S
H1445 C1456 0.950 . S
H1446 C1458 0.950 . S
H1447 C1459 0.950 . S
C1448 H1440 0.949 1_556 S
C1448 C1449 1.386 . S
C1448 C1450 1.391 . S
C1449 C1448 1.386 . S
C1449 C1453 1.393 . S
C1450 H1442 0.956 1_655 S
C1450 C1448 1.391 . S
C1450 C1451 1.400 1_655 S
C1451 C1450 1.400 1_455 S
C1451 C1452 1.398 1_455 S
C1451 C1457 1.491 . S
C1452 H1443 0.950 1_655 S
C1452 C1451 1.398 1_655 S
C1452 C1453 1.391 . S
C1453 H1441 0.950 . S
C1453 C1449 1.393 . S
C1453 C1452 1.391 . S
C1454 H1444 0.950 . S
C1454 C1455 1.386 . S
C1454 C1456 1.391 . S
C1455 C1454 1.386 . S
C1455 C1459 1.393 . S
C1456 H1445 0.950 . S
C1456 C1454 1.391 . S
C1456 C1457 1.400 . S
C1457 C1451 1.491 . S
C1457 C1456 1.400 . S
C1457 C1458 1.398 . S
C1458 H1446 0.950 . S
C1458 C1457 1.398 . S
C1458 C1459 1.391 . S
C1459 H1447 0.950 . S
C1459 C1455 1.393 . S
C1459 C1458 1.391 . S
H1460 C1468 0.950 . S
H1461 C1473 0.950 . S
H1462 C1470 0.950 . S
H1463 C1472 0.950 . S
H1464 C1474 0.950 . S
H1465 C1476 0.950 . S
H1466 C1478 0.956 . S
H1467 C1479 0.950 . S
C1468 H1460 0.950 . S
C1468 C1469 1.386 . S
C1468 C1470 1.391 . S
C1469 C1468 1.386 . S
C1469 C1473 1.393 . S
C1470 H1462 0.950 . S
C1470 C1468 1.391 . S
C1470 C1471 1.400 . S
C1471 C1470 1.400 . S
C1471 C1472 1.398 . S
C1471 C1477 1.491 . S
C1472 H1463 0.950 . S
C1472 C1471 1.398 . S
C1472 C1473 1.391 . S
C1473 H1461 0.950 . S
C1473 C1469 1.393 . S
C1473 C1472 1.391 . S
C1474 H1464 0.950 . S
C1474 C1475 1.386 . S
C1474 C1476 1.391 . S
C1475 C1474 1.386 . S
C1475 C1479 1.393 1_455 S
C1476 H1465 0.950 . S
C1476 C1474 1.391 . S
C1476 C1477 1.400 1_455 S
C1477 C1471 1.491 . S
C1477 C1476 1.400 1_655 S
C1477 C1478 1.398 . S
C1478 H1466 0.956 . S
C1478 C1477 1.398 . S
C1478 C1479 1.388 . S
C1479 H1467 0.950 . S
C1479 C1475 1.393 1_655 S
C1479 C1478 1.388 . S
H1480 C1488 0.950 . S
H1481 C1493 0.950 . S
H1482 C1490 0.950 . S
H1483 C1492 0.950 . S
H1484 C1494 0.950 . S
H1485 C1496 0.950 . S
H1486 C1498 0.950 . S
H1487 C1499 0.950 . S
C1488 H1480 0.950 . S
C1488 C1489 1.386 . S
C1488 C1490 1.391 . S
C1489 C1488 1.386 . S
C1489 C1493 1.393 . S
C1490 H1482 0.950 . S
C1490 C1488 1.391 . S
C1490 C1491 1.400 . S
C1491 C1490 1.400 . S
C1491 C1492 1.398 . S
C1491 C1497 1.491 . S
C1492 H1483 0.950 . S
C1492 C1491 1.398 . S
C1492 C1493 1.391 . S
C1493 H1481 0.950 . S
C1493 C1489 1.393 . S
C1493 C1492 1.391 . S
C1494 H1484 0.950 . S
C1494 C1495 1.386 . S
C1494 C1496 1.391 . S
C1495 C1494 1.386 . S
C1495 C1499 1.393 . S
C1496 H1485 0.950 . S
C1496 C1494 1.391 . S
C1496 C1497 1.400 . S
C1497 C1491 1.491 . S
C1497 C1496 1.400 . S
C1497 C1498 1.398 . S
C1498 H1486 0.950 . S
C1498 C1497 1.398 . S
C1498 C1499 1.391 . S
C1499 H1487 0.950 . S
C1499 C1495 1.393 . S
C1499 C1498 1.391 . S
H1500 C1508 0.950 . S
H1501 C1513 0.950 . S
H1502 C1510 0.950 . S
H1503 C1512 0.950 . S
H1504 C1514 0.950 . S
H1505 C1516 0.950 . S
H1506 C1518 0.950 . S
H1507 C1519 0.950 . S
C1508 H1500 0.950 . S
C1508 C1509 1.386 . S
C1508 C1510 1.391 . S
C1509 C1508 1.386 . S
C1509 C1513 1.393 . S
C1510 H1502 0.950 . S
C1510 C1508 1.391 . S
C1510 C1511 1.400 . S
C1511 C1510 1.400 . S
C1511 C1512 1.398 . S
C1511 C1517 1.491 1_655 S
C1512 H1503 0.950 . S
C1512 C1511 1.398 . S
C1512 C1513 1.391 . S
C1513 H1501 0.950 . S
C1513 C1509 1.393 . S
C1513 C1512 1.391 . S
C1514 H1504 0.950 . S
C1514 C1515 1.386 . S
C1514 C1516 1.391 . S
C1515 C1514 1.386 . S
C1515 C1519 1.393 . S
C1516 H1505 0.950 . S
C1516 C1514 1.391 . S
C1516 C1517 1.400 . S
C1517 C1511 1.491 1_455 S
C1517 C1516 1.400 . S
C1517 C1518 1.398 . S
C1518 H1506 0.950 . S
C1518 C1517 1.398 . S
C1518 C1519 1.391 . S
C1519 H1507 0.950 . S
C1519 C1515 1.393 . S
C1519 C1518 1.391 . S
H1520 C1528 0.950 . S
H1521 C1533 0.950 . S
H1522 C1530 0.950 . S
H1523 C1532 0.950 . S
H1524 C1534 0.950 . S
H1525 C1536 0.950 . S
H1526 C1538 0.958 . S
H1527 C1539 0.950 1_655 S
C1528 H1520 0.950 . S
C1528 C1529 1.386 . S
C1528 C1530 1.391 . S
C1529 C1528 1.386 . S
C1529 C1533 1.393 . S
C1530 H1522 0.950 . S
C1530 C1528 1.391 . S
C1530 C1531 1.400 . S
C1531 C1530 1.400 . S
C1531 C1532 1.398 . S
C1531 C1537 1.491 . S
C1532 H1523 0.950 . S
C1532 C1531 1.398 . S
C1532 C1533 1.391 . S
C1533 H1521 0.950 . S
C1533 C1529 1.393 . S
C1533 C1532 1.391 . S
C1534 H1524 0.950 . S
C1534 C1535 1.386 . S
C1534 C1536 1.391 . S
C1535 C1534 1.386 . S
C1535 C1539 1.393 . S
C1536 H1525 0.950 . S
C1536 C1534 1.391 . S
C1536 C1537 1.400 . S
C1537 C1531 1.491 . S
C1537 C1536 1.400 . S
C1537 C1538 1.398 . S
C1538 H1526 0.958 . S
C1538 C1537 1.398 . S
C1538 C1539 1.391 . S
C1539 H1527 0.950 1_455 S
C1539 C1535 1.393 . S
C1539 C1538 1.391 . S
H1540 C1548 0.950 . S
H1541 C1553 0.950 . S
H1542 C1550 0.950 . S
H1543 C1552 0.950 . S
H1544 C1554 0.950 . S
H1545 C1556 0.950 . S
H1546 C1558 0.950 . S
H1547 C1559 0.950 . S
C1548 H1540 0.950 . S
C1548 C1549 1.386 . S
C1548 C1550 1.391 . S
C1549 C1548 1.386 . S
C1549 C1553 1.393 . S
C1550 H1542 0.950 . S
C1550 C1548 1.391 . S
C1550 C1551 1.400 . S
C1551 C1550 1.400 . S
C1551 C1552 1.398 . S
C1551 C1557 1.491 . S
C1552 H1543 0.950 . S
C1552 C1551 1.398 . S
C1552 C1553 1.391 . S
C1553 H1541 0.950 . S
C1553 C1549 1.393 . S
C1553 C1552 1.391 . S
C1554 H1544 0.950 . S
C1554 C1555 1.386 . S
C1554 C1556 1.391 . S
C1555 C1554 1.386 . S
C1555 C1559 1.393 . S
C1556 H1545 0.950 . S
C1556 C1554 1.391 . S
C1556 C1557 1.400 . S
C1557 C1551 1.491 . S
C1557 C1556 1.400 . S
C1557 C1558 1.398 . S
C1558 H1546 0.950 . S
C1558 C1557 1.398 . S
C1558 C1559 1.391 . S
C1559 H1547 0.950 . S
C1559 C1555 1.393 . S
C1559 C1558 1.391 . S
H1560 C1568 0.950 . S
H1561 C1573 0.950 . S
H1562 C1570 0.950 . S
H1563 C1572 0.950 . S
H1564 C1574 0.950 . S
H1565 C1576 0.950 . S
H1566 C1578 0.950 . S
H1567 C1579 0.950 . S
C1568 H1560 0.950 . S
C1568 C1569 1.386 . S
C1568 C1570 1.391 . S
C1569 C1568 1.386 . S
C1569 C1573 1.393 . S
C1570 H1562 0.950 . S
C1570 C1568 1.391 . S
C1570 C1571 1.400 . S
C1571 C1570 1.400 . S
C1571 C1572 1.398 . S
C1571 C1577 1.491 1_545 S
C1572 H1563 0.950 . S
C1572 C1571 1.398 . S
C1572 C1573 1.391 . S
C1573 H1561 0.950 . S
C1573 C1569 1.393 . S
C1573 C1572 1.391 . S
C1574 H1564 0.950 . S
C1574 C1575 1.386 . S
C1574 C1576 1.391 . S
C1575 C1574 1.386 . S
C1575 C1579 1.393 . S
C1576 H1565 0.950 . S
C1576 C1574 1.391 . S
C1576 C1577 1.400 . S
C1577 C1571 1.491 1_565 S
C1577 C1576 1.400 . S
C1577 C1578 1.398 . S
C1578 H1566 0.950 . S
C1578 C1577 1.398 . S
C1578 C1579 1.391 . S
C1579 H1567 0.950 . S
C1579 C1575 1.393 . S
C1579 C1578 1.391 . S
H1580 C1588 0.950 1_556 S
H1581 C1593 0.950 . S
H1582 C1590 0.950 1_556 S
H1583 C1592 0.950 . S
H1584 C1594 0.950 . S
H1585 C1596 0.950 . S
H1586 C1598 0.950 1_556 S
H1587 C1599 0.950 1_556 S
C1588 H1580 0.950 1_554 S
C1588 C1589 1.386 . S
C1588 C1590 1.391 . S
C1589 C1588 1.386 . S
C1589 C1593 1.393 . S
C1590 H1582 0.950 1_554 S
C1590 C1588 1.391 . S
C1590 C1591 1.400 . S
C1591 C1590 1.400 . S
C1591 C1592 1.398 . S
C1591 C1597 1.491 . S
C1592 H1583 0.950 . S
C1592 C1591 1.398 . S
C1592 C1593 1.391 . S
C1593 H1581 0.950 . S
C1593 C1589 1.393 . S
C1593 C1592 1.391 . S
C1594 H1584 0.950 . S
C1594 C1595 1.386 . S
C1594 C1596 1.391 . S
C1595 C1594 1.386 . S
C1595 C1599 1.393 . S
C1596 H1585 0.950 . S
C1596 C1594 1.391 . S
C1596 C1597 1.400 . S
C1597 C1591 1.491 . S
C1597 C1596 1.400 . S
C1597 C1598 1.398 . S
C1598 H1586 0.950 1_554 S
C1598 C1597 1.398 . S
C1598 C1599 1.391 . S
C1599 H1587 0.950 1_554 S
C1599 C1595 1.393 . S
C1599 C1598 1.391 . S
H1600 C1608 0.950 1_455 S
H1601 C1613 0.950 . S
H1602 C1610 0.942 1_455 S
H1603 C1612 0.953 . S
H1604 C1614 0.950 . S
H1605 C1616 0.950 . S
H1606 C1618 0.933 1_455 S
H1607 C1619 0.952 . S
C1608 H1600 0.950 1_655 S
C1608 C1609 1.386 . S
C1608 C1610 1.391 . S
C1609 C1608 1.386 . S
C1609 C1613 1.393 . S
C1610 H1602 0.942 1_655 S
C1610 C1608 1.391 . S
C1610 C1611 1.420 1_545 S
C1611 C1610 1.420 1_565 S
C1611 C1612 1.398 1_565 S
C1611 C1617 1.491 . S
C1612 H1603 0.953 . S
C1612 C1611 1.398 1_545 S
C1612 C1613 1.391 . S
C1613 H1601 0.950 . S
C1613 C1609 1.393 . S
C1613 C1612 1.391 . S
C1614 H1604 0.950 . S
C1614 C1615 1.386 . S
C1614 C1616 1.391 . S
C1615 C1614 1.386 . S
C1615 C1619 1.391 1_655 S
C1616 H1605 0.950 . S
C1616 C1614 1.391 . S
C1616 C1617 1.400 . S
C1617 C1611 1.491 . S
C1617 C1616 1.400 . S
C1617 C1618 1.416 . S
C1618 H1606 0.933 1_655 S
C1618 C1617 1.416 . S
C1618 C1619 1.391 1_655 S
C1619 H1607 0.952 . S
C1619 C1615 1.391 1_455 S
C1619 C1618 1.391 1_455 S
H1620 C1628 0.950 . S
H1621 C1633 0.950 . S
H1622 C1630 0.950 . S
H1623 C1632 0.950 . S
H1624 C1634 0.950 . S
H1625 C1636 0.950 . S
H1626 C1638 0.950 . S
H1627 C1639 0.950 . S
C1628 H1620 0.950 . S
C1628 C1629 1.386 . S
C1628 C1630 1.391 . S
C1629 C1628 1.386 . S
C1629 C1633 1.393 . S
C1630 H1622 0.950 . S
C1630 C1628 1.391 . S
C1630 C1631 1.400 . S
C1631 C1630 1.400 . S
C1631 C1632 1.398 . S
C1631 C1637 1.491 . S
C1632 H1623 0.950 . S
C1632 C1631 1.398 . S
C1632 C1633 1.391 . S
C1633 H1621 0.950 . S
C1633 C1629 1.393 . S
C1633 C1632 1.391 . S
C1634 H1624 0.950 . S
C1634 C1635 1.386 . S
C1634 C1636 1.391 . S
C1635 C1634 1.386 . S
C1635 C1639 1.393 . S
C1636 H1625 0.950 . S
C1636 C1634 1.391 . S
C1636 C1637 1.400 . S
C1637 C1631 1.491 . S
C1637 C1636 1.400 . S
C1637 C1638 1.398 . S
C1638 H1626 0.950 . S
C1638 C1637 1.398 . S
C1638 C1639 1.391 . S
C1639 H1627 0.950 . S
C1639 C1635 1.393 . S
C1639 C1638 1.391 . S
H1640 C1648 0.950 . S
H1641 C1653 0.950 . S
H1642 C1650 0.950 . S
H1643 C1652 0.950 . S
H1644 C1654 0.950 . S
H1645 C1656 0.950 . S
H1646 C1658 0.950 . S
H1647 C1659 0.950 . S
C1648 H1640 0.950 . S
C1648 C1649 1.386 . S
C1648 C1650 1.391 . S
C1649 C1648 1.386 . S
C1649 C1653 1.393 . S
C1650 H1642 0.950 . S
C1650 C1648 1.391 . S
C1650 C1651 1.400 . S
C1651 C1650 1.400 . S
C1651 C1652 1.398 . S
C1651 C1657 1.491 . S
C1652 H1643 0.950 . S
C1652 C1651 1.398 . S
C1652 C1653 1.391 . S
C1653 H1641 0.950 . S
C1653 C1649 1.393 . S
C1653 C1652 1.391 . S
C1654 H1644 0.950 . S
C1654 C1655 1.386 . S
C1654 C1656 1.391 . S
C1655 C1654 1.386 . S
C1655 C1659 1.393 . S
C1656 H1645 0.950 . S
C1656 C1654 1.391 . S
C1656 C1657 1.400 1_554 S
C1657 C1651 1.491 . S
C1657 C1656 1.400 1_556 S
C1657 C1658 1.398 1_556 S
C1658 H1646 0.950 . S
C1658 C1657 1.398 1_554 S
C1658 C1659 1.391 . S
C1659 H1647 0.950 . S
C1659 C1655 1.393 . S
C1659 C1658 1.391 . S
H1660 C1668 0.950 . S
H1661 C1673 0.950 . S
H1662 C1670 0.950 . S
H1663 C1672 0.950 . S
H1664 C1674 0.950 . S
H1665 C1676 0.950 . S
H1666 C1678 0.950 . S
H1667 C1679 0.950 . S
C1668 H1660 0.950 . S
C1668 C1669 1.386 . S
C1668 C1670 1.391 . S
C1669 C1668 1.386 . S
C1669 C1673 1.393 . S
C1670 H1662 0.950 . S
C1670 C1668 1.391 . S
C1670 C1671 1.400 . S
C1671 C1670 1.400 . S
C1671 C1672 1.398 . S
C1671 C1677 1.491 . S
C1672 H1663 0.950 . S
C1672 C1671 1.398 . S
C1672 C1673 1.391 . S
C1673 H1661 0.950 . S
C1673 C1669 1.393 . S
C1673 C1672 1.391 . S
C1674 H1664 0.950 . S
C1674 C1675 1.386 . S
C1674 C1676 1.391 . S
C1675 C1674 1.386 . S
C1675 C1679 1.393 . S
C1676 H1665 0.950 . S
C1676 C1674 1.391 . S
C1676 C1677 1.400 . S
C1677 C1671 1.491 . S
C1677 C1676 1.400 . S
C1677 C1678 1.398 . S
C1678 H1666 0.950 . S
C1678 C1677 1.398 . S
C1678 C1679 1.391 . S
C1679 H1667 0.950 . S
C1679 C1675 1.393 . S
C1679 C1678 1.391 . S
H1680 C1688 0.950 . S
H1681 C1693 0.950 . S
H1682 C1690 0.950 . S
H1683 C1692 0.950 . S
H1684 C1694 0.950 . S
H1685 C1696 0.950 . S
H1686 C1698 0.950 . S
H1687 C1699 0.950 . S
C1688 H1680 0.950 . S
C1688 C1689 1.386 . S
C1688 C1690 1.391 . S
C1689 C1688 1.386 . S
C1689 C1693 1.393 . S
C1690 H1682 0.950 . S
C1690 C1688 1.391 . S
C1690 C1691 1.400 . S
C1691 C1690 1.400 . S
C1691 C1692 1.398 . S
C1691 C1697 1.491 . S
C1692 H1683 0.950 . S
C1692 C1691 1.398 . S
C1692 C1693 1.391 . S
C1693 H1681 0.950 . S
C1693 C1689 1.393 . S
C1693 C1692 1.391 . S
C1694 H1684 0.950 . S
C1694 C1695 1.386 . S
C1694 C1696 1.391 . S
C1695 C1694 1.386 . S
C1695 C1699 1.393 . S
C1696 H1685 0.950 . S
C1696 C1694 1.391 . S
C1696 C1697 1.400 . S
C1697 C1691 1.491 . S
C1697 C1696 1.400 . S
C1697 C1698 1.398 . S
C1698 H1686 0.950 . S
C1698 C1697 1.398 . S
C1698 C1699 1.391 . S
C1699 H1687 0.950 . S
C1699 C1695 1.393 . S
C1699 C1698 1.391 . S
H1700 C1708 0.950 . S
H1701 C1713 0.950 . S
H1702 C1710 0.950 . S
H1703 C1712 0.950 . S
H1704 C1714 0.950 . S
H1705 C1716 0.950 . S
H1706 C1718 0.950 . S
H1707 C1719 0.950 . S
C1708 H1700 0.950 . S
C1708 C1709 1.386 . S
C1708 C1710 1.391 . S
C1709 C1708 1.386 . S
C1709 C1713 1.393 . S
C1710 H1702 0.950 . S
C1710 C1708 1.391 . S
C1710 C1711 1.400 . S
C1711 C1710 1.400 . S
C1711 C1712 1.398 . S
C1711 C1717 1.491 . S
C1712 H1703 0.950 . S
C1712 C1711 1.398 . S
C1712 C1713 1.391 . S
C1713 H1701 0.950 . S
C1713 C1709 1.393 . S
C1713 C1712 1.391 . S
C1714 H1704 0.950 . S
C1714 C1715 1.386 . S
C1714 C1716 1.391 . S
C1715 C1714 1.386 . S
C1715 C1719 1.393 . S
C1716 H1705 0.950 . S
C1716 C1714 1.391 . S
C1716 C1717 1.400 . S
C1717 C1711 1.491 . S
C1717 C1716 1.400 . S
C1717 C1718 1.398 . S
C1718 H1706 0.950 . S
C1718 C1717 1.398 . S
C1718 C1719 1.391 . S
C1719 H1707 0.950 . S
C1719 C1715 1.393 . S
C1719 C1718 1.391 . S
H1720 C1728 0.950 . S
H1721 C1733 0.950 . S
H1722 C1730 0.950 . S
H1723 C1732 0.950 . S
H1724 C1734 0.950 . S
H1725 C1736 0.950 . S
H1726 C1738 0.950 . S
H1727 C1739 0.950 . S
C1728 H1720 0.950 . S
C1728 C1729 1.386 . S
C1728 C1730 1.391 . S
C1729 C1728 1.386 . S
C1729 C1733 1.393 . S
C1730 H1722 0.950 . S
C1730 C1728 1.391 . S
C1730 C1731 1.400 . S
C1731 C1730 1.400 . S
C1731 C1732 1.398 . S
C1731 C1737 1.491 . S
C1732 H1723 0.950 . S
C1732 C1731 1.398 . S
C1732 C1733 1.391 . S
C1733 H1721 0.950 . S
C1733 C1729 1.393 . S
C1733 C1732 1.391 . S
C1734 H1724 0.950 . S
C1734 C1735 1.386 . S
C1734 C1736 1.391 . S
C1735 C1734 1.386 . S
C1735 C1739 1.393 . S
C1736 H1725 0.950 . S
C1736 C1734 1.391 . S
C1736 C1737 1.400 . S
C1737 C1731 1.491 . S
C1737 C1736 1.400 . S
C1737 C1738 1.398 . S
C1738 H1726 0.950 . S
C1738 C1737 1.398 . S
C1738 C1739 1.391 . S
C1739 H1727 0.950 . S
C1739 C1735 1.393 . S
C1739 C1738 1.391 . S
H1740 C1748 0.950 . S
H1741 C1753 0.950 . S
H1742 C1750 0.950 . S
H1743 C1752 0.950 . S
H1744 C1754 0.950 . S
H1745 C1756 0.950 . S
H1746 C1758 0.950 . S
H1747 C1759 0.950 . S
C1748 H1740 0.950 . S
C1748 C1749 1.386 . S
C1748 C1750 1.391 . S
C1749 C1748 1.386 . S
C1749 C1753 1.393 . S
C1750 H1742 0.950 . S
C1750 C1748 1.391 . S
C1750 C1751 1.400 . S
C1751 C1750 1.400 . S
C1751 C1752 1.398 . S
C1751 C1757 1.491 1_565 S
C1752 H1743 0.950 . S
C1752 C1751 1.398 . S
C1752 C1753 1.391 . S
C1753 H1741 0.950 . S
C1753 C1749 1.393 . S
C1753 C1752 1.391 . S
C1754 H1744 0.950 . S
C1754 C1755 1.386 . S
C1754 C1756 1.391 . S
C1755 C1754 1.386 . S
C1755 C1759 1.393 . S
C1756 H1745 0.950 . S
C1756 C1754 1.391 . S
C1756 C1757 1.400 . S
C1757 C1751 1.491 1_545 S
C1757 C1756 1.400 . S
C1757 C1758 1.398 . S
C1758 H1746 0.950 . S
C1758 C1757 1.398 . S
C1758 C1759 1.391 . S
C1759 H1747 0.950 . S
C1759 C1755 1.393 . S
C1759 C1758 1.391 . S
H1760 C1768 0.950 . S
H1761 C1773 0.950 . S
H1762 C1770 0.950 . S
H1763 C1772 0.950 . S
H1764 C1774 0.950 . S
H1765 C1776 0.950 . S
H1766 C1778 0.950 . S
H1767 C1779 0.950 . S
C1768 H1760 0.950 . S
C1768 C1769 1.386 1_554 S
C1768 C1770 1.391 . S
C1769 C1768 1.386 1_556 S
C1769 C1773 1.393 . S
C1770 H1762 0.950 . S
C1770 C1768 1.391 . S
C1770 C1771 1.400 1_554 S
C1771 C1770 1.400 1_556 S
C1771 C1772 1.398 . S
C1771 C1777 1.491 . S
C1772 H1763 0.950 . S
C1772 C1771 1.398 . S
C1772 C1773 1.391 . S
C1773 H1761 0.950 . S
C1773 C1769 1.393 . S
C1773 C1772 1.391 . S
C1774 H1764 0.950 . S
C1774 C1775 1.386 . S
C1774 C1776 1.391 . S
C1775 C1774 1.386 . S
C1775 C1779 1.393 1_556 S
C1776 H1765 0.950 . S
C1776 C1774 1.391 . S
C1776 C1777 1.400 . S
C1777 C1771 1.491 . S
C1777 C1776 1.400 . S
C1777 C1778 1.398 1_556 S
C1778 H1766 0.950 . S
C1778 C1777 1.398 1_554 S
C1778 C1779 1.391 . S
C1779 H1767 0.950 . S
C1779 C1775 1.393 1_554 S
C1779 C1778 1.391 . S
H1780 C1788 0.950 . S
H1781 C1793 0.950 . S
H1782 C1790 0.950 . S
H1783 C1792 0.950 . S
H1784 C1794 0.950 . S
H1785 C1796 0.962 . S
H1786 C1798 0.952 . S
H1787 C1799 0.950 . S
C1788 H1780 0.950 . S
C1788 C1789 1.386 1_655 S
C1788 C1790 1.391 . S
C1789 C1788 1.386 1_455 S
C1789 C1793 1.393 . S
C1790 H1782 0.950 . S
C1790 C1788 1.391 . S
C1790 C1791 1.400 1_655 S
C1791 C1790 1.400 1_455 S
C1791 C1792 1.398 . S
C1791 C1797 1.491 . S
C1792 H1783 0.950 . S
C1792 C1791 1.398 . S
C1792 C1793 1.391 . S
C1793 H1781 0.950 . S
C1793 C1789 1.393 . S
C1793 C1792 1.391 . S
C1794 H1784 0.950 . S
C1794 C1795 1.386 . S
C1794 C1796 1.391 . S
C1795 C1794 1.386 . S
C1795 C1799 1.393 1_455 S
C1796 H1785 0.962 . S
C1796 C1794 1.391 . S
C1796 C1797 1.400 1_565 S
C1797 C1791 1.491 . S
C1797 C1796 1.400 1_545 S
C1797 C1798 1.398 1_445 S
C1798 H1786 0.952 . S
C1798 C1797 1.398 1_665 S
C1798 C1799 1.391 . S
C1799 H1787 0.950 . S
C1799 C1795 1.393 1_655 S
C1799 C1798 1.391 . S
H1800 C1808 0.950 . S
H1801 C1813 0.950 . S
H1802 C1810 0.950 . S
H1803 C1812 0.950 . S
H1804 C1814 0.950 . S
H1805 C1816 0.950 . S
H1806 C1818 0.950 . S
H1807 C1819 0.950 . S
C1808 H1800 0.950 . S
C1808 C1809 1.386 . S
C1808 C1810 1.391 . S
C1809 C1808 1.386 . S
C1809 C1813 1.393 . S
C1810 H1802 0.950 . S
C1810 C1808 1.391 . S
C1810 C1811 1.400 . S
C1811 C1810 1.400 . S
C1811 C1812 1.398 . S
C1811 C1817 1.491 . S
C1812 H1803 0.950 . S
C1812 C1811 1.398 . S
C1812 C1813 1.391 . S
C1813 H1801 0.950 . S
C1813 C1809 1.393 . S
C1813 C1812 1.391 . S
C1814 H1804 0.950 . S
C1814 C1815 1.386 . S
C1814 C1816 1.391 . S
C1815 C1814 1.386 . S
C1815 C1819 1.393 . S
C1816 H1805 0.950 . S
C1816 C1814 1.391 . S
C1816 C1817 1.400 . S
C1817 C1811 1.491 . S
C1817 C1816 1.400 . S
C1817 C1818 1.398 . S
C1818 H1806 0.950 . S
C1818 C1817 1.398 . S
C1818 C1819 1.391 . S
C1819 H1807 0.950 . S
C1819 C1815 1.393 . S
C1819 C1818 1.391 . S
H1820 C1828 0.950 . S
H1821 C1833 0.950 . S
H1822 C1830 0.950 . S
H1823 C1832 0.950 . S
H1824 C1834 0.950 . S
H1825 C1836 0.950 . S
H1826 C1838 0.950 . S
H1827 C1839 0.950 . S
C1828 H1820 0.950 . S
C1828 C1829 1.386 . S
C1828 C1830 1.391 . S
C1829 C1828 1.386 . S
C1829 C1833 1.393 . S
C1830 H1822 0.950 . S
C1830 C1828 1.391 . S
C1830 C1831 1.400 . S
C1831 C1830 1.400 . S
C1831 C1832 1.398 . S
C1831 C1837 1.491 . S
C1832 H1823 0.950 . S
C1832 C1831 1.398 . S
C1832 C1833 1.391 . S
C1833 H1821 0.950 . S
C1833 C1829 1.393 . S
C1833 C1832 1.391 . S
C1834 H1824 0.950 . S
C1834 C1835 1.386 . S
C1834 C1836 1.391 . S
C1835 C1834 1.386 . S
C1835 C1839 1.393 . S
C1836 H1825 0.950 . S
C1836 C1834 1.391 . S
C1836 C1837 1.400 1_556 S
C1837 C1831 1.491 . S
C1837 C1836 1.400 1_554 S
C1837 C1838 1.398 1_554 S
C1838 H1826 0.950 . S
C1838 C1837 1.398 1_556 S
C1838 C1839 1.391 . S
C1839 H1827 0.950 . S
C1839 C1835 1.393 . S
C1839 C1838 1.391 . S
H1840 C1848 0.950 . S
H1841 C1853 0.950 . S
H1842 C1850 0.950 . S
H1843 C1852 0.950 . S
H1844 C1854 0.950 . S
H1845 C1856 0.950 . S
H1846 C1858 0.950 . S
H1847 C1859 0.950 . S
C1848 H1840 0.950 . S
C1848 C1849 1.386 . S
C1848 C1850 1.391 . S
C1849 C1848 1.386 . S
C1849 C1853 1.393 . S
C1850 H1842 0.950 . S
C1850 C1848 1.391 . S
C1850 C1851 1.400 . S
C1851 C1850 1.400 . S
C1851 C1852 1.398 . S
C1851 C1857 1.491 . S
C1852 H1843 0.950 . S
C1852 C1851 1.398 . S
C1852 C1853 1.391 . S
C1853 H1841 0.950 . S
C1853 C1849 1.393 . S
C1853 C1852 1.391 . S
C1854 H1844 0.950 . S
C1854 C1855 1.386 . S
C1854 C1856 1.391 . S
C1855 C1854 1.386 . S
C1855 C1859 1.393 . S
C1856 H1845 0.950 . S
C1856 C1854 1.391 . S
C1856 C1857 1.400 . S
C1857 C1851 1.491 . S
C1857 C1856 1.400 . S
C1857 C1858 1.398 . S
C1858 H1846 0.950 . S
C1858 C1857 1.398 . S
C1858 C1859 1.391 . S
C1859 H1847 0.950 . S
C1859 C1855 1.393 . S
C1859 C1858 1.391 . S
H1860 C1868 0.950 . S
H1861 C1873 0.950 . S
H1862 C1870 0.950 . S
H1863 C1872 0.950 . S
H1864 C1874 0.950 . S
H1865 C1876 0.950 . S
H1866 C1878 0.950 . S
H1867 C1879 0.950 . S
C1868 H1860 0.950 . S
C1868 C1869 1.386 . S
C1868 C1870 1.391 . S
C1869 C1868 1.386 . S
C1869 C1873 1.393 . S
C1870 H1862 0.950 . S
C1870 C1868 1.391 . S
C1870 C1871 1.400 . S
C1871 C1870 1.400 . S
C1871 C1872 1.398 . S
C1871 C1877 1.491 . S
C1872 H1863 0.950 . S
C1872 C1871 1.398 . S
C1872 C1873 1.391 . S
C1873 H1861 0.950 . S
C1873 C1869 1.393 . S
C1873 C1872 1.391 . S
C1874 H1864 0.950 . S
C1874 C1875 1.386 . S
C1874 C1876 1.391 . S
C1875 C1874 1.386 . S
C1875 C1879 1.393 . S
C1876 H1865 0.950 . S
C1876 C1874 1.391 . S
C1876 C1877 1.400 . S
C1877 C1871 1.491 . S
C1877 C1876 1.400 . S
C1877 C1878 1.398 . S
C1878 H1866 0.950 . S
C1878 C1877 1.398 . S
C1878 C1879 1.391 . S
C1879 H1867 0.950 . S
C1879 C1875 1.393 . S
C1879 C1878 1.391 . S
H1880 C1888 0.950 . S
H1881 C1893 0.950 . S
H1882 C1890 0.950 . S
H1883 C1892 0.950 . S
H1884 C1894 0.950 . S
H1885 C1896 0.950 . S
H1886 C1898 0.950 . S
H1887 C1899 0.950 . S
C1888 H1880 0.950 . S
C1888 C1889 1.386 . S
C1888 C1890 1.391 . S
C1889 C1888 1.386 . S
C1889 C1893 1.393 . S
C1890 H1882 0.950 . S
C1890 C1888 1.391 . S
C1890 C1891 1.400 . S
C1891 C1890 1.400 . S
C1891 C1892 1.398 . S
C1891 C1897 1.491 . S
C1892 H1883 0.950 . S
C1892 C1891 1.398 . S
C1892 C1893 1.391 . S
C1893 H1881 0.950 . S
C1893 C1889 1.393 . S
C1893 C1892 1.391 . S
C1894 H1884 0.950 . S
C1894 C1895 1.386 . S
C1894 C1896 1.391 . S
C1895 C1894 1.386 . S
C1895 C1899 1.393 . S
C1896 H1885 0.950 . S
C1896 C1894 1.391 . S
C1896 C1897 1.400 . S
C1897 C1891 1.491 . S
C1897 C1896 1.400 . S
C1897 C1898 1.398 . S
C1898 H1886 0.950 . S
C1898 C1897 1.398 . S
C1898 C1899 1.391 . S
C1899 H1887 0.950 . S
C1899 C1895 1.393 . S
C1899 C1898 1.391 . S
H1900 C1908 0.950 . S
H1901 C1913 0.950 . S
H1902 C1910 0.950 . S
H1903 C1912 0.950 . S
H1904 C1914 0.950 . S
H1905 C1916 0.950 . S
H1906 C1918 0.950 . S
H1907 C1919 0.950 . S
C1908 H1900 0.950 . S
C1908 C1909 1.386 . S
C1908 C1910 1.391 . S
C1909 C1908 1.386 . S
C1909 C1913 1.393 . S
C1910 H1902 0.950 . S
C1910 C1908 1.391 . S
C1910 C1911 1.400 . S
C1911 C1910 1.400 . S
C1911 C1912 1.398 . S
C1911 C1917 1.491 . S
C1912 H1903 0.950 . S
C1912 C1911 1.398 . S
C1912 C1913 1.391 . S
C1913 H1901 0.950 . S
C1913 C1909 1.393 . S
C1913 C1912 1.391 . S
C1914 H1904 0.950 . S
C1914 C1915 1.386 . S
C1914 C1916 1.391 . S
C1915 C1914 1.386 . S
C1915 C1919 1.393 . S
C1916 H1905 0.950 . S
C1916 C1914 1.391 . S
C1916 C1917 1.400 . S
C1917 C1911 1.491 . S
C1917 C1916 1.400 . S
C1917 C1918 1.398 . S
C1918 H1906 0.950 . S
C1918 C1917 1.398 . S
C1918 C1919 1.391 . S
C1919 H1907 0.950 . S
C1919 C1915 1.393 . S
C1919 C1918 1.391 . S
H1920 C1928 0.950 . S
H1921 C1933 0.950 . S
H1922 C1930 0.950 . S
H1923 C1932 0.950 . S
H1924 C1934 0.950 . S
H1925 C1936 0.950 . S
H1926 C1938 0.950 . S
H1927 C1939 0.950 . S
C1928 H1920 0.950 . S
C1928 C1929 1.386 . S
C1928 C1930 1.391 . S
C1929 C1928 1.386 . S
C1929 C1933 1.393 . S
C1930 H1922 0.950 . S
C1930 C1928 1.391 . S
C1930 C1931 1.400 . S
C1931 C1930 1.400 . S
C1931 C1932 1.398 . S
C1931 C1937 1.491 . S
C1932 H1923 0.950 . S
C1932 C1931 1.398 . S
C1932 C1933 1.391 . S
C1933 H1921 0.950 . S
C1933 C1929 1.393 . S
C1933 C1932 1.391 . S
C1934 H1924 0.950 . S
C1934 C1935 1.386 . S
C1934 C1936 1.391 . S
C1935 C1934 1.386 . S
C1935 C1939 1.393 . S
C1936 H1925 0.950 . S
C1936 C1934 1.391 . S
C1936 C1937 1.400 . S
C1937 C1931 1.491 . S
C1937 C1936 1.400 . S
C1937 C1938 1.398 . S
C1938 H1926 0.950 . S
C1938 C1937 1.398 . S
C1938 C1939 1.391 . S
C1939 H1927 0.950 . S
C1939 C1935 1.393 . S
C1939 C1938 1.391 . S
H1940 C1948 0.950 . S
H1941 C1953 0.950 . S
H1942 C1950 0.950 . S
H1943 C1952 0.950 . S
H1944 C1954 0.950 . S
H1945 C1956 0.950 . S
H1946 C1958 0.950 . S
H1947 C1959 0.950 . S
C1948 H1940 0.950 . S
C1948 C1949 1.386 . S
C1948 C1950 1.391 . S
C1949 C1948 1.386 . S
C1949 C1953 1.393 . S
C1950 H1942 0.950 . S
C1950 C1948 1.391 . S
C1950 C1951 1.400 . S
C1951 C1950 1.400 . S
C1951 C1952 1.398 . S
C1951 C1957 1.491 . S
C1952 H1943 0.950 . S
C1952 C1951 1.398 . S
C1952 C1953 1.391 . S
C1953 H1941 0.950 . S
C1953 C1949 1.393 . S
C1953 C1952 1.391 . S
C1954 H1944 0.950 . S
C1954 C1955 1.386 . S
C1954 C1956 1.391 . S
C1955 C1954 1.386 . S
C1955 C1959 1.393 . S
C1956 H1945 0.950 . S
C1956 C1954 1.391 . S
C1956 C1957 1.400 . S
C1957 C1951 1.491 . S
C1957 C1956 1.400 . S
C1957 C1958 1.398 . S
C1958 H1946 0.950 . S
C1958 C1957 1.398 . S
C1958 C1959 1.391 . S
C1959 H1947 0.950 . S
C1959 C1955 1.393 . S
C1959 C1958 1.391 . S
H1960 C1968 0.950 . S
H1961 C1973 0.950 . S
H1962 C1970 0.950 . S
H1963 C1972 0.950 . S
H1964 C1974 0.950 . S
H1965 C1976 0.950 . S
H1966 C1978 0.950 . S
H1967 C1979 0.950 . S
C1968 H1960 0.950 . S
C1968 C1969 1.386 . S
C1968 C1970 1.391 . S
C1969 C1968 1.386 . S
C1969 C1973 1.393 . S
C1970 H1962 0.950 . S
C1970 C1968 1.391 . S
C1970 C1971 1.400 . S
C1971 C1970 1.400 . S
C1971 C1972 1.398 . S
C1971 C1977 1.491 . S
C1972 H1963 0.950 . S
C1972 C1971 1.398 . S
C1972 C1973 1.391 . S
C1973 H1961 0.950 . S
C1973 C1969 1.393 . S
C1973 C1972 1.391 . S
C1974 H1964 0.950 . S
C1974 C1975 1.386 . S
C1974 C1976 1.391 . S
C1975 C1974 1.386 . S
C1975 C1979 1.393 . S
C1976 H1965 0.950 . S
C1976 C1974 1.391 . S
C1976 C1977 1.400 . S
C1977 C1971 1.491 . S
C1977 C1976 1.400 . S
C1977 C1978 1.398 . S
C1978 H1966 0.950 . S
C1978 C1977 1.398 . S
C1978 C1979 1.391 . S
C1979 H1967 0.950 . S
C1979 C1975 1.393 . S
C1979 C1978 1.391 . S
H1980 C1988 0.950 . S
H1981 C1993 0.950 . S
H1982 C1990 0.950 . S
H1983 C1992 0.950 . S
H1984 C1994 0.950 . S
H1985 C1996 0.950 . S
H1986 C1998 0.950 . S
H1987 C1999 0.950 . S
C1988 H1980 0.950 . S
C1988 C1989 1.386 . S
C1988 C1990 1.391 . S
C1989 C1988 1.386 . S
C1989 C1993 1.393 . S
C1990 H1982 0.950 . S
C1990 C1988 1.391 . S
C1990 C1991 1.400 . S
C1991 C1990 1.400 . S
C1991 C1992 1.398 . S
C1991 C1997 1.491 . S
C1992 H1983 0.950 . S
C1992 C1991 1.398 . S
C1992 C1993 1.391 . S
C1993 H1981 0.950 . S
C1993 C1989 1.393 . S
C1993 C1992 1.391 . S
C1994 H1984 0.950 . S
C1994 C1995 1.386 . S
C1994 C1996 1.391 . S
C1995 C1994 1.386 . S
C1995 C1999 1.393 . S
C1996 H1985 0.950 . S
C1996 C1994 1.391 . S
C1996 C1997 1.400 . S
C1997 C1991 1.491 . S
C1997 C1996 1.400 . S
C1997 C1998 1.398 . S
C1998 H1986 0.950 . S
C1998 C1997 1.398 . S
C1998 C1999 1.391 . S
C1999 H1987 0.950 . S
C1999 C1995 1.393 . S
C1999 C1998 1.391 . S
H2000 C2008 0.950 . S
H2001 C2013 0.950 . S
H2002 C2010 0.950 . S
H2003 C2012 0.950 . S
H2004 C2014 0.950 . S
H2005 C2016 0.950 . S
H2006 C2018 0.950 . S
H2007 C2019 0.950 . S
C2008 H2000 0.950 . S
C2008 C2009 1.386 . S
C2008 C2010 1.391 . S
C2009 C2008 1.386 . S
C2009 C2013 1.393 . S
C2010 H2002 0.950 . S
C2010 C2008 1.391 . S
C2010 C2011 1.400 . S
C2011 C2010 1.400 . S
C2011 C2012 1.398 . S
C2011 C2017 1.491 . S
C2012 H2003 0.950 . S
C2012 C2011 1.398 . S
C2012 C2013 1.391 . S
C2013 H2001 0.950 . S
C2013 C2009 1.393 . S
C2013 C2012 1.391 . S
C2014 H2004 0.950 . S
C2014 C2015 1.386 . S
C2014 C2016 1.391 . S
C2015 C2014 1.386 . S
C2015 C2019 1.393 . S
C2016 H2005 0.950 . S
C2016 C2014 1.391 . S
C2016 C2017 1.400 . S
C2017 C2011 1.491 . S
C2017 C2016 1.400 . S
C2017 C2018 1.398 . S
C2018 H2006 0.950 . S
C2018 C2017 1.398 . S
C2018 C2019 1.391 . S
C2019 H2007 0.950 . S
C2019 C2015 1.393 . S
C2019 C2018 1.391 . S
H2020 C2028 0.950 . S
H2021 C2033 0.950 . S
H2022 C2030 0.950 . S
H2023 C2032 0.950 . S
H2024 C2034 0.950 . S
H2025 C2036 0.950 . S
H2026 C2038 0.950 . S
H2027 C2039 0.950 . S
C2028 H2020 0.950 . S
C2028 C2029 1.386 . S
C2028 C2030 1.391 . S
C2029 C2028 1.386 . S
C2029 C2033 1.393 . S
C2030 H2022 0.950 . S
C2030 C2028 1.391 . S
C2030 C2031 1.400 . S
C2031 C2030 1.400 . S
C2031 C2032 1.398 . S
C2031 C2037 1.491 . S
C2032 H2023 0.950 . S
C2032 C2031 1.398 . S
C2032 C2033 1.391 . S
C2033 H2021 0.950 . S
C2033 C2029 1.393 . S
C2033 C2032 1.391 . S
C2034 H2024 0.950 . S
C2034 C2035 1.386 . S
C2034 C2036 1.391 . S
C2035 C2034 1.386 . S
C2035 C2039 1.393 . S
C2036 H2025 0.950 . S
C2036 C2034 1.391 . S
C2036 C2037 1.400 . S
C2037 C2031 1.491 . S
C2037 C2036 1.400 . S
C2037 C2038 1.398 . S
C2038 H2026 0.950 . S
C2038 C2037 1.398 . S
C2038 C2039 1.391 . S
C2039 H2027 0.950 . S
C2039 C2035 1.393 . S
C2039 C2038 1.391 . S
H2040 C2048 0.950 . S
H2041 C2053 0.950 . S
H2042 C2050 0.950 . S
H2043 C2052 0.950 . S
H2044 C2054 0.950 . S
H2045 C2056 0.950 . S
H2046 C2058 0.950 . S
H2047 C2059 0.950 . S
C2048 H2040 0.950 . S
C2048 C2049 1.386 . S
C2048 C2050 1.391 . S
C2049 C2048 1.386 . S
C2049 C2053 1.393 . S
C2050 H2042 0.950 . S
C2050 C2048 1.391 . S
C2050 C2051 1.400 . S
C2051 C2050 1.400 . S
C2051 C2052 1.398 . S
C2051 C2057 1.491 . S
C2052 H2043 0.950 . S
C2052 C2051 1.398 . S
C2052 C2053 1.391 . S
C2053 H2041 0.950 . S
C2053 C2049 1.393 . S
C2053 C2052 1.391 . S
C2054 H2044 0.950 . S
C2054 C2055 1.386 . S
C2054 C2056 1.391 . S
C2055 C2054 1.386 . S
C2055 C2059 1.393 . S
C2056 H2045 0.950 . S
C2056 C2054 1.391 . S
C2056 C2057 1.400 . S
C2057 C2051 1.491 . S
C2057 C2056 1.400 . S
C2057 C2058 1.398 . S
C2058 H2046 0.950 . S
C2058 C2057 1.398 . S
C2058 C2059 1.391 . S
C2059 H2047 0.950 . S
C2059 C2055 1.393 . S
C2059 C2058 1.391 . S
H2060 C2068 0.950 . S
H2061 C2073 0.950 . S
H2062 C2070 0.950 . S
H2063 C2072 0.950 . S
H2064 C2074 0.950 . S
H2065 C2076 0.950 . S
H2066 C2078 0.950 . S
H2067 C2079 0.950 . S
C2068 H2060 0.950 . S
C2068 C2069 1.386 . S
C2068 C2070 1.391 . S
C2069 C2068 1.386 . S
C2069 C2073 1.393 . S
C2070 H2062 0.950 . S
C2070 C2068 1.391 . S
C2070 C2071 1.400 . S
C2071 C2070 1.400 . S
C2071 C2072 1.398 . S
C2071 C2077 1.491 . S
C2072 H2063 0.950 . S
C2072 C2071 1.398 . S
C2072 C2073 1.391 . S
C2073 H2061 0.950 . S
C2073 C2069 1.393 . S
C2073 C2072 1.391 . S
C2074 H2064 0.950 . S
C2074 C2075 1.386 . S
C2074 C2076 1.391 . S
C2075 C2074 1.386 . S
C2075 C2079 1.393 . S
C2076 H2065 0.950 . S
C2076 C2074 1.391 . S
C2076 C2077 1.400 . S
C2077 C2071 1.491 . S
C2077 C2076 1.400 . S
C2077 C2078 1.398 . S
C2078 H2066 0.950 . S
C2078 C2077 1.398 . S
C2078 C2079 1.391 . S
C2079 H2067 0.950 . S
C2079 C2075 1.393 . S
C2079 C2078 1.391 . S
H2080 C2088 0.950 . S
H2081 C2093 0.950 . S
H2082 C2090 0.950 . S
H2083 C2092 0.950 . S
H2084 C2094 0.950 . S
H2085 C2096 0.950 . S
H2086 C2098 0.950 . S
H2087 C2099 0.950 . S
C2088 H2080 0.950 . S
C2088 C2089 1.386 . S
C2088 C2090 1.391 . S
C2089 C2088 1.386 . S
C2089 C2093 1.393 . S
C2090 H2082 0.950 . S
C2090 C2088 1.391 . S
C2090 C2091 1.400 . S
C2091 C2090 1.400 . S
C2091 C2092 1.398 . S
C2091 C2097 1.491 . S
C2092 H2083 0.950 . S
C2092 C2091 1.398 . S
C2092 C2093 1.391 . S
C2093 H2081 0.950 . S
C2093 C2089 1.393 . S
C2093 C2092 1.391 . S
C2094 H2084 0.950 . S
C2094 C2095 1.386 . S
C2094 C2096 1.391 . S
C2095 C2094 1.386 . S
C2095 C2099 1.393 . S
C2096 H2085 0.950 . S
C2096 C2094 1.391 . S
C2096 C2097 1.400 . S
C2097 C2091 1.491 . S
C2097 C2096 1.400 . S
C2097 C2098 1.398 . S
C2098 H2086 0.950 . S
C2098 C2097 1.398 . S
C2098 C2099 1.391 . S
C2099 H2087 0.950 . S
C2099 C2095 1.393 . S
C2099 C2098 1.391 . S
H2100 C2108 0.950 . S
H2101 C2113 0.950 . S
H2102 C2110 0.950 . S
H2103 C2112 0.950 . S
H2104 C2114 0.950 . S
H2105 C2116 0.950 . S
H2106 C2118 0.950 . S
H2107 C2119 0.950 . S
C2108 H2100 0.950 . S
C2108 C2109 1.386 . S
C2108 C2110 1.391 . S
C2109 C2108 1.386 . S
C2109 C2113 1.393 . S
C2110 H2102 0.950 . S
C2110 C2108 1.391 . S
C2110 C2111 1.400 . S
C2111 C2110 1.400 . S
C2111 C2112 1.398 . S
C2111 C2117 1.491 . S
C2112 H2103 0.950 . S
C2112 C2111 1.398 . S
C2112 C2113 1.391 . S
C2113 H2101 0.950 . S
C2113 C2109 1.393 . S
C2113 C2112 1.391 . S
C2114 H2104 0.950 . S
C2114 C2115 1.386 . S
C2114 C2116 1.391 . S
C2115 C2114 1.386 . S
C2115 C2119 1.393 . S
C2116 H2105 0.950 . S
C2116 C2114 1.391 . S
C2116 C2117 1.400 . S
C2117 C2111 1.491 . S
C2117 C2116 1.400 . S
C2117 C2118 1.398 . S
C2118 H2106 0.950 . S
C2118 C2117 1.398 . S
C2118 C2119 1.391 . S
C2119 H2107 0.950 . S
C2119 C2115 1.393 . S
C2119 C2118 1.391 . S
H2120 C2128 0.950 . S
H2121 C2133 0.950 . S
H2122 C2130 0.950 . S
H2123 C2132 0.950 . S
H2124 C2134 0.950 . S
H2125 C2136 0.950 . S
H2126 C2138 0.950 . S
H2127 C2139 0.950 . S
C2128 H2120 0.950 . S
C2128 C2129 1.386 . S
C2128 C2130 1.391 . S
C2129 C2128 1.386 . S
C2129 C2133 1.393 . S
C2130 H2122 0.950 . S
C2130 C2128 1.391 . S
C2130 C2131 1.400 . S
C2131 C2130 1.400 . S
C2131 C2132 1.398 . S
C2131 C2137 1.491 . S
C2132 H2123 0.950 . S
C2132 C2131 1.398 . S
C2132 C2133 1.391 . S
C2133 H2121 0.950 . S
C2133 C2129 1.393 . S
C2133 C2132 1.391 . S
C2134 H2124 0.950 . S
C2134 C2135 1.386 . S
C2134 C2136 1.391 . S
C2135 C2134 1.386 . S
C2135 C2139 1.393 . S
C2136 H2125 0.950 . S
C2136 C2134 1.391 . S
C2136 C2137 1.400 . S
C2137 C2131 1.491 . S
C2137 C2136 1.400 . S
C2137 C2138 1.398 . S
C2138 H2126 0.950 . S
C2138 C2137 1.398 . S
C2138 C2139 1.391 . S
C2139 H2127 0.950 . S
C2139 C2135 1.393 . S
C2139 C2138 1.391 . S
H2140 C2148 0.950 . S
H2141 C2153 0.950 . S
H2142 C2150 0.950 . S
H2143 C2152 0.950 . S
H2144 C2154 0.950 . S
H2145 C2156 0.950 . S
H2146 C2158 0.950 . S
H2147 C2159 0.950 . S
C2148 H2140 0.950 . S
C2148 C2149 1.390 . S
C2148 C2150 1.391 1_556 S
C2149 C2148 1.390 . S
C2149 C2153 1.379 1_556 S
C2150 H2142 0.950 . S
C2150 C2148 1.391 1_554 S
C2150 C2151 1.400 . S
C2151 C2150 1.400 . S
C2151 C2152 1.398 . S
C2151 C2157 1.491 . S
C2152 H2143 0.950 . S
C2152 C2151 1.398 . S
C2152 C2153 1.391 . S
C2153 H2141 0.950 . S
C2153 C2149 1.379 1_554 S
C2153 C2152 1.391 . S
C2154 H2144 0.950 . S
C2154 C2155 1.386 . S
C2154 C2156 1.391 . S
C2155 C2154 1.386 . S
C2155 C2159 1.393 . S
C2156 H2145 0.950 . S
C2156 C2154 1.391 . S
C2156 C2157 1.400 . S
C2157 C2151 1.491 . S
C2157 C2156 1.400 . S
C2157 C2158 1.398 . S
C2158 H2146 0.950 . S
C2158 C2157 1.398 . S
C2158 C2159 1.391 . S
C2159 H2147 0.950 . S
C2159 C2155 1.393 . S
C2159 C2158 1.391 . S
H2160 C2168 0.950 . S
H2161 C2173 0.950 . S
H2162 C2170 0.950 . S
H2163 C2172 0.950 . S
H2164 C2174 0.950 . S
H2165 C2176 0.950 . S
H2166 C2178 0.950 . S
H2167 C2179 0.950 . S
C2168 H2160 0.950 . S
C2168 C2169 1.386 . S
C2168 C2170 1.391 . S
C2169 C2168 1.386 . S
C2169 C2173 1.393 . S
C2170 H2162 0.950 . S
C2170 C2168 1.391 . S
C2170 C2171 1.400 . S
C2171 C2170 1.400 . S
C2171 C2172 1.398 . S
C2171 C2177 1.491 . S
C2172 H2163 0.950 . S
C2172 C2171 1.398 . S
C2172 C2173 1.391 . S
C2173 H2161 0.950 . S
C2173 C2169 1.393 . S
C2173 C2172 1.391 . S
C2174 H2164 0.950 . S
C2174 C2175 1.386 . S
C2174 C2176 1.391 . S
C2175 C2174 1.386 . S
C2175 C2179 1.393 . S
C2176 H2165 0.950 . S
C2176 C2174 1.391 . S
C2176 C2177 1.400 . S
C2177 C2171 1.491 . S
C2177 C2176 1.400 . S
C2177 C2178 1.398 . S
C2178 H2166 0.950 . S
C2178 C2177 1.398 . S
C2178 C2179 1.391 . S
C2179 H2167 0.950 . S
C2179 C2175 1.393 . S
C2179 C2178 1.391 . S
H2180 C2188 0.950 . S
H2181 C2193 0.950 . S
H2182 C2190 0.950 . S
H2183 C2192 0.950 . S
H2184 C2194 0.950 . S
H2185 C2196 0.950 . S
H2186 C2198 0.950 . S
H2187 C2199 0.950 . S
C2188 H2180 0.950 . S
C2188 C2189 1.386 . S
C2188 C2190 1.391 . S
C2189 C2188 1.386 . S
C2189 C2193 1.393 . S
C2190 H2182 0.950 . S
C2190 C2188 1.391 . S
C2190 C2191 1.400 . S
C2191 C2190 1.400 . S
C2191 C2192 1.398 . S
C2191 C2197 1.491 . S
C2192 H2183 0.950 . S
C2192 C2191 1.398 . S
C2192 C2193 1.391 . S
C2193 H2181 0.950 . S
C2193 C2189 1.393 . S
C2193 C2192 1.391 . S
C2194 H2184 0.950 . S
C2194 C2195 1.386 . S
C2194 C2196 1.391 . S
C2195 C2194 1.386 . S
C2195 C2199 1.393 . S
C2196 H2185 0.950 . S
C2196 C2194 1.391 . S
C2196 C2197 1.400 . S
C2197 C2191 1.491 . S
C2197 C2196 1.400 . S
C2197 C2198 1.398 . S
C2198 H2186 0.950 . S
C2198 C2197 1.398 . S
C2198 C2199 1.391 . S
C2199 H2187 0.950 . S
C2199 C2195 1.393 . S
C2199 C2198 1.391 . S
H2200 C2208 0.950 . S
H2201 C2213 0.950 . S
H2202 C2210 0.950 . S
H2203 C2212 0.950 . S
H2204 C2214 0.950 . S
H2205 C2216 0.950 . S
H2206 C2218 0.950 . S
H2207 C2219 0.950 . S
C2208 H2200 0.950 . S
C2208 C2209 1.386 . S
C2208 C2210 1.391 . S
C2209 C2208 1.386 . S
C2209 C2213 1.393 . S
C2210 H2202 0.950 . S
C2210 C2208 1.391 . S
C2210 C2211 1.400 . S
C2211 C2210 1.400 . S
C2211 C2212 1.398 . S
C2211 C2217 1.491 . S
C2212 H2203 0.950 . S
C2212 C2211 1.398 . S
C2212 C2213 1.391 . S
C2213 H2201 0.950 . S
C2213 C2209 1.393 . S
C2213 C2212 1.391 . S
C2214 H2204 0.950 . S
C2214 C2215 1.386 . S
C2214 C2216 1.391 . S
C2215 C2214 1.386 . S
C2215 C2219 1.393 . S
C2216 H2205 0.950 . S
C2216 C2214 1.391 . S
C2216 C2217 1.400 . S
C2217 C2211 1.491 . S
C2217 C2216 1.400 . S
C2217 C2218 1.398 . S
C2218 H2206 0.950 . S
C2218 C2217 1.398 . S
C2218 C2219 1.391 . S
C2219 H2207 0.950 . S
C2219 C2215 1.393 . S
C2219 C2218 1.391 . S
H2220 C2228 0.950 . S
H2221 C2233 0.950 . S
H2222 C2230 0.950 . S
H2223 C2232 0.950 . S
H2224 C2234 0.950 . S
H2225 C2236 0.950 . S
H2226 C2238 0.950 . S
H2227 C2239 0.950 . S
C2228 H2220 0.950 . S
C2228 C2229 1.386 . S
C2228 C2230 1.391 . S
C2229 C2228 1.386 . S
C2229 C2233 1.393 . S
C2230 H2222 0.950 . S
C2230 C2228 1.391 . S
C2230 C2231 1.400 . S
C2231 C2230 1.400 . S
C2231 C2232 1.398 . S
C2231 C2237 1.491 . S
C2232 H2223 0.950 . S
C2232 C2231 1.398 . S
C2232 C2233 1.391 . S
C2233 H2221 0.950 . S
C2233 C2229 1.393 . S
C2233 C2232 1.391 . S
C2234 H2224 0.950 . S
C2234 C2235 1.386 . S
C2234 C2236 1.391 . S
C2235 C2234 1.386 . S
C2235 C2239 1.393 . S
C2236 H2225 0.950 . S
C2236 C2234 1.391 . S
C2236 C2237 1.400 . S
C2237 C2231 1.491 . S
C2237 C2236 1.400 . S
C2237 C2238 1.398 . S
C2238 H2226 0.950 . S
C2238 C2237 1.398 . S
C2238 C2239 1.391 . S
C2239 H2227 0.950 . S
C2239 C2235 1.393 . S
C2239 C2238 1.391 . S
H2240 C2248 0.950 . S
H2241 C2253 0.950 . S
H2242 C2250 0.950 . S
H2243 C2252 0.950 . S
H2244 C2254 0.950 . S
H2245 C2256 0.950 . S
H2246 C2258 0.950 . S
H2247 C2259 0.950 . S
C2248 H2240 0.950 . S
C2248 C2249 1.386 . S
C2248 C2250 1.391 . S
C2249 C2248 1.386 . S
C2249 C2253 1.393 . S
C2250 H2242 0.950 . S
C2250 C2248 1.391 . S
C2250 C2251 1.400 . S
C2251 C2250 1.400 . S
C2251 C2252 1.398 . S
C2251 C2257 1.491 . S
C2252 H2243 0.950 . S
C2252 C2251 1.398 . S
C2252 C2253 1.391 . S
C2253 H2241 0.950 . S
C2253 C2249 1.393 . S
C2253 C2252 1.391 . S
C2254 H2244 0.950 . S
C2254 C2255 1.386 . S
C2254 C2256 1.391 . S
C2255 C2254 1.386 . S
C2255 C2259 1.393 . S
C2256 H2245 0.950 . S
C2256 C2254 1.391 . S
C2256 C2257 1.400 . S
C2257 C2251 1.491 . S
C2257 C2256 1.400 . S
C2257 C2258 1.398 . S
C2258 H2246 0.950 . S
C2258 C2257 1.398 . S
C2258 C2259 1.391 . S
C2259 H2247 0.950 . S
C2259 C2255 1.393 . S
C2259 C2258 1.391 . S
H2260 C2268 0.950 . S
H2261 C2273 0.950 . S
H2262 C2270 0.950 . S
H2263 C2272 0.950 . S
H2264 C2274 0.950 . S
H2265 C2276 0.950 . S
H2266 C2278 0.950 . S
H2267 C2279 0.950 . S
C2268 H2260 0.950 . S
C2268 C2269 1.386 . S
C2268 C2270 1.391 . S
C2269 C2268 1.386 . S
C2269 C2273 1.393 . S
C2270 H2262 0.950 . S
C2270 C2268 1.391 . S
C2270 C2271 1.400 . S
C2271 C2270 1.400 . S
C2271 C2272 1.398 . S
C2271 C2277 1.491 . S
C2272 H2263 0.950 . S
C2272 C2271 1.398 . S
C2272 C2273 1.391 . S
C2273 H2261 0.950 . S
C2273 C2269 1.393 . S
C2273 C2272 1.391 . S
C2274 H2264 0.950 . S
C2274 C2275 1.386 . S
C2274 C2276 1.391 . S
C2275 C2274 1.386 . S
C2275 C2279 1.393 . S
C2276 H2265 0.950 . S
C2276 C2274 1.391 . S
C2276 C2277 1.400 . S
C2277 C2271 1.491 . S
C2277 C2276 1.400 . S
C2277 C2278 1.398 . S
C2278 H2266 0.950 . S
C2278 C2277 1.398 . S
C2278 C2279 1.391 . S
C2279 H2267 0.950 . S
C2279 C2275 1.393 . S
C2279 C2278 1.391 . S
H2280 C2288 0.950 . S
H2281 C2293 0.950 . S
H2282 C2290 0.950 . S
H2283 C2292 0.950 . S
H2284 C2294 0.950 . S
H2285 C2296 0.950 . S
H2286 C2298 0.950 . S
H2287 C2299 0.950 . S
C2288 H2280 0.950 . S
C2288 C2289 1.386 . S
C2288 C2290 1.391 . S
C2289 C2288 1.386 . S
C2289 C2293 1.393 . S
C2290 H2282 0.950 . S
C2290 C2288 1.391 . S
C2290 C2291 1.400 . S
C2291 C2290 1.400 . S
C2291 C2292 1.398 . S
C2291 C2297 1.491 . S
C2292 H2283 0.950 . S
C2292 C2291 1.398 . S
C2292 C2293 1.391 . S
C2293 H2281 0.950 . S
C2293 C2289 1.393 . S
C2293 C2292 1.391 . S
C2294 H2284 0.950 . S
C2294 C2295 1.386 . S
C2294 C2296 1.391 . S
C2295 C2294 1.386 . S
C2295 C2299 1.393 . S
C2296 H2285 0.950 . S
C2296 C2294 1.391 . S
C2296 C2297 1.400 . S
C2297 C2291 1.491 . S
C2297 C2296 1.400 . S
C2297 C2298 1.398 . S
C2298 H2286 0.950 . S
C2298 C2297 1.398 . S
C2298 C2299 1.391 . S
C2299 H2287 0.950 . S
C2299 C2295 1.393 . S
C2299 C2298 1.391 . S
H2300 C2308 0.950 . S
H2301 C2313 0.950 . S
H2302 C2310 0.950 . S
H2303 C2312 0.950 . S
H2304 C2314 0.950 . S
H2305 C2316 0.950 . S
H2306 C2318 0.950 . S
H2307 C2319 0.950 . S
C2308 H2300 0.950 . S
C2308 C2309 1.386 . S
C2308 C2310 1.391 . S
C2309 C2308 1.386 . S
C2309 C2313 1.393 . S
C2310 H2302 0.950 . S
C2310 C2308 1.391 . S
C2310 C2311 1.400 . S
C2311 C2310 1.400 . S
C2311 C2312 1.398 . S
C2311 C2317 1.491 . S
C2312 H2303 0.950 . S
C2312 C2311 1.398 . S
C2312 C2313 1.391 . S
C2313 H2301 0.950 . S
C2313 C2309 1.393 . S
C2313 C2312 1.391 . S
C2314 H2304 0.950 . S
C2314 C2315 1.386 . S
C2314 C2316 1.391 . S
C2315 C2314 1.386 . S
C2315 C2319 1.393 . S
C2316 H2305 0.950 . S
C2316 C2314 1.391 . S
C2316 C2317 1.400 . S
C2317 C2311 1.491 . S
C2317 C2316 1.400 . S
C2317 C2318 1.398 . S
C2318 H2306 0.950 . S
C2318 C2317 1.398 . S
C2318 C2319 1.391 . S
C2319 H2307 0.950 . S
C2319 C2315 1.393 . S
C2319 C2318 1.391 . S
H2320 C2328 0.950 . S
H2321 C2333 0.950 . S
H2322 C2330 0.950 . S
H2323 C2332 0.950 . S
H2324 C2334 0.950 . S
H2325 C2336 0.950 . S
H2326 C2338 0.950 . S
H2327 C2339 0.950 . S
C2328 H2320 0.950 . S
C2328 C2329 1.386 . S
C2328 C2330 1.391 . S
C2329 C2328 1.386 . S
C2329 C2333 1.393 . S
C2330 H2322 0.950 . S
C2330 C2328 1.391 . S
C2330 C2331 1.400 . S
C2331 C2330 1.400 . S
C2331 C2332 1.398 . S
C2331 C2337 1.491 . S
C2332 H2323 0.950 . S
C2332 C2331 1.398 . S
C2332 C2333 1.391 . S
C2333 H2321 0.950 . S
C2333 C2329 1.393 . S
C2333 C2332 1.391 . S
C2334 H2324 0.950 . S
C2334 C2335 1.386 . S
C2334 C2336 1.391 . S
C2335 C2334 1.386 . S
C2335 C2339 1.393 . S
C2336 H2325 0.950 . S
C2336 C2334 1.391 . S
C2336 C2337 1.400 . S
C2337 C2331 1.491 . S
C2337 C2336 1.400 . S
C2337 C2338 1.398 . S
C2338 H2326 0.950 . S
C2338 C2337 1.398 . S
C2338 C2339 1.391 . S
C2339 H2327 0.950 . S
C2339 C2335 1.393 . S
C2339 C2338 1.391 . S
H2340 C2348 0.950 . S
H2341 C2353 0.950 . S
H2342 C2350 0.950 . S
H2343 C2352 0.950 . S
H2344 C2354 0.950 . S
H2345 C2356 0.950 . S
H2346 C2358 0.950 . S
H2347 C2359 0.950 . S
C2348 H2340 0.950 . S
C2348 C2349 1.386 . S
C2348 C2350 1.391 . S
C2349 C2348 1.386 . S
C2349 C2353 1.393 . S
C2350 H2342 0.950 . S
C2350 C2348 1.391 . S
C2350 C2351 1.400 . S
C2351 C2350 1.400 . S
C2351 C2352 1.398 . S
C2351 C2357 1.491 . S
C2352 H2343 0.950 . S
C2352 C2351 1.398 . S
C2352 C2353 1.391 . S
C2353 H2341 0.950 . S
C2353 C2349 1.393 . S
C2353 C2352 1.391 . S
C2354 H2344 0.950 . S
C2354 C2355 1.386 . S
C2354 C2356 1.391 . S
C2355 C2354 1.386 . S
C2355 C2359 1.393 . S
C2356 H2345 0.950 . S
C2356 C2354 1.391 . S
C2356 C2357 1.400 . S
C2357 C2351 1.491 . S
C2357 C2356 1.400 . S
C2357 C2358 1.398 . S
C2358 H2346 0.950 . S
C2358 C2357 1.398 . S
C2358 C2359 1.391 . S
C2359 H2347 0.950 . S
C2359 C2355 1.393 . S
C2359 C2358 1.391 . S
H2360 C2368 0.950 . S
H2361 C2373 0.950 . S
H2362 C2370 0.950 . S
H2363 C2372 0.950 . S
H2364 C2374 0.950 . S
H2365 C2376 0.950 . S
H2366 C2378 0.950 . S
H2367 C2379 0.950 . S
C2368 H2360 0.950 . S
C2368 C2369 1.386 . S
C2368 C2370 1.391 . S
C2369 C2368 1.386 . S
C2369 C2373 1.393 . S
C2370 H2362 0.950 . S
C2370 C2368 1.391 . S
C2370 C2371 1.400 . S
C2371 C2370 1.400 . S
C2371 C2372 1.398 . S
C2371 C2377 1.491 . S
C2372 H2363 0.950 . S
C2372 C2371 1.398 . S
C2372 C2373 1.391 . S
C2373 H2361 0.950 . S
C2373 C2369 1.393 . S
C2373 C2372 1.391 . S
C2374 H2364 0.950 . S
C2374 C2375 1.386 . S
C2374 C2376 1.391 . S
C2375 C2374 1.386 . S
C2375 C2379 1.393 . S
C2376 H2365 0.950 . S
C2376 C2374 1.391 . S
C2376 C2377 1.400 . S
C2377 C2371 1.491 . S
C2377 C2376 1.400 . S
C2377 C2378 1.398 . S
C2378 H2366 0.950 . S
C2378 C2377 1.398 . S
C2378 C2379 1.391 . S
C2379 H2367 0.950 . S
C2379 C2375 1.393 . S
C2379 C2378 1.391 . S
H2380 C2388 0.950 . S
H2381 C2393 0.950 . S
H2382 C2390 0.950 . S
H2383 C2392 0.950 . S
H2384 C2394 0.950 . S
H2385 C2396 0.950 . S
H2386 C2398 0.950 . S
H2387 C2399 0.950 . S
C2388 H2380 0.950 . S
C2388 C2389 1.386 . S
C2388 C2390 1.391 . S
C2389 C2388 1.386 . S
C2389 C2393 1.393 . S
C2390 H2382 0.950 . S
C2390 C2388 1.391 . S
C2390 C2391 1.400 . S
C2391 C2390 1.400 . S
C2391 C2392 1.398 . S
C2391 C2397 1.491 . S
C2392 H2383 0.950 . S
C2392 C2391 1.398 . S
C2392 C2393 1.391 . S
C2393 H2381 0.950 . S
C2393 C2389 1.393 . S
C2393 C2392 1.391 . S
C2394 H2384 0.950 . S
C2394 C2395 1.386 . S
C2394 C2396 1.391 . S
C2395 C2394 1.386 . S
C2395 C2399 1.393 . S
C2396 H2385 0.950 . S
C2396 C2394 1.391 . S
C2396 C2397 1.400 . S
C2397 C2391 1.491 . S
C2397 C2396 1.400 . S
C2397 C2398 1.398 . S
C2398 H2386 0.950 . S
C2398 C2397 1.398 . S
C2398 C2399 1.391 . S
C2399 H2387 0.950 . S
C2399 C2395 1.393 . S
C2399 C2398 1.391 . S
H2400 C2408 0.950 . S
H2401 C2413 0.950 . S
H2402 C2410 0.950 . S
H2403 C2412 0.950 . S
H2404 C2414 0.950 . S
H2405 C2416 0.950 . S
H2406 C2418 0.950 . S
H2407 C2419 0.950 . S
C2408 H2400 0.950 . S
C2408 C2409 1.386 . S
C2408 C2410 1.391 . S
C2409 C2408 1.386 . S
C2409 C2413 1.393 . S
C2410 H2402 0.950 . S
C2410 C2408 1.391 . S
C2410 C2411 1.400 . S
C2411 C2410 1.400 . S
C2411 C2412 1.398 . S
C2411 C2417 1.491 . S
C2412 H2403 0.950 . S
C2412 C2411 1.398 . S
C2412 C2413 1.391 . S
C2413 H2401 0.950 . S
C2413 C2409 1.393 . S
C2413 C2412 1.391 . S
C2414 H2404 0.950 . S
C2414 C2415 1.386 . S
C2414 C2416 1.391 . S
C2415 C2414 1.386 . S
C2415 C2419 1.393 . S
C2416 H2405 0.950 . S
C2416 C2414 1.391 . S
C2416 C2417 1.400 . S
C2417 C2411 1.491 . S
C2417 C2416 1.400 . S
C2417 C2418 1.398 . S
C2418 H2406 0.950 . S
C2418 C2417 1.398 . S
C2418 C2419 1.391 . S
C2419 H2407 0.950 . S
C2419 C2415 1.393 . S
C2419 C2418 1.391 . S
H2420 C2428 0.950 . S
H2421 C2433 0.950 . S
H2422 C2430 0.950 . S
H2423 C2432 0.950 . S
H2424 C2434 0.950 . S
H2425 C2436 0.950 . S
H2426 C2438 0.950 . S
H2427 C2439 0.950 . S
C2428 H2420 0.950 . S
C2428 C2429 1.386 . S
C2428 C2430 1.391 . S
C2429 C2428 1.386 . S
C2429 C2433 1.393 . S
C2430 H2422 0.950 . S
C2430 C2428 1.391 . S
C2430 C2431 1.400 . S
C2431 C2430 1.400 . S
C2431 C2432 1.398 . S
C2431 C2437 1.491 . S
C2432 H2423 0.950 . S
C2432 C2431 1.398 . S
C2432 C2433 1.391 . S
C2433 H2421 0.950 . S
C2433 C2429 1.393 . S
C2433 C2432 1.391 . S
C2434 H2424 0.950 . S
C2434 C2435 1.386 . S
C2434 C2436 1.391 . S
C2435 C2434 1.386 . S
C2435 C2439 1.393 . S
C2436 H2425 0.950 . S
C2436 C2434 1.391 . S
C2436 C2437 1.400 . S
C2437 C2431 1.491 . S
C2437 C2436 1.400 . S
C2437 C2438 1.398 . S
C2438 H2426 0.950 . S
C2438 C2437 1.398 . S
C2438 C2439 1.391 . S
C2439 H2427 0.950 . S
C2439 C2435 1.393 . S
C2439 C2438 1.391 . S
H2440 C2448 0.950 . S
H2441 C2453 0.950 . S
H2442 C2450 0.950 . S
H2443 C2452 0.950 . S
H2444 C2454 0.950 . S
H2445 C2456 0.950 . S
H2446 C2458 0.950 . S
H2447 C2459 0.950 . S
C2448 H2440 0.950 . S
C2448 C2449 1.386 . S
C2448 C2450 1.391 . S
C2449 C2448 1.386 . S
C2449 C2453 1.393 . S
C2450 H2442 0.950 . S
C2450 C2448 1.391 . S
C2450 C2451 1.400 . S
C2451 C2450 1.400 . S
C2451 C2452 1.398 . S
C2451 C2457 1.491 . S
C2452 H2443 0.950 . S
C2452 C2451 1.398 . S
C2452 C2453 1.391 . S
C2453 H2441 0.950 . S
C2453 C2449 1.393 . S
C2453 C2452 1.391 . S
C2454 H2444 0.950 . S
C2454 C2455 1.386 . S
C2454 C2456 1.391 . S
C2455 C2454 1.386 . S
C2455 C2459 1.393 . S
C2456 H2445 0.950 . S
C2456 C2454 1.391 . S
C2456 C2457 1.400 . S
C2457 C2451 1.491 . S
C2457 C2456 1.400 . S
C2457 C2458 1.398 . S
C2458 H2446 0.950 . S
C2458 C2457 1.398 . S
C2458 C2459 1.391 . S
C2459 H2447 0.950 . S
C2459 C2455 1.393 . S
C2459 C2458 1.391 . S
H2460 C2468 0.950 . S
H2461 C2473 0.950 . S
H2462 C2470 0.950 . S
H2463 C2472 0.950 . S
H2464 C2474 0.950 . S
H2465 C2476 0.950 . S
H2466 C2478 0.950 . S
H2467 C2479 0.950 . S
C2468 H2460 0.950 . S
C2468 C2469 1.386 . S
C2468 C2470 1.391 . S
C2469 C2468 1.386 . S
C2469 C2473 1.393 . S
C2470 H2462 0.950 . S
C2470 C2468 1.391 . S
C2470 C2471 1.400 . S
C2471 C2470 1.400 . S
C2471 C2472 1.398 . S
C2471 C2477 1.491 . S
C2472 H2463 0.950 . S
C2472 C2471 1.398 . S
C2472 C2473 1.391 . S
C2473 H2461 0.950 . S
C2473 C2469 1.393 . S
C2473 C2472 1.391 . S
C2474 H2464 0.950 . S
C2474 C2475 1.386 . S
C2474 C2476 1.391 . S
C2475 C2474 1.386 . S
C2475 C2479 1.393 . S
C2476 H2465 0.950 . S
C2476 C2474 1.391 . S
C2476 C2477 1.400 . S
C2477 C2471 1.491 . S
C2477 C2476 1.400 . S
C2477 C2478 1.398 . S
C2478 H2466 0.950 . S
C2478 C2477 1.398 . S
C2478 C2479 1.391 . S
C2479 H2467 0.950 . S
C2479 C2475 1.393 . S
C2479 C2478 1.391 . S
H2480 C2488 0.950 . S
H2481 C2493 0.950 . S
H2482 C2490 0.950 . S
H2483 C2492 0.950 . S
H2484 C2494 0.950 . S
H2485 C2496 0.950 . S
H2486 C2498 0.950 . S
H2487 C2499 0.950 . S
C2488 H2480 0.950 . S
C2488 C2489 1.386 . S
C2488 C2490 1.391 . S
C2489 C2488 1.386 . S
C2489 C2493 1.393 . S
C2490 H2482 0.950 . S
C2490 C2488 1.391 . S
C2490 C2491 1.400 . S
C2491 C2490 1.400 . S
C2491 C2492 1.398 . S
C2491 C2497 1.491 . S
C2492 H2483 0.950 . S
C2492 C2491 1.398 . S
C2492 C2493 1.391 . S
C2493 H2481 0.950 . S
C2493 C2489 1.393 . S
C2493 C2492 1.391 . S
C2494 H2484 0.950 . S
C2494 C2495 1.386 . S
C2494 C2496 1.391 . S
C2495 C2494 1.386 . S
C2495 C2499 1.393 . S
C2496 H2485 0.950 . S
C2496 C2494 1.391 . S
C2496 C2497 1.400 . S
C2497 C2491 1.491 . S
C2497 C2496 1.400 . S
C2497 C2498 1.398 . S
C2498 H2486 0.950 . S
C2498 C2497 1.398 . S
C2498 C2499 1.391 . S
C2499 H2487 0.950 . S
C2499 C2495 1.393 . S
C2499 C2498 1.391 . S
H2500 C2508 0.950 . S
H2501 C2513 0.950 . S
H2502 C2510 0.950 . S
H2503 C2512 0.950 . S
H2504 C2514 0.950 . S
H2505 C2516 0.950 . S
H2506 C2518 0.950 . S
H2507 C2519 0.950 . S
C2508 H2500 0.950 . S
C2508 C2509 1.386 . S
C2508 C2510 1.391 . S
C2509 C2508 1.386 . S
C2509 C2513 1.393 . S
C2510 H2502 0.950 . S
C2510 C2508 1.391 . S
C2510 C2511 1.400 . S
C2511 C2510 1.400 . S
C2511 C2512 1.398 . S
C2511 C2517 1.491 . S
C2512 H2503 0.950 . S
C2512 C2511 1.398 . S
C2512 C2513 1.391 . S
C2513 H2501 0.950 . S
C2513 C2509 1.393 . S
C2513 C2512 1.391 . S
C2514 H2504 0.950 . S
C2514 C2515 1.386 . S
C2514 C2516 1.391 . S
C2515 C2514 1.386 . S
C2515 C2519 1.393 . S
C2516 H2505 0.950 . S
C2516 C2514 1.391 . S
C2516 C2517 1.400 . S
C2517 C2511 1.491 . S
C2517 C2516 1.400 . S
C2517 C2518 1.398 . S
C2518 H2506 0.950 . S
C2518 C2517 1.398 . S
C2518 C2519 1.391 . S
C2519 H2507 0.950 . S
C2519 C2515 1.393 . S
C2519 C2518 1.391 . S
H2520 C2528 0.950 . S
H2521 C2533 0.950 . S
H2522 C2530 0.950 . S
H2523 C2532 0.950 . S
H2524 C2534 0.950 . S
H2525 C2536 0.950 . S
H2526 C2538 0.950 . S
H2527 C2539 0.950 . S
C2528 H2520 0.950 . S
C2528 C2529 1.386 . S
C2528 C2530 1.391 . S
C2529 C2528 1.386 . S
C2529 C2533 1.393 . S
C2530 H2522 0.950 . S
C2530 C2528 1.391 . S
C2530 C2531 1.400 . S
C2531 C2530 1.400 . S
C2531 C2532 1.398 . S
C2531 C2537 1.491 . S
C2532 H2523 0.950 . S
C2532 C2531 1.398 . S
C2532 C2533 1.391 . S
C2533 H2521 0.950 . S
C2533 C2529 1.393 . S
C2533 C2532 1.391 . S
C2534 H2524 0.950 . S
C2534 C2535 1.386 . S
C2534 C2536 1.391 . S
C2535 C2534 1.386 . S
C2535 C2539 1.393 . S
C2536 H2525 0.950 . S
C2536 C2534 1.391 . S
C2536 C2537 1.400 . S
C2537 C2531 1.491 . S
C2537 C2536 1.400 . S
C2537 C2538 1.398 . S
C2538 H2526 0.950 . S
C2538 C2537 1.398 . S
C2538 C2539 1.391 . S
C2539 H2527 0.950 . S
C2539 C2535 1.393 . S
C2539 C2538 1.391 . S
H2540 C2548 0.950 . S
H2541 C2553 0.950 . S
H2542 C2550 0.950 . S
H2543 C2552 0.950 . S
H2544 C2554 0.950 . S
H2545 C2556 0.950 . S
H2546 C2558 0.950 . S
H2547 C2559 0.950 . S
C2548 H2540 0.950 . S
C2548 C2549 1.386 . S
C2548 C2550 1.391 . S
C2549 C2548 1.386 . S
C2549 C2553 1.393 . S
C2550 H2542 0.950 . S
C2550 C2548 1.391 . S
C2550 C2551 1.400 . S
C2551 C2550 1.400 . S
C2551 C2552 1.398 . S
C2551 C2557 1.491 . S
C2552 H2543 0.950 . S
C2552 C2551 1.398 . S
C2552 C2553 1.391 . S
C2553 H2541 0.950 . S
C2553 C2549 1.393 . S
C2553 C2552 1.391 . S
C2554 H2544 0.950 . S
C2554 C2555 1.386 . S
C2554 C2556 1.391 . S
C2555 C2554 1.386 . S
C2555 C2559 1.393 . S
C2556 H2545 0.950 . S
C2556 C2554 1.391 . S
C2556 C2557 1.400 . S
C2557 C2551 1.491 . S
C2557 C2556 1.400 . S
C2557 C2558 1.398 . S
C2558 H2546 0.950 . S
C2558 C2557 1.398 . S
C2558 C2559 1.391 . S
C2559 H2547 0.950 . S
C2559 C2555 1.393 . S
C2559 C2558 1.391 . S
H2560 C2568 0.950 . S
H2561 C2573 0.950 . S
H2562 C2570 0.950 . S
H2563 C2572 0.950 . S
H2564 C2574 0.950 . S
H2565 C2576 0.950 . S
H2566 C2578 0.950 . S
H2567 C2579 0.950 . S
C2568 H2560 0.950 . S
C2568 C2569 1.386 . S
C2568 C2570 1.391 . S
C2569 C2568 1.386 . S
C2569 C2573 1.393 . S
C2570 H2562 0.950 . S
C2570 C2568 1.391 . S
C2570 C2571 1.400 . S
C2571 C2570 1.400 . S
C2571 C2572 1.398 . S
C2571 C2577 1.491 . S
C2572 H2563 0.950 . S
C2572 C2571 1.398 . S
C2572 C2573 1.391 . S
C2573 H2561 0.950 . S
C2573 C2569 1.393 . S
C2573 C2572 1.391 . S
C2574 H2564 0.950 . S
C2574 C2575 1.386 . S
C2574 C2576 1.391 . S
C2575 C2574 1.386 . S
C2575 C2579 1.393 . S
C2576 H2565 0.950 . S
C2576 C2574 1.391 . S
C2576 C2577 1.400 . S
C2577 C2571 1.491 . S
C2577 C2576 1.400 . S
C2577 C2578 1.398 . S
C2578 H2566 0.950 . S
C2578 C2577 1.398 . S
C2578 C2579 1.391 . S
C2579 H2567 0.950 . S
C2579 C2575 1.393 . S
C2579 C2578 1.391 . S
H2580 C2588 0.950 . S
H2581 C2593 0.950 . S
H2582 C2590 0.950 . S
H2583 C2592 0.950 . S
H2584 C2594 0.950 . S
H2585 C2596 0.950 . S
H2586 C2598 0.950 . S
H2587 C2599 0.950 . S
C2588 H2580 0.950 . S
C2588 C2589 1.386 . S
C2588 C2590 1.391 . S
C2589 C2588 1.386 . S
C2589 C2593 1.393 . S
C2590 H2582 0.950 . S
C2590 C2588 1.391 . S
C2590 C2591 1.400 . S
C2591 C2590 1.400 . S
C2591 C2592 1.398 . S
C2591 C2597 1.491 . S
C2592 H2583 0.950 . S
C2592 C2591 1.398 . S
C2592 C2593 1.391 . S
C2593 H2581 0.950 . S
C2593 C2589 1.393 . S
C2593 C2592 1.391 . S
C2594 H2584 0.950 . S
C2594 C2595 1.386 . S
C2594 C2596 1.391 . S
C2595 C2594 1.386 . S
C2595 C2599 1.393 . S
C2596 H2585 0.950 . S
C2596 C2594 1.391 . S
C2596 C2597 1.400 . S
C2597 C2591 1.491 . S
C2597 C2596 1.400 . S
C2597 C2598 1.398 . S
C2598 H2586 0.950 . S
C2598 C2597 1.398 . S
C2598 C2599 1.391 . S
C2599 H2587 0.950 . S
C2599 C2595 1.393 . S
C2599 C2598 1.391 . S
H2600 C2608 0.950 . S
H2601 C2613 0.950 . S
H2602 C2610 0.950 . S
H2603 C2612 0.950 . S
H2604 C2614 0.950 . S
H2605 C2616 0.950 . S
H2606 C2618 0.950 . S
H2607 C2619 0.950 . S
C2608 H2600 0.950 . S
C2608 C2609 1.386 . S
C2608 C2610 1.391 . S
C2609 C2608 1.386 . S
C2609 C2613 1.393 . S
C2610 H2602 0.950 . S
C2610 C2608 1.391 . S
C2610 C2611 1.400 . S
C2611 C2610 1.400 . S
C2611 C2612 1.398 . S
C2611 C2617 1.491 . S
C2612 H2603 0.950 . S
C2612 C2611 1.398 . S
C2612 C2613 1.391 . S
C2613 H2601 0.950 . S
C2613 C2609 1.393 . S
C2613 C2612 1.391 . S
C2614 H2604 0.950 . S
C2614 C2615 1.386 . S
C2614 C2616 1.391 . S
C2615 C2614 1.386 . S
C2615 C2619 1.393 . S
C2616 H2605 0.950 . S
C2616 C2614 1.391 . S
C2616 C2617 1.400 . S
C2617 C2611 1.491 . S
C2617 C2616 1.400 . S
C2617 C2618 1.398 . S
C2618 H2606 0.950 . S
C2618 C2617 1.398 . S
C2618 C2619 1.391 . S
C2619 H2607 0.950 . S
C2619 C2615 1.393 . S
C2619 C2618 1.391 . S
H2620 C2628 0.950 . S
H2621 C2633 0.950 . S
H2622 C2630 0.960 . S
H2623 C2632 0.950 . S
H2624 C2634 0.950 . S
H2625 C2636 0.950 . S
H2626 C2638 0.950 . S
H2627 C2639 0.950 . S
C2628 H2620 0.950 . S
C2628 C2629 1.379 1_554 S
C2628 C2630 1.391 1_554 S
C2629 C2628 1.379 1_556 S
C2629 C2633 1.414 . S
C2630 H2622 0.960 . S
C2630 C2628 1.391 1_556 S
C2630 C2631 1.400 . S
C2631 C2630 1.400 . S
C2631 C2632 1.398 . S
C2631 C2637 1.491 . S
C2632 H2623 0.950 . S
C2632 C2631 1.398 . S
C2632 C2633 1.391 . S
C2633 H2621 0.950 . S
C2633 C2629 1.414 . S
C2633 C2632 1.391 . S
C2634 H2624 0.950 . S
C2634 C2635 1.386 . S
C2634 C2636 1.391 . S
C2635 C2634 1.386 . S
C2635 C2639 1.393 . S
C2636 H2625 0.950 . S
C2636 C2634 1.391 . S
C2636 C2637 1.400 . S
C2637 C2631 1.491 . S
C2637 C2636 1.400 . S
C2637 C2638 1.398 . S
C2638 H2626 0.950 . S
C2638 C2637 1.398 . S
C2638 C2639 1.391 . S
C2639 H2627 0.950 . S
C2639 C2635 1.393 . S
C2639 C2638 1.391 . S
H2640 C2648 0.950 . S
H2641 C2653 0.950 . S
H2642 C2650 0.950 . S
H2643 C2652 0.950 . S
H2644 C2654 0.950 . S
H2645 C2656 0.950 . S
H2646 C2658 0.950 . S
H2647 C2659 0.950 . S
C2648 H2640 0.950 . S
C2648 C2649 1.386 . S
C2648 C2650 1.391 . S
C2649 C2648 1.386 . S
C2649 C2653 1.393 . S
C2650 H2642 0.950 . S
C2650 C2648 1.391 . S
C2650 C2651 1.400 . S
C2651 C2650 1.400 . S
C2651 C2652 1.398 . S
C2651 C2657 1.491 . S
C2652 H2643 0.950 . S
C2652 C2651 1.398 . S
C2652 C2653 1.391 . S
C2653 H2641 0.950 . S
C2653 C2649 1.393 . S
C2653 C2652 1.391 . S
C2654 H2644 0.950 . S
C2654 C2655 1.386 . S
C2654 C2656 1.391 . S
C2655 C2654 1.386 . S
C2655 C2659 1.393 . S
C2656 H2645 0.950 . S
C2656 C2654 1.391 . S
C2656 C2657 1.400 . S
C2657 C2651 1.491 . S
C2657 C2656 1.400 . S
C2657 C2658 1.398 . S
C2658 H2646 0.950 . S
C2658 C2657 1.398 . S
C2658 C2659 1.391 . S
C2659 H2647 0.950 . S
C2659 C2655 1.393 . S
C2659 C2658 1.391 . S
H2660 C2668 0.950 . S
H2661 C2673 0.950 . S
H2662 C2670 0.950 . S
H2663 C2672 0.950 . S
H2664 C2674 0.950 . S
H2665 C2676 0.950 . S
H2666 C2678 0.950 . S
H2667 C2679 0.950 . S
C2668 H2660 0.950 . S
C2668 C2669 1.386 . S
C2668 C2670 1.391 . S
C2669 C2668 1.386 . S
C2669 C2673 1.393 . S
C2670 H2662 0.950 . S
C2670 C2668 1.391 . S
C2670 C2671 1.400 . S
C2671 C2670 1.400 . S
C2671 C2672 1.398 . S
C2671 C2677 1.491 . S
C2672 H2663 0.950 . S
C2672 C2671 1.398 . S
C2672 C2673 1.391 . S
C2673 H2661 0.950 . S
C2673 C2669 1.393 . S
C2673 C2672 1.391 . S
C2674 H2664 0.950 . S
C2674 C2675 1.386 . S
C2674 C2676 1.391 . S
C2675 C2674 1.386 . S
C2675 C2679 1.393 . S
C2676 H2665 0.950 . S
C2676 C2674 1.391 . S
C2676 C2677 1.400 . S
C2677 C2671 1.491 . S
C2677 C2676 1.400 . S
C2677 C2678 1.398 . S
C2678 H2666 0.950 . S
C2678 C2677 1.398 . S
C2678 C2679 1.391 . S
C2679 H2667 0.950 . S
C2679 C2675 1.393 . S
C2679 C2678 1.391 . S
H2680 C2688 0.950 . S
H2681 C2693 0.950 . S
H2682 C2690 0.950 . S
H2683 C2692 0.950 . S
H2684 C2694 0.950 . S
H2685 C2696 0.950 . S
H2686 C2698 0.950 . S
H2687 C2699 0.950 . S
C2688 H2680 0.950 . S
C2688 C2689 1.386 . S
C2688 C2690 1.391 . S
C2689 C2688 1.386 . S
C2689 C2693 1.393 . S
C2690 H2682 0.950 . S
C2690 C2688 1.391 . S
C2690 C2691 1.400 . S
C2691 C2690 1.400 . S
C2691 C2692 1.398 . S
C2691 C2697 1.491 . S
C2692 H2683 0.950 . S
C2692 C2691 1.398 . S
C2692 C2693 1.391 . S
C2693 H2681 0.950 . S
C2693 C2689 1.393 . S
C2693 C2692 1.391 . S
C2694 H2684 0.950 . S
C2694 C2695 1.386 . S
C2694 C2696 1.391 . S
C2695 C2694 1.386 . S
C2695 C2699 1.393 . S
C2696 H2685 0.950 . S
C2696 C2694 1.391 . S
C2696 C2697 1.400 . S
C2697 C2691 1.491 . S
C2697 C2696 1.400 . S
C2697 C2698 1.398 . S
C2698 H2686 0.950 . S
C2698 C2697 1.398 . S
C2698 C2699 1.391 . S
C2699 H2687 0.950 . S
C2699 C2695 1.393 . S
C2699 C2698 1.391 . S
H2700 C2708 0.950 . S
H2701 C2713 0.950 . S
H2702 C2710 0.950 . S
H2703 C2712 0.950 . S
H2704 C2714 0.950 . S
H2705 C2716 0.950 . S
H2706 C2718 0.950 . S
H2707 C2719 0.950 . S
C2708 H2700 0.950 . S
C2708 C2709 1.386 . S
C2708 C2710 1.391 . S
C2709 C2708 1.386 . S
C2709 C2713 1.393 . S
C2710 H2702 0.950 . S
C2710 C2708 1.391 . S
C2710 C2711 1.400 . S
C2711 C2710 1.400 . S
C2711 C2712 1.398 . S
C2711 C2717 1.491 . S
C2712 H2703 0.950 . S
C2712 C2711 1.398 . S
C2712 C2713 1.391 . S
C2713 H2701 0.950 . S
C2713 C2709 1.393 . S
C2713 C2712 1.391 . S
C2714 H2704 0.950 . S
C2714 C2715 1.386 . S
C2714 C2716 1.391 . S
C2715 C2714 1.386 . S
C2715 C2719 1.393 . S
C2716 H2705 0.950 . S
C2716 C2714 1.391 . S
C2716 C2717 1.400 . S
C2717 C2711 1.491 . S
C2717 C2716 1.400 . S
C2717 C2718 1.398 . S
C2718 H2706 0.950 . S
C2718 C2717 1.398 . S
C2718 C2719 1.391 . S
C2719 H2707 0.950 . S
C2719 C2715 1.393 . S
C2719 C2718 1.391 . S
H2720 C2728 0.950 . S
H2721 C2733 0.950 . S
H2722 C2730 0.950 . S
H2723 C2732 0.950 . S
H2724 C2734 0.950 . S
H2725 C2736 0.950 . S
H2726 C2738 0.950 . S
H2727 C2739 0.950 . S
C2728 H2720 0.950 . S
C2728 C2729 1.386 . S
C2728 C2730 1.391 . S
C2729 C2728 1.386 . S
C2729 C2733 1.393 . S
C2730 H2722 0.950 . S
C2730 C2728 1.391 . S
C2730 C2731 1.400 . S
C2731 C2730 1.400 . S
C2731 C2732 1.398 . S
C2731 C2737 1.491 . S
C2732 H2723 0.950 . S
C2732 C2731 1.398 . S
C2732 C2733 1.391 . S
C2733 H2721 0.950 . S
C2733 C2729 1.393 . S
C2733 C2732 1.391 . S
C2734 H2724 0.950 . S
C2734 C2735 1.386 . S
C2734 C2736 1.391 . S
C2735 C2734 1.386 . S
C2735 C2739 1.393 . S
C2736 H2725 0.950 . S
C2736 C2734 1.391 . S
C2736 C2737 1.400 . S
C2737 C2731 1.491 . S
C2737 C2736 1.400 . S
C2737 C2738 1.398 . S
C2738 H2726 0.950 . S
C2738 C2737 1.398 . S
C2738 C2739 1.391 . S
C2739 H2727 0.950 . S
C2739 C2735 1.393 . S
C2739 C2738 1.391 . S
H2740 C2748 0.950 . S
H2741 C2753 0.950 . S
H2742 C2750 0.950 . S
H2743 C2752 0.950 . S
H2744 C2754 0.950 . S
H2745 C2756 0.950 . S
H2746 C2758 0.950 . S
H2747 C2759 0.950 . S
C2748 H2740 0.950 . S
C2748 C2749 1.386 . S
C2748 C2750 1.391 . S
C2749 C2748 1.386 . S
C2749 C2753 1.393 . S
C2750 H2742 0.950 . S
C2750 C2748 1.391 . S
C2750 C2751 1.400 . S
C2751 C2750 1.400 . S
C2751 C2752 1.398 . S
C2751 C2757 1.491 . S
C2752 H2743 0.950 . S
C2752 C2751 1.398 . S
C2752 C2753 1.391 . S
C2753 H2741 0.950 . S
C2753 C2749 1.393 . S
C2753 C2752 1.391 . S
C2754 H2744 0.950 . S
C2754 C2755 1.386 . S
C2754 C2756 1.391 . S
C2755 C2754 1.386 . S
C2755 C2759 1.393 . S
C2756 H2745 0.950 . S
C2756 C2754 1.391 . S
C2756 C2757 1.400 . S
C2757 C2751 1.491 . S
C2757 C2756 1.400 . S
C2757 C2758 1.398 . S
C2758 H2746 0.950 . S
C2758 C2757 1.398 . S
C2758 C2759 1.391 . S
C2759 H2747 0.950 . S
C2759 C2755 1.393 . S
C2759 C2758 1.391 . S
H2760 C2768 0.950 . S
H2761 C2773 0.950 . S
H2762 C2770 0.950 . S
H2763 C2772 0.950 . S
H2764 C2774 0.950 . S
H2765 C2776 0.950 . S
H2766 C2778 0.950 . S
H2767 C2779 0.950 . S
C2768 H2760 0.950 . S
C2768 C2769 1.386 . S
C2768 C2770 1.391 . S
C2769 C2768 1.386 . S
C2769 C2773 1.393 . S
C2770 H2762 0.950 . S
C2770 C2768 1.391 . S
C2770 C2771 1.400 . S
C2771 C2770 1.400 . S
C2771 C2772 1.398 . S
C2771 C2777 1.491 . S
C2772 H2763 0.950 . S
C2772 C2771 1.398 . S
C2772 C2773 1.391 . S
C2773 H2761 0.950 . S
C2773 C2769 1.393 . S
C2773 C2772 1.391 . S
C2774 H2764 0.950 . S
C2774 C2775 1.386 . S
C2774 C2776 1.391 . S
C2775 C2774 1.386 . S
C2775 C2779 1.393 . S
C2776 H2765 0.950 . S
C2776 C2774 1.391 . S
C2776 C2777 1.400 . S
C2777 C2771 1.491 . S
C2777 C2776 1.400 . S
C2777 C2778 1.398 . S
C2778 H2766 0.950 . S
C2778 C2777 1.398 . S
C2778 C2779 1.391 . S
C2779 H2767 0.950 . S
C2779 C2775 1.393 . S
C2779 C2778 1.391 . S
H2780 C2788 0.950 . S
H2781 C2793 0.950 . S
H2782 C2790 0.950 . S
H2783 C2792 0.950 . S
H2784 C2794 0.950 . S
H2785 C2796 0.950 . S
H2786 C2798 0.950 . S
H2787 C2799 0.950 . S
C2788 H2780 0.950 . S
C2788 C2789 1.386 . S
C2788 C2790 1.391 . S
C2789 C2788 1.386 . S
C2789 C2793 1.393 . S
C2790 H2782 0.950 . S
C2790 C2788 1.391 . S
C2790 C2791 1.400 . S
C2791 C2790 1.400 . S
C2791 C2792 1.398 . S
C2791 C2797 1.491 . S
C2792 H2783 0.950 . S
C2792 C2791 1.398 . S
C2792 C2793 1.391 . S
C2793 H2781 0.950 . S
C2793 C2789 1.393 . S
C2793 C2792 1.391 . S
C2794 H2784 0.950 . S
C2794 C2795 1.386 . S
C2794 C2796 1.391 . S
C2795 C2794 1.386 . S
C2795 C2799 1.393 . S
C2796 H2785 0.950 . S
C2796 C2794 1.391 . S
C2796 C2797 1.400 . S
C2797 C2791 1.491 . S
C2797 C2796 1.400 . S
C2797 C2798 1.398 . S
C2798 H2786 0.950 . S
C2798 C2797 1.398 . S
C2798 C2799 1.391 . S
C2799 H2787 0.950 . S
C2799 C2795 1.393 . S
C2799 C2798 1.391 . S
H2800 C2808 0.950 . S
H2801 C2813 0.950 . S
H2802 C2810 0.950 . S
H2803 C2812 0.950 . S
H2804 C2814 0.950 . S
H2805 C2816 0.950 . S
H2806 C2818 0.950 . S
H2807 C2819 0.950 . S
C2808 H2800 0.950 . S
C2808 C2809 1.386 . S
C2808 C2810 1.391 . S
C2809 C2808 1.386 . S
C2809 C2813 1.393 . S
C2810 H2802 0.950 . S
C2810 C2808 1.391 . S
C2810 C2811 1.400 . S
C2811 C2810 1.400 . S
C2811 C2812 1.398 . S
C2811 C2817 1.491 . S
C2812 H2803 0.950 . S
C2812 C2811 1.398 . S
C2812 C2813 1.391 . S
C2813 H2801 0.950 . S
C2813 C2809 1.393 . S
C2813 C2812 1.391 . S
C2814 H2804 0.950 . S
C2814 C2815 1.386 . S
C2814 C2816 1.391 . S
C2815 C2814 1.386 . S
C2815 C2819 1.393 . S
C2816 H2805 0.950 . S
C2816 C2814 1.391 . S
C2816 C2817 1.400 . S
C2817 C2811 1.491 . S
C2817 C2816 1.400 . S
C2817 C2818 1.398 . S
C2818 H2806 0.950 . S
C2818 C2817 1.398 . S
C2818 C2819 1.391 . S
C2819 H2807 0.950 . S
C2819 C2815 1.393 . S
C2819 C2818 1.391 . S
H2820 C2828 0.950 . S
H2821 C2833 0.950 . S
H2822 C2830 0.950 . S
H2823 C2832 0.950 . S
H2824 C2834 0.950 . S
H2825 C2836 0.950 . S
H2826 C2838 0.950 . S
H2827 C2839 0.950 . S
C2828 H2820 0.950 . S
C2828 C2829 1.386 . S
C2828 C2830 1.391 . S
C2829 C2828 1.386 . S
C2829 C2833 1.393 . S
C2830 H2822 0.950 . S
C2830 C2828 1.391 . S
C2830 C2831 1.400 . S
C2831 C2830 1.400 . S
C2831 C2832 1.398 . S
C2831 C2837 1.491 . S
C2832 H2823 0.950 . S
C2832 C2831 1.398 . S
C2832 C2833 1.391 . S
C2833 H2821 0.950 . S
C2833 C2829 1.393 . S
C2833 C2832 1.391 . S
C2834 H2824 0.950 . S
C2834 C2835 1.386 . S
C2834 C2836 1.391 . S
C2835 C2834 1.386 . S
C2835 C2839 1.393 . S
C2836 H2825 0.950 . S
C2836 C2834 1.391 . S
C2836 C2837 1.400 . S
C2837 C2831 1.491 . S
C2837 C2836 1.400 . S
C2837 C2838 1.398 . S
C2838 H2826 0.950 . S
C2838 C2837 1.398 . S
C2838 C2839 1.391 . S
C2839 H2827 0.950 . S
C2839 C2835 1.393 . S
C2839 C2838 1.391 . S
H2840 C2848 0.950 . S
H2841 C2853 0.950 . S
H2842 C2850 0.950 . S
H2843 C2852 0.950 . S
H2844 C2854 0.950 . S
H2845 C2856 0.950 . S
H2846 C2858 0.950 . S
H2847 C2859 0.950 . S
C2848 H2840 0.950 . S
C2848 C2849 1.386 . S
C2848 C2850 1.391 . S
C2849 C2848 1.386 . S
C2849 C2853 1.393 . S
C2850 H2842 0.950 . S
C2850 C2848 1.391 . S
C2850 C2851 1.400 . S
C2851 C2850 1.400 . S
C2851 C2852 1.398 . S
C2851 C2857 1.491 . S
C2852 H2843 0.950 . S
C2852 C2851 1.398 . S
C2852 C2853 1.391 . S
C2853 H2841 0.950 . S
C2853 C2849 1.393 . S
C2853 C2852 1.391 . S
C2854 H2844 0.950 . S
C2854 C2855 1.386 . S
C2854 C2856 1.391 . S
C2855 C2854 1.386 . S
C2855 C2859 1.393 . S
C2856 H2845 0.950 . S
C2856 C2854 1.391 . S
C2856 C2857 1.400 . S
C2857 C2851 1.491 . S
C2857 C2856 1.400 . S
C2857 C2858 1.398 . S
C2858 H2846 0.950 . S
C2858 C2857 1.398 . S
C2858 C2859 1.391 . S
C2859 H2847 0.950 . S
C2859 C2855 1.393 . S
C2859 C2858 1.391 . S
H2860 C2868 0.950 . S
H2861 C2873 0.950 . S
H2862 C2870 0.950 . S
H2863 C2872 0.950 . S
H2864 C2874 0.950 . S
H2865 C2876 0.950 . S
H2866 C2878 0.950 . S
H2867 C2879 0.950 . S
C2868 H2860 0.950 . S
C2868 C2869 1.386 . S
C2868 C2870 1.391 . S
C2869 C2868 1.386 . S
C2869 C2873 1.393 . S
C2870 H2862 0.950 . S
C2870 C2868 1.391 . S
C2870 C2871 1.400 . S
C2871 C2870 1.400 . S
C2871 C2872 1.398 . S
C2871 C2877 1.491 . S
C2872 H2863 0.950 . S
C2872 C2871 1.398 . S
C2872 C2873 1.391 . S
C2873 H2861 0.950 . S
C2873 C2869 1.393 . S
C2873 C2872 1.391 . S
C2874 H2864 0.950 . S
C2874 C2875 1.386 . S
C2874 C2876 1.391 . S
C2875 C2874 1.386 . S
C2875 C2879 1.393 . S
C2876 H2865 0.950 . S
C2876 C2874 1.391 . S
C2876 C2877 1.400 . S
C2877 C2871 1.491 . S
C2877 C2876 1.400 . S
C2877 C2878 1.398 . S
C2878 H2866 0.950 . S
C2878 C2877 1.398 . S
C2878 C2879 1.391 . S
C2879 H2867 0.950 . S
C2879 C2875 1.393 . S
C2879 C2878 1.391 . S
H2880 C2888 0.950 . S
H2881 C2893 0.950 . S
H2882 C2890 0.950 . S
H2883 C2892 0.950 . S
H2884 C2894 0.950 . S
H2885 C2896 0.950 . S
H2886 C2898 0.950 . S
H2887 C2899 0.950 . S
C2888 H2880 0.950 . S
C2888 C2889 1.386 . S
C2888 C2890 1.391 . S
C2889 C2888 1.386 . S
C2889 C2893 1.393 . S
C2890 H2882 0.950 . S
C2890 C2888 1.391 . S
C2890 C2891 1.400 . S
C2891 C2890 1.400 . S
C2891 C2892 1.398 . S
C2891 C2897 1.491 . S
C2892 H2883 0.950 . S
C2892 C2891 1.398 . S
C2892 C2893 1.391 . S
C2893 H2881 0.950 . S
C2893 C2889 1.393 . S
C2893 C2892 1.391 . S
C2894 H2884 0.950 . S
C2894 C2895 1.386 . S
C2894 C2896 1.391 . S
C2895 C2894 1.386 . S
C2895 C2899 1.393 . S
C2896 H2885 0.950 . S
C2896 C2894 1.391 . S
C2896 C2897 1.400 . S
C2897 C2891 1.491 . S
C2897 C2896 1.400 . S
C2897 C2898 1.398 . S
C2898 H2886 0.950 . S
C2898 C2897 1.398 . S
C2898 C2899 1.391 . S
C2899 H2887 0.950 . S
C2899 C2895 1.393 . S
C2899 C2898 1.391 . S
H2900 C2908 0.950 . S
H2901 C2913 0.950 . S
H2902 C2910 0.950 . S
H2903 C2912 0.950 . S
H2904 C2914 0.950 . S
H2905 C2916 0.950 . S
H2906 C2918 0.950 . S
H2907 C2919 0.950 . S
C2908 H2900 0.950 . S
C2908 C2909 1.386 . S
C2908 C2910 1.391 . S
C2909 C2908 1.386 . S
C2909 C2913 1.393 . S
C2910 H2902 0.950 . S
C2910 C2908 1.391 . S
C2910 C2911 1.400 . S
C2911 C2910 1.400 . S
C2911 C2912 1.398 . S
C2911 C2917 1.491 . S
C2912 H2903 0.950 . S
C2912 C2911 1.398 . S
C2912 C2913 1.391 . S
C2913 H2901 0.950 . S
C2913 C2909 1.393 . S
C2913 C2912 1.391 . S
C2914 H2904 0.950 . S
C2914 C2915 1.386 . S
C2914 C2916 1.391 . S
C2915 C2914 1.386 . S
C2915 C2919 1.393 . S
C2916 H2905 0.950 . S
C2916 C2914 1.391 . S
C2916 C2917 1.400 . S
C2917 C2911 1.491 . S
C2917 C2916 1.400 . S
C2917 C2918 1.398 . S
C2918 H2906 0.950 . S
C2918 C2917 1.398 . S
C2918 C2919 1.391 . S
C2919 H2907 0.950 . S
C2919 C2915 1.393 . S
C2919 C2918 1.391 . S
H2920 C2928 0.950 . S
H2921 C2933 0.950 . S
H2922 C2930 0.950 . S
H2923 C2932 0.950 . S
H2924 C2934 0.950 . S
H2925 C2936 0.950 . S
H2926 C2938 0.950 . S
H2927 C2939 0.950 . S
C2928 H2920 0.950 . S
C2928 C2929 1.386 . S
C2928 C2930 1.391 . S
C2929 C2928 1.386 . S
C2929 C2933 1.393 . S
C2930 H2922 0.950 . S
C2930 C2928 1.391 . S
C2930 C2931 1.400 . S
C2931 C2930 1.400 . S
C2931 C2932 1.398 . S
C2931 C2937 1.491 . S
C2932 H2923 0.950 . S
C2932 C2931 1.398 . S
C2932 C2933 1.391 . S
C2933 H2921 0.950 . S
C2933 C2929 1.393 . S
C2933 C2932 1.391 . S
C2934 H2924 0.950 . S
C2934 C2935 1.386 . S
C2934 C2936 1.391 . S
C2935 C2934 1.386 . S
C2935 C2939 1.393 . S
C2936 H2925 0.950 . S
C2936 C2934 1.391 . S
C2936 C2937 1.400 . S
C2937 C2931 1.491 . S
C2937 C2936 1.400 . S
C2937 C2938 1.398 . S
C2938 H2926 0.950 . S
C2938 C2937 1.398 . S
C2938 C2939 1.391 . S
C2939 H2927 0.950 . S
C2939 C2935 1.393 . S
C2939 C2938 1.391 . S
H2940 C2948 0.950 . S
H2941 C2953 0.950 . S
H2942 C2950 0.950 . S
H2943 C2952 0.950 . S
H2944 C2954 0.950 . S
H2945 C2956 0.950 . S
H2946 C2958 0.950 . S
H2947 C2959 0.950 . S
C2948 H2940 0.950 . S
C2948 C2949 1.386 . S
C2948 C2950 1.391 . S
C2949 C2948 1.386 . S
C2949 C2953 1.393 . S
C2950 H2942 0.950 . S
C2950 C2948 1.391 . S
C2950 C2951 1.400 . S
C2951 C2950 1.400 . S
C2951 C2952 1.398 . S
C2951 C2957 1.491 . S
C2952 H2943 0.950 . S
C2952 C2951 1.398 . S
C2952 C2953 1.391 . S
C2953 H2941 0.950 . S
C2953 C2949 1.393 . S
C2953 C2952 1.391 . S
C2954 H2944 0.950 . S
C2954 C2955 1.386 . S
C2954 C2956 1.391 . S
C2955 C2954 1.386 . S
C2955 C2959 1.393 . S
C2956 H2945 0.950 . S
C2956 C2954 1.391 . S
C2956 C2957 1.400 . S
C2957 C2951 1.491 . S
C2957 C2956 1.400 . S
C2957 C2958 1.398 . S
C2958 H2946 0.950 . S
C2958 C2957 1.398 . S
C2958 C2959 1.391 . S
C2959 H2947 0.950 . S
C2959 C2955 1.393 . S
C2959 C2958 1.391 . S
H2960 C2968 0.950 . S
H2961 C2973 0.950 . S
H2962 C2970 0.950 . S
H2963 C2972 0.950 . S
H2964 C2974 0.950 . S
H2965 C2976 0.950 . S
H2966 C2978 0.950 . S
H2967 C2979 0.950 . S
C2968 H2960 0.950 . S
C2968 C2969 1.386 . S
C2968 C2970 1.391 . S
C2969 C2968 1.386 . S
C2969 C2973 1.393 . S
C2970 H2962 0.950 . S
C2970 C2968 1.391 . S
C2970 C2971 1.400 . S
C2971 C2970 1.400 . S
C2971 C2972 1.398 . S
C2971 C2977 1.491 . S
C2972 H2963 0.950 . S
C2972 C2971 1.398 . S
C2972 C2973 1.391 . S
C2973 H2961 0.950 . S
C2973 C2969 1.393 . S
C2973 C2972 1.391 . S
C2974 H2964 0.950 . S
C2974 C2975 1.386 . S
C2974 C2976 1.391 . S
C2975 C2974 1.386 . S
C2975 C2979 1.393 . S
C2976 H2965 0.950 . S
C2976 C2974 1.391 . S
C2976 C2977 1.400 . S
C2977 C2971 1.491 . S
C2977 C2976 1.400 . S
C2977 C2978 1.398 . S
C2978 H2966 0.950 . S
C2978 C2977 1.398 . S
C2978 C2979 1.391 . S
C2979 H2967 0.950 . S
C2979 C2975 1.393 . S
C2979 C2978 1.391 . S
H2980 C2988 0.950 . S
H2981 C2993 0.950 . S
H2982 C2990 0.950 . S
H2983 C2992 0.950 . S
H2984 C2994 0.950 . S
H2985 C2996 0.950 . S
H2986 C2998 0.950 . S
H2987 C2999 0.950 . S
C2988 H2980 0.950 . S
C2988 C2989 1.386 . S
C2988 C2990 1.391 . S
C2989 C2988 1.386 . S
C2989 C2993 1.393 . S
C2990 H2982 0.950 . S
C2990 C2988 1.391 . S
C2990 C2991 1.400 . S
C2991 C2990 1.400 . S
C2991 C2992 1.398 . S
C2991 C2997 1.491 . S
C2992 H2983 0.950 . S
C2992 C2991 1.398 . S
C2992 C2993 1.391 . S
C2993 H2981 0.950 . S
C2993 C2989 1.393 . S
C2993 C2992 1.391 . S
C2994 H2984 0.950 . S
C2994 C2995 1.386 . S
C2994 C2996 1.391 . S
C2995 C2994 1.386 . S
C2995 C2999 1.393 . S
C2996 H2985 0.950 . S
C2996 C2994 1.391 . S
C2996 C2997 1.400 . S
C2997 C2991 1.491 . S
C2997 C2996 1.400 . S
C2997 C2998 1.398 . S
C2998 H2986 0.950 . S
C2998 C2997 1.398 . S
C2998 C2999 1.391 . S
C2999 H2987 0.950 . S
C2999 C2995 1.393 . S
C2999 C2998 1.391 . S
H3000 C3008 0.950 . S
H3001 C3013 0.950 . S
H3002 C3010 0.950 . S
H3003 C3012 0.950 . S
H3004 C3014 0.950 . S
H3005 C3016 0.950 . S
H3006 C3018 0.950 . S
H3007 C3019 0.950 . S
C3008 H3000 0.950 . S
C3008 C3009 1.386 . S
C3008 C3010 1.391 . S
C3009 C3008 1.386 . S
C3009 C3013 1.393 . S
C3010 H3002 0.950 . S
C3010 C3008 1.391 . S
C3010 C3011 1.400 . S
C3011 C3010 1.400 . S
C3011 C3012 1.398 . S
C3011 C3017 1.491 . S
C3012 H3003 0.950 . S
C3012 C3011 1.398 . S
C3012 C3013 1.391 . S
C3013 H3001 0.950 . S
C3013 C3009 1.393 . S
C3013 C3012 1.391 . S
C3014 H3004 0.950 . S
C3014 C3015 1.386 . S
C3014 C3016 1.391 . S
C3015 C3014 1.386 . S
C3015 C3019 1.393 . S
C3016 H3005 0.950 . S
C3016 C3014 1.391 . S
C3016 C3017 1.400 . S
C3017 C3011 1.491 . S
C3017 C3016 1.400 . S
C3017 C3018 1.398 . S
C3018 H3006 0.950 . S
C3018 C3017 1.398 . S
C3018 C3019 1.391 . S
C3019 H3007 0.950 . S
C3019 C3015 1.393 . S
C3019 C3018 1.391 . S
H3020 C3028 0.950 . S
H3021 C3033 0.950 . S
H3022 C3030 0.950 . S
H3023 C3032 0.950 . S
H3024 C3034 0.950 . S
H3025 C3036 0.950 . S
H3026 C3038 0.950 . S
H3027 C3039 0.950 . S
C3028 H3020 0.950 . S
C3028 C3029 1.386 . S
C3028 C3030 1.391 . S
C3029 C3028 1.386 . S
C3029 C3033 1.393 . S
C3030 H3022 0.950 . S
C3030 C3028 1.391 . S
C3030 C3031 1.400 . S
C3031 C3030 1.400 . S
C3031 C3032 1.398 . S
C3031 C3037 1.491 . S
C3032 H3023 0.950 . S
C3032 C3031 1.398 . S
C3032 C3033 1.391 . S
C3033 H3021 0.950 . S
C3033 C3029 1.393 . S
C3033 C3032 1.391 . S
C3034 H3024 0.950 . S
C3034 C3035 1.386 . S
C3034 C3036 1.391 . S
C3035 C3034 1.386 . S
C3035 C3039 1.393 . S
C3036 H3025 0.950 . S
C3036 C3034 1.391 . S
C3036 C3037 1.400 . S
C3037 C3031 1.491 . S
C3037 C3036 1.400 . S
C3037 C3038 1.398 . S
C3038 H3026 0.950 . S
C3038 C3037 1.398 . S
C3038 C3039 1.391 . S
C3039 H3027 0.950 . S
C3039 C3035 1.393 . S
C3039 C3038 1.391 . S
H3040 C3048 0.950 . S
H3041 C3053 0.950 . S
H3042 C3050 0.950 . S
H3043 C3052 0.950 . S
H3044 C3054 0.950 . S
H3045 C3056 0.950 . S
H3046 C3058 0.950 . S
H3047 C3059 0.950 . S
C3048 H3040 0.950 . S
C3048 C3049 1.386 . S
C3048 C3050 1.391 . S
C3049 C3048 1.386 . S
C3049 C3053 1.393 . S
C3050 H3042 0.950 . S
C3050 C3048 1.391 . S
C3050 C3051 1.400 . S
C3051 C3050 1.400 . S
C3051 C3052 1.398 . S
C3051 C3057 1.491 . S
C3052 H3043 0.950 . S
C3052 C3051 1.398 . S
C3052 C3053 1.391 . S
C3053 H3041 0.950 . S
C3053 C3049 1.393 . S
C3053 C3052 1.391 . S
C3054 H3044 0.950 . S
C3054 C3055 1.386 . S
C3054 C3056 1.391 . S
C3055 C3054 1.386 . S
C3055 C3059 1.393 . S
C3056 H3045 0.950 . S
C3056 C3054 1.391 . S
C3056 C3057 1.400 . S
C3057 C3051 1.491 . S
C3057 C3056 1.400 . S
C3057 C3058 1.398 . S
C3058 H3046 0.950 . S
C3058 C3057 1.398 . S
C3058 C3059 1.391 . S
C3059 H3047 0.950 . S
C3059 C3055 1.393 . S
C3059 C3058 1.391 . S
H3060 C3068 0.950 . S
H3061 C3073 0.950 . S
H3062 C3070 0.950 . S
H3063 C3072 0.950 . S
H3064 C3074 0.950 1_556 S
H3065 C3076 0.950 . S
H3066 C3078 0.950 . S
H3067 C3079 0.950 . S
C3068 H3060 0.950 . S
C3068 C3069 1.386 . S
C3068 C3070 1.391 . S
C3069 C3068 1.386 . S
C3069 C3073 1.393 . S
C3070 H3062 0.950 . S
C3070 C3068 1.391 . S
C3070 C3071 1.400 . S
C3071 C3070 1.400 . S
C3071 C3072 1.398 . S
C3071 C3077 1.491 . S
C3072 H3063 0.950 . S
C3072 C3071 1.398 . S
C3072 C3073 1.391 . S
C3073 H3061 0.950 . S
C3073 C3069 1.393 . S
C3073 C3072 1.391 . S
C3074 H3064 0.950 1_554 S
C3074 C3075 1.386 . S
C3074 C3076 1.391 . S
C3075 C3074 1.386 . S
C3075 C3079 1.393 . S
C3076 H3065 0.950 . S
C3076 C3074 1.391 . S
C3076 C3077 1.400 . S
C3077 C3071 1.491 . S
C3077 C3076 1.400 . S
C3077 C3078 1.398 . S
C3078 H3066 0.950 . S
C3078 C3077 1.398 . S
C3078 C3079 1.391 . S
C3079 H3067 0.950 . S
C3079 C3075 1.393 . S
C3079 C3078 1.391 . S
H3080 C3088 0.950 . S
H3081 C3093 0.950 . S
H3082 C3090 0.950 . S
H3083 C3092 0.950 . S
H3084 C3094 0.950 . S
H3085 C3096 0.950 . S
H3086 C3098 0.950 . S
H3087 C3099 0.950 . S
C3088 H3080 0.950 . S
C3088 C3089 1.386 . S
C3088 C3090 1.391 . S
C3089 C3088 1.386 . S
C3089 C3093 1.393 . S
C3090 H3082 0.950 . S
C3090 C3088 1.391 . S
C3090 C3091 1.400 . S
C3091 C3090 1.400 . S
C3091 C3092 1.398 . S
C3091 C3097 1.491 . S
C3092 H3083 0.950 . S
C3092 C3091 1.398 . S
C3092 C3093 1.391 . S
C3093 H3081 0.950 . S
C3093 C3089 1.393 . S
C3093 C3092 1.391 . S
C3094 H3084 0.950 . S
C3094 C3095 1.386 . S
C3094 C3096 1.391 . S
C3095 C3094 1.386 . S
C3095 C3099 1.393 . S
C3096 H3085 0.950 . S
C3096 C3094 1.391 . S
C3096 C3097 1.400 . S
C3097 C3091 1.491 . S
C3097 C3096 1.400 . S
C3097 C3098 1.398 . S
C3098 H3086 0.950 . S
C3098 C3097 1.398 . S
C3098 C3099 1.391 . S
C3099 H3087 0.950 . S
C3099 C3095 1.393 . S
C3099 C3098 1.391 . S
H3100 C3108 0.950 . S
H3101 C3113 0.950 . S
H3102 C3110 0.950 . S
H3103 C3112 0.950 . S
H3104 C3114 0.950 . S
H3105 C3116 0.950 . S
H3106 C3118 0.950 . S
H3107 C3119 0.950 . S
C3108 H3100 0.950 . S
C3108 C3109 1.386 . S
C3108 C3110 1.391 . S
C3109 C3108 1.386 . S
C3109 C3113 1.393 . S
C3110 H3102 0.950 . S
C3110 C3108 1.391 . S
C3110 C3111 1.400 . S
C3111 C3110 1.400 . S
C3111 C3112 1.398 . S
C3111 C3117 1.491 . S
C3112 H3103 0.950 . S
C3112 C3111 1.398 . S
C3112 C3113 1.391 . S
C3113 H3101 0.950 . S
C3113 C3109 1.393 . S
C3113 C3112 1.391 . S
C3114 H3104 0.950 . S
C3114 C3115 1.386 . S
C3114 C3116 1.391 . S
C3115 C3114 1.386 . S
C3115 C3119 1.393 . S
C3116 H3105 0.950 . S
C3116 C3114 1.391 . S
C3116 C3117 1.400 . S
C3117 C3111 1.491 . S
C3117 C3116 1.400 . S
C3117 C3118 1.398 . S
C3118 H3106 0.950 . S
C3118 C3117 1.398 . S
C3118 C3119 1.391 . S
C3119 H3107 0.950 . S
C3119 C3115 1.393 . S
C3119 C3118 1.391 . S
H3120 C3128 0.950 . S
H3121 C3133 0.950 . S
H3122 C3130 0.950 . S
H3123 C3132 0.950 . S
H3124 C3134 0.950 . S
H3125 C3136 0.950 . S
H3126 C3138 0.950 . S
H3127 C3139 0.950 . S
C3128 H3120 0.950 . S
C3128 C3129 1.386 . S
C3128 C3130 1.391 . S
C3129 C3128 1.386 . S
C3129 C3133 1.393 . S
C3130 H3122 0.950 . S
C3130 C3128 1.391 . S
C3130 C3131 1.400 . S
C3131 C3130 1.400 . S
C3131 C3132 1.398 . S
C3131 C3137 1.491 . S
C3132 H3123 0.950 . S
C3132 C3131 1.398 . S
C3132 C3133 1.391 . S
C3133 H3121 0.950 . S
C3133 C3129 1.393 . S
C3133 C3132 1.391 . S
C3134 H3124 0.950 . S
C3134 C3135 1.386 . S
C3134 C3136 1.391 . S
C3135 C3134 1.386 . S
C3135 C3139 1.393 . S
C3136 H3125 0.950 . S
C3136 C3134 1.391 . S
C3136 C3137 1.400 . S
C3137 C3131 1.491 . S
C3137 C3136 1.400 . S
C3137 C3138 1.398 . S
C3138 H3126 0.950 . S
C3138 C3137 1.398 . S
C3138 C3139 1.391 . S
C3139 H3127 0.950 . S
C3139 C3135 1.393 . S
C3139 C3138 1.391 . S
H3140 C3148 0.950 . S
H3141 C3153 0.950 . S
H3142 C3150 0.950 . S
H3143 C3152 0.950 . S
H3144 C3154 0.950 . S
H3145 C3156 0.950 . S
H3146 C3158 0.950 . S
H3147 C3159 0.950 . S
C3148 H3140 0.950 . S
C3148 C3149 1.386 . S
C3148 C3150 1.391 . S
C3149 C3148 1.386 . S
C3149 C3153 1.393 . S
C3150 H3142 0.950 . S
C3150 C3148 1.391 . S
C3150 C3151 1.400 . S
C3151 C3150 1.400 . S
C3151 C3152 1.398 . S
C3151 C3157 1.491 . S
C3152 H3143 0.950 . S
C3152 C3151 1.398 . S
C3152 C3153 1.391 . S
C3153 H3141 0.950 . S
C3153 C3149 1.393 . S
C3153 C3152 1.391 . S
C3154 H3144 0.950 . S
C3154 C3155 1.386 . S
C3154 C3156 1.391 . S
C3155 C3154 1.386 . S
C3155 C3159 1.393 . S
C3156 H3145 0.950 . S
C3156 C3154 1.391 . S
C3156 C3157 1.400 . S
C3157 C3151 1.491 . S
C3157 C3156 1.400 . S
C3157 C3158 1.398 . S
C3158 H3146 0.950 . S
C3158 C3157 1.398 . S
C3158 C3159 1.391 . S
C3159 H3147 0.950 . S
C3159 C3155 1.393 . S
C3159 C3158 1.391 . S
H3160 C3168 0.950 . S
H3161 C3173 0.950 . S
H3162 C3170 0.950 . S
H3163 C3172 0.950 . S
H3164 C3174 0.950 . S
H3165 C3176 0.950 . S
H3166 C3178 0.950 . S
H3167 C3179 0.950 . S
C3168 H3160 0.950 . S
C3168 C3169 1.386 . S
C3168 C3170 1.391 . S
C3169 C3168 1.386 . S
C3169 C3173 1.393 . S
C3170 H3162 0.950 . S
C3170 C3168 1.391 . S
C3170 C3171 1.400 . S
C3171 C3170 1.400 . S
C3171 C3172 1.398 . S
C3171 C3177 1.491 . S
C3172 H3163 0.950 . S
C3172 C3171 1.398 . S
C3172 C3173 1.391 . S
C3173 H3161 0.950 . S
C3173 C3169 1.393 . S
C3173 C3172 1.391 . S
C3174 H3164 0.950 . S
C3174 C3175 1.386 . S
C3174 C3176 1.391 . S
C3175 C3174 1.386 . S
C3175 C3179 1.393 . S
C3176 H3165 0.950 . S
C3176 C3174 1.391 . S
C3176 C3177 1.400 . S
C3177 C3171 1.491 . S
C3177 C3176 1.400 . S
C3177 C3178 1.398 . S
C3178 H3166 0.950 . S
C3178 C3177 1.398 . S
C3178 C3179 1.391 . S
C3179 H3167 0.950 . S
C3179 C3175 1.393 . S
C3179 C3178 1.391 . S
H3180 C3188 0.950 . S
H3181 C3193 0.950 . S
H3182 C3190 0.950 . S
H3183 C3192 0.950 . S
H3184 C3194 0.950 . S
H3185 C3196 0.950 . S
H3186 C3198 0.950 . S
H3187 C3199 0.950 . S
C3188 H3180 0.950 . S
C3188 C3189 1.386 . S
C3188 C3190 1.391 . S
C3189 C3188 1.386 . S
C3189 C3193 1.393 . S
C3190 H3182 0.950 . S
C3190 C3188 1.391 . S
C3190 C3191 1.400 . S
C3191 C3190 1.400 . S
C3191 C3192 1.398 . S
C3191 C3197 1.491 . S
C3192 H3183 0.950 . S
C3192 C3191 1.398 . S
C3192 C3193 1.391 . S
C3193 H3181 0.950 . S
C3193 C3189 1.393 . S
C3193 C3192 1.391 . S
C3194 H3184 0.950 . S
C3194 C3195 1.386 . S
C3194 C3196 1.391 . S
C3195 C3194 1.386 . S
C3195 C3199 1.393 . S
C3196 H3185 0.950 . S
C3196 C3194 1.391 . S
C3196 C3197 1.400 . S
C3197 C3191 1.491 . S
C3197 C3196 1.400 . S
C3197 C3198 1.398 . S
C3198 H3186 0.950 . S
C3198 C3197 1.398 . S
C3198 C3199 1.391 . S
C3199 H3187 0.950 . S
C3199 C3195 1.393 . S
C3199 C3198 1.391 . S
H3200 C3208 0.950 . S
H3201 C3213 0.950 . S
H3202 C3210 0.950 . S
H3203 C3212 0.950 . S
H3204 C3214 0.950 . S
H3205 C3216 0.950 . S
H3206 C3218 0.950 . S
H3207 C3219 0.950 . S
C3208 H3200 0.950 . S
C3208 C3209 1.386 . S
C3208 C3210 1.391 . S
C3209 C3208 1.386 . S
C3209 C3213 1.393 . S
C3210 H3202 0.950 . S
C3210 C3208 1.391 . S
C3210 C3211 1.400 . S
C3211 C3210 1.400 . S
C3211 C3212 1.398 . S
C3211 C3217 1.491 . S
C3212 H3203 0.950 . S
C3212 C3211 1.398 . S
C3212 C3213 1.391 . S
C3213 H3201 0.950 . S
C3213 C3209 1.393 . S
C3213 C3212 1.391 . S
C3214 H3204 0.950 . S
C3214 C3215 1.386 . S
C3214 C3216 1.391 . S
C3215 C3214 1.386 . S
C3215 C3219 1.393 . S
C3216 H3205 0.950 . S
C3216 C3214 1.391 . S
C3216 C3217 1.400 . S
C3217 C3211 1.491 . S
C3217 C3216 1.400 . S
C3217 C3218 1.398 . S
C3218 H3206 0.950 . S
C3218 C3217 1.398 . S
C3218 C3219 1.391 . S
C3219 H3207 0.950 . S
C3219 C3215 1.393 . S
C3219 C3218 1.391 . S
H3220 C3228 0.950 . S
H3221 C3233 0.950 . S
H3222 C3230 0.950 . S
H3223 C3232 0.950 . S
H3224 C3234 0.950 . S
H3225 C3236 0.950 . S
H3226 C3238 0.950 . S
H3227 C3239 0.950 . S
C3228 H3220 0.950 . S
C3228 C3229 1.386 . S
C3228 C3230 1.391 . S
C3229 C3228 1.386 . S
C3229 C3233 1.393 . S
C3230 H3222 0.950 . S
C3230 C3228 1.391 . S
C3230 C3231 1.400 . S
C3231 C3230 1.400 . S
C3231 C3232 1.398 . S
C3231 C3237 1.491 . S
C3232 H3223 0.950 . S
C3232 C3231 1.398 . S
C3232 C3233 1.391 . S
C3233 H3221 0.950 . S
C3233 C3229 1.393 . S
C3233 C3232 1.391 . S
C3234 H3224 0.950 . S
C3234 C3235 1.386 . S
C3234 C3236 1.391 . S
C3235 C3234 1.386 . S
C3235 C3239 1.393 . S
C3236 H3225 0.950 . S
C3236 C3234 1.391 . S
C3236 C3237 1.400 . S
C3237 C3231 1.491 . S
C3237 C3236 1.400 . S
C3237 C3238 1.398 . S
C3238 H3226 0.950 . S
C3238 C3237 1.398 . S
C3238 C3239 1.391 . S
C3239 H3227 0.950 . S
C3239 C3235 1.393 . S
C3239 C3238 1.391 . S
H3240 C3248 0.950 . S
H3241 C3253 0.950 . S
H3242 C3250 0.950 . S
H3243 C3252 0.950 . S
H3244 C3254 0.950 . S
H3245 C3256 0.950 . S
H3246 C3258 0.950 . S
H3247 C3259 0.950 1_565 S
C3248 H3240 0.950 . S
C3248 C3249 1.386 . S
C3248 C3250 1.391 . S
C3249 C3248 1.386 . S
C3249 C3253 1.393 . S
C3250 H3242 0.950 . S
C3250 C3248 1.391 . S
C3250 C3251 1.400 . S
C3251 C3250 1.400 . S
C3251 C3252 1.398 . S
C3251 C3257 1.491 . S
C3252 H3243 0.950 . S
C3252 C3251 1.398 . S
C3252 C3253 1.391 . S
C3253 H3241 0.950 . S
C3253 C3249 1.393 . S
C3253 C3252 1.391 . S
C3254 H3244 0.950 . S
C3254 C3255 1.386 . S
C3254 C3256 1.391 . S
C3255 C3254 1.386 . S
C3255 C3259 1.393 . S
C3256 H3245 0.950 . S
C3256 C3254 1.391 . S
C3256 C3257 1.400 . S
C3257 C3251 1.491 . S
C3257 C3256 1.400 . S
C3257 C3258 1.398 . S
C3258 H3246 0.950 . S
C3258 C3257 1.398 . S
C3258 C3259 1.391 . S
C3259 H3247 0.950 1_545 S
C3259 C3255 1.393 . S
C3259 C3258 1.391 . S
H3260 C3268 0.950 . S
H3261 C3273 0.950 . S
H3262 C3270 0.950 . S
H3263 C3272 0.950 . S
H3264 C3274 0.950 . S
H3265 C3276 0.950 . S
H3266 C3278 0.950 . S
H3267 C3279 0.950 . S
C3268 H3260 0.950 . S
C3268 C3269 1.386 . S
C3268 C3270 1.391 . S
C3269 C3268 1.386 . S
C3269 C3273 1.393 . S
C3270 H3262 0.950 . S
C3270 C3268 1.391 . S
C3270 C3271 1.400 . S
C3271 C3270 1.400 . S
C3271 C3272 1.398 . S
C3271 C3277 1.491 . S
C3272 H3263 0.950 . S
C3272 C3271 1.398 . S
C3272 C3273 1.391 . S
C3273 H3261 0.950 . S
C3273 C3269 1.393 . S
C3273 C3272 1.391 . S
C3274 H3264 0.950 . S
C3274 C3275 1.386 . S
C3274 C3276 1.391 . S
C3275 C3274 1.386 . S
C3275 C3279 1.393 . S
C3276 H3265 0.950 . S
C3276 C3274 1.391 . S
C3276 C3277 1.400 . S
C3277 C3271 1.491 . S
C3277 C3276 1.400 . S
C3277 C3278 1.398 . S
C3278 H3266 0.950 . S
C3278 C3277 1.398 . S
C3278 C3279 1.391 . S
C3279 H3267 0.950 . S
C3279 C3275 1.393 . S
C3279 C3278 1.391 . S
H3280 C3288 0.950 . S
H3281 C3293 0.950 . S
H3282 C3290 0.950 . S
H3283 C3292 0.950 . S
H3284 C3294 0.950 . S
H3285 C3296 0.950 . S
H3286 C3298 0.950 . S
H3287 C3299 0.950 . S
C3288 H3280 0.950 . S
C3288 C3289 1.386 . S
C3288 C3290 1.391 . S
C3289 C3288 1.386 . S
C3289 C3293 1.393 . S
C3290 H3282 0.950 . S
C3290 C3288 1.391 . S
C3290 C3291 1.400 . S
C3291 C3290 1.400 . S
C3291 C3292 1.398 . S
C3291 C3297 1.491 . S
C3292 H3283 0.950 . S
C3292 C3291 1.398 . S
C3292 C3293 1.391 . S
C3293 H3281 0.950 . S
C3293 C3289 1.393 . S
C3293 C3292 1.391 . S
C3294 H3284 0.950 . S
C3294 C3295 1.386 . S
C3294 C3296 1.391 . S
C3295 C3294 1.386 . S
C3295 C3299 1.393 . S
C3296 H3285 0.950 . S
C3296 C3294 1.391 . S
C3296 C3297 1.400 . S
C3297 C3291 1.491 . S
C3297 C3296 1.400 . S
C3297 C3298 1.398 . S
C3298 H3286 0.950 . S
C3298 C3297 1.398 . S
C3298 C3299 1.391 . S
C3299 H3287 0.950 . S
C3299 C3295 1.393 . S
C3299 C3298 1.391 . S
H3300 C3308 0.950 . S
H3301 C3313 0.950 . S
H3302 C3310 0.950 . S
H3303 C3312 0.950 . S
H3304 C3314 0.950 . S
H3305 C3316 0.950 . S
H3306 C3318 0.950 . S
H3307 C3319 0.950 . S
C3308 H3300 0.950 . S
C3308 C3309 1.386 . S
C3308 C3310 1.391 . S
C3309 C3308 1.386 . S
C3309 C3313 1.393 . S
C3310 H3302 0.950 . S
C3310 C3308 1.391 . S
C3310 C3311 1.400 . S
C3311 C3310 1.400 . S
C3311 C3312 1.398 . S
C3311 C3317 1.491 . S
C3312 H3303 0.950 . S
C3312 C3311 1.398 . S
C3312 C3313 1.391 . S
C3313 H3301 0.950 . S
C3313 C3309 1.393 . S
C3313 C3312 1.391 . S
C3314 H3304 0.950 . S
C3314 C3315 1.386 . S
C3314 C3316 1.391 . S
C3315 C3314 1.386 . S
C3315 C3319 1.393 . S
C3316 H3305 0.950 . S
C3316 C3314 1.391 . S
C3316 C3317 1.400 . S
C3317 C3311 1.491 . S
C3317 C3316 1.400 . S
C3317 C3318 1.398 . S
C3318 H3306 0.950 . S
C3318 C3317 1.398 . S
C3318 C3319 1.391 . S
C3319 H3307 0.950 . S
C3319 C3315 1.393 . S
C3319 C3318 1.391 . S
H3320 C3328 0.950 . S
H3321 C3333 0.950 . S
H3322 C3330 0.950 . S
H3323 C3332 0.950 . S
H3324 C3334 0.950 . S
H3325 C3336 0.950 . S
H3326 C3338 0.950 . S
H3327 C3339 0.950 . S
C3328 H3320 0.950 . S
C3328 C3329 1.386 . S
C3328 C3330 1.391 . S
C3329 C3328 1.386 . S
C3329 C3333 1.393 . S
C3330 H3322 0.950 . S
C3330 C3328 1.391 . S
C3330 C3331 1.400 . S
C3331 C3330 1.400 . S
C3331 C3332 1.398 . S
C3331 C3337 1.491 . S
C3332 H3323 0.950 . S
C3332 C3331 1.398 . S
C3332 C3333 1.391 . S
C3333 H3321 0.950 . S
C3333 C3329 1.393 . S
C3333 C3332 1.391 . S
C3334 H3324 0.950 . S
C3334 C3335 1.386 . S
C3334 C3336 1.391 . S
C3335 C3334 1.386 . S
C3335 C3339 1.393 . S
C3336 H3325 0.950 . S
C3336 C3334 1.391 . S
C3336 C3337 1.400 . S
C3337 C3331 1.491 . S
C3337 C3336 1.400 . S
C3337 C3338 1.398 . S
C3338 H3326 0.950 . S
C3338 C3337 1.398 . S
C3338 C3339 1.391 . S
C3339 H3327 0.950 . S
C3339 C3335 1.393 . S
C3339 C3338 1.391 . S
H3340 C3348 0.950 . S
H3341 C3353 0.950 . S
H3342 C3350 0.950 . S
H3343 C3352 0.950 . S
H3344 C3354 0.950 . S
H3345 C3356 0.950 . S
H3346 C3358 0.950 . S
H3347 C3359 0.950 . S
C3348 H3340 0.950 . S
C3348 C3349 1.386 . S
C3348 C3350 1.391 1_565 S
C3349 C3348 1.386 . S
C3349 C3353 1.393 1_565 S
C3350 H3342 0.950 . S
C3350 C3348 1.391 1_545 S
C3350 C3351 1.400 . S
C3351 C3350 1.400 . S
C3351 C3352 1.398 . S
C3351 C3357 1.491 . S
C3352 H3343 0.950 . S
C3352 C3351 1.398 . S
C3352 C3353 1.391 . S
C3353 H3341 0.950 . S
C3353 C3349 1.393 1_545 S
C3353 C3352 1.391 . S
C3354 H3344 0.950 . S
C3354 C3355 1.386 . S
C3354 C3356 1.391 . S
C3355 C3354 1.386 . S
C3355 C3359 1.393 . S
C3356 H3345 0.950 . S
C3356 C3354 1.391 . S
C3356 C3357 1.400 . S
C3357 C3351 1.491 . S
C3357 C3356 1.400 . S
C3357 C3358 1.398 . S
C3358 H3346 0.950 . S
C3358 C3357 1.398 . S
C3358 C3359 1.391 . S
C3359 H3347 0.950 . S
C3359 C3355 1.393 . S
C3359 C3358 1.391 . S
H3360 C3368 0.950 . S
H3361 C3373 0.950 . S
H3362 C3370 0.950 . S
H3363 C3372 0.950 . S
H3364 C3374 0.950 . S
H3365 C3376 0.950 . S
H3366 C3378 0.950 . S
H3367 C3379 0.950 . S
C3368 H3360 0.950 . S
C3368 C3369 1.386 . S
C3368 C3370 1.391 . S
C3369 C3368 1.386 . S
C3369 C3373 1.393 . S
C3370 H3362 0.950 . S
C3370 C3368 1.391 . S
C3370 C3371 1.400 . S
C3371 C3370 1.400 . S
C3371 C3372 1.398 . S
C3371 C3377 1.491 . S
C3372 H3363 0.950 . S
C3372 C3371 1.398 . S
C3372 C3373 1.391 . S
C3373 H3361 0.950 . S
C3373 C3369 1.393 . S
C3373 C3372 1.391 . S
C3374 H3364 0.950 . S
C3374 C3375 1.386 . S
C3374 C3376 1.391 . S
C3375 C3374 1.386 . S
C3375 C3379 1.393 . S
C3376 H3365 0.950 . S
C3376 C3374 1.391 . S
C3376 C3377 1.400 . S
C3377 C3371 1.491 . S
C3377 C3376 1.400 . S
C3377 C3378 1.398 . S
C3378 H3366 0.950 . S
C3378 C3377 1.398 . S
C3378 C3379 1.391 . S
C3379 H3367 0.950 . S
C3379 C3375 1.393 . S
C3379 C3378 1.391 . S
H3380 C3388 0.950 . S
H3381 C3393 0.950 . S
H3382 C3390 0.950 . S
H3383 C3392 0.950 . S
H3384 C3394 0.950 . S
H3385 C3396 0.950 . S
H3386 C3398 0.950 . S
H3387 C3399 0.950 . S
C3388 H3380 0.950 . S
C3388 C3389 1.386 . S
C3388 C3390 1.391 . S
C3389 C3388 1.386 . S
C3389 C3393 1.393 . S
C3390 H3382 0.950 . S
C3390 C3388 1.391 . S
C3390 C3391 1.400 . S
C3391 C3390 1.400 . S
C3391 C3392 1.398 . S
C3391 C3397 1.491 . S
C3392 H3383 0.950 . S
C3392 C3391 1.398 . S
C3392 C3393 1.391 . S
C3393 H3381 0.950 . S
C3393 C3389 1.393 . S
C3393 C3392 1.391 . S
C3394 H3384 0.950 . S
C3394 C3395 1.386 . S
C3394 C3396 1.391 . S
C3395 C3394 1.386 . S
C3395 C3399 1.393 . S
C3396 H3385 0.950 . S
C3396 C3394 1.391 . S
C3396 C3397 1.400 . S
C3397 C3391 1.491 . S
C3397 C3396 1.400 . S
C3397 C3398 1.398 . S
C3398 H3386 0.950 . S
C3398 C3397 1.398 . S
C3398 C3399 1.391 . S
C3399 H3387 0.950 . S
C3399 C3395 1.393 . S
C3399 C3398 1.391 . S
H3400 C3408 0.950 . S
H3401 C3413 0.950 . S
H3402 C3410 0.950 . S
H3403 C3412 0.950 . S
H3404 C3414 0.950 . S
H3405 C3416 0.950 . S
H3406 C3418 0.950 . S
H3407 C3419 0.950 . S
C3408 H3400 0.950 . S
C3408 C3409 1.386 . S
C3408 C3410 1.391 . S
C3409 C3408 1.386 . S
C3409 C3413 1.393 . S
C3410 H3402 0.950 . S
C3410 C3408 1.391 . S
C3410 C3411 1.400 . S
C3411 C3410 1.400 . S
C3411 C3412 1.398 . S
C3411 C3417 1.491 . S
C3412 H3403 0.950 . S
C3412 C3411 1.398 . S
C3412 C3413 1.391 . S
C3413 H3401 0.950 . S
C3413 C3409 1.393 . S
C3413 C3412 1.391 . S
C3414 H3404 0.950 . S
C3414 C3415 1.386 . S
C3414 C3416 1.391 . S
C3415 C3414 1.386 . S
C3415 C3419 1.393 . S
C3416 H3405 0.950 . S
C3416 C3414 1.391 . S
C3416 C3417 1.400 . S
C3417 C3411 1.491 . S
C3417 C3416 1.400 . S
C3417 C3418 1.398 . S
C3418 H3406 0.950 . S
C3418 C3417 1.398 . S
C3418 C3419 1.391 . S
C3419 H3407 0.950 . S
C3419 C3415 1.393 . S
C3419 C3418 1.391 . S
H3420 C3428 0.950 . S
H3421 C3433 0.950 . S
H3422 C3430 0.950 . S
H3423 C3432 0.950 . S
H3424 C3434 0.950 1_455 S
H3425 C3436 0.950 . S
H3426 C3438 0.950 . S
H3427 C3439 0.950 . S
C3428 H3420 0.950 . S
C3428 C3429 1.386 . S
C3428 C3430 1.391 . S
C3429 C3428 1.386 . S
C3429 C3433 1.393 . S
C3430 H3422 0.950 . S
C3430 C3428 1.391 . S
C3430 C3431 1.400 . S
C3431 C3430 1.400 . S
C3431 C3432 1.398 . S
C3431 C3437 1.491 . S
C3432 H3423 0.950 . S
C3432 C3431 1.398 . S
C3432 C3433 1.391 . S
C3433 H3421 0.950 . S
C3433 C3429 1.393 . S
C3433 C3432 1.391 . S
C3434 H3424 0.950 1_655 S
C3434 C3435 1.386 . S
C3434 C3436 1.391 . S
C3435 C3434 1.386 . S
C3435 C3439 1.393 . S
C3436 H3425 0.950 . S
C3436 C3434 1.391 . S
C3436 C3437 1.400 . S
C3437 C3431 1.491 . S
C3437 C3436 1.400 . S
C3437 C3438 1.398 . S
C3438 H3426 0.950 . S
C3438 C3437 1.398 . S
C3438 C3439 1.391 . S
C3439 H3427 0.950 . S
C3439 C3435 1.393 . S
C3439 C3438 1.391 . S
H3440 C3448 0.950 . S
H3441 C3453 0.950 . S
H3442 C3450 0.950 . S
H3443 C3452 0.950 . S
H3444 C3454 0.950 . S
H3445 C3456 0.950 . S
H3446 C3458 0.950 . S
H3447 C3459 0.950 . S
C3448 H3440 0.950 . S
C3448 C3449 1.386 . S
C3448 C3450 1.391 . S
C3449 C3448 1.386 . S
C3449 C3453 1.393 . S
C3450 H3442 0.950 . S
C3450 C3448 1.391 . S
C3450 C3451 1.400 . S
C3451 C3450 1.400 . S
C3451 C3452 1.398 . S
C3451 C3457 1.491 . S
C3452 H3443 0.950 . S
C3452 C3451 1.398 . S
C3452 C3453 1.391 . S
C3453 H3441 0.950 . S
C3453 C3449 1.393 . S
C3453 C3452 1.391 . S
C3454 H3444 0.950 . S
C3454 C3455 1.386 . S
C3454 C3456 1.391 . S
C3455 C3454 1.386 . S
C3455 C3459 1.393 . S
C3456 H3445 0.950 . S
C3456 C3454 1.391 . S
C3456 C3457 1.400 . S
C3457 C3451 1.491 . S
C3457 C3456 1.400 . S
C3457 C3458 1.398 . S
C3458 H3446 0.950 . S
C3458 C3457 1.398 . S
C3458 C3459 1.391 . S
C3459 H3447 0.950 . S
C3459 C3455 1.393 . S
C3459 C3458 1.391 . S
H3460 C3468 0.950 . S
H3461 C3473 0.950 1_455 S
H3462 C3470 0.950 . S
H3463 C3472 0.950 . S
H3464 C3474 0.950 . S
H3465 C3476 0.950 . S
H3466 C3478 0.950 . S
H3467 C3479 0.950 . S
C3468 H3460 0.950 . S
C3468 C3469 1.386 . S
C3468 C3470 1.391 . S
C3469 C3468 1.386 . S
C3469 C3473 1.393 . S
C3470 H3462 0.950 . S
C3470 C3468 1.391 . S
C3470 C3471 1.400 . S
C3471 C3470 1.400 . S
C3471 C3472 1.398 . S
C3471 C3477 1.491 . S
C3472 H3463 0.950 . S
C3472 C3471 1.398 . S
C3472 C3473 1.391 . S
C3473 H3461 0.950 1_655 S
C3473 C3469 1.393 . S
C3473 C3472 1.391 . S
C3474 H3464 0.950 . S
C3474 C3475 1.386 . S
C3474 C3476 1.391 . S
C3475 C3474 1.386 . S
C3475 C3479 1.393 . S
C3476 H3465 0.950 . S
C3476 C3474 1.391 . S
C3476 C3477 1.400 . S
C3477 C3471 1.491 . S
C3477 C3476 1.400 . S
C3477 C3478 1.398 . S
C3478 H3466 0.950 . S
C3478 C3477 1.398 . S
C3478 C3479 1.391 . S
C3479 H3467 0.950 . S
C3479 C3475 1.393 . S
C3479 C3478 1.391 . S
H3480 C3488 0.950 . S
H3481 C3493 0.950 . S
H3482 C3490 0.950 . S
H3483 C3492 0.950 . S
H3484 C3494 0.950 . S
H3485 C3496 0.950 . S
H3486 C3498 0.950 . S
H3487 C3499 0.950 . S
C3488 H3480 0.950 . S
C3488 C3489 1.386 . S
C3488 C3490 1.391 . S
C3489 C3488 1.386 . S
C3489 C3493 1.393 . S
C3490 H3482 0.950 . S
C3490 C3488 1.391 . S
C3490 C3491 1.400 . S
C3491 C3490 1.400 . S
C3491 C3492 1.398 . S
C3491 C3497 1.491 . S
C3492 H3483 0.950 . S
C3492 C3491 1.398 . S
C3492 C3493 1.391 . S
C3493 H3481 0.950 . S
C3493 C3489 1.393 . S
C3493 C3492 1.391 . S
C3494 H3484 0.950 . S
C3494 C3495 1.386 . S
C3494 C3496 1.391 . S
C3495 C3494 1.386 . S
C3495 C3499 1.393 . S
C3496 H3485 0.950 . S
C3496 C3494 1.391 . S
C3496 C3497 1.400 . S
C3497 C3491 1.491 . S
C3497 C3496 1.400 . S
C3497 C3498 1.398 . S
C3498 H3486 0.950 . S
C3498 C3497 1.398 . S
C3498 C3499 1.391 . S
C3499 H3487 0.950 . S
C3499 C3495 1.393 . S
C3499 C3498 1.391 . S
H3500 C3508 0.950 . S
H3501 C3513 0.950 . S
H3502 C3510 0.950 . S
H3503 C3512 0.950 . S
H3504 C3514 0.950 . S
H3505 C3516 0.950 . S
H3506 C3518 0.950 . S
H3507 C3519 0.950 . S
C3508 H3500 0.950 . S
C3508 C3509 1.386 . S
C3508 C3510 1.391 . S
C3509 C3508 1.386 . S
C3509 C3513 1.393 . S
C3510 H3502 0.950 . S
C3510 C3508 1.391 . S
C3510 C3511 1.400 . S
C3511 C3510 1.400 . S
C3511 C3512 1.398 . S
C3511 C3517 1.491 . S
C3512 H3503 0.950 . S
C3512 C3511 1.398 . S
C3512 C3513 1.391 . S
C3513 H3501 0.950 . S
C3513 C3509 1.393 . S
C3513 C3512 1.391 . S
C3514 H3504 0.950 . S
C3514 C3515 1.386 . S
C3514 C3516 1.391 . S
C3515 C3514 1.386 . S
C3515 C3519 1.393 . S
C3516 H3505 0.950 . S
C3516 C3514 1.391 . S
C3516 C3517 1.400 . S
C3517 C3511 1.491 . S
C3517 C3516 1.400 . S
C3517 C3518 1.398 . S
C3518 H3506 0.950 . S
C3518 C3517 1.398 . S
C3518 C3519 1.391 . S
C3519 H3507 0.950 . S
C3519 C3515 1.393 . S
C3519 C3518 1.391 . S
H3520 C3528 0.950 . S
H3521 C3533 0.950 . S
H3522 C3530 0.950 . S
H3523 C3532 0.950 . S
H3524 C3534 0.950 . S
H3525 C3536 0.950 . S
H3526 C3538 0.950 . S
H3527 C3539 0.950 . S
C3528 H3520 0.950 . S
C3528 C3529 1.386 . S
C3528 C3530 1.391 . S
C3529 C3528 1.386 . S
C3529 C3533 1.393 . S
C3530 H3522 0.950 . S
C3530 C3528 1.391 . S
C3530 C3531 1.400 . S
C3531 C3530 1.400 . S
C3531 C3532 1.398 . S
C3531 C3537 1.491 . S
C3532 H3523 0.950 . S
C3532 C3531 1.398 . S
C3532 C3533 1.391 . S
C3533 H3521 0.950 . S
C3533 C3529 1.393 . S
C3533 C3532 1.391 . S
C3534 H3524 0.950 . S
C3534 C3535 1.386 . S
C3534 C3536 1.391 . S
C3535 C3534 1.386 . S
C3535 C3539 1.393 . S
C3536 H3525 0.950 . S
C3536 C3534 1.391 . S
C3536 C3537 1.400 . S
C3537 C3531 1.491 . S
C3537 C3536 1.400 . S
C3537 C3538 1.398 . S
C3538 H3526 0.950 . S
C3538 C3537 1.398 . S
C3538 C3539 1.391 . S
C3539 H3527 0.950 . S
C3539 C3535 1.393 . S
C3539 C3538 1.391 . S
H3540 C3548 0.950 . S
H3541 C3553 0.950 . S
H3542 C3550 0.950 . S
H3543 C3552 0.950 . S
H3544 C3554 0.950 1_554 S
H3545 C3556 0.950 . S
H3546 C3558 0.950 . S
H3547 C3559 0.950 . S
C3548 H3540 0.950 . S
C3548 C3549 1.386 . S
C3548 C3550 1.391 . S
C3549 C3548 1.386 . S
C3549 C3553 1.393 . S
C3550 H3542 0.950 . S
C3550 C3548 1.391 . S
C3550 C3551 1.400 . S
C3551 C3550 1.400 . S
C3551 C3552 1.398 . S
C3551 C3557 1.491 . S
C3552 H3543 0.950 . S
C3552 C3551 1.398 . S
C3552 C3553 1.391 . S
C3553 H3541 0.950 . S
C3553 C3549 1.393 . S
C3553 C3552 1.391 . S
C3554 H3544 0.950 1_556 S
C3554 C3555 1.386 . S
C3554 C3556 1.391 . S
C3555 C3554 1.386 . S
C3555 C3559 1.393 . S
C3556 H3545 0.950 . S
C3556 C3554 1.391 . S
C3556 C3557 1.400 . S
C3557 C3551 1.491 . S
C3557 C3556 1.400 . S
C3557 C3558 1.398 . S
C3558 H3546 0.950 . S
C3558 C3557 1.398 . S
C3558 C3559 1.391 . S
C3559 H3547 0.950 . S
C3559 C3555 1.393 . S
C3559 C3558 1.391 . S
H3560 C3568 0.950 . S
H3561 C3573 0.950 . S
H3562 C3570 0.950 . S
H3563 C3572 0.950 . S
H3564 C3574 0.950 . S
H3565 C3576 0.950 . S
H3566 C3578 0.950 . S
H3567 C3579 0.950 . S
C3568 H3560 0.950 . S
C3568 C3569 1.386 . S
C3568 C3570 1.391 . S
C3569 C3568 1.386 . S
C3569 C3573 1.393 . S
C3570 H3562 0.950 . S
C3570 C3568 1.391 . S
C3570 C3571 1.400 . S
C3571 C3570 1.400 . S
C3571 C3572 1.398 . S
C3571 C3577 1.491 . S
C3572 H3563 0.950 . S
C3572 C3571 1.398 . S
C3572 C3573 1.391 . S
C3573 H3561 0.950 . S
C3573 C3569 1.393 . S
C3573 C3572 1.391 . S
C3574 H3564 0.950 . S
C3574 C3575 1.386 . S
C3574 C3576 1.391 . S
C3575 C3574 1.386 . S
C3575 C3579 1.393 . S
C3576 H3565 0.950 . S
C3576 C3574 1.391 . S
C3576 C3577 1.400 . S
C3577 C3571 1.491 . S
C3577 C3576 1.400 . S
C3577 C3578 1.398 . S
C3578 H3566 0.950 . S
C3578 C3577 1.398 . S
C3578 C3579 1.391 . S
C3579 H3567 0.950 . S
C3579 C3575 1.393 . S
C3579 C3578 1.391 . S
H3580 C3588 0.950 . S
H3581 C3593 0.950 . S
H3582 C3590 0.950 . S
H3583 C3592 0.950 . S
H3584 C3594 0.950 . S
H3585 C3596 0.950 . S
H3586 C3598 0.950 . S
H3587 C3599 0.950 . S
C3588 H3580 0.950 . S
C3588 C3589 1.386 . S
C3588 C3590 1.391 . S
C3589 C3588 1.386 . S
C3589 C3593 1.393 . S
C3590 H3582 0.950 . S
C3590 C3588 1.391 . S
C3590 C3591 1.400 . S
C3591 C3590 1.400 . S
C3591 C3592 1.398 . S
C3591 C3597 1.491 . S
C3592 H3583 0.950 . S
C3592 C3591 1.398 . S
C3592 C3593 1.391 . S
C3593 H3581 0.950 . S
C3593 C3589 1.393 . S
C3593 C3592 1.391 . S
C3594 H3584 0.950 . S
C3594 C3595 1.386 . S
C3594 C3596 1.391 . S
C3595 C3594 1.386 . S
C3595 C3599 1.393 . S
C3596 H3585 0.950 . S
C3596 C3594 1.391 . S
C3596 C3597 1.400 . S
C3597 C3591 1.491 . S
C3597 C3596 1.400 . S
C3597 C3598 1.398 . S
C3598 H3586 0.950 . S
C3598 C3597 1.398 . S
C3598 C3599 1.391 . S
C3599 H3587 0.950 . S
C3599 C3595 1.393 . S
C3599 C3598 1.391 . S
H3600 C3608 0.950 . S
H3601 C3613 0.950 . S
H3602 C3610 0.950 . S
H3603 C3612 0.950 . S
H3604 C3614 0.950 . S
H3605 C3616 0.950 . S
H3606 C3618 0.950 . S
H3607 C3619 0.950 . S
C3608 H3600 0.950 . S
C3608 C3609 1.386 . S
C3608 C3610 1.391 . S
C3609 C3608 1.386 . S
C3609 C3613 1.393 . S
C3610 H3602 0.950 . S
C3610 C3608 1.391 . S
C3610 C3611 1.400 . S
C3611 C3610 1.400 . S
C3611 C3612 1.398 . S
C3611 C3617 1.491 . S
C3612 H3603 0.950 . S
C3612 C3611 1.398 . S
C3612 C3613 1.391 . S
C3613 H3601 0.950 . S
C3613 C3609 1.393 . S
C3613 C3612 1.391 . S
C3614 H3604 0.950 . S
C3614 C3615 1.386 . S
C3614 C3616 1.391 . S
C3615 C3614 1.386 . S
C3615 C3619 1.393 . S
C3616 H3605 0.950 . S
C3616 C3614 1.391 . S
C3616 C3617 1.400 . S
C3617 C3611 1.491 . S
C3617 C3616 1.400 . S
C3617 C3618 1.398 . S
C3618 H3606 0.950 . S
C3618 C3617 1.398 . S
C3618 C3619 1.391 . S
C3619 H3607 0.950 . S
C3619 C3615 1.393 . S
C3619 C3618 1.391 . S
H3620 C3628 0.950 . S
H3621 C3633 0.950 . S
H3622 C3630 0.950 . S
H3623 C3632 0.950 . S
H3624 C3634 0.950 . S
H3625 C3636 0.950 . S
H3626 C3638 0.950 . S
H3627 C3639 0.950 . S
C3628 H3620 0.950 . S
C3628 C3629 1.386 . S
C3628 C3630 1.391 . S
C3629 C3628 1.386 . S
C3629 C3633 1.393 . S
C3630 H3622 0.950 . S
C3630 C3628 1.391 . S
C3630 C3631 1.400 . S
C3631 C3630 1.400 . S
C3631 C3632 1.398 . S
C3631 C3637 1.491 . S
C3632 H3623 0.950 . S
C3632 C3631 1.398 . S
C3632 C3633 1.391 . S
C3633 H3621 0.950 . S
C3633 C3629 1.393 . S
C3633 C3632 1.391 . S
C3634 H3624 0.950 . S
C3634 C3635 1.386 . S
C3634 C3636 1.391 . S
C3635 C3634 1.386 . S
C3635 C3639 1.393 . S
C3636 H3625 0.950 . S
C3636 C3634 1.391 . S
C3636 C3637 1.400 . S
C3637 C3631 1.491 . S
C3637 C3636 1.400 . S
C3637 C3638 1.398 . S
C3638 H3626 0.950 . S
C3638 C3637 1.398 . S
C3638 C3639 1.391 . S
C3639 H3627 0.950 . S
C3639 C3635 1.393 . S
C3639 C3638 1.391 . S
H3640 C3648 0.950 . S
H3641 C3653 0.950 . S
H3642 C3650 0.950 . S
H3643 C3652 0.950 . S
H3644 C3654 0.950 . S
H3645 C3656 0.950 . S
H3646 C3658 0.950 . S
H3647 C3659 0.950 . S
C3648 H3640 0.950 . S
C3648 C3649 1.386 . S
C3648 C3650 1.391 . S
C3649 C3648 1.386 . S
C3649 C3653 1.393 . S
C3650 H3642 0.950 . S
C3650 C3648 1.391 . S
C3650 C3651 1.400 . S
C3651 C3650 1.400 . S
C3651 C3652 1.398 . S
C3651 C3657 1.491 . S
C3652 H3643 0.950 . S
C3652 C3651 1.398 . S
C3652 C3653 1.391 . S
C3653 H3641 0.950 . S
C3653 C3649 1.393 . S
C3653 C3652 1.391 . S
C3654 H3644 0.950 . S
C3654 C3655 1.386 . S
C3654 C3656 1.391 . S
C3655 C3654 1.386 . S
C3655 C3659 1.393 . S
C3656 H3645 0.950 . S
C3656 C3654 1.391 . S
C3656 C3657 1.400 . S
C3657 C3651 1.491 . S
C3657 C3656 1.400 . S
C3657 C3658 1.398 . S
C3658 H3646 0.950 . S
C3658 C3657 1.398 . S
C3658 C3659 1.391 . S
C3659 H3647 0.950 . S
C3659 C3655 1.393 . S
C3659 C3658 1.391 . S
H3660 C3668 0.950 . S
H3661 C3673 0.950 . S
H3662 C3670 0.950 . S
H3663 C3672 0.950 . S
H3664 C3674 0.950 . S
H3665 C3676 0.950 . S
H3666 C3678 0.950 . S
H3667 C3679 0.950 . S
C3668 H3660 0.950 . S
C3668 C3669 1.386 . S
C3668 C3670 1.391 . S
C3669 C3668 1.386 . S
C3669 C3673 1.393 . S
C3670 H3662 0.950 . S
C3670 C3668 1.391 . S
C3670 C3671 1.400 . S
C3671 C3670 1.400 . S
C3671 C3672 1.398 . S
C3671 C3677 1.491 . S
C3672 H3663 0.950 . S
C3672 C3671 1.398 . S
C3672 C3673 1.391 . S
C3673 H3661 0.950 . S
C3673 C3669 1.393 . S
C3673 C3672 1.391 . S
C3674 H3664 0.950 . S
C3674 C3675 1.386 . S
C3674 C3676 1.391 . S
C3675 C3674 1.386 . S
C3675 C3679 1.393 . S
C3676 H3665 0.950 . S
C3676 C3674 1.391 . S
C3676 C3677 1.400 . S
C3677 C3671 1.491 . S
C3677 C3676 1.400 . S
C3677 C3678 1.398 . S
C3678 H3666 0.950 . S
C3678 C3677 1.398 . S
C3678 C3679 1.391 . S
C3679 H3667 0.950 . S
C3679 C3675 1.393 . S
C3679 C3678 1.391 . S
H3680 C3688 0.950 . S
H3681 C3693 0.950 . S
H3682 C3690 0.950 . S
H3683 C3692 0.950 . S
H3684 C3694 0.950 . S
H3685 C3696 0.950 . S
H3686 C3698 0.950 . S
H3687 C3699 0.950 . S
C3688 H3680 0.950 . S
C3688 C3689 1.386 . S
C3688 C3690 1.391 . S
C3689 C3688 1.386 . S
C3689 C3693 1.393 . S
C3690 H3682 0.950 . S
C3690 C3688 1.391 . S
C3690 C3691 1.400 . S
C3691 C3690 1.400 . S
C3691 C3692 1.398 . S
C3691 C3697 1.491 . S
C3692 H3683 0.950 . S
C3692 C3691 1.398 . S
C3692 C3693 1.391 . S
C3693 H3681 0.950 . S
C3693 C3689 1.393 . S
C3693 C3692 1.391 . S
C3694 H3684 0.950 . S
C3694 C3695 1.386 . S
C3694 C3696 1.391 . S
C3695 C3694 1.386 . S
C3695 C3699 1.393 . S
C3696 H3685 0.950 . S
C3696 C3694 1.391 . S
C3696 C3697 1.400 . S
C3697 C3691 1.491 . S
C3697 C3696 1.400 . S
C3697 C3698 1.398 . S
C3698 H3686 0.950 . S
C3698 C3697 1.398 . S
C3698 C3699 1.391 . S
C3699 H3687 0.950 . S
C3699 C3695 1.393 . S
C3699 C3698 1.391 . S
H3700 C3708 0.950 . S
H3701 C3713 0.950 . S
H3702 C3710 0.950 . S
H3703 C3712 0.950 . S
H3704 C3714 0.950 . S
H3705 C3716 0.950 . S
H3706 C3718 0.950 . S
H3707 C3719 0.950 . S
C3708 H3700 0.950 . S
C3708 C3709 1.386 . S
C3708 C3710 1.391 . S
C3709 C3708 1.386 . S
C3709 C3713 1.393 . S
C3710 H3702 0.950 . S
C3710 C3708 1.391 . S
C3710 C3711 1.400 . S
C3711 C3710 1.400 . S
C3711 C3712 1.398 . S
C3711 C3717 1.491 . S
C3712 H3703 0.950 . S
C3712 C3711 1.398 . S
C3712 C3713 1.391 . S
C3713 H3701 0.950 . S
C3713 C3709 1.393 . S
C3713 C3712 1.391 . S
C3714 H3704 0.950 . S
C3714 C3715 1.386 . S
C3714 C3716 1.391 . S
C3715 C3714 1.386 . S
C3715 C3719 1.393 . S
C3716 H3705 0.950 . S
C3716 C3714 1.391 . S
C3716 C3717 1.400 . S
C3717 C3711 1.491 . S
C3717 C3716 1.400 . S
C3717 C3718 1.398 . S
C3718 H3706 0.950 . S
C3718 C3717 1.398 . S
C3718 C3719 1.391 . S
C3719 H3707 0.950 . S
C3719 C3715 1.393 . S
C3719 C3718 1.391 . S
H3720 C3728 0.950 . S
H3721 C3733 0.950 . S
H3722 C3730 0.950 . S
H3723 C3732 0.950 . S
H3724 C3734 0.950 . S
H3725 C3736 0.950 . S
H3726 C3738 0.950 . S
H3727 C3739 0.912 1_545 S
C3728 H3720 0.950 . S
C3728 C3729 1.386 . S
C3728 C3730 1.391 . S
C3729 C3728 1.386 . S
C3729 C3733 1.393 . S
C3730 H3722 0.950 . S
C3730 C3728 1.391 . S
C3730 C3731 1.400 . S
C3731 C3730 1.400 . S
C3731 C3732 1.398 . S
C3731 C3737 1.491 . S
C3732 H3723 0.950 . S
C3732 C3731 1.398 . S
C3732 C3733 1.391 . S
C3733 H3721 0.950 . S
C3733 C3729 1.393 . S
C3733 C3732 1.391 . S
C3734 H3724 0.950 . S
C3734 C3735 1.386 . S
C3734 C3736 1.391 . S
C3735 C3734 1.386 . S
C3735 C3739 1.404 . S
C3736 H3725 0.950 . S
C3736 C3734 1.391 . S
C3736 C3737 1.400 . S
C3737 C3731 1.491 . S
C3737 C3736 1.400 . S
C3737 C3738 1.398 . S
C3738 H3726 0.950 . S
C3738 C3737 1.398 . S
C3738 C3739 1.418 . S
C3739 H3727 0.912 1_565 S
C3739 C3735 1.404 . S
C3739 C3738 1.418 . S
H3740 C3748 0.950 . S
H3741 C3753 0.950 . S
H3742 C3750 0.950 . S
H3743 C3752 0.950 . S
H3744 C3754 0.950 . S
H3745 C3756 0.950 . S
H3746 C3758 0.950 . S
H3747 C3759 0.950 . S
C3748 H3740 0.950 . S
C3748 C3749 1.386 . S
C3748 C3750 1.391 . S
C3749 C3748 1.386 . S
C3749 C3753 1.393 . S
C3750 H3742 0.950 . S
C3750 C3748 1.391 . S
C3750 C3751 1.400 . S
C3751 C3750 1.400 . S
C3751 C3752 1.398 . S
C3751 C3757 1.491 . S
C3752 H3743 0.950 . S
C3752 C3751 1.398 . S
C3752 C3753 1.391 . S
C3753 H3741 0.950 . S
C3753 C3749 1.393 . S
C3753 C3752 1.391 . S
C3754 H3744 0.950 . S
C3754 C3755 1.386 . S
C3754 C3756 1.391 . S
C3755 C3754 1.386 . S
C3755 C3759 1.393 . S
C3756 H3745 0.950 . S
C3756 C3754 1.391 . S
C3756 C3757 1.400 . S
C3757 C3751 1.491 . S
C3757 C3756 1.400 . S
C3757 C3758 1.398 . S
C3758 H3746 0.950 . S
C3758 C3757 1.398 . S
C3758 C3759 1.391 . S
C3759 H3747 0.950 . S
C3759 C3755 1.393 . S
C3759 C3758 1.391 . S
H3760 C3768 0.950 . S
H3761 C3773 0.950 . S
H3762 C3770 0.950 . S
H3763 C3772 0.950 . S
H3764 C3774 0.950 . S
H3765 C3776 0.950 . S
H3766 C3778 0.950 . S
H3767 C3779 0.950 . S
C3768 H3760 0.950 . S
C3768 C3769 1.386 . S
C3768 C3770 1.391 . S
C3769 C3768 1.386 . S
C3769 C3773 1.393 . S
C3770 H3762 0.950 . S
C3770 C3768 1.391 . S
C3770 C3771 1.400 . S
C3771 C3770 1.400 . S
C3771 C3772 1.398 . S
C3771 C3777 1.491 . S
C3772 H3763 0.950 . S
C3772 C3771 1.398 . S
C3772 C3773 1.391 . S
C3773 H3761 0.950 . S
C3773 C3769 1.393 . S
C3773 C3772 1.391 . S
C3774 H3764 0.950 . S
C3774 C3775 1.386 . S
C3774 C3776 1.391 . S
C3775 C3774 1.386 . S
C3775 C3779 1.393 . S
C3776 H3765 0.950 . S
C3776 C3774 1.391 . S
C3776 C3777 1.400 . S
C3777 C3771 1.491 . S
C3777 C3776 1.400 . S
C3777 C3778 1.398 . S
C3778 H3766 0.950 . S
C3778 C3777 1.398 . S
C3778 C3779 1.391 . S
C3779 H3767 0.950 . S
C3779 C3775 1.393 . S
C3779 C3778 1.391 . S
H3780 C3788 0.950 . S
H3781 C3793 0.950 . S
H3782 C3790 0.950 . S
H3783 C3792 0.950 . S
H3784 C3794 0.950 . S
H3785 C3796 0.950 . S
H3786 C3798 0.950 . S
H3787 C3799 0.950 . S
C3788 H3780 0.950 . S
C3788 C3789 1.386 . S
C3788 C3790 1.391 . S
C3789 C3788 1.386 . S
C3789 C3793 1.393 . S
C3790 H3782 0.950 . S
C3790 C3788 1.391 . S
C3790 C3791 1.400 . S
C3791 C3790 1.400 . S
C3791 C3792 1.398 . S
C3791 C3797 1.491 . S
C3792 H3783 0.950 . S
C3792 C3791 1.398 . S
C3792 C3793 1.391 . S
C3793 H3781 0.950 . S
C3793 C3789 1.393 . S
C3793 C3792 1.391 . S
C3794 H3784 0.950 . S
C3794 C3795 1.386 . S
C3794 C3796 1.391 . S
C3795 C3794 1.386 . S
C3795 C3799 1.393 . S
C3796 H3785 0.950 . S
C3796 C3794 1.391 . S
C3796 C3797 1.400 . S
C3797 C3791 1.491 . S
C3797 C3796 1.400 . S
C3797 C3798 1.398 . S
C3798 H3786 0.950 . S
C3798 C3797 1.398 . S
C3798 C3799 1.391 . S
C3799 H3787 0.950 . S
C3799 C3795 1.393 . S
C3799 C3798 1.391 . S
H3800 C3808 0.950 . S
H3801 C3813 0.950 . S
H3802 C3810 0.950 . S
H3803 C3812 0.950 . S
H3804 C3814 0.950 . S
H3805 C3816 0.950 . S
H3806 C3818 0.950 . S
H3807 C3819 0.950 . S
C3808 H3800 0.950 . S
C3808 C3809 1.386 . S
C3808 C3810 1.391 . S
C3809 C3808 1.386 . S
C3809 C3813 1.393 . S
C3810 H3802 0.950 . S
C3810 C3808 1.391 . S
C3810 C3811 1.400 . S
C3811 C3810 1.400 . S
C3811 C3812 1.398 . S
C3811 C3817 1.491 . S
C3812 H3803 0.950 . S
C3812 C3811 1.398 . S
C3812 C3813 1.391 . S
C3813 H3801 0.950 . S
C3813 C3809 1.393 . S
C3813 C3812 1.391 . S
C3814 H3804 0.950 . S
C3814 C3815 1.386 . S
C3814 C3816 1.391 . S
C3815 C3814 1.386 . S
C3815 C3819 1.393 . S
C3816 H3805 0.950 . S
C3816 C3814 1.391 . S
C3816 C3817 1.400 . S
C3817 C3811 1.491 . S
C3817 C3816 1.400 . S
C3817 C3818 1.398 . S
C3818 H3806 0.950 . S
C3818 C3817 1.398 . S
C3818 C3819 1.391 . S
C3819 H3807 0.950 . S
C3819 C3815 1.393 . S
C3819 C3818 1.391 . S
H3820 C3828 0.950 . S
H3821 C3833 0.950 . S
H3822 C3830 0.950 . S
H3823 C3832 0.933 1_545 S
H3824 C3834 0.950 . S
H3825 C3836 0.950 . S
H3826 C3838 0.950 . S
H3827 C3839 0.950 . S
C3828 H3820 0.950 . S
C3828 C3829 1.386 1_565 S
C3828 C3830 1.391 . S
C3829 C3828 1.386 1_545 S
C3829 C3833 1.393 . S
C3830 H3822 0.950 . S
C3830 C3828 1.391 . S
C3830 C3831 1.400 . S
C3831 C3830 1.400 . S
C3831 C3832 1.445 . S
C3831 C3837 1.491 . S
C3832 H3823 0.933 1_565 S
C3832 C3831 1.445 . S
C3832 C3833 1.362 1_565 S
C3833 H3821 0.950 . S
C3833 C3829 1.393 . S
C3833 C3832 1.362 1_545 S
C3834 H3824 0.950 . S
C3834 C3835 1.386 . S
C3834 C3836 1.391 . S
C3835 C3834 1.386 . S
C3835 C3839 1.393 . S
C3836 H3825 0.950 . S
C3836 C3834 1.391 . S
C3836 C3837 1.400 . S
C3837 C3831 1.491 . S
C3837 C3836 1.400 . S
C3837 C3838 1.398 . S
C3838 H3826 0.950 . S
C3838 C3837 1.398 . S
C3838 C3839 1.391 . S
C3839 H3827 0.950 . S
C3839 C3835 1.393 . S
C3839 C3838 1.391 . S
C969 C8 2.329 . S
C975 C99 2.253 . S
C989 C39 2.565 . S
C995 C109 2.331 . S
C1009 C139 2.024 . S
C1015 C49 1.895 . S
C1029 C159 1.630 . S
C1035 C69 1.498 . S
C1049 C179 2.052 . S
C1055 C199 2.046 . S
C1069 C189 1.877 . S
C1075 C219 2.013 . S
C1089 C229 1.755 . S
C1095 C209 1.754 . S
C1109 C239 1.975 1_545 S
C1115 C169 1.862 . S
C1129 C249 2.197 . S
C1135 C79 2.371 . S
C1149 C149 1.497 . S
C1155 C679 1.648 . S
C1169 C89 1.796 1_655 S
C1175 C269 1.781 1_455 S
C1189 C119 1.641 . S
C1195 C689 1.497 . S
C1209 C29 2.198 . S
C1215 C299 2.372 . S
C1229 C639 1.986 . S
C1235 C2 1.910 . S
C1249 C602 1.922 . S
C1255 C59 1.992 . S
C1269 C398 2.246 . S
C1275 C309 2.317 . S
C1289 C338 2.568 . S
C1295 C408 2.344 . S
C1309 C348 1.910 . S
C1315 C438 2.037 . S
C1329 C368 1.514 . S
C1335 C458 1.637 . S
C1349 C498 2.047 . S
C1355 C478 2.059 . S
C1369 C488 1.903 . S
C1375 C518 2.033 . S
C1389 C528 1.772 . S
C1395 C508 1.760 . S
C1409 C468 1.843 . S
C1415 C538 1.961 1_565 S
C1429 C378 2.387 . S
C1435 C548 2.225 . S
C1449 C858 1.634 . S
C1455 C448 1.486 . S
C1469 C568 1.815 1_655 S
C1475 C388 1.839 1_455 S
C1489 C418 1.629 . S
C1495 C868 1.465 . S
C1509 C598 2.372 . S
C1515 C328 2.198 . S
C1529 C301 1.922 . S
C1535 C818 1.991 . S
C1549 C358 1.991 . S
C1555 C781 1.921 . S
C1569 C659 2.240 . S
C1575 C608 2.319 . S
C1589 C669 2.317 . S
C1595 C259 2.557 . S
C1609 C629 1.886 . S
C1615 C279 2.020 . S
C1629 C699 1.650 . S
C1635 C289 1.525 . S
C1649 C719 2.049 . S
C1655 C739 2.036 . S
C1669 C729 1.897 . S
C1675 C759 2.030 . S
C1689 C769 1.780 . S
C1695 C749 1.768 . S
C1709 C709 1.832 . S
C1715 C779 1.962 . S
C1729 C129 1.802 . S
C1735 C649 1.818 . S
C1749 C838 2.239 . S
C1755 C789 2.320 . S
C1769 C848 2.335 . S
C1775 C558 2.561 . S
C1789 C578 2.034 . S
C1795 C808 1.908 . S
C1809 C878 1.650 . S
C1815 C588 1.529 . S
C1829 C898 2.055 . S
C1835 C918 2.049 . S
C1849 C908 1.906 . S
C1855 C938 2.029 . S
C1869 C928 1.770 . S
C1875 C948 1.782 . S
C1889 C958 1.960 . S
C1895 C888 1.832 . S
C1909 C828 1.821 . S
C1915 C428 1.790 . S
C1929 C9 0.443 . S
C1935 C321 0.402 . S
C1949 C802 0.813 . S
C1955 C38 0.807 . S
C1969 C48 0.375 . S
C1975 C362 0.408 . S
C1989 C68 1.012 . S
C1995 C799 1.016 . S
C2009 C98 1.216 . S
C2015 C441 1.272 . S
C2029 C108 0.967 . S
C2035 C821 0.956 . S
C2049 C138 1.221 . S
C2055 C402 1.214 . S
C2069 C561 0.906 . S
C2075 C158 0.886 . S
C2089 C178 0.883 . S
C2095 C798 0.879 . S
C2109 C188 0.206 . S
C2115 C322 0.457 . S
C2129 C208 0.614 . S
C2135 C801 0.609 . S
C2149 C361 1.054 . S
C2155 C238 1.008 . S
C2169 C822 1.128 . S
C2175 C228 1.221 . S
C2189 C401 0.516 . S
C2195 C168 0.506 . S
C2209 C198 0.869 . S
C2215 C562 0.871 . S
C2229 C442 1.290 . S
C2235 C218 1.293 . S
C2249 C882 0.572 . S
C2255 C248 0.521 . S
C2269 C521 0.798 . S
C2275 C148 0.785 . S
C2289 C88 0.550 . S
C2295 C881 0.529 . S
C2309 C118 0.746 . S
C2315 C482 0.730 . S
C2329 C268 1.155 . S
C2335 C502 1.083 . S
C2349 C921 0.838 . S
C2355 C298 0.803 . S
C2369 C1 0.569 . S
C2375 C942 0.573 . S
C2389 C58 0.590 . S
C2395 C901 0.606 . S
C2409 C22 0.397 . S
C2415 C308 0.437 . S
C2429 C339 0.807 . S
C2435 C621 0.829 . S
C2449 C349 0.363 . S
C2455 C61 0.401 . S
C2469 C369 1.011 . S
C2475 C618 1.027 . S
C2489 C142 1.268 . S
C2495 C399 1.239 . S
C2509 C642 0.957 . S
C2515 C409 0.968 . S
C2529 C101 1.207 . S
C2535 C439 1.224 . S
C2549 C459 0.899 . S
C2555 C262 0.908 . S
C2569 C479 0.842 . S
C2575 C619 0.874 . S
C2589 C21 0.387 . S
C2595 C489 0.212 . S
C2609 C509 0.630 . S
C2615 C622 0.606 . S
C2629 C62 1.030 1_556 S
C2635 C539 1.039 . S
C2649 C641 1.170 . S
C2655 C529 1.232 . S
C2669 C469 0.500 . S
C2675 C102 0.510 . S
C2689 C499 0.891 . S
C2695 C261 0.904 . S
C2709 C141 1.286 . S
C2715 C519 1.297 . S
C2729 C549 0.520 . S
C2735 C701 0.573 . S
C2749 C222 0.789 . S
C2755 C449 0.801 . S
C2769 C702 0.555 . S
C2775 C389 0.541 . S
C2789 C419 0.744 . S
C2795 C181 0.721 . S
C2809 C569 1.163 . S
C2815 C201 1.122 . S
C2829 C742 0.840 . S
C2835 C599 0.834 . S
C2849 C302 0.576 . S
C2855 C761 0.610 . S
C2869 C722 0.615 . S
C2875 C359 0.589 . S
C2889 C541 0.339 . S
C2895 C609 0.521 . S
C2909 C258 0.840 . S
C2915 C342 0.846 . S
C2929 C582 0.392 . S
C2935 C628 0.376 . S
C2949 C288 1.017 . S
C2955 C319 1.026 . S
C2969 C658 1.217 . S
C2975 C861 1.272 . S
C2989 C381 0.970 . S
C2995 C668 0.965 . S
C3009 C278 1.191 . S
C3015 C842 1.178 . S
C3029 C421 0.910 . S
C3035 C698 0.867 . S
C3049 C718 0.842 . S
C3055 C318 0.874 . S
C3069 C728 0.248 . S
C3075 C542 0.406 . S
C3089 C748 0.605 . S
C3095 C341 0.619 . S
C3109 C581 1.049 . S
C3115 C778 1.025 . S
C3129 C382 1.161 . S
C3135 C768 1.226 . S
C3149 C708 0.534 . S
C3155 C841 0.522 . S
C3169 C422 0.896 . S
C3175 C738 0.908 . S
C3189 C758 1.326 . S
C3195 C862 1.319 . S
C3209 C28 0.529 . S
C3215 C462 0.553 . S
C3229 C941 0.799 . S
C3235 C688 0.786 . S
C3249 C648 0.534 . S
C3255 C461 0.556 . S
C3269 C678 0.746 . S
C3275 C902 0.731 . S
C3289 C922 1.106 . S
C3295 C128 1.157 . S
C3309 C501 0.838 . S
C3315 C78 0.845 . S
C3329 C601 0.569 . S
C3335 C522 0.573 . S
C3349 C481 0.586 . S
C3355 C638 0.627 . S
C3369 C242 0.371 . S
C3375 C788 0.492 . S
C3389 C559 0.801 . S
C3395 C41 0.819 . S
C3409 C281 0.445 . S
C3415 C809 0.348 . S
C3429 C589 1.006 . S
C3435 C18 1.022 . S
C3449 C839 1.232 . S
C3455 C682 1.267 . S
C3469 C82 0.969 . S
C3475 C849 0.957 . S
C3489 C661 1.181 . S
C3495 C579 1.205 . S
C3509 C122 0.908 . S
C3515 C879 0.874 . S
C3529 C19 0.874 . S
C3535 C899 0.855 . S
C3549 C909 0.213 . S
C3555 C241 0.466 . S
C3569 C42 0.628 . S
C3575 C929 0.613 . S
C3589 C282 1.045 . S
C3595 C959 1.010 . S
C3609 C81 1.126 . S
C3615 C949 1.224 . S
C3629 C662 0.495 . S
C3635 C889 0.506 . S
C3649 C919 0.907 . S
C3655 C121 0.912 . S
C3669 C681 1.290 . S
C3675 C939 1.293 . S
C3689 C161 0.572 . S
C3695 C329 0.506 . S
C3709 C869 0.785 . S
C3715 C762 0.798 . S
C3729 C829 0.548 . S
C3735 C162 0.525 . S
C3749 C721 0.733 . S
C3755 C859 0.745 . S
C3769 C429 1.167 . S
C3775 C741 1.105 . S
C3789 C379 0.848 . S
C3795 C202 0.837 . S
C3809 C221 0.637 . S
C3815 C782 0.619 . S
C3829 C182 0.595 . S
C3835 C819 0.602 . S
