# Generated by pormake.
# Topology fnl, (5)-cn, num edge types: 1
# Building blocks:
#     Node 0, Type 0, BuildingBlock: XOMCOT_clean_sbu_0, # of connection points: 5
#     Node 1, Type 0, BuildingBlock: XOMCOT_clean_sbu_0, # of connection points: 5
#     Node 2, Type 0, BuildingBlock: XOMCOT_clean_sbu_0, # of connection points: 5
#     Node 3, Type 0, BuildingBlock: XOMCOT_clean_sbu_0, # of connection points: 5
#     Node 4, Type 0, BuildingBlock: XOMCOT_clean_sbu_0, # of connection points: 5
#     Node 5, Type 0, BuildingBlock: XOMCOT_clean_sbu_0, # of connection points: 5
#     Node 6, Type 0, BuildingBlock: XOMCOT_clean_sbu_0, # of connection points: 5
#     Node 7, Type 0, BuildingBlock: XOMCOT_clean_sbu_0, # of connection points: 5
#     Node 8, Type 0, BuildingBlock: XOMCOT_clean_sbu_0, # of connection points: 5
#     Node 9, Type 0, BuildingBlock: XOMCOT_clean_sbu_0, # of connection points: 5
#     Node 10, Type 0, BuildingBlock: XOMCOT_clean_sbu_0, # of connection points: 5
#     Node 11, Type 0, BuildingBlock: XOMCOT_clean_sbu_0, # of connection points: 5
#     Node 12, Type 0, BuildingBlock: XOMCOT_clean_sbu_0, # of connection points: 5
#     Node 13, Type 0, BuildingBlock: XOMCOT_clean_sbu_0, # of connection points: 5
#     Node 14, Type 0, BuildingBlock: XOMCOT_clean_sbu_0, # of connection points: 5
#     Node 15, Type 0, BuildingBlock: XOMCOT_clean_sbu_0, # of connection points: 5
#     Edge 16, Type (0, 0), BuildingBlock: XIVTED_clean_linker_0, # of connection points: 2
#     Edge 17, Type (0, 0), BuildingBlock: XIVTED_clean_linker_0, # of connection points: 2
#     Edge 18, Type (0, 0), BuildingBlock: XIVTED_clean_linker_0, # of connection points: 2
#     Edge 19, Type (0, 0), BuildingBlock: XIVTED_clean_linker_0, # of connection points: 2
#     Edge 20, Type (0, 0), BuildingBlock: XIVTED_clean_linker_0, # of connection points: 2
#     Edge 21, Type (0, 0), BuildingBlock: XIVTED_clean_linker_0, # of connection points: 2
#     Edge 22, Type (0, 0), BuildingBlock: XIVTED_clean_linker_0, # of connection points: 2
#     Edge 23, Type (0, 0), BuildingBlock: XIVTED_clean_linker_0, # of connection points: 2
#     Edge 24, Type (0, 0), BuildingBlock: XIVTED_clean_linker_0, # of connection points: 2
#     Edge 25, Type (0, 0), BuildingBlock: XIVTED_clean_linker_0, # of connection points: 2
#     Edge 26, Type (0, 0), BuildingBlock: XIVTED_clean_linker_0, # of connection points: 2
#     Edge 27, Type (0, 0), BuildingBlock: XIVTED_clean_linker_0, # of connection points: 2
#     Edge 28, Type (0, 0), BuildingBlock: XIVTED_clean_linker_0, # of connection points: 2
#     Edge 29, Type (0, 0), BuildingBlock: XIVTED_clean_linker_0, # of connection points: 2
#     Edge 30, Type (0, 0), BuildingBlock: XIVTED_clean_linker_0, # of connection points: 2
#     Edge 31, Type (0, 0), BuildingBlock: XIVTED_clean_linker_0, # of connection points: 2
#     Edge 32, Type (0, 0), BuildingBlock: XIVTED_clean_linker_0, # of connection points: 2
#     Edge 33, Type (0, 0), BuildingBlock: XIVTED_clean_linker_0, # of connection points: 2
#     Edge 34, Type (0, 0), BuildingBlock: XIVTED_clean_linker_0, # of connection points: 2
#     Edge 35, Type (0, 0), BuildingBlock: XIVTED_clean_linker_0, # of connection points: 2
#     Edge 36, Type (0, 0), BuildingBlock: XIVTED_clean_linker_0, # of connection points: 2
#     Edge 37, Type (0, 0), BuildingBlock: XIVTED_clean_linker_0, # of connection points: 2
#     Edge 38, Type (0, 0), BuildingBlock: XIVTED_clean_linker_0, # of connection points: 2
#     Edge 39, Type (0, 0), BuildingBlock: XIVTED_clean_linker_0, # of connection points: 2
#     Edge 40, Type (0, 0), BuildingBlock: XIVTED_clean_linker_0, # of connection points: 2
#     Edge 41, Type (0, 0), BuildingBlock: XIVTED_clean_linker_0, # of connection points: 2
#     Edge 42, Type (0, 0), BuildingBlock: XIVTED_clean_linker_0, # of connection points: 2
#     Edge 43, Type (0, 0), BuildingBlock: XIVTED_clean_linker_0, # of connection points: 2
#     Edge 44, Type (0, 0), BuildingBlock: XIVTED_clean_linker_0, # of connection points: 2
#     Edge 45, Type (0, 0), BuildingBlock: XIVTED_clean_linker_0, # of connection points: 2
#     Edge 46, Type (0, 0), BuildingBlock: XIVTED_clean_linker_0, # of connection points: 2
#     Edge 47, Type (0, 0), BuildingBlock: XIVTED_clean_linker_0, # of connection points: 2
#     Edge 48, Type (0, 0), BuildingBlock: XIVTED_clean_linker_0, # of connection points: 2
#     Edge 49, Type (0, 0), BuildingBlock: XIVTED_clean_linker_0, # of connection points: 2
#     Edge 50, Type (0, 0), BuildingBlock: XIVTED_clean_linker_0, # of connection points: 2
#     Edge 51, Type (0, 0), BuildingBlock: XIVTED_clean_linker_0, # of connection points: 2
#     Edge 52, Type (0, 0), BuildingBlock: XIVTED_clean_linker_0, # of connection points: 2
#     Edge 53, Type (0, 0), BuildingBlock: XIVTED_clean_linker_0, # of connection points: 2
#     Edge 54, Type (0, 0), BuildingBlock: XIVTED_clean_linker_0, # of connection points: 2
#     Edge 55, Type (0, 0), BuildingBlock: XIVTED_clean_linker_0, # of connection points: 2
# Relax obj value: 0.530
# Max RMSD: 0.271
# Mean RMSD: 0.271
data_MOF--net-fnl--node1-XOMCOT_clean_sbu_0--edge1-XIVTED_clean_linker_0
_symmetry_space_group_name_H-M    P1
_symmetry_Int_Tables_number       1
_symmetry_cell_setting            triclinic
loop_
_symmetry_equiv_pos_as_xyz
'x, y, z'
_cell_length_a     34.586713
_cell_length_b     34.582247
_cell_length_c     96.203753
_cell_angle_alpha  90.124288
_cell_angle_beta   89.924658
_cell_angle_gamma 89.993563
loop_
_atom_site_label
_atom_site_type_symbol
_atom_site_fract_x
_atom_site_fract_y
_atom_site_fract_z
_atom_type_partial_charge
Co0 Co 0.02863 0.04156 0.0683 0.0
C1 C 0.04432 0.12369 0.07514 0.0
C2 C 0.09377 0.09606 0.0661 0.0
C3 C 0.10319 0.13397 0.069 0.0
N4 N 0.05677 0.08972 0.06996 0.0
N5 N 0.07203 0.15099 0.07479 0.0
H6 H 0.01554 0.12898 0.07894 0.0
H7 H 0.11273 0.07458 0.06157 0.0
C8 C 0.0833 0.03093 0.09233 0.0
O9 O 0.08158 0.06785 0.09547 0.0
N10 N 0.00096 0.99364 0.06649 0.0
C11 C 0.96289 0.98904 0.06405 0.0
C12 C 0.95478 0.95009 0.06383 0.0
C13 C 0.01563 0.95779 0.06756 0.0
N14 N 0.988 0.93059 0.06603 0.0
C15 C 0.96034 0.0804 0.07758 0.0
C16 C 0.95506 0.04358 0.10293 0.0
C17 C 0.92335 0.06483 0.0981 0.0
C18 C 0.92668 0.08443 0.08547 0.0
C19 C 0.98789 0.03973 0.09464 0.0
N20 N 0.99019 0.05757 0.082 0.0
H21 H 0.96149 0.09411 0.06752 0.0
H22 H 0.00953 0.0195 0.09799 0.0
H23 H 0.94248 0.01229 0.06249 0.0
H24 H 0.04582 0.9518 0.06955 0.0
O25 O 0.00383 0.0601 0.05164 0.0
O26 O 0.05937 0.02806 0.0523 0.0
O27 O 0.06297 0.01677 0.08251 0.0
C28 C 0.03257 0.04451 0.04494 0.0
H29 H 0.13072 0.14783 0.06707 0.0
H30 H 0.92679 0.93715 0.06193 0.0
H31 H 0.95316 0.02696 0.11244 0.0
H32 H 0.90263 0.10085 0.08134 0.0
Co33 Co 0.26256 0.81049 0.3132 0.0
C34 C 0.183 0.79776 0.32199 0.0
C35 C 0.1991 0.85725 0.32478 0.0
C36 C 0.16124 0.85268 0.32897 0.0
N37 N 0.21244 0.82271 0.32047 0.0
N38 N 0.15127 0.81522 0.32717 0.0
H39 H 0.18506 0.76738 0.31938 0.0
H40 H 0.21548 0.88388 0.3247 0.0
C41 C 0.30215 0.87881 0.32393 0.0
O42 O 0.30262 0.89036 0.31094 0.0
N43 N 0.31353 0.79805 0.30591 0.0
C44 C 0.32275 0.7822 0.29348 0.0
C45 C 0.36214 0.77763 0.29273 0.0
C46 C 0.34755 0.80228 0.31258 0.0
N47 N 0.3776 0.79044 0.30472 0.0
C48 C 0.27407 0.73228 0.32057 0.0
C49 C 0.26051 0.74032 0.34876 0.0
C50 C 0.26885 0.70338 0.34337 0.0
C51 C 0.27584 0.69986 0.32904 0.0
C52 C 0.25982 0.77232 0.33989 0.0
N53 N 0.26663 0.76787 0.32601 0.0
H54 H 0.27883 0.72886 0.30953 0.0
H55 H 0.25302 0.80053 0.3441 0.0
H56 H 0.30261 0.77393 0.28545 0.0
H57 H 0.35037 0.81307 0.32309 0.0
O58 O 0.23843 0.78342 0.29802 0.0
O59 O 0.25383 0.84557 0.29788 0.0
O60 O 0.28662 0.84653 0.32705 0.0
C61 C 0.23964 0.81592 0.29128 0.0
H62 H 0.14227 0.87539 0.33265 0.0
H63 H 0.37821 0.76637 0.28395 0.0
H64 H 0.25437 0.74458 0.35969 0.0
H65 H 0.28346 0.67244 0.32434 0.0
Co66 Co 0.5041 0.02732 0.5685 0.0
C67 C 0.49881 0.9457 0.57487 0.0
C68 C 0.44715 0.97472 0.58153 0.0
C69 C 0.44475 0.93625 0.58532 0.0
N70 N 0.48117 0.98026 0.57503 0.0
N71 N 0.47753 0.9183 0.5812 0.0
H72 H 0.5269 0.94091 0.57023 0.0
H73 H 0.42603 -0.00293 0.58361 0.0
C74 C 0.48839 0.0858 0.5908 0.0
O75 O 0.52485 0.09636 0.5903 0.0
N76 N 0.52723 0.07479 0.56171 0.0
C77 C 0.56338 0.08119 0.55697 0.0
C78 C 0.56684 0.11953 0.55346 0.0
C79 C 0.50885 0.10894 0.56039 0.0
N80 N 0.53257 0.13711 0.55572 0.0
C81 C 0.58196 0.0039 0.57393 0.0
C82 C 0.58128 0.01686 0.6022 0.0
C83 C 0.6169 0.01123 0.59544 0.0
C84 C 0.61637 0.00131 0.58132 0.0
C85 C 0.54724 0.01785 0.59439 0.0
N86 N 0.54879 0.01634 0.58021 0.0
H87 H 0.58268 -0.00232 0.56295 0.0
H88 H 0.52007 0.02181 0.59972 0.0
H89 H 0.58599 0.05999 0.55597 0.0
H90 H 0.47869 0.11295 0.56299 0.0
O91 O 0.52104 0.0013 0.55193 0.0
O92 O 0.46505 0.03182 0.55419 0.0
O93 O 0.47604 0.05765 0.5834 0.0
C94 C 0.48898 0.01275 0.54628 0.0
H95 H 0.42123 0.92286 0.59096 0.0
H96 H 0.59302 0.13337 0.54984 0.0
H97 H 0.57971 0.02307 0.61322 0.0
H98 H 0.6427 0.99405 0.5758 0.0
Co99 Co 0.27081 0.27148 0.81733 0.0
C100 C 0.3527 0.26436 0.82574 0.0
C101 C 0.32601 0.20896 0.82305 0.0
C102 C 0.36465 0.20341 0.82597 0.0
N103 N 0.31862 0.24726 0.82296 0.0
N104 N 0.38113 0.2384 0.82771 0.0
H105 H 0.35767 0.29503 0.82547 0.0
H106 H 0.30503 0.1867 0.8207 0.0
C107 C 0.25065 0.22642 0.84298 0.0
O108 O 0.28292 0.23802 0.84886 0.0
N109 N 0.22344 0.29561 0.81153 0.0
C110 C 0.21946 0.33225 0.807 0.0
C111 C 0.18085 0.33943 0.80482 0.0
C112 C 0.18753 0.28075 0.81188 0.0
N113 N 0.16096 0.30703 0.80789 0.0
C114 C 0.30153 0.34396 0.82666 0.0
C115 C 0.2531 0.35278 0.84925 0.0
C116 C 0.27752 0.38327 0.8455 0.0
C117 C 0.30208 0.37864 0.8341 0.0
C118 C 0.25278 0.31899 0.84134 0.0
N119 N 0.27757 0.31421 0.83039 0.0
H120 H 0.31908 0.34203 0.81741 0.0
H121 H 0.23042 0.29825 0.84352 0.0
H122 H 0.24292 0.35253 0.80561 0.0
H123 H 0.18085 0.25179 0.81538 0.0
O124 O 0.29629 0.29341 0.80136 0.0
O125 O 0.26748 0.23615 0.80184 0.0
O126 O 0.24126 0.23863 0.83094 0.0
C127 C 0.28579 0.26233 0.79474 0.0
H128 H 0.37964 0.17596 0.82639 0.0
H129 H 0.16835 0.36636 0.80128 0.0
H130 H 0.23235 0.3561 0.85762 0.0
H131 H 0.32049 0.40211 0.83067 0.0
Co132 Co 0.01976 0.03554 0.91892 0.0
C133 C 0.02975 0.95342 0.91069 0.0
C134 C 0.08397 0.9821 0.91378 0.0
C135 C 0.09113 0.94374 0.91085 0.0
N136 N 0.04542 0.98807 0.91368 0.0
N137 N 0.0569 0.92601 0.90886 0.0
H138 H -0.00073 0.94736 0.91059 0.0
H139 H 0.10532 0.00395 0.91621 0.0
C140 C 0.06306 0.05411 0.89278 0.0
O141 O 0.05128 0.02132 0.88731 0.0
N142 N 0.99473 0.08283 0.92434 0.0
C143 C 0.95776 0.08712 0.9285 0.0
C144 C 0.95134 0.12556 0.93138 0.0
C145 C 0.01054 0.11829 0.92492 0.0
N146 N 0.98459 0.14495 0.92915 0.0
C147 C 0.94813 0.00162 0.91067 0.0
C148 C 0.93389 0.0509 0.88876 0.0
C149 C 0.90404 0.02734 0.8937 0.0
C150 C 0.91164 0.00177 0.90454 0.0
C151 C 0.96973 0.05055 0.89539 0.0
N152 N 0.9767 0.02614 0.90627 0.0
H153 H 0.95213 0.98387 0.91975 0.0
H154 H 0.9901 0.0727 0.89257 0.0
H155 H 0.93693 0.06396 0.92942 0.0
H156 H 0.04021 0.12449 0.92212 0.0
O157 O -0.00099 0.01116 0.9353 0.0
O158 O 0.05543 0.04143 0.93419 0.0
O159 O 0.05124 0.06459 0.90479 0.0
C160 C 0.02987 0.02326 0.94165 0.0
H161 H 0.11915 0.9298 0.91054 0.0
H162 H 0.92449 0.13821 0.93497 0.0
H163 H 0.92843 0.07217 0.88074 0.0
H164 H 0.88884 0.98395 0.90885 0.0
Co165 Co 0.26986 0.79647 0.1656 0.0
C166 C 0.35267 0.81177 0.1611 0.0
C167 C 0.32292 0.86263 0.16806 0.0
C168 C 0.36167 0.87123 0.16682 0.0
N169 N 0.31747 0.82524 0.16448 0.0
N170 N 0.38001 0.83914 0.16236 0.0
H171 H 0.35887 0.78219 0.15838 0.0
H172 H 0.30044 0.88212 0.17154 0.0
C173 C 0.26171 0.84894 0.14081 0.0
O174 O 0.29925 0.84963 0.13883 0.0
N175 N 0.22247 0.768 0.16701 0.0
C176 C 0.21793 0.72995 0.16957 0.0
C177 C 0.1791 0.7224 0.17102 0.0
C178 C 0.1868 0.78319 0.1671 0.0
N179 N 0.15981 0.75599 0.16955 0.0
C180 C 0.30946 0.72637 0.15881 0.0
C181 C 0.27736 0.71778 0.13274 0.0
C182 C 0.29381 0.68556 0.13923 0.0
C183 C 0.31187 0.69059 0.1521 0.0
C184 C 0.2747 0.75269 0.13992 0.0
N185 N 0.28907 0.75628 0.15309 0.0
H186 H 0.32097 0.7288 0.16919 0.0
H187 H 0.2574 0.77492 0.13526 0.0
H188 H 0.24107 0.70934 0.17089 0.0
H189 H 0.18088 0.81368 0.16572 0.0
O190 O 0.28575 0.77518 0.18327 0.0
O191 O 0.25288 0.82967 0.18045 0.0
O192 O 0.24657 0.82781 0.15021 0.0
C193 C 0.26827 0.80475 0.18885 0.0
H194 H 0.37537 0.89854 0.16926 0.0
H195 H 0.16622 0.69481 0.17361 0.0
H196 H 0.26244 0.71493 0.12289 0.0
H197 H 0.32477 0.66627 0.15745 0.0
Co198 Co 0.50121 0.03245 0.4202 0.0
C199 C 0.49461 0.11716 0.41915 0.0
C200 C 0.43924 0.09022 0.41694 0.0
C201 C 0.43422 0.12981 0.4165 0.0
N202 N 0.47734 0.08252 0.41827 0.0
N203 N 0.46921 0.14631 0.41803 0.0
H204 H 0.52507 0.12155 0.42058 0.0
H205 H 0.41675 0.06856 0.41631 0.0
C206 C 0.45868 0.02849 0.39322 0.0
O207 O 0.47193 0.06312 0.39026 0.0
N208 N 0.52469 0.98272 0.42246 0.0
C209 C 0.56166 0.97576 0.42603 0.0
C210 C 0.5668 0.93651 0.42696 0.0
C211 C 0.50763 0.94798 0.4214 0.0
N212 N 0.53279 0.91911 0.42408 0.0
C213 C 0.57389 0.06777 0.41334 0.0
C214 C 0.58494 0.0289 0.38859 0.0
C215 C 0.61555 0.05035 0.39417 0.0
C216 C 0.60945 0.07066 0.40654 0.0
C217 C 0.55007 0.0263 0.3958 0.0
N218 N 0.54437 0.04602 0.40798 0.0
H219 H 0.57164 0.0804 0.42355 0.0
H220 H 0.52946 0.00533 0.39215 0.0
H221 H 0.58332 -0.00233 0.42792 0.0
H222 H 0.4773 0.94414 0.41904 0.0
O223 O 0.52325 0.04808 0.43766 0.0
O224 O 0.46553 0.02098 0.43512 0.0
O225 O 0.46875 0.01176 0.40448 0.0
C226 C 0.49193 0.03473 0.44339 0.0
H227 H 0.40717 0.1452 0.41535 0.0
H228 H 0.5936 0.92203 0.42948 0.0
H229 H 0.58904 0.0112 0.37939 0.0
H230 H 0.63277 0.08661 0.41141 0.0
Co231 Co 0.26483 0.28016 0.66876 0.0
C232 C 0.18249 0.26691 0.66847 0.0
C233 C 0.21135 0.21899 0.6588 0.0
C234 C 0.17184 0.21384 0.65752 0.0
N235 N 0.2176 0.25246 0.66562 0.0
N236 N 0.15396 0.24413 0.66366 0.0
H237 H 0.17803 0.29491 0.67324 0.0
H238 H 0.2337 0.20045 0.65461 0.0
C239 C 0.31639 0.26285 0.64447 0.0
O240 O 0.32548 0.29968 0.64371 0.0
N241 N 0.31214 0.30847 0.67219 0.0
C242 C 0.31685 0.34654 0.67481 0.0
C243 C 0.35533 0.35361 0.67728 0.0
C244 C 0.34758 0.29279 0.67359 0.0
N245 N 0.37451 0.31979 0.67648 0.0
C246 C 0.22992 0.35342 0.66297 0.0
C247 C 0.23858 0.35138 0.63451 0.0
C248 C 0.2304 0.38694 0.64102 0.0
C249 C 0.22216 0.38652 0.65528 0.0
C250 C 0.24429 0.31838 0.64263 0.0
N251 N 0.24507 0.32122 0.65678 0.0
H252 H 0.22625 0.35492 0.67408 0.0
H253 H 0.25009 0.29131 0.63748 0.0
H254 H 0.29426 0.36792 0.67529 0.0
H255 H 0.35354 0.26228 0.67224 0.0
O256 O 0.2453 0.29869 0.68628 0.0
O257 O 0.2788 0.24463 0.68344 0.0
O258 O 0.29089 0.25103 0.6531 0.0
C259 C 0.2617 0.26872 0.69183 0.0
H260 H 0.15751 0.19025 0.65221 0.0
H261 H 0.36808 0.38138 0.67974 0.0
H262 H 0.24344 0.34926 0.62343 0.0
H263 H 0.21282 0.41235 0.6607 0.0
Co264 Co 0.77027 0.30516 0.67075 0.0
C265 C 0.85281 0.30954 0.66263 0.0
C266 C 0.82861 0.36557 0.66649 0.0
C267 C 0.86755 0.36981 0.66379 0.0
N268 N 0.81948 0.32769 0.66576 0.0
N269 N 0.88242 0.33446 0.6613 0.0
H270 H 0.85646 0.2787 0.66217 0.0
H271 H 0.80859 0.38835 0.66927 0.0
C272 C 0.75374 0.35264 0.64534 0.0
O273 O 0.78615 0.34052 0.63967 0.0
N274 N 0.72135 0.28308 0.67588 0.0
C275 C 0.7146 0.24635 0.67979 0.0
C276 C 0.67556 0.24202 0.68202 0.0
C277 C 0.68676 0.30076 0.67593 0.0
N278 N 0.65807 0.27626 0.67956 0.0
C279 C 0.79886 0.23241 0.66096 0.0
C280 C 0.75135 0.2266 0.63805 0.0
C281 C 0.77438 0.19501 0.64176 0.0
C282 C 0.79858 0.19818 0.65329 0.0
C283 C 0.75188 0.26 0.64618 0.0
N284 N 0.77616 0.26319 0.65733 0.0
H285 H 0.81605 0.23319 0.6703 0.0
H286 H 0.73048 0.28173 0.64402 0.0
H287 H 0.73641 0.22412 0.68073 0.0
H288 H 0.68284 0.33092 0.67336 0.0
O289 O 0.79348 0.28063 0.68662 0.0
O290 O 0.76738 0.33918 0.68666 0.0
O291 O 0.74319 0.34018 0.65723 0.0
C292 C 0.78385 0.31142 0.69357 0.0
H293 H 0.88383 0.39653 0.66404 0.0
H294 H 0.6612 0.21539 0.68485 0.0
H295 H 0.7309 0.22443 0.62956 0.0
H296 H 0.81594 0.17389 0.65667 0.0
Co297 Co 0.7667 0.78488 0.17261 0.0
C298 C 0.68232 0.78147 0.1696 0.0
C299 C 0.70767 0.72531 0.16736 0.0
C300 C 0.66809 0.72167 0.16621 0.0
N301 N 0.71643 0.76304 0.16915 0.0
N302 N 0.65254 0.75712 0.16775 0.0
H303 H 0.67882 0.81191 0.17145 0.0
H304 H 0.72855 0.70204 0.1671 0.0
C305 C 0.77742 0.73878 0.14638 0.0
O306 O 0.74555 0.75373 0.14125 0.0
N307 N 0.81667 0.80619 0.17631 0.0
C308 C 0.82491 0.84293 0.17988 0.0
C309 C 0.86429 0.84626 0.18131 0.0
C310 C 0.85061 0.78753 0.17576 0.0
N311 N 0.88033 0.81139 0.17869 0.0
C312 C 0.7361 0.85765 0.16344 0.0
C313 C 0.78031 0.86331 0.13964 0.0
C314 C 0.75741 0.89478 0.14365 0.0
C315 C 0.73486 0.89163 0.15565 0.0
C316 C 0.78129 0.83021 0.14787 0.0
N317 N 0.75847 0.82694 0.15942 0.0
H318 H 0.72127 0.85752 0.17329 0.0
H319 H 0.80286 0.8088 0.14543 0.0
H320 H 0.80382 0.86574 0.18118 0.0
H321 H 0.85331 0.75709 0.17333 0.0
O322 O 0.74763 0.80965 0.18924 0.0
O323 O 0.77245 0.75054 0.18821 0.0
O324 O 0.78997 0.74943 0.15825 0.0
C325 C 0.758 0.77835 0.19571 0.0
H326 H 0.65199 0.69515 0.16473 0.0
H327 H 0.87988 0.87253 0.18375 0.0
H328 H 0.7998 0.86544 0.13085 0.0
H329 H 0.718 0.91595 0.15937 0.0
Co330 Co 0.76602 0.29431 0.81987 0.0
C331 C 0.68299 0.30301 0.82086 0.0
C332 C 0.71004 0.3557 0.82752 0.0
C333 C 0.67042 0.35952 0.82896 0.0
N334 N 0.71749 0.3201 0.82251 0.0
N335 N 0.65365 0.32621 0.82474 0.0
H336 H 0.67975 0.27326 0.81756 0.0
H337 H 0.73174 0.37684 0.83031 0.0
C338 C 0.81364 0.31445 0.84458 0.0
O339 O 0.82124 0.27749 0.84613 0.0
N340 N 0.81507 0.2682 0.8169 0.0
C341 C 0.82194 0.23105 0.81333 0.0
C342 C 0.86073 0.22635 0.81094 0.0
C343 C 0.84985 0.28575 0.81613 0.0
N344 N 0.87831 0.26078 0.81266 0.0
C345 C 0.73973 0.21856 0.82738 0.0
C346 C 0.73123 0.23231 0.85541 0.0
C347 C 0.73115 0.19373 0.85069 0.0
C348 C 0.73277 0.18761 0.83624 0.0
C349 C 0.73946 0.26224 0.84612 0.0
N350 N 0.74795 0.2543 0.83255 0.0
H351 H 0.73995 0.21333 0.81633 0.0
H352 H 0.74024 0.29161 0.84996 0.0
H353 H 0.80079 0.20871 0.81186 0.0
H354 H 0.85387 0.31648 0.81767 0.0
O355 O 0.74753 0.27296 0.80259 0.0
O356 O 0.77855 0.32884 0.80487 0.0
O357 O 0.79022 0.32587 0.83519 0.0
C358 C 0.76249 0.3034 0.79675 0.0
H359 H 0.65529 0.38454 0.83299 0.0
H360 H 0.87468 0.19955 0.808 0.0
H361 H 0.72671 0.23948 0.86624 0.0
H362 H 0.73119 0.15914 0.83165 0.0
Co363 Co 0.77075 0.77786 0.32253 0.0
C364 C 0.85315 0.76134 0.32889 0.0
C365 C 0.82356 0.71154 0.32098 0.0
C366 C 0.86158 0.70169 0.32333 0.0
N367 N 0.81835 0.749 0.32448 0.0
N368 N 0.87992 0.73308 0.32837 0.0
H369 H 0.85954 0.79051 0.33204 0.0
H370 H 0.80127 0.69269 0.31694 0.0
C371 C 0.7576 0.72302 0.3463 0.0
O372 O 0.79417 0.72485 0.34987 0.0
N373 N 0.7232 0.80592 0.32037 0.0
C374 C 0.71865 0.84424 0.31849 0.0
C375 C 0.67974 0.85198 0.31733 0.0
C376 C 0.68743 0.79077 0.32017 0.0
N377 N 0.66029 0.81829 0.31836 0.0
C378 C 0.80979 0.84516 0.33254 0.0
C379 C 0.76919 0.85128 0.35715 0.0
C380 C 0.79133 0.88278 0.35264 0.0
C381 C 0.81296 0.87891 0.34043 0.0
C382 C 0.7664 0.81827 0.34888 0.0
N383 N 0.78601 0.81562 0.33657 0.0
H384 H 0.82469 0.84392 0.32268 0.0
H385 H 0.74545 0.79688 0.35189 0.0
H386 H 0.74191 0.86504 0.31785 0.0
H387 H 0.68147 0.76024 0.32137 0.0
O388 O 0.79096 0.80311 0.30618 0.0
O389 O 0.75838 0.74786 0.30624 0.0
O390 O 0.7444 0.74333 0.33633 0.0
C391 C 0.77574 0.77474 0.29918 0.0
H392 H 0.87474 0.67379 0.32139 0.0
H393 H 0.66686 0.88005 0.31553 0.0
H394 H 0.75107 0.85349 0.36632 0.0
H395 H 0.83021 0.90271 0.33655 0.0
Co396 Co 0.52258 0.53237 0.56546 0.0
C397 C 0.52854 0.61513 0.5734 0.0
C398 C 0.58414 0.58825 0.57177 0.0
C399 C 0.5893 0.62644 0.57545 0.0
N400 N 0.54594 0.58111 0.57068 0.0
N401 N 0.55418 0.64317 0.57653 0.0
H402 H 0.49797 0.62004 0.57264 0.0
H403 H 0.60666 0.56708 0.57003 0.0
C404 C 0.56671 0.51552 0.59151 0.0
O405 O 0.55261 0.54731 0.59705 0.0
N406 N 0.49955 0.48399 0.56005 0.0
C407 C 0.46291 0.47893 0.55568 0.0
C408 C 0.45697 0.44022 0.55325 0.0
C409 C 0.51567 0.44856 0.56008 0.0
N410 N 0.49014 0.42126 0.55602 0.0
C411 C 0.44998 0.56311 0.57453 0.0
C412 C 0.44041 0.51466 0.597 0.0
C413 C 0.40998 0.53892 0.59307 0.0
C414 C 0.41502 0.56353 0.58176 0.0
C415 C 0.47458 0.5145 0.58931 0.0
N416 N 0.47967 0.5393 0.57841 0.0
H417 H 0.45204 0.58045 0.56526 0.0
H418 H 0.49541 0.49227 0.59156 0.0
H419 H 0.44187 0.50178 0.55442 0.0
H420 H 0.5451 0.44279 0.56327 0.0
O421 O 0.49988 0.55612 0.54936 0.0
O422 O 0.55781 0.52868 0.54993 0.0
O423 O 0.55606 0.50473 0.5794 0.0
C424 C 0.53096 0.54575 0.54274 0.0
H425 H 0.61674 0.64065 0.57721 0.0
H426 H 0.43039 0.42705 0.54967 0.0
H427 H 0.43677 0.49389 0.60532 0.0
H428 H 0.39161 0.58179 0.57818 0.0
Co429 Co 0.98789 0.53142 0.06754 0.0
C430 C -0.00021 0.45266 0.07743 0.0
C431 C 0.93969 0.46311 0.07348 0.0
C432 C 0.94436 0.42468 0.07683 0.0
N433 N 0.97442 0.48073 0.07423 0.0
N434 N 0.98224 0.4183 0.07922 0.0
H435 H 0.03076 0.45689 0.07775 0.0
H436 H 0.91315 0.47694 0.07024 0.0
C437 C 0.93416 0.54716 0.09221 0.0
O438 O 0.93528 0.51122 0.09653 0.0
N439 N 0.00195 0.58208 0.06038 0.0
C440 C 0.02051 0.5901 0.04834 0.0
C441 C 0.02586 0.62928 0.04735 0.0
C442 C -0.00355 0.61677 0.06654 0.0
N443 N 0.01067 0.64594 0.05877 0.0
C444 C 0.06783 0.53916 0.07339 0.0
C445 C 0.06452 0.52819 0.10177 0.0
C446 C 0.1005 0.53627 0.09561 0.0
C447 C 0.10167 0.54153 0.08116 0.0
C448 C 0.03109 0.52719 0.09363 0.0
N449 N 0.03292 0.53312 0.07962 0.0
H450 H 0.06968 0.54269 0.06227 0.0
H451 H 0.00416 0.52069 0.09862 0.0
H452 H 0.03027 0.56916 0.04077 0.0
H453 H 0.98311 0.6208 0.0766 0.0
O454 O 0.01146 0.50675 0.05178 0.0
O455 O 0.9504 0.52635 0.05277 0.0
O456 O 0.95375 0.55818 0.08167 0.0
C457 C 0.97835 0.51096 0.04554 0.0
H458 H 0.92208 0.40271 0.07666 0.0
H459 H 0.03943 0.64438 0.0388 0.0
H460 H 0.06193 0.5227 0.1128 0.0
H461 H 0.12825 0.54852 0.07578 0.0
Co462 Co 0.52306 0.52648 0.41633 0.0
C463 C 0.5356 0.44372 0.411 0.0
C464 C 0.588 0.47165 0.41735 0.0
C465 C 0.59512 0.43261 0.41599 0.0
N466 N 0.55059 0.47841 0.4142 0.0
N467 N 0.56204 0.41537 0.41194 0.0
H468 H 0.5055 0.43855 0.40886 0.0
H469 H 0.60837 0.4934 0.42077 0.0
C470 C 0.5766 0.53755 0.39192 0.0
O471 O 0.57568 0.5005 0.38895 0.0
N472 N 0.49561 0.57423 0.41873 0.0
C473 C 0.45782 0.57887 0.42177 0.0
C474 C 0.4502 0.61777 0.42288 0.0
C475 C 0.51064 0.60997 0.41823 0.0
N476 N 0.48349 0.63708 0.4207 0.0
C477 C 0.45216 0.49052 0.4083 0.0
C478 C 0.44599 0.52702 0.38293 0.0
C479 C 0.41304 0.51039 0.38887 0.0
C480 C 0.41672 0.49033 0.40138 0.0
C481 C 0.48055 0.52751 0.39034 0.0
N482 N 0.48306 0.51074 0.40317 0.0
H483 H 0.45354 0.47732 0.41844 0.0
H484 H 0.50346 0.54499 0.38621 0.0
H485 H 0.43735 0.55571 0.42337 0.0
H486 H 0.5408 0.61596 0.41614 0.0
O487 O 0.50026 0.50774 0.43336 0.0
O488 O 0.55573 0.53964 0.43182 0.0
O489 O 0.55593 0.55163 0.40169 0.0
C490 C 0.52985 0.52318 0.4396 0.0
H491 H 0.62204 0.41793 0.41823 0.0
H492 H 0.42267 0.63079 0.42549 0.0
H493 H 0.44402 0.54353 0.3734 0.0
H494 H 0.39171 0.4774 0.40632 0.0
Co495 Co 0.01186 0.53783 0.92073 0.0
C496 C 0.00523 0.62096 0.91783 0.0
C497 C 0.95296 0.59339 0.91104 0.0
C498 C 0.94957 0.63275 0.90893 0.0
N499 N 0.98801 0.58639 0.91655 0.0
N500 N 0.98259 0.64987 0.91322 0.0
H501 H 0.03443 0.62457 0.92161 0.0
H502 H 0.93176 0.57149 0.90852 0.0
C503 C 0.99423 0.48567 0.89665 0.0
O504 O 0.03041 0.47408 0.89645 0.0
N505 N 0.03581 0.48882 0.92517 0.0
C506 C 0.07273 0.48104 0.9287 0.0
C507 C 0.07593 0.44224 0.93154 0.0
C508 C 0.01693 0.45495 0.92638 0.0
N509 N 0.0408 0.42584 0.93003 0.0
C510 C 0.08879 0.56538 0.91596 0.0
C511 C 0.08899 0.55705 0.88746 0.0
C512 C 0.12439 0.56251 0.89438 0.0
C513 C 0.12324 0.57027 0.90868 0.0
C514 C 0.05484 0.55392 0.89517 0.0
N515 N 0.05605 0.55322 0.90935 0.0
H516 H 0.08929 0.56907 0.92709 0.0
H517 H 0.02795 0.55016 0.88969 0.0
H518 H 0.09594 0.50165 0.92946 0.0
H519 H 0.98617 0.45196 0.92467 0.0
O520 O 0.02887 0.55765 0.93841 0.0
O521 O 0.97313 0.52772 0.93472 0.0
O522 O 0.98329 0.51267 0.90485 0.0
C523 C -0.00305 0.54363 0.94346 0.0
H524 H 0.92489 0.64746 0.9045 0.0
H525 H 0.10229 0.42735 0.93434 0.0
H526 H 0.08765 0.5525 0.87635 0.0
H527 H 0.14918 0.57743 0.91442 0.0
H528 H 0.05348 0.39695 0.07023 0.0
H529 H 0.02533 0.17901 0.09502 0.0
H530 H 0.9534 0.35592 0.09258 0.0
H531 H 0.10749 0.21371 0.06365 0.0
H532 H 0.00833 0.24671 0.09872 0.0
H533 H 0.08254 0.33293 0.07218 0.0
C534 C 0.03787 0.37464 0.07575 0.0
C535 C 0.00082 0.38161 0.08119 0.0
C536 C 0.03038 0.23954 0.09113 0.0
C537 C 0.03381 0.30832 0.08334 0.0
C538 C 0.04001 0.20095 0.08898 0.0
C539 C 0.06714 0.19075 0.07875 0.0
C540 C 0.04808 0.26813 0.08302 0.0
C541 C 0.08624 0.22034 0.07156 0.0
C542 C 0.0544 0.33806 0.07678 0.0
C543 C 0.98173 0.35148 0.08807 0.0
N544 N 0.07594 0.25779 0.0737 0.0
N545 N -0.00163 0.31602 0.08889 0.0
H546 H 0.12229 0.75101 0.31464 0.0
H547 H 0.91274 0.78092 0.34724 0.0
H548 H 0.09486 0.83951 0.34482 0.0
H549 H 0.9395 0.69595 0.31578 0.0
H550 H 0.98141 0.79617 0.34916 0.0
H551 H 0.05788 0.72418 0.31757 0.0
C552 C 0.10296 0.76458 0.32203 0.0
C553 C 0.114 0.79786 0.32942 0.0
C554 C 0.97235 0.77388 0.34194 0.0
C555 C 0.03976 0.76745 0.33265 0.0
C556 C 0.93317 0.76527 0.34081 0.0
C557 C 0.92043 0.73767 0.33114 0.0
C558 C -0.00105 0.75488 0.33328 0.0
C559 C 0.94811 0.71748 0.32334 0.0
C560 C 0.06602 0.74928 0.32364 0.0
C561 C 0.08736 0.81433 0.33871 0.0
N562 N 0.9861 0.72687 0.32444 0.0
N563 N 0.05135 0.79912 0.33998 0.0
H564 H 0.43008 0.85628 0.58449 0.0
H565 H 0.60114 0.70575 0.57355 0.0
H566 H 0.55032 0.88928 0.58244 0.0
H567 H 0.4866 0.67191 0.58668 0.0
H568 H 0.58321 0.7733 0.57701 0.0
H569 H 0.44986 0.78841 0.58561 0.0
C570 C 0.46058 0.84933 0.58441 0.0
C571 C 0.4885 0.8785 0.5831 0.0
C572 C 0.56209 0.75103 0.57922 0.0
C573 C 0.51134 0.80107 0.58421 0.0
C574 C 0.57239 0.71239 0.57729 0.0
C575 C 0.5452 0.68298 0.57959 0.0
C576 C 0.52426 0.76036 0.58338 0.0
C577 C 0.50822 0.69354 0.58437 0.0
C578 C 0.47188 0.8106 0.58501 0.0
C579 C 0.5277 0.86777 0.58301 0.0
N580 N 0.49873 0.73135 0.58597 0.0
N581 N 0.53791 0.82995 0.58341 0.0
H582 H 0.44195 0.19878 0.81707 0.0
H583 H 0.59791 0.35516 0.84188 0.0
H584 H 0.41194 0.29925 0.84143 0.0
H585 H 0.61766 0.27168 0.8092 0.0
H586 H 0.53133 0.3317 0.84396 0.0
H587 H 0.50941 0.21999 0.81699 0.0
C588 C 0.44972 0.22495 0.8226 0.0
C589 C 0.42142 0.2475 0.82916 0.0
C590 C 0.55036 0.31859 0.83634 0.0
C591 C 0.49816 0.27229 0.82894 0.0
C592 C 0.58823 0.33219 0.83507 0.0
C593 C 0.61356 0.31519 0.82542 0.0
C594 C 0.53791 0.28771 0.82796 0.0
C595 C 0.5995 0.28515 0.81698 0.0
C596 C 0.48809 0.2373 0.82242 0.0
C597 C 0.43292 0.28141 0.83606 0.0
N598 N 0.56274 0.27228 0.81849 0.0
N599 N 0.47042 0.29292 0.83572 0.0
H600 H 0.03613 0.6874 0.92878 0.0
H601 H -0.0014 0.89281 0.8945 0.0
H602 H 0.95394 0.70428 0.89559 0.0
H603 H 0.09783 0.86691 0.91992 0.0
H604 H 0.98079 0.82435 0.8948 0.0
H605 H 0.05744 0.75386 0.92611 0.0
C606 C 0.02266 0.70496 0.92085 0.0
C607 C 0.99338 0.68998 0.9123 0.0
C608 C 0.00669 0.83356 0.90018 0.0
C609 C 0.01743 0.7666 0.90933 0.0
C610 C 0.01681 0.87254 0.90003 0.0
C611 C 0.04953 0.88541 0.90729 0.0
C612 C 0.02927 0.80741 0.90778 0.0
C613 C 0.0725 0.85809 0.91414 0.0
C614 C 0.03486 0.74301 0.91935 0.0
C615 C 0.97635 0.71462 0.90248 0.0
N616 N 0.06166 0.82038 0.91436 0.0
N617 N 0.98863 0.75179 0.90126 0.0
H618 H 0.41582 0.7909 0.14445 0.0
H619 H 0.61847 0.8127 0.18312 0.0
H620 H 0.43663 0.87131 0.17794 0.0
H621 H 0.59629 0.727 0.1515 0.0
H622 H 0.55267 0.83662 0.18058 0.0
H623 H 0.48333 0.77059 0.14552 0.0
C624 C 0.43483 0.80452 0.15193 0.0
C625 C 0.42073 0.83242 0.16124 0.0
C626 C 0.56206 0.81255 0.17419 0.0
C627 C 0.49762 0.8093 0.1626 0.0
C628 C 0.59957 0.79891 0.17564 0.0
C629 C 0.61268 0.7681 0.16741 0.0
C630 C 0.53749 0.79523 0.16442 0.0
C631 C 0.58701 0.75067 0.15808 0.0
C632 C 0.47324 0.79289 0.15256 0.0
C633 C 0.44648 0.84979 0.17056 0.0
N634 N 0.55052 0.76466 0.15677 0.0
N635 N 0.48372 0.83763 0.1711 0.0
H636 H 0.43816 0.20236 0.40196 0.0
H637 H 0.59387 0.35832 0.42738 0.0
H638 H 0.52385 0.18096 0.43352 0.0
H639 H 0.50984 0.38057 0.39529 0.0
H640 H 0.57032 0.29195 0.429 0.0
H641 H 0.46315 0.26838 0.39944 0.0
C642 C 0.46179 0.21189 0.40849 0.0
C643 C 0.47925 0.18642 0.41786 0.0
C644 C 0.55718 0.31126 0.42152 0.0
C645 C 0.50843 0.26091 0.41491 0.0
C646 C 0.57098 0.34896 0.42049 0.0
C647 C 0.55345 0.3749 0.4113 0.0
C648 C 0.52567 0.29961 0.4133 0.0
C649 C 0.52359 0.36149 0.40269 0.0
C650 C 0.47637 0.24925 0.40696 0.0
C651 C 0.51007 0.19972 0.42602 0.0
N652 N 0.51036 0.32481 0.40398 0.0
N653 N 0.52383 0.23601 0.42431 0.0
H654 H 0.91139 0.27622 0.64572 0.0
H655 H 0.11644 0.28814 0.68259 0.0
H656 H 0.94389 0.36747 0.67398 0.0
H657 H 0.09921 0.22301 0.64478 0.0
H658 H 0.05051 0.31215 0.68096 0.0
H659 H 0.97811 0.25231 0.64606 0.0
C660 C 0.93278 0.2914 0.65188 0.0
C661 C 0.9223 0.32373 0.65987 0.0
C662 C 0.06112 0.29264 0.673 0.0
C663 C -0.00191 0.29638 0.66048 0.0
C664 C 0.09875 0.27885 0.67393 0.0
C665 C 0.11357 0.25398 0.66368 0.0
C666 C 0.0378 0.28117 0.66184 0.0
C667 C 0.08892 0.24204 0.65292 0.0
C668 C 0.97071 0.27779 0.65206 0.0
C669 C 0.95093 0.34265 0.66759 0.0
N670 N 0.05216 0.25588 0.65224 0.0
N671 N 0.98749 0.3284 0.66783 0.0
H672 H 0.97231 0.05539 0.02721 0.0
H673 H 0.09393 0.03602 0.95769 0.0
H674 H 0.09423 0.02887 0.02808 0.0
H675 H 0.97265 0.00736 0.96016 0.0
H676 H 0.09583 0.04089 0.98314 0.0
H677 H 0.97283 0.04727 0.00195 0.0
C678 C -0.00074 0.04824 0.02205 0.0
C679 C 0.03328 0.04277 0.02968 0.0
C680 C 0.06897 0.03314 0.97807 0.0
C681 C 0.03405 0.03338 0.00092 0.0
C682 C 0.06788 0.0303 0.9636 0.0
C683 C 0.03309 0.02126 0.95686 0.0
C684 C 0.03486 0.0277 0.98573 0.0
C685 C 0.00011 0.01423 0.96496 0.0
C686 C -0.00054 0.04327 0.00769 0.0
C687 C 0.06737 0.03322 0.02253 0.0
N688 N 0.00168 0.01807 0.97898 0.0
N689 N 0.06697 0.02899 0.00849 0.0
H690 H 0.22075 0.75534 0.27452 0.0
H691 H 0.24899 0.86954 0.20346 0.0
H692 H 0.24545 0.87772 0.27361 0.0
H693 H 0.27422 0.74812 0.20839 0.0
H694 H 0.23519 0.87396 0.22841 0.0
H695 H 0.22504 0.75356 0.24923 0.0
C696 C 0.22625 0.78204 0.26899 0.0
C697 C 0.23323 0.81668 0.27617 0.0
C698 C 0.24384 0.84644 0.224 0.0
C699 C 0.2385 0.81463 0.24729 0.0
C700 C 0.2518 0.84389 0.20982 0.0
C701 C 0.26298 0.80845 0.20394 0.0
C702 C 0.24638 0.81315 0.23224 0.0
C703 C 0.26606 0.77605 0.21257 0.0
C704 C 0.22906 0.78086 0.25457 0.0
C705 C 0.24013 0.85037 0.26846 0.0
N706 N 0.25754 0.77912 0.22631 0.0
N707 N 0.24292 0.84847 0.25438 0.0
H708 H 0.42648 0.03561 0.53062 0.0
H709 H 0.55008 0.03861 0.46214 0.0
H710 H 0.53937 0.98287 0.5275 0.0
H711 H 0.42647 0.02357 0.45909 0.0
H712 H 0.54577 0.02898 0.48717 0.0
H713 H 0.42407 0.0393 0.50508 0.0
C714 C 0.45038 0.02423 0.52458 0.0
C715 C 0.48332 0.00923 0.53116 0.0
C716 C 0.51958 0.0278 0.48102 0.0
C717 C 0.48106 0.01425 0.50227 0.0
C718 C 0.52194 0.03366 0.46677 0.0
C719 C 0.48856 0.03185 0.45858 0.0
C720 C 0.48351 0.02077 0.48718 0.0
C721 C 0.45286 0.02505 0.4651 0.0
C722 C 0.44898 0.02642 0.51007 0.0
C723 C 0.51351 0.99491 0.52288 0.0
N724 N 0.45116 0.01997 0.47912 0.0
N725 N 0.51192 -0.00163 0.50888 0.0
H726 H 0.24789 0.3246 0.71098 0.0
H727 H 0.27504 0.19858 0.77822 0.0
H728 H 0.28332 0.20533 0.70714 0.0
H729 H 0.30345 0.32006 0.77671 0.0
H730 H 0.27098 0.19785 0.75272 0.0
H731 H 0.25844 0.32106 0.73597 0.0
C732 C 0.2575 0.2975 0.71542 0.0
C733 C 0.26473 0.26516 0.70702 0.0
C734 C 0.27864 0.22442 0.75803 0.0
C735 C 0.27697 0.26106 0.73558 0.0
C736 C 0.28099 0.22489 0.77252 0.0
C737 C 0.28941 0.25949 0.77954 0.0
C738 C 0.28389 0.25897 0.75066 0.0
C739 C 0.29687 0.29277 0.77171 0.0
C740 C 0.26389 0.29566 0.72966 0.0
C741 C 0.27746 0.23088 0.71331 0.0
N742 N 0.29333 0.29183 0.75768 0.0
N743 N 0.283 0.2296 0.72731 0.0
H744 H 0.77808 0.36828 0.78154 0.0
H745 H 0.80081 0.25152 0.71076 0.0
H746 H 0.75272 0.24656 0.77751 0.0
H747 H 0.77204 0.37302 0.71104 0.0
H748 H 0.79616 0.25084 0.73606 0.0
H749 H 0.78656 0.37202 0.75623 0.0
C750 C 0.77407 0.34245 0.77531 0.0
C751 C 0.76455 0.30708 0.78155 0.0
C752 C 0.79112 0.27769 0.73058 0.0
C753 C 0.77506 0.311 0.75287 0.0
C754 C 0.79409 0.27822 0.71616 0.0
C755 C 0.78659 0.31236 0.70882 0.0
C756 C 0.78103 0.31164 0.73771 0.0
C757 C 0.77787 0.34607 0.71634 0.0
C758 C 0.77894 0.34462 0.76093 0.0
C759 C 0.75978 0.27445 0.77308 0.0
N760 N 0.77526 0.34488 0.73043 0.0
N761 N 0.76542 0.27712 0.75916 0.0
H762 H 0.76596 0.7141 0.21193 0.0
H763 H 0.79116 0.83485 0.28176 0.0
H764 H 0.7496 0.83772 0.21408 0.0
H765 H 0.75895 0.71426 0.28195 0.0
H766 H 0.78531 0.83519 0.25642 0.0
H767 H 0.77107 0.71234 0.23734 0.0
C768 C 0.76312 0.74078 0.21777 0.0
C769 C 0.75727 0.7761 0.21096 0.0
C770 C 0.7796 0.80866 0.26203 0.0
C771 C 0.76386 0.77438 0.23982 0.0
C772 C 0.78323 0.80836 0.27644 0.0
C773 C 0.77546 0.77448 0.2839 0.0
C774 C 0.76864 0.77471 0.25505 0.0
C775 C 0.76506 0.74101 0.27655 0.0
C776 C 0.76606 0.73976 0.23222 0.0
C777 C 0.75388 0.80986 0.21896 0.0
N778 N 0.76204 0.74191 0.26248 0.0
N779 N 0.7576 0.80823 0.23298 0.0
H780 H 0.5937 0.53785 0.4554 0.0
H781 H 0.47263 0.56359 0.52498 0.0
H782 H 0.47146 0.51403 0.45827 0.0
H783 H 0.5935 0.5324 0.52588 0.0
H784 H 0.47354 0.55836 0.4997 0.0
H785 H 0.59576 0.54648 0.48071 0.0
C786 C 0.5674 0.5342 0.46138 0.0
C787 C 0.53236 0.52511 0.45481 0.0
C788 C 0.4999 0.55291 0.50544 0.0
C789 C 0.5344 0.53577 0.4835 0.0
C790 C 0.49954 0.55623 0.51984 0.0
C791 C 0.53303 0.54822 0.52751 0.0
C792 C 0.5341 0.54199 0.49865 0.0
C793 C 0.56704 0.53866 0.52032 0.0
C794 C 0.56861 0.53915 0.47576 0.0
C795 C 0.49909 0.52075 0.46297 0.0
N796 N 0.56673 0.53574 0.50623 0.0
N797 N 0.50084 0.52649 0.4769 0.0
H798 H 0.0505 0.55396 0.96371 0.0
H799 H 0.91571 0.52407 0.02865 0.0
H800 H 0.93035 0.52498 0.95744 0.0
H801 H 0.03553 0.48898 0.02784 0.0
H802 H 0.91756 0.5309 0.00323 0.0
H803 H 0.04305 0.54038 0.98842 0.0
C804 C 0.02238 0.54528 0.96757 0.0
C805 C 0.99097 0.54057 0.95855 0.0
C806 C 0.94313 0.52107 0.00867 0.0
C807 C 0.98241 0.52468 0.98676 0.0
C808 C 0.94208 0.51698 0.02312 0.0
C809 C 0.97565 0.50637 0.03036 0.0
C810 C 0.97814 0.5152 0.0016 0.0
C811 C 0.00906 0.49756 0.02271 0.0
C812 C 0.01829 0.53709 0.98163 0.0
C813 C 0.95525 0.52892 0.9641 0.0
N814 N 0.00966 0.50289 0.00877 0.0
N815 N 0.95182 0.52147 0.97793 0.0
H816 H 0.18558 0.83758 0.13503 0.0
H817 H 0.14929 0.04956 0.10652 0.0
H818 H 0.27949 0.91759 0.12829 0.0
H819 H 0.07623 0.95309 0.09549 0.0
H820 H 0.19414 0.0044 0.1178 0.0
H821 H 0.14178 0.88234 0.12331 0.0
C822 C 0.197 0.86448 0.13098 0.0
C823 C 0.23617 0.87395 0.13256 0.0
C824 C 0.16824 0.99329 0.1129 0.0
C825 C 0.18617 0.92545 0.11946 0.0
C826 C 0.14255 0.01897 0.10659 0.0
C827 C 0.10914 0.00494 0.10007 0.0
C828 C 0.15992 0.95355 0.11287 0.0
C829 C 0.10182 0.96504 0.10034 0.0
C830 C 0.17203 0.88994 0.12431 0.0
C831 C 0.24952 0.90914 0.12715 0.0
N832 N 0.12693 0.94074 0.1067 0.0
N833 N 0.22441 0.93393 0.12095 0.0
H834 H 0.31586 0.85932 0.35109 0.0
H835 H 0.43482 0.0528 0.36754 0.0
H836 H 0.33514 0.95021 0.32117 0.0
H837 H 0.42623 0.95667 0.39596 0.0
H838 H 0.39478 0.01734 0.35096 0.0
H839 H 0.35249 0.89645 0.36826 0.0
C840 C 0.32759 0.88717 0.34815 0.0
C841 C 0.3225 0.90165 0.33466 0.0
C842 C 0.40163 0.00402 0.36083 0.0
C843 C 0.36452 0.94422 0.35424 0.0
C844 C 0.42449 0.02427 0.37031 0.0
C845 C 0.43401 0.00766 0.38315 0.0
C846 C 0.38807 0.96692 0.36421 0.0
C847 C 0.4197 0.9706 0.38617 0.0
C848 C 0.3486 0.9083 0.35795 0.0
C849 C 0.33843 0.93786 0.33143 0.0
N850 N 0.39748 0.95148 0.37677 0.0
N851 N 0.35875 0.95786 0.34114 0.0
H852 H 0.49728 0.11151 0.6174 0.0
H853 H 0.33858 0.26924 0.61733 0.0
H854 H 0.41808 0.1128 0.58284 0.0
H855 H 0.34415 0.19311 0.65271 0.0
H856 H 0.3785 0.22306 0.60404 0.0
H857 H 0.45212 0.15274 0.63061 0.0
C858 C 0.47031 0.12039 0.61266 0.0
C859 C 0.46098 0.10863 0.59913 0.0
C860 C 0.37062 0.21653 0.61469 0.0
C861 C 0.41045 0.15633 0.61385 0.0
C862 C 0.34806 0.24272 0.62223 0.0
C863 C 0.33795 0.2346 0.63603 0.0
C864 C 0.38421 0.18295 0.62121 0.0
C865 C 0.35104 0.20004 0.64201 0.0
C866 C 0.4447 0.14368 0.62016 0.0
C867 C 0.4259 0.12097 0.59334 0.0
N868 N 0.37413 0.17567 0.63463 0.0
N869 N 0.40205 0.14477 0.60066 0.0
H870 H 0.08144 0.05231 0.86503 0.0
H871 H 0.2486 0.21043 0.87089 0.0
H872 H 0.10671 0.11323 0.90316 0.0
H873 H 0.19125 0.18397 0.8322 0.0
H874 H 0.20267 0.16831 0.88303 0.0
H875 H 0.12752 0.09416 0.85283 0.0
C876 C 0.09666 0.07444 0.87083 0.0
C877 C 0.09016 0.07936 0.88512 0.0
C878 C 0.2002 0.1718 0.87188 0.0
C879 C 0.14311 0.12686 0.8713 0.0
C880 C 0.22647 0.19568 0.86495 0.0
C881 C 0.22368 0.20077 0.85053 0.0
C882 C 0.1714 0.15242 0.86429 0.0
C883 C 0.19433 0.18103 0.84334 0.0
C884 C 0.12284 0.09834 0.86386 0.0
C885 C 0.11066 0.10855 0.89212 0.0
N886 N 0.16946 0.15756 0.85029 0.0
N887 N 0.13639 0.13103 0.88516 0.0
H888 H 0.84647 0.05374 0.9102 0.0
H889 H 0.71394 0.11542 0.84676 0.0
H890 H 0.87186 0.02221 0.86779 0.0
H891 H 0.75921 0.19468 0.87764 0.0
H892 H 0.74458 0.0623 0.8592 0.0
H893 H 0.78666 0.08498 0.90237 0.0
C894 C 0.83854 0.05199 0.89932 0.0
C895 C 0.86396 0.03575 0.88956 0.0
C896 C 0.74653 0.09137 0.86336 0.0
C897 C 0.79597 0.07072 0.88068 0.0
C898 C 0.72961 0.12203 0.85618 0.0
C899 C 0.73583 0.16052 0.86053 0.0
C900 C 0.76818 0.09905 0.87531 0.0
C901 C 0.754 0.16613 0.87348 0.0
C902 C 0.8046 0.06981 0.8949 0.0
C903 C 0.85291 0.03467 0.87557 0.0
N904 N 0.7701 0.13582 0.88026 0.0
N905 N 0.81978 0.05243 0.87149 0.0
H906 H 0.63862 0.00335 0.62301 0.0
H907 H 0.7785 0.17905 0.61406 0.0
H908 H 0.67967 0.04572 0.58342 0.0
H909 H 0.75537 0.12646 0.65379 0.0
H910 H 0.75382 0.12119 0.60253 0.0
H911 H 0.69136 0.0381 0.63442 0.0
C912 C 0.65904 0.01922 0.61668 0.0
C913 C 0.65386 0.02234 0.60224 0.0
C914 C 0.7549 0.12177 0.61377 0.0
C915 C 0.71425 0.06207 0.61522 0.0
C916 C 0.769 0.15482 0.62032 0.0
C917 C 0.76841 0.15748 0.63482 0.0
C918 C 0.73904 0.09176 0.62182 0.0
C919 C 0.75609 0.12539 0.64254 0.0
C920 C 0.68933 0.03889 0.6232 0.0
C921 C 0.68205 0.04238 0.59456 0.0
N922 N 0.74097 0.09411 0.63594 0.0
N923 N 0.71046 0.06207 0.60116 0.0
H924 H 0.77602 0.9509 0.33958 0.0
H925 H 0.68099 0.03226 0.40852 0.0
H926 H 0.79081 0.90156 0.38038 0.0
H927 H 0.63936 0.05407 0.36702 0.0
H928 H 0.74014 0.00483 0.3987 0.0
H929 H 0.74644 0.00791 0.35016 0.0
C930 C 0.77442 0.95268 0.35081 0.0
C931 C 0.78518 0.92116 0.35913 0.0
C932 C 0.71856 0.01667 0.39176 0.0
C933 C 0.75075 0.98593 0.37122 0.0
C934 C 0.6849 0.03261 0.39734 0.0
C935 C 0.65499 0.0448 0.38853 0.0
C936 C 0.72221 0.01294 0.37729 0.0
C937 C 0.6615 0.04428 0.37414 0.0
C938 C 0.75722 0.98512 0.35682 0.0
C939 C 0.78214 0.92496 0.3736 0.0
N940 N 0.69415 0.02789 0.36895 0.0
N941 N 0.7645 0.95646 0.37919 0.0
H942 H 0.75415 0.91064 0.11587 0.0
H943 H 0.90535 0.07102 0.12576 0.0
H944 H 0.77489 0.96384 0.15573 0.0
H945 H 0.85548 0.04478 0.08579 0.0
H946 H 0.84891 0.04227 0.13702 0.0
H947 H 0.78081 0.96786 0.1045 0.0
C948 C 0.76335 0.93492 0.12219 0.0
C949 C 0.76294 0.93242 0.13672 0.0
C950 C 0.84966 0.04385 0.12578 0.0
C951 C 0.79441 -0.00259 0.12388 0.0
C952 C 0.88189 0.06029 0.11938 0.0
C953 C 0.88531 0.05959 0.10486 0.0
C954 C 0.8213 0.02574 0.11758 0.0
C955 C 0.85406 0.04567 0.09703 0.0
C956 C 0.77853 0.96762 0.11572 0.0
C957 C 0.77491 0.96464 0.14448 0.0
N958 N 0.8238 0.0283 0.10349 0.0
N959 N 0.79114 -0.00456 0.13798 0.0
H960 H 0.69289 0.39427 0.65551 0.0
H961 H 0.61365 0.45829 0.58147 0.0
H962 H 0.75378 0.36864 0.61739 0.0
H963 H 0.58332 0.51827 0.61935 0.0
H964 H 0.66026 0.41949 0.59451 0.0
H965 H 0.64768 0.43446 0.64244 0.0
C966 C 0.69682 0.39715 0.64439 0.0
C967 C 0.72721 0.37809 0.63752 0.0
C968 C 0.64345 0.44121 0.59994 0.0
C969 C 0.67528 0.42376 0.62251 0.0
C970 C 0.6167 0.46323 0.59254 0.0
C971 C 0.59455 0.49158 0.59934 0.0
C972 C 0.64768 0.44714 0.61429 0.0
C973 C 0.59986 0.49683 0.61368 0.0
C974 C 0.67105 0.42019 0.63696 0.0
C975 C 0.73089 0.38295 0.6231 0.0
N976 N 0.62572 0.47464 0.6207 0.0
N977 N 0.70503 0.4051 0.61605 0.0
H978 H 0.92268 0.46424 0.90524 0.0
H979 H 0.84609 0.38029 0.83459 0.0
H980 H 0.00011 0.45767 0.87014 0.0
H981 H 0.83396 0.31275 0.87197 0.0
H982 H 0.88954 0.42462 0.84708 0.0
H983 H 0.87607 0.42373 0.89257 0.0
C984 C 0.92951 0.45477 0.89477 0.0
C985 C 0.96506 0.46425 0.88864 0.0
C986 C 0.87695 0.40028 0.85252 0.0
C987 C 0.912 0.41891 0.87418 0.0
C988 C 0.85206 0.37527 0.84549 0.0
C989 C 0.83646 0.34308 0.85234 0.0
C990 C 0.88517 0.3936 0.86657 0.0
C991 C 0.84548 0.33734 0.86638 0.0
C992 C 0.90314 0.43157 0.88765 0.0
C993 C 0.97293 0.45087 0.87517 0.0
N994 N 0.86904 0.36266 0.87312 0.0
N995 N 0.94635 0.42908 0.86829 0.0
H996 H 0.90654 0.61656 0.08288 0.0
H997 H 0.82927 0.68655 0.1563 0.0
H998 H 0.90862 0.54292 0.11905 0.0
H999 H 0.77719 0.72642 0.11818 0.0
H1000 H 0.86718 0.63972 0.14296 0.0
H1001 H 0.86739 0.66343 0.09589 0.0
C1002 C 0.89885 0.6103 0.09356 0.0
C1003 C 0.91077 0.57578 0.09991 0.0
C1004 C 0.84736 0.65866 0.13754 0.0
C1005 C 0.86651 0.62929 0.11479 0.0
C1006 C 0.82585 0.68548 0.14511 0.0
C1007 C 0.79999 0.71031 0.13831 0.0
C1008 C 0.84359 0.65717 0.12304 0.0
C1009 C 0.79664 0.70761 0.12381 0.0
C1010 C 0.87638 0.63693 0.10092 0.0
C1011 C 0.89987 0.56906 0.11374 0.0
N1012 N 0.81849 0.68166 0.11661 0.0
N1013 N 0.8786 0.59574 0.12077 0.0
H1014 H 0.67978 0.73092 0.34921 0.0
H1015 H 0.64433 0.5198 0.37867 0.0
H1016 H 0.77471 0.65536 0.35962 0.0
H1017 H 0.56754 0.61488 0.38788 0.0
H1018 H 0.68938 0.56548 0.36772 0.0
H1019 H 0.63496 0.685 0.35988 0.0
C1020 C 0.69117 0.7047 0.3538 0.0
C1021 C 0.73096 0.69687 0.35361 0.0
C1022 C 0.66257 0.57616 0.37211 0.0
C1023 C 0.67988 0.64409 0.36551 0.0
C1024 C 0.63677 0.55017 0.37822 0.0
C1025 C 0.60229 0.5637 0.38417 0.0
C1026 C 0.65327 0.61564 0.37173 0.0
C1027 C 0.59395 0.60335 0.38346 0.0
C1028 C 0.66562 0.67861 0.35988 0.0
C1029 C 0.74424 0.66254 0.35969 0.0
N1030 N 0.61921 0.62795 0.37729 0.0
N1031 N 0.71865 0.63711 0.3653 0.0
H1032 H 0.3833 0.50416 0.36259 0.0
H1033 H 0.29514 0.70091 0.37037 0.0
H1034 H 0.35774 0.54765 0.40361 0.0
H1035 H 0.25248 0.6269 0.33751 0.0
H1036 H 0.31388 0.64378 0.38337 0.0
H1037 H 0.33152 0.5448 0.35321 0.0
C1038 C 0.36571 0.52111 0.36966 0.0
C1039 C 0.37478 0.52285 0.38384 0.0
C1040 C 0.29961 0.64007 0.37344 0.0
C1041 C 0.31696 0.57023 0.37321 0.0
C1042 C 0.28876 0.6728 0.36597 0.0
C1043 C 0.27317 0.66903 0.35256 0.0
C1044 C 0.29582 0.60339 0.36733 0.0
C1045 C 0.266 0.63145 0.34751 0.0
C1046 C 0.33628 0.54433 0.36434 0.0
C1047 C 0.3515 0.5455 0.39261 0.0
N1048 N 0.27843 0.60009 0.35471 0.0
N1049 N 0.32439 0.56931 0.3871 0.0
H1050 H 0.30038 0.65535 0.11292 0.0
H1051 H 0.10578 0.56311 0.12255 0.0
H1052 H 0.25926 0.62888 0.15415 0.0
H1053 H 0.17708 0.52318 0.08844 0.0
H1054 H 0.16363 0.58294 0.13478 0.0
H1055 H 0.26027 0.60285 0.10369 0.0
C1056 C 0.28412 0.63744 0.12007 0.0
C1057 C 0.28271 0.64665 0.13427 0.0
C1058 C 0.16664 0.56908 0.12473 0.0
C1059 C 0.23603 0.58783 0.12381 0.0
C1060 C 0.13344 0.55753 0.11769 0.0
C1061 C 0.13601 0.54216 0.10418 0.0
C1062 C 0.2027 0.56637 0.11812 0.0
C1063 C 0.17322 0.53641 0.09854 0.0
C1064 C 0.26119 0.60758 0.11482 0.0
C1065 C 0.26111 0.62273 0.14313 0.0
N1066 N 0.20503 0.54953 0.10536 0.0
N1067 N 0.23762 0.59517 0.1377 0.0
H1068 H 0.18944 0.53088 0.90609 0.0
H1069 H 0.26112 0.45255 0.83342 0.0
H1070 H 0.14548 0.57175 0.86669 0.0
H1071 H 0.2821 0.39925 0.87316 0.0
H1072 H 0.23743 0.51062 0.8454 0.0
H1073 H 0.24231 0.49997 0.89406 0.0
C1074 C 0.19123 0.53455 0.89494 0.0
C1075 C 0.16181 0.55325 0.88742 0.0
C1076 C 0.24824 0.48664 0.85149 0.0
C1077 C 0.22224 0.51595 0.8735 0.0
C1078 C 0.26192 0.45366 0.84467 0.0
C1079 C 0.27298 0.42111 0.85238 0.0
C1080 C 0.24583 0.48684 0.86606 0.0
C1081 C 0.27329 0.42369 0.8669 0.0
C1082 C 0.22152 0.51631 0.88805 0.0
C1083 C 0.16641 0.55636 0.87293 0.0
N1084 N 0.25937 0.45581 0.87327 0.0
N1085 N 0.19548 0.53702 0.8664 0.0
H1086 H 0.25698 0.45475 0.65246 0.0
H1087 H 0.34182 0.52184 0.58033 0.0
H1088 H 0.22278 0.40524 0.61301 0.0
H1089 H 0.39196 0.54374 0.62057 0.0
H1090 H 0.28273 0.49867 0.59173 0.0
H1091 H 0.28753 0.50737 0.6403 0.0
C1092 C 0.2546 0.45524 0.64125 0.0
C1093 C 0.23812 0.42428 0.6338 0.0
C1094 C 0.30625 0.50959 0.59804 0.0
C1095 C 0.27504 0.48452 0.61978 0.0
C1096 C 0.33981 0.52293 0.59156 0.0
C1097 C 0.37174 0.53413 0.5996 0.0
C1098 C 0.3048 0.50774 0.6126 0.0
C1099 C 0.36802 0.53482 0.61407 0.0
C1100 C 0.27266 0.48542 0.6343 0.0
C1101 C 0.23655 0.42737 0.61923 0.0
N1102 N 0.3353 0.5213 0.62012 0.0
N1103 N 0.25577 0.45639 0.61267 0.0
H1104 H 0.05244 0.8904 0.05908 0.0
H1105 H 0.95485 0.6844 0.07299 0.0
H1106 H 0.93527 0.87665 0.07372 0.0
H1107 H 0.06282 0.70018 0.05123 0.0
H1108 H 0.95057 0.75451 0.07631 0.0
H1109 H 0.06 0.82031 0.05905 0.0
C1110 C 0.0284 0.87264 0.06241 0.0
C1111 C 0.9931 0.88936 0.06635 0.0
C1112 C 0.97527 0.74257 0.07087 0.0
C1113 C 0.00142 0.80909 0.06623 0.0
C1114 C 0.97784 0.70261 0.06906 0.0
C1115 C 0.00908 0.68662 0.06172 0.0
C1116 C 0.0043 0.76652 0.06539 0.0
C1117 C 0.03794 0.71145 0.05673 0.0
C1118 C 0.03265 0.83261 0.06231 0.0
C1119 C 0.96276 0.8649 0.0704 0.0
N1120 N 0.03481 0.75018 0.05863 0.0
N1121 N 0.96758 0.82593 0.07022 0.0
H1122 H 0.41266 0.84405 0.32096 0.0
H1123 H 0.62319 0.75489 0.30858 0.0
H1124 H 0.43457 0.74247 0.29606 0.0
H1125 H 0.60377 0.86871 0.32567 0.0
H1126 H 0.55344 0.74616 0.30646 0.0
H1127 H 0.48206 0.8497 0.3254 0.0
C1128 C 0.43206 0.82271 0.31656 0.0
C1129 C 0.41797 0.79283 0.30808 0.0
C1130 C 0.56443 0.77303 0.3107 0.0
C1131 C 0.49718 0.79926 0.31301 0.0
C1132 C 0.60422 0.77792 0.31199 0.0
C1133 C 0.61925 0.81262 0.31728 0.0
C1134 C 0.53945 0.80296 0.31479 0.0
C1135 C 0.59335 0.84173 0.32137 0.0
C1136 C 0.47164 0.82611 0.319 0.0
C1137 C 0.44436 0.76622 0.30249 0.0
N1138 N 0.55465 0.83625 0.32004 0.0
N1139 N 0.48273 0.77007 0.30505 0.0
H1140 H 0.47214 0.17637 0.56735 0.0
H1141 H 0.5565 0.38398 0.54931 0.0
H1142 H 0.57411 0.19209 0.54193 0.0
H1143 H 0.43771 0.36511 0.56117 0.0
H1144 H 0.56616 0.31378 0.54837 0.0
H1145 H 0.46101 0.24567 0.56666 0.0
C1146 C 0.49203 0.19407 0.56147 0.0
C1147 C 0.52427 0.17792 0.5547 0.0
C1148 C 0.53795 0.32507 0.55111 0.0
C1149 C 0.51196 0.25785 0.55419 0.0
C1150 C 0.53254 0.36502 0.55174 0.0
C1151 C 0.49627 0.38023 0.55531 0.0
C1152 C 0.507 0.30029 0.55427 0.0
C1153 C 0.46599 0.3545 0.55823 0.0
C1154 C 0.48569 0.23384 0.56117 0.0
C1155 C 0.54924 0.20298 0.5475 0.0
N1156 N 0.4721 0.31577 0.55773 0.0
N1157 N 0.54271 0.24171 0.54752 0.0
H1158 H 0.1067 0.36118 0.81361 0.0
H1159 H 0.93096 0.21873 0.79803 0.0
H1160 H 0.12155 0.2417 0.80184 0.0
H1161 H 0.91877 0.32172 0.82318 0.0
H1162 H -5e-05 0.23112 0.7962 0.0
H1163 H 0.03654 0.35157 0.81392 0.0
C1164 C 0.09511 0.33304 0.81098 0.0
C1165 C 0.11978 0.30212 0.80771 0.0
C1166 C 0.98212 0.25099 0.80211 0.0
C1167 C 0.03998 0.29095 0.80807 0.0
C1168 C 0.94266 0.24387 0.80324 0.0
C1169 C 0.91885 0.26897 0.81092 0.0
C1170 C -0.00202 0.28364 0.8086 0.0
C1171 C 0.93581 0.30169 0.81708 0.0
C1172 C 0.0552 0.32751 0.81125 0.0
C1173 C 0.10345 0.2661 0.80455 0.0
N1174 N 0.97441 0.30806 0.8158 0.0
N1175 N 0.0645 0.26151 0.80477 0.0
H1176 H 0.93267 0.20205 0.92466 0.0
H1177 H 0.0812 0.37038 0.94384 0.0
H1178 H 0.05072 0.18079 0.93684 0.0
H1179 H 0.97835 0.38852 0.91923 0.0
H1180 H 0.06627 0.30154 0.94474 0.0
H1181 H 0.94469 0.27164 0.92622 0.0
C1182 C 0.961 0.21209 0.92778 0.0
C1183 C 0.99084 0.18578 0.93056 0.0
C1184 C 0.04697 0.32073 0.93919 0.0
C1185 C 0.0048 0.26501 0.93233 0.0
C1186 C 0.05553 0.36006 0.93861 0.0
C1187 C 0.03119 0.38549 0.93136 0.0
C1188 C 0.01368 0.30673 0.93257 0.0
C1189 C -0.00218 0.37031 0.92507 0.0
C1190 C 0.96791 0.25171 0.92859 0.0
C1191 C 0.02715 0.20021 0.93443 0.0
N1192 N 0.99011 0.33191 0.9258 0.0
N1193 N 0.03314 0.23893 0.93521 0.0
H1194 H 0.10189 0.70671 0.16314 0.0
H1195 H 0.93853 0.84895 0.19194 0.0
H1196 H 0.12562 0.81929 0.18053 0.0
H1197 H 0.91473 0.75229 0.16473 0.0
H1198 H 0.00729 0.83409 0.19043 0.0
H1199 H 0.0326 0.7184 0.16636 0.0
C1200 C 0.09242 0.73378 0.16767 0.0
C1201 C 0.11924 0.76224 0.17146 0.0
C1202 C 0.98692 0.81612 0.18483 0.0
C1203 C 0.04065 0.77578 0.17518 0.0
C1204 C 0.94769 0.82468 0.18563 0.0
C1205 C 0.92076 0.80199 0.1784 0.0
C1206 C -0.00074 0.78455 0.17679 0.0
C1207 C 0.93429 0.77035 0.17062 0.0
C1208 C 0.05303 0.74052 0.16945 0.0
C1209 C 0.10574 0.79695 0.17724 0.0
N1210 N 0.97266 0.76261 0.16999 0.0
N1211 N 0.0673 0.80276 0.17894 0.0
H1212 H 0.43262 0.69295 0.41355 0.0
H1213 H 0.57294 0.86313 0.43753 0.0
H1214 H 0.54751 0.67427 0.42957 0.0
H1215 H 0.47461 0.88159 0.41069 0.0
H1216 H 0.56019 0.794 0.43695 0.0
H1217 H 0.44349 0.76288 0.41479 0.0
C1218 C 0.46003 0.70366 0.41737 0.0
C1219 C 0.4893 0.67803 0.42141 0.0
C1220 C 0.54144 0.81323 0.43117 0.0
C1221 C 0.50192 0.75739 0.42285 0.0
C1222 C 0.54881 0.85273 0.43144 0.0
C1223 C 0.52498 0.87831 0.42407 0.0
C1224 C 0.50987 0.79917 0.42356 0.0
C1225 C 0.49353 0.86307 0.41664 0.0
C1226 C 0.4663 0.74341 0.418 0.0
C1227 C 0.52446 0.69314 0.42618 0.0
N1228 N 0.48688 0.82442 0.41657 0.0
N1229 N 0.52976 0.73191 0.42681 0.0
H1230 H 0.62007 0.33544 0.66688 0.0
H1231 H 0.4109 0.25596 0.68621 0.0
H1232 H 0.60206 0.23549 0.69299 0.0
H1233 H 0.43133 0.37028 0.66993 0.0
H1234 H 0.48081 0.24598 0.68773 0.0
H1235 H 0.55083 0.34726 0.66705 0.0
C1236 C 0.60178 0.31614 0.67278 0.0
C1237 C 0.61721 0.28432 0.67994 0.0
C1238 C 0.46996 0.27333 0.68391 0.0
C1239 C 0.53749 0.29741 0.67992 0.0
C1240 C 0.43013 0.27892 0.68295 0.0
C1241 C 0.41541 0.31397 0.67792 0.0
C1242 C 0.49514 0.30287 0.67964 0.0
C1243 C 0.44152 0.343 0.674 0.0
C1244 C 0.56209 0.32285 0.67281 0.0
C1245 C 0.5916 0.26 0.68715 0.0
N1246 N 0.48015 0.33671 0.67486 0.0
N1247 N 0.55298 0.26695 0.6869 0.0
loop_
_geom_bond_atom_site_label_1
_geom_bond_atom_site_label_2
_geom_bond_distance
_geom_bond_site_symmetry_2
_ccdc_geom_bond_type
Co0 N4 2.148 . S
Co0 N10 2.128 1_545 S
Co0 N20 2.194 1_455 S
Co0 O25 2.351 1_455 S
Co0 O26 2.155 . S
Co0 O27 2.096 . S
C1 N4 1.301 . S
C1 N5 1.328 . S
C1 H6 0.930 1_455 S
C2 C3 1.333 . S
C2 N4 1.317 . S
C2 H7 0.930 . S
C3 C2 1.333 . S
C3 N5 1.350 . S
C3 H29 0.931 . S
N4 Co0 2.148 . S
N4 C1 1.301 . S
N4 C2 1.317 . S
N5 C1 1.328 . S
N5 C3 1.350 . S
H6 C1 0.930 1_655 S
H7 C2 0.930 . S
C8 O9 1.224 . S
C8 O27 1.247 . S
O9 C8 1.224 . S
N10 Co0 2.128 1_565 S
N10 C11 1.355 1_455 S
N10 C13 1.311 . S
C11 N10 1.355 1_655 S
C11 C12 1.363 . S
C11 H23 0.929 . S
C12 C11 1.363 . S
C12 N14 1.375 1_655 S
C12 H30 0.931 . S
C13 N10 1.311 . S
C13 N14 1.347 . S
C13 H24 0.929 . S
N14 C12 1.375 1_455 S
N14 C13 1.347 . S
C15 C18 1.365 . S
C15 N20 1.328 . S
C15 H21 0.929 . S
C16 C17 1.362 . S
C16 C19 1.378 . S
C16 H31 0.929 . S
C17 C16 1.362 . S
C17 C18 1.366 . S
C18 C15 1.365 . S
C18 C17 1.366 . S
C18 H32 0.930 . S
C19 C16 1.378 . S
C19 N20 1.315 . S
C19 H22 0.930 . S
N20 Co0 2.194 1_655 S
N20 C15 1.328 . S
N20 C19 1.315 . S
H21 C15 0.929 . S
H22 C19 0.930 . S
H23 C11 0.929 . S
H24 C13 0.929 . S
O25 Co0 2.351 1_655 S
O25 C28 1.244 1_655 S
O26 Co0 2.155 . S
O26 C28 1.240 . S
O27 Co0 2.096 . S
O27 C8 1.247 . S
C28 O25 1.244 1_455 S
C28 O26 1.240 . S
H29 C3 0.931 . S
H30 C12 0.931 . S
H31 C16 0.929 . S
H32 C18 0.930 . S
Co33 N37 2.148 . S
Co33 N43 2.128 . S
Co33 N53 2.194 . S
Co33 O58 2.351 . S
Co33 O59 2.155 . S
Co33 O60 2.096 . S
C34 N37 1.301 . S
C34 N38 1.328 . S
C34 H39 0.930 . S
C35 C36 1.333 . S
C35 N37 1.317 . S
C35 H40 0.930 . S
C36 C35 1.333 . S
C36 N38 1.350 . S
C36 H62 0.931 . S
N37 Co33 2.148 . S
N37 C34 1.301 . S
N37 C35 1.317 . S
N38 C34 1.328 . S
N38 C36 1.350 . S
H39 C34 0.930 . S
H40 C35 0.930 . S
C41 O42 1.224 . S
C41 O60 1.247 . S
O42 C41 1.224 . S
N43 Co33 2.128 . S
N43 C44 1.355 . S
N43 C46 1.311 . S
C44 N43 1.355 . S
C44 C45 1.363 . S
C44 H56 0.929 . S
C45 C44 1.363 . S
C45 N47 1.375 . S
C45 H63 0.931 . S
C46 N43 1.311 . S
C46 N47 1.347 . S
C46 H57 0.929 . S
N47 C45 1.375 . S
N47 C46 1.347 . S
C48 C51 1.365 . S
C48 N53 1.328 . S
C48 H54 0.929 . S
C49 C50 1.362 . S
C49 C52 1.378 . S
C49 H64 0.929 . S
C50 C49 1.362 . S
C50 C51 1.366 . S
C51 C48 1.365 . S
C51 C50 1.366 . S
C51 H65 0.930 . S
C52 C49 1.378 . S
C52 N53 1.315 . S
C52 H55 0.930 . S
N53 Co33 2.194 . S
N53 C48 1.328 . S
N53 C52 1.315 . S
H54 C48 0.929 . S
H55 C52 0.930 . S
H56 C44 0.929 . S
H57 C46 0.929 . S
O58 Co33 2.351 . S
O58 C61 1.244 . S
O59 Co33 2.155 . S
O59 C61 1.240 . S
O60 Co33 2.096 . S
O60 C41 1.247 . S
C61 O58 1.244 . S
C61 O59 1.240 . S
H62 C36 0.931 . S
H63 C45 0.931 . S
H64 C49 0.929 . S
H65 C51 0.930 . S
Co66 N70 2.148 1_545 S
Co66 N76 2.128 . S
Co66 N86 2.194 . S
Co66 O91 2.351 . S
Co66 O92 2.155 . S
Co66 O93 2.096 . S
C67 N70 1.301 . S
C67 N71 1.328 . S
C67 H72 0.930 . S
C68 C69 1.333 . S
C68 N70 1.317 . S
C68 H73 0.930 . S
C69 C68 1.333 . S
C69 N71 1.350 . S
C69 H95 0.931 . S
N70 Co66 2.148 1_565 S
N70 C67 1.301 . S
N70 C68 1.317 . S
N71 C67 1.328 . S
N71 C69 1.350 . S
H72 C67 0.930 . S
H73 C68 0.930 . S
C74 O75 1.224 . S
C74 O93 1.247 . S
O75 C74 1.224 . S
N76 Co66 2.128 . S
N76 C77 1.355 . S
N76 C79 1.311 . S
C77 N76 1.355 . S
C77 C78 1.363 . S
C77 H89 0.929 . S
C78 C77 1.363 . S
C78 N80 1.375 . S
C78 H96 0.931 . S
C79 N76 1.311 . S
C79 N80 1.347 . S
C79 H90 0.929 . S
N80 C78 1.375 . S
N80 C79 1.347 . S
C81 C84 1.365 . S
C81 N86 1.328 . S
C81 H87 0.929 . S
C82 C83 1.362 . S
C82 C85 1.378 . S
C82 H97 0.929 . S
C83 C82 1.362 . S
C83 C84 1.366 . S
C84 C81 1.365 . S
C84 C83 1.366 . S
C84 H98 0.930 . S
C85 C82 1.378 . S
C85 N86 1.315 . S
C85 H88 0.930 . S
N86 Co66 2.194 . S
N86 C81 1.328 . S
N86 C85 1.315 . S
H87 C81 0.929 . S
H88 C85 0.930 . S
H89 C77 0.929 . S
H90 C79 0.929 . S
O91 Co66 2.351 . S
O91 C94 1.244 . S
O92 Co66 2.155 . S
O92 C94 1.240 . S
O93 Co66 2.096 . S
O93 C74 1.247 . S
C94 O91 1.244 . S
C94 O92 1.240 . S
H95 C69 0.931 . S
H96 C78 0.931 . S
H97 C82 0.929 . S
H98 C84 0.930 . S
Co99 N103 2.148 . S
Co99 N109 2.128 . S
Co99 N119 2.194 . S
Co99 O124 2.351 . S
Co99 O125 2.155 . S
Co99 O126 2.096 . S
C100 N103 1.301 . S
C100 N104 1.328 . S
C100 H105 0.930 . S
C101 C102 1.333 . S
C101 N103 1.317 . S
C101 H106 0.930 . S
C102 C101 1.333 . S
C102 N104 1.350 . S
C102 H128 0.931 . S
N103 Co99 2.148 . S
N103 C100 1.301 . S
N103 C101 1.317 . S
N104 C100 1.328 . S
N104 C102 1.350 . S
H105 C100 0.930 . S
H106 C101 0.930 . S
C107 O108 1.224 . S
C107 O126 1.247 . S
O108 C107 1.224 . S
N109 Co99 2.128 . S
N109 C110 1.355 . S
N109 C112 1.311 . S
C110 N109 1.355 . S
C110 C111 1.363 . S
C110 H122 0.929 . S
C111 C110 1.363 . S
C111 N113 1.375 . S
C111 H129 0.931 . S
C112 N109 1.311 . S
C112 N113 1.347 . S
C112 H123 0.929 . S
N113 C111 1.375 . S
N113 C112 1.347 . S
C114 C117 1.365 . S
C114 N119 1.328 . S
C114 H120 0.929 . S
C115 C116 1.362 . S
C115 C118 1.378 . S
C115 H130 0.929 . S
C116 C115 1.362 . S
C116 C117 1.366 . S
C117 C114 1.365 . S
C117 C116 1.366 . S
C117 H131 0.930 . S
C118 C115 1.378 . S
C118 N119 1.315 . S
C118 H121 0.930 . S
N119 Co99 2.194 . S
N119 C114 1.328 . S
N119 C118 1.315 . S
H120 C114 0.929 . S
H121 C118 0.930 . S
H122 C110 0.929 . S
H123 C112 0.929 . S
O124 Co99 2.351 . S
O124 C127 1.244 . S
O125 Co99 2.155 . S
O125 C127 1.240 . S
O126 Co99 2.096 . S
O126 C107 1.247 . S
C127 O124 1.244 . S
C127 O125 1.240 . S
H128 C102 0.931 . S
H129 C111 0.931 . S
H130 C115 0.929 . S
H131 C117 0.930 . S
Co132 N136 2.148 1_545 S
Co132 N142 2.128 . S
Co132 N152 2.194 1_455 S
Co132 O157 2.351 1_455 S
Co132 O158 2.155 . S
Co132 O159 2.096 . S
C133 N136 1.301 . S
C133 N137 1.328 . S
C133 H138 0.930 1_455 S
C134 C135 1.333 . S
C134 N136 1.317 . S
C134 H139 0.930 . S
C135 C134 1.333 . S
C135 N137 1.350 . S
C135 H161 0.931 . S
N136 Co132 2.148 1_565 S
N136 C133 1.301 . S
N136 C134 1.317 . S
N137 C133 1.328 . S
N137 C135 1.350 . S
H138 C133 0.930 1_655 S
H139 C134 0.930 . S
C140 O141 1.224 . S
C140 O159 1.247 . S
O141 C140 1.224 . S
N142 Co132 2.128 . S
N142 C143 1.355 1_455 S
N142 C145 1.311 . S
C143 N142 1.355 1_655 S
C143 C144 1.363 . S
C143 H155 0.929 . S
C144 C143 1.363 . S
C144 N146 1.375 1_655 S
C144 H162 0.931 . S
C145 N142 1.311 . S
C145 N146 1.347 . S
C145 H156 0.929 . S
N146 C144 1.375 1_455 S
N146 C145 1.347 . S
C147 C150 1.365 . S
C147 N152 1.328 . S
C147 H153 0.929 . S
C148 C149 1.362 . S
C148 C151 1.378 . S
C148 H163 0.929 . S
C149 C148 1.362 . S
C149 C150 1.366 . S
C150 C147 1.365 . S
C150 C149 1.366 . S
C150 H164 0.930 . S
C151 C148 1.378 . S
C151 N152 1.315 . S
C151 H154 0.930 . S
N152 Co132 2.194 1_655 S
N152 C147 1.328 . S
N152 C151 1.315 . S
H153 C147 0.929 . S
H154 C151 0.930 . S
H155 C143 0.929 . S
H156 C145 0.929 . S
O157 Co132 2.351 1_655 S
O157 C160 1.244 1_655 S
O158 Co132 2.155 . S
O158 C160 1.240 . S
O159 Co132 2.096 . S
O159 C140 1.247 . S
C160 O157 1.244 1_455 S
C160 O158 1.240 . S
H161 C135 0.931 . S
H162 C144 0.931 . S
H163 C148 0.929 . S
H164 C150 0.930 . S
Co165 N169 2.148 . S
Co165 N175 2.128 . S
Co165 N185 2.194 . S
Co165 O190 2.351 . S
Co165 O191 2.155 . S
Co165 O192 2.096 . S
C166 N169 1.301 . S
C166 N170 1.328 . S
C166 H171 0.930 . S
C167 C168 1.333 . S
C167 N169 1.317 . S
C167 H172 0.930 . S
C168 C167 1.333 . S
C168 N170 1.350 . S
C168 H194 0.931 . S
N169 Co165 2.148 . S
N169 C166 1.301 . S
N169 C167 1.317 . S
N170 C166 1.328 . S
N170 C168 1.350 . S
H171 C166 0.930 . S
H172 C167 0.930 . S
C173 O174 1.224 . S
C173 O192 1.247 . S
O174 C173 1.224 . S
N175 Co165 2.128 . S
N175 C176 1.355 . S
N175 C178 1.311 . S
C176 N175 1.355 . S
C176 C177 1.363 . S
C176 H188 0.929 . S
C177 C176 1.363 . S
C177 N179 1.375 . S
C177 H195 0.931 . S
C178 N175 1.311 . S
C178 N179 1.347 . S
C178 H189 0.929 . S
N179 C177 1.375 . S
N179 C178 1.347 . S
C180 C183 1.365 . S
C180 N185 1.328 . S
C180 H186 0.929 . S
C181 C182 1.362 . S
C181 C184 1.378 . S
C181 H196 0.929 . S
C182 C181 1.362 . S
C182 C183 1.366 . S
C183 C180 1.365 . S
C183 C182 1.366 . S
C183 H197 0.930 . S
C184 C181 1.378 . S
C184 N185 1.315 . S
C184 H187 0.930 . S
N185 Co165 2.194 . S
N185 C180 1.328 . S
N185 C184 1.315 . S
H186 C180 0.929 . S
H187 C184 0.930 . S
H188 C176 0.929 . S
H189 C178 0.929 . S
O190 Co165 2.351 . S
O190 C193 1.244 . S
O191 Co165 2.155 . S
O191 C193 1.240 . S
O192 Co165 2.096 . S
O192 C173 1.247 . S
C193 O190 1.244 . S
C193 O191 1.240 . S
H194 C168 0.931 . S
H195 C177 0.931 . S
H196 C181 0.929 . S
H197 C183 0.930 . S
Co198 N202 2.148 . S
Co198 N208 2.128 1_545 S
Co198 N218 2.194 . S
Co198 O223 2.351 . S
Co198 O224 2.155 . S
Co198 O225 2.096 . S
C199 N202 1.301 . S
C199 N203 1.328 . S
C199 H204 0.930 . S
C200 C201 1.333 . S
C200 N202 1.317 . S
C200 H205 0.930 . S
C201 C200 1.333 . S
C201 N203 1.350 . S
C201 H227 0.931 . S
N202 Co198 2.148 . S
N202 C199 1.301 . S
N202 C200 1.317 . S
N203 C199 1.328 . S
N203 C201 1.350 . S
H204 C199 0.930 . S
H205 C200 0.930 . S
C206 O207 1.224 . S
C206 O225 1.247 . S
O207 C206 1.224 . S
N208 Co198 2.128 1_565 S
N208 C209 1.355 . S
N208 C211 1.311 . S
C209 N208 1.355 . S
C209 C210 1.363 . S
C209 H221 0.929 . S
C210 C209 1.363 . S
C210 N212 1.375 . S
C210 H228 0.931 . S
C211 N208 1.311 . S
C211 N212 1.347 . S
C211 H222 0.929 . S
N212 C210 1.375 . S
N212 C211 1.347 . S
C213 C216 1.365 . S
C213 N218 1.328 . S
C213 H219 0.929 . S
C214 C215 1.362 . S
C214 C217 1.378 . S
C214 H229 0.929 . S
C215 C214 1.362 . S
C215 C216 1.366 . S
C216 C213 1.365 . S
C216 C215 1.366 . S
C216 H230 0.930 . S
C217 C214 1.378 . S
C217 N218 1.315 . S
C217 H220 0.930 . S
N218 Co198 2.194 . S
N218 C213 1.328 . S
N218 C217 1.315 . S
H219 C213 0.929 . S
H220 C217 0.930 . S
H221 C209 0.929 . S
H222 C211 0.929 . S
O223 Co198 2.351 . S
O223 C226 1.244 . S
O224 Co198 2.155 . S
O224 C226 1.240 . S
O225 Co198 2.096 . S
O225 C206 1.247 . S
C226 O223 1.244 . S
C226 O224 1.240 . S
H227 C201 0.931 . S
H228 C210 0.931 . S
H229 C214 0.929 . S
H230 C216 0.930 . S
Co231 N235 2.148 . S
Co231 N241 2.128 . S
Co231 N251 2.194 . S
Co231 O256 2.351 . S
Co231 O257 2.155 . S
Co231 O258 2.096 . S
C232 N235 1.301 . S
C232 N236 1.328 . S
C232 H237 0.930 . S
C233 C234 1.333 . S
C233 N235 1.317 . S
C233 H238 0.930 . S
C234 C233 1.333 . S
C234 N236 1.350 . S
C234 H260 0.931 . S
N235 Co231 2.148 . S
N235 C232 1.301 . S
N235 C233 1.317 . S
N236 C232 1.328 . S
N236 C234 1.350 . S
H237 C232 0.930 . S
H238 C233 0.930 . S
C239 O240 1.224 . S
C239 O258 1.247 . S
O240 C239 1.224 . S
N241 Co231 2.128 . S
N241 C242 1.355 . S
N241 C244 1.311 . S
C242 N241 1.355 . S
C242 C243 1.363 . S
C242 H254 0.929 . S
C243 C242 1.363 . S
C243 N245 1.375 . S
C243 H261 0.931 . S
C244 N241 1.311 . S
C244 N245 1.347 . S
C244 H255 0.929 . S
N245 C243 1.375 . S
N245 C244 1.347 . S
C246 C249 1.365 . S
C246 N251 1.328 . S
C246 H252 0.929 . S
C247 C248 1.362 . S
C247 C250 1.378 . S
C247 H262 0.929 . S
C248 C247 1.362 . S
C248 C249 1.366 . S
C249 C246 1.365 . S
C249 C248 1.366 . S
C249 H263 0.930 . S
C250 C247 1.378 . S
C250 N251 1.315 . S
C250 H253 0.930 . S
N251 Co231 2.194 . S
N251 C246 1.328 . S
N251 C250 1.315 . S
H252 C246 0.929 . S
H253 C250 0.930 . S
H254 C242 0.929 . S
H255 C244 0.929 . S
O256 Co231 2.351 . S
O256 C259 1.244 . S
O257 Co231 2.155 . S
O257 C259 1.240 . S
O258 Co231 2.096 . S
O258 C239 1.247 . S
C259 O256 1.244 . S
C259 O257 1.240 . S
H260 C234 0.931 . S
H261 C243 0.931 . S
H262 C247 0.929 . S
H263 C249 0.930 . S
Co264 N268 2.148 . S
Co264 N274 2.128 . S
Co264 N284 2.194 . S
Co264 O289 2.351 . S
Co264 O290 2.155 . S
Co264 O291 2.096 . S
C265 N268 1.301 . S
C265 N269 1.328 . S
C265 H270 0.930 . S
C266 C267 1.333 . S
C266 N268 1.317 . S
C266 H271 0.930 . S
C267 C266 1.333 . S
C267 N269 1.350 . S
C267 H293 0.931 . S
N268 Co264 2.148 . S
N268 C265 1.301 . S
N268 C266 1.317 . S
N269 C265 1.328 . S
N269 C267 1.350 . S
H270 C265 0.930 . S
H271 C266 0.930 . S
C272 O273 1.224 . S
C272 O291 1.247 . S
O273 C272 1.224 . S
N274 Co264 2.128 . S
N274 C275 1.355 . S
N274 C277 1.311 . S
C275 N274 1.355 . S
C275 C276 1.363 . S
C275 H287 0.929 . S
C276 C275 1.363 . S
C276 N278 1.375 . S
C276 H294 0.931 . S
C277 N274 1.311 . S
C277 N278 1.347 . S
C277 H288 0.929 . S
N278 C276 1.375 . S
N278 C277 1.347 . S
C279 C282 1.365 . S
C279 N284 1.328 . S
C279 H285 0.929 . S
C280 C281 1.362 . S
C280 C283 1.378 . S
C280 H295 0.929 . S
C281 C280 1.362 . S
C281 C282 1.366 . S
C282 C279 1.365 . S
C282 C281 1.366 . S
C282 H296 0.930 . S
C283 C280 1.378 . S
C283 N284 1.315 . S
C283 H286 0.930 . S
N284 Co264 2.194 . S
N284 C279 1.328 . S
N284 C283 1.315 . S
H285 C279 0.929 . S
H286 C283 0.930 . S
H287 C275 0.929 . S
H288 C277 0.929 . S
O289 Co264 2.351 . S
O289 C292 1.244 . S
O290 Co264 2.155 . S
O290 C292 1.240 . S
O291 Co264 2.096 . S
O291 C272 1.247 . S
C292 O289 1.244 . S
C292 O290 1.240 . S
H293 C267 0.931 . S
H294 C276 0.931 . S
H295 C280 0.929 . S
H296 C282 0.930 . S
Co297 N301 2.148 . S
Co297 N307 2.128 . S
Co297 N317 2.194 . S
Co297 O322 2.351 . S
Co297 O323 2.155 . S
Co297 O324 2.096 . S
C298 N301 1.301 . S
C298 N302 1.328 . S
C298 H303 0.930 . S
C299 C300 1.333 . S
C299 N301 1.317 . S
C299 H304 0.930 . S
C300 C299 1.333 . S
C300 N302 1.350 . S
C300 H326 0.931 . S
N301 Co297 2.148 . S
N301 C298 1.301 . S
N301 C299 1.317 . S
N302 C298 1.328 . S
N302 C300 1.350 . S
H303 C298 0.930 . S
H304 C299 0.930 . S
C305 O306 1.224 . S
C305 O324 1.247 . S
O306 C305 1.224 . S
N307 Co297 2.128 . S
N307 C308 1.355 . S
N307 C310 1.311 . S
C308 N307 1.355 . S
C308 C309 1.363 . S
C308 H320 0.929 . S
C309 C308 1.363 . S
C309 N311 1.375 . S
C309 H327 0.931 . S
C310 N307 1.311 . S
C310 N311 1.347 . S
C310 H321 0.929 . S
N311 C309 1.375 . S
N311 C310 1.347 . S
C312 C315 1.365 . S
C312 N317 1.328 . S
C312 H318 0.929 . S
C313 C314 1.362 . S
C313 C316 1.378 . S
C313 H328 0.929 . S
C314 C313 1.362 . S
C314 C315 1.366 . S
C315 C312 1.365 . S
C315 C314 1.366 . S
C315 H329 0.930 . S
C316 C313 1.378 . S
C316 N317 1.315 . S
C316 H319 0.930 . S
N317 Co297 2.194 . S
N317 C312 1.328 . S
N317 C316 1.315 . S
H318 C312 0.929 . S
H319 C316 0.930 . S
H320 C308 0.929 . S
H321 C310 0.929 . S
O322 Co297 2.351 . S
O322 C325 1.244 . S
O323 Co297 2.155 . S
O323 C325 1.240 . S
O324 Co297 2.096 . S
O324 C305 1.247 . S
C325 O322 1.244 . S
C325 O323 1.240 . S
H326 C300 0.931 . S
H327 C309 0.931 . S
H328 C313 0.929 . S
H329 C315 0.930 . S
Co330 N334 2.148 . S
Co330 N340 2.128 . S
Co330 N350 2.194 . S
Co330 O355 2.351 . S
Co330 O356 2.155 . S
Co330 O357 2.096 . S
C331 N334 1.301 . S
C331 N335 1.328 . S
C331 H336 0.930 . S
C332 C333 1.333 . S
C332 N334 1.317 . S
C332 H337 0.930 . S
C333 C332 1.333 . S
C333 N335 1.350 . S
C333 H359 0.931 . S
N334 Co330 2.148 . S
N334 C331 1.301 . S
N334 C332 1.317 . S
N335 C331 1.328 . S
N335 C333 1.350 . S
H336 C331 0.930 . S
H337 C332 0.930 . S
C338 O339 1.224 . S
C338 O357 1.247 . S
O339 C338 1.224 . S
N340 Co330 2.128 . S
N340 C341 1.355 . S
N340 C343 1.311 . S
C341 N340 1.355 . S
C341 C342 1.363 . S
C341 H353 0.929 . S
C342 C341 1.363 . S
C342 N344 1.375 . S
C342 H360 0.931 . S
C343 N340 1.311 . S
C343 N344 1.347 . S
C343 H354 0.929 . S
N344 C342 1.375 . S
N344 C343 1.347 . S
C345 C348 1.365 . S
C345 N350 1.328 . S
C345 H351 0.929 . S
C346 C347 1.362 . S
C346 C349 1.378 . S
C346 H361 0.929 . S
C347 C346 1.362 . S
C347 C348 1.366 . S
C348 C345 1.365 . S
C348 C347 1.366 . S
C348 H362 0.930 . S
C349 C346 1.378 . S
C349 N350 1.315 . S
C349 H352 0.930 . S
N350 Co330 2.194 . S
N350 C345 1.328 . S
N350 C349 1.315 . S
H351 C345 0.929 . S
H352 C349 0.930 . S
H353 C341 0.929 . S
H354 C343 0.929 . S
O355 Co330 2.351 . S
O355 C358 1.244 . S
O356 Co330 2.155 . S
O356 C358 1.240 . S
O357 Co330 2.096 . S
O357 C338 1.247 . S
C358 O355 1.244 . S
C358 O356 1.240 . S
H359 C333 0.931 . S
H360 C342 0.931 . S
H361 C346 0.929 . S
H362 C348 0.930 . S
Co363 N367 2.148 . S
Co363 N373 2.128 . S
Co363 N383 2.194 . S
Co363 O388 2.351 . S
Co363 O389 2.155 . S
Co363 O390 2.096 . S
C364 N367 1.301 . S
C364 N368 1.328 . S
C364 H369 0.930 . S
C365 C366 1.333 . S
C365 N367 1.317 . S
C365 H370 0.930 . S
C366 C365 1.333 . S
C366 N368 1.350 . S
C366 H392 0.931 . S
N367 Co363 2.148 . S
N367 C364 1.301 . S
N367 C365 1.317 . S
N368 C364 1.328 . S
N368 C366 1.350 . S
H369 C364 0.930 . S
H370 C365 0.930 . S
C371 O372 1.224 . S
C371 O390 1.247 . S
O372 C371 1.224 . S
N373 Co363 2.128 . S
N373 C374 1.355 . S
N373 C376 1.311 . S
C374 N373 1.355 . S
C374 C375 1.363 . S
C374 H386 0.929 . S
C375 C374 1.363 . S
C375 N377 1.375 . S
C375 H393 0.931 . S
C376 N373 1.311 . S
C376 N377 1.347 . S
C376 H387 0.929 . S
N377 C375 1.375 . S
N377 C376 1.347 . S
C378 C381 1.365 . S
C378 N383 1.328 . S
C378 H384 0.929 . S
C379 C380 1.362 . S
C379 C382 1.378 . S
C379 H394 0.929 . S
C380 C379 1.362 . S
C380 C381 1.366 . S
C381 C378 1.365 . S
C381 C380 1.366 . S
C381 H395 0.930 . S
C382 C379 1.378 . S
C382 N383 1.315 . S
C382 H385 0.930 . S
N383 Co363 2.194 . S
N383 C378 1.328 . S
N383 C382 1.315 . S
H384 C378 0.929 . S
H385 C382 0.930 . S
H386 C374 0.929 . S
H387 C376 0.929 . S
O388 Co363 2.351 . S
O388 C391 1.244 . S
O389 Co363 2.155 . S
O389 C391 1.240 . S
O390 Co363 2.096 . S
O390 C371 1.247 . S
C391 O388 1.244 . S
C391 O389 1.240 . S
H392 C366 0.931 . S
H393 C375 0.931 . S
H394 C379 0.929 . S
H395 C381 0.930 . S
Co396 N400 2.148 . S
Co396 N406 2.128 . S
Co396 N416 2.194 . S
Co396 O421 2.351 . S
Co396 O422 2.155 . S
Co396 O423 2.096 . S
C397 N400 1.301 . S
C397 N401 1.328 . S
C397 H402 0.930 . S
C398 C399 1.333 . S
C398 N400 1.317 . S
C398 H403 0.930 . S
C399 C398 1.333 . S
C399 N401 1.350 . S
C399 H425 0.931 . S
N400 Co396 2.148 . S
N400 C397 1.301 . S
N400 C398 1.317 . S
N401 C397 1.328 . S
N401 C399 1.350 . S
H402 C397 0.930 . S
H403 C398 0.930 . S
C404 O405 1.224 . S
C404 O423 1.247 . S
O405 C404 1.224 . S
N406 Co396 2.128 . S
N406 C407 1.355 . S
N406 C409 1.311 . S
C407 N406 1.355 . S
C407 C408 1.363 . S
C407 H419 0.929 . S
C408 C407 1.363 . S
C408 N410 1.375 . S
C408 H426 0.931 . S
C409 N406 1.311 . S
C409 N410 1.347 . S
C409 H420 0.929 . S
N410 C408 1.375 . S
N410 C409 1.347 . S
C411 C414 1.365 . S
C411 N416 1.328 . S
C411 H417 0.929 . S
C412 C413 1.362 . S
C412 C415 1.378 . S
C412 H427 0.929 . S
C413 C412 1.362 . S
C413 C414 1.366 . S
C414 C411 1.365 . S
C414 C413 1.366 . S
C414 H428 0.930 . S
C415 C412 1.378 . S
C415 N416 1.315 . S
C415 H418 0.930 . S
N416 Co396 2.194 . S
N416 C411 1.328 . S
N416 C415 1.315 . S
H417 C411 0.929 . S
H418 C415 0.930 . S
H419 C407 0.929 . S
H420 C409 0.929 . S
O421 Co396 2.351 . S
O421 C424 1.244 . S
O422 Co396 2.155 . S
O422 C424 1.240 . S
O423 Co396 2.096 . S
O423 C404 1.247 . S
C424 O421 1.244 . S
C424 O422 1.240 . S
H425 C399 0.931 . S
H426 C408 0.931 . S
H427 C412 0.929 . S
H428 C414 0.930 . S
Co429 N433 2.148 . S
Co429 N439 2.128 . S
Co429 N449 2.194 . S
Co429 O454 2.351 . S
Co429 O455 2.155 1_455 S
Co429 O456 2.096 1_455 S
C430 N433 1.301 . S
C430 N434 1.328 . S
C430 H435 0.930 . S
C431 C432 1.333 . S
C431 N433 1.317 1_655 S
C431 H436 0.930 . S
C432 C431 1.333 . S
C432 N434 1.350 1_655 S
C432 H458 0.931 . S
N433 Co429 2.148 . S
N433 C430 1.301 . S
N433 C431 1.317 1_455 S
N434 C430 1.328 . S
N434 C432 1.350 1_455 S
H435 C430 0.930 . S
H436 C431 0.930 . S
C437 O438 1.224 . S
C437 O456 1.247 . S
O438 C437 1.224 . S
N439 Co429 2.128 . S
N439 C440 1.355 . S
N439 C442 1.311 . S
C440 N439 1.355 . S
C440 C441 1.363 . S
C440 H452 0.929 . S
C441 C440 1.363 . S
C441 N443 1.375 . S
C441 H459 0.931 . S
C442 N439 1.311 . S
C442 N443 1.347 . S
C442 H453 0.929 1_455 S
N443 C441 1.375 . S
N443 C442 1.347 . S
C444 C447 1.365 . S
C444 N449 1.328 . S
C444 H450 0.929 . S
C445 C446 1.362 . S
C445 C448 1.378 . S
C445 H460 0.929 . S
C446 C445 1.362 . S
C446 C447 1.366 . S
C447 C444 1.365 . S
C447 C446 1.366 . S
C447 H461 0.930 . S
C448 C445 1.378 . S
C448 N449 1.315 . S
C448 H451 0.930 . S
N449 Co429 2.194 . S
N449 C444 1.328 . S
N449 C448 1.315 . S
H450 C444 0.929 . S
H451 C448 0.930 . S
H452 C440 0.929 . S
H453 C442 0.929 1_655 S
O454 Co429 2.351 . S
O454 C457 1.244 . S
O455 Co429 2.155 1_655 S
O455 C457 1.240 1_655 S
O456 Co429 2.096 1_655 S
O456 C437 1.247 . S
C457 O454 1.244 . S
C457 O455 1.240 1_455 S
H458 C432 0.931 . S
H459 C441 0.931 . S
H460 C445 0.929 . S
H461 C447 0.930 . S
Co462 N466 2.148 . S
Co462 N472 2.128 . S
Co462 N482 2.194 . S
Co462 O487 2.351 . S
Co462 O488 2.155 . S
Co462 O489 2.096 . S
C463 N466 1.301 . S
C463 N467 1.328 . S
C463 H468 0.930 . S
C464 C465 1.333 . S
C464 N466 1.317 . S
C464 H469 0.930 . S
C465 C464 1.333 . S
C465 N467 1.350 . S
C465 H491 0.931 . S
N466 Co462 2.148 . S
N466 C463 1.301 . S
N466 C464 1.317 . S
N467 C463 1.328 . S
N467 C465 1.350 . S
H468 C463 0.930 . S
H469 C464 0.930 . S
C470 O471 1.224 . S
C470 O489 1.247 . S
O471 C470 1.224 . S
N472 Co462 2.128 . S
N472 C473 1.355 . S
N472 C475 1.311 . S
C473 N472 1.355 . S
C473 C474 1.363 . S
C473 H485 0.929 . S
C474 C473 1.363 . S
C474 N476 1.375 . S
C474 H492 0.931 . S
C475 N472 1.311 . S
C475 N476 1.347 . S
C475 H486 0.929 . S
N476 C474 1.375 . S
N476 C475 1.347 . S
C477 C480 1.365 . S
C477 N482 1.328 . S
C477 H483 0.929 . S
C478 C479 1.362 . S
C478 C481 1.378 . S
C478 H493 0.929 . S
C479 C478 1.362 . S
C479 C480 1.366 . S
C480 C477 1.365 . S
C480 C479 1.366 . S
C480 H494 0.930 . S
C481 C478 1.378 . S
C481 N482 1.315 . S
C481 H484 0.930 . S
N482 Co462 2.194 . S
N482 C477 1.328 . S
N482 C481 1.315 . S
H483 C477 0.929 . S
H484 C481 0.930 . S
H485 C473 0.929 . S
H486 C475 0.929 . S
O487 Co462 2.351 . S
O487 C490 1.244 . S
O488 Co462 2.155 . S
O488 C490 1.240 . S
O489 Co462 2.096 . S
O489 C470 1.247 . S
C490 O487 1.244 . S
C490 O488 1.240 . S
H491 C465 0.931 . S
H492 C474 0.931 . S
H493 C478 0.929 . S
H494 C480 0.930 . S
Co495 N499 2.148 . S
Co495 N505 2.128 . S
Co495 N515 2.194 . S
Co495 O520 2.351 . S
Co495 O521 2.155 1_455 S
Co495 O522 2.096 1_455 S
C496 N499 1.301 . S
C496 N500 1.328 . S
C496 H501 0.930 . S
C497 C498 1.333 . S
C497 N499 1.317 1_655 S
C497 H502 0.930 . S
C498 C497 1.333 . S
C498 N500 1.350 1_655 S
C498 H524 0.931 . S
N499 Co495 2.148 . S
N499 C496 1.301 . S
N499 C497 1.317 1_455 S
N500 C496 1.328 . S
N500 C498 1.350 1_455 S
H501 C496 0.930 . S
H502 C497 0.930 . S
C503 O504 1.224 . S
C503 O522 1.247 . S
O504 C503 1.224 . S
N505 Co495 2.128 . S
N505 C506 1.355 . S
N505 C508 1.311 . S
C506 N505 1.355 . S
C506 C507 1.363 . S
C506 H518 0.929 . S
C507 C506 1.363 . S
C507 N509 1.375 . S
C507 H525 0.931 . S
C508 N505 1.311 . S
C508 N509 1.347 . S
C508 H519 0.929 1_455 S
N509 C507 1.375 . S
N509 C508 1.347 . S
C510 C513 1.365 . S
C510 N515 1.328 . S
C510 H516 0.929 . S
C511 C512 1.362 . S
C511 C514 1.378 . S
C511 H526 0.929 . S
C512 C511 1.362 . S
C512 C513 1.366 . S
C513 C510 1.365 . S
C513 C512 1.366 . S
C513 H527 0.930 . S
C514 C511 1.378 . S
C514 N515 1.315 . S
C514 H517 0.930 . S
N515 Co495 2.194 . S
N515 C510 1.328 . S
N515 C514 1.315 . S
H516 C510 0.929 . S
H517 C514 0.930 . S
H518 C506 0.929 . S
H519 C508 0.929 1_655 S
O520 Co495 2.351 . S
O520 C523 1.244 . S
O521 Co495 2.155 1_655 S
O521 C523 1.240 1_655 S
O522 Co495 2.096 1_655 S
O522 C503 1.247 . S
C523 O520 1.244 . S
C523 O521 1.240 1_455 S
H524 C498 0.931 . S
H525 C507 0.931 . S
H526 C511 0.929 . S
H527 C513 0.930 . S
H528 C534 0.930 . S
H529 C538 0.930 . S
H530 C543 0.918 1_655 S
H531 C541 0.929 . S
H532 C536 0.943 . S
H533 C542 0.929 . S
C534 H528 0.930 . S
C534 C535 1.367 . S
C534 C542 1.378 . S
C535 C534 1.367 . S
C535 C543 1.446 . S
C536 H532 0.943 . S
C536 C538 1.379 . S
C536 C540 1.335 1_655 S
C537 C540 1.463 . S
C537 C542 1.350 . S
C537 N545 1.432 . S
C538 H529 0.930 . S
C538 C536 1.379 . S
C538 C539 1.367 1_655 S
C539 C538 1.367 1_455 S
C539 C541 1.433 . S
C540 C536 1.335 1_455 S
C540 C537 1.463 . S
C540 N544 1.427 . S
C541 H531 0.929 . S
C541 C539 1.433 . S
C541 N544 1.384 . S
C542 H533 0.929 . S
C542 C534 1.378 . S
C542 C537 1.350 . S
C543 H530 0.918 1_455 S
C543 C535 1.446 . S
C543 N545 1.384 . S
N544 C540 1.427 . S
N544 C541 1.384 . S
N545 C537 1.432 . S
N545 C543 1.384 . S
H546 C552 0.930 . S
H547 C556 0.930 . S
H548 C561 0.929 . S
H549 C559 0.929 . S
H550 C554 0.929 . S
H551 C560 0.929 . S
C552 H546 0.930 . S
C552 C553 1.367 . S
C552 C560 1.378 . S
C553 C552 1.367 . S
C553 C561 1.433 . S
C554 H550 0.929 . S
C554 C556 1.378 . S
C554 C558 1.352 . S
C555 C558 1.458 1_455 S
C555 C560 1.350 . S
C555 N563 1.427 . S
C556 H547 0.930 . S
C556 C554 1.378 . S
C556 C557 1.367 . S
C557 C556 1.367 . S
C557 C559 1.433 . S
C558 C554 1.352 . S
C558 C555 1.458 1_655 S
C558 N562 1.430 . S
C559 H549 0.929 . S
C559 C557 1.433 . S
C559 N562 1.384 . S
C560 H551 0.929 . S
C560 C552 1.378 . S
C560 C555 1.350 . S
C561 H548 0.929 . S
C561 C553 1.433 . S
C561 N563 1.384 . S
N562 C558 1.430 . S
N562 C559 1.384 . S
N563 C555 1.427 . S
N563 C561 1.384 . S
H564 C570 0.930 . S
H565 C574 0.930 . S
H566 C579 0.929 . S
H567 C577 0.929 . S
H568 C572 0.929 . S
H569 C578 0.929 . S
C570 H564 0.930 . S
C570 C571 1.367 . S
C570 C578 1.378 . S
C571 C570 1.367 . S
C571 C579 1.433 . S
C572 H568 0.929 . S
C572 C574 1.378 . S
C572 C576 1.350 . S
C573 C576 1.463 . S
C573 C578 1.350 . S
C573 N581 1.427 . S
C574 H565 0.930 . S
C574 C572 1.378 . S
C574 C575 1.367 . S
C575 C574 1.367 . S
C575 C577 1.433 . S
C576 C572 1.350 . S
C576 C573 1.463 . S
C576 N580 1.427 . S
C577 H567 0.929 . S
C577 C575 1.433 . S
C577 N580 1.384 . S
C578 H569 0.929 . S
C578 C570 1.378 . S
C578 C573 1.350 . S
C579 H566 0.929 . S
C579 C571 1.433 . S
C579 N581 1.384 . S
N580 C576 1.427 . S
N580 C577 1.384 . S
N581 C573 1.427 . S
N581 C579 1.384 . S
H582 C588 0.930 . S
H583 C592 0.930 . S
H584 C597 0.929 . S
H585 C595 0.929 . S
H586 C590 0.929 . S
H587 C596 0.929 . S
C588 H582 0.930 . S
C588 C589 1.367 . S
C588 C596 1.378 . S
C589 C588 1.367 . S
C589 C597 1.433 . S
C590 H586 0.929 . S
C590 C592 1.378 . S
C590 C594 1.350 . S
C591 C594 1.463 . S
C591 C596 1.350 . S
C591 N599 1.427 . S
C592 H583 0.930 . S
C592 C590 1.378 . S
C592 C593 1.367 . S
C593 C592 1.367 . S
C593 C595 1.433 . S
C594 C590 1.350 . S
C594 C591 1.463 . S
C594 N598 1.427 . S
C595 H585 0.929 . S
C595 C593 1.433 . S
C595 N598 1.384 . S
C596 H587 0.929 . S
C596 C588 1.378 . S
C596 C591 1.350 . S
C597 H584 0.929 . S
C597 C589 1.433 . S
C597 N599 1.384 . S
N598 C594 1.427 . S
N598 C595 1.384 . S
N599 C591 1.427 . S
N599 C597 1.384 . S
H600 C606 0.930 . S
H601 C610 0.930 . S
H602 C615 0.933 . S
H603 C613 0.929 . S
H604 C608 0.929 . S
H605 C614 0.929 . S
C606 H600 0.930 . S
C606 C607 1.367 . S
C606 C614 1.378 . S
C607 C606 1.367 . S
C607 C615 1.429 1_455 S
C608 H604 0.929 . S
C608 C610 1.378 . S
C608 C612 1.350 1_655 S
C609 C612 1.463 . S
C609 C614 1.350 . S
C609 N617 1.415 1_455 S
C610 H601 0.930 . S
C610 C608 1.378 . S
C610 C611 1.367 1_655 S
C611 C610 1.367 1_455 S
C611 C613 1.433 . S
C612 C608 1.350 1_455 S
C612 C609 1.463 . S
C612 N616 1.427 . S
C613 H603 0.929 . S
C613 C611 1.433 . S
C613 N616 1.384 . S
C614 H605 0.929 . S
C614 C606 1.378 . S
C614 C609 1.350 . S
C615 H602 0.933 . S
C615 C607 1.429 1_655 S
C615 N617 1.383 . S
N616 C612 1.427 . S
N616 C613 1.384 . S
N617 C609 1.415 1_655 S
N617 C615 1.383 . S
H618 C624 0.930 . S
H619 C628 0.930 . S
H620 C633 0.929 . S
H621 C631 0.929 . S
H622 C626 0.929 . S
H623 C632 0.929 . S
C624 H618 0.930 . S
C624 C625 1.367 . S
C624 C632 1.378 . S
C625 C624 1.367 . S
C625 C633 1.433 . S
C626 H622 0.929 . S
C626 C628 1.378 . S
C626 C630 1.350 . S
C627 C630 1.463 . S
C627 C632 1.350 . S
C627 N635 1.427 . S
C628 H619 0.930 . S
C628 C626 1.378 . S
C628 C629 1.367 . S
C629 C628 1.367 . S
C629 C631 1.433 . S
C630 C626 1.350 . S
C630 C627 1.463 . S
C630 N634 1.427 . S
C631 H621 0.929 . S
C631 C629 1.433 . S
C631 N634 1.384 . S
C632 H623 0.929 . S
C632 C624 1.378 . S
C632 C627 1.350 . S
C633 H620 0.929 . S
C633 C625 1.433 . S
C633 N635 1.384 . S
N634 C630 1.427 . S
N634 C631 1.384 . S
N635 C627 1.427 . S
N635 C633 1.384 . S
H636 C642 0.930 . S
H637 C646 0.930 . S
H638 C651 0.929 . S
H639 C649 0.929 . S
H640 C644 0.929 . S
H641 C650 0.929 . S
C642 H636 0.930 . S
C642 C643 1.367 . S
C642 C650 1.378 . S
C643 C642 1.367 . S
C643 C651 1.433 . S
C644 H640 0.929 . S
C644 C646 1.378 . S
C644 C648 1.350 . S
C645 C648 1.463 . S
C645 C650 1.350 . S
C645 N653 1.427 . S
C646 H637 0.930 . S
C646 C644 1.378 . S
C646 C647 1.367 . S
C647 C646 1.367 . S
C647 C649 1.433 . S
C648 C644 1.350 . S
C648 C645 1.463 . S
C648 N652 1.427 . S
C649 H639 0.929 . S
C649 C647 1.433 . S
C649 N652 1.384 . S
C650 H641 0.929 . S
C650 C642 1.378 . S
C650 C645 1.350 . S
C651 H638 0.929 . S
C651 C643 1.433 . S
C651 N653 1.384 . S
N652 C648 1.427 . S
N652 C649 1.384 . S
N653 C645 1.427 . S
N653 C651 1.384 . S
H654 C660 0.930 . S
H655 C664 0.930 . S
H656 C669 0.929 . S
H657 C667 0.929 . S
H658 C662 0.929 . S
H659 C668 0.929 . S
C660 H654 0.930 . S
C660 C661 1.367 . S
C660 C668 1.378 . S
C661 C660 1.367 . S
C661 C669 1.433 . S
C662 H658 0.929 . S
C662 C664 1.378 . S
C662 C666 1.350 . S
C663 C666 1.456 1_655 S
C663 C668 1.353 . S
C663 N671 1.430 . S
C664 H655 0.930 . S
C664 C662 1.378 . S
C664 C665 1.367 . S
C665 C664 1.367 . S
C665 C667 1.433 . S
C666 C662 1.350 . S
C666 C663 1.456 1_455 S
C666 N670 1.427 . S
C667 H657 0.929 . S
C667 C665 1.433 . S
C667 N670 1.384 . S
C668 H659 0.929 . S
C668 C660 1.378 . S
C668 C663 1.353 . S
C669 H656 0.929 . S
C669 C661 1.433 . S
C669 N671 1.384 . S
N670 C666 1.427 . S
N670 C667 1.384 . S
N671 C663 1.430 . S
N671 C669 1.384 . S
H672 C678 0.930 . S
H673 C682 0.930 . S
H674 C687 0.929 . S
H675 C685 0.929 1_565 S
H676 C680 0.929 . S
H677 C686 0.929 . S
C678 H672 0.930 . S
C678 C679 1.367 1_655 S
C678 C686 1.378 . S
C679 C678 1.367 1_455 S
C679 C687 1.433 . S
C680 H676 0.929 . S
C680 C682 1.378 . S
C680 C684 1.350 . S
C681 C684 1.463 1_554 S
C681 C686 1.350 1_455 S
C681 N689 1.427 . S
C682 H673 0.930 . S
C682 C680 1.378 . S
C682 C683 1.367 . S
C683 C682 1.367 . S
C683 C685 1.433 1_455 S
C684 C680 1.350 . S
C684 C681 1.463 1_556 S
C684 N688 1.427 1_455 S
C685 H675 0.929 1_545 S
C685 C683 1.433 1_655 S
C685 N688 1.384 . S
C686 H677 0.929 . S
C686 C678 1.378 . S
C686 C681 1.350 1_655 S
C687 H674 0.929 . S
C687 C679 1.433 . S
C687 N689 1.384 . S
N688 C684 1.427 1_655 S
N688 C685 1.384 . S
N689 C681 1.427 . S
N689 C687 1.384 . S
H690 C696 0.930 . S
H691 C700 0.930 . S
H692 C705 0.929 . S
H693 C703 0.929 . S
H694 C698 0.929 . S
H695 C704 0.929 . S
C696 H690 0.930 . S
C696 C697 1.367 . S
C696 C704 1.378 . S
C697 C696 1.367 . S
C697 C705 1.433 . S
C698 H694 0.929 . S
C698 C700 1.378 . S
C698 C702 1.350 . S
C699 C702 1.463 . S
C699 C704 1.350 . S
C699 N707 1.427 . S
C700 H691 0.930 . S
C700 C698 1.378 . S
C700 C701 1.367 . S
C701 C700 1.367 . S
C701 C703 1.433 . S
C702 C698 1.350 . S
C702 C699 1.463 . S
C702 N706 1.427 . S
C703 H693 0.929 . S
C703 C701 1.433 . S
C703 N706 1.384 . S
C704 H695 0.929 . S
C704 C696 1.378 . S
C704 C699 1.350 . S
C705 H692 0.929 . S
C705 C697 1.433 . S
C705 N707 1.384 . S
N706 C702 1.427 . S
N706 C703 1.384 . S
N707 C699 1.427 . S
N707 C705 1.384 . S
H708 C714 0.930 . S
H709 C718 0.930 . S
H710 C723 0.929 . S
H711 C721 0.929 . S
H712 C716 0.929 . S
H713 C722 0.929 . S
C714 H708 0.930 . S
C714 C715 1.367 . S
C714 C722 1.378 . S
C715 C714 1.367 . S
C715 C723 1.433 . S
C716 H712 0.929 . S
C716 C718 1.378 . S
C716 C720 1.350 . S
C717 C720 1.463 . S
C717 C722 1.350 . S
C717 N725 1.427 . S
C718 H709 0.930 . S
C718 C716 1.378 . S
C718 C719 1.367 . S
C719 C718 1.367 . S
C719 C721 1.433 . S
C720 C716 1.350 . S
C720 C717 1.463 . S
C720 N724 1.427 . S
C721 H711 0.929 . S
C721 C719 1.433 . S
C721 N724 1.384 . S
C722 H713 0.929 . S
C722 C714 1.378 . S
C722 C717 1.350 . S
C723 H710 0.929 . S
C723 C715 1.433 . S
C723 N725 1.384 . S
N724 C720 1.427 . S
N724 C721 1.384 . S
N725 C717 1.427 . S
N725 C723 1.384 . S
H726 C732 0.930 . S
H727 C736 0.930 . S
H728 C741 0.929 . S
H729 C739 0.929 . S
H730 C734 0.929 . S
H731 C740 0.929 . S
C732 H726 0.930 . S
C732 C733 1.367 . S
C732 C740 1.378 . S
C733 C732 1.367 . S
C733 C741 1.433 . S
C734 H730 0.929 . S
C734 C736 1.378 . S
C734 C738 1.350 . S
C735 C738 1.463 . S
C735 C740 1.350 . S
C735 N743 1.427 . S
C736 H727 0.930 . S
C736 C734 1.378 . S
C736 C737 1.367 . S
C737 C736 1.367 . S
C737 C739 1.433 . S
C738 C734 1.350 . S
C738 C735 1.463 . S
C738 N742 1.427 . S
C739 H729 0.929 . S
C739 C737 1.433 . S
C739 N742 1.384 . S
C740 H731 0.929 . S
C740 C732 1.378 . S
C740 C735 1.350 . S
C741 H728 0.929 . S
C741 C733 1.433 . S
C741 N743 1.384 . S
N742 C738 1.427 . S
N742 C739 1.384 . S
N743 C735 1.427 . S
N743 C741 1.384 . S
H744 C750 0.930 . S
H745 C754 0.930 . S
H746 C759 0.929 . S
H747 C757 0.929 . S
H748 C752 0.929 . S
H749 C758 0.929 . S
C750 H744 0.930 . S
C750 C751 1.367 . S
C750 C758 1.378 . S
C751 C750 1.367 . S
C751 C759 1.433 . S
C752 H748 0.929 . S
C752 C754 1.378 . S
C752 C756 1.350 . S
C753 C756 1.463 . S
C753 C758 1.350 . S
C753 N761 1.427 . S
C754 H745 0.930 . S
C754 C752 1.378 . S
C754 C755 1.367 . S
C755 C754 1.367 . S
C755 C757 1.433 . S
C756 C752 1.350 . S
C756 C753 1.463 . S
C756 N760 1.427 . S
C757 H747 0.929 . S
C757 C755 1.433 . S
C757 N760 1.384 . S
C758 H749 0.929 . S
C758 C750 1.378 . S
C758 C753 1.350 . S
C759 H746 0.929 . S
C759 C751 1.433 . S
C759 N761 1.384 . S
N760 C756 1.427 . S
N760 C757 1.384 . S
N761 C753 1.427 . S
N761 C759 1.384 . S
H762 C768 0.930 . S
H763 C772 0.930 . S
H764 C777 0.929 . S
H765 C775 0.929 . S
H766 C770 0.929 . S
H767 C776 0.929 . S
C768 H762 0.930 . S
C768 C769 1.367 . S
C768 C776 1.378 . S
C769 C768 1.367 . S
C769 C777 1.433 . S
C770 H766 0.929 . S
C770 C772 1.378 . S
C770 C774 1.350 . S
C771 C774 1.463 . S
C771 C776 1.350 . S
C771 N779 1.427 . S
C772 H763 0.930 . S
C772 C770 1.378 . S
C772 C773 1.367 . S
C773 C772 1.367 . S
C773 C775 1.433 . S
C774 C770 1.350 . S
C774 C771 1.463 . S
C774 N778 1.427 . S
C775 H765 0.929 . S
C775 C773 1.433 . S
C775 N778 1.384 . S
C776 H767 0.929 . S
C776 C768 1.378 . S
C776 C771 1.350 . S
C777 H764 0.929 . S
C777 C769 1.433 . S
C777 N779 1.384 . S
N778 C774 1.427 . S
N778 C775 1.384 . S
N779 C771 1.427 . S
N779 C777 1.384 . S
H780 C786 0.930 . S
H781 C790 0.930 . S
H782 C795 0.929 . S
H783 C793 0.929 . S
H784 C788 0.929 . S
H785 C794 0.929 . S
C786 H780 0.930 . S
C786 C787 1.367 . S
C786 C794 1.378 . S
C787 C786 1.367 . S
C787 C795 1.433 . S
C788 H784 0.929 . S
C788 C790 1.378 . S
C788 C792 1.350 . S
C789 C792 1.463 . S
C789 C794 1.350 . S
C789 N797 1.427 . S
C790 H781 0.930 . S
C790 C788 1.378 . S
C790 C791 1.367 . S
C791 C790 1.367 . S
C791 C793 1.433 . S
C792 C788 1.350 . S
C792 C789 1.463 . S
C792 N796 1.427 . S
C793 H783 0.929 . S
C793 C791 1.433 . S
C793 N796 1.384 . S
C794 H785 0.929 . S
C794 C786 1.378 . S
C794 C789 1.350 . S
C795 H782 0.929 . S
C795 C787 1.433 . S
C795 N797 1.384 . S
N796 C792 1.427 . S
N796 C793 1.384 . S
N797 C789 1.427 . S
N797 C795 1.384 . S
H798 C804 0.930 . S
H799 C808 0.930 1_655 S
H800 C813 0.911 1_655 S
H801 C811 0.929 . S
H802 C806 0.929 1_655 S
H803 C812 0.929 . S
C804 H798 0.930 . S
C804 C805 1.367 . S
C804 C812 1.378 . S
C805 C804 1.367 . S
C805 C813 1.453 . S
C806 H802 0.929 1_455 S
C806 C808 1.378 . S
C806 C810 1.350 . S
C807 C810 1.463 1_556 S
C807 C812 1.350 . S
C807 N815 1.427 . S
C808 H799 0.930 1_455 S
C808 C806 1.378 . S
C808 C809 1.367 . S
C809 C808 1.367 . S
C809 C811 1.433 . S
C810 C806 1.350 . S
C810 C807 1.463 1_554 S
C810 N814 1.427 . S
C811 H801 0.929 . S
C811 C809 1.433 . S
C811 N814 1.384 . S
C812 H803 0.929 . S
C812 C804 1.378 . S
C812 C807 1.350 . S
C813 H800 0.911 1_455 S
C813 C805 1.453 . S
C813 N815 1.384 . S
N814 C810 1.427 . S
N814 C811 1.384 . S
N815 C807 1.427 . S
N815 C813 1.384 . S
H816 C822 0.930 . S
H817 C826 0.930 . S
H818 C831 0.929 . S
H819 C829 0.929 . S
H820 C824 0.929 . S
H821 C830 0.929 . S
C822 H816 0.930 . S
C822 C823 1.367 . S
C822 C830 1.378 . S
C823 C822 1.367 . S
C823 C831 1.433 . S
C824 H820 0.929 . S
C824 C826 1.378 1_565 S
C824 C828 1.350 . S
C825 C828 1.463 . S
C825 C830 1.350 . S
C825 N833 1.427 . S
C826 H817 0.930 . S
C826 C824 1.378 1_545 S
C826 C827 1.367 1_545 S
C827 C826 1.367 1_565 S
C827 C829 1.433 . S
C828 C824 1.350 . S
C828 C825 1.463 . S
C828 N832 1.427 . S
C829 H819 0.929 . S
C829 C827 1.433 . S
C829 N832 1.384 . S
C830 H821 0.929 . S
C830 C822 1.378 . S
C830 C825 1.350 . S
C831 H818 0.929 . S
C831 C823 1.433 . S
C831 N833 1.384 . S
N832 C828 1.427 . S
N832 C829 1.384 . S
N833 C825 1.427 . S
N833 C831 1.384 . S
H834 C840 0.930 . S
H835 C844 0.930 . S
H836 C849 0.929 . S
H837 C847 0.929 . S
H838 C842 0.929 1_545 S
H839 C848 0.929 . S
C840 H834 0.930 . S
C840 C841 1.367 . S
C840 C848 1.378 . S
C841 C840 1.367 . S
C841 C849 1.433 . S
C842 H838 0.929 1_565 S
C842 C844 1.378 1_565 S
C842 C846 1.350 . S
C843 C846 1.463 . S
C843 C848 1.350 . S
C843 N851 1.427 . S
C844 H835 0.930 . S
C844 C842 1.378 1_545 S
C844 C845 1.367 1_545 S
C845 C844 1.367 1_565 S
C845 C847 1.433 . S
C846 C842 1.350 . S
C846 C843 1.463 . S
C846 N850 1.427 . S
C847 H837 0.929 . S
C847 C845 1.433 . S
C847 N850 1.384 . S
C848 H839 0.929 . S
C848 C840 1.378 . S
C848 C843 1.350 . S
C849 H836 0.929 . S
C849 C841 1.433 . S
C849 N851 1.384 . S
N850 C846 1.427 . S
N850 C847 1.384 . S
N851 C843 1.427 . S
N851 C849 1.384 . S
H852 C858 0.930 . S
H853 C862 0.930 . S
H854 C867 0.929 . S
H855 C865 0.929 . S
H856 C860 0.929 . S
H857 C866 0.929 . S
C858 H852 0.930 . S
C858 C859 1.367 . S
C858 C866 1.378 . S
C859 C858 1.367 . S
C859 C867 1.433 . S
C860 H856 0.929 . S
C860 C862 1.378 . S
C860 C864 1.350 . S
C861 C864 1.463 . S
C861 C866 1.350 . S
C861 N869 1.427 . S
C862 H853 0.930 . S
C862 C860 1.378 . S
C862 C863 1.367 . S
C863 C862 1.367 . S
C863 C865 1.433 . S
C864 C860 1.350 . S
C864 C861 1.463 . S
C864 N868 1.427 . S
C865 H855 0.929 . S
C865 C863 1.433 . S
C865 N868 1.384 . S
C866 H857 0.929 . S
C866 C858 1.378 . S
C866 C861 1.350 . S
C867 H854 0.929 . S
C867 C859 1.433 . S
C867 N869 1.384 . S
N868 C864 1.427 . S
N868 C865 1.384 . S
N869 C861 1.427 . S
N869 C867 1.384 . S
H870 C876 0.930 . S
H871 C880 0.930 . S
H872 C885 0.929 . S
H873 C883 0.929 . S
H874 C878 0.929 . S
H875 C884 0.929 . S
C876 H870 0.930 . S
C876 C877 1.367 . S
C876 C884 1.378 . S
C877 C876 1.367 . S
C877 C885 1.433 . S
C878 H874 0.929 . S
C878 C880 1.378 . S
C878 C882 1.350 . S
C879 C882 1.463 . S
C879 C884 1.350 . S
C879 N887 1.427 . S
C880 H871 0.930 . S
C880 C878 1.378 . S
C880 C881 1.367 . S
C881 C880 1.367 . S
C881 C883 1.433 . S
C882 C878 1.350 . S
C882 C879 1.463 . S
C882 N886 1.427 . S
C883 H873 0.929 . S
C883 C881 1.433 . S
C883 N886 1.384 . S
C884 H875 0.929 . S
C884 C876 1.378 . S
C884 C879 1.350 . S
C885 H872 0.929 . S
C885 C877 1.433 . S
C885 N887 1.384 . S
N886 C882 1.427 . S
N886 C883 1.384 . S
N887 C879 1.427 . S
N887 C885 1.384 . S
H888 C894 0.930 . S
H889 C898 0.930 . S
H890 C903 0.929 . S
H891 C901 0.929 . S
H892 C896 0.929 . S
H893 C902 0.929 . S
C894 H888 0.930 . S
C894 C895 1.367 . S
C894 C902 1.378 . S
C895 C894 1.367 . S
C895 C903 1.433 . S
C896 H892 0.929 . S
C896 C898 1.378 . S
C896 C900 1.350 . S
C897 C900 1.463 . S
C897 C902 1.350 . S
C897 N905 1.427 . S
C898 H889 0.930 . S
C898 C896 1.378 . S
C898 C899 1.367 . S
C899 C898 1.367 . S
C899 C901 1.433 . S
C900 C896 1.350 . S
C900 C897 1.463 . S
C900 N904 1.427 . S
C901 H891 0.929 . S
C901 C899 1.433 . S
C901 N904 1.384 . S
C902 H893 0.929 . S
C902 C894 1.378 . S
C902 C897 1.350 . S
C903 H890 0.929 . S
C903 C895 1.433 . S
C903 N905 1.384 . S
N904 C900 1.427 . S
N904 C901 1.384 . S
N905 C897 1.427 . S
N905 C903 1.384 . S
H906 C912 0.930 . S
H907 C916 0.930 . S
H908 C921 0.929 . S
H909 C919 0.929 . S
H910 C914 0.929 . S
H911 C920 0.929 . S
C912 H906 0.930 . S
C912 C913 1.367 . S
C912 C920 1.378 . S
C913 C912 1.367 . S
C913 C921 1.433 . S
C914 H910 0.929 . S
C914 C916 1.378 . S
C914 C918 1.350 . S
C915 C918 1.463 . S
C915 C920 1.350 . S
C915 N923 1.427 . S
C916 H907 0.930 . S
C916 C914 1.378 . S
C916 C917 1.367 . S
C917 C916 1.367 . S
C917 C919 1.433 . S
C918 C914 1.350 . S
C918 C915 1.463 . S
C918 N922 1.427 . S
C919 H909 0.929 . S
C919 C917 1.433 . S
C919 N922 1.384 . S
C920 H911 0.929 . S
C920 C912 1.378 . S
C920 C915 1.350 . S
C921 H908 0.929 . S
C921 C913 1.433 . S
C921 N923 1.384 . S
N922 C918 1.427 . S
N922 C919 1.384 . S
N923 C915 1.427 . S
N923 C921 1.384 . S
H924 C930 0.930 . S
H925 C934 0.930 . S
H926 C939 0.929 . S
H927 C937 0.929 . S
H928 C932 0.929 . S
H929 C938 0.929 . S
C930 H924 0.930 . S
C930 C931 1.367 . S
C930 C938 1.378 . S
C931 C930 1.367 . S
C931 C939 1.433 . S
C932 H928 0.929 . S
C932 C934 1.378 1_565 S
C932 C936 1.350 . S
C933 C936 1.463 . S
C933 C938 1.350 . S
C933 N941 1.427 . S
C934 H925 0.930 . S
C934 C932 1.378 1_545 S
C934 C935 1.367 . S
C935 C934 1.367 . S
C935 C937 1.433 . S
C936 C932 1.350 . S
C936 C933 1.463 . S
C936 N940 1.427 1_565 S
C937 H927 0.929 . S
C937 C935 1.433 . S
C937 N940 1.384 . S
C938 H929 0.929 . S
C938 C930 1.378 . S
C938 C933 1.350 . S
C939 H926 0.929 . S
C939 C931 1.433 . S
C939 N941 1.384 . S
N940 C936 1.427 1_545 S
N940 C937 1.384 . S
N941 C933 1.427 . S
N941 C939 1.384 . S
H942 C948 0.930 . S
H943 C952 0.930 . S
H944 C957 0.929 . S
H945 C955 0.929 . S
H946 C950 0.929 . S
H947 C956 0.929 . S
C948 H942 0.930 . S
C948 C949 1.367 . S
C948 C956 1.378 . S
C949 C948 1.367 . S
C949 C957 1.433 . S
C950 H946 0.929 . S
C950 C952 1.378 . S
C950 C954 1.350 1_545 S
C951 C954 1.463 . S
C951 C956 1.350 . S
C951 N959 1.427 . S
C952 H943 0.930 . S
C952 C950 1.378 . S
C952 C953 1.367 . S
C953 C952 1.367 . S
C953 C955 1.433 1_545 S
C954 C950 1.350 1_565 S
C954 C951 1.463 . S
C954 N958 1.427 . S
C955 H945 0.929 . S
C955 C953 1.433 1_565 S
C955 N958 1.384 . S
C956 H947 0.929 . S
C956 C948 1.378 . S
C956 C951 1.350 . S
C957 H944 0.929 . S
C957 C949 1.433 . S
C957 N959 1.384 . S
N958 C954 1.427 . S
N958 C955 1.384 . S
N959 C951 1.427 . S
N959 C957 1.384 . S
H960 C966 0.930 . S
H961 C970 0.930 . S
H962 C975 0.929 . S
H963 C973 0.929 . S
H964 C968 0.929 . S
H965 C974 0.929 . S
C966 H960 0.930 . S
C966 C967 1.367 . S
C966 C974 1.378 . S
C967 C966 1.367 . S
C967 C975 1.433 . S
C968 H964 0.929 . S
C968 C970 1.378 . S
C968 C972 1.350 . S
C969 C972 1.463 . S
C969 C974 1.350 . S
C969 N977 1.427 . S
C970 H961 0.930 . S
C970 C968 1.378 . S
C970 C971 1.367 . S
C971 C970 1.367 . S
C971 C973 1.433 . S
C972 C968 1.350 . S
C972 C969 1.463 . S
C972 N976 1.427 . S
C973 H963 0.929 . S
C973 C971 1.433 . S
C973 N976 1.384 . S
C974 H965 0.929 . S
C974 C966 1.378 . S
C974 C969 1.350 . S
C975 H962 0.929 . S
C975 C967 1.433 . S
C975 N977 1.384 . S
N976 C972 1.427 . S
N976 C973 1.384 . S
N977 C969 1.427 . S
N977 C975 1.384 . S
H978 C984 0.930 . S
H979 C988 0.930 . S
H980 C993 0.929 . S
H981 C991 0.929 . S
H982 C986 0.929 . S
H983 C992 0.929 . S
C984 H978 0.930 . S
C984 C985 1.367 . S
C984 C992 1.378 . S
C985 C984 1.367 . S
C985 C993 1.433 . S
C986 H982 0.929 . S
C986 C988 1.378 . S
C986 C990 1.350 . S
C987 C990 1.463 . S
C987 C992 1.350 . S
C987 N995 1.427 . S
C988 H979 0.930 . S
C988 C986 1.378 . S
C988 C989 1.367 . S
C989 C988 1.367 . S
C989 C991 1.433 . S
C990 C986 1.350 . S
C990 C987 1.463 . S
C990 N994 1.427 . S
C991 H981 0.929 . S
C991 C989 1.433 . S
C991 N994 1.384 . S
C992 H983 0.929 . S
C992 C984 1.378 . S
C992 C987 1.350 . S
C993 H980 0.929 . S
C993 C985 1.433 . S
C993 N995 1.384 . S
N994 C990 1.427 . S
N994 C991 1.384 . S
N995 C987 1.427 . S
N995 C993 1.384 . S
H996 C1002 0.930 . S
H997 C1006 0.930 . S
H998 C1011 0.929 . S
H999 C1009 0.929 . S
H1000 C1004 0.929 . S
H1001 C1010 0.929 . S
C1002 H996 0.930 . S
C1002 C1003 1.367 . S
C1002 C1010 1.378 . S
C1003 C1002 1.367 . S
C1003 C1011 1.433 . S
C1004 H1000 0.929 . S
C1004 C1006 1.378 . S
C1004 C1008 1.350 . S
C1005 C1008 1.463 . S
C1005 C1010 1.350 . S
C1005 N1013 1.427 . S
C1006 H997 0.930 . S
C1006 C1004 1.378 . S
C1006 C1007 1.367 . S
C1007 C1006 1.367 . S
C1007 C1009 1.433 . S
C1008 C1004 1.350 . S
C1008 C1005 1.463 . S
C1008 N1012 1.427 . S
C1009 H999 0.929 . S
C1009 C1007 1.433 . S
C1009 N1012 1.384 . S
C1010 H1001 0.929 . S
C1010 C1002 1.378 . S
C1010 C1005 1.350 . S
C1011 H998 0.929 . S
C1011 C1003 1.433 . S
C1011 N1013 1.384 . S
N1012 C1008 1.427 . S
N1012 C1009 1.384 . S
N1013 C1005 1.427 . S
N1013 C1011 1.384 . S
H1014 C1020 0.930 . S
H1015 C1024 0.930 . S
H1016 C1029 0.929 . S
H1017 C1027 0.929 . S
H1018 C1022 0.929 . S
H1019 C1028 0.929 . S
C1020 H1014 0.930 . S
C1020 C1021 1.367 . S
C1020 C1028 1.378 . S
C1021 C1020 1.367 . S
C1021 C1029 1.433 . S
C1022 H1018 0.929 . S
C1022 C1024 1.378 . S
C1022 C1026 1.350 . S
C1023 C1026 1.463 . S
C1023 C1028 1.350 . S
C1023 N1031 1.427 . S
C1024 H1015 0.930 . S
C1024 C1022 1.378 . S
C1024 C1025 1.367 . S
C1025 C1024 1.367 . S
C1025 C1027 1.433 . S
C1026 C1022 1.350 . S
C1026 C1023 1.463 . S
C1026 N1030 1.427 . S
C1027 H1017 0.929 . S
C1027 C1025 1.433 . S
C1027 N1030 1.384 . S
C1028 H1019 0.929 . S
C1028 C1020 1.378 . S
C1028 C1023 1.350 . S
C1029 H1016 0.929 . S
C1029 C1021 1.433 . S
C1029 N1031 1.384 . S
N1030 C1026 1.427 . S
N1030 C1027 1.384 . S
N1031 C1023 1.427 . S
N1031 C1029 1.384 . S
H1032 C1038 0.930 . S
H1033 C1042 0.930 . S
H1034 C1047 0.929 . S
H1035 C1045 0.929 . S
H1036 C1040 0.929 . S
H1037 C1046 0.929 . S
C1038 H1032 0.930 . S
C1038 C1039 1.367 . S
C1038 C1046 1.378 . S
C1039 C1038 1.367 . S
C1039 C1047 1.433 . S
C1040 H1036 0.929 . S
C1040 C1042 1.378 . S
C1040 C1044 1.350 . S
C1041 C1044 1.463 . S
C1041 C1046 1.350 . S
C1041 N1049 1.427 . S
C1042 H1033 0.930 . S
C1042 C1040 1.378 . S
C1042 C1043 1.367 . S
C1043 C1042 1.367 . S
C1043 C1045 1.433 . S
C1044 C1040 1.350 . S
C1044 C1041 1.463 . S
C1044 N1048 1.427 . S
C1045 H1035 0.929 . S
C1045 C1043 1.433 . S
C1045 N1048 1.384 . S
C1046 H1037 0.929 . S
C1046 C1038 1.378 . S
C1046 C1041 1.350 . S
C1047 H1034 0.929 . S
C1047 C1039 1.433 . S
C1047 N1049 1.384 . S
N1048 C1044 1.427 . S
N1048 C1045 1.384 . S
N1049 C1041 1.427 . S
N1049 C1047 1.384 . S
H1050 C1056 0.930 . S
H1051 C1060 0.930 . S
H1052 C1065 0.929 . S
H1053 C1063 0.929 . S
H1054 C1058 0.929 . S
H1055 C1064 0.929 . S
C1056 H1050 0.930 . S
C1056 C1057 1.367 . S
C1056 C1064 1.378 . S
C1057 C1056 1.367 . S
C1057 C1065 1.433 . S
C1058 H1054 0.929 . S
C1058 C1060 1.378 . S
C1058 C1062 1.350 . S
C1059 C1062 1.463 . S
C1059 C1064 1.350 . S
C1059 N1067 1.427 . S
C1060 H1051 0.930 . S
C1060 C1058 1.378 . S
C1060 C1061 1.367 . S
C1061 C1060 1.367 . S
C1061 C1063 1.433 . S
C1062 C1058 1.350 . S
C1062 C1059 1.463 . S
C1062 N1066 1.427 . S
C1063 H1053 0.929 . S
C1063 C1061 1.433 . S
C1063 N1066 1.384 . S
C1064 H1055 0.929 . S
C1064 C1056 1.378 . S
C1064 C1059 1.350 . S
C1065 H1052 0.929 . S
C1065 C1057 1.433 . S
C1065 N1067 1.384 . S
N1066 C1062 1.427 . S
N1066 C1063 1.384 . S
N1067 C1059 1.427 . S
N1067 C1065 1.384 . S
H1068 C1074 0.930 . S
H1069 C1078 0.930 . S
H1070 C1083 0.929 . S
H1071 C1081 0.929 . S
H1072 C1076 0.929 . S
H1073 C1082 0.929 . S
C1074 H1068 0.930 . S
C1074 C1075 1.367 . S
C1074 C1082 1.378 . S
C1075 C1074 1.367 . S
C1075 C1083 1.433 . S
C1076 H1072 0.929 . S
C1076 C1078 1.378 . S
C1076 C1080 1.350 . S
C1077 C1080 1.463 . S
C1077 C1082 1.350 . S
C1077 N1085 1.427 . S
C1078 H1069 0.930 . S
C1078 C1076 1.378 . S
C1078 C1079 1.367 . S
C1079 C1078 1.367 . S
C1079 C1081 1.433 . S
C1080 C1076 1.350 . S
C1080 C1077 1.463 . S
C1080 N1084 1.427 . S
C1081 H1071 0.929 . S
C1081 C1079 1.433 . S
C1081 N1084 1.384 . S
C1082 H1073 0.929 . S
C1082 C1074 1.378 . S
C1082 C1077 1.350 . S
C1083 H1070 0.929 . S
C1083 C1075 1.433 . S
C1083 N1085 1.384 . S
N1084 C1080 1.427 . S
N1084 C1081 1.384 . S
N1085 C1077 1.427 . S
N1085 C1083 1.384 . S
H1086 C1092 0.930 . S
H1087 C1096 0.930 . S
H1088 C1101 0.929 . S
H1089 C1099 0.929 . S
H1090 C1094 0.929 . S
H1091 C1100 0.929 . S
C1092 H1086 0.930 . S
C1092 C1093 1.367 . S
C1092 C1100 1.378 . S
C1093 C1092 1.367 . S
C1093 C1101 1.433 . S
C1094 H1090 0.929 . S
C1094 C1096 1.378 . S
C1094 C1098 1.350 . S
C1095 C1098 1.463 . S
C1095 C1100 1.350 . S
C1095 N1103 1.427 . S
C1096 H1087 0.930 . S
C1096 C1094 1.378 . S
C1096 C1097 1.367 . S
C1097 C1096 1.367 . S
C1097 C1099 1.433 . S
C1098 C1094 1.350 . S
C1098 C1095 1.463 . S
C1098 N1102 1.427 . S
C1099 H1089 0.929 . S
C1099 C1097 1.433 . S
C1099 N1102 1.384 . S
C1100 H1091 0.929 . S
C1100 C1092 1.378 . S
C1100 C1095 1.350 . S
C1101 H1088 0.929 . S
C1101 C1093 1.433 . S
C1101 N1103 1.384 . S
N1102 C1098 1.427 . S
N1102 C1099 1.384 . S
N1103 C1095 1.427 . S
N1103 C1101 1.384 . S
H1104 C1110 0.930 . S
H1105 C1114 0.930 . S
H1106 C1119 0.929 . S
H1107 C1117 0.929 . S
H1108 C1112 0.929 . S
H1109 C1118 0.929 . S
C1110 H1104 0.930 . S
C1110 C1111 1.367 . S
C1110 C1118 1.378 . S
C1111 C1110 1.367 . S
C1111 C1119 1.433 . S
C1112 H1108 0.929 . S
C1112 C1114 1.378 . S
C1112 C1116 1.350 1_655 S
C1113 C1116 1.463 . S
C1113 C1118 1.350 . S
C1113 N1121 1.427 . S
C1114 H1105 0.930 . S
C1114 C1112 1.378 . S
C1114 C1115 1.367 1_655 S
C1115 C1114 1.367 1_455 S
C1115 C1117 1.433 . S
C1116 C1112 1.350 1_455 S
C1116 C1113 1.463 . S
C1116 N1120 1.427 . S
C1117 H1107 0.929 . S
C1117 C1115 1.433 . S
C1117 N1120 1.384 . S
C1118 H1109 0.929 . S
C1118 C1110 1.378 . S
C1118 C1113 1.350 . S
C1119 H1106 0.929 . S
C1119 C1111 1.433 . S
C1119 N1121 1.384 . S
N1120 C1116 1.427 . S
N1120 C1117 1.384 . S
N1121 C1113 1.427 . S
N1121 C1119 1.384 . S
H1122 C1128 0.930 . S
H1123 C1132 0.930 . S
H1124 C1137 0.929 . S
H1125 C1135 0.929 . S
H1126 C1130 0.929 . S
H1127 C1136 0.929 . S
C1128 H1122 0.930 . S
C1128 C1129 1.367 . S
C1128 C1136 1.378 . S
C1129 C1128 1.367 . S
C1129 C1137 1.433 . S
C1130 H1126 0.929 . S
C1130 C1132 1.378 . S
C1130 C1134 1.350 . S
C1131 C1134 1.463 . S
C1131 C1136 1.350 . S
C1131 N1139 1.427 . S
C1132 H1123 0.930 . S
C1132 C1130 1.378 . S
C1132 C1133 1.367 . S
C1133 C1132 1.367 . S
C1133 C1135 1.433 . S
C1134 C1130 1.350 . S
C1134 C1131 1.463 . S
C1134 N1138 1.427 . S
C1135 H1125 0.929 . S
C1135 C1133 1.433 . S
C1135 N1138 1.384 . S
C1136 H1127 0.929 . S
C1136 C1128 1.378 . S
C1136 C1131 1.350 . S
C1137 H1124 0.929 . S
C1137 C1129 1.433 . S
C1137 N1139 1.384 . S
N1138 C1134 1.427 . S
N1138 C1135 1.384 . S
N1139 C1131 1.427 . S
N1139 C1137 1.384 . S
H1140 C1146 0.930 . S
H1141 C1150 0.930 . S
H1142 C1155 0.929 . S
H1143 C1153 0.929 . S
H1144 C1148 0.929 . S
H1145 C1154 0.929 . S
C1146 H1140 0.930 . S
C1146 C1147 1.367 . S
C1146 C1154 1.378 . S
C1147 C1146 1.367 . S
C1147 C1155 1.433 . S
C1148 H1144 0.929 . S
C1148 C1150 1.378 . S
C1148 C1152 1.350 . S
C1149 C1152 1.463 . S
C1149 C1154 1.350 . S
C1149 N1157 1.427 . S
C1150 H1141 0.930 . S
C1150 C1148 1.378 . S
C1150 C1151 1.367 . S
C1151 C1150 1.367 . S
C1151 C1153 1.433 . S
C1152 C1148 1.350 . S
C1152 C1149 1.463 . S
C1152 N1156 1.427 . S
C1153 H1143 0.929 . S
C1153 C1151 1.433 . S
C1153 N1156 1.384 . S
C1154 H1145 0.929 . S
C1154 C1146 1.378 . S
C1154 C1149 1.350 . S
C1155 H1142 0.929 . S
C1155 C1147 1.433 . S
C1155 N1157 1.384 . S
N1156 C1152 1.427 . S
N1156 C1153 1.384 . S
N1157 C1149 1.427 . S
N1157 C1155 1.384 . S
H1158 C1164 0.930 . S
H1159 C1168 0.930 . S
H1160 C1173 0.929 . S
H1161 C1171 0.929 . S
H1162 C1166 0.929 . S
H1163 C1172 0.929 . S
C1164 H1158 0.930 . S
C1164 C1165 1.367 . S
C1164 C1172 1.378 . S
C1165 C1164 1.367 . S
C1165 C1173 1.433 . S
C1166 H1162 0.929 . S
C1166 C1168 1.378 . S
C1166 C1170 1.353 . S
C1167 C1170 1.456 1_455 S
C1167 C1172 1.350 . S
C1167 N1175 1.427 . S
C1168 H1159 0.930 . S
C1168 C1166 1.378 . S
C1168 C1169 1.367 . S
C1169 C1168 1.367 . S
C1169 C1171 1.433 . S
C1170 C1166 1.353 . S
C1170 C1167 1.456 1_655 S
C1170 N1174 1.430 . S
C1171 H1161 0.929 . S
C1171 C1169 1.433 . S
C1171 N1174 1.384 . S
C1172 H1163 0.929 . S
C1172 C1164 1.378 . S
C1172 C1167 1.350 . S
C1173 H1160 0.929 . S
C1173 C1165 1.433 . S
C1173 N1175 1.384 . S
N1174 C1170 1.430 . S
N1174 C1171 1.384 . S
N1175 C1167 1.427 . S
N1175 C1173 1.384 . S
H1176 C1182 0.930 1_655 S
H1177 C1186 0.930 . S
H1178 C1191 0.929 . S
H1179 C1189 0.929 . S
H1180 C1184 0.929 . S
H1181 C1190 0.929 1_655 S
C1182 H1176 0.930 1_455 S
C1182 C1183 1.367 . S
C1182 C1190 1.378 . S
C1183 C1182 1.367 . S
C1183 C1191 1.433 . S
C1184 H1180 0.929 . S
C1184 C1186 1.378 . S
C1184 C1188 1.350 . S
C1185 C1188 1.463 . S
C1185 C1190 1.350 . S
C1185 N1193 1.427 . S
C1186 H1177 0.930 . S
C1186 C1184 1.378 . S
C1186 C1187 1.367 . S
C1187 C1186 1.367 . S
C1187 C1189 1.433 1_455 S
C1188 C1184 1.350 . S
C1188 C1185 1.463 . S
C1188 N1192 1.427 1_455 S
C1189 H1179 0.929 . S
C1189 C1187 1.433 1_655 S
C1189 N1192 1.384 . S
C1190 H1181 0.929 1_455 S
C1190 C1182 1.378 . S
C1190 C1185 1.350 . S
C1191 H1178 0.929 . S
C1191 C1183 1.433 . S
C1191 N1193 1.384 . S
N1192 C1188 1.427 1_655 S
N1192 C1189 1.384 . S
N1193 C1185 1.427 . S
N1193 C1191 1.384 . S
H1194 C1200 0.930 . S
H1195 C1204 0.930 . S
H1196 C1209 0.929 . S
H1197 C1207 0.929 . S
H1198 C1202 0.929 . S
H1199 C1208 0.929 . S
C1200 H1194 0.930 . S
C1200 C1201 1.367 . S
C1200 C1208 1.378 . S
C1201 C1200 1.367 . S
C1201 C1209 1.433 . S
C1202 H1198 0.929 . S
C1202 C1204 1.378 . S
C1202 C1206 1.352 . S
C1203 C1206 1.458 1_455 S
C1203 C1208 1.350 . S
C1203 N1211 1.427 . S
C1204 H1195 0.930 . S
C1204 C1202 1.378 . S
C1204 C1205 1.367 . S
C1205 C1204 1.367 . S
C1205 C1207 1.433 . S
C1206 C1202 1.352 . S
C1206 C1203 1.458 1_655 S
C1206 N1210 1.429 . S
C1207 H1197 0.929 . S
C1207 C1205 1.433 . S
C1207 N1210 1.384 . S
C1208 H1199 0.929 . S
C1208 C1200 1.378 . S
C1208 C1203 1.350 . S
C1209 H1196 0.929 . S
C1209 C1201 1.433 . S
C1209 N1211 1.384 . S
N1210 C1206 1.429 . S
N1210 C1207 1.384 . S
N1211 C1203 1.427 . S
N1211 C1209 1.384 . S
H1212 C1218 0.930 . S
H1213 C1222 0.930 . S
H1214 C1227 0.929 . S
H1215 C1225 0.929 . S
H1216 C1220 0.929 . S
H1217 C1226 0.929 . S
C1218 H1212 0.930 . S
C1218 C1219 1.367 . S
C1218 C1226 1.378 . S
C1219 C1218 1.367 . S
C1219 C1227 1.433 . S
C1220 H1216 0.929 . S
C1220 C1222 1.378 . S
C1220 C1224 1.350 . S
C1221 C1224 1.463 . S
C1221 C1226 1.350 . S
C1221 N1229 1.427 . S
C1222 H1213 0.930 . S
C1222 C1220 1.378 . S
C1222 C1223 1.367 . S
C1223 C1222 1.367 . S
C1223 C1225 1.433 . S
C1224 C1220 1.350 . S
C1224 C1221 1.463 . S
C1224 N1228 1.427 . S
C1225 H1215 0.929 . S
C1225 C1223 1.433 . S
C1225 N1228 1.384 . S
C1226 H1217 0.929 . S
C1226 C1218 1.378 . S
C1226 C1221 1.350 . S
C1227 H1214 0.929 . S
C1227 C1219 1.433 . S
C1227 N1229 1.384 . S
N1228 C1224 1.427 . S
N1228 C1225 1.384 . S
N1229 C1221 1.427 . S
N1229 C1227 1.384 . S
H1230 C1236 0.930 . S
H1231 C1240 0.930 . S
H1232 C1245 0.929 . S
H1233 C1243 0.929 . S
H1234 C1238 0.929 . S
H1235 C1244 0.929 . S
C1236 H1230 0.930 . S
C1236 C1237 1.367 . S
C1236 C1244 1.378 . S
C1237 C1236 1.367 . S
C1237 C1245 1.433 . S
C1238 H1234 0.929 . S
C1238 C1240 1.378 . S
C1238 C1242 1.350 . S
C1239 C1242 1.463 . S
C1239 C1244 1.350 . S
C1239 N1247 1.427 . S
C1240 H1231 0.930 . S
C1240 C1238 1.378 . S
C1240 C1241 1.367 . S
C1241 C1240 1.367 . S
C1241 C1243 1.433 . S
C1242 C1238 1.350 . S
C1242 C1239 1.463 . S
C1242 N1246 1.427 . S
C1243 H1233 0.929 . S
C1243 C1241 1.433 . S
C1243 N1246 1.384 . S
C1244 H1235 0.929 . S
C1244 C1236 1.378 . S
C1244 C1239 1.350 . S
C1245 H1232 0.929 . S
C1245 C1237 1.433 . S
C1245 N1247 1.384 . S
N1246 C1242 1.427 . S
N1246 C1243 1.384 . S
N1247 C1239 1.427 . S
N1247 C1245 1.384 . S
C535 N434 1.291 . S
C539 N5 1.288 . S
C553 N38 1.291 . S
C557 N368 1.288 . S
C571 N71 1.280 . S
C575 N401 1.280 . S
C589 N104 1.288 . S
C593 N335 1.284 . S
C607 N500 1.291 . S
C611 N137 1.288 . S
C625 N170 1.284 . S
C629 N302 1.288 . S
C643 N203 1.283 . S
C647 N467 1.287 . S
C661 N269 1.284 . S
C665 N236 1.288 . S
C679 C28 1.634 . S
C683 C160 1.632 . S
C697 C61 1.642 . S
C701 C193 1.641 . S
C715 C94 1.638 . S
C719 C226 1.639 . S
C733 C259 1.640 . S
C737 C127 1.639 . S
C751 C358 1.636 . S
C755 C292 1.637 . S
C769 C325 1.632 . S
C773 C391 1.633 . S
C787 C490 1.636 . S
C791 C424 1.637 . S
C805 C523 1.634 . S
C809 C457 1.633 . S
C823 C173 1.140 . S
C827 C8 1.158 1_565 S
C841 C41 1.140 . S
C845 C206 1.157 1_565 S
C859 C74 1.146 . S
C863 C239 1.147 . S
C877 C140 1.142 . S
C881 C107 1.152 . S
C895 C149 0.389 . S
C899 C347 0.438 . S
C913 C83 0.418 . S
C917 C281 0.419 . S
C931 C380 0.408 . S
C935 C215 0.415 . S
C949 C314 0.402 . S
C953 C17 0.432 . S
C967 C272 1.157 . S
C971 C404 1.143 . S
C985 C503 1.154 . S
C989 C338 1.147 . S
C1003 C437 1.145 . S
C1007 C305 1.155 . S
C1021 C371 1.141 . S
C1025 C470 1.158 . S
C1039 C479 0.437 . S
C1043 C50 0.395 . S
C1057 C182 0.438 . S
C1061 C446 0.393 . S
C1075 C512 0.419 . S
C1079 C116 0.405 . S
C1093 C248 0.420 . S
C1097 C413 0.403 . S
C1111 N14 0.610 . S
C1115 N443 0.616 . S
C1129 N47 0.620 . S
C1133 N377 0.621 . S
C1147 N80 0.613 . S
C1151 N410 0.606 . S
C1165 N113 0.596 . S
C1169 N344 0.590 . S
C1183 N146 0.598 . S
C1187 N509 0.591 . S
C1201 N179 0.592 . S
C1205 N311 0.588 . S
C1219 N476 0.597 . S
C1223 N212 0.591 . S
C1237 N278 0.622 . S
C1241 N245 0.619 . S
