# Generated by pormake.
# Topology wnz, (7)-cn, num edge types: 1
# Building blocks:
#     Node 0, Type 0, BuildingBlock: OLANEW_clean_sbu_0, # of connection points: 7
#     Node 1, Type 0, BuildingBlock: OLANEW_clean_sbu_0, # of connection points: 7
#     Node 2, Type 0, BuildingBlock: OLANEW_clean_sbu_0, # of connection points: 7
#     Node 3, Type 0, BuildingBlock: OLANEW_clean_sbu_0, # of connection points: 7
#     Node 4, Type 0, BuildingBlock: OLANEW_clean_sbu_0, # of connection points: 7
#     Node 5, Type 0, BuildingBlock: OLANEW_clean_sbu_0, # of connection points: 7
#     Node 6, Type 0, BuildingBlock: OLANEW_clean_sbu_0, # of connection points: 7
#     Node 7, Type 0, BuildingBlock: OLANEW_clean_sbu_0, # of connection points: 7
#     Node 8, Type 0, BuildingBlock: OLANEW_clean_sbu_0, # of connection points: 7
#     Node 9, Type 0, BuildingBlock: OLANEW_clean_sbu_0, # of connection points: 7
#     Node 10, Type 0, BuildingBlock: OLANEW_clean_sbu_0, # of connection points: 7
#     Node 11, Type 0, BuildingBlock: OLANEW_clean_sbu_0, # of connection points: 7
#     Node 12, Type 0, BuildingBlock: OLANEW_clean_sbu_0, # of connection points: 7
#     Node 13, Type 0, BuildingBlock: OLANEW_clean_sbu_0, # of connection points: 7
#     Node 14, Type 0, BuildingBlock: OLANEW_clean_sbu_0, # of connection points: 7
#     Node 15, Type 0, BuildingBlock: OLANEW_clean_sbu_0, # of connection points: 7
#     Node 16, Type 0, BuildingBlock: OLANEW_clean_sbu_0, # of connection points: 7
#     Node 17, Type 0, BuildingBlock: OLANEW_clean_sbu_0, # of connection points: 7
#     Node 18, Type 0, BuildingBlock: OLANEW_clean_sbu_0, # of connection points: 7
#     Node 19, Type 0, BuildingBlock: OLANEW_clean_sbu_0, # of connection points: 7
#     Node 20, Type 0, BuildingBlock: OLANEW_clean_sbu_0, # of connection points: 7
#     Node 21, Type 0, BuildingBlock: OLANEW_clean_sbu_0, # of connection points: 7
#     Node 22, Type 0, BuildingBlock: OLANEW_clean_sbu_0, # of connection points: 7
#     Node 23, Type 0, BuildingBlock: OLANEW_clean_sbu_0, # of connection points: 7
#     Node 24, Type 0, BuildingBlock: OLANEW_clean_sbu_0, # of connection points: 7
#     Node 25, Type 0, BuildingBlock: OLANEW_clean_sbu_0, # of connection points: 7
#     Node 26, Type 0, BuildingBlock: OLANEW_clean_sbu_0, # of connection points: 7
#     Node 27, Type 0, BuildingBlock: OLANEW_clean_sbu_0, # of connection points: 7
#     Node 28, Type 0, BuildingBlock: OLANEW_clean_sbu_0, # of connection points: 7
#     Node 29, Type 0, BuildingBlock: OLANEW_clean_sbu_0, # of connection points: 7
#     Node 30, Type 0, BuildingBlock: OLANEW_clean_sbu_0, # of connection points: 7
#     Node 31, Type 0, BuildingBlock: OLANEW_clean_sbu_0, # of connection points: 7
#     Node 32, Type 0, BuildingBlock: OLANEW_clean_sbu_0, # of connection points: 7
#     Node 33, Type 0, BuildingBlock: OLANEW_clean_sbu_0, # of connection points: 7
#     Node 34, Type 0, BuildingBlock: OLANEW_clean_sbu_0, # of connection points: 7
#     Node 35, Type 0, BuildingBlock: OLANEW_clean_sbu_0, # of connection points: 7
#     Edge 36, Type (0, 0), BuildingBlock: OJICUG_clean_linker_0, # of connection points: 2
#     Edge 37, Type (0, 0), BuildingBlock: OJICUG_clean_linker_0, # of connection points: 2
#     Edge 38, Type (0, 0), BuildingBlock: OJICUG_clean_linker_0, # of connection points: 2
#     Edge 39, Type (0, 0), BuildingBlock: OJICUG_clean_linker_0, # of connection points: 2
#     Edge 40, Type (0, 0), BuildingBlock: OJICUG_clean_linker_0, # of connection points: 2
#     Edge 41, Type (0, 0), BuildingBlock: OJICUG_clean_linker_0, # of connection points: 2
#     Edge 42, Type (0, 0), BuildingBlock: OJICUG_clean_linker_0, # of connection points: 2
#     Edge 43, Type (0, 0), BuildingBlock: OJICUG_clean_linker_0, # of connection points: 2
#     Edge 44, Type (0, 0), BuildingBlock: OJICUG_clean_linker_0, # of connection points: 2
#     Edge 45, Type (0, 0), BuildingBlock: OJICUG_clean_linker_0, # of connection points: 2
#     Edge 46, Type (0, 0), BuildingBlock: OJICUG_clean_linker_0, # of connection points: 2
#     Edge 47, Type (0, 0), BuildingBlock: OJICUG_clean_linker_0, # of connection points: 2
#     Edge 48, Type (0, 0), BuildingBlock: OJICUG_clean_linker_0, # of connection points: 2
#     Edge 49, Type (0, 0), BuildingBlock: OJICUG_clean_linker_0, # of connection points: 2
#     Edge 50, Type (0, 0), BuildingBlock: OJICUG_clean_linker_0, # of connection points: 2
#     Edge 51, Type (0, 0), BuildingBlock: OJICUG_clean_linker_0, # of connection points: 2
#     Edge 52, Type (0, 0), BuildingBlock: OJICUG_clean_linker_0, # of connection points: 2
#     Edge 53, Type (0, 0), BuildingBlock: OJICUG_clean_linker_0, # of connection points: 2
#     Edge 54, Type (0, 0), BuildingBlock: OJICUG_clean_linker_0, # of connection points: 2
#     Edge 55, Type (0, 0), BuildingBlock: OJICUG_clean_linker_0, # of connection points: 2
#     Edge 56, Type (0, 0), BuildingBlock: OJICUG_clean_linker_0, # of connection points: 2
#     Edge 57, Type (0, 0), BuildingBlock: OJICUG_clean_linker_0, # of connection points: 2
#     Edge 58, Type (0, 0), BuildingBlock: OJICUG_clean_linker_0, # of connection points: 2
#     Edge 59, Type (0, 0), BuildingBlock: OJICUG_clean_linker_0, # of connection points: 2
#     Edge 60, Type (0, 0), BuildingBlock: OJICUG_clean_linker_0, # of connection points: 2
#     Edge 61, Type (0, 0), BuildingBlock: OJICUG_clean_linker_0, # of connection points: 2
#     Edge 62, Type (0, 0), BuildingBlock: OJICUG_clean_linker_0, # of connection points: 2
#     Edge 63, Type (0, 0), BuildingBlock: OJICUG_clean_linker_0, # of connection points: 2
#     Edge 64, Type (0, 0), BuildingBlock: OJICUG_clean_linker_0, # of connection points: 2
#     Edge 65, Type (0, 0), BuildingBlock: OJICUG_clean_linker_0, # of connection points: 2
#     Edge 66, Type (0, 0), BuildingBlock: OJICUG_clean_linker_0, # of connection points: 2
#     Edge 67, Type (0, 0), BuildingBlock: OJICUG_clean_linker_0, # of connection points: 2
#     Edge 68, Type (0, 0), BuildingBlock: OJICUG_clean_linker_0, # of connection points: 2
#     Edge 69, Type (0, 0), BuildingBlock: OJICUG_clean_linker_0, # of connection points: 2
#     Edge 70, Type (0, 0), BuildingBlock: OJICUG_clean_linker_0, # of connection points: 2
#     Edge 71, Type (0, 0), BuildingBlock: OJICUG_clean_linker_0, # of connection points: 2
#     Edge 72, Type (0, 0), BuildingBlock: OJICUG_clean_linker_0, # of connection points: 2
#     Edge 73, Type (0, 0), BuildingBlock: OJICUG_clean_linker_0, # of connection points: 2
#     Edge 74, Type (0, 0), BuildingBlock: OJICUG_clean_linker_0, # of connection points: 2
#     Edge 75, Type (0, 0), BuildingBlock: OJICUG_clean_linker_0, # of connection points: 2
#     Edge 76, Type (0, 0), BuildingBlock: OJICUG_clean_linker_0, # of connection points: 2
#     Edge 77, Type (0, 0), BuildingBlock: OJICUG_clean_linker_0, # of connection points: 2
#     Edge 78, Type (0, 0), BuildingBlock: OJICUG_clean_linker_0, # of connection points: 2
#     Edge 79, Type (0, 0), BuildingBlock: OJICUG_clean_linker_0, # of connection points: 2
#     Edge 80, Type (0, 0), BuildingBlock: OJICUG_clean_linker_0, # of connection points: 2
#     Edge 81, Type (0, 0), BuildingBlock: OJICUG_clean_linker_0, # of connection points: 2
#     Edge 82, Type (0, 0), BuildingBlock: OJICUG_clean_linker_0, # of connection points: 2
#     Edge 83, Type (0, 0), BuildingBlock: OJICUG_clean_linker_0, # of connection points: 2
#     Edge 84, Type (0, 0), BuildingBlock: OJICUG_clean_linker_0, # of connection points: 2
#     Edge 85, Type (0, 0), BuildingBlock: OJICUG_clean_linker_0, # of connection points: 2
#     Edge 86, Type (0, 0), BuildingBlock: OJICUG_clean_linker_0, # of connection points: 2
#     Edge 87, Type (0, 0), BuildingBlock: OJICUG_clean_linker_0, # of connection points: 2
#     Edge 88, Type (0, 0), BuildingBlock: OJICUG_clean_linker_0, # of connection points: 2
#     Edge 89, Type (0, 0), BuildingBlock: OJICUG_clean_linker_0, # of connection points: 2
#     Edge 90, Type (0, 0), BuildingBlock: OJICUG_clean_linker_0, # of connection points: 2
#     Edge 91, Type (0, 0), BuildingBlock: OJICUG_clean_linker_0, # of connection points: 2
#     Edge 92, Type (0, 0), BuildingBlock: OJICUG_clean_linker_0, # of connection points: 2
#     Edge 93, Type (0, 0), BuildingBlock: OJICUG_clean_linker_0, # of connection points: 2
#     Edge 94, Type (0, 0), BuildingBlock: OJICUG_clean_linker_0, # of connection points: 2
#     Edge 95, Type (0, 0), BuildingBlock: OJICUG_clean_linker_0, # of connection points: 2
#     Edge 96, Type (0, 0), BuildingBlock: OJICUG_clean_linker_0, # of connection points: 2
#     Edge 97, Type (0, 0), BuildingBlock: OJICUG_clean_linker_0, # of connection points: 2
#     Edge 98, Type (0, 0), BuildingBlock: OJICUG_clean_linker_0, # of connection points: 2
#     Edge 99, Type (0, 0), BuildingBlock: OJICUG_clean_linker_0, # of connection points: 2
#     Edge 100, Type (0, 0), BuildingBlock: OJICUG_clean_linker_0, # of connection points: 2
#     Edge 101, Type (0, 0), BuildingBlock: OJICUG_clean_linker_0, # of connection points: 2
#     Edge 102, Type (0, 0), BuildingBlock: OJICUG_clean_linker_0, # of connection points: 2
#     Edge 103, Type (0, 0), BuildingBlock: OJICUG_clean_linker_0, # of connection points: 2
#     Edge 104, Type (0, 0), BuildingBlock: OJICUG_clean_linker_0, # of connection points: 2
#     Edge 105, Type (0, 0), BuildingBlock: OJICUG_clean_linker_0, # of connection points: 2
#     Edge 106, Type (0, 0), BuildingBlock: OJICUG_clean_linker_0, # of connection points: 2
#     Edge 107, Type (0, 0), BuildingBlock: OJICUG_clean_linker_0, # of connection points: 2
#     Edge 108, Type (0, 0), BuildingBlock: OJICUG_clean_linker_0, # of connection points: 2
#     Edge 109, Type (0, 0), BuildingBlock: OJICUG_clean_linker_0, # of connection points: 2
#     Edge 110, Type (0, 0), BuildingBlock: OJICUG_clean_linker_0, # of connection points: 2
#     Edge 111, Type (0, 0), BuildingBlock: OJICUG_clean_linker_0, # of connection points: 2
#     Edge 112, Type (0, 0), BuildingBlock: OJICUG_clean_linker_0, # of connection points: 2
#     Edge 113, Type (0, 0), BuildingBlock: OJICUG_clean_linker_0, # of connection points: 2
#     Edge 114, Type (0, 0), BuildingBlock: OJICUG_clean_linker_0, # of connection points: 2
#     Edge 115, Type (0, 0), BuildingBlock: OJICUG_clean_linker_0, # of connection points: 2
#     Edge 116, Type (0, 0), BuildingBlock: OJICUG_clean_linker_0, # of connection points: 2
#     Edge 117, Type (0, 0), BuildingBlock: OJICUG_clean_linker_0, # of connection points: 2
#     Edge 118, Type (0, 0), BuildingBlock: OJICUG_clean_linker_0, # of connection points: 2
#     Edge 119, Type (0, 0), BuildingBlock: OJICUG_clean_linker_0, # of connection points: 2
#     Edge 120, Type (0, 0), BuildingBlock: OJICUG_clean_linker_0, # of connection points: 2
#     Edge 121, Type (0, 0), BuildingBlock: OJICUG_clean_linker_0, # of connection points: 2
#     Edge 122, Type (0, 0), BuildingBlock: OJICUG_clean_linker_0, # of connection points: 2
#     Edge 123, Type (0, 0), BuildingBlock: OJICUG_clean_linker_0, # of connection points: 2
#     Edge 124, Type (0, 0), BuildingBlock: OJICUG_clean_linker_0, # of connection points: 2
#     Edge 125, Type (0, 0), BuildingBlock: OJICUG_clean_linker_0, # of connection points: 2
#     Edge 126, Type (0, 0), BuildingBlock: OJICUG_clean_linker_0, # of connection points: 2
#     Edge 127, Type (0, 0), BuildingBlock: OJICUG_clean_linker_0, # of connection points: 2
#     Edge 128, Type (0, 0), BuildingBlock: OJICUG_clean_linker_0, # of connection points: 2
#     Edge 129, Type (0, 0), BuildingBlock: OJICUG_clean_linker_0, # of connection points: 2
#     Edge 130, Type (0, 0), BuildingBlock: OJICUG_clean_linker_0, # of connection points: 2
#     Edge 131, Type (0, 0), BuildingBlock: OJICUG_clean_linker_0, # of connection points: 2
#     Edge 132, Type (0, 0), BuildingBlock: OJICUG_clean_linker_0, # of connection points: 2
#     Edge 133, Type (0, 0), BuildingBlock: OJICUG_clean_linker_0, # of connection points: 2
#     Edge 134, Type (0, 0), BuildingBlock: OJICUG_clean_linker_0, # of connection points: 2
#     Edge 135, Type (0, 0), BuildingBlock: OJICUG_clean_linker_0, # of connection points: 2
#     Edge 136, Type (0, 0), BuildingBlock: OJICUG_clean_linker_0, # of connection points: 2
#     Edge 137, Type (0, 0), BuildingBlock: OJICUG_clean_linker_0, # of connection points: 2
#     Edge 138, Type (0, 0), BuildingBlock: OJICUG_clean_linker_0, # of connection points: 2
#     Edge 139, Type (0, 0), BuildingBlock: OJICUG_clean_linker_0, # of connection points: 2
#     Edge 140, Type (0, 0), BuildingBlock: OJICUG_clean_linker_0, # of connection points: 2
#     Edge 141, Type (0, 0), BuildingBlock: OJICUG_clean_linker_0, # of connection points: 2
#     Edge 142, Type (0, 0), BuildingBlock: OJICUG_clean_linker_0, # of connection points: 2
#     Edge 143, Type (0, 0), BuildingBlock: OJICUG_clean_linker_0, # of connection points: 2
#     Edge 144, Type (0, 0), BuildingBlock: OJICUG_clean_linker_0, # of connection points: 2
#     Edge 145, Type (0, 0), BuildingBlock: OJICUG_clean_linker_0, # of connection points: 2
#     Edge 146, Type (0, 0), BuildingBlock: OJICUG_clean_linker_0, # of connection points: 2
#     Edge 147, Type (0, 0), BuildingBlock: OJICUG_clean_linker_0, # of connection points: 2
#     Edge 148, Type (0, 0), BuildingBlock: OJICUG_clean_linker_0, # of connection points: 2
#     Edge 149, Type (0, 0), BuildingBlock: OJICUG_clean_linker_0, # of connection points: 2
#     Edge 150, Type (0, 0), BuildingBlock: OJICUG_clean_linker_0, # of connection points: 2
#     Edge 151, Type (0, 0), BuildingBlock: OJICUG_clean_linker_0, # of connection points: 2
#     Edge 152, Type (0, 0), BuildingBlock: OJICUG_clean_linker_0, # of connection points: 2
#     Edge 153, Type (0, 0), BuildingBlock: OJICUG_clean_linker_0, # of connection points: 2
#     Edge 154, Type (0, 0), BuildingBlock: OJICUG_clean_linker_0, # of connection points: 2
#     Edge 155, Type (0, 0), BuildingBlock: OJICUG_clean_linker_0, # of connection points: 2
#     Edge 156, Type (0, 0), BuildingBlock: OJICUG_clean_linker_0, # of connection points: 2
#     Edge 157, Type (0, 0), BuildingBlock: OJICUG_clean_linker_0, # of connection points: 2
#     Edge 158, Type (0, 0), BuildingBlock: OJICUG_clean_linker_0, # of connection points: 2
#     Edge 159, Type (0, 0), BuildingBlock: OJICUG_clean_linker_0, # of connection points: 2
#     Edge 160, Type (0, 0), BuildingBlock: OJICUG_clean_linker_0, # of connection points: 2
#     Edge 161, Type (0, 0), BuildingBlock: OJICUG_clean_linker_0, # of connection points: 2
# Relax obj value: 0.197
# Max RMSD: 0.267
# Mean RMSD: 0.267
data_MOF--net-wnz--node1-OLANEW_clean_sbu_0--edge1-OJICUG_clean_linker_0
_symmetry_space_group_name_H-M    P1
_symmetry_Int_Tables_number       1
_symmetry_cell_setting            triclinic
loop_
_symmetry_equiv_pos_as_xyz
'x, y, z'
_cell_length_a     36.56896
_cell_length_b     36.592008
_cell_length_c     140.50576
_cell_angle_alpha  89.986845
_cell_angle_beta   89.985672
_cell_angle_gamma 119.99024
loop_
_atom_site_label
_atom_site_type_symbol
_atom_site_fract_x
_atom_site_fract_y
_atom_site_fract_z
_atom_type_partial_charge
Cd0 Cd 0.44017 0.95004 0.13558 0.0
C1 C 0.49738 0.90673 0.12636 0.0
C2 C 0.62108 0.17139 0.14576 0.0
O3 O 0.65252 0.17953 0.15154 0.0
Cd4 Cd 0.42785 0.92609 0.1173 0.0
C5 C 0.59306 0.18892 0.14733 0.0
C6 C 0.5353 0.21782 0.14662 0.0
C7 C 0.53412 0.18858 0.14004 0.0
N8 N 0.56204 0.17537 0.14095 0.0
C9 C 0.5963 0.21827 0.15415 0.0
C10 C 0.56675 0.2325 0.15377 0.0
Co11 Co 0.56305 0.14164 0.13138 0.0
C12 C 0.50718 0.17103 0.13155 0.0
O13 O 0.47587 0.1778 0.12963 0.0
C14 C 0.48934 0.12019 0.11842 0.0
C15 C 0.46349 0.07744 0.11994 0.0
C16 C 0.44794 0.0494 0.11229 0.0
C17 C 0.45205 0.06544 0.10305 0.0
C18 C 0.47302 0.10936 0.10152 0.0
C19 C 0.49305 0.1369 0.10923 0.0
C20 C 0.43527 0.00508 0.11417 0.0
C21 C 0.62884 0.11761 0.13692 0.0
C22 C 0.62661 0.09165 0.14451 0.0
C23 C 0.64919 0.11716 0.12851 0.0
C24 C 0.66486 0.08946 0.12755 0.0
C25 C 0.66118 0.06257 0.13502 0.0
C26 C 0.64272 0.06403 0.14368 0.0
N27 N 0.61177 0.14533 0.13801 0.0
N28 N 0.51537 0.14491 0.12615 0.0
N29 N 0.52637 0.08826 0.13801 0.0
C30 C 0.5079 0.08321 0.14729 0.0
C31 C 0.51949 0.06563 0.15475 0.0
C32 C 0.47575 0.09277 0.14876 0.0
C33 C 0.50062 0.05928 0.16376 0.0
H34 H 0.54266 0.05616 0.15346 0.0
C35 C 0.46929 0.07026 0.1652 0.0
C36 C 0.45632 0.08663 0.15771 0.0
C37 C 0.51305 0.04057 0.17163 0.0
H38 H 0.46491 0.10365 0.14285 0.0
H39 H 0.45439 0.06527 0.17211 0.0
C40 C 0.42197 0.0965 0.15921 0.0
O41 O 0.49415 0.03378 0.18022 0.0
O42 O 0.54038 0.03109 0.17038 0.0
O43 O 0.41115 0.11141 0.15275 0.0
O44 O 0.40233 0.08893 0.16773 0.0
H45 H 0.50156 0.02137 0.18543 0.0
H46 H 0.37966 0.09483 0.16884 0.0
N47 N 0.56376 0.10816 0.12175 0.0
C48 C 0.58465 0.128 0.11388 0.0
C49 C 0.58701 0.10378 0.10645 0.0
C50 C 0.567 0.05951 0.10773 0.0
C51 C 0.54573 0.04051 0.11633 0.0
C52 C 0.5447 0.06672 0.12344 0.0
N53 N 0.60023 0.18897 0.12331 0.0
C54 C 0.60572 0.17432 0.11476 0.0
O55 O 0.63191 0.19974 0.10825 0.0
C56 C 0.5245 0.05511 0.13291 0.0
O57 O 0.39323 0.96477 0.14481 0.0
O58 O 0.43817 0.95595 0.15307 0.0
C59 C 0.62768 0.23126 0.12656 0.0
C60 C 0.61196 0.25896 0.128 0.0
C61 C 0.63811 0.29911 0.13188 0.0
C62 C 0.68024 0.31173 0.13395 0.0
C63 C 0.69709 0.28564 0.13192 0.0
C64 C 0.67062 0.24518 0.12826 0.0
O65 O 0.4839 0.91495 0.13399 0.0
O66 O 0.48493 0.91224 0.11832 0.0
O67 O 0.43823 0.99488 0.12268 0.0
O68 O 0.43021 0.97988 0.10747 0.0
O69 O 0.51045 0.01616 0.13671 0.0
C70 C 0.35393 0.8525 0.12762 0.0
O71 O 0.36102 0.86583 0.11913 0.0
O72 O 0.37896 0.87513 0.13422 0.0
C73 C 0.40767 0.96332 0.15292 0.0
H74 H 0.51345 0.22957 0.14616 0.0
H75 H 0.62105 0.23033 0.15945 0.0
H76 H 0.56871 0.25546 0.1589 0.0
H77 H 0.45938 0.0659 0.12717 0.0
H78 H 0.43918 0.04397 0.09707 0.0
H79 H 0.51213 0.1706 0.10808 0.0
H80 H 0.61238 0.09323 0.15112 0.0
H81 H 0.65388 0.13871 0.12278 0.0
H82 H 0.67405 0.04181 0.13413 0.0
H83 H 0.6041 0.11839 0.09997 0.0
H84 H 0.56833 0.04 0.10211 0.0
H85 H 0.53056 0.0067 0.11733 0.0
H86 H 0.57976 0.2494 0.12607 0.0
H87 H 0.70107 0.3436 0.13649 0.0
H88 H 0.68323 0.2246 0.12671 0.0
Cd89 Cd 0.20905 0.57227 0.13704 0.0
C90 C 0.24414 0.67488 0.12989 0.0
C91 C 0.98394 0.52536 0.14551 0.0
O92 O 0.97495 0.54749 0.15147 0.0
Cd93 Cd 0.22731 0.59157 0.12016 0.0
C94 C 0.96655 0.47967 0.14671 0.0
C95 C 0.93798 0.39331 0.14526 0.0
C96 C 0.96785 0.42253 0.13893 0.0
N97 N 0.98096 0.46345 0.14022 0.0
C98 C 0.93649 0.45234 0.15327 0.0
C99 C 0.92245 0.40871 0.15253 0.0
Co100 Co 0.01544 0.49984 0.13095 0.0
C101 C 0.98622 0.4146 0.13039 0.0
O102 O 0.98033 0.37704 0.12827 0.0
C103 C 0.04004 0.44989 0.11794 0.0
C104 C 0.08215 0.46673 0.12019 0.0
C105 C 0.11258 0.48205 0.11305 0.0
C106 C 0.09989 0.47165 0.10359 0.0
C107 C 0.05677 0.4456 0.10129 0.0
C108 C 0.02643 0.43719 0.1085 0.0
C109 C 0.15519 0.51552 0.11561 0.0
C110 C 0.03897 0.58848 0.13737 0.0
C111 C 0.06366 0.61041 0.14528 0.0
C112 C 0.04104 0.61116 0.12916 0.0
C113 C 0.06914 0.65461 0.12871 0.0
C114 C 0.0948 0.67601 0.13649 0.0
C115 C 0.09169 0.65416 0.14495 0.0
N116 N 0.01088 0.54356 0.13795 0.0
N117 N 0.01277 0.44975 0.12525 0.0
N118 N 0.0685 0.51602 0.13774 0.0
C119 C 0.07287 0.50197 0.14702 0.0
C120 C 0.09095 0.53081 0.15453 0.0
C121 C 0.06224 0.45994 0.14844 0.0
C122 C 0.0968 0.51771 0.16352 0.0
H123 H 0.10122 0.56367 0.1533 0.0
C124 C 0.08491 0.47515 0.16488 0.0
C125 C 0.06797 0.44609 0.15735 0.0
C126 C 0.11594 0.5485 0.17143 0.0
H127 H 0.05093 0.43837 0.1425 0.0
H128 H 0.08957 0.46479 0.17177 0.0
C129 C 0.05707 0.40155 0.15878 0.0
O130 O 0.12176 0.53571 0.18003 0.0
O131 O 0.12663 0.58562 0.17021 0.0
O132 O 0.04141 0.37599 0.15231 0.0
O133 O 0.06451 0.38897 0.16725 0.0
H134 H 0.13444 0.55529 0.18527 0.0
H135 H 0.05794 0.36018 0.16831 0.0
N136 N 0.04964 0.53561 0.12159 0.0
C137 C 0.03034 0.5379 0.11375 0.0
C138 C 0.05501 0.56602 0.10658 0.0
C139 C 0.09914 0.59044 0.10807 0.0
C140 C 0.11754 0.58682 0.11663 0.0
C141 C 0.09094 0.55805 0.12347 0.0
N142 N 0.96865 0.49085 0.1228 0.0
C143 C 0.98395 0.51239 0.11443 0.0
O144 O 0.959 0.51426 0.10795 0.0
C145 C 0.10199 0.54825 0.13288 0.0
O146 O 0.19587 0.51055 0.14602 0.0
O147 O 0.2023 0.56248 0.15457 0.0
C148 C 0.92618 0.47588 0.12598 0.0
C149 C 0.89839 0.43243 0.12726 0.0
C150 C 0.85829 0.4182 0.1312 0.0
C151 C 0.84564 0.44753 0.13344 0.0
C152 C 0.87175 0.49058 0.13155 0.0
C153 C 0.91228 0.50483 0.12786 0.0
O154 O 0.24175 0.65171 0.13694 0.0
O155 O 0.23431 0.65887 0.12164 0.0
O156 O 0.16403 0.52271 0.12443 0.0
O157 O 0.17806 0.54296 0.10952 0.0
O158 O 0.14053 0.57323 0.1369 0.0
C159 C 0.30693 0.59341 0.12679 0.0
O160 O 0.29243 0.59459 0.1187 0.0
O161 O 0.28438 0.58768 0.13418 0.0
C162 C 0.19581 0.52499 0.1542 0.0
H163 H 0.92634 0.35984 0.14451 0.0
H164 H 0.92374 0.46401 0.15865 0.0
H165 H 0.89896 0.3868 0.15745 0.0
H166 H 0.09125 0.47264 0.12758 0.0
H167 H 0.12368 0.4838 0.09805 0.0
H168 H 0.99301 0.42082 0.10691 0.0
H169 H 0.06078 0.59313 0.15174 0.0
H170 H 0.02046 0.59568 0.1232 0.0
H171 H 0.1159 0.70974 0.13598 0.0
H172 H 0.04081 0.56959 0.10015 0.0
H173 H 0.11898 0.6125 0.10266 0.0
H174 H 0.1512 0.60563 0.1178 0.0
H175 H 0.9079 0.4099 0.12521 0.0
H176 H 0.8138 0.43631 0.13603 0.0
H177 H 0.93296 0.53813 0.12646 0.0
Cd178 Cd 0.58763 0.71947 0.13482 0.0
C179 C 0.4855 0.65762 0.12678 0.0
C180 C 0.62822 0.53794 0.14591 0.0
O181 O 0.60527 0.50669 0.15177 0.0
Cd182 Cd 0.57225 0.72294 0.11716 0.0
C183 C 0.67374 0.56618 0.1474 0.0
C184 C 0.76035 0.62386 0.14649 0.0
C185 C 0.73206 0.62448 0.13988 0.0
N186 N 0.69095 0.59671 0.1409 0.0
C187 C 0.70008 0.5635 0.15425 0.0
C188 C 0.74384 0.59303 0.15378 0.0
Co189 Co 0.65595 0.59464 0.13126 0.0
C190 C 0.74122 0.65059 0.13126 0.0
O191 O 0.77923 0.68172 0.12923 0.0
C192 C 0.70794 0.66712 0.11798 0.0
C193 C 0.69191 0.69376 0.11942 0.0
C194 C 0.67829 0.70806 0.11173 0.0
C195 C 0.68877 0.70228 0.10246 0.0
C196 C 0.71133 0.68084 0.10097 0.0
C197 C 0.71954 0.66177 0.10878 0.0
C198 C 0.64615 0.72007 0.11366 0.0
C199 C 0.5662 0.52928 0.13713 0.0
C200 C 0.54253 0.53063 0.14485 0.0
C201 C 0.54511 0.50868 0.12877 0.0
C202 C 0.50147 0.49178 0.128 0.0
C203 C 0.47826 0.49434 0.13562 0.0
C204 C 0.49852 0.51296 0.14423 0.0
N205 N 0.6111 0.54664 0.13813 0.0
N206 N 0.7068 0.64174 0.12583 0.0
N207 N 0.63926 0.63206 0.13757 0.0
C208 C 0.65168 0.65029 0.1469 0.0
C209 C 0.62159 0.63889 0.15415 0.0
C210 C 0.69337 0.6819 0.1486 0.0
C211 C 0.63312 0.65755 0.1632 0.0
H212 H 0.58902 0.61601 0.15267 0.0
C213 C 0.67539 0.68839 0.16488 0.0
C214 C 0.70569 0.70107 0.1576 0.0
C215 C 0.60101 0.6454 0.17085 0.0
H216 H 0.71587 0.6925 0.14283 0.0
H217 H 0.68457 0.7031 0.17183 0.0
C218 C 0.74993 0.7348 0.15936 0.0
O219 O 0.61213 0.66428 0.17946 0.0
O220 O 0.56429 0.61835 0.1694 0.0
O221 O 0.77642 0.74555 0.15306 0.0
O222 O 0.7612 0.75393 0.16794 0.0
H223 H 0.59167 0.65709 0.18452 0.0
H224 H 0.78977 0.7762 0.16922 0.0
N225 N 0.62162 0.59291 0.12154 0.0
C226 C 0.62079 0.57149 0.11379 0.0
C227 C 0.59474 0.56898 0.10622 0.0
C228 C 0.57081 0.5895 0.10724 0.0
C229 C 0.57298 0.61152 0.1157 0.0
C230 C 0.59974 0.61271 0.12295 0.0
N231 N 0.66602 0.55661 0.12348 0.0
C232 C 0.64596 0.55042 0.1149 0.0
O233 O 0.6454 0.52383 0.10853 0.0
C234 C 0.60841 0.63401 0.13229 0.0
O235 O 0.64859 0.76794 0.14412 0.0
O236 O 0.59531 0.7221 0.15234 0.0
C237 C 0.68121 0.52963 0.12689 0.0
C238 C 0.72475 0.54554 0.12817 0.0
C239 C 0.73924 0.5197 0.13201 0.0
C240 C 0.71 0.4777 0.13426 0.0
C241 C 0.66688 0.46061 0.13241 0.0
C242 C 0.65244 0.48678 0.12876 0.0
O243 O 0.50852 0.67523 0.13406 0.0
O244 O 0.50222 0.66538 0.11857 0.0
O245 O 0.63584 0.72036 0.12231 0.0
O246 O 0.62233 0.71982 0.1071 0.0
O247 O 0.5837 0.64886 0.13584 0.0
C248 C 0.56975 0.79919 0.12483 0.0
O249 O 0.57302 0.78735 0.11657 0.0
O250 O 0.57196 0.77919 0.13205 0.0
C251 C 0.63287 0.75307 0.15222 0.0
H252 H 0.79394 0.64564 0.14595 0.0
H253 H 0.68759 0.53917 0.15965 0.0
H254 H 0.76501 0.59149 0.15893 0.0
H255 H 0.68543 0.69889 0.12665 0.0
H256 H 0.67935 0.71425 0.09645 0.0
H257 H 0.73363 0.64215 0.10769 0.0
H258 H 0.55855 0.54515 0.15143 0.0
H259 H 0.56189 0.50447 0.12296 0.0
H260 H 0.44441 0.48038 0.13489 0.0
H261 H 0.59248 0.55149 0.09983 0.0
H262 H 0.55041 0.58811 0.1015 0.0
H263 H 0.55474 0.62724 0.11648 0.0
H264 H 0.74716 0.5776 0.12609 0.0
H265 H 0.72138 0.45709 0.13676 0.0
H266 H 0.61913 0.47396 0.12731 0.0
Cd267 Cd 0.94503 0.43491 0.36249 0.0
C268 C 0.90498 0.49679 0.37062 0.0
C269 C 0.16743 0.61656 0.35145 0.0
O270 O 0.17574 0.64793 0.34563 0.0
Cd271 Cd 0.92622 0.43121 0.38021 0.0
C272 C 0.1847 0.58836 0.3499 0.0
C273 C 0.2137 0.53072 0.35071 0.0
C274 C 0.18468 0.52987 0.35732 0.0
N275 N 0.17129 0.55762 0.35635 0.0
C276 C 0.21384 0.59127 0.34305 0.0
C277 C 0.22809 0.56176 0.34347 0.0
Co278 Co 0.1383 0.55944 0.36601 0.0
C279 C 0.16766 0.50354 0.36591 0.0
O280 O 0.17456 0.47239 0.36789 0.0
C281 C 0.11771 0.4866 0.37918 0.0
C282 C 0.07497 0.46022 0.37776 0.0
C283 C 0.04713 0.44574 0.38547 0.0
C284 C 0.06349 0.45105 0.39472 0.0
C285 C 0.10751 0.47216 0.39616 0.0
C286 C 0.13475 0.49145 0.38836 0.0
C287 C 0.00299 0.43391 0.3836 0.0
C288 C 0.11389 0.62484 0.36025 0.0
C289 C 0.08881 0.62344 0.35254 0.0
C290 C 0.11328 0.64527 0.36863 0.0
C291 C 0.08637 0.66196 0.36943 0.0
C292 C 0.06055 0.65935 0.36182 0.0
C293 C 0.0623 0.64089 0.35319 0.0
N294 N 0.14155 0.60764 0.35922 0.0
N295 N 0.14197 0.51217 0.37136 0.0
N296 N 0.0842 0.52222 0.35967 0.0
C297 C 0.07838 0.50399 0.35035 0.0
C298 C 0.05964 0.51535 0.34309 0.0
C299 C 0.08842 0.47236 0.34864 0.0
C300 C 0.05244 0.49663 0.33405 0.0
H301 H 0.04998 0.53824 0.34458 0.0
C302 C 0.06385 0.46579 0.33237 0.0
C303 C 0.08152 0.45315 0.33964 0.0
C304 C 0.03241 0.50873 0.32641 0.0
H305 H 0.10033 0.46177 0.3544 0.0
H306 H 0.05826 0.45103 0.32543 0.0
C307 C 0.09199 0.4194 0.33788 0.0
O308 O 0.02458 0.48978 0.31781 0.0
O309 O 0.02278 0.5358 0.32786 0.0
O310 O 0.10775 0.40866 0.34418 0.0
O311 O 0.08408 0.40023 0.32931 0.0
H312 H 0.01126 0.49693 0.31276 0.0
H313 H 0.09036 0.37794 0.32803 0.0
N314 N 0.10565 0.56094 0.37576 0.0
C315 C 0.12621 0.58219 0.38353 0.0
C316 C 0.10264 0.58462 0.3911 0.0
C317 C 0.0582 0.56422 0.39007 0.0
C318 C 0.03839 0.54241 0.38159 0.0
C319 C 0.06398 0.54129 0.37433 0.0
N320 N 0.18639 0.59725 0.37383 0.0
C321 C 0.17246 0.60323 0.38242 0.0
O322 O 0.19846 0.62967 0.38882 0.0
C323 C 0.05139 0.52022 0.36497 0.0
O324 O 0.95745 0.3864 0.35321 0.0
O325 O 0.95 0.43217 0.34497 0.0
C326 C 0.22858 0.62436 0.37043 0.0
C327 C 0.2563 0.60857 0.36915 0.0
C328 C 0.29675 0.63462 0.36537 0.0
C329 C 0.30952 0.67669 0.3632 0.0
C330 C 0.28337 0.69364 0.36506 0.0
C331 C 0.24266 0.66727 0.36865 0.0
O332 O 0.91034 0.47925 0.36331 0.0
O333 O 0.91389 0.48887 0.37882 0.0
O334 O 0.99227 0.43384 0.37497 0.0
O335 O 0.97952 0.43403 0.3902 0.0
O336 O 0.01182 0.50543 0.36142 0.0
C337 C 0.84739 0.35508 0.37247 0.0
O338 O 0.86255 0.36676 0.38073 0.0
O339 O 0.86956 0.37521 0.36525 0.0
C340 C 0.95659 0.40121 0.3451 0.0
H341 H 0.22554 0.50897 0.35121 0.0
H342 H 0.22575 0.61577 0.33768 0.0
H343 H 0.25089 0.56348 0.33831 0.0
H344 H 0.06327 0.45537 0.37054 0.0
H345 H 0.04218 0.43893 0.40074 0.0
H346 H 0.16849 0.51082 0.38943 0.0
H347 H 0.0904 0.60904 0.34595 0.0
H348 H 0.13428 0.64946 0.37444 0.0
H349 H 0.04053 0.67315 0.36257 0.0
H350 H 0.11785 0.60198 0.3975 0.0
H351 H 0.03918 0.56557 0.39581 0.0
H352 H 0.00444 0.5268 0.38079 0.0
H353 H 0.24665 0.57646 0.37117 0.0
H354 H 0.34158 0.69745 0.36076 0.0
H355 H 0.2221 0.67999 0.37011 0.0
Cd356 Cd 0.71385 0.58219 0.3606 0.0
C357 C 0.64641 0.47967 0.36781 0.0
C358 C 0.53597 0.62947 0.35219 0.0
O359 O 0.5049 0.60743 0.34623 0.0
Cd360 Cd 0.71317 0.56305 0.37745 0.0
C361 C 0.56428 0.67518 0.35104 0.0
C362 C 0.62199 0.76154 0.35257 0.0
C363 C 0.62261 0.73222 0.35887 0.0
N364 N 0.59485 0.69132 0.35754 0.0
C365 C 0.56158 0.70261 0.3445 0.0
C366 C 0.59114 0.74624 0.34529 0.0
Co367 Co 0.59285 0.65479 0.36679 0.0
C368 C 0.64885 0.74002 0.36742 0.0
O369 O 0.68053 0.77756 0.36955 0.0
C370 C 0.66745 0.70458 0.37981 0.0
C371 C 0.69272 0.68779 0.3775 0.0
C372 C 0.70803 0.67254 0.38461 0.0
C373 C 0.70598 0.68298 0.39407 0.0
C374 C 0.68893 0.70898 0.39642 0.0
C375 C 0.66676 0.71731 0.38925 0.0
C376 C 0.71714 0.63908 0.38202 0.0
C377 C 0.52768 0.56621 0.36031 0.0
C378 C 0.53041 0.5443 0.35239 0.0
C379 C 0.50698 0.54351 0.3685 0.0
C380 C 0.4915 0.50004 0.36895 0.0
C381 C 0.49573 0.47864 0.36116 0.0
C382 C 0.51456 0.50051 0.3527 0.0
N383 N 0.54461 0.61116 0.35974 0.0
N384 N 0.64024 0.70481 0.37252 0.0
N385 N 0.62975 0.63868 0.35998 0.0
C386 C 0.64816 0.65279 0.35071 0.0
C387 C 0.6374 0.624 0.34319 0.0
C388 C 0.67953 0.69484 0.34929 0.0
C389 C 0.65631 0.63717 0.33419 0.0
H390 H 0.61482 0.59113 0.3444 0.0
C391 C 0.68696 0.67975 0.33284 0.0
C392 C 0.69909 0.70877 0.34037 0.0
C393 C 0.64464 0.60644 0.32627 0.0
H394 H 0.68978 0.71639 0.35524 0.0
H395 H 0.70197 0.69017 0.32595 0.0
C396 C 0.73271 0.75333 0.33895 0.0
O397 O 0.66317 0.61931 0.31765 0.0
O398 O 0.61825 0.5693 0.32748 0.0
O399 O 0.74259 0.77885 0.34544 0.0
O400 O 0.75273 0.76597 0.33049 0.0
H401 H 0.65625 0.59978 0.31241 0.0
H402 H 0.77492 0.79478 0.32943 0.0
N403 N 0.59117 0.6189 0.37612 0.0
C404 C 0.56951 0.61653 0.38396 0.0
C405 C 0.566 0.58833 0.39111 0.0
C406 C 0.58572 0.56393 0.38961 0.0
C407 C 0.60782 0.56765 0.38106 0.0
C408 C 0.61004 0.59649 0.37423 0.0
N409 N 0.55498 0.6637 0.37493 0.0
C410 C 0.54866 0.64206 0.38329 0.0
O411 O 0.52177 0.6401 0.38976 0.0
C412 C 0.63094 0.60638 0.36482 0.0
O413 O 0.76222 0.64382 0.35157 0.0
O414 O 0.71664 0.59175 0.34306 0.0
C415 C 0.52755 0.67877 0.37176 0.0
C416 C 0.54322 0.72228 0.37058 0.0
C417 C 0.5174 0.73663 0.36667 0.0
C418 C 0.4755 0.70735 0.36435 0.0
C419 C 0.45857 0.66422 0.36613 0.0
C420 C 0.48478 0.64987 0.36981 0.0
O421 O 0.66701 0.50278 0.36074 0.0
O422 O 0.65284 0.49574 0.37606 0.0
O423 O 0.71863 0.63188 0.3732 0.0
O424 O 0.7127 0.61168 0.3881 0.0
O425 O 0.64445 0.58138 0.36078 0.0
C426 C 0.79082 0.56119 0.37076 0.0
O427 O 0.77529 0.56007 0.37887 0.0
O428 O 0.77385 0.56684 0.36339 0.0
C429 C 0.74762 0.62926 0.34339 0.0
H430 H 0.64379 0.795 0.35336 0.0
H431 H 0.53721 0.69102 0.33911 0.0
H432 H 0.58959 0.76822 0.34038 0.0
H433 H 0.6958 0.68191 0.3701 0.0
H434 H 0.71781 0.6709 0.39959 0.0
H435 H 0.64973 0.73366 0.39089 0.0
H436 H 0.54488 0.5616 0.34593 0.0
H437 H 0.50189 0.55897 0.37447 0.0
H438 H 0.48299 0.4449 0.36166 0.0
H439 H 0.54817 0.58469 0.39754 0.0
H440 H 0.58346 0.54181 0.39501 0.0
H441 H 0.62267 0.54885 0.37988 0.0
H442 H 0.57521 0.74475 0.37269 0.0
H443 H 0.45492 0.71864 0.36177 0.0
H444 H 0.47215 0.61651 0.37113 0.0
Cd445 Cd 0.56663 0.2044 0.36198 0.0
C446 C 0.66744 0.24745 0.37106 0.0
C447 C 0.52594 0.98283 0.35216 0.0
O448 O 0.54922 0.97462 0.34639 0.0
Cd449 Cd 0.57881 0.22809 0.3801 0.0
C450 C 0.48038 0.96524 0.3506 0.0
C451 C 0.39369 0.93627 0.35133 0.0
C452 C 0.42178 0.96561 0.3579 0.0
N453 N 0.46291 0.97885 0.35698 0.0
C454 C 0.45424 0.93578 0.34381 0.0
C455 C 0.41044 0.92151 0.34419 0.0
Co456 Co 0.49769 0.01274 0.36652 0.0
C457 C 0.4124 0.98326 0.36637 0.0
O458 O 0.37434 0.97656 0.36827 0.0
C459 C 0.44541 0.03454 0.37941 0.0
C460 C 0.4622 0.0772 0.37779 0.0
C461 C 0.47474 0.10561 0.38536 0.0
C462 C 0.46275 0.09002 0.39464 0.0
C463 C 0.43976 0.04619 0.39627 0.0
C464 C 0.43237 0.01827 0.38864 0.0
C465 C 0.50665 0.14977 0.3834 0.0
C466 C 0.58755 0.03689 0.36094 0.0
C467 C 0.61119 0.06262 0.3533 0.0
C468 C 0.60847 0.03766 0.36935 0.0
C469 C 0.65183 0.06546 0.37027 0.0
C470 C 0.67494 0.09213 0.36276 0.0
C471 C 0.65492 0.09036 0.3541 0.0
N472 N 0.54274 0.00904 0.35988 0.0
N473 N 0.44672 0.00947 0.37176 0.0
N474 N 0.51433 0.06601 0.35985 0.0
C475 C 0.501 0.07091 0.35054 0.0
C476 C 0.53029 0.08855 0.3431 0.0
C477 C 0.45927 0.06117 0.34903 0.0
C478 C 0.51787 0.0948 0.33407 0.0
H479 H 0.56295 0.09816 0.34442 0.0
C480 C 0.47554 0.08367 0.33259 0.0
C481 C 0.44608 0.06723 0.34006 0.0
C482 C 0.54913 0.11357 0.32622 0.0
H483 H 0.43743 0.05023 0.35493 0.0
H484 H 0.4657 0.08859 0.32567 0.0
C485 C 0.40184 0.05721 0.33852 0.0
O486 O 0.53711 0.12024 0.31761 0.0
O487 O 0.58596 0.12321 0.32751 0.0
O488 O 0.37597 0.04215 0.34496 0.0
O489 O 0.38988 0.06479 0.32999 0.0
H490 H 0.557 0.13268 0.31242 0.0
H491 H 0.3613 0.05879 0.32885 0.0
N492 N 0.53191 0.04638 0.37613 0.0
C493 C 0.53298 0.02667 0.38401 0.0
C494 C 0.55955 0.05102 0.39143 0.0
C495 C 0.58376 0.09528 0.39012 0.0
C496 C 0.58147 0.11414 0.3815 0.0
C497 C 0.55423 0.0878 0.37441 0.0
N498 N 0.48765 0.96552 0.37462 0.0
C499 C 0.50779 0.98033 0.38316 0.0
O500 O 0.50863 0.95504 0.38969 0.0
C501 C 0.54562 0.09925 0.36493 0.0
O502 O 0.50504 0.18965 0.35273 0.0
O503 O 0.55873 0.1982 0.34448 0.0
C504 C 0.473 0.92322 0.37139 0.0
C505 C 0.42965 0.89541 0.3699 0.0
C506 C 0.41587 0.85529 0.36602 0.0
C507 C 0.44553 0.84278 0.36402 0.0
C508 C 0.48839 0.86896 0.36611 0.0
C509 C 0.50218 0.90942 0.36976 0.0
O510 O 0.64558 0.23945 0.36346 0.0
O511 O 0.64963 0.24171 0.37912 0.0
O512 O 0.51938 0.15963 0.37485 0.0
O513 O 0.5275 0.17492 0.39005 0.0
O514 O 0.57061 0.13812 0.36109 0.0
C515 C 0.57854 0.30203 0.37003 0.0
O516 O 0.57285 0.28876 0.37852 0.0
O517 O 0.58039 0.27931 0.36338 0.0
C518 C 0.52089 0.19092 0.34462 0.0
H519 H 0.36009 0.9245 0.3518 0.0
H520 H 0.46691 0.92366 0.33851 0.0
H521 H 0.38943 0.89847 0.33908 0.0
H522 H 0.4696 0.08839 0.37053 0.0
H523 H 0.47142 0.11175 0.40057 0.0
H524 H 0.41777 0.98464 0.38989 0.0
H525 H 0.5953 0.0608 0.34669 0.0
H526 H 0.59169 0.01628 0.37511 0.0
H527 H 0.70857 0.11297 0.36362 0.0
H528 H 0.56205 0.03651 0.39792 0.0
H529 H 0.60458 0.11488 0.39573 0.0
H530 H 0.60006 0.14793 0.38048 0.0
H531 H 0.40686 0.90486 0.37177 0.0
H532 H 0.43464 0.81095 0.36148 0.0
H533 H 0.53532 0.93008 0.37134 0.0
Cd534 Cd 0.71894 0.2052 0.86208 0.0
C535 C 0.66164 0.24947 0.87079 0.0
C536 C 0.53681 0.98395 0.85186 0.0
O537 O 0.50541 0.97585 0.84606 0.0
Cd538 Cd 0.72864 0.22795 0.8801 0.0
C539 C 0.5647 0.96626 0.85031 0.0
C540 C 0.62214 0.93697 0.85107 0.0
C541 C 0.62347 0.96637 0.85763 0.0
N542 N 0.59572 0.97978 0.85669 0.0
C543 C 0.56133 0.93677 0.84352 0.0
C544 C 0.59072 0.92234 0.84392 0.0
Co545 Co 0.59473 0.01354 0.86625 0.0
C546 C 0.65034 0.98383 0.86613 0.0
O547 O 0.68144 0.97681 0.86809 0.0
C548 C 0.66793 0.03441 0.8793 0.0
C549 C 0.69423 0.07709 0.87782 0.0
C550 C 0.70909 0.10512 0.88548 0.0
C551 C 0.70393 0.08903 0.89475 0.0
C552 C 0.68257 0.04507 0.89628 0.0
C553 C 0.66315 0.01764 0.88851 0.0
C554 C 0.72178 0.14942 0.88353 0.0
C555 C 0.52935 0.03807 0.86062 0.0
C556 C 0.53153 0.06378 0.85297 0.0
C557 C 0.50908 0.03884 0.86901 0.0
C558 C 0.49343 0.06658 0.8699 0.0
C559 C 0.49702 0.09318 0.86238 0.0
C560 C 0.51538 0.0914 0.85373 0.0
N561 N 0.54621 0.01013 0.85958 0.0
N562 N 0.64216 0.00998 0.87152 0.0
N563 N 0.63173 0.06695 0.85967 0.0
C564 C 0.65015 0.07203 0.85038 0.0
C565 C 0.63872 0.0899 0.84295 0.0
C566 C 0.68216 0.0623 0.84888 0.0
C567 C 0.65763 0.0964 0.83394 0.0
H568 H 0.61565 0.09948 0.84427 0.0
C569 C 0.68886 0.08531 0.83247 0.0
C570 C 0.70167 0.06863 0.83993 0.0
C571 C 0.64534 0.11538 0.8261 0.0
H572 H 0.69286 0.05115 0.85477 0.0
H573 H 0.70381 0.09042 0.82556 0.0
C574 C 0.73593 0.05867 0.83841 0.0
O575 O 0.66428 0.1223 0.81751 0.0
O576 O 0.6181 0.12495 0.82738 0.0
O577 O 0.74656 0.04341 0.84484 0.0
O578 O 0.75573 0.06654 0.8299 0.0
H579 H 0.65696 0.13488 0.81233 0.0
H580 H 0.77835 0.06059 0.82877 0.0
N581 N 0.59402 0.04702 0.87589 0.0
C582 C 0.57296 0.02716 0.88374 0.0
C583 C 0.57074 0.05139 0.89119 0.0
C584 C 0.59106 0.09569 0.88994 0.0
C585 C 0.61252 0.11473 0.88136 0.0
C586 C 0.61342 0.0885 0.87424 0.0
N587 N 0.55731 0.96621 0.8743 0.0
C588 C 0.55172 0.98084 0.88284 0.0
O589 O 0.52553 0.95541 0.88935 0.0
C590 C 0.63387 0.10016 0.86479 0.0
O591 O 0.76648 0.19111 0.85287 0.0
O592 O 0.7211 0.19912 0.84459 0.0
C593 C 0.53027 0.92376 0.8711 0.0
C594 C 0.54623 0.89612 0.86991 0.0
C595 C 0.5203 0.85556 0.86619 0.0
C596 C 0.47817 0.84257 0.86402 0.0
C597 C 0.4611 0.86866 0.86579 0.0
C598 C 0.48733 0.90948 0.8693 0.0
O599 O 0.67589 0.24121 0.86329 0.0
O600 O 0.6725 0.243 0.87892 0.0
O601 O 0.72 0.15958 0.87494 0.0
O602 O 0.72522 0.17434 0.89016 0.0
O603 O 0.64831 0.13926 0.86103 0.0
C604 C 0.80365 0.30279 0.87061 0.0
O605 O 0.79528 0.28902 0.87906 0.0
O606 O 0.77992 0.28017 0.86384 0.0
C607 C 0.75187 0.19218 0.84475 0.0
H608 H 0.64384 0.92505 0.85156 0.0
H609 H 0.53659 0.92474 0.83821 0.0
H610 H 0.58864 0.89927 0.8388 0.0
H611 H 0.69893 0.08861 0.87058 0.0
H612 H 0.71628 0.11048 0.90074 0.0
H613 H 0.64366 0.98396 0.88964 0.0
H614 H 0.54571 0.06197 0.84637 0.0
H615 H 0.50438 0.01746 0.87478 0.0
H616 H 0.48412 0.11393 0.86321 0.0
H617 H 0.55356 0.03676 0.89765 0.0
H618 H 0.58986 0.11521 0.89557 0.0
H619 H 0.62797 0.14856 0.88039 0.0
H620 H 0.57842 0.906 0.87192 0.0
H621 H 0.4575 0.81044 0.86162 0.0
H622 H 0.47451 0.93002 0.87068 0.0
Cd623 Cd 0.9513 0.58286 0.8597 0.0
C624 C 0.91113 0.48123 0.86806 0.0
C625 C 0.1763 0.62968 0.85205 0.0
O626 O 0.18561 0.60765 0.84615 0.0
Cd627 Cd 0.92769 0.56737 0.87696 0.0
C628 C 0.19395 0.67545 0.85092 0.0
C629 C 0.22239 0.76178 0.8524 0.0
C630 C 0.19204 0.73241 0.85863 0.0
N631 N 0.17912 0.69154 0.85734 0.0
C632 C 0.2245 0.70293 0.84446 0.0
C633 C 0.23847 0.74654 0.84522 0.0
Co634 Co 0.14353 0.65484 0.86643 0.0
C635 C 0.17288 0.7401 0.86707 0.0
O636 O 0.17868 0.77763 0.86918 0.0
C637 C 0.11804 0.70453 0.8793 0.0
C638 C 0.076 0.68728 0.87695 0.0
C639 C 0.04529 0.67295 0.88402 0.0
C640 C 0.0576 0.6844 0.89346 0.0
C641 C 0.10066 0.71042 0.89581 0.0
C642 C 0.13129 0.71812 0.88872 0.0
C643 C 0.00236 0.64026 0.88144 0.0
C644 C 0.12077 0.56638 0.86005 0.0
C645 C 0.09619 0.54449 0.85213 0.0
C646 C 0.11861 0.54369 0.86826 0.0
C647 C 0.09056 0.50024 0.8687 0.0
C648 C 0.06498 0.47886 0.86091 0.0
C649 C 0.06811 0.50074 0.85245 0.0
N650 N 0.14875 0.61132 0.8595 0.0
N651 N 0.14575 0.70479 0.87208 0.0
N652 N 0.0914 0.63912 0.85929 0.0
C653 C 0.08811 0.65416 0.85005 0.0
C654 C 0.0712 0.62619 0.84235 0.0
C655 C 0.09849 0.69623 0.84884 0.0
C656 C 0.06624 0.64022 0.8334 0.0
H657 H 0.0611 0.59328 0.84341 0.0
C658 C 0.07794 0.68284 0.83224 0.0
C659 C 0.09374 0.71102 0.83995 0.0
C660 C 0.04815 0.61032 0.8253 0.0
H661 H 0.10881 0.71707 0.85491 0.0
H662 H 0.07398 0.69392 0.82538 0.0
C663 C 0.1044 0.75561 0.83875 0.0
O664 O 0.04287 0.62393 0.81674 0.0
O665 O 0.03781 0.57319 0.82631 0.0
O666 O 0.11906 0.78041 0.84538 0.0
O667 O 0.09786 0.76906 0.8303 0.0
H668 H 0.03087 0.60494 0.81139 0.0
H669 H 0.10432 0.7979 0.82937 0.0
N670 N 0.10813 0.61867 0.87558 0.0
C671 C 0.12642 0.61588 0.88355 0.0
C672 C 0.10083 0.58724 0.89054 0.0
C673 C 0.05692 0.56283 0.88875 0.0
C674 C 0.03964 0.56693 0.88007 0.0
C675 C 0.06714 0.59617 0.87341 0.0
N676 N 0.18925 0.66333 0.87487 0.0
C677 C 0.17288 0.64139 0.88316 0.0
O678 O 0.19699 0.6391 0.8898 0.0
C679 C 0.05738 0.60644 0.86391 0.0
O680 O 0.9671 0.64529 0.85078 0.0
O681 O 0.95919 0.59273 0.8422 0.0
C682 C 0.23201 0.6782 0.87194 0.0
C683 C 0.25989 0.72161 0.87061 0.0
C684 C 0.30015 0.73563 0.86678 0.0
C685 C 0.31292 0.70622 0.86477 0.0
C686 C 0.28671 0.66327 0.86674 0.0
C687 C 0.24598 0.64918 0.87028 0.0
O688 O 0.9177 0.50356 0.86058 0.0
O689 O 0.917 0.49825 0.87619 0.0
O690 O 0.99464 0.63052 0.87267 0.0
O691 O 0.97688 0.61611 0.8877 0.0
O692 O 0.01944 0.58165 0.85962 0.0
C693 C 0.85296 0.56852 0.86798 0.0
O694 O 0.86564 0.57078 0.87645 0.0
O695 O 0.87617 0.56938 0.86111 0.0
C696 C 0.96673 0.63061 0.84258 0.0
H697 H 0.23392 0.79522 0.85317 0.0
H698 H 0.23761 0.69139 0.83913 0.0
H699 H 0.26232 0.76857 0.84037 0.0
H700 H 0.06718 0.6809 0.86955 0.0
H701 H 0.03359 0.67318 0.89895 0.0
H702 H 0.16464 0.73472 0.89039 0.0
H703 H 0.09914 0.56182 0.84567 0.0
H704 H 0.13906 0.55919 0.87424 0.0
H705 H 0.04389 0.44513 0.86141 0.0
H706 H 0.1142 0.58324 0.89706 0.0
H707 H 0.0364 0.54038 0.89402 0.0
H708 H 0.00615 0.54808 0.87866 0.0
H709 H 0.25031 0.74424 0.87251 0.0
H710 H 0.34489 0.71732 0.86227 0.0
H711 H 0.2252 0.61593 0.87171 0.0
Cd712 Cd 0.57265 0.4376 0.86037 0.0
C713 C 0.67607 0.50583 0.86683 0.0
C714 C 0.52821 0.61741 0.85253 0.0
O715 O 0.55064 0.64871 0.84664 0.0
Cd716 Cd 0.59388 0.44114 0.87696 0.0
C717 C 0.48248 0.58936 0.85127 0.0
C718 C 0.39595 0.53172 0.85257 0.0
C719 C 0.42489 0.53085 0.85894 0.0
N720 N 0.46589 0.55866 0.85775 0.0
C721 C 0.45543 0.5923 0.84467 0.0
C722 C 0.41172 0.56281 0.84534 0.0
Co723 Co 0.50192 0.56005 0.86704 0.0
C724 C 0.4166 0.50419 0.86744 0.0
O725 O 0.37892 0.47247 0.86947 0.0
C726 C 0.45146 0.48517 0.8799 0.0
C727 C 0.46761 0.4594 0.87755 0.0
C728 C 0.48354 0.44452 0.8846 0.0
C729 C 0.47439 0.44762 0.89412 0.0
C730 C 0.4489 0.46519 0.89659 0.0
C731 C 0.43995 0.48682 0.8894 0.0
C732 C 0.51691 0.43547 0.88185 0.0
C733 C 0.59103 0.62597 0.86095 0.0
C734 C 0.61418 0.62424 0.85316 0.0
C735 C 0.61263 0.64668 0.86925 0.0
C736 C 0.65623 0.66315 0.86992 0.0
C737 C 0.67889 0.66001 0.86226 0.0
C738 C 0.65815 0.6413 0.8537 0.0
N739 N 0.54604 0.60844 0.86012 0.0
N740 N 0.45156 0.5126 0.87263 0.0
N741 N 0.51799 0.52324 0.8602 0.0
C742 C 0.5043 0.50544 0.85087 0.0
C743 C 0.53346 0.51685 0.8434 0.0
C744 C 0.46236 0.47396 0.84935 0.0
C745 C 0.5208 0.49825 0.83436 0.0
H746 H 0.56621 0.53965 0.8447 0.0
C747 C 0.47835 0.4674 0.83291 0.0
C748 C 0.44895 0.45477 0.84039 0.0
C749 C 0.55195 0.51042 0.8265 0.0
H750 H 0.44052 0.46335 0.85525 0.0
H751 H 0.46834 0.45265 0.82599 0.0
C752 C 0.40453 0.42099 0.83886 0.0
O753 O 0.53965 0.49195 0.81787 0.0
O754 O 0.58893 0.53715 0.82779 0.0
O755 O 0.37867 0.41066 0.84529 0.0
O756 O 0.39239 0.40132 0.83035 0.0
H757 H 0.55947 0.49917 0.81268 0.0
H758 H 0.36368 0.37902 0.82922 0.0
N759 N 0.53734 0.56108 0.87641 0.0
C760 C 0.53949 0.5824 0.88429 0.0
C761 C 0.56734 0.58542 0.89148 0.0
C762 C 0.59165 0.56561 0.88997 0.0
C763 C 0.58815 0.54384 0.88138 0.0
C764 C 0.5596 0.54203 0.87452 0.0
N765 N 0.4929 0.59767 0.87523 0.0
C766 C 0.51415 0.60348 0.88363 0.0
O767 O 0.51586 0.63 0.89016 0.0
C768 C 0.54986 0.52142 0.86508 0.0
O769 O 0.51138 0.38957 0.85111 0.0
O770 O 0.56384 0.43599 0.84282 0.0
C771 C 0.47766 0.62504 0.87213 0.0
C772 C 0.43409 0.6092 0.87094 0.0
C773 C 0.41955 0.63503 0.86714 0.0
C774 C 0.44867 0.67709 0.86493 0.0
C775 C 0.49184 0.69416 0.86671 0.0
C776 C 0.5064 0.66796 0.87028 0.0
O777 O 0.65208 0.48366 0.86002 0.0
O778 O 0.66086 0.5016 0.87512 0.0
O779 O 0.52251 0.43233 0.87299 0.0
O780 O 0.54585 0.44207 0.8877 0.0
O781 O 0.57465 0.50762 0.86105 0.0
C782 C 0.59588 0.36281 0.87086 0.0
O783 O 0.59859 0.38007 0.87882 0.0
O784 O 0.58833 0.37796 0.86342 0.0
C785 C 0.52643 0.40481 0.843 0.0
H786 H 0.36242 0.50991 0.85325 0.0
H787 H 0.46739 0.61679 0.8393 0.0
H788 H 0.39003 0.56455 0.84037 0.0
H789 H 0.47299 0.45607 0.87012 0.0
H790 H 0.48735 0.43648 0.89958 0.0
H791 H 0.42418 0.50438 0.89106 0.0
H792 H 0.59775 0.60979 0.84662 0.0
H793 H 0.59623 0.65116 0.87511 0.0
H794 H 0.71272 0.67359 0.86293 0.0
H795 H 0.57081 0.60297 0.89794 0.0
H796 H 0.61352 0.56751 0.89539 0.0
H797 H 0.60686 0.5289 0.8802 0.0
H798 H 0.41173 0.57707 0.87297 0.0
H799 H 0.43722 0.69764 0.86243 0.0
H800 H 0.53979 0.6807 0.87161 0.0
Cd801 Cd 0.21173 0.71764 0.63793 0.0
C802 C 0.24506 0.64711 0.63231 0.0
C803 C 0.98713 0.53767 0.64498 0.0
O804 O 0.97795 0.50615 0.65083 0.0
Cd805 Cd 0.22866 0.7107 0.62159 0.0
C806 C 0.96968 0.5659 0.64627 0.0
C807 C 0.94142 0.62405 0.64506 0.0
C808 C 0.97118 0.62481 0.63868 0.0
N809 N 0.98405 0.59675 0.63984 0.0
C810 C 0.93972 0.56303 0.65288 0.0
C811 C 0.92582 0.59278 0.65226 0.0
Co812 Co 0.01885 0.59546 0.63057 0.0
C813 C 0.98991 0.65173 0.63023 0.0
O814 O 0.98435 0.68374 0.62826 0.0
C815 C 0.04426 0.671 0.61787 0.0
C816 C 0.08602 0.69676 0.62037 0.0
C817 C 0.11732 0.71161 0.61342 0.0
C818 C 0.10575 0.70865 0.60385 0.0
C819 C 0.06286 0.69111 0.60123 0.0
C820 C 0.03178 0.66943 0.60832 0.0
C821 C 0.1593 0.71987 0.61634 0.0
C822 C 0.0412 0.52885 0.63654 0.0
C823 C 0.06585 0.53011 0.64433 0.0
C824 C 0.04197 0.50827 0.62821 0.0
C825 C 0.06877 0.49143 0.6275 0.0
C826 C 0.09434 0.49407 0.63517 0.0
C827 C 0.0924 0.51266 0.64376 0.0
N828 N 0.01405 0.54671 0.63741 0.0
N829 N 0.01644 0.64328 0.62504 0.0
N830 N 0.07161 0.63183 0.6375 0.0
C831 C 0.07545 0.64892 0.64691 0.0
C832 C 0.09321 0.63715 0.65431 0.0
C833 C 0.06448 0.67991 0.64859 0.0
C834 C 0.09865 0.6549 0.66342 0.0
H835 H 0.10356 0.61473 0.65289 0.0
C836 C 0.08631 0.68508 0.66505 0.0
C837 C 0.06948 0.69804 0.65766 0.0
C838 C 0.11792 0.64259 0.67119 0.0
H839 H 0.05336 0.69092 0.64275 0.0
H840 H 0.09054 0.69909 0.67205 0.0
C841 C 0.05788 0.73102 0.65938 0.0
O842 O 0.12418 0.66071 0.67986 0.0
O843 O 0.12838 0.61609 0.66979 0.0
O844 O 0.04276 0.74195 0.65298 0.0
O845 O 0.06403 0.74924 0.66804 0.0
H846 H 0.13702 0.65344 0.685 0.0
H847 H 0.05697 0.77099 0.6693 0.0
N848 N 0.05341 0.59457 0.62122 0.0
C849 C 0.0344 0.57358 0.6133 0.0
C850 C 0.05932 0.57061 0.60612 0.0
C851 C 0.10339 0.59012 0.60769 0.0
C852 C 0.12148 0.61159 0.61632 0.0
C853 C 0.09467 0.61344 0.62315 0.0
N854 N 0.97233 0.55824 0.62229 0.0
C855 C 0.98797 0.5527 0.61389 0.0
O856 O 0.96328 0.52644 0.6073 0.0
C857 C 0.10539 0.6338 0.63262 0.0
O858 O 0.19668 0.76436 0.64725 0.0
O859 O 0.20413 0.71873 0.65549 0.0
C860 C 0.92969 0.53059 0.62536 0.0
C861 C 0.90205 0.54637 0.62676 0.0
C862 C 0.86174 0.52027 0.63058 0.0
C863 C 0.8487 0.47798 0.63254 0.0
C864 C 0.87465 0.46098 0.63052 0.0
C865 C 0.91543 0.48747 0.62696 0.0
O866 O 0.245 0.67156 0.63879 0.0
O867 O 0.23264 0.64907 0.62401 0.0
O868 O 0.16791 0.72418 0.62521 0.0
O869 O 0.18073 0.71094 0.61072 0.0
O870 O 0.14392 0.64746 0.63668 0.0
C871 C 0.30978 0.7902 0.62722 0.0
O872 O 0.29546 0.77042 0.61949 0.0
O873 O 0.28687 0.77741 0.63469 0.0
C874 C 0.19678 0.74916 0.65534 0.0
H875 H 0.92999 0.64609 0.64442 0.0
H876 H 0.92699 0.53843 0.65823 0.0
H877 H 0.90244 0.59112 0.65723 0.0
H878 H 0.0942 0.69983 0.62783 0.0
H879 H 0.13024 0.71972 0.59847 0.0
H880 H 0.99857 0.65182 0.60655 0.0
H881 H 0.06399 0.5445 0.65089 0.0
H882 H 0.02123 0.50416 0.62235 0.0
H883 H 0.11435 0.48023 0.63448 0.0
H884 H 0.04536 0.5533 0.59963 0.0
H885 H 0.12342 0.58822 0.60228 0.0
H886 H 0.15508 0.62628 0.61754 0.0
H887 H 0.9118 0.57865 0.62489 0.0
H888 H 0.81671 0.45725 0.63503 0.0
H889 H 0.93599 0.47479 0.62546 0.0
Cd890 Cd 0.446 0.57333 0.63802 0.0
C891 C 0.5038 0.67429 0.62919 0.0
C892 C 0.62363 0.52591 0.64627 0.0
O893 O 0.6546 0.54745 0.6523 0.0
Cd894 Cd 0.43263 0.58668 0.6204 0.0
C895 C 0.59538 0.48007 0.64721 0.0
C896 C 0.53741 0.39391 0.64535 0.0
C897 C 0.53689 0.42381 0.63923 0.0
N898 N 0.56488 0.46454 0.64068 0.0
C899 C 0.59795 0.45203 0.65358 0.0
C900 C 0.56829 0.4085 0.65262 0.0
Co901 Co 0.56659 0.50202 0.63174 0.0
C902 C 0.51057 0.41688 0.63073 0.0
O903 O 0.479 0.37953 0.62843 0.0
C904 C 0.49251 0.4535 0.61852 0.0
C905 C 0.46801 0.47123 0.62073 0.0
C906 C 0.45159 0.48507 0.61357 0.0
C907 C 0.45263 0.47322 0.60418 0.0
C908 C 0.46971 0.44712 0.60196 0.0
C909 C 0.4923 0.4395 0.60915 0.0
C910 C 0.43986 0.51678 0.61606 0.0
C911 C 0.63243 0.58989 0.63841 0.0
C912 C 0.62918 0.61149 0.64632 0.0
C913 C 0.65394 0.61289 0.63031 0.0
C914 C 0.66983 0.65644 0.62996 0.0
C915 C 0.66509 0.67756 0.63773 0.0
C916 C 0.64528 0.65532 0.64609 0.0
N917 N 0.615 0.54487 0.63886 0.0
N918 N 0.51911 0.45262 0.62586 0.0
N919 N 0.52987 0.51724 0.63889 0.0
C920 C 0.51051 0.501 0.64799 0.0
C921 C 0.5213 0.52781 0.6559 0.0
C922 C 0.47819 0.45899 0.64886 0.0
C923 C 0.50141 0.5126 0.66474 0.0
H924 H 0.54463 0.56073 0.65511 0.0
C925 C 0.46985 0.47003 0.66554 0.0
C926 C 0.45772 0.44305 0.65761 0.0
C927 C 0.513 0.54125 0.67307 0.0
H928 H 0.46796 0.43912 0.64262 0.0
H929 H 0.45412 0.45806 0.6723 0.0
C930 C 0.42312 0.39856 0.65845 0.0
O931 O 0.49332 0.52651 0.68151 0.0
O932 O 0.54034 0.57835 0.67236 0.0
O933 O 0.41313 0.37481 0.65161 0.0
O934 O 0.40234 0.38402 0.66678 0.0
H935 H 0.50016 0.54468 0.68701 0.0
H936 H 0.37951 0.35523 0.66746 0.0
N937 N 0.56802 0.53905 0.62273 0.0
C938 C 0.58959 0.54253 0.6148 0.0
C939 C 0.5933 0.57195 0.60795 0.0
C940 C 0.57391 0.59638 0.60983 0.0
C941 C 0.55199 0.59155 0.61847 0.0
C942 C 0.54967 0.56159 0.625 0.0
N943 N 0.60416 0.49409 0.62328 0.0
C944 C 0.61032 0.5168 0.61509 0.0
O945 O 0.63703 0.51954 0.60848 0.0
C946 C 0.52902 0.55047 0.63443 0.0
O947 O 0.39867 0.51004 0.64659 0.0
O948 O 0.44312 0.56178 0.65541 0.0
C949 C 0.63162 0.47863 0.62616 0.0
C950 C 0.6158 0.43504 0.62723 0.0
C951 C 0.64171 0.42036 0.63093 0.0
C952 C 0.68387 0.44938 0.63309 0.0
C953 C 0.70089 0.49258 0.63138 0.0
C954 C 0.67458 0.50726 0.62796 0.0
O955 O 0.49092 0.65241 0.63681 0.0
O956 O 0.48997 0.65679 0.62118 0.0
O957 O 0.44331 0.52813 0.62472 0.0
O958 O 0.43437 0.53809 0.60971 0.0
O959 O 0.51533 0.57468 0.63878 0.0
C960 C 0.35872 0.58447 0.63077 0.0
O961 O 0.36575 0.57919 0.62222 0.0
O962 O 0.3842 0.58689 0.63727 0.0
C963 C 0.41262 0.524 0.65485 0.0
H964 H 0.51547 0.36054 0.64445 0.0
H965 H 0.62226 0.4631 0.65898 0.0
H966 H 0.56975 0.38606 0.6574 0.0
H967 H 0.46521 0.47773 0.6281 0.0
H968 H 0.43976 0.48402 0.59862 0.0
H969 H 0.50882 0.42256 0.60758 0.0
H970 H 0.61402 0.59388 0.6527 0.0
H971 H 0.65926 0.59755 0.62435 0.0
H972 H 0.67809 0.71136 0.6373 0.0
H973 H 0.61108 0.57651 0.60146 0.0
H974 H 0.57634 0.61942 0.60467 0.0
H975 H 0.53746 0.61043 0.61996 0.0
H976 H 0.58364 0.41277 0.62521 0.0
H977 H 0.70451 0.43785 0.63547 0.0
H978 H 0.6873 0.54069 0.62671 0.0
Cd979 Cd 0.5907 0.95087 0.63518 0.0
C980 C 0.48856 0.90616 0.62655 0.0
C981 C 0.62875 0.17065 0.6451 0.0
O982 O 0.60469 0.17734 0.65096 0.0
Cd983 Cd 0.57704 0.92868 0.61727 0.0
C984 C 0.67455 0.18949 0.64662 0.0
C985 C 0.76158 0.21995 0.64597 0.0
C986 C 0.73399 0.19067 0.63932 0.0
N987 N 0.69274 0.17696 0.64018 0.0
C988 C 0.70019 0.21878 0.6535 0.0
C989 C 0.74416 0.23388 0.65314 0.0
Co990 Co 0.65842 0.14235 0.6307 0.0
C991 C 0.74391 0.1733 0.63087 0.0
O992 O 0.78222 0.18068 0.62899 0.0
C993 C 0.71142 0.12196 0.61776 0.0
C994 C 0.69453 0.0792 0.61929 0.0
C995 C 0.68116 0.05095 0.61168 0.0
C996 C 0.69242 0.06677 0.6024 0.0
C997 C 0.7156 0.11069 0.60082 0.0
C998 C 0.72376 0.13842 0.60854 0.0
C999 C 0.64917 0.00678 0.61369 0.0
C1000 C 0.56808 0.11649 0.63601 0.0
C1001 C 0.54439 0.08763 0.6432 0.0
C1002 C 0.5478 0.11707 0.62761 0.0
C1003 C 0.50535 0.08723 0.62615 0.0
C1004 C 0.48246 0.05704 0.63312 0.0
C1005 C 0.50157 0.05709 0.64182 0.0
N1006 N 0.61266 0.14483 0.63731 0.0
N1007 N 0.70981 0.14668 0.62546 0.0
N1008 N 0.64339 0.08985 0.63749 0.0
C1009 C 0.66 0.08581 0.64645 0.0
C1010 C 0.63425 0.07198 0.65454 0.0
C1011 C 0.70133 0.09304 0.64703 0.0
C1012 C 0.64956 0.06618 0.66325 0.0
H1013 H 0.60218 0.06536 0.65399 0.0
C1014 C 0.69132 0.07424 0.66375 0.0
C1015 C 0.71741 0.08747 0.65566 0.0
C1016 C 0.62192 0.0512 0.67179 0.0
H1017 H 0.72066 0.10196 0.64071 0.0
H1018 H 0.70336 0.06964 0.67042 0.0
C1019 C 0.76111 0.09475 0.6562 0.0
O1020 O 0.63663 0.04478 0.68007 0.0
O1021 O 0.58568 0.0445 0.67138 0.0
O1022 O 0.78401 0.10669 0.6492 0.0
O1023 O 0.77587 0.08811 0.66446 0.0
H1024 H 0.61908 0.03476 0.6857 0.0
H1025 H 0.80414 0.09238 0.66496 0.0
N1026 N 0.62438 0.10782 0.62118 0.0
C1027 C 0.62193 0.12689 0.61332 0.0
C1028 C 0.59439 0.10188 0.60611 0.0
C1029 C 0.57052 0.05772 0.60761 0.0
C1030 C 0.574 0.03962 0.61623 0.0
C1031 C 0.60218 0.06658 0.62312 0.0
N1032 N 0.66713 0.18881 0.62251 0.0
C1033 C 0.64644 0.17333 0.61405 0.0
O1034 O 0.64476 0.19804 0.60749 0.0
C1035 C 0.61178 0.05604 0.63261 0.0
O1036 O 0.65166 0.96373 0.64449 0.0
O1037 O 0.59837 0.95687 0.65264 0.0
C1038 C 0.68268 0.23152 0.62555 0.0
C1039 C 0.72635 0.25918 0.62665 0.0
C1040 C 0.74117 0.29984 0.63031 0.0
C1041 C 0.71218 0.31298 0.63251 0.0
C1042 C 0.66893 0.28685 0.63084 0.0
C1043 C 0.65412 0.2459 0.62739 0.0
O1044 O 0.51145 0.91473 0.63399 0.0
O1045 O 0.50563 0.91287 0.61838 0.0
O1046 O 0.63774 0.99673 0.62232 0.0
O1047 O 0.62697 0.98202 0.60711 0.0
O1048 O 0.58748 0.01742 0.63662 0.0
C1049 C 0.57682 0.85318 0.62645 0.0
O1050 O 0.58194 0.86718 0.61803 0.0
O1051 O 0.57634 0.8758 0.63331 0.0
C1052 C 0.63586 0.96319 0.65256 0.0
H1053 H 0.79528 0.23219 0.64555 0.0
H1054 H 0.68698 0.23007 0.65886 0.0
H1055 H 0.76478 0.25679 0.65832 0.0
H1056 H 0.6874 0.06775 0.62651 0.0
H1057 H 0.68319 0.04514 0.59643 0.0
H1058 H 0.73832 0.17209 0.60735 0.0
H1059 H 0.55948 0.0896 0.64992 0.0
H1060 H 0.56452 0.14066 0.62222 0.0
H1061 H 0.44989 0.03389 0.63166 0.0
H1062 H 0.59076 0.11583 0.59964 0.0
H1063 H 0.54891 0.03763 0.60217 0.0
H1064 H 0.55549 0.00594 0.61743 0.0
H1065 H 0.74857 0.24919 0.62463 0.0
H1066 H 0.72377 0.34513 0.63491 0.0
H1067 H 0.62068 0.22529 0.62613 0.0
Cd1068 Cd 0.10629 0.28286 0.46851 0.0
C1069 C 0.1597 0.2356 0.45921 0.0
C1070 C 0.28796 0.50517 0.4785 0.0
O1071 O 0.31958 0.51395 0.48428 0.0
Cd1072 Cd 0.09071 0.25637 0.45004 0.0
C1073 C 0.25978 0.52256 0.47996 0.0
C1074 C 0.20178 0.55111 0.47902 0.0
C1075 C 0.20064 0.52143 0.47257 0.0
N1076 N 0.22866 0.50841 0.47359 0.0
C1077 C 0.26298 0.55238 0.48664 0.0
C1078 C 0.23331 0.56643 0.48615 0.0
Co1079 Co 0.2298 0.47416 0.46416 0.0
C1080 C 0.17368 0.50324 0.46411 0.0
O1081 O 0.14239 0.50988 0.46208 0.0
C1082 C 0.15631 0.452 0.4511 0.0
C1083 C 0.13063 0.40922 0.4526 0.0
C1084 C 0.115 0.38124 0.44494 0.0
C1085 C 0.1192 0.39735 0.4357 0.0
C1086 C 0.14025 0.44129 0.43419 0.0
C1087 C 0.1601 0.46876 0.44192 0.0
C1088 C 0.1015 0.33672 0.44683 0.0
C1089 C 0.29619 0.45126 0.46987 0.0
C1090 C 0.29427 0.42591 0.47755 0.0
C1091 C 0.3169 0.45082 0.46152 0.0
C1092 C 0.3334 0.42375 0.46072 0.0
C1093 C 0.33018 0.39754 0.46831 0.0
C1094 C 0.31127 0.39903 0.47689 0.0
N1095 N 0.27869 0.47863 0.47085 0.0
N1096 N 0.18196 0.47682 0.45885 0.0
N1097 N 0.19331 0.4211 0.47094 0.0
C1098 C 0.17488 0.41653 0.48021 0.0
C1099 C 0.1866 0.39941 0.48774 0.0
C1100 C 0.14268 0.42606 0.4816 0.0
C1101 C 0.16778 0.3935 0.49675 0.0
H1102 H 0.20984 0.38997 0.48651 0.0
C1103 C 0.13641 0.4045 0.49811 0.0
C1104 C 0.12334 0.42042 0.49054 0.0
C1105 C 0.18029 0.37523 0.50469 0.0
H1106 H 0.13174 0.43655 0.47562 0.0
H1107 H 0.12157 0.39988 0.50502 0.0
C1108 C 0.08897 0.43032 0.49196 0.0
O1109 O 0.16125 0.36862 0.51327 0.0
O1110 O 0.20779 0.36594 0.50353 0.0
O1111 O 0.07797 0.44473 0.48543 0.0
O1112 O 0.06952 0.42336 0.50049 0.0
H1113 H 0.16871 0.3565 0.51852 0.0
H1114 H 0.04684 0.42929 0.50156 0.0
N1115 N 0.23065 0.44014 0.45467 0.0
C1116 C 0.25143 0.45953 0.44675 0.0
C1117 C 0.25375 0.43492 0.43942 0.0
C1118 C 0.23379 0.39072 0.44083 0.0
C1119 C 0.21259 0.37219 0.44946 0.0
C1120 C 0.21163 0.3988 0.45647 0.0
N1121 N 0.26678 0.521 0.45596 0.0
C1122 C 0.27233 0.50589 0.44748 0.0
O1123 O 0.29841 0.53097 0.44091 0.0
C1124 C 0.19136 0.38767 0.46594 0.0
O1125 O 0.05924 0.29819 0.47754 0.0
O1126 O 0.10433 0.29012 0.48594 0.0
C1127 C 0.29403 0.56353 0.45907 0.0
C1128 C 0.2781 0.59115 0.46028 0.0
C1129 C 0.30401 0.63162 0.46402 0.0
C1130 C 0.34612 0.64459 0.46621 0.0
C1131 C 0.36319 0.61849 0.46443 0.0
C1132 C 0.33696 0.57774 0.46088 0.0
O1133 O 0.14825 0.24601 0.46684 0.0
O1134 O 0.14622 0.24006 0.45121 0.0
O1135 O 0.10492 0.32649 0.45531 0.0
O1136 O 0.09445 0.31085 0.44015 0.0
O1137 O 0.17687 0.34875 0.46981 0.0
C1138 C 0.01804 0.18517 0.46127 0.0
O1139 O 0.02317 0.19815 0.45276 0.0
O1140 O 0.04483 0.20783 0.4676 0.0
C1141 C 0.07377 0.29739 0.48569 0.0
H1142 H 0.17985 0.56273 0.47846 0.0
H1143 H 0.28782 0.56494 0.49193 0.0
H1144 H 0.23526 0.58974 0.49118 0.0
H1145 H 0.12644 0.39764 0.45983 0.0
H1146 H 0.10625 0.37592 0.42972 0.0
H1147 H 0.17908 0.50248 0.44079 0.0
H1148 H 0.27962 0.42745 0.4841 0.0
H1149 H 0.32128 0.47193 0.45571 0.0
H1150 H 0.3437 0.37728 0.46755 0.0
H1151 H 0.27075 0.44917 0.4329 0.0
H1152 H 0.23507 0.37091 0.43527 0.0
H1153 H 0.1974 0.33844 0.45055 0.0
H1154 H 0.24591 0.58129 0.45827 0.0
H1155 H 0.36676 0.67667 0.46864 0.0
H1156 H 0.34973 0.55714 0.45952 0.0
Cd1157 Cd 0.87536 0.90487 0.47097 0.0
C1158 C 0.91011 0.00759 0.46396 0.0
C1159 C 0.65005 0.85869 0.47848 0.0
O1160 O 0.64091 0.8811 0.48431 0.0
Cd1161 Cd 0.89427 0.92477 0.45418 0.0
C1162 C 0.63258 0.81303 0.47979 0.0
C1163 C 0.60422 0.72663 0.47859 0.0
C1164 C 0.63422 0.75559 0.47225 0.0
N1165 N 0.64713 0.79653 0.4734 0.0
C1166 C 0.60239 0.78597 0.48636 0.0
C1167 C 0.58845 0.74232 0.48574 0.0
Co1168 Co 0.68205 0.83256 0.46414 0.0
C1169 C 0.65304 0.74737 0.46382 0.0
O1170 O 0.64732 0.70976 0.46184 0.0
C1171 C 0.70729 0.78236 0.45143 0.0
C1172 C 0.74927 0.79903 0.4538 0.0
C1173 C 0.78011 0.81484 0.44674 0.0
C1174 C 0.76793 0.80516 0.43723 0.0
C1175 C 0.72493 0.77943 0.43478 0.0
C1176 C 0.69422 0.77048 0.44194 0.0
C1177 C 0.82252 0.84832 0.44945 0.0
C1178 C 0.70465 0.92145 0.47012 0.0
C1179 C 0.72953 0.94439 0.47792 0.0
C1180 C 0.70592 0.94313 0.4618 0.0
C1181 C 0.73342 0.98663 0.46112 0.0
C1182 C 0.75926 0.00908 0.46879 0.0
C1183 C 0.75691 0.98824 0.47736 0.0
N1184 N 0.67711 0.87652 0.47093 0.0
N1185 N 0.67973 0.78234 0.45865 0.0
N1186 N 0.73472 0.84897 0.47112 0.0
C1187 C 0.73868 0.83509 0.48044 0.0
C1188 C 0.75624 0.86406 0.48794 0.0
C1189 C 0.72848 0.79321 0.48191 0.0
C1190 C 0.76225 0.85128 0.49696 0.0
H1191 H 0.76607 0.8968 0.48669 0.0
C1192 C 0.75087 0.80887 0.49837 0.0
C1193 C 0.73428 0.77966 0.49086 0.0
C1194 C 0.78113 0.88226 0.50484 0.0
H1195 H 0.71751 0.77154 0.47599 0.0
H1196 H 0.75565 0.79876 0.50527 0.0
C1197 C 0.7239 0.7353 0.49234 0.0
O1198 O 0.78749 0.86986 0.51344 0.0
O1199 O 0.79114 0.91919 0.50361 0.0
O1200 O 0.70857 0.7096 0.48588 0.0
O1201 O 0.73145 0.72303 0.50083 0.0
H1202 H 0.80004 0.88957 0.51866 0.0
H1203 H 0.72521 0.69436 0.50193 0.0
N1204 N 0.71675 0.86801 0.4548 0.0
C1205 C 0.69787 0.86997 0.44686 0.0
C1206 C 0.72291 0.89787 0.43969 0.0
C1207 C 0.76695 0.92243 0.4413 0.0
C1208 C 0.78489 0.91914 0.44996 0.0
C1209 C 0.75794 0.89055 0.45679 0.0
N1210 N 0.63567 0.82321 0.45581 0.0
C1211 C 0.65144 0.8444 0.44741 0.0
O1212 O 0.62685 0.84594 0.44079 0.0
C1213 C 0.76849 0.881 0.46629 0.0
O1214 O 0.86157 0.84316 0.48008 0.0
O1215 O 0.86828 0.89545 0.48853 0.0
C1216 C 0.59301 0.80835 0.45883 0.0
C1217 C 0.56515 0.76495 0.4602 0.0
C1218 C 0.52469 0.7509 0.46392 0.0
C1219 C 0.51182 0.78031 0.46585 0.0
C1220 C 0.53805 0.82325 0.46387 0.0
C1221 C 0.5789 0.83734 0.4604 0.0
O1222 O 0.90794 0.98437 0.47098 0.0
O1223 O 0.90046 0.99174 0.4557 0.0
O1224 O 0.8309 0.85504 0.4583 0.0
O1225 O 0.84553 0.87622 0.44346 0.0
O1226 O 0.80686 0.90598 0.47039 0.0
C1227 C 0.97357 0.92608 0.4609 0.0
O1228 O 0.95963 0.92811 0.4528 0.0
O1229 O 0.95062 0.91983 0.46824 0.0
C1230 C 0.86169 0.85791 0.48824 0.0
H1231 H 0.59272 0.69314 0.47794 0.0
H1232 H 0.58951 0.79785 0.49166 0.0
H1233 H 0.56487 0.72061 0.49068 0.0
H1234 H 0.75794 0.80472 0.46122 0.0
H1235 H 0.79204 0.81785 0.43176 0.0
H1236 H 0.6609 0.75442 0.44025 0.0
H1237 H 0.72729 0.92787 0.48446 0.0
H1238 H 0.68515 0.92683 0.45592 0.0
H1239 H 0.77987 0.04283 0.46812 0.0
H1240 H 0.70905 0.90118 0.43318 0.0
H1241 H 0.78707 0.94433 0.4359 0.0
H1242 H 0.81847 0.93804 0.45122 0.0
H1243 H 0.57483 0.74232 0.45836 0.0
H1244 H 0.47975 0.7692 0.46826 0.0
H1245 H 0.59963 0.87056 0.45892 0.0
Cd1246 Cd 0.25407 0.05166 0.46914 0.0
C1247 C 0.15173 0.98786 0.46116 0.0
C1248 C 0.29184 0.86534 0.47753 0.0
O1249 O 0.2676 0.83279 0.48296 0.0
Cd1250 Cd 0.23839 0.05229 0.45223 0.0
C1251 C 0.3374 0.89195 0.47933 0.0
C1252 C 0.4245 0.94804 0.47916 0.0
C1253 C 0.39752 0.95132 0.4726 0.0
N1254 N 0.3561 0.92406 0.47325 0.0
C1255 C 0.36239 0.88658 0.4861 0.0
C1256 C 0.40641 0.9153 0.486 0.0
Co1257 Co 0.32266 0.92618 0.46374 0.0
C1258 C 0.40829 0.98018 0.46443 0.0
O1259 O 0.44684 0.01124 0.46283 0.0
C1260 C 0.37743 0.00197 0.45158 0.0
C1261 C 0.36246 0.02916 0.45355 0.0
C1262 C 0.34898 0.04526 0.44619 0.0
C1263 C 0.3589 0.04087 0.43675 0.0
C1264 C 0.38061 0.01895 0.43476 0.0
C1265 C 0.38841 0.998 0.44222 0.0
C1266 C 0.31609 0.05582 0.44851 0.0
C1267 C 0.23151 0.86065 0.4687 0.0
C1268 C 0.20697 0.86052 0.47641 0.0
C1269 C 0.21142 0.84281 0.46006 0.0
C1270 C 0.1682 0.82777 0.45898 0.0
C1271 C 0.14433 0.82946 0.46657 0.0
C1272 C 0.16338 0.84506 0.47545 0.0
N1273 N 0.27617 0.87691 0.46995 0.0
N1274 N 0.37476 0.97391 0.45896 0.0
N1275 N 0.3072 0.96289 0.47074 0.0
C1276 C 0.31949 0.97726 0.48033 0.0
C1277 C 0.28982 0.96146 0.48771 0.0
C1278 C 0.36154 0.00681 0.48239 0.0
C1279 C 0.30237 0.97238 0.49722 0.0
H1280 H 0.257 0.94073 0.48601 0.0
C1281 C 0.34514 0.00064 0.49922 0.0
C1282 C 0.37483 0.01869 0.49183 0.0
C1283 C 0.27089 0.95476 0.50504 0.0
H1284 H 0.38377 0.02085 0.47661 0.0
H1285 H 0.35513 0.00935 0.50653 0.0
C1286 C 0.41956 0.04997 0.49399 0.0
O1287 O 0.28292 0.96675 0.51414 0.0
O1288 O 0.2339 0.92939 0.50332 0.0
O1289 O 0.44572 0.06438 0.48759 0.0
O1290 O 0.43166 0.06282 0.50303 0.0
H1291 H 0.26292 0.95577 0.51934 0.0
H1292 H 0.46064 0.08329 0.50459 0.0
N1293 N 0.28981 0.92859 0.45417 0.0
C1294 C 0.28848 0.9087 0.44611 0.0
C1295 C 0.26269 0.90848 0.43873 0.0
C1296 C 0.23941 0.92938 0.44027 0.0
C1297 C 0.24192 0.94947 0.44905 0.0
C1298 C 0.26847 0.94856 0.45609 0.0
N1299 N 0.33199 0.88966 0.45528 0.0
C1300 C 0.31246 0.88617 0.44674 0.0
O1301 O 0.31146 0.86092 0.43996 0.0
C1302 C 0.27721 0.96739 0.46572 0.0
O1303 O 0.30244 0.10853 0.47956 0.0
O1304 O 0.26458 0.04824 0.48647 0.0
C1305 C 0.34713 0.86196 0.45815 0.0
C1306 C 0.39069 0.87763 0.45933 0.0
C1307 C 0.40507 0.85153 0.46305 0.0
C1308 C 0.37579 0.80947 0.46521 0.0
C1309 C 0.33263 0.79269 0.46347 0.0
C1310 C 0.31824 0.81909 0.45994 0.0
O1311 O 0.17468 0.00675 0.46838 0.0
O1312 O 0.16869 0.99427 0.453 0.0
O1313 O 0.30859 0.05847 0.45729 0.0
O1314 O 0.28868 0.05037 0.44233 0.0
O1315 O 0.253 0.98197 0.4697 0.0
C1316 C 0.2315 0.12693 0.45843 0.0
O1317 O 0.23626 0.11486 0.45032 0.0
O1318 O 0.23415 0.10818 0.46583 0.0
C1319 C 0.29239 0.08698 0.48715 0.0
H1320 H 0.45827 0.96933 0.47892 0.0
H1321 H 0.34868 0.86091 0.49117 0.0
H1322 H 0.42655 0.91173 0.49111 0.0
H1323 H 0.35587 0.03266 0.46089 0.0
H1324 H 0.34934 0.05399 0.43099 0.0
H1325 H 0.40139 0.97769 0.44074 0.0
H1326 H 0.22198 0.87229 0.48322 0.0
H1327 H 0.22863 0.83934 0.45423 0.0
H1328 H 0.11084 0.81718 0.46557 0.0
H1329 H 0.26001 0.89228 0.4321 0.0
H1330 H 0.21914 0.92965 0.43469 0.0
H1331 H 0.22405 0.9653 0.45024 0.0
H1332 H 0.41314 0.90988 0.4574 0.0
H1333 H 0.38707 0.78874 0.46769 0.0
H1334 H 0.28486 0.80659 0.45865 0.0
Cd1335 Cd 0.61169 0.7684 0.69696 0.0
C1336 C 0.56621 0.82557 0.70515 0.0
C1337 C 0.83436 0.95012 0.68569 0.0
O1338 O 0.84301 0.98115 0.67973 0.0
Cd1339 Cd 0.59059 0.76194 0.71481 0.0
C1340 C 0.85174 0.92186 0.68441 0.0
C1341 C 0.88089 0.86449 0.68577 0.0
C1342 C 0.85145 0.86397 0.69221 0.0
N1343 N 0.83801 0.89155 0.69097 0.0
C1344 C 0.8813 0.92442 0.67773 0.0
C1345 C 0.89563 0.89504 0.67842 0.0
Co1346 Co 0.80454 0.89402 0.70044 0.0
C1347 C 0.83407 0.83825 0.70086 0.0
O1348 O 0.84105 0.80739 0.7031 0.0
C1349 C 0.78374 0.82235 0.714 0.0
C1350 C 0.74102 0.79597 0.71261 0.0
C1351 C 0.71322 0.78158 0.72032 0.0
C1352 C 0.72962 0.78717 0.72957 0.0
C1353 C 0.77367 0.8084 0.73101 0.0
C1354 C 0.80085 0.82747 0.72318 0.0
C1355 C 0.66885 0.76875 0.71841 0.0
C1356 C 0.78055 0.95914 0.69415 0.0
C1357 C 0.75591 0.95733 0.68631 0.0
C1358 C 0.77986 0.9804 0.70237 0.0
C1359 C 0.75335 0.99764 0.70289 0.0
C1360 C 0.728 0.99471 0.69515 0.0
C1361 C 0.72982 0.97532 0.68668 0.0
N1362 N 0.80808 0.94169 0.69337 0.0
N1363 N 0.80808 0.8472 0.70611 0.0
N1364 N 0.75072 0.85627 0.69405 0.0
C1365 C 0.74542 0.83753 0.68481 0.0
C1366 C 0.72727 0.84861 0.67738 0.0
C1367 C 0.75565 0.80588 0.68333 0.0
C1368 C 0.72098 0.82971 0.66837 0.0
H1369 H 0.71743 0.8715 0.67868 0.0
C1370 C 0.73258 0.79886 0.66692 0.0
C1371 C 0.74955 0.78641 0.67439 0.0
C1372 C 0.70178 0.84169 0.66052 0.0
H1373 H 0.76713 0.79553 0.68923 0.0
H1374 H 0.72768 0.78396 0.66001 0.0
C1375 C 0.76019 0.75262 0.67287 0.0
O1376 O 0.69496 0.82269 0.65195 0.0
O1377 O 0.69195 0.86874 0.66177 0.0
O1378 O 0.77546 0.74213 0.67932 0.0
O1379 O 0.75296 0.73315 0.66434 0.0
H1380 H 0.68223 0.82979 0.64676 0.0
H1381 H 0.75935 0.71084 0.66321 0.0
N1382 N 0.77142 0.89618 0.71 0.0
C1383 C 0.79162 0.91808 0.71773 0.0
C1384 C 0.76769 0.92103 0.72515 0.0
C1385 C 0.72329 0.90043 0.72402 0.0
C1386 C 0.70386 0.87792 0.71558 0.0
C1387 C 0.7298 0.87634 0.70847 0.0
N1388 N 0.85222 0.93241 0.70828 0.0
C1389 C 0.83792 0.9391 0.71675 0.0
O1390 O 0.86364 0.96602 0.72311 0.0
C1391 C 0.71764 0.85456 0.69919 0.0
O1392 O 0.62451 0.71939 0.68795 0.0
O1393 O 0.61807 0.76533 0.67952 0.0
C1394 C 0.89467 0.95887 0.70498 0.0
C1395 C 0.92224 0.94267 0.70414 0.0
C1396 C 0.96292 0.96795 0.70042 0.0
C1397 C 0.97607 0.0097 0.69784 0.0
C1398 C 0.95001 0.02712 0.69924 0.0
C1399 C 0.90908 0.00151 0.70279 0.0
O1400 O 0.57445 0.81041 0.6978 0.0
O1401 O 0.57409 0.81686 0.71338 0.0
O1402 O 0.6583 0.769 0.70978 0.0
O1403 O 0.64444 0.7669 0.72501 0.0
O1404 O 0.67812 0.83917 0.69555 0.0
C1405 C 0.5139 0.68618 0.70642 0.0
O1406 O 0.52875 0.6959 0.71475 0.0
O1407 O 0.53618 0.70821 0.69939 0.0
C1408 C 0.62444 0.73423 0.67979 0.0
H1409 H 0.8928 0.84286 0.68649 0.0
H1410 H 0.89349 0.94859 0.67228 0.0
H1411 H 0.91876 0.8965 0.6734 0.0
H1412 H 0.72931 0.7907 0.70538 0.0
H1413 H 0.70832 0.77503 0.7356 0.0
H1414 H 0.83462 0.84676 0.72423 0.0
H1415 H 0.75759 0.94224 0.67985 0.0
H1416 H 0.80056 0.98489 0.70827 0.0
H1417 H 0.70832 0.00897 0.69569 0.0
H1418 H 0.78261 0.93892 0.73153 0.0
H1419 H 0.704 0.90216 0.72965 0.0
H1420 H 0.66994 0.86215 0.71471 0.0
H1421 H 0.91224 0.91082 0.70646 0.0
H1422 H 0.00828 0.0299 0.69541 0.0
H1423 H 0.88857 0.01458 0.7039 0.0
Cd1424 Cd 0.3788 0.91446 0.69245 0.0
C1425 C 0.30751 0.81167 0.69889 0.0
C1426 C 0.19523 0.95767 0.68733 0.0
O1427 O 0.16227 0.93378 0.68197 0.0
Cd1428 Cd 0.37228 0.89332 0.70871 0.0
C1429 C 0.22215 0.00321 0.68556 0.0
C1430 C 0.27905 0.09008 0.68576 0.0
C1431 C 0.2825 0.06268 0.69217 0.0
N1432 N 0.2549 0.02139 0.69148 0.0
C1433 C 0.21654 0.02864 0.67896 0.0
C1434 C 0.2457 0.07253 0.67907 0.0
Co1435 Co 0.25754 0.9874 0.70077 0.0
C1436 C 0.31225 0.07288 0.70015 0.0
O1437 O 0.34425 0.11106 0.70158 0.0
C1438 C 0.33658 0.04081 0.71216 0.0
C1439 C 0.36231 0.02518 0.7093 0.0
C1440 C 0.37937 0.0101 0.71604 0.0
C1441 C 0.37857 0.01974 0.72565 0.0
C1442 C 0.36053 0.0443 0.72853 0.0
C1443 C 0.3369 0.05243 0.72172 0.0
C1444 C 0.38625 0.97551 0.71313 0.0
C1445 C 0.19125 0.89696 0.69582 0.0
C1446 C 0.19195 0.87336 0.68802 0.0
C1447 C 0.17389 0.87622 0.70443 0.0
C1448 C 0.16029 0.83326 0.70539 0.0
C1449 C 0.16307 0.81038 0.69773 0.0
C1450 C 0.17828 0.83013 0.68888 0.0
N1451 N 0.20719 0.94159 0.69476 0.0
N1452 N 0.30635 0.03904 0.70545 0.0
N1453 N 0.29268 0.97109 0.69332 0.0
C1454 C 0.30561 0.98282 0.6836 0.0
C1455 C 0.29065 0.95233 0.67639 0.0
C1456 C 0.33352 0.025 0.68127 0.0
C1457 C 0.30053 0.96405 0.6668 0.0
H1458 H 0.27147 0.91947 0.67825 0.0
C1459 C 0.32676 0.00691 0.66454 0.0
C1460 C 0.34408 0.03755 0.67175 0.0
C1461 C 0.28389 0.93163 0.65917 0.0
H1462 H 0.34754 0.04795 0.6869 0.0
H1463 H 0.33452 0.0163 0.65717 0.0
C1464 C 0.37324 0.0825 0.66931 0.0
O1465 O 0.29428 0.94305 0.64999 0.0
O1466 O 0.26078 0.8944 0.66114 0.0
O1467 O 0.38701 0.10939 0.67556 0.0
O1468 O 0.3848 0.09402 0.66018 0.0
H1469 H 0.28391 0.92244 0.64491 0.0
H1470 H 0.40385 0.12313 0.65844 0.0
N1471 N 0.26043 0.95403 0.71014 0.0
C1472 C 0.24105 0.95235 0.71831 0.0
C1473 C 0.24004 0.92518 0.72545 0.0
C1474 C 0.2595 0.90084 0.72355 0.0
C1475 C 0.27895 0.90368 0.71466 0.0
C1476 C 0.27911 0.93176 0.70789 0.0
N1477 N 0.22229 0.99712 0.70959 0.0
C1478 C 0.21915 0.97698 0.71802 0.0
O1479 O 0.19432 0.97566 0.72494 0.0
C1480 C 0.2969 0.94045 0.69814 0.0
O1481 O 0.43611 0.9611 0.68197 0.0
O1482 O 0.37496 0.92843 0.67522 0.0
C1483 C 0.19399 0.01186 0.70694 0.0
C1484 C 0.20944 0.05522 0.70555 0.0
C1485 C 0.18298 0.06909 0.70181 0.0
C1486 C 0.14069 0.03963 0.69992 0.0
C1487 C 0.12412 0.99671 0.70188 0.0
C1488 C 0.15091 0.98273 0.70538 0.0
O1489 O 0.33194 0.83485 0.69224 0.0
O1490 O 0.30982 0.82771 0.70701 0.0
O1491 O 0.39066 0.97079 0.70427 0.0
O1492 O 0.37556 0.94491 0.71877 0.0
O1493 O 0.31007 0.91559 0.69387 0.0
C1494 C 0.44861 0.88662 0.70392 0.0
O1495 O 0.43023 0.88438 0.7117 0.0
O1496 O 0.43539 0.89517 0.69631 0.0
C1497 C 0.41433 0.95399 0.67448 0.0
H1498 H 0.30069 0.12376 0.68602 0.0
H1499 H 0.19038 0.01536 0.67401 0.0
H1500 H 0.24199 0.093 0.67408 0.0
H1501 H 0.3634 0.01889 0.70182 0.0
H1502 H 0.39118 0.00719 0.73086 0.0
H1503 H 0.31891 0.06736 0.72374 0.0
H1504 H 0.20333 0.88898 0.68126 0.0
H1505 H 0.17005 0.8928 0.71034 0.0
H1506 H 0.15209 0.77711 0.69865 0.0
H1507 H 0.22407 0.92208 0.73214 0.0
H1508 H 0.25898 0.87936 0.72891 0.0
H1509 H 0.29339 0.88478 0.71318 0.0
H1510 H 0.2419 0.07789 0.70726 0.0
H1511 H 0.11977 0.0506 0.69739 0.0
H1512 H 0.13862 0.94947 0.70677 0.0
Cd1513 Cd 0.23407 0.53738 0.69478 0.0
C1514 C 0.33391 0.58157 0.70424 0.0
C1515 C 0.19363 0.31582 0.68478 0.0
O1516 O 0.21683 0.30729 0.67906 0.0
Cd1517 Cd 0.24506 0.5645 0.71371 0.0
C1518 C 0.14814 0.29858 0.68318 0.0
C1519 C 0.06163 0.2706 0.68379 0.0
C1520 C 0.08975 0.29967 0.69039 0.0
N1521 N 0.13078 0.31235 0.68954 0.0
C1522 C 0.12196 0.26937 0.67635 0.0
C1523 C 0.07826 0.25559 0.67668 0.0
Co1524 Co 0.16562 0.3463 0.69906 0.0
C1525 C 0.08054 0.31772 0.69881 0.0
O1526 O 0.04257 0.31131 0.70071 0.0
C1527 C 0.11383 0.36846 0.71196 0.0
C1528 C 0.13119 0.41134 0.71052 0.0
C1529 C 0.14335 0.4391 0.71822 0.0
C1530 C 0.13121 0.42272 0.72743 0.0
C1531 C 0.10832 0.37875 0.72889 0.0
C1532 C 0.10071 0.35148 0.72112 0.0
C1533 C 0.1745 0.48368 0.71643 0.0
C1534 C 0.25522 0.36844 0.69383 0.0
C1535 C 0.28004 0.39456 0.68637 0.0
C1536 C 0.27497 0.36741 0.70228 0.0
C1537 C 0.31848 0.39379 0.70342 0.0
C1538 C 0.34286 0.42078 0.69607 0.0
C1539 C 0.32392 0.42075 0.68737 0.0
N1540 N 0.21038 0.34184 0.69253 0.0
N1541 N 0.11494 0.34382 0.7042 0.0
N1542 N 0.18275 0.39943 0.69229 0.0
C1543 C 0.16926 0.40422 0.683 0.0
C1544 C 0.19827 0.42092 0.67549 0.0
C1545 C 0.12777 0.39539 0.68157 0.0
C1546 C 0.18578 0.42731 0.66647 0.0
H1547 H 0.23077 0.42969 0.67674 0.0
C1548 C 0.14363 0.41697 0.66508 0.0
C1549 C 0.11445 0.40133 0.67261 0.0
C1550 C 0.21681 0.44547 0.65857 0.0
H1551 H 0.10623 0.38518 0.68753 0.0
H1552 H 0.13371 0.42191 0.65816 0.0
C1553 C 0.07039 0.39204 0.67115 0.0
O1554 O 0.20489 0.45292 0.65002 0.0
O1555 O 0.25336 0.45395 0.65975 0.0
O1556 O 0.0449 0.37814 0.67768 0.0
O1557 O 0.05818 0.39898 0.66259 0.0
H1558 H 0.22466 0.46505 0.6448 0.0
H1559 H 0.02972 0.39345 0.66149 0.0
N1560 N 0.19998 0.38009 0.70864 0.0
C1561 C 0.2007 0.36055 0.71659 0.0
C1562 C 0.2273 0.385 0.72399 0.0
C1563 C 0.25189 0.42919 0.7226 0.0
C1564 C 0.24989 0.44788 0.71393 0.0
C1565 C 0.22263 0.42143 0.70685 0.0
N1566 N 0.15498 0.29925 0.70727 0.0
C1567 C 0.17503 0.31421 0.71582 0.0
O1568 O 0.17544 0.28899 0.72243 0.0
C1569 C 0.21407 0.43272 0.69734 0.0
O1570 O 0.1718 0.52125 0.68564 0.0
O1571 O 0.22584 0.53111 0.67733 0.0
C1572 C 0.14016 0.25682 0.70413 0.0
C1573 C 0.09681 0.22915 0.70259 0.0
C1574 C 0.08286 0.18866 0.69891 0.0
C1575 C 0.11239 0.17575 0.69713 0.0
C1576 C 0.15522 0.20185 0.69926 0.0
C1577 C 0.16915 0.24262 0.70272 0.0
O1578 O 0.31256 0.57254 0.69655 0.0
O1579 O 0.31584 0.57747 0.71222 0.0
O1580 O 0.18893 0.49425 0.70801 0.0
O1581 O 0.19264 0.50935 0.72318 0.0
O1582 O 0.23877 0.47162 0.6935 0.0
C1583 C 0.24323 0.63504 0.70188 0.0
O1584 O 0.23621 0.62276 0.71046 0.0
O1585 O 0.24712 0.61211 0.69558 0.0
C1586 C 0.18777 0.52314 0.67751 0.0
H1587 H 0.02809 0.25927 0.6842 0.0
H1588 H 0.13454 0.25713 0.67106 0.0
H1589 H 0.05722 0.23277 0.67153 0.0
H1590 H 0.13895 0.42317 0.70331 0.0
H1591 H 0.13965 0.44396 0.73345 0.0
H1592 H 0.08598 0.31773 0.72221 0.0
H1593 H 0.26498 0.3942 0.67972 0.0
H1594 H 0.25717 0.34568 0.70791 0.0
H1595 H 0.37657 0.44047 0.69709 0.0
H1596 H 0.22952 0.37062 0.73053 0.0
H1597 H 0.27273 0.44887 0.7282 0.0
H1598 H 0.26871 0.48162 0.71286 0.0
H1599 H 0.07413 0.23891 0.70433 0.0
H1600 H 0.10136 0.14363 0.69478 0.0
H1601 H 0.20224 0.26316 0.70436 0.0
Cd1602 Cd 0.38104 0.53665 0.19531 0.0
C1603 C 0.32458 0.58049 0.20464 0.0
C1604 C 0.19987 0.31534 0.18511 0.0
O1605 O 0.16836 0.30717 0.17934 0.0
Cd1606 Cd 0.39446 0.5612 0.2137 0.0
C1607 C 0.22789 0.29784 0.18351 0.0
C1608 C 0.28571 0.269 0.18418 0.0
C1609 C 0.28696 0.29827 0.19077 0.0
N1610 N 0.25901 0.31145 0.18987 0.0
C1611 C 0.22459 0.26845 0.1767 0.0
C1612 C 0.25416 0.25425 0.17705 0.0
Co1613 Co 0.25808 0.34521 0.19944 0.0
C1614 C 0.31399 0.31587 0.19923 0.0
O1615 O 0.34528 0.30908 0.20115 0.0
C1616 C 0.33178 0.3666 0.21239 0.0
C1617 C 0.35763 0.40938 0.21091 0.0
C1618 C 0.37315 0.43729 0.21858 0.0
C1619 C 0.3689 0.42107 0.22782 0.0
C1620 C 0.34781 0.37712 0.22931 0.0
C1621 C 0.32791 0.34974 0.22156 0.0
C1622 C 0.38608 0.48171 0.21674 0.0
C1623 C 0.19225 0.36921 0.19395 0.0
C1624 C 0.19447 0.39514 0.18635 0.0
C1625 C 0.17201 0.36976 0.20236 0.0
C1626 C 0.15645 0.39755 0.20333 0.0
C1627 C 0.16013 0.42442 0.19585 0.0
C1628 C 0.17848 0.42285 0.18719 0.0
N1629 N 0.20927 0.34145 0.19285 0.0
N1630 N 0.30583 0.34201 0.20464 0.0
N1631 N 0.29467 0.39857 0.1928 0.0
C1632 C 0.31307 0.40361 0.18351 0.0
C1633 C 0.30145 0.42123 0.17606 0.0
C1634 C 0.34519 0.39403 0.18202 0.0
C1635 C 0.32025 0.42758 0.16704 0.0
H1636 H 0.27832 0.43074 0.17737 0.0
C1637 C 0.35152 0.41654 0.16558 0.0
C1638 C 0.36453 0.40014 0.17306 0.0
C1639 C 0.30781 0.44635 0.15919 0.0
H1640 H 0.35608 0.38316 0.18793 0.0
H1641 H 0.36637 0.42151 0.15866 0.0
C1642 C 0.39882 0.39021 0.17154 0.0
O1643 O 0.32672 0.45323 0.15059 0.0
O1644 O 0.28049 0.45582 0.16045 0.0
O1645 O 0.4097 0.37529 0.17799 0.0
O1646 O 0.41836 0.39772 0.16301 0.0
H1647 H 0.3193 0.46568 0.1454 0.0
H1648 H 0.441 0.39179 0.16188 0.0
N1649 N 0.25746 0.37872 0.20908 0.0
C1650 C 0.23667 0.35892 0.21696 0.0
C1651 C 0.23441 0.38316 0.2244 0.0
C1652 C 0.25441 0.42743 0.22311 0.0
C1653 C 0.27557 0.4464 0.2145 0.0
C1654 C 0.2765 0.42015 0.20739 0.0
N1655 N 0.22102 0.29791 0.20754 0.0
C1656 C 0.21561 0.3126 0.21609 0.0
O1657 O 0.18952 0.28719 0.22262 0.0
C1658 C 0.29662 0.43173 0.19791 0.0
O1659 O 0.42782 0.52164 0.1861 0.0
O1660 O 0.38303 0.53065 0.17782 0.0
C1661 C 0.19357 0.2556 0.2043 0.0
C1662 C 0.2093 0.22792 0.20285 0.0
C1663 C 0.18312 0.18774 0.19899 0.0
C1664 C 0.14094 0.17507 0.19695 0.0
C1665 C 0.1241 0.20114 0.19899 0.0
C1666 C 0.1506 0.24164 0.20263 0.0
O1667 O 0.33754 0.57191 0.19698 0.0
O1668 O 0.33749 0.57531 0.21265 0.0
O1669 O 0.38288 0.49203 0.20826 0.0
O1670 O 0.39186 0.50704 0.22346 0.0
O1671 O 0.3107 0.4707 0.19411 0.0
C1672 C 0.46795 0.63415 0.20304 0.0
O1673 O 0.46149 0.62093 0.21154 0.0
O1674 O 0.44233 0.61154 0.19652 0.0
C1675 C 0.41345 0.52316 0.17798 0.0
H1676 H 0.30758 0.25726 0.18462 0.0
H1677 H 0.19977 0.25634 0.17141 0.0
H1678 H 0.25214 0.23126 0.17192 0.0
H1679 H 0.36179 0.42105 0.20369 0.0
H1680 H 0.38172 0.44243 0.23382 0.0
H1681 H 0.30878 0.31602 0.22269 0.0
H1682 H 0.20864 0.39349 0.17973 0.0
H1683 H 0.16734 0.34825 0.2081 0.0
H1684 H 0.14735 0.44525 0.19675 0.0
H1685 H 0.21741 0.36857 0.23089 0.0
H1686 H 0.25316 0.44695 0.22874 0.0
H1687 H 0.29074 0.4802 0.2135 0.0
H1688 H 0.24153 0.23751 0.20475 0.0
H1689 H 0.1201 0.14317 0.19443 0.0
H1690 H 0.13799 0.26221 0.20419 0.0
Cd1691 Cd 0.61236 0.91445 0.19381 0.0
C1692 C 0.57781 0.81162 0.20072 0.0
C1693 C 0.83758 0.96143 0.18561 0.0
O1694 O 0.84661 0.93929 0.17967 0.0
Cd1695 Cd 0.59444 0.89437 0.21058 0.0
C1696 C 0.85497 0.00712 0.18441 0.0
C1697 C 0.88347 0.09348 0.18584 0.0
C1698 C 0.85356 0.06426 0.19216 0.0
N1699 N 0.8405 0.02335 0.19089 0.0
C1700 C 0.88507 0.03444 0.17785 0.0
C1701 C 0.89907 0.07807 0.17859 0.0
Co1702 Co 0.80591 0.98696 0.20014 0.0
C1703 C 0.83507 0.07218 0.20069 0.0
O1704 O 0.84088 0.10974 0.20278 0.0
C1705 C 0.78104 0.03686 0.21309 0.0
C1706 C 0.73898 0.02007 0.21078 0.0
C1707 C 0.70837 0.00449 0.21788 0.0
C1708 C 0.72081 0.01465 0.22736 0.0
C1709 C 0.76385 0.0407 0.22972 0.0
C1710 C 0.79439 0.04932 0.22255 0.0
C1711 C 0.66593 0.97088 0.21526 0.0
C1712 C 0.78252 0.89832 0.19376 0.0
C1713 C 0.75782 0.87636 0.18585 0.0
C1714 C 0.78045 0.8757 0.20197 0.0
C1715 C 0.75232 0.83226 0.20245 0.0
C1716 C 0.72664 0.81081 0.19467 0.0
C1717 C 0.72976 0.83261 0.1862 0.0
N1718 N 0.81059 0.94324 0.19316 0.0
N1719 N 0.80849 0.03704 0.20581 0.0
N1720 N 0.75295 0.97076 0.19331 0.0
C1721 C 0.74867 0.98485 0.18403 0.0
C1722 C 0.73068 0.95604 0.17651 0.0
C1723 C 0.75923 0.02687 0.18262 0.0
C1724 C 0.72485 0.96917 0.16752 0.0
H1725 H 0.72046 0.9232 0.17773 0.0
C1726 C 0.73666 0.01172 0.16617 0.0
C1727 C 0.75351 0.04074 0.1737 0.0
C1728 C 0.7058 0.93842 0.1596 0.0
H1729 H 0.77047 0.04842 0.18856 0.0
H1730 H 0.732 0.02209 0.15928 0.0
C1731 C 0.7643 0.08526 0.17229 0.0
O1732 O 0.70001 0.95123 0.151 0.0
O1733 O 0.69518 0.90131 0.16081 0.0
O1734 O 0.77993 0.1108 0.17877 0.0
O1735 O 0.75681 0.09783 0.16383 0.0
H1736 H 0.6874 0.93168 0.14576 0.0
H1737 H 0.76332 0.12661 0.16277 0.0
N1738 N 0.77161 0.95119 0.20948 0.0
C1739 C 0.79083 0.94889 0.21734 0.0
C1740 C 0.76608 0.92073 0.2245 0.0
C1741 C 0.72198 0.89625 0.22297 0.0
C1742 C 0.70367 0.89989 0.21441 0.0
C1743 C 0.73034 0.92872 0.20758 0.0
N1744 N 0.85262 0.99597 0.20832 0.0
C1745 C 0.83722 0.97442 0.21669 0.0
O1746 O 0.86209 0.97254 0.22319 0.0
C1747 C 0.7194 0.93852 0.19816 0.0
O1748 O 0.6255 0.9762 0.18483 0.0
O1749 O 0.61928 0.9244 0.17627 0.0
C1750 C 0.89512 0.01091 0.20517 0.0
C1751 C 0.92289 0.05435 0.20386 0.0
C1752 C 0.96299 0.06853 0.19992 0.0
C1753 C 0.97566 0.0392 0.19772 0.0
C1754 C 0.94957 0.99617 0.19963 0.0
C1755 C 0.90903 0.98195 0.20332 0.0
O1756 O 0.5797 0.83496 0.19375 0.0
O1757 O 0.58805 0.8274 0.20898 0.0
O1758 O 0.65715 0.96421 0.20643 0.0
O1759 O 0.64337 0.94286 0.22127 0.0
O1760 O 0.68091 0.91353 0.19411 0.0
C1761 C 0.51455 0.89258 0.20417 0.0
O1762 O 0.52905 0.89065 0.21221 0.0
O1763 O 0.5371 0.89901 0.19675 0.0
C1764 C 0.62566 0.96185 0.17664 0.0
H1765 H 0.89507 0.12694 0.18658 0.0
H1766 H 0.89788 0.02278 0.17248 0.0
H1767 H 0.92259 0.09997 0.17366 0.0
H1768 H 0.73008 0.01427 0.20338 0.0
H1769 H 0.69687 0.00228 0.23287 0.0
H1770 H 0.82777 0.06566 0.22419 0.0
H1771 H 0.7607 0.8936 0.17939 0.0
H1772 H 0.80104 0.89121 0.20793 0.0
H1773 H 0.70551 0.77709 0.19519 0.0
H1774 H 0.78022 0.91714 0.23094 0.0
H1775 H 0.70208 0.87415 0.22837 0.0
H1776 H 0.67004 0.88104 0.21321 0.0
H1777 H 0.91337 0.0769 0.20589 0.0
H1778 H 0.00749 0.05039 0.19512 0.0
H1779 H 0.88835 0.94866 0.20473 0.0
Cd1780 Cd 0.23389 0.76747 0.19632 0.0
C1781 C 0.33605 0.82904 0.20437 0.0
C1782 C 0.19318 0.94885 0.18509 0.0
O1783 O 0.21605 0.98 0.1792 0.0
Cd1784 Cd 0.24924 0.76382 0.21401 0.0
C1785 C 0.14764 0.92058 0.18363 0.0
C1786 C 0.06104 0.86292 0.18461 0.0
C1787 C 0.08942 0.8624 0.19121 0.0
N1788 N 0.13052 0.89014 0.19015 0.0
C1789 C 0.1212 0.92316 0.17679 0.0
C1790 C 0.07745 0.89364 0.1773 0.0
Co1791 Co 0.16564 0.89237 0.19978 0.0
C1792 C 0.08037 0.83643 0.19984 0.0
O1793 O 0.04239 0.80534 0.20191 0.0
C1794 C 0.11381 0.8201 0.21312 0.0
C1795 C 0.1299 0.79349 0.21171 0.0
C1796 C 0.14346 0.77921 0.21942 0.0
C1797 C 0.13288 0.78498 0.22867 0.0
C1798 C 0.11024 0.80637 0.23014 0.0
C1799 C 0.1021 0.82542 0.22232 0.0
C1800 C 0.17554 0.76709 0.2175 0.0
C1801 C 0.25532 0.95763 0.19384 0.0
C1802 C 0.27888 0.95615 0.1861 0.0
C1803 C 0.27653 0.97835 0.20217 0.0
C1804 C 0.32018 0.99525 0.20292 0.0
C1805 C 0.34328 0.99256 0.19529 0.0
C1806 C 0.32289 0.97381 0.1867 0.0
N1807 N 0.2104 0.94026 0.19286 0.0
N1808 N 0.11486 0.84535 0.20526 0.0
N1809 N 0.18226 0.85485 0.19349 0.0
C1810 C 0.1697 0.83646 0.18418 0.0
C1811 C 0.19968 0.84776 0.1769 0.0
C1812 C 0.12799 0.8048 0.18251 0.0
C1813 C 0.188 0.82899 0.16786 0.0
H1814 H 0.23226 0.87068 0.17835 0.0
C1815 C 0.14571 0.79811 0.16622 0.0
C1816 C 0.11553 0.78551 0.17354 0.0
C1817 C 0.21998 0.84107 0.16019 0.0
H1818 H 0.10559 0.79429 0.18831 0.0
H1819 H 0.13642 0.7833 0.15929 0.0
C1820 C 0.07127 0.75173 0.17182 0.0
O1821 O 0.2087 0.82213 0.15159 0.0
O1822 O 0.25672 0.86814 0.16161 0.0
O1823 O 0.04488 0.74105 0.17814 0.0
O1824 O 0.05987 0.73245 0.16325 0.0
H1825 H 0.22908 0.82928 0.14651 0.0
H1826 H 0.03129 0.71015 0.162 0.0
N1827 N 0.2001 0.89425 0.20949 0.0
C1828 C 0.20104 0.91581 0.21723 0.0
C1829 C 0.22722 0.91847 0.22478 0.0
C1830 C 0.25114 0.89794 0.22377 0.0
C1831 C 0.24885 0.87577 0.21532 0.0
C1832 C 0.22198 0.87445 0.20808 0.0
N1833 N 0.15566 0.93052 0.20754 0.0
C1834 C 0.17585 0.93685 0.21611 0.0
O1835 O 0.17649 0.96355 0.22246 0.0
C1836 C 0.21319 0.853 0.19876 0.0
O1837 O 0.17289 0.71887 0.18704 0.0
O1838 O 0.22612 0.7647 0.17881 0.0
C1839 C 0.14036 0.95738 0.20412 0.0
C1840 C 0.09677 0.94141 0.2029 0.0
C1841 C 0.08215 0.96715 0.19906 0.0
C1842 C 0.1113 0.00912 0.19676 0.0
C1843 C 0.15448 0.02628 0.19856 0.0
C1844 C 0.16905 1.00021 0.20221 0.0
O1845 O 0.31299 0.81159 0.19708 0.0
O1846 O 0.31937 0.82122 0.21259 0.0
O1847 O 0.18593 0.76683 0.20885 0.0
O1848 O 0.1992 0.76712 0.22407 0.0
O1849 O 0.23784 0.83806 0.19521 0.0
C1850 C 0.25178 0.68768 0.2063 0.0
O1851 O 0.24834 0.69934 0.21456 0.0
O1852 O 0.24966 0.70779 0.19909 0.0
C1853 C 0.18857 0.7337 0.17893 0.0
H1854 H 0.02745 0.84116 0.18518 0.0
H1855 H 0.13363 0.94741 0.17137 0.0
H1856 H 0.05621 0.89511 0.17215 0.0
H1857 H 0.1364 0.78831 0.20448 0.0
H1858 H 0.14222 0.77299 0.2347 0.0
H1859 H 0.08792 0.84498 0.22339 0.0
H1860 H 0.26276 0.94154 0.17954 0.0
H1861 H 0.25984 0.98266 0.20799 0.0
H1862 H 0.37713 0.00653 0.196 0.0
H1863 H 0.22957 0.93608 0.23116 0.0
H1864 H 0.27163 0.89945 0.22949 0.0
H1865 H 0.26708 0.86005 0.21455 0.0
H1866 H 0.07444 0.90939 0.20502 0.0
H1867 H 0.09984 0.02966 0.19426 0.0
H1868 H 0.2024 0.01308 0.20362 0.0
Cd1869 Cd 0.87193 0.04948 0.96877 0.0
C1870 C 0.91594 0.99181 0.96013 0.0
C1871 C 0.64993 0.86813 0.97927 0.0
O1872 O 0.64147 0.83686 0.98514 0.0
Cd1873 Cd 0.89426 0.05838 0.95084 0.0
C1874 C 0.63245 0.89625 0.9807 0.0
C1875 C 0.60362 0.95398 0.97971 0.0
C1876 C 0.63286 0.95474 0.97317 0.0
N1877 N 0.64606 0.92689 0.97422 0.0
C1878 C 0.6031 0.89344 0.98747 0.0
C1879 C 0.5889 0.92298 0.98696 0.0
Co1880 Co 0.67976 0.92525 0.96471 0.0
C1881 C 0.65035 0.98111 0.9646 0.0
O1882 O 0.64358 0.01228 0.96255 0.0
C1883 C 0.70099 0.99806 0.95147 0.0
C1884 C 0.74365 0.02437 0.95299 0.0
C1885 C 0.77183 0.0394 0.94535 0.0
C1886 C 0.75591 0.03448 0.93608 0.0
C1887 C 0.71197 0.01323 0.93452 0.0
C1888 C 0.68436 0.99357 0.94225 0.0
C1889 C 0.81609 0.05201 0.94733 0.0
C1890 C 0.70375 0.85969 0.97063 0.0
C1891 C 0.72878 0.86124 0.97837 0.0
C1892 C 0.70438 0.83905 0.96229 0.0
C1893 C 0.73125 0.82231 0.96155 0.0
C1894 C 0.75706 0.82511 0.96918 0.0
C1895 C 0.75537 0.84384 0.97777 0.0
N1896 N 0.67618 0.87705 0.97157 0.0
N1897 N 0.67633 0.97248 0.95926 0.0
N1898 N 0.73329 0.96245 0.97124 0.0
C1899 C 0.73837 0.98083 0.98053 0.0
C1900 C 0.75623 0.96935 0.98795 0.0
C1901 C 0.72854 0.01274 0.98204 0.0
C1902 C 0.76273 0.98822 0.99697 0.0
H1903 H 0.76578 0.94627 0.98663 0.0
C1904 C 0.75153 0.01935 0.99844 0.0
C1905 C 0.73477 0.03212 0.99099 0.0
C1906 C 0.78184 0.97601 0.00479 0.0
H1907 H 0.71734 0.02342 0.97615 0.0
H1908 H 0.75661 0.03424 0.00536 0.0
C1909 C 0.72458 0.0662 0.99254 0.0
O1910 O 0.78897 0.99506 0.01337 0.0
O1911 O 0.79136 0.94875 0.00351 0.0
O1912 O 0.70947 0.07695 0.9861 0.0
O1913 O 0.73204 0.08566 0.00107 0.0
H1914 H 0.80169 0.98783 0.01854 0.0
H1915 H 0.72593 0.10816 0.00222 0.0
N1916 N 0.7132 0.92394 0.95513 0.0
C1917 C 0.69328 0.90274 0.9473 0.0
C1918 C 0.71748 0.90033 0.93987 0.0
C1919 C 0.76182 0.9207 0.94109 0.0
C1920 C 0.78092 0.94242 0.94963 0.0
C1921 C 0.75472 0.94348 0.95674 0.0
N1922 N 0.63234 0.88749 0.95673 0.0
C1923 C 0.64695 0.88163 0.94821 0.0
O1924 O 0.62147 0.85524 0.94174 0.0
C1925 C 0.76649 0.96436 0.96613 0.0
O1926 O 0.85781 0.09694 0.97799 0.0
O1927 O 0.86603 0.05169 0.98626 0.0
C1928 C 0.58994 0.86034 0.95998 0.0
C1929 C 0.56232 0.87624 0.96128 0.0
C1930 C 0.5218 0.85022 0.96502 0.0
C1931 C 0.50878 0.80802 0.96709 0.0
C1932 C 0.53481 0.79097 0.96519 0.0
C1933 C 0.57564 0.81733 0.96168 0.0
O1934 O 0.90796 0.00642 0.9676 0.0
O1935 O 0.90913 0.00224 0.95198 0.0
O1936 O 0.82617 0.05046 0.95594 0.0
O1937 O 0.84096 0.05504 0.94072 0.0
O1938 O 0.80566 0.97895 0.96988 0.0
C1939 C 0.96952 0.13371 0.96002 0.0
O1940 O 0.95564 0.12473 0.95159 0.0
O1941 O 0.94692 0.11053 0.96687 0.0
C1942 C 0.85892 0.08233 0.98611 0.0
H1943 H 0.59188 0.97581 0.97914 0.0
H1944 H 0.59101 0.86902 0.99286 0.0
H1945 H 0.56595 0.92134 0.99205 0.0
H1946 H 0.75503 0.02903 0.96024 0.0
H1947 H 0.7775 0.047 0.9301 0.0
H1948 H 0.65067 0.97423 0.94109 0.0
H1949 H 0.72713 0.87577 0.98493 0.0
H1950 H 0.68343 0.83477 0.95646 0.0
H1951 H 0.77708 0.81129 0.96846 0.0
H1952 H 0.7028 0.88299 0.93342 0.0
H1953 H 0.78131 0.91937 0.93546 0.0
H1954 H 0.8148 0.95798 0.95057 0.0
H1955 H 0.57212 0.90843 0.9593 0.0
H1956 H 0.47664 0.78729 0.96949 0.0
H1957 H 0.59614 0.80455 0.96021 0.0
Cd1958 Cd 0.10496 0.90388 0.97047 0.0
C1959 C 0.17352 0.0074 0.96419 0.0
C1960 C 0.28378 0.85781 0.97846 0.0
O1961 O 0.31488 0.87981 0.98443 0.0
Cd1962 Cd 0.10885 0.92571 0.95386 0.0
C1963 C 0.25552 0.81207 0.9796 0.0
C1964 C 0.19778 0.72573 0.97803 0.0
C1965 C 0.19711 0.75511 0.97177 0.0
N1966 N 0.2249 0.796 0.9731 0.0
C1967 C 0.25827 0.78458 0.9861 0.0
C1968 C 0.22871 0.74096 0.9853 0.0
Co1969 Co 0.2268 0.83261 0.9639 0.0
C1970 C 0.17078 0.74741 0.96324 0.0
O1971 O 0.13913 0.7099 0.96108 0.0
C1972 C 0.15245 0.7831 0.95085 0.0
C1973 C 0.12681 0.79944 0.95316 0.0
C1974 C 0.11243 0.81579 0.94609 0.0
C1975 C 0.11587 0.8069 0.93657 0.0
C1976 C 0.1333 0.78128 0.93413 0.0
C1977 C 0.15445 0.77187 0.94134 0.0
C1978 C 0.10342 0.84916 0.94885 0.0
C1979 C 0.292 0.92114 0.97039 0.0
C1980 C 0.28932 0.94302 0.97832 0.0
C1981 C 0.31272 0.9439 0.9622 0.0
C1982 C 0.32824 0.98738 0.96178 0.0
C1983 C 0.32406 0.00874 0.96958 0.0
C1984 C 0.30523 0.98682 0.97803 0.0
N1985 N 0.27506 0.87619 0.97094 0.0
N1986 N 0.17943 0.78269 0.95816 0.0
N1987 N 0.18984 0.84852 0.97074 0.0
C1988 C 0.17157 0.83433 0.98003 0.0
C1989 C 0.18246 0.86307 0.98756 0.0
C1990 C 0.14029 0.79225 0.98144 0.0
C1991 C 0.16377 0.84979 0.99657 0.0
H1992 H 0.20495 0.89596 0.98634 0.0
C1993 C 0.13323 0.80718 0.99793 0.0
C1994 C 0.12097 0.77823 0.99038 0.0
C1995 C 0.17557 0.88046 0.00452 0.0
H1996 H 0.12993 0.77076 0.97549 0.0
H1997 H 0.11842 0.79669 0.00484 0.0
C1998 C 0.08747 0.73362 0.9918 0.0
O1999 O 0.15723 0.86751 0.01315 0.0
O2000 O 0.2019 0.91762 0.00331 0.0
O2001 O 0.07746 0.70816 0.98531 0.0
O2002 O 0.06772 0.72087 0.0003 0.0
H2003 H 0.16424 0.88699 0.0184 0.0
H2004 H 0.04561 0.69203 0.00137 0.0
N2005 N 0.22838 0.86861 0.9546 0.0
C2006 C 0.25008 0.87119 0.94675 0.0
C2007 C 0.25358 0.89952 0.93964 0.0
C2008 C 0.23384 0.92387 0.94119 0.0
C2009 C 0.2117 0.91993 0.94974 0.0
C2010 C 0.20942 0.89091 0.95653 0.0
N2011 N 0.26462 0.82386 0.95571 0.0
C2012 C 0.27097 0.84568 0.94737 0.0
O2013 O 0.29778 0.84767 0.94087 0.0
C2014 C 0.18846 0.88077 0.96593 0.0
O2015 O 0.05658 0.84192 0.97945 0.0
O2016 O 0.10242 0.89373 0.98797 0.0
C2017 C 0.29172 0.80829 0.95879 0.0
C2018 C 0.27571 0.76466 0.95984 0.0
C2019 C 0.30124 0.74977 0.96365 0.0
C2020 C 0.34319 0.77866 0.96602 0.0
C2021 C 0.36045 0.82194 0.96438 0.0
C2022 C 0.33453 0.83681 0.9608 0.0
O2023 O 0.15115 0.98325 0.97096 0.0
O2024 O 0.16938 0.99247 0.95587 0.0
O2025 O 0.10028 0.85469 0.95771 0.0
O2026 O 0.10995 0.87809 0.94301 0.0
O2027 O 0.17477 0.90555 0.97 0.0
C2028 C 0.03021 0.92723 0.96006 0.0
O2029 O 0.04763 0.93028 0.95209 0.0
O2030 O 0.04529 0.91951 0.96748 0.0
C2031 C 0.0714 0.85627 0.98762 0.0
H2032 H 0.17597 0.69227 0.97724 0.0
H2033 H 0.28268 0.79612 0.99148 0.0
H2034 H 0.23031 0.71893 0.99018 0.0
H2035 H 0.12316 0.80456 0.96059 0.0
H2036 H 0.10506 0.82011 0.93109 0.0
H2037 H 0.17188 0.75594 0.9397 0.0
H2038 H 0.27486 0.92568 0.98477 0.0
H2039 H 0.31781 0.92847 0.95623 0.0
H2040 H 0.33684 0.0425 0.96909 0.0
H2041 H 0.27143 0.90331 0.9332 0.0
H2042 H 0.23611 0.9461 0.93581 0.0
H2043 H 0.19684 0.93869 0.95095 0.0
H2044 H 0.24369 0.74251 0.95769 0.0
H2045 H 0.36356 0.76699 0.96853 0.0
H2046 H 0.34741 0.87028 0.95958 0.0
Cd2047 Cd 0.24962 0.28213 0.97098 0.0
C2048 C 0.14821 0.24117 0.96246 0.0
C2049 C 0.29357 0.50548 0.97829 0.0
O2050 O 0.27078 0.51418 0.98411 0.0
Cd2051 Cd 0.23505 0.25825 0.95373 0.0
C2052 C 0.33936 0.52355 0.9796 0.0
C2053 C 0.42599 0.55258 0.97849 0.0
C2054 C 0.39729 0.52247 0.97213 0.0
N2055 N 0.35626 0.50934 0.97323 0.0
C2056 C 0.36614 0.55382 0.98618 0.0
C2057 C 0.40991 0.56813 0.9856 0.0
Co2058 Co 0.32045 0.47377 0.96404 0.0
C2059 C 0.40587 0.50364 0.96376 0.0
O2060 O 0.44368 0.50971 0.96182 0.0
C2061 C 0.37148 0.44902 0.95142 0.0
C2062 C 0.35446 0.40704 0.95379 0.0
C2063 C 0.34042 0.37634 0.94673 0.0
C2064 C 0.35192 0.38868 0.93729 0.0
C2065 C 0.3777 0.43175 0.93492 0.0
C2066 C 0.38509 0.4623 0.94201 0.0
C2067 C 0.30784 0.33334 0.94932 0.0
C2068 C 0.23118 0.45066 0.96986 0.0
C2069 C 0.20804 0.42502 0.97755 0.0
C2070 C 0.20975 0.44974 0.96153 0.0
C2071 C 0.16636 0.42184 0.96072 0.0
C2072 C 0.14376 0.39518 0.96828 0.0
C2073 C 0.1643 0.39706 0.97686 0.0
N2074 N 0.27608 0.47835 0.97075 0.0
N2075 N 0.37104 0.47652 0.9586 0.0
N2076 N 0.3047 0.42176 0.9712 0.0
C2077 C 0.31945 0.41853 0.98048 0.0
C2078 C 0.29125 0.4019 0.98815 0.0
C2079 C 0.36142 0.42859 0.98175 0.0
C2080 C 0.30493 0.39678 0.99714 0.0
H2081 H 0.25842 0.39212 0.98705 0.0
C2082 C 0.34743 0.40804 0.99834 0.0
C2083 C 0.37585 0.42362 0.99067 0.0
C2084 C 0.27478 0.37895 0.00521 0.0
H2085 H 0.38247 0.43881 0.97572 0.0
H2086 H 0.35823 0.40393 0.00523 0.0
C2087 C 0.42029 0.43381 0.99193 0.0
O2088 O 0.28806 0.3735 0.01379 0.0
O2089 O 0.23775 0.36898 0.00414 0.0
O2090 O 0.44534 0.4484 0.98533 0.0
O2091 O 0.43333 0.42688 0.0004 0.0
H2092 H 0.2689 0.36167 0.01912 0.0
H2093 H 0.46206 0.43301 0.00136 0.0
N2094 N 0.28511 0.43832 0.95479 0.0
C2095 C 0.28259 0.45659 0.9468 0.0
C2096 C 0.25433 0.43096 0.93975 0.0
C2097 C 0.22998 0.38705 0.94154 0.0
C2098 C 0.23375 0.36981 0.95026 0.0
C2099 C 0.26261 0.39734 0.95697 0.0
N2100 N 0.32919 0.51942 0.95555 0.0
C2101 C 0.3078 0.50306 0.94721 0.0
O2102 O 0.30575 0.52712 0.94052 0.0
C2103 C 0.27241 0.38767 0.96653 0.0
O2104 O 0.3116 0.29802 0.98012 0.0
O2105 O 0.25846 0.29004 0.98849 0.0
C2106 C 0.34407 0.56218 0.95846 0.0
C2107 C 0.38749 0.59 0.95984 0.0
C2108 C 0.40148 0.6302 0.96367 0.0
C2109 C 0.37203 0.64298 0.96565 0.0
C2110 C 0.32909 0.61681 0.96365 0.0
C2111 C 0.31502 0.57615 0.9601 0.0
O2112 O 0.17036 0.24821 0.96998 0.0
O2113 O 0.1655 0.24676 0.95435 0.0
O2114 O 0.29784 0.32565 0.95807 0.0
O2115 O 0.28397 0.30774 0.94305 0.0
O2116 O 0.24756 0.34975 0.97081 0.0
C2117 C 0.23637 0.18403 0.96291 0.0
O2118 O 0.23934 0.19669 0.95442 0.0
O2119 O 0.23643 0.20715 0.96971 0.0
C2120 C 0.29634 0.29746 0.98826 0.0
H2121 H 0.45955 0.5643 0.97788 0.0
H2122 H 0.35395 0.56645 0.99148 0.0
H2123 H 0.4314 0.59176 0.99056 0.0
H2124 H 0.34787 0.39821 0.96119 0.0
H2125 H 0.34084 0.36468 0.93181 0.0
H2126 H 0.4014 0.49563 0.94033 0.0
H2127 H 0.22435 0.42703 0.98411 0.0
H2128 H 0.22618 0.47102 0.95572 0.0
H2129 H 0.1101 0.37422 0.96749 0.0
H2130 H 0.25053 0.44429 0.93321 0.0
H2131 H 0.20781 0.3665 0.93623 0.0
H2132 H 0.2149 0.33633 0.95167 0.0
H2133 H 0.41015 0.58038 0.95798 0.0
H2134 H 0.3831 0.67487 0.96817 0.0
H2135 H 0.28177 0.55541 0.95865 0.0
Cd2136 Cd 0.77554 0.61699 0.80259 0.0
C2137 C 0.83353 0.57454 0.79336 0.0
C2138 C 0.95811 0.83847 0.81252 0.0
O2139 O 0.99011 0.84658 0.81812 0.0
Cd2140 Cd 0.76433 0.59424 0.78431 0.0
C2141 C 0.93027 0.85599 0.81435 0.0
C2142 C 0.87254 0.885 0.81412 0.0
C2143 C 0.87073 0.8558 0.80743 0.0
N2144 N 0.89869 0.84254 0.80812 0.0
C2145 C 0.93416 0.8853 0.82125 0.0
C2146 C 0.90462 0.89958 0.82112 0.0
Co2147 Co 0.89881 0.8089 0.79842 0.0
C2148 C 0.84302 0.83834 0.79906 0.0
O2149 O 0.81163 0.84522 0.79735 0.0
C2150 C 0.82418 0.78781 0.78583 0.0
C2151 C 0.79844 0.74499 0.78728 0.0
C2152 C 0.78287 0.7172 0.77958 0.0
C2153 C 0.78677 0.73356 0.77038 0.0
C2154 C 0.80756 0.77754 0.76894 0.0
C2155 C 0.82767 0.80481 0.77668 0.0
C2156 C 0.7706 0.67289 0.78136 0.0
C2157 C 0.96534 0.7851 0.80336 0.0
C2158 C 0.96405 0.75906 0.81084 0.0
C2159 C 0.9851 0.78517 0.79482 0.0
C2160 C 1.00117 0.75791 0.79361 0.0
C2161 C 0.99854 0.731 0.80098 0.0
C2162 C 0.98074 0.73204 0.80977 0.0
N2163 N 0.9481 0.81253 0.80474 0.0
N2164 N 0.85068 0.81222 0.79352 0.0
N2165 N 0.8627 0.75544 0.80508 0.0
C2166 C 0.84488 0.75019 0.81444 0.0
C2167 C 0.85695 0.73235 0.82175 0.0
C2168 C 0.81267 0.75946 0.81611 0.0
C2169 C 0.83826 0.72519 0.83081 0.0
H2170 H 0.88029 0.72323 0.82031 0.0
C2171 C 0.80682 0.73584 0.83244 0.0
C2172 C 0.79353 0.75266 0.82511 0.0
C2173 C 0.85092 0.70587 0.8385 0.0
H2174 H 0.8015 0.77059 0.8103 0.0
H2175 H 0.79209 0.73028 0.83939 0.0
C2176 C 0.7591 0.76222 0.82682 0.0
O2177 O 0.83182 0.69782 0.84709 0.0
O2178 O 0.87858 0.69699 0.8371 0.0
O2179 O 0.74783 0.77731 0.82048 0.0
O2180 O 0.73987 0.75419 0.83539 0.0
H2181 H 0.83934 0.68497 0.85217 0.0
H2182 H 0.71714 0.75987 0.83664 0.0
N2183 N 0.89862 0.7755 0.78866 0.0
C2184 C 0.91873 0.79541 0.78073 0.0
C2185 C 0.92033 0.77126 0.77319 0.0
C2186 C 0.90042 0.72698 0.77443 0.0
C2187 C 0.87998 0.70789 0.78309 0.0
C2188 C 0.87967 0.73404 0.79031 0.0
N2189 N 0.93527 0.85631 0.79029 0.0
C2190 C 0.93989 0.84172 0.78164 0.0
O2191 O 0.96542 0.8672 0.77505 0.0
C2192 C 0.86021 0.7223 0.79986 0.0
O2193 O 0.7282 0.6311 0.81183 0.0
O2194 O 0.77332 0.62267 0.82011 0.0
C2195 C 0.96311 0.89859 0.7935 0.0
C2196 C 0.9477 0.92646 0.79507 0.0
C2197 C 0.97444 0.96681 0.7988 0.0
C2198 C 0.01678 0.97938 0.80061 0.0
C2199 C 0.03325 0.95308 0.79846 0.0
C2200 C 0.00623 0.91246 0.79493 0.0
O2201 O 0.81941 0.58199 0.80099 0.0
O2202 O 0.8217 0.5808 0.78533 0.0
O2203 O 0.77334 0.66237 0.78985 0.0
O2204 O 0.76634 0.64822 0.7746 0.0
O2205 O 0.8461 0.68317 0.80357 0.0
C2206 C 0.69015 0.51948 0.79427 0.0
O2207 O 0.69776 0.53329 0.78582 0.0
O2208 O 0.71459 0.54191 0.80097 0.0
C2209 C 0.74263 0.62975 0.81995 0.0
H2210 H 0.85069 0.89679 0.81384 0.0
H2211 H 0.95938 0.89728 0.82644 0.0
H2212 H 0.90708 0.9225 0.82632 0.0
H2213 H 0.79465 0.73322 0.79448 0.0
H2214 H 0.77389 0.7123 0.76436 0.0
H2215 H 0.84671 0.83855 0.77558 0.0
H2216 H 0.95018 0.76015 0.81755 0.0
H2217 H 0.98908 0.80682 0.78917 0.0
H2218 H 0.01174 0.71062 0.79992 0.0
H2219 H 0.93677 0.78594 0.76665 0.0
H2220 H 0.90116 0.70752 0.76872 0.0
H2221 H 0.86483 0.67407 0.78405 0.0
H2222 H 0.91532 0.91693 0.79334 0.0
H2223 H 0.038 0.01138 0.80301 0.0
H2224 H 0.01857 0.89175 0.79327 0.0
Cd2225 Cd 0.54527 0.2387 0.80321 0.0
C2226 C 0.58023 0.34149 0.79613 0.0
C2227 C 0.32052 0.19311 0.81075 0.0
O2228 O 0.31159 0.21578 0.81655 0.0
Cd2229 Cd 0.56345 0.25831 0.78645 0.0
C2230 C 0.30299 0.14749 0.81214 0.0
C2231 C 0.27432 0.06099 0.81108 0.0
C2232 C 0.3042 0.08967 0.80468 0.0
N2233 N 0.3173 0.13068 0.80577 0.0
C2234 C 0.27292 0.12072 0.81877 0.0
C2235 C 0.25883 0.07702 0.81822 0.0
Co2236 Co 0.35197 0.1663 0.79643 0.0
C2237 C 0.32274 0.08106 0.79625 0.0
O2238 O 0.31695 0.04334 0.79436 0.0
C2239 C 0.37705 0.11541 0.78385 0.0
C2240 C 0.419 0.13206 0.78625 0.0
C2241 C 0.44988 0.14723 0.77921 0.0
C2242 C 0.43778 0.13675 0.76972 0.0
C2243 C 0.39478 0.11102 0.76728 0.0
C2244 C 0.36404 0.1028 0.77438 0.0
C2245 C 0.49221 0.18108 0.78185 0.0
C2246 C 0.37513 0.2555 0.80228 0.0
C2247 C 0.40014 0.27857 0.81005 0.0
C2248 C 0.37658 0.27702 0.79392 0.0
C2249 C 0.40444 0.32043 0.79317 0.0
C2250 C 0.43046 0.34297 0.80082 0.0
C2251 C 0.42792 0.32232 0.80943 0.0
N2252 N 0.34738 0.21061 0.80315 0.0
N2253 N 0.34941 0.11579 0.79102 0.0
N2254 N 0.40484 0.18291 0.80334 0.0
C2255 C 0.40897 0.16954 0.81271 0.0
C2256 C 0.42681 0.19893 0.82013 0.0
C2257 C 0.39846 0.12766 0.81432 0.0
C2258 C 0.43268 0.18656 0.8292 0.0
H2259 H 0.43691 0.23165 0.81876 0.0
C2260 C 0.42098 0.14416 0.83075 0.0
C2261 C 0.40419 0.11453 0.82333 0.0
C2262 C 0.45168 0.21794 0.83701 0.0
H2263 H 0.38726 0.10564 0.80847 0.0
H2264 H 0.42567 0.13435 0.83771 0.0
C2265 C 0.39349 0.07016 0.82496 0.0
O2266 O 0.45772 0.20589 0.84568 0.0
O2267 O 0.46206 0.25489 0.83564 0.0
O2268 O 0.37791 0.0441 0.81858 0.0
O2269 O 0.40104 0.0583 0.8335 0.0
H2270 H 0.4703 0.22586 0.85085 0.0
H2271 H 0.39459 0.02963 0.8347 0.0
N2272 N 0.38639 0.2013 0.787 0.0
C2273 C 0.36725 0.203 0.77907 0.0
C2274 C 0.39208 0.23059 0.77184 0.0
C2275 C 0.43618 0.25513 0.77337 0.0
C2276 C 0.4544 0.25213 0.78202 0.0
C2277 C 0.42765 0.22384 0.78892 0.0
N2278 N 0.30532 0.15672 0.78816 0.0
C2279 C 0.32082 0.17759 0.77972 0.0
O2280 O 0.29603 0.17904 0.77314 0.0
C2281 C 0.43847 0.21472 0.79843 0.0
O2282 O 0.53215 0.1774 0.81237 0.0
O2283 O 0.53771 0.22934 0.82077 0.0
C2284 C 0.26279 0.14212 0.79127 0.0
C2285 C 0.23486 0.09877 0.79269 0.0
C2286 C 0.19474 0.08498 0.79659 0.0
C2287 C 0.18225 0.11457 0.79864 0.0
C2288 C 0.20854 0.15747 0.79665 0.0
C2289 C 0.24905 0.17133 0.79298 0.0
O2290 O 0.57801 0.31822 0.80314 0.0
O2291 O 0.57009 0.32553 0.78788 0.0
O2292 O 0.50083 0.18794 0.79069 0.0
O2293 O 0.51464 0.20915 0.77584 0.0
O2294 O 0.47691 0.23997 0.80248 0.0
C2295 C 0.64345 0.26071 0.79304 0.0
O2296 O 0.62898 0.26212 0.78496 0.0
O2297 O 0.62076 0.2545 0.80043 0.0
C2298 C 0.53162 0.19198 0.82051 0.0
H2299 H 0.26269 0.02747 0.81049 0.0
H2300 H 0.26022 0.13285 0.82406 0.0
H2301 H 0.23534 0.05554 0.82321 0.0
H2302 H 0.42766 0.13822 0.79367 0.0
H2303 H 0.46194 0.14893 0.76426 0.0
H2304 H 0.33074 0.08678 0.77268 0.0
H2305 H 0.39773 0.26221 0.81663 0.0
H2306 H 0.3557 0.26068 0.78806 0.0
H2307 H 0.45138 0.37664 0.80008 0.0
H2308 H 0.37803 0.2337 0.76534 0.0
H2309 H 0.45614 0.2768 0.76791 0.0
H2310 H 0.48803 0.27105 0.78321 0.0
H2311 H 0.24429 0.076 0.7908 0.0
H2312 H 0.15047 0.10367 0.80125 0.0
H2313 H 0.26989 0.20453 0.79151 0.0
Cd2314 Cd 0.92433 0.38715 0.80126 0.0
C2315 C 0.82226 0.32587 0.79314 0.0
C2316 C 0.96602 0.20623 0.81229 0.0
O2317 O 0.94345 0.17521 0.81824 0.0
Cd2318 Cd 0.90922 0.39189 0.7836 0.0
C2319 C 0.01164 0.2345 0.81363 0.0
C2320 C 0.09822 0.29197 0.81239 0.0
C2321 C 0.06949 0.29243 0.80589 0.0
N2322 N 0.02843 0.2648 0.80707 0.0
C2323 C 0.03845 0.232 0.82038 0.0
C2324 C 0.08218 0.26142 0.81974 0.0
Co2325 Co 0.9928 0.26238 0.79754 0.0
C2326 C 0.07807 0.31825 0.79724 0.0
O2327 O 0.11595 0.34929 0.79508 0.0
C2328 C 0.04392 0.33452 0.7841 0.0
C2329 C 0.02791 0.36114 0.7856 0.0
C2330 C 0.01421 0.37561 0.77796 0.0
C2331 C 0.0245 0.36994 0.76867 0.0
C2332 C 0.04697 0.34847 0.7671 0.0
C2333 C 0.05533 0.32928 0.77487 0.0
C2334 C 0.98237 0.38794 0.77997 0.0
C2335 C 0.90345 0.19711 0.80368 0.0
C2336 C 0.88015 0.19875 0.81145 0.0
C2337 C 0.88194 0.17611 0.7954 0.0
C2338 C 0.83826 0.1591 0.79473 0.0
C2339 C 0.81542 0.16197 0.80239 0.0
C2340 C 0.8361 0.18101 0.81094 0.0
N2341 N 0.94842 0.21462 0.80456 0.0
N2342 N 0.04329 0.3093 0.79193 0.0
N2343 N 0.97647 0.29998 0.80389 0.0
C2344 C 0.98948 0.31853 0.81318 0.0
C2345 C 0.95986 0.30734 0.82053 0.0
C2346 C 0.03127 0.3502 0.81475 0.0
C2347 C 0.97197 0.32625 0.82955 0.0
H2348 H 0.92721 0.28439 0.81916 0.0
C2349 C 0.01433 0.35718 0.83109 0.0
C2350 C 0.04416 0.36967 0.8237 0.0
C2351 C 0.94037 0.31424 0.8373 0.0
H2352 H 0.0534 0.36059 0.8089 0.0
H2353 H 0.02395 0.37211 0.838 0.0
C2354 C 0.08848 0.40351 0.82531 0.0
O2355 O 0.95209 0.33321 0.8459 0.0
O2356 O 0.90355 0.28721 0.83597 0.0
O2357 O 0.11459 0.41403 0.81893 0.0
O2358 O 0.10026 0.42301 0.83385 0.0
H2359 H 0.93197 0.3261 0.85102 0.0
H2360 H 0.12889 0.44535 0.83503 0.0
N2361 N 0.95785 0.26028 0.78793 0.0
C2362 C 0.95655 0.23859 0.78019 0.0
C2363 C 0.93 0.23579 0.77271 0.0
C2364 C 0.90613 0.25633 0.77379 0.0
C2365 C 0.90882 0.27865 0.78223 0.0
C2366 C 0.93602 0.2801 0.7894 0.0
N2367 N 0.00245 0.22411 0.78974 0.0
C2368 C 0.98183 0.21759 0.78123 0.0
O2369 O 0.98087 0.19077 0.77487 0.0
C2370 C 0.94526 0.30172 0.79871 0.0
O2371 O 0.98561 0.43593 0.81045 0.0
O2372 O 0.93274 0.38997 0.81875 0.0
C2373 C 0.01802 0.19737 0.7931 0.0
C2374 C 0.06172 0.21325 0.79406 0.0
C2375 C 0.07663 0.18756 0.7978 0.0
C2376 C 0.04761 0.14579 0.80029 0.0
C2377 C 0.00425 0.12873 0.79877 0.0
C2378 C 0.98943 0.1547 0.7952 0.0
O2379 O 0.84517 0.3428 0.80047 0.0
O2380 O 0.83909 0.33442 0.78493 0.0
O2381 O 0.97195 0.3878 0.78863 0.0
O2382 O 0.95897 0.38869 0.77343 0.0
O2383 O 0.92074 0.31666 0.80234 0.0
C2384 C 0.90639 0.46743 0.79154 0.0
O2385 O 0.91029 0.45645 0.78324 0.0
O2386 O 0.9082 0.44678 0.79868 0.0
C2387 C 0.97024 0.42106 0.81857 0.0
H2388 H 0.13178 0.31366 0.81173 0.0
H2389 H 0.02631 0.20785 0.82583 0.0
H2390 H 0.1037 0.26001 0.82481 0.0
H2391 H 0.0217 0.36631 0.79286 0.0
H2392 H 0.01504 0.38208 0.76269 0.0
H2393 H 0.06944 0.30972 0.77373 0.0
H2394 H 0.8965 0.21356 0.81798 0.0
H2395 H 0.89846 0.17168 0.78955 0.0
H2396 H 0.78153 0.14791 0.80174 0.0
H2397 H 0.92735 0.21806 0.76633 0.0
H2398 H 0.88536 0.25472 0.76811 0.0
H2399 H 0.89062 0.29439 0.78306 0.0
H2400 H 0.08388 0.24514 0.79183 0.0
H2401 H 0.05924 0.1253 0.80273 0.0
H2402 H 0.95594 0.14188 0.79399 0.0
Cd2403 Cd 0.27706 0.09982 0.02955 0.0
C2404 C 0.237 0.1619 0.03755 0.0
C2405 C 0.49863 0.28236 0.01891 0.0
O2406 O 0.50668 0.31389 0.01316 0.0
Cd2407 Cd 0.25829 0.09654 0.04719 0.0
C2408 C 0.51604 0.25433 0.01722 0.0
C2409 C 0.54517 0.19676 0.01776 0.0
C2410 C 0.51637 0.19568 0.02447 0.0
N2411 N 0.50297 0.22347 0.02363 0.0
C2412 C 0.54494 0.25747 0.01029 0.0
C2413 C 0.55928 0.22801 0.01057 0.0
Co2414 Co 0.47005 0.22476 0.03337 0.0
C2415 C 0.49947 0.16894 0.033 0.0
O2416 O 0.5064 0.13771 0.03486 0.0
C2417 C 0.44969 0.15149 0.04635 0.0
C2418 C 0.407 0.12486 0.04491 0.0
C2419 C 0.37903 0.11051 0.0526 0.0
C2420 C 0.39527 0.11619 0.06186 0.0
C2421 C 0.43928 0.13762 0.06336 0.0
C2422 C 0.46658 0.15676 0.05555 0.0
C2423 C 0.33491 0.09872 0.05066 0.0
C2424 C 0.44596 0.29086 0.02805 0.0
C2425 C 0.42029 0.28994 0.02053 0.0
C2426 C 0.44642 0.31124 0.03653 0.0
C2427 C 0.4199 0.32824 0.03762 0.0
C2428 C 0.39343 0.32606 0.03019 0.0
C2429 C 0.3942 0.30777 0.02147 0.0
N2430 N 0.4731 0.2732 0.02675 0.0
N2431 N 0.47386 0.17733 0.03855 0.0
N2432 N 0.41599 0.18776 0.02701 0.0
C2433 C 0.41019 0.16997 0.01764 0.0
C2434 C 0.39171 0.18187 0.01044 0.0
C2435 C 0.41996 0.13821 0.01584 0.0
C2436 C 0.38438 0.16348 0.00136 0.0
H2437 H 0.38233 0.20492 0.012 0.0
C2438 C 0.39549 0.13247 -0.00042 0.0
C2439 C 0.41296 0.11935 0.0068 0.0
C2440 C 0.36453 0.17606 0.99378 0.0
H2441 H 0.43175 0.12727 0.02156 0.0
H2442 H 0.38981 0.11798 0.99261 0.0
C2443 C 0.42312 0.08545 0.00494 0.0
O2444 O 0.35645 0.15734 0.98514 0.0
O2445 O 0.35523 0.20333 0.9953 0.0
O2446 O 0.43871 0.07429 0.01119 0.0
O2447 O 0.41509 0.0666 0.99632 0.0
H2448 H 0.34324 0.16481 0.98013 0.0
H2449 H 0.42115 0.04422 0.99497 0.0
N2450 N 0.43743 0.22571 0.04319 0.0
C2451 C 0.45802 0.24666 0.05098 0.0
C2452 C 0.43446 0.24874 0.0586 0.0
C2453 C 0.39001 0.22833 0.05758 0.0
C2454 C 0.37017 0.20686 0.04907 0.0
C2455 C 0.39574 0.20607 0.04177 0.0
N2456 N 0.51815 0.26224 0.04121 0.0
C2457 C 0.50428 0.26784 0.04986 0.0
O2458 O 0.53032 0.29404 0.05628 0.0
C2459 C 0.38316 0.1854 0.03236 0.0
O2460 O 0.28938 0.05139 0.02018 0.0
O2461 O 0.28249 0.09766 0.01202 0.0
C2462 C 0.56035 0.28925 0.03783 0.0
C2463 C 0.588 0.27335 0.03655 0.0
C2464 C 0.62838 0.29925 0.03272 0.0
C2465 C 0.64114 0.34124 0.03047 0.0
C2466 C 0.61504 0.35828 0.03231 0.0
C2467 C 0.57443 0.3321 0.03596 0.0
O2468 O 0.24224 0.14409 0.03028 0.0
O2469 O 0.24609 0.1543 0.04576 0.0
O2470 O 0.32433 0.09839 0.04201 0.0
O2471 O 0.31149 0.09936 0.05722 0.0
O2472 O 0.34359 0.17069 0.02881 0.0
C2473 C 0.17921 0.02045 0.03954 0.0
O2474 O 0.19431 0.03231 0.0478 0.0
O2475 O 0.20152 0.04031 0.03232 0.0
C2476 C 0.28878 0.0665 0.0121 0.0
H2477 H 0.55702 0.17498 0.01815 0.0
H2478 H 0.55659 0.28209 0.00495 0.0
H2479 H 0.58189 0.2299 0.00535 0.0
H2480 H 0.39542 0.11997 0.03767 0.0
H2481 H 0.37385 0.10421 0.06788 0.0
H2482 H 0.50028 0.17647 0.05665 0.0
H2483 H 0.4211 0.27566 0.01385 0.0
H2484 H 0.46796 0.31517 0.0422 0.0
H2485 H 0.37372 0.34009 0.03116 0.0
H2486 H 0.44968 0.26585 0.06503 0.0
H2487 H 0.371 0.22941 0.06336 0.0
H2488 H 0.33622 0.19126 0.04829 0.0
H2489 H 0.57829 0.24126 0.0386 0.0
H2490 H 0.67313 0.36187 0.02797 0.0
H2491 H 0.55391 0.34488 0.0374 0.0
Cd2492 Cd 0.04618 0.24752 0.02714 0.0
C2493 C 0.97847 0.14464 0.03414 0.0
C2494 C 0.86744 0.29384 0.01903 0.0
O2495 O 0.83617 0.27161 0.01313 0.0
Cd2496 Cd 0.04458 0.22772 0.04393 0.0
C2497 C 0.89568 0.33953 0.01781 0.0
C2498 C 0.95351 0.42593 0.01919 0.0
C2499 C 0.95424 0.3968 0.02553 0.0
N2500 N 0.92636 0.35587 0.02429 0.0
C2501 C 0.89286 0.36677 0.01124 0.0
C2502 C 0.92246 0.41041 0.01195 0.0
Co2503 Co 0.92472 0.3196 0.03355 0.0
C2504 C 0.98077 0.40483 0.03404 0.0
O2505 O 0.01252 0.44242 0.03611 0.0
C2506 C 0.99959 0.36966 0.04645 0.0
C2507 C 0.02489 0.35292 0.04414 0.0
C2508 C 0.03999 0.33742 0.05124 0.0
C2509 C 0.03766 0.34753 0.06072 0.0
C2510 C 0.02058 0.3735 0.06309 0.0
C2511 C 0.99864 0.38208 0.05591 0.0
C2512 C 0.04901 0.30394 0.04861 0.0
C2513 C 0.85888 0.23083 0.02733 0.0
C2514 C 0.86101 0.20817 0.0195 0.0
C2515 C 0.83814 0.2088 0.0356 0.0
C2516 C 0.822 0.16526 0.03618 0.0
C2517 C 0.82556 0.14309 0.02847 0.0
C2518 C 0.84436 0.16429 0.01995 0.0
N2519 N 0.87627 0.27579 0.02661 0.0
N2520 N 0.97227 0.36975 0.03918 0.0
N2521 N 0.96144 0.30343 0.02669 0.0
C2522 C 0.97968 0.31748 0.0174 0.0
C2523 C 0.96853 0.28867 0.00987 0.0
C2524 C 0.01134 0.35942 0.01598 0.0
C2525 C 0.98752 0.30168 0.00088 0.0
H2526 H 0.94562 0.25589 0.01109 0.0
C2527 C 0.01853 0.34414 -0.00047 0.0
C2528 C 0.03093 0.37319 0.00706 0.0
C2529 C 0.97559 0.2709 0.99296 0.0
H2530 H 0.02179 0.38097 0.02193 0.0
H2531 H 0.03359 0.35443 0.99264 0.0
C2532 C 0.06489 0.41761 0.00564 0.0
O2533 O 0.9944 0.28356 0.98436 0.0
O2534 O 0.94875 0.2339 0.99415 0.0
O2535 O 0.07508 0.44315 0.01213 0.0
O2536 O 0.08489 0.4301 0.99717 0.0
H2537 H 0.98733 0.26399 0.97913 0.0
H2538 H 0.10731 0.45881 0.99611 0.0
N2539 N 0.92344 0.28392 0.04289 0.0
C2540 C 0.90208 0.28171 0.05077 0.0
C2541 C 0.89883 0.25365 0.05793 0.0
C2542 C 0.91847 0.2292 0.05639 0.0
C2543 C 0.94026 0.23275 0.0478 0.0
C2544 C 0.94225 0.26148 0.04096 0.0
N2545 N 0.88711 0.32862 0.04175 0.0
C2546 C 0.88117 0.3072 0.05014 0.0
O2547 O 0.85452 0.30537 0.05666 0.0
C2548 C 0.9629 0.27127 0.03153 0.0
O2549 O 0.09492 0.30926 0.01814 0.0
O2550 O 0.04907 0.25753 0.0096 0.0
C2551 C 0.85948 0.3435 0.03863 0.0
C2552 C 0.87508 0.38694 0.03734 0.0
C2553 C 0.84905 0.40109 0.03346 0.0
C2554 C 0.80701 0.37171 0.03128 0.0
C2555 C 0.79017 0.32867 0.03316 0.0
C2556 C 0.81659 0.3145 0.03681 0.0
O2557 O 0.99956 0.16796 0.02713 0.0
O2558 O 0.98424 0.1605 0.0424 0.0
O2559 O 0.05099 0.29719 0.03977 0.0
O2560 O 0.0439 0.27608 0.05463 0.0
O2561 O 0.97653 0.2464 0.02747 0.0
C2562 C 0.12258 0.22603 0.03743 0.0
O2563 O 0.10653 0.22448 0.04549 0.0
O2564 O 0.10609 0.2321 0.03002 0.0
C2565 C 0.08027 0.29492 0.00995 0.0
H2566 H 0.97538 0.4594 0.01991 0.0
H2567 H 0.86838 0.35501 0.00587 0.0
H2568 H 0.92082 0.43224 0.00701 0.0
H2569 H 0.02799 0.34712 0.03674 0.0
H2570 H 0.04924 0.33518 0.06623 0.0
H2571 H 0.98154 0.39835 0.05755 0.0
H2572 H 0.87553 0.22495 0.01299 0.0
H2573 H 0.83345 0.22485 0.0415 0.0
H2574 H 0.81228 0.1093 0.02907 0.0
H2575 H 0.88123 0.25012 0.06439 0.0
H2576 H 0.91639 0.20718 0.06179 0.0
H2577 H 0.95506 0.21394 0.04659 0.0
H2578 H 0.90718 0.40952 0.03934 0.0
H2579 H 0.7863 0.38287 0.02872 0.0
H2580 H 0.80403 0.28121 0.0382 0.0
Cd2581 Cd 0.89865 0.86903 0.02863 0.0
C2582 C 0.99915 0.91294 0.0379 0.0
C2583 C 0.85832 0.64722 0.01866 0.0
O2584 O 0.88161 0.63887 0.01292 0.0
Cd2585 Cd 0.90996 0.89346 0.04689 0.0
C2586 C 0.8128 0.62973 0.01707 0.0
C2587 C 0.72614 0.60094 0.01774 0.0
C2588 C 0.75422 0.63036 0.0243 0.0
N2589 N 0.79534 0.6435 0.0234 0.0
C2590 C 0.78666 0.60019 0.01028 0.0
C2591 C 0.74289 0.58601 0.01064 0.0
Co2592 Co 0.83008 0.67743 0.03294 0.0
C2593 C 0.74484 0.64815 0.03274 0.0
O2594 O 0.70677 0.64141 0.03466 0.0
C2595 C 0.77788 0.69909 0.04585 0.0
C2596 C 0.79475 0.74183 0.04433 0.0
C2597 C 0.80733 0.76989 0.05198 0.0
C2598 C 0.79562 0.75386 0.06124 0.0
C2599 C 0.77282 0.70994 0.06277 0.0
C2600 C 0.76515 0.68241 0.05505 0.0
C2601 C 0.83883 0.81426 0.05008 0.0
C2602 C 0.91986 0.70114 0.02747 0.0
C2603 C 0.9436 0.72691 0.01986 0.0
C2604 C 0.94062 0.70171 0.03589 0.0
C2605 C 0.98402 0.72936 0.03684 0.0
C2606 C 0.00726 0.75606 0.02934 0.0
C2607 C 0.98733 0.75445 0.02068 0.0
N2608 N 0.87506 0.67347 0.02637 0.0
N2609 N 0.77917 0.67438 0.03813 0.0
N2610 N 0.8469 0.73069 0.02625 0.0
C2611 C 0.83359 0.73561 0.01694 0.0
C2612 C 0.8629 0.7532 0.00951 0.0
C2613 C 0.79191 0.72607 0.01544 0.0
C2614 C 0.85056 0.75963 0.00048 0.0
H2615 H 0.89552 0.76267 0.01083 0.0
C2616 C 0.80827 0.74868 -0.00099 0.0
C2617 C 0.77879 0.73226 0.00647 0.0
C2618 C 0.88185 0.77843 0.99264 0.0
H2619 H 0.77009 0.71521 0.02134 0.0
H2620 H 0.79848 0.75371 0.99209 0.0
C2621 C 0.73461 0.72244 0.00494 0.0
O2622 O 0.86995 0.78546 0.98405 0.0
O2623 O 0.9186 0.78777 0.99392 0.0
O2624 O 0.70874 0.70751 0.01138 0.0
O2625 O 0.7227 0.73006 0.99641 0.0
H2626 H 0.88987 0.79792 0.97887 0.0
H2627 H 0.69416 0.7242 0.99527 0.0
N2628 N 0.86428 0.71112 0.04256 0.0
C2629 C 0.86524 0.69146 0.05046 0.0
C2630 C 0.89172 0.71584 0.05788 0.0
C2631 C 0.91599 0.76008 0.05656 0.0
C2632 C 0.91381 0.7789 0.04793 0.0
C2633 C 0.88666 0.75253 0.04083 0.0
N2634 N 0.81983 0.63028 0.04109 0.0
C2635 C 0.83994 0.64512 0.04963 0.0
O2636 O 0.84062 0.61984 0.05619 0.0
C2637 C 0.87809 0.76397 0.03134 0.0
O2638 O 0.83669 0.85443 0.01952 0.0
O2639 O 0.8899 0.86251 0.01115 0.0
C2640 C 0.805 0.58791 0.0379 0.0
C2641 C 0.76159 0.56015 0.03647 0.0
C2642 C 0.74759 0.51989 0.03266 0.0
C2643 C 0.77712 0.50723 0.03063 0.0
C2644 C 0.82007 0.53342 0.03264 0.0
C2645 C 0.83405 0.57398 0.03624 0.0
O2646 O 0.97756 0.90435 0.03024 0.0
O2647 O 0.98104 0.90766 0.04591 0.0
O2648 O 0.85211 0.82439 0.04158 0.0
O2649 O 0.85867 0.83968 0.05677 0.0
O2650 O 0.90293 0.80292 0.02752 0.0
C2651 C 0.91011 0.96689 0.03641 0.0
O2652 O 0.90315 0.95351 0.0449 0.0
O2653 O 0.91294 0.94425 0.02987 0.0
C2654 C 0.85213 0.85544 0.01138 0.0
H2655 H 0.69254 0.58923 0.01819 0.0
H2656 H 0.79933 0.58794 0.00501 0.0
H2657 H 0.72188 0.56291 0.00554 0.0
H2658 H 0.80211 0.75335 0.0371 0.0
H2659 H 0.80431 0.77534 0.06722 0.0
H2660 H 0.75063 0.64872 0.05621 0.0
H2661 H 0.92778 0.72525 0.01324 0.0
H2662 H 0.92372 0.68031 0.04164 0.0
H2663 H 0.04091 0.7768 0.03022 0.0
H2664 H 0.89411 0.70136 0.06439 0.0
H2665 H 0.93674 0.77971 0.06218 0.0
H2666 H 0.93242 0.81269 0.0469 0.0
H2667 H 0.73892 0.56975 0.03836 0.0
H2668 H 0.76609 0.4753 0.02815 0.0
H2669 H 0.86724 0.59462 0.03778 0.0
Cd2670 Cd 0.04759 0.87255 0.52642 0.0
C2671 C 0.98487 0.91193 0.5346 0.0
C2672 C 0.86659 0.649 0.51986 0.0
O2673 O 0.83468 0.6403 0.51417 0.0
Cd2674 Cd 0.05335 0.89442 0.5434 0.0
C2675 C 0.89409 0.6308 0.51839 0.0
C2676 C 0.9515 0.60147 0.5192 0.0
C2677 C 0.9535 0.63173 0.52559 0.0
N2678 N 0.92567 0.64502 0.52464 0.0
C2679 C 0.88999 0.60038 0.51178 0.0
C2680 C 0.91936 0.58593 0.5122 0.0
Co2681 Co 0.92619 0.6807 0.5339 0.0
C2682 C 0.98152 0.65057 0.53388 0.0
O2683 O 0.01334 0.64444 0.53565 0.0
C2684 C 0.00293 0.7055 0.54617 0.0
C2685 C 0.02823 0.74729 0.54366 0.0
C2686 C 0.04515 0.77841 0.55063 0.0
C2687 C 0.04447 0.76657 0.56012 0.0
C2688 C 0.02685 0.7236 0.56262 0.0
C2689 C 0.00331 0.69274 0.55563 0.0
C2690 C 0.05473 0.82106 0.54795 0.0
C2691 C 0.85997 0.70418 0.52838 0.0
C2692 C 0.86185 0.72954 0.52069 0.0
C2693 C 0.84025 0.7055 0.53682 0.0
C2694 C 0.82492 0.7335 0.53771 0.0
C2695 C 0.82833 0.75985 0.53014 0.0
C2696 C 0.84615 0.75753 0.52146 0.0
N2697 N 0.87688 0.67628 0.52739 0.0
N2698 N 0.97428 0.67781 0.53911 0.0
N2699 N 0.96217 0.7327 0.52669 0.0
C2700 C 0.97923 0.73583 0.5173 0.0
C2701 C 0.9674 0.75297 0.50978 0.0
C2702 C 0.0106 0.72521 0.51577 0.0
C2703 C 0.98546 0.75814 0.5007 0.0
H2704 H 0.94476 0.76313 0.51108 0.0
C2705 C 0.01612 0.74628 0.49924 0.0
C2706 C 0.02916 0.7301 0.50675 0.0
C2707 C 0.97299 0.77666 0.4928 0.0
H2708 H 0.02168 0.7146 0.52169 0.0
H2709 H 0.03042 0.75039 0.49228 0.0
C2710 C 0.06277 0.7192 0.50521 0.0
O2711 O 0.99124 0.78244 0.48415 0.0
O2712 O 0.94625 0.78691 0.49408 0.0
O2713 O 0.07347 0.70421 0.51168 0.0
O2714 O 0.08186 0.72589 0.49664 0.0
H2715 H 0.98382 0.79473 0.47893 0.0
H2716 H 0.10402 0.71928 0.49549 0.0
N2717 N 0.92707 0.71622 0.54322 0.0
C2718 C 0.90683 0.69801 0.55127 0.0
C2719 C 0.90497 0.72371 0.55841 0.0
C2720 C 0.9247 0.76764 0.55665 0.0
C2721 C 0.94516 0.78485 0.54787 0.0
C2722 C 0.94577 0.75725 0.54108 0.0
N2723 N 0.88966 0.63507 0.54245 0.0
C2724 C 0.88535 0.65152 0.55085 0.0
O2725 O 0.8597 0.62755 0.55761 0.0
C2726 C 0.96467 0.76691 0.53145 0.0
O2727 O 0.09324 0.8566 0.51704 0.0
O2728 O 0.04777 0.86468 0.50885 0.0
C2729 C 0.86141 0.59228 0.53959 0.0
C2730 C 0.87675 0.56432 0.53807 0.0
C2731 C 0.85005 0.52401 0.53434 0.0
C2732 C 0.80764 0.51125 0.53261 0.0
C2733 C 0.79117 0.53754 0.53475 0.0
C2734 C 0.81822 0.57832 0.5382 0.0
O2735 O 0.00181 0.90636 0.5272 0.0
O2736 O 0.99465 0.90471 0.54276 0.0
O2737 O 0.05374 0.82873 0.53913 0.0
O2738 O 0.05346 0.84559 0.55411 0.0
O2739 O 0.97768 0.80492 0.52721 0.0
C2740 C 0.12976 0.97085 0.53518 0.0
O2741 O 0.11792 0.95759 0.54356 0.0
O2742 O 0.10892 0.94777 0.52815 0.0
C2743 C 0.07811 0.85708 0.50896 0.0
H2744 H 0.97327 0.58963 0.51969 0.0
H2745 H 0.86477 0.58773 0.50658 0.0
H2746 H 0.91676 0.56218 0.50722 0.0
H2747 H 0.03011 0.7557 0.53625 0.0
H2748 H 0.05755 0.7909 0.56553 0.0
H2749 H 0.98592 0.65953 0.55741 0.0
H2750 H 0.87557 0.72725 0.51406 0.0
H2751 H 0.83584 0.68443 0.54263 0.0
H2752 H 0.81575 0.78087 0.53098 0.0
H2753 H 0.88831 0.71042 0.56501 0.0
H2754 H 0.92366 0.78826 0.56203 0.0
H2755 H 0.95995 0.81835 0.54649 0.0
H2756 H 0.90919 0.57389 0.53975 0.0
H2757 H 0.7865 0.47932 0.53016 0.0
H2758 H 0.80593 0.59916 0.53976 0.0
Cd2759 Cd 0.28038 0.2519 0.52739 0.0
C2760 C 0.24281 0.14836 0.53439 0.0
C2761 C 0.50414 0.29766 0.51923 0.0
O2762 O 0.51206 0.27528 0.51312 0.0
Cd2763 Cd 0.26072 0.23185 0.54425 0.0
C2764 C 0.52297 0.34372 0.51829 0.0
C2765 C 0.55297 0.43033 0.52004 0.0
C2766 C 0.5227 0.40103 0.52629 0.0
N2767 N 0.50925 0.36012 0.5249 0.0
C2768 C 0.55333 0.37113 0.51179 0.0
C2769 C 0.56817 0.41489 0.5127 0.0
Co2770 Co 0.47324 0.32338 0.53389 0.0
C2771 C 0.50392 0.40874 0.53481 0.0
O2772 O 0.51036 0.44638 0.53705 0.0
C2773 C 0.44903 0.37285 0.54709 0.0
C2774 C 0.40685 0.35577 0.54485 0.0
C2775 C 0.37625 0.33936 0.55194 0.0
C2776 C 0.38875 0.34854 0.56144 0.0
C2777 C 0.4318 0.37467 0.56382 0.0
C2778 C 0.46235 0.38439 0.55658 0.0
C2779 C 0.33358 0.30638 0.5492 0.0
C2780 C 0.44876 0.23465 0.52749 0.0
C2781 C 0.42134 0.21261 0.51994 0.0
C2782 C 0.44773 0.21251 0.53569 0.0
C2783 C 0.41736 0.16997 0.53667 0.0
C2784 C 0.38839 0.14876 0.52938 0.0
C2785 C 0.39035 0.16959 0.5208 0.0
N2786 N 0.47711 0.27952 0.52677 0.0
N2787 N 0.47647 0.37335 0.53976 0.0
N2788 N 0.4217 0.30962 0.52679 0.0
C2789 C 0.41903 0.32811 0.51797 0.0
C2790 C 0.40611 0.30402 0.50962 0.0
C2791 C 0.42675 0.36965 0.51775 0.0
C2792 C 0.4015 0.32112 0.50105 0.0
H2793 H 0.39932 0.27187 0.50988 0.0
C2794 C 0.40972 0.36294 0.50095 0.0
C2795 C 0.42219 0.38743 0.50928 0.0
C2796 C 0.38768 0.29533 0.49223 0.0
H2797 H 0.4352 0.38785 0.52423 0.0
H2798 H 0.40597 0.37632 0.49439 0.0
C2799 C 0.42974 0.43126 0.50914 0.0
O2800 O 0.38229 0.31173 0.48409 0.0
O2801 O 0.38108 0.25912 0.49226 0.0
O2802 O 0.44143 0.45292 0.51634 0.0
O2803 O 0.42361 0.44748 0.50106 0.0
H2804 H 0.37303 0.29541 0.47828 0.0
H2805 H 0.42809 0.47587 0.50082 0.0
N2806 N 0.43732 0.28697 0.54293 0.0
C2807 C 0.45524 0.28269 0.5508 0.0
C2808 C 0.42927 0.25297 0.55758 0.0
C2809 C 0.38545 0.22895 0.55565 0.0
C2810 C 0.36864 0.23445 0.54704 0.0
C2811 C 0.39647 0.26476 0.54061 0.0
N2812 N 0.51852 0.33021 0.54227 0.0
C2813 C 0.50179 0.30754 0.55045 0.0
O2814 O 0.52553 0.30412 0.55702 0.0
C2815 C 0.38728 0.27644 0.53119 0.0
O2816 O 0.29301 0.31346 0.51838 0.0
O2817 O 0.28763 0.26161 0.50994 0.0
C2818 C 0.56152 0.34585 0.53941 0.0
C2819 C 0.58945 0.38955 0.53862 0.0
C2820 C 0.63017 0.4046 0.53495 0.0
C2821 C 0.64321 0.3758 0.53251 0.0
C2822 C 0.61681 0.33239 0.53388 0.0
C2823 C 0.57572 0.31735 0.53731 0.0
O2824 O 0.24714 0.17238 0.52736 0.0
O2825 O 0.25144 0.16364 0.54272 0.0
O2826 O 0.32521 0.29981 0.54034 0.0
O2827 O 0.30984 0.27887 0.55519 0.0
O2828 O 0.34952 0.25247 0.52677 0.0
C2829 C 0.18185 0.2308 0.53732 0.0
O2830 O 0.19613 0.23011 0.54547 0.0
O2831 O 0.20467 0.2362 0.52999 0.0
C2832 C 0.29371 0.29895 0.51023 0.0
H2833 H 0.56501 0.46383 0.52088 0.0
H2834 H 0.5656 0.35941 0.50631 0.0
H2835 H 0.59188 0.43685 0.50782 0.0
H2836 H 0.39776 0.35043 0.53747 0.0
H2837 H 0.36484 0.33534 0.56695 0.0
H2838 H 0.49574 0.40078 0.55819 0.0
H2839 H 0.42482 0.22922 0.51336 0.0
H2840 H 0.47038 0.22791 0.54133 0.0
H2841 H 0.36473 0.11609 0.53052 0.0
H2842 H 0.44231 0.24773 0.564 0.0
H2843 H 0.36464 0.20562 0.56075 0.0
H2844 H 0.33527 0.21579 0.54551 0.0
H2845 H 0.57956 0.41163 0.54081 0.0
H2846 H 0.67539 0.38755 0.53008 0.0
H2847 H 0.55483 0.28377 0.5383 0.0
Cd2848 Cd 0.90105 0.10472 0.52823 0.0
C2849 C 0.00268 0.16336 0.53675 0.0
C2850 C 0.85966 0.28599 0.51789 0.0
O2851 O 0.88237 0.31732 0.51204 0.0
Cd2852 Cd 0.91487 0.09583 0.54624 0.0
C2853 C 0.81405 0.25779 0.5165 0.0
C2854 C 0.72751 0.19994 0.51755 0.0
C2855 C 0.75613 0.19914 0.52403 0.0
N2856 N 0.79717 0.22704 0.52295 0.0
C2857 C 0.78736 0.26065 0.50978 0.0
C2858 C 0.74364 0.23105 0.51032 0.0
Co2859 Co 0.83269 0.22867 0.53241 0.0
C2860 C 0.74744 0.17266 0.53257 0.0
O2861 O 0.70955 0.14147 0.53466 0.0
C2862 C 0.78144 0.15577 0.54565 0.0
C2863 C 0.79801 0.12964 0.54412 0.0
C2864 C 0.81132 0.11478 0.55176 0.0
C2865 C 0.80037 0.11974 0.56105 0.0
C2866 C 0.77755 0.14087 0.56261 0.0
C2867 C 0.76938 0.16031 0.55487 0.0
C2868 C 0.84298 0.10217 0.54977 0.0
C2869 C 0.92206 0.29449 0.52648 0.0
C2870 C 0.94544 0.29285 0.51873 0.0
C2871 C 0.94339 0.31521 0.5348 0.0
C2872 C 0.98703 0.33201 0.53552 0.0
C2873 C 0.00997 0.32914 0.52787 0.0
C2874 C 0.98944 0.31028 0.5193 0.0
N2875 N 0.87712 0.27703 0.52556 0.0
N2876 N 0.78218 0.18126 0.53786 0.0
N2877 N 0.84909 0.19166 0.5258 0.0
C2878 C 0.83556 0.17317 0.51653 0.0
C2879 C 0.86474 0.18454 0.50908 0.0
C2880 C 0.79381 0.14115 0.51508 0.0
C2881 C 0.85222 0.1654 0.50009 0.0
H2882 H 0.8974 0.20772 0.51035 0.0
C2883 C 0.80987 0.13416 0.49867 0.0
C2884 C 0.78049 0.12154 0.50616 0.0
C2885 C 0.8834 0.17741 0.49224 0.0
H2886 H 0.77208 0.13054 0.521 0.0
H2887 H 0.79993 0.11907 0.49179 0.0
C2888 C 0.7362 0.08736 0.50468 0.0
O2889 O 0.87135 0.15801 0.4837 0.0
O2890 O 0.92018 0.20481 0.49346 0.0
O2891 O 0.71049 0.07669 0.51115 0.0
O2892 O 0.72402 0.0677 0.49617 0.0
H2893 H 0.89121 0.16509 0.47852 0.0
H2894 H 0.69541 0.04514 0.49507 0.0
N2895 N 0.86763 0.22997 0.54195 0.0
C2896 C 0.86896 0.25105 0.5498 0.0
C2897 C 0.89571 0.25346 0.5572 0.0
C2898 C 0.91979 0.23324 0.55591 0.0
C2899 C 0.91711 0.21165 0.54735 0.0
C2900 C 0.88971 0.21057 0.54027 0.0
N2901 N 0.82299 0.26622 0.54046 0.0
C2902 C 0.84359 0.27201 0.54896 0.0
O2903 O 0.84449 0.29824 0.55547 0.0
C2904 C 0.88048 0.18977 0.53087 0.0
O2905 O 0.83912 0.05703 0.51914 0.0
O2906 O 0.89231 0.10204 0.51076 0.0
C2907 C 0.80767 0.2934 0.53728 0.0
C2908 C 0.7641 0.27754 0.53608 0.0
C2909 C 0.74949 0.30372 0.53249 0.0
C2910 C 0.77864 0.34599 0.53046 0.0
C2911 C 0.82178 0.36297 0.53227 0.0
C2912 C 0.83634 0.33647 0.53563 0.0
O2913 O 0.9801 0.1484 0.52929 0.0
O2914 O 0.98555 0.15276 0.54491 0.0
O2915 O 0.85469 0.10383 0.54116 0.0
O2916 O 0.86469 0.09891 0.55637 0.0
O2917 O 0.90497 0.17513 0.52708 0.0
C2918 C 0.91507 0.02071 0.53689 0.0
O2919 O 0.91028 0.02964 0.54533 0.0
O2920 O 0.91547 0.04387 0.53005 0.0
C2921 C 0.85456 0.0714 0.51099 0.0
H2922 H 0.69396 0.17807 0.51815 0.0
H2923 H 0.79957 0.28516 0.50441 0.0
H2924 H 0.72221 0.23272 0.50527 0.0
H2925 H 0.80471 0.12496 0.53687 0.0
H2926 H 0.80956 0.10735 0.56702 0.0
H2927 H 0.75494 0.17956 0.55602 0.0
H2928 H 0.92917 0.2782 0.51219 0.0
H2929 H 0.92676 0.31949 0.54064 0.0
H2930 H 0.04382 0.34299 0.52857 0.0
H2931 H 0.8984 0.27069 0.56366 0.0
H2932 H 0.94072 0.23458 0.56151 0.0
H2933 H 0.9355 0.1962 0.54635 0.0
H2934 H 0.74176 0.24529 0.53802 0.0
H2935 H 0.76717 0.36683 0.52818 0.0
H2936 H 0.86966 0.34921 0.53705 0.0
Cd2937 Cd 0.54286 0.38657 0.30134 0.0
C2938 C 0.58324 0.32467 0.29336 0.0
C2939 C 0.32073 0.20514 0.31249 0.0
O2940 O 0.31247 0.174 0.31838 0.0
Cd2941 Cd 0.56171 0.38978 0.28369 0.0
C2942 C 0.30342 0.23337 0.31395 0.0
C2943 C 0.2744 0.29095 0.31297 0.0
C2944 C 0.30333 0.29151 0.30637 0.0
N2945 N 0.31672 0.2638 0.30743 0.0
C2946 C 0.27437 0.23075 0.32079 0.0
C2947 C 0.2601 0.26023 0.32028 0.0
Co2948 Co 0.34967 0.26162 0.2978 0.0
C2949 C 0.32028 0.3175 0.29774 0.0
O2950 O 0.31338 0.34858 0.29567 0.0
C2951 C 0.37016 0.33392 0.28447 0.0
C2952 C 0.41284 0.36056 0.2859 0.0
C2953 C 0.44078 0.37483 0.27821 0.0
C2954 C 0.42454 0.36904 0.26894 0.0
C2955 C 0.38052 0.34764 0.26745 0.0
C2956 C 0.35322 0.32858 0.27526 0.0
C2957 C 0.48493 0.38686 0.28015 0.0
C2958 C 0.37411 0.19639 0.30374 0.0
C2959 C 0.39917 0.19788 0.31146 0.0
C2960 C 0.3746 0.17568 0.2954 0.0
C2961 C 0.40138 0.15882 0.29464 0.0
C2962 C 0.42719 0.16154 0.30226 0.0
C2963 C 0.42555 0.18026 0.31086 0.0
N2964 N 0.34656 0.21375 0.30472 0.0
N2965 N 0.34588 0.30861 0.29232 0.0
N2966 N 0.40377 0.29916 0.3041 0.0
C2967 C 0.40957 0.31759 0.3134 0.0
C2968 C 0.42819 0.3063 0.32069 0.0
C2969 C 0.3996 0.34932 0.31505 0.0
C2970 C 0.43535 0.32518 0.32972 0.0
H2971 H 0.43778 0.28332 0.31925 0.0
C2972 C 0.42406 0.35616 0.33133 0.0
C2973 C 0.40652 0.36874 0.32401 0.0
C2974 C 0.4552 0.31312 0.3374 0.0
H2975 H 0.38773 0.3598 0.30925 0.0
H2976 H 0.42965 0.37106 0.33826 0.0
C2977 C 0.3962 0.40263 0.32571 0.0
O2978 O 0.46289 0.33213 0.34599 0.0
O2979 O 0.4648 0.28599 0.336 0.0
O2980 O 0.38044 0.41324 0.31938 0.0
O2981 O 0.40425 0.42209 0.33425 0.0
H2982 H 0.47608 0.32499 0.35107 0.0
H2983 H 0.39807 0.44447 0.33549 0.0
N2984 N 0.3823 0.25979 0.28809 0.0
C2985 C 0.36172 0.23823 0.28036 0.0
C2986 C 0.38528 0.23559 0.27281 0.0
C2987 C 0.42973 0.25613 0.27383 0.0
C2988 C 0.44957 0.27829 0.28227 0.0
C2989 C 0.42399 0.27961 0.28951 0.0
N2990 N 0.30157 0.22345 0.29003 0.0
C2991 C 0.31547 0.21714 0.28147 0.0
O2992 O 0.28945 0.19043 0.27511 0.0
C2993 C 0.43659 0.30104 0.29883 0.0
O2994 O 0.5306 0.43533 0.31062 0.0
O2995 O 0.53782 0.38945 0.31886 0.0
C2996 C 0.25939 0.19653 0.29345 0.0
C2997 C 0.23171 0.21242 0.29467 0.0
C2998 C 0.19133 0.18661 0.2985 0.0
C2999 C 0.17858 0.14467 0.30081 0.0
C3000 C 0.20468 0.1276 0.29902 0.0
C3001 C 0.24532 0.15372 0.29538 0.0
O3002 O 0.57779 0.34234 0.30063 0.0
O3003 O 0.57427 0.3323 0.28514 0.0
O3004 O 0.49553 0.38729 0.28881 0.0
O3005 O 0.5085 0.38649 0.2736 0.0
O3006 O 0.47615 0.31597 0.3024 0.0
C3007 C 0.64052 0.46607 0.29129 0.0
O3008 O 0.62539 0.45416 0.28304 0.0
O3009 O 0.61829 0.44618 0.29853 0.0
C3010 C 0.53141 0.42053 0.31873 0.0
H3011 H 0.26255 0.31268 0.3124 0.0
H3012 H 0.26254 0.2065 0.32621 0.0
H3013 H 0.23737 0.25873 0.32542 0.0
H3014 H 0.42443 0.36574 0.29313 0.0
H3015 H 0.44594 0.38101 0.26293 0.0
H3016 H 0.31951 0.30899 0.27418 0.0
H3017 H 0.39766 0.21247 0.31803 0.0
H3018 H 0.35357 0.17135 0.28958 0.0
H3019 H 0.4471 0.1476 0.30154 0.0
H3020 H 0.37006 0.21797 0.26643 0.0
H3021 H 0.44875 0.25463 0.26811 0.0
H3022 H 0.48353 0.29402 0.28306 0.0
H3023 H 0.24136 0.24442 0.29255 0.0
H3024 H 0.14657 0.12409 0.30331 0.0
H3025 H 0.26585 0.14091 0.29397 0.0
Cd3026 Cd 0.77397 0.2389 0.3038 0.0
C3027 C 0.84182 0.34161 0.29671 0.0
C3028 C 0.95254 0.19228 0.31197 0.0
O3029 O 0.98381 0.21457 0.31788 0.0
Cd3030 Cd 0.77547 0.25842 0.28699 0.0
C3031 C 0.92427 0.14661 0.31323 0.0
C3032 C 0.86642 0.06021 0.3119 0.0
C3033 C 0.8656 0.08928 0.30556 0.0
N3034 N 0.89346 0.13023 0.30678 0.0
C3035 C 0.92718 0.11943 0.3198 0.0
C3036 C 0.89756 0.07579 0.31912 0.0
Co3037 Co 0.8951 0.1664 0.29749 0.0
C3038 C 0.83904 0.08117 0.29705 0.0
O3039 O 0.80728 0.04356 0.295 0.0
C3040 C 0.82019 0.11623 0.28461 0.0
C3041 C 0.79489 0.13301 0.2869 0.0
C3042 C 0.7798 0.14846 0.27979 0.0
C3043 C 0.78213 0.13824 0.27032 0.0
C3044 C 0.79926 0.11229 0.26797 0.0
C3045 C 0.82117 0.10376 0.27516 0.0
C3046 C 0.77085 0.18202 0.28239 0.0
C3047 C 0.96052 0.25518 0.30374 0.0
C3048 C 0.9579 0.27737 0.31161 0.0
C3049 C 0.98101 0.27755 0.2955 0.0
C3050 C 0.9964 0.32099 0.29496 0.0
C3051 C 0.99228 0.34268 0.30271 0.0
C3052 C 0.97368 0.32112 0.3112 0.0
N3053 N 0.94361 0.21027 0.3044 0.0
N3054 N 0.8475 0.11621 0.29189 0.0
N3055 N 0.85842 0.18272 0.30433 0.0
C3056 C 0.84015 0.16879 0.31363 0.0
C3057 C 0.85106 0.19773 0.32112 0.0
C3058 C 0.80866 0.12681 0.31508 0.0
C3059 C 0.83211 0.18479 0.33012 0.0
H3060 H 0.87373 0.23055 0.31987 0.0
C3061 C 0.80131 0.14229 0.33151 0.0
C3062 C 0.78908 0.11312 0.324 0.0
C3063 C 0.84387 0.2157 0.33801 0.0
H3064 H 0.7983 0.10515 0.30915 0.0
H3065 H 0.78628 0.13206 0.3384 0.0
C3066 C 0.7553 0.06865 0.32545 0.0
O3067 O 0.82523 0.20308 0.34662 0.0
O3068 O 0.87043 0.25276 0.33677 0.0
O3069 O 0.74534 0.04298 0.319 0.0
O3070 O 0.73522 0.05626 0.33392 0.0
H3071 H 0.83221 0.22273 0.35183 0.0
H3072 H 0.71291 0.02751 0.335 0.0
N3073 N 0.89639 0.20197 0.28812 0.0
C3074 C 0.91777 0.2041 0.28025 0.0
C3075 C 0.92105 0.23209 0.27307 0.0
C3076 C 0.90142 0.25657 0.27458 0.0
C3077 C 0.87962 0.25311 0.28317 0.0
C3078 C 0.8776 0.22445 0.29002 0.0
N3079 N 0.93267 0.15723 0.2893 0.0
C3080 C 0.93866 0.1786 0.28091 0.0
O3081 O 0.96531 0.18035 0.2744 0.0
C3082 C 0.857 0.21482 0.29946 0.0
O3083 O 0.72532 0.17732 0.31284 0.0
O3084 O 0.77111 0.22921 0.32135 0.0
C3085 C 0.96029 0.14237 0.29245 0.0
C3086 C 0.94467 0.09894 0.29377 0.0
C3087 C 0.97068 0.08484 0.29768 0.0
C3088 C 0.0127 0.11423 0.29986 0.0
C3089 C 0.02957 0.15724 0.29794 0.0
C3090 C 0.00318 0.17138 0.29427 0.0
O3091 O 0.82077 0.31842 0.30373 0.0
O3092 O 0.83592 0.32561 0.28846 0.0
O3093 O 0.76898 0.18895 0.29121 0.0
O3094 O 0.77593 0.20977 0.27634 0.0
O3095 O 0.84349 0.23985 0.30349 0.0
C3096 C 0.69765 0.26046 0.2935 0.0
O3097 O 0.71361 0.26184 0.28543 0.0
O3098 O 0.71416 0.25446 0.30091 0.0
C3099 C 0.73995 0.1918 0.32101 0.0
H3100 H 0.84456 0.02672 0.31119 0.0
H3101 H 0.95174 0.13123 0.32515 0.0
H3102 H 0.89927 0.05399 0.32405 0.0
H3103 H 0.7918 0.13891 0.2943 0.0
H3104 H 0.77054 0.15052 0.2648 0.0
H3105 H 0.8383 0.0875 0.27354 0.0
H3106 H 0.94357 0.26032 0.3181 0.0
H3107 H 0.986 0.26186 0.28956 0.0
H3108 H 0.00494 0.37639 0.30214 0.0
H3109 H 0.93865 0.23554 0.26662 0.0
H3110 H 0.90351 0.27853 0.26916 0.0
H3111 H 0.86484 0.27196 0.28435 0.0
H3112 H 0.91257 0.07635 0.29176 0.0
H3113 H 0.0334 0.1031 0.30244 0.0
H3114 H 0.01574 0.20466 0.29285 0.0
Cd3115 Cd 0.92083 0.61689 0.30216 0.0
C3116 C 0.82051 0.57338 0.29286 0.0
C3117 C 0.96121 0.83832 0.31244 0.0
O3118 O 0.93788 0.84652 0.3182 0.0
Cd3119 Cd 0.90959 0.59257 0.28377 0.0
C3120 C 0.00672 0.85575 0.31405 0.0
C3121 C 0.09338 0.88453 0.31339 0.0
C3122 C 0.06536 0.8553 0.3068 0.0
N3123 N 0.02423 0.84213 0.30769 0.0
C3124 C 0.03279 0.8851 0.32087 0.0
C3125 C 0.07657 0.89927 0.32052 0.0
Co3126 Co 0.98957 0.80847 0.2981 0.0
C3127 C 0.07481 0.83773 0.29832 0.0
O3128 O 0.11289 0.8445 0.29642 0.0
C3129 C 0.04189 0.78707 0.28516 0.0
C3130 C 0.02488 0.74427 0.28662 0.0
C3131 C 0.0125 0.71642 0.27893 0.0
C3132 C 0.02455 0.7327 0.26971 0.0
C3133 C 0.04751 0.77666 0.26824 0.0
C3134 C 0.05498 0.804 0.27599 0.0
C3135 C 0.98093 0.672 0.28076 0.0
C3136 C 0.89973 0.78452 0.30359 0.0
C3137 C 0.87597 0.75863 0.31119 0.0
C3138 C 0.87897 0.78396 0.29517 0.0
C3139 C 0.83561 0.7562 0.29421 0.0
C3140 C 0.81237 0.72939 0.30169 0.0
C3141 C 0.83226 0.73099 0.31035 0.0
N3142 N 0.94452 0.81225 0.3047 0.0
N3143 N 0.04053 0.81163 0.29291 0.0
N3144 N 0.97266 0.75503 0.30472 0.0
C3145 C 0.98587 0.74989 0.31402 0.0
C3146 C 0.9565 0.73216 0.32144 0.0
C3147 C 0.02757 0.75951 0.31554 0.0
C3148 C 0.96882 0.72572 0.33047 0.0
H3149 H 0.92387 0.72263 0.32011 0.0
C3150 C 0.01112 0.73681 0.33196 0.0
C3151 C 0.04066 0.75333 0.32451 0.0
C3152 C 0.93746 0.7068 0.3383 0.0
H3153 H 0.04944 0.77047 0.30965 0.0
H3154 H 0.02089 0.73177 0.33889 0.0
C3155 C 0.08489 0.76333 0.32606 0.0
O3156 O 0.94935 0.6998 0.3469 0.0
O3157 O 0.90069 0.69733 0.33701 0.0
O3158 O 0.11078 0.7783 0.31963 0.0
O3159 O 0.09681 0.75581 0.3346 0.0
H3160 H 0.9294 0.68725 0.35207 0.0
H3161 H 0.12538 0.76179 0.33575 0.0
N3162 N 0.95547 0.77506 0.28845 0.0
C3163 C 0.95461 0.79495 0.28057 0.0
C3164 C 0.92819 0.77078 0.27312 0.0
C3165 C 0.90387 0.7265 0.27439 0.0
C3166 C 0.90594 0.70744 0.28299 0.0
C3167 C 0.93304 0.73361 0.29012 0.0
N3168 N 0.99994 0.85585 0.29003 0.0
C3169 C 0.97993 0.84126 0.28147 0.0
O3170 O 0.97933 0.86673 0.27495 0.0
C3171 C 0.94148 0.72192 0.2996 0.0
O3172 O 0.98259 0.63179 0.31136 0.0
O3173 O 0.92881 0.6228 0.31965 0.0
C3174 C 0.01473 0.89813 0.29329 0.0
C3175 C 0.05812 0.92584 0.29475 0.0
C3176 C 0.07205 0.96601 0.29862 0.0
C3177 C 0.04248 0.9786 0.30066 0.0
C3178 C 0.99957 0.95248 0.29861 0.0
C3179 C 0.98565 0.91201 0.29495 0.0
O3180 O 0.84208 0.58179 0.30051 0.0
O3181 O 0.83858 0.57868 0.28484 0.0
O3182 O 0.9674 0.66161 0.28924 0.0
O3183 O 0.96131 0.64676 0.27403 0.0
O3184 O 0.91654 0.6829 0.30337 0.0
C3185 C 0.90976 0.51925 0.29433 0.0
O3186 O 0.91643 0.53253 0.28584 0.0
O3187 O 0.907 0.5419 0.30088 0.0
C3188 C 0.96672 0.63028 0.31948 0.0
H3189 H 0.12698 0.89625 0.31295 0.0
H3190 H 0.02008 0.89722 0.32616 0.0
H3191 H 0.09753 0.92223 0.32566 0.0
H3192 H 0.01731 0.73255 0.29383 0.0
H3193 H 0.01603 0.71139 0.2637 0.0
H3194 H 0.06964 0.83773 0.27488 0.0
H3195 H 0.89176 0.76028 0.31781 0.0
H3196 H 0.89586 0.80545 0.28943 0.0
H3197 H 0.77874 0.70858 0.30079 0.0
H3198 H 0.92588 0.78544 0.26663 0.0
H3199 H 0.88315 0.70704 0.26874 0.0
H3200 H 0.88728 0.67363 0.28397 0.0
H3201 H 0.08081 0.91631 0.29285 0.0
H3202 H 0.05347 0.01047 0.30318 0.0
H3203 H 0.95249 0.89142 0.29338 0.0
C3204 C 0.54197 0.88232 0.11821 0.0
C3205 C 0.52356 0.88623 0.12665 0.0
H3206 H 0.57151 0.85241 0.11108 0.0
C3207 C 0.5262 0.86602 0.13493 0.0
H3208 H 0.54112 0.89798 0.11174 0.0
C3209 C 0.54374 0.83958 0.13454 0.0
C3210 C 0.55895 0.83305 0.12588 0.0
H3211 H 0.5125 0.86857 0.14155 0.0
H3212 H 0.54317 0.82249 0.14089 0.0
C3213 C 0.55943 0.85611 0.11783 0.0
C3214 C 0.29237 0.74301 0.13826 0.0
C3215 C 0.26421 0.72124 0.13079 0.0
H3216 H 0.34321 0.80234 0.14315 0.0
C3217 C 0.2608 0.74447 0.12323 0.0
H3218 H 0.29556 0.72596 0.14421 0.0
C3219 C 0.28807 0.78786 0.12259 0.0
C3220 C 0.31925 0.80909 0.12953 0.0
H3221 H 0.23886 0.72873 0.11744 0.0
H3222 H 0.28627 0.80435 0.11636 0.0
C3223 C 0.31974 0.78672 0.13764 0.0
C3224 C 0.37429 0.61747 0.13596 0.0
C3225 C 0.35091 0.60199 0.12751 0.0
H3226 H 0.4357 0.6472 0.14242 0.0
C3227 C 0.37128 0.5989 0.11933 0.0
H3228 H 0.35937 0.62 0.14239 0.0
C3229 C 0.41463 0.61406 0.11936 0.0
C3230 C 0.43883 0.63305 0.12755 0.0
H3231 H 0.35403 0.58643 0.11275 0.0
H3232 H 0.42947 0.61294 0.11278 0.0
C3233 C 0.418 0.63301 0.13597 0.0
C3234 C 0.83399 0.53713 0.36153 0.0
C3235 C 0.82621 0.5526 0.36999 0.0
H3236 H 0.86553 0.50736 0.35502 0.0
C3237 C 0.84975 0.55564 0.37815 0.0
H3238 H 0.81647 0.53464 0.35511 0.0
C3239 C 0.87788 0.54043 0.37809 0.0
C3240 C 0.88297 0.52144 0.36989 0.0
H3241 H 0.84506 0.5681 0.38475 0.0
H3242 H 0.89391 0.54151 0.38466 0.0
C3243 C 0.86211 0.52155 0.36148 0.0
C3244 C 0.59381 0.4101 0.37456 0.0
C3245 C 0.62007 0.43331 0.36693 0.0
H3246 H 0.55973 0.35026 0.38144 0.0
C3247 C 0.62604 0.4115 0.3594 0.0
H3248 H 0.58794 0.42587 0.38039 0.0
C3249 C 0.60968 0.36778 0.36001 0.0
C3250 C 0.58725 0.34546 0.36816 0.0
H3251 H 0.64597 0.42852 0.35341 0.0
H3252 H 0.61721 0.35214 0.35445 0.0
C3253 C 0.5777 0.36672 0.37518 0.0
C3254 C 0.7366 0.27161 0.3791 0.0
C3255 C 0.71413 0.26795 0.37071 0.0
H3256 H 0.79618 0.30135 0.38618 0.0
C3257 C 0.73684 0.28847 0.36243 0.0
H3258 H 0.7202 0.25572 0.38556 0.0
C3259 C 0.78083 0.31494 0.36279 0.0
C3260 C 0.80273 0.32122 0.37142 0.0
H3261 H 0.72046 0.28612 0.35584 0.0
H3262 H 0.79724 0.33226 0.35646 0.0
C3263 C 0.78029 0.29786 0.37945 0.0
C3264 C 0.63354 0.28964 0.86168 0.0
C3265 C 0.63694 0.27153 0.87024 0.0
H3266 H 0.61746 0.33279 0.85512 0.0
C3267 C 0.62096 0.27914 0.87864 0.0
H3268 H 0.64534 0.28423 0.85507 0.0
C3269 C 0.60533 0.30693 0.87867 0.0
C3270 C 0.60498 0.32769 0.87029 0.0
H3271 H 0.62244 0.26526 0.88534 0.0
H3272 H 0.59517 0.31352 0.88538 0.0
C3273 C 0.61759 0.31747 0.86171 0.0
C3274 C 0.86598 0.3692 0.87634 0.0
C3275 C 0.83795 0.34667 0.86892 0.0
H3276 H 0.91189 0.4294 0.88175 0.0
C3277 C 0.84 0.36804 0.86043 0.0
H3278 H 0.86584 0.35362 0.8829 0.0
C3279 C 0.86672 0.41186 0.85975 0.0
C3280 C 0.89161 0.4348 0.86757 0.0
H3281 H 0.81903 0.35147 0.85455 0.0
H3282 H 0.86554 0.42803 0.8534 0.0
C3283 C 0.89248 0.41272 0.87567 0.0
C3284 C 0.79024 0.57206 0.8735 0.0
C3285 C 0.80995 0.56131 0.86634 0.0
H3286 H 0.73246 0.5641 0.87907 0.0
C3287 C 0.78639 0.53908 0.85831 0.0
H3288 H 0.80779 0.58994 0.87968 0.0
C3289 C 0.74279 0.52392 0.85798 0.0
C3290 C 0.72243 0.53106 0.86565 0.0
H3291 H 0.80091 0.53064 0.85265 0.0
H3292 H 0.7247 0.50401 0.85208 0.0
C3293 C 0.74702 0.5573 0.87314 0.0
C3294 C 0.28963 0.57732 0.62637 0.0
C3295 C 0.32321 0.59165 0.63286 0.0
H3296 H 0.23742 0.58262 0.62135 0.0
C3297 C 0.32513 0.6175 0.64047 0.0
H3298 H 0.28681 0.55662 0.62056 0.0
C3299 C 0.29672 0.63267 0.64091 0.0
C3300 C 0.26609 0.62196 0.63376 0.0
H3301 H 0.35055 0.62875 0.64561 0.0
H3302 H 0.30105 0.65541 0.64636 0.0
C3303 C 0.26125 0.59215 0.62684 0.0
C3304 C 0.56952 0.78577 0.62042 0.0
C3305 C 0.56661 0.80901 0.62804 0.0
H3306 H 0.55264 0.72499 0.61491 0.0
C3307 C 0.54919 0.78817 0.6367 0.0
H3308 H 0.5834 0.80087 0.6137 0.0
C3309 C 0.53155 0.74428 0.63741 0.0
C3310 C 0.53099 0.72073 0.62945 0.0
H3311 H 0.54677 0.80527 0.64274 0.0
H3312 H 0.51581 0.7286 0.64395 0.0
C3313 C 0.55189 0.74218 0.62111 0.0
C3314 C 0.41767 0.87352 0.61882 0.0
C3315 C 0.44176 0.88327 0.6272 0.0
H3316 H 0.35728 0.83681 0.6123 0.0
C3317 C 0.42078 0.86648 0.63589 0.0
H3318 H 0.43256 0.88623 0.61202 0.0
C3319 C 0.37711 0.83803 0.63605 0.0
C3320 C 0.35386 0.82578 0.62752 0.0
H3321 H 0.43836 0.8735 0.64248 0.0
H3322 H 0.3621 0.82385 0.64275 0.0
C3323 C 0.37439 0.84503 0.61897 0.0
C3324 C 0.20108 0.20747 0.45103 0.0
C3325 C 0.18487 0.214 0.45952 0.0
H3326 H 0.22886 0.17545 0.44406 0.0
C3327 C 0.1889 0.19563 0.46797 0.0
H3328 H 0.19902 0.22154 0.44441 0.0
C3329 C 0.20606 0.16885 0.46776 0.0
C3330 C 0.21956 0.1601 0.45911 0.0
H3331 H 0.17682 0.20014 0.47464 0.0
H3332 H 0.20694 0.15353 0.47428 0.0
C3333 C 0.21821 0.18093 0.45082 0.0
C3334 C 0.9591 0.07596 0.47214 0.0
C3335 C 0.92965 0.05387 0.46491 0.0
H3336 H 0.01056 0.13558 0.4767 0.0
C3337 C 0.92446 0.0768 0.45753 0.0
H3338 H 0.96368 0.05912 0.47793 0.0
C3339 C 0.95124 0.12025 0.4568 0.0
C3340 C 0.98376 0.14182 0.46344 0.0
H3341 H 0.9015 0.06076 0.45194 0.0
H3342 H 0.94805 0.1365 0.45068 0.0
C3343 C 0.98603 0.11973 0.47141 0.0
C3344 C 0.03767 0.93048 0.45357 0.0
C3345 C 0.01733 0.93403 0.4617 0.0
H3346 H 0.09574 0.94347 0.44712 0.0
C3347 C 0.04054 0.94929 0.47018 0.0
H3348 H 0.02052 0.91816 0.44697 0.0
C3349 C 0.08413 0.9642 0.47026 0.0
C3350 C 0.10502 0.96377 0.46188 0.0
H3351 H 0.02561 0.95215 0.47657 0.0
H3352 H 0.10176 0.97826 0.47672 0.0
C3353 C 0.08089 0.94494 0.45367 0.0
C3354 C 0.52492 0.85119 0.69563 0.0
C3355 C 0.54228 0.84835 0.70435 0.0
H3356 H 0.48163 0.86585 0.68861 0.0
C3357 C 0.53221 0.86296 0.71265 0.0
H3358 H 0.53211 0.84033 0.6891 0.0
C3359 C 0.50318 0.87705 0.71237 0.0
C3360 C 0.48367 0.87733 0.70379 0.0
H3361 H 0.54526 0.86171 0.71948 0.0
H3362 H 0.49498 0.88645 0.71898 0.0
C3363 C 0.49594 0.86573 0.69534 0.0
C3364 C 0.253 0.74164 0.70509 0.0
C3365 C 0.28205 0.76524 0.6979 0.0
H3366 H 0.2177 0.68175 0.71192 0.0
C3367 C 0.29167 0.74386 0.6909 0.0
H3368 H 0.24427 0.75702 0.71049 0.0
C3369 C 0.27619 0.70035 0.69172 0.0
C3370 C 0.25105 0.67781 0.69956 0.0
H3371 H 0.31375 0.76116 0.68525 0.0
H3372 H 0.28655 0.68515 0.68664 0.0
C3373 C 0.23783 0.69846 0.70593 0.0
C3374 C 0.40401 0.62214 0.6959 0.0
C3375 C 0.38049 0.60115 0.70405 0.0
H3376 H 0.46511 0.6657 0.69022 0.0
C3377 C 0.40213 0.6034 0.71249 0.0
H3378 H 0.38824 0.62086 0.68928 0.0
C3379 C 0.44589 0.62878 0.71302 0.0
C3380 C 0.46919 0.65277 0.70513 0.0
H3381 H 0.38503 0.58705 0.71885 0.0
H3382 H 0.46115 0.63123 0.71978 0.0
C3383 C 0.44805 0.64786 0.69645 0.0
C3384 C 0.28018 0.60493 0.21286 0.0
C3385 C 0.29835 0.60094 0.2044 0.0
H3386 H 0.2507 0.63478 0.22005 0.0
C3387 C 0.29537 0.62099 0.19613 0.0
H3388 H 0.2813 0.5894 0.21933 0.0
C3389 C 0.27774 0.64734 0.19654 0.0
C3390 C 0.26273 0.65393 0.20523 0.0
H3391 H 0.30889 0.61838 0.18948 0.0
H3392 H 0.27804 0.6643 0.1902 0.0
C3393 C 0.2626 0.63104 0.21327 0.0
C3394 C 0.52884 0.74365 0.19238 0.0
C3395 C 0.55773 0.76529 0.19974 0.0
H3396 H 0.47739 0.68444 0.18762 0.0
C3397 C 0.56184 0.74193 0.20718 0.0
H3398 H 0.5251 0.7608 0.18654 0.0
C3399 C 0.53452 0.69855 0.20784 0.0
C3400 C 0.50261 0.67747 0.20104 0.0
H3401 H 0.58434 0.75758 0.21288 0.0
H3402 H 0.53686 0.68197 0.21399 0.0
C3403 C 0.50143 0.69994 0.19302 0.0
C3404 C 0.44713 0.86929 0.19508 0.0
C3405 C 0.47059 0.88414 0.20353 0.0
H3406 H 0.38568 0.84022 0.18865 0.0
C3407 C 0.45034 0.88676 0.21178 0.0
H3408 H 0.46196 0.86712 0.18859 0.0
C3409 C 0.40703 0.87179 0.21181 0.0
C3410 C 0.38273 0.85344 0.2036 0.0
H3411 H 0.46767 0.89874 0.21837 0.0
H3412 H 0.39229 0.87256 0.21843 0.0
C3413 C 0.40346 0.85392 0.19511 0.0
C3414 C 0.94569 0.95115 0.95231 0.0
C3415 C 0.9382 0.96733 0.9607 0.0
H3416 H 0.98026 0.92553 0.94559 0.0
C3417 C 0.9567 0.96444 0.96924 0.0
H3418 H 0.93153 0.95225 0.94563 0.0
C3419 C 0.98478 0.94879 0.96922 0.0
C3420 C 0.99488 0.93601 0.96064 0.0
H3421 H 0.95141 0.97643 0.97583 0.0
H3422 H 1.00041 0.94906 0.97578 0.0
C3423 C 0.97376 0.93584 0.95228 0.0
C3424 C 0.20621 0.11754 0.97262 0.0
C3425 C 0.22919 0.14112 0.96465 0.0
H3426 H 0.17051 0.05585 0.97881 0.0
C3427 C 0.24069 0.12149 0.95763 0.0
H3428 H 0.19719 0.13201 0.97818 0.0
C3429 C 0.2259 0.0783 0.95804 0.0
C3430 C 0.19888 0.05368 0.96542 0.0
H3431 H 0.25917 0.13906 0.95151 0.0
H3432 H 0.23325 0.06376 0.95219 0.0
C3433 C 0.19103 0.07397 0.97299 0.0
C3434 C 0.03615 0.19512 0.95406 0.0
C3435 C 0.0135 0.16803 0.96161 0.0
H3436 H 0.09646 0.24022 0.94852 0.0
C3437 C 0.03482 0.17097 0.97017 0.0
H3438 H 0.02062 0.19428 0.94743 0.0
C3439 C 0.07869 0.19764 0.97081 0.0
C3440 C 0.10172 0.22157 0.96288 0.0
H3441 H 0.01816 0.15075 0.97615 0.0
H3442 H 0.09479 0.19719 0.97724 0.0
C3443 C 0.07971 0.22155 0.95469 0.0
C3444 C 0.86168 0.53297 0.80183 0.0
C3445 C 0.85976 0.55408 0.79364 0.0
H3446 H 0.87822 0.48886 0.80763 0.0
C3447 C 0.87895 0.55112 0.78523 0.0
H3448 H 0.84735 0.53476 0.80843 0.0
C3449 C 0.89653 0.52501 0.78478 0.0
C3450 C 0.89538 0.5011 0.79272 0.0
H3451 H 0.87866 0.56747 0.77883 0.0
H3452 H 0.90924 0.52209 0.77804 0.0
C3453 C 0.87933 0.50663 0.80137 0.0
C3454 C 0.59764 0.41138 0.78948 0.0
C3455 C 0.60045 0.38788 0.79707 0.0
H3456 H 0.62355 0.4715 0.78271 0.0
C3457 C 0.62806 0.40943 0.80464 0.0
H3458 H 0.57615 0.39584 0.78361 0.0
C3459 C 0.65542 0.45319 0.80412 0.0
C3460 C 0.65551 0.47585 0.79602 0.0
H3461 H 0.63079 0.3922 0.81061 0.0
H3462 H 0.67842 0.46864 0.80973 0.0
C3463 C 0.62492 0.45481 0.78895 0.0
C3464 C 0.70818 0.26712 0.78557 0.0
C3465 C 0.68755 0.26959 0.79377 0.0
H3466 H 0.76659 0.28184 0.77903 0.0
C3467 C 0.71074 0.28472 0.80225 0.0
H3468 H 0.69108 0.25494 0.77896 0.0
C3469 C 0.7545 0.30048 0.80229 0.0
C3470 C 0.77557 0.30111 0.79385 0.0
H3471 H 0.69563 0.28678 0.8087 0.0
H3472 H 0.77205 0.31438 0.80877 0.0
C3473 C 0.75157 0.28251 0.78562 0.0
C3474 C 0.18124 0.22042 0.04495 0.0
C3475 C 0.15803 0.21751 0.03674 0.0
H3476 H 0.2252 0.20627 0.05156 0.0
C3477 C 0.1662 0.20222 0.0283 0.0
H3478 H 0.17624 0.23274 0.05153 0.0
C3479 C 0.19437 0.18669 0.02831 0.0
C3480 C 0.21491 0.18647 0.03677 0.0
H3481 H 0.14895 0.19983 0.02184 0.0
H3482 H 0.1981 0.17266 0.02187 0.0
C3483 C 0.20944 0.20528 0.04495 0.0
C3484 C 0.95925 0.07657 0.02581 0.0
C3485 C 0.95222 0.09828 0.03319 0.0
H3486 H 0.95109 0.01725 0.021 0.0
C3487 C 0.92489 0.07498 0.04066 0.0
H3488 H 0.98005 0.09368 0.01994 0.0
C3489 C 0.90864 0.03157 0.0413 0.0
C3490 C 0.91915 0.01038 0.03446 0.0
H3491 H 0.91822 0.09068 0.04637 0.0
H3492 H 0.88977 0.01503 0.04746 0.0
C3493 C 0.94276 0.03283 0.02644 0.0
C3494 C 0.06802 0.93767 0.04613 0.0
C3495 C 0.04586 0.93352 0.03765 0.0
H3496 H 0.12735 0.96772 0.05332 0.0
C3497 C 0.0689 0.95356 0.02938 0.0
H3498 H 0.05138 0.92217 0.0526 0.0
C3499 C 0.11289 0.97999 0.0298 0.0
C3500 C 0.13448 0.9867 0.03849 0.0
H3501 H 0.05278 0.95084 0.02273 0.0
H3502 H 0.12955 0.99691 0.02345 0.0
C3503 C 0.11171 0.96387 0.04654 0.0
C3504 C 0.93529 0.93136 0.5421 0.0
C3505 C 0.95838 0.93197 0.53404 0.0
H3506 H 0.90305 0.95849 0.54924 0.0
C3507 C 0.96081 0.95699 0.5262 0.0
H3508 H 0.93217 0.91188 0.54819 0.0
C3509 C 0.94398 0.984 0.52681 0.0
C3510 C 0.92452 0.98626 0.53526 0.0
H3511 H 0.97825 0.95798 0.51988 0.0
H3512 H 0.9487 0.00501 0.52092 0.0
C3513 C 0.91861 0.95819 0.5427 0.0
C3514 C 0.22206 0.07755 0.541 0.0
C3515 C 0.22189 0.10199 0.5333 0.0
H3516 H 0.19323 0.01682 0.54756 0.0
C3517 C 0.19614 0.08145 0.52539 0.0
H3518 H 0.24205 0.09227 0.54713 0.0
C3519 C 0.16804 0.03777 0.52563 0.0
C3520 C 0.16531 0.01426 0.53379 0.0
H3521 H 0.19543 0.09942 0.51934 0.0
H3522 H 0.14645 0.02307 0.51974 0.0
C3523 C 0.19399 0.03426 0.54126 0.0
C3524 C 0.07106 0.1901 0.52777 0.0
C3525 C 0.04937 0.18865 0.53616 0.0
H3526 H 0.13052 0.20496 0.5215 0.0
C3527 C 0.07282 0.20713 0.54447 0.0
H3528 H 0.05393 0.1763 0.52124 0.0
C3529 C 0.11633 0.22326 0.54462 0.0
C3530 C 0.13763 0.22154 0.53646 0.0
H3531 H 0.05728 0.20721 0.55103 0.0
H3532 H 0.13298 0.23533 0.55128 0.0
C3533 C 0.11492 0.20648 0.52791 0.0
C3534 C 0.63902 0.26612 0.28598 0.0
C3535 C 0.66227 0.2691 0.29418 0.0
H3536 H 0.59501 0.2802 0.27937 0.0
C3537 C 0.65419 0.28452 0.30262 0.0
H3538 H 0.64395 0.25371 0.2794 0.0
C3539 C 0.62602 0.30006 0.3026 0.0
C3540 C 0.6054 0.30016 0.29415 0.0
H3541 H 0.67148 0.28698 0.30907 0.0
H3542 H 0.62235 0.31418 0.30904 0.0
C3543 C 0.61083 0.28127 0.28597 0.0
C3544 C 0.86131 0.40978 0.30502 0.0
C3545 C 0.86808 0.38798 0.29762 0.0
H3546 H 0.86954 0.46912 0.30982 0.0
C3547 C 0.89511 0.41121 0.2901 0.0
H3548 H 0.84077 0.39274 0.31093 0.0
C3549 C 0.91124 0.45459 0.28943 0.0
C3550 C 0.90093 0.47584 0.2963 0.0
H3551 H 0.90159 0.39545 0.28436 0.0
H3552 H 0.92984 0.47105 0.28324 0.0
C3553 C 0.87768 0.45349 0.30437 0.0
C3554 C 0.75161 0.5488 0.28466 0.0
C3555 C 0.77383 0.55292 0.29312 0.0
H3556 H 0.69221 0.51879 0.2775 0.0
C3557 C 0.75086 0.53297 0.30141 0.0
H3558 H 0.76821 0.56425 0.27818 0.0
C3559 C 0.70687 0.5066 0.30101 0.0
C3560 C 0.68521 0.49986 0.29233 0.0
H3561 H 0.76704 0.53569 0.30805 0.0
H3562 H 0.69026 0.48972 0.30737 0.0
C3563 C 0.70791 0.52265 0.28427 0.0
C3564 C 0.44189 0.15323 0.08079 0.0
C3565 C 0.45588 0.13912 0.07305 0.0
H3566 H 0.43772 0.15584 0.09599 0.0
C3567 C 0.48099 0.12075 0.07478 0.0
H3568 H 0.42245 0.16746 0.07961 0.0
C3569 C 0.48909 0.1135 0.08412 0.0
C3570 C 0.473 0.12539 0.09186 0.0
H3571 H 0.49183 0.10934 0.06892 0.0
H3572 H 0.50613 0.09675 0.08531 0.0
C3573 C 0.45076 0.14678 0.09013 0.0
C3574 C 0.07336 0.41728 0.0868 0.0
C3575 C 0.04535 0.42691 0.09153 0.0
H3576 H 0.08917 0.39638 0.07426 0.0
C3577 C 0.00777 0.41824 0.08683 0.0
H3578 H 0.102 0.42197 0.09017 0.0
C3579 C 0.99902 0.4008 0.07759 0.0
C3580 C 0.02779 0.39192 0.07288 0.0
H3581 H 0.98539 0.42524 0.09021 0.0
H3582 H 0.96971 0.39402 0.0742 0.0
C3583 C 0.06531 0.40123 0.07763 0.0
C3584 C 0.69826 0.66486 0.08357 0.0
C3585 C 0.72647 0.67945 0.09128 0.0
H3586 H 0.69124 0.66217 0.06837 0.0
C3587 C 0.77 0.69863 0.08952 0.0
H3588 H 0.66455 0.65005 0.08478 0.0
C3589 C 0.78523 0.7062 0.08016 0.0
C3590 C 0.75709 0.69383 0.07245 0.0
H3591 H 0.79232 0.71044 0.09535 0.0
H3592 H 0.81901 0.72353 0.07895 0.0
C3593 C 0.71347 0.67163 0.07421 0.0
C3594 C 0.1556 0.44504 0.41675 0.0
C3595 C 0.14039 0.45757 0.42455 0.0
H3596 H 0.158 0.4412 0.40154 0.0
C3597 C 0.11951 0.48038 0.42291 0.0
H3598 H 0.17167 0.42728 0.41787 0.0
C3599 C 0.11102 0.48763 0.4136 0.0
C3600 C 0.12411 0.47295 0.40581 0.0
H3601 H 0.1072 0.49 0.42882 0.0
H3602 H 0.09252 0.50293 0.41249 0.0
C3603 C 0.14792 0.4531 0.40745 0.0
C3604 C 0.67612 0.75287 0.42027 0.0
C3605 C 0.7139 0.76177 0.42492 0.0
H3606 H 0.63787 0.72871 0.40766 0.0
C3607 C 0.74228 0.75305 0.42005 0.0
H3608 H 0.65346 0.75925 0.42373 0.0
C3609 C 0.73424 0.73743 0.41085 0.0
C3610 C 0.6964 0.72761 0.40619 0.0
H3611 H 0.7711 0.75792 0.42336 0.0
H3612 H 0.75826 0.73308 0.40739 0.0
C3613 C 0.6674 0.73584 0.41099 0.0
C3614 C 0.43759 0.03397 0.42297 0.0
C3615 C 0.39455 0.01802 0.42491 0.0
H3616 H 0.48584 0.0556 0.41224 0.0
C3617 C 0.36597 0.006 0.41728 0.0
H3618 H 0.46024 0.04371 0.42874 0.0
C3619 C 0.3805 0.01196 0.40787 0.0
C3620 C 0.42386 0.03071 0.40596 0.0
H3621 H 0.33262 0.99355 0.4186 0.0
H3622 H 0.35819 0.00445 0.4021 0.0
C3623 C 0.45221 0.04075 0.41357 0.0
C3624 C 0.67327 0.03363 0.92304 0.0
C3625 C 0.69593 0.01269 0.92482 0.0
H3626 H 0.65128 0.06051 0.91247 0.0
C3627 C 0.70877 0.99733 0.91711 0.0
H3628 H 0.66344 0.0461 0.92888 0.0
C3629 C 0.70116 0.00488 0.90775 0.0
C3630 C 0.68146 0.02872 0.90597 0.0
H3631 H 0.72646 0.98126 0.91833 0.0
H3632 H 0.71329 0.99466 0.90192 0.0
C3633 C 0.66647 0.04198 0.91368 0.0
C3634 C 0.08397 0.74061 0.90995 0.0
C3635 C 0.11168 0.72977 0.90551 0.0
H3636 H 0.06722 0.7618 0.92229 0.0
C3637 C 0.14829 0.73733 0.91048 0.0
H3638 H 0.0561 0.73675 0.90633 0.0
C3639 C 0.15617 0.75449 0.91975 0.0
C3640 C 0.12745 0.76415 0.92421 0.0
H3641 H 0.17044 0.72945 0.90731 0.0
H3642 H 0.18469 0.76019 0.92335 0.0
C3643 C 0.09109 0.75636 0.91914 0.0
C3644 C 0.42188 0.48768 0.911 0.0
C3645 C 0.43154 0.45905 0.90649 0.0
H3646 H 0.3968 0.50172 0.92347 0.0
C3647 C 0.42357 0.42255 0.91152 0.0
H3648 H 0.42769 0.5163 0.90744 0.0
C3649 C 0.40779 0.41526 0.92072 0.0
C3650 C 0.397 0.4429 0.9252 0.0
H3651 H 0.42896 0.39872 0.90834 0.0
H3652 H 0.40392 0.38732 0.9243 0.0
C3653 C 0.40465 0.47961 0.92027 0.0
C3654 C 0.01404 0.66842 0.58669 0.0
C3655 C 0.05222 0.69703 0.59124 0.0
H3656 H 0.97536 0.6542 0.57416 0.0
C3657 C 0.0811 0.7333 0.58619 0.0
H3658 H 0.99096 0.63995 0.59026 0.0
C3659 C 0.07298 0.74043 0.57694 0.0
C3660 C 0.03464 0.71279 0.57241 0.0
H3661 H 0.11029 0.7571 0.58939 0.0
H3662 H 0.09725 0.7682 0.57335 0.0
C3663 C 0.00527 0.67631 0.57738 0.0
C3664 C 0.41428 0.39988 0.57872 0.0
C3665 C 0.44303 0.3922 0.5737 0.0
H3666 H 0.39868 0.41973 0.59147 0.0
C3667 C 0.48153 0.40235 0.57817 0.0
H3668 H 0.38486 0.39407 0.57556 0.0
C3669 C 0.49071 0.41986 0.5874 0.0
C3670 C 0.46146 0.42729 0.59232 0.0
H3671 H 0.50449 0.39676 0.5746 0.0
H3672 H 0.52082 0.42812 0.59059 0.0
C3673 C 0.42281 0.41596 0.58789 0.0
C3674 C 0.79022 0.1564 0.58004 0.0
C3675 C 0.76211 0.14159 0.57231 0.0
H3676 H 0.79711 0.15913 0.59524 0.0
C3677 C 0.71852 0.12176 0.57405 0.0
H3678 H 0.82397 0.17168 0.57884 0.0
C3679 C 0.70319 0.11392 0.5834 0.0
C3680 C 0.73128 0.12664 0.59113 0.0
H3681 H 0.69627 0.10978 0.5682 0.0
H3682 H 0.6694 0.09621 0.58459 0.0
C3683 C 0.7749 0.14937 0.58938 0.0
C3684 C 0.78563 0.81599 0.75777 0.0
C3685 C 0.8074 0.794 0.75934 0.0
H3686 H 0.75769 0.83784 0.74743 0.0
C3687 C 0.8231 0.78224 0.7515 0.0
H3688 H 0.77293 0.82498 0.76371 0.0
C3689 C 0.81506 0.79024 0.74222 0.0
C3690 C 0.7904 0.80923 0.74065 0.0
H3691 H 0.83981 0.76508 0.75256 0.0
H3692 H 0.82556 0.77892 0.73628 0.0
C3693 C 0.77681 0.82317 0.74849 0.0
C3694 C 0.40441 0.06923 0.74331 0.0
C3695 C 0.36721 0.06074 0.73853 0.0
H3696 H 0.44044 0.08828 0.75599 0.0
C3697 C 0.33813 0.06879 0.74337 0.0
H3698 H 0.42849 0.06494 0.73988 0.0
C3699 C 0.34644 0.08503 0.75271 0.0
C3700 C 0.3838 0.09316 0.75743 0.0
H3701 H 0.30891 0.06242 0.74001 0.0
H3702 H 0.32389 0.09163 0.75615 0.0
C3703 C 0.41197 0.08402 0.7526 0.0
C3704 C 0.10548 0.36621 0.7556 0.0
C3705 C 0.06198 0.34729 0.75738 0.0
H3706 H 0.15445 0.39123 0.74502 0.0
C3707 C 0.03374 0.33327 0.74967 0.0
H3708 H 0.12783 0.37759 0.76143 0.0
C3709 C 0.04891 0.34037 0.74031 0.0
C3710 C 0.09252 0.36232 0.73854 0.0
H3711 H 1.00006 0.31867 0.75089 0.0
H3712 H 0.02669 0.33135 0.73448 0.0
C3713 C 0.12067 0.3741 0.74624 0.0
C3714 C 0.33934 0.36523 0.25604 0.0
C3715 C 0.36399 0.34634 0.25777 0.0
H3716 H 0.3149 0.38999 0.24553 0.0
C3717 C 0.37782 0.33212 0.25002 0.0
H3718 H 0.32867 0.37677 0.2619 0.0
C3719 C 0.36927 0.33895 0.24068 0.0
C3720 C 0.34754 0.36086 0.23896 0.0
H3721 H 0.39693 0.31752 0.25119 0.0
H3722 H 0.38219 0.32977 0.23481 0.0
C3723 C 0.33158 0.37287 0.2467 0.0
C3724 C 0.75465 0.08443 0.25342 0.0
C3725 C 0.79218 0.09389 0.25818 0.0
H3726 H 0.71813 0.06371 0.24085 0.0
C3727 C 0.82113 0.08524 0.25349 0.0
H3728 H 0.73067 0.08911 0.25679 0.0
C3729 C 0.81257 0.06792 0.24424 0.0
C3730 C 0.77499 0.05914 0.23951 0.0
H3731 H 0.85045 0.09214 0.25689 0.0
H3732 H 0.8351 0.06112 0.24086 0.0
C3733 C 0.74678 0.06849 0.24424 0.0
C3734 C 0.12282 0.82186 0.24758 0.0
C3735 C 0.09486 0.80764 0.23981 0.0
H3736 H 0.12932 0.82413 0.26279 0.0
C3737 C 0.0513 0.7887 0.24151 0.0
H3738 H 0.15655 0.83648 0.24642 0.0
C3739 C 0.03576 0.78101 0.25083 0.0
C3740 C 0.06363 0.793 0.25859 0.0
H3741 H 0.02916 0.77717 0.23563 0.0
H3742 H 0.00193 0.76385 0.25199 0.0
C3743 C 0.1073 0.81497 0.2569 0.0
C3744 C 0.35738 0.98026 0.16106 0.0
C3745 C 0.38847 0.96855 0.16171 0.0
H3746 H 0.31314 0.99192 0.16841 0.0
C3747 C 0.39963 0.96065 0.17074 0.0
H3748 H 0.34843 0.98712 0.15423 0.0
C3749 C 0.37914 0.96327 0.17893 0.0
C3750 C 0.34704 0.97366 0.1782 0.0
H3751 H 0.42356 0.95164 0.17146 0.0
H3752 H 0.38752 0.95595 0.18577 0.0
C3753 C 0.33699 0.98284 0.16919 0.0
C3754 C 0.1924 0.49182 0.17997 0.0
C3755 C 0.18036 0.44901 0.1789 0.0
H3756 H 0.20694 0.54974 0.17297 0.0
C3757 C 0.17138 0.4313 0.16974 0.0
H3758 H 0.19965 0.5064 0.18694 0.0
C3759 C 0.17581 0.45599 0.1618 0.0
C3760 C 0.18912 0.49904 0.1628 0.0
H3761 H 0.16104 0.39821 0.16868 0.0
H3762 H 0.169 0.44127 0.15484 0.0
C3763 C 0.19676 0.51665 0.17198 0.0
C3764 C 0.63839 0.76007 0.17006 0.0
C3765 C 0.65741 0.77164 0.16103 0.0
H3766 H 0.64627 0.77043 0.18514 0.0
C3767 C 0.70047 0.80193 0.1604 0.0
H3768 H 0.60524 0.73675 0.17076 0.0
C3769 C 0.72388 0.82087 0.16858 0.0
C3770 C 0.70484 0.81022 0.17762 0.0
H3771 H 0.71624 0.81115 0.15357 0.0
H3772 H 0.75708 0.84394 0.16782 0.0
C3773 C 0.66192 0.77917 0.17829 0.0
C3774 C 0.97985 0.3333 0.3288 0.0
C3775 C 0.97132 0.34375 0.31976 0.0
H3776 H 0.98206 0.34329 0.3438 0.0
C3777 C 0.95941 0.37475 0.31906 0.0
H3778 H 0.99002 0.31028 0.32958 0.0
C3779 C 0.95505 0.39399 0.32727 0.0
C3780 C 0.96257 0.38258 0.33631 0.0
H3781 H 0.95241 0.38333 0.3122 0.0
H3782 H 0.94516 0.41725 0.32655 0.0
C3783 C 0.97543 0.35237 0.33696 0.0
C3784 C 0.77723 0.66209 0.31761 0.0
C3785 C 0.80794 0.70494 0.31865 0.0
H3786 H 0.73395 0.60424 0.32465 0.0
C3787 C 0.81665 0.72279 0.3278 0.0
H3788 H 0.76993 0.64741 0.31065 0.0
C3789 C 0.79643 0.6982 0.33575 0.0
C3790 C 0.76676 0.65511 0.33478 0.0
H3791 H 0.83936 0.75591 0.32883 0.0
H3792 H 0.80433 0.71303 0.3427 0.0
C3793 C 0.7568 0.63736 0.32561 0.0
C3794 C 0.45362 0.17378 0.33649 0.0
C3795 C 0.49645 0.18558 0.33583 0.0
H3796 H 0.39768 0.16202 0.32914 0.0
C3797 C 0.51552 0.19351 0.3268 0.0
H3798 H 0.4378 0.16688 0.34332 0.0
C3799 C 0.49239 0.19087 0.31862 0.0
C3800 C 0.44987 0.18041 0.31934 0.0
H3801 H 0.54848 0.20259 0.32607 0.0
H3802 H 0.50809 0.19823 0.31177 0.0
C3803 C 0.43064 0.17117 0.32836 0.0
C3804 C 0.77994 0.1916 0.81874 0.0
C3805 C 0.81222 0.18146 0.81946 0.0
H3806 H 0.73549 0.20316 0.82621 0.0
C3807 C 0.82263 0.17276 0.82848 0.0
H3808 H 0.77127 0.19856 0.81189 0.0
C3809 C 0.80238 0.17551 0.83662 0.0
C3810 C 0.77107 0.18691 0.83597 0.0
H3811 H 0.84664 0.16388 0.82926 0.0
H3812 H 0.81159 0.16899 0.84346 0.0
C3813 C 0.75958 0.19438 0.82693 0.0
C3814 C 0.99049 0.72414 0.82709 0.0
C3815 C 0.98031 0.70618 0.81796 0.0
H3816 H 0.99451 0.71451 0.84194 0.0
C3817 C 0.96828 0.66339 0.81686 0.0
H3818 H 1.00086 0.75724 0.82815 0.0
C3819 C 0.96482 0.63874 0.82483 0.0
C3820 C 0.9734 0.65653 0.83399 0.0
H3821 H 0.96019 0.64867 0.80991 0.0
H3822 H 0.95442 0.6056 0.82383 0.0
C3823 C 0.98698 0.69964 0.835 0.0
C3824 C 0.43445 0.33642 0.82695 0.0
C3825 C 0.45316 0.34592 0.81788 0.0
H3826 H 0.44279 0.34767 0.8419 0.0
C3827 C 0.49606 0.37687 0.81705 0.0
H3828 H 0.40126 0.31349 0.82781 0.0
C3829 C 0.51997 0.39682 0.82518 0.0
C3830 C 0.50137 0.38613 0.83426 0.0
H3831 H 0.51143 0.38476 0.81016 0.0
H3832 H 0.55315 0.41988 0.82438 0.0
C3833 C 0.45825 0.35616 0.83503 0.0
C3834 C 0.17361 0.79486 0.66336 0.0
C3835 C 0.18941 0.76701 0.66409 0.0
H3836 H 0.15652 0.83542 0.67059 0.0
C3837 C 0.19903 0.75773 0.67315 0.0
H3838 H 0.16523 0.80212 0.65651 0.0
C3839 C 0.19439 0.77727 0.68127 0.0
C3840 C 0.17992 0.80629 0.68047 0.0
H3841 H 0.21116 0.73627 0.67392 0.0
H3842 H 0.20343 0.77073 0.68813 0.0
C3843 C 0.16875 0.81408 0.67144 0.0
C3844 C 0.34103 0.42979 0.67001 0.0
C3845 C 0.34942 0.44695 0.67922 0.0
H3846 H 0.35459 0.44048 0.65517 0.0
C3847 C 0.38098 0.48935 0.68046 0.0
H3848 H 0.31763 0.39698 0.66883 0.0
C3849 C 0.40247 0.51444 0.67258 0.0
C3850 C 0.39279 0.49747 0.66334 0.0
H3851 H 0.38809 0.50348 0.68748 0.0
H3852 H 0.42588 0.54728 0.6737 0.0
C3853 C 0.36236 0.45472 0.66217 0.0
C3854 C 0.64085 0.96211 0.6704 0.0
C3855 C 0.65997 0.9686 0.6614 0.0
H3856 H 0.64787 0.95891 0.6855 0.0
C3857 C 0.70254 0.9794 0.66085 0.0
H3858 H 0.60811 0.95393 0.67105 0.0
C3859 C 0.72524 0.98253 0.66907 0.0
C3860 C 0.70591 0.97472 0.67807 0.0
H3861 H 0.71841 0.98522 0.65404 0.0
H3862 H 0.75804 0.99099 0.66837 0.0
C3863 C 0.66365 0.96517 0.67867 0.0
C3864 C 0.02348 0.31481 0.49367 0.0
C3865 C 0.05463 0.30322 0.49442 0.0
H3866 H 0.97933 0.327 0.50091 0.0
C3867 C 0.06594 0.29601 0.5035 0.0
H3868 H 0.0144 0.32113 0.4868 0.0
C3869 C 0.04555 0.2992 0.51164 0.0
C3870 C 0.01342 0.30952 0.51083 0.0
H3871 H 0.08991 0.28711 0.5043 0.0
H3872 H 0.05406 0.29239 0.51853 0.0
C3873 C 0.0032 0.31799 0.50176 0.0
C3874 C 0.83839 0.76509 0.50399 0.0
C3875 C 0.84775 0.78326 0.5131 0.0
H3876 H 0.83516 0.77425 0.48908 0.0
C3877 C 0.85969 0.8261 0.51407 0.0
H3878 H 0.82812 0.73197 0.50301 0.0
C3879 C 0.86346 0.85046 0.50603 0.0
C3880 C 0.85538 0.83238 0.49689 0.0
H3881 H 0.86728 0.84108 0.521 0.0
H3882 H 0.87358 0.88357 0.50694 0.0
C3883 C 0.84225 0.78933 0.49599 0.0
C3884 C 0.34535 0.10336 0.51114 0.0
C3885 C 0.36112 0.1468 0.5127 0.0
H3886 H 0.30925 0.05008 0.50206 0.0
C3887 C 0.34995 0.16876 0.50616 0.0
H3888 H 0.35297 0.08494 0.51593 0.0
C3889 C 0.32719 0.14914 0.49793 0.0
C3890 C 0.31307 0.1064 0.49626 0.0
H3891 H 0.35906 0.20136 0.5073 0.0
H3892 H 0.3206 0.16746 0.49288 0.0
C3893 C 0.32077 0.08327 0.50311 0.0
C3894 C 0.64322 0.68481 0.67186 0.0
C3895 C 0.63112 0.71557 0.67108 0.0
H3896 H 0.65812 0.64259 0.66462 0.0
C3897 C 0.62515 0.72768 0.66198 0.0
H3898 H 0.64859 0.67514 0.67876 0.0
C3899 C 0.63046 0.70878 0.65382 0.0
C3900 C 0.64173 0.67734 0.65463 0.0
H3901 H 0.61585 0.75135 0.66116 0.0
H3902 H 0.62473 0.71802 0.64691 0.0
C3903 C 0.64853 0.66601 0.66374 0.0
C3904 C 0.43407 0.01213 0.65106 0.0
C3905 C 0.47725 0.02629 0.64955 0.0
H3906 H 0.3799 0.9765 0.65995 0.0
C3907 C 0.49769 0.01221 0.6558 0.0
H3908 H 0.41699 0.02207 0.64644 0.0
C3909 C 0.47685 0.98798 0.66378 0.0
C3910 C 0.43444 0.97559 0.66549 0.0
H3911 H 0.53008 0.02036 0.65465 0.0
H3912 H 0.49408 0.97915 0.66865 0.0
C3913 C 0.41276 0.98638 0.65886 0.0
C3914 C 0.09755 0.50379 0.66127 0.0
C3915 C 0.11675 0.51298 0.65225 0.0
H3916 H 0.10472 0.49941 0.67623 0.0
C3917 C 0.15927 0.52346 0.65152 0.0
H3918 H 0.0646 0.49469 0.66206 0.0
C3919 C 0.18239 0.526 0.6597 0.0
C3920 C 0.16331 0.51796 0.66873 0.0
H3921 H 0.17499 0.53087 0.64467 0.0
H3922 H 0.21533 0.53503 0.65896 0.0
C3923 C 0.12052 0.5063 0.6694 0.0
C3924 C 0.4216 0.52594 0.16016 0.0
C3925 C 0.43266 0.51793 0.16919 0.0
H3926 H 0.43389 0.53082 0.14514 0.0
C3927 C 0.46371 0.50617 0.16985 0.0
H3928 H 0.39771 0.53499 0.15944 0.0
C3929 C 0.48418 0.50367 0.16172 0.0
C3930 C 0.47425 0.51298 0.15271 0.0
H3931 H 0.47259 0.49923 0.17668 0.0
H3932 H 0.50801 0.49455 0.1625 0.0
C3933 C 0.44218 0.5234 0.15198 0.0
C3934 C 0.62475 0.97027 0.15887 0.0
C3935 C 0.6323 0.98782 0.16805 0.0
H3936 H 0.62186 0.98056 0.14391 0.0
C3937 C 0.6454 0.03082 0.16906 0.0
H3938 H 0.61472 0.93722 0.15787 0.0
C3939 C 0.64974 0.05552 0.16113 0.0
C3940 C 0.64088 0.03787 0.15196 0.0
H3941 H 0.65212 0.04551 0.17602 0.0
H3942 H 0.65993 0.08857 0.16219 0.0
C3943 C 0.62903 0.99511 0.15088 0.0
C3944 C 0.18302 0.72672 0.1611 0.0
C3945 C 0.16403 0.71509 0.17013 0.0
H3946 H 0.17514 0.71642 0.14602 0.0
C3947 C 0.12098 0.68473 0.17075 0.0
H3948 H 0.21615 0.75008 0.1604 0.0
C3949 C 0.09757 0.66578 0.16257 0.0
C3950 C 0.1166 0.67651 0.15354 0.0
H3951 H 0.10524 0.67545 0.17759 0.0
H3952 H 0.06439 0.64266 0.16333 0.0
C3953 C 0.1595 0.70762 0.15287 0.0
C3954 C 0.84088 0.13182 0.99423 0.0
C3955 C 0.85317 0.10118 0.99489 0.0
H3956 H 0.82758 0.17488 0.0016 0.0
C3957 C 0.86078 0.08985 0.00393 0.0
H3958 H 0.83425 0.1409 0.98739 0.0
C3959 C 0.85713 0.10961 0.01213 0.0
C3960 C 0.84591 0.14111 0.01141 0.0
H3961 H 0.87026 0.06628 0.00466 0.0
H3962 H 0.8642 0.10108 0.01898 0.0
C3963 C 0.83723 0.15146 0.00238 0.0
C3964 C 0.02277 0.78726 0.99526 0.0
C3965 C 0.05245 0.83034 0.99623 0.0
H3966 H 0.97996 0.72952 0.00219 0.0
C3967 C 0.06263 0.84803 0.0054 0.0
H3968 H 0.01472 0.77248 0.98831 0.0
C3969 C 0.04236 0.82328 0.01341 0.0
C3970 C 0.0116 0.78045 0.01238 0.0
H3971 H 0.0855 0.88115 0.00636 0.0
H3972 H 0.04979 0.83794 0.02037 0.0
C3973 C 0.00272 0.76263 0.00322 0.0
C3974 C 0.30296 0.29488 0.00605 0.0
C3975 C 0.32149 0.30345 0.99696 0.0
H3976 H 0.31143 0.2893 0.021 0.0
C3977 C 0.36447 0.31608 0.99612 0.0
H3978 H 0.2699 0.2852 0.00691 0.0
C3979 C 0.38807 0.31854 0.00412 0.0
C3980 C 0.36932 0.30832 0.01317 0.0
H3981 H 0.3799 0.32355 0.98923 0.0
H3982 H 0.42108 0.32812 0.00319 0.0
C3983 C 0.32672 0.29735 0.01411 0.0
C3984 C 0.67183 0.64939 0.83616 0.0
C3985 C 0.68194 0.64048 0.8452 0.0
H3986 H 0.68322 0.65333 0.8212 0.0
C3987 C 0.71395 0.62994 0.84594 0.0
H3988 H 0.64806 0.65856 0.83535 0.0
C3989 C 0.73442 0.62713 0.83777 0.0
C3990 C 0.7233 0.63492 0.82873 0.0
H3991 H 0.72234 0.62275 0.8528 0.0
H3992 H 0.75833 0.61811 0.83852 0.0
C3993 C 0.69217 0.64658 0.82804 0.0
C3994 C 0.51218 0.1234 0.82826 0.0
C3995 C 0.52503 0.16639 0.82917 0.0
H3996 H 0.49809 0.06606 0.83526 0.0
C3997 C 0.53252 0.18431 0.83831 0.0
H3998 H 0.50549 0.10843 0.82133 0.0
C3999 C 0.52852 0.15987 0.84636 0.0
C4000 C 0.51698 0.11715 0.84538 0.0
H4001 H 0.54237 0.21735 0.83923 0.0
H4002 H 0.53568 0.17472 0.8533 0.0
C4003 C 0.5081 0.0991 0.83625 0.0
C4004 C 0.06172 0.48921 0.83481 0.0
C4005 C 0.04299 0.47841 0.84387 0.0
H4006 H 0.05359 0.47954 0.8198 0.0
C4007 C 1.00013 0.44722 0.8446 0.0
H4008 H 0.09486 0.5124 0.83401 0.0
C4009 C 0.97638 0.42808 0.8364 0.0
C4010 C 0.99507 0.43975 0.82734 0.0
H4011 H 0.98469 0.43836 0.85147 0.0
H4012 H 0.94329 0.40464 0.83715 0.0
C4013 C 0.03807 0.47022 0.82666 0.0
C4014 C 0.2915 0.0406 0.98601 0.0
C4015 C 0.30286 0.00918 0.98664 0.0
H4016 H 0.2779 0.0834 0.99358 0.0
C4017 C 0.31101 0.99821 0.99566 0.0
H4018 H 0.28477 0.0496 0.97917 0.0
C4019 C 0.30682 0.01724 0.00386 0.0
C4020 C 0.29456 0.04792 0.00327 0.0
H4021 H 0.32077 0.97485 0.9964 0.0
H4022 H 0.31316 0.00776 0.01068 0.0
C4023 C 0.28736 0.05979 0.99425 0.0
C4024 C 0.12971 0.3638 0.00234 0.0
C4025 C 0.09957 0.32084 0.00135 0.0
H4026 H 0.1728 0.42151 0.99542 0.0
C4027 C 0.08921 0.3033 0.99217 0.0
H4028 H 0.13799 0.37848 0.00929 0.0
C4029 C 0.10953 0.3281 0.98416 0.0
C4030 C 0.14055 0.37086 0.9852 0.0
H4031 H 0.06605 0.27028 0.99119 0.0
H4032 H 0.1018 0.31353 0.97719 0.0
C4033 C 0.14983 0.38848 0.99438 0.0
C4034 C 0.82247 0.8546 0.98543 0.0
C4035 C 0.78005 0.8444 0.98624 0.0
H4036 H 0.87879 0.86627 0.99277 0.0
C4037 C 0.76127 0.83572 0.9953 0.0
H4038 H 0.83786 0.86157 0.97854 0.0
C4039 C 0.7846 0.83854 0.00339 0.0
C4040 C 0.82732 0.85 0.00264 0.0
H4041 H 0.7284 0.82677 0.99615 0.0
H4042 H 0.76912 0.83204 0.01026 0.0
C4043 C 0.84593 0.85745 0.99357 0.0
C4044 C 0.08718 0.86037 0.49115 0.0
C4045 C 0.09655 0.85063 0.50019 0.0
H4046 H 0.10127 0.86663 0.47621 0.0
C4047 C 0.12563 0.83631 0.50089 0.0
H4048 H 0.06479 0.87137 0.49039 0.0
C4049 C 0.14611 0.83328 0.49282 0.0
C4050 C 0.13831 0.84476 0.48382 0.0
H4051 H 0.13306 0.82788 0.50772 0.0
H4052 H 0.16849 0.8223 0.49365 0.0
C4053 C 0.10792 0.85749 0.48303 0.0
C4054 C 0.31772 0.39167 0.49441 0.0
C4055 C 0.30969 0.37359 0.48529 0.0
H4056 H 0.31906 0.38236 0.50937 0.0
C4057 C 0.29857 0.33099 0.48436 0.0
H4058 H 0.32737 0.42465 0.49536 0.0
C4059 C 0.2941 0.30666 0.49244 0.0
C4060 C 0.30062 0.32454 0.50158 0.0
H4061 H 0.29209 0.31616 0.47742 0.0
H4062 H 0.2847 0.27371 0.49155 0.0
C4063 C 0.31308 0.36743 0.50245 0.0
C4064 C 0.84834 0.06322 0.49319 0.0
C4065 C 0.82966 0.05228 0.50226 0.0
H4066 H 0.84007 0.05135 0.47816 0.0
C4067 C 0.78671 0.02175 0.503 0.0
H4068 H 0.88139 0.08669 0.4924 0.0
C4069 C 0.76315 0.00181 0.49491 0.0
C4070 C 0.78191 0.01174 0.48584 0.0
H4071 H 0.7712 0.01298 0.50987 0.0
H4072 H 0.73007 0.97849 0.49575 0.0
C4073 C 0.82465 0.04314 0.48504 0.0
C4074 C 0.53287 0.42761 0.33656 0.0
C4075 C 0.52563 0.43929 0.32752 0.0
H4076 H 0.53533 0.43796 0.35164 0.0
C4077 C 0.51323 0.46987 0.32689 0.0
H4078 H 0.54242 0.40409 0.33727 0.0
C4079 C 0.50892 0.48895 0.33507 0.0
C4080 C 0.51707 0.47813 0.34411 0.0
H4081 H 0.50687 0.4792 0.32006 0.0
H4082 H 0.49907 0.51222 0.33431 0.0
C4083 C 0.5286 0.44684 0.34478 0.0
C4084 C 0.69062 0.123 0.32867 0.0
C4085 C 0.72062 0.16601 0.32963 0.0
H4086 H 0.64736 0.06543 0.3356 0.0
C4087 C 0.73071 0.18375 0.3388 0.0
H4088 H 0.68258 0.10817 0.32172 0.0
C4089 C 0.71015 0.1591 0.34681 0.0
C4090 C 0.67916 0.11634 0.34578 0.0
H4091 H 0.75379 0.2168 0.33976 0.0
H4092 H 0.71762 0.17381 0.35377 0.0
C4093 C 0.67027 0.09849 0.33663 0.0
C4094 C 0.05712 0.65017 0.3357 0.0
C4095 C 0.03792 0.64078 0.34472 0.0
H4096 H 0.04988 0.65456 0.32075 0.0
C4097 C 0.99536 0.63015 0.34547 0.0
H4098 H 0.09011 0.65945 0.33491 0.0
C4099 C 0.97217 0.6275 0.33729 0.0
C4100 C 0.99121 0.63559 0.32826 0.0
H4101 H 0.97968 0.62266 0.35232 0.0
H4102 H 0.93918 0.6183 0.33803 0.0
C4103 C 0.03408 0.64755 0.32758 0.0
C4104 C 0.61897 0.34905 0.1245 0.0
C4105 C 0.62494 0.33117 0.13279 0.0
H4106 H 0.62686 0.40554 0.11797 0.0
C4107 C 0.63173 0.35264 0.14147 0.0
H4108 H 0.61409 0.33323 0.11771 0.0
C4109 C 0.63915 0.39398 0.14162 0.0
C4110 C 0.63969 0.41424 0.13309 0.0
H4111 H 0.6365 0.33945 0.14794 0.0
H4112 H 0.64955 0.41175 0.14819 0.0
C4113 C 0.62628 0.39047 0.12466 0.0
C4114 C 0.80542 0.35789 0.14079 0.0
C4115 C 0.8264 0.37295 0.13206 0.0
H4116 H 0.74667 0.31628 0.14762 0.0
C4117 C 0.80819 0.34943 0.12376 0.0
H4118 H 0.81893 0.37563 0.14727 0.0
C4119 C 0.7668 0.31527 0.12397 0.0
C4120 C 0.74345 0.30458 0.13247 0.0
H4121 H 0.82366 0.36067 0.11694 0.0
H4122 H 0.75138 0.30104 0.1173 0.0
C4123 C 0.76412 0.32392 0.14099 0.0
C4124 C 0.84146 0.53104 0.12406 0.0
C4125 C 0.85289 0.51801 0.1324 0.0
H4126 H 0.79558 0.54302 0.11746 0.0
C4127 C 0.83428 0.51897 0.14107 0.0
H4128 H 0.85507 0.5301 0.11728 0.0
C4129 C 0.80038 0.52645 0.14118 0.0
C4130 C 0.78459 0.53287 0.13261 0.0
H4131 H 0.84248 0.50883 0.14758 0.0
H4132 H 0.78325 0.52198 0.14777 0.0
C4133 C 0.80737 0.53844 0.12417 0.0
C4134 C 0.3517 0.62849 0.35628 0.0
C4135 C 0.32906 0.62162 0.36481 0.0
H4136 H 0.41177 0.6466 0.35 0.0
C4137 C 0.34593 0.61575 0.37327 0.0
H4138 H 0.33931 0.6332 0.34968 0.0
C4139 C 0.38746 0.62328 0.37345 0.0
C4140 C 0.41233 0.63675 0.36517 0.0
H4141 H 0.32922 0.61081 0.37994 0.0
H4142 H 0.40171 0.62396 0.38025 0.0
C4143 C 0.39313 0.63611 0.35647 0.0
C4144 C 0.53547 0.80497 0.37426 0.0
C4145 C 0.53071 0.7819 0.36591 0.0
H4146 H 0.52654 0.85293 0.38078 0.0
C4147 C 0.5252 0.79736 0.3572 0.0
H4148 H 0.53936 0.79341 0.38106 0.0
C4149 C 0.51777 0.83127 0.35704 0.0
C4150 C 0.51594 0.85017 0.36559 0.0
H4151 H 0.52136 0.77997 0.35068 0.0
H4152 H 0.50828 0.83922 0.35041 0.0
C4153 C 0.52815 0.83907 0.37409 0.0
C4154 C 0.34653 0.80488 0.37323 0.0
C4155 C 0.3707 0.82318 0.36501 0.0
H4156 H 0.29774 0.74803 0.37961 0.0
C4157 C 0.35643 0.80208 0.35627 0.0
H4158 H 0.35716 0.82041 0.38006 0.0
C4159 C 0.32259 0.76071 0.35601 0.0
C4160 C 0.30253 0.74004 0.36449 0.0
H4161 H 0.37467 0.8156 0.34984 0.0
H4162 H 0.31554 0.74324 0.3494 0.0
C4163 C 0.31249 0.76342 0.37297 0.0
C4164 C 0.53918 0.80636 0.87407 0.0
C4165 C 0.5336 0.82348 0.86562 0.0
H4166 H 0.53107 0.75047 0.88098 0.0
C4167 C 0.52725 0.80124 0.85706 0.0
H4168 H 0.54368 0.82275 0.88077 0.0
C4169 C 0.51994 0.75994 0.85718 0.0
C4170 C 0.51909 0.74046 0.86586 0.0
H4171 H 0.52272 0.81382 0.85046 0.0
H4172 H 0.50986 0.74158 0.85068 0.0
C4173 C 0.53197 0.76496 0.87419 0.0
C4174 C 0.35293 0.7952 0.85702 0.0
C4175 C 0.33193 0.78083 0.86576 0.0
H4176 H 0.41166 0.83644 0.85013 0.0
C4177 C 0.35002 0.80509 0.87398 0.0
H4178 H 0.33952 0.77689 0.8506 0.0
C4179 C 0.39133 0.83937 0.8737 0.0
C4180 C 0.41472 0.84943 0.86521 0.0
H4181 H 0.33451 0.79438 0.88081 0.0
H4182 H 0.40667 0.85423 0.88033 0.0
C4183 C 0.39416 0.82929 0.85674 0.0
C4184 C 0.3587 0.62718 0.8577 0.0
C4185 C 0.37419 0.6215 0.86639 0.0
H4186 H 0.31666 0.64403 0.85097 0.0
C4187 C 0.35101 0.61635 0.87475 0.0
H4188 H 0.37619 0.63134 0.85118 0.0
C4189 C 0.31676 0.62346 0.87462 0.0
C4190 C 0.3056 0.63583 0.86615 0.0
H4191 H 0.3626 0.61232 0.88154 0.0
H4192 H 0.30281 0.62478 0.88132 0.0
C4193 C 0.32463 0.63438 0.85758 0.0
C4194 C 0.77086 0.53322 0.62357 0.0
C4195 C 0.74724 0.51975 0.63203 0.0
H4196 H 0.82783 0.54511 0.61653 0.0
C4197 C 0.76759 0.51999 0.64052 0.0
H4198 H 0.75567 0.53287 0.61692 0.0
C4199 C 0.80883 0.5271 0.6403 0.0
C4200 C 0.83005 0.53386 0.63157 0.0
H4201 H 0.74991 0.50952 0.64711 0.0
H4202 H 0.82206 0.52204 0.64673 0.0
C4203 C 0.81218 0.54023 0.62334 0.0
C4204 C 0.64116 0.32512 0.64023 0.0
C4205 C 0.64181 0.30605 0.63161 0.0
H4206 H 0.63896 0.3768 0.64679 0.0
C4207 C 0.62902 0.31741 0.62323 0.0
H4208 H 0.65117 0.317 0.64677 0.0
C4209 C 0.62222 0.35185 0.62323 0.0
C4210 C 0.6281 0.375 0.63162 0.0
H4211 H 0.62976 0.30343 0.61648 0.0
H4212 H 0.61782 0.36354 0.61649 0.0
C4213 C 0.63424 0.35936 0.64024 0.0
C4214 C 0.84369 0.39103 0.62262 0.0
C4215 C 0.85541 0.41457 0.63109 0.0
H4216 H 0.7974 0.3341 0.61577 0.0
C4217 C 0.83667 0.39416 0.63968 0.0
H4218 H 0.85735 0.40626 0.61589 0.0
C4219 C 0.8025 0.35294 0.63961 0.0
C4220 C 0.78659 0.33169 0.63095 0.0
H4221 H 0.84501 0.41179 0.64629 0.0
H4222 H 0.78533 0.33969 0.64618 0.0
C4223 C 0.80934 0.3497 0.62255 0.0
C4224 C 0.28484 0.68058 0.45616 0.0
C4225 C 0.29062 0.66358 0.46461 0.0
H4226 H 0.2929 0.7364 0.44924 0.0
C4227 C 0.29698 0.68582 0.47317 0.0
H4228 H 0.28027 0.66414 0.44947 0.0
C4229 C 0.30426 0.7271 0.47304 0.0
C4230 C 0.3051 0.7465 0.46435 0.0
H4231 H 0.3016 0.67329 0.47976 0.0
H4232 H 0.31444 0.74552 0.47953 0.0
C4233 C 0.29205 0.72196 0.45603 0.0
C4234 C 0.43339 0.64782 0.4567 0.0
C4235 C 0.40954 0.63757 0.46512 0.0
H4236 H 0.49075 0.69273 0.44976 0.0
C4237 C 0.42974 0.65729 0.47366 0.0
H4238 H 0.41833 0.63331 0.45002 0.0
C4239 C 0.47114 0.69111 0.47351 0.0
C4240 C 0.49269 0.7057 0.46483 0.0
H4241 H 0.41189 0.64999 0.48022 0.0
H4242 H 0.4843 0.70912 0.47998 0.0
C4243 C 0.47487 0.68185 0.45655 0.0
C4244 C 0.46557 0.85932 0.47263 0.0
C4245 C 0.45038 0.86492 0.46388 0.0
H4246 H 0.50742 0.84261 0.4795 0.0
C4247 C 0.47379 0.86987 0.45558 0.0
H4248 H 0.44789 0.85527 0.47911 0.0
C4249 C 0.50805 0.86277 0.45581 0.0
C4250 C 0.519 0.8506 0.46434 0.0
H4251 H 0.46241 0.87379 0.44875 0.0
H4252 H 0.52221 0.86134 0.44915 0.0
C4253 C 0.49966 0.85214 0.47285 0.0
C4254 C 0.01747 0.95931 0.69183 0.0
C4255 C 0.99496 0.95453 0.70028 0.0
H4256 H 0.07737 0.97549 0.68572 0.0
C4257 C 0.01177 0.95043 0.70894 0.0
H4258 H 0.00514 0.96269 0.68508 0.0
C4259 C 0.05317 0.95765 0.7093 0.0
C4260 C 0.07792 0.96898 0.70101 0.0
H4261 H 0.99516 0.94717 0.71555 0.0
H4262 H 0.06746 0.95983 0.71619 0.0
C4263 C 0.05875 0.96654 0.6922 0.0
C4264 C 0.20183 0.13909 0.70854 0.0
C4265 C 0.19659 0.11417 0.7005 0.0
H4266 H 0.1936 0.18871 0.71434 0.0
C4267 C 0.19086 0.12772 0.69156 0.0
H4268 H 0.20587 0.12897 0.71551 0.0
C4269 C 0.1838 0.16176 0.69088 0.0
C4270 C 0.18242 0.18261 0.69915 0.0
H4271 H 0.18655 0.1088 0.68527 0.0
H4272 H 0.17418 0.16833 0.6841 0.0
C4273 C 0.19483 0.17331 0.70786 0.0
C4274 C 0.98936 0.09233 0.68957 0.0
C4275 C 0.96933 0.07337 0.69818 0.0
H4276 H 0.04142 0.14591 0.68301 0.0
C4277 C 0.97939 0.0984 0.70641 0.0
H4278 H 0.98222 0.07356 0.68315 0.0
C4279 C 0.01348 0.13985 0.70634 0.0
C4280 C 0.03763 0.15648 0.69804 0.0
H4281 H 0.96464 0.08433 0.71315 0.0
H4282 H 0.02417 0.15667 0.71303 0.0
C4283 C 0.02324 0.1337 0.6895 0.0
C4284 C 0.19522 0.09656 0.20624 0.0
C4285 C 0.18162 0.07263 0.19783 0.0
H4286 H 0.20753 0.15389 0.21315 0.0
C4287 C 0.18193 0.09274 0.18929 0.0
H4288 H 0.19482 0.0816 0.21292 0.0
C4289 C 0.18932 0.13406 0.18941 0.0
C4290 C 0.1963 0.15568 0.19809 0.0
H4291 H 0.17138 0.07484 0.18273 0.0
H4292 H 0.18437 0.14713 0.18294 0.0
C4293 C 0.2025 0.13797 0.20637 0.0
C4294 C 0.01318 0.13745 0.20728 0.0
C4295 C 0.99481 0.11377 0.19901 0.0
H4296 H 0.0701 0.18598 0.21367 0.0
C4297 C 0.0156 0.12867 0.19026 0.0
H4298 H 0.99785 0.12633 0.21411 0.0
C4299 C 0.05688 0.16265 0.19 0.0
C4300 C 0.07773 0.18216 0.1985 0.0
H4301 H 0.00197 0.1108 0.1838 0.0
H4302 H 0.0742 0.17019 0.18335 0.0
C4303 C 0.05456 0.17162 0.20702 0.0
C4304 C 0.98012 0.95595 0.20712 0.0
C4305 C 0.96842 0.96874 0.19879 0.0
H4306 H 0.02622 0.94419 0.21369 0.0
C4307 C 0.98681 0.96758 0.1901 0.0
H4308 H 0.96668 0.95705 0.21392 0.0
C4309 C 0.02074 0.96013 0.18996 0.0
C4310 C 0.03678 0.95394 0.19852 0.0
H4311 H 0.97843 0.97755 0.18359 0.0
H4312 H 0.0377 0.96445 0.18335 0.0
C4313 C 0.01423 0.94858 0.20699 0.0
C4314 C 0.47303 0.86993 0.95724 0.0
C4315 C 0.48973 0.8635 0.96566 0.0
H4316 H 0.41746 0.8625 0.9503 0.0
C4317 C 0.4671 0.85641 0.97419 0.0
H4318 H 0.48974 0.87505 0.95056 0.0
C4319 C 0.42578 0.84912 0.97404 0.0
C4320 C 0.40672 0.84906 0.96536 0.0
H4321 H 0.47937 0.85128 0.98077 0.0
H4322 H 0.4071 0.83846 0.98049 0.0
C4323 C 0.43162 0.86275 0.95709 0.0
C4324 C 0.28973 0.64748 0.95584 0.0
C4325 C 0.30161 0.63565 0.96429 0.0
H4326 H 0.27912 0.69391 0.94906 0.0
C4327 C 0.29981 0.65406 0.97291 0.0
H4328 H 0.29135 0.634 0.94909 0.0
C4329 C 0.29275 0.68822 0.97289 0.0
C4330 C 0.28757 0.70438 0.96425 0.0
H4331 H 0.3091 0.64557 0.9795 0.0
H4332 H 0.29664 0.70522 0.97947 0.0
C4333 C 0.28275 0.6818 0.95582 0.0
C4334 C 0.47123 0.68051 0.95663 0.0
C4335 C 0.44668 0.66187 0.96479 0.0
H4336 H 0.52067 0.73752 0.95047 0.0
C4337 C 0.46078 0.68227 0.9736 0.0
H4338 H 0.46073 0.66549 0.94975 0.0
C4339 C 0.49493 0.72342 0.97401 0.0
C4340 C 0.51541 0.74455 0.96561 0.0
H4341 H 0.44223 0.66845 0.97998 0.0
H4342 H 0.50189 0.74045 0.98069 0.0
C4343 C 0.50557 0.72175 0.95705 0.0
C4344 C 0.95462 0.01627 0.79143 0.0
C4345 C 0.96166 0.99918 0.79971 0.0
H4346 H 0.96191 0.07221 0.78473 0.0
C4347 C 0.96986 0.02161 0.8083 0.0
H4348 H 0.94863 0.99971 0.78472 0.0
C4349 C 0.97759 0.06306 0.8083 0.0
C4350 C 0.97699 0.08247 0.79973 0.0
H4351 H 0.97548 0.00903 0.81477 0.0
H4352 H 0.98904 0.08152 0.81477 0.0
C4353 C 0.96223 0.05781 0.79144 0.0
C4354 C 0.14337 0.01575 0.78954 0.0
C4355 C 0.16281 0.03987 0.79769 0.0
H4356 H 0.08557 0.96711 0.78348 0.0
C4357 C 0.14291 0.02569 0.80656 0.0
H4358 H 0.15798 0.02635 0.78262 0.0
C4359 C 0.10154 0.99195 0.80705 0.0
C4360 C 0.07968 0.97196 0.79869 0.0
H4361 H 0.15733 0.04394 0.81293 0.0
H4362 H 0.08496 0.98496 0.81379 0.0
C4363 C 0.1019 0.98182 0.79004 0.0
C4364 C 0.17731 0.19715 0.78919 0.0
C4365 C 0.19002 0.1852 0.7975 0.0
H4366 H 0.13059 0.20854 0.78283 0.0
C4367 C 0.17279 0.18738 0.80627 0.0
H4368 H 0.1898 0.19519 0.78233 0.0
C4369 C 0.13904 0.19509 0.80656 0.0
C4370 C 0.122 0.20054 0.79807 0.0
H4371 H 0.1819 0.178 0.81276 0.0
H4372 H 0.12296 0.19157 0.81327 0.0
C4373 C 0.14339 0.20479 0.78947 0.0
C4374 C 0.71944 0.28825 0.04068 0.0
C4375 C 0.74387 0.30117 0.03234 0.0
H4376 H 0.66157 0.27625 0.04729 0.0
C4377 C 0.72423 0.30006 0.02367 0.0
H4378 H 0.73405 0.28932 0.04746 0.0
C4379 C 0.68281 0.29249 0.02356 0.0
C4380 C 0.66062 0.28614 0.03214 0.0
H4381 H 0.74253 0.31014 0.01715 0.0
H4382 H 0.67009 0.29685 0.01697 0.0
C4383 C 0.67792 0.28076 0.04058 0.0
C4384 C 0.86016 0.50392 0.04064 0.0
C4385 C 0.84754 0.51453 0.03212 0.0
H4386 H 0.87173 0.45868 0.04769 0.0
C4387 C 0.84897 0.49516 0.02362 0.0
H4388 H 0.85888 0.51818 0.0473 0.0
C4389 C 0.85642 0.46127 0.02384 0.0
C4390 C 0.86235 0.44631 0.03258 0.0
H4391 H 0.83917 0.50274 0.01698 0.0
H4392 H 0.85227 0.44352 0.01737 0.0
C4393 C 0.86751 0.46985 0.04087 0.0
C4394 C 0.6786 0.47003 0.04009 0.0
C4395 C 0.70236 0.48776 0.03179 0.0
H4396 H 0.63012 0.41362 0.04668 0.0
C4397 C 0.68764 0.46609 0.02313 0.0
H4398 H 0.68958 0.486 0.04686 0.0
C4399 C 0.65377 0.42472 0.02303 0.0
C4400 C 0.63414 0.40462 0.03158 0.0
H4401 H 0.70555 0.47918 0.01664 0.0
H4402 H 0.64637 0.40682 0.01647 0.0
C4403 C 0.64454 0.42857 0.03998 0.0
C4404 C 0.85649 0.47216 0.52417 0.0
C4405 C 0.86335 0.49226 0.53304 0.0
H4406 H 0.83877 0.41418 0.51692 0.0
C4407 C 0.86943 0.47319 0.54109 0.0
H4408 H 0.85156 0.48629 0.51788 0.0
C4409 C 0.86226 0.43187 0.54053 0.0
C4410 C 0.84883 0.40942 0.53193 0.0
H4411 H 0.87433 0.48795 0.54801 0.0
H4412 H 0.86179 0.4158 0.54705 0.0
C4413 C 0.84921 0.43094 0.52362 0.0
C4414 C 0.68034 0.47196 0.54292 0.0
C4415 C 0.66197 0.45001 0.53446 0.0
H4416 H 0.73721 0.5193 0.54958 0.0
C4417 C 0.68279 0.46671 0.52579 0.0
H4418 H 0.66502 0.45937 0.5497 0.0
C4419 C 0.72401 0.50089 0.52572 0.0
C4420 C 0.74481 0.51878 0.53432 0.0
H4421 H 0.66924 0.45013 0.51918 0.0
H4422 H 0.74136 0.5098 0.51907 0.0
C4423 C 0.72166 0.5063 0.54285 0.0
C4424 C 0.65422 0.30536 0.52393 0.0
C4425 C 0.63566 0.30512 0.5327 0.0
H4426 H 0.70525 0.30337 0.51695 0.0
C4427 C 0.64726 0.29111 0.54085 0.0
H4428 H 0.64594 0.31634 0.51757 0.0
C4429 C 0.68142 0.28385 0.54051 0.0
C4430 C 0.70411 0.29054 0.53201 0.0
H4431 H 0.6337 0.29115 0.54771 0.0
H4432 H 0.69331 0.27845 0.54711 0.0
C4433 C 0.68818 0.298 0.52358 0.0
C4434 C 0.13686 0.19355 0.30759 0.0
C4435 C 0.15909 0.19972 0.29903 0.0
H4436 H 0.07712 0.17606 0.31397 0.0
C4437 C 0.14184 0.20494 0.29056 0.0
H4438 H 0.14954 0.18933 0.31421 0.0
C4439 C 0.10033 0.19749 0.29043 0.0
C4440 C 0.07586 0.18474 0.29877 0.0
H4441 H 0.15823 0.20932 0.28386 0.0
H4442 H 0.08577 0.19629 0.28364 0.0
C4443 C 0.09545 0.18602 0.30746 0.0
C4444 C 0.95212 0.01596 0.29033 0.0
C4445 C 0.95735 0.03962 0.2986 0.0
H4446 H 0.96067 0.96754 0.28393 0.0
C4447 C 0.9633 0.02477 0.30735 0.0
H4448 H 0.94786 0.02705 0.28349 0.0
C4449 C 0.97073 0.99087 0.3076 0.0
C4450 C 0.97212 0.97139 0.2991 0.0
H4451 H 0.96749 0.04262 0.31381 0.0
H4452 H 0.98055 0.98338 0.31424 0.0
C4453 C 0.95944 0.98187 0.29058 0.0
C4454 C 0.13186 0.01981 0.30819 0.0
C4455 C 0.11728 0.99814 0.29952 0.0
H4456 H 0.17303 0.07908 0.31486 0.0
C4457 C 0.1412 0.01584 0.29124 0.0
H4458 H 0.11383 0.00674 0.31466 0.0
C4459 C 0.17528 0.05729 0.29136 0.0
C4460 C 0.18554 0.08125 0.29976 0.0
H4461 H 0.13035 0.99987 0.28447 0.0
H4462 H 0.18984 0.07222 0.28467 0.0
C4463 C 0.16575 0.06117 0.30831 0.0
loop_
_geom_bond_atom_site_label_1
_geom_bond_atom_site_label_2
_geom_bond_distance
_geom_bond_site_symmetry_2
_ccdc_geom_bond_type
Cd0 O57 2.350 . S
Cd0 O58 2.277 . S
Cd0 O65 2.173 . S
Cd0 O67 2.263 . S
Cd0 O69 2.366 . S
Cd0 O72 2.329 . S
C1 O65 1.277 . S
C1 O66 1.230 . S
C2 O3 1.246 . S
C2 C5 1.481 . S
C2 N27 1.329 . S
O3 C2 1.246 . S
Cd4 O66 2.250 . S
Cd4 O68 2.308 . S
Cd4 O71 2.352 . S
C5 C2 1.481 . S
C5 N8 1.327 . S
C5 C9 1.407 . S
C6 C7 1.346 . S
C6 C10 1.390 . S
C6 H74 0.930 . S
C7 C6 1.346 . S
C7 N8 1.342 . S
C7 C12 1.516 . S
N8 C5 1.327 . S
N8 C7 1.342 . S
N8 Co11 1.864 . S
C9 C5 1.407 . S
C9 C10 1.364 . S
C9 H75 0.930 . S
C10 C6 1.390 . S
C10 C9 1.364 . S
C10 H76 0.931 . S
Co11 N8 1.864 . S
Co11 N27 1.955 . S
Co11 N28 1.958 . S
Co11 N29 1.953 . S
Co11 N47 1.869 . S
Co11 N53 1.974 . S
C12 C7 1.516 . S
C12 O13 1.238 . S
C12 N28 1.324 . S
O13 C12 1.238 . S
C14 C15 1.394 . S
C14 C19 1.395 . S
C14 N28 1.427 . S
C15 C14 1.394 . S
C15 C16 1.380 . S
C15 H77 0.929 . S
C16 C15 1.380 . S
C16 C17 1.384 . S
C16 C20 1.495 1_545 S
C17 C16 1.384 . S
C17 C18 1.382 . S
C17 H78 0.930 . S
C18 C17 1.382 . S
C18 C19 1.398 . S
C19 C14 1.395 . S
C19 C18 1.398 . S
C19 H79 0.930 . S
C20 C16 1.495 1_565 S
C20 O67 1.258 . S
C20 O68 1.274 . S
C21 C22 1.385 . S
C21 C23 1.381 . S
C21 N27 1.432 . S
C22 C21 1.385 . S
C22 C26 1.388 . S
C22 H80 0.929 . S
C23 C21 1.381 . S
C23 C24 1.371 . S
C23 H81 0.932 . S
C24 C23 1.371 . S
C24 C25 1.400 . S
C25 C24 1.400 . S
C25 C26 1.351 . S
C25 H82 0.930 . S
C26 C22 1.388 . S
C26 C25 1.351 . S
N27 C2 1.329 . S
N27 Co11 1.955 . S
N27 C21 1.432 . S
N28 Co11 1.958 . S
N28 C12 1.324 . S
N28 C14 1.427 . S
N29 Co11 1.953 . S
N29 C30 1.436 . S
N29 C56 1.316 . S
C30 N29 1.436 . S
C30 C31 1.421 . S
C30 C32 1.360 . S
C31 C30 1.421 . S
C31 C33 1.379 . S
C31 H34 0.929 . S
C32 C30 1.360 . S
C32 C36 1.393 . S
C32 H38 0.931 . S
C33 C31 1.379 . S
C33 C35 1.417 . S
C33 C37 1.505 . S
H34 C31 0.929 . S
C35 C33 1.417 . S
C35 C36 1.352 . S
C35 H39 0.929 . S
C36 C32 1.393 . S
C36 C35 1.352 . S
C36 C40 1.482 . S
C37 C33 1.505 . S
C37 O41 1.259 . S
C37 O42 1.229 . S
H38 C32 0.931 . S
H39 C35 0.929 . S
C40 C36 1.482 . S
C40 O43 1.207 . S
C40 O44 1.289 . S
O41 C37 1.259 . S
O41 H45 0.822 . S
O42 C37 1.229 . S
O43 C40 1.207 . S
O44 C40 1.289 . S
O44 H46 0.819 . S
H45 O41 0.822 . S
H46 O44 0.819 . S
N47 Co11 1.869 . S
N47 C48 1.330 . S
N47 C52 1.325 . S
C48 N47 1.330 . S
C48 C49 1.359 . S
C48 C54 1.504 . S
C49 C48 1.359 . S
C49 C50 1.366 . S
C49 H83 0.929 . S
C50 C49 1.366 . S
C50 C51 1.415 . S
C50 H84 0.932 . S
C51 C50 1.415 . S
C51 C52 1.366 . S
C51 H85 0.931 1_545 S
C52 N47 1.325 . S
C52 C51 1.366 . S
C52 C56 1.516 . S
N53 Co11 1.974 . S
N53 C54 1.309 . S
N53 C59 1.423 . S
C54 C48 1.504 . S
C54 N53 1.309 . S
C54 O55 1.258 . S
O55 C54 1.258 . S
C56 N29 1.316 . S
C56 C52 1.516 . S
C56 O69 1.263 1_545 S
O57 Cd0 2.350 . S
O57 C73 1.270 . S
O58 Cd0 2.277 . S
O58 C73 1.248 . S
C59 N53 1.423 . S
C59 C60 1.370 . S
C59 C64 1.403 . S
C60 C59 1.370 . S
C60 C61 1.389 . S
C60 H86 0.931 . S
C61 C60 1.389 . S
C61 C62 1.389 . S
C62 C61 1.389 . S
C62 C63 1.379 . S
C62 H87 0.929 . S
C63 C62 1.379 . S
C63 C64 1.405 . S
C64 C59 1.403 . S
C64 C63 1.405 . S
C64 H88 0.932 . S
O65 Cd0 2.173 . S
O65 C1 1.277 . S
O66 C1 1.230 . S
O66 Cd4 2.250 . S
O67 Cd0 2.263 . S
O67 C20 1.258 . S
O68 Cd4 2.308 . S
O68 C20 1.274 . S
O69 Cd0 2.366 . S
O69 C56 1.263 1_565 S
C70 O71 1.235 . S
C70 O72 1.270 . S
O71 Cd4 2.352 . S
O71 C70 1.235 . S
O72 Cd0 2.329 . S
O72 C70 1.270 . S
C73 O57 1.270 . S
C73 O58 1.248 . S
H74 C6 0.930 . S
H75 C9 0.930 . S
H76 C10 0.931 . S
H77 C15 0.929 . S
H78 C17 0.930 . S
H79 C19 0.930 . S
H80 C22 0.929 . S
H81 C23 0.932 . S
H82 C25 0.930 . S
H83 C49 0.929 . S
H84 C50 0.932 . S
H85 C51 0.931 1_565 S
H86 C60 0.931 . S
H87 C62 0.929 . S
H88 C64 0.932 . S
Cd89 O146 2.350 . S
Cd89 O147 2.277 . S
Cd89 O154 2.173 . S
Cd89 O156 2.263 . S
Cd89 O158 2.366 . S
Cd89 O161 2.329 . S
C90 O154 1.277 . S
C90 O155 1.230 . S
C91 O92 1.246 . S
C91 C94 1.481 . S
C91 N116 1.329 1_655 S
O92 C91 1.246 . S
Cd93 O155 2.250 . S
Cd93 O157 2.308 . S
Cd93 O160 2.352 . S
C94 C91 1.481 . S
C94 N97 1.327 . S
C94 C98 1.407 . S
C95 C96 1.346 . S
C95 C99 1.390 . S
C95 H163 0.930 . S
C96 C95 1.346 . S
C96 N97 1.342 . S
C96 C101 1.516 1_655 S
N97 C94 1.327 . S
N97 C96 1.342 . S
N97 Co100 1.864 1_655 S
C98 C94 1.407 . S
C98 C99 1.364 . S
C98 H164 0.930 . S
C99 C95 1.390 . S
C99 C98 1.364 . S
C99 H165 0.931 . S
Co100 N97 1.864 1_455 S
Co100 N116 1.955 . S
Co100 N117 1.958 . S
Co100 N118 1.953 . S
Co100 N136 1.869 . S
Co100 N142 1.974 1_455 S
C101 C96 1.516 1_455 S
C101 O102 1.238 1_455 S
C101 N117 1.324 . S
O102 C101 1.238 1_655 S
C103 C104 1.394 . S
C103 C108 1.395 . S
C103 N117 1.427 . S
C104 C103 1.394 . S
C104 C105 1.380 . S
C104 H166 0.929 . S
C105 C104 1.380 . S
C105 C106 1.384 . S
C105 C109 1.495 . S
C106 C105 1.384 . S
C106 C107 1.382 . S
C106 H167 0.930 . S
C107 C106 1.382 . S
C107 C108 1.398 . S
C108 C103 1.395 . S
C108 C107 1.398 . S
C108 H168 0.930 . S
C109 C105 1.495 . S
C109 O156 1.258 . S
C109 O157 1.274 . S
C110 C111 1.385 . S
C110 C112 1.381 . S
C110 N116 1.432 . S
C111 C110 1.385 . S
C111 C115 1.388 . S
C111 H169 0.929 . S
C112 C110 1.381 . S
C112 C113 1.371 . S
C112 H170 0.932 . S
C113 C112 1.371 . S
C113 C114 1.400 . S
C114 C113 1.400 . S
C114 C115 1.351 . S
C114 H171 0.930 . S
C115 C111 1.388 . S
C115 C114 1.351 . S
N116 C91 1.329 1_455 S
N116 Co100 1.955 . S
N116 C110 1.432 . S
N117 Co100 1.958 . S
N117 C101 1.324 . S
N117 C103 1.427 . S
N118 Co100 1.953 . S
N118 C119 1.436 . S
N118 C145 1.316 . S
C119 N118 1.436 . S
C119 C120 1.421 . S
C119 C121 1.360 . S
C120 C119 1.421 . S
C120 C122 1.379 . S
C120 H123 0.929 . S
C121 C119 1.360 . S
C121 C125 1.393 . S
C121 H127 0.931 . S
C122 C120 1.379 . S
C122 C124 1.417 . S
C122 C126 1.505 . S
H123 C120 0.929 . S
C124 C122 1.417 . S
C124 C125 1.352 . S
C124 H128 0.929 . S
C125 C121 1.393 . S
C125 C124 1.352 . S
C125 C129 1.482 . S
C126 C122 1.505 . S
C126 O130 1.259 . S
C126 O131 1.229 . S
H127 C121 0.931 . S
H128 C124 0.929 . S
C129 C125 1.482 . S
C129 O132 1.207 . S
C129 O133 1.289 . S
O130 C126 1.259 . S
O130 H134 0.822 . S
O131 C126 1.229 . S
O132 C129 1.207 . S
O133 C129 1.289 . S
O133 H135 0.819 . S
H134 O130 0.822 . S
H135 O133 0.819 . S
N136 Co100 1.869 . S
N136 C137 1.330 . S
N136 C141 1.325 . S
C137 N136 1.330 . S
C137 C138 1.359 . S
C137 C143 1.504 . S
C138 C137 1.359 . S
C138 C139 1.366 . S
C138 H172 0.929 . S
C139 C138 1.366 . S
C139 C140 1.415 . S
C139 H173 0.932 . S
C140 C139 1.415 . S
C140 C141 1.366 . S
C140 H174 0.931 . S
C141 N136 1.325 . S
C141 C140 1.366 . S
C141 C145 1.516 . S
N142 Co100 1.974 1_655 S
N142 C143 1.309 1_655 S
N142 C148 1.423 . S
C143 C137 1.504 . S
C143 N142 1.309 1_455 S
C143 O144 1.258 1_455 S
O144 C143 1.258 1_655 S
C145 N118 1.316 . S
C145 C141 1.516 . S
C145 O158 1.263 . S
O146 Cd89 2.350 . S
O146 C162 1.270 . S
O147 Cd89 2.277 . S
O147 C162 1.248 . S
C148 N142 1.423 . S
C148 C149 1.370 . S
C148 C153 1.403 . S
C149 C148 1.370 . S
C149 C150 1.389 . S
C149 H175 0.931 . S
C150 C149 1.389 . S
C150 C151 1.389 . S
C151 C150 1.389 . S
C151 C152 1.379 . S
C151 H176 0.929 . S
C152 C151 1.379 . S
C152 C153 1.405 . S
C153 C148 1.403 . S
C153 C152 1.405 . S
C153 H177 0.932 . S
O154 Cd89 2.173 . S
O154 C90 1.277 . S
O155 C90 1.230 . S
O155 Cd93 2.250 . S
O156 Cd89 2.263 . S
O156 C109 1.258 . S
O157 Cd93 2.308 . S
O157 C109 1.274 . S
O158 Cd89 2.366 . S
O158 C145 1.263 . S
C159 O160 1.235 . S
C159 O161 1.270 . S
O160 Cd93 2.352 . S
O160 C159 1.235 . S
O161 Cd89 2.329 . S
O161 C159 1.270 . S
C162 O146 1.270 . S
C162 O147 1.248 . S
H163 C95 0.930 . S
H164 C98 0.930 . S
H165 C99 0.931 . S
H166 C104 0.929 . S
H167 C106 0.930 . S
H168 C108 0.930 . S
H169 C111 0.929 . S
H170 C112 0.932 . S
H171 C114 0.930 . S
H172 C138 0.929 . S
H173 C139 0.932 . S
H174 C140 0.931 . S
H175 C149 0.931 . S
H176 C151 0.929 . S
H177 C153 0.932 . S
Cd178 O235 2.350 . S
Cd178 O236 2.277 . S
Cd178 O243 2.173 . S
Cd178 O245 2.263 . S
Cd178 O247 2.366 . S
Cd178 O250 2.329 . S
C179 O243 1.277 . S
C179 O244 1.230 . S
C180 O181 1.246 . S
C180 C183 1.481 . S
C180 N205 1.329 . S
O181 C180 1.246 . S
Cd182 O244 2.250 . S
Cd182 O246 2.308 . S
Cd182 O249 2.352 . S
C183 C180 1.481 . S
C183 N186 1.327 . S
C183 C187 1.407 . S
C184 C185 1.346 . S
C184 C188 1.390 . S
C184 H252 0.930 . S
C185 C184 1.346 . S
C185 N186 1.342 . S
C185 C190 1.516 . S
N186 C183 1.327 . S
N186 C185 1.342 . S
N186 Co189 1.864 . S
C187 C183 1.407 . S
C187 C188 1.364 . S
C187 H253 0.930 . S
C188 C184 1.390 . S
C188 C187 1.364 . S
C188 H254 0.931 . S
Co189 N186 1.864 . S
Co189 N205 1.955 . S
Co189 N206 1.958 . S
Co189 N207 1.953 . S
Co189 N225 1.869 . S
Co189 N231 1.974 . S
C190 C185 1.516 . S
C190 O191 1.238 . S
C190 N206 1.324 . S
O191 C190 1.238 . S
C192 C193 1.394 . S
C192 C197 1.395 . S
C192 N206 1.427 . S
C193 C192 1.394 . S
C193 C194 1.380 . S
C193 H255 0.929 . S
C194 C193 1.380 . S
C194 C195 1.384 . S
C194 C198 1.495 . S
C195 C194 1.384 . S
C195 C196 1.382 . S
C195 H256 0.930 . S
C196 C195 1.382 . S
C196 C197 1.398 . S
C197 C192 1.395 . S
C197 C196 1.398 . S
C197 H257 0.930 . S
C198 C194 1.495 . S
C198 O245 1.258 . S
C198 O246 1.274 . S
C199 C200 1.385 . S
C199 C201 1.381 . S
C199 N205 1.432 . S
C200 C199 1.385 . S
C200 C204 1.388 . S
C200 H258 0.929 . S
C201 C199 1.381 . S
C201 C202 1.371 . S
C201 H259 0.932 . S
C202 C201 1.371 . S
C202 C203 1.400 . S
C203 C202 1.400 . S
C203 C204 1.351 . S
C203 H260 0.930 . S
C204 C200 1.388 . S
C204 C203 1.351 . S
N205 C180 1.329 . S
N205 Co189 1.955 . S
N205 C199 1.432 . S
N206 Co189 1.958 . S
N206 C190 1.324 . S
N206 C192 1.427 . S
N207 Co189 1.953 . S
N207 C208 1.436 . S
N207 C234 1.316 . S
C208 N207 1.436 . S
C208 C209 1.421 . S
C208 C210 1.360 . S
C209 C208 1.421 . S
C209 C211 1.379 . S
C209 H212 0.929 . S
C210 C208 1.360 . S
C210 C214 1.393 . S
C210 H216 0.931 . S
C211 C209 1.379 . S
C211 C213 1.417 . S
C211 C215 1.505 . S
H212 C209 0.929 . S
C213 C211 1.417 . S
C213 C214 1.352 . S
C213 H217 0.929 . S
C214 C210 1.393 . S
C214 C213 1.352 . S
C214 C218 1.482 . S
C215 C211 1.505 . S
C215 O219 1.259 . S
C215 O220 1.229 . S
H216 C210 0.931 . S
H217 C213 0.929 . S
C218 C214 1.482 . S
C218 O221 1.207 . S
C218 O222 1.289 . S
O219 C215 1.259 . S
O219 H223 0.822 . S
O220 C215 1.229 . S
O221 C218 1.207 . S
O222 C218 1.289 . S
O222 H224 0.819 . S
H223 O219 0.822 . S
H224 O222 0.819 . S
N225 Co189 1.869 . S
N225 C226 1.330 . S
N225 C230 1.325 . S
C226 N225 1.330 . S
C226 C227 1.359 . S
C226 C232 1.504 . S
C227 C226 1.359 . S
C227 C228 1.366 . S
C227 H261 0.929 . S
C228 C227 1.366 . S
C228 C229 1.415 . S
C228 H262 0.932 . S
C229 C228 1.415 . S
C229 C230 1.366 . S
C229 H263 0.931 . S
C230 N225 1.325 . S
C230 C229 1.366 . S
C230 C234 1.516 . S
N231 Co189 1.974 . S
N231 C232 1.309 . S
N231 C237 1.423 . S
C232 C226 1.504 . S
C232 N231 1.309 . S
C232 O233 1.258 . S
O233 C232 1.258 . S
C234 N207 1.316 . S
C234 C230 1.516 . S
C234 O247 1.263 . S
O235 Cd178 2.350 . S
O235 C251 1.270 . S
O236 Cd178 2.277 . S
O236 C251 1.248 . S
C237 N231 1.423 . S
C237 C238 1.370 . S
C237 C242 1.403 . S
C238 C237 1.370 . S
C238 C239 1.389 . S
C238 H264 0.931 . S
C239 C238 1.389 . S
C239 C240 1.389 . S
C240 C239 1.389 . S
C240 C241 1.379 . S
C240 H265 0.929 . S
C241 C240 1.379 . S
C241 C242 1.405 . S
C242 C237 1.403 . S
C242 C241 1.405 . S
C242 H266 0.932 . S
O243 Cd178 2.173 . S
O243 C179 1.277 . S
O244 C179 1.230 . S
O244 Cd182 2.250 . S
O245 Cd178 2.263 . S
O245 C198 1.258 . S
O246 Cd182 2.308 . S
O246 C198 1.274 . S
O247 Cd178 2.366 . S
O247 C234 1.263 . S
C248 O249 1.235 . S
C248 O250 1.270 . S
O249 Cd182 2.352 . S
O249 C248 1.235 . S
O250 Cd178 2.329 . S
O250 C248 1.270 . S
C251 O235 1.270 . S
C251 O236 1.248 . S
H252 C184 0.930 . S
H253 C187 0.930 . S
H254 C188 0.931 . S
H255 C193 0.929 . S
H256 C195 0.930 . S
H257 C197 0.930 . S
H258 C200 0.929 . S
H259 C201 0.932 . S
H260 C203 0.930 . S
H261 C227 0.929 . S
H262 C228 0.932 . S
H263 C229 0.931 . S
H264 C238 0.931 . S
H265 C240 0.929 . S
H266 C242 0.932 . S
Cd267 O324 2.350 . S
Cd267 O325 2.277 . S
Cd267 O332 2.173 . S
Cd267 O334 2.263 . S
Cd267 O336 2.366 . S
Cd267 O339 2.329 . S
C268 O332 1.277 . S
C268 O333 1.230 . S
C269 O270 1.246 . S
C269 C272 1.481 . S
C269 N294 1.329 . S
O270 C269 1.246 . S
Cd271 O333 2.250 . S
Cd271 O335 2.308 . S
Cd271 O338 2.352 . S
C272 C269 1.481 . S
C272 N275 1.327 . S
C272 C276 1.407 . S
C273 C274 1.346 . S
C273 C277 1.390 . S
C273 H341 0.930 . S
C274 C273 1.346 . S
C274 N275 1.342 . S
C274 C279 1.516 . S
N275 C272 1.327 . S
N275 C274 1.342 . S
N275 Co278 1.864 . S
C276 C272 1.407 . S
C276 C277 1.364 . S
C276 H342 0.930 . S
C277 C273 1.390 . S
C277 C276 1.364 . S
C277 H343 0.931 . S
Co278 N275 1.864 . S
Co278 N294 1.955 . S
Co278 N295 1.958 . S
Co278 N296 1.953 . S
Co278 N314 1.869 . S
Co278 N320 1.974 . S
C279 C274 1.516 . S
C279 O280 1.238 . S
C279 N295 1.324 . S
O280 C279 1.238 . S
C281 C282 1.394 . S
C281 C286 1.395 . S
C281 N295 1.427 . S
C282 C281 1.394 . S
C282 C283 1.380 . S
C282 H344 0.929 . S
C283 C282 1.380 . S
C283 C284 1.384 . S
C283 C287 1.495 1_455 S
C284 C283 1.384 . S
C284 C285 1.382 . S
C284 H345 0.930 . S
C285 C284 1.382 . S
C285 C286 1.398 . S
C286 C281 1.395 . S
C286 C285 1.398 . S
C286 H346 0.930 . S
C287 C283 1.495 1_655 S
C287 O334 1.258 . S
C287 O335 1.274 . S
C288 C289 1.385 . S
C288 C290 1.381 . S
C288 N294 1.432 . S
C289 C288 1.385 . S
C289 C293 1.388 . S
C289 H347 0.929 . S
C290 C288 1.381 . S
C290 C291 1.371 . S
C290 H348 0.932 . S
C291 C290 1.371 . S
C291 C292 1.400 . S
C292 C291 1.400 . S
C292 C293 1.351 . S
C292 H349 0.930 . S
C293 C289 1.388 . S
C293 C292 1.351 . S
N294 C269 1.329 . S
N294 Co278 1.955 . S
N294 C288 1.432 . S
N295 Co278 1.958 . S
N295 C279 1.324 . S
N295 C281 1.427 . S
N296 Co278 1.953 . S
N296 C297 1.436 . S
N296 C323 1.316 . S
C297 N296 1.436 . S
C297 C298 1.421 . S
C297 C299 1.360 . S
C298 C297 1.421 . S
C298 C300 1.379 . S
C298 H301 0.929 . S
C299 C297 1.360 . S
C299 C303 1.393 . S
C299 H305 0.931 . S
C300 C298 1.379 . S
C300 C302 1.417 . S
C300 C304 1.505 . S
H301 C298 0.929 . S
C302 C300 1.417 . S
C302 C303 1.352 . S
C302 H306 0.929 . S
C303 C299 1.393 . S
C303 C302 1.352 . S
C303 C307 1.482 . S
C304 C300 1.505 . S
C304 O308 1.259 . S
C304 O309 1.229 . S
H305 C299 0.931 . S
H306 C302 0.929 . S
C307 C303 1.482 . S
C307 O310 1.207 . S
C307 O311 1.289 . S
O308 C304 1.259 . S
O308 H312 0.822 . S
O309 C304 1.229 . S
O310 C307 1.207 . S
O311 C307 1.289 . S
O311 H313 0.819 . S
H312 O308 0.822 . S
H313 O311 0.819 . S
N314 Co278 1.869 . S
N314 C315 1.330 . S
N314 C319 1.325 . S
C315 N314 1.330 . S
C315 C316 1.359 . S
C315 C321 1.504 . S
C316 C315 1.359 . S
C316 C317 1.366 . S
C316 H350 0.929 . S
C317 C316 1.366 . S
C317 C318 1.415 . S
C317 H351 0.932 . S
C318 C317 1.415 . S
C318 C319 1.366 . S
C318 H352 0.931 1_455 S
C319 N314 1.325 . S
C319 C318 1.366 . S
C319 C323 1.516 . S
N320 Co278 1.974 . S
N320 C321 1.309 . S
N320 C326 1.423 . S
C321 C315 1.504 . S
C321 N320 1.309 . S
C321 O322 1.258 . S
O322 C321 1.258 . S
C323 N296 1.316 . S
C323 C319 1.516 . S
C323 O336 1.263 1_455 S
O324 Cd267 2.350 . S
O324 C340 1.270 . S
O325 Cd267 2.277 . S
O325 C340 1.248 . S
C326 N320 1.423 . S
C326 C327 1.370 . S
C326 C331 1.403 . S
C327 C326 1.370 . S
C327 C328 1.389 . S
C327 H353 0.931 . S
C328 C327 1.389 . S
C328 C329 1.389 . S
C329 C328 1.389 . S
C329 C330 1.379 . S
C329 H354 0.929 . S
C330 C329 1.379 . S
C330 C331 1.405 . S
C331 C326 1.403 . S
C331 C330 1.405 . S
C331 H355 0.932 . S
O332 Cd267 2.173 . S
O332 C268 1.277 . S
O333 C268 1.230 . S
O333 Cd271 2.250 . S
O334 Cd267 2.263 . S
O334 C287 1.258 . S
O335 Cd271 2.308 . S
O335 C287 1.274 . S
O336 Cd267 2.366 . S
O336 C323 1.263 1_655 S
C337 O338 1.235 . S
C337 O339 1.270 . S
O338 Cd271 2.352 . S
O338 C337 1.235 . S
O339 Cd267 2.329 . S
O339 C337 1.270 . S
C340 O324 1.270 . S
C340 O325 1.248 . S
H341 C273 0.930 . S
H342 C276 0.930 . S
H343 C277 0.931 . S
H344 C282 0.929 . S
H345 C284 0.930 . S
H346 C286 0.930 . S
H347 C289 0.929 . S
H348 C290 0.932 . S
H349 C292 0.930 . S
H350 C316 0.929 . S
H351 C317 0.932 . S
H352 C318 0.931 1_655 S
H353 C327 0.931 . S
H354 C329 0.929 . S
H355 C331 0.932 . S
Cd356 O413 2.350 . S
Cd356 O414 2.277 . S
Cd356 O421 2.173 . S
Cd356 O423 2.263 . S
Cd356 O425 2.366 . S
Cd356 O428 2.329 . S
C357 O421 1.277 . S
C357 O422 1.230 . S
C358 O359 1.246 . S
C358 C361 1.481 . S
C358 N383 1.329 . S
O359 C358 1.246 . S
Cd360 O422 2.250 . S
Cd360 O424 2.308 . S
Cd360 O427 2.352 . S
C361 C358 1.481 . S
C361 N364 1.327 . S
C361 C365 1.407 . S
C362 C363 1.346 . S
C362 C366 1.390 . S
C362 H430 0.930 . S
C363 C362 1.346 . S
C363 N364 1.342 . S
C363 C368 1.516 . S
N364 C361 1.327 . S
N364 C363 1.342 . S
N364 Co367 1.864 . S
C365 C361 1.407 . S
C365 C366 1.364 . S
C365 H431 0.930 . S
C366 C362 1.390 . S
C366 C365 1.364 . S
C366 H432 0.931 . S
Co367 N364 1.864 . S
Co367 N383 1.955 . S
Co367 N384 1.958 . S
Co367 N385 1.953 . S
Co367 N403 1.869 . S
Co367 N409 1.974 . S
C368 C363 1.516 . S
C368 O369 1.238 . S
C368 N384 1.324 . S
O369 C368 1.238 . S
C370 C371 1.394 . S
C370 C375 1.395 . S
C370 N384 1.427 . S
C371 C370 1.394 . S
C371 C372 1.380 . S
C371 H433 0.929 . S
C372 C371 1.380 . S
C372 C373 1.384 . S
C372 C376 1.495 . S
C373 C372 1.384 . S
C373 C374 1.382 . S
C373 H434 0.930 . S
C374 C373 1.382 . S
C374 C375 1.398 . S
C375 C370 1.395 . S
C375 C374 1.398 . S
C375 H435 0.930 . S
C376 C372 1.495 . S
C376 O423 1.258 . S
C376 O424 1.274 . S
C377 C378 1.385 . S
C377 C379 1.381 . S
C377 N383 1.432 . S
C378 C377 1.385 . S
C378 C382 1.388 . S
C378 H436 0.929 . S
C379 C377 1.381 . S
C379 C380 1.371 . S
C379 H437 0.932 . S
C380 C379 1.371 . S
C380 C381 1.400 . S
C381 C380 1.400 . S
C381 C382 1.351 . S
C381 H438 0.930 . S
C382 C378 1.388 . S
C382 C381 1.351 . S
N383 C358 1.329 . S
N383 Co367 1.955 . S
N383 C377 1.432 . S
N384 Co367 1.958 . S
N384 C368 1.324 . S
N384 C370 1.427 . S
N385 Co367 1.953 . S
N385 C386 1.436 . S
N385 C412 1.316 . S
C386 N385 1.436 . S
C386 C387 1.421 . S
C386 C388 1.360 . S
C387 C386 1.421 . S
C387 C389 1.379 . S
C387 H390 0.929 . S
C388 C386 1.360 . S
C388 C392 1.393 . S
C388 H394 0.931 . S
C389 C387 1.379 . S
C389 C391 1.417 . S
C389 C393 1.505 . S
H390 C387 0.929 . S
C391 C389 1.417 . S
C391 C392 1.352 . S
C391 H395 0.929 . S
C392 C388 1.393 . S
C392 C391 1.352 . S
C392 C396 1.482 . S
C393 C389 1.505 . S
C393 O397 1.259 . S
C393 O398 1.229 . S
H394 C388 0.931 . S
H395 C391 0.929 . S
C396 C392 1.482 . S
C396 O399 1.207 . S
C396 O400 1.289 . S
O397 C393 1.259 . S
O397 H401 0.822 . S
O398 C393 1.229 . S
O399 C396 1.207 . S
O400 C396 1.289 . S
O400 H402 0.819 . S
H401 O397 0.822 . S
H402 O400 0.819 . S
N403 Co367 1.869 . S
N403 C404 1.330 . S
N403 C408 1.325 . S
C404 N403 1.330 . S
C404 C405 1.359 . S
C404 C410 1.504 . S
C405 C404 1.359 . S
C405 C406 1.366 . S
C405 H439 0.929 . S
C406 C405 1.366 . S
C406 C407 1.415 . S
C406 H440 0.932 . S
C407 C406 1.415 . S
C407 C408 1.366 . S
C407 H441 0.931 . S
C408 N403 1.325 . S
C408 C407 1.366 . S
C408 C412 1.516 . S
N409 Co367 1.974 . S
N409 C410 1.309 . S
N409 C415 1.423 . S
C410 C404 1.504 . S
C410 N409 1.309 . S
C410 O411 1.258 . S
O411 C410 1.258 . S
C412 N385 1.316 . S
C412 C408 1.516 . S
C412 O425 1.263 . S
O413 Cd356 2.350 . S
O413 C429 1.270 . S
O414 Cd356 2.277 . S
O414 C429 1.248 . S
C415 N409 1.423 . S
C415 C416 1.370 . S
C415 C420 1.403 . S
C416 C415 1.370 . S
C416 C417 1.389 . S
C416 H442 0.931 . S
C417 C416 1.389 . S
C417 C418 1.389 . S
C418 C417 1.389 . S
C418 C419 1.379 . S
C418 H443 0.929 . S
C419 C418 1.379 . S
C419 C420 1.405 . S
C420 C415 1.403 . S
C420 C419 1.405 . S
C420 H444 0.932 . S
O421 Cd356 2.173 . S
O421 C357 1.277 . S
O422 C357 1.230 . S
O422 Cd360 2.250 . S
O423 Cd356 2.263 . S
O423 C376 1.258 . S
O424 Cd360 2.308 . S
O424 C376 1.274 . S
O425 Cd356 2.366 . S
O425 C412 1.263 . S
C426 O427 1.235 . S
C426 O428 1.270 . S
O427 Cd360 2.352 . S
O427 C426 1.235 . S
O428 Cd356 2.329 . S
O428 C426 1.270 . S
C429 O413 1.270 . S
C429 O414 1.248 . S
H430 C362 0.930 . S
H431 C365 0.930 . S
H432 C366 0.931 . S
H433 C371 0.929 . S
H434 C373 0.930 . S
H435 C375 0.930 . S
H436 C378 0.929 . S
H437 C379 0.932 . S
H438 C381 0.930 . S
H439 C405 0.929 . S
H440 C406 0.932 . S
H441 C407 0.931 . S
H442 C416 0.931 . S
H443 C418 0.929 . S
H444 C420 0.932 . S
Cd445 O502 2.350 . S
Cd445 O503 2.277 . S
Cd445 O510 2.173 . S
Cd445 O512 2.263 . S
Cd445 O514 2.366 . S
Cd445 O517 2.329 . S
C446 O510 1.277 . S
C446 O511 1.230 . S
C447 O448 1.246 . S
C447 C450 1.481 . S
C447 N472 1.329 1_565 S
O448 C447 1.246 . S
Cd449 O511 2.250 . S
Cd449 O513 2.308 . S
Cd449 O516 2.352 . S
C450 C447 1.481 . S
C450 N453 1.327 . S
C450 C454 1.407 . S
C451 C452 1.346 . S
C451 C455 1.390 . S
C451 H519 0.930 . S
C452 C451 1.346 . S
C452 N453 1.342 . S
C452 C457 1.516 1_565 S
N453 C450 1.327 . S
N453 C452 1.342 . S
N453 Co456 1.864 1_565 S
C454 C450 1.407 . S
C454 C455 1.364 . S
C454 H520 0.930 . S
C455 C451 1.390 . S
C455 C454 1.364 . S
C455 H521 0.931 . S
Co456 N453 1.864 1_545 S
Co456 N472 1.955 . S
Co456 N473 1.958 . S
Co456 N474 1.953 . S
Co456 N492 1.869 . S
Co456 N498 1.974 1_545 S
C457 C452 1.516 1_545 S
C457 O458 1.238 1_545 S
C457 N473 1.324 . S
O458 C457 1.238 1_565 S
C459 C460 1.394 . S
C459 C464 1.395 . S
C459 N473 1.427 . S
C460 C459 1.394 . S
C460 C461 1.380 . S
C460 H522 0.929 . S
C461 C460 1.380 . S
C461 C462 1.384 . S
C461 C465 1.495 . S
C462 C461 1.384 . S
C462 C463 1.382 . S
C462 H523 0.930 . S
C463 C462 1.382 . S
C463 C464 1.398 . S
C464 C459 1.395 . S
C464 C463 1.398 . S
C464 H524 0.930 . S
C465 C461 1.495 . S
C465 O512 1.258 . S
C465 O513 1.274 . S
C466 C467 1.385 . S
C466 C468 1.381 . S
C466 N472 1.432 . S
C467 C466 1.385 . S
C467 C471 1.388 . S
C467 H525 0.929 . S
C468 C466 1.381 . S
C468 C469 1.371 . S
C468 H526 0.932 . S
C469 C468 1.371 . S
C469 C470 1.400 . S
C470 C469 1.400 . S
C470 C471 1.351 . S
C470 H527 0.930 . S
C471 C467 1.388 . S
C471 C470 1.351 . S
N472 C447 1.329 1_545 S
N472 Co456 1.955 . S
N472 C466 1.432 . S
N473 Co456 1.958 . S
N473 C457 1.324 . S
N473 C459 1.427 . S
N474 Co456 1.953 . S
N474 C475 1.436 . S
N474 C501 1.316 . S
C475 N474 1.436 . S
C475 C476 1.421 . S
C475 C477 1.360 . S
C476 C475 1.421 . S
C476 C478 1.379 . S
C476 H479 0.929 . S
C477 C475 1.360 . S
C477 C481 1.393 . S
C477 H483 0.931 . S
C478 C476 1.379 . S
C478 C480 1.417 . S
C478 C482 1.505 . S
H479 C476 0.929 . S
C480 C478 1.417 . S
C480 C481 1.352 . S
C480 H484 0.929 . S
C481 C477 1.393 . S
C481 C480 1.352 . S
C481 C485 1.482 . S
C482 C478 1.505 . S
C482 O486 1.259 . S
C482 O487 1.229 . S
H483 C477 0.931 . S
H484 C480 0.929 . S
C485 C481 1.482 . S
C485 O488 1.207 . S
C485 O489 1.289 . S
O486 C482 1.259 . S
O486 H490 0.822 . S
O487 C482 1.229 . S
O488 C485 1.207 . S
O489 C485 1.289 . S
O489 H491 0.819 . S
H490 O486 0.822 . S
H491 O489 0.819 . S
N492 Co456 1.869 . S
N492 C493 1.330 . S
N492 C497 1.325 . S
C493 N492 1.330 . S
C493 C494 1.359 . S
C493 C499 1.504 . S
C494 C493 1.359 . S
C494 C495 1.366 . S
C494 H528 0.929 . S
C495 C494 1.366 . S
C495 C496 1.415 . S
C495 H529 0.932 . S
C496 C495 1.415 . S
C496 C497 1.366 . S
C496 H530 0.931 . S
C497 N492 1.325 . S
C497 C496 1.366 . S
C497 C501 1.516 . S
N498 Co456 1.974 1_565 S
N498 C499 1.309 1_565 S
N498 C504 1.423 . S
C499 C493 1.504 . S
C499 N498 1.309 1_545 S
C499 O500 1.258 1_545 S
O500 C499 1.258 1_565 S
C501 N474 1.316 . S
C501 C497 1.516 . S
C501 O514 1.263 . S
O502 Cd445 2.350 . S
O502 C518 1.270 . S
O503 Cd445 2.277 . S
O503 C518 1.248 . S
C504 N498 1.423 . S
C504 C505 1.370 . S
C504 C509 1.403 . S
C505 C504 1.370 . S
C505 C506 1.389 . S
C505 H531 0.931 . S
C506 C505 1.389 . S
C506 C507 1.389 . S
C507 C506 1.389 . S
C507 C508 1.379 . S
C507 H532 0.929 . S
C508 C507 1.379 . S
C508 C509 1.405 . S
C509 C504 1.403 . S
C509 C508 1.405 . S
C509 H533 0.932 . S
O510 Cd445 2.173 . S
O510 C446 1.277 . S
O511 C446 1.230 . S
O511 Cd449 2.250 . S
O512 Cd445 2.263 . S
O512 C465 1.258 . S
O513 Cd449 2.308 . S
O513 C465 1.274 . S
O514 Cd445 2.366 . S
O514 C501 1.263 . S
C515 O516 1.235 . S
C515 O517 1.270 . S
O516 Cd449 2.352 . S
O516 C515 1.235 . S
O517 Cd445 2.329 . S
O517 C515 1.270 . S
C518 O502 1.270 . S
C518 O503 1.248 . S
H519 C451 0.930 . S
H520 C454 0.930 . S
H521 C455 0.931 . S
H522 C460 0.929 . S
H523 C462 0.930 . S
H524 C464 0.930 . S
H525 C467 0.929 . S
H526 C468 0.932 . S
H527 C470 0.930 . S
H528 C494 0.929 . S
H529 C495 0.932 . S
H530 C496 0.931 . S
H531 C505 0.931 . S
H532 C507 0.929 . S
H533 C509 0.932 . S
Cd534 O591 2.350 . S
Cd534 O592 2.277 . S
Cd534 O599 2.173 . S
Cd534 O601 2.263 . S
Cd534 O603 2.366 . S
Cd534 O606 2.329 . S
C535 O599 1.277 . S
C535 O600 1.230 . S
C536 O537 1.246 . S
C536 C539 1.481 . S
C536 N561 1.329 1_565 S
O537 C536 1.246 . S
Cd538 O600 2.250 . S
Cd538 O602 2.308 . S
Cd538 O605 2.352 . S
C539 C536 1.481 . S
C539 N542 1.327 . S
C539 C543 1.407 . S
C540 C541 1.346 . S
C540 C544 1.390 . S
C540 H608 0.930 . S
C541 C540 1.346 . S
C541 N542 1.342 . S
C541 C546 1.516 1_565 S
N542 C539 1.327 . S
N542 C541 1.342 . S
N542 Co545 1.864 1_565 S
C543 C539 1.407 . S
C543 C544 1.364 . S
C543 H609 0.930 . S
C544 C540 1.390 . S
C544 C543 1.364 . S
C544 H610 0.931 . S
Co545 N542 1.864 1_545 S
Co545 N561 1.955 . S
Co545 N562 1.958 . S
Co545 N563 1.953 . S
Co545 N581 1.869 . S
Co545 N587 1.974 1_545 S
C546 C541 1.516 1_545 S
C546 O547 1.238 1_545 S
C546 N562 1.324 . S
O547 C546 1.238 1_565 S
C548 C549 1.394 . S
C548 C553 1.395 . S
C548 N562 1.427 . S
C549 C548 1.394 . S
C549 C550 1.380 . S
C549 H611 0.929 . S
C550 C549 1.380 . S
C550 C551 1.384 . S
C550 C554 1.495 . S
C551 C550 1.384 . S
C551 C552 1.382 . S
C551 H612 0.930 . S
C552 C551 1.382 . S
C552 C553 1.398 . S
C553 C548 1.395 . S
C553 C552 1.398 . S
C553 H613 0.930 . S
C554 C550 1.495 . S
C554 O601 1.258 . S
C554 O602 1.274 . S
C555 C556 1.385 . S
C555 C557 1.381 . S
C555 N561 1.432 . S
C556 C555 1.385 . S
C556 C560 1.388 . S
C556 H614 0.929 . S
C557 C555 1.381 . S
C557 C558 1.371 . S
C557 H615 0.932 . S
C558 C557 1.371 . S
C558 C559 1.400 . S
C559 C558 1.400 . S
C559 C560 1.351 . S
C559 H616 0.930 . S
C560 C556 1.388 . S
C560 C559 1.351 . S
N561 C536 1.329 1_545 S
N561 Co545 1.955 . S
N561 C555 1.432 . S
N562 Co545 1.958 . S
N562 C546 1.324 . S
N562 C548 1.427 . S
N563 Co545 1.953 . S
N563 C564 1.436 . S
N563 C590 1.316 . S
C564 N563 1.436 . S
C564 C565 1.421 . S
C564 C566 1.360 . S
C565 C564 1.421 . S
C565 C567 1.379 . S
C565 H568 0.929 . S
C566 C564 1.360 . S
C566 C570 1.393 . S
C566 H572 0.931 . S
C567 C565 1.379 . S
C567 C569 1.417 . S
C567 C571 1.505 . S
H568 C565 0.929 . S
C569 C567 1.417 . S
C569 C570 1.352 . S
C569 H573 0.929 . S
C570 C566 1.393 . S
C570 C569 1.352 . S
C570 C574 1.482 . S
C571 C567 1.505 . S
C571 O575 1.259 . S
C571 O576 1.229 . S
H572 C566 0.931 . S
H573 C569 0.929 . S
C574 C570 1.482 . S
C574 O577 1.207 . S
C574 O578 1.289 . S
O575 C571 1.259 . S
O575 H579 0.822 . S
O576 C571 1.229 . S
O577 C574 1.207 . S
O578 C574 1.289 . S
O578 H580 0.819 . S
H579 O575 0.822 . S
H580 O578 0.819 . S
N581 Co545 1.869 . S
N581 C582 1.330 . S
N581 C586 1.325 . S
C582 N581 1.330 . S
C582 C583 1.359 . S
C582 C588 1.504 . S
C583 C582 1.359 . S
C583 C584 1.366 . S
C583 H617 0.929 . S
C584 C583 1.366 . S
C584 C585 1.415 . S
C584 H618 0.932 . S
C585 C584 1.415 . S
C585 C586 1.366 . S
C585 H619 0.931 . S
C586 N581 1.325 . S
C586 C585 1.366 . S
C586 C590 1.516 . S
N587 Co545 1.974 1_565 S
N587 C588 1.309 1_565 S
N587 C593 1.423 . S
C588 C582 1.504 . S
C588 N587 1.309 1_545 S
C588 O589 1.258 1_545 S
O589 C588 1.258 1_565 S
C590 N563 1.316 . S
C590 C586 1.516 . S
C590 O603 1.263 . S
O591 Cd534 2.350 . S
O591 C607 1.270 . S
O592 Cd534 2.277 . S
O592 C607 1.248 . S
C593 N587 1.423 . S
C593 C594 1.370 . S
C593 C598 1.403 . S
C594 C593 1.370 . S
C594 C595 1.389 . S
C594 H620 0.931 . S
C595 C594 1.389 . S
C595 C596 1.389 . S
C596 C595 1.389 . S
C596 C597 1.379 . S
C596 H621 0.929 . S
C597 C596 1.379 . S
C597 C598 1.405 . S
C598 C593 1.403 . S
C598 C597 1.405 . S
C598 H622 0.932 . S
O599 Cd534 2.173 . S
O599 C535 1.277 . S
O600 C535 1.230 . S
O600 Cd538 2.250 . S
O601 Cd534 2.263 . S
O601 C554 1.258 . S
O602 Cd538 2.308 . S
O602 C554 1.274 . S
O603 Cd534 2.366 . S
O603 C590 1.263 . S
C604 O605 1.235 . S
C604 O606 1.270 . S
O605 Cd538 2.352 . S
O605 C604 1.235 . S
O606 Cd534 2.329 . S
O606 C604 1.270 . S
C607 O591 1.270 . S
C607 O592 1.248 . S
H608 C540 0.930 . S
H609 C543 0.930 . S
H610 C544 0.931 . S
H611 C549 0.929 . S
H612 C551 0.930 . S
H613 C553 0.930 . S
H614 C556 0.929 . S
H615 C557 0.932 . S
H616 C559 0.930 . S
H617 C583 0.929 . S
H618 C584 0.932 . S
H619 C585 0.931 . S
H620 C594 0.931 . S
H621 C596 0.929 . S
H622 C598 0.932 . S
Cd623 O680 2.350 . S
Cd623 O681 2.277 . S
Cd623 O688 2.173 . S
Cd623 O690 2.263 . S
Cd623 O692 2.366 . S
Cd623 O695 2.329 . S
C624 O688 1.277 . S
C624 O689 1.230 . S
C625 O626 1.246 . S
C625 C628 1.481 . S
C625 N650 1.329 . S
O626 C625 1.246 . S
Cd627 O689 2.250 . S
Cd627 O691 2.308 . S
Cd627 O694 2.352 . S
C628 C625 1.481 . S
C628 N631 1.327 . S
C628 C632 1.407 . S
C629 C630 1.346 . S
C629 C633 1.390 . S
C629 H697 0.930 . S
C630 C629 1.346 . S
C630 N631 1.342 . S
C630 C635 1.516 . S
N631 C628 1.327 . S
N631 C630 1.342 . S
N631 Co634 1.864 . S
C632 C628 1.407 . S
C632 C633 1.364 . S
C632 H698 0.930 . S
C633 C629 1.390 . S
C633 C632 1.364 . S
C633 H699 0.931 . S
Co634 N631 1.864 . S
Co634 N650 1.955 . S
Co634 N651 1.958 . S
Co634 N652 1.953 . S
Co634 N670 1.869 . S
Co634 N676 1.974 . S
C635 C630 1.516 . S
C635 O636 1.238 . S
C635 N651 1.324 . S
O636 C635 1.238 . S
C637 C638 1.394 . S
C637 C642 1.395 . S
C637 N651 1.427 . S
C638 C637 1.394 . S
C638 C639 1.380 . S
C638 H700 0.929 . S
C639 C638 1.380 . S
C639 C640 1.384 . S
C639 C643 1.495 1_455 S
C640 C639 1.384 . S
C640 C641 1.382 . S
C640 H701 0.930 . S
C641 C640 1.382 . S
C641 C642 1.398 . S
C642 C637 1.395 . S
C642 C641 1.398 . S
C642 H702 0.930 . S
C643 C639 1.495 1_655 S
C643 O690 1.258 . S
C643 O691 1.274 . S
C644 C645 1.385 . S
C644 C646 1.381 . S
C644 N650 1.432 . S
C645 C644 1.385 . S
C645 C649 1.388 . S
C645 H703 0.929 . S
C646 C644 1.381 . S
C646 C647 1.371 . S
C646 H704 0.932 . S
C647 C646 1.371 . S
C647 C648 1.400 . S
C648 C647 1.400 . S
C648 C649 1.351 . S
C648 H705 0.930 . S
C649 C645 1.388 . S
C649 C648 1.351 . S
N650 C625 1.329 . S
N650 Co634 1.955 . S
N650 C644 1.432 . S
N651 Co634 1.958 . S
N651 C635 1.324 . S
N651 C637 1.427 . S
N652 Co634 1.953 . S
N652 C653 1.436 . S
N652 C679 1.316 . S
C653 N652 1.436 . S
C653 C654 1.421 . S
C653 C655 1.360 . S
C654 C653 1.421 . S
C654 C656 1.379 . S
C654 H657 0.929 . S
C655 C653 1.360 . S
C655 C659 1.393 . S
C655 H661 0.931 . S
C656 C654 1.379 . S
C656 C658 1.417 . S
C656 C660 1.505 . S
H657 C654 0.929 . S
C658 C656 1.417 . S
C658 C659 1.352 . S
C658 H662 0.929 . S
C659 C655 1.393 . S
C659 C658 1.352 . S
C659 C663 1.482 . S
C660 C656 1.505 . S
C660 O664 1.259 . S
C660 O665 1.229 . S
H661 C655 0.931 . S
H662 C658 0.929 . S
C663 C659 1.482 . S
C663 O666 1.207 . S
C663 O667 1.289 . S
O664 C660 1.259 . S
O664 H668 0.822 . S
O665 C660 1.229 . S
O666 C663 1.207 . S
O667 C663 1.289 . S
O667 H669 0.819 . S
H668 O664 0.822 . S
H669 O667 0.819 . S
N670 Co634 1.869 . S
N670 C671 1.330 . S
N670 C675 1.325 . S
C671 N670 1.330 . S
C671 C672 1.359 . S
C671 C677 1.504 . S
C672 C671 1.359 . S
C672 C673 1.366 . S
C672 H706 0.929 . S
C673 C672 1.366 . S
C673 C674 1.415 . S
C673 H707 0.932 . S
C674 C673 1.415 . S
C674 C675 1.366 . S
C674 H708 0.931 1_455 S
C675 N670 1.325 . S
C675 C674 1.366 . S
C675 C679 1.516 . S
N676 Co634 1.974 . S
N676 C677 1.309 . S
N676 C682 1.423 . S
C677 C671 1.504 . S
C677 N676 1.309 . S
C677 O678 1.258 . S
O678 C677 1.258 . S
C679 N652 1.316 . S
C679 C675 1.516 . S
C679 O692 1.263 1_455 S
O680 Cd623 2.350 . S
O680 C696 1.270 . S
O681 Cd623 2.277 . S
O681 C696 1.248 . S
C682 N676 1.423 . S
C682 C683 1.370 . S
C682 C687 1.403 . S
C683 C682 1.370 . S
C683 C684 1.389 . S
C683 H709 0.931 . S
C684 C683 1.389 . S
C684 C685 1.389 . S
C685 C684 1.389 . S
C685 C686 1.379 . S
C685 H710 0.929 . S
C686 C685 1.379 . S
C686 C687 1.405 . S
C687 C682 1.403 . S
C687 C686 1.405 . S
C687 H711 0.932 . S
O688 Cd623 2.173 . S
O688 C624 1.277 . S
O689 C624 1.230 . S
O689 Cd627 2.250 . S
O690 Cd623 2.263 . S
O690 C643 1.258 . S
O691 Cd627 2.308 . S
O691 C643 1.274 . S
O692 Cd623 2.366 . S
O692 C679 1.263 1_655 S
C693 O694 1.235 . S
C693 O695 1.270 . S
O694 Cd627 2.352 . S
O694 C693 1.235 . S
O695 Cd623 2.329 . S
O695 C693 1.270 . S
C696 O680 1.270 . S
C696 O681 1.248 . S
H697 C629 0.930 . S
H698 C632 0.930 . S
H699 C633 0.931 . S
H700 C638 0.929 . S
H701 C640 0.930 . S
H702 C642 0.930 . S
H703 C645 0.929 . S
H704 C646 0.932 . S
H705 C648 0.930 . S
H706 C672 0.929 . S
H707 C673 0.932 . S
H708 C674 0.931 1_655 S
H709 C683 0.931 . S
H710 C685 0.929 . S
H711 C687 0.932 . S
Cd712 O769 2.350 . S
Cd712 O770 2.277 . S
Cd712 O777 2.173 . S
Cd712 O779 2.263 . S
Cd712 O781 2.366 . S
Cd712 O784 2.329 . S
C713 O777 1.277 . S
C713 O778 1.230 . S
C714 O715 1.246 . S
C714 C717 1.481 . S
C714 N739 1.329 . S
O715 C714 1.246 . S
Cd716 O778 2.250 . S
Cd716 O780 2.308 . S
Cd716 O783 2.352 . S
C717 C714 1.481 . S
C717 N720 1.327 . S
C717 C721 1.407 . S
C718 C719 1.346 . S
C718 C722 1.390 . S
C718 H786 0.930 . S
C719 C718 1.346 . S
C719 N720 1.342 . S
C719 C724 1.516 . S
N720 C717 1.327 . S
N720 C719 1.342 . S
N720 Co723 1.864 . S
C721 C717 1.407 . S
C721 C722 1.364 . S
C721 H787 0.930 . S
C722 C718 1.390 . S
C722 C721 1.364 . S
C722 H788 0.931 . S
Co723 N720 1.864 . S
Co723 N739 1.955 . S
Co723 N740 1.958 . S
Co723 N741 1.953 . S
Co723 N759 1.869 . S
Co723 N765 1.974 . S
C724 C719 1.516 . S
C724 O725 1.238 . S
C724 N740 1.324 . S
O725 C724 1.238 . S
C726 C727 1.394 . S
C726 C731 1.395 . S
C726 N740 1.427 . S
C727 C726 1.394 . S
C727 C728 1.380 . S
C727 H789 0.929 . S
C728 C727 1.380 . S
C728 C729 1.384 . S
C728 C732 1.495 . S
C729 C728 1.384 . S
C729 C730 1.382 . S
C729 H790 0.930 . S
C730 C729 1.382 . S
C730 C731 1.398 . S
C731 C726 1.395 . S
C731 C730 1.398 . S
C731 H791 0.930 . S
C732 C728 1.495 . S
C732 O779 1.258 . S
C732 O780 1.274 . S
C733 C734 1.385 . S
C733 C735 1.381 . S
C733 N739 1.432 . S
C734 C733 1.385 . S
C734 C738 1.388 . S
C734 H792 0.929 . S
C735 C733 1.381 . S
C735 C736 1.371 . S
C735 H793 0.932 . S
C736 C735 1.371 . S
C736 C737 1.400 . S
C737 C736 1.400 . S
C737 C738 1.351 . S
C737 H794 0.930 . S
C738 C734 1.388 . S
C738 C737 1.351 . S
N739 C714 1.329 . S
N739 Co723 1.955 . S
N739 C733 1.432 . S
N740 Co723 1.958 . S
N740 C724 1.324 . S
N740 C726 1.427 . S
N741 Co723 1.953 . S
N741 C742 1.436 . S
N741 C768 1.316 . S
C742 N741 1.436 . S
C742 C743 1.421 . S
C742 C744 1.360 . S
C743 C742 1.421 . S
C743 C745 1.379 . S
C743 H746 0.929 . S
C744 C742 1.360 . S
C744 C748 1.393 . S
C744 H750 0.931 . S
C745 C743 1.379 . S
C745 C747 1.417 . S
C745 C749 1.505 . S
H746 C743 0.929 . S
C747 C745 1.417 . S
C747 C748 1.352 . S
C747 H751 0.929 . S
C748 C744 1.393 . S
C748 C747 1.352 . S
C748 C752 1.482 . S
C749 C745 1.505 . S
C749 O753 1.259 . S
C749 O754 1.229 . S
H750 C744 0.931 . S
H751 C747 0.929 . S
C752 C748 1.482 . S
C752 O755 1.207 . S
C752 O756 1.289 . S
O753 C749 1.259 . S
O753 H757 0.822 . S
O754 C749 1.229 . S
O755 C752 1.207 . S
O756 C752 1.289 . S
O756 H758 0.819 . S
H757 O753 0.822 . S
H758 O756 0.819 . S
N759 Co723 1.869 . S
N759 C760 1.330 . S
N759 C764 1.325 . S
C760 N759 1.330 . S
C760 C761 1.359 . S
C760 C766 1.504 . S
C761 C760 1.359 . S
C761 C762 1.366 . S
C761 H795 0.929 . S
C762 C761 1.366 . S
C762 C763 1.415 . S
C762 H796 0.932 . S
C763 C762 1.415 . S
C763 C764 1.366 . S
C763 H797 0.931 . S
C764 N759 1.325 . S
C764 C763 1.366 . S
C764 C768 1.516 . S
N765 Co723 1.974 . S
N765 C766 1.309 . S
N765 C771 1.423 . S
C766 C760 1.504 . S
C766 N765 1.309 . S
C766 O767 1.258 . S
O767 C766 1.258 . S
C768 N741 1.316 . S
C768 C764 1.516 . S
C768 O781 1.263 . S
O769 Cd712 2.350 . S
O769 C785 1.270 . S
O770 Cd712 2.277 . S
O770 C785 1.248 . S
C771 N765 1.423 . S
C771 C772 1.370 . S
C771 C776 1.403 . S
C772 C771 1.370 . S
C772 C773 1.389 . S
C772 H798 0.931 . S
C773 C772 1.389 . S
C773 C774 1.389 . S
C774 C773 1.389 . S
C774 C775 1.379 . S
C774 H799 0.929 . S
C775 C774 1.379 . S
C775 C776 1.405 . S
C776 C771 1.403 . S
C776 C775 1.405 . S
C776 H800 0.932 . S
O777 Cd712 2.173 . S
O777 C713 1.277 . S
O778 C713 1.230 . S
O778 Cd716 2.250 . S
O779 Cd712 2.263 . S
O779 C732 1.258 . S
O780 Cd716 2.308 . S
O780 C732 1.274 . S
O781 Cd712 2.366 . S
O781 C768 1.263 . S
C782 O783 1.235 . S
C782 O784 1.270 . S
O783 Cd716 2.352 . S
O783 C782 1.235 . S
O784 Cd712 2.329 . S
O784 C782 1.270 . S
C785 O769 1.270 . S
C785 O770 1.248 . S
H786 C718 0.930 . S
H787 C721 0.930 . S
H788 C722 0.931 . S
H789 C727 0.929 . S
H790 C729 0.930 . S
H791 C731 0.930 . S
H792 C734 0.929 . S
H793 C735 0.932 . S
H794 C737 0.930 . S
H795 C761 0.929 . S
H796 C762 0.932 . S
H797 C763 0.931 . S
H798 C772 0.931 . S
H799 C774 0.929 . S
H800 C776 0.932 . S
Cd801 O858 2.350 . S
Cd801 O859 2.277 . S
Cd801 O866 2.173 . S
Cd801 O868 2.263 . S
Cd801 O870 2.366 . S
Cd801 O873 2.329 . S
C802 O866 1.277 . S
C802 O867 1.230 . S
C803 O804 1.246 . S
C803 C806 1.481 . S
C803 N828 1.329 1_655 S
O804 C803 1.246 . S
Cd805 O867 2.250 . S
Cd805 O869 2.308 . S
Cd805 O872 2.352 . S
C806 C803 1.481 . S
C806 N809 1.327 . S
C806 C810 1.407 . S
C807 C808 1.346 . S
C807 C811 1.390 . S
C807 H875 0.930 . S
C808 C807 1.346 . S
C808 N809 1.342 . S
C808 C813 1.516 1_655 S
N809 C806 1.327 . S
N809 C808 1.342 . S
N809 Co812 1.864 1_655 S
C810 C806 1.407 . S
C810 C811 1.364 . S
C810 H876 0.930 . S
C811 C807 1.390 . S
C811 C810 1.364 . S
C811 H877 0.931 . S
Co812 N809 1.864 1_455 S
Co812 N828 1.955 . S
Co812 N829 1.958 . S
Co812 N830 1.953 . S
Co812 N848 1.869 . S
Co812 N854 1.974 1_455 S
C813 C808 1.516 1_455 S
C813 O814 1.238 1_455 S
C813 N829 1.324 . S
O814 C813 1.238 1_655 S
C815 C816 1.394 . S
C815 C820 1.395 . S
C815 N829 1.427 . S
C816 C815 1.394 . S
C816 C817 1.380 . S
C816 H878 0.929 . S
C817 C816 1.380 . S
C817 C818 1.384 . S
C817 C821 1.495 . S
C818 C817 1.384 . S
C818 C819 1.382 . S
C818 H879 0.930 . S
C819 C818 1.382 . S
C819 C820 1.398 . S
C820 C815 1.395 . S
C820 C819 1.398 . S
C820 H880 0.930 . S
C821 C817 1.495 . S
C821 O868 1.258 . S
C821 O869 1.274 . S
C822 C823 1.385 . S
C822 C824 1.381 . S
C822 N828 1.432 . S
C823 C822 1.385 . S
C823 C827 1.388 . S
C823 H881 0.929 . S
C824 C822 1.381 . S
C824 C825 1.371 . S
C824 H882 0.932 . S
C825 C824 1.371 . S
C825 C826 1.400 . S
C826 C825 1.400 . S
C826 C827 1.351 . S
C826 H883 0.930 . S
C827 C823 1.388 . S
C827 C826 1.351 . S
N828 C803 1.329 1_455 S
N828 Co812 1.955 . S
N828 C822 1.432 . S
N829 Co812 1.958 . S
N829 C813 1.324 . S
N829 C815 1.427 . S
N830 Co812 1.953 . S
N830 C831 1.436 . S
N830 C857 1.316 . S
C831 N830 1.436 . S
C831 C832 1.421 . S
C831 C833 1.360 . S
C832 C831 1.421 . S
C832 C834 1.379 . S
C832 H835 0.929 . S
C833 C831 1.360 . S
C833 C837 1.393 . S
C833 H839 0.931 . S
C834 C832 1.379 . S
C834 C836 1.417 . S
C834 C838 1.505 . S
H835 C832 0.929 . S
C836 C834 1.417 . S
C836 C837 1.352 . S
C836 H840 0.929 . S
C837 C833 1.393 . S
C837 C836 1.352 . S
C837 C841 1.482 . S
C838 C834 1.505 . S
C838 O842 1.259 . S
C838 O843 1.229 . S
H839 C833 0.931 . S
H840 C836 0.929 . S
C841 C837 1.482 . S
C841 O844 1.207 . S
C841 O845 1.289 . S
O842 C838 1.259 . S
O842 H846 0.822 . S
O843 C838 1.229 . S
O844 C841 1.207 . S
O845 C841 1.289 . S
O845 H847 0.819 . S
H846 O842 0.822 . S
H847 O845 0.819 . S
N848 Co812 1.869 . S
N848 C849 1.330 . S
N848 C853 1.325 . S
C849 N848 1.330 . S
C849 C850 1.359 . S
C849 C855 1.504 . S
C850 C849 1.359 . S
C850 C851 1.366 . S
C850 H884 0.929 . S
C851 C850 1.366 . S
C851 C852 1.415 . S
C851 H885 0.932 . S
C852 C851 1.415 . S
C852 C853 1.366 . S
C852 H886 0.931 . S
C853 N848 1.325 . S
C853 C852 1.366 . S
C853 C857 1.516 . S
N854 Co812 1.974 1_655 S
N854 C855 1.309 1_655 S
N854 C860 1.423 . S
C855 C849 1.504 . S
C855 N854 1.309 1_455 S
C855 O856 1.258 1_455 S
O856 C855 1.258 1_655 S
C857 N830 1.316 . S
C857 C853 1.516 . S
C857 O870 1.263 . S
O858 Cd801 2.350 . S
O858 C874 1.270 . S
O859 Cd801 2.277 . S
O859 C874 1.248 . S
C860 N854 1.423 . S
C860 C861 1.370 . S
C860 C865 1.403 . S
C861 C860 1.370 . S
C861 C862 1.389 . S
C861 H887 0.931 . S
C862 C861 1.389 . S
C862 C863 1.389 . S
C863 C862 1.389 . S
C863 C864 1.379 . S
C863 H888 0.929 . S
C864 C863 1.379 . S
C864 C865 1.405 . S
C865 C860 1.403 . S
C865 C864 1.405 . S
C865 H889 0.932 . S
O866 Cd801 2.173 . S
O866 C802 1.277 . S
O867 C802 1.230 . S
O867 Cd805 2.250 . S
O868 Cd801 2.263 . S
O868 C821 1.258 . S
O869 Cd805 2.308 . S
O869 C821 1.274 . S
O870 Cd801 2.366 . S
O870 C857 1.263 . S
C871 O872 1.235 . S
C871 O873 1.270 . S
O872 Cd805 2.352 . S
O872 C871 1.235 . S
O873 Cd801 2.329 . S
O873 C871 1.270 . S
C874 O858 1.270 . S
C874 O859 1.248 . S
H875 C807 0.930 . S
H876 C810 0.930 . S
H877 C811 0.931 . S
H878 C816 0.929 . S
H879 C818 0.930 . S
H880 C820 0.930 . S
H881 C823 0.929 . S
H882 C824 0.932 . S
H883 C826 0.930 . S
H884 C850 0.929 . S
H885 C851 0.932 . S
H886 C852 0.931 . S
H887 C861 0.931 . S
H888 C863 0.929 . S
H889 C865 0.932 . S
Cd890 O947 2.350 . S
Cd890 O948 2.277 . S
Cd890 O955 2.173 . S
Cd890 O957 2.263 . S
Cd890 O959 2.366 . S
Cd890 O962 2.329 . S
C891 O955 1.277 . S
C891 O956 1.230 . S
C892 O893 1.246 . S
C892 C895 1.481 . S
C892 N917 1.329 . S
O893 C892 1.246 . S
Cd894 O956 2.250 . S
Cd894 O958 2.308 . S
Cd894 O961 2.352 . S
C895 C892 1.481 . S
C895 N898 1.327 . S
C895 C899 1.407 . S
C896 C897 1.346 . S
C896 C900 1.390 . S
C896 H964 0.930 . S
C897 C896 1.346 . S
C897 N898 1.342 . S
C897 C902 1.516 . S
N898 C895 1.327 . S
N898 C897 1.342 . S
N898 Co901 1.864 . S
C899 C895 1.407 . S
C899 C900 1.364 . S
C899 H965 0.930 . S
C900 C896 1.390 . S
C900 C899 1.364 . S
C900 H966 0.931 . S
Co901 N898 1.864 . S
Co901 N917 1.955 . S
Co901 N918 1.958 . S
Co901 N919 1.953 . S
Co901 N937 1.869 . S
Co901 N943 1.974 . S
C902 C897 1.516 . S
C902 O903 1.238 . S
C902 N918 1.324 . S
O903 C902 1.238 . S
C904 C905 1.394 . S
C904 C909 1.395 . S
C904 N918 1.427 . S
C905 C904 1.394 . S
C905 C906 1.380 . S
C905 H967 0.929 . S
C906 C905 1.380 . S
C906 C907 1.384 . S
C906 C910 1.495 . S
C907 C906 1.384 . S
C907 C908 1.382 . S
C907 H968 0.930 . S
C908 C907 1.382 . S
C908 C909 1.398 . S
C909 C904 1.395 . S
C909 C908 1.398 . S
C909 H969 0.930 . S
C910 C906 1.495 . S
C910 O957 1.258 . S
C910 O958 1.274 . S
C911 C912 1.385 . S
C911 C913 1.381 . S
C911 N917 1.432 . S
C912 C911 1.385 . S
C912 C916 1.388 . S
C912 H970 0.929 . S
C913 C911 1.381 . S
C913 C914 1.371 . S
C913 H971 0.932 . S
C914 C913 1.371 . S
C914 C915 1.400 . S
C915 C914 1.400 . S
C915 C916 1.351 . S
C915 H972 0.930 . S
C916 C912 1.388 . S
C916 C915 1.351 . S
N917 C892 1.329 . S
N917 Co901 1.955 . S
N917 C911 1.432 . S
N918 Co901 1.958 . S
N918 C902 1.324 . S
N918 C904 1.427 . S
N919 Co901 1.953 . S
N919 C920 1.436 . S
N919 C946 1.316 . S
C920 N919 1.436 . S
C920 C921 1.421 . S
C920 C922 1.360 . S
C921 C920 1.421 . S
C921 C923 1.379 . S
C921 H924 0.929 . S
C922 C920 1.360 . S
C922 C926 1.393 . S
C922 H928 0.931 . S
C923 C921 1.379 . S
C923 C925 1.417 . S
C923 C927 1.505 . S
H924 C921 0.929 . S
C925 C923 1.417 . S
C925 C926 1.352 . S
C925 H929 0.929 . S
C926 C922 1.393 . S
C926 C925 1.352 . S
C926 C930 1.482 . S
C927 C923 1.505 . S
C927 O931 1.259 . S
C927 O932 1.229 . S
H928 C922 0.931 . S
H929 C925 0.929 . S
C930 C926 1.482 . S
C930 O933 1.207 . S
C930 O934 1.289 . S
O931 C927 1.259 . S
O931 H935 0.822 . S
O932 C927 1.229 . S
O933 C930 1.207 . S
O934 C930 1.289 . S
O934 H936 0.819 . S
H935 O931 0.822 . S
H936 O934 0.819 . S
N937 Co901 1.869 . S
N937 C938 1.330 . S
N937 C942 1.325 . S
C938 N937 1.330 . S
C938 C939 1.359 . S
C938 C944 1.504 . S
C939 C938 1.359 . S
C939 C940 1.366 . S
C939 H973 0.929 . S
C940 C939 1.366 . S
C940 C941 1.415 . S
C940 H974 0.932 . S
C941 C940 1.415 . S
C941 C942 1.366 . S
C941 H975 0.931 . S
C942 N937 1.325 . S
C942 C941 1.366 . S
C942 C946 1.516 . S
N943 Co901 1.974 . S
N943 C944 1.309 . S
N943 C949 1.423 . S
C944 C938 1.504 . S
C944 N943 1.309 . S
C944 O945 1.258 . S
O945 C944 1.258 . S
C946 N919 1.316 . S
C946 C942 1.516 . S
C946 O959 1.263 . S
O947 Cd890 2.350 . S
O947 C963 1.270 . S
O948 Cd890 2.277 . S
O948 C963 1.248 . S
C949 N943 1.423 . S
C949 C950 1.370 . S
C949 C954 1.403 . S
C950 C949 1.370 . S
C950 C951 1.389 . S
C950 H976 0.931 . S
C951 C950 1.389 . S
C951 C952 1.389 . S
C952 C951 1.389 . S
C952 C953 1.379 . S
C952 H977 0.929 . S
C953 C952 1.379 . S
C953 C954 1.405 . S
C954 C949 1.403 . S
C954 C953 1.405 . S
C954 H978 0.932 . S
O955 Cd890 2.173 . S
O955 C891 1.277 . S
O956 C891 1.230 . S
O956 Cd894 2.250 . S
O957 Cd890 2.263 . S
O957 C910 1.258 . S
O958 Cd894 2.308 . S
O958 C910 1.274 . S
O959 Cd890 2.366 . S
O959 C946 1.263 . S
C960 O961 1.235 . S
C960 O962 1.270 . S
O961 Cd894 2.352 . S
O961 C960 1.235 . S
O962 Cd890 2.329 . S
O962 C960 1.270 . S
C963 O947 1.270 . S
C963 O948 1.248 . S
H964 C896 0.930 . S
H965 C899 0.930 . S
H966 C900 0.931 . S
H967 C905 0.929 . S
H968 C907 0.930 . S
H969 C909 0.930 . S
H970 C912 0.929 . S
H971 C913 0.932 . S
H972 C915 0.930 . S
H973 C939 0.929 . S
H974 C940 0.932 . S
H975 C941 0.931 . S
H976 C950 0.931 . S
H977 C952 0.929 . S
H978 C954 0.932 . S
Cd979 O1036 2.350 . S
Cd979 O1037 2.277 . S
Cd979 O1044 2.173 . S
Cd979 O1046 2.263 . S
Cd979 O1048 2.366 . S
Cd979 O1051 2.329 . S
C980 O1044 1.277 . S
C980 O1045 1.230 . S
C981 O982 1.246 . S
C981 C984 1.481 . S
C981 N1006 1.329 . S
O982 C981 1.246 . S
Cd983 O1045 2.250 . S
Cd983 O1047 2.308 . S
Cd983 O1050 2.352 . S
C984 C981 1.481 . S
C984 N987 1.327 . S
C984 C988 1.407 . S
C985 C986 1.346 . S
C985 C989 1.390 . S
C985 H1053 0.930 . S
C986 C985 1.346 . S
C986 N987 1.342 . S
C986 C991 1.516 . S
N987 C984 1.327 . S
N987 C986 1.342 . S
N987 Co990 1.864 . S
C988 C984 1.407 . S
C988 C989 1.364 . S
C988 H1054 0.930 . S
C989 C985 1.390 . S
C989 C988 1.364 . S
C989 H1055 0.931 . S
Co990 N987 1.864 . S
Co990 N1006 1.955 . S
Co990 N1007 1.958 . S
Co990 N1008 1.953 . S
Co990 N1026 1.869 . S
Co990 N1032 1.974 . S
C991 C986 1.516 . S
C991 O992 1.238 . S
C991 N1007 1.324 . S
O992 C991 1.238 . S
C993 C994 1.394 . S
C993 C998 1.395 . S
C993 N1007 1.427 . S
C994 C993 1.394 . S
C994 C995 1.380 . S
C994 H1056 0.929 . S
C995 C994 1.380 . S
C995 C996 1.384 . S
C995 C999 1.495 1_545 S
C996 C995 1.384 . S
C996 C997 1.382 . S
C996 H1057 0.930 . S
C997 C996 1.382 . S
C997 C998 1.398 . S
C998 C993 1.395 . S
C998 C997 1.398 . S
C998 H1058 0.930 . S
C999 C995 1.495 1_565 S
C999 O1046 1.258 . S
C999 O1047 1.274 . S
C1000 C1001 1.385 . S
C1000 C1002 1.381 . S
C1000 N1006 1.432 . S
C1001 C1000 1.385 . S
C1001 C1005 1.388 . S
C1001 H1059 0.929 . S
C1002 C1000 1.381 . S
C1002 C1003 1.371 . S
C1002 H1060 0.932 . S
C1003 C1002 1.371 . S
C1003 C1004 1.400 . S
C1004 C1003 1.400 . S
C1004 C1005 1.351 . S
C1004 H1061 0.930 . S
C1005 C1001 1.388 . S
C1005 C1004 1.351 . S
N1006 C981 1.329 . S
N1006 Co990 1.955 . S
N1006 C1000 1.432 . S
N1007 Co990 1.958 . S
N1007 C991 1.324 . S
N1007 C993 1.427 . S
N1008 Co990 1.953 . S
N1008 C1009 1.436 . S
N1008 C1035 1.316 . S
C1009 N1008 1.436 . S
C1009 C1010 1.421 . S
C1009 C1011 1.360 . S
C1010 C1009 1.421 . S
C1010 C1012 1.379 . S
C1010 H1013 0.929 . S
C1011 C1009 1.360 . S
C1011 C1015 1.393 . S
C1011 H1017 0.931 . S
C1012 C1010 1.379 . S
C1012 C1014 1.417 . S
C1012 C1016 1.505 . S
H1013 C1010 0.929 . S
C1014 C1012 1.417 . S
C1014 C1015 1.352 . S
C1014 H1018 0.929 . S
C1015 C1011 1.393 . S
C1015 C1014 1.352 . S
C1015 C1019 1.482 . S
C1016 C1012 1.505 . S
C1016 O1020 1.259 . S
C1016 O1021 1.229 . S
H1017 C1011 0.931 . S
H1018 C1014 0.929 . S
C1019 C1015 1.482 . S
C1019 O1022 1.207 . S
C1019 O1023 1.289 . S
O1020 C1016 1.259 . S
O1020 H1024 0.822 . S
O1021 C1016 1.229 . S
O1022 C1019 1.207 . S
O1023 C1019 1.289 . S
O1023 H1025 0.819 . S
H1024 O1020 0.822 . S
H1025 O1023 0.819 . S
N1026 Co990 1.869 . S
N1026 C1027 1.330 . S
N1026 C1031 1.325 . S
C1027 N1026 1.330 . S
C1027 C1028 1.359 . S
C1027 C1033 1.504 . S
C1028 C1027 1.359 . S
C1028 C1029 1.366 . S
C1028 H1062 0.929 . S
C1029 C1028 1.366 . S
C1029 C1030 1.415 . S
C1029 H1063 0.932 . S
C1030 C1029 1.415 . S
C1030 C1031 1.366 . S
C1030 H1064 0.931 1_545 S
C1031 N1026 1.325 . S
C1031 C1030 1.366 . S
C1031 C1035 1.516 . S
N1032 Co990 1.974 . S
N1032 C1033 1.309 . S
N1032 C1038 1.423 . S
C1033 C1027 1.504 . S
C1033 N1032 1.309 . S
C1033 O1034 1.258 . S
O1034 C1033 1.258 . S
C1035 N1008 1.316 . S
C1035 C1031 1.516 . S
C1035 O1048 1.263 1_545 S
O1036 Cd979 2.350 . S
O1036 C1052 1.270 . S
O1037 Cd979 2.277 . S
O1037 C1052 1.248 . S
C1038 N1032 1.423 . S
C1038 C1039 1.370 . S
C1038 C1043 1.403 . S
C1039 C1038 1.370 . S
C1039 C1040 1.389 . S
C1039 H1065 0.931 . S
C1040 C1039 1.389 . S
C1040 C1041 1.389 . S
C1041 C1040 1.389 . S
C1041 C1042 1.379 . S
C1041 H1066 0.929 . S
C1042 C1041 1.379 . S
C1042 C1043 1.405 . S
C1043 C1038 1.403 . S
C1043 C1042 1.405 . S
C1043 H1067 0.932 . S
O1044 Cd979 2.173 . S
O1044 C980 1.277 . S
O1045 C980 1.230 . S
O1045 Cd983 2.250 . S
O1046 Cd979 2.263 . S
O1046 C999 1.258 . S
O1047 Cd983 2.308 . S
O1047 C999 1.274 . S
O1048 Cd979 2.366 . S
O1048 C1035 1.263 1_565 S
C1049 O1050 1.235 . S
C1049 O1051 1.270 . S
O1050 Cd983 2.352 . S
O1050 C1049 1.235 . S
O1051 Cd979 2.329 . S
O1051 C1049 1.270 . S
C1052 O1036 1.270 . S
C1052 O1037 1.248 . S
H1053 C985 0.930 . S
H1054 C988 0.930 . S
H1055 C989 0.931 . S
H1056 C994 0.929 . S
H1057 C996 0.930 . S
H1058 C998 0.930 . S
H1059 C1001 0.929 . S
H1060 C1002 0.932 . S
H1061 C1004 0.930 . S
H1062 C1028 0.929 . S
H1063 C1029 0.932 . S
H1064 C1030 0.931 1_565 S
H1065 C1039 0.931 . S
H1066 C1041 0.929 . S
H1067 C1043 0.932 . S
Cd1068 O1125 2.350 . S
Cd1068 O1126 2.277 . S
Cd1068 O1133 2.173 . S
Cd1068 O1135 2.263 . S
Cd1068 O1137 2.366 . S
Cd1068 O1140 2.329 . S
C1069 O1133 1.277 . S
C1069 O1134 1.230 . S
C1070 O1071 1.246 . S
C1070 C1073 1.481 . S
C1070 N1095 1.329 . S
O1071 C1070 1.246 . S
Cd1072 O1134 2.250 . S
Cd1072 O1136 2.308 . S
Cd1072 O1139 2.352 . S
C1073 C1070 1.481 . S
C1073 N1076 1.327 . S
C1073 C1077 1.407 . S
C1074 C1075 1.346 . S
C1074 C1078 1.390 . S
C1074 H1142 0.930 . S
C1075 C1074 1.346 . S
C1075 N1076 1.342 . S
C1075 C1080 1.516 . S
N1076 C1073 1.327 . S
N1076 C1075 1.342 . S
N1076 Co1079 1.864 . S
C1077 C1073 1.407 . S
C1077 C1078 1.364 . S
C1077 H1143 0.930 . S
C1078 C1074 1.390 . S
C1078 C1077 1.364 . S
C1078 H1144 0.931 . S
Co1079 N1076 1.864 . S
Co1079 N1095 1.955 . S
Co1079 N1096 1.958 . S
Co1079 N1097 1.953 . S
Co1079 N1115 1.869 . S
Co1079 N1121 1.974 . S
C1080 C1075 1.516 . S
C1080 O1081 1.238 . S
C1080 N1096 1.324 . S
O1081 C1080 1.238 . S
C1082 C1083 1.394 . S
C1082 C1087 1.395 . S
C1082 N1096 1.427 . S
C1083 C1082 1.394 . S
C1083 C1084 1.380 . S
C1083 H1145 0.929 . S
C1084 C1083 1.380 . S
C1084 C1085 1.384 . S
C1084 C1088 1.495 . S
C1085 C1084 1.384 . S
C1085 C1086 1.382 . S
C1085 H1146 0.930 . S
C1086 C1085 1.382 . S
C1086 C1087 1.398 . S
C1087 C1082 1.395 . S
C1087 C1086 1.398 . S
C1087 H1147 0.930 . S
C1088 C1084 1.495 . S
C1088 O1135 1.258 . S
C1088 O1136 1.274 . S
C1089 C1090 1.385 . S
C1089 C1091 1.381 . S
C1089 N1095 1.432 . S
C1090 C1089 1.385 . S
C1090 C1094 1.388 . S
C1090 H1148 0.929 . S
C1091 C1089 1.381 . S
C1091 C1092 1.371 . S
C1091 H1149 0.932 . S
C1092 C1091 1.371 . S
C1092 C1093 1.400 . S
C1093 C1092 1.400 . S
C1093 C1094 1.351 . S
C1093 H1150 0.930 . S
C1094 C1090 1.388 . S
C1094 C1093 1.351 . S
N1095 C1070 1.329 . S
N1095 Co1079 1.955 . S
N1095 C1089 1.432 . S
N1096 Co1079 1.958 . S
N1096 C1080 1.324 . S
N1096 C1082 1.427 . S
N1097 Co1079 1.953 . S
N1097 C1098 1.436 . S
N1097 C1124 1.316 . S
C1098 N1097 1.436 . S
C1098 C1099 1.421 . S
C1098 C1100 1.360 . S
C1099 C1098 1.421 . S
C1099 C1101 1.379 . S
C1099 H1102 0.929 . S
C1100 C1098 1.360 . S
C1100 C1104 1.393 . S
C1100 H1106 0.931 . S
C1101 C1099 1.379 . S
C1101 C1103 1.417 . S
C1101 C1105 1.505 . S
H1102 C1099 0.929 . S
C1103 C1101 1.417 . S
C1103 C1104 1.352 . S
C1103 H1107 0.929 . S
C1104 C1100 1.393 . S
C1104 C1103 1.352 . S
C1104 C1108 1.482 . S
C1105 C1101 1.505 . S
C1105 O1109 1.259 . S
C1105 O1110 1.229 . S
H1106 C1100 0.931 . S
H1107 C1103 0.929 . S
C1108 C1104 1.482 . S
C1108 O1111 1.207 . S
C1108 O1112 1.289 . S
O1109 C1105 1.259 . S
O1109 H1113 0.822 . S
O1110 C1105 1.229 . S
O1111 C1108 1.207 . S
O1112 C1108 1.289 . S
O1112 H1114 0.819 . S
H1113 O1109 0.822 . S
H1114 O1112 0.819 . S
N1115 Co1079 1.869 . S
N1115 C1116 1.330 . S
N1115 C1120 1.325 . S
C1116 N1115 1.330 . S
C1116 C1117 1.359 . S
C1116 C1122 1.504 . S
C1117 C1116 1.359 . S
C1117 C1118 1.366 . S
C1117 H1151 0.929 . S
C1118 C1117 1.366 . S
C1118 C1119 1.415 . S
C1118 H1152 0.932 . S
C1119 C1118 1.415 . S
C1119 C1120 1.366 . S
C1119 H1153 0.931 . S
C1120 N1115 1.325 . S
C1120 C1119 1.366 . S
C1120 C1124 1.516 . S
N1121 Co1079 1.974 . S
N1121 C1122 1.309 . S
N1121 C1127 1.423 . S
C1122 C1116 1.504 . S
C1122 N1121 1.309 . S
C1122 O1123 1.258 . S
O1123 C1122 1.258 . S
C1124 N1097 1.316 . S
C1124 C1120 1.516 . S
C1124 O1137 1.263 . S
O1125 Cd1068 2.350 . S
O1125 C1141 1.270 . S
O1126 Cd1068 2.277 . S
O1126 C1141 1.248 . S
C1127 N1121 1.423 . S
C1127 C1128 1.370 . S
C1127 C1132 1.403 . S
C1128 C1127 1.370 . S
C1128 C1129 1.389 . S
C1128 H1154 0.931 . S
C1129 C1128 1.389 . S
C1129 C1130 1.389 . S
C1130 C1129 1.389 . S
C1130 C1131 1.379 . S
C1130 H1155 0.929 . S
C1131 C1130 1.379 . S
C1131 C1132 1.405 . S
C1132 C1127 1.403 . S
C1132 C1131 1.405 . S
C1132 H1156 0.932 . S
O1133 Cd1068 2.173 . S
O1133 C1069 1.277 . S
O1134 C1069 1.230 . S
O1134 Cd1072 2.250 . S
O1135 Cd1068 2.263 . S
O1135 C1088 1.258 . S
O1136 Cd1072 2.308 . S
O1136 C1088 1.274 . S
O1137 Cd1068 2.366 . S
O1137 C1124 1.263 . S
C1138 O1139 1.235 . S
C1138 O1140 1.270 . S
O1139 Cd1072 2.352 . S
O1139 C1138 1.235 . S
O1140 Cd1068 2.329 . S
O1140 C1138 1.270 . S
C1141 O1125 1.270 . S
C1141 O1126 1.248 . S
H1142 C1074 0.930 . S
H1143 C1077 0.930 . S
H1144 C1078 0.931 . S
H1145 C1083 0.929 . S
H1146 C1085 0.930 . S
H1147 C1087 0.930 . S
H1148 C1090 0.929 . S
H1149 C1091 0.932 . S
H1150 C1093 0.930 . S
H1151 C1117 0.929 . S
H1152 C1118 0.932 . S
H1153 C1119 0.931 . S
H1154 C1128 0.931 . S
H1155 C1130 0.929 . S
H1156 C1132 0.932 . S
Cd1157 O1214 2.350 . S
Cd1157 O1215 2.277 . S
Cd1157 O1222 2.173 . S
Cd1157 O1224 2.263 . S
Cd1157 O1226 2.366 . S
Cd1157 O1229 2.329 . S
C1158 O1222 1.277 . S
C1158 O1223 1.230 . S
C1159 O1160 1.246 . S
C1159 C1162 1.481 . S
C1159 N1184 1.329 . S
O1160 C1159 1.246 . S
Cd1161 O1223 2.250 . S
Cd1161 O1225 2.308 . S
Cd1161 O1228 2.352 . S
C1162 C1159 1.481 . S
C1162 N1165 1.327 . S
C1162 C1166 1.407 . S
C1163 C1164 1.346 . S
C1163 C1167 1.390 . S
C1163 H1231 0.930 . S
C1164 C1163 1.346 . S
C1164 N1165 1.342 . S
C1164 C1169 1.516 . S
N1165 C1162 1.327 . S
N1165 C1164 1.342 . S
N1165 Co1168 1.864 . S
C1166 C1162 1.407 . S
C1166 C1167 1.364 . S
C1166 H1232 0.930 . S
C1167 C1163 1.390 . S
C1167 C1166 1.364 . S
C1167 H1233 0.931 . S
Co1168 N1165 1.864 . S
Co1168 N1184 1.955 . S
Co1168 N1185 1.958 . S
Co1168 N1186 1.953 . S
Co1168 N1204 1.869 . S
Co1168 N1210 1.974 . S
C1169 C1164 1.516 . S
C1169 O1170 1.238 . S
C1169 N1185 1.324 . S
O1170 C1169 1.238 . S
C1171 C1172 1.394 . S
C1171 C1176 1.395 . S
C1171 N1185 1.427 . S
C1172 C1171 1.394 . S
C1172 C1173 1.380 . S
C1172 H1234 0.929 . S
C1173 C1172 1.380 . S
C1173 C1174 1.384 . S
C1173 C1177 1.495 . S
C1174 C1173 1.384 . S
C1174 C1175 1.382 . S
C1174 H1235 0.930 . S
C1175 C1174 1.382 . S
C1175 C1176 1.398 . S
C1176 C1171 1.395 . S
C1176 C1175 1.398 . S
C1176 H1236 0.930 . S
C1177 C1173 1.495 . S
C1177 O1224 1.258 . S
C1177 O1225 1.274 . S
C1178 C1179 1.385 . S
C1178 C1180 1.381 . S
C1178 N1184 1.432 . S
C1179 C1178 1.385 . S
C1179 C1183 1.388 . S
C1179 H1237 0.929 . S
C1180 C1178 1.381 . S
C1180 C1181 1.371 . S
C1180 H1238 0.932 . S
C1181 C1180 1.371 . S
C1181 C1182 1.400 . S
C1182 C1181 1.400 . S
C1182 C1183 1.351 . S
C1182 H1239 0.930 1_565 S
C1183 C1179 1.388 . S
C1183 C1182 1.351 . S
N1184 C1159 1.329 . S
N1184 Co1168 1.955 . S
N1184 C1178 1.432 . S
N1185 Co1168 1.958 . S
N1185 C1169 1.324 . S
N1185 C1171 1.427 . S
N1186 Co1168 1.953 . S
N1186 C1187 1.436 . S
N1186 C1213 1.316 . S
C1187 N1186 1.436 . S
C1187 C1188 1.421 . S
C1187 C1189 1.360 . S
C1188 C1187 1.421 . S
C1188 C1190 1.379 . S
C1188 H1191 0.929 . S
C1189 C1187 1.360 . S
C1189 C1193 1.393 . S
C1189 H1195 0.931 . S
C1190 C1188 1.379 . S
C1190 C1192 1.417 . S
C1190 C1194 1.505 . S
H1191 C1188 0.929 . S
C1192 C1190 1.417 . S
C1192 C1193 1.352 . S
C1192 H1196 0.929 . S
C1193 C1189 1.393 . S
C1193 C1192 1.352 . S
C1193 C1197 1.482 . S
C1194 C1190 1.505 . S
C1194 O1198 1.259 . S
C1194 O1199 1.229 . S
H1195 C1189 0.931 . S
H1196 C1192 0.929 . S
C1197 C1193 1.482 . S
C1197 O1200 1.207 . S
C1197 O1201 1.289 . S
O1198 C1194 1.259 . S
O1198 H1202 0.822 . S
O1199 C1194 1.229 . S
O1200 C1197 1.207 . S
O1201 C1197 1.289 . S
O1201 H1203 0.819 . S
H1202 O1198 0.822 . S
H1203 O1201 0.819 . S
N1204 Co1168 1.869 . S
N1204 C1205 1.330 . S
N1204 C1209 1.325 . S
C1205 N1204 1.330 . S
C1205 C1206 1.359 . S
C1205 C1211 1.504 . S
C1206 C1205 1.359 . S
C1206 C1207 1.366 . S
C1206 H1240 0.929 . S
C1207 C1206 1.366 . S
C1207 C1208 1.415 . S
C1207 H1241 0.932 . S
C1208 C1207 1.415 . S
C1208 C1209 1.366 . S
C1208 H1242 0.931 . S
C1209 N1204 1.325 . S
C1209 C1208 1.366 . S
C1209 C1213 1.516 . S
N1210 Co1168 1.974 . S
N1210 C1211 1.309 . S
N1210 C1216 1.423 . S
C1211 C1205 1.504 . S
C1211 N1210 1.309 . S
C1211 O1212 1.258 . S
O1212 C1211 1.258 . S
C1213 N1186 1.316 . S
C1213 C1209 1.516 . S
C1213 O1226 1.263 . S
O1214 Cd1157 2.350 . S
O1214 C1230 1.270 . S
O1215 Cd1157 2.277 . S
O1215 C1230 1.248 . S
C1216 N1210 1.423 . S
C1216 C1217 1.370 . S
C1216 C1221 1.403 . S
C1217 C1216 1.370 . S
C1217 C1218 1.389 . S
C1217 H1243 0.931 . S
C1218 C1217 1.389 . S
C1218 C1219 1.389 . S
C1219 C1218 1.389 . S
C1219 C1220 1.379 . S
C1219 H1244 0.929 . S
C1220 C1219 1.379 . S
C1220 C1221 1.405 . S
C1221 C1216 1.403 . S
C1221 C1220 1.405 . S
C1221 H1245 0.932 . S
O1222 Cd1157 2.173 . S
O1222 C1158 1.277 . S
O1223 C1158 1.230 . S
O1223 Cd1161 2.250 . S
O1224 Cd1157 2.263 . S
O1224 C1177 1.258 . S
O1225 Cd1161 2.308 . S
O1225 C1177 1.274 . S
O1226 Cd1157 2.366 . S
O1226 C1213 1.263 . S
C1227 O1228 1.235 . S
C1227 O1229 1.270 . S
O1228 Cd1161 2.352 . S
O1228 C1227 1.235 . S
O1229 Cd1157 2.329 . S
O1229 C1227 1.270 . S
C1230 O1214 1.270 . S
C1230 O1215 1.248 . S
H1231 C1163 0.930 . S
H1232 C1166 0.930 . S
H1233 C1167 0.931 . S
H1234 C1172 0.929 . S
H1235 C1174 0.930 . S
H1236 C1176 0.930 . S
H1237 C1179 0.929 . S
H1238 C1180 0.932 . S
H1239 C1182 0.930 1_545 S
H1240 C1206 0.929 . S
H1241 C1207 0.932 . S
H1242 C1208 0.931 . S
H1243 C1217 0.931 . S
H1244 C1219 0.929 . S
H1245 C1221 0.932 . S
Cd1246 O1303 2.350 . S
Cd1246 O1304 2.277 . S
Cd1246 O1311 2.173 . S
Cd1246 O1313 2.263 . S
Cd1246 O1315 2.366 . S
Cd1246 O1318 2.329 . S
C1247 O1311 1.277 . S
C1247 O1312 1.230 . S
C1248 O1249 1.246 . S
C1248 C1251 1.481 . S
C1248 N1273 1.329 . S
O1249 C1248 1.246 . S
Cd1250 O1312 2.250 . S
Cd1250 O1314 2.308 . S
Cd1250 O1317 2.352 . S
C1251 C1248 1.481 . S
C1251 N1254 1.327 . S
C1251 C1255 1.407 . S
C1252 C1253 1.346 . S
C1252 C1256 1.390 . S
C1252 H1320 0.930 . S
C1253 C1252 1.346 . S
C1253 N1254 1.342 . S
C1253 C1258 1.516 . S
N1254 C1251 1.327 . S
N1254 C1253 1.342 . S
N1254 Co1257 1.864 . S
C1255 C1251 1.407 . S
C1255 C1256 1.364 . S
C1255 H1321 0.930 . S
C1256 C1252 1.390 . S
C1256 C1255 1.364 . S
C1256 H1322 0.931 . S
Co1257 N1254 1.864 . S
Co1257 N1273 1.955 . S
Co1257 N1274 1.958 . S
Co1257 N1275 1.953 . S
Co1257 N1293 1.869 . S
Co1257 N1299 1.974 . S
C1258 C1253 1.516 . S
C1258 O1259 1.238 1_565 S
C1258 N1274 1.324 . S
O1259 C1258 1.238 1_545 S
C1260 C1261 1.394 1_565 S
C1260 C1265 1.395 . S
C1260 N1274 1.427 . S
C1261 C1260 1.394 1_545 S
C1261 C1262 1.380 . S
C1261 H1323 0.929 . S
C1262 C1261 1.380 . S
C1262 C1263 1.384 . S
C1262 C1266 1.495 . S
C1263 C1262 1.384 . S
C1263 C1264 1.382 . S
C1263 H1324 0.930 . S
C1264 C1263 1.382 . S
C1264 C1265 1.398 1_545 S
C1265 C1260 1.395 . S
C1265 C1264 1.398 1_565 S
C1265 H1325 0.930 . S
C1266 C1262 1.495 . S
C1266 O1313 1.258 . S
C1266 O1314 1.274 . S
C1267 C1268 1.385 . S
C1267 C1269 1.381 . S
C1267 N1273 1.432 . S
C1268 C1267 1.385 . S
C1268 C1272 1.388 . S
C1268 H1326 0.929 . S
C1269 C1267 1.381 . S
C1269 C1270 1.371 . S
C1269 H1327 0.932 . S
C1270 C1269 1.371 . S
C1270 C1271 1.400 . S
C1271 C1270 1.400 . S
C1271 C1272 1.351 . S
C1271 H1328 0.930 . S
C1272 C1268 1.388 . S
C1272 C1271 1.351 . S
N1273 C1248 1.329 . S
N1273 Co1257 1.955 . S
N1273 C1267 1.432 . S
N1274 Co1257 1.958 . S
N1274 C1258 1.324 . S
N1274 C1260 1.427 . S
N1275 Co1257 1.953 . S
N1275 C1276 1.436 1_565 S
N1275 C1302 1.316 . S
C1276 N1275 1.436 1_545 S
C1276 C1277 1.421 1_545 S
C1276 C1278 1.360 . S
C1277 C1276 1.421 1_565 S
C1277 C1279 1.379 1_565 S
C1277 H1280 0.929 . S
C1278 C1276 1.360 . S
C1278 C1282 1.393 . S
C1278 H1284 0.931 . S
C1279 C1277 1.379 1_545 S
C1279 C1281 1.417 . S
C1279 C1283 1.505 . S
H1280 C1277 0.929 . S
C1281 C1279 1.417 . S
C1281 C1282 1.352 . S
C1281 H1285 0.929 . S
C1282 C1278 1.393 . S
C1282 C1281 1.352 . S
C1282 C1286 1.482 . S
C1283 C1279 1.505 . S
C1283 O1287 1.259 . S
C1283 O1288 1.229 1_545 S
H1284 C1278 0.931 . S
H1285 C1281 0.929 . S
C1286 C1282 1.482 . S
C1286 O1289 1.207 . S
C1286 O1290 1.289 . S
O1287 C1283 1.259 . S
O1287 H1291 0.822 . S
O1288 C1283 1.229 1_565 S
O1289 C1286 1.207 . S
O1290 C1286 1.289 . S
O1290 H1292 0.819 . S
H1291 O1287 0.822 . S
H1292 O1290 0.819 . S
N1293 Co1257 1.869 . S
N1293 C1294 1.330 . S
N1293 C1298 1.325 . S
C1294 N1293 1.330 . S
C1294 C1295 1.359 . S
C1294 C1300 1.504 . S
C1295 C1294 1.359 . S
C1295 C1296 1.366 . S
C1295 H1329 0.929 . S
C1296 C1295 1.366 . S
C1296 C1297 1.415 . S
C1296 H1330 0.932 . S
C1297 C1296 1.415 . S
C1297 C1298 1.366 . S
C1297 H1331 0.931 . S
C1298 N1293 1.325 . S
C1298 C1297 1.366 . S
C1298 C1302 1.516 . S
N1299 Co1257 1.974 . S
N1299 C1300 1.309 . S
N1299 C1305 1.423 . S
C1300 C1294 1.504 . S
C1300 N1299 1.309 . S
C1300 O1301 1.258 . S
O1301 C1300 1.258 . S
C1302 N1275 1.316 . S
C1302 C1298 1.516 . S
C1302 O1315 1.263 1_565 S
O1303 Cd1246 2.350 . S
O1303 C1319 1.270 . S
O1304 Cd1246 2.277 . S
O1304 C1319 1.248 . S
C1305 N1299 1.423 . S
C1305 C1306 1.370 . S
C1305 C1310 1.403 . S
C1306 C1305 1.370 . S
C1306 C1307 1.389 . S
C1306 H1332 0.931 . S
C1307 C1306 1.389 . S
C1307 C1308 1.389 . S
C1308 C1307 1.389 . S
C1308 C1309 1.379 . S
C1308 H1333 0.929 . S
C1309 C1308 1.379 . S
C1309 C1310 1.405 . S
C1310 C1305 1.403 . S
C1310 C1309 1.405 . S
C1310 H1334 0.932 . S
O1311 Cd1246 2.173 . S
O1311 C1247 1.277 . S
O1312 C1247 1.230 . S
O1312 Cd1250 2.250 . S
O1313 Cd1246 2.263 . S
O1313 C1266 1.258 . S
O1314 Cd1250 2.308 . S
O1314 C1266 1.274 . S
O1315 Cd1246 2.366 . S
O1315 C1302 1.263 1_545 S
C1316 O1317 1.235 . S
C1316 O1318 1.270 . S
O1317 Cd1250 2.352 . S
O1317 C1316 1.235 . S
O1318 Cd1246 2.329 . S
O1318 C1316 1.270 . S
C1319 O1303 1.270 . S
C1319 O1304 1.248 . S
H1320 C1252 0.930 . S
H1321 C1255 0.930 . S
H1322 C1256 0.931 . S
H1323 C1261 0.929 . S
H1324 C1263 0.930 . S
H1325 C1265 0.930 . S
H1326 C1268 0.929 . S
H1327 C1269 0.932 . S
H1328 C1271 0.930 . S
H1329 C1295 0.929 . S
H1330 C1296 0.932 . S
H1331 C1297 0.931 . S
H1332 C1306 0.931 . S
H1333 C1308 0.929 . S
H1334 C1310 0.932 . S
Cd1335 O1392 2.350 . S
Cd1335 O1393 2.277 . S
Cd1335 O1400 2.173 . S
Cd1335 O1402 2.263 . S
Cd1335 O1404 2.366 . S
Cd1335 O1407 2.329 . S
C1336 O1400 1.277 . S
C1336 O1401 1.230 . S
C1337 O1338 1.246 . S
C1337 C1340 1.481 . S
C1337 N1362 1.329 . S
O1338 C1337 1.246 . S
Cd1339 O1401 2.250 . S
Cd1339 O1403 2.308 . S
Cd1339 O1406 2.352 . S
C1340 C1337 1.481 . S
C1340 N1343 1.327 . S
C1340 C1344 1.407 . S
C1341 C1342 1.346 . S
C1341 C1345 1.390 . S
C1341 H1409 0.930 . S
C1342 C1341 1.346 . S
C1342 N1343 1.342 . S
C1342 C1347 1.516 . S
N1343 C1340 1.327 . S
N1343 C1342 1.342 . S
N1343 Co1346 1.864 . S
C1344 C1340 1.407 . S
C1344 C1345 1.364 . S
C1344 H1410 0.930 . S
C1345 C1341 1.390 . S
C1345 C1344 1.364 . S
C1345 H1411 0.931 . S
Co1346 N1343 1.864 . S
Co1346 N1362 1.955 . S
Co1346 N1363 1.958 . S
Co1346 N1364 1.953 . S
Co1346 N1382 1.869 . S
Co1346 N1388 1.974 . S
C1347 C1342 1.516 . S
C1347 O1348 1.238 . S
C1347 N1363 1.324 . S
O1348 C1347 1.238 . S
C1349 C1350 1.394 . S
C1349 C1354 1.395 . S
C1349 N1363 1.427 . S
C1350 C1349 1.394 . S
C1350 C1351 1.380 . S
C1350 H1412 0.929 . S
C1351 C1350 1.380 . S
C1351 C1352 1.384 . S
C1351 C1355 1.495 . S
C1352 C1351 1.384 . S
C1352 C1353 1.382 . S
C1352 H1413 0.930 . S
C1353 C1352 1.382 . S
C1353 C1354 1.398 . S
C1354 C1349 1.395 . S
C1354 C1353 1.398 . S
C1354 H1414 0.930 . S
C1355 C1351 1.495 . S
C1355 O1402 1.258 . S
C1355 O1403 1.274 . S
C1356 C1357 1.385 . S
C1356 C1358 1.381 . S
C1356 N1362 1.432 . S
C1357 C1356 1.385 . S
C1357 C1361 1.388 . S
C1357 H1415 0.929 . S
C1358 C1356 1.381 . S
C1358 C1359 1.371 . S
C1358 H1416 0.932 . S
C1359 C1358 1.371 . S
C1359 C1360 1.400 . S
C1360 C1359 1.400 . S
C1360 C1361 1.351 . S
C1360 H1417 0.939 . S
C1361 C1357 1.388 . S
C1361 C1360 1.351 . S
N1362 C1337 1.329 . S
N1362 Co1346 1.955 . S
N1362 C1356 1.432 . S
N1363 Co1346 1.958 . S
N1363 C1347 1.324 . S
N1363 C1349 1.427 . S
N1364 Co1346 1.953 . S
N1364 C1365 1.436 . S
N1364 C1391 1.316 . S
C1365 N1364 1.436 . S
C1365 C1366 1.421 . S
C1365 C1367 1.360 . S
C1366 C1365 1.421 . S
C1366 C1368 1.379 . S
C1366 H1369 0.929 . S
C1367 C1365 1.360 . S
C1367 C1371 1.393 . S
C1367 H1373 0.931 . S
C1368 C1366 1.379 . S
C1368 C1370 1.417 . S
C1368 C1372 1.505 . S
H1369 C1366 0.929 . S
C1370 C1368 1.417 . S
C1370 C1371 1.352 . S
C1370 H1374 0.929 . S
C1371 C1367 1.393 . S
C1371 C1370 1.352 . S
C1371 C1375 1.482 . S
C1372 C1368 1.505 . S
C1372 O1376 1.259 . S
C1372 O1377 1.229 . S
H1373 C1367 0.931 . S
H1374 C1370 0.929 . S
C1375 C1371 1.482 . S
C1375 O1378 1.207 . S
C1375 O1379 1.289 . S
O1376 C1372 1.259 . S
O1376 H1380 0.822 . S
O1377 C1372 1.229 . S
O1378 C1375 1.207 . S
O1379 C1375 1.289 . S
O1379 H1381 0.819 . S
H1380 O1376 0.822 . S
H1381 O1379 0.819 . S
N1382 Co1346 1.869 . S
N1382 C1383 1.330 . S
N1382 C1387 1.325 . S
C1383 N1382 1.330 . S
C1383 C1384 1.359 . S
C1383 C1389 1.504 . S
C1384 C1383 1.359 . S
C1384 C1385 1.366 . S
C1384 H1418 0.929 . S
C1385 C1384 1.366 . S
C1385 C1386 1.415 . S
C1385 H1419 0.932 . S
C1386 C1385 1.415 . S
C1386 C1387 1.366 . S
C1386 H1420 0.931 . S
C1387 N1382 1.325 . S
C1387 C1386 1.366 . S
C1387 C1391 1.516 . S
N1388 Co1346 1.974 . S
N1388 C1389 1.309 . S
N1388 C1394 1.423 . S
C1389 C1383 1.504 . S
C1389 N1388 1.309 . S
C1389 O1390 1.258 . S
O1390 C1389 1.258 . S
C1391 N1364 1.316 . S
C1391 C1387 1.516 . S
C1391 O1404 1.263 . S
O1392 Cd1335 2.350 . S
O1392 C1408 1.270 . S
O1393 Cd1335 2.277 . S
O1393 C1408 1.248 . S
C1394 N1388 1.423 . S
C1394 C1395 1.370 . S
C1394 C1399 1.403 . S
C1395 C1394 1.370 . S
C1395 C1396 1.389 . S
C1395 H1421 0.931 . S
C1396 C1395 1.389 . S
C1396 C1397 1.389 . S
C1397 C1396 1.389 . S
C1397 C1398 1.379 1_565 S
C1397 H1422 0.929 1_565 S
C1398 C1397 1.379 1_545 S
C1398 C1399 1.405 1_545 S
C1399 C1394 1.403 . S
C1399 C1398 1.405 1_565 S
C1399 H1423 0.932 1_565 S
O1400 Cd1335 2.173 . S
O1400 C1336 1.277 . S
O1401 C1336 1.230 . S
O1401 Cd1339 2.250 . S
O1402 Cd1335 2.263 . S
O1402 C1355 1.258 . S
O1403 Cd1339 2.308 . S
O1403 C1355 1.274 . S
O1404 Cd1335 2.366 . S
O1404 C1391 1.263 . S
C1405 O1406 1.235 . S
C1405 O1407 1.270 . S
O1406 Cd1339 2.352 . S
O1406 C1405 1.235 . S
O1407 Cd1335 2.329 . S
O1407 C1405 1.270 . S
C1408 O1392 1.270 . S
C1408 O1393 1.248 . S
H1409 C1341 0.930 . S
H1410 C1344 0.930 . S
H1411 C1345 0.931 . S
H1412 C1350 0.929 . S
H1413 C1352 0.930 . S
H1414 C1354 0.930 . S
H1415 C1357 0.929 . S
H1416 C1358 0.932 . S
H1417 C1360 0.939 . S
H1418 C1384 0.929 . S
H1419 C1385 0.932 . S
H1420 C1386 0.931 . S
H1421 C1395 0.931 . S
H1422 C1397 0.929 1_545 S
H1423 C1399 0.932 1_545 S
Cd1424 O1481 2.350 . S
Cd1424 O1482 2.277 . S
Cd1424 O1489 2.173 . S
Cd1424 O1491 2.263 . S
Cd1424 O1493 2.366 . S
Cd1424 O1496 2.329 . S
C1425 O1489 1.277 . S
C1425 O1490 1.230 . S
C1426 O1427 1.246 . S
C1426 C1429 1.481 1_565 S
C1426 N1451 1.329 . S
O1427 C1426 1.246 . S
Cd1428 O1490 2.250 . S
Cd1428 O1492 2.308 . S
Cd1428 O1495 2.352 . S
C1429 C1426 1.481 1_545 S
C1429 N1432 1.327 . S
C1429 C1433 1.407 . S
C1430 C1431 1.346 . S
C1430 C1434 1.390 . S
C1430 H1498 0.930 . S
C1431 C1430 1.346 . S
C1431 N1432 1.342 . S
C1431 C1436 1.516 . S
N1432 C1429 1.327 . S
N1432 C1431 1.342 . S
N1432 Co1435 1.864 1_545 S
C1433 C1429 1.407 . S
C1433 C1434 1.364 . S
C1433 H1499 0.930 . S
C1434 C1430 1.390 . S
C1434 C1433 1.364 . S
C1434 H1500 0.931 . S
Co1435 N1432 1.864 1_565 S
Co1435 N1451 1.955 . S
Co1435 N1452 1.958 1_565 S
Co1435 N1453 1.953 . S
Co1435 N1471 1.869 . S
Co1435 N1477 1.974 . S
C1436 C1431 1.516 . S
C1436 O1437 1.238 . S
C1436 N1452 1.324 . S
O1437 C1436 1.238 . S
C1438 C1439 1.394 . S
C1438 C1443 1.395 . S
C1438 N1452 1.427 . S
C1439 C1438 1.394 . S
C1439 C1440 1.380 1_545 S
C1439 H1501 0.929 1_545 S
C1440 C1439 1.380 1_565 S
C1440 C1441 1.384 . S
C1440 C1444 1.495 . S
C1441 C1440 1.384 . S
C1441 C1442 1.382 1_565 S
C1441 H1502 0.930 . S
C1442 C1441 1.382 1_545 S
C1442 C1443 1.398 . S
C1443 C1438 1.395 . S
C1443 C1442 1.398 . S
C1443 H1503 0.930 . S
C1444 C1440 1.495 . S
C1444 O1491 1.258 . S
C1444 O1492 1.274 . S
C1445 C1446 1.385 . S
C1445 C1447 1.381 . S
C1445 N1451 1.432 . S
C1446 C1445 1.385 . S
C1446 C1450 1.388 . S
C1446 H1504 0.929 . S
C1447 C1445 1.381 . S
C1447 C1448 1.371 . S
C1447 H1505 0.932 . S
C1448 C1447 1.371 . S
C1448 C1449 1.400 . S
C1449 C1448 1.400 . S
C1449 C1450 1.351 . S
C1449 H1506 0.930 . S
C1450 C1446 1.388 . S
C1450 C1449 1.351 . S
N1451 C1426 1.329 . S
N1451 Co1435 1.955 . S
N1451 C1445 1.432 . S
N1452 Co1435 1.958 1_545 S
N1452 C1436 1.324 . S
N1452 C1438 1.427 . S
N1453 Co1435 1.953 . S
N1453 C1454 1.436 . S
N1453 C1480 1.316 . S
C1454 N1453 1.436 . S
C1454 C1455 1.421 . S
C1454 C1456 1.360 1_565 S
C1455 C1454 1.421 . S
C1455 C1457 1.379 1_565 S
C1455 H1458 0.929 . S
C1456 C1454 1.360 1_545 S
C1456 C1460 1.393 . S
C1456 H1462 0.931 . S
C1457 C1455 1.379 1_545 S
C1457 C1459 1.417 . S
C1457 C1461 1.505 1_545 S
H1458 C1455 0.929 . S
C1459 C1457 1.417 . S
C1459 C1460 1.352 . S
C1459 H1463 0.929 . S
C1460 C1456 1.393 . S
C1460 C1459 1.352 . S
C1460 C1464 1.482 . S
C1461 C1457 1.505 1_565 S
C1461 O1465 1.259 1_565 S
C1461 O1466 1.229 . S
H1462 C1456 0.931 . S
H1463 C1459 0.929 . S
C1464 C1460 1.482 . S
C1464 O1467 1.207 . S
C1464 O1468 1.289 . S
O1465 C1461 1.259 1_545 S
O1465 H1469 0.822 . S
O1466 C1461 1.229 . S
O1467 C1464 1.207 . S
O1468 C1464 1.289 . S
O1468 H1470 0.819 . S
H1469 O1465 0.822 . S
H1470 O1468 0.819 . S
N1471 Co1435 1.869 . S
N1471 C1472 1.330 . S
N1471 C1476 1.325 . S
C1472 N1471 1.330 . S
C1472 C1473 1.359 . S
C1472 C1478 1.504 . S
C1473 C1472 1.359 . S
C1473 C1474 1.366 . S
C1473 H1507 0.929 . S
C1474 C1473 1.366 . S
C1474 C1475 1.415 . S
C1474 H1508 0.932 . S
C1475 C1474 1.415 . S
C1475 C1476 1.366 . S
C1475 H1509 0.931 . S
C1476 N1471 1.325 . S
C1476 C1475 1.366 . S
C1476 C1480 1.516 . S
N1477 Co1435 1.974 . S
N1477 C1478 1.309 . S
N1477 C1483 1.423 . S
C1478 C1472 1.504 . S
C1478 N1477 1.309 . S
C1478 O1479 1.258 . S
O1479 C1478 1.258 . S
C1480 N1453 1.316 . S
C1480 C1476 1.516 . S
C1480 O1493 1.263 . S
O1481 Cd1424 2.350 . S
O1481 C1497 1.270 . S
O1482 Cd1424 2.277 . S
O1482 C1497 1.248 . S
C1483 N1477 1.423 . S
C1483 C1484 1.370 1_565 S
C1483 C1488 1.403 . S
C1484 C1483 1.370 1_545 S
C1484 C1485 1.389 . S
C1484 H1510 0.931 . S
C1485 C1484 1.389 . S
C1485 C1486 1.389 . S
C1486 C1485 1.389 . S
C1486 C1487 1.379 . S
C1486 H1511 0.929 . S
C1487 C1486 1.379 . S
C1487 C1488 1.405 1_545 S
C1488 C1483 1.403 . S
C1488 C1487 1.405 1_565 S
C1488 H1512 0.932 . S
O1489 Cd1424 2.173 . S
O1489 C1425 1.277 . S
O1490 C1425 1.230 . S
O1490 Cd1428 2.250 . S
O1491 Cd1424 2.263 . S
O1491 C1444 1.258 . S
O1492 Cd1428 2.308 . S
O1492 C1444 1.274 . S
O1493 Cd1424 2.366 . S
O1493 C1480 1.263 . S
C1494 O1495 1.235 . S
C1494 O1496 1.270 . S
O1495 Cd1428 2.352 . S
O1495 C1494 1.235 . S
O1496 Cd1424 2.329 . S
O1496 C1494 1.270 . S
C1497 O1481 1.270 . S
C1497 O1482 1.248 . S
H1498 C1430 0.930 . S
H1499 C1433 0.930 . S
H1500 C1434 0.931 . S
H1501 C1439 0.929 1_565 S
H1502 C1441 0.930 . S
H1503 C1443 0.930 . S
H1504 C1446 0.929 . S
H1505 C1447 0.932 . S
H1506 C1449 0.930 . S
H1507 C1473 0.929 . S
H1508 C1474 0.932 . S
H1509 C1475 0.931 . S
H1510 C1484 0.931 . S
H1511 C1486 0.929 . S
H1512 C1488 0.932 . S
Cd1513 O1570 2.350 . S
Cd1513 O1571 2.277 . S
Cd1513 O1578 2.173 . S
Cd1513 O1580 2.263 . S
Cd1513 O1582 2.366 . S
Cd1513 O1585 2.329 . S
C1514 O1578 1.277 . S
C1514 O1579 1.230 . S
C1515 O1516 1.246 . S
C1515 C1518 1.481 . S
C1515 N1540 1.329 . S
O1516 C1515 1.246 . S
Cd1517 O1579 2.250 . S
Cd1517 O1581 2.308 . S
Cd1517 O1584 2.352 . S
C1518 C1515 1.481 . S
C1518 N1521 1.327 . S
C1518 C1522 1.407 . S
C1519 C1520 1.346 . S
C1519 C1523 1.390 . S
C1519 H1587 0.930 . S
C1520 C1519 1.346 . S
C1520 N1521 1.342 . S
C1520 C1525 1.516 . S
N1521 C1518 1.327 . S
N1521 C1520 1.342 . S
N1521 Co1524 1.864 . S
C1522 C1518 1.407 . S
C1522 C1523 1.364 . S
C1522 H1588 0.930 . S
C1523 C1519 1.390 . S
C1523 C1522 1.364 . S
C1523 H1589 0.931 . S
Co1524 N1521 1.864 . S
Co1524 N1540 1.955 . S
Co1524 N1541 1.958 . S
Co1524 N1542 1.953 . S
Co1524 N1560 1.869 . S
Co1524 N1566 1.974 . S
C1525 C1520 1.516 . S
C1525 O1526 1.238 . S
C1525 N1541 1.324 . S
O1526 C1525 1.238 . S
C1527 C1528 1.394 . S
C1527 C1532 1.395 . S
C1527 N1541 1.427 . S
C1528 C1527 1.394 . S
C1528 C1529 1.380 . S
C1528 H1590 0.929 . S
C1529 C1528 1.380 . S
C1529 C1530 1.384 . S
C1529 C1533 1.495 . S
C1530 C1529 1.384 . S
C1530 C1531 1.382 . S
C1530 H1591 0.930 . S
C1531 C1530 1.382 . S
C1531 C1532 1.398 . S
C1532 C1527 1.395 . S
C1532 C1531 1.398 . S
C1532 H1592 0.930 . S
C1533 C1529 1.495 . S
C1533 O1580 1.258 . S
C1533 O1581 1.274 . S
C1534 C1535 1.385 . S
C1534 C1536 1.381 . S
C1534 N1540 1.432 . S
C1535 C1534 1.385 . S
C1535 C1539 1.388 . S
C1535 H1593 0.929 . S
C1536 C1534 1.381 . S
C1536 C1537 1.371 . S
C1536 H1594 0.932 . S
C1537 C1536 1.371 . S
C1537 C1538 1.400 . S
C1538 C1537 1.400 . S
C1538 C1539 1.351 . S
C1538 H1595 0.930 . S
C1539 C1535 1.388 . S
C1539 C1538 1.351 . S
N1540 C1515 1.329 . S
N1540 Co1524 1.955 . S
N1540 C1534 1.432 . S
N1541 Co1524 1.958 . S
N1541 C1525 1.324 . S
N1541 C1527 1.427 . S
N1542 Co1524 1.953 . S
N1542 C1543 1.436 . S
N1542 C1569 1.316 . S
C1543 N1542 1.436 . S
C1543 C1544 1.421 . S
C1543 C1545 1.360 . S
C1544 C1543 1.421 . S
C1544 C1546 1.379 . S
C1544 H1547 0.929 . S
C1545 C1543 1.360 . S
C1545 C1549 1.393 . S
C1545 H1551 0.931 . S
C1546 C1544 1.379 . S
C1546 C1548 1.417 . S
C1546 C1550 1.505 . S
H1547 C1544 0.929 . S
C1548 C1546 1.417 . S
C1548 C1549 1.352 . S
C1548 H1552 0.929 . S
C1549 C1545 1.393 . S
C1549 C1548 1.352 . S
C1549 C1553 1.482 . S
C1550 C1546 1.505 . S
C1550 O1554 1.259 . S
C1550 O1555 1.229 . S
H1551 C1545 0.931 . S
H1552 C1548 0.929 . S
C1553 C1549 1.482 . S
C1553 O1556 1.207 . S
C1553 O1557 1.289 . S
O1554 C1550 1.259 . S
O1554 H1558 0.822 . S
O1555 C1550 1.229 . S
O1556 C1553 1.207 . S
O1557 C1553 1.289 . S
O1557 H1559 0.819 1_455 S
H1558 O1554 0.822 . S
H1559 O1557 0.819 1_655 S
N1560 Co1524 1.869 . S
N1560 C1561 1.330 . S
N1560 C1565 1.325 . S
C1561 N1560 1.330 . S
C1561 C1562 1.359 . S
C1561 C1567 1.504 . S
C1562 C1561 1.359 . S
C1562 C1563 1.366 . S
C1562 H1596 0.929 . S
C1563 C1562 1.366 . S
C1563 C1564 1.415 . S
C1563 H1597 0.932 . S
C1564 C1563 1.415 . S
C1564 C1565 1.366 . S
C1564 H1598 0.931 . S
C1565 N1560 1.325 . S
C1565 C1564 1.366 . S
C1565 C1569 1.516 . S
N1566 Co1524 1.974 . S
N1566 C1567 1.309 . S
N1566 C1572 1.423 . S
C1567 C1561 1.504 . S
C1567 N1566 1.309 . S
C1567 O1568 1.258 . S
O1568 C1567 1.258 . S
C1569 N1542 1.316 . S
C1569 C1565 1.516 . S
C1569 O1582 1.263 . S
O1570 Cd1513 2.350 . S
O1570 C1586 1.270 . S
O1571 Cd1513 2.277 . S
O1571 C1586 1.248 . S
C1572 N1566 1.423 . S
C1572 C1573 1.370 . S
C1572 C1577 1.403 . S
C1573 C1572 1.370 . S
C1573 C1574 1.389 . S
C1573 H1599 0.931 . S
C1574 C1573 1.389 . S
C1574 C1575 1.389 . S
C1575 C1574 1.389 . S
C1575 C1576 1.379 . S
C1575 H1600 0.929 . S
C1576 C1575 1.379 . S
C1576 C1577 1.405 . S
C1577 C1572 1.403 . S
C1577 C1576 1.405 . S
C1577 H1601 0.932 . S
O1578 Cd1513 2.173 . S
O1578 C1514 1.277 . S
O1579 C1514 1.230 . S
O1579 Cd1517 2.250 . S
O1580 Cd1513 2.263 . S
O1580 C1533 1.258 . S
O1581 Cd1517 2.308 . S
O1581 C1533 1.274 . S
O1582 Cd1513 2.366 . S
O1582 C1569 1.263 . S
C1583 O1584 1.235 . S
C1583 O1585 1.270 . S
O1584 Cd1517 2.352 . S
O1584 C1583 1.235 . S
O1585 Cd1513 2.329 . S
O1585 C1583 1.270 . S
C1586 O1570 1.270 . S
C1586 O1571 1.248 . S
H1587 C1519 0.930 . S
H1588 C1522 0.930 . S
H1589 C1523 0.931 . S
H1590 C1528 0.929 . S
H1591 C1530 0.930 . S
H1592 C1532 0.930 . S
H1593 C1535 0.929 . S
H1594 C1536 0.932 . S
H1595 C1538 0.930 . S
H1596 C1562 0.929 . S
H1597 C1563 0.932 . S
H1598 C1564 0.931 . S
H1599 C1573 0.931 . S
H1600 C1575 0.929 . S
H1601 C1577 0.932 . S
Cd1602 O1659 2.350 . S
Cd1602 O1660 2.277 . S
Cd1602 O1667 2.173 . S
Cd1602 O1669 2.263 . S
Cd1602 O1671 2.366 . S
Cd1602 O1674 2.329 . S
C1603 O1667 1.277 . S
C1603 O1668 1.230 . S
C1604 O1605 1.246 . S
C1604 C1607 1.481 . S
C1604 N1629 1.329 . S
O1605 C1604 1.246 . S
Cd1606 O1668 2.250 . S
Cd1606 O1670 2.308 . S
Cd1606 O1673 2.352 . S
C1607 C1604 1.481 . S
C1607 N1610 1.327 . S
C1607 C1611 1.407 . S
C1608 C1609 1.346 . S
C1608 C1612 1.390 . S
C1608 H1676 0.930 . S
C1609 C1608 1.346 . S
C1609 N1610 1.342 . S
C1609 C1614 1.516 . S
N1610 C1607 1.327 . S
N1610 C1609 1.342 . S
N1610 Co1613 1.864 . S
C1611 C1607 1.407 . S
C1611 C1612 1.364 . S
C1611 H1677 0.930 . S
C1612 C1608 1.390 . S
C1612 C1611 1.364 . S
C1612 H1678 0.931 . S
Co1613 N1610 1.864 . S
Co1613 N1629 1.955 . S
Co1613 N1630 1.958 . S
Co1613 N1631 1.953 . S
Co1613 N1649 1.869 . S
Co1613 N1655 1.974 . S
C1614 C1609 1.516 . S
C1614 O1615 1.238 . S
C1614 N1630 1.324 . S
O1615 C1614 1.238 . S
C1616 C1617 1.394 . S
C1616 C1621 1.395 . S
C1616 N1630 1.427 . S
C1617 C1616 1.394 . S
C1617 C1618 1.380 . S
C1617 H1679 0.929 . S
C1618 C1617 1.380 . S
C1618 C1619 1.384 . S
C1618 C1622 1.495 . S
C1619 C1618 1.384 . S
C1619 C1620 1.382 . S
C1619 H1680 0.930 . S
C1620 C1619 1.382 . S
C1620 C1621 1.398 . S
C1621 C1616 1.395 . S
C1621 C1620 1.398 . S
C1621 H1681 0.930 . S
C1622 C1618 1.495 . S
C1622 O1669 1.258 . S
C1622 O1670 1.274 . S
C1623 C1624 1.385 . S
C1623 C1625 1.381 . S
C1623 N1629 1.432 . S
C1624 C1623 1.385 . S
C1624 C1628 1.388 . S
C1624 H1682 0.929 . S
C1625 C1623 1.381 . S
C1625 C1626 1.371 . S
C1625 H1683 0.932 . S
C1626 C1625 1.371 . S
C1626 C1627 1.400 . S
C1627 C1626 1.400 . S
C1627 C1628 1.351 . S
C1627 H1684 0.930 . S
C1628 C1624 1.388 . S
C1628 C1627 1.351 . S
N1629 C1604 1.329 . S
N1629 Co1613 1.955 . S
N1629 C1623 1.432 . S
N1630 Co1613 1.958 . S
N1630 C1614 1.324 . S
N1630 C1616 1.427 . S
N1631 Co1613 1.953 . S
N1631 C1632 1.436 . S
N1631 C1658 1.316 . S
C1632 N1631 1.436 . S
C1632 C1633 1.421 . S
C1632 C1634 1.360 . S
C1633 C1632 1.421 . S
C1633 C1635 1.379 . S
C1633 H1636 0.929 . S
C1634 C1632 1.360 . S
C1634 C1638 1.393 . S
C1634 H1640 0.931 . S
C1635 C1633 1.379 . S
C1635 C1637 1.417 . S
C1635 C1639 1.505 . S
H1636 C1633 0.929 . S
C1637 C1635 1.417 . S
C1637 C1638 1.352 . S
C1637 H1641 0.929 . S
C1638 C1634 1.393 . S
C1638 C1637 1.352 . S
C1638 C1642 1.482 . S
C1639 C1635 1.505 . S
C1639 O1643 1.259 . S
C1639 O1644 1.229 . S
H1640 C1634 0.931 . S
H1641 C1637 0.929 . S
C1642 C1638 1.482 . S
C1642 O1645 1.207 . S
C1642 O1646 1.289 . S
O1643 C1639 1.259 . S
O1643 H1647 0.822 . S
O1644 C1639 1.229 . S
O1645 C1642 1.207 . S
O1646 C1642 1.289 . S
O1646 H1648 0.819 . S
H1647 O1643 0.822 . S
H1648 O1646 0.819 . S
N1649 Co1613 1.869 . S
N1649 C1650 1.330 . S
N1649 C1654 1.325 . S
C1650 N1649 1.330 . S
C1650 C1651 1.359 . S
C1650 C1656 1.504 . S
C1651 C1650 1.359 . S
C1651 C1652 1.366 . S
C1651 H1685 0.929 . S
C1652 C1651 1.366 . S
C1652 C1653 1.415 . S
C1652 H1686 0.932 . S
C1653 C1652 1.415 . S
C1653 C1654 1.366 . S
C1653 H1687 0.931 . S
C1654 N1649 1.325 . S
C1654 C1653 1.366 . S
C1654 C1658 1.516 . S
N1655 Co1613 1.974 . S
N1655 C1656 1.309 . S
N1655 C1661 1.423 . S
C1656 C1650 1.504 . S
C1656 N1655 1.309 . S
C1656 O1657 1.258 . S
O1657 C1656 1.258 . S
C1658 N1631 1.316 . S
C1658 C1654 1.516 . S
C1658 O1671 1.263 . S
O1659 Cd1602 2.350 . S
O1659 C1675 1.270 . S
O1660 Cd1602 2.277 . S
O1660 C1675 1.248 . S
C1661 N1655 1.423 . S
C1661 C1662 1.370 . S
C1661 C1666 1.403 . S
C1662 C1661 1.370 . S
C1662 C1663 1.389 . S
C1662 H1688 0.931 . S
C1663 C1662 1.389 . S
C1663 C1664 1.389 . S
C1664 C1663 1.389 . S
C1664 C1665 1.379 . S
C1664 H1689 0.929 . S
C1665 C1664 1.379 . S
C1665 C1666 1.405 . S
C1666 C1661 1.403 . S
C1666 C1665 1.405 . S
C1666 H1690 0.932 . S
O1667 Cd1602 2.173 . S
O1667 C1603 1.277 . S
O1668 C1603 1.230 . S
O1668 Cd1606 2.250 . S
O1669 Cd1602 2.263 . S
O1669 C1622 1.258 . S
O1670 Cd1606 2.308 . S
O1670 C1622 1.274 . S
O1671 Cd1602 2.366 . S
O1671 C1658 1.263 . S
C1672 O1673 1.235 . S
C1672 O1674 1.270 . S
O1673 Cd1606 2.352 . S
O1673 C1672 1.235 . S
O1674 Cd1602 2.329 . S
O1674 C1672 1.270 . S
C1675 O1659 1.270 . S
C1675 O1660 1.248 . S
H1676 C1608 0.930 . S
H1677 C1611 0.930 . S
H1678 C1612 0.931 . S
H1679 C1617 0.929 . S
H1680 C1619 0.930 . S
H1681 C1621 0.930 . S
H1682 C1624 0.929 . S
H1683 C1625 0.932 . S
H1684 C1627 0.930 . S
H1685 C1651 0.929 . S
H1686 C1652 0.932 . S
H1687 C1653 0.931 . S
H1688 C1662 0.931 . S
H1689 C1664 0.929 . S
H1690 C1666 0.932 . S
Cd1691 O1748 2.350 . S
Cd1691 O1749 2.277 . S
Cd1691 O1756 2.173 . S
Cd1691 O1758 2.263 . S
Cd1691 O1760 2.366 . S
Cd1691 O1763 2.329 . S
C1692 O1756 1.277 . S
C1692 O1757 1.230 . S
C1693 O1694 1.246 . S
C1693 C1696 1.481 1_565 S
C1693 N1718 1.329 . S
O1694 C1693 1.246 . S
Cd1695 O1757 2.250 . S
Cd1695 O1759 2.308 . S
Cd1695 O1762 2.352 . S
C1696 C1693 1.481 1_545 S
C1696 N1699 1.327 . S
C1696 C1700 1.407 . S
C1697 C1698 1.346 . S
C1697 C1701 1.390 . S
C1697 H1765 0.930 . S
C1698 C1697 1.346 . S
C1698 N1699 1.342 . S
C1698 C1703 1.516 . S
N1699 C1696 1.327 . S
N1699 C1698 1.342 . S
N1699 Co1702 1.864 1_545 S
C1700 C1696 1.407 . S
C1700 C1701 1.364 . S
C1700 H1766 0.930 . S
C1701 C1697 1.390 . S
C1701 C1700 1.364 . S
C1701 H1767 0.931 . S
Co1702 N1699 1.864 1_565 S
Co1702 N1718 1.955 . S
Co1702 N1719 1.958 1_565 S
Co1702 N1720 1.953 . S
Co1702 N1738 1.869 . S
Co1702 N1744 1.974 . S
C1703 C1698 1.516 . S
C1703 O1704 1.238 . S
C1703 N1719 1.324 . S
O1704 C1703 1.238 . S
C1705 C1706 1.394 . S
C1705 C1710 1.395 . S
C1705 N1719 1.427 . S
C1706 C1705 1.394 . S
C1706 C1707 1.380 1_545 S
C1706 H1768 0.929 1_545 S
C1707 C1706 1.380 1_565 S
C1707 C1708 1.384 . S
C1707 C1711 1.495 . S
C1708 C1707 1.384 . S
C1708 C1709 1.382 1_565 S
C1708 H1769 0.930 . S
C1709 C1708 1.382 1_545 S
C1709 C1710 1.398 . S
C1710 C1705 1.395 . S
C1710 C1709 1.398 . S
C1710 H1770 0.930 . S
C1711 C1707 1.495 . S
C1711 O1758 1.258 . S
C1711 O1759 1.274 . S
C1712 C1713 1.385 . S
C1712 C1714 1.381 . S
C1712 N1718 1.432 . S
C1713 C1712 1.385 . S
C1713 C1717 1.388 . S
C1713 H1771 0.929 . S
C1714 C1712 1.381 . S
C1714 C1715 1.371 . S
C1714 H1772 0.932 . S
C1715 C1714 1.371 . S
C1715 C1716 1.400 . S
C1716 C1715 1.400 . S
C1716 C1717 1.351 . S
C1716 H1773 0.930 . S
C1717 C1713 1.388 . S
C1717 C1716 1.351 . S
N1718 C1693 1.329 . S
N1718 Co1702 1.955 . S
N1718 C1712 1.432 . S
N1719 Co1702 1.958 1_545 S
N1719 C1703 1.324 . S
N1719 C1705 1.427 . S
N1720 Co1702 1.953 . S
N1720 C1721 1.436 . S
N1720 C1747 1.316 . S
C1721 N1720 1.436 . S
C1721 C1722 1.421 . S
C1721 C1723 1.360 1_565 S
C1722 C1721 1.421 . S
C1722 C1724 1.379 1_565 S
C1722 H1725 0.929 . S
C1723 C1721 1.360 1_545 S
C1723 C1727 1.393 . S
C1723 H1729 0.931 . S
C1724 C1722 1.379 1_545 S
C1724 C1726 1.417 . S
C1724 C1728 1.505 1_545 S
H1725 C1722 0.929 . S
C1726 C1724 1.417 . S
C1726 C1727 1.352 . S
C1726 H1730 0.929 . S
C1727 C1723 1.393 . S
C1727 C1726 1.352 . S
C1727 C1731 1.482 . S
C1728 C1724 1.505 1_565 S
C1728 O1732 1.259 1_565 S
C1728 O1733 1.229 . S
H1729 C1723 0.931 . S
H1730 C1726 0.929 . S
C1731 C1727 1.482 . S
C1731 O1734 1.207 . S
C1731 O1735 1.289 . S
O1732 C1728 1.259 1_545 S
O1732 H1736 0.822 . S
O1733 C1728 1.229 . S
O1734 C1731 1.207 . S
O1735 C1731 1.289 . S
O1735 H1737 0.819 . S
H1736 O1732 0.822 . S
H1737 O1735 0.819 . S
N1738 Co1702 1.869 . S
N1738 C1739 1.330 . S
N1738 C1743 1.325 . S
C1739 N1738 1.330 . S
C1739 C1740 1.359 . S
C1739 C1745 1.504 . S
C1740 C1739 1.359 . S
C1740 C1741 1.366 . S
C1740 H1774 0.929 . S
C1741 C1740 1.366 . S
C1741 C1742 1.415 . S
C1741 H1775 0.932 . S
C1742 C1741 1.415 . S
C1742 C1743 1.366 . S
C1742 H1776 0.931 . S
C1743 N1738 1.325 . S
C1743 C1742 1.366 . S
C1743 C1747 1.516 . S
N1744 Co1702 1.974 . S
N1744 C1745 1.309 . S
N1744 C1750 1.423 . S
C1745 C1739 1.504 . S
C1745 N1744 1.309 . S
C1745 O1746 1.258 . S
O1746 C1745 1.258 . S
C1747 N1720 1.316 . S
C1747 C1743 1.516 . S
C1747 O1760 1.263 . S
O1748 Cd1691 2.350 . S
O1748 C1764 1.270 . S
O1749 Cd1691 2.277 . S
O1749 C1764 1.248 . S
C1750 N1744 1.423 . S
C1750 C1751 1.370 1_565 S
C1750 C1755 1.403 . S
C1751 C1750 1.370 1_545 S
C1751 C1752 1.389 . S
C1751 H1777 0.931 . S
C1752 C1751 1.389 . S
C1752 C1753 1.389 . S
C1753 C1752 1.389 . S
C1753 C1754 1.405 . S
C1753 H1778 0.929 . S
C1754 C1753 1.405 . S
C1754 C1755 1.404 1_545 S
C1755 C1750 1.403 . S
C1755 C1754 1.404 1_565 S
C1755 H1779 0.932 . S
O1756 Cd1691 2.173 . S
O1756 C1692 1.277 . S
O1757 C1692 1.230 . S
O1757 Cd1695 2.250 . S
O1758 Cd1691 2.263 . S
O1758 C1711 1.258 . S
O1759 Cd1695 2.308 . S
O1759 C1711 1.274 . S
O1760 Cd1691 2.366 . S
O1760 C1747 1.263 . S
C1761 O1762 1.235 . S
C1761 O1763 1.270 . S
O1762 Cd1695 2.352 . S
O1762 C1761 1.235 . S
O1763 Cd1691 2.329 . S
O1763 C1761 1.270 . S
C1764 O1748 1.270 . S
C1764 O1749 1.248 . S
H1765 C1697 0.930 . S
H1766 C1700 0.930 . S
H1767 C1701 0.931 . S
H1768 C1706 0.929 1_565 S
H1769 C1708 0.930 . S
H1770 C1710 0.930 . S
H1771 C1713 0.929 . S
H1772 C1714 0.932 . S
H1773 C1716 0.930 . S
H1774 C1740 0.929 . S
H1775 C1741 0.932 . S
H1776 C1742 0.931 . S
H1777 C1751 0.931 . S
H1778 C1753 0.929 . S
H1779 C1755 0.932 . S
Cd1780 O1837 2.350 . S
Cd1780 O1838 2.277 . S
Cd1780 O1845 2.173 . S
Cd1780 O1847 2.263 . S
Cd1780 O1849 2.366 . S
Cd1780 O1852 2.329 . S
C1781 O1845 1.277 . S
C1781 O1846 1.230 . S
C1782 O1783 1.246 . S
C1782 C1785 1.481 . S
C1782 N1807 1.329 . S
O1783 C1782 1.246 . S
Cd1784 O1846 2.250 . S
Cd1784 O1848 2.308 . S
Cd1784 O1851 2.352 . S
C1785 C1782 1.481 . S
C1785 N1788 1.327 . S
C1785 C1789 1.407 . S
C1786 C1787 1.346 . S
C1786 C1790 1.390 . S
C1786 H1854 0.930 . S
C1787 C1786 1.346 . S
C1787 N1788 1.342 . S
C1787 C1792 1.516 . S
N1788 C1785 1.327 . S
N1788 C1787 1.342 . S
N1788 Co1791 1.864 . S
C1789 C1785 1.407 . S
C1789 C1790 1.364 . S
C1789 H1855 0.930 . S
C1790 C1786 1.390 . S
C1790 C1789 1.364 . S
C1790 H1856 0.931 . S
Co1791 N1788 1.864 . S
Co1791 N1807 1.955 . S
Co1791 N1808 1.958 . S
Co1791 N1809 1.953 . S
Co1791 N1827 1.869 . S
Co1791 N1833 1.974 . S
C1792 C1787 1.516 . S
C1792 O1793 1.238 . S
C1792 N1808 1.324 . S
O1793 C1792 1.238 . S
C1794 C1795 1.394 . S
C1794 C1799 1.395 . S
C1794 N1808 1.427 . S
C1795 C1794 1.394 . S
C1795 C1796 1.380 . S
C1795 H1857 0.929 . S
C1796 C1795 1.380 . S
C1796 C1797 1.384 . S
C1796 C1800 1.495 . S
C1797 C1796 1.384 . S
C1797 C1798 1.382 . S
C1797 H1858 0.930 . S
C1798 C1797 1.382 . S
C1798 C1799 1.398 . S
C1799 C1794 1.395 . S
C1799 C1798 1.398 . S
C1799 H1859 0.930 . S
C1800 C1796 1.495 . S
C1800 O1847 1.258 . S
C1800 O1848 1.274 . S
C1801 C1802 1.385 . S
C1801 C1803 1.381 . S
C1801 N1807 1.432 . S
C1802 C1801 1.385 . S
C1802 C1806 1.388 . S
C1802 H1860 0.929 . S
C1803 C1801 1.381 . S
C1803 C1804 1.371 . S
C1803 H1861 0.932 . S
C1804 C1803 1.371 . S
C1804 C1805 1.400 . S
C1805 C1804 1.400 . S
C1805 C1806 1.351 . S
C1805 H1862 0.930 . S
C1806 C1802 1.388 . S
C1806 C1805 1.351 . S
N1807 C1782 1.329 . S
N1807 Co1791 1.955 . S
N1807 C1801 1.432 . S
N1808 Co1791 1.958 . S
N1808 C1792 1.324 . S
N1808 C1794 1.427 . S
N1809 Co1791 1.953 . S
N1809 C1810 1.436 . S
N1809 C1836 1.316 . S
C1810 N1809 1.436 . S
C1810 C1811 1.421 . S
C1810 C1812 1.360 . S
C1811 C1810 1.421 . S
C1811 C1813 1.379 . S
C1811 H1814 0.929 . S
C1812 C1810 1.360 . S
C1812 C1816 1.393 . S
C1812 H1818 0.931 . S
C1813 C1811 1.379 . S
C1813 C1815 1.417 . S
C1813 C1817 1.505 . S
H1814 C1811 0.929 . S
C1815 C1813 1.417 . S
C1815 C1816 1.352 . S
C1815 H1819 0.929 . S
C1816 C1812 1.393 . S
C1816 C1815 1.352 . S
C1816 C1820 1.482 . S
C1817 C1813 1.505 . S
C1817 O1821 1.259 . S
C1817 O1822 1.229 . S
H1818 C1812 0.931 . S
H1819 C1815 0.929 . S
C1820 C1816 1.482 . S
C1820 O1823 1.207 . S
C1820 O1824 1.289 . S
O1821 C1817 1.259 . S
O1821 H1825 0.822 . S
O1822 C1817 1.229 . S
O1823 C1820 1.207 . S
O1824 C1820 1.289 . S
O1824 H1826 0.819 1_455 S
H1825 O1821 0.822 . S
H1826 O1824 0.819 1_655 S
N1827 Co1791 1.869 . S
N1827 C1828 1.330 . S
N1827 C1832 1.325 . S
C1828 N1827 1.330 . S
C1828 C1829 1.359 . S
C1828 C1834 1.504 . S
C1829 C1828 1.359 . S
C1829 C1830 1.366 . S
C1829 H1863 0.929 . S
C1830 C1829 1.366 . S
C1830 C1831 1.415 . S
C1830 H1864 0.932 . S
C1831 C1830 1.415 . S
C1831 C1832 1.366 . S
C1831 H1865 0.931 . S
C1832 N1827 1.325 . S
C1832 C1831 1.366 . S
C1832 C1836 1.516 . S
N1833 Co1791 1.974 . S
N1833 C1834 1.309 . S
N1833 C1839 1.423 . S
C1834 C1828 1.504 . S
C1834 N1833 1.309 . S
C1834 O1835 1.258 . S
O1835 C1834 1.258 . S
C1836 N1809 1.316 . S
C1836 C1832 1.516 . S
C1836 O1849 1.263 . S
O1837 Cd1780 2.350 . S
O1837 C1853 1.270 . S
O1838 Cd1780 2.277 . S
O1838 C1853 1.248 . S
C1839 N1833 1.423 . S
C1839 C1840 1.370 . S
C1839 C1844 1.403 . S
C1840 C1839 1.370 . S
C1840 C1841 1.389 . S
C1840 H1866 0.931 . S
C1841 C1840 1.389 . S
C1841 C1842 1.389 . S
C1842 C1841 1.389 . S
C1842 C1843 1.379 1_565 S
C1842 H1867 0.929 1_565 S
C1843 C1842 1.379 1_545 S
C1843 C1844 1.405 1_545 S
C1844 C1839 1.403 . S
C1844 C1843 1.405 1_565 S
C1844 H1868 0.932 1_565 S
O1845 Cd1780 2.173 . S
O1845 C1781 1.277 . S
O1846 C1781 1.230 . S
O1846 Cd1784 2.250 . S
O1847 Cd1780 2.263 . S
O1847 C1800 1.258 . S
O1848 Cd1784 2.308 . S
O1848 C1800 1.274 . S
O1849 Cd1780 2.366 . S
O1849 C1836 1.263 . S
C1850 O1851 1.235 . S
C1850 O1852 1.270 . S
O1851 Cd1784 2.352 . S
O1851 C1850 1.235 . S
O1852 Cd1780 2.329 . S
O1852 C1850 1.270 . S
C1853 O1837 1.270 . S
C1853 O1838 1.248 . S
H1854 C1786 0.930 . S
H1855 C1789 0.930 . S
H1856 C1790 0.931 . S
H1857 C1795 0.929 . S
H1858 C1797 0.930 . S
H1859 C1799 0.930 . S
H1860 C1802 0.929 . S
H1861 C1803 0.932 . S
H1862 C1805 0.930 . S
H1863 C1829 0.929 . S
H1864 C1830 0.932 . S
H1865 C1831 0.931 . S
H1866 C1840 0.931 . S
H1867 C1842 0.929 1_545 S
H1868 C1844 0.932 1_545 S
Cd1869 O1926 2.350 . S
Cd1869 O1927 2.277 . S
Cd1869 O1934 2.173 . S
Cd1869 O1936 2.263 . S
Cd1869 O1938 2.366 . S
Cd1869 O1941 2.329 . S
C1870 O1934 1.277 . S
C1870 O1935 1.230 . S
C1871 O1872 1.246 . S
C1871 C1874 1.481 . S
C1871 N1896 1.329 . S
O1872 C1871 1.246 . S
Cd1873 O1935 2.250 . S
Cd1873 O1937 2.308 . S
Cd1873 O1940 2.352 . S
C1874 C1871 1.481 . S
C1874 N1877 1.327 . S
C1874 C1878 1.407 . S
C1875 C1876 1.346 . S
C1875 C1879 1.390 . S
C1875 H1943 0.930 . S
C1876 C1875 1.346 . S
C1876 N1877 1.342 . S
C1876 C1881 1.516 . S
N1877 C1874 1.327 . S
N1877 C1876 1.342 . S
N1877 Co1880 1.864 . S
C1878 C1874 1.407 . S
C1878 C1879 1.364 . S
C1878 H1944 0.930 . S
C1879 C1875 1.390 . S
C1879 C1878 1.364 . S
C1879 H1945 0.931 . S
Co1880 N1877 1.864 . S
Co1880 N1896 1.955 . S
Co1880 N1897 1.958 . S
Co1880 N1898 1.953 . S
Co1880 N1916 1.869 . S
Co1880 N1922 1.974 . S
C1881 C1876 1.516 . S
C1881 O1882 1.238 1_565 S
C1881 N1897 1.324 . S
O1882 C1881 1.238 1_545 S
C1883 C1884 1.394 1_565 S
C1883 C1888 1.395 . S
C1883 N1897 1.427 . S
C1884 C1883 1.394 1_545 S
C1884 C1885 1.380 . S
C1884 H1946 0.929 . S
C1885 C1884 1.380 . S
C1885 C1886 1.384 . S
C1885 C1889 1.495 . S
C1886 C1885 1.384 . S
C1886 C1887 1.382 . S
C1886 H1947 0.930 . S
C1887 C1886 1.382 . S
C1887 C1888 1.398 1_545 S
C1888 C1883 1.395 . S
C1888 C1887 1.398 1_565 S
C1888 H1948 0.930 . S
C1889 C1885 1.495 . S
C1889 O1936 1.258 . S
C1889 O1937 1.274 . S
C1890 C1891 1.385 . S
C1890 C1892 1.381 . S
C1890 N1896 1.432 . S
C1891 C1890 1.385 . S
C1891 C1895 1.388 . S
C1891 H1949 0.929 . S
C1892 C1890 1.381 . S
C1892 C1893 1.371 . S
C1892 H1950 0.932 . S
C1893 C1892 1.371 . S
C1893 C1894 1.400 . S
C1894 C1893 1.400 . S
C1894 C1895 1.351 . S
C1894 H1951 0.930 . S
C1895 C1891 1.388 . S
C1895 C1894 1.351 . S
N1896 C1871 1.329 . S
N1896 Co1880 1.955 . S
N1896 C1890 1.432 . S
N1897 Co1880 1.958 . S
N1897 C1881 1.324 . S
N1897 C1883 1.427 . S
N1898 Co1880 1.953 . S
N1898 C1899 1.436 1_565 S
N1898 C1925 1.316 . S
C1899 N1898 1.436 1_545 S
C1899 C1900 1.421 1_545 S
C1899 C1901 1.360 . S
C1900 C1899 1.421 1_565 S
C1900 C1902 1.379 1_565 S
C1900 H1903 0.929 . S
C1901 C1899 1.360 . S
C1901 C1905 1.393 . S
C1901 H1907 0.931 . S
C1902 C1900 1.379 1_545 S
C1902 C1904 1.417 . S
C1902 C1906 1.505 1_556 S
H1903 C1900 0.929 . S
C1904 C1902 1.417 . S
C1904 C1905 1.352 . S
C1904 H1908 0.960 . S
C1905 C1901 1.393 . S
C1905 C1904 1.352 . S
C1905 C1909 1.482 . S
C1906 C1902 1.505 1_554 S
C1906 O1910 1.259 . S
C1906 O1911 1.229 1_545 S
H1907 C1901 0.931 . S
H1908 C1904 0.960 . S
C1909 C1905 1.482 . S
C1909 O1912 1.207 . S
C1909 O1913 1.289 . S
O1910 C1906 1.259 . S
O1910 H1914 0.822 . S
O1911 C1906 1.229 1_565 S
O1912 C1909 1.207 . S
O1913 C1909 1.289 . S
O1913 H1915 0.819 . S
H1914 O1910 0.822 . S
H1915 O1913 0.819 . S
N1916 Co1880 1.869 . S
N1916 C1917 1.330 . S
N1916 C1921 1.325 . S
C1917 N1916 1.330 . S
C1917 C1918 1.359 . S
C1917 C1923 1.504 . S
C1918 C1917 1.359 . S
C1918 C1919 1.366 . S
C1918 H1952 0.929 . S
C1919 C1918 1.366 . S
C1919 C1920 1.415 . S
C1919 H1953 0.932 . S
C1920 C1919 1.415 . S
C1920 C1921 1.366 . S
C1920 H1954 0.931 . S
C1921 N1916 1.325 . S
C1921 C1920 1.366 . S
C1921 C1925 1.516 . S
N1922 Co1880 1.974 . S
N1922 C1923 1.309 . S
N1922 C1928 1.423 . S
C1923 C1917 1.504 . S
C1923 N1922 1.309 . S
C1923 O1924 1.258 . S
O1924 C1923 1.258 . S
C1925 N1898 1.316 . S
C1925 C1921 1.516 . S
C1925 O1938 1.263 1_565 S
O1926 Cd1869 2.350 . S
O1926 C1942 1.270 . S
O1927 Cd1869 2.277 . S
O1927 C1942 1.248 . S
C1928 N1922 1.423 . S
C1928 C1929 1.370 . S
C1928 C1933 1.403 . S
C1929 C1928 1.370 . S
C1929 C1930 1.389 . S
C1929 H1955 0.931 . S
C1930 C1929 1.389 . S
C1930 C1931 1.389 . S
C1931 C1930 1.389 . S
C1931 C1932 1.379 . S
C1931 H1956 0.929 . S
C1932 C1931 1.379 . S
C1932 C1933 1.405 . S
C1933 C1928 1.403 . S
C1933 C1932 1.405 . S
C1933 H1957 0.932 . S
O1934 Cd1869 2.173 . S
O1934 C1870 1.277 . S
O1935 C1870 1.230 . S
O1935 Cd1873 2.250 . S
O1936 Cd1869 2.263 . S
O1936 C1889 1.258 . S
O1937 Cd1873 2.308 . S
O1937 C1889 1.274 . S
O1938 Cd1869 2.366 . S
O1938 C1925 1.263 1_545 S
C1939 O1940 1.235 . S
C1939 O1941 1.270 . S
O1940 Cd1873 2.352 . S
O1940 C1939 1.235 . S
O1941 Cd1869 2.329 . S
O1941 C1939 1.270 . S
C1942 O1926 1.270 . S
C1942 O1927 1.248 . S
H1943 C1875 0.930 . S
H1944 C1878 0.930 . S
H1945 C1879 0.931 . S
H1946 C1884 0.929 . S
H1947 C1886 0.930 . S
H1948 C1888 0.930 . S
H1949 C1891 0.929 . S
H1950 C1892 0.932 . S
H1951 C1894 0.930 . S
H1952 C1918 0.929 . S
H1953 C1919 0.932 . S
H1954 C1920 0.931 . S
H1955 C1929 0.931 . S
H1956 C1931 0.929 . S
H1957 C1933 0.932 . S
Cd1958 O2015 2.350 . S
Cd1958 O2016 2.277 . S
Cd1958 O2023 2.173 . S
Cd1958 O2025 2.263 . S
Cd1958 O2027 2.366 . S
Cd1958 O2030 2.329 . S
C1959 O2023 1.277 . S
C1959 O2024 1.230 . S
C1960 O1961 1.246 . S
C1960 C1963 1.481 . S
C1960 N1985 1.329 . S
O1961 C1960 1.246 . S
Cd1962 O2024 2.250 . S
Cd1962 O2026 2.308 . S
Cd1962 O2029 2.352 . S
C1963 C1960 1.481 . S
C1963 N1966 1.327 . S
C1963 C1967 1.407 . S
C1964 C1965 1.346 . S
C1964 C1968 1.390 . S
C1964 H2032 0.930 . S
C1965 C1964 1.346 . S
C1965 N1966 1.342 . S
C1965 C1970 1.516 . S
N1966 C1963 1.327 . S
N1966 C1965 1.342 . S
N1966 Co1969 1.864 . S
C1967 C1963 1.407 . S
C1967 C1968 1.364 . S
C1967 H2033 0.930 . S
C1968 C1964 1.390 . S
C1968 C1967 1.364 . S
C1968 H2034 0.931 . S
Co1969 N1966 1.864 . S
Co1969 N1985 1.955 . S
Co1969 N1986 1.958 . S
Co1969 N1987 1.953 . S
Co1969 N2005 1.869 . S
Co1969 N2011 1.974 . S
C1970 C1965 1.516 . S
C1970 O1971 1.238 . S
C1970 N1986 1.324 . S
O1971 C1970 1.238 . S
C1972 C1973 1.394 . S
C1972 C1977 1.395 . S
C1972 N1986 1.427 . S
C1973 C1972 1.394 . S
C1973 C1974 1.380 . S
C1973 H2035 0.929 . S
C1974 C1973 1.380 . S
C1974 C1975 1.384 . S
C1974 C1978 1.495 . S
C1975 C1974 1.384 . S
C1975 C1976 1.382 . S
C1975 H2036 0.930 . S
C1976 C1975 1.382 . S
C1976 C1977 1.398 . S
C1977 C1972 1.395 . S
C1977 C1976 1.398 . S
C1977 H2037 0.930 . S
C1978 C1974 1.495 . S
C1978 O2025 1.258 . S
C1978 O2026 1.274 . S
C1979 C1980 1.385 . S
C1979 C1981 1.381 . S
C1979 N1985 1.432 . S
C1980 C1979 1.385 . S
C1980 C1984 1.388 . S
C1980 H2038 0.929 . S
C1981 C1979 1.381 . S
C1981 C1982 1.371 . S
C1981 H2039 0.932 . S
C1982 C1981 1.371 . S
C1982 C1983 1.400 . S
C1983 C1982 1.400 . S
C1983 C1984 1.351 . S
C1983 H2040 0.930 1_565 S
C1984 C1980 1.388 . S
C1984 C1983 1.351 . S
N1985 C1960 1.329 . S
N1985 Co1969 1.955 . S
N1985 C1979 1.432 . S
N1986 Co1969 1.958 . S
N1986 C1970 1.324 . S
N1986 C1972 1.427 . S
N1987 Co1969 1.953 . S
N1987 C1988 1.436 . S
N1987 C2014 1.316 . S
C1988 N1987 1.436 . S
C1988 C1989 1.421 . S
C1988 C1990 1.360 . S
C1989 C1988 1.421 . S
C1989 C1991 1.379 . S
C1989 H1992 0.929 . S
C1990 C1988 1.360 . S
C1990 C1994 1.393 . S
C1990 H1996 0.931 . S
C1991 C1989 1.379 . S
C1991 C1993 1.417 . S
C1991 C1995 1.505 1_556 S
H1992 C1989 0.929 . S
C1993 C1991 1.417 . S
C1993 C1994 1.352 . S
C1993 H1997 0.960 . S
C1994 C1990 1.393 . S
C1994 C1993 1.352 . S
C1994 C1998 1.482 . S
C1995 C1991 1.505 1_554 S
C1995 O1999 1.259 . S
C1995 O2000 1.229 . S
H1996 C1990 0.931 . S
H1997 C1993 0.960 . S
C1998 C1994 1.482 . S
C1998 O2001 1.207 . S
C1998 O2002 1.289 . S
O1999 C1995 1.259 . S
O1999 H2003 0.822 . S
O2000 C1995 1.229 . S
O2001 C1998 1.207 . S
O2002 C1998 1.289 . S
O2002 H2004 0.819 . S
H2003 O1999 0.822 . S
H2004 O2002 0.819 . S
N2005 Co1969 1.869 . S
N2005 C2006 1.330 . S
N2005 C2010 1.325 . S
C2006 N2005 1.330 . S
C2006 C2007 1.359 . S
C2006 C2012 1.504 . S
C2007 C2006 1.359 . S
C2007 C2008 1.366 . S
C2007 H2041 0.929 . S
C2008 C2007 1.366 . S
C2008 C2009 1.415 . S
C2008 H2042 0.932 . S
C2009 C2008 1.415 . S
C2009 C2010 1.366 . S
C2009 H2043 0.931 . S
C2010 N2005 1.325 . S
C2010 C2009 1.366 . S
C2010 C2014 1.516 . S
N2011 Co1969 1.974 . S
N2011 C2012 1.309 . S
N2011 C2017 1.423 . S
C2012 C2006 1.504 . S
C2012 N2011 1.309 . S
C2012 O2013 1.258 . S
O2013 C2012 1.258 . S
C2014 N1987 1.316 . S
C2014 C2010 1.516 . S
C2014 O2027 1.263 . S
O2015 Cd1958 2.350 . S
O2015 C2031 1.270 . S
O2016 Cd1958 2.277 . S
O2016 C2031 1.248 . S
C2017 N2011 1.423 . S
C2017 C2018 1.370 . S
C2017 C2022 1.403 . S
C2018 C2017 1.370 . S
C2018 C2019 1.389 . S
C2018 H2044 0.931 . S
C2019 C2018 1.389 . S
C2019 C2020 1.389 . S
C2020 C2019 1.389 . S
C2020 C2021 1.379 . S
C2020 H2045 0.929 . S
C2021 C2020 1.379 . S
C2021 C2022 1.405 . S
C2022 C2017 1.403 . S
C2022 C2021 1.405 . S
C2022 H2046 0.932 . S
O2023 Cd1958 2.173 . S
O2023 C1959 1.277 . S
O2024 C1959 1.230 . S
O2024 Cd1962 2.250 . S
O2025 Cd1958 2.263 . S
O2025 C1978 1.258 . S
O2026 Cd1962 2.308 . S
O2026 C1978 1.274 . S
O2027 Cd1958 2.366 . S
O2027 C2014 1.263 . S
C2028 O2029 1.235 . S
C2028 O2030 1.270 . S
O2029 Cd1962 2.352 . S
O2029 C2028 1.235 . S
O2030 Cd1958 2.329 . S
O2030 C2028 1.270 . S
C2031 O2015 1.270 . S
C2031 O2016 1.248 . S
H2032 C1964 0.930 . S
H2033 C1967 0.930 . S
H2034 C1968 0.931 . S
H2035 C1973 0.929 . S
H2036 C1975 0.930 . S
H2037 C1977 0.930 . S
H2038 C1980 0.929 . S
H2039 C1981 0.932 . S
H2040 C1983 0.930 1_545 S
H2041 C2007 0.929 . S
H2042 C2008 0.932 . S
H2043 C2009 0.931 . S
H2044 C2018 0.931 . S
H2045 C2020 0.929 . S
H2046 C2022 0.932 . S
Cd2047 O2104 2.350 . S
Cd2047 O2105 2.277 . S
Cd2047 O2112 2.173 . S
Cd2047 O2114 2.263 . S
Cd2047 O2116 2.366 . S
Cd2047 O2119 2.329 . S
C2048 O2112 1.277 . S
C2048 O2113 1.230 . S
C2049 O2050 1.246 . S
C2049 C2052 1.481 . S
C2049 N2074 1.329 . S
O2050 C2049 1.246 . S
Cd2051 O2113 2.250 . S
Cd2051 O2115 2.308 . S
Cd2051 O2118 2.352 . S
C2052 C2049 1.481 . S
C2052 N2055 1.327 . S
C2052 C2056 1.407 . S
C2053 C2054 1.346 . S
C2053 C2057 1.390 . S
C2053 H2121 0.930 . S
C2054 C2053 1.346 . S
C2054 N2055 1.342 . S
C2054 C2059 1.516 . S
N2055 C2052 1.327 . S
N2055 C2054 1.342 . S
N2055 Co2058 1.864 . S
C2056 C2052 1.407 . S
C2056 C2057 1.364 . S
C2056 H2122 0.930 . S
C2057 C2053 1.390 . S
C2057 C2056 1.364 . S
C2057 H2123 0.931 . S
Co2058 N2055 1.864 . S
Co2058 N2074 1.955 . S
Co2058 N2075 1.958 . S
Co2058 N2076 1.953 . S
Co2058 N2094 1.869 . S
Co2058 N2100 1.974 . S
C2059 C2054 1.516 . S
C2059 O2060 1.238 . S
C2059 N2075 1.324 . S
O2060 C2059 1.238 . S
C2061 C2062 1.394 . S
C2061 C2066 1.395 . S
C2061 N2075 1.427 . S
C2062 C2061 1.394 . S
C2062 C2063 1.380 . S
C2062 H2124 0.929 . S
C2063 C2062 1.380 . S
C2063 C2064 1.384 . S
C2063 C2067 1.495 . S
C2064 C2063 1.384 . S
C2064 C2065 1.382 . S
C2064 H2125 0.930 . S
C2065 C2064 1.382 . S
C2065 C2066 1.398 . S
C2066 C2061 1.395 . S
C2066 C2065 1.398 . S
C2066 H2126 0.930 . S
C2067 C2063 1.495 . S
C2067 O2114 1.258 . S
C2067 O2115 1.274 . S
C2068 C2069 1.385 . S
C2068 C2070 1.381 . S
C2068 N2074 1.432 . S
C2069 C2068 1.385 . S
C2069 C2073 1.388 . S
C2069 H2127 0.929 . S
C2070 C2068 1.381 . S
C2070 C2071 1.371 . S
C2070 H2128 0.932 . S
C2071 C2070 1.371 . S
C2071 C2072 1.400 . S
C2072 C2071 1.400 . S
C2072 C2073 1.351 . S
C2072 H2129 0.930 . S
C2073 C2069 1.388 . S
C2073 C2072 1.351 . S
N2074 C2049 1.329 . S
N2074 Co2058 1.955 . S
N2074 C2068 1.432 . S
N2075 Co2058 1.958 . S
N2075 C2059 1.324 . S
N2075 C2061 1.427 . S
N2076 Co2058 1.953 . S
N2076 C2077 1.436 . S
N2076 C2103 1.316 . S
C2077 N2076 1.436 . S
C2077 C2078 1.421 . S
C2077 C2079 1.360 . S
C2078 C2077 1.421 . S
C2078 C2080 1.379 . S
C2078 H2081 0.929 . S
C2079 C2077 1.360 . S
C2079 C2083 1.393 . S
C2079 H2085 0.931 . S
C2080 C2078 1.379 . S
C2080 C2082 1.417 . S
C2080 C2084 1.505 1_556 S
H2081 C2078 0.929 . S
C2082 C2080 1.417 . S
C2082 C2083 1.352 . S
C2082 H2086 0.960 . S
C2083 C2079 1.393 . S
C2083 C2082 1.352 . S
C2083 C2087 1.482 . S
C2084 C2080 1.505 1_554 S
C2084 O2088 1.259 . S
C2084 O2089 1.229 . S
H2085 C2079 0.931 . S
H2086 C2082 0.960 . S
C2087 C2083 1.482 . S
C2087 O2090 1.207 . S
C2087 O2091 1.289 . S
O2088 C2084 1.259 . S
O2088 H2092 0.822 . S
O2089 C2084 1.229 . S
O2090 C2087 1.207 . S
O2091 C2087 1.289 . S
O2091 H2093 0.819 . S
H2092 O2088 0.822 . S
H2093 O2091 0.819 . S
N2094 Co2058 1.869 . S
N2094 C2095 1.330 . S
N2094 C2099 1.325 . S
C2095 N2094 1.330 . S
C2095 C2096 1.359 . S
C2095 C2101 1.504 . S
C2096 C2095 1.359 . S
C2096 C2097 1.366 . S
C2096 H2130 0.929 . S
C2097 C2096 1.366 . S
C2097 C2098 1.415 . S
C2097 H2131 0.932 . S
C2098 C2097 1.415 . S
C2098 C2099 1.366 . S
C2098 H2132 0.931 . S
C2099 N2094 1.325 . S
C2099 C2098 1.366 . S
C2099 C2103 1.516 . S
N2100 Co2058 1.974 . S
N2100 C2101 1.309 . S
N2100 C2106 1.423 . S
C2101 C2095 1.504 . S
C2101 N2100 1.309 . S
C2101 O2102 1.258 . S
O2102 C2101 1.258 . S
C2103 N2076 1.316 . S
C2103 C2099 1.516 . S
C2103 O2116 1.263 . S
O2104 Cd2047 2.350 . S
O2104 C2120 1.270 . S
O2105 Cd2047 2.277 . S
O2105 C2120 1.248 . S
C2106 N2100 1.423 . S
C2106 C2107 1.370 . S
C2106 C2111 1.403 . S
C2107 C2106 1.370 . S
C2107 C2108 1.389 . S
C2107 H2133 0.931 . S
C2108 C2107 1.389 . S
C2108 C2109 1.389 . S
C2109 C2108 1.389 . S
C2109 C2110 1.379 . S
C2109 H2134 0.929 . S
C2110 C2109 1.379 . S
C2110 C2111 1.405 . S
C2111 C2106 1.403 . S
C2111 C2110 1.405 . S
C2111 H2135 0.932 . S
O2112 Cd2047 2.173 . S
O2112 C2048 1.277 . S
O2113 C2048 1.230 . S
O2113 Cd2051 2.250 . S
O2114 Cd2047 2.263 . S
O2114 C2067 1.258 . S
O2115 Cd2051 2.308 . S
O2115 C2067 1.274 . S
O2116 Cd2047 2.366 . S
O2116 C2103 1.263 . S
C2117 O2118 1.235 . S
C2117 O2119 1.270 . S
O2118 Cd2051 2.352 . S
O2118 C2117 1.235 . S
O2119 Cd2047 2.329 . S
O2119 C2117 1.270 . S
C2120 O2104 1.270 . S
C2120 O2105 1.248 . S
H2121 C2053 0.930 . S
H2122 C2056 0.930 . S
H2123 C2057 0.931 . S
H2124 C2062 0.929 . S
H2125 C2064 0.930 . S
H2126 C2066 0.930 . S
H2127 C2069 0.929 . S
H2128 C2070 0.932 . S
H2129 C2072 0.930 . S
H2130 C2096 0.929 . S
H2131 C2097 0.932 . S
H2132 C2098 0.931 . S
H2133 C2107 0.931 . S
H2134 C2109 0.929 . S
H2135 C2111 0.932 . S
Cd2136 O2193 2.350 . S
Cd2136 O2194 2.277 . S
Cd2136 O2201 2.173 . S
Cd2136 O2203 2.263 . S
Cd2136 O2205 2.366 . S
Cd2136 O2208 2.329 . S
C2137 O2201 1.277 . S
C2137 O2202 1.230 . S
C2138 O2139 1.246 . S
C2138 C2141 1.481 . S
C2138 N2163 1.329 . S
O2139 C2138 1.246 . S
Cd2140 O2202 2.250 . S
Cd2140 O2204 2.308 . S
Cd2140 O2207 2.352 . S
C2141 C2138 1.481 . S
C2141 N2144 1.327 . S
C2141 C2145 1.407 . S
C2142 C2143 1.346 . S
C2142 C2146 1.390 . S
C2142 H2210 0.930 . S
C2143 C2142 1.346 . S
C2143 N2144 1.342 . S
C2143 C2148 1.516 . S
N2144 C2141 1.327 . S
N2144 C2143 1.342 . S
N2144 Co2147 1.864 . S
C2145 C2141 1.407 . S
C2145 C2146 1.364 . S
C2145 H2211 0.930 . S
C2146 C2142 1.390 . S
C2146 C2145 1.364 . S
C2146 H2212 0.931 . S
Co2147 N2144 1.864 . S
Co2147 N2163 1.955 . S
Co2147 N2164 1.958 . S
Co2147 N2165 1.953 . S
Co2147 N2183 1.869 . S
Co2147 N2189 1.974 . S
C2148 C2143 1.516 . S
C2148 O2149 1.238 . S
C2148 N2164 1.324 . S
O2149 C2148 1.238 . S
C2150 C2151 1.394 . S
C2150 C2155 1.395 . S
C2150 N2164 1.427 . S
C2151 C2150 1.394 . S
C2151 C2152 1.380 . S
C2151 H2213 0.929 . S
C2152 C2151 1.380 . S
C2152 C2153 1.384 . S
C2152 C2156 1.495 . S
C2153 C2152 1.384 . S
C2153 C2154 1.382 . S
C2153 H2214 0.930 . S
C2154 C2153 1.382 . S
C2154 C2155 1.398 . S
C2155 C2150 1.395 . S
C2155 C2154 1.398 . S
C2155 H2215 0.930 . S
C2156 C2152 1.495 . S
C2156 O2203 1.258 . S
C2156 O2204 1.274 . S
C2157 C2158 1.385 . S
C2157 C2159 1.381 . S
C2157 N2163 1.432 . S
C2158 C2157 1.385 . S
C2158 C2162 1.388 . S
C2158 H2216 0.929 . S
C2159 C2157 1.381 . S
C2159 C2160 1.371 . S
C2159 H2217 0.932 . S
C2160 C2159 1.371 . S
C2160 C2161 1.400 . S
C2161 C2160 1.400 . S
C2161 C2162 1.351 . S
C2161 H2218 0.939 . S
C2162 C2158 1.388 . S
C2162 C2161 1.351 . S
N2163 C2138 1.329 . S
N2163 Co2147 1.955 . S
N2163 C2157 1.432 . S
N2164 Co2147 1.958 . S
N2164 C2148 1.324 . S
N2164 C2150 1.427 . S
N2165 Co2147 1.953 . S
N2165 C2166 1.436 . S
N2165 C2192 1.316 . S
C2166 N2165 1.436 . S
C2166 C2167 1.421 . S
C2166 C2168 1.360 . S
C2167 C2166 1.421 . S
C2167 C2169 1.379 . S
C2167 H2170 0.929 . S
C2168 C2166 1.360 . S
C2168 C2172 1.393 . S
C2168 H2174 0.931 . S
C2169 C2167 1.379 . S
C2169 C2171 1.417 . S
C2169 C2173 1.505 . S
H2170 C2167 0.929 . S
C2171 C2169 1.417 . S
C2171 C2172 1.352 . S
C2171 H2175 0.929 . S
C2172 C2168 1.393 . S
C2172 C2171 1.352 . S
C2172 C2176 1.482 . S
C2173 C2169 1.505 . S
C2173 O2177 1.259 . S
C2173 O2178 1.229 . S
H2174 C2168 0.931 . S
H2175 C2171 0.929 . S
C2176 C2172 1.482 . S
C2176 O2179 1.207 . S
C2176 O2180 1.289 . S
O2177 C2173 1.259 . S
O2177 H2181 0.822 . S
O2178 C2173 1.229 . S
O2179 C2176 1.207 . S
O2180 C2176 1.289 . S
O2180 H2182 0.819 . S
H2181 O2177 0.822 . S
H2182 O2180 0.819 . S
N2183 Co2147 1.869 . S
N2183 C2184 1.330 . S
N2183 C2188 1.325 . S
C2184 N2183 1.330 . S
C2184 C2185 1.359 . S
C2184 C2190 1.504 . S
C2185 C2184 1.359 . S
C2185 C2186 1.366 . S
C2185 H2219 0.929 . S
C2186 C2185 1.366 . S
C2186 C2187 1.415 . S
C2186 H2220 0.932 . S
C2187 C2186 1.415 . S
C2187 C2188 1.366 . S
C2187 H2221 0.931 . S
C2188 N2183 1.325 . S
C2188 C2187 1.366 . S
C2188 C2192 1.516 . S
N2189 Co2147 1.974 . S
N2189 C2190 1.309 . S
N2189 C2195 1.423 . S
C2190 C2184 1.504 . S
C2190 N2189 1.309 . S
C2190 O2191 1.258 . S
O2191 C2190 1.258 . S
C2192 N2165 1.316 . S
C2192 C2188 1.516 . S
C2192 O2205 1.263 . S
O2193 Cd2136 2.350 . S
O2193 C2209 1.270 . S
O2194 Cd2136 2.277 . S
O2194 C2209 1.248 . S
C2195 N2189 1.423 . S
C2195 C2196 1.370 . S
C2195 C2200 1.403 . S
C2196 C2195 1.370 . S
C2196 C2197 1.389 . S
C2196 H2222 0.931 . S
C2197 C2196 1.389 . S
C2197 C2198 1.389 . S
C2198 C2197 1.389 . S
C2198 C2199 1.379 1_655 S
C2198 H2223 0.929 1_655 S
C2199 C2198 1.379 1_455 S
C2199 C2200 1.405 1_455 S
C2200 C2195 1.403 . S
C2200 C2199 1.405 1_655 S
C2200 H2224 0.932 1_655 S
O2201 Cd2136 2.173 . S
O2201 C2137 1.277 . S
O2202 C2137 1.230 . S
O2202 Cd2140 2.250 . S
O2203 Cd2136 2.263 . S
O2203 C2156 1.258 . S
O2204 Cd2140 2.308 . S
O2204 C2156 1.274 . S
O2205 Cd2136 2.366 . S
O2205 C2192 1.263 . S
C2206 O2207 1.235 . S
C2206 O2208 1.270 . S
O2207 Cd2140 2.352 . S
O2207 C2206 1.235 . S
O2208 Cd2136 2.329 . S
O2208 C2206 1.270 . S
C2209 O2193 1.270 . S
C2209 O2194 1.248 . S
H2210 C2142 0.930 . S
H2211 C2145 0.930 . S
H2212 C2146 0.931 . S
H2213 C2151 0.929 . S
H2214 C2153 0.930 . S
H2215 C2155 0.930 . S
H2216 C2158 0.929 . S
H2217 C2159 0.932 . S
H2218 C2161 0.939 . S
H2219 C2185 0.929 . S
H2220 C2186 0.932 . S
H2221 C2187 0.931 . S
H2222 C2196 0.931 . S
H2223 C2198 0.929 1_455 S
H2224 C2200 0.932 1_455 S
Cd2225 O2282 2.350 . S
Cd2225 O2283 2.277 . S
Cd2225 O2290 2.173 . S
Cd2225 O2292 2.263 . S
Cd2225 O2294 2.366 . S
Cd2225 O2297 2.329 . S
C2226 O2290 1.277 . S
C2226 O2291 1.230 . S
C2227 O2228 1.246 . S
C2227 C2230 1.481 . S
C2227 N2252 1.329 . S
O2228 C2227 1.246 . S
Cd2229 O2291 2.250 . S
Cd2229 O2293 2.308 . S
Cd2229 O2296 2.352 . S
C2230 C2227 1.481 . S
C2230 N2233 1.327 . S
C2230 C2234 1.407 . S
C2231 C2232 1.346 . S
C2231 C2235 1.390 . S
C2231 H2299 0.930 . S
C2232 C2231 1.346 . S
C2232 N2233 1.342 . S
C2232 C2237 1.516 . S
N2233 C2230 1.327 . S
N2233 C2232 1.342 . S
N2233 Co2236 1.864 . S
C2234 C2230 1.407 . S
C2234 C2235 1.364 . S
C2234 H2300 0.930 . S
C2235 C2231 1.390 . S
C2235 C2234 1.364 . S
C2235 H2301 0.931 . S
Co2236 N2233 1.864 . S
Co2236 N2252 1.955 . S
Co2236 N2253 1.958 . S
Co2236 N2254 1.953 . S
Co2236 N2272 1.869 . S
Co2236 N2278 1.974 . S
C2237 C2232 1.516 . S
C2237 O2238 1.238 . S
C2237 N2253 1.324 . S
O2238 C2237 1.238 . S
C2239 C2240 1.394 . S
C2239 C2244 1.395 . S
C2239 N2253 1.427 . S
C2240 C2239 1.394 . S
C2240 C2241 1.380 . S
C2240 H2302 0.929 . S
C2241 C2240 1.380 . S
C2241 C2242 1.384 . S
C2241 C2245 1.495 . S
C2242 C2241 1.384 . S
C2242 C2243 1.382 . S
C2242 H2303 0.930 . S
C2243 C2242 1.382 . S
C2243 C2244 1.398 . S
C2244 C2239 1.395 . S
C2244 C2243 1.398 . S
C2244 H2304 0.930 . S
C2245 C2241 1.495 . S
C2245 O2292 1.258 . S
C2245 O2293 1.274 . S
C2246 C2247 1.385 . S
C2246 C2248 1.381 . S
C2246 N2252 1.432 . S
C2247 C2246 1.385 . S
C2247 C2251 1.388 . S
C2247 H2305 0.929 . S
C2248 C2246 1.381 . S
C2248 C2249 1.371 . S
C2248 H2306 0.932 . S
C2249 C2248 1.371 . S
C2249 C2250 1.400 . S
C2250 C2249 1.400 . S
C2250 C2251 1.351 . S
C2250 H2307 0.930 . S
C2251 C2247 1.388 . S
C2251 C2250 1.351 . S
N2252 C2227 1.329 . S
N2252 Co2236 1.955 . S
N2252 C2246 1.432 . S
N2253 Co2236 1.958 . S
N2253 C2237 1.324 . S
N2253 C2239 1.427 . S
N2254 Co2236 1.953 . S
N2254 C2255 1.436 . S
N2254 C2281 1.316 . S
C2255 N2254 1.436 . S
C2255 C2256 1.421 . S
C2255 C2257 1.360 . S
C2256 C2255 1.421 . S
C2256 C2258 1.379 . S
C2256 H2259 0.929 . S
C2257 C2255 1.360 . S
C2257 C2261 1.393 . S
C2257 H2263 0.931 . S
C2258 C2256 1.379 . S
C2258 C2260 1.417 . S
C2258 C2262 1.505 . S
H2259 C2256 0.929 . S
C2260 C2258 1.417 . S
C2260 C2261 1.352 . S
C2260 H2264 0.929 . S
C2261 C2257 1.393 . S
C2261 C2260 1.352 . S
C2261 C2265 1.482 . S
C2262 C2258 1.505 . S
C2262 O2266 1.259 . S
C2262 O2267 1.229 . S
H2263 C2257 0.931 . S
H2264 C2260 0.929 . S
C2265 C2261 1.482 . S
C2265 O2268 1.207 . S
C2265 O2269 1.289 . S
O2266 C2262 1.259 . S
O2266 H2270 0.822 . S
O2267 C2262 1.229 . S
O2268 C2265 1.207 . S
O2269 C2265 1.289 . S
O2269 H2271 0.819 1_545 S
H2270 O2266 0.822 . S
H2271 O2269 0.819 1_565 S
N2272 Co2236 1.869 . S
N2272 C2273 1.330 . S
N2272 C2277 1.325 . S
C2273 N2272 1.330 . S
C2273 C2274 1.359 . S
C2273 C2279 1.504 . S
C2274 C2273 1.359 . S
C2274 C2275 1.366 . S
C2274 H2308 0.929 . S
C2275 C2274 1.366 . S
C2275 C2276 1.415 . S
C2275 H2309 0.932 . S
C2276 C2275 1.415 . S
C2276 C2277 1.366 . S
C2276 H2310 0.931 . S
C2277 N2272 1.325 . S
C2277 C2276 1.366 . S
C2277 C2281 1.516 . S
N2278 Co2236 1.974 . S
N2278 C2279 1.309 . S
N2278 C2284 1.423 . S
C2279 C2273 1.504 . S
C2279 N2278 1.309 . S
C2279 O2280 1.258 . S
O2280 C2279 1.258 . S
C2281 N2254 1.316 . S
C2281 C2277 1.516 . S
C2281 O2294 1.263 . S
O2282 Cd2225 2.350 . S
O2282 C2298 1.270 . S
O2283 Cd2225 2.277 . S
O2283 C2298 1.248 . S
C2284 N2278 1.423 . S
C2284 C2285 1.370 . S
C2284 C2289 1.403 . S
C2285 C2284 1.370 . S
C2285 C2286 1.389 . S
C2285 H2311 0.931 . S
C2286 C2285 1.389 . S
C2286 C2287 1.389 . S
C2287 C2286 1.389 . S
C2287 C2288 1.379 . S
C2287 H2312 0.929 . S
C2288 C2287 1.379 . S
C2288 C2289 1.405 . S
C2289 C2284 1.403 . S
C2289 C2288 1.405 . S
C2289 H2313 0.932 . S
O2290 Cd2225 2.173 . S
O2290 C2226 1.277 . S
O2291 C2226 1.230 . S
O2291 Cd2229 2.250 . S
O2292 Cd2225 2.263 . S
O2292 C2245 1.258 . S
O2293 Cd2229 2.308 . S
O2293 C2245 1.274 . S
O2294 Cd2225 2.366 . S
O2294 C2281 1.263 . S
C2295 O2296 1.235 . S
C2295 O2297 1.270 . S
O2296 Cd2229 2.352 . S
O2296 C2295 1.235 . S
O2297 Cd2225 2.329 . S
O2297 C2295 1.270 . S
C2298 O2282 1.270 . S
C2298 O2283 1.248 . S
H2299 C2231 0.930 . S
H2300 C2234 0.930 . S
H2301 C2235 0.931 . S
H2302 C2240 0.929 . S
H2303 C2242 0.930 . S
H2304 C2244 0.930 . S
H2305 C2247 0.929 . S
H2306 C2248 0.932 . S
H2307 C2250 0.930 . S
H2308 C2274 0.929 . S
H2309 C2275 0.932 . S
H2310 C2276 0.931 . S
H2311 C2285 0.931 . S
H2312 C2287 0.929 . S
H2313 C2289 0.932 . S
Cd2314 O2371 2.350 . S
Cd2314 O2372 2.277 . S
Cd2314 O2379 2.173 . S
Cd2314 O2381 2.263 . S
Cd2314 O2383 2.366 . S
Cd2314 O2386 2.329 . S
C2315 O2379 1.277 . S
C2315 O2380 1.230 . S
C2316 O2317 1.246 . S
C2316 C2319 1.481 1_655 S
C2316 N2341 1.329 . S
O2317 C2316 1.246 . S
Cd2318 O2380 2.250 . S
Cd2318 O2382 2.308 . S
Cd2318 O2385 2.352 . S
C2319 C2316 1.481 1_455 S
C2319 N2322 1.327 . S
C2319 C2323 1.407 . S
C2320 C2321 1.346 . S
C2320 C2324 1.390 . S
C2320 H2388 0.930 . S
C2321 C2320 1.346 . S
C2321 N2322 1.342 . S
C2321 C2326 1.516 . S
N2322 C2319 1.327 . S
N2322 C2321 1.342 . S
N2322 Co2325 1.864 1_455 S
C2323 C2319 1.407 . S
C2323 C2324 1.364 . S
C2323 H2389 0.930 . S
C2324 C2320 1.390 . S
C2324 C2323 1.364 . S
C2324 H2390 0.931 . S
Co2325 N2322 1.864 1_655 S
Co2325 N2341 1.955 . S
Co2325 N2342 1.958 1_655 S
Co2325 N2343 1.953 . S
Co2325 N2361 1.869 . S
Co2325 N2367 1.974 . S
C2326 C2321 1.516 . S
C2326 O2327 1.238 . S
C2326 N2342 1.324 . S
O2327 C2326 1.238 . S
C2328 C2329 1.394 . S
C2328 C2333 1.395 . S
C2328 N2342 1.427 . S
C2329 C2328 1.394 . S
C2329 C2330 1.380 1_455 S
C2329 H2391 0.929 1_455 S
C2330 C2329 1.380 1_655 S
C2330 C2331 1.384 . S
C2330 C2334 1.495 . S
C2331 C2330 1.384 . S
C2331 C2332 1.382 1_655 S
C2331 H2392 0.930 . S
C2332 C2331 1.382 1_455 S
C2332 C2333 1.398 . S
C2333 C2328 1.395 . S
C2333 C2332 1.398 . S
C2333 H2393 0.930 . S
C2334 C2330 1.495 . S
C2334 O2381 1.258 . S
C2334 O2382 1.274 . S
C2335 C2336 1.385 . S
C2335 C2337 1.381 . S
C2335 N2341 1.432 . S
C2336 C2335 1.385 . S
C2336 C2340 1.388 . S
C2336 H2394 0.929 . S
C2337 C2335 1.381 . S
C2337 C2338 1.371 . S
C2337 H2395 0.932 . S
C2338 C2337 1.371 . S
C2338 C2339 1.400 . S
C2339 C2338 1.400 . S
C2339 C2340 1.351 . S
C2339 H2396 0.930 . S
C2340 C2336 1.388 . S
C2340 C2339 1.351 . S
N2341 C2316 1.329 . S
N2341 Co2325 1.955 . S
N2341 C2335 1.432 . S
N2342 Co2325 1.958 1_455 S
N2342 C2326 1.324 . S
N2342 C2328 1.427 . S
N2343 Co2325 1.953 . S
N2343 C2344 1.436 . S
N2343 C2370 1.316 . S
C2344 N2343 1.436 . S
C2344 C2345 1.421 . S
C2344 C2346 1.360 1_655 S
C2345 C2344 1.421 . S
C2345 C2347 1.379 1_655 S
C2345 H2348 0.929 . S
C2346 C2344 1.360 1_455 S
C2346 C2350 1.393 . S
C2346 H2352 0.931 . S
C2347 C2345 1.379 1_455 S
C2347 C2349 1.417 . S
C2347 C2351 1.505 1_455 S
H2348 C2345 0.929 . S
C2349 C2347 1.417 . S
C2349 C2350 1.352 . S
C2349 H2353 0.929 . S
C2350 C2346 1.393 . S
C2350 C2349 1.352 . S
C2350 C2354 1.482 . S
C2351 C2347 1.505 1_655 S
C2351 O2355 1.259 1_655 S
C2351 O2356 1.229 . S
H2352 C2346 0.931 . S
H2353 C2349 0.929 . S
C2354 C2350 1.482 . S
C2354 O2357 1.207 . S
C2354 O2358 1.289 . S
O2355 C2351 1.259 1_455 S
O2355 H2359 0.822 . S
O2356 C2351 1.229 . S
O2357 C2354 1.207 . S
O2358 C2354 1.289 . S
O2358 H2360 0.819 . S
H2359 O2355 0.822 . S
H2360 O2358 0.819 . S
N2361 Co2325 1.869 . S
N2361 C2362 1.330 . S
N2361 C2366 1.325 . S
C2362 N2361 1.330 . S
C2362 C2363 1.359 . S
C2362 C2368 1.504 . S
C2363 C2362 1.359 . S
C2363 C2364 1.366 . S
C2363 H2397 0.929 . S
C2364 C2363 1.366 . S
C2364 C2365 1.415 . S
C2364 H2398 0.932 . S
C2365 C2364 1.415 . S
C2365 C2366 1.366 . S
C2365 H2399 0.931 . S
C2366 N2361 1.325 . S
C2366 C2365 1.366 . S
C2366 C2370 1.516 . S
N2367 Co2325 1.974 . S
N2367 C2368 1.309 . S
N2367 C2373 1.423 . S
C2368 C2362 1.504 . S
C2368 N2367 1.309 . S
C2368 O2369 1.258 . S
O2369 C2368 1.258 . S
C2370 N2343 1.316 . S
C2370 C2366 1.516 . S
C2370 O2383 1.263 . S
O2371 Cd2314 2.350 . S
O2371 C2387 1.270 . S
O2372 Cd2314 2.277 . S
O2372 C2387 1.248 . S
C2373 N2367 1.423 . S
C2373 C2374 1.370 1_655 S
C2373 C2378 1.403 . S
C2374 C2373 1.370 1_455 S
C2374 C2375 1.389 . S
C2374 H2400 0.931 . S
C2375 C2374 1.389 . S
C2375 C2376 1.389 . S
C2376 C2375 1.389 . S
C2376 C2377 1.379 . S
C2376 H2401 0.929 . S
C2377 C2376 1.379 . S
C2377 C2378 1.405 1_455 S
C2378 C2373 1.403 . S
C2378 C2377 1.405 1_655 S
C2378 H2402 0.932 . S
O2379 Cd2314 2.173 . S
O2379 C2315 1.277 . S
O2380 C2315 1.230 . S
O2380 Cd2318 2.250 . S
O2381 Cd2314 2.263 . S
O2381 C2334 1.258 . S
O2382 Cd2318 2.308 . S
O2382 C2334 1.274 . S
O2383 Cd2314 2.366 . S
O2383 C2370 1.263 . S
C2384 O2385 1.235 . S
C2384 O2386 1.270 . S
O2385 Cd2318 2.352 . S
O2385 C2384 1.235 . S
O2386 Cd2314 2.329 . S
O2386 C2384 1.270 . S
C2387 O2371 1.270 . S
C2387 O2372 1.248 . S
H2388 C2320 0.930 . S
H2389 C2323 0.930 . S
H2390 C2324 0.931 . S
H2391 C2329 0.929 1_655 S
H2392 C2331 0.930 . S
H2393 C2333 0.930 . S
H2394 C2336 0.929 . S
H2395 C2337 0.932 . S
H2396 C2339 0.930 . S
H2397 C2363 0.929 . S
H2398 C2364 0.932 . S
H2399 C2365 0.931 . S
H2400 C2374 0.931 . S
H2401 C2376 0.929 . S
H2402 C2378 0.932 . S
Cd2403 O2460 2.350 . S
Cd2403 O2461 2.277 . S
Cd2403 O2468 2.173 . S
Cd2403 O2470 2.263 . S
Cd2403 O2472 2.366 . S
Cd2403 O2475 2.329 . S
C2404 O2468 1.277 . S
C2404 O2469 1.230 . S
C2405 O2406 1.246 . S
C2405 C2408 1.481 . S
C2405 N2430 1.329 . S
O2406 C2405 1.246 . S
Cd2407 O2469 2.250 . S
Cd2407 O2471 2.308 . S
Cd2407 O2474 2.352 . S
C2408 C2405 1.481 . S
C2408 N2411 1.327 . S
C2408 C2412 1.407 . S
C2409 C2410 1.346 . S
C2409 C2413 1.390 . S
C2409 H2477 0.930 . S
C2410 C2409 1.346 . S
C2410 N2411 1.342 . S
C2410 C2415 1.516 . S
N2411 C2408 1.327 . S
N2411 C2410 1.342 . S
N2411 Co2414 1.864 . S
C2412 C2408 1.407 . S
C2412 C2413 1.364 . S
C2412 H2478 0.930 . S
C2413 C2409 1.390 . S
C2413 C2412 1.364 . S
C2413 H2479 0.931 . S
Co2414 N2411 1.864 . S
Co2414 N2430 1.955 . S
Co2414 N2431 1.958 . S
Co2414 N2432 1.953 . S
Co2414 N2450 1.869 . S
Co2414 N2456 1.974 . S
C2415 C2410 1.516 . S
C2415 O2416 1.238 . S
C2415 N2431 1.324 . S
O2416 C2415 1.238 . S
C2417 C2418 1.394 . S
C2417 C2422 1.395 . S
C2417 N2431 1.427 . S
C2418 C2417 1.394 . S
C2418 C2419 1.380 . S
C2418 H2480 0.929 . S
C2419 C2418 1.380 . S
C2419 C2420 1.384 . S
C2419 C2423 1.495 . S
C2420 C2419 1.384 . S
C2420 C2421 1.382 . S
C2420 H2481 0.930 . S
C2421 C2420 1.382 . S
C2421 C2422 1.398 . S
C2422 C2417 1.395 . S
C2422 C2421 1.398 . S
C2422 H2482 0.930 . S
C2423 C2419 1.495 . S
C2423 O2470 1.258 . S
C2423 O2471 1.274 . S
C2424 C2425 1.385 . S
C2424 C2426 1.381 . S
C2424 N2430 1.432 . S
C2425 C2424 1.385 . S
C2425 C2429 1.388 . S
C2425 H2483 0.929 . S
C2426 C2424 1.381 . S
C2426 C2427 1.371 . S
C2426 H2484 0.932 . S
C2427 C2426 1.371 . S
C2427 C2428 1.400 . S
C2428 C2427 1.400 . S
C2428 C2429 1.351 . S
C2428 H2485 0.930 . S
C2429 C2425 1.388 . S
C2429 C2428 1.351 . S
N2430 C2405 1.329 . S
N2430 Co2414 1.955 . S
N2430 C2424 1.432 . S
N2431 Co2414 1.958 . S
N2431 C2415 1.324 . S
N2431 C2417 1.427 . S
N2432 Co2414 1.953 . S
N2432 C2433 1.436 . S
N2432 C2459 1.316 . S
C2433 N2432 1.436 . S
C2433 C2434 1.421 . S
C2433 C2435 1.360 . S
C2434 C2433 1.421 . S
C2434 C2436 1.379 . S
C2434 H2437 0.929 . S
C2435 C2433 1.360 . S
C2435 C2439 1.393 . S
C2435 H2441 0.931 . S
C2436 C2434 1.379 . S
C2436 C2438 1.417 . S
C2436 C2440 1.505 1_554 S
H2437 C2434 0.929 . S
C2438 C2436 1.417 . S
C2438 C2439 1.352 . S
C2438 H2442 0.958 . S
C2439 C2435 1.393 . S
C2439 C2438 1.352 . S
C2439 C2443 1.482 . S
C2440 C2436 1.505 1_556 S
C2440 O2444 1.259 . S
C2440 O2445 1.229 . S
H2441 C2435 0.931 . S
H2442 C2438 0.958 . S
C2443 C2439 1.482 . S
C2443 O2446 1.207 . S
C2443 O2447 1.289 . S
O2444 C2440 1.259 . S
O2444 H2448 0.822 . S
O2445 C2440 1.229 . S
O2446 C2443 1.207 . S
O2447 C2443 1.289 . S
O2447 H2449 0.819 . S
H2448 O2444 0.822 . S
H2449 O2447 0.819 . S
N2450 Co2414 1.869 . S
N2450 C2451 1.330 . S
N2450 C2455 1.325 . S
C2451 N2450 1.330 . S
C2451 C2452 1.359 . S
C2451 C2457 1.504 . S
C2452 C2451 1.359 . S
C2452 C2453 1.366 . S
C2452 H2486 0.929 . S
C2453 C2452 1.366 . S
C2453 C2454 1.415 . S
C2453 H2487 0.932 . S
C2454 C2453 1.415 . S
C2454 C2455 1.366 . S
C2454 H2488 0.931 . S
C2455 N2450 1.325 . S
C2455 C2454 1.366 . S
C2455 C2459 1.516 . S
N2456 Co2414 1.974 . S
N2456 C2457 1.309 . S
N2456 C2462 1.423 . S
C2457 C2451 1.504 . S
C2457 N2456 1.309 . S
C2457 O2458 1.258 . S
O2458 C2457 1.258 . S
C2459 N2432 1.316 . S
C2459 C2455 1.516 . S
C2459 O2472 1.263 . S
O2460 Cd2403 2.350 . S
O2460 C2476 1.270 . S
O2461 Cd2403 2.277 . S
O2461 C2476 1.248 . S
C2462 N2456 1.423 . S
C2462 C2463 1.370 . S
C2462 C2467 1.403 . S
C2463 C2462 1.370 . S
C2463 C2464 1.389 . S
C2463 H2489 0.931 . S
C2464 C2463 1.389 . S
C2464 C2465 1.389 . S
C2465 C2464 1.389 . S
C2465 C2466 1.379 . S
C2465 H2490 0.929 . S
C2466 C2465 1.379 . S
C2466 C2467 1.405 . S
C2467 C2462 1.403 . S
C2467 C2466 1.405 . S
C2467 H2491 0.932 . S
O2468 Cd2403 2.173 . S
O2468 C2404 1.277 . S
O2469 C2404 1.230 . S
O2469 Cd2407 2.250 . S
O2470 Cd2403 2.263 . S
O2470 C2423 1.258 . S
O2471 Cd2407 2.308 . S
O2471 C2423 1.274 . S
O2472 Cd2403 2.366 . S
O2472 C2459 1.263 . S
C2473 O2474 1.235 . S
C2473 O2475 1.270 . S
O2474 Cd2407 2.352 . S
O2474 C2473 1.235 . S
O2475 Cd2403 2.329 . S
O2475 C2473 1.270 . S
C2476 O2460 1.270 . S
C2476 O2461 1.248 . S
H2477 C2409 0.930 . S
H2478 C2412 0.930 . S
H2479 C2413 0.931 . S
H2480 C2418 0.929 . S
H2481 C2420 0.930 . S
H2482 C2422 0.930 . S
H2483 C2425 0.929 . S
H2484 C2426 0.932 . S
H2485 C2428 0.930 . S
H2486 C2452 0.929 . S
H2487 C2453 0.932 . S
H2488 C2454 0.931 . S
H2489 C2463 0.931 . S
H2490 C2465 0.929 . S
H2491 C2467 0.932 . S
Cd2492 O2549 2.350 . S
Cd2492 O2550 2.277 . S
Cd2492 O2557 2.173 . S
Cd2492 O2559 2.263 . S
Cd2492 O2561 2.366 . S
Cd2492 O2564 2.329 . S
C2493 O2557 1.277 . S
C2493 O2558 1.230 . S
C2494 O2495 1.246 . S
C2494 C2497 1.481 . S
C2494 N2519 1.329 . S
O2495 C2494 1.246 . S
Cd2496 O2558 2.250 . S
Cd2496 O2560 2.308 . S
Cd2496 O2563 2.352 . S
C2497 C2494 1.481 . S
C2497 N2500 1.327 . S
C2497 C2501 1.407 . S
C2498 C2499 1.346 . S
C2498 C2502 1.390 . S
C2498 H2566 0.930 . S
C2499 C2498 1.346 . S
C2499 N2500 1.342 . S
C2499 C2504 1.516 . S
N2500 C2497 1.327 . S
N2500 C2499 1.342 . S
N2500 Co2503 1.864 . S
C2501 C2497 1.407 . S
C2501 C2502 1.364 . S
C2501 H2567 0.930 . S
C2502 C2498 1.390 . S
C2502 C2501 1.364 . S
C2502 H2568 0.931 . S
Co2503 N2500 1.864 . S
Co2503 N2519 1.955 . S
Co2503 N2520 1.958 . S
Co2503 N2521 1.953 . S
Co2503 N2539 1.869 . S
Co2503 N2545 1.974 . S
C2504 C2499 1.516 . S
C2504 O2505 1.238 1_655 S
C2504 N2520 1.324 . S
O2505 C2504 1.238 1_455 S
C2506 C2507 1.394 1_655 S
C2506 C2511 1.395 . S
C2506 N2520 1.427 . S
C2507 C2506 1.394 1_455 S
C2507 C2508 1.380 . S
C2507 H2569 0.929 . S
C2508 C2507 1.380 . S
C2508 C2509 1.384 . S
C2508 C2512 1.495 . S
C2509 C2508 1.384 . S
C2509 C2510 1.382 . S
C2509 H2570 0.930 . S
C2510 C2509 1.382 . S
C2510 C2511 1.398 1_455 S
C2511 C2506 1.395 . S
C2511 C2510 1.398 1_655 S
C2511 H2571 0.930 . S
C2512 C2508 1.495 . S
C2512 O2559 1.258 . S
C2512 O2560 1.274 . S
C2513 C2514 1.385 . S
C2513 C2515 1.381 . S
C2513 N2519 1.432 . S
C2514 C2513 1.385 . S
C2514 C2518 1.388 . S
C2514 H2572 0.929 . S
C2515 C2513 1.381 . S
C2515 C2516 1.371 . S
C2515 H2573 0.932 . S
C2516 C2515 1.371 . S
C2516 C2517 1.400 . S
C2517 C2516 1.400 . S
C2517 C2518 1.351 . S
C2517 H2574 0.930 . S
C2518 C2514 1.388 . S
C2518 C2517 1.351 . S
N2519 C2494 1.329 . S
N2519 Co2503 1.955 . S
N2519 C2513 1.432 . S
N2520 Co2503 1.958 . S
N2520 C2504 1.324 . S
N2520 C2506 1.427 . S
N2521 Co2503 1.953 . S
N2521 C2522 1.436 1_655 S
N2521 C2548 1.316 . S
C2522 N2521 1.436 1_455 S
C2522 C2523 1.421 1_455 S
C2522 C2524 1.360 . S
C2523 C2522 1.421 1_655 S
C2523 C2525 1.379 1_655 S
C2523 H2526 0.929 . S
C2524 C2522 1.360 . S
C2524 C2528 1.393 . S
C2524 H2530 0.931 . S
C2525 C2523 1.379 1_455 S
C2525 C2527 1.417 . S
C2525 C2529 1.505 1_554 S
H2526 C2523 0.929 . S
C2527 C2525 1.417 . S
C2527 C2528 1.352 . S
C2527 H2531 0.959 . S
C2528 C2524 1.393 . S
C2528 C2527 1.352 . S
C2528 C2532 1.482 . S
C2529 C2525 1.505 1_556 S
C2529 O2533 1.259 . S
C2529 O2534 1.229 1_455 S
H2530 C2524 0.931 . S
H2531 C2527 0.959 . S
C2532 C2528 1.482 . S
C2532 O2535 1.207 . S
C2532 O2536 1.289 . S
O2533 C2529 1.259 . S
O2533 H2537 0.822 . S
O2534 C2529 1.229 1_655 S
O2535 C2532 1.207 . S
O2536 C2532 1.289 . S
O2536 H2538 0.819 . S
H2537 O2533 0.822 . S
H2538 O2536 0.819 . S
N2539 Co2503 1.869 . S
N2539 C2540 1.330 . S
N2539 C2544 1.325 . S
C2540 N2539 1.330 . S
C2540 C2541 1.359 . S
C2540 C2546 1.504 . S
C2541 C2540 1.359 . S
C2541 C2542 1.366 . S
C2541 H2575 0.929 . S
C2542 C2541 1.366 . S
C2542 C2543 1.415 . S
C2542 H2576 0.932 . S
C2543 C2542 1.415 . S
C2543 C2544 1.366 . S
C2543 H2577 0.931 . S
C2544 N2539 1.325 . S
C2544 C2543 1.366 . S
C2544 C2548 1.516 . S
N2545 Co2503 1.974 . S
N2545 C2546 1.309 . S
N2545 C2551 1.423 . S
C2546 C2540 1.504 . S
C2546 N2545 1.309 . S
C2546 O2547 1.258 . S
O2547 C2546 1.258 . S
C2548 N2521 1.316 . S
C2548 C2544 1.516 . S
C2548 O2561 1.263 1_655 S
O2549 Cd2492 2.350 . S
O2549 C2565 1.270 . S
O2550 Cd2492 2.277 . S
O2550 C2565 1.248 . S
C2551 N2545 1.423 . S
C2551 C2552 1.370 . S
C2551 C2556 1.403 . S
C2552 C2551 1.370 . S
C2552 C2553 1.389 . S
C2552 H2578 0.931 . S
C2553 C2552 1.389 . S
C2553 C2554 1.389 . S
C2554 C2553 1.389 . S
C2554 C2555 1.379 . S
C2554 H2579 0.929 . S
C2555 C2554 1.379 . S
C2555 C2556 1.405 . S
C2556 C2551 1.403 . S
C2556 C2555 1.405 . S
C2556 H2580 0.932 . S
O2557 Cd2492 2.173 . S
O2557 C2493 1.277 . S
O2558 C2493 1.230 . S
O2558 Cd2496 2.250 . S
O2559 Cd2492 2.263 . S
O2559 C2512 1.258 . S
O2560 Cd2496 2.308 . S
O2560 C2512 1.274 . S
O2561 Cd2492 2.366 . S
O2561 C2548 1.263 1_455 S
C2562 O2563 1.235 . S
C2562 O2564 1.270 . S
O2563 Cd2496 2.352 . S
O2563 C2562 1.235 . S
O2564 Cd2492 2.329 . S
O2564 C2562 1.270 . S
C2565 O2549 1.270 . S
C2565 O2550 1.248 . S
H2566 C2498 0.930 . S
H2567 C2501 0.930 . S
H2568 C2502 0.931 . S
H2569 C2507 0.929 . S
H2570 C2509 0.930 . S
H2571 C2511 0.930 . S
H2572 C2514 0.929 . S
H2573 C2515 0.932 . S
H2574 C2517 0.930 . S
H2575 C2541 0.929 . S
H2576 C2542 0.932 . S
H2577 C2543 0.931 . S
H2578 C2552 0.931 . S
H2579 C2554 0.929 . S
H2580 C2556 0.932 . S
Cd2581 O2638 2.350 . S
Cd2581 O2639 2.277 . S
Cd2581 O2646 2.173 . S
Cd2581 O2648 2.263 . S
Cd2581 O2650 2.366 . S
Cd2581 O2653 2.329 . S
C2582 O2646 1.277 . S
C2582 O2647 1.230 . S
C2583 O2584 1.246 . S
C2583 C2586 1.481 . S
C2583 N2608 1.329 . S
O2584 C2583 1.246 . S
Cd2585 O2647 2.250 . S
Cd2585 O2649 2.308 . S
Cd2585 O2652 2.352 . S
C2586 C2583 1.481 . S
C2586 N2589 1.327 . S
C2586 C2590 1.407 . S
C2587 C2588 1.346 . S
C2587 C2591 1.390 . S
C2587 H2655 0.930 . S
C2588 C2587 1.346 . S
C2588 N2589 1.342 . S
C2588 C2593 1.516 . S
N2589 C2586 1.327 . S
N2589 C2588 1.342 . S
N2589 Co2592 1.864 . S
C2590 C2586 1.407 . S
C2590 C2591 1.364 . S
C2590 H2656 0.930 . S
C2591 C2587 1.390 . S
C2591 C2590 1.364 . S
C2591 H2657 0.931 . S
Co2592 N2589 1.864 . S
Co2592 N2608 1.955 . S
Co2592 N2609 1.958 . S
Co2592 N2610 1.953 . S
Co2592 N2628 1.869 . S
Co2592 N2634 1.974 . S
C2593 C2588 1.516 . S
C2593 O2594 1.238 . S
C2593 N2609 1.324 . S
O2594 C2593 1.238 . S
C2595 C2596 1.394 . S
C2595 C2600 1.395 . S
C2595 N2609 1.427 . S
C2596 C2595 1.394 . S
C2596 C2597 1.380 . S
C2596 H2658 0.929 . S
C2597 C2596 1.380 . S
C2597 C2598 1.384 . S
C2597 C2601 1.495 . S
C2598 C2597 1.384 . S
C2598 C2599 1.382 . S
C2598 H2659 0.930 . S
C2599 C2598 1.382 . S
C2599 C2600 1.398 . S
C2600 C2595 1.395 . S
C2600 C2599 1.398 . S
C2600 H2660 0.930 . S
C2601 C2597 1.495 . S
C2601 O2648 1.258 . S
C2601 O2649 1.274 . S
C2602 C2603 1.385 . S
C2602 C2604 1.381 . S
C2602 N2608 1.432 . S
C2603 C2602 1.385 . S
C2603 C2607 1.388 . S
C2603 H2661 0.929 . S
C2604 C2602 1.381 . S
C2604 C2605 1.371 . S
C2604 H2662 0.932 . S
C2605 C2604 1.371 . S
C2605 C2606 1.400 . S
C2606 C2605 1.400 . S
C2606 C2607 1.351 . S
C2606 H2663 0.930 1_655 S
C2607 C2603 1.388 . S
C2607 C2606 1.351 . S
N2608 C2583 1.329 . S
N2608 Co2592 1.955 . S
N2608 C2602 1.432 . S
N2609 Co2592 1.958 . S
N2609 C2593 1.324 . S
N2609 C2595 1.427 . S
N2610 Co2592 1.953 . S
N2610 C2611 1.436 . S
N2610 C2637 1.316 . S
C2611 N2610 1.436 . S
C2611 C2612 1.421 . S
C2611 C2613 1.360 . S
C2612 C2611 1.421 . S
C2612 C2614 1.379 . S
C2612 H2615 0.929 . S
C2613 C2611 1.360 . S
C2613 C2617 1.393 . S
C2613 H2619 0.931 . S
C2614 C2612 1.379 . S
C2614 C2616 1.417 . S
C2614 C2618 1.505 1_554 S
H2615 C2612 0.929 . S
C2616 C2614 1.417 . S
C2616 C2617 1.352 . S
C2616 H2620 0.958 . S
C2617 C2613 1.393 . S
C2617 C2616 1.352 . S
C2617 C2621 1.482 . S
C2618 C2614 1.505 1_556 S
C2618 O2622 1.259 . S
C2618 O2623 1.229 . S
H2619 C2613 0.931 . S
H2620 C2616 0.958 . S
C2621 C2617 1.482 . S
C2621 O2624 1.207 . S
C2621 O2625 1.289 . S
O2622 C2618 1.259 . S
O2622 H2626 0.822 . S
O2623 C2618 1.229 . S
O2624 C2621 1.207 . S
O2625 C2621 1.289 . S
O2625 H2627 0.819 . S
H2626 O2622 0.822 . S
H2627 O2625 0.819 . S
N2628 Co2592 1.869 . S
N2628 C2629 1.330 . S
N2628 C2633 1.325 . S
C2629 N2628 1.330 . S
C2629 C2630 1.359 . S
C2629 C2635 1.504 . S
C2630 C2629 1.359 . S
C2630 C2631 1.366 . S
C2630 H2664 0.929 . S
C2631 C2630 1.366 . S
C2631 C2632 1.415 . S
C2631 H2665 0.932 . S
C2632 C2631 1.415 . S
C2632 C2633 1.366 . S
C2632 H2666 0.931 . S
C2633 N2628 1.325 . S
C2633 C2632 1.366 . S
C2633 C2637 1.516 . S
N2634 Co2592 1.974 . S
N2634 C2635 1.309 . S
N2634 C2640 1.423 . S
C2635 C2629 1.504 . S
C2635 N2634 1.309 . S
C2635 O2636 1.258 . S
O2636 C2635 1.258 . S
C2637 N2610 1.316 . S
C2637 C2633 1.516 . S
C2637 O2650 1.263 . S
O2638 Cd2581 2.350 . S
O2638 C2654 1.270 . S
O2639 Cd2581 2.277 . S
O2639 C2654 1.248 . S
C2640 N2634 1.423 . S
C2640 C2641 1.370 . S
C2640 C2645 1.403 . S
C2641 C2640 1.370 . S
C2641 C2642 1.389 . S
C2641 H2667 0.931 . S
C2642 C2641 1.389 . S
C2642 C2643 1.389 . S
C2643 C2642 1.389 . S
C2643 C2644 1.379 . S
C2643 H2668 0.929 . S
C2644 C2643 1.379 . S
C2644 C2645 1.405 . S
C2645 C2640 1.403 . S
C2645 C2644 1.405 . S
C2645 H2669 0.932 . S
O2646 Cd2581 2.173 . S
O2646 C2582 1.277 . S
O2647 C2582 1.230 . S
O2647 Cd2585 2.250 . S
O2648 Cd2581 2.263 . S
O2648 C2601 1.258 . S
O2649 Cd2585 2.308 . S
O2649 C2601 1.274 . S
O2650 Cd2581 2.366 . S
O2650 C2637 1.263 . S
C2651 O2652 1.235 . S
C2651 O2653 1.270 . S
O2652 Cd2585 2.352 . S
O2652 C2651 1.235 . S
O2653 Cd2581 2.329 . S
O2653 C2651 1.270 . S
C2654 O2638 1.270 . S
C2654 O2639 1.248 . S
H2655 C2587 0.930 . S
H2656 C2590 0.930 . S
H2657 C2591 0.931 . S
H2658 C2596 0.929 . S
H2659 C2598 0.930 . S
H2660 C2600 0.930 . S
H2661 C2603 0.929 . S
H2662 C2604 0.932 . S
H2663 C2606 0.930 1_455 S
H2664 C2630 0.929 . S
H2665 C2631 0.932 . S
H2666 C2632 0.931 . S
H2667 C2641 0.931 . S
H2668 C2643 0.929 . S
H2669 C2645 0.932 . S
Cd2670 O2727 2.350 . S
Cd2670 O2728 2.277 . S
Cd2670 O2735 2.173 . S
Cd2670 O2737 2.263 . S
Cd2670 O2739 2.366 . S
Cd2670 O2742 2.329 . S
C2671 O2735 1.277 . S
C2671 O2736 1.230 . S
C2672 O2673 1.246 . S
C2672 C2675 1.481 . S
C2672 N2697 1.329 . S
O2673 C2672 1.246 . S
Cd2674 O2736 2.250 . S
Cd2674 O2738 2.308 . S
Cd2674 O2741 2.352 . S
C2675 C2672 1.481 . S
C2675 N2678 1.327 . S
C2675 C2679 1.407 . S
C2676 C2677 1.346 . S
C2676 C2680 1.390 . S
C2676 H2744 0.930 . S
C2677 C2676 1.346 . S
C2677 N2678 1.342 . S
C2677 C2682 1.516 . S
N2678 C2675 1.327 . S
N2678 C2677 1.342 . S
N2678 Co2681 1.864 . S
C2679 C2675 1.407 . S
C2679 C2680 1.364 . S
C2679 H2745 0.930 . S
C2680 C2676 1.390 . S
C2680 C2679 1.364 . S
C2680 H2746 0.931 . S
Co2681 N2678 1.864 . S
Co2681 N2697 1.955 . S
Co2681 N2698 1.958 . S
Co2681 N2699 1.953 . S
Co2681 N2717 1.869 . S
Co2681 N2723 1.974 . S
C2682 C2677 1.516 . S
C2682 O2683 1.238 1_655 S
C2682 N2698 1.324 . S
O2683 C2682 1.238 1_455 S
C2684 C2685 1.394 1_655 S
C2684 C2689 1.395 . S
C2684 N2698 1.427 . S
C2685 C2684 1.394 1_455 S
C2685 C2686 1.380 . S
C2685 H2747 0.929 . S
C2686 C2685 1.380 . S
C2686 C2687 1.384 . S
C2686 C2690 1.495 . S
C2687 C2686 1.384 . S
C2687 C2688 1.382 . S
C2687 H2748 0.930 . S
C2688 C2687 1.382 . S
C2688 C2689 1.398 1_455 S
C2689 C2684 1.395 . S
C2689 C2688 1.398 1_655 S
C2689 H2749 0.930 . S
C2690 C2686 1.495 . S
C2690 O2737 1.258 . S
C2690 O2738 1.274 . S
C2691 C2692 1.385 . S
C2691 C2693 1.381 . S
C2691 N2697 1.432 . S
C2692 C2691 1.385 . S
C2692 C2696 1.388 . S
C2692 H2750 0.929 . S
C2693 C2691 1.381 . S
C2693 C2694 1.371 . S
C2693 H2751 0.932 . S
C2694 C2693 1.371 . S
C2694 C2695 1.400 . S
C2695 C2694 1.400 . S
C2695 C2696 1.351 . S
C2695 H2752 0.930 . S
C2696 C2692 1.388 . S
C2696 C2695 1.351 . S
N2697 C2672 1.329 . S
N2697 Co2681 1.955 . S
N2697 C2691 1.432 . S
N2698 Co2681 1.958 . S
N2698 C2682 1.324 . S
N2698 C2684 1.427 . S
N2699 Co2681 1.953 . S
N2699 C2700 1.436 1_655 S
N2699 C2726 1.316 . S
C2700 N2699 1.436 1_455 S
C2700 C2701 1.421 1_455 S
C2700 C2702 1.360 . S
C2701 C2700 1.421 1_655 S
C2701 C2703 1.379 1_655 S
C2701 H2704 0.929 . S
C2702 C2700 1.360 . S
C2702 C2706 1.393 . S
C2702 H2708 0.931 . S
C2703 C2701 1.379 1_455 S
C2703 C2705 1.417 . S
C2703 C2707 1.505 . S
H2704 C2701 0.929 . S
C2705 C2703 1.417 . S
C2705 C2706 1.352 . S
C2705 H2709 0.929 . S
C2706 C2702 1.393 . S
C2706 C2705 1.352 . S
C2706 C2710 1.482 . S
C2707 C2703 1.505 . S
C2707 O2711 1.259 . S
C2707 O2712 1.229 1_455 S
H2708 C2702 0.931 . S
H2709 C2705 0.929 . S
C2710 C2706 1.482 . S
C2710 O2713 1.207 . S
C2710 O2714 1.289 . S
O2711 C2707 1.259 . S
O2711 H2715 0.822 . S
O2712 C2707 1.229 1_655 S
O2713 C2710 1.207 . S
O2714 C2710 1.289 . S
O2714 H2716 0.819 . S
H2715 O2711 0.822 . S
H2716 O2714 0.819 . S
N2717 Co2681 1.869 . S
N2717 C2718 1.330 . S
N2717 C2722 1.325 . S
C2718 N2717 1.330 . S
C2718 C2719 1.359 . S
C2718 C2724 1.504 . S
C2719 C2718 1.359 . S
C2719 C2720 1.366 . S
C2719 H2753 0.929 . S
C2720 C2719 1.366 . S
C2720 C2721 1.415 . S
C2720 H2754 0.932 . S
C2721 C2720 1.415 . S
C2721 C2722 1.366 . S
C2721 H2755 0.931 . S
C2722 N2717 1.325 . S
C2722 C2721 1.366 . S
C2722 C2726 1.516 . S
N2723 Co2681 1.974 . S
N2723 C2724 1.309 . S
N2723 C2729 1.423 . S
C2724 C2718 1.504 . S
C2724 N2723 1.309 . S
C2724 O2725 1.258 . S
O2725 C2724 1.258 . S
C2726 N2699 1.316 . S
C2726 C2722 1.516 . S
C2726 O2739 1.263 1_655 S
O2727 Cd2670 2.350 . S
O2727 C2743 1.270 . S
O2728 Cd2670 2.277 . S
O2728 C2743 1.248 . S
C2729 N2723 1.423 . S
C2729 C2730 1.370 . S
C2729 C2734 1.403 . S
C2730 C2729 1.370 . S
C2730 C2731 1.389 . S
C2730 H2756 0.931 . S
C2731 C2730 1.389 . S
C2731 C2732 1.389 . S
C2732 C2731 1.389 . S
C2732 C2733 1.379 . S
C2732 H2757 0.929 . S
C2733 C2732 1.379 . S
C2733 C2734 1.405 . S
C2734 C2729 1.403 . S
C2734 C2733 1.405 . S
C2734 H2758 0.932 . S
O2735 Cd2670 2.173 . S
O2735 C2671 1.277 . S
O2736 C2671 1.230 . S
O2736 Cd2674 2.250 . S
O2737 Cd2670 2.263 . S
O2737 C2690 1.258 . S
O2738 Cd2674 2.308 . S
O2738 C2690 1.274 . S
O2739 Cd2670 2.366 . S
O2739 C2726 1.263 1_455 S
C2740 O2741 1.235 . S
C2740 O2742 1.270 . S
O2741 Cd2674 2.352 . S
O2741 C2740 1.235 . S
O2742 Cd2670 2.329 . S
O2742 C2740 1.270 . S
C2743 O2727 1.270 . S
C2743 O2728 1.248 . S
H2744 C2676 0.930 . S
H2745 C2679 0.930 . S
H2746 C2680 0.931 . S
H2747 C2685 0.929 . S
H2748 C2687 0.930 . S
H2749 C2689 0.930 . S
H2750 C2692 0.929 . S
H2751 C2693 0.932 . S
H2752 C2695 0.930 . S
H2753 C2719 0.929 . S
H2754 C2720 0.932 . S
H2755 C2721 0.931 . S
H2756 C2730 0.931 . S
H2757 C2732 0.929 . S
H2758 C2734 0.932 . S
Cd2759 O2816 2.350 . S
Cd2759 O2817 2.277 . S
Cd2759 O2824 2.173 . S
Cd2759 O2826 2.263 . S
Cd2759 O2828 2.366 . S
Cd2759 O2831 2.329 . S
C2760 O2824 1.277 . S
C2760 O2825 1.230 . S
C2761 O2762 1.246 . S
C2761 C2764 1.481 . S
C2761 N2786 1.329 . S
O2762 C2761 1.246 . S
Cd2763 O2825 2.250 . S
Cd2763 O2827 2.308 . S
Cd2763 O2830 2.352 . S
C2764 C2761 1.481 . S
C2764 N2767 1.327 . S
C2764 C2768 1.407 . S
C2765 C2766 1.346 . S
C2765 C2769 1.390 . S
C2765 H2833 0.930 . S
C2766 C2765 1.346 . S
C2766 N2767 1.342 . S
C2766 C2771 1.516 . S
N2767 C2764 1.327 . S
N2767 C2766 1.342 . S
N2767 Co2770 1.864 . S
C2768 C2764 1.407 . S
C2768 C2769 1.364 . S
C2768 H2834 0.930 . S
C2769 C2765 1.390 . S
C2769 C2768 1.364 . S
C2769 H2835 0.931 . S
Co2770 N2767 1.864 . S
Co2770 N2786 1.955 . S
Co2770 N2787 1.958 . S
Co2770 N2788 1.953 . S
Co2770 N2806 1.869 . S
Co2770 N2812 1.974 . S
C2771 C2766 1.516 . S
C2771 O2772 1.238 . S
C2771 N2787 1.324 . S
O2772 C2771 1.238 . S
C2773 C2774 1.394 . S
C2773 C2778 1.395 . S
C2773 N2787 1.427 . S
C2774 C2773 1.394 . S
C2774 C2775 1.380 . S
C2774 H2836 0.929 . S
C2775 C2774 1.380 . S
C2775 C2776 1.384 . S
C2775 C2779 1.495 . S
C2776 C2775 1.384 . S
C2776 C2777 1.382 . S
C2776 H2837 0.930 . S
C2777 C2776 1.382 . S
C2777 C2778 1.398 . S
C2778 C2773 1.395 . S
C2778 C2777 1.398 . S
C2778 H2838 0.930 . S
C2779 C2775 1.495 . S
C2779 O2826 1.258 . S
C2779 O2827 1.274 . S
C2780 C2781 1.385 . S
C2780 C2782 1.381 . S
C2780 N2786 1.432 . S
C2781 C2780 1.385 . S
C2781 C2785 1.388 . S
C2781 H2839 0.929 . S
C2782 C2780 1.381 . S
C2782 C2783 1.371 . S
C2782 H2840 0.932 . S
C2783 C2782 1.371 . S
C2783 C2784 1.400 . S
C2784 C2783 1.400 . S
C2784 C2785 1.351 . S
C2784 H2841 0.930 . S
C2785 C2781 1.388 . S
C2785 C2784 1.351 . S
N2786 C2761 1.329 . S
N2786 Co2770 1.955 . S
N2786 C2780 1.432 . S
N2787 Co2770 1.958 . S
N2787 C2771 1.324 . S
N2787 C2773 1.427 . S
N2788 Co2770 1.953 . S
N2788 C2789 1.436 . S
N2788 C2815 1.316 . S
C2789 N2788 1.436 . S
C2789 C2790 1.421 . S
C2789 C2791 1.360 . S
C2790 C2789 1.421 . S
C2790 C2792 1.379 . S
C2790 H2793 0.929 . S
C2791 C2789 1.360 . S
C2791 C2795 1.393 . S
C2791 H2797 0.931 . S
C2792 C2790 1.379 . S
C2792 C2794 1.417 . S
C2792 C2796 1.505 . S
H2793 C2790 0.929 . S
C2794 C2792 1.417 . S
C2794 C2795 1.352 . S
C2794 H2798 0.929 . S
C2795 C2791 1.393 . S
C2795 C2794 1.352 . S
C2795 C2799 1.482 . S
C2796 C2792 1.505 . S
C2796 O2800 1.259 . S
C2796 O2801 1.229 . S
H2797 C2791 0.931 . S
H2798 C2794 0.929 . S
C2799 C2795 1.482 . S
C2799 O2802 1.207 . S
C2799 O2803 1.289 . S
O2800 C2796 1.259 . S
O2800 H2804 0.822 . S
O2801 C2796 1.229 . S
O2802 C2799 1.207 . S
O2803 C2799 1.289 . S
O2803 H2805 0.819 . S
H2804 O2800 0.822 . S
H2805 O2803 0.819 . S
N2806 Co2770 1.869 . S
N2806 C2807 1.330 . S
N2806 C2811 1.325 . S
C2807 N2806 1.330 . S
C2807 C2808 1.359 . S
C2807 C2813 1.504 . S
C2808 C2807 1.359 . S
C2808 C2809 1.366 . S
C2808 H2842 0.929 . S
C2809 C2808 1.366 . S
C2809 C2810 1.415 . S
C2809 H2843 0.932 . S
C2810 C2809 1.415 . S
C2810 C2811 1.366 . S
C2810 H2844 0.931 . S
C2811 N2806 1.325 . S
C2811 C2810 1.366 . S
C2811 C2815 1.516 . S
N2812 Co2770 1.974 . S
N2812 C2813 1.309 . S
N2812 C2818 1.423 . S
C2813 C2807 1.504 . S
C2813 N2812 1.309 . S
C2813 O2814 1.258 . S
O2814 C2813 1.258 . S
C2815 N2788 1.316 . S
C2815 C2811 1.516 . S
C2815 O2828 1.263 . S
O2816 Cd2759 2.350 . S
O2816 C2832 1.270 . S
O2817 Cd2759 2.277 . S
O2817 C2832 1.248 . S
C2818 N2812 1.423 . S
C2818 C2819 1.370 . S
C2818 C2823 1.403 . S
C2819 C2818 1.370 . S
C2819 C2820 1.389 . S
C2819 H2845 0.931 . S
C2820 C2819 1.389 . S
C2820 C2821 1.389 . S
C2821 C2820 1.389 . S
C2821 C2822 1.379 . S
C2821 H2846 0.929 . S
C2822 C2821 1.379 . S
C2822 C2823 1.405 . S
C2823 C2818 1.403 . S
C2823 C2822 1.405 . S
C2823 H2847 0.932 . S
O2824 Cd2759 2.173 . S
O2824 C2760 1.277 . S
O2825 C2760 1.230 . S
O2825 Cd2763 2.250 . S
O2826 Cd2759 2.263 . S
O2826 C2779 1.258 . S
O2827 Cd2763 2.308 . S
O2827 C2779 1.274 . S
O2828 Cd2759 2.366 . S
O2828 C2815 1.263 . S
C2829 O2830 1.235 . S
C2829 O2831 1.270 . S
O2830 Cd2763 2.352 . S
O2830 C2829 1.235 . S
O2831 Cd2759 2.329 . S
O2831 C2829 1.270 . S
C2832 O2816 1.270 . S
C2832 O2817 1.248 . S
H2833 C2765 0.930 . S
H2834 C2768 0.930 . S
H2835 C2769 0.931 . S
H2836 C2774 0.929 . S
H2837 C2776 0.930 . S
H2838 C2778 0.930 . S
H2839 C2781 0.929 . S
H2840 C2782 0.932 . S
H2841 C2784 0.930 . S
H2842 C2808 0.929 . S
H2843 C2809 0.932 . S
H2844 C2810 0.931 . S
H2845 C2819 0.931 . S
H2846 C2821 0.929 . S
H2847 C2823 0.932 . S
Cd2848 O2905 2.350 . S
Cd2848 O2906 2.277 . S
Cd2848 O2913 2.173 . S
Cd2848 O2915 2.263 . S
Cd2848 O2917 2.366 . S
Cd2848 O2920 2.329 . S
C2849 O2913 1.277 . S
C2849 O2914 1.230 . S
C2850 O2851 1.246 . S
C2850 C2853 1.481 . S
C2850 N2875 1.329 . S
O2851 C2850 1.246 . S
Cd2852 O2914 2.250 . S
Cd2852 O2916 2.308 . S
Cd2852 O2919 2.352 . S
C2853 C2850 1.481 . S
C2853 N2856 1.327 . S
C2853 C2857 1.407 . S
C2854 C2855 1.346 . S
C2854 C2858 1.390 . S
C2854 H2922 0.930 . S
C2855 C2854 1.346 . S
C2855 N2856 1.342 . S
C2855 C2860 1.516 . S
N2856 C2853 1.327 . S
N2856 C2855 1.342 . S
N2856 Co2859 1.864 . S
C2857 C2853 1.407 . S
C2857 C2858 1.364 . S
C2857 H2923 0.930 . S
C2858 C2854 1.390 . S
C2858 C2857 1.364 . S
C2858 H2924 0.931 . S
Co2859 N2856 1.864 . S
Co2859 N2875 1.955 . S
Co2859 N2876 1.958 . S
Co2859 N2877 1.953 . S
Co2859 N2895 1.869 . S
Co2859 N2901 1.974 . S
C2860 C2855 1.516 . S
C2860 O2861 1.238 . S
C2860 N2876 1.324 . S
O2861 C2860 1.238 . S
C2862 C2863 1.394 . S
C2862 C2867 1.395 . S
C2862 N2876 1.427 . S
C2863 C2862 1.394 . S
C2863 C2864 1.380 . S
C2863 H2925 0.929 . S
C2864 C2863 1.380 . S
C2864 C2865 1.384 . S
C2864 C2868 1.495 . S
C2865 C2864 1.384 . S
C2865 C2866 1.382 . S
C2865 H2926 0.930 . S
C2866 C2865 1.382 . S
C2866 C2867 1.398 . S
C2867 C2862 1.395 . S
C2867 C2866 1.398 . S
C2867 H2927 0.930 . S
C2868 C2864 1.495 . S
C2868 O2915 1.258 . S
C2868 O2916 1.274 . S
C2869 C2870 1.385 . S
C2869 C2871 1.381 . S
C2869 N2875 1.432 . S
C2870 C2869 1.385 . S
C2870 C2874 1.388 . S
C2870 H2928 0.929 . S
C2871 C2869 1.381 . S
C2871 C2872 1.371 . S
C2871 H2929 0.932 . S
C2872 C2871 1.371 . S
C2872 C2873 1.400 . S
C2873 C2872 1.400 . S
C2873 C2874 1.351 . S
C2873 H2930 0.930 1_655 S
C2874 C2870 1.388 . S
C2874 C2873 1.351 . S
N2875 C2850 1.329 . S
N2875 Co2859 1.955 . S
N2875 C2869 1.432 . S
N2876 Co2859 1.958 . S
N2876 C2860 1.324 . S
N2876 C2862 1.427 . S
N2877 Co2859 1.953 . S
N2877 C2878 1.436 . S
N2877 C2904 1.316 . S
C2878 N2877 1.436 . S
C2878 C2879 1.421 . S
C2878 C2880 1.360 . S
C2879 C2878 1.421 . S
C2879 C2881 1.379 . S
C2879 H2882 0.929 . S
C2880 C2878 1.360 . S
C2880 C2884 1.393 . S
C2880 H2886 0.931 . S
C2881 C2879 1.379 . S
C2881 C2883 1.417 . S
C2881 C2885 1.505 . S
H2882 C2879 0.929 . S
C2883 C2881 1.417 . S
C2883 C2884 1.352 . S
C2883 H2887 0.929 . S
C2884 C2880 1.393 . S
C2884 C2883 1.352 . S
C2884 C2888 1.482 . S
C2885 C2881 1.505 . S
C2885 O2889 1.259 . S
C2885 O2890 1.229 . S
H2886 C2880 0.931 . S
H2887 C2883 0.929 . S
C2888 C2884 1.482 . S
C2888 O2891 1.207 . S
C2888 O2892 1.289 . S
O2889 C2885 1.259 . S
O2889 H2893 0.822 . S
O2890 C2885 1.229 . S
O2891 C2888 1.207 . S
O2892 C2888 1.289 . S
O2892 H2894 0.819 . S
H2893 O2889 0.822 . S
H2894 O2892 0.819 . S
N2895 Co2859 1.869 . S
N2895 C2896 1.330 . S
N2895 C2900 1.325 . S
C2896 N2895 1.330 . S
C2896 C2897 1.359 . S
C2896 C2902 1.504 . S
C2897 C2896 1.359 . S
C2897 C2898 1.366 . S
C2897 H2931 0.929 . S
C2898 C2897 1.366 . S
C2898 C2899 1.415 . S
C2898 H2932 0.932 . S
C2899 C2898 1.415 . S
C2899 C2900 1.366 . S
C2899 H2933 0.931 . S
C2900 N2895 1.325 . S
C2900 C2899 1.366 . S
C2900 C2904 1.516 . S
N2901 Co2859 1.974 . S
N2901 C2902 1.309 . S
N2901 C2907 1.423 . S
C2902 C2896 1.504 . S
C2902 N2901 1.309 . S
C2902 O2903 1.258 . S
O2903 C2902 1.258 . S
C2904 N2877 1.316 . S
C2904 C2900 1.516 . S
C2904 O2917 1.263 . S
O2905 Cd2848 2.350 . S
O2905 C2921 1.270 . S
O2906 Cd2848 2.277 . S
O2906 C2921 1.248 . S
C2907 N2901 1.423 . S
C2907 C2908 1.370 . S
C2907 C2912 1.403 . S
C2908 C2907 1.370 . S
C2908 C2909 1.389 . S
C2908 H2934 0.931 . S
C2909 C2908 1.389 . S
C2909 C2910 1.389 . S
C2910 C2909 1.389 . S
C2910 C2911 1.379 . S
C2910 H2935 0.929 . S
C2911 C2910 1.379 . S
C2911 C2912 1.405 . S
C2912 C2907 1.403 . S
C2912 C2911 1.405 . S
C2912 H2936 0.932 . S
O2913 Cd2848 2.173 . S
O2913 C2849 1.277 . S
O2914 C2849 1.230 . S
O2914 Cd2852 2.250 . S
O2915 Cd2848 2.263 . S
O2915 C2868 1.258 . S
O2916 Cd2852 2.308 . S
O2916 C2868 1.274 . S
O2917 Cd2848 2.366 . S
O2917 C2904 1.263 . S
C2918 O2919 1.235 . S
C2918 O2920 1.270 . S
O2919 Cd2852 2.352 . S
O2919 C2918 1.235 . S
O2920 Cd2848 2.329 . S
O2920 C2918 1.270 . S
C2921 O2905 1.270 . S
C2921 O2906 1.248 . S
H2922 C2854 0.930 . S
H2923 C2857 0.930 . S
H2924 C2858 0.931 . S
H2925 C2863 0.929 . S
H2926 C2865 0.930 . S
H2927 C2867 0.930 . S
H2928 C2870 0.929 . S
H2929 C2871 0.932 . S
H2930 C2873 0.930 1_455 S
H2931 C2897 0.929 . S
H2932 C2898 0.932 . S
H2933 C2899 0.931 . S
H2934 C2908 0.931 . S
H2935 C2910 0.929 . S
H2936 C2912 0.932 . S
Cd2937 O2994 2.350 . S
Cd2937 O2995 2.277 . S
Cd2937 O3002 2.173 . S
Cd2937 O3004 2.263 . S
Cd2937 O3006 2.366 . S
Cd2937 O3009 2.329 . S
C2938 O3002 1.277 . S
C2938 O3003 1.230 . S
C2939 O2940 1.246 . S
C2939 C2942 1.481 . S
C2939 N2964 1.329 . S
O2940 C2939 1.246 . S
Cd2941 O3003 2.250 . S
Cd2941 O3005 2.308 . S
Cd2941 O3008 2.352 . S
C2942 C2939 1.481 . S
C2942 N2945 1.327 . S
C2942 C2946 1.407 . S
C2943 C2944 1.346 . S
C2943 C2947 1.390 . S
C2943 H3011 0.930 . S
C2944 C2943 1.346 . S
C2944 N2945 1.342 . S
C2944 C2949 1.516 . S
N2945 C2942 1.327 . S
N2945 C2944 1.342 . S
N2945 Co2948 1.864 . S
C2946 C2942 1.407 . S
C2946 C2947 1.364 . S
C2946 H3012 0.930 . S
C2947 C2943 1.390 . S
C2947 C2946 1.364 . S
C2947 H3013 0.931 . S
Co2948 N2945 1.864 . S
Co2948 N2964 1.955 . S
Co2948 N2965 1.958 . S
Co2948 N2966 1.953 . S
Co2948 N2984 1.869 . S
Co2948 N2990 1.974 . S
C2949 C2944 1.516 . S
C2949 O2950 1.238 . S
C2949 N2965 1.324 . S
O2950 C2949 1.238 . S
C2951 C2952 1.394 . S
C2951 C2956 1.395 . S
C2951 N2965 1.427 . S
C2952 C2951 1.394 . S
C2952 C2953 1.380 . S
C2952 H3014 0.929 . S
C2953 C2952 1.380 . S
C2953 C2954 1.384 . S
C2953 C2957 1.495 . S
C2954 C2953 1.384 . S
C2954 C2955 1.382 . S
C2954 H3015 0.930 . S
C2955 C2954 1.382 . S
C2955 C2956 1.398 . S
C2956 C2951 1.395 . S
C2956 C2955 1.398 . S
C2956 H3016 0.930 . S
C2957 C2953 1.495 . S
C2957 O3004 1.258 . S
C2957 O3005 1.274 . S
C2958 C2959 1.385 . S
C2958 C2960 1.381 . S
C2958 N2964 1.432 . S
C2959 C2958 1.385 . S
C2959 C2963 1.388 . S
C2959 H3017 0.929 . S
C2960 C2958 1.381 . S
C2960 C2961 1.371 . S
C2960 H3018 0.932 . S
C2961 C2960 1.371 . S
C2961 C2962 1.400 . S
C2962 C2961 1.400 . S
C2962 C2963 1.351 . S
C2962 H3019 0.930 . S
C2963 C2959 1.388 . S
C2963 C2962 1.351 . S
N2964 C2939 1.329 . S
N2964 Co2948 1.955 . S
N2964 C2958 1.432 . S
N2965 Co2948 1.958 . S
N2965 C2949 1.324 . S
N2965 C2951 1.427 . S
N2966 Co2948 1.953 . S
N2966 C2967 1.436 . S
N2966 C2993 1.316 . S
C2967 N2966 1.436 . S
C2967 C2968 1.421 . S
C2967 C2969 1.360 . S
C2968 C2967 1.421 . S
C2968 C2970 1.379 . S
C2968 H2971 0.929 . S
C2969 C2967 1.360 . S
C2969 C2973 1.393 . S
C2969 H2975 0.931 . S
C2970 C2968 1.379 . S
C2970 C2972 1.417 . S
C2970 C2974 1.505 . S
H2971 C2968 0.929 . S
C2972 C2970 1.417 . S
C2972 C2973 1.352 . S
C2972 H2976 0.929 . S
C2973 C2969 1.393 . S
C2973 C2972 1.352 . S
C2973 C2977 1.482 . S
C2974 C2970 1.505 . S
C2974 O2978 1.259 . S
C2974 O2979 1.229 . S
H2975 C2969 0.931 . S
H2976 C2972 0.929 . S
C2977 C2973 1.482 . S
C2977 O2980 1.207 . S
C2977 O2981 1.289 . S
O2978 C2974 1.259 . S
O2978 H2982 0.822 . S
O2979 C2974 1.229 . S
O2980 C2977 1.207 . S
O2981 C2977 1.289 . S
O2981 H2983 0.819 . S
H2982 O2978 0.822 . S
H2983 O2981 0.819 . S
N2984 Co2948 1.869 . S
N2984 C2985 1.330 . S
N2984 C2989 1.325 . S
C2985 N2984 1.330 . S
C2985 C2986 1.359 . S
C2985 C2991 1.504 . S
C2986 C2985 1.359 . S
C2986 C2987 1.366 . S
C2986 H3020 0.929 . S
C2987 C2986 1.366 . S
C2987 C2988 1.415 . S
C2987 H3021 0.932 . S
C2988 C2987 1.415 . S
C2988 C2989 1.366 . S
C2988 H3022 0.931 . S
C2989 N2984 1.325 . S
C2989 C2988 1.366 . S
C2989 C2993 1.516 . S
N2990 Co2948 1.974 . S
N2990 C2991 1.309 . S
N2990 C2996 1.423 . S
C2991 C2985 1.504 . S
C2991 N2990 1.309 . S
C2991 O2992 1.258 . S
O2992 C2991 1.258 . S
C2993 N2966 1.316 . S
C2993 C2989 1.516 . S
C2993 O3006 1.263 . S
O2994 Cd2937 2.350 . S
O2994 C3010 1.270 . S
O2995 Cd2937 2.277 . S
O2995 C3010 1.248 . S
C2996 N2990 1.423 . S
C2996 C2997 1.370 . S
C2996 C3001 1.403 . S
C2997 C2996 1.370 . S
C2997 C2998 1.389 . S
C2997 H3023 0.931 . S
C2998 C2997 1.389 . S
C2998 C2999 1.389 . S
C2999 C2998 1.389 . S
C2999 C3000 1.379 . S
C2999 H3024 0.929 . S
C3000 C2999 1.379 . S
C3000 C3001 1.405 . S
C3001 C2996 1.403 . S
C3001 C3000 1.405 . S
C3001 H3025 0.932 . S
O3002 Cd2937 2.173 . S
O3002 C2938 1.277 . S
O3003 C2938 1.230 . S
O3003 Cd2941 2.250 . S
O3004 Cd2937 2.263 . S
O3004 C2957 1.258 . S
O3005 Cd2941 2.308 . S
O3005 C2957 1.274 . S
O3006 Cd2937 2.366 . S
O3006 C2993 1.263 . S
C3007 O3008 1.235 . S
C3007 O3009 1.270 . S
O3008 Cd2941 2.352 . S
O3008 C3007 1.235 . S
O3009 Cd2937 2.329 . S
O3009 C3007 1.270 . S
C3010 O2994 1.270 . S
C3010 O2995 1.248 . S
H3011 C2943 0.930 . S
H3012 C2946 0.930 . S
H3013 C2947 0.931 . S
H3014 C2952 0.929 . S
H3015 C2954 0.930 . S
H3016 C2956 0.930 . S
H3017 C2959 0.929 . S
H3018 C2960 0.932 . S
H3019 C2962 0.930 . S
H3020 C2986 0.929 . S
H3021 C2987 0.932 . S
H3022 C2988 0.931 . S
H3023 C2997 0.931 . S
H3024 C2999 0.929 . S
H3025 C3001 0.932 . S
Cd3026 O3083 2.350 . S
Cd3026 O3084 2.277 . S
Cd3026 O3091 2.173 . S
Cd3026 O3093 2.263 . S
Cd3026 O3095 2.366 . S
Cd3026 O3098 2.329 . S
C3027 O3091 1.277 . S
C3027 O3092 1.230 . S
C3028 O3029 1.246 . S
C3028 C3031 1.481 . S
C3028 N3053 1.329 . S
O3029 C3028 1.246 . S
Cd3030 O3092 2.250 . S
Cd3030 O3094 2.308 . S
Cd3030 O3097 2.352 . S
C3031 C3028 1.481 . S
C3031 N3034 1.327 . S
C3031 C3035 1.407 . S
C3032 C3033 1.346 . S
C3032 C3036 1.390 . S
C3032 H3100 0.930 . S
C3033 C3032 1.346 . S
C3033 N3034 1.342 . S
C3033 C3038 1.516 . S
N3034 C3031 1.327 . S
N3034 C3033 1.342 . S
N3034 Co3037 1.864 . S
C3035 C3031 1.407 . S
C3035 C3036 1.364 . S
C3035 H3101 0.930 . S
C3036 C3032 1.390 . S
C3036 C3035 1.364 . S
C3036 H3102 0.931 . S
Co3037 N3034 1.864 . S
Co3037 N3053 1.955 . S
Co3037 N3054 1.958 . S
Co3037 N3055 1.953 . S
Co3037 N3073 1.869 . S
Co3037 N3079 1.974 . S
C3038 C3033 1.516 . S
C3038 O3039 1.238 . S
C3038 N3054 1.324 . S
O3039 C3038 1.238 . S
C3040 C3041 1.394 . S
C3040 C3045 1.395 . S
C3040 N3054 1.427 . S
C3041 C3040 1.394 . S
C3041 C3042 1.380 . S
C3041 H3103 0.929 . S
C3042 C3041 1.380 . S
C3042 C3043 1.384 . S
C3042 C3046 1.495 . S
C3043 C3042 1.384 . S
C3043 C3044 1.382 . S
C3043 H3104 0.930 . S
C3044 C3043 1.382 . S
C3044 C3045 1.398 . S
C3045 C3040 1.395 . S
C3045 C3044 1.398 . S
C3045 H3105 0.930 . S
C3046 C3042 1.495 . S
C3046 O3093 1.258 . S
C3046 O3094 1.274 . S
C3047 C3048 1.385 . S
C3047 C3049 1.381 . S
C3047 N3053 1.432 . S
C3048 C3047 1.385 . S
C3048 C3052 1.388 . S
C3048 H3106 0.929 . S
C3049 C3047 1.381 . S
C3049 C3050 1.371 . S
C3049 H3107 0.932 . S
C3050 C3049 1.371 . S
C3050 C3051 1.400 . S
C3051 C3050 1.400 . S
C3051 C3052 1.351 . S
C3051 H3108 0.930 . S
C3052 C3048 1.388 . S
C3052 C3051 1.351 . S
N3053 C3028 1.329 . S
N3053 Co3037 1.955 . S
N3053 C3047 1.432 . S
N3054 Co3037 1.958 . S
N3054 C3038 1.324 . S
N3054 C3040 1.427 . S
N3055 Co3037 1.953 . S
N3055 C3056 1.436 . S
N3055 C3082 1.316 . S
C3056 N3055 1.436 . S
C3056 C3057 1.421 . S
C3056 C3058 1.360 . S
C3057 C3056 1.421 . S
C3057 C3059 1.379 . S
C3057 H3060 0.929 . S
C3058 C3056 1.360 . S
C3058 C3062 1.393 . S
C3058 H3064 0.931 . S
C3059 C3057 1.379 . S
C3059 C3061 1.417 . S
C3059 C3063 1.505 . S
H3060 C3057 0.929 . S
C3061 C3059 1.417 . S
C3061 C3062 1.352 . S
C3061 H3065 0.929 . S
C3062 C3058 1.393 . S
C3062 C3061 1.352 . S
C3062 C3066 1.482 . S
C3063 C3059 1.505 . S
C3063 O3067 1.259 . S
C3063 O3068 1.229 . S
H3064 C3058 0.931 . S
H3065 C3061 0.929 . S
C3066 C3062 1.482 . S
C3066 O3069 1.207 . S
C3066 O3070 1.289 . S
O3067 C3063 1.259 . S
O3067 H3071 0.822 . S
O3068 C3063 1.229 . S
O3069 C3066 1.207 . S
O3070 C3066 1.289 . S
O3070 H3072 0.819 1_545 S
H3071 O3067 0.822 . S
H3072 O3070 0.819 1_565 S
N3073 Co3037 1.869 . S
N3073 C3074 1.330 . S
N3073 C3078 1.325 . S
C3074 N3073 1.330 . S
C3074 C3075 1.359 . S
C3074 C3080 1.504 . S
C3075 C3074 1.359 . S
C3075 C3076 1.366 . S
C3075 H3109 0.929 . S
C3076 C3075 1.366 . S
C3076 C3077 1.415 . S
C3076 H3110 0.932 . S
C3077 C3076 1.415 . S
C3077 C3078 1.366 . S
C3077 H3111 0.931 . S
C3078 N3073 1.325 . S
C3078 C3077 1.366 . S
C3078 C3082 1.516 . S
N3079 Co3037 1.974 . S
N3079 C3080 1.309 . S
N3079 C3085 1.423 . S
C3080 C3074 1.504 . S
C3080 N3079 1.309 . S
C3080 O3081 1.258 . S
O3081 C3080 1.258 . S
C3082 N3055 1.316 . S
C3082 C3078 1.516 . S
C3082 O3095 1.263 . S
O3083 Cd3026 2.350 . S
O3083 C3099 1.270 . S
O3084 Cd3026 2.277 . S
O3084 C3099 1.248 . S
C3085 N3079 1.423 . S
C3085 C3086 1.370 . S
C3085 C3090 1.403 . S
C3086 C3085 1.370 . S
C3086 C3087 1.389 . S
C3086 H3112 0.931 . S
C3087 C3086 1.389 . S
C3087 C3088 1.389 . S
C3088 C3087 1.389 . S
C3088 C3089 1.379 1_655 S
C3088 H3113 0.929 1_655 S
C3089 C3088 1.379 1_455 S
C3089 C3090 1.405 1_455 S
C3090 C3085 1.403 . S
C3090 C3089 1.405 1_655 S
C3090 H3114 0.932 1_655 S
O3091 Cd3026 2.173 . S
O3091 C3027 1.277 . S
O3092 C3027 1.230 . S
O3092 Cd3030 2.250 . S
O3093 Cd3026 2.263 . S
O3093 C3046 1.258 . S
O3094 Cd3030 2.308 . S
O3094 C3046 1.274 . S
O3095 Cd3026 2.366 . S
O3095 C3082 1.263 . S
C3096 O3097 1.235 . S
C3096 O3098 1.270 . S
O3097 Cd3030 2.352 . S
O3097 C3096 1.235 . S
O3098 Cd3026 2.329 . S
O3098 C3096 1.270 . S
C3099 O3083 1.270 . S
C3099 O3084 1.248 . S
H3100 C3032 0.930 . S
H3101 C3035 0.930 . S
H3102 C3036 0.931 . S
H3103 C3041 0.929 . S
H3104 C3043 0.930 . S
H3105 C3045 0.930 . S
H3106 C3048 0.929 . S
H3107 C3049 0.932 . S
H3108 C3051 0.930 . S
H3109 C3075 0.929 . S
H3110 C3076 0.932 . S
H3111 C3077 0.931 . S
H3112 C3086 0.931 . S
H3113 C3088 0.929 1_455 S
H3114 C3090 0.932 1_455 S
Cd3115 O3172 2.350 . S
Cd3115 O3173 2.277 . S
Cd3115 O3180 2.173 . S
Cd3115 O3182 2.263 . S
Cd3115 O3184 2.366 . S
Cd3115 O3187 2.329 . S
C3116 O3180 1.277 . S
C3116 O3181 1.230 . S
C3117 O3118 1.246 . S
C3117 C3120 1.481 1_655 S
C3117 N3142 1.329 . S
O3118 C3117 1.246 . S
Cd3119 O3181 2.250 . S
Cd3119 O3183 2.308 . S
Cd3119 O3186 2.352 . S
C3120 C3117 1.481 1_455 S
C3120 N3123 1.327 . S
C3120 C3124 1.407 . S
C3121 C3122 1.346 . S
C3121 C3125 1.390 . S
C3121 H3189 0.930 . S
C3122 C3121 1.346 . S
C3122 N3123 1.342 . S
C3122 C3127 1.516 . S
N3123 C3120 1.327 . S
N3123 C3122 1.342 . S
N3123 Co3126 1.864 1_455 S
C3124 C3120 1.407 . S
C3124 C3125 1.364 . S
C3124 H3190 0.930 . S
C3125 C3121 1.390 . S
C3125 C3124 1.364 . S
C3125 H3191 0.931 . S
Co3126 N3123 1.864 1_655 S
Co3126 N3142 1.955 . S
Co3126 N3143 1.958 1_655 S
Co3126 N3144 1.953 . S
Co3126 N3162 1.869 . S
Co3126 N3168 1.974 . S
C3127 C3122 1.516 . S
C3127 O3128 1.238 . S
C3127 N3143 1.324 . S
O3128 C3127 1.238 . S
C3129 C3130 1.394 . S
C3129 C3134 1.395 . S
C3129 N3143 1.427 . S
C3130 C3129 1.394 . S
C3130 C3131 1.380 1_455 S
C3130 H3192 0.929 1_455 S
C3131 C3130 1.380 1_655 S
C3131 C3132 1.384 . S
C3131 C3135 1.495 . S
C3132 C3131 1.384 . S
C3132 C3133 1.382 1_655 S
C3132 H3193 0.930 . S
C3133 C3132 1.382 1_455 S
C3133 C3134 1.398 . S
C3134 C3129 1.395 . S
C3134 C3133 1.398 . S
C3134 H3194 0.930 . S
C3135 C3131 1.495 . S
C3135 O3182 1.258 . S
C3135 O3183 1.274 . S
C3136 C3137 1.385 . S
C3136 C3138 1.381 . S
C3136 N3142 1.432 . S
C3137 C3136 1.385 . S
C3137 C3141 1.388 . S
C3137 H3195 0.929 . S
C3138 C3136 1.381 . S
C3138 C3139 1.371 . S
C3138 H3196 0.932 . S
C3139 C3138 1.371 . S
C3139 C3140 1.400 . S
C3140 C3139 1.400 . S
C3140 C3141 1.351 . S
C3140 H3197 0.930 . S
C3141 C3137 1.388 . S
C3141 C3140 1.351 . S
N3142 C3117 1.329 . S
N3142 Co3126 1.955 . S
N3142 C3136 1.432 . S
N3143 Co3126 1.958 1_455 S
N3143 C3127 1.324 . S
N3143 C3129 1.427 . S
N3144 Co3126 1.953 . S
N3144 C3145 1.436 . S
N3144 C3171 1.316 . S
C3145 N3144 1.436 . S
C3145 C3146 1.421 . S
C3145 C3147 1.360 1_655 S
C3146 C3145 1.421 . S
C3146 C3148 1.379 1_655 S
C3146 H3149 0.929 . S
C3147 C3145 1.360 1_455 S
C3147 C3151 1.393 . S
C3147 H3153 0.931 . S
C3148 C3146 1.379 1_455 S
C3148 C3150 1.417 . S
C3148 C3152 1.505 1_455 S
H3149 C3146 0.929 . S
C3150 C3148 1.417 . S
C3150 C3151 1.352 . S
C3150 H3154 0.929 . S
C3151 C3147 1.393 . S
C3151 C3150 1.352 . S
C3151 C3155 1.482 . S
C3152 C3148 1.505 1_655 S
C3152 O3156 1.259 1_655 S
C3152 O3157 1.229 . S
H3153 C3147 0.931 . S
H3154 C3150 0.929 . S
C3155 C3151 1.482 . S
C3155 O3158 1.207 . S
C3155 O3159 1.289 . S
O3156 C3152 1.259 1_455 S
O3156 H3160 0.822 . S
O3157 C3152 1.229 . S
O3158 C3155 1.207 . S
O3159 C3155 1.289 . S
O3159 H3161 0.819 . S
H3160 O3156 0.822 . S
H3161 O3159 0.819 . S
N3162 Co3126 1.869 . S
N3162 C3163 1.330 . S
N3162 C3167 1.325 . S
C3163 N3162 1.330 . S
C3163 C3164 1.359 . S
C3163 C3169 1.504 . S
C3164 C3163 1.359 . S
C3164 C3165 1.366 . S
C3164 H3198 0.929 . S
C3165 C3164 1.366 . S
C3165 C3166 1.415 . S
C3165 H3199 0.932 . S
C3166 C3165 1.415 . S
C3166 C3167 1.366 . S
C3166 H3200 0.931 . S
C3167 N3162 1.325 . S
C3167 C3166 1.366 . S
C3167 C3171 1.516 . S
N3168 Co3126 1.974 . S
N3168 C3169 1.309 . S
N3168 C3174 1.423 . S
C3169 C3163 1.504 . S
C3169 N3168 1.309 . S
C3169 O3170 1.258 . S
O3170 C3169 1.258 . S
C3171 N3144 1.316 . S
C3171 C3167 1.516 . S
C3171 O3184 1.263 . S
O3172 Cd3115 2.350 . S
O3172 C3188 1.270 . S
O3173 Cd3115 2.277 . S
O3173 C3188 1.248 . S
C3174 N3168 1.423 . S
C3174 C3175 1.370 1_655 S
C3174 C3179 1.403 . S
C3175 C3174 1.370 1_455 S
C3175 C3176 1.389 . S
C3175 H3201 0.931 . S
C3176 C3175 1.389 . S
C3176 C3177 1.389 . S
C3177 C3176 1.389 . S
C3177 C3178 1.406 . S
C3177 H3202 0.929 . S
C3178 C3177 1.406 . S
C3178 C3179 1.404 1_455 S
C3179 C3174 1.403 . S
C3179 C3178 1.404 1_655 S
C3179 H3203 0.932 . S
O3180 Cd3115 2.173 . S
O3180 C3116 1.277 . S
O3181 C3116 1.230 . S
O3181 Cd3119 2.250 . S
O3182 Cd3115 2.263 . S
O3182 C3135 1.258 . S
O3183 Cd3119 2.308 . S
O3183 C3135 1.274 . S
O3184 Cd3115 2.366 . S
O3184 C3171 1.263 . S
C3185 O3186 1.235 . S
C3185 O3187 1.270 . S
O3186 Cd3119 2.352 . S
O3186 C3185 1.235 . S
O3187 Cd3115 2.329 . S
O3187 C3185 1.270 . S
C3188 O3172 1.270 . S
C3188 O3173 1.248 . S
H3189 C3121 0.930 . S
H3190 C3124 0.930 . S
H3191 C3125 0.931 . S
H3192 C3130 0.929 1_655 S
H3193 C3132 0.930 . S
H3194 C3134 0.930 . S
H3195 C3137 0.929 . S
H3196 C3138 0.932 . S
H3197 C3140 0.930 . S
H3198 C3164 0.929 . S
H3199 C3165 0.932 . S
H3200 C3166 0.931 . S
H3201 C3175 0.931 . S
H3202 C3177 0.929 . S
H3203 C3179 0.932 . S
C3204 C3205 1.387 . S
C3204 H3208 0.950 . S
C3204 C3213 1.390 . S
C3205 C3204 1.387 . S
C3205 C3207 1.387 . S
H3206 C3213 0.950 . S
C3207 C3205 1.387 . S
C3207 C3209 1.390 . S
C3207 H3211 0.950 . S
H3208 C3204 0.950 . S
C3209 C3207 1.390 . S
C3209 C3210 1.387 . S
C3209 H3212 0.950 . S
C3210 C3209 1.387 . S
C3210 C3213 1.387 . S
H3211 C3207 0.950 . S
H3212 C3209 0.950 . S
C3213 C3204 1.390 . S
C3213 H3206 0.950 . S
C3213 C3210 1.387 . S
C3214 C3215 1.387 . S
C3214 H3218 0.950 . S
C3214 C3223 1.390 . S
C3215 C3214 1.387 . S
C3215 C3217 1.387 . S
H3216 C3223 0.950 . S
C3217 C3215 1.387 . S
C3217 C3219 1.390 . S
C3217 H3221 0.950 . S
H3218 C3214 0.950 . S
C3219 C3217 1.390 . S
C3219 C3220 1.387 . S
C3219 H3222 0.950 . S
C3220 C3219 1.387 . S
C3220 C3223 1.387 . S
H3221 C3217 0.950 . S
H3222 C3219 0.950 . S
C3223 C3214 1.390 . S
C3223 H3216 0.950 . S
C3223 C3220 1.387 . S
C3224 C3225 1.387 . S
C3224 H3228 0.950 . S
C3224 C3233 1.390 . S
C3225 C3224 1.387 . S
C3225 C3227 1.387 . S
H3226 C3233 0.950 . S
C3227 C3225 1.387 . S
C3227 C3229 1.390 . S
C3227 H3231 0.950 . S
H3228 C3224 0.950 . S
C3229 C3227 1.390 . S
C3229 C3230 1.387 . S
C3229 H3232 0.950 . S
C3230 C3229 1.387 . S
C3230 C3233 1.387 . S
H3231 C3227 0.950 . S
H3232 C3229 0.950 . S
C3233 C3224 1.390 . S
C3233 H3226 0.950 . S
C3233 C3230 1.387 . S
C3234 C3235 1.387 . S
C3234 H3238 0.950 . S
C3234 C3243 1.390 . S
C3235 C3234 1.387 . S
C3235 C3237 1.387 . S
H3236 C3243 0.950 . S
C3237 C3235 1.387 . S
C3237 C3239 1.390 . S
C3237 H3241 0.950 . S
H3238 C3234 0.950 . S
C3239 C3237 1.390 . S
C3239 C3240 1.387 . S
C3239 H3242 0.950 . S
C3240 C3239 1.387 . S
C3240 C3243 1.387 . S
H3241 C3237 0.950 . S
H3242 C3239 0.950 . S
C3243 C3234 1.390 . S
C3243 H3236 0.950 . S
C3243 C3240 1.387 . S
C3244 C3245 1.387 . S
C3244 H3248 0.950 . S
C3244 C3253 1.390 . S
C3245 C3244 1.387 . S
C3245 C3247 1.387 . S
H3246 C3253 0.950 . S
C3247 C3245 1.387 . S
C3247 C3249 1.390 . S
C3247 H3251 0.950 . S
H3248 C3244 0.950 . S
C3249 C3247 1.390 . S
C3249 C3250 1.387 . S
C3249 H3252 0.950 . S
C3250 C3249 1.387 . S
C3250 C3253 1.387 . S
H3251 C3247 0.950 . S
H3252 C3249 0.950 . S
C3253 C3244 1.390 . S
C3253 H3246 0.950 . S
C3253 C3250 1.387 . S
C3254 C3255 1.387 . S
C3254 H3258 0.950 . S
C3254 C3263 1.390 . S
C3255 C3254 1.387 . S
C3255 C3257 1.387 . S
H3256 C3263 0.950 . S
C3257 C3255 1.387 . S
C3257 C3259 1.390 . S
C3257 H3261 0.950 . S
H3258 C3254 0.950 . S
C3259 C3257 1.390 . S
C3259 C3260 1.387 . S
C3259 H3262 0.950 . S
C3260 C3259 1.387 . S
C3260 C3263 1.387 . S
H3261 C3257 0.950 . S
H3262 C3259 0.950 . S
C3263 C3254 1.390 . S
C3263 H3256 0.950 . S
C3263 C3260 1.387 . S
C3264 C3265 1.387 . S
C3264 H3268 0.950 . S
C3264 C3273 1.390 . S
C3265 C3264 1.387 . S
C3265 C3267 1.387 . S
H3266 C3273 0.950 . S
C3267 C3265 1.387 . S
C3267 C3269 1.390 . S
C3267 H3271 0.950 . S
H3268 C3264 0.950 . S
C3269 C3267 1.390 . S
C3269 C3270 1.387 . S
C3269 H3272 0.950 . S
C3270 C3269 1.387 . S
C3270 C3273 1.387 . S
H3271 C3267 0.950 . S
H3272 C3269 0.950 . S
C3273 C3264 1.390 . S
C3273 H3266 0.950 . S
C3273 C3270 1.387 . S
C3274 C3275 1.387 . S
C3274 H3278 0.950 . S
C3274 C3283 1.390 . S
C3275 C3274 1.387 . S
C3275 C3277 1.387 . S
H3276 C3283 0.950 . S
C3277 C3275 1.387 . S
C3277 C3279 1.390 . S
C3277 H3281 0.950 . S
H3278 C3274 0.950 . S
C3279 C3277 1.390 . S
C3279 C3280 1.387 . S
C3279 H3282 0.950 . S
C3280 C3279 1.387 . S
C3280 C3283 1.387 . S
H3281 C3277 0.950 . S
H3282 C3279 0.950 . S
C3283 C3274 1.390 . S
C3283 H3276 0.950 . S
C3283 C3280 1.387 . S
C3284 C3285 1.387 . S
C3284 H3288 0.950 . S
C3284 C3293 1.390 . S
C3285 C3284 1.387 . S
C3285 C3287 1.387 . S
H3286 C3293 0.950 . S
C3287 C3285 1.387 . S
C3287 C3289 1.390 . S
C3287 H3291 0.950 . S
H3288 C3284 0.950 . S
C3289 C3287 1.390 . S
C3289 C3290 1.387 . S
C3289 H3292 0.950 . S
C3290 C3289 1.387 . S
C3290 C3293 1.387 . S
H3291 C3287 0.950 . S
H3292 C3289 0.950 . S
C3293 C3284 1.390 . S
C3293 H3286 0.950 . S
C3293 C3290 1.387 . S
C3294 C3295 1.387 . S
C3294 H3298 0.950 . S
C3294 C3303 1.390 . S
C3295 C3294 1.387 . S
C3295 C3297 1.387 . S
H3296 C3303 0.950 . S
C3297 C3295 1.387 . S
C3297 C3299 1.390 . S
C3297 H3301 0.950 . S
H3298 C3294 0.950 . S
C3299 C3297 1.390 . S
C3299 C3300 1.387 . S
C3299 H3302 0.950 . S
C3300 C3299 1.387 . S
C3300 C3303 1.387 . S
H3301 C3297 0.950 . S
H3302 C3299 0.950 . S
C3303 C3294 1.390 . S
C3303 H3296 0.950 . S
C3303 C3300 1.387 . S
C3304 C3305 1.387 . S
C3304 H3308 0.950 . S
C3304 C3313 1.390 . S
C3305 C3304 1.387 . S
C3305 C3307 1.387 . S
H3306 C3313 0.950 . S
C3307 C3305 1.387 . S
C3307 C3309 1.390 . S
C3307 H3311 0.950 . S
H3308 C3304 0.950 . S
C3309 C3307 1.390 . S
C3309 C3310 1.387 . S
C3309 H3312 0.950 . S
C3310 C3309 1.387 . S
C3310 C3313 1.387 . S
H3311 C3307 0.950 . S
H3312 C3309 0.950 . S
C3313 C3304 1.390 . S
C3313 H3306 0.950 . S
C3313 C3310 1.387 . S
C3314 C3315 1.387 . S
C3314 H3318 0.950 . S
C3314 C3323 1.390 . S
C3315 C3314 1.387 . S
C3315 C3317 1.387 . S
H3316 C3323 0.950 . S
C3317 C3315 1.387 . S
C3317 C3319 1.390 . S
C3317 H3321 0.950 . S
H3318 C3314 0.950 . S
C3319 C3317 1.390 . S
C3319 C3320 1.387 . S
C3319 H3322 0.950 . S
C3320 C3319 1.387 . S
C3320 C3323 1.387 . S
H3321 C3317 0.950 . S
H3322 C3319 0.950 . S
C3323 C3314 1.390 . S
C3323 H3316 0.950 . S
C3323 C3320 1.387 . S
C3324 C3325 1.387 . S
C3324 H3328 0.950 . S
C3324 C3333 1.390 . S
C3325 C3324 1.387 . S
C3325 C3327 1.387 . S
H3326 C3333 0.950 . S
C3327 C3325 1.387 . S
C3327 C3329 1.390 . S
C3327 H3331 0.950 . S
H3328 C3324 0.950 . S
C3329 C3327 1.390 . S
C3329 C3330 1.387 . S
C3329 H3332 0.950 . S
C3330 C3329 1.387 . S
C3330 C3333 1.387 . S
H3331 C3327 0.950 . S
H3332 C3329 0.950 . S
C3333 C3324 1.390 . S
C3333 H3326 0.950 . S
C3333 C3330 1.387 . S
C3334 C3335 1.387 . S
C3334 H3338 0.950 . S
C3334 C3343 1.390 1_655 S
C3335 C3334 1.387 . S
C3335 C3337 1.387 . S
H3336 C3343 0.950 . S
C3337 C3335 1.387 . S
C3337 C3339 1.390 . S
C3337 H3341 0.950 . S
H3338 C3334 0.950 . S
C3339 C3337 1.390 . S
C3339 C3340 1.387 . S
C3339 H3342 0.950 . S
C3340 C3339 1.387 . S
C3340 C3343 1.387 1_655 S
H3341 C3337 0.950 . S
H3342 C3339 0.950 . S
C3343 C3334 1.390 1_455 S
C3343 H3336 0.950 . S
C3343 C3340 1.387 1_455 S
C3344 C3345 1.387 . S
C3344 H3348 0.950 . S
C3344 C3353 1.390 . S
C3345 C3344 1.387 . S
C3345 C3347 1.387 . S
H3346 C3353 0.950 . S
C3347 C3345 1.387 . S
C3347 C3349 1.390 1_565 S
C3347 H3351 0.950 1_565 S
H3348 C3344 0.950 . S
C3349 C3347 1.390 1_545 S
C3349 C3350 1.387 1_545 S
C3349 H3352 0.950 . S
C3350 C3349 1.387 1_565 S
C3350 C3353 1.387 . S
H3351 C3347 0.950 1_545 S
H3352 C3349 0.950 . S
C3353 C3344 1.390 . S
C3353 H3346 0.950 . S
C3353 C3350 1.387 . S
C3354 C3355 1.387 . S
C3354 H3358 0.950 . S
C3354 C3363 1.390 . S
C3355 C3354 1.387 . S
C3355 C3357 1.387 . S
H3356 C3363 0.950 . S
C3357 C3355 1.387 . S
C3357 C3359 1.390 . S
C3357 H3361 0.950 . S
H3358 C3354 0.950 . S
C3359 C3357 1.390 . S
C3359 C3360 1.387 . S
C3359 H3362 0.950 . S
C3360 C3359 1.387 . S
C3360 C3363 1.387 . S
H3361 C3357 0.950 . S
H3362 C3359 0.950 . S
C3363 C3354 1.390 . S
C3363 H3356 0.950 . S
C3363 C3360 1.387 . S
C3364 C3365 1.387 . S
C3364 H3368 0.950 . S
C3364 C3373 1.390 . S
C3365 C3364 1.387 . S
C3365 C3367 1.387 . S
H3366 C3373 0.950 . S
C3367 C3365 1.387 . S
C3367 C3369 1.390 . S
C3367 H3371 0.950 . S
H3368 C3364 0.950 . S
C3369 C3367 1.390 . S
C3369 C3370 1.387 . S
C3369 H3372 0.950 . S
C3370 C3369 1.387 . S
C3370 C3373 1.387 . S
H3371 C3367 0.950 . S
H3372 C3369 0.950 . S
C3373 C3364 1.390 . S
C3373 H3366 0.950 . S
C3373 C3370 1.387 . S
C3374 C3375 1.387 . S
C3374 H3378 0.950 . S
C3374 C3383 1.390 . S
C3375 C3374 1.387 . S
C3375 C3377 1.387 . S
H3376 C3383 0.950 . S
C3377 C3375 1.387 . S
C3377 C3379 1.390 . S
C3377 H3381 0.950 . S
H3378 C3374 0.950 . S
C3379 C3377 1.390 . S
C3379 C3380 1.387 . S
C3379 H3382 0.950 . S
C3380 C3379 1.387 . S
C3380 C3383 1.387 . S
H3381 C3377 0.950 . S
H3382 C3379 0.950 . S
C3383 C3374 1.390 . S
C3383 H3376 0.950 . S
C3383 C3380 1.387 . S
C3384 C3385 1.387 . S
C3384 H3388 0.950 . S
C3384 C3393 1.390 . S
C3385 C3384 1.387 . S
C3385 C3387 1.387 . S
H3386 C3393 0.950 . S
C3387 C3385 1.387 . S
C3387 C3389 1.390 . S
C3387 H3391 0.950 . S
H3388 C3384 0.950 . S
C3389 C3387 1.390 . S
C3389 C3390 1.387 . S
C3389 H3392 0.950 . S
C3390 C3389 1.387 . S
C3390 C3393 1.387 . S
H3391 C3387 0.950 . S
H3392 C3389 0.950 . S
C3393 C3384 1.390 . S
C3393 H3386 0.950 . S
C3393 C3390 1.387 . S
C3394 C3395 1.387 . S
C3394 H3398 0.950 . S
C3394 C3403 1.390 . S
C3395 C3394 1.387 . S
C3395 C3397 1.387 . S
H3396 C3403 0.950 . S
C3397 C3395 1.387 . S
C3397 C3399 1.390 . S
C3397 H3401 0.950 . S
H3398 C3394 0.950 . S
C3399 C3397 1.390 . S
C3399 C3400 1.387 . S
C3399 H3402 0.950 . S
C3400 C3399 1.387 . S
C3400 C3403 1.387 . S
H3401 C3397 0.950 . S
H3402 C3399 0.950 . S
C3403 C3394 1.390 . S
C3403 H3396 0.950 . S
C3403 C3400 1.387 . S
C3404 C3405 1.387 . S
C3404 H3408 0.950 . S
C3404 C3413 1.390 . S
C3405 C3404 1.387 . S
C3405 C3407 1.387 . S
H3406 C3413 0.950 . S
C3407 C3405 1.387 . S
C3407 C3409 1.390 . S
C3407 H3411 0.950 . S
H3408 C3404 0.950 . S
C3409 C3407 1.390 . S
C3409 C3410 1.387 . S
C3409 H3412 0.950 . S
C3410 C3409 1.387 . S
C3410 C3413 1.387 . S
H3411 C3407 0.950 . S
H3412 C3409 0.950 . S
C3413 C3404 1.390 . S
C3413 H3406 0.950 . S
C3413 C3410 1.387 . S
C3414 C3415 1.387 . S
C3414 H3418 0.950 . S
C3414 C3423 1.390 . S
C3415 C3414 1.387 . S
C3415 C3417 1.387 1_565 S
H3416 C3423 0.950 . S
C3417 C3415 1.387 1_545 S
C3417 C3419 1.390 1_545 S
C3417 H3421 0.950 . S
H3418 C3414 0.950 . S
C3419 C3417 1.390 1_565 S
C3419 C3420 1.387 . S
C3419 H3422 0.950 1_655 S
C3420 C3419 1.387 . S
C3420 C3423 1.387 . S
H3421 C3417 0.950 . S
H3422 C3419 0.950 1_455 S
C3423 C3414 1.390 . S
C3423 H3416 0.950 . S
C3423 C3420 1.387 . S
C3424 C3425 1.387 . S
C3424 H3428 0.950 . S
C3424 C3433 1.390 . S
C3425 C3424 1.387 . S
C3425 C3427 1.387 . S
H3426 C3433 0.950 . S
C3427 C3425 1.387 . S
C3427 C3429 1.390 . S
C3427 H3431 0.950 . S
H3428 C3424 0.950 . S
C3429 C3427 1.390 . S
C3429 C3430 1.387 . S
C3429 H3432 0.950 . S
C3430 C3429 1.387 . S
C3430 C3433 1.387 . S
H3431 C3427 0.950 . S
H3432 C3429 0.950 . S
C3433 C3424 1.390 . S
C3433 H3426 0.950 . S
C3433 C3430 1.387 . S
C3434 C3435 1.387 . S
C3434 H3438 0.950 . S
C3434 C3443 1.390 . S
C3435 C3434 1.387 . S
C3435 C3437 1.387 . S
H3436 C3443 0.950 . S
C3437 C3435 1.387 . S
C3437 C3439 1.390 . S
C3437 H3441 0.950 . S
H3438 C3434 0.950 . S
C3439 C3437 1.390 . S
C3439 C3440 1.387 . S
C3439 H3442 0.950 . S
C3440 C3439 1.387 . S
C3440 C3443 1.387 . S
H3441 C3437 0.950 . S
H3442 C3439 0.950 . S
C3443 C3434 1.390 . S
C3443 H3436 0.950 . S
C3443 C3440 1.387 . S
C3444 C3445 1.387 . S
C3444 H3448 0.950 . S
C3444 C3453 1.390 . S
C3445 C3444 1.387 . S
C3445 C3447 1.387 . S
H3446 C3453 0.950 . S
C3447 C3445 1.387 . S
C3447 C3449 1.390 . S
C3447 H3451 0.950 . S
H3448 C3444 0.950 . S
C3449 C3447 1.390 . S
C3449 C3450 1.387 . S
C3449 H3452 0.950 . S
C3450 C3449 1.387 . S
C3450 C3453 1.387 . S
H3451 C3447 0.950 . S
H3452 C3449 0.950 . S
C3453 C3444 1.390 . S
C3453 H3446 0.950 . S
C3453 C3450 1.387 . S
C3454 C3455 1.387 . S
C3454 H3458 0.950 . S
C3454 C3463 1.390 . S
C3455 C3454 1.387 . S
C3455 C3457 1.387 . S
H3456 C3463 0.950 . S
C3457 C3455 1.387 . S
C3457 C3459 1.390 . S
C3457 H3461 0.950 . S
H3458 C3454 0.950 . S
C3459 C3457 1.390 . S
C3459 C3460 1.387 . S
C3459 H3462 0.950 . S
C3460 C3459 1.387 . S
C3460 C3463 1.387 . S
H3461 C3457 0.950 . S
H3462 C3459 0.950 . S
C3463 C3454 1.390 . S
C3463 H3456 0.950 . S
C3463 C3460 1.387 . S
C3464 C3465 1.387 . S
C3464 H3468 0.950 . S
C3464 C3473 1.390 . S
C3465 C3464 1.387 . S
C3465 C3467 1.387 . S
H3466 C3473 0.950 . S
C3467 C3465 1.387 . S
C3467 C3469 1.390 . S
C3467 H3471 0.950 . S
H3468 C3464 0.950 . S
C3469 C3467 1.390 . S
C3469 C3470 1.387 . S
C3469 H3472 0.950 . S
C3470 C3469 1.387 . S
C3470 C3473 1.387 . S
H3471 C3467 0.950 . S
H3472 C3469 0.950 . S
C3473 C3464 1.390 . S
C3473 H3466 0.950 . S
C3473 C3470 1.387 . S
C3474 C3475 1.387 . S
C3474 H3478 0.950 . S
C3474 C3483 1.390 . S
C3475 C3474 1.387 . S
C3475 C3477 1.387 . S
H3476 C3483 0.950 . S
C3477 C3475 1.387 . S
C3477 C3479 1.390 . S
C3477 H3481 0.950 . S
H3478 C3474 0.950 . S
C3479 C3477 1.390 . S
C3479 C3480 1.387 . S
C3479 H3482 0.950 . S
C3480 C3479 1.387 . S
C3480 C3483 1.387 . S
H3481 C3477 0.950 . S
H3482 C3479 0.950 . S
C3483 C3474 1.390 . S
C3483 H3476 0.950 . S
C3483 C3480 1.387 . S
C3484 C3485 1.387 1_455 S
C3484 H3488 0.950 . S
C3484 C3493 1.390 1_455 S
C3485 C3484 1.387 1_655 S
C3485 C3487 1.387 . S
H3486 C3493 0.950 1_455 S
C3487 C3485 1.387 . S
C3487 C3489 1.390 . S
C3487 H3491 0.950 . S
H3488 C3484 0.950 . S
C3489 C3487 1.390 . S
C3489 C3490 1.387 . S
C3489 H3492 0.950 . S
C3490 C3489 1.387 . S
C3490 C3493 1.387 . S
H3491 C3487 0.950 . S
H3492 C3489 0.950 . S
C3493 C3484 1.390 1_655 S
C3493 H3486 0.950 1_655 S
C3493 C3490 1.387 . S
C3494 C3495 1.387 . S
C3494 H3498 0.950 . S
C3494 C3503 1.390 . S
C3495 C3494 1.387 . S
C3495 C3497 1.387 . S
H3496 C3503 0.949 1_545 S
C3497 C3495 1.387 . S
C3497 C3499 1.390 . S
C3497 H3501 0.950 . S
H3498 C3494 0.950 . S
C3499 C3497 1.390 . S
C3499 C3500 1.387 . S
C3499 H3502 0.950 . S
C3500 C3499 1.387 . S
C3500 C3503 1.387 . S
H3501 C3497 0.950 . S
H3502 C3499 0.950 . S
C3503 C3494 1.390 . S
C3503 H3496 0.949 1_565 S
C3503 C3500 1.387 . S
C3504 C3505 1.387 . S
C3504 H3508 0.950 . S
C3504 C3513 1.390 . S
C3505 C3504 1.387 . S
C3505 C3507 1.387 . S
H3506 C3513 0.950 1_545 S
C3507 C3505 1.387 . S
C3507 C3509 1.390 . S
C3507 H3511 0.950 . S
H3508 C3504 0.950 . S
C3509 C3507 1.390 . S
C3509 C3510 1.387 . S
C3509 H3512 0.950 . S
C3510 C3509 1.387 . S
C3510 C3513 1.387 . S
H3511 C3507 0.950 . S
H3512 C3509 0.950 . S
C3513 C3504 1.390 . S
C3513 H3506 0.950 1_565 S
C3513 C3510 1.387 . S
C3514 C3515 1.387 . S
C3514 H3518 0.950 . S
C3514 C3523 1.390 . S
C3515 C3514 1.387 . S
C3515 C3517 1.387 . S
H3516 C3523 0.950 . S
C3517 C3515 1.387 . S
C3517 C3519 1.390 . S
C3517 H3521 0.950 . S
H3518 C3514 0.950 . S
C3519 C3517 1.390 . S
C3519 C3520 1.387 . S
C3519 H3522 0.950 . S
C3520 C3519 1.387 . S
C3520 C3523 1.387 . S
H3521 C3517 0.950 . S
H3522 C3519 0.950 . S
C3523 C3514 1.390 . S
C3523 H3516 0.950 . S
C3523 C3520 1.387 . S
C3524 C3525 1.387 . S
C3524 H3528 0.950 . S
C3524 C3533 1.390 . S
C3525 C3524 1.387 . S
C3525 C3527 1.387 . S
H3526 C3533 0.950 . S
C3527 C3525 1.387 . S
C3527 C3529 1.390 . S
C3527 H3531 0.950 . S
H3528 C3524 0.950 . S
C3529 C3527 1.390 . S
C3529 C3530 1.387 . S
C3529 H3532 0.950 . S
C3530 C3529 1.387 . S
C3530 C3533 1.387 . S
H3531 C3527 0.950 . S
H3532 C3529 0.950 . S
C3533 C3524 1.390 . S
C3533 H3526 0.950 . S
C3533 C3530 1.387 . S
C3534 C3535 1.387 . S
C3534 H3538 0.950 . S
C3534 C3543 1.390 . S
C3535 C3534 1.387 . S
C3535 C3537 1.387 . S
H3536 C3543 0.950 . S
C3537 C3535 1.387 . S
C3537 C3539 1.390 . S
C3537 H3541 0.950 . S
H3538 C3534 0.950 . S
C3539 C3537 1.390 . S
C3539 C3540 1.387 . S
C3539 H3542 0.950 . S
C3540 C3539 1.387 . S
C3540 C3543 1.387 . S
H3541 C3537 0.950 . S
H3542 C3539 0.950 . S
C3543 C3534 1.390 . S
C3543 H3536 0.950 . S
C3543 C3540 1.387 . S
C3544 C3545 1.387 . S
C3544 H3548 0.950 . S
C3544 C3553 1.390 . S
C3545 C3544 1.387 . S
C3545 C3547 1.387 . S
H3546 C3553 0.950 . S
C3547 C3545 1.387 . S
C3547 C3549 1.390 . S
C3547 H3551 0.950 . S
H3548 C3544 0.950 . S
C3549 C3547 1.390 . S
C3549 C3550 1.387 . S
C3549 H3552 0.950 . S
C3550 C3549 1.387 . S
C3550 C3553 1.387 . S
H3551 C3547 0.950 . S
H3552 C3549 0.950 . S
C3553 C3544 1.390 . S
C3553 H3546 0.950 . S
C3553 C3550 1.387 . S
C3554 C3555 1.387 . S
C3554 H3558 0.950 . S
C3554 C3563 1.390 . S
C3555 C3554 1.387 . S
C3555 C3557 1.387 . S
H3556 C3563 0.950 . S
C3557 C3555 1.387 . S
C3557 C3559 1.390 . S
C3557 H3561 0.950 . S
H3558 C3554 0.950 . S
C3559 C3557 1.390 . S
C3559 C3560 1.387 . S
C3559 H3562 0.950 . S
C3560 C3559 1.387 . S
C3560 C3563 1.387 . S
H3561 C3557 0.950 . S
H3562 C3559 0.950 . S
C3563 C3554 1.390 . S
C3563 H3556 0.950 . S
C3563 C3560 1.387 . S
C3564 C3565 1.387 . S
C3564 H3568 0.950 . S
C3564 C3573 1.390 . S
C3565 C3564 1.387 . S
C3565 C3567 1.387 . S
H3566 C3573 0.950 . S
C3567 C3565 1.387 . S
C3567 C3569 1.390 . S
C3567 H3571 0.950 . S
H3568 C3564 0.950 . S
C3569 C3567 1.390 . S
C3569 C3570 1.387 . S
C3569 H3572 0.950 . S
C3570 C3569 1.387 . S
C3570 C3573 1.387 . S
H3571 C3567 0.950 . S
H3572 C3569 0.950 . S
C3573 C3564 1.390 . S
C3573 H3566 0.950 . S
C3573 C3570 1.387 . S
C3574 C3575 1.387 . S
C3574 H3578 0.950 . S
C3574 C3583 1.390 . S
C3575 C3574 1.387 . S
C3575 C3577 1.387 . S
H3576 C3583 0.950 . S
C3577 C3575 1.387 . S
C3577 C3579 1.390 1_455 S
C3577 H3581 0.950 1_455 S
H3578 C3574 0.950 . S
C3579 C3577 1.390 1_655 S
C3579 C3580 1.387 1_655 S
C3579 H3582 0.950 . S
C3580 C3579 1.387 1_455 S
C3580 C3583 1.387 . S
H3581 C3577 0.950 1_655 S
H3582 C3579 0.950 . S
C3583 C3574 1.390 . S
C3583 H3576 0.950 . S
C3583 C3580 1.387 . S
C3584 C3585 1.387 . S
C3584 H3588 0.950 . S
C3584 C3593 1.390 . S
C3585 C3584 1.387 . S
C3585 C3587 1.387 . S
H3586 C3593 0.950 . S
C3587 C3585 1.387 . S
C3587 C3589 1.390 . S
C3587 H3591 0.950 . S
H3588 C3584 0.950 . S
C3589 C3587 1.390 . S
C3589 C3590 1.387 . S
C3589 H3592 0.950 . S
C3590 C3589 1.387 . S
C3590 C3593 1.387 . S
H3591 C3587 0.950 . S
H3592 C3589 0.950 . S
C3593 C3584 1.390 . S
C3593 H3586 0.950 . S
C3593 C3590 1.387 . S
C3594 C3595 1.387 . S
C3594 H3598 0.950 . S
C3594 C3603 1.390 . S
C3595 C3594 1.387 . S
C3595 C3597 1.387 . S
H3596 C3603 0.950 . S
C3597 C3595 1.387 . S
C3597 C3599 1.390 . S
C3597 H3601 0.950 . S
H3598 C3594 0.950 . S
C3599 C3597 1.390 . S
C3599 C3600 1.387 . S
C3599 H3602 0.950 . S
C3600 C3599 1.387 . S
C3600 C3603 1.387 . S
H3601 C3597 0.950 . S
H3602 C3599 0.950 . S
C3603 C3594 1.390 . S
C3603 H3596 0.950 . S
C3603 C3600 1.387 . S
C3604 C3605 1.387 . S
C3604 H3608 0.950 . S
C3604 C3613 1.390 . S
C3605 C3604 1.387 . S
C3605 C3607 1.387 . S
H3606 C3613 0.950 . S
C3607 C3605 1.387 . S
C3607 C3609 1.390 . S
C3607 H3611 0.950 . S
H3608 C3604 0.950 . S
C3609 C3607 1.390 . S
C3609 C3610 1.387 . S
C3609 H3612 0.950 . S
C3610 C3609 1.387 . S
C3610 C3613 1.387 . S
H3611 C3607 0.950 . S
H3612 C3609 0.950 . S
C3613 C3604 1.390 . S
C3613 H3606 0.950 . S
C3613 C3610 1.387 . S
C3614 C3615 1.387 . S
C3614 H3618 0.950 . S
C3614 C3623 1.390 . S
C3615 C3614 1.387 . S
C3615 C3617 1.387 1_545 S
H3616 C3623 0.950 . S
C3617 C3615 1.387 1_565 S
C3617 C3619 1.390 1_565 S
C3617 H3621 0.950 . S
H3618 C3614 0.950 . S
C3619 C3617 1.390 1_545 S
C3619 C3620 1.387 . S
C3619 H3622 0.950 1_545 S
C3620 C3619 1.387 . S
C3620 C3623 1.387 . S
H3621 C3617 0.950 . S
H3622 C3619 0.950 1_565 S
C3623 C3614 1.390 . S
C3623 H3616 0.950 . S
C3623 C3620 1.387 . S
C3624 C3625 1.387 . S
C3624 H3628 0.950 . S
C3624 C3633 1.390 . S
C3625 C3624 1.387 . S
C3625 C3627 1.387 1_545 S
H3626 C3633 0.950 . S
C3627 C3625 1.387 1_565 S
C3627 C3629 1.390 1_565 S
C3627 H3631 0.950 . S
H3628 C3624 0.950 . S
C3629 C3627 1.390 1_545 S
C3629 C3630 1.387 . S
C3629 H3632 0.950 1_545 S
C3630 C3629 1.387 . S
C3630 C3633 1.387 . S
H3631 C3627 0.950 . S
H3632 C3629 0.950 1_565 S
C3633 C3624 1.390 . S
C3633 H3626 0.950 . S
C3633 C3630 1.387 . S
C3634 C3635 1.387 . S
C3634 H3638 0.950 . S
C3634 C3643 1.390 . S
C3635 C3634 1.387 . S
C3635 C3637 1.387 . S
H3636 C3643 0.950 . S
C3637 C3635 1.387 . S
C3637 C3639 1.390 . S
C3637 H3641 0.950 . S
H3638 C3634 0.950 . S
C3639 C3637 1.390 . S
C3639 C3640 1.387 . S
C3639 H3642 0.950 . S
C3640 C3639 1.387 . S
C3640 C3643 1.387 . S
H3641 C3637 0.950 . S
H3642 C3639 0.950 . S
C3643 C3634 1.390 . S
C3643 H3636 0.950 . S
C3643 C3640 1.387 . S
C3644 C3645 1.387 . S
C3644 H3648 0.950 . S
C3644 C3653 1.390 . S
C3645 C3644 1.387 . S
C3645 C3647 1.387 . S
H3646 C3653 0.950 . S
C3647 C3645 1.387 . S
C3647 C3649 1.390 . S
C3647 H3651 0.950 . S
H3648 C3644 0.950 . S
C3649 C3647 1.390 . S
C3649 C3650 1.387 . S
C3649 H3652 0.950 . S
C3650 C3649 1.387 . S
C3650 C3653 1.387 . S
H3651 C3647 0.950 . S
H3652 C3649 0.950 . S
C3653 C3644 1.390 . S
C3653 H3646 0.950 . S
C3653 C3650 1.387 . S
C3654 C3655 1.387 . S
C3654 H3658 0.950 1_455 S
C3654 C3663 1.390 1_455 S
C3655 C3654 1.387 . S
C3655 C3657 1.387 . S
H3656 C3663 0.950 . S
C3657 C3655 1.387 . S
C3657 C3659 1.390 . S
C3657 H3661 0.950 . S
H3658 C3654 0.950 1_655 S
C3659 C3657 1.390 . S
C3659 C3660 1.387 . S
C3659 H3662 0.950 . S
C3660 C3659 1.387 . S
C3660 C3663 1.387 1_455 S
H3661 C3657 0.950 . S
H3662 C3659 0.950 . S
C3663 C3654 1.390 1_655 S
C3663 H3656 0.950 . S
C3663 C3660 1.387 1_655 S
C3664 C3665 1.387 . S
C3664 H3668 0.950 . S
C3664 C3673 1.390 . S
C3665 C3664 1.387 . S
C3665 C3667 1.387 . S
H3666 C3673 0.950 . S
C3667 C3665 1.387 . S
C3667 C3669 1.390 . S
C3667 H3671 0.950 . S
H3668 C3664 0.950 . S
C3669 C3667 1.390 . S
C3669 C3670 1.387 . S
C3669 H3672 0.950 . S
C3670 C3669 1.387 . S
C3670 C3673 1.387 . S
H3671 C3667 0.950 . S
H3672 C3669 0.950 . S
C3673 C3664 1.390 . S
C3673 H3666 0.950 . S
C3673 C3670 1.387 . S
C3674 C3675 1.387 . S
C3674 H3678 0.950 . S
C3674 C3683 1.390 . S
C3675 C3674 1.387 . S
C3675 C3677 1.387 . S
H3676 C3683 0.950 . S
C3677 C3675 1.387 . S
C3677 C3679 1.390 . S
C3677 H3681 0.950 . S
H3678 C3674 0.950 . S
C3679 C3677 1.390 . S
C3679 C3680 1.387 . S
C3679 H3682 0.950 . S
C3680 C3679 1.387 . S
C3680 C3683 1.387 . S
H3681 C3677 0.950 . S
H3682 C3679 0.950 . S
C3683 C3674 1.390 . S
C3683 H3676 0.950 . S
C3683 C3680 1.387 . S
C3684 C3685 1.387 . S
C3684 H3688 0.950 . S
C3684 C3693 1.390 . S
C3685 C3684 1.387 . S
C3685 C3687 1.387 . S
H3686 C3693 0.950 . S
C3687 C3685 1.387 . S
C3687 C3689 1.390 . S
C3687 H3691 0.950 . S
H3688 C3684 0.950 . S
C3689 C3687 1.390 . S
C3689 C3690 1.387 . S
C3689 H3692 0.950 . S
C3690 C3689 1.387 . S
C3690 C3693 1.387 . S
H3691 C3687 0.950 . S
H3692 C3689 0.950 . S
C3693 C3684 1.390 . S
C3693 H3686 0.950 . S
C3693 C3690 1.387 . S
C3694 C3695 1.387 . S
C3694 H3698 0.950 . S
C3694 C3703 1.390 . S
C3695 C3694 1.387 . S
C3695 C3697 1.387 . S
H3696 C3703 0.950 . S
C3697 C3695 1.387 . S
C3697 C3699 1.390 . S
C3697 H3701 0.950 . S
H3698 C3694 0.950 . S
C3699 C3697 1.390 . S
C3699 C3700 1.387 . S
C3699 H3702 0.950 . S
C3700 C3699 1.387 . S
C3700 C3703 1.387 . S
H3701 C3697 0.950 . S
H3702 C3699 0.950 . S
C3703 C3694 1.390 . S
C3703 H3696 0.950 . S
C3703 C3700 1.387 . S
C3704 C3705 1.387 . S
C3704 H3708 0.950 . S
C3704 C3713 1.390 . S
C3705 C3704 1.387 . S
C3705 C3707 1.387 . S
H3706 C3713 0.950 . S
C3707 C3705 1.387 . S
C3707 C3709 1.390 . S
C3707 H3711 0.950 . S
H3708 C3704 0.950 . S
C3709 C3707 1.390 . S
C3709 C3710 1.387 . S
C3709 H3712 0.950 . S
C3710 C3709 1.387 . S
C3710 C3713 1.387 . S
H3711 C3707 0.950 . S
H3712 C3709 0.950 . S
C3713 C3704 1.390 . S
C3713 H3706 0.950 . S
C3713 C3710 1.387 . S
C3714 C3715 1.387 . S
C3714 H3718 0.950 . S
C3714 C3723 1.390 . S
C3715 C3714 1.387 . S
C3715 C3717 1.387 . S
H3716 C3723 0.950 . S
C3717 C3715 1.387 . S
C3717 C3719 1.390 . S
C3717 H3721 0.950 . S
H3718 C3714 0.950 . S
C3719 C3717 1.390 . S
C3719 C3720 1.387 . S
C3719 H3722 0.950 . S
C3720 C3719 1.387 . S
C3720 C3723 1.387 . S
H3721 C3717 0.950 . S
H3722 C3719 0.950 . S
C3723 C3714 1.390 . S
C3723 H3716 0.950 . S
C3723 C3720 1.387 . S
C3724 C3725 1.387 . S
C3724 H3728 0.950 . S
C3724 C3733 1.390 . S
C3725 C3724 1.387 . S
C3725 C3727 1.387 . S
H3726 C3733 0.950 . S
C3727 C3725 1.387 . S
C3727 C3729 1.390 . S
C3727 H3731 0.950 . S
H3728 C3724 0.950 . S
C3729 C3727 1.390 . S
C3729 C3730 1.387 . S
C3729 H3732 0.950 . S
C3730 C3729 1.387 . S
C3730 C3733 1.387 . S
H3731 C3727 0.950 . S
H3732 C3729 0.950 . S
C3733 C3724 1.390 . S
C3733 H3726 0.950 . S
C3733 C3730 1.387 . S
C3734 C3735 1.387 . S
C3734 H3738 0.950 . S
C3734 C3743 1.390 . S
C3735 C3734 1.387 . S
C3735 C3737 1.387 . S
H3736 C3743 0.950 . S
C3737 C3735 1.387 . S
C3737 C3739 1.390 . S
C3737 H3741 0.950 . S
H3738 C3734 0.950 . S
C3739 C3737 1.390 . S
C3739 C3740 1.387 . S
C3739 H3742 0.950 . S
C3740 C3739 1.387 . S
C3740 C3743 1.387 . S
H3741 C3737 0.950 . S
H3742 C3739 0.950 . S
C3743 C3734 1.390 . S
C3743 H3736 0.950 . S
C3743 C3740 1.387 . S
C3744 C3745 1.387 . S
C3744 H3748 0.950 1_565 S
C3744 C3753 1.390 . S
C3745 C3744 1.387 . S
C3745 C3747 1.387 . S
H3746 C3753 0.950 1_545 S
C3747 C3745 1.387 . S
C3747 C3749 1.390 . S
C3747 H3751 0.950 . S
H3748 C3744 0.950 1_545 S
C3749 C3747 1.390 . S
C3749 C3750 1.387 . S
C3749 H3752 0.950 . S
C3750 C3749 1.387 . S
C3750 C3753 1.387 . S
H3751 C3747 0.950 . S
H3752 C3749 0.950 . S
C3753 C3744 1.390 . S
C3753 H3746 0.950 1_565 S
C3753 C3750 1.387 . S
C3754 C3755 1.387 . S
C3754 H3758 0.950 . S
C3754 C3763 1.390 . S
C3755 C3754 1.387 . S
C3755 C3757 1.387 . S
H3756 C3763 0.950 . S
C3757 C3755 1.387 . S
C3757 C3759 1.390 . S
C3757 H3761 0.950 . S
H3758 C3754 0.950 . S
C3759 C3757 1.390 . S
C3759 C3760 1.387 . S
C3759 H3762 0.950 . S
C3760 C3759 1.387 . S
C3760 C3763 1.387 . S
H3761 C3757 0.950 . S
H3762 C3759 0.950 . S
C3763 C3754 1.390 . S
C3763 H3756 0.950 . S
C3763 C3760 1.387 . S
C3764 C3765 1.387 . S
C3764 H3768 0.950 . S
C3764 C3773 1.390 . S
C3765 C3764 1.387 . S
C3765 C3767 1.387 . S
H3766 C3773 0.950 . S
C3767 C3765 1.387 . S
C3767 C3769 1.390 . S
C3767 H3771 0.950 . S
H3768 C3764 0.950 . S
C3769 C3767 1.390 . S
C3769 C3770 1.387 . S
C3769 H3772 0.950 . S
C3770 C3769 1.387 . S
C3770 C3773 1.387 . S
H3771 C3767 0.950 . S
H3772 C3769 0.950 . S
C3773 C3764 1.390 . S
C3773 H3766 0.950 . S
C3773 C3770 1.387 . S
C3774 C3775 1.387 . S
C3774 H3778 0.950 . S
C3774 C3783 1.390 . S
C3775 C3774 1.387 . S
C3775 C3777 1.387 . S
H3776 C3783 0.950 . S
C3777 C3775 1.387 . S
C3777 C3779 1.390 . S
C3777 H3781 0.950 . S
H3778 C3774 0.950 . S
C3779 C3777 1.390 . S
C3779 C3780 1.387 . S
C3779 H3782 0.950 . S
C3780 C3779 1.387 . S
C3780 C3783 1.387 . S
H3781 C3777 0.950 . S
H3782 C3779 0.950 . S
C3783 C3774 1.390 . S
C3783 H3776 0.950 . S
C3783 C3780 1.387 . S
C3784 C3785 1.387 . S
C3784 H3788 0.950 . S
C3784 C3793 1.390 . S
C3785 C3784 1.387 . S
C3785 C3787 1.387 . S
H3786 C3793 0.950 . S
C3787 C3785 1.387 . S
C3787 C3789 1.390 . S
C3787 H3791 0.950 . S
H3788 C3784 0.950 . S
C3789 C3787 1.390 . S
C3789 C3790 1.387 . S
C3789 H3792 0.950 . S
C3790 C3789 1.387 . S
C3790 C3793 1.387 . S
H3791 C3787 0.950 . S
H3792 C3789 0.950 . S
C3793 C3784 1.390 . S
C3793 H3786 0.950 . S
C3793 C3790 1.387 . S
C3794 C3795 1.387 . S
C3794 H3798 0.950 . S
C3794 C3803 1.390 . S
C3795 C3794 1.387 . S
C3795 C3797 1.387 . S
H3796 C3803 0.950 . S
C3797 C3795 1.387 . S
C3797 C3799 1.390 . S
C3797 H3801 0.950 . S
H3798 C3794 0.950 . S
C3799 C3797 1.390 . S
C3799 C3800 1.387 . S
C3799 H3802 0.950 . S
C3800 C3799 1.387 . S
C3800 C3803 1.387 . S
H3801 C3797 0.950 . S
H3802 C3799 0.950 . S
C3803 C3794 1.390 . S
C3803 H3796 0.950 . S
C3803 C3800 1.387 . S
C3804 C3805 1.387 . S
C3804 H3808 0.950 . S
C3804 C3813 1.390 . S
C3805 C3804 1.387 . S
C3805 C3807 1.387 . S
H3806 C3813 0.950 . S
C3807 C3805 1.387 . S
C3807 C3809 1.390 . S
C3807 H3811 0.950 . S
H3808 C3804 0.950 . S
C3809 C3807 1.390 . S
C3809 C3810 1.387 . S
C3809 H3812 0.950 . S
C3810 C3809 1.387 . S
C3810 C3813 1.387 . S
H3811 C3807 0.950 . S
H3812 C3809 0.950 . S
C3813 C3804 1.390 . S
C3813 H3806 0.950 . S
C3813 C3810 1.387 . S
C3814 C3815 1.387 . S
C3814 H3818 0.950 1_655 S
C3814 C3823 1.390 . S
C3815 C3814 1.387 . S
C3815 C3817 1.387 . S
H3816 C3823 0.950 1_455 S
C3817 C3815 1.387 . S
C3817 C3819 1.390 . S
C3817 H3821 0.950 . S
H3818 C3814 0.950 1_455 S
C3819 C3817 1.390 . S
C3819 C3820 1.387 . S
C3819 H3822 0.950 . S
C3820 C3819 1.387 . S
C3820 C3823 1.387 . S
H3821 C3817 0.950 . S
H3822 C3819 0.950 . S
C3823 C3814 1.390 . S
C3823 H3816 0.950 1_655 S
C3823 C3820 1.387 . S
C3824 C3825 1.387 . S
C3824 H3828 0.950 . S
C3824 C3833 1.390 . S
C3825 C3824 1.387 . S
C3825 C3827 1.387 . S
H3826 C3833 0.950 . S
C3827 C3825 1.387 . S
C3827 C3829 1.390 . S
C3827 H3831 0.950 . S
H3828 C3824 0.950 . S
C3829 C3827 1.390 . S
C3829 C3830 1.387 . S
C3829 H3832 0.950 . S
C3830 C3829 1.387 . S
C3830 C3833 1.387 . S
H3831 C3827 0.950 . S
H3832 C3829 0.950 . S
C3833 C3824 1.390 . S
C3833 H3826 0.950 . S
C3833 C3830 1.387 . S
C3834 C3835 1.387 . S
C3834 H3838 0.950 . S
C3834 C3843 1.390 . S
C3835 C3834 1.387 . S
C3835 C3837 1.387 . S
H3836 C3843 0.950 . S
C3837 C3835 1.387 . S
C3837 C3839 1.390 . S
C3837 H3841 0.950 . S
H3838 C3834 0.950 . S
C3839 C3837 1.390 . S
C3839 C3840 1.387 . S
C3839 H3842 0.950 . S
C3840 C3839 1.387 . S
C3840 C3843 1.387 . S
H3841 C3837 0.950 . S
H3842 C3839 0.950 . S
C3843 C3834 1.390 . S
C3843 H3836 0.950 . S
C3843 C3840 1.387 . S
C3844 C3845 1.387 . S
C3844 H3848 0.950 . S
C3844 C3853 1.390 . S
C3845 C3844 1.387 . S
C3845 C3847 1.387 . S
H3846 C3853 0.950 . S
C3847 C3845 1.387 . S
C3847 C3849 1.390 . S
C3847 H3851 0.950 . S
H3848 C3844 0.950 . S
C3849 C3847 1.390 . S
C3849 C3850 1.387 . S
C3849 H3852 0.950 . S
C3850 C3849 1.387 . S
C3850 C3853 1.387 . S
H3851 C3847 0.950 . S
H3852 C3849 0.950 . S
C3853 C3844 1.390 . S
C3853 H3846 0.950 . S
C3853 C3850 1.387 . S
C3854 C3855 1.387 . S
C3854 H3858 0.950 . S
C3854 C3863 1.390 . S
C3855 C3854 1.387 . S
C3855 C3857 1.387 . S
H3856 C3863 0.950 . S
C3857 C3855 1.387 . S
C3857 C3859 1.390 . S
C3857 H3861 0.950 1_565 S
H3858 C3854 0.950 . S
C3859 C3857 1.390 . S
C3859 C3860 1.387 . S
C3859 H3862 0.950 1_565 S
C3860 C3859 1.387 . S
C3860 C3863 1.387 . S
H3861 C3857 0.950 1_545 S
H3862 C3859 0.950 1_545 S
C3863 C3854 1.390 . S
C3863 H3856 0.950 . S
C3863 C3860 1.387 . S
C3864 C3865 1.387 . S
C3864 H3868 0.950 . S
C3864 C3873 1.390 . S
C3865 C3864 1.387 . S
C3865 C3867 1.387 . S
H3866 C3873 0.950 . S
C3867 C3865 1.387 . S
C3867 C3869 1.390 1_455 S
C3867 H3871 0.950 . S
H3868 C3864 0.950 . S
C3869 C3867 1.390 1_655 S
C3869 C3870 1.387 . S
C3869 H3872 0.950 . S
C3870 C3869 1.387 . S
C3870 C3873 1.387 1_655 S
H3871 C3867 0.950 . S
H3872 C3869 0.950 . S
C3873 C3864 1.390 . S
C3873 H3866 0.950 . S
C3873 C3870 1.387 1_455 S
C3874 C3875 1.387 . S
C3874 H3878 0.950 . S
C3874 C3883 1.390 . S
C3875 C3874 1.387 . S
C3875 C3877 1.387 . S
H3876 C3883 0.950 . S
C3877 C3875 1.387 . S
C3877 C3879 1.390 . S
C3877 H3881 0.950 . S
H3878 C3874 0.950 . S
C3879 C3877 1.390 . S
C3879 C3880 1.387 . S
C3879 H3882 0.950 . S
C3880 C3879 1.387 . S
C3880 C3883 1.387 . S
H3881 C3877 0.950 . S
H3882 C3879 0.950 . S
C3883 C3874 1.390 . S
C3883 H3876 0.950 . S
C3883 C3880 1.387 . S
C3884 C3885 1.387 . S
C3884 H3888 0.950 . S
C3884 C3893 1.390 . S
C3885 C3884 1.387 . S
C3885 C3887 1.387 . S
H3886 C3893 0.950 . S
C3887 C3885 1.387 . S
C3887 C3889 1.390 . S
C3887 H3891 0.950 . S
H3888 C3884 0.950 . S
C3889 C3887 1.390 . S
C3889 C3890 1.387 . S
C3889 H3892 0.950 . S
C3890 C3889 1.387 . S
C3890 C3893 1.387 . S
H3891 C3887 0.950 . S
H3892 C3889 0.950 . S
C3893 C3884 1.390 . S
C3893 H3886 0.950 . S
C3893 C3890 1.387 . S
C3894 C3895 1.387 . S
C3894 H3898 0.950 . S
C3894 C3903 1.390 . S
C3895 C3894 1.387 . S
C3895 C3897 1.387 . S
H3896 C3903 0.950 . S
C3897 C3895 1.387 . S
C3897 C3899 1.390 . S
C3897 H3901 0.950 . S
H3898 C3894 0.950 . S
C3899 C3897 1.390 . S
C3899 C3900 1.387 . S
C3899 H3902 0.950 . S
C3900 C3899 1.387 . S
C3900 C3903 1.387 . S
H3901 C3897 0.950 . S
H3902 C3899 0.950 . S
C3903 C3894 1.390 . S
C3903 H3896 0.950 . S
C3903 C3900 1.387 . S
C3904 C3905 1.387 . S
C3904 H3908 0.950 . S
C3904 C3913 1.390 . S
C3905 C3904 1.387 . S
C3905 C3907 1.387 . S
H3906 C3913 0.950 1_565 S
C3907 C3905 1.387 . S
C3907 C3909 1.390 . S
C3907 H3911 0.950 . S
H3908 C3904 0.950 . S
C3909 C3907 1.390 . S
C3909 C3910 1.387 1_545 S
C3909 H3912 0.950 1_545 S
C3910 C3909 1.387 1_565 S
C3910 C3913 1.387 1_565 S
H3911 C3907 0.950 . S
H3912 C3909 0.950 1_565 S
C3913 C3904 1.390 . S
C3913 H3906 0.950 1_545 S
C3913 C3910 1.387 1_545 S
C3914 C3915 1.387 . S
C3914 H3918 0.950 . S
C3914 C3923 1.390 . S
C3915 C3914 1.387 . S
C3915 C3917 1.387 . S
H3916 C3923 0.950 . S
C3917 C3915 1.387 . S
C3917 C3919 1.390 . S
C3917 H3921 0.950 . S
H3918 C3914 0.950 . S
C3919 C3917 1.390 . S
C3919 C3920 1.387 . S
C3919 H3922 0.950 . S
C3920 C3919 1.387 . S
C3920 C3923 1.387 . S
H3921 C3917 0.950 . S
H3922 C3919 0.950 . S
C3923 C3914 1.390 . S
C3923 H3916 0.950 . S
C3923 C3920 1.387 . S
C3924 C3925 1.387 . S
C3924 H3928 0.950 . S
C3924 C3933 1.390 . S
C3925 C3924 1.387 . S
C3925 C3927 1.387 . S
H3926 C3933 0.950 . S
C3927 C3925 1.387 . S
C3927 C3929 1.390 . S
C3927 H3931 0.950 . S
H3928 C3924 0.950 . S
C3929 C3927 1.390 . S
C3929 C3930 1.387 . S
C3929 H3932 0.950 . S
C3930 C3929 1.387 . S
C3930 C3933 1.387 . S
H3931 C3927 0.950 . S
H3932 C3929 0.950 . S
C3933 C3924 1.390 . S
C3933 H3926 0.950 . S
C3933 C3930 1.387 . S
C3934 C3935 1.387 . S
C3934 H3938 0.950 . S
C3934 C3943 1.390 1_565 S
C3935 C3934 1.387 . S
C3935 C3937 1.387 1_565 S
H3936 C3943 0.958 . S
C3937 C3935 1.387 1_545 S
C3937 C3939 1.390 . S
C3937 H3941 0.950 . S
H3938 C3934 0.950 . S
C3939 C3937 1.390 . S
C3939 C3940 1.387 . S
C3939 H3942 0.950 . S
C3940 C3939 1.387 . S
C3940 C3943 1.387 . S
H3941 C3937 0.950 . S
H3942 C3939 0.950 . S
C3943 C3934 1.390 1_545 S
C3943 H3936 0.958 . S
C3943 C3940 1.387 . S
C3944 C3945 1.387 . S
C3944 H3948 0.950 . S
C3944 C3953 1.390 . S
C3945 C3944 1.387 . S
C3945 C3947 1.387 . S
H3946 C3953 0.950 . S
C3947 C3945 1.387 . S
C3947 C3949 1.390 . S
C3947 H3951 0.950 . S
H3948 C3944 0.950 . S
C3949 C3947 1.390 . S
C3949 C3950 1.387 . S
C3949 H3952 0.950 . S
C3950 C3949 1.387 . S
C3950 C3953 1.387 . S
H3951 C3947 0.950 . S
H3952 C3949 0.950 . S
C3953 C3944 1.390 . S
C3953 H3946 0.950 . S
C3953 C3950 1.387 . S
C3954 C3955 1.387 . S
C3954 H3958 0.950 . S
C3954 C3963 1.358 1_556 S
C3955 C3954 1.387 . S
C3955 C3957 1.387 . S
H3956 C3963 0.961 . S
C3957 C3955 1.387 . S
C3957 C3959 1.390 1_556 S
C3957 H3961 0.950 . S
H3958 C3954 0.950 . S
C3959 C3957 1.390 1_554 S
C3959 C3960 1.387 . S
C3959 H3962 0.950 . S
C3960 C3959 1.387 . S
C3960 C3963 1.410 . S
H3961 C3957 0.950 . S
H3962 C3959 0.950 . S
C3963 C3954 1.358 1_554 S
C3963 H3956 0.961 . S
C3963 C3960 1.410 . S
C3964 C3965 1.387 . S
C3964 H3968 0.950 . S
C3964 C3973 1.471 . S
C3965 C3964 1.387 . S
C3965 C3967 1.387 . S
H3966 C3973 0.942 1_554 S
C3967 C3965 1.387 . S
C3967 C3969 1.390 1_556 S
C3967 H3971 0.950 . S
H3968 C3964 0.950 . S
C3969 C3967 1.390 1_554 S
C3969 C3970 1.387 1_455 S
C3969 H3972 0.950 1_455 S
C3970 C3969 1.387 1_655 S
C3970 C3973 1.323 1_654 S
H3971 C3967 0.950 . S
H3972 C3969 0.950 1_655 S
C3973 C3964 1.471 . S
C3973 H3966 0.942 1_556 S
C3973 C3970 1.323 1_456 S
C3974 C3975 1.387 . S
C3974 H3978 0.950 . S
C3974 C3983 1.390 1_556 S
C3975 C3974 1.387 . S
C3975 C3977 1.387 . S
H3976 C3983 0.950 . S
C3977 C3975 1.387 . S
C3977 C3979 1.390 1_556 S
C3977 H3981 0.950 . S
H3978 C3974 0.950 . S
C3979 C3977 1.390 1_554 S
C3979 C3980 1.387 . S
C3979 H3982 0.950 . S
C3980 C3979 1.387 . S
C3980 C3983 1.387 . S
H3981 C3977 0.950 . S
H3982 C3979 0.950 . S
C3983 C3974 1.390 1_554 S
C3983 H3976 0.950 . S
C3983 C3980 1.387 . S
C3984 C3985 1.387 . S
C3984 H3988 0.950 . S
C3984 C3993 1.390 . S
C3985 C3984 1.387 . S
C3985 C3987 1.387 . S
H3986 C3993 0.950 . S
C3987 C3985 1.387 . S
C3987 C3989 1.390 . S
C3987 H3991 0.950 . S
H3988 C3984 0.950 . S
C3989 C3987 1.390 . S
C3989 C3990 1.387 . S
C3989 H3992 0.950 . S
C3990 C3989 1.387 . S
C3990 C3993 1.387 . S
H3991 C3987 0.950 . S
H3992 C3989 0.950 . S
C3993 C3984 1.390 . S
C3993 H3986 0.950 . S
C3993 C3990 1.387 . S
C3994 C3995 1.387 . S
C3994 H3998 0.950 . S
C3994 C4003 1.390 . S
C3995 C3994 1.387 . S
C3995 C3997 1.387 . S
H3996 C4003 0.950 . S
C3997 C3995 1.387 . S
C3997 C3999 1.390 . S
C3997 H4001 0.950 . S
H3998 C3994 0.950 . S
C3999 C3997 1.390 . S
C3999 C4000 1.387 . S
C3999 H4002 0.950 . S
C4000 C3999 1.387 . S
C4000 C4003 1.387 . S
H4001 C3997 0.950 . S
H4002 C3999 0.950 . S
C4003 C3994 1.390 . S
C4003 H3996 0.950 . S
C4003 C4000 1.387 . S
C4004 C4005 1.387 . S
C4004 H4008 0.950 . S
C4004 C4013 1.390 . S
C4005 C4004 1.387 . S
C4005 C4007 1.387 . S
H4006 C4013 0.950 . S
C4007 C4005 1.387 . S
C4007 C4009 1.390 1_455 S
C4007 H4011 0.950 . S
H4008 C4004 0.950 . S
C4009 C4007 1.390 1_655 S
C4009 C4010 1.387 . S
C4009 H4012 0.950 . S
C4010 C4009 1.387 . S
C4010 C4013 1.387 1_655 S
H4011 C4007 0.950 . S
H4012 C4009 0.950 . S
C4013 C4004 1.390 . S
C4013 H4006 0.950 . S
C4013 C4010 1.387 1_455 S
C4014 C4015 1.376 1_545 S
C4014 H4018 0.950 1_545 S
C4014 C4023 1.402 1_556 S
C4015 C4014 1.376 1_565 S
C4015 C4017 1.347 1_566 S
H4016 C4023 0.950 . S
C4017 C4015 1.347 1_544 S
C4017 C4019 1.442 . S
C4017 H4021 0.939 1_554 S
H4018 C4014 0.950 1_565 S
C4019 C4017 1.442 . S
C4019 C4020 1.387 . S
C4019 H4022 0.950 . S
C4020 C4019 1.387 . S
C4020 C4023 1.387 . S
H4021 C4017 0.939 1_556 S
H4022 C4019 0.950 . S
C4023 C4014 1.402 1_554 S
C4023 H4016 0.950 . S
C4023 C4020 1.387 . S
C4024 C4025 1.387 . S
C4024 H4028 0.950 . S
C4024 C4033 1.390 . S
C4025 C4024 1.387 . S
C4025 C4027 1.387 . S
H4026 C4033 0.957 . S
C4027 C4025 1.387 . S
C4027 C4029 1.390 1_554 S
C4027 H4031 0.950 . S
H4028 C4024 0.950 . S
C4029 C4027 1.390 1_556 S
C4029 C4030 1.387 . S
C4029 H4032 0.950 . S
C4030 C4029 1.387 . S
C4030 C4033 1.387 1_556 S
H4031 C4027 0.950 . S
H4032 C4029 0.950 . S
C4033 C4024 1.390 . S
C4033 H4026 0.957 . S
C4033 C4030 1.387 1_554 S
C4034 C4035 1.387 . S
C4034 H4038 0.950 . S
C4034 C4043 1.390 1_556 S
C4035 C4034 1.387 . S
C4035 C4037 1.387 . S
H4036 C4043 0.950 . S
C4037 C4035 1.387 . S
C4037 C4039 1.390 1_556 S
C4037 H4041 0.950 . S
H4038 C4034 0.950 . S
C4039 C4037 1.390 1_554 S
C4039 C4040 1.387 . S
C4039 H4042 0.950 . S
C4040 C4039 1.387 . S
C4040 C4043 1.387 . S
H4041 C4037 0.950 . S
H4042 C4039 0.950 . S
C4043 C4034 1.390 1_554 S
C4043 H4036 0.950 . S
C4043 C4040 1.387 . S
C4044 C4045 1.387 . S
C4044 H4048 0.950 . S
C4044 C4053 1.390 . S
C4045 C4044 1.387 . S
C4045 C4047 1.387 . S
H4046 C4053 0.950 . S
C4047 C4045 1.387 . S
C4047 C4049 1.390 . S
C4047 H4051 0.950 . S
H4048 C4044 0.950 . S
C4049 C4047 1.390 . S
C4049 C4050 1.387 . S
C4049 H4052 0.950 . S
C4050 C4049 1.387 . S
C4050 C4053 1.387 . S
H4051 C4047 0.950 . S
H4052 C4049 0.950 . S
C4053 C4044 1.390 . S
C4053 H4046 0.950 . S
C4053 C4050 1.387 . S
C4054 C4055 1.387 . S
C4054 H4058 0.950 . S
C4054 C4063 1.390 . S
C4055 C4054 1.387 . S
C4055 C4057 1.387 . S
H4056 C4063 0.950 . S
C4057 C4055 1.387 . S
C4057 C4059 1.390 . S
C4057 H4061 0.950 . S
H4058 C4054 0.950 . S
C4059 C4057 1.390 . S
C4059 C4060 1.387 . S
C4059 H4062 0.950 . S
C4060 C4059 1.387 . S
C4060 C4063 1.387 . S
H4061 C4057 0.950 . S
H4062 C4059 0.950 . S
C4063 C4054 1.390 . S
C4063 H4056 0.950 . S
C4063 C4060 1.387 . S
C4064 C4065 1.387 . S
C4064 H4068 0.950 . S
C4064 C4073 1.390 . S
C4065 C4064 1.387 . S
C4065 C4067 1.387 . S
H4066 C4073 0.950 . S
C4067 C4065 1.387 . S
C4067 C4069 1.390 1_545 S
C4067 H4071 0.950 1_545 S
H4068 C4064 0.950 . S
C4069 C4067 1.390 1_565 S
C4069 C4070 1.387 . S
C4069 H4072 0.950 . S
C4070 C4069 1.387 . S
C4070 C4073 1.387 1_565 S
H4071 C4067 0.950 1_565 S
H4072 C4069 0.950 . S
C4073 C4064 1.390 . S
C4073 H4066 0.950 . S
C4073 C4070 1.387 1_545 S
C4074 C4075 1.387 . S
C4074 H4078 0.950 . S
C4074 C4083 1.390 . S
C4075 C4074 1.387 . S
C4075 C4077 1.387 . S
H4076 C4083 0.950 . S
C4077 C4075 1.387 . S
C4077 C4079 1.390 . S
C4077 H4081 0.950 . S
H4078 C4074 0.950 . S
C4079 C4077 1.390 . S
C4079 C4080 1.387 . S
C4079 H4082 0.950 . S
C4080 C4079 1.387 . S
C4080 C4083 1.387 . S
H4081 C4077 0.950 . S
H4082 C4079 0.950 . S
C4083 C4074 1.390 . S
C4083 H4076 0.950 . S
C4083 C4080 1.387 . S
C4084 C4085 1.387 . S
C4084 H4088 0.950 . S
C4084 C4093 1.390 . S
C4085 C4084 1.387 . S
C4085 C4087 1.387 . S
H4086 C4093 0.950 . S
C4087 C4085 1.387 . S
C4087 C4089 1.390 . S
C4087 H4091 0.950 . S
H4088 C4084 0.950 . S
C4089 C4087 1.390 . S
C4089 C4090 1.387 . S
C4089 H4092 0.950 . S
C4090 C4089 1.387 . S
C4090 C4093 1.387 . S
H4091 C4087 0.950 . S
H4092 C4089 0.950 . S
C4093 C4084 1.390 . S
C4093 H4086 0.950 . S
C4093 C4090 1.387 . S
C4094 C4095 1.387 . S
C4094 H4098 0.950 . S
C4094 C4103 1.390 . S
C4095 C4094 1.387 . S
C4095 C4097 1.387 . S
H4096 C4103 0.950 . S
C4097 C4095 1.387 . S
C4097 C4099 1.390 1_455 S
C4097 H4101 0.950 . S
H4098 C4094 0.950 . S
C4099 C4097 1.390 1_655 S
C4099 C4100 1.387 . S
C4099 H4102 0.950 . S
C4100 C4099 1.387 . S
C4100 C4103 1.387 1_655 S
H4101 C4097 0.950 . S
H4102 C4099 0.950 . S
C4103 C4094 1.390 . S
C4103 H4096 0.950 . S
C4103 C4100 1.387 1_455 S
C4104 C4105 1.387 . S
C4104 H4108 0.950 . S
C4104 C4113 1.390 . S
C4105 C4104 1.387 . S
C4105 C4107 1.387 . S
H4106 C4113 0.950 . S
C4107 C4105 1.387 . S
C4107 C4109 1.390 . S
C4107 H4111 0.950 . S
H4108 C4104 0.950 . S
C4109 C4107 1.390 . S
C4109 C4110 1.387 . S
C4109 H4112 0.950 . S
C4110 C4109 1.387 . S
C4110 C4113 1.387 . S
H4111 C4107 0.950 . S
H4112 C4109 0.950 . S
C4113 C4104 1.390 . S
C4113 H4106 0.950 . S
C4113 C4110 1.387 . S
C4114 C4115 1.387 . S
C4114 H4118 0.950 . S
C4114 C4123 1.390 . S
C4115 C4114 1.387 . S
C4115 C4117 1.387 . S
H4116 C4123 0.950 . S
C4117 C4115 1.387 . S
C4117 C4119 1.390 . S
C4117 H4121 0.950 . S
H4118 C4114 0.950 . S
C4119 C4117 1.390 . S
C4119 C4120 1.387 . S
C4119 H4122 0.950 . S
C4120 C4119 1.387 . S
C4120 C4123 1.387 . S
H4121 C4117 0.950 . S
H4122 C4119 0.950 . S
C4123 C4114 1.390 . S
C4123 H4116 0.950 . S
C4123 C4120 1.387 . S
C4124 C4125 1.387 . S
C4124 H4128 0.950 . S
C4124 C4133 1.390 . S
C4125 C4124 1.387 . S
C4125 C4127 1.387 . S
H4126 C4133 0.950 . S
C4127 C4125 1.387 . S
C4127 C4129 1.390 . S
C4127 H4131 0.950 . S
H4128 C4124 0.950 . S
C4129 C4127 1.390 . S
C4129 C4130 1.387 . S
C4129 H4132 0.950 . S
C4130 C4129 1.387 . S
C4130 C4133 1.387 . S
H4131 C4127 0.950 . S
H4132 C4129 0.950 . S
C4133 C4124 1.390 . S
C4133 H4126 0.950 . S
C4133 C4130 1.387 . S
C4134 C4135 1.387 . S
C4134 H4138 0.950 . S
C4134 C4143 1.390 . S
C4135 C4134 1.387 . S
C4135 C4137 1.387 . S
H4136 C4143 0.950 . S
C4137 C4135 1.387 . S
C4137 C4139 1.390 . S
C4137 H4141 0.950 . S
H4138 C4134 0.950 . S
C4139 C4137 1.390 . S
C4139 C4140 1.387 . S
C4139 H4142 0.950 . S
C4140 C4139 1.387 . S
C4140 C4143 1.387 . S
H4141 C4137 0.950 . S
H4142 C4139 0.950 . S
C4143 C4134 1.390 . S
C4143 H4136 0.950 . S
C4143 C4140 1.387 . S
C4144 C4145 1.387 . S
C4144 H4148 0.950 . S
C4144 C4153 1.390 . S
C4145 C4144 1.387 . S
C4145 C4147 1.387 . S
H4146 C4153 0.950 . S
C4147 C4145 1.387 . S
C4147 C4149 1.390 . S
C4147 H4151 0.950 . S
H4148 C4144 0.950 . S
C4149 C4147 1.390 . S
C4149 C4150 1.387 . S
C4149 H4152 0.950 . S
C4150 C4149 1.387 . S
C4150 C4153 1.387 . S
H4151 C4147 0.950 . S
H4152 C4149 0.950 . S
C4153 C4144 1.390 . S
C4153 H4146 0.950 . S
C4153 C4150 1.387 . S
C4154 C4155 1.387 . S
C4154 H4158 0.950 . S
C4154 C4163 1.390 . S
C4155 C4154 1.387 . S
C4155 C4157 1.387 . S
H4156 C4163 0.950 . S
C4157 C4155 1.387 . S
C4157 C4159 1.390 . S
C4157 H4161 0.950 . S
H4158 C4154 0.950 . S
C4159 C4157 1.390 . S
C4159 C4160 1.387 . S
C4159 H4162 0.950 . S
C4160 C4159 1.387 . S
C4160 C4163 1.387 . S
H4161 C4157 0.950 . S
H4162 C4159 0.950 . S
C4163 C4154 1.390 . S
C4163 H4156 0.950 . S
C4163 C4160 1.387 . S
C4164 C4165 1.387 . S
C4164 H4168 0.950 . S
C4164 C4173 1.390 . S
C4165 C4164 1.387 . S
C4165 C4167 1.387 . S
H4166 C4173 0.950 . S
C4167 C4165 1.387 . S
C4167 C4169 1.390 . S
C4167 H4171 0.950 . S
H4168 C4164 0.950 . S
C4169 C4167 1.390 . S
C4169 C4170 1.387 . S
C4169 H4172 0.950 . S
C4170 C4169 1.387 . S
C4170 C4173 1.387 . S
H4171 C4167 0.950 . S
H4172 C4169 0.950 . S
C4173 C4164 1.390 . S
C4173 H4166 0.950 . S
C4173 C4170 1.387 . S
C4174 C4175 1.387 . S
C4174 H4178 0.950 . S
C4174 C4183 1.390 . S
C4175 C4174 1.387 . S
C4175 C4177 1.387 . S
H4176 C4183 0.950 . S
C4177 C4175 1.387 . S
C4177 C4179 1.390 . S
C4177 H4181 0.950 . S
H4178 C4174 0.950 . S
C4179 C4177 1.390 . S
C4179 C4180 1.387 . S
C4179 H4182 0.950 . S
C4180 C4179 1.387 . S
C4180 C4183 1.387 . S
H4181 C4177 0.950 . S
H4182 C4179 0.950 . S
C4183 C4174 1.390 . S
C4183 H4176 0.950 . S
C4183 C4180 1.387 . S
C4184 C4185 1.387 . S
C4184 H4188 0.950 . S
C4184 C4193 1.390 . S
C4185 C4184 1.387 . S
C4185 C4187 1.387 . S
H4186 C4193 0.950 . S
C4187 C4185 1.387 . S
C4187 C4189 1.390 . S
C4187 H4191 0.950 . S
H4188 C4184 0.950 . S
C4189 C4187 1.390 . S
C4189 C4190 1.387 . S
C4189 H4192 0.950 . S
C4190 C4189 1.387 . S
C4190 C4193 1.387 . S
H4191 C4187 0.950 . S
H4192 C4189 0.950 . S
C4193 C4184 1.390 . S
C4193 H4186 0.950 . S
C4193 C4190 1.387 . S
C4194 C4195 1.387 . S
C4194 H4198 0.950 . S
C4194 C4203 1.390 . S
C4195 C4194 1.387 . S
C4195 C4197 1.387 . S
H4196 C4203 0.950 . S
C4197 C4195 1.387 . S
C4197 C4199 1.390 . S
C4197 H4201 0.950 . S
H4198 C4194 0.950 . S
C4199 C4197 1.390 . S
C4199 C4200 1.387 . S
C4199 H4202 0.950 . S
C4200 C4199 1.387 . S
C4200 C4203 1.387 . S
H4201 C4197 0.950 . S
H4202 C4199 0.950 . S
C4203 C4194 1.390 . S
C4203 H4196 0.950 . S
C4203 C4200 1.387 . S
C4204 C4205 1.387 . S
C4204 H4208 0.950 . S
C4204 C4213 1.390 . S
C4205 C4204 1.387 . S
C4205 C4207 1.387 . S
H4206 C4213 0.950 . S
C4207 C4205 1.387 . S
C4207 C4209 1.390 . S
C4207 H4211 0.950 . S
H4208 C4204 0.950 . S
C4209 C4207 1.390 . S
C4209 C4210 1.387 . S
C4209 H4212 0.950 . S
C4210 C4209 1.387 . S
C4210 C4213 1.387 . S
H4211 C4207 0.950 . S
H4212 C4209 0.950 . S
C4213 C4204 1.390 . S
C4213 H4206 0.950 . S
C4213 C4210 1.387 . S
C4214 C4215 1.387 . S
C4214 H4218 0.950 . S
C4214 C4223 1.390 . S
C4215 C4214 1.387 . S
C4215 C4217 1.387 . S
H4216 C4223 0.950 . S
C4217 C4215 1.387 . S
C4217 C4219 1.390 . S
C4217 H4221 0.950 . S
H4218 C4214 0.950 . S
C4219 C4217 1.390 . S
C4219 C4220 1.387 . S
C4219 H4222 0.950 . S
C4220 C4219 1.387 . S
C4220 C4223 1.387 . S
H4221 C4217 0.950 . S
H4222 C4219 0.950 . S
C4223 C4214 1.390 . S
C4223 H4216 0.950 . S
C4223 C4220 1.387 . S
C4224 C4225 1.387 . S
C4224 H4228 0.950 . S
C4224 C4233 1.390 . S
C4225 C4224 1.387 . S
C4225 C4227 1.387 . S
H4226 C4233 0.950 . S
C4227 C4225 1.387 . S
C4227 C4229 1.390 . S
C4227 H4231 0.950 . S
H4228 C4224 0.950 . S
C4229 C4227 1.390 . S
C4229 C4230 1.387 . S
C4229 H4232 0.950 . S
C4230 C4229 1.387 . S
C4230 C4233 1.387 . S
H4231 C4227 0.950 . S
H4232 C4229 0.950 . S
C4233 C4224 1.390 . S
C4233 H4226 0.950 . S
C4233 C4230 1.387 . S
C4234 C4235 1.387 . S
C4234 H4238 0.950 . S
C4234 C4243 1.390 . S
C4235 C4234 1.387 . S
C4235 C4237 1.387 . S
H4236 C4243 0.950 . S
C4237 C4235 1.387 . S
C4237 C4239 1.390 . S
C4237 H4241 0.950 . S
H4238 C4234 0.950 . S
C4239 C4237 1.390 . S
C4239 C4240 1.387 . S
C4239 H4242 0.950 . S
C4240 C4239 1.387 . S
C4240 C4243 1.387 . S
H4241 C4237 0.950 . S
H4242 C4239 0.950 . S
C4243 C4234 1.390 . S
C4243 H4236 0.950 . S
C4243 C4240 1.387 . S
C4244 C4245 1.387 . S
C4244 H4248 0.950 . S
C4244 C4253 1.390 . S
C4245 C4244 1.387 . S
C4245 C4247 1.387 . S
H4246 C4253 0.950 . S
C4247 C4245 1.387 . S
C4247 C4249 1.390 . S
C4247 H4251 0.950 . S
H4248 C4244 0.950 . S
C4249 C4247 1.390 . S
C4249 C4250 1.387 . S
C4249 H4252 0.950 . S
C4250 C4249 1.387 . S
C4250 C4253 1.387 . S
H4251 C4247 0.950 . S
H4252 C4249 0.950 . S
C4253 C4244 1.390 . S
C4253 H4246 0.950 . S
C4253 C4250 1.387 . S
C4254 C4255 1.387 1_455 S
C4254 H4258 0.950 1_455 S
C4254 C4263 1.390 . S
C4255 C4254 1.387 1_655 S
C4255 C4257 1.387 1_655 S
H4256 C4263 0.950 1_545 S
C4257 C4255 1.387 1_455 S
C4257 C4259 1.390 . S
C4257 H4261 0.950 . S
H4258 C4254 0.950 1_655 S
C4259 C4257 1.390 . S
C4259 C4260 1.387 . S
C4259 H4262 0.950 . S
C4260 C4259 1.387 . S
C4260 C4263 1.387 . S
H4261 C4257 0.950 . S
H4262 C4259 0.950 . S
C4263 C4254 1.390 . S
C4263 H4256 0.950 1_565 S
C4263 C4260 1.387 . S
C4264 C4265 1.387 . S
C4264 H4268 0.950 . S
C4264 C4273 1.390 . S
C4265 C4264 1.387 . S
C4265 C4267 1.387 . S
H4266 C4273 0.950 . S
C4267 C4265 1.387 . S
C4267 C4269 1.390 . S
C4267 H4271 0.950 . S
H4268 C4264 0.950 . S
C4269 C4267 1.390 . S
C4269 C4270 1.387 . S
C4269 H4272 0.950 . S
C4270 C4269 1.387 . S
C4270 C4273 1.387 . S
H4271 C4267 0.950 . S
H4272 C4269 0.950 . S
C4273 C4264 1.390 . S
C4273 H4266 0.950 . S
C4273 C4270 1.387 . S
C4274 C4275 1.387 . S
C4274 H4278 0.950 . S
C4274 C4283 1.390 . S
C4275 C4274 1.387 . S
C4275 C4277 1.387 1_655 S
H4276 C4283 0.950 . S
C4277 C4275 1.387 1_455 S
C4277 C4279 1.390 . S
C4277 H4281 0.950 . S
H4278 C4274 0.950 . S
C4279 C4277 1.390 . S
C4279 C4280 1.387 . S
C4279 H4282 0.950 . S
C4280 C4279 1.387 . S
C4280 C4283 1.387 1_455 S
H4281 C4277 0.950 . S
H4282 C4279 0.950 . S
C4283 C4274 1.390 . S
C4283 H4276 0.950 . S
C4283 C4280 1.387 1_655 S
C4284 C4285 1.387 . S
C4284 H4288 0.950 . S
C4284 C4293 1.390 . S
C4285 C4284 1.387 . S
C4285 C4287 1.387 . S
H4286 C4293 0.950 . S
C4287 C4285 1.387 . S
C4287 C4289 1.390 . S
C4287 H4291 0.950 . S
H4288 C4284 0.950 . S
C4289 C4287 1.390 . S
C4289 C4290 1.387 . S
C4289 H4292 0.950 . S
C4290 C4289 1.387 . S
C4290 C4293 1.387 . S
H4291 C4287 0.950 . S
H4292 C4289 0.950 . S
C4293 C4284 1.390 . S
C4293 H4286 0.950 . S
C4293 C4290 1.387 . S
C4294 C4295 1.387 1_455 S
C4294 H4298 0.950 . S
C4294 C4303 1.390 . S
C4295 C4294 1.387 1_655 S
C4295 C4297 1.387 1_655 S
H4296 C4303 0.950 . S
C4297 C4295 1.387 1_455 S
C4297 C4299 1.390 . S
C4297 H4301 0.950 1_455 S
H4298 C4294 0.950 . S
C4299 C4297 1.390 . S
C4299 C4300 1.387 . S
C4299 H4302 0.950 . S
C4300 C4299 1.387 . S
C4300 C4303 1.387 . S
H4301 C4297 0.950 1_655 S
H4302 C4299 0.950 . S
C4303 C4294 1.390 . S
C4303 H4296 0.950 . S
C4303 C4300 1.387 . S
C4304 C4305 1.387 . S
C4304 H4308 0.950 . S
C4304 C4313 1.390 1_655 S
C4305 C4304 1.387 . S
C4305 C4307 1.387 . S
H4306 C4313 0.950 . S
C4307 C4305 1.387 . S
C4307 C4309 1.390 1_655 S
C4307 H4311 0.950 . S
H4308 C4304 0.950 . S
C4309 C4307 1.390 1_455 S
C4309 C4310 1.387 . S
C4309 H4312 0.950 . S
C4310 C4309 1.387 . S
C4310 C4313 1.387 . S
H4311 C4307 0.950 . S
H4312 C4309 0.950 . S
C4313 C4304 1.390 1_455 S
C4313 H4306 0.950 . S
C4313 C4310 1.387 . S
C4314 C4315 1.387 . S
C4314 H4318 0.950 . S
C4314 C4323 1.390 . S
C4315 C4314 1.387 . S
C4315 C4317 1.387 . S
H4316 C4323 0.950 . S
C4317 C4315 1.387 . S
C4317 C4319 1.390 . S
C4317 H4321 0.950 . S
H4318 C4314 0.950 . S
C4319 C4317 1.390 . S
C4319 C4320 1.387 . S
C4319 H4322 0.950 . S
C4320 C4319 1.387 . S
C4320 C4323 1.387 . S
H4321 C4317 0.950 . S
H4322 C4319 0.950 . S
C4323 C4314 1.390 . S
C4323 H4316 0.950 . S
C4323 C4320 1.387 . S
C4324 C4325 1.387 . S
C4324 H4328 0.950 . S
C4324 C4333 1.390 . S
C4325 C4324 1.387 . S
C4325 C4327 1.387 . S
H4326 C4333 0.950 . S
C4327 C4325 1.387 . S
C4327 C4329 1.390 . S
C4327 H4331 0.950 . S
H4328 C4324 0.950 . S
C4329 C4327 1.390 . S
C4329 C4330 1.387 . S
C4329 H4332 0.950 . S
C4330 C4329 1.387 . S
C4330 C4333 1.387 . S
H4331 C4327 0.950 . S
H4332 C4329 0.950 . S
C4333 C4324 1.390 . S
C4333 H4326 0.950 . S
C4333 C4330 1.387 . S
C4334 C4335 1.387 . S
C4334 H4338 0.950 . S
C4334 C4343 1.390 . S
C4335 C4334 1.387 . S
C4335 C4337 1.387 . S
H4336 C4343 0.950 . S
C4337 C4335 1.387 . S
C4337 C4339 1.390 . S
C4337 H4341 0.950 . S
H4338 C4334 0.950 . S
C4339 C4337 1.390 . S
C4339 C4340 1.387 . S
C4339 H4342 0.950 . S
C4340 C4339 1.387 . S
C4340 C4343 1.387 . S
H4341 C4337 0.950 . S
H4342 C4339 0.950 . S
C4343 C4334 1.390 . S
C4343 H4336 0.950 . S
C4343 C4340 1.387 . S
C4344 C4345 1.387 1_545 S
C4344 H4348 0.950 . S
C4344 C4353 1.390 . S
C4345 C4344 1.387 1_565 S
C4345 C4347 1.387 1_565 S
H4346 C4353 0.950 . S
C4347 C4345 1.387 1_545 S
C4347 C4349 1.390 . S
C4347 H4351 0.950 1_545 S
H4348 C4344 0.950 . S
C4349 C4347 1.390 . S
C4349 C4350 1.387 . S
C4349 H4352 0.950 . S
C4350 C4349 1.387 . S
C4350 C4353 1.387 . S
H4351 C4347 0.950 1_565 S
H4352 C4349 0.950 . S
C4353 C4344 1.390 . S
C4353 H4346 0.950 . S
C4353 C4350 1.387 . S
C4354 C4355 1.387 . S
C4354 H4358 0.950 . S
C4354 C4363 1.390 1_545 S
C4355 C4354 1.387 . S
C4355 C4357 1.387 . S
H4356 C4363 0.950 . S
C4357 C4355 1.387 . S
C4357 C4359 1.390 . S
C4357 H4361 0.950 . S
H4358 C4354 0.950 . S
C4359 C4357 1.390 . S
C4359 C4360 1.387 1_545 S
C4359 H4362 0.950 . S
C4360 C4359 1.387 1_565 S
C4360 C4363 1.387 . S
H4361 C4357 0.950 . S
H4362 C4359 0.950 . S
C4363 C4354 1.390 1_565 S
C4363 H4356 0.950 . S
C4363 C4360 1.387 . S
C4364 C4365 1.387 . S
C4364 H4368 0.950 . S
C4364 C4373 1.390 . S
C4365 C4364 1.387 . S
C4365 C4367 1.387 . S
H4366 C4373 0.950 . S
C4367 C4365 1.387 . S
C4367 C4369 1.390 . S
C4367 H4371 0.950 . S
H4368 C4364 0.950 . S
C4369 C4367 1.390 . S
C4369 C4370 1.387 . S
C4369 H4372 0.950 . S
C4370 C4369 1.387 . S
C4370 C4373 1.387 . S
H4371 C4367 0.950 . S
H4372 C4369 0.950 . S
C4373 C4364 1.390 . S
C4373 H4366 0.950 . S
C4373 C4370 1.387 . S
C4374 C4375 1.387 . S
C4374 H4378 0.950 . S
C4374 C4383 1.390 . S
C4375 C4374 1.387 . S
C4375 C4377 1.387 . S
H4376 C4383 0.950 . S
C4377 C4375 1.387 . S
C4377 C4379 1.390 . S
C4377 H4381 0.950 . S
H4378 C4374 0.950 . S
C4379 C4377 1.390 . S
C4379 C4380 1.387 . S
C4379 H4382 0.950 . S
C4380 C4379 1.387 . S
C4380 C4383 1.387 . S
H4381 C4377 0.950 . S
H4382 C4379 0.950 . S
C4383 C4374 1.390 . S
C4383 H4376 0.950 . S
C4383 C4380 1.387 . S
C4384 C4385 1.387 . S
C4384 H4388 0.950 . S
C4384 C4393 1.390 . S
C4385 C4384 1.387 . S
C4385 C4387 1.387 . S
H4386 C4393 0.950 . S
C4387 C4385 1.387 . S
C4387 C4389 1.390 . S
C4387 H4391 0.950 . S
H4388 C4384 0.950 . S
C4389 C4387 1.390 . S
C4389 C4390 1.387 . S
C4389 H4392 0.950 . S
C4390 C4389 1.387 . S
C4390 C4393 1.387 . S
H4391 C4387 0.950 . S
H4392 C4389 0.950 . S
C4393 C4384 1.390 . S
C4393 H4386 0.950 . S
C4393 C4390 1.387 . S
C4394 C4395 1.387 . S
C4394 H4398 0.950 . S
C4394 C4403 1.390 . S
C4395 C4394 1.387 . S
C4395 C4397 1.387 . S
H4396 C4403 0.950 . S
C4397 C4395 1.387 . S
C4397 C4399 1.390 . S
C4397 H4401 0.950 . S
H4398 C4394 0.950 . S
C4399 C4397 1.390 . S
C4399 C4400 1.387 . S
C4399 H4402 0.950 . S
C4400 C4399 1.387 . S
C4400 C4403 1.387 . S
H4401 C4397 0.950 . S
H4402 C4399 0.950 . S
C4403 C4394 1.390 . S
C4403 H4396 0.950 . S
C4403 C4400 1.387 . S
C4404 C4405 1.387 . S
C4404 H4408 0.950 . S
C4404 C4413 1.390 . S
C4405 C4404 1.387 . S
C4405 C4407 1.387 . S
H4406 C4413 0.950 . S
C4407 C4405 1.387 . S
C4407 C4409 1.390 . S
C4407 H4411 0.950 . S
H4408 C4404 0.950 . S
C4409 C4407 1.390 . S
C4409 C4410 1.387 . S
C4409 H4412 0.950 . S
C4410 C4409 1.387 . S
C4410 C4413 1.387 . S
H4411 C4407 0.950 . S
H4412 C4409 0.950 . S
C4413 C4404 1.390 . S
C4413 H4406 0.950 . S
C4413 C4410 1.387 . S
C4414 C4415 1.387 . S
C4414 H4418 0.950 . S
C4414 C4423 1.390 . S
C4415 C4414 1.387 . S
C4415 C4417 1.387 . S
H4416 C4423 0.950 . S
C4417 C4415 1.387 . S
C4417 C4419 1.390 . S
C4417 H4421 0.950 . S
H4418 C4414 0.950 . S
C4419 C4417 1.390 . S
C4419 C4420 1.387 . S
C4419 H4422 0.950 . S
C4420 C4419 1.387 . S
C4420 C4423 1.387 . S
H4421 C4417 0.950 . S
H4422 C4419 0.950 . S
C4423 C4414 1.390 . S
C4423 H4416 0.950 . S
C4423 C4420 1.387 . S
C4424 C4425 1.387 . S
C4424 H4428 0.950 . S
C4424 C4433 1.390 . S
C4425 C4424 1.387 . S
C4425 C4427 1.387 . S
H4426 C4433 0.950 . S
C4427 C4425 1.387 . S
C4427 C4429 1.390 . S
C4427 H4431 0.950 . S
H4428 C4424 0.950 . S
C4429 C4427 1.390 . S
C4429 C4430 1.387 . S
C4429 H4432 0.950 . S
C4430 C4429 1.387 . S
C4430 C4433 1.387 . S
H4431 C4427 0.950 . S
H4432 C4429 0.950 . S
C4433 C4424 1.390 . S
C4433 H4426 0.950 . S
C4433 C4430 1.387 . S
C4434 C4435 1.387 . S
C4434 H4438 0.950 . S
C4434 C4443 1.390 . S
C4435 C4434 1.387 . S
C4435 C4437 1.387 . S
H4436 C4443 0.950 . S
C4437 C4435 1.387 . S
C4437 C4439 1.390 . S
C4437 H4441 0.950 . S
H4438 C4434 0.950 . S
C4439 C4437 1.390 . S
C4439 C4440 1.387 . S
C4439 H4442 0.950 . S
C4440 C4439 1.387 . S
C4440 C4443 1.387 . S
H4441 C4437 0.950 . S
H4442 C4439 0.950 . S
C4443 C4434 1.390 . S
C4443 H4436 0.950 . S
C4443 C4440 1.387 . S
C4444 C4445 1.387 1_565 S
C4444 H4448 0.950 . S
C4444 C4453 1.390 . S
C4445 C4444 1.387 1_545 S
C4445 C4447 1.387 . S
H4446 C4453 0.950 . S
C4447 C4445 1.387 . S
C4447 C4449 1.390 . S
C4447 H4451 0.950 . S
H4448 C4444 0.950 . S
C4449 C4447 1.390 . S
C4449 C4450 1.387 1_545 S
C4449 H4452 0.950 1_655 S
C4450 C4449 1.387 1_565 S
C4450 C4453 1.387 . S
H4451 C4447 0.950 . S
H4452 C4449 0.950 1_455 S
C4453 C4444 1.390 . S
C4453 H4446 0.950 . S
C4453 C4450 1.387 . S
C4454 C4455 1.387 1_545 S
C4454 H4458 0.950 . S
C4454 C4463 1.390 . S
C4455 C4454 1.387 1_565 S
C4455 C4457 1.387 1_565 S
H4456 C4463 0.950 . S
C4457 C4455 1.387 1_545 S
C4457 C4459 1.390 . S
C4457 H4461 0.950 1_545 S
H4458 C4454 0.950 . S
C4459 C4457 1.390 . S
C4459 C4460 1.387 . S
C4459 H4462 0.950 . S
C4460 C4459 1.387 . S
C4460 C4463 1.387 . S
H4461 C4457 0.950 1_565 S
H4462 C4459 0.950 . S
C4463 C4454 1.390 . S
C4463 H4456 0.950 . S
C4463 C4460 1.387 . S
C3205 C1 2.085 . S
C3210 C248 1.847 . S
C3215 C90 2.086 . S
C3220 C70 1.848 . S
C3225 C159 1.848 . S
C3230 C179 2.087 . S
C3235 C426 1.849 . S
C3240 C268 2.087 . S
C3245 C357 2.087 . S
C3250 C515 1.851 . S
C3255 C446 2.085 . S
C3260 C337 1.848 . S
C3265 C535 2.085 . S
C3270 C782 1.847 . S
C3275 C604 1.847 . S
C3280 C624 2.085 . S
C3285 C693 1.849 . S
C3290 C713 2.087 . S
C3295 C960 1.848 . S
C3300 C802 2.087 . S
C3305 C1049 1.847 . S
C3310 C891 2.085 . S
C3315 C980 2.087 . S
C3320 C871 1.850 . S
C3325 C1069 2.085 . S
C3330 C1316 1.848 . S
C3335 C1158 2.085 1_545 S
C3340 C1138 1.847 1_655 S
C3345 C1227 1.851 1_455 S
C3350 C1247 2.087 1_565 S
C3355 C1336 2.086 . S
C3360 C1494 1.848 . S
C3365 C1425 2.088 . S
C3370 C1583 1.852 . S
C3375 C1514 2.085 . S
C3380 C1405 1.847 . S
C3385 C1603 2.088 . S
C3390 C1850 1.851 . S
C3395 C1692 2.088 . S
C3400 C1672 1.851 . S
C3405 C1761 1.849 . S
C3410 C1781 2.086 . S
C3415 C1870 2.086 1_565 S
C3420 C2028 1.848 1_655 S
C3425 C2117 1.847 . S
C3430 C1959 2.085 1_545 S
C3435 C1939 1.850 1_455 S
C3440 C2048 2.087 . S
C3445 C2137 2.086 . S
C3450 C2384 1.848 . S
C3455 C2226 2.087 . S
C3460 C2206 1.851 . S
C3465 C2295 1.847 . S
C3470 C2315 2.085 . S
C3475 C2562 1.851 . S
C3480 C2404 2.087 . S
C3485 C2493 2.085 1_655 S
C3490 C2651 1.847 1_545 S
C3495 C2582 2.085 1_455 S
C3500 C2473 1.849 1_565 S
C3505 C2671 2.088 1_655 S
C3510 C2918 1.850 1_565 S
C3515 C2760 2.085 . S
C3520 C2740 1.847 1_545 S
C3525 C2849 2.087 1_455 S
C3530 C2829 1.851 . S
C3535 C3096 1.849 . S
C3540 C2938 2.087 . S
C3545 C3027 2.087 . S
C3550 C3185 1.851 . S
C3555 C3116 2.088 . S
C3560 C3007 1.851 . S
C3565 C2421 1.618 . S
C3570 C18 1.617 . S
C3575 C107 1.619 . S
C3580 C2510 1.619 . S
C3585 C196 1.620 . S
C3590 C2599 1.618 . S
C3595 C1086 1.620 . S
C3600 C285 1.618 . S
C3605 C1175 1.617 . S
C3610 C374 1.617 . S
C3615 C1264 1.618 . S
C3620 C463 1.619 . S
C3625 C1887 1.618 . S
C3630 C552 1.617 . S
C3635 C641 1.616 . S
C3640 C1976 1.616 . S
C3645 C730 1.620 . S
C3650 C2065 1.621 . S
C3655 C819 1.620 . S
C3660 C2688 1.620 . S
C3665 C2777 1.617 . S
C3670 C908 1.617 . S
C3675 C2866 1.619 . S
C3680 C997 1.620 . S
C3685 C2154 1.617 . S
C3690 C1353 1.619 . S
C3695 C1442 1.620 . S
C3700 C2243 1.620 . S
C3705 C2332 1.618 . S
C3710 C1531 1.620 . S
C3715 C2955 1.619 . S
C3720 C1620 1.617 . S
C3725 C3044 1.616 . S
C3730 C1709 1.616 . S
C3735 C1798 1.617 . S
C3740 C3133 1.619 . S
C3745 C73 1.441 . S
C3750 C1806 1.451 . S
C3755 C1628 1.450 . S
C3760 C162 1.439 . S
C3765 C251 1.439 . S
C3770 C1717 1.450 . S
C3775 C3052 1.451 . S
C3780 C340 1.440 . S
C3785 C3141 1.450 . S
C3790 C429 1.438 . S
C3795 C518 1.441 . S
C3800 C2963 1.451 . S
C3805 C2340 1.451 . S
C3810 C607 1.440 . S
C3815 C2162 1.451 . S
C3820 C696 1.440 . S
C3825 C2251 1.450 . S
C3830 C785 1.439 . S
C3835 C874 1.439 . S
C3840 C1450 1.450 . S
C3845 C1539 1.450 . S
C3850 C963 1.439 . S
C3855 C1052 1.441 . S
C3860 C1361 1.451 . S
C3865 C1141 1.440 . S
C3870 C2874 1.451 . S
C3875 C2696 1.451 . S
C3880 C1230 1.441 . S
C3885 C2785 1.451 . S
C3890 C1319 1.440 . S
C3895 C1408 1.440 . S
C3900 C916 1.451 . S
C3905 C1005 1.450 . S
C3910 C1497 1.440 . S
C3915 C827 1.452 . S
C3920 C1586 1.441 . S
C3925 C1675 1.441 . S
C3930 C204 1.451 . S
C3935 C1764 1.441 . S
C3940 C26 1.452 . S
C3945 C1853 1.440 . S
C3950 C115 1.451 . S
C3955 C1942 1.438 . S
C3960 C2518 1.450 . S
C3965 C2031 1.439 . S
C3970 C2607 1.451 . S
C3975 C2120 1.441 . S
C3980 C2429 1.451 . S
C3985 C738 1.451 . S
C3990 C2209 1.440 . S
C3995 C2298 1.441 . S
C4000 C560 1.452 . S
C4005 C649 1.450 . S
C4010 C2387 1.439 . S
C4015 C1984 1.450 . S
C4020 C2476 1.438 . S
C4025 C2565 1.441 . S
C4030 C2073 1.452 . S
C4035 C1895 1.451 . S
C4040 C2654 1.439 . S
C4045 C2743 1.440 . S
C4050 C1272 1.450 . S
C4055 C1094 1.450 . S
C4060 C2832 1.440 . S
C4065 C2921 1.441 . S
C4070 C1183 1.452 . S
C4075 C3010 1.441 . S
C4080 C382 1.452 . S
C4085 C3099 1.438 . S
C4090 C471 1.449 . S
C4095 C293 1.451 . S
C4100 C3188 1.439 . S
C4105 C61 2.007 . S
C4110 C241 2.152 . S
C4115 C150 2.008 . S
C4120 C63 2.150 . S
C4125 C152 2.151 . S
C4130 C239 2.007 . S
C4135 C328 2.009 . S
C4140 C419 2.150 . S
C4145 C417 2.007 . S
C4150 C508 2.152 . S
C4155 C506 2.007 . S
C4160 C330 2.151 . S
C4165 C595 2.010 . S
C4170 C775 2.150 . S
C4175 C684 2.007 . S
C4180 C597 2.151 . S
C4185 C773 2.007 . S
C4190 C686 2.151 . S
C4195 C953 2.151 . S
C4200 C862 2.010 . S
C4205 C1042 2.152 . S
C4210 C951 2.007 . S
C4215 C864 2.152 . S
C4220 C1040 2.011 . S
C4225 C1129 2.007 . S
C4230 C1309 2.151 . S
C4235 C1131 2.152 . S
C4240 C1218 2.007 . S
C4245 C1307 2.010 . S
C4250 C1220 2.152 . S
C4255 C1396 2.010 . S
C4260 C1487 2.151 1_565 S
C4265 C1485 2.007 . S
C4270 C1576 2.152 . S
C4275 C1398 2.152 . S
C4280 C1574 2.010 . S
C4285 C1843 2.151 . S
C4290 C1663 2.010 . S
C4295 C1752 2.010 . S
C4300 C1665 2.150 . S
C4305 C1754 2.127 1_565 S
C4310 C1841 2.010 . S
C4315 C1930 2.011 . S
C4320 C2021 2.151 . S
C4325 C2110 2.150 . S
C4330 C2019 2.009 . S
C4335 C2108 2.009 . S
C4340 C1932 2.150 . S
C4345 C2197 2.007 . S
C4350 C2377 2.152 1_655 S
C4355 C2286 2.007 . S
C4360 C2199 2.152 . S
C4365 C2288 2.151 . S
C4370 C2375 2.007 . S
C4375 C2555 2.151 . S
C4380 C2464 2.007 . S
C4385 C2644 2.152 . S
C4390 C2553 2.007 . S
C4395 C2642 2.008 . S
C4400 C2466 2.152 . S
C4405 C2731 2.007 . S
C4410 C2911 2.152 . S
C4415 C2820 2.009 . S
C4420 C2733 2.150 . S
C4425 C2822 2.151 . S
C4430 C2909 2.008 . S
C4435 C2998 2.007 . S
C4440 C3089 2.151 . S
C4445 C3087 2.009 . S
C4450 C3178 2.126 1_655 S
C4455 C3176 2.008 . S
C4460 C3000 2.152 . S
