# Generated by pormake.
# Topology snp, (6)-cn, num edge types: 1
# Building blocks:
#     Node 0, Type 0, BuildingBlock: PAMTUU_clean_sbu_0, # of connection points: 6
#     Node 1, Type 0, BuildingBlock: PAMTUU_clean_sbu_0, # of connection points: 6
#     Node 2, Type 0, BuildingBlock: PAMTUU_clean_sbu_0, # of connection points: 6
#     Node 3, Type 0, BuildingBlock: PAMTUU_clean_sbu_0, # of connection points: 6
#     Edge 4, Type (0, 0), BuildingBlock: UVAHIK_clean_linker_0, # of connection points: 2
#     Edge 5, Type (0, 0), BuildingBlock: UVAHIK_clean_linker_0, # of connection points: 2
#     Edge 6, Type (0, 0), BuildingBlock: UVAHIK_clean_linker_0, # of connection points: 2
#     Edge 7, Type (0, 0), BuildingBlock: UVAHIK_clean_linker_0, # of connection points: 2
#     Edge 8, Type (0, 0), BuildingBlock: UVAHIK_clean_linker_0, # of connection points: 2
#     Edge 9, Type (0, 0), BuildingBlock: UVAHIK_clean_linker_0, # of connection points: 2
#     Edge 10, Type (0, 0), BuildingBlock: UVAHIK_clean_linker_0, # of connection points: 2
#     Edge 11, Type (0, 0), BuildingBlock: UVAHIK_clean_linker_0, # of connection points: 2
#     Edge 12, Type (0, 0), BuildingBlock: UVAHIK_clean_linker_0, # of connection points: 2
#     Edge 13, Type (0, 0), BuildingBlock: UVAHIK_clean_linker_0, # of connection points: 2
#     Edge 14, Type (0, 0), BuildingBlock: UVAHIK_clean_linker_0, # of connection points: 2
#     Edge 15, Type (0, 0), BuildingBlock: UVAHIK_clean_linker_0, # of connection points: 2
# Relax obj value: 0.348
# Max RMSD: 0.223
# Mean RMSD: 0.212
data_MOF--net-snp--node1-PAMTUU_clean_sbu_0--edge1-UVAHIK_clean_linker_0
_symmetry_space_group_name_H-M    P1
_symmetry_Int_Tables_number       1
_symmetry_cell_setting            triclinic
loop_
_symmetry_equiv_pos_as_xyz
'x, y, z'
_cell_length_a     31.980167
_cell_length_b     32.109543
_cell_length_c     41.896344
_cell_angle_alpha  96.404248
_cell_angle_beta   87.818679
_cell_angle_gamma 96.942212
loop_
_atom_site_label
_atom_site_type_symbol
_atom_site_fract_x
_atom_site_fract_y
_atom_site_fract_z
_atom_type_partial_charge
Tb0 Tb 0.20482 0.9704 0.18761 0.0
Tb1 Tb 0.24433 0.06255 0.21997 0.0
C2 C 0.14835 0.03846 0.22228 0.0
C3 C 0.19756 0.87576 0.13136 0.0
C4 C 0.22782 0.84964 0.06952 0.0
C5 C 0.18559 0.83788 0.07861 0.0
C6 C 0.17055 0.85098 0.10937 0.0
C7 C 0.24049 0.88451 0.12323 0.0
C8 C 0.25555 0.87131 0.0926 0.0
C9 C 0.17998 0.89847 0.16003 0.0
O10 O 0.22019 0.00778 0.14721 0.0
O11 O 0.21827 0.07396 0.17388 0.0
O12 O 0.29079 0.03871 0.18602 0.0
O13 O 0.27284 0.96946 0.19127 0.0
O14 O 0.24331 0.12738 0.2342 0.0
O15 O 0.29861 0.09666 0.24018 0.0
O16 O 0.24053 0.0197 0.25843 0.0
O17 O 0.1902 0.96743 0.23799 0.0
O18 O 0.15227 0.00771 0.19905 0.0
O19 O 0.18061 0.05756 0.23841 0.0
C20 C 0.21577 0.04804 0.14693 0.0
O21 O 0.20358 0.9046 0.1852 0.0
O22 O 0.16458 0.93275 0.15472 0.0
C23 C 0.30089 1.00032 0.18388 0.0
C24 C 0.28322 0.14932 0.2804 0.0
C25 C 0.29417 0.18176 0.34509 0.0
C26 C 0.30771 0.20685 0.32036 0.0
C27 C 0.30247 0.19059 0.28816 0.0
C28 C 0.26857 0.1247 0.30503 0.0
C29 C 0.27414 0.1407 0.3371 0.0
C30 C 0.28045 0.13098 0.24681 0.0
C31 C 0.21205 0.9869 0.26217 0.0
H32 H 0.16338 0.82157 0.06124 0.0
H33 H 0.13729 0.84429 0.11521 0.0
H34 H 0.26188 0.90388 0.1398 0.0
H35 H 0.28831 0.88038 0.08633 0.0
H36 H 0.32322 0.2386 0.32591 0.0
H37 H 0.31402 0.20993 0.26937 0.0
H38 H 0.25345 0.09286 0.29938 0.0
H39 H 0.26269 0.12096 0.35568 0.0
Tb40 Tb 0.07998 0.24543 0.69184 0.0
Tb41 Tb 0.05294 0.22289 0.6119 0.0
C42 C 0.04887 0.3142 0.65184 0.0
C43 C 0.11015 0.22705 0.77862 0.0
C44 C 0.13083 0.19475 0.83685 0.0
C45 C 0.14717 0.23566 0.82971 0.0
C46 C 0.13693 0.25145 0.80125 0.0
C47 C 0.09505 0.18553 0.78494 0.0
C48 C 0.10534 0.16964 0.81345 0.0
C49 C 0.09328 0.24772 0.75194 0.0
O50 O 0.01332 0.24827 0.68698 0.0
O51 O 0.00256 0.1982 0.64366 0.0
O52 O 0.10162 0.18382 0.6217 0.0
O53 O 0.07493 0.18052 0.6718 0.0
O54 O 0.04157 0.24061 0.5659 0.0
O55 O 0.03094 0.17479 0.57551 0.0
O56 O 0.11375 0.26115 0.61292 0.0
O57 O 0.1388 0.2548 0.66363 0.0
O58 O 0.07072 0.30607 0.67625 0.0
O59 O 0.03323 0.28488 0.62909 0.0
C60 C 0.9887 0.21919 0.66989 0.0
O61 O 0.05971 0.22879 0.73751 0.0
O62 O 0.11899 0.26722 0.73196 0.0
C63 C 0.10189 0.16889 0.6495 0.0
C64 C 0.01537 0.18887 0.52057 0.0
C65 C 0.98715 0.16435 0.45612 0.0
C66 C 0.9887 0.13425 0.47807 0.0
C67 C 0.00252 0.1463 0.50968 0.0
C68 C 0.01394 0.21901 0.49876 0.0
C69 C 1.00008 0.207 0.46714 0.0
C70 C 0.02938 0.20169 0.55453 0.0
C71 C 0.14404 0.26571 0.63406 0.0
H72 H 0.16765 0.25598 0.84636 0.0
H73 H 0.14889 0.28361 0.79749 0.0
H74 H 0.07401 0.16569 0.76839 0.0
H75 H 0.09176 0.13812 0.81765 0.0
H76 H 0.97853 0.10122 0.47105 0.0
H77 H 0.00288 0.12211 0.5257 0.0
H78 H 0.02354 0.25209 0.50614 0.0
H79 H 1.00006 0.23129 0.45118 0.0
Tb80 Tb 0.8237 0.94915 0.07421 0.0
Tb81 Tb 0.80849 0.04452 0.06179 0.0
C82 C 0.89852 0.01216 0.04968 0.0
C83 C 0.80723 0.85047 0.11101 0.0
C84 C 0.77965 0.81738 0.16841 0.0
C85 C 0.8162 0.80511 0.15209 0.0
C86 C 0.82994 0.82166 0.12355 0.0
C87 C 0.7693 0.86059 0.12616 0.0
C88 C 0.75553 0.84405 0.15456 0.0
C89 C 0.82551 0.87366 0.08464 0.0
O90 O 0.84827 0.98844 0.11685 0.0
O91 O 0.81461 0.04736 0.11429 0.0
O92 O 0.7487 1.00518 0.06115 0.0
O93 O 0.76372 0.96293 0.09764 0.0
O94 O 0.82529 0.11029 0.06566 0.0
O95 O 0.76658 0.08203 0.04495 0.0
O96 O 0.82559 0.01531 1.01405 0.0
O97 O 0.8095 0.94622 1.02337 0.0
O98 O 0.88425 0.97266 0.0532 0.0
O99 O 0.87531 0.04335 0.05529 0.0
C100 C 0.83738 0.02491 0.12997 0.0
O101 O 0.79855 0.88565 0.066 0.0
O102 O 0.85541 0.90388 0.09279 0.0
C103 C 0.73615 0.98165 0.08389 0.0
C104 C 0.8052 0.13321 1.01768 0.0
C105 C 0.81334 0.14591 0.95247 0.0
C106 C 0.78184 0.16358 0.97194 0.0
C107 C 0.7776 0.15696 1.00441 0.0
C108 C 0.83867 0.11848 0.99875 0.0
C109 C 0.84266 0.12474 0.96641 0.0
C110 C 0.79399 0.11556 0.04805 0.0
C111 C 0.82054 0.97489 1.0036 0.0
H112 H 0.83566 0.78498 0.16244 0.0
H113 H 0.85938 0.81371 0.11222 0.0
H114 H 0.75127 0.8828 0.11688 0.0
H115 H 0.72706 0.85369 0.16651 0.0
H116 H 0.7589 0.18003 0.96162 0.0
H117 H 0.75123 0.16794 1.01855 0.0
H118 H 0.86008 0.09963 1.00837 0.0
H119 H 0.86757 0.11136 0.95193 0.0
Tb120 Tb 0.0556 0.84486 0.63121 0.0
Tb121 Tb 0.95742 0.82472 0.61146 0.0
C122 C 0.99945 0.91272 0.63308 0.0
C123 C 0.14993 0.86046 0.67778 0.0
C124 C 0.18151 0.85608 0.73858 0.0
C125 C 0.20486 0.88038 0.71667 0.0
C126 C 0.18898 0.88271 0.68636 0.0
C127 C 0.12734 0.83509 0.69923 0.0
C128 C 0.14302 0.8329 0.72939 0.0
C129 C 0.13041 0.86615 0.64792 0.0
O130 O 0.0208 0.84941 0.67748 0.0
O131 O 0.95462 0.81743 0.66282 0.0
O132 O 0.98544 0.76522 0.60416 0.0
O133 O 0.03709 0.7807 0.64134 0.0
O134 O 0.90227 0.84808 0.59983 0.0
O135 O 0.90404 0.78116 0.60026 0.0
O136 O 0.99263 0.84523 0.56844 0.0
O137 O 0.05731 0.82741 0.57949 0.0
O138 O 0.02889 0.89715 0.61489 0.0
O139 O 0.96664 0.88646 0.63941 0.0
C140 C 0.98184 0.83409 0.685 0.0
O141 O 0.1182 0.83132 0.62981 0.0
O142 O 0.1013 0.89158 0.65151 0.0
C143 C 0.01194 0.75306 0.62358 0.0
C144 C 0.86772 0.80301 0.55879 0.0
C145 C 0.84127 0.78612 0.49501 0.0
C146 C 0.81936 0.7651 0.51943 0.0
C147 C 0.8326 0.77349 0.55118 0.0
C148 C 0.88942 0.82409 0.53444 0.0
C149 C 0.87617 0.81596 0.50295 0.0
C150 C 0.88325 0.81038 0.59162 0.0
C151 C 0.03154 0.83885 0.55927 0.0
H152 H 0.23446 0.89877 0.72344 0.0
H153 H 0.20644 0.90277 0.67009 0.0
H154 H 0.09698 0.81788 0.69295 0.0
H155 H 0.12467 0.81367 0.7458 0.0
H156 H 0.79249 0.7418 0.51392 0.0
H157 H 0.81579 0.75666 0.56969 0.0
H158 H 0.91679 0.84687 0.53966 0.0
H159 H 0.89316 0.83338 0.48484 0.0
C160 C 0.95581 0.06481 1.0337 0.0
C161 C 0.94369 0.02473 0.04402 0.0
C162 C 0.99147 0.08947 0.04627 0.0
C163 C 0.07179 0.10458 0.10577 0.0
H164 H 0.98275 0.12112 0.17016 0.0
C165 C 0.07295 0.0387 0.2107 0.0
C166 C 0.11036 0.06015 0.22351 0.0
C167 C 0.04552 0.06089 0.19608 0.0
C168 C 0.00811 0.11913 0.15234 0.0
H169 H 0.96503 0.9742 0.06692 0.0
H170 H 0.02835 0.01656 0.08756 0.0
H171 H 0.96568 0.10815 0.11343 0.0
H172 H 0.14356 0.1221 0.23814 0.0
H173 H 0.09777 0.15985 0.20998 0.0
H174 H 0.11365 0.11195 0.14497 0.0
C175 C 0.00959 0.02974 0.07106 0.0
C176 C 0.99851 0.11157 0.11991 0.0
C177 C 0.97315 1.00539 0.05932 0.0
C178 C 0.11541 0.10459 0.2276 0.0
C179 C 0.08897 0.12652 0.21178 0.0
C180 C 0.08167 0.11391 0.1381 0.0
C181 C 0.01552 0.07329 0.06809 0.0
C182 C 0.02975 0.10081 0.09687 0.0
C183 C 0.05676 0.104 0.19303 0.0
C184 C 0.04932 0.11758 0.16168 0.0
H185 H 0.93417 0.07977 1.0207 0.0
H186 H 0.99596 0.12283 0.0433 0.0
H187 H 0.09605 0.09578 0.08843 0.0
H188 H 0.06788 1.00452 0.208 0.0
H189 H 0.02025 0.04302 0.18208 0.0
C190 C 0.00719 0.94426 0.69001 0.0
C191 C 0.01406 0.94797 0.65698 0.0
C192 C 0.03711 0.9639 0.71219 0.0
C193 C 0.14887 0.99513 0.71027 0.0
H194 H 0.13326 0.106 0.75107 0.0
C195 C 0.14954 0.11252 0.64522 0.0
C196 C 0.13878 0.15114 0.65985 0.0
C197 C 0.1715 0.08782 0.66265 0.0
C198 C 0.13935 0.07485 0.74065 0.0
H199 H 0.05176 0.98174 0.62203 0.0
H200 H 0.10182 0.01831 0.66068 0.0
H201 H 0.07599 0.05008 0.75171 0.0
H202 H 0.15016 0.19851 0.70065 0.0
H203 H 0.18828 0.15578 0.73062 0.0
H204 H 0.20901 0.02208 0.69365 0.0
C205 C 0.07547 0.99772 0.66924 0.0
C206 C 0.10607 0.04253 0.74133 0.0
C207 C 0.0463 0.97766 0.64725 0.0
C208 C 0.15716 0.16823 0.68914 0.0
C209 C 0.17953 0.14384 0.70627 0.0
C210 C 0.18169 0.02788 0.70884 0.0
C211 C 0.07292 0.98836 0.70128 0.0
C212 C 0.10884 1.00466 0.72183 0.0
C213 C 0.18131 0.10124 0.69515 0.0
C214 C 0.17342 0.06943 0.71867 0.0
H215 H 0.98133 0.92291 0.69822 0.0
H216 H 0.03366 0.95793 0.73715 0.0
H217 H 0.15214 0.96523 0.6962 0.0
H218 H 0.13648 0.09913 0.62233 0.0
H219 H 0.17404 0.05571 0.65246 0.0
C220 C 0.67318 0.9481 0.11432 0.0
C221 C 0.69098 0.97844 0.09443 0.0
C222 C 0.63028 0.94583 0.12359 0.0
C223 C 0.52918 0.98299 0.1018 0.0
H224 H 0.49076 0.95552 0.18664 0.0
C225 C 0.37014 0.02382 0.15778 0.0
C226 C 0.34429 0.99259 0.17269 0.0
C227 C 0.41136 0.01783 0.14771 0.0
C228 C 0.50098 0.96279 0.16273 0.0
H229 H 0.67773 0.03109 0.06968 0.0
H230 H 0.60442 0.02819 0.08654 0.0
H231 H 0.56494 0.95353 0.17055 0.0
H232 H 0.3418 0.93045 0.18876 0.0
H233 H 0.41461 0.92032 0.17159 0.0
H234 H 0.46562 0.99385 0.09451 0.0
C235 C 0.62267 1.00492 0.09412 0.0
C236 C 0.54353 0.96156 0.15342 0.0
C237 C 0.6651 1.00681 0.08457 0.0
C238 C 0.36083 0.95509 0.17729 0.0
C239 C 0.40254 0.94937 0.16764 0.0
C240 C 0.48697 0.98479 0.11126 0.0
C241 C 0.60431 0.97415 0.11347 0.0
C242 C 0.55844 0.97232 0.12295 0.0
C243 C 0.42819 0.98068 0.15261 0.0
C244 C 0.47243 0.97527 0.14196 0.0
H245 H 0.6922 0.92586 0.12244 0.0
H246 H 0.61742 0.92147 0.13831 0.0
H247 H 0.53884 0.99027 0.0778 0.0
H248 H 0.35854 0.05309 0.15377 0.0
H249 H 0.43038 0.04272 0.13649 0.0
C250 C 0.06084 0.39144 0.67157 0.0
C251 C 0.04123 0.35869 0.6501 0.0
C252 C 0.05593 0.43357 0.6688 0.0
C253 C 0.98884 0.5025 0.6342 0.0
H254 H 0.08888 0.5838 0.64199 0.0
C255 C 0.98997 0.67599 0.60591 0.0
C256 C 0.01394 0.70745 0.62581 0.0
C257 C 0.99227 0.63313 0.6085 0.0
C258 C 0.06046 0.56171 0.64014 0.0
H259 H 1.00016 0.34493 0.60925 0.0
H260 H 0.9916 0.41848 0.60451 0.0
H261 H 0.09395 0.51013 0.64808 0.0
H262 H 0.05868 0.71824 0.66445 0.0
H263 H 0.06206 0.64418 0.66926 0.0
H264 H 0.95526 0.55424 0.62653 0.0
C265 C 0.01067 0.41142 0.62358 0.0
C266 C 0.06341 0.51937 0.64362 0.0
C267 C 0.01577 0.36922 0.62623 0.0
C268 C 0.03999 0.695 0.64847 0.0
C269 C 0.04215 0.65234 0.65113 0.0
C270 C 0.98582 0.54499 0.63087 0.0
C271 C 0.03114 0.44415 0.64458 0.0
C272 C 0.02765 0.48922 0.6408 0.0
C273 C 0.01852 0.62074 0.63111 0.0
C274 C 0.02159 0.57522 0.63391 0.0
H275 H 0.08066 0.3847 0.6903 0.0
H276 H 0.07164 0.45794 0.68568 0.0
H277 H 0.96059 0.48017 0.63219 0.0
H278 H 0.96958 0.68442 0.5882 0.0
H279 H 0.97393 0.60972 0.59244 0.0
C280 C 0.21731 0.24864 0.62373 0.0
C281 C 0.18674 0.27573 0.62074 0.0
C282 C 0.25054 0.24654 0.6011 0.0
C283 C 0.27359 0.21693 0.53261 0.0
H284 H 0.32149 0.30353 0.47996 0.0
C285 C 0.31608 0.1729 0.40038 0.0
C286 C 0.3006 0.19807 0.37923 0.0
C287 C 0.31862 0.18649 0.43315 0.0
C288 C 0.30843 0.27896 0.49443 0.0
H289 H 0.16973 0.32591 0.59519 0.0
H290 H 0.22756 0.32278 0.55612 0.0
H291 H 0.3003 0.32331 0.53574 0.0
H292 H 0.27715 0.25778 0.37546 0.0
H293 H 0.2804 0.28117 0.4328 0.0
H294 H 0.27872 0.1729 0.49106 0.0
C295 C 0.2263 0.30293 0.57549 0.0
C296 C 0.2966 0.29026 0.52642 0.0
C297 C 0.19301 0.30473 0.59785 0.0
C298 C 0.28941 0.23789 0.39124 0.0
C299 C 0.29156 0.25134 0.42409 0.0
C300 C 0.28524 0.20567 0.5007 0.0
C301 C 0.25358 0.27172 0.57547 0.0
C302 C 0.27738 0.25953 0.54543 0.0
C303 C 0.30532 0.22538 0.44555 0.0
C304 C 0.30118 0.23672 0.48083 0.0
H305 H 0.21295 0.22581 0.64112 0.0
H306 H 0.27151 0.22262 0.60196 0.0
H307 H 0.25826 0.19245 0.54631 0.0
H308 H 0.32561 0.14235 0.39161 0.0
H309 H 0.33005 0.16604 0.44889 0.0
C310 C 0.93039 0.16303 0.68035 0.0
C311 C 0.94713 0.20572 0.68393 0.0
C312 C 0.89745 0.14856 0.7007 0.0
C313 C 0.87198 0.13023 0.76843 0.0
H314 H 0.78469 0.19341 0.80898 0.0
C315 C 0.81585 0.10836 0.89725 0.0
C316 C 0.81374 0.14619 0.91728 0.0
C317 C 0.81802 0.10833 0.86397 0.0
C318 C 0.80889 0.17534 0.79788 0.0
H319 H 0.93943 0.26761 0.70821 0.0
H320 H 0.88209 0.24259 0.74349 0.0
H321 H 0.81068 0.20596 0.75486 0.0
H322 H 0.81087 0.21333 0.91855 0.0
H323 H 0.81631 0.21379 0.86029 0.0
H324 H 0.87287 0.10199 0.81201 0.0
C325 C 0.89421 0.2201 0.72532 0.0
C326 C 0.82345 0.18226 0.76684 0.0
C327 C 0.92735 0.23442 0.70533 0.0
C328 C 0.81244 0.18381 0.90351 0.0
C329 C 0.81515 0.1839 0.87016 0.0
C330 C 0.85767 0.12353 0.79947 0.0
C331 C 0.88062 0.17673 0.72449 0.0
C332 C 0.85642 0.16108 0.75241 0.0
C333 C 0.81863 0.14623 0.85003 0.0
C334 C 0.82726 0.14732 0.81507 0.0
H335 H 0.94505 0.14031 0.66389 0.0
H336 H 0.88725 0.115 0.69942 0.0
H337 H 0.89786 0.11385 0.75818 0.0
H338 H 0.81605 0.07877 0.90738 0.0
H339 H 0.81996 0.0787 0.84918 0.0
C340 C 0.78502 0.77515 0.4538 0.0
C341 C 0.82783 0.77807 0.4613 0.0
C342 C 0.7732 0.77348 0.42187 0.0
C343 C 0.81317 0.81421 0.34928 0.0
H344 H 0.7309 0.73307 0.30309 0.0
C345 C 0.76228 0.84028 0.22555 0.0
C346 C 0.7704 0.80761 0.20174 0.0
C347 C 0.76092 0.83368 0.25784 0.0
C348 C 0.75372 0.75596 0.3159 0.0
H349 H 0.89143 0.77788 0.44125 0.0
H350 H 0.87076 0.7762 0.38572 0.0
H351 H 0.74663 0.72487 0.35895 0.0
H352 H 0.78043 0.74174 0.19277 0.0
H353 H 0.77807 0.73017 0.24968 0.0
H354 H 0.82059 0.84536 0.30665 0.0
C355 C 0.84654 0.77554 0.40453 0.0
C356 C 0.76259 0.75134 0.34766 0.0
C357 C 0.8583 0.77672 0.43625 0.0
C358 C 0.77439 0.76745 0.21072 0.0
C359 C 0.77271 0.76076 0.24314 0.0
C360 C 0.80387 0.81919 0.3179 0.0
C361 C 0.80408 0.77505 0.39722 0.0
C362 C 0.79286 0.78013 0.36429 0.0
C363 C 0.76747 0.79429 0.26691 0.0
C364 C 0.77438 0.78994 0.30086 0.0
H365 H 0.76091 0.77634 0.47263 0.0
H366 H 0.74026 0.77326 0.41662 0.0
H367 H 0.83635 0.83699 0.36186 0.0
H368 H 0.75958 0.87171 0.21939 0.0
H369 H 0.75668 0.85991 0.27584 0.0
C370 C 0.23674 0.84939 0.77789 0.0
C371 C 0.19556 0.8567 0.77171 0.0
C372 C 0.24904 0.84882 0.80948 0.0
C373 C 0.2238 0.88848 0.89192 0.0
H374 H 0.27003 0.79109 0.91722 0.0
C375 C 0.26207 0.88143 1.02218 0.0
C376 C 0.24067 0.84603 1.03514 0.0
C377 C 0.26686 0.8819 0.98906 0.0
C378 C 0.25748 0.81856 0.91034 0.0
H379 H 0.13529 0.87024 0.79327 0.0
H380 H 0.15683 0.86955 0.84835 0.0
H381 H 0.25728 0.79528 0.86031 0.0
H382 H 0.2105 0.78221 1.0238 0.0
H383 H 0.2187 0.78314 0.96556 0.0
H384 H 0.22263 0.91132 0.94172 0.0
C385 C 0.17951 0.86408 0.82891 0.0
C386 C 0.25045 0.82108 0.87793 0.0
C387 C 0.16712 0.86416 0.79747 0.0
C388 C 0.22686 0.80997 1.01439 0.0
C389 C 0.23184 0.81039 0.98115 0.0
C390 C 0.23122 0.88621 0.92414 0.0
C391 C 0.22048 0.85629 0.83517 0.0
C392 C 0.23271 0.85566 0.86864 0.0
C393 C 0.25041 0.847 0.96827 0.0
C394 C 0.24744 0.85093 0.93371 0.0
H395 H 0.25908 0.84343 0.7583 0.0
H396 H 0.28084 0.84288 0.81387 0.0
H397 H 0.21023 0.91552 0.88524 0.0
H398 H 0.27262 0.90994 0.03748 0.0
H399 H 0.28156 0.91037 0.97966 0.0
C400 C 0.84749 0.98931 0.94763 0.0
C401 C 0.8321 0.96043 0.96948 0.0
C402 C 0.86262 0.97516 0.91678 0.0
C403 C 0.86308 0.87801 0.85754 0.0
H404 H 0.95983 0.94189 0.82041 0.0
C405 C 0.9226 0.83481 0.72657 0.0
C406 C 0.96597 0.84206 0.71901 0.0
C407 C 0.90655 0.84808 0.75718 0.0
C408 C 0.93307 0.92329 0.83048 0.0
H409 H 0.82044 0.89369 0.97536 0.0
H410 H 0.84701 0.86936 0.92243 0.0
H411 H 0.93092 0.96774 0.87255 0.0
H412 H 0.02656 0.86788 0.73871 0.0
H413 H 0.99879 0.89007 0.79219 0.0
H414 H 0.86591 0.83295 0.81603 0.0
C415 C 0.8468 0.90297 0.92864 0.0
C416 C 0.91597 0.93856 0.86033 0.0
C417 C 0.83156 0.91706 0.95929 0.0
C418 C 0.993 0.86162 0.74349 0.0
C419 C 0.97691 0.87488 0.77418 0.0
C420 C 0.88024 0.8627 0.8278 0.0
C421 C 0.86297 0.9317 0.90688 0.0
C422 C 0.88068 0.91615 0.87444 0.0
C423 C 0.93329 0.86893 0.78142 0.0
C424 C 0.91554 0.88503 0.81369 0.0
H425 H 0.84862 0.02295 0.95451 0.0
H426 H 0.8741 0.99842 0.90073 0.0
H427 H 0.83564 0.8599 0.86713 0.0
H428 H 0.90058 0.82025 0.70845 0.0
H429 H 0.87279 0.84324 0.76139 0.0
C430 C 0.18365 0.92979 0.29606 0.0
C431 C 0.20117 0.97193 0.2944 0.0
C432 C 0.16757 0.91579 0.32508 0.0
C433 C 0.12301 0.95309 0.4047 0.0
H434 H 0.13809 0.84094 0.42476 0.0
C435 C 0.0269 0.87298 0.50787 0.0
C436 C 0.04906 0.85043 0.52727 0.0
C437 C 0.0457 0.88789 0.47969 0.0
C438 C 0.13362 0.87244 0.41974 0.0
H439 H 0.21563 0.03231 0.32264 0.0
H440 H 0.18745 0.00786 0.37363 0.0
H441 H 0.17285 0.86774 0.37716 0.0
H442 H 0.10841 0.82535 0.53138 0.0
H443 H 0.14067 0.85076 0.48257 0.0
H444 H 0.08377 0.95769 0.44746 0.0
C445 C 0.18625 0.9856 0.35218 0.0
C446 C 0.15339 0.88777 0.39217 0.0
C447 C 0.20295 0.99956 0.323 0.0
C448 C 0.0901 0.84234 0.51714 0.0
C449 C 0.1087 0.85693 0.48894 0.0
C450 C 0.1029 0.93758 0.43222 0.0
C451 C 0.16795 0.94351 0.35357 0.0
C452 C 0.14838 0.92829 0.38409 0.0
C453 C 0.08707 0.88037 0.46989 0.0
C454 C 0.10788 0.89696 0.4402 0.0
H455 H 0.18149 0.90755 0.27458 0.0
H456 H 0.15345 0.88337 0.32488 0.0
H457 H 0.11796 0.98424 0.39921 0.0
H458 H 0.99536 0.88008 0.51483 0.0
H459 H 0.02773 0.90531 0.46553 0.0
C460 C 0.14331 0.20722 0.89735 0.0
C461 C 0.13924 0.17921 0.86883 0.0
C462 C 0.1508 0.1931 0.92711 0.0
C463 C 0.18832 0.1025 0.96387 0.0
H464 H 0.1405 0.15475 0.04252 0.0
C465 C 0.20322 0.03593 0.08686 0.0
C466 C 0.20721 0.06387 0.11536 0.0
C467 C 0.19439 0.04988 0.05736 0.0
C468 C 0.15473 0.14001 1.02097 0.0
H469 H 0.14031 0.11346 0.85043 0.0
H470 H 0.15261 0.08893 0.90197 0.0
H471 H 0.1263 0.17844 0.9911 0.0
H472 H 0.20429 0.12903 0.1344 0.0
H473 H 0.18964 0.1535 0.08316 0.0
H474 H 0.21695 0.06425 0.99363 0.0
C475 C 0.15047 0.12221 0.9013 0.0
C476 C 0.14646 0.1537 0.99116 0.0
C477 C 0.14286 0.13632 0.8715 0.0
C478 C 0.20178 0.1064 0.11318 0.0
C479 C 0.19295 0.12042 0.08358 0.0
C480 C 0.19667 0.0889 0.99364 0.0
C481 C 0.15462 0.1503 0.92979 0.0
C482 C 0.16311 0.13527 0.96192 0.0
C483 C 0.18918 0.09246 0.05497 0.0
C484 C 0.1801 0.10734 1.0229 0.0
H485 H 0.14014 0.24033 0.89692 0.0
H486 H 0.15414 0.21615 0.94804 0.0
H487 H 0.20251 0.0877 0.94232 0.0
H488 H 0.20666 1.00285 0.08725 0.0
H489 H 0.19102 0.02683 0.03644 0.0
C490 C 0.84334 0.08025 0.17886 0.0
C491 C 0.8521 0.04085 0.16341 0.0
C492 C 0.8583 0.09499 0.20986 0.0
C493 C 0.93812 0.07707 0.26956 0.0
H494 H 0.86911 0.13995 0.33072 0.0
C495 C 0.98062 0.11267 0.40511 0.0
C496 C 0.97215 0.15134 0.42212 0.0
C497 C 0.96662 0.10048 0.37357 0.0
C498 C 0.88921 0.12289 0.31396 0.0
H499 H 0.88399 0.98633 0.16929 0.0
H500 H 0.90927 0.01148 0.22277 0.0
H501 H 0.8441 0.11723 0.27657 0.0
H502 H 0.94131 0.2071 0.41828 0.0
H503 H 0.91778 0.18636 0.36351 0.0
H504 H 0.98315 0.08256 0.30693 0.0
C505 C 0.89133 0.03153 0.21093 0.0
C506 C 0.87475 0.10977 0.28263 0.0
C507 C 0.87637 0.01682 0.18008 0.0
C508 C 0.94909 0.17732 0.40622 0.0
C509 C 0.93501 0.16508 0.37469 0.0
C510 C 0.95254 0.09013 0.30087 0.0
C511 C 0.88268 0.07092 0.2265 0.0
C512 C 0.89877 0.08633 0.25985 0.0
C513 C 0.9435 0.12641 0.35769 0.0
C514 C 0.92829 0.1131 0.3238 0.0
H515 H 0.82511 0.09995 0.16692 0.0
H516 H 0.85123 0.12569 0.22057 0.0
H517 H 0.95825 0.06 0.25281 0.0
H518 H 0.99859 0.09175 0.416 0.0
H519 H 0.97357 0.07026 0.36179 0.0
loop_
_geom_bond_atom_site_label_1
_geom_bond_atom_site_label_2
_geom_bond_distance
_geom_bond_site_symmetry_2
_ccdc_geom_bond_type
Tb0 C9 2.764 . S
Tb0 O10 2.325 1_565 S
Tb0 O13 2.303 1_565 S
Tb0 O17 2.322 . S
Tb0 O18 2.349 . S
Tb0 O21 2.415 . S
Tb0 O22 2.399 . S
Tb1 O11 2.322 . S
Tb1 O12 2.349 . S
Tb1 O14 2.415 . S
Tb1 O15 2.399 . S
Tb1 O16 2.325 . S
Tb1 O19 2.303 . S
Tb1 C30 2.764 . S
C2 O18 1.261 1_545 S
C2 O19 1.257 . S
C3 C6 1.358 . S
C3 C7 1.332 . S
C3 C9 1.504 . S
C4 C5 1.373 . S
C4 C8 1.308 . S
C5 C4 1.373 . S
C5 C6 1.429 1_556 S
C5 H32 0.932 . S
C6 C3 1.358 . S
C6 C5 1.429 1_554 S
C6 H33 0.930 . S
C7 C3 1.332 . S
C7 C8 1.394 1_554 S
C7 H34 0.932 . S
C8 C4 1.308 . S
C8 C7 1.394 1_556 S
C8 H35 0.929 . S
C9 Tb0 2.764 . S
C9 C3 1.504 . S
C9 O21 1.239 . S
C9 O22 1.263 . S
O10 Tb0 2.325 1_545 S
O10 C20 1.236 . S
O11 Tb1 2.322 . S
O11 C20 1.257 . S
O12 Tb1 2.349 . S
O12 C23 1.261 . S
O13 Tb0 2.303 1_545 S
O13 C23 1.257 . S
O14 Tb1 2.415 . S
O14 C30 1.239 . S
O15 Tb1 2.399 . S
O15 C30 1.263 . S
O16 Tb1 2.325 . S
O16 C31 1.236 1_545 S
O17 Tb0 2.322 . S
O17 C31 1.257 . S
O18 Tb0 2.349 . S
O18 C2 1.261 1_565 S
O19 Tb1 2.303 . S
O19 C2 1.257 . S
C20 O10 1.236 . S
C20 O11 1.257 . S
O21 Tb0 2.415 . S
O21 C9 1.239 . S
O22 Tb0 2.399 . S
O22 C9 1.263 . S
C23 O12 1.261 . S
C23 O13 1.257 . S
C24 C27 1.358 . S
C24 C28 1.332 . S
C24 C30 1.504 . S
C25 C26 1.373 . S
C25 C29 1.308 . S
C26 C25 1.373 . S
C26 C27 1.429 . S
C26 H36 0.932 . S
C27 C24 1.358 . S
C27 C26 1.429 . S
C27 H37 0.930 . S
C28 C24 1.332 . S
C28 C29 1.394 . S
C28 H38 0.932 . S
C29 C25 1.308 . S
C29 C28 1.394 . S
C29 H39 0.929 . S
C30 Tb1 2.764 . S
C30 O14 1.239 . S
C30 O15 1.263 . S
C30 C24 1.504 . S
C31 O16 1.236 1_565 S
C31 O17 1.257 . S
H32 C5 0.932 . S
H33 C6 0.930 . S
H34 C7 0.932 . S
H35 C8 0.929 . S
H36 C26 0.932 . S
H37 C27 0.930 . S
H38 C28 0.932 . S
H39 C29 0.929 . S
Tb40 C49 2.764 . S
Tb40 O50 2.325 . S
Tb40 O53 2.303 . S
Tb40 O57 2.322 . S
Tb40 O58 2.349 . S
Tb40 O61 2.415 . S
Tb40 O62 2.399 . S
Tb41 O51 2.322 . S
Tb41 O52 2.349 . S
Tb41 O54 2.413 1_455 S
Tb41 O55 2.399 1_455 S
Tb41 O56 2.325 . S
Tb41 O59 2.303 . S
Tb41 C70 2.764 1_455 S
C42 O58 1.261 . S
C42 O59 1.257 . S
C43 C46 1.358 . S
C43 C47 1.332 . S
C43 C49 1.504 . S
C44 C45 1.373 . S
C44 C48 1.308 . S
C45 C44 1.373 . S
C45 C46 1.429 . S
C45 H72 0.932 . S
C46 C43 1.358 . S
C46 C45 1.429 . S
C46 H73 0.930 . S
C47 C43 1.332 . S
C47 C48 1.394 . S
C47 H74 0.932 . S
C48 C44 1.308 . S
C48 C47 1.394 . S
C48 H75 0.929 . S
C49 Tb40 2.764 . S
C49 C43 1.504 . S
C49 O61 1.239 . S
C49 O62 1.263 . S
O50 Tb40 2.325 . S
O50 C60 1.236 . S
O51 Tb41 2.322 . S
O51 C60 1.257 . S
O52 Tb41 2.349 . S
O52 C63 1.261 . S
O53 Tb40 2.303 . S
O53 C63 1.257 . S
O54 Tb41 2.413 1_655 S
O54 C70 1.241 . S
O55 Tb41 2.399 1_655 S
O55 C70 1.263 . S
O56 Tb41 2.325 . S
O56 C71 1.236 . S
O57 Tb40 2.322 . S
O57 C71 1.257 . S
O58 Tb40 2.349 . S
O58 C42 1.261 . S
O59 Tb41 2.303 . S
O59 C42 1.257 . S
C60 O50 1.236 . S
C60 O51 1.257 . S
O61 Tb40 2.415 . S
O61 C49 1.239 . S
O62 Tb40 2.399 . S
O62 C49 1.263 . S
C63 O52 1.261 . S
C63 O53 1.257 . S
C64 C67 1.358 . S
C64 C68 1.332 . S
C64 C70 1.504 . S
C65 C66 1.373 . S
C65 C69 1.308 . S
C66 C65 1.373 . S
C66 C67 1.429 . S
C66 H76 0.932 . S
C67 C64 1.358 . S
C67 C66 1.429 . S
C67 H77 0.930 . S
C68 C64 1.332 . S
C68 C69 1.394 . S
C68 H78 0.932 . S
C69 C65 1.308 . S
C69 C68 1.394 . S
C69 H79 0.929 . S
C70 Tb41 2.764 1_655 S
C70 O54 1.241 . S
C70 O55 1.263 . S
C70 C64 1.504 . S
C71 O56 1.236 . S
C71 O57 1.257 . S
H72 C45 0.932 . S
H73 C46 0.930 . S
H74 C47 0.932 . S
H75 C48 0.929 . S
H76 C66 0.932 . S
H77 C67 0.930 . S
H78 C68 0.932 . S
H79 C69 0.929 . S
Tb80 C89 2.764 . S
Tb80 O90 2.325 1_565 S
Tb80 O93 2.303 . S
Tb80 O97 2.322 . S
Tb80 O98 2.349 . S
Tb80 O101 2.415 . S
Tb80 O102 2.399 . S
Tb81 O91 2.322 . S
Tb81 O92 2.349 . S
Tb81 O94 2.415 1_554 S
Tb81 O95 2.399 1_554 S
Tb81 O96 2.325 1_545 S
Tb81 O99 2.303 . S
Tb81 C110 2.764 1_554 S
C82 O98 1.261 . S
C82 O99 1.257 1_565 S
C83 C86 1.358 . S
C83 C87 1.332 . S
C83 C89 1.504 . S
C84 C85 1.373 . S
C84 C88 1.308 . S
C85 C84 1.373 . S
C85 C86 1.429 . S
C85 H112 0.932 . S
C86 C83 1.358 . S
C86 C85 1.429 . S
C86 H113 0.930 . S
C87 C83 1.332 . S
C87 C88 1.394 . S
C87 H114 0.932 . S
C88 C84 1.308 . S
C88 C87 1.394 . S
C88 H115 0.929 . S
C89 Tb80 2.764 . S
C89 C83 1.504 . S
C89 O101 1.239 . S
C89 O102 1.263 . S
O90 Tb80 2.325 1_545 S
O90 C100 1.236 . S
O91 Tb81 2.322 . S
O91 C100 1.257 . S
O92 Tb81 2.349 . S
O92 C103 1.261 . S
O93 Tb80 2.303 . S
O93 C103 1.257 1_565 S
O94 Tb81 2.415 1_556 S
O94 C110 1.239 . S
O95 Tb81 2.399 1_556 S
O95 C110 1.263 . S
O96 Tb81 2.325 1_565 S
O96 C111 1.236 . S
O97 Tb80 2.322 . S
O97 C111 1.257 . S
O98 Tb80 2.349 . S
O98 C82 1.261 . S
O99 Tb81 2.303 . S
O99 C82 1.257 1_545 S
C100 O90 1.236 . S
C100 O91 1.257 . S
O101 Tb80 2.415 . S
O101 C89 1.239 . S
O102 Tb80 2.399 . S
O102 C89 1.263 . S
C103 O92 1.261 . S
C103 O93 1.257 1_545 S
C104 C107 1.358 . S
C104 C108 1.332 . S
C104 C110 1.504 . S
C105 C106 1.373 . S
C105 C109 1.308 . S
C106 C105 1.373 . S
C106 C107 1.429 . S
C106 H116 0.932 . S
C107 C104 1.358 . S
C107 C106 1.429 . S
C107 H117 0.930 . S
C108 C104 1.332 . S
C108 C109 1.394 . S
C108 H118 0.932 . S
C109 C105 1.308 . S
C109 C108 1.394 . S
C109 H119 0.929 . S
C110 Tb81 2.764 1_556 S
C110 O94 1.239 . S
C110 O95 1.263 . S
C110 C104 1.504 . S
C111 O96 1.236 . S
C111 O97 1.257 . S
H112 C85 0.932 . S
H113 C86 0.930 . S
H114 C87 0.932 . S
H115 C88 0.929 . S
H116 C106 0.932 . S
H117 C107 0.930 . S
H118 C108 0.932 . S
H119 C109 0.929 . S
Tb120 C129 2.764 . S
Tb120 O130 2.325 1_455 S
Tb120 O133 2.303 . S
Tb120 O137 2.322 . S
Tb120 O138 2.349 . S
Tb120 O141 2.415 . S
Tb120 O142 2.399 . S
Tb121 O131 2.322 . S
Tb121 O132 2.349 . S
Tb121 O134 2.415 . S
Tb121 O135 2.399 . S
Tb121 O136 2.325 1_655 S
Tb121 O139 2.303 . S
Tb121 C150 2.764 . S
C122 O138 1.261 . S
C122 O139 1.257 1_455 S
C123 C126 1.358 . S
C123 C127 1.332 . S
C123 C129 1.504 . S
C124 C125 1.373 . S
C124 C128 1.308 . S
C125 C124 1.373 . S
C125 C126 1.429 . S
C125 H152 0.932 . S
C126 C123 1.358 . S
C126 C125 1.429 . S
C126 H153 0.930 . S
C127 C123 1.332 . S
C127 C128 1.394 . S
C127 H154 0.932 . S
C128 C124 1.308 . S
C128 C127 1.394 . S
C128 H155 0.929 . S
C129 Tb120 2.764 . S
C129 C123 1.504 . S
C129 O141 1.239 . S
C129 O142 1.263 . S
O130 Tb120 2.325 1_655 S
O130 C140 1.236 . S
O131 Tb121 2.322 . S
O131 C140 1.257 . S
O132 Tb121 2.349 . S
O132 C143 1.261 . S
O133 Tb120 2.303 . S
O133 C143 1.257 1_455 S
O134 Tb121 2.415 . S
O134 C150 1.239 . S
O135 Tb121 2.399 . S
O135 C150 1.263 . S
O136 Tb121 2.325 1_455 S
O136 C151 1.236 . S
O137 Tb120 2.322 . S
O137 C151 1.257 . S
O138 Tb120 2.349 . S
O138 C122 1.261 . S
O139 Tb121 2.303 . S
O139 C122 1.257 1_655 S
C140 O130 1.236 . S
C140 O131 1.257 . S
O141 Tb120 2.415 . S
O141 C129 1.239 . S
O142 Tb120 2.399 . S
O142 C129 1.263 . S
C143 O132 1.261 . S
C143 O133 1.257 1_655 S
C144 C147 1.358 . S
C144 C148 1.332 . S
C144 C150 1.504 . S
C145 C146 1.373 . S
C145 C149 1.308 . S
C146 C145 1.373 . S
C146 C147 1.429 . S
C146 H156 0.932 . S
C147 C144 1.358 . S
C147 C146 1.429 . S
C147 H157 0.930 . S
C148 C144 1.332 . S
C148 C149 1.394 . S
C148 H158 0.932 . S
C149 C145 1.308 . S
C149 C148 1.394 . S
C149 H159 0.929 . S
C150 Tb121 2.764 . S
C150 O134 1.239 . S
C150 O135 1.263 . S
C150 C144 1.504 . S
C151 O136 1.236 . S
C151 O137 1.257 . S
H152 C125 0.932 . S
H153 C126 0.930 . S
H154 C127 0.932 . S
H155 C128 0.929 . S
H156 C146 0.932 . S
H157 C147 0.930 . S
H158 C148 0.932 . S
H159 C149 0.929 . S
C160 C161 1.349 . S
C160 C162 1.327 . S
C160 H185 0.950 . S
C161 C160 1.349 . S
C161 C177 1.349 1_545 S
C162 C160 1.327 . S
C162 C181 1.429 . S
C162 H186 0.950 . S
C163 C180 1.574 . S
C163 C182 1.368 1_465 S
C163 H187 0.949 . S
H164 C168 0.949 . S
C165 C166 1.349 1_565 S
C165 C167 1.327 . S
C165 H188 0.950 . S
C166 C165 1.349 1_545 S
C166 C178 1.349 . S
C167 C165 1.327 . S
C167 C183 1.429 1_565 S
C167 H189 0.950 . S
C168 H164 0.949 . S
C168 C176 1.574 . S
C168 C184 1.368 . S
H169 C177 0.950 . S
H170 C175 0.950 . S
H171 C176 0.949 1_655 S
H172 C178 0.950 . S
H173 C179 0.950 . S
H174 C180 0.949 . S
C175 H170 0.950 . S
C175 C177 1.327 . S
C175 C181 1.429 1_565 S
C176 C168 1.574 . S
C176 H171 0.949 1_455 S
C176 C182 1.368 1_455 S
C177 C161 1.349 1_565 S
C177 H169 0.950 . S
C177 C175 1.327 . S
C178 C166 1.349 . S
C178 H172 0.950 . S
C178 C179 1.327 . S
C179 H173 0.950 . S
C179 C178 1.327 . S
C179 C183 1.429 . S
C180 C163 1.574 . S
C180 H174 0.949 . S
C180 C184 1.368 1_565 S
C181 C162 1.429 . S
C181 C175 1.429 1_545 S
C181 C182 1.523 . S
C182 C163 1.368 1_645 S
C182 C176 1.368 1_655 S
C182 C181 1.523 . S
C183 C167 1.429 1_545 S
C183 C179 1.429 . S
C183 C184 1.523 . S
C184 C168 1.368 . S
C184 C180 1.368 1_545 S
C184 C183 1.523 . S
H185 C160 0.950 . S
H186 C162 0.950 . S
H187 C163 0.949 . S
H188 C165 0.950 . S
H189 C167 0.950 . S
C190 C191 1.349 1_455 S
C190 C192 1.327 . S
C190 H215 0.950 . S
C191 C190 1.349 1_655 S
C191 C207 1.349 . S
C192 C190 1.327 . S
C192 C211 1.429 . S
C192 H216 0.950 . S
C193 C210 1.574 1_565 S
C193 C212 1.368 . S
C193 H217 0.949 1_455 S
H194 C198 0.949 . S
C195 C196 1.349 . S
C195 C197 1.327 . S
C195 H218 0.950 . S
C196 C195 1.349 . S
C196 C208 1.349 . S
C197 C195 1.327 . S
C197 C213 1.429 . S
C197 H219 0.950 . S
C198 H194 0.949 . S
C198 C206 1.574 1_545 S
C198 C214 1.368 . S
H199 C207 0.950 . S
H200 C205 0.950 . S
H201 C206 0.949 . S
H202 C208 0.950 . S
H203 C209 0.950 . S
H204 C210 0.949 . S
C205 H200 0.950 . S
C205 C207 1.327 . S
C205 C211 1.429 1_655 S
C206 C198 1.574 1_565 S
C206 H201 0.949 . S
C206 C212 1.368 . S
C207 C191 1.349 . S
C207 H199 0.950 . S
C207 C205 1.327 . S
C208 C196 1.349 . S
C208 H202 0.950 . S
C208 C209 1.327 . S
C209 H203 0.950 . S
C209 C208 1.327 . S
C209 C213 1.429 . S
C210 C193 1.574 1_545 S
C210 H204 0.949 . S
C210 C214 1.368 . S
C211 C192 1.429 . S
C211 C205 1.429 1_455 S
C211 C212 1.523 . S
C212 C193 1.368 . S
C212 C206 1.368 . S
C212 C211 1.523 . S
C213 C197 1.429 . S
C213 C209 1.429 . S
C213 C214 1.523 . S
C214 C198 1.368 . S
C214 C210 1.368 . S
C214 C213 1.523 . S
H215 C190 0.950 . S
H216 C192 0.950 . S
H217 C193 0.949 1_655 S
H218 C195 0.950 . S
H219 C197 0.950 . S
C220 C221 1.349 1_565 S
C220 C222 1.327 . S
C220 H245 0.950 . S
C221 C220 1.349 1_545 S
C221 C237 1.349 . S
C222 C220 1.327 . S
C222 C241 1.429 1_565 S
C222 H246 0.950 . S
C223 C240 1.574 . S
C223 C242 1.368 . S
C223 H247 0.949 . S
H224 C228 0.949 . S
C225 C226 1.349 . S
C225 C227 1.327 . S
C225 H248 0.950 . S
C226 C225 1.349 . S
C226 C238 1.349 1_545 S
C227 C225 1.327 . S
C227 C243 1.429 . S
C227 H249 0.950 . S
C228 H224 0.949 . S
C228 C236 1.574 . S
C228 C244 1.368 1_565 S
H229 C237 0.950 . S
H230 C235 0.950 . S
H231 C236 0.949 . S
H232 C238 0.950 . S
H233 C239 0.950 . S
H234 C240 0.949 . S
C235 H230 0.950 . S
C235 C237 1.327 . S
C235 C241 1.429 . S
C236 C228 1.574 . S
C236 H231 0.949 . S
C236 C242 1.368 1_565 S
C237 C221 1.349 . S
C237 H229 0.950 . S
C237 C235 1.327 . S
C238 C226 1.349 1_565 S
C238 H232 0.950 . S
C238 C239 1.327 . S
C239 H233 0.950 . S
C239 C238 1.327 . S
C239 C243 1.429 1_565 S
C240 C223 1.574 . S
C240 H234 0.949 . S
C240 C244 1.368 . S
C241 C222 1.429 1_545 S
C241 C235 1.429 . S
C241 C242 1.523 . S
C242 C223 1.368 . S
C242 C236 1.368 1_545 S
C242 C241 1.523 . S
C243 C227 1.429 . S
C243 C239 1.429 1_545 S
C243 C244 1.523 . S
C244 C228 1.368 1_545 S
C244 C240 1.368 . S
C244 C243 1.523 . S
H245 C220 0.950 . S
H246 C222 0.950 . S
H247 C223 0.949 . S
H248 C225 0.950 . S
H249 C227 0.950 . S
C250 C251 1.349 . S
C250 C252 1.327 . S
C250 H275 0.950 . S
C251 C250 1.349 . S
C251 C267 1.349 . S
C252 C250 1.327 . S
C252 C271 1.429 . S
C252 H276 0.950 . S
C253 C270 1.574 . S
C253 C272 1.368 . S
C253 H277 0.949 . S
H254 C258 0.949 . S
C255 C256 1.349 . S
C255 C257 1.327 . S
C255 H278 0.950 . S
C256 C255 1.349 . S
C256 C268 1.349 1_655 S
C257 C255 1.327 . S
C257 C273 1.429 1_655 S
C257 H279 0.950 . S
C258 H254 0.949 . S
C258 C266 1.574 . S
C258 C274 1.368 . S
H259 C267 0.950 . S
H260 C265 0.950 . S
H261 C266 0.949 . S
H262 C268 0.950 . S
H263 C269 0.950 . S
H264 C270 0.949 1_655 S
C265 H260 0.950 . S
C265 C267 1.327 . S
C265 C271 1.429 . S
C266 C258 1.574 . S
C266 H261 0.949 . S
C266 C272 1.368 . S
C267 C251 1.349 . S
C267 H259 0.950 . S
C267 C265 1.327 . S
C268 C256 1.349 1_455 S
C268 H262 0.950 . S
C268 C269 1.327 . S
C269 H263 0.950 . S
C269 C268 1.327 . S
C269 C273 1.429 . S
C270 C253 1.574 . S
C270 H264 0.949 1_455 S
C270 C274 1.368 . S
C271 C252 1.429 . S
C271 C265 1.429 . S
C271 C272 1.523 . S
C272 C253 1.368 . S
C272 C266 1.368 . S
C272 C271 1.523 . S
C273 C257 1.429 1_455 S
C273 C269 1.429 . S
C273 C274 1.523 . S
C274 C258 1.368 . S
C274 C270 1.368 . S
C274 C273 1.523 . S
H275 C250 0.950 . S
H276 C252 0.950 . S
H277 C253 0.949 . S
H278 C255 0.950 . S
H279 C257 0.950 . S
C280 C281 1.349 . S
C280 C282 1.327 . S
C280 H305 0.950 . S
C281 C280 1.349 . S
C281 C297 1.349 . S
C282 C280 1.327 . S
C282 C301 1.429 . S
C282 H306 0.950 . S
C283 C300 1.574 . S
C283 C302 1.368 . S
C283 H307 0.949 . S
H284 C288 0.949 . S
C285 C286 1.349 . S
C285 C287 1.327 . S
C285 H308 0.950 . S
C286 C285 1.349 . S
C286 C298 1.349 . S
C287 C285 1.327 . S
C287 C303 1.429 . S
C287 H309 0.950 . S
C288 H284 0.949 . S
C288 C296 1.574 . S
C288 C304 1.368 . S
H289 C297 0.950 . S
H290 C295 0.950 . S
H291 C296 0.949 . S
H292 C298 0.950 . S
H293 C299 0.950 . S
H294 C300 0.949 . S
C295 H290 0.950 . S
C295 C297 1.327 . S
C295 C301 1.429 . S
C296 C288 1.574 . S
C296 H291 0.949 . S
C296 C302 1.368 . S
C297 C281 1.349 . S
C297 H289 0.950 . S
C297 C295 1.327 . S
C298 C286 1.349 . S
C298 H292 0.950 . S
C298 C299 1.327 . S
C299 H293 0.950 . S
C299 C298 1.327 . S
C299 C303 1.429 . S
C300 C283 1.574 . S
C300 H294 0.949 . S
C300 C304 1.368 . S
C301 C282 1.429 . S
C301 C295 1.429 . S
C301 C302 1.523 . S
C302 C283 1.368 . S
C302 C296 1.368 . S
C302 C301 1.523 . S
C303 C287 1.429 . S
C303 C299 1.429 . S
C303 C304 1.523 . S
C304 C288 1.368 . S
C304 C300 1.368 . S
C304 C303 1.523 . S
H305 C280 0.950 . S
H306 C282 0.950 . S
H307 C283 0.949 . S
H308 C285 0.950 . S
H309 C287 0.950 . S
C310 C311 1.349 1_655 S
C310 C312 1.327 . S
C310 H335 0.950 . S
C311 C310 1.349 1_455 S
C311 C327 1.349 . S
C312 C310 1.327 . S
C312 C331 1.429 . S
C312 H336 0.950 . S
C313 C330 1.574 . S
C313 C332 1.368 . S
C313 H337 0.949 . S
H314 C318 0.949 . S
C315 C316 1.349 . S
C315 C317 1.327 . S
C315 H338 0.950 . S
C316 C315 1.349 . S
C316 C328 1.349 . S
C317 C315 1.327 . S
C317 C333 1.429 . S
C317 H339 0.950 . S
C318 H314 0.949 . S
C318 C326 1.574 . S
C318 C334 1.368 . S
H319 C327 0.950 . S
H320 C325 0.950 . S
H321 C326 0.949 . S
H322 C328 0.950 . S
H323 C329 0.950 . S
H324 C330 0.949 . S
C325 H320 0.950 . S
C325 C327 1.327 . S
C325 C331 1.429 1_455 S
C326 C318 1.574 . S
C326 H321 0.949 . S
C326 C332 1.368 . S
C327 C311 1.349 . S
C327 H319 0.950 . S
C327 C325 1.327 . S
C328 C316 1.349 . S
C328 H322 0.950 . S
C328 C329 1.327 . S
C329 H323 0.950 . S
C329 C328 1.327 . S
C329 C333 1.429 . S
C330 C313 1.574 . S
C330 H324 0.949 . S
C330 C334 1.368 . S
C331 C312 1.429 . S
C331 C325 1.429 1_655 S
C331 C332 1.523 . S
C332 C313 1.368 . S
C332 C326 1.368 . S
C332 C331 1.523 . S
C333 C317 1.429 . S
C333 C329 1.429 . S
C333 C334 1.523 . S
C334 C318 1.368 . S
C334 C330 1.368 . S
C334 C333 1.523 . S
H335 C310 0.950 . S
H336 C312 0.950 . S
H337 C313 0.949 . S
H338 C315 0.950 . S
H339 C317 0.950 . S
C340 C341 1.349 . S
C340 C342 1.327 . S
C340 H365 0.950 . S
C341 C340 1.349 . S
C341 C357 1.349 . S
C342 C340 1.327 . S
C342 C361 1.429 . S
C342 H366 0.950 . S
C343 C360 1.574 . S
C343 C362 1.368 . S
C343 H367 0.949 . S
H344 C348 0.949 . S
C345 C346 1.349 . S
C345 C347 1.327 . S
C345 H368 0.950 . S
C346 C345 1.349 . S
C346 C358 1.349 . S
C347 C345 1.327 . S
C347 C363 1.429 . S
C347 H369 0.950 . S
C348 H344 0.949 . S
C348 C356 1.574 . S
C348 C364 1.368 . S
H349 C357 0.950 . S
H350 C355 0.950 . S
H351 C356 0.949 . S
H352 C358 0.950 . S
H353 C359 0.950 . S
H354 C360 0.949 . S
C355 H350 0.950 . S
C355 C357 1.327 . S
C355 C361 1.429 . S
C356 C348 1.574 . S
C356 H351 0.949 . S
C356 C362 1.368 . S
C357 C341 1.349 . S
C357 H349 0.950 . S
C357 C355 1.327 . S
C358 C346 1.349 . S
C358 H352 0.950 . S
C358 C359 1.327 . S
C359 H353 0.950 . S
C359 C358 1.327 . S
C359 C363 1.429 . S
C360 C343 1.574 . S
C360 H354 0.949 . S
C360 C364 1.368 . S
C361 C342 1.429 . S
C361 C355 1.429 . S
C361 C362 1.523 . S
C362 C343 1.368 . S
C362 C356 1.368 . S
C362 C361 1.523 . S
C363 C347 1.429 . S
C363 C359 1.429 . S
C363 C364 1.523 . S
C364 C348 1.368 . S
C364 C360 1.368 . S
C364 C363 1.523 . S
H365 C340 0.950 . S
H366 C342 0.950 . S
H367 C343 0.949 . S
H368 C345 0.950 . S
H369 C347 0.950 . S
C370 C371 1.349 . S
C370 C372 1.327 . S
C370 H395 0.950 . S
C371 C370 1.349 . S
C371 C387 1.349 . S
C372 C370 1.327 . S
C372 C391 1.429 . S
C372 H396 0.950 . S
C373 C390 1.574 . S
C373 C392 1.368 . S
C373 H397 0.949 . S
H374 C378 0.949 . S
C375 C376 1.349 . S
C375 C377 1.327 . S
C375 H398 0.950 . S
C376 C375 1.349 . S
C376 C388 1.349 . S
C377 C375 1.327 . S
C377 C393 1.429 . S
C377 H399 0.950 . S
C378 H374 0.949 . S
C378 C386 1.574 . S
C378 C394 1.368 . S
H379 C387 0.950 . S
H380 C385 0.950 . S
H381 C386 0.949 . S
H382 C388 0.950 . S
H383 C389 0.950 . S
H384 C390 0.949 . S
C385 H380 0.950 . S
C385 C387 1.327 . S
C385 C391 1.429 . S
C386 C378 1.574 . S
C386 H381 0.949 . S
C386 C392 1.368 . S
C387 C371 1.349 . S
C387 H379 0.950 . S
C387 C385 1.327 . S
C388 C376 1.349 . S
C388 H382 0.950 . S
C388 C389 1.327 . S
C389 H383 0.950 . S
C389 C388 1.327 . S
C389 C393 1.429 . S
C390 C373 1.574 . S
C390 H384 0.949 . S
C390 C394 1.368 . S
C391 C372 1.429 . S
C391 C385 1.429 . S
C391 C392 1.523 . S
C392 C373 1.368 . S
C392 C386 1.368 . S
C392 C391 1.523 . S
C393 C377 1.429 . S
C393 C389 1.429 . S
C393 C394 1.523 . S
C394 C378 1.368 . S
C394 C390 1.368 . S
C394 C393 1.523 . S
H395 C370 0.950 . S
H396 C372 0.950 . S
H397 C373 0.949 . S
H398 C375 0.950 . S
H399 C377 0.950 . S
C400 C401 1.349 . S
C400 C402 1.327 . S
C400 H425 0.950 . S
C401 C400 1.349 . S
C401 C417 1.349 . S
C402 C400 1.327 . S
C402 C421 1.429 . S
C402 H426 0.950 . S
C403 C420 1.574 . S
C403 C422 1.368 . S
C403 H427 0.949 . S
H404 C408 0.949 . S
C405 C406 1.349 . S
C405 C407 1.327 . S
C405 H428 0.950 . S
C406 C405 1.349 . S
C406 C418 1.349 . S
C407 C405 1.327 . S
C407 C423 1.429 . S
C407 H429 0.950 . S
C408 H404 0.949 . S
C408 C416 1.574 . S
C408 C424 1.368 . S
H409 C417 0.950 . S
H410 C415 0.950 . S
H411 C416 0.949 . S
H412 C418 0.950 . S
H413 C419 0.950 . S
H414 C420 0.949 . S
C415 H410 0.950 . S
C415 C417 1.327 . S
C415 C421 1.429 . S
C416 C408 1.574 . S
C416 H411 0.949 . S
C416 C422 1.368 . S
C417 C401 1.349 . S
C417 H409 0.950 . S
C417 C415 1.327 . S
C418 C406 1.349 . S
C418 H412 0.950 . S
C418 C419 1.327 . S
C419 H413 0.950 . S
C419 C418 1.327 . S
C419 C423 1.429 . S
C420 C403 1.574 . S
C420 H414 0.949 . S
C420 C424 1.368 . S
C421 C402 1.429 . S
C421 C415 1.429 . S
C421 C422 1.523 . S
C422 C403 1.368 . S
C422 C416 1.368 . S
C422 C421 1.523 . S
C423 C407 1.429 . S
C423 C419 1.429 . S
C423 C424 1.523 . S
C424 C408 1.368 . S
C424 C420 1.368 . S
C424 C423 1.523 . S
H425 C400 0.950 . S
H426 C402 0.950 . S
H427 C403 0.949 . S
H428 C405 0.950 . S
H429 C407 0.950 . S
C430 C431 1.349 . S
C430 C432 1.327 . S
C430 H455 0.950 . S
C431 C430 1.349 . S
C431 C447 1.349 . S
C432 C430 1.327 . S
C432 C451 1.429 . S
C432 H456 0.950 . S
C433 C450 1.574 . S
C433 C452 1.368 . S
C433 H457 0.949 . S
H434 C438 0.949 . S
C435 C436 1.349 . S
C435 C437 1.327 . S
C435 H458 0.950 . S
C436 C435 1.349 . S
C436 C448 1.349 . S
C437 C435 1.327 . S
C437 C453 1.429 . S
C437 H459 0.950 . S
C438 H434 0.949 . S
C438 C446 1.574 . S
C438 C454 1.368 . S
H439 C447 0.950 . S
H440 C445 0.950 . S
H441 C446 0.949 . S
H442 C448 0.950 . S
H443 C449 0.950 . S
H444 C450 0.949 . S
C445 H440 0.950 . S
C445 C447 1.327 . S
C445 C451 1.429 . S
C446 C438 1.574 . S
C446 H441 0.949 . S
C446 C452 1.368 . S
C447 C431 1.349 . S
C447 H439 0.950 . S
C447 C445 1.327 . S
C448 C436 1.349 . S
C448 H442 0.950 . S
C448 C449 1.327 . S
C449 H443 0.950 . S
C449 C448 1.327 . S
C449 C453 1.429 . S
C450 C433 1.574 . S
C450 H444 0.949 . S
C450 C454 1.368 . S
C451 C432 1.429 . S
C451 C445 1.429 . S
C451 C452 1.523 . S
C452 C433 1.368 . S
C452 C446 1.368 . S
C452 C451 1.523 . S
C453 C437 1.429 . S
C453 C449 1.429 . S
C453 C454 1.523 . S
C454 C438 1.368 . S
C454 C450 1.368 . S
C454 C453 1.523 . S
H455 C430 0.950 . S
H456 C432 0.950 . S
H457 C433 0.949 . S
H458 C435 0.950 . S
H459 C437 0.950 . S
C460 C461 1.349 . S
C460 C462 1.327 . S
C460 H485 0.950 . S
C461 C460 1.349 . S
C461 C477 1.349 . S
C462 C460 1.327 . S
C462 C481 1.429 . S
C462 H486 0.950 . S
C463 C480 1.574 . S
C463 C482 1.368 . S
C463 H487 0.949 . S
H464 C468 0.949 . S
C465 C466 1.349 . S
C465 C467 1.327 1_554 S
C465 H488 0.950 . S
C466 C465 1.349 . S
C466 C478 1.349 . S
C467 C465 1.327 1_556 S
C467 C483 1.429 . S
C467 H489 0.950 . S
C468 H464 0.949 . S
C468 C476 1.574 . S
C468 C484 1.368 . S
H469 C477 0.950 . S
H470 C475 0.950 . S
H471 C476 0.949 . S
H472 C478 0.950 . S
H473 C479 0.950 . S
H474 C480 0.949 . S
C475 H470 0.950 . S
C475 C477 1.327 . S
C475 C481 1.429 . S
C476 C468 1.574 . S
C476 H471 0.949 . S
C476 C482 1.368 . S
C477 C461 1.349 . S
C477 H469 0.950 . S
C477 C475 1.327 . S
C478 C466 1.349 . S
C478 H472 0.950 . S
C478 C479 1.327 . S
C479 H473 0.950 . S
C479 C478 1.327 . S
C479 C483 1.429 1_554 S
C480 C463 1.574 . S
C480 H474 0.949 . S
C480 C484 1.368 . S
C481 C462 1.429 . S
C481 C475 1.429 . S
C481 C482 1.523 . S
C482 C463 1.368 . S
C482 C476 1.368 . S
C482 C481 1.523 . S
C483 C467 1.429 . S
C483 C479 1.429 1_556 S
C483 C484 1.523 . S
C484 C468 1.368 . S
C484 C480 1.368 . S
C484 C483 1.523 . S
H485 C460 0.950 . S
H486 C462 0.950 . S
H487 C463 0.949 . S
H488 C465 0.950 . S
H489 C467 0.950 . S
C490 C491 1.349 . S
C490 C492 1.327 . S
C490 H515 0.950 . S
C491 C490 1.349 . S
C491 C507 1.349 . S
C492 C490 1.327 . S
C492 C511 1.429 . S
C492 H516 0.950 . S
C493 C510 1.574 . S
C493 C512 1.368 . S
C493 H517 0.949 . S
H494 C498 0.949 . S
C495 C496 1.349 . S
C495 C497 1.327 . S
C495 H518 0.950 . S
C496 C495 1.349 . S
C496 C508 1.349 . S
C497 C495 1.327 . S
C497 C513 1.429 . S
C497 H519 0.950 . S
C498 H494 0.949 . S
C498 C506 1.574 . S
C498 C514 1.368 . S
H499 C507 0.950 . S
H500 C505 0.950 . S
H501 C506 0.949 . S
H502 C508 0.950 . S
H503 C509 0.950 . S
H504 C510 0.949 . S
C505 H500 0.950 . S
C505 C507 1.327 . S
C505 C511 1.429 . S
C506 C498 1.574 . S
C506 H501 0.949 . S
C506 C512 1.368 . S
C507 C491 1.349 . S
C507 H499 0.950 . S
C507 C505 1.327 . S
C508 C496 1.349 . S
C508 H502 0.950 . S
C508 C509 1.327 . S
C509 H503 0.950 . S
C509 C508 1.327 . S
C509 C513 1.429 . S
C510 C493 1.574 . S
C510 H504 0.949 . S
C510 C514 1.368 . S
C511 C492 1.429 . S
C511 C505 1.429 . S
C511 C512 1.523 . S
C512 C493 1.368 . S
C512 C506 1.368 . S
C512 C511 1.523 . S
C513 C497 1.429 . S
C513 C509 1.429 . S
C513 C514 1.523 . S
C514 C498 1.368 . S
C514 C510 1.368 . S
C514 C513 1.523 . S
H515 C490 0.950 . S
H516 C492 0.950 . S
H517 C493 0.949 . S
H518 C495 0.950 . S
H519 C497 0.950 . S
C161 C82 0.745 1_545 S
C166 C2 0.777 . S
C191 C122 0.790 1_655 S
C196 C63 0.790 . S
C221 C103 0.811 . S
C226 C23 0.814 . S
C251 C42 0.708 . S
C256 C143 0.708 . S
C281 C71 0.457 . S
C286 C25 0.488 . S
C311 C60 0.741 . S
C316 C105 0.742 . S
C341 C145 0.311 . S
C346 C84 0.356 . S
C371 C124 0.449 . S
C376 C4 0.559 . S
C401 C111 3.300 1_556 S
C406 C140 3.219 . S
C431 C31 3.667 . S
C436 C151 3.656 . S
C461 C44 2.582 . S
C466 C20 2.619 . S
C491 C100 2.278 . S
C496 C65 2.264 . S
