# Generated by pormake.
# Topology wio, (6)-cn, num edge types: 1
# Building blocks:
#     Node 0, Type 0, BuildingBlock: JUFBIX_clean_sbu_0, # of connection points: 6
#     Node 1, Type 0, BuildingBlock: JUFBIX_clean_sbu_0, # of connection points: 6
#     Node 2, Type 0, BuildingBlock: JUFBIX_clean_sbu_0, # of connection points: 6
#     Node 3, Type 0, BuildingBlock: JUFBIX_clean_sbu_0, # of connection points: 6
#     Node 4, Type 0, BuildingBlock: JUFBIX_clean_sbu_0, # of connection points: 6
#     Node 5, Type 0, BuildingBlock: JUFBIX_clean_sbu_0, # of connection points: 6
#     Node 6, Type 0, BuildingBlock: JUFBIX_clean_sbu_0, # of connection points: 6
#     Node 7, Type 0, BuildingBlock: JUFBIX_clean_sbu_0, # of connection points: 6
#     Node 8, Type 0, BuildingBlock: JUFBIX_clean_sbu_0, # of connection points: 6
#     Node 9, Type 0, BuildingBlock: JUFBIX_clean_sbu_0, # of connection points: 6
#     Node 10, Type 0, BuildingBlock: JUFBIX_clean_sbu_0, # of connection points: 6
#     Node 11, Type 0, BuildingBlock: JUFBIX_clean_sbu_0, # of connection points: 6
#     Node 12, Type 0, BuildingBlock: JUFBIX_clean_sbu_0, # of connection points: 6
#     Node 13, Type 0, BuildingBlock: JUFBIX_clean_sbu_0, # of connection points: 6
#     Node 14, Type 0, BuildingBlock: JUFBIX_clean_sbu_0, # of connection points: 6
#     Node 15, Type 0, BuildingBlock: JUFBIX_clean_sbu_0, # of connection points: 6
#     Node 16, Type 0, BuildingBlock: JUFBIX_clean_sbu_0, # of connection points: 6
#     Node 17, Type 0, BuildingBlock: JUFBIX_clean_sbu_0, # of connection points: 6
#     Node 18, Type 0, BuildingBlock: JUFBIX_clean_sbu_0, # of connection points: 6
#     Node 19, Type 0, BuildingBlock: JUFBIX_clean_sbu_0, # of connection points: 6
#     Node 20, Type 0, BuildingBlock: JUFBIX_clean_sbu_0, # of connection points: 6
#     Node 21, Type 0, BuildingBlock: JUFBIX_clean_sbu_0, # of connection points: 6
#     Node 22, Type 0, BuildingBlock: JUFBIX_clean_sbu_0, # of connection points: 6
#     Node 23, Type 0, BuildingBlock: JUFBIX_clean_sbu_0, # of connection points: 6
#     Node 24, Type 0, BuildingBlock: JUFBIX_clean_sbu_0, # of connection points: 6
#     Node 25, Type 0, BuildingBlock: JUFBIX_clean_sbu_0, # of connection points: 6
#     Node 26, Type 0, BuildingBlock: JUFBIX_clean_sbu_0, # of connection points: 6
#     Node 27, Type 0, BuildingBlock: JUFBIX_clean_sbu_0, # of connection points: 6
#     Node 28, Type 0, BuildingBlock: JUFBIX_clean_sbu_0, # of connection points: 6
#     Node 29, Type 0, BuildingBlock: JUFBIX_clean_sbu_0, # of connection points: 6
#     Node 30, Type 0, BuildingBlock: JUFBIX_clean_sbu_0, # of connection points: 6
#     Node 31, Type 0, BuildingBlock: JUFBIX_clean_sbu_0, # of connection points: 6
#     Edge 32, Type (0, 0), BuildingBlock: AJUNOK_clean_linker_0, # of connection points: 2
#     Edge 33, Type (0, 0), BuildingBlock: AJUNOK_clean_linker_0, # of connection points: 2
#     Edge 34, Type (0, 0), BuildingBlock: AJUNOK_clean_linker_0, # of connection points: 2
#     Edge 35, Type (0, 0), BuildingBlock: AJUNOK_clean_linker_0, # of connection points: 2
#     Edge 36, Type (0, 0), BuildingBlock: AJUNOK_clean_linker_0, # of connection points: 2
#     Edge 37, Type (0, 0), BuildingBlock: AJUNOK_clean_linker_0, # of connection points: 2
#     Edge 38, Type (0, 0), BuildingBlock: AJUNOK_clean_linker_0, # of connection points: 2
#     Edge 39, Type (0, 0), BuildingBlock: AJUNOK_clean_linker_0, # of connection points: 2
#     Edge 40, Type (0, 0), BuildingBlock: AJUNOK_clean_linker_0, # of connection points: 2
#     Edge 41, Type (0, 0), BuildingBlock: AJUNOK_clean_linker_0, # of connection points: 2
#     Edge 42, Type (0, 0), BuildingBlock: AJUNOK_clean_linker_0, # of connection points: 2
#     Edge 43, Type (0, 0), BuildingBlock: AJUNOK_clean_linker_0, # of connection points: 2
#     Edge 44, Type (0, 0), BuildingBlock: AJUNOK_clean_linker_0, # of connection points: 2
#     Edge 45, Type (0, 0), BuildingBlock: AJUNOK_clean_linker_0, # of connection points: 2
#     Edge 46, Type (0, 0), BuildingBlock: AJUNOK_clean_linker_0, # of connection points: 2
#     Edge 47, Type (0, 0), BuildingBlock: AJUNOK_clean_linker_0, # of connection points: 2
#     Edge 48, Type (0, 0), BuildingBlock: AJUNOK_clean_linker_0, # of connection points: 2
#     Edge 49, Type (0, 0), BuildingBlock: AJUNOK_clean_linker_0, # of connection points: 2
#     Edge 50, Type (0, 0), BuildingBlock: AJUNOK_clean_linker_0, # of connection points: 2
#     Edge 51, Type (0, 0), BuildingBlock: AJUNOK_clean_linker_0, # of connection points: 2
#     Edge 52, Type (0, 0), BuildingBlock: AJUNOK_clean_linker_0, # of connection points: 2
#     Edge 53, Type (0, 0), BuildingBlock: AJUNOK_clean_linker_0, # of connection points: 2
#     Edge 54, Type (0, 0), BuildingBlock: AJUNOK_clean_linker_0, # of connection points: 2
#     Edge 55, Type (0, 0), BuildingBlock: AJUNOK_clean_linker_0, # of connection points: 2
#     Edge 56, Type (0, 0), BuildingBlock: AJUNOK_clean_linker_0, # of connection points: 2
#     Edge 57, Type (0, 0), BuildingBlock: AJUNOK_clean_linker_0, # of connection points: 2
#     Edge 58, Type (0, 0), BuildingBlock: AJUNOK_clean_linker_0, # of connection points: 2
#     Edge 59, Type (0, 0), BuildingBlock: AJUNOK_clean_linker_0, # of connection points: 2
#     Edge 60, Type (0, 0), BuildingBlock: AJUNOK_clean_linker_0, # of connection points: 2
#     Edge 61, Type (0, 0), BuildingBlock: AJUNOK_clean_linker_0, # of connection points: 2
#     Edge 62, Type (0, 0), BuildingBlock: AJUNOK_clean_linker_0, # of connection points: 2
#     Edge 63, Type (0, 0), BuildingBlock: AJUNOK_clean_linker_0, # of connection points: 2
#     Edge 64, Type (0, 0), BuildingBlock: AJUNOK_clean_linker_0, # of connection points: 2
#     Edge 65, Type (0, 0), BuildingBlock: AJUNOK_clean_linker_0, # of connection points: 2
#     Edge 66, Type (0, 0), BuildingBlock: AJUNOK_clean_linker_0, # of connection points: 2
#     Edge 67, Type (0, 0), BuildingBlock: AJUNOK_clean_linker_0, # of connection points: 2
#     Edge 68, Type (0, 0), BuildingBlock: AJUNOK_clean_linker_0, # of connection points: 2
#     Edge 69, Type (0, 0), BuildingBlock: AJUNOK_clean_linker_0, # of connection points: 2
#     Edge 70, Type (0, 0), BuildingBlock: AJUNOK_clean_linker_0, # of connection points: 2
#     Edge 71, Type (0, 0), BuildingBlock: AJUNOK_clean_linker_0, # of connection points: 2
#     Edge 72, Type (0, 0), BuildingBlock: AJUNOK_clean_linker_0, # of connection points: 2
#     Edge 73, Type (0, 0), BuildingBlock: AJUNOK_clean_linker_0, # of connection points: 2
#     Edge 74, Type (0, 0), BuildingBlock: AJUNOK_clean_linker_0, # of connection points: 2
#     Edge 75, Type (0, 0), BuildingBlock: AJUNOK_clean_linker_0, # of connection points: 2
#     Edge 76, Type (0, 0), BuildingBlock: AJUNOK_clean_linker_0, # of connection points: 2
#     Edge 77, Type (0, 0), BuildingBlock: AJUNOK_clean_linker_0, # of connection points: 2
#     Edge 78, Type (0, 0), BuildingBlock: AJUNOK_clean_linker_0, # of connection points: 2
#     Edge 79, Type (0, 0), BuildingBlock: AJUNOK_clean_linker_0, # of connection points: 2
#     Edge 80, Type (0, 0), BuildingBlock: AJUNOK_clean_linker_0, # of connection points: 2
#     Edge 81, Type (0, 0), BuildingBlock: AJUNOK_clean_linker_0, # of connection points: 2
#     Edge 82, Type (0, 0), BuildingBlock: AJUNOK_clean_linker_0, # of connection points: 2
#     Edge 83, Type (0, 0), BuildingBlock: AJUNOK_clean_linker_0, # of connection points: 2
#     Edge 84, Type (0, 0), BuildingBlock: AJUNOK_clean_linker_0, # of connection points: 2
#     Edge 85, Type (0, 0), BuildingBlock: AJUNOK_clean_linker_0, # of connection points: 2
#     Edge 86, Type (0, 0), BuildingBlock: AJUNOK_clean_linker_0, # of connection points: 2
#     Edge 87, Type (0, 0), BuildingBlock: AJUNOK_clean_linker_0, # of connection points: 2
#     Edge 88, Type (0, 0), BuildingBlock: AJUNOK_clean_linker_0, # of connection points: 2
#     Edge 89, Type (0, 0), BuildingBlock: AJUNOK_clean_linker_0, # of connection points: 2
#     Edge 90, Type (0, 0), BuildingBlock: AJUNOK_clean_linker_0, # of connection points: 2
#     Edge 91, Type (0, 0), BuildingBlock: AJUNOK_clean_linker_0, # of connection points: 2
#     Edge 92, Type (0, 0), BuildingBlock: AJUNOK_clean_linker_0, # of connection points: 2
#     Edge 93, Type (0, 0), BuildingBlock: AJUNOK_clean_linker_0, # of connection points: 2
#     Edge 94, Type (0, 0), BuildingBlock: AJUNOK_clean_linker_0, # of connection points: 2
#     Edge 95, Type (0, 0), BuildingBlock: AJUNOK_clean_linker_0, # of connection points: 2
#     Edge 96, Type (0, 0), BuildingBlock: AJUNOK_clean_linker_0, # of connection points: 2
#     Edge 97, Type (0, 0), BuildingBlock: AJUNOK_clean_linker_0, # of connection points: 2
#     Edge 98, Type (0, 0), BuildingBlock: AJUNOK_clean_linker_0, # of connection points: 2
#     Edge 99, Type (0, 0), BuildingBlock: AJUNOK_clean_linker_0, # of connection points: 2
#     Edge 100, Type (0, 0), BuildingBlock: AJUNOK_clean_linker_0, # of connection points: 2
#     Edge 101, Type (0, 0), BuildingBlock: AJUNOK_clean_linker_0, # of connection points: 2
#     Edge 102, Type (0, 0), BuildingBlock: AJUNOK_clean_linker_0, # of connection points: 2
#     Edge 103, Type (0, 0), BuildingBlock: AJUNOK_clean_linker_0, # of connection points: 2
#     Edge 104, Type (0, 0), BuildingBlock: AJUNOK_clean_linker_0, # of connection points: 2
#     Edge 105, Type (0, 0), BuildingBlock: AJUNOK_clean_linker_0, # of connection points: 2
#     Edge 106, Type (0, 0), BuildingBlock: AJUNOK_clean_linker_0, # of connection points: 2
#     Edge 107, Type (0, 0), BuildingBlock: AJUNOK_clean_linker_0, # of connection points: 2
#     Edge 108, Type (0, 0), BuildingBlock: AJUNOK_clean_linker_0, # of connection points: 2
#     Edge 109, Type (0, 0), BuildingBlock: AJUNOK_clean_linker_0, # of connection points: 2
#     Edge 110, Type (0, 0), BuildingBlock: AJUNOK_clean_linker_0, # of connection points: 2
#     Edge 111, Type (0, 0), BuildingBlock: AJUNOK_clean_linker_0, # of connection points: 2
#     Edge 112, Type (0, 0), BuildingBlock: AJUNOK_clean_linker_0, # of connection points: 2
#     Edge 113, Type (0, 0), BuildingBlock: AJUNOK_clean_linker_0, # of connection points: 2
#     Edge 114, Type (0, 0), BuildingBlock: AJUNOK_clean_linker_0, # of connection points: 2
#     Edge 115, Type (0, 0), BuildingBlock: AJUNOK_clean_linker_0, # of connection points: 2
#     Edge 116, Type (0, 0), BuildingBlock: AJUNOK_clean_linker_0, # of connection points: 2
#     Edge 117, Type (0, 0), BuildingBlock: AJUNOK_clean_linker_0, # of connection points: 2
#     Edge 118, Type (0, 0), BuildingBlock: AJUNOK_clean_linker_0, # of connection points: 2
#     Edge 119, Type (0, 0), BuildingBlock: AJUNOK_clean_linker_0, # of connection points: 2
#     Edge 120, Type (0, 0), BuildingBlock: AJUNOK_clean_linker_0, # of connection points: 2
#     Edge 121, Type (0, 0), BuildingBlock: AJUNOK_clean_linker_0, # of connection points: 2
#     Edge 122, Type (0, 0), BuildingBlock: AJUNOK_clean_linker_0, # of connection points: 2
#     Edge 123, Type (0, 0), BuildingBlock: AJUNOK_clean_linker_0, # of connection points: 2
#     Edge 124, Type (0, 0), BuildingBlock: AJUNOK_clean_linker_0, # of connection points: 2
#     Edge 125, Type (0, 0), BuildingBlock: AJUNOK_clean_linker_0, # of connection points: 2
#     Edge 126, Type (0, 0), BuildingBlock: AJUNOK_clean_linker_0, # of connection points: 2
#     Edge 127, Type (0, 0), BuildingBlock: AJUNOK_clean_linker_0, # of connection points: 2
# Relax obj value: 0.535
# Max RMSD: 0.267
# Mean RMSD: 0.257
data_MOF--net-wio--node1-JUFBIX_clean_sbu_0--edge1-AJUNOK_clean_linker_0
_symmetry_space_group_name_H-M    P1
_symmetry_Int_Tables_number       1
_symmetry_cell_setting            triclinic
loop_
_symmetry_equiv_pos_as_xyz
'x, y, z'
_cell_length_a     41.786728
_cell_length_b     39.322093
_cell_length_c     34.672216
_cell_angle_alpha  86.483752
_cell_angle_beta   87.868616
_cell_angle_gamma 89.973677
loop_
_atom_site_label
_atom_site_type_symbol
_atom_site_fract_x
_atom_site_fract_y
_atom_site_fract_z
_atom_type_partial_charge
Co0 Co 0.17965 0.10983 0.3103 0.0
C1 C 0.15988 0.17102 0.34347 0.0
Co2 Co 0.12801 0.11832 0.3141 0.0
C3 C 0.23793 0.09366 0.27034 0.0
C4 C 0.24808 0.11316 0.32485 0.0
N5 N 0.22369 0.10499 0.30278 0.0
N6 N 0.27016 0.09452 0.27095 0.0
C7 C 0.2767 0.10705 0.30516 0.0
H8 H 0.2248 0.08669 0.24567 0.0
H9 H 0.24523 0.12393 0.35274 0.0
C10 C 0.1462 0.05841 0.28324 0.0
N11 N 0.08418 0.12059 0.31625 0.0
C12 C 0.06435 0.11398 0.34716 0.0
C13 C 0.06585 0.11767 0.28534 0.0
N14 N 0.03478 0.10532 0.33675 0.0
C15 C 0.03556 0.10828 0.29785 0.0
C16 C 0.15216 0.14323 0.24335 0.0
O17 O 0.17427 0.06647 0.29151 0.0
O18 O 0.12339 0.07861 0.2887 0.0
O19 O 0.12782 0.14406 0.26601 0.0
O20 O 0.17774 0.13015 0.25664 0.0
O21 O 0.1321 0.15865 0.33994 0.0
H22 H 0.07461 0.11865 0.25555 0.0
H23 H 0.07208 0.11401 0.37652 0.0
O24 O 0.18435 0.15461 0.33118 0.0
O25 O 0.18054 0.08753 0.36247 0.0
O26 O 0.12821 0.09084 0.36272 0.0
C27 C 0.15339 0.07932 0.37864 0.0
H28 H 0.30044 0.11244 0.31471 0.0
H29 H 0.01634 0.1017 0.27959 0.0
Co30 Co 0.15705 0.92624 0.56972 0.0
C31 C 0.18999 0.89091 0.51616 0.0
Co32 Co 0.1262 0.90119 0.53052 0.0
C33 C 0.18524 0.93745 0.64125 0.0
C34 C 0.20777 0.96811 0.59482 0.0
N35 N 0.18321 0.94641 0.60328 0.0
N36 N 0.21071 0.95155 0.65665 0.0
C37 C 0.22489 0.97112 0.6276 0.0
H38 H 0.17043 0.91806 0.6565 0.0
H39 H 0.21446 0.97859 0.56608 0.0
C40 C 0.09392 0.93425 0.58745 0.0
N41 N 0.09928 0.88084 0.49892 0.0
C42 C 0.10319 0.84989 0.48517 0.0
C43 C 0.07291 0.89379 0.48246 0.0
N44 N 0.08116 0.84327 0.45929 0.0
C45 C 0.06183 0.87083 0.45783 0.0
C46 C 0.14046 0.85764 0.59459 0.0
O47 O 0.12169 0.94206 0.59712 0.0
O48 O 0.09042 0.91759 0.55781 0.0
O49 O 0.12485 0.86046 0.56391 0.0
O50 O 0.15654 0.88343 0.60338 0.0
O51 O 0.16277 0.88413 0.50345 0.0
H52 H 0.06369 0.91914 0.48616 0.0
H53 H 0.12345 0.83363 0.49172 0.0
O54 O 0.1923 0.9101 0.54384 0.0
O55 O 0.15789 0.96803 0.53449 0.0
O56 O 0.12738 0.94158 0.4962 0.0
C57 C 0.14309 0.96819 0.50281 0.0
H58 H 0.24769 0.98396 0.62906 0.0
H59 H 0.04329 0.87584 0.43726 0.0
Co60 Co 0.3595 0.86327 0.82388 0.0
C61 C 0.38187 0.80004 0.85341 0.0
Co62 Co 0.41169 0.86143 0.82431 0.0
C63 C 0.30512 0.88546 0.78647 0.0
C64 C 0.28929 0.8535 0.83534 0.0
N65 N 0.31589 0.86684 0.81709 0.0
N66 N 0.27317 0.88458 0.78414 0.0
C67 C 0.26279 0.86441 0.81499 0.0
H68 H 0.32079 0.89928 0.76555 0.0
H69 H 0.28919 0.83644 0.86103 0.0
C70 C 0.3913 0.92324 0.79714 0.0
N71 N 0.45531 0.86046 0.82777 0.0
C72 C 0.47174 0.86213 0.86019 0.0
C73 C 0.47701 0.86736 0.79847 0.0
N74 N 0.50246 0.87085 0.85233 0.0
C75 C 0.50609 0.87395 0.81359 0.0
C76 C 0.39095 0.84445 0.75333 0.0
O77 O 0.3641 0.91028 0.80595 0.0
O78 O 0.41604 0.9054 0.80163 0.0
O79 O 0.41581 0.84446 0.77334 0.0
O80 O 0.36419 0.84997 0.77049 0.0
O81 O 0.4082 0.81619 0.84762 0.0
H82 H 0.47149 0.87067 0.76826 0.0
H83 H 0.46084 0.86028 0.88904 0.0
O84 O 0.35601 0.81526 0.84359 0.0
O85 O 0.35457 0.87868 0.87527 0.0
O86 O 0.40685 0.88096 0.87497 0.0
C87 C 0.3799 0.88779 0.89122 0.0
H88 H 0.23818 0.857 0.82167 0.0
H89 H 0.52762 0.88253 0.79756 0.0
Co90 Co 0.37065 0.07958 0.05603 0.0
C91 C 0.42328 0.1112 0.08649 0.0
Co92 Co 0.36589 0.13537 0.06451 0.0
C93 C 0.3706 0.01734 1.01271 0.0
C94 C 0.39047 1.00841 0.06836 0.0
N95 N 0.37664 0.0329 0.04575 0.0
N96 N 0.38022 0.98425 1.01378 0.0
C97 C 0.39282 0.97879 0.04888 0.0
H98 H 0.36045 0.0305 0.9877 0.0
H99 H 0.39902 0.01205 0.09688 0.0
C100 C 0.31344 0.10623 0.03434 0.0
N101 N 0.35884 0.18159 0.07203 0.0
C102 C 0.36233 0.19949 0.10378 0.0
C103 C 0.34575 0.20393 0.04605 0.0
N104 N 0.3518 0.232 0.09851 0.0
C105 C 0.34135 0.23473 0.06219 0.0
C106 C 0.39132 0.1227 0.99288 0.0
O107 O 0.32945 0.07874 0.03427 0.0
O108 O 0.32543 0.13266 0.04687 0.0
O109 O 0.3819 0.14639 1.01382 0.0
O110 O 0.38918 0.09195 1.00636 0.0
O111 O 0.40639 0.13781 0.08202 0.0
H112 H 0.33918 0.19798 1.01733 0.0
H113 H 0.3715 0.18855 0.13056 0.0
O114 O 0.41232 0.08224 0.07831 0.0
O115 O 0.35128 0.06852 0.10707 0.0
O116 O 0.35004 0.12371 0.11498 0.0
C117 C 0.34468 0.09331 0.12829 0.0
H118 H 0.40322 0.95502 0.05972 0.0
H119 H 0.33143 0.25752 0.04818 0.0
Co120 Co 0.14777 0.89402 0.16325 0.0
C121 C 0.12334 0.93043 0.22361 0.0
Co122 Co 0.13016 0.86391 0.21553 0.0
C123 C 0.14639 0.94119 0.09453 0.0
C124 C 0.19394 0.92588 0.10791 0.0
N125 N 0.16318 0.92196 0.12051 0.0
N126 N 0.16535 0.95677 0.06613 0.0
C127 C 0.19539 0.94737 0.07496 0.0
H128 H 0.12061 0.94363 0.09629 0.0
H129 H 0.2142 0.91394 0.12173 0.0
C130 C 0.15586 0.82677 0.15626 0.0
N131 N 0.11404 0.83405 0.25413 0.0
C132 C 0.11739 0.83352 0.29246 0.0
C133 C 0.0958 0.80647 0.24854 0.0
N134 N 0.10182 0.80688 0.31091 0.0
C135 C 0.08804 0.78981 0.28355 0.0
C136 C 0.08168 0.87861 0.16135 0.0
O137 O 0.16069 0.85489 0.13712 0.0
O138 O 0.14264 0.82632 0.18953 0.0
O139 O 0.08857 0.864 0.19358 0.0
O140 O 0.10469 0.89242 0.14062 0.0
O141 O 0.11838 0.90185 0.24192 0.0
H142 H 0.08828 0.79915 0.2207 0.0
H143 H 0.12996 0.853 0.30672 0.0
O144 O 0.13496 0.93213 0.18914 0.0
O145 O 0.19043 0.89609 0.18918 0.0
O146 O 0.17129 0.8649 0.23915 0.0
C147 C 0.1945 0.88232 0.22333 0.0
H148 H 0.21714 0.95616 0.05966 0.0
H149 H 0.07299 0.76746 0.28865 0.0
Co150 Co 0.36623 0.90297 0.41072 0.0
C151 C 0.31877 0.88231 0.46527 0.0
Co152 Co 0.3838 0.88537 0.47003 0.0
C153 C 0.3202 0.89735 0.34758 0.0
C154 C 0.35061 0.94055 0.33559 0.0
N155 N 0.34583 0.91398 0.36159 0.0
N156 N 0.30857 0.91254 0.31435 0.0
C157 C 0.32823 0.93966 0.30695 0.0
H158 H 0.31023 0.87436 0.36193 0.0
H159 H 0.36864 0.95998 0.33778 0.0
C160 C 0.43366 0.90374 0.41295 0.0
N161 N 0.39947 0.87096 0.51966 0.0
C162 C 0.38663 0.87264 0.55632 0.0
C163 C 0.42708 0.85378 0.52471 0.0
N164 N 0.4053 0.85725 0.58376 0.0
C165 C 0.43074 0.84558 0.56349 0.0
C166 C 0.37703 0.83313 0.42214 0.0
O167 O 0.41035 0.91013 0.39029 0.0
O168 O 0.42709 0.89439 0.44849 0.0
O169 O 0.38633 0.84048 0.45505 0.0
O170 O 0.36859 0.85686 0.39797 0.0
O171 O 0.34115 0.87646 0.48865 0.0
H172 H 0.44339 0.84699 0.50148 0.0
H173 H 0.36412 0.8851 0.56268 0.0
O174 O 0.32541 0.89484 0.4315 0.0
O175 O 0.36328 0.94999 0.42749 0.0
O176 O 0.37978 0.93052 0.48469 0.0
C177 C 0.36941 0.95499 0.46282 0.0
H178 H 0.32606 0.95849 0.28309 0.0
H179 H 0.4505 0.83136 0.57575 0.0
Co180 Co 0.38851 0.10703 0.66995 0.0
C181 C 0.40389 0.06014 0.73111 0.0
Co182 Co 0.40446 0.12874 0.72389 0.0
C183 C 0.36337 0.07817 0.5939 0.0
C184 C 0.40688 0.05947 0.61728 0.0
N185 N 0.38304 0.08204 0.6241 0.0
N186 N 0.37522 0.05507 0.56906 0.0
C187 C 0.4024 0.0436 0.58423 0.0
H188 H 0.34105 0.09174 0.59023 0.0
H189 H 0.42673 0.05395 0.63574 0.0
C190 C 0.38791 0.17671 0.66383 0.0
N191 N 0.41411 0.14934 0.76828 0.0
C192 C 0.40657 0.13649 0.80428 0.0
C193 C 0.43151 0.17758 0.77309 0.0
N194 N 0.41907 0.15489 0.83144 0.0
C195 C 0.43441 0.18121 0.81219 0.0
C196 C 0.45738 0.12015 0.67469 0.0
O197 O 0.3816 0.15114 0.64419 0.0
O198 O 0.3981 0.17166 0.69787 0.0
O199 O 0.44959 0.12976 0.70808 0.0
O200 O 0.43477 0.11078 0.65398 0.0
O201 O 0.41017 0.08583 0.7496 0.0
H202 H 0.44202 0.19393 0.74976 0.0
H203 H 0.39233 0.11374 0.81053 0.0
O204 O 0.39517 0.0642 0.69663 0.0
O205 O 0.34201 0.10446 0.68915 0.0
O206 O 0.35971 0.1272 0.74058 0.0
C207 C 0.33619 0.11515 0.72329 0.0
H208 H 0.41755 0.02399 0.57268 0.0
H209 H 0.44746 0.20096 0.82538 0.0
Co210 Co 0.1494 0.12536 0.90712 0.0
C211 C 0.195 0.13309 0.96052 0.0
Co212 Co 0.12932 0.14004 0.96575 0.0
C213 C 0.20008 0.12401 0.84356 0.0
C214 C 0.15966 0.09454 0.83008 0.0
N215 N 0.16973 0.11494 0.85709 0.0
N216 N 0.20953 0.10978 0.80987 0.0
C217 C 0.18358 0.09153 0.80144 0.0
H218 H 0.21517 0.14076 0.85854 0.0
H219 H 0.13675 0.08165 0.83165 0.0
C220 C 0.08064 0.13161 0.91378 0.0
N221 N 0.11597 0.1507 1.0169 0.0
C222 C 0.13252 0.14535 0.04991 0.0
C223 C 0.08891 0.16618 0.0287 0.0
N224 N 0.1174 0.15752 0.08157 0.0
C225 C 0.08957 0.17011 0.06802 0.0
C226 C 0.14309 0.19595 0.91599 0.0
O227 O 0.1042 0.12491 0.8901 0.0
O228 O 0.08667 0.13847 0.94836 0.0
O229 O 0.13216 0.18652 0.9497 0.0
O230 O 0.15182 0.17351 0.89252 0.0
O231 O 0.17114 0.14102 0.9814 0.0
H232 H 0.06984 0.17418 1.00996 0.0
H233 H 0.15556 0.1329 0.05072 0.0
O234 O 0.19106 0.12593 0.92599 0.0
O235 O 0.14682 0.07727 0.92525 0.0
O236 O 0.12714 0.09389 0.98097 0.0
C237 C 0.13671 0.07009 0.96024 0.0
H238 H 0.18225 0.07585 0.77696 0.0
H239 H 0.07035 0.18079 0.08512 0.0
Co240 Co 0.89382 0.90607 0.71604 0.0
C241 C 0.87545 0.96439 0.74887 0.0
Co242 Co 0.84186 0.9133 0.72126 0.0
C243 C 0.95769 0.90469 0.68277 0.0
C244 C 0.95601 0.9057 0.74445 0.0
N245 N 0.93742 0.90268 0.71378 0.0
N246 N 0.9881 0.90948 0.69291 0.0
C247 C 0.9871 0.91011 0.73169 0.0
H248 H 0.95005 0.90471 0.65329 0.0
H249 H 0.94725 0.90778 0.77395 0.0
C250 C 0.86122 0.85294 0.68731 0.0
N251 N 0.79743 0.91976 0.72796 0.0
C252 C 0.77908 0.90971 0.75959 0.0
C253 C 0.77991 0.94436 0.70973 0.0
N254 N 0.75173 0.92779 0.76257 0.0
C255 C 0.7519 0.94936 0.73093 0.0
C256 C 0.86864 0.94436 0.65169 0.0
O257 O 0.88894 0.86556 0.69066 0.0
O258 O 0.83664 0.86905 0.69981 0.0
O259 O 0.84191 0.93609 0.66891 0.0
O260 O 0.89416 0.93313 0.66702 0.0
O261 O 0.84741 0.95581 0.74118 0.0
H262 H 0.78811 0.96015 0.68471 0.0
H263 H 0.78673 0.89171 0.7822 0.0
O264 O 0.89889 0.94565 0.74113 0.0
O265 O 0.89403 0.88083 0.76457 0.0
O266 O 0.84384 0.89245 0.77499 0.0
C267 C 0.87012 0.88084 0.78799 0.0
H268 H 1.00685 0.91621 0.74938 0.0
H269 H 0.73404 0.96867 0.7247 0.0
Co270 Co 0.90094 0.11902 0.49774 0.0
C271 C 0.92831 0.08294 0.43914 0.0
Co272 Co 0.86704 0.0975 0.45927 0.0
C273 C 0.93427 0.1358 0.56459 0.0
C274 C 0.95862 0.15379 0.51199 0.0
N275 N 0.9321 0.13687 0.52612 0.0
N276 N 0.96103 0.15134 0.57503 0.0
C277 C 0.97628 0.16324 0.54221 0.0
H278 H 0.91595 0.12498 0.58461 0.0
H279 H 0.96456 0.1592 0.48162 0.0
C280 C 0.83914 0.13442 0.51603 0.0
N281 N 0.83794 0.0805 0.42709 0.0
C282 C 0.84015 0.08582 0.38837 0.0
C283 C 0.80843 0.06756 0.43495 0.0
N284 N 0.81272 0.07849 0.37161 0.0
C285 C 0.79278 0.06632 0.40072 0.0
C286 C 0.88005 0.05352 0.52536 0.0
O287 O 0.86726 0.13836 0.52801 0.0
O288 O 0.83464 0.11701 0.48725 0.0
O289 O 0.86382 0.05601 0.49466 0.0
O290 O 0.89891 0.07793 0.53155 0.0
O291 O 0.89982 0.07804 0.42998 0.0
H292 H 0.79817 0.06217 0.46377 0.0
H293 H 0.86088 0.0972 0.37303 0.0
O294 O 0.93369 0.09994 0.46795 0.0
O295 O 0.90281 0.16033 0.46479 0.0
O296 O 0.86953 0.13982 0.42545 0.0
C297 C 0.88677 0.16458 0.43454 0.0
H298 H 0.99809 0.1782 0.5404 0.0
H299 H 0.76781 0.05996 0.39787 0.0
Co300 Co 0.61385 0.15805 0.20877 0.0
C301 C 0.63499 0.09539 0.23496 0.0
Co302 Co 0.66601 0.15483 0.20885 0.0
C303 C 0.55262 0.15776 0.17514 0.0
C304 C 0.54911 0.14949 0.23668 0.0
N305 N 0.56983 0.15879 0.2071 0.0
N306 N 0.52246 0.14697 0.18343 0.0
C307 C 0.51996 0.14212 0.22217 0.0
H308 H 0.56284 0.16138 0.1461 0.0
H309 H 0.55561 0.14457 0.26636 0.0
C310 C 0.64377 0.21949 0.1813 0.0
N311 N 0.70969 0.15144 0.21208 0.0
C312 C 0.72351 0.13265 0.24052 0.0
C313 C 0.73425 0.16401 0.18913 0.0
N314 N 0.75551 0.13245 0.23636 0.0
C315 C 0.76275 0.15252 0.20435 0.0
C316 C 0.64328 0.13196 0.14085 0.0
O317 O 0.61689 0.20417 0.18646 0.0
O318 O 0.66912 0.20291 0.19008 0.0
O319 O 0.66908 0.13983 0.15664 0.0
O320 O 0.61687 0.1396 0.1577 0.0
O321 O 0.66228 0.10815 0.22637 0.0
H322 H 0.73161 0.18031 0.16316 0.0
H323 H 0.71032 0.11971 0.26459 0.0
O324 O 0.61031 0.11343 0.23055 0.0
O325 O 0.61146 0.1739 0.26042 0.0
O326 O 0.6631 0.16725 0.26302 0.0
C327 C 0.63641 0.17289 0.28049 0.0
H328 H 0.4993 0.1316 0.2385 0.0
H329 H 0.7867 0.15834 0.1929 0.0
Co330 Co 0.6581 0.88136 0.97305 0.0
C331 C 0.70986 0.9114 1.00318 0.0
Co332 Co 0.65285 0.93755 0.97985 0.0
C333 C 0.66044 0.81622 0.93525 0.0
C334 C 0.67833 0.81288 0.9924 0.0
N335 N 0.66472 0.83479 0.96639 0.0
N336 N 0.67144 0.78393 0.94077 0.0
C337 C 0.68248 0.78178 0.97681 0.0
H338 H 0.65037 0.82644 0.90866 0.0
H339 H 0.68544 0.81934 0.02074 0.0
C340 C 0.60079 0.90561 0.95012 0.0
N341 N 0.64706 0.98465 0.98897 0.0
C342 C 0.65203 1.00092 0.02192 0.0
C343 C 0.6345 1.00891 0.9649 0.0
N344 N 0.64257 0.03407 0.01946 0.0
C345 C 0.63171 0.03901 0.98339 0.0
C346 C 0.67961 0.92185 0.90846 0.0
O347 O 0.61771 0.87905 0.95501 0.0
O348 O 0.61156 0.93471 0.95786 0.0
O349 O 0.67227 0.94734 0.92837 0.0
O350 O 0.67447 0.89188 0.92312 0.0
O351 O 0.69366 0.93875 1.00148 0.0
H352 H 0.62719 1.00481 0.93594 0.0
H353 H 0.6614 0.98835 0.04776 0.0
O354 O 0.69859 0.88427 0.99133 0.0
O355 O 0.64162 0.87139 0.02336 0.0
O356 O 0.63428 0.92605 0.02975 0.0
C357 C 0.63209 0.89541 0.04371 0.0
H358 H 0.69269 0.75922 0.99098 0.0
H359 H 0.6223 0.06277 0.97113 0.0
Co360 Co 0.89372 0.15666 0.82186 0.0
C361 C 0.87373 0.19912 0.87745 0.0
Co362 Co 0.87663 0.12955 0.87606 0.0
C363 C 0.93511 0.17181 0.75766 0.0
C364 C 0.89502 0.20567 0.75703 0.0
N365 N 0.90874 0.18016 0.77815 0.0
N366 N 0.93768 0.18957 0.72337 0.0
C367 C 0.91279 0.21145 0.72311 0.0
H368 H 0.95064 0.15103 0.76647 0.0
H369 H 0.87237 0.21738 0.76447 0.0
C370 C 0.89605 0.08827 0.81935 0.0
N371 N 0.8621 0.10578 0.92193 0.0
C372 C 0.87887 0.08374 0.94492 0.0
C373 C 0.83257 0.10601 0.93887 0.0
N374 N 0.86113 0.07014 0.9756 0.0
C375 C 0.8318 0.08405 0.9715 0.0
C376 C 0.82806 0.14013 0.81871 0.0
O377 O 0.90224 0.11596 0.80015 0.0
O378 O 0.88539 0.08829 0.85404 0.0
O379 O 0.83251 0.12829 0.85357 0.0
O380 O 0.85153 0.1555 0.80085 0.0
O381 O 0.86788 0.17203 0.89842 0.0
H382 H 0.81261 0.12061 0.92776 0.0
H383 H 0.90368 0.07747 0.93888 0.0
O384 O 0.88494 0.19733 0.84331 0.0
O385 O 0.93634 0.15684 0.84102 0.0
O386 O 0.9209 0.13 0.89533 0.0
C387 C 0.94371 0.14262 0.8733 0.0
H388 H 0.906 0.22781 0.6985 0.0
H389 H 0.81071 0.07778 0.98953 0.0
Co390 Co 0.64634 0.13322 0.56536 0.0
C391 C 0.59486 0.11698 0.62131 0.0
Co392 Co 0.66218 0.1165 0.62591 0.0
C393 C 0.64189 0.14328 0.4778 0.0
C394 C 0.60727 0.17023 0.51101 0.0
N395 N 0.6316 0.14794 0.51508 0.0
N396 N 0.62457 0.1616 0.45102 0.0
C397 C 0.60318 0.17877 0.4725 0.0
H398 H 0.66181 0.12699 0.47047 0.0
H399 H 0.59382 0.18059 0.53482 0.0
C400 C 0.71132 0.13463 0.57221 0.0
N401 N 0.68108 0.10599 0.67617 0.0
C402 C 0.7064 0.12231 0.69136 0.0
C403 C 0.67406 0.08069 0.70313 0.0
N404 N 0.71529 0.10847 0.72655 0.0
C405 C 0.6947 0.08208 0.73354 0.0
C406 C 0.65853 0.06343 0.57472 0.0
O407 O 0.6896 0.1405 0.54783 0.0
O408 O 0.70364 0.12336 0.60622 0.0
O409 O 0.66438 0.06907 0.61001 0.0
O410 O 0.64924 0.08774 0.55179 0.0
O411 O 0.61744 0.11063 0.64502 0.0
H412 H 0.65553 0.06185 0.70057 0.0
H413 H 0.71832 0.1441 0.6766 0.0
O414 O 0.6025 0.12584 0.5859 0.0
O415 O 0.64492 0.17837 0.57952 0.0
O416 O 0.66055 0.1628 0.63773 0.0
C417 C 0.65332 0.18621 0.61257 0.0
H418 H 0.58625 0.1974 0.46141 0.0
H419 H 0.69507 0.06397 0.75828 0.0
Co420 Co 0.62488 0.89103 0.31174 0.0
C421 C 0.64081 0.84363 0.37233 0.0
Co422 Co 0.6394 0.91323 0.36594 0.0
C423 C 0.62279 0.88157 0.23181 0.0
C424 C 0.59572 0.84274 0.2643 0.0
N425 N 0.61505 0.86974 0.2681 0.0
N426 N 0.60834 0.86389 0.20546 0.0
C427 C 0.59169 0.83894 0.22548 0.0
H428 H 0.63815 0.90341 0.22481 0.0
H429 H 0.58425 0.82779 0.28815 0.0
C430 C 0.62466 0.95934 0.30361 0.0
N431 N 0.6447 0.93859 0.41153 0.0
C432 C 0.6633 0.94137 0.44293 0.0
C433 C 0.62152 0.96215 0.41715 0.0
N434 N 0.6515 0.96495 0.46722 0.0
C435 C 0.62545 0.97777 0.4505 0.0
C436 C 0.69263 0.90459 0.31325 0.0
O437 O 0.61921 0.93335 0.2853 0.0
O438 O 0.63277 0.95583 0.3384 0.0
O439 O 0.68594 0.91566 0.34704 0.0
O440 O 0.66965 0.8923 0.2952 0.0
O441 O 0.64634 0.86922 0.39228 0.0
H442 H 0.60222 0.96808 0.39797 0.0
H443 H 0.68461 0.92637 0.44811 0.0
O444 O 0.6311 0.84862 0.33813 0.0
O445 O 0.57982 0.8903 0.32728 0.0
O446 O 0.59305 0.9098 0.38174 0.0
C447 C 0.57109 0.90028 0.36018 0.0
H448 H 0.5767 0.82036 0.21302 0.0
H449 H 0.61049 0.99779 0.4615 0.0
Co450 Co 0.89512 0.88027 0.06758 0.0
C451 C 0.94495 0.88754 0.11867 0.0
Co452 Co 0.87634 0.89517 0.12664 0.0
C453 C 0.89238 0.87984 0.98284 0.0
C454 C 0.92725 0.84477 1.00509 0.0
N455 N 0.90678 0.86907 1.01614 0.0
N456 N 0.90267 0.86291 0.95161 0.0
C457 C 0.9249 0.84105 0.9659 0.0
H458 H 0.87428 0.8995 0.98185 0.0
H459 H 0.94198 0.82965 0.02457 0.0
C460 C 0.82975 0.88909 0.07459 0.0
N461 N 0.85717 0.90608 0.17697 0.0
C462 C 0.82793 0.89577 0.19316 0.0
C463 C 0.86667 0.92969 0.20068 0.0
N464 N 0.81883 0.91188 0.2258 0.0
C465 C 0.84362 0.93331 0.23007 0.0
C466 C 0.88921 0.95039 0.07347 0.0
O467 O 0.85287 0.88049 0.05282 0.0
O468 O 0.83461 0.89556 0.10911 0.0
O469 O 0.87967 0.94312 0.10863 0.0
O470 O 0.89808 0.92655 0.05235 0.0
O471 O 0.92167 0.89461 0.14256 0.0
H472 H 0.88827 0.94474 0.19585 0.0
H473 H 0.81301 0.87733 0.18039 0.0
O474 O 0.93853 0.88073 0.08408 0.0
O475 O 0.89138 0.83362 0.08382 0.0
O476 O 0.87297 0.84729 0.14117 0.0
C477 C 0.88073 0.82449 0.11775 0.0
H478 H 0.9379 0.82261 0.94952 0.0
H479 H 0.84459 0.95201 0.25157 0.0
Co480 Co 0.68226 0.6052 0.81411 0.0
C481 C 0.66326 0.66559 0.84995 0.0
Co482 Co 0.63058 0.6119 0.82437 0.0
C483 C 0.73866 0.59212 0.77068 0.0
C484 C 0.75153 0.60444 0.82722 0.0
N485 N 0.72603 0.60058 0.80511 0.0
N486 N 0.77078 0.59076 0.76991 0.0
C487 C 0.77927 0.5987 0.80536 0.0
H488 H 0.72456 0.58828 0.74572 0.0
H489 H 0.75012 0.61205 0.85669 0.0
C490 C 0.64836 0.55316 0.79024 0.0
N491 N 0.58672 0.61355 0.82779 0.0
C492 C 0.56648 0.60849 0.85867 0.0
C493 C 0.56856 0.6096 0.79687 0.0
N494 N 0.53674 0.60068 0.848 0.0
C495 C 0.53804 0.6018 0.80916 0.0
C496 C 0.65168 0.63766 0.75022 0.0
O497 O 0.67683 0.56296 0.79311 0.0
O498 O 0.62546 0.571 0.80177 0.0
O499 O 0.62855 0.63549 0.77478 0.0
O500 O 0.67893 0.62757 0.76152 0.0
O501 O 0.6352 0.65353 0.84742 0.0
H502 H 0.57744 0.60864 0.76729 0.0
H503 H 0.57389 0.60901 0.88816 0.0
O504 O 0.68729 0.64901 0.83677 0.0
O505 O 0.68458 0.58109 0.86508 0.0
O506 O 0.63271 0.58703 0.87454 0.0
C507 C 0.65923 0.57481 0.88617 0.0
H508 H 0.80363 0.60213 0.81401 0.0
H509 H 0.51886 0.59505 0.79092 0.0
Co510 Co 0.66287 0.42678 0.08204 0.0
C511 C 0.69715 0.39003 0.03042 0.0
Co512 Co 0.63333 0.40214 0.04113 0.0
C513 C 0.68471 0.44055 0.15526 0.0
C514 C 0.7172 0.46125 0.11073 0.0
N515 N 0.68819 0.44661 0.11669 0.0
N516 N 0.71116 0.44869 0.17375 0.0
C517 C 0.73142 0.46254 0.14583 0.0
H518 H 0.66395 0.42792 0.16901 0.0
H519 H 0.72853 0.4673 0.08258 0.0
C520 C 0.5995 0.43876 0.09412 0.0
N521 N 0.60699 0.3805 1.00958 0.0
C522 C 0.6151 0.36912 0.97493 0.0
C523 C 0.5785 0.3656 0.01974 0.0
N524 N 0.5936 0.34665 0.96377 0.0
C525 C 0.57005 0.34485 0.99128 0.0
C526 C 0.64492 0.35917 0.10701 0.0
O527 O 0.62665 0.44339 0.10779 0.0
O528 O 0.59735 0.42194 0.06436 0.0
O529 O 0.62915 0.36263 0.07652 0.0
O530 O 0.66165 0.38441 0.11592 0.0
O531 O 0.67011 0.38242 0.01794 0.0
H532 H 0.56578 0.36784 0.04722 0.0
H533 H 0.637 0.37624 0.95882 0.0
O534 O 0.69892 0.41018 0.05729 0.0
O535 O 0.66454 0.46818 0.04665 0.0
O536 O 0.63765 0.4411 1.00466 0.0
C537 C 0.65235 0.46783 1.0133 0.0
H538 H 0.75601 0.46975 0.14986 0.0
H539 H 0.5492 0.32848 0.9916 0.0
Co540 Co 0.86207 0.36588 0.3265 0.0
C541 C 0.88617 0.30244 0.35495 0.0
Co542 Co 0.91423 0.36376 0.32417 0.0
C543 C 0.80339 0.38719 0.29684 0.0
C544 C 0.79436 0.35655 0.34917 0.0
N545 N 0.81816 0.36848 0.3246 0.0
N546 N 0.77156 0.38812 0.30312 0.0
C547 C 0.76537 0.36849 0.33573 0.0
H548 H 0.8158 0.40019 0.27221 0.0
H549 H 0.79789 0.34091 0.37542 0.0
C550 C 0.89166 0.42554 0.29762 0.0
N551 N 0.95813 0.36363 0.32473 0.0
C552 C 0.97545 0.36403 0.35659 0.0
C553 C 0.97873 0.37309 0.2951 0.0
N554 N 1.0056 0.37474 0.34837 0.0
C555 C 1.008 0.38018 0.30966 0.0
C556 C 0.89047 0.34687 0.25445 0.0
O557 O 0.86481 0.41267 0.30832 0.0
O558 O 0.91668 0.40784 0.30072 0.0
O559 O 0.91601 0.34622 0.27337 0.0
O560 O 0.86421 0.35322 0.27251 0.0
O561 O 0.9124 0.31858 0.34815 0.0
H562 H 0.97211 0.37784 0.26539 0.0
H563 H 0.96529 0.35991 0.38561 0.0
O564 O 0.86011 0.31769 0.3461 0.0
O565 O 0.85979 0.38105 0.3785 0.0
O566 O 0.91192 0.38362 0.37457 0.0
C567 C 0.88583 0.3901 0.39283 0.0
H568 H 0.74186 0.36375 0.34913 0.0
H569 H 0.0287 0.3907 0.29342 0.0
Co570 Co 0.87311 0.58211 0.55595 0.0
C571 C 0.92272 0.61566 0.58852 0.0
Co572 Co 0.86554 0.6382 0.56182 0.0
C573 C 0.87565 0.51919 0.51361 0.0
C574 C 0.8949 0.51176 0.5698 0.0
N575 N 0.88071 0.53547 0.54647 0.0
N576 N 0.88654 0.48657 0.51537 0.0
C577 C 0.89853 0.48195 0.5509 0.0
H578 H 0.86516 0.53142 0.48827 0.0
H579 H 0.90273 0.51606 0.59849 0.0
C580 C 0.81625 0.60658 0.52884 0.0
N581 N 0.85757 0.68441 0.56905 0.0
C582 C 0.86289 0.70272 0.60009 0.0
C583 C 0.84315 0.70649 0.54393 0.0
N584 N 0.85216 0.73518 0.59529 0.0
C585 C 0.83966 0.7375 0.56 0.0
C586 C 0.89465 0.62544 0.493 0.0
O587 O 0.83268 0.57953 0.53314 0.0
O588 O 0.82633 0.63455 0.53986 0.0
O589 O 0.8844 0.64929 0.51316 0.0
O590 O 0.89232 0.5947 0.50662 0.0
O591 O 0.90471 0.64131 0.58334 0.0
H592 H 0.83534 0.70031 0.51579 0.0
H593 H 0.87375 0.69219 0.62605 0.0
O594 O 0.91376 0.5863 0.57926 0.0
O595 O 0.85311 0.5711 0.60646 0.0
O596 O 0.84664 0.62651 0.61019 0.0
C597 C 0.84294 0.59636 0.625 0.0
H598 H 0.90925 0.45861 0.56248 0.0
H599 H 0.82905 0.76018 0.54659 0.0
Co600 Co 0.65159 0.39201 0.66107 0.0
C601 C 0.62742 0.42934 0.72067 0.0
Co602 Co 0.63505 0.36272 0.7142 0.0
C603 C 0.64724 0.43958 0.59393 0.0
C604 C 0.69571 0.42502 0.60325 0.0
N605 N 0.66559 0.41982 0.61763 0.0
N606 N 0.66457 0.45733 0.56561 0.0
C607 C 0.69517 0.44797 0.57151 0.0
H608 H 0.6215 0.44053 0.59734 0.0
H609 H 0.71681 0.41319 0.61522 0.0
C610 C 0.65948 0.32437 0.65526 0.0
N611 N 0.61978 0.33399 0.75405 0.0
C612 C 0.6249 0.33456 0.79191 0.0
C613 C 0.59956 0.30752 0.75089 0.0
N614 N 0.60849 0.30972 0.81243 0.0
C615 C 0.5921 0.29287 0.78704 0.0
C616 C 0.58542 0.37576 0.66055 0.0
O617 O 0.66449 0.35233 0.6357 0.0
O618 O 0.64706 0.32449 0.68896 0.0
O619 O 0.59264 0.36209 0.69317 0.0
O620 O 0.60826 0.38917 0.63931 0.0
O621 O 0.62343 0.40099 0.73969 0.0
H622 H 0.59005 0.30003 0.72408 0.0
H623 H 0.63894 0.35393 0.80445 0.0
O624 O 0.63866 0.43054 0.68609 0.0
O625 O 0.69472 0.39541 0.68594 0.0
O626 O 0.67715 0.36461 0.737 0.0
C627 C 0.69983 0.38228 0.72018 0.0
H628 H 0.71592 0.45769 0.55476 0.0
H629 H 0.57515 0.27247 0.79436 0.0
Co630 Co 0.86958 0.40652 0.91166 0.0
C631 C 0.82307 0.38311 0.96652 0.0
Co632 Co 0.88797 0.38851 0.97083 0.0
C633 C 0.82481 0.39957 0.84551 0.0
C634 C 0.85116 0.44612 0.83931 0.0
N635 N 0.84873 0.41723 0.86214 0.0
N636 N 0.81258 0.41602 0.81318 0.0
C637 C 0.8294 0.44556 0.81004 0.0
H638 H 0.81586 0.37528 0.85767 0.0
H639 H 0.86676 0.46715 0.84457 0.0
C640 C 0.93771 0.40982 0.91506 0.0
N641 N 0.90371 0.37495 0.02116 0.0
C642 C 0.88866 0.37127 0.05694 0.0
C643 C 0.93435 0.36663 0.02811 0.0
N644 N 0.90869 0.36068 0.08552 0.0
C645 C 0.93752 0.35843 0.06695 0.0
C646 C 0.88285 0.33715 0.92158 0.0
O647 O 0.9146 0.41551 0.89168 0.0
O648 O 0.93065 0.39959 0.95011 0.0
O649 O 0.89231 0.34357 0.9549 0.0
O650 O 0.87364 0.36133 0.89858 0.0
O651 O 0.84619 0.37777 0.98883 0.0
H652 H 0.95356 0.36659 1.00638 0.0
H653 H 0.86339 0.37606 0.06194 0.0
O654 O 0.82841 0.39641 0.93266 0.0
O655 O 0.86489 0.45297 0.92884 0.0
O656 O 0.88184 0.43347 0.98583 0.0
C657 C 0.87053 0.4577 0.96432 0.0
H658 H 0.82531 0.46661 0.78939 0.0
H659 H 0.95989 0.35223 0.08036 0.0
Co660 Co 0.88439 0.61078 0.16975 0.0
C661 C 0.89973 0.56261 0.23011 0.0
Co662 Co 0.89879 0.63109 0.22484 0.0
C663 C 0.85937 0.58148 0.09404 0.0
C664 C 0.90451 0.56559 0.11524 0.0
N665 N 0.8796 0.58649 0.12337 0.0
N666 N 0.87197 0.55955 0.06833 0.0
C667 C 0.90016 0.54982 0.08215 0.0
H668 H 0.83601 0.59316 0.09179 0.0
H669 H 0.92488 0.56076 0.13304 0.0
C670 C 0.88232 0.67998 0.16575 0.0
N671 N 0.90862 0.65158 0.26892 0.0
C672 C 0.90229 0.63892 0.30524 0.0
C673 C 0.92685 0.67948 0.27251 0.0
N674 N 0.91655 0.6571 0.33134 0.0
C675 C 0.9316 0.68309 0.31115 0.0
C676 C 0.95257 0.62406 0.17618 0.0
O677 O 0.87646 0.65507 0.14496 0.0
O678 O 0.89283 0.67407 0.19942 0.0
O679 O 0.94393 0.63191 0.20992 0.0
O680 O 0.93055 0.61605 0.15396 0.0
O681 O 0.90415 0.58787 0.25014 0.0
H682 H 0.93703 0.69533 0.24855 0.0
H683 H 0.88794 0.61634 0.3124 0.0
O684 O 0.89204 0.56766 0.1953 0.0
O685 O 0.83795 0.60685 0.18877 0.0
O686 O 0.85391 0.63002 0.24093 0.0
C687 C 0.83104 0.61793 0.22251 0.0
H688 H 0.91598 0.53112 0.06992 0.0
H689 H 0.94589 0.7024 0.32338 0.0
Co690 Co 0.64816 0.62893 0.41094 0.0
C691 C 0.69524 0.63375 0.46375 0.0
Co692 Co 0.62997 0.64253 0.47083 0.0
C693 C 0.69867 0.62269 0.3467 0.0
C694 C 0.65301 0.60685 0.32921 0.0
N695 N 0.66728 0.61884 0.35985 0.0
N696 N 0.70467 0.61322 0.30973 0.0
C697 C 0.67538 0.60358 0.29895 0.0
H698 H 0.71707 0.63234 0.36406 0.0
H699 H 0.62774 0.60109 0.32856 0.0
C700 C 0.57968 0.63604 0.41928 0.0
N701 N 0.6175 0.65336 0.52204 0.0
C702 C 0.62962 0.64134 0.55629 0.0
C703 C 0.5985 0.67935 0.53176 0.0
N704 N 0.61892 0.65883 0.58691 0.0
C705 C 0.59947 0.68291 0.57104 0.0
C706 C 0.64428 0.69925 0.42169 0.0
O707 O 0.6027 0.62915 0.395 0.0
O708 O 0.5866 0.64306 0.45363 0.0
O709 O 0.63459 0.6892 0.45566 0.0
O710 O 0.65111 0.67717 0.39703 0.0
O711 O 0.6723 0.64096 0.48664 0.0
H712 H 0.58607 0.69594 0.51127 0.0
H713 H 0.64673 0.62071 0.55851 0.0
O714 O 0.68995 0.62899 0.42883 0.0
O715 O 0.64513 0.58048 0.42862 0.0
O716 O 0.62608 0.59657 0.48491 0.0
C717 C 0.63478 0.57292 0.4635 0.0
H718 H 0.66976 0.59554 0.27075 0.0
H719 H 0.58794 0.70311 0.58614 0.0
Co720 Co 0.39438 0.40564 0.20818 0.0
C721 C 0.38014 0.46476 0.24158 0.0
Co722 Co 0.34335 0.41202 0.22176 0.0
C723 C 0.45671 0.42376 0.18126 0.0
C724 C 0.45582 0.37417 0.21068 0.0
N725 N 0.43696 0.40041 0.19908 0.0
N726 N 0.48718 0.41322 0.18129 0.0
C727 C 0.48697 0.38208 0.1997 0.0
H728 H 0.44895 0.44816 0.16874 0.0
H729 H 0.44744 0.35094 0.22612 0.0
C730 C 0.35899 0.35114 0.18729 0.0
N731 N 0.30006 0.4179 0.23242 0.0
C732 C 0.28626 0.42553 0.26662 0.0
C733 C 0.27553 0.41526 0.20859 0.0
N734 N 0.2541 0.4273 0.26535 0.0
C735 C 0.24718 0.42094 0.22881 0.0
C736 C 0.36385 0.44218 0.14832 0.0
O737 O 0.387 0.36297 0.18931 0.0
O738 O 0.33525 0.36881 0.1989 0.0
O739 O 0.33974 0.43737 0.17175 0.0
O740 O 0.39011 0.4277 0.15694 0.0
O741 O 0.35173 0.45343 0.24366 0.0
H742 H 0.27808 0.40914 0.17864 0.0
H743 H 0.2995 0.42863 0.29244 0.0
O744 O 0.40245 0.44785 0.22666 0.0
O745 O 0.39915 0.38518 0.25961 0.0
O746 O 0.34791 0.38897 0.27294 0.0
C747 C 0.37586 0.38116 0.28405 0.0
H748 H 0.50772 0.36593 0.2038 0.0
H749 H 0.22337 0.42009 0.21763 0.0
Co750 Co 0.39396 0.61883 0.99859 0.0
C751 C 0.42541 0.58203 0.94413 0.0
Co752 Co 0.36274 0.59557 0.95836 0.0
C753 C 0.41517 0.65298 0.06283 0.0
C754 C 0.45129 0.65217 1.01761 0.0
N755 N 0.42201 0.63966 0.02887 0.0
N756 N 0.43836 0.67417 0.0725 0.0
C757 C 0.46159 0.67325 0.0448 0.0
H758 H 0.39305 0.64823 0.07955 0.0
H759 H 0.46345 0.64814 0.99019 0.0
C760 C 0.33098 0.63347 1.01079 0.0
N761 N 0.33614 0.57677 0.92434 0.0
C762 C 0.33984 0.58242 0.88573 0.0
C763 C 0.3063 0.56416 0.9304 0.0
N764 N 0.31293 0.57598 0.86735 0.0
C765 C 0.29193 0.56368 0.89529 0.0
C766 C 0.37361 0.55373 0.02646 0.0
O767 O 0.35841 0.63974 0.02303 0.0
O768 O 0.32789 0.61328 0.98419 0.0
O769 O 0.36072 0.55412 0.99346 0.0
O770 O 0.38931 0.57988 0.03502 0.0
O771 O 0.39777 0.57818 0.93153 0.0
H772 H 0.29468 0.55913 0.95857 0.0
H773 H 0.3611 0.59395 0.87181 0.0
O774 O 0.42882 0.59803 0.97419 0.0
O775 O 0.39829 0.65823 0.96312 0.0
O776 O 0.36434 0.6378 0.92458 0.0
C777 C 0.38207 0.66235 0.93302 0.0
H778 H 0.48354 0.68796 0.04351 0.0
H779 H 0.26692 0.55824 0.8912 0.0
Co780 Co 0.11459 0.65957 0.70956 0.0
C781 C 0.13811 0.59921 0.73976 0.0
Co782 Co 0.1668 0.65994 0.71082 0.0
C783 C 0.05302 0.65834 0.67716 0.0
C784 C 0.05058 0.64935 0.73872 0.0
N785 N 0.0708 0.65872 0.70864 0.0
N786 N 0.02285 0.64817 0.6863 0.0
C787 C 0.02101 0.6426 0.72496 0.0
H788 H 0.06264 0.66233 0.64781 0.0
H789 H 0.05754 0.64472 0.76832 0.0
C790 C 0.14191 0.72174 0.67894 0.0
N791 N 0.21066 0.65836 0.71363 0.0
C792 C 0.22503 0.64125 0.74289 0.0
C793 C 0.23467 0.66775 0.68803 0.0
N794 N 0.2567 0.63869 0.73651 0.0
C795 C 0.26336 0.65575 0.70233 0.0
C796 C 0.14502 0.63304 0.64361 0.0
O797 O 0.11586 0.70531 0.6863 0.0
O798 O 0.16818 0.70705 0.688 0.0
O799 O 0.17014 0.64181 0.6602 0.0
O800 O 0.11798 0.64066 0.65892 0.0
O801 O 0.16475 0.61405 0.73279 0.0
H802 H 0.23139 0.68107 0.66023 0.0
H803 H 0.21238 0.62977 0.76822 0.0
O804 O 0.11269 0.61498 0.7318 0.0
O805 O 0.11164 0.67619 0.76102 0.0
O806 O 0.16369 0.67562 0.76295 0.0
C807 C 0.13664 0.67881 0.78049 0.0
H808 H 1.00037 0.63248 0.74163 0.0
H809 H 0.28687 0.65818 0.68823 0.0
Co810 Co 0.15929 0.3848 0.47214 0.0
C811 C 0.21214 0.41331 0.50183 0.0
Co812 Co 0.15499 0.44091 0.47934 0.0
C813 C 0.15928 0.32049 0.43285 0.0
C814 C 0.17881 0.31548 0.48909 0.0
N815 N 0.16499 0.33826 0.46424 0.0
N816 N 0.16925 0.2877 0.4372 0.0
C817 C 0.18156 0.28462 0.47258 0.0
H818 H 0.14892 0.33169 0.4069 0.0
H819 H 0.187 0.32116 0.51723 0.0
C820 C 0.10218 0.40999 0.4493 0.0
N821 N 0.14966 0.48774 0.48932 0.0
C822 C 0.15569 0.50342 0.52229 0.0
C823 C 0.13587 0.51218 0.46659 0.0
N824 N 0.14602 0.53649 0.52107 0.0
C825 C 0.13349 0.54185 0.48593 0.0
C826 C 0.18032 0.42645 0.40791 0.0
O827 O 0.11864 0.38323 0.45492 0.0
O828 O 0.11346 0.43899 0.45675 0.0
O829 O 0.1744 0.45148 0.42889 0.0
O830 O 0.17495 0.39614 0.42152 0.0
O831 O 0.19618 0.4409 0.5013 0.0
H832 H 0.12725 0.50842 0.43813 0.0
H833 H 0.16576 0.49032 0.54738 0.0
O834 O 0.20022 0.38671 0.48945 0.0
O835 O 0.14327 0.37443 0.52326 0.0
O836 O 0.13621 0.42926 0.52847 0.0
C837 C 0.1338 0.39893 0.54307 0.0
H838 H 0.19179 0.26158 0.48565 0.0
H839 H 0.12302 0.56556 0.47502 0.0
Co840 Co 0.39536 0.6553 0.31949 0.0
C841 C 0.37021 0.69498 0.37772 0.0
Co842 Co 0.37622 0.62749 0.37235 0.0
C843 C 0.40807 0.6843 0.24211 0.0
C844 C 0.43188 0.71044 0.28512 0.0
N845 N 0.41192 0.68403 0.2803 0.0
N846 N 0.42492 0.70968 0.22313 0.0
C847 C 0.44039 0.72593 0.24974 0.0
H848 H 0.39452 0.66531 0.22827 0.0
H849 H 0.44037 0.71748 0.31264 0.0
C850 C 0.40082 0.58853 0.31353 0.0
N851 N 0.36142 0.59975 0.41569 0.0
C852 C 0.37963 0.5804 0.44002 0.0
C853 C 0.33115 0.5938 0.42916 0.0
N854 N 0.36215 0.56219 0.46782 0.0
C855 C 0.33151 0.57084 0.46097 0.0
C856 C 0.32998 0.63771 0.31137 0.0
O857 O 0.40685 0.61647 0.29432 0.0
O858 O 0.38873 0.58873 0.34767 0.0
O859 O 0.33329 0.62504 0.34625 0.0
O860 O 0.35385 0.65416 0.29551 0.0
O861 O 0.3637 0.6674 0.39738 0.0
H862 H 0.31007 0.60502 0.41645 0.0
H863 H 0.4054 0.57998 0.43741 0.0
O864 O 0.38344 0.69396 0.3445 0.0
O865 O 0.43718 0.65526 0.34149 0.0
O866 O 0.41934 0.62961 0.39515 0.0
C867 C 0.44306 0.64217 0.37474 0.0
H868 H 0.45734 0.74658 0.24378 0.0
H869 H 0.31064 0.5606 0.47707 0.0
Co870 Co 0.13828 0.63971 0.06384 0.0
C871 C 0.08936 0.62237 0.1214 0.0
Co872 Co 0.15727 0.61918 0.12158 0.0
C873 C 0.13504 0.65103 0.97819 0.0
C874 C 0.09869 0.67769 1.00905 0.0
N875 N 0.12302 0.6557 1.01464 0.0
N876 N 0.11928 0.66947 0.95015 0.0
C877 C 0.09634 0.68606 0.97004 0.0
H878 H 0.15503 0.63435 0.97261 0.0
H879 H 0.08408 0.68783 0.03205 0.0
C880 C 0.20379 0.63905 0.06622 0.0
N881 N 0.17863 0.60687 0.17051 0.0
C882 C 0.20544 0.62224 0.18372 0.0
C883 C 0.17199 0.5822 0.19837 0.0
N884 N 0.21587 0.60819 0.21825 0.0
C885 C 0.1943 0.583 0.22719 0.0
C886 C 0.14792 0.56901 0.06822 0.0
O887 O 0.18083 0.64625 0.04416 0.0
O888 O 0.19794 0.62563 0.09977 0.0
O889 O 0.15716 0.57216 0.10299 0.0
O890 O 0.13863 0.59529 0.04855 0.0
O891 O 0.11299 0.61393 0.14297 0.0
H892 H 0.15228 0.56444 0.19778 0.0
H893 H 0.21689 0.64388 0.16818 0.0
O894 O 0.09534 0.63313 0.08616 0.0
O895 O 0.13879 0.68404 0.07955 0.0
O896 O 0.1574 0.66504 0.13532 0.0
C897 C 0.14953 0.68983 0.11225 0.0
H898 H 0.0794 0.70396 0.95748 0.0
H899 H 0.1948 0.56563 0.2526 0.0
Co900 Co 0.12717 0.39303 0.81219 0.0
C901 C 0.14094 0.34031 0.8659 0.0
Co902 Co 0.14543 0.41094 0.86649 0.0
C903 C 0.11886 0.39051 0.73137 0.0
C904 C 0.09155 0.35156 0.76336 0.0
N905 N 0.11182 0.37771 0.7675 0.0
N906 N 0.10368 0.37363 0.70482 0.0
C907 C 0.08671 0.34879 0.72459 0.0
H908 H 0.13541 0.4114 0.7246 0.0
H909 H 0.08112 0.33548 0.78698 0.0
C910 C 0.13237 0.46283 0.81202 0.0
N911 N 0.16032 0.42684 0.91323 0.0
C912 C 0.14623 0.44929 0.9368 0.0
C913 C 0.18837 0.41932 0.92966 0.0
N914 N 0.16432 0.45621 0.96728 0.0
C915 C 0.19101 0.43733 0.96237 0.0
C916 C 0.19521 0.39996 0.80827 0.0
O917 O 0.1235 0.43847 0.79254 0.0
O918 O 0.1428 0.45654 0.84567 0.0
O919 O 0.19041 0.40858 0.84327 0.0
O920 O 0.17069 0.39166 0.79014 0.0
O921 O 0.14829 0.36443 0.88689 0.0
H922 H 0.20627 0.40247 0.91805 0.0
H923 H 0.12318 0.46072 0.93124 0.0
O924 O 0.13121 0.3476 0.83217 0.0
O925 O 0.08359 0.3949 0.83297 0.0
O926 O 0.09995 0.41334 0.88698 0.0
C927 C 0.07658 0.4053 0.86626 0.0
H928 H 0.07189 0.33019 0.7119 0.0
H929 H 0.21188 0.43755 0.97984 0.0
Co930 Co 0.39922 0.37738 0.56304 0.0
C931 C 0.44864 0.38392 0.61604 0.0
Co932 Co 0.38008 0.39132 0.62243 0.0
C933 C 0.39502 0.36967 0.47857 0.0
C934 C 0.44267 0.36199 0.49739 0.0
N935 N 0.41276 0.3683 0.51099 0.0
N936 N 0.41247 0.36423 0.44562 0.0
C937 C 0.44262 0.35972 0.45777 0.0
H938 H 0.36967 0.37507 0.4788 0.0
H939 H 0.46358 0.36019 0.51485 0.0
C940 C 0.33365 0.38659 0.56931 0.0
N941 N 0.36015 0.40082 0.67273 0.0
C942 C 0.33041 0.39084 0.68768 0.0
C943 C 0.37002 0.42274 0.69819 0.0
N944 N 0.32141 0.40552 0.72124 0.0
C945 C 0.34672 0.42569 0.72742 0.0
C946 C 0.39326 0.44743 0.57088 0.0
O947 O 0.35673 0.37818 0.54725 0.0
O948 O 0.33862 0.39189 0.60411 0.0
O949 O 0.3831 0.43982 0.60576 0.0
O950 O 0.40222 0.42381 0.54956 0.0
O951 O 0.42511 0.39078 0.63959 0.0
H952 H 0.39216 0.43703 0.69484 0.0
H953 H 0.31514 0.37362 0.67352 0.0
O954 O 0.44248 0.37754 0.58124 0.0
O955 O 0.3955 0.33038 0.57745 0.0
O956 O 0.37712 0.34291 0.63538 0.0
C957 C 0.38496 0.32062 0.61129 0.0
H958 H 0.46373 0.35653 0.43938 0.0
H959 H 0.34794 0.44306 0.75031 0.0
C960 C 0.31656 0.11378 0.22927 0.0
C961 C 0.29207 0.08988 0.23848 0.0
C962 C 0.33469 0.11323 0.19448 0.0
C963 C 0.32944 0.08847 0.16764 0.0
H964 H 0.32051 0.13427 0.24803 0.0
H965 H 0.3522 0.13327 0.18789 0.0
S966 S 0.27095 0.01743 0.18047 0.0
N967 N 0.26551 0.03874 0.21981 0.0
N968 N 0.29982 0.03757 0.15438 0.0
C969 C 0.30652 0.06299 0.17767 0.0
C970 C 0.28773 0.0638 0.21302 0.0
C971 C 0.17215 0.04922 0.44178 0.0
C972 C 0.15027 0.05231 0.41164 0.0
C973 C 0.16921 0.02294 0.47185 0.0
C974 C 0.14475 0.99795 0.47267 0.0
H975 H 0.19165 0.06729 0.44222 0.0
H976 H 0.18676 0.02172 0.49409 0.0
S977 S 0.08273 0.99302 0.39883 0.0
N978 N 0.10402 0.02699 0.38407 0.0
N979 N 0.09882 0.9781 0.43917 0.0
C980 C 0.12303 1.00073 0.44232 0.0
C981 C 0.12571 0.02763 0.41231 0.0
C982 C 0.27176 0.9066 0.71626 0.0
C983 C 0.25592 0.90075 0.75272 0.0
C984 C 0.25731 0.9245 0.68577 0.0
C985 C 0.22609 0.93694 0.69 0.0
H986 H 0.29563 0.89709 0.71084 0.0
H987 H 0.27033 0.92765 0.65818 0.0
S988 S 0.17331 0.92831 0.77826 0.0
N989 N 0.20686 0.90916 0.79102 0.0
N990 N 0.17904 0.94184 0.73245 0.0
C991 C 0.20944 0.9309 0.72572 0.0
C992 C 0.22445 0.91298 0.75733 0.0
C993 C 0.4046 0.9135 0.94861 0.0
C994 C 0.37831 0.91072 0.92459 0.0
C995 C 0.40487 0.93719 0.97769 0.0
C996 C 0.37925 0.95999 0.98358 0.0
H997 H 0.42534 0.89735 0.94477 0.0
H998 H 0.42572 0.93818 0.99519 0.0
S999 S 0.3048 0.96402 0.92836 0.0
N1000 N 0.32579 0.93333 0.90905 0.0
N1001 N 0.32673 0.97793 0.96281 0.0
C1002 C 0.35289 0.95764 0.95972 0.0
C1003 C 0.35229 0.93304 0.93062 0.0
C1004 C 0.27864 0.91373 0.25198 0.0
C1005 C 0.28061 0.90346 0.29186 0.0
C1006 C 0.25151 0.90649 0.23001 0.0
C1007 C 0.22453 0.88841 0.24639 0.0
H1008 H 0.29836 0.92758 0.23731 0.0
H1009 H 0.25168 0.91544 0.19984 0.0
S1010 S 0.21571 0.85741 0.35012 0.0
N1011 N 0.25146 0.87537 0.34677 0.0
N1012 N 0.20164 0.86145 0.30624 0.0
C1013 C 0.22615 0.87808 0.28628 0.0
C1014 C 0.25367 0.88557 0.30864 0.0
C1015 C 0.3807 0.01658 0.47402 0.0
C1016 C 0.36161 0.98734 0.48152 0.0
C1017 C 0.38115 0.04242 0.50063 0.0
C1018 C 0.3626 0.04008 0.53569 0.0
H1019 H 0.39768 0.01793 0.4496 0.0
H1020 H 0.39886 0.06248 0.49597 0.0
S1021 S 0.3056 0.97067 0.56618 0.0
N1022 N 0.32103 0.95941 0.5243 0.0
N1023 N 0.32221 1.00767 0.57387 0.0
C1024 C 0.34108 0.01269 0.54127 0.0
C1025 C 0.34066 0.98636 0.51443 0.0
C1026 C 0.2438 0.10769 0.74786 0.0
C1027 C 0.24095 0.1114 0.78843 0.0
C1028 C 0.274 0.10852 0.72687 0.0
C1029 C 0.3033 0.11311 0.74513 0.0
H1030 H 0.22236 0.10442 0.7319 0.0
H1031 H 0.27427 0.1059 0.69596 0.0
S1032 S 0.3102 0.12006 0.8515 0.0
N1033 N 0.27129 0.11702 0.84599 0.0
N1034 N 0.32678 0.11898 0.80768 0.0
C1035 C 0.30068 0.11605 0.78587 0.0
C1036 C 0.2701 0.11514 0.80707 0.0
C1037 C 0.12831 1.00123 0.04076 0.0
C1038 C 0.15572 0.98102 0.03538 0.0
C1039 C 0.12071 0.02793 1.01401 0.0
C1040 C 0.14011 0.03584 0.98051 0.0
H1041 H 0.11349 0.99781 0.06695 0.0
H1042 H 0.10037 0.04386 0.02089 0.0
S1043 S 0.2118 0.98768 0.9493 0.0
N1044 N 0.20001 0.96805 0.99089 0.0
N1045 N 0.18618 0.01911 0.94142 0.0
C1046 C 0.16623 0.01439 0.97313 0.0
C1047 C 0.17399 0.98692 1.00041 0.0
C1048 C 0.72199 0.89653 0.81582 0.0
C1049 C 0.73062 0.92766 0.79645 0.0
C1050 C 0.70472 0.89532 0.85116 0.0
C1051 C 0.69555 0.92528 0.86922 0.0
H1052 H 0.7292 0.87282 0.80373 0.0
H1053 H 0.69926 0.87037 0.86481 0.0
S1054 S 0.71192 0.01355 0.82982 0.0
N1055 N 0.72838 0.98941 0.7972 0.0
N1056 N 0.6958 0.98719 0.86405 0.0
C1057 C 0.70338 0.95673 0.84968 0.0
C1058 C 0.72089 0.95793 0.81324 0.0
C1059 C 0.90296 0.01274 0.57682 0.0
C1060 C 0.87663 0.02351 0.55484 0.0
C1061 C 0.90024 0.98648 0.60657 0.0
C1062 C 0.87082 0.96992 0.61689 0.0
H1063 H 0.92605 0.02492 0.57115 0.0
H1064 H 0.92144 0.97984 0.62244 0.0
S1065 S 0.79394 0.98922 0.56942 0.0
N1066 N 0.81986 0.01539 0.54588 0.0
N1067 N 0.81445 0.9671 0.60219 0.0
C1068 C 0.8442 0.98049 0.59514 0.0
C1069 C 0.84717 1.00684 0.56417 0.0
C1070 C 0.76867 0.08331 0.27962 0.0
C1071 C 0.77616 0.11633 0.26399 0.0
C1072 C 0.78219 0.07026 0.31372 0.0
C1073 C 0.80366 0.08981 0.33332 0.0
H1074 H 0.75074 0.06833 0.26651 0.0
H1075 H 0.77475 0.04535 0.32583 0.0
S1076 S 0.83202 0.17738 0.30284 0.0
N1077 N 0.8074 0.16758 0.26907 0.0
N1078 N 0.83279 0.1436 0.33351 0.0
C1079 C 0.8128 0.1222 0.31663 0.0
C1080 C 0.79909 0.1353 0.28175 0.0
C1081 C 0.66944 0.06277 0.07208 0.0
C1082 C 0.64266 0.05889 0.04916 0.0
C1083 C 0.67007 0.0875 0.10015 0.0
C1084 C 0.64368 0.10915 0.10722 0.0
H1085 H 0.69021 0.04672 0.06806 0.0
H1086 H 0.69113 0.08892 0.11727 0.0
S1087 S 0.56698 0.10818 0.05631 0.0
N1088 N 0.58876 0.07847 0.03624 0.0
N1089 N 0.58966 0.12404 0.08884 0.0
C1090 C 0.61669 0.10522 0.0846 0.0
C1091 C 0.61625 0.08044 0.05571 0.0
C1092 C 0.79754 0.13986 0.75581 0.0
C1093 C 0.79764 0.13361 0.79662 0.0
C1094 C 0.77075 0.1324 0.73354 0.0
C1095 C 0.74218 0.11799 0.75047 0.0
H1096 H 0.81878 0.15014 0.74046 0.0
H1097 H 0.77281 0.13732 0.70251 0.0
S1098 S 0.72776 0.10018 0.85658 0.0
N1099 N 0.7651 0.11406 0.85296 0.0
N1100 N 0.71509 0.10082 0.81196 0.0
C1101 C 0.74151 0.11259 0.79142 0.0
C1102 C 0.76894 0.12012 0.8141 0.0
C1103 C 0.64303 1.00338 0.56219 0.0
C1104 C 0.66524 0.03026 0.55734 0.0
C1105 C 0.64202 0.97795 0.53516 0.0
C1106 C 0.66297 0.97846 0.50211 0.0
H1107 H 0.62431 1.00389 0.58462 0.0
H1108 H 0.6223 0.95999 0.53762 0.0
S1109 S 0.72797 0.04106 0.47903 0.0
N1110 N 0.71094 0.05369 0.51945 0.0
N1111 N 0.70861 1.00629 0.46885 0.0
C1112 C 0.68726 1.00319 0.49935 0.0
C1113 C 0.68835 0.02905 0.52676 0.0
C1114 C 0.75964 0.89852 0.23268 0.0
C1115 C 0.78814 0.90943 0.2489 0.0
C1116 C 0.72973 0.89707 0.25374 0.0
C1117 C 0.72597 0.90638 0.29266 0.0
H1118 H 0.76014 0.89154 0.20296 0.0
H1119 H 0.70909 0.88874 0.23884 0.0
S1120 S 0.79278 0.93528 0.35043 0.0
N1121 N 0.81022 0.92844 0.30807 0.0
N1122 N 0.75447 0.92631 0.34656 0.0
C1123 C 0.75423 0.91709 0.30948 0.0
C1124 C 0.78492 0.91846 0.28806 0.0
C1125 C 0.89505 0.02038 0.99361 0.0
C1126 C 0.87067 0.04331 1.00361 0.0
C1127 C 0.90254 0.99208 0.01812 0.0
C1128 C 0.88598 0.985 0.05388 0.0
H1129 H 0.90754 0.02318 0.96572 0.0
H1130 H 0.92055 0.97459 1.00789 0.0
S1131 S 0.82291 0.03909 0.09656 0.0
N1132 N 0.83246 0.05897 0.05435 0.0
N1133 N 0.84585 1.0049 0.09965 0.0
C1134 C 0.86289 1.00868 0.06552 0.0
C1135 C 0.85532 0.03787 0.04054 0.0
C1136 C 0.78432 0.6164 0.70555 0.0
C1137 C 0.79038 0.59149 0.735 0.0
C1138 C 0.80118 0.61696 0.67011 0.0
C1139 C 0.82467 0.59235 0.66233 0.0
H1140 H 0.76626 0.63567 0.71012 0.0
H1141 H 0.79561 0.63695 0.64847 0.0
S1142 S 0.84912 0.52124 0.72989 0.0
N1143 N 0.82105 0.54132 0.75455 0.0
N1144 N 0.853 0.5421 0.68709 0.0
C1145 C 0.83079 0.56691 0.69138 0.0
C1146 C 0.81368 0.56663 0.728 0.0
C1147 C 0.67807 0.51976 0.91987 0.0
C1148 C 0.65972 0.54988 0.92107 0.0
C1149 C 0.67603 0.49384 0.95009 0.0
C1150 C 0.65631 0.49719 0.98356 0.0
H1151 H 0.69316 0.51547 0.89454 0.0
H1152 H 0.68971 0.47069 0.94697 0.0
S1153 S 0.60494 0.57167 1.00267 0.0
N1154 N 0.62166 0.58157 0.95948 0.0
N1155 N 0.61902 0.53377 1.0166 0.0
C1156 C 0.63871 0.52759 0.9858 0.0
C1157 C 0.6401 0.55361 0.95457 0.0
C1158 C 0.74317 0.45417 0.23108 0.0
C1159 C 0.7201 0.43627 0.21188 0.0
C1160 C 0.75794 0.43932 0.26346 0.0
C1161 C 0.75001 0.40614 0.27804 0.0
H1162 H 0.75123 0.47903 0.21958 0.0
H1163 H 0.7772 0.45299 0.27579 0.0
S1164 S 0.68863 0.34967 0.24206 0.0
N1165 N 0.68807 0.38417 0.21247 0.0
N1166 N 0.71573 0.35705 0.27395 0.0
C1167 C 0.7251 0.38907 0.26155 0.0
C1168 C 0.71016 0.40393 0.22822 0.0
C1169 C 0.85907 0.45682 0.46416 0.0
C1170 C 0.88653 0.46199 0.48549 0.0
C1171 C 0.85857 0.43246 0.43574 0.0
C1172 C 0.88573 0.41256 0.42668 0.0
H1173 H 0.83769 0.47157 0.46974 0.0
H1174 H 0.83691 0.42996 0.41992 0.0
S1175 S 0.9642 0.41717 0.47323 0.0
N1176 N 0.94177 0.44535 0.49507 0.0
N1177 N 0.94111 0.40049 0.44166 0.0
C1178 C 0.91338 0.41771 0.44778 0.0
C1179 C 0.9137 0.44208 0.47709 0.0
C1180 C 0.73464 0.37523 0.78043 0.0
C1181 C 0.73043 0.38939 0.7422 0.0
C1182 C 0.76151 0.38308 0.8027 0.0
C1183 C 0.78593 0.40612 0.78866 0.0
H1184 H 0.71665 0.35803 0.79377 0.0
H1185 H 0.7627 0.37138 0.83164 0.0
S1186 S 0.78866 0.44834 0.68907 0.0
N1187 N 0.75488 0.42646 0.69091 0.0
N1188 N 0.80466 0.44076 0.73156 0.0
C1189 C 0.78252 0.41966 0.74995 0.0
C1190 C 0.75519 0.41152 0.72727 0.0
C1191 C 0.87617 0.54678 0.99997 0.0
C1192 C 0.85911 0.54326 0.03602 0.0
C1193 C 0.87718 0.52038 0.97406 0.0
C1194 C 0.86116 0.4894 0.98338 0.0
H1195 H 0.89189 0.56849 0.99392 0.0
H1196 H 0.89307 0.52297 0.94864 0.0
S1197 S 0.8092 0.46913 0.07092 0.0
N1198 N 0.82279 0.50784 0.0769 0.0
N1199 N 0.82436 0.45844 0.02868 0.0
C1200 C 0.84134 0.48702 1.01727 0.0
C1201 C 0.8402 0.51395 0.04333 0.0
C1202 C 0.7911 0.63606 0.27524 0.0
C1203 C 0.79745 0.6169 0.24239 0.0
C1204 C 0.76129 0.6348 0.2965 0.0
C1205 C 0.73549 0.61409 0.28672 0.0
H1206 H 0.80956 0.65248 0.285 0.0
H1207 H 0.75857 0.65058 0.32088 0.0
S1208 S 0.73947 0.55687 0.20445 0.0
N1209 N 0.77488 0.57566 0.20191 0.0
N1210 N 0.71973 0.57238 0.24161 0.0
C1211 C 0.74153 0.59446 0.25394 0.0
C1212 C 0.77201 0.59607 0.23203 0.0
C1213 C 0.67165 0.48999 0.50184 0.0
C1214 C 0.65353 0.48263 0.53665 0.0
C1215 C 0.66372 0.51729 0.47561 0.0
C1216 C 0.63718 0.53823 0.483 0.0
H1217 H 0.69286 0.47529 0.49538 0.0
H1218 H 0.67972 0.52342 0.45086 0.0
S1219 S 0.5798 0.52839 0.56738 0.0
N1220 N 0.6065 0.49813 0.57535 0.0
N1221 N 0.59089 0.54769 0.52545 0.0
C1222 C 0.6175 0.52957 0.51606 0.0
C1223 C 0.62582 0.50231 0.54303 0.0
C1224 C 0.2202 0.45457 0.36058 0.0
C1225 C 0.19498 0.43127 0.36855 0.0
C1226 C 0.23872 0.45409 0.32593 0.0
C1227 C 0.23221 0.43078 0.29793 0.0
H1228 H 0.22688 0.4718 0.38214 0.0
H1229 H 0.25891 0.47132 0.32144 0.0
S1230 S 0.16691 0.36663 0.30386 0.0
N1231 N 0.163 0.38596 0.3447 0.0
N1232 N 0.19765 0.3852 0.27978 0.0
C1233 C 0.20587 0.40878 0.30471 0.0
C1234 C 0.18731 0.409 0.34001 0.0
C1235 C 0.37923 0.46494 0.07957 0.0
C1236 C 0.36325 0.46927 0.11559 0.0
C1237 C 0.38139 0.49171 0.05015 0.0
C1238 C 0.36878 0.52437 0.05606 0.0
H1239 H 0.39037 0.44073 0.07417 0.0
H1240 H 0.39402 0.48715 0.02312 0.0
S1241 S 0.32632 0.54996 0.14561 0.0
N1242 N 0.33492 0.50936 0.1551 0.0
N1243 N 0.34047 0.55951 0.10114 0.0
C1244 C 0.35312 0.52908 0.09199 0.0
C1245 C 0.34998 0.50166 0.12132 0.0
C1246 C 0.26858 0.58689 0.77592 0.0
C1247 C 0.27742 0.62 0.76193 0.0
C1248 C 0.28212 0.5716 0.80891 0.0
C1249 C 0.30479 0.589 0.82922 0.0
H1250 H 0.24951 0.57372 0.76262 0.0
H1251 H 0.27351 0.54677 0.81992 0.0
S1252 S 0.33727 0.6757 0.80201 0.0
N1253 N 0.31148 0.66878 0.76844 0.0
N1254 N 0.33681 0.64085 0.83114 0.0
C1255 C 0.31539 0.62139 0.81382 0.0
C1256 C 0.30172 0.63667 0.7799 0.0
C1257 C 0.12079 0.60703 0.58611 0.0
C1258 C 0.1469 0.60998 0.61035 0.0
C1259 C 0.12085 0.58335 0.55701 0.0
C1260 C 0.14665 0.56075 0.55129 0.0
H1261 H 0.09993 0.62305 0.58977 0.0
H1262 H 0.1001 0.58221 0.53935 0.0
S1263 S 0.22083 0.55728 0.60702 0.0
N1264 N 0.1995 0.58777 0.62625 0.0
N1265 N 0.19918 0.54321 0.5724 0.0
C1266 C 0.17286 0.56329 0.57535 0.0
C1267 C 0.17311 0.58786 0.6045 0.0
C1268 C 0.24454 0.6093 0.28174 0.0
C1269 C 0.24391 0.61696 0.24109 0.0
C1270 C 0.27161 0.6163 0.30415 0.0
C1271 C 0.30004 0.63158 0.28759 0.0
H1272 H 0.22374 0.59772 0.29671 0.0
H1273 H 0.2702 0.60948 0.3349 0.0
S1274 S 0.31277 0.65458 0.18205 0.0
N1275 N 0.27593 0.63933 0.18545 0.0
N1276 N 0.32564 0.65271 0.22657 0.0
C1277 C 0.29977 0.63919 0.24691 0.0
C1278 C 0.27227 0.63195 0.22412 0.0
C1279 C 0.13752 0.50909 0.98725 0.0
C1280 C 0.1581 0.48157 0.99582 0.0
C1281 C 0.13317 0.53559 1.01223 0.0
C1282 C 0.14931 0.53655 0.04731 0.0
H1283 H 0.12544 0.51114 0.96017 0.0
H1284 H 0.11762 0.55634 1.00295 0.0
S1285 S 0.2028 0.46875 0.08667 0.0
N1286 N 0.19216 0.45509 0.04486 0.0
N1287 N 0.18478 0.50581 0.09088 0.0
C1288 C 0.16873 0.50844 0.0575 0.0
C1289 C 0.17301 0.48094 0.03203 0.0
C1290 C 0.26156 0.39529 0.72649 0.0
C1291 C 0.29058 0.40288 0.74393 0.0
C1292 C 0.23153 0.39418 0.74744 0.0
C1293 C 0.22836 0.4005 0.78733 0.0
H1294 H 0.26181 0.39082 0.696 0.0
H1295 H 0.21039 0.38861 0.7318 0.0
S1296 S 0.29673 0.41926 0.84828 0.0
N1297 N 0.31373 0.41494 0.80509 0.0
N1298 N 0.25798 0.41347 0.84345 0.0
C1299 C 0.25721 0.40758 0.80531 0.0
C1300 C 0.28788 0.40863 0.78404 0.0
C1301 C 0.36273 0.50194 0.55776 0.0
C1302 C 0.39015 0.48203 0.55128 0.0
C1303 C 0.3545 0.52897 0.53126 0.0
C1304 C 0.37321 0.53709 0.49707 0.0
H1305 H 0.34633 0.49517 0.58195 0.0
H1306 H 0.33265 0.54283 0.53703 0.0
S1307 S 0.44912 0.49397 0.46879 0.0
N1308 N 0.43762 0.47419 0.5103 0.0
N1309 N 0.42169 0.52329 0.45997 0.0
C1310 C 0.4017 0.51839 0.49162 0.0
C1311 C 0.41025 0.49138 0.51884 0.0
C1312 C 0.19332 0.23792 0.40645 0.0
C1313 C 0.16771 0.26099 0.41035 0.0
C1314 C 0.19128 0.20983 0.38333 0.0
C1315 C 0.16326 0.20324 0.36372 0.0
H1316 H 0.21502 0.24141 0.42188 0.0
H1317 H 0.21135 0.19244 0.38206 0.0
S1318 S 0.08981 0.25673 0.3631 0.0
N1319 N 0.11398 0.27604 0.39142 0.0
N1320 N 0.10977 0.22334 0.34843 0.0
C1321 C 0.13778 0.22671 0.36655 0.0
C1322 C 0.1401 0.25554 0.38966 0.0
C1323 C 0.03692 0.94278 0.60601 0.0
C1324 C 0.06794 0.93365 0.61644 0.0
C1325 C 1.01086 0.9354 0.63152 0.0
C1326 C 0.01512 0.9177 0.66753 0.0
H1327 H 0.03278 0.95494 0.57773 0.0
H1328 H 0.98725 0.94326 0.62278 0.0
S1329 S 0.09182 0.88572 0.70621 0.0
N1330 N 0.1018 0.90559 0.66423 0.0
N1331 N 0.05261 0.88984 0.71121 0.0
C1332 C 0.04617 0.9084 0.67804 0.0
C1333 C 0.07269 0.91684 0.65265 0.0
C1334 C 0.35514 0.74262 0.87315 0.0
C1335 C 0.38214 0.76433 0.87247 0.0
C1336 C 0.3555 0.7093 0.89143 0.0
C1337 C 0.38274 0.69625 0.9102 0.0
H1338 H 0.33348 0.75141 0.85955 0.0
H1339 H 0.33392 0.69402 0.89177 0.0
S1340 S 0.45977 0.74218 0.91717 0.0
N1341 N 0.43711 0.76948 0.89258 0.0
N1342 N 0.43746 0.70786 0.92658 0.0
C1343 C 0.40983 0.71761 0.9096 0.0
C1344 C 0.40963 0.75122 0.89085 0.0
C1345 C 0.46005 0.0949 0.13879 0.0
C1346 C 0.45378 0.11498 0.10511 0.0
C1347 C 0.48303 0.10521 0.16408 0.0
C1348 C 0.50039 0.13571 0.1562 0.0
H1349 H 0.44559 0.07258 0.14702 0.0
H1350 H 0.48669 0.0897 0.19042 0.0
S1351 S 0.49486 0.195 0.06951 0.0
N1352 N 0.46838 0.16485 0.06329 0.0
N1353 N 0.51143 0.18427 0.111 0.0
C1354 C 0.49573 0.15467 0.12132 0.0
C1355 C 0.47245 0.14423 0.09568 0.0
C1356 C 0.14827 0.78624 0.10584 0.0
C1357 C 0.16221 0.79394 0.14033 0.0
C1358 C 0.14466 0.75234 0.09671 0.0
C1359 C 0.15491 0.72527 0.12189 0.0
H1360 H 0.13801 0.80626 0.0873 0.0
H1361 H 0.13271 0.74737 0.07044 0.0
S1362 S 0.19733 0.73338 0.21312 0.0
N1363 N 0.18939 0.77292 0.19768 0.0
N1364 N 0.18301 0.70909 0.18061 0.0
C1365 C 0.17096 0.73305 0.15517 0.0
C1366 C 0.17459 0.76748 0.16432 0.0
C1367 C 0.52635 0.90494 0.41194 0.0
C1368 C 0.53586 0.90171 0.3728 0.0
C1369 C 0.49363 0.90605 0.42434 0.0
C1370 C 0.46844 0.90479 0.39825 0.0
H1371 H 0.54437 0.90614 0.43347 0.0
H1372 H 0.48806 0.90787 0.45491 0.0
S1373 S 0.47983 0.89728 0.29227 0.0
N1374 N 0.51668 0.89766 0.30785 0.0
N1375 N 0.45592 0.90049 0.33087 0.0
C1376 C 0.47761 0.9022 0.35892 0.0
C1377 C 0.51093 0.90045 0.34635 0.0
C1378 C 0.37971 0.27296 0.66251 0.0
C1379 C 0.38311 0.28352 0.6231 0.0
C1380 C 0.38037 0.23838 0.67492 0.0
C1381 C 0.38404 0.21262 0.64853 0.0
H1382 H 0.37742 0.29158 0.68422 0.0
H1383 H 0.37841 0.23185 0.70574 0.0
S1384 S 0.39168 0.22624 0.54185 0.0
N1385 N 0.38875 0.26506 0.55735 0.0
N1386 N 0.38965 0.20002 0.58094 0.0
C1387 C 0.38621 0.2226 0.60892 0.0
C1388 C 0.38589 0.258 0.59618 0.0
C1389 C 0.02083 0.1297 0.93078 0.0
C1390 C 0.046 0.13261 0.90216 0.0
C1391 C 0.98813 0.13251 0.92151 0.0
C1392 C 0.97874 0.13922 0.88316 0.0
H1393 H 0.02641 0.12518 0.96091 0.0
H1394 H 0.97008 0.12993 0.94475 0.0
S1395 S 0.0348 0.14856 0.79695 0.0
N1396 N 0.05868 0.14181 0.83352 0.0
N1397 N 0.99803 0.14787 0.8161 0.0
C1398 C 1.00371 0.14199 0.85423 0.0
C1399 C 0.03695 0.13848 0.86365 0.0
C1400 C 0.82978 0.81321 0.64859 0.0
C1401 C 0.8581 0.82062 0.66721 0.0
C1402 C 0.8278 0.78485 0.62587 0.0
C1403 C 0.85379 0.76237 0.62145 0.0
H1404 H 0.80936 0.8301 0.65039 0.0
H1405 H 0.80584 0.78065 0.61123 0.0
S1406 S 0.93278 0.7691 0.6656 0.0
N1407 N 0.91242 0.80207 0.68071 0.0
N1408 N 0.90833 0.74892 0.63843 0.0
C1409 C 0.88179 0.76874 0.64099 0.0
C1410 C 0.88403 0.79781 0.66369 0.0
C1411 C 0.97687 0.09821 0.34846 0.0
C1412 C 1.00819 0.09326 0.36122 0.0
C1413 C 0.95041 0.09047 0.37297 0.0
C1414 C 0.95449 0.07824 0.41128 0.0
H1415 H 0.97263 0.11014 0.32017 0.0
H1416 H 0.92683 0.0972 0.36295 0.0
S1417 S 0.03048 0.05381 0.45668 0.0
N1418 N 0.04123 0.06898 0.41265 0.0
N1419 N 0.99107 0.05687 0.45966 0.0
C1420 C 0.98526 0.07046 0.4236 0.0
C1421 C 1.01229 0.07749 0.39834 0.0
C1422 C 0.61727 0.30455 0.13155 0.0
C1423 C 0.64497 0.32514 0.12952 0.0
C1424 C 0.61714 0.2711 0.1489 0.0
C1425 C 0.64492 0.25598 0.16446 0.0
H1426 H 0.59538 0.3143 0.11926 0.0
H1427 H 0.59502 0.25672 0.14931 0.0
S1428 S 0.72441 0.29844 0.16512 0.0
N1429 N 0.70125 0.32762 0.14415 0.0
N1430 N 0.7013 0.26488 0.17606 0.0
C1431 C 0.67289 0.27635 0.16263 0.0
C1432 C 0.67284 0.31075 0.14544 0.0
C1433 C 0.54191 0.9121 0.87196 0.0
C1434 C 0.5244 0.88175 0.87965 0.0
C1435 C 0.56467 0.92215 0.89756 0.0
C1436 C 0.5706 0.90181 0.93114 0.0
H1437 H 0.53847 0.92767 0.8456 0.0
H1438 H 0.57926 0.94445 0.88962 0.0
S1439 S 0.52895 0.8219 0.96586 0.0
N1440 N 0.51262 0.83305 0.92433 0.0
N1441 N 0.55562 0.85176 0.97254 0.0
C1442 C 0.55183 0.8726 0.94027 0.0
C1443 C 0.52864 0.86255 0.9144 0.0
C1444 C 0.88775 0.27425 0.9366 0.0
C1445 C 0.87899 0.30162 0.91097 0.0
C1446 C 0.88352 0.24039 0.92723 0.0
C1447 C 0.87035 0.23305 0.89205 0.0
H1448 H 0.89848 0.27894 0.96373 0.0
H1449 H 0.89214 0.22 0.94658 0.0
S1450 S 0.8403 0.29467 0.81678 0.0
N1451 N 0.85432 0.31842 0.84994 0.0
N1452 N 0.84616 0.25495 0.83306 0.0
C1453 C 0.86006 0.25992 0.86715 0.0
C1454 C 0.8645 0.2942 0.87637 0.0
C1455 C 0.51756 0.12086 0.68643 0.0
C1456 C 0.4923 0.11895 0.66052 0.0
C1457 C 0.55029 0.11921 0.67396 0.0
C1458 C 0.55971 0.1161 0.63474 0.0
H1459 H 0.51205 0.1235 0.71687 0.0
H1460 H 0.5684 0.1211 0.69527 0.0
S1461 S 0.50341 0.10964 0.55477 0.0
N1462 N 0.47964 0.11309 0.59343 0.0
N1463 N 0.54031 0.11075 0.57012 0.0
C1464 C 0.53467 0.1141 0.60856 0.0
C1465 C 0.5014 0.11529 0.62133 0.0
C1466 C 0.64988 0.78249 0.36013 0.0
C1467 C 0.64521 0.80768 0.38707 0.0
C1468 C 0.65057 0.74775 0.37169 0.0
C1469 C 0.64632 0.73648 0.41077 0.0
H1470 H 0.65249 0.78959 0.32948 0.0
H1471 H 0.65356 0.72959 0.34958 0.0
S1472 S 0.63537 0.79213 0.49332 0.0
N1473 N 0.63799 0.81904 0.45484 0.0
N1474 N 0.6391 0.7537 0.47696 0.0
C1475 C 0.64276 0.76146 0.43831 0.0
C1476 C 0.64233 0.79703 0.42641 0.0
C1477 C 1.00505 0.89004 0.10221 0.0
C1478 C 0.97962 0.88642 0.13042 0.0
C1479 C 0.03773 0.88797 0.11205 0.0
C1480 C 0.04679 0.88126 0.15056 0.0
H1481 H 0.99969 0.89472 0.07203 0.0
H1482 H 0.05601 0.89115 0.08914 0.0
S1483 S 0.98991 0.86975 0.23578 0.0
N1484 N 0.96638 0.87627 0.19885 0.0
N1485 N 0.02689 0.87152 0.21727 0.0
C1486 C 0.02154 0.87759 0.17904 0.0
C1487 C 0.98837 0.88039 0.16907 0.0
C1488 C 0.64101 0.7201 0.87419 0.0
C1489 C 0.66732 0.69791 0.86974 0.0
C1490 C 0.64295 0.74909 0.89587 0.0
C1491 C 0.67106 0.75672 0.91458 0.0
H1492 H 0.61845 0.71473 0.86138 0.0
H1493 H 0.62191 0.76484 0.8994 0.0
S1494 S 0.74746 0.70876 0.91006 0.0
N1495 N 0.72306 0.68718 0.88417 0.0
N1496 N 0.72642 0.74123 0.92529 0.0
C1497 C 0.69784 0.73553 0.90938 0.0
C1498 C 0.69607 0.7063 0.88683 0.0
C1499 C 0.57133 0.43846 0.15757 0.0
C1500 C 0.57051 0.44492 0.1173 0.0
C1501 C 0.5433 0.43036 0.17919 0.0
C1502 C 0.51387 0.42948 0.16123 0.0
H1503 H 0.59394 0.43596 0.17181 0.0
H1504 H 0.5448 0.42252 0.20957 0.0
S1505 S 0.49852 0.45187 0.05825 0.0
N1506 N 0.53771 0.45541 0.06138 0.0
N1507 N 0.48466 0.44076 0.10246 0.0
C1508 C 0.51228 0.44007 0.12198 0.0
C1509 C 0.54083 0.44781 0.09984 0.0
C1510 C 0.85987 0.24471 0.3742 0.0
C1511 C 0.88662 0.26674 0.37404 0.0
C1512 C 0.86032 0.21138 0.39247 0.0
C1513 C 0.88736 0.19866 0.41192 0.0
H1514 H 0.83833 0.25325 0.36014 0.0
H1515 H 0.83895 0.19584 0.3923 0.0
S1516 S 0.96383 0.24545 0.42003 0.0
N1517 N 0.94122 0.27249 0.39503 0.0
N1518 N 0.94175 0.21091 0.42916 0.0
C1519 C 0.91423 0.22033 0.41175 0.0
C1520 C 0.91396 0.25393 0.39291 0.0
C1521 C 0.96059 0.59816 0.63933 0.0
C1522 C 0.95238 0.62074 0.60839 0.0
C1523 C 0.98391 0.60721 0.6648 0.0
C1524 C 0.99976 0.6388 0.65956 0.0
H1525 H 0.94765 0.57442 0.64523 0.0
H1526 H 0.98931 0.58971 0.68901 0.0
S1527 S 0.98859 0.70535 0.58115 0.0
N1528 N 0.96315 0.67488 0.57239 0.0
N1529 N 1.00714 0.6916 0.62032 0.0
C1530 C 0.99293 0.66067 0.62762 0.0
C1531 C 0.96916 0.65167 0.60194 0.0
C1532 C 0.67428 0.26413 0.66468 0.0
C1533 C 0.6645 0.29111 0.63941 0.0
C1534 C 0.67082 0.23038 0.65548 0.0
C1535 C 0.65728 0.22232 0.62069 0.0
H1536 H 0.68326 0.26914 0.69272 0.0
H1537 H 0.67815 0.21051 0.67633 0.0
S1538 S 0.62999 0.28427 0.54346 0.0
N1539 N 0.64247 0.30818 0.57745 0.0
N1540 N 0.636 0.24445 0.5595 0.0
C1541 C 0.64891 0.24925 0.59417 0.0
C1542 C 0.65263 0.28378 0.60363 0.0
C1543 C 0.98356 0.40711 0.86378 0.0
C1544 C 0.97309 0.41221 0.90218 0.0
C1545 C 0.01663 0.40507 0.85277 0.0
C1546 C 0.04136 0.40841 0.87933 0.0
H1547 H 0.96603 0.40356 0.84214 0.0
H1548 H 0.02282 0.40056 0.82291 0.0
S1549 S 0.02741 0.4243 0.98313 0.0
N1550 N 0.99096 0.42195 0.9666 0.0
N1551 N 0.05221 0.41862 0.94589 0.0
C1552 C 0.03122 0.41452 0.91755 0.0
C1553 C 0.99756 0.41624 0.92888 0.0
C1554 C 0.8851 0.7627 0.10279 0.0
C1555 C 0.87804 0.7875 0.12973 0.0
C1556 C 0.88473 0.72765 0.11384 0.0
C1557 C 0.87759 0.71612 0.1523 0.0
H1558 H 0.89164 0.77039 0.07301 0.0
H1559 H 0.89144 0.70964 0.09255 0.0
S1560 S 0.85423 0.7698 0.23327 0.0
N1561 N 0.86125 0.79733 0.19607 0.0
N1562 N 0.86075 0.73186 0.21672 0.0
C1563 C 0.86915 0.74045 0.1791 0.0
C1564 C 0.86932 0.776 0.16788 0.0
C1565 C 0.53583 0.64426 0.36998 0.0
C1566 C 0.54474 0.63634 0.40831 0.0
C1567 C 0.50325 0.64645 0.3599 0.0
C1568 C 0.47758 0.64018 0.38737 0.0
H1569 H 0.5542 0.64951 0.34754 0.0
H1570 H 0.49819 0.65294 0.32993 0.0
S1571 S 0.48751 0.61652 0.49159 0.0
N1572 N 0.5246 0.6213 0.4739 0.0
N1573 N 0.46408 0.62449 0.45479 0.0
C1574 C 0.48617 0.63152 0.42568 0.0
C1575 C 0.51937 0.62988 0.43611 0.0
C1576 C 0.32667 0.28278 0.12594 0.0
C1577 C 0.35198 0.25902 0.12499 0.0
C1578 C 0.32802 0.31157 0.14806 0.0
C1579 C 0.355 0.31796 0.16956 0.0
H1580 H 0.30592 0.27942 0.10875 0.0
H1581 H 0.30853 0.32972 0.14677 0.0
S1582 S 0.42674 0.26251 0.17892 0.0
N1583 N 0.40398 0.24304 0.14917 0.0
N1584 N 0.40669 0.2968 0.19062 0.0
C1585 C 0.37984 0.2936 0.17014 0.0
C1586 C 0.37829 0.26422 0.14794 0.0
C1587 C 0.47857 0.5981 0.85748 0.0
C1588 C 0.50907 0.59126 0.87185 0.0
C1589 C 0.45106 0.59119 0.8802 0.0
C1590 C 0.45315 0.57809 0.91847 0.0
H1591 H 0.47583 0.61044 0.82904 0.0
H1592 H 0.42821 0.59889 0.86869 0.0
S1593 S 0.52625 0.55016 0.96816 0.0
N1594 N 0.5393 0.56544 0.92497 0.0
N1595 N 0.48698 0.55492 0.96896 0.0
C1596 C 0.48309 0.56925 0.93278 0.0
C1597 C 0.51128 0.57537 0.90918 0.0
C1598 C 0.16681 0.81262 0.63938 0.0
C1599 C 0.14008 0.82418 0.61851 0.0
C1600 C 0.16745 0.77971 0.65873 0.0
C1601 C 0.14114 0.75706 0.65881 0.0
H1602 H 0.1878 0.82872 0.63985 0.0
H1603 H 0.18879 0.77198 0.67372 0.0
S1604 S 0.06465 0.7756 0.61 0.0
N1605 N 0.08632 0.81034 0.6002 0.0
N1606 N 0.08716 0.74966 0.63658 0.0
C1607 C 0.11402 0.76883 0.63878 0.0
C1608 C 0.1136 0.80194 0.61872 0.0
C1609 C 0.04484 0.41609 0.36909 0.0
C1610 C 0.02756 0.38544 0.37601 0.0
C1611 C 0.0669 0.4264 0.39552 0.0
C1612 C 0.07228 0.40622 0.42941 0.0
H1613 H 0.04171 0.43181 0.34277 0.0
H1614 H 0.08137 0.44888 0.38807 0.0
S1615 S 0.03128 0.32542 0.46233 0.0
N1616 N 0.01594 0.33628 0.42016 0.0
N1617 N 0.05701 0.35588 0.47012 0.0
C1618 C 0.05373 0.37671 0.43772 0.0
C1619 C 0.03149 0.36618 0.41087 0.0
C1620 C 0.36245 0.7897 0.3767 0.0
C1621 C 0.37338 0.79716 0.41307 0.0
C1622 C 0.35892 0.75612 0.36683 0.0
C1623 C 0.36595 0.72866 0.39299 0.0
H1624 H 0.35719 0.80989 0.35519 0.0
H1625 H 0.35186 0.75158 0.33781 0.0
S1626 S 0.39308 0.73392 0.49284 0.0
N1627 N 0.38936 0.774 0.47642 0.0
N1628 N 0.38276 0.71061 0.45727 0.0
C1629 C 0.37536 0.73545 0.43008 0.0
C1630 C 0.37919 0.7698 0.44023 0.0
C1631 C 0.02939 0.62121 0.11084 0.0
C1632 C 0.05481 0.62121 0.13672 0.0
C1633 C 0.99683 0.62187 0.12372 0.0
C1634 C 0.9877 0.62331 0.16321 0.0
H1635 H 0.03466 0.62065 0.08006 0.0
H1636 H 0.97862 0.62166 0.1023 0.0
S1637 S 0.04445 0.62393 0.24339 0.0
N1638 N 0.06803 0.6224 0.20424 0.0
N1639 N 1.00743 0.62438 0.22826 0.0
C1640 C 1.01284 0.62333 0.18947 0.0
C1641 C 0.04605 0.62206 0.17636 0.0
C1642 C 0.1437 0.27844 0.85281 0.0
C1643 C 0.14341 0.30389 0.87979 0.0
C1644 C 0.14455 0.24371 0.86466 0.0
C1645 C 0.14463 0.23289 0.90404 0.0
H1646 H 0.14311 0.28535 0.82211 0.0
H1647 H 0.1443 0.22521 0.84277 0.0
S1648 S 0.14541 0.2891 0.98638 0.0
N1649 N 0.14449 0.31572 0.94772 0.0
N1650 N 0.14564 0.25051 0.97012 0.0
C1651 C 0.14493 0.25804 0.93137 0.0
C1652 C 0.14447 0.29347 0.91923 0.0
C1653 C 0.54162 0.38445 0.61078 0.0
C1654 C 0.55045 0.37778 0.64943 0.0
C1655 C 0.50901 0.38639 0.60049 0.0
C1656 C 0.4833 0.38268 0.62832 0.0
H1657 H 0.56006 0.38782 0.58809 0.0
H1658 H 0.50394 0.39112 0.57023 0.0
S1659 S 0.49283 0.36585 0.73385 0.0
N1660 N 0.52997 0.36779 0.71583 0.0
N1661 N 0.46959 0.37234 0.69662 0.0
C1662 C 0.4918 0.37658 0.6671 0.0
C1663 C 0.52494 0.3739 0.67753 0.0
C1664 C 0.11906 0.02297 0.23864 0.0
C1665 C 0.13907 0.02524 0.26995 0.0
C1666 C 0.11162 0.99136 0.22535 0.0
C1667 C 0.12311 0.96142 0.24399 0.0
H1668 H 0.11014 0.0458 0.22354 0.0
H1669 H 0.09796 0.99032 0.19947 0.0
S1670 S 0.17334 0.95418 0.32998 0.0
N1671 N 0.1683 0.99557 0.32112 0.0
N1672 N 0.15353 0.93558 0.29667 0.0
C1673 C 0.14145 0.96332 0.27687 0.0
C1674 C 0.14975 0.99554 0.28972 0.0
C1675 C 0.22889 0.88728 0.46179 0.0
C1676 C 0.21953 0.87755 0.49992 0.0
C1677 C 0.2612 0.88669 0.45022 0.0
C1678 C 0.28489 0.87644 0.47658 0.0
H1679 H 0.21173 0.89835 0.44198 0.0
H1680 H 0.26771 0.89654 0.42114 0.0
S1681 S 0.27031 0.8412 0.57722 0.0
N1682 N 0.23453 0.85202 0.5621 0.0
N1683 N 0.29564 0.85067 0.54043 0.0
C1684 C 0.2751 0.8631 0.51356 0.0
C1685 C 0.2422 0.86367 0.52519 0.0
C1686 C 0.41267 0.96528 0.74696 0.0
C1687 C 0.39453 0.95836 0.78144 0.0
C1688 C 0.41629 0.99866 0.73117 0.0
C1689 C 0.40293 0.02603 0.75027 0.0
H1690 H 0.42345 0.94466 0.73169 0.0
H1691 H 0.42946 1.00311 0.7038 0.0
S1692 S 0.35442 0.02113 0.84217 0.0
N1693 N 0.36343 0.9811 0.83452 0.0
N1694 N 0.37131 0.04431 0.80557 0.0
C1695 C 0.3855 0.0195 0.78535 0.0
C1696 C 0.38099 0.98543 0.80079 0.0
C1697 C 0.24769 0.10382 0.96367 0.0
C1698 C 0.22579 0.12739 0.97852 0.0
C1699 C 0.27545 0.09498 0.98327 0.0
C1700 C 0.28191 0.10961 0.01804 0.0
H1701 H 0.24317 0.09181 0.93709 0.0
H1702 H 0.29241 0.07766 0.97053 0.0
S1703 S 0.23194 0.17188 0.06932 0.0
N1704 N 0.21254 0.16507 0.02994 0.0
N1705 N 0.26407 0.14758 0.06733 0.0
C1706 C 0.25993 0.13263 0.03347 0.0
C1707 C 0.23205 0.14188 1.01346 0.0
C1708 C 0.90182 0.02605 0.81861 0.0
C1709 C 0.89447 0.05724 0.79924 0.0
C1710 C 0.89577 0.99563 0.8017 0.0
C1711 C 0.8813 0.99603 0.76588 0.0
H1712 H 0.91178 0.02524 0.84707 0.0
H1713 H 0.90165 0.9717 0.81702 0.0
S1714 S 0.8582 0.07082 0.70346 0.0
N1715 N 0.87301 0.08684 0.74195 0.0
N1716 N 0.86081 0.02904 0.7108 0.0
C1717 C 0.87424 0.02684 0.74599 0.0
C1718 C 0.88112 0.05779 0.76259 0.0
C1719 C 0.75428 0.1586 0.52688 0.0
C1720 C 0.74542 0.14063 0.56185 0.0
C1721 C 0.7864 0.16103 0.51447 0.0
C1722 C 0.81054 0.14563 0.53665 0.0
H1723 H 0.73628 0.16936 0.50804 0.0
H1724 H 0.79215 0.17238 0.48575 0.0
S1725 S 0.80057 0.09887 0.63198 0.0
N1726 N 0.76392 0.10995 0.62029 0.0
N1727 N 0.8243 0.11459 0.59616 0.0
C1728 C 0.80246 0.13031 0.57307 0.0
C1729 C 0.76978 0.12763 0.58581 0.0
C1730 C 0.61343 0.05366 0.28533 0.0
C1731 C 0.63174 0.0604 0.25095 0.0
C1732 C 0.61066 0.02049 0.302 0.0
C1733 C 0.62514 0.99318 0.2839 0.0
H1734 H 0.60196 0.07427 0.29993 0.0
H1735 H 0.5973 0.01617 0.32926 0.0
S1736 S 0.67449 0.99767 0.19264 0.0
N1737 N 0.66417 0.03757 0.19902 0.0
N1738 N 0.65788 0.97471 0.22959 0.0
C1739 C 0.6427 0.9995 0.24888 0.0
C1740 C 0.64632 0.03337 0.23256 0.0
C1741 C 0.76378 0.88736 1.00476 0.0
C1742 C 0.74105 0.9095 0.02022 0.0
C1743 C 0.79213 0.88039 0.02323 0.0
C1744 C 0.79853 0.89509 0.05799 0.0
H1745 H 0.75939 0.8749 0.97841 0.0
H1746 H 0.80905 0.86318 1.01021 0.0
S1747 S 0.74663 0.95544 0.10978 0.0
N1748 N 0.72643 0.94658 0.07156 0.0
N1749 N 0.7803 0.93357 0.10682 0.0
C1750 C 0.77611 0.91768 0.07363 0.0
C1751 C 0.74722 0.92503 0.05445 0.0
C1752 C 0.64696 0.49089 0.79341 0.0
C1753 C 0.64128 0.52191 0.773 0.0
C1754 C 0.63933 0.46043 0.7775 0.0
C1755 C 0.62646 0.46062 0.7406 0.0
H1756 H 0.65757 0.49023 0.82151 0.0
H1757 H 0.6454 0.43669 0.79306 0.0
S1758 S 0.60522 0.53612 0.67759 0.0
N1759 N 0.62006 0.55192 0.71624 0.0
N1760 N 0.60668 0.49425 0.68522 0.0
C1761 C 0.61956 0.49172 0.72072 0.0
C1762 C 0.6268 0.52264 0.73727 0.0
C1763 C 0.78398 0.37072 0.02091 0.0
C1764 C 0.79001 0.37674 0.98095 0.0
C1765 C 0.75288 0.37176 0.03657 0.0
C1766 C 0.72692 0.37836 1.01273 0.0
H1767 H 0.80343 0.36758 0.0406 0.0
H1768 H 0.74933 0.36966 0.06776 0.0
S1769 S 0.72909 0.3895 0.90603 0.0
N1770 N 0.76694 0.38465 0.91736 0.0
N1771 N 0.7082 0.38648 0.94743 0.0
C1772 C 0.73208 0.38081 0.97259 0.0
C1773 C 0.76383 0.3801 0.95649 0.0
C1774 C 0.88993 0.52132 0.28656 0.0
C1775 C 0.9002 0.5277 0.24767 0.0
C1776 C 0.88651 0.48791 0.30258 0.0
C1777 C 0.89401 0.46018 0.28036 0.0
H1778 H 0.88352 0.5422 0.30432 0.0
H1779 H 0.87825 0.48371 0.3325 0.0
S1780 S 0.92304 0.46303 0.1781 0.0
N1781 N 0.91831 0.50339 0.18773 0.0
N1782 N 0.91287 0.44062 0.21855 0.0
C1783 C 0.90506 0.4661 0.24196 0.0
C1784 C 0.90791 0.49994 0.22538 0.0
C1785 C 0.7284 0.61117 0.51699 0.0
C1786 C 0.72666 0.62574 0.47903 0.0
C1787 C 0.75783 0.60199 0.5322 0.0
C1788 C 0.78612 0.60705 0.50976 0.0
H1789 H 0.70692 0.60694 0.53515 0.0
H1790 H 0.75861 0.59232 0.56211 0.0
S1791 S 0.79477 0.64449 0.40941 0.0
N1792 N 0.75582 0.64472 0.41953 0.0
N1793 N 0.81136 0.62747 0.44855 0.0
C1794 C 0.78483 0.62096 0.47173 0.0
C1795 C 0.75493 0.63027 0.45616 0.0
C1796 C 0.39136 0.52656 0.31686 0.0
C1797 C 0.4017 0.55613 0.29488 0.0
C1798 C 0.38414 0.49698 0.29907 0.0
C1799 C 0.38792 0.49585 0.25904 0.0
H1800 H 0.38724 0.5266 0.3479 0.0
H1801 H 0.37533 0.47494 0.31665 0.0
S1802 S 0.41764 0.56403 0.18861 0.0
N1803 N 0.41752 0.58131 0.23088 0.0
N1804 N 0.40504 0.52444 0.19776 0.0
C1805 C 0.40027 0.52401 0.23678 0.0
C1806 C 0.40706 0.55455 0.25471 0.0
C1807 C 0.29375 0.63596 0.06648 0.0
C1808 C 0.30204 0.64678 0.02833 0.0
C1809 C 0.26171 0.63529 0.0791 0.0
C1810 C 0.23729 0.6456 0.05385 0.0
H1811 H 0.31157 0.62489 0.08537 0.0
H1812 H 0.25604 0.62456 0.10807 0.0
S1813 S 0.24905 0.68487 0.9544 0.0
N1814 N 0.28534 0.67399 0.96774 0.0
N1815 N 0.22468 0.67357 0.99159 0.0
C1816 C 0.24601 0.66047 1.01714 0.0
C1817 C 0.27864 0.66091 1.00435 0.0
C1818 C 0.15667 0.52074 0.80344 0.0
C1819 C 0.1326 0.49783 0.79443 0.0
C1820 C 0.15879 0.55338 0.78494 0.0
C1821 C 0.13643 0.56436 0.7576 0.0
H1822 H 0.17443 0.51313 0.82426 0.0
H1823 H 0.17774 0.57028 0.79251 0.0
S1824 S 0.06865 0.51427 0.72435 0.0
N1825 N 0.08608 0.48829 0.75636 0.0
N1826 N 0.0895 0.55003 0.7224 0.0
C1827 C 0.11205 0.54186 0.74868 0.0
C1828 C 0.11029 0.50845 0.7669 0.0
C1829 C 0.26579 0.38776 0.50128 0.0
C1830 C 0.24394 0.41042 0.51769 0.0
C1831 C 0.29458 0.37986 0.51858 0.0
C1832 C 0.30232 0.39403 0.55318 0.0
H1833 H 0.26034 0.37556 0.47509 0.0
H1834 H 0.31068 0.36221 0.50495 0.0
S1835 S 0.25347 0.45576 0.60701 0.0
N1836 N 0.23194 0.44771 0.5696 0.0
N1837 N 0.28642 0.43287 0.60269 0.0
C1838 C 0.28088 0.41725 0.56966 0.0
C1839 C 0.25161 0.42559 0.55164 0.0
C1840 C 0.15118 0.13222 0.13442 0.0
C1841 C 0.12861 0.15674 0.12122 0.0
C1842 C 0.16069 0.12963 0.17327 0.0
C1843 C 0.14795 0.15125 0.20094 0.0
H1844 H 0.16077 0.11391 0.11504 0.0
H1845 H 0.17678 0.10925 0.18215 0.0
S1846 S 0.092 0.22296 0.18126 0.0
N1847 N 0.09719 0.20599 0.1391 0.0
N1848 N 0.11378 0.19982 0.2117 0.0
C1849 C 0.12661 0.17678 0.18791 0.0
C1850 C 0.1173 0.17985 0.14833 0.0
C1851 C 0.11729 0.81604 0.4133 0.0
C1852 C 0.08597 0.82096 0.42842 0.0
C1853 C 0.12247 0.80711 0.37538 0.0
C1854 C 0.09661 0.80247 0.35175 0.0
H1855 H 0.138 0.8231 0.42886 0.0
H1856 H 0.14672 0.80729 0.36317 0.0
S1857 S 1.01054 0.80207 0.38128 0.0
N1858 N 0.02913 0.81255 0.42009 0.0
N1859 N 0.03897 0.79609 0.34801 0.0
C1860 C 0.06543 0.80195 0.36823 0.0
C1861 C 0.0601 0.81111 0.40695 0.0
C1862 C 0.42402 0.84869 0.69046 0.0
C1863 C 0.39381 0.84439 0.70971 0.0
C1864 C 0.42732 0.85314 0.6498 0.0
C1865 C 0.40064 0.85362 0.62589 0.0
H1866 H 0.44547 0.84952 0.70696 0.0
H1867 H 0.45118 0.85686 0.637 0.0
S1868 S 0.31627 0.84056 0.66103 0.0
N1869 N 0.33661 0.83913 0.701 0.0
N1870 N 0.3429 0.84721 0.62493 0.0
C1871 C 0.37029 0.84867 0.64458 0.0
C1872 C 0.3669 0.84407 0.68618 0.0
C1873 C 0.40883 0.17279 0.89748 0.0
C1874 C 0.41637 0.14709 0.87238 0.0
C1875 C 0.40187 0.16479 0.93682 0.0
C1876 C 0.40242 0.1308 0.95235 0.0
H1877 H 0.40688 0.19899 0.88628 0.0
H1878 H 0.39502 0.18533 0.95485 0.0
S1879 S 0.42531 0.05485 0.89895 0.0
N1880 N 0.42739 0.08698 0.86601 0.0
N1881 N 0.41417 0.07168 0.93977 0.0
C1882 C 0.41173 0.10511 0.92773 0.0
C1883 C 0.41873 0.11333 0.88776 0.0
C1884 C 0.90589 0.86118 0.84203 0.0
C1885 C 0.8755 0.8729 0.83057 0.0
C1886 C 0.91422 0.85808 0.88109 0.0
C1887 C 0.89272 0.8664 0.91141 0.0
H1888 H 0.92405 0.85507 0.82046 0.0
H1889 H 0.93826 0.84979 0.8874 0.0
S1890 S 0.80894 0.89597 0.89814 0.0
N1891 N 0.82313 0.89164 0.8536 0.0
N1892 N 0.83838 0.88501 0.92689 0.0
C1893 C 0.86178 0.87727 0.90067 0.0
C1894 C 0.85329 0.88057 0.86052 0.0
C1895 C 0.96347 0.2032 0.6598 0.0
C1896 C 0.95441 0.17878 0.68945 0.0
C1897 C 0.96989 0.1936 0.62216 0.0
C1898 C 0.96728 0.15936 0.6135 0.0
H1899 H 0.96272 0.23006 0.66508 0.0
H1900 H 0.97342 0.21328 0.59915 0.0
S1901 S 0.95108 0.08487 0.68151 0.0
N1902 N 0.94804 0.1181 0.70823 0.0
N1903 N 0.96099 0.1006 0.63749 0.0
C1904 C 0.96251 0.1344 0.64355 0.0
C1905 C 0.95577 0.14396 0.68171 0.0
C1906 C 0.65755 0.16212 0.3886 0.0
C1907 C 0.62757 0.16388 0.4086 0.0
C1908 C 0.66047 0.16631 0.34756 0.0
C1909 C 0.6336 0.17261 0.32438 0.0
H1910 H 0.67899 0.15782 0.40477 0.0
H1911 H 0.68405 0.16412 0.33389 0.0
S1912 S 0.5493 0.17739 0.36209 0.0
N1913 N 0.5702 0.17019 0.40117 0.0
N1914 N 0.57579 0.17959 0.32558 0.0
C1915 C 0.60356 0.17434 0.34422 0.0
C1916 C 0.60054 0.16958 0.3857 0.0
C1917 C 0.62101 0.85366 0.0997 0.0
C1918 C 0.62128 0.88771 0.08431 0.0
C1919 C 0.61515 0.84581 0.13921 0.0
C1920 C 0.60959 0.87172 0.16458 0.0
H1921 H 0.62653 0.83291 0.0814 0.0
H1922 H 0.61654 0.81952 0.15031 0.0
S1923 S 0.60276 0.96427 0.13865 0.0
N1924 N 0.61188 0.94719 0.09735 0.0
N1925 N 0.60078 0.93215 0.17161 0.0
C1926 C 0.60774 0.90559 0.14943 0.0
C1927 C 0.61358 0.91366 0.10925 0.0
C1928 C 0.6663 0.63816 0.67779 0.0
C1929 C 0.64489 0.64671 0.70821 0.0
C1930 C 0.65781 0.64195 0.63844 0.0
C1931 C 0.62747 0.65444 0.62755 0.0
H1932 H 0.68954 0.62758 0.68441 0.0
H1933 H 0.67523 0.63506 0.61639 0.0
S1934 S 0.56219 0.67981 0.6958 0.0
N1935 N 0.59192 0.66884 0.72391 0.0
N1936 N 0.57569 0.67413 0.65137 0.0
C1937 C 0.60596 0.66306 0.65776 0.0
C1938 C 0.6147 0.65969 0.69751 0.0
C1939 C 0.57292 0.31553 0.86887 0.0
C1940 C 0.60344 0.30839 0.8532 0.0
C1941 C 0.56925 0.32545 0.90677 0.0
C1942 C 0.59608 0.32831 0.92954 0.0
H1943 H 0.55241 0.31656 0.85063 0.0
H1944 H 0.54593 0.33373 0.9171 0.0
S1945 S 0.67961 0.30412 0.90398 0.0
N1946 N 0.65973 0.29926 0.86438 0.0
N1947 N 0.65288 0.31659 0.93645 0.0
C1948 C 0.62602 0.31718 0.9155 0.0
C1949 C 0.62971 0.30753 0.87694 0.0
C1950 C 0.87734 0.37159 0.14688 0.0
C1951 C 0.90187 0.35404 0.12719 0.0
C1952 C 0.87261 0.36767 0.18768 0.0
C1953 C 0.89234 0.34626 0.21091 0.0
H1954 H 0.86238 0.38947 0.13086 0.0
H1955 H 0.85427 0.38285 0.20129 0.0
S1956 S 0.95684 0.29071 0.17409 0.0
N1957 N 0.9434 0.31083 0.13476 0.0
N1958 N 0.93553 0.3052 0.2106 0.0
C1959 C 0.916 0.3276 0.19155 0.0
C1960 C 0.92047 0.33101 0.1501 0.0
C1961 C 0.91031 0.67521 0.39757 0.0
C1962 C 0.9161 0.64935 0.37219 0.0
C1963 C 0.90511 0.66736 0.43715 0.0
C1964 C 0.90571 0.63335 0.45258 0.0
H1965 H 0.90813 0.70142 0.38645 0.0
H1966 H 0.89921 0.68801 0.45544 0.0
S1967 S 0.92538 0.5571 0.3982 0.0
N1968 N 0.92628 0.58917 0.36514 0.0
N1969 N 0.91638 0.57408 0.43959 0.0
C1970 C 0.91382 0.60753 0.42764 0.0
C1971 C 0.919 0.61561 0.38737 0.0
C1972 C 0.36525 0.38818 0.35572 0.0
C1973 C 0.3825 0.37247 0.32591 0.0
C1974 C 0.37466 0.38485 0.39462 0.0
C1975 C 0.40167 0.3654 0.40576 0.0
H1976 H 0.34517 0.40456 0.3487 0.0
H1977 H 0.36122 0.39869 0.41582 0.0
S1978 S 0.45219 0.31502 0.33941 0.0
N1979 N 0.42632 0.3345 0.31083 0.0
N1980 N 0.44311 0.32693 0.38332 0.0
C1981 C 0.41801 0.34808 0.37634 0.0
C1982 C 0.40869 0.35194 0.33676 0.0
C1983 C 0.46095 0.70186 0.16779 0.0
C1984 C 0.43108 0.71226 0.18261 0.0
C1985 C 0.4643 0.69245 0.12969 0.0
C1986 C 0.43778 0.69336 0.10603 0.0
H1987 H 0.48073 0.69772 0.18684 0.0
H1988 H 0.48665 0.68131 0.11997 0.0
S1989 S 0.35708 0.72719 0.12924 0.0
N1990 N 0.37649 0.72869 0.16977 0.0
N1991 N 0.3829 0.71217 0.09731 0.0
C1992 C 0.40907 0.70798 0.11922 0.0
C1993 C 0.40565 0.71712 0.15795 0.0
C1994 C 0.10387 0.68488 0.84277 0.0
C1995 C 0.13383 0.67947 0.82409 0.0
C1996 C 0.09954 0.68147 0.88342 0.0
C1997 C 0.12483 0.67217 0.90798 0.0
H1998 H 0.08323 0.69124 0.82577 0.0
H1999 H 0.07573 0.68551 0.89557 0.0
S2000 S 0.20831 0.65434 0.87391 0.0
N2001 N 0.1894 0.66389 0.83376 0.0
N2002 N 0.18141 0.65768 0.90959 0.0
C2003 C 0.15504 0.66672 0.88969 0.0
C2004 C 0.15949 0.67041 0.84813 0.0
C2005 C 0.11287 0.35291 0.63991 0.0
C2006 C 0.10697 0.37994 0.66379 0.0
C2007 C 0.12046 0.35916 0.60044 0.0
C2008 C 0.12211 0.39267 0.58362 0.0
H2009 H 0.11306 0.32692 0.65221 0.0
H2010 H 0.12603 0.33763 0.58334 0.0
S2011 S 0.10435 0.47189 0.63374 0.0
N2012 N 0.10018 0.44089 0.66785 0.0
N2013 N 0.11417 0.45305 0.59375 0.0
C2014 C 0.11438 0.41979 0.60707 0.0
C2015 C 0.10691 0.41332 0.64717 0.0
loop_
_geom_bond_atom_site_label_1
_geom_bond_atom_site_label_2
_geom_bond_distance
_geom_bond_site_symmetry_2
_ccdc_geom_bond_type
Co0 N5 2.057 . S
Co0 O17 2.021 . S
Co0 O20 2.062 . S
Co0 O24 2.117 . S
Co0 O25 2.020 . S
C1 O21 1.259 . S
C1 O24 1.258 . S
Co2 N11 2.057 . S
Co2 O18 2.117 . S
Co2 O19 2.020 . S
Co2 O21 2.021 . S
Co2 O26 2.062 . S
C3 N5 1.316 . S
C3 N6 1.347 . S
C3 H8 0.931 . S
C4 N5 1.375 . S
C4 C7 1.350 . S
C4 H9 0.930 . S
N5 Co0 2.057 . S
N5 C3 1.316 . S
N5 C4 1.375 . S
N6 C3 1.347 . S
N6 C7 1.373 . S
C7 C4 1.350 . S
C7 N6 1.373 . S
C7 H28 0.931 . S
H8 C3 0.931 . S
H9 C4 0.930 . S
C10 O17 1.259 . S
C10 O18 1.258 . S
N11 Co2 2.057 . S
N11 C12 1.316 . S
N11 C13 1.375 . S
C12 N11 1.316 . S
C12 N14 1.347 . S
C12 H23 0.931 . S
C13 N11 1.375 . S
C13 C15 1.350 . S
C13 H22 0.930 . S
N14 C12 1.347 . S
N14 C15 1.373 . S
C15 C13 1.350 . S
C15 N14 1.373 . S
C15 H29 0.931 1_455 S
C16 O19 1.256 . S
C16 O20 1.255 . S
O17 Co0 2.021 . S
O17 C10 1.259 . S
O18 Co2 2.117 . S
O18 C10 1.258 . S
O19 Co2 2.020 . S
O19 C16 1.256 . S
O20 Co0 2.062 . S
O20 C16 1.255 . S
O21 C1 1.259 . S
O21 Co2 2.021 . S
H22 C13 0.930 . S
H23 C12 0.931 . S
O24 Co0 2.117 . S
O24 C1 1.258 . S
O25 Co0 2.020 . S
O25 C27 1.256 . S
O26 Co2 2.062 . S
O26 C27 1.255 . S
C27 O25 1.256 . S
C27 O26 1.255 . S
H28 C7 0.931 . S
H29 C15 0.931 1_655 S
Co30 N35 2.057 . S
Co30 O47 2.021 . S
Co30 O50 2.062 . S
Co30 O54 2.117 . S
Co30 O55 2.020 . S
C31 O51 1.259 . S
C31 O54 1.258 . S
Co32 N41 2.057 . S
Co32 O48 2.117 . S
Co32 O49 2.020 . S
Co32 O51 2.021 . S
Co32 O56 2.062 . S
C33 N35 1.316 . S
C33 N36 1.347 . S
C33 H38 0.931 . S
C34 N35 1.375 . S
C34 C37 1.350 . S
C34 H39 0.930 . S
N35 Co30 2.057 . S
N35 C33 1.316 . S
N35 C34 1.375 . S
N36 C33 1.347 . S
N36 C37 1.373 . S
C37 C34 1.350 . S
C37 N36 1.373 . S
C37 H58 0.931 . S
H38 C33 0.931 . S
H39 C34 0.930 . S
C40 O47 1.259 . S
C40 O48 1.258 . S
N41 Co32 2.057 . S
N41 C42 1.316 . S
N41 C43 1.375 . S
C42 N41 1.316 . S
C42 N44 1.347 . S
C42 H53 0.931 . S
C43 N41 1.375 . S
C43 C45 1.350 . S
C43 H52 0.930 . S
N44 C42 1.347 . S
N44 C45 1.373 . S
C45 C43 1.350 . S
C45 N44 1.373 . S
C45 H59 0.931 . S
C46 O49 1.256 . S
C46 O50 1.255 . S
O47 Co30 2.021 . S
O47 C40 1.259 . S
O48 Co32 2.117 . S
O48 C40 1.258 . S
O49 Co32 2.020 . S
O49 C46 1.256 . S
O50 Co30 2.062 . S
O50 C46 1.255 . S
O51 C31 1.259 . S
O51 Co32 2.021 . S
H52 C43 0.930 . S
H53 C42 0.931 . S
O54 Co30 2.117 . S
O54 C31 1.258 . S
O55 Co30 2.020 . S
O55 C57 1.256 . S
O56 Co32 2.062 . S
O56 C57 1.255 . S
C57 O55 1.256 . S
C57 O56 1.255 . S
H58 C37 0.931 . S
H59 C45 0.931 . S
Co60 N65 2.057 . S
Co60 O77 2.021 . S
Co60 O80 2.062 . S
Co60 O84 2.117 . S
Co60 O85 2.020 . S
C61 O81 1.259 . S
C61 O84 1.258 . S
Co62 N71 2.057 . S
Co62 O78 2.117 . S
Co62 O79 2.020 . S
Co62 O81 2.021 . S
Co62 O86 2.062 . S
C63 N65 1.316 . S
C63 N66 1.347 . S
C63 H68 0.931 . S
C64 N65 1.375 . S
C64 C67 1.350 . S
C64 H69 0.930 . S
N65 Co60 2.057 . S
N65 C63 1.316 . S
N65 C64 1.375 . S
N66 C63 1.347 . S
N66 C67 1.373 . S
C67 C64 1.350 . S
C67 N66 1.373 . S
C67 H88 0.931 . S
H68 C63 0.931 . S
H69 C64 0.930 . S
C70 O77 1.259 . S
C70 O78 1.258 . S
N71 Co62 2.057 . S
N71 C72 1.316 . S
N71 C73 1.375 . S
C72 N71 1.316 . S
C72 N74 1.347 . S
C72 H83 0.931 . S
C73 N71 1.375 . S
C73 C75 1.350 . S
C73 H82 0.930 . S
N74 C72 1.347 . S
N74 C75 1.373 . S
C75 C73 1.350 . S
C75 N74 1.373 . S
C75 H89 0.931 . S
C76 O79 1.256 . S
C76 O80 1.255 . S
O77 Co60 2.021 . S
O77 C70 1.259 . S
O78 Co62 2.117 . S
O78 C70 1.258 . S
O79 Co62 2.020 . S
O79 C76 1.256 . S
O80 Co60 2.062 . S
O80 C76 1.255 . S
O81 C61 1.259 . S
O81 Co62 2.021 . S
H82 C73 0.930 . S
H83 C72 0.931 . S
O84 Co60 2.117 . S
O84 C61 1.258 . S
O85 Co60 2.020 . S
O85 C87 1.256 . S
O86 Co62 2.062 . S
O86 C87 1.255 . S
C87 O85 1.256 . S
C87 O86 1.255 . S
H88 C67 0.931 . S
H89 C75 0.931 . S
Co90 N95 2.057 . S
Co90 O107 2.021 . S
Co90 O110 2.062 1_554 S
Co90 O114 2.117 . S
Co90 O115 2.020 . S
C91 O111 1.259 . S
C91 O114 1.258 . S
Co92 N101 2.057 . S
Co92 O108 2.117 . S
Co92 O109 1.999 1_554 S
Co92 O111 2.021 . S
Co92 O116 2.062 . S
C93 N95 1.324 . S
C93 N96 1.345 1_544 S
C93 H98 0.925 1_554 S
C94 N95 1.375 . S
C94 C97 1.350 1_545 S
C94 H99 0.930 . S
N95 Co90 2.057 . S
N95 C93 1.324 . S
N95 C94 1.375 . S
N96 C93 1.345 1_566 S
N96 C97 1.373 1_556 S
C97 C94 1.350 1_565 S
C97 N96 1.373 1_554 S
C97 H118 0.931 . S
H98 C93 0.925 1_556 S
H99 C94 0.930 . S
C100 O107 1.259 . S
C100 O108 1.258 . S
N101 Co92 2.057 . S
N101 C102 1.316 . S
N101 C103 1.375 . S
C102 N101 1.316 . S
C102 N104 1.347 . S
C102 H113 0.931 . S
C103 N101 1.375 . S
C103 C105 1.350 . S
C103 H112 0.930 . S
N104 C102 1.347 . S
N104 C105 1.373 . S
C105 C103 1.350 . S
C105 N104 1.373 . S
C105 H119 0.931 . S
C106 O109 1.270 . S
C106 O110 1.255 . S
O107 Co90 2.021 . S
O107 C100 1.259 . S
O108 Co92 2.117 . S
O108 C100 1.258 . S
O109 Co92 1.999 1_556 S
O109 C106 1.270 . S
O110 Co90 2.062 1_556 S
O110 C106 1.255 . S
O111 C91 1.259 . S
O111 Co92 2.021 . S
H112 C103 0.930 . S
H113 C102 0.931 . S
O114 Co90 2.117 . S
O114 C91 1.258 . S
O115 Co90 2.020 . S
O115 C117 1.256 . S
O116 Co92 2.062 . S
O116 C117 1.255 . S
C117 O115 1.256 . S
C117 O116 1.255 . S
H118 C97 0.931 . S
H119 C105 0.931 . S
Co120 N125 2.057 . S
Co120 O137 2.021 . S
Co120 O140 2.062 . S
Co120 O144 2.117 . S
Co120 O145 2.020 . S
C121 O141 1.259 . S
C121 O144 1.258 . S
Co122 N131 2.057 . S
Co122 O138 2.117 . S
Co122 O139 2.020 . S
Co122 O141 2.021 . S
Co122 O146 2.062 . S
C123 N125 1.316 . S
C123 N126 1.347 . S
C123 H128 0.931 . S
C124 N125 1.375 . S
C124 C127 1.350 . S
C124 H129 0.930 . S
N125 Co120 2.057 . S
N125 C123 1.316 . S
N125 C124 1.375 . S
N126 C123 1.347 . S
N126 C127 1.373 . S
C127 C124 1.350 . S
C127 N126 1.373 . S
C127 H148 0.931 . S
H128 C123 0.931 . S
H129 C124 0.930 . S
C130 O137 1.259 . S
C130 O138 1.258 . S
N131 Co122 2.057 . S
N131 C132 1.316 . S
N131 C133 1.375 . S
C132 N131 1.316 . S
C132 N134 1.347 . S
C132 H143 0.931 . S
C133 N131 1.375 . S
C133 C135 1.350 . S
C133 H142 0.930 . S
N134 C132 1.347 . S
N134 C135 1.373 . S
C135 C133 1.350 . S
C135 N134 1.373 . S
C135 H149 0.931 . S
C136 O139 1.256 . S
C136 O140 1.255 . S
O137 Co120 2.021 . S
O137 C130 1.259 . S
O138 Co122 2.117 . S
O138 C130 1.258 . S
O139 Co122 2.020 . S
O139 C136 1.256 . S
O140 Co120 2.062 . S
O140 C136 1.255 . S
O141 C121 1.259 . S
O141 Co122 2.021 . S
H142 C133 0.930 . S
H143 C132 0.931 . S
O144 Co120 2.117 . S
O144 C121 1.258 . S
O145 Co120 2.020 . S
O145 C147 1.256 . S
O146 Co122 2.062 . S
O146 C147 1.255 . S
C147 O145 1.256 . S
C147 O146 1.255 . S
H148 C127 0.931 . S
H149 C135 0.931 . S
Co150 N155 2.057 . S
Co150 O167 2.021 . S
Co150 O170 2.062 . S
Co150 O174 2.117 . S
Co150 O175 2.020 . S
C151 O171 1.259 . S
C151 O174 1.258 . S
Co152 N161 2.057 . S
Co152 O168 2.117 . S
Co152 O169 2.020 . S
Co152 O171 2.021 . S
Co152 O176 2.062 . S
C153 N155 1.316 . S
C153 N156 1.347 . S
C153 H158 0.931 . S
C154 N155 1.375 . S
C154 C157 1.350 . S
C154 H159 0.930 . S
N155 Co150 2.057 . S
N155 C153 1.316 . S
N155 C154 1.375 . S
N156 C153 1.347 . S
N156 C157 1.373 . S
C157 C154 1.350 . S
C157 N156 1.373 . S
C157 H178 0.931 . S
H158 C153 0.931 . S
H159 C154 0.930 . S
C160 O167 1.259 . S
C160 O168 1.258 . S
N161 Co152 2.057 . S
N161 C162 1.316 . S
N161 C163 1.375 . S
C162 N161 1.316 . S
C162 N164 1.347 . S
C162 H173 0.931 . S
C163 N161 1.375 . S
C163 C165 1.350 . S
C163 H172 0.930 . S
N164 C162 1.347 . S
N164 C165 1.373 . S
C165 C163 1.350 . S
C165 N164 1.373 . S
C165 H179 0.931 . S
C166 O169 1.256 . S
C166 O170 1.255 . S
O167 Co150 2.021 . S
O167 C160 1.259 . S
O168 Co152 2.117 . S
O168 C160 1.258 . S
O169 Co152 2.020 . S
O169 C166 1.256 . S
O170 Co150 2.062 . S
O170 C166 1.255 . S
O171 C151 1.259 . S
O171 Co152 2.021 . S
H172 C163 0.930 . S
H173 C162 0.931 . S
O174 Co150 2.117 . S
O174 C151 1.258 . S
O175 Co150 2.020 . S
O175 C177 1.256 . S
O176 Co152 2.062 . S
O176 C177 1.255 . S
C177 O175 1.256 . S
C177 O176 1.255 . S
H178 C157 0.931 . S
H179 C165 0.931 . S
Co180 N185 2.057 . S
Co180 O197 2.021 . S
Co180 O200 2.062 . S
Co180 O204 2.117 . S
Co180 O205 2.020 . S
C181 O201 1.259 . S
C181 O204 1.258 . S
Co182 N191 2.057 . S
Co182 O198 2.117 . S
Co182 O199 2.020 . S
Co182 O201 2.021 . S
Co182 O206 2.062 . S
C183 N185 1.316 . S
C183 N186 1.347 . S
C183 H188 0.931 . S
C184 N185 1.375 . S
C184 C187 1.350 . S
C184 H189 0.930 . S
N185 Co180 2.057 . S
N185 C183 1.316 . S
N185 C184 1.375 . S
N186 C183 1.347 . S
N186 C187 1.373 . S
C187 C184 1.350 . S
C187 N186 1.373 . S
C187 H208 0.931 . S
H188 C183 0.931 . S
H189 C184 0.930 . S
C190 O197 1.259 . S
C190 O198 1.258 . S
N191 Co182 2.057 . S
N191 C192 1.316 . S
N191 C193 1.375 . S
C192 N191 1.316 . S
C192 N194 1.347 . S
C192 H203 0.931 . S
C193 N191 1.375 . S
C193 C195 1.350 . S
C193 H202 0.930 . S
N194 C192 1.347 . S
N194 C195 1.373 . S
C195 C193 1.350 . S
C195 N194 1.373 . S
C195 H209 0.931 . S
C196 O199 1.256 . S
C196 O200 1.255 . S
O197 Co180 2.021 . S
O197 C190 1.259 . S
O198 Co182 2.117 . S
O198 C190 1.258 . S
O199 Co182 2.020 . S
O199 C196 1.256 . S
O200 Co180 2.062 . S
O200 C196 1.255 . S
O201 C181 1.259 . S
O201 Co182 2.021 . S
H202 C193 0.930 . S
H203 C192 0.931 . S
O204 Co180 2.117 . S
O204 C181 1.258 . S
O205 Co180 2.020 . S
O205 C207 1.256 . S
O206 Co182 2.062 . S
O206 C207 1.255 . S
C207 O205 1.256 . S
C207 O206 1.255 . S
H208 C187 0.931 . S
H209 C195 0.931 . S
Co210 N215 2.057 . S
Co210 O227 2.021 . S
Co210 O230 2.062 . S
Co210 O234 2.117 . S
Co210 O235 2.020 . S
C211 O231 1.259 . S
C211 O234 1.258 . S
Co212 N221 2.057 1_556 S
Co212 O228 2.117 . S
Co212 O229 2.020 . S
Co212 O231 2.021 . S
Co212 O236 2.062 . S
C213 N215 1.316 . S
C213 N216 1.347 . S
C213 H218 0.931 . S
C214 N215 1.375 . S
C214 C217 1.350 . S
C214 H219 0.930 . S
N215 Co210 2.057 . S
N215 C213 1.316 . S
N215 C214 1.375 . S
N216 C213 1.347 . S
N216 C217 1.373 . S
C217 C214 1.350 . S
C217 N216 1.373 . S
C217 H238 0.931 . S
H218 C213 0.931 . S
H219 C214 0.930 . S
C220 O227 1.259 . S
C220 O228 1.258 . S
N221 Co212 2.057 1_554 S
N221 C222 1.316 . S
N221 C223 1.375 . S
C222 N221 1.316 . S
C222 N224 1.347 . S
C222 H233 0.931 . S
C223 N221 1.375 . S
C223 C225 1.350 . S
C223 H232 0.930 1_554 S
N224 C222 1.347 . S
N224 C225 1.373 . S
C225 C223 1.350 . S
C225 N224 1.373 . S
C225 H239 0.931 . S
C226 O229 1.256 . S
C226 O230 1.255 . S
O227 Co210 2.021 . S
O227 C220 1.259 . S
O228 Co212 2.117 . S
O228 C220 1.258 . S
O229 Co212 2.020 . S
O229 C226 1.256 . S
O230 Co210 2.062 . S
O230 C226 1.255 . S
O231 C211 1.259 . S
O231 Co212 2.021 . S
H232 C223 0.930 1_556 S
H233 C222 0.931 . S
O234 Co210 2.117 . S
O234 C211 1.258 . S
O235 Co210 2.020 . S
O235 C237 1.256 . S
O236 Co212 2.062 . S
O236 C237 1.255 . S
C237 O235 1.256 . S
C237 O236 1.255 . S
H238 C217 0.931 . S
H239 C225 0.931 . S
Co240 N245 2.057 . S
Co240 O257 2.021 . S
Co240 O260 2.062 . S
Co240 O264 2.117 . S
Co240 O265 2.020 . S
C241 O261 1.259 . S
C241 O264 1.258 . S
Co242 N251 2.057 . S
Co242 O258 2.117 . S
Co242 O259 2.020 . S
Co242 O261 2.021 . S
Co242 O266 2.062 . S
C243 N245 1.316 . S
C243 N246 1.347 . S
C243 H248 0.931 . S
C244 N245 1.375 . S
C244 C247 1.350 . S
C244 H249 0.930 . S
N245 Co240 2.057 . S
N245 C243 1.316 . S
N245 C244 1.375 . S
N246 C243 1.347 . S
N246 C247 1.373 . S
C247 C244 1.350 . S
C247 N246 1.373 . S
C247 H268 0.931 1_655 S
H248 C243 0.931 . S
H249 C244 0.930 . S
C250 O257 1.259 . S
C250 O258 1.258 . S
N251 Co242 2.057 . S
N251 C252 1.316 . S
N251 C253 1.375 . S
C252 N251 1.316 . S
C252 N254 1.347 . S
C252 H263 0.931 . S
C253 N251 1.375 . S
C253 C255 1.350 . S
C253 H262 0.930 . S
N254 C252 1.347 . S
N254 C255 1.373 . S
C255 C253 1.350 . S
C255 N254 1.373 . S
C255 H269 0.931 . S
C256 O259 1.256 . S
C256 O260 1.255 . S
O257 Co240 2.021 . S
O257 C250 1.259 . S
O258 Co242 2.117 . S
O258 C250 1.258 . S
O259 Co242 2.020 . S
O259 C256 1.256 . S
O260 Co240 2.062 . S
O260 C256 1.255 . S
O261 C241 1.259 . S
O261 Co242 2.021 . S
H262 C253 0.930 . S
H263 C252 0.931 . S
O264 Co240 2.117 . S
O264 C241 1.258 . S
O265 Co240 2.020 . S
O265 C267 1.256 . S
O266 Co242 2.062 . S
O266 C267 1.255 . S
C267 O265 1.256 . S
C267 O266 1.255 . S
H268 C247 0.931 1_455 S
H269 C255 0.931 . S
Co270 N275 2.057 . S
Co270 O287 2.021 . S
Co270 O290 2.062 . S
Co270 O294 2.117 . S
Co270 O295 2.020 . S
C271 O291 1.259 . S
C271 O294 1.258 . S
Co272 N281 2.057 . S
Co272 O288 2.117 . S
Co272 O289 2.020 . S
Co272 O291 2.021 . S
Co272 O296 2.062 . S
C273 N275 1.316 . S
C273 N276 1.347 . S
C273 H278 0.931 . S
C274 N275 1.375 . S
C274 C277 1.350 . S
C274 H279 0.930 . S
N275 Co270 2.057 . S
N275 C273 1.316 . S
N275 C274 1.375 . S
N276 C273 1.347 . S
N276 C277 1.373 . S
C277 C274 1.350 . S
C277 N276 1.373 . S
C277 H298 0.931 . S
H278 C273 0.931 . S
H279 C274 0.930 . S
C280 O287 1.259 . S
C280 O288 1.258 . S
N281 Co272 2.057 . S
N281 C282 1.316 . S
N281 C283 1.375 . S
C282 N281 1.316 . S
C282 N284 1.347 . S
C282 H293 0.931 . S
C283 N281 1.375 . S
C283 C285 1.350 . S
C283 H292 0.930 . S
N284 C282 1.347 . S
N284 C285 1.373 . S
C285 C283 1.350 . S
C285 N284 1.373 . S
C285 H299 0.931 . S
C286 O289 1.256 . S
C286 O290 1.255 . S
O287 Co270 2.021 . S
O287 C280 1.259 . S
O288 Co272 2.117 . S
O288 C280 1.258 . S
O289 Co272 2.020 . S
O289 C286 1.256 . S
O290 Co270 2.062 . S
O290 C286 1.255 . S
O291 C271 1.259 . S
O291 Co272 2.021 . S
H292 C283 0.930 . S
H293 C282 0.931 . S
O294 Co270 2.117 . S
O294 C271 1.258 . S
O295 Co270 2.020 . S
O295 C297 1.256 . S
O296 Co272 2.062 . S
O296 C297 1.255 . S
C297 O295 1.256 . S
C297 O296 1.255 . S
H298 C277 0.931 . S
H299 C285 0.931 . S
Co300 N305 2.057 . S
Co300 O317 2.021 . S
Co300 O320 2.062 . S
Co300 O324 2.117 . S
Co300 O325 2.020 . S
C301 O321 1.259 . S
C301 O324 1.258 . S
Co302 N311 2.057 . S
Co302 O318 2.117 . S
Co302 O319 2.020 . S
Co302 O321 2.021 . S
Co302 O326 2.062 . S
C303 N305 1.316 . S
C303 N306 1.347 . S
C303 H308 0.931 . S
C304 N305 1.375 . S
C304 C307 1.350 . S
C304 H309 0.930 . S
N305 Co300 2.057 . S
N305 C303 1.316 . S
N305 C304 1.375 . S
N306 C303 1.347 . S
N306 C307 1.373 . S
C307 C304 1.350 . S
C307 N306 1.373 . S
C307 H328 0.931 . S
H308 C303 0.931 . S
H309 C304 0.930 . S
C310 O317 1.259 . S
C310 O318 1.258 . S
N311 Co302 2.057 . S
N311 C312 1.316 . S
N311 C313 1.375 . S
C312 N311 1.316 . S
C312 N314 1.347 . S
C312 H323 0.931 . S
C313 N311 1.375 . S
C313 C315 1.350 . S
C313 H322 0.930 . S
N314 C312 1.347 . S
N314 C315 1.373 . S
C315 C313 1.350 . S
C315 N314 1.373 . S
C315 H329 0.931 . S
C316 O319 1.256 . S
C316 O320 1.255 . S
O317 Co300 2.021 . S
O317 C310 1.259 . S
O318 Co302 2.117 . S
O318 C310 1.258 . S
O319 Co302 2.020 . S
O319 C316 1.256 . S
O320 Co300 2.062 . S
O320 C316 1.255 . S
O321 C301 1.259 . S
O321 Co302 2.021 . S
H322 C313 0.930 . S
H323 C312 0.931 . S
O324 Co300 2.117 . S
O324 C301 1.258 . S
O325 Co300 2.020 . S
O325 C327 1.256 . S
O326 Co302 2.062 . S
O326 C327 1.255 . S
C327 O325 1.256 . S
C327 O326 1.255 . S
H328 C307 0.931 . S
H329 C315 0.931 . S
Co330 N335 2.057 . S
Co330 O347 2.021 . S
Co330 O350 2.062 . S
Co330 O354 2.117 . S
Co330 O355 1.999 1_556 S
C331 O351 1.259 . S
C331 O354 1.258 . S
Co332 N341 2.057 . S
Co332 O348 2.117 . S
Co332 O349 2.020 . S
Co332 O351 2.021 . S
Co332 O356 2.062 1_556 S
C333 N335 1.316 . S
C333 N336 1.347 . S
C333 H338 0.931 . S
C334 N335 1.375 . S
C334 C337 1.350 . S
C334 H339 0.930 . S
N335 Co330 2.057 . S
N335 C333 1.316 . S
N335 C334 1.375 . S
N336 C333 1.347 . S
N336 C337 1.373 . S
C337 C334 1.350 . S
C337 N336 1.373 . S
C337 H358 0.931 . S
H338 C333 0.931 . S
H339 C334 0.930 . S
C340 O347 1.259 . S
C340 O348 1.258 . S
N341 Co332 2.057 . S
N341 C342 1.324 . S
N341 C343 1.375 . S
C342 N341 1.324 . S
C342 N344 1.345 1_566 S
C342 H353 0.925 1_556 S
C343 N341 1.375 . S
C343 C345 1.350 1_565 S
C343 H352 0.930 . S
N344 C342 1.345 1_544 S
N344 C345 1.373 1_554 S
C345 C343 1.350 1_545 S
C345 N344 1.373 1_556 S
C345 H359 0.931 . S
C346 O349 1.256 . S
C346 O350 1.255 . S
O347 Co330 2.021 . S
O347 C340 1.259 . S
O348 Co332 2.117 . S
O348 C340 1.258 . S
O349 Co332 2.020 . S
O349 C346 1.256 . S
O350 Co330 2.062 . S
O350 C346 1.255 . S
O351 C331 1.259 . S
O351 Co332 2.021 . S
H352 C343 0.930 . S
H353 C342 0.925 1_554 S
O354 Co330 2.117 . S
O354 C331 1.258 . S
O355 Co330 1.999 1_554 S
O355 C357 1.270 . S
O356 Co332 2.062 1_554 S
O356 C357 1.255 . S
C357 O355 1.270 . S
C357 O356 1.255 . S
H358 C337 0.931 . S
H359 C345 0.931 . S
Co360 N365 2.057 . S
Co360 O377 2.021 . S
Co360 O380 2.062 . S
Co360 O384 2.117 . S
Co360 O385 2.020 . S
C361 O381 1.259 . S
C361 O384 1.258 . S
Co362 N371 2.057 . S
Co362 O378 2.117 . S
Co362 O379 2.020 . S
Co362 O381 2.021 . S
Co362 O386 2.062 . S
C363 N365 1.316 . S
C363 N366 1.347 . S
C363 H368 0.931 . S
C364 N365 1.375 . S
C364 C367 1.350 . S
C364 H369 0.930 . S
N365 Co360 2.057 . S
N365 C363 1.316 . S
N365 C364 1.375 . S
N366 C363 1.347 . S
N366 C367 1.373 . S
C367 C364 1.350 . S
C367 N366 1.373 . S
C367 H388 0.931 . S
H368 C363 0.931 . S
H369 C364 0.930 . S
C370 O377 1.259 . S
C370 O378 1.258 . S
N371 Co362 2.057 . S
N371 C372 1.316 . S
N371 C373 1.375 . S
C372 N371 1.316 . S
C372 N374 1.347 . S
C372 H383 0.931 . S
C373 N371 1.375 . S
C373 C375 1.350 . S
C373 H382 0.930 . S
N374 C372 1.347 . S
N374 C375 1.373 . S
C375 C373 1.350 . S
C375 N374 1.373 . S
C375 H389 0.931 . S
C376 O379 1.256 . S
C376 O380 1.255 . S
O377 Co360 2.021 . S
O377 C370 1.259 . S
O378 Co362 2.117 . S
O378 C370 1.258 . S
O379 Co362 2.020 . S
O379 C376 1.256 . S
O380 Co360 2.062 . S
O380 C376 1.255 . S
O381 C361 1.259 . S
O381 Co362 2.021 . S
H382 C373 0.930 . S
H383 C372 0.931 . S
O384 Co360 2.117 . S
O384 C361 1.258 . S
O385 Co360 2.020 . S
O385 C387 1.256 . S
O386 Co362 2.062 . S
O386 C387 1.255 . S
C387 O385 1.256 . S
C387 O386 1.255 . S
H388 C367 0.931 . S
H389 C375 0.931 . S
Co390 N395 2.057 . S
Co390 O407 2.021 . S
Co390 O410 2.062 . S
Co390 O414 2.117 . S
Co390 O415 2.020 . S
C391 O411 1.259 . S
C391 O414 1.258 . S
Co392 N401 2.057 . S
Co392 O408 2.117 . S
Co392 O409 2.020 . S
Co392 O411 2.021 . S
Co392 O416 2.062 . S
C393 N395 1.316 . S
C393 N396 1.347 . S
C393 H398 0.931 . S
C394 N395 1.375 . S
C394 C397 1.350 . S
C394 H399 0.930 . S
N395 Co390 2.057 . S
N395 C393 1.316 . S
N395 C394 1.375 . S
N396 C393 1.347 . S
N396 C397 1.373 . S
C397 C394 1.350 . S
C397 N396 1.373 . S
C397 H418 0.931 . S
H398 C393 0.931 . S
H399 C394 0.930 . S
C400 O407 1.259 . S
C400 O408 1.258 . S
N401 Co392 2.057 . S
N401 C402 1.316 . S
N401 C403 1.375 . S
C402 N401 1.316 . S
C402 N404 1.347 . S
C402 H413 0.931 . S
C403 N401 1.375 . S
C403 C405 1.350 . S
C403 H412 0.930 . S
N404 C402 1.347 . S
N404 C405 1.373 . S
C405 C403 1.350 . S
C405 N404 1.373 . S
C405 H419 0.931 . S
C406 O409 1.256 . S
C406 O410 1.255 . S
O407 Co390 2.021 . S
O407 C400 1.259 . S
O408 Co392 2.117 . S
O408 C400 1.258 . S
O409 Co392 2.020 . S
O409 C406 1.256 . S
O410 Co390 2.062 . S
O410 C406 1.255 . S
O411 C391 1.259 . S
O411 Co392 2.021 . S
H412 C403 0.930 . S
H413 C402 0.931 . S
O414 Co390 2.117 . S
O414 C391 1.258 . S
O415 Co390 2.020 . S
O415 C417 1.256 . S
O416 Co392 2.062 . S
O416 C417 1.255 . S
C417 O415 1.256 . S
C417 O416 1.255 . S
H418 C397 0.931 . S
H419 C405 0.931 . S
Co420 N425 2.057 . S
Co420 O437 2.021 . S
Co420 O440 2.062 . S
Co420 O444 2.117 . S
Co420 O445 2.020 . S
C421 O441 1.259 . S
C421 O444 1.258 . S
Co422 N431 2.057 . S
Co422 O438 2.117 . S
Co422 O439 2.020 . S
Co422 O441 2.021 . S
Co422 O446 2.062 . S
C423 N425 1.316 . S
C423 N426 1.347 . S
C423 H428 0.931 . S
C424 N425 1.375 . S
C424 C427 1.350 . S
C424 H429 0.930 . S
N425 Co420 2.057 . S
N425 C423 1.316 . S
N425 C424 1.375 . S
N426 C423 1.347 . S
N426 C427 1.373 . S
C427 C424 1.350 . S
C427 N426 1.373 . S
C427 H448 0.931 . S
H428 C423 0.931 . S
H429 C424 0.930 . S
C430 O437 1.259 . S
C430 O438 1.258 . S
N431 Co422 2.057 . S
N431 C432 1.316 . S
N431 C433 1.375 . S
C432 N431 1.316 . S
C432 N434 1.347 . S
C432 H443 0.931 . S
C433 N431 1.375 . S
C433 C435 1.350 . S
C433 H442 0.930 . S
N434 C432 1.347 . S
N434 C435 1.373 . S
C435 C433 1.350 . S
C435 N434 1.373 . S
C435 H449 0.931 . S
C436 O439 1.256 . S
C436 O440 1.255 . S
O437 Co420 2.021 . S
O437 C430 1.259 . S
O438 Co422 2.117 . S
O438 C430 1.258 . S
O439 Co422 2.020 . S
O439 C436 1.256 . S
O440 Co420 2.062 . S
O440 C436 1.255 . S
O441 C421 1.259 . S
O441 Co422 2.021 . S
H442 C433 0.930 . S
H443 C432 0.931 . S
O444 Co420 2.117 . S
O444 C421 1.258 . S
O445 Co420 2.020 . S
O445 C447 1.256 . S
O446 Co422 2.062 . S
O446 C447 1.255 . S
C447 O445 1.256 . S
C447 O446 1.255 . S
H448 C427 0.931 . S
H449 C435 0.931 . S
Co450 N455 2.057 1_554 S
Co450 O467 2.021 . S
Co450 O470 2.062 . S
Co450 O474 2.117 . S
Co450 O475 2.020 . S
C451 O471 1.259 . S
C451 O474 1.258 . S
Co452 N461 2.057 . S
Co452 O468 2.117 . S
Co452 O469 2.020 . S
Co452 O471 2.021 . S
Co452 O476 2.062 . S
C453 N455 1.316 . S
C453 N456 1.347 . S
C453 H458 0.931 . S
C454 N455 1.375 . S
C454 C457 1.350 . S
C454 H459 0.930 1_556 S
N455 Co450 2.057 1_556 S
N455 C453 1.316 . S
N455 C454 1.375 . S
N456 C453 1.347 . S
N456 C457 1.373 . S
C457 C454 1.350 . S
C457 N456 1.373 . S
C457 H478 0.931 . S
H458 C453 0.931 . S
H459 C454 0.930 1_554 S
C460 O467 1.259 . S
C460 O468 1.258 . S
N461 Co452 2.057 . S
N461 C462 1.316 . S
N461 C463 1.375 . S
C462 N461 1.316 . S
C462 N464 1.347 . S
C462 H473 0.931 . S
C463 N461 1.375 . S
C463 C465 1.350 . S
C463 H472 0.930 . S
N464 C462 1.347 . S
N464 C465 1.373 . S
C465 C463 1.350 . S
C465 N464 1.373 . S
C465 H479 0.931 . S
C466 O469 1.256 . S
C466 O470 1.255 . S
O467 Co450 2.021 . S
O467 C460 1.259 . S
O468 Co452 2.117 . S
O468 C460 1.258 . S
O469 Co452 2.020 . S
O469 C466 1.256 . S
O470 Co450 2.062 . S
O470 C466 1.255 . S
O471 C451 1.259 . S
O471 Co452 2.021 . S
H472 C463 0.930 . S
H473 C462 0.931 . S
O474 Co450 2.117 . S
O474 C451 1.258 . S
O475 Co450 2.020 . S
O475 C477 1.256 . S
O476 Co452 2.062 . S
O476 C477 1.255 . S
C477 O475 1.256 . S
C477 O476 1.255 . S
H478 C457 0.931 . S
H479 C465 0.931 . S
Co480 N485 2.057 . S
Co480 O497 2.021 . S
Co480 O500 2.062 . S
Co480 O504 2.117 . S
Co480 O505 2.020 . S
C481 O501 1.259 . S
C481 O504 1.258 . S
Co482 N491 2.057 . S
Co482 O498 2.117 . S
Co482 O499 2.020 . S
Co482 O501 2.021 . S
Co482 O506 2.062 . S
C483 N485 1.316 . S
C483 N486 1.347 . S
C483 H488 0.931 . S
C484 N485 1.375 . S
C484 C487 1.350 . S
C484 H489 0.930 . S
N485 Co480 2.057 . S
N485 C483 1.316 . S
N485 C484 1.375 . S
N486 C483 1.347 . S
N486 C487 1.373 . S
C487 C484 1.350 . S
C487 N486 1.373 . S
C487 H508 0.931 . S
H488 C483 0.931 . S
H489 C484 0.930 . S
C490 O497 1.259 . S
C490 O498 1.258 . S
N491 Co482 2.057 . S
N491 C492 1.316 . S
N491 C493 1.375 . S
C492 N491 1.316 . S
C492 N494 1.347 . S
C492 H503 0.931 . S
C493 N491 1.375 . S
C493 C495 1.350 . S
C493 H502 0.930 . S
N494 C492 1.347 . S
N494 C495 1.373 . S
C495 C493 1.350 . S
C495 N494 1.373 . S
C495 H509 0.931 . S
C496 O499 1.256 . S
C496 O500 1.255 . S
O497 Co480 2.021 . S
O497 C490 1.259 . S
O498 Co482 2.117 . S
O498 C490 1.258 . S
O499 Co482 2.020 . S
O499 C496 1.256 . S
O500 Co480 2.062 . S
O500 C496 1.255 . S
O501 C481 1.259 . S
O501 Co482 2.021 . S
H502 C493 0.930 . S
H503 C492 0.931 . S
O504 Co480 2.117 . S
O504 C481 1.258 . S
O505 Co480 2.020 . S
O505 C507 1.256 . S
O506 Co482 2.062 . S
O506 C507 1.255 . S
C507 O505 1.256 . S
C507 O506 1.255 . S
H508 C487 0.931 . S
H509 C495 0.931 . S
Co510 N515 2.057 . S
Co510 O527 2.021 . S
Co510 O530 2.062 . S
Co510 O534 2.117 . S
Co510 O535 2.020 . S
C511 O531 1.259 1_554 S
C511 O534 1.258 . S
Co512 N521 2.057 1_554 S
Co512 O528 2.117 . S
Co512 O529 2.020 . S
Co512 O531 2.021 1_554 S
Co512 O536 2.062 1_554 S
C513 N515 1.316 . S
C513 N516 1.347 . S
C513 H518 0.931 . S
C514 N515 1.375 . S
C514 C517 1.350 . S
C514 H519 0.930 . S
N515 Co510 2.057 . S
N515 C513 1.316 . S
N515 C514 1.375 . S
N516 C513 1.347 . S
N516 C517 1.373 . S
C517 C514 1.350 . S
C517 N516 1.373 . S
C517 H538 0.931 . S
H518 C513 0.931 . S
H519 C514 0.930 . S
C520 O527 1.259 . S
C520 O528 1.258 . S
N521 Co512 2.057 1_556 S
N521 C522 1.316 . S
N521 C523 1.375 . S
C522 N521 1.316 . S
C522 N524 1.347 . S
C522 H533 0.931 . S
C523 N521 1.375 . S
C523 C525 1.350 . S
C523 H532 0.930 . S
N524 C522 1.347 . S
N524 C525 1.373 . S
C525 C523 1.350 . S
C525 N524 1.373 . S
C525 H539 0.931 . S
C526 O529 1.256 . S
C526 O530 1.255 . S
O527 Co510 2.021 . S
O527 C520 1.259 . S
O528 Co512 2.117 . S
O528 C520 1.258 . S
O529 Co512 2.020 . S
O529 C526 1.256 . S
O530 Co510 2.062 . S
O530 C526 1.255 . S
O531 C511 1.259 1_556 S
O531 Co512 2.021 1_556 S
H532 C523 0.930 . S
H533 C522 0.931 . S
O534 Co510 2.117 . S
O534 C511 1.258 . S
O535 Co510 2.020 . S
O535 C537 1.256 . S
O536 Co512 2.062 1_556 S
O536 C537 1.255 1_556 S
C537 O535 1.256 . S
C537 O536 1.255 1_554 S
H538 C517 0.931 . S
H539 C525 0.931 . S
Co540 N545 2.057 . S
Co540 O557 2.021 . S
Co540 O560 2.062 . S
Co540 O564 2.117 . S
Co540 O565 2.020 . S
C541 O561 1.259 . S
C541 O564 1.258 . S
Co542 N551 2.057 . S
Co542 O558 2.117 . S
Co542 O559 2.020 . S
Co542 O561 2.021 . S
Co542 O566 2.062 . S
C543 N545 1.316 . S
C543 N546 1.347 . S
C543 H548 0.931 . S
C544 N545 1.375 . S
C544 C547 1.350 . S
C544 H549 0.930 . S
N545 Co540 2.057 . S
N545 C543 1.316 . S
N545 C544 1.375 . S
N546 C543 1.347 . S
N546 C547 1.373 . S
C547 C544 1.350 . S
C547 N546 1.373 . S
C547 H568 0.931 . S
H548 C543 0.931 . S
H549 C544 0.930 . S
C550 O557 1.259 . S
C550 O558 1.258 . S
N551 Co542 2.057 . S
N551 C552 1.316 . S
N551 C553 1.375 . S
C552 N551 1.316 . S
C552 N554 1.347 1_655 S
C552 H563 0.931 . S
C553 N551 1.375 . S
C553 C555 1.350 1_655 S
C553 H562 0.930 . S
N554 C552 1.347 1_455 S
N554 C555 1.373 . S
C555 C553 1.350 1_455 S
C555 N554 1.373 . S
C555 H569 0.931 . S
C556 O559 1.256 . S
C556 O560 1.255 . S
O557 Co540 2.021 . S
O557 C550 1.259 . S
O558 Co542 2.117 . S
O558 C550 1.258 . S
O559 Co542 2.020 . S
O559 C556 1.256 . S
O560 Co540 2.062 . S
O560 C556 1.255 . S
O561 C541 1.259 . S
O561 Co542 2.021 . S
H562 C553 0.930 . S
H563 C552 0.931 . S
O564 Co540 2.117 . S
O564 C541 1.258 . S
O565 Co540 2.020 . S
O565 C567 1.256 . S
O566 Co542 2.062 . S
O566 C567 1.255 . S
C567 O565 1.256 . S
C567 O566 1.255 . S
H568 C547 0.931 . S
H569 C555 0.931 . S
Co570 N575 2.057 . S
Co570 O587 2.021 . S
Co570 O590 2.062 . S
Co570 O594 2.117 . S
Co570 O595 2.020 . S
C571 O591 1.259 . S
C571 O594 1.258 . S
Co572 N581 2.057 . S
Co572 O588 2.117 . S
Co572 O589 2.020 . S
Co572 O591 2.021 . S
Co572 O596 2.062 . S
C573 N575 1.316 . S
C573 N576 1.347 . S
C573 H578 0.931 . S
C574 N575 1.375 . S
C574 C577 1.350 . S
C574 H579 0.930 . S
N575 Co570 2.057 . S
N575 C573 1.316 . S
N575 C574 1.375 . S
N576 C573 1.347 . S
N576 C577 1.373 . S
C577 C574 1.350 . S
C577 N576 1.373 . S
C577 H598 0.931 . S
H578 C573 0.931 . S
H579 C574 0.930 . S
C580 O587 1.259 . S
C580 O588 1.258 . S
N581 Co572 2.057 . S
N581 C582 1.316 . S
N581 C583 1.375 . S
C582 N581 1.316 . S
C582 N584 1.347 . S
C582 H593 0.931 . S
C583 N581 1.375 . S
C583 C585 1.350 . S
C583 H592 0.930 . S
N584 C582 1.347 . S
N584 C585 1.373 . S
C585 C583 1.350 . S
C585 N584 1.373 . S
C585 H599 0.931 . S
C586 O589 1.256 . S
C586 O590 1.255 . S
O587 Co570 2.021 . S
O587 C580 1.259 . S
O588 Co572 2.117 . S
O588 C580 1.258 . S
O589 Co572 2.020 . S
O589 C586 1.256 . S
O590 Co570 2.062 . S
O590 C586 1.255 . S
O591 C571 1.259 . S
O591 Co572 2.021 . S
H592 C583 0.930 . S
H593 C582 0.931 . S
O594 Co570 2.117 . S
O594 C571 1.258 . S
O595 Co570 2.020 . S
O595 C597 1.256 . S
O596 Co572 2.062 . S
O596 C597 1.255 . S
C597 O595 1.256 . S
C597 O596 1.255 . S
H598 C577 0.931 . S
H599 C585 0.931 . S
Co600 N605 2.057 . S
Co600 O617 2.021 . S
Co600 O620 2.062 . S
Co600 O624 2.117 . S
Co600 O625 2.020 . S
C601 O621 1.259 . S
C601 O624 1.258 . S
Co602 N611 2.057 . S
Co602 O618 2.117 . S
Co602 O619 2.020 . S
Co602 O621 2.021 . S
Co602 O626 2.062 . S
C603 N605 1.316 . S
C603 N606 1.347 . S
C603 H608 0.931 . S
C604 N605 1.375 . S
C604 C607 1.350 . S
C604 H609 0.930 . S
N605 Co600 2.057 . S
N605 C603 1.316 . S
N605 C604 1.375 . S
N606 C603 1.347 . S
N606 C607 1.373 . S
C607 C604 1.350 . S
C607 N606 1.373 . S
C607 H628 0.931 . S
H608 C603 0.931 . S
H609 C604 0.930 . S
C610 O617 1.259 . S
C610 O618 1.258 . S
N611 Co602 2.057 . S
N611 C612 1.316 . S
N611 C613 1.375 . S
C612 N611 1.316 . S
C612 N614 1.347 . S
C612 H623 0.931 . S
C613 N611 1.375 . S
C613 C615 1.350 . S
C613 H622 0.930 . S
N614 C612 1.347 . S
N614 C615 1.373 . S
C615 C613 1.350 . S
C615 N614 1.373 . S
C615 H629 0.931 . S
C616 O619 1.256 . S
C616 O620 1.255 . S
O617 Co600 2.021 . S
O617 C610 1.259 . S
O618 Co602 2.117 . S
O618 C610 1.258 . S
O619 Co602 2.020 . S
O619 C616 1.256 . S
O620 Co600 2.062 . S
O620 C616 1.255 . S
O621 C601 1.259 . S
O621 Co602 2.021 . S
H622 C613 0.930 . S
H623 C612 0.931 . S
O624 Co600 2.117 . S
O624 C601 1.258 . S
O625 Co600 2.020 . S
O625 C627 1.256 . S
O626 Co602 2.062 . S
O626 C627 1.255 . S
C627 O625 1.256 . S
C627 O626 1.255 . S
H628 C607 0.931 . S
H629 C615 0.931 . S
Co630 N635 2.057 . S
Co630 O647 2.021 . S
Co630 O650 2.062 . S
Co630 O654 2.117 . S
Co630 O655 2.020 . S
C631 O651 1.259 . S
C631 O654 1.258 . S
Co632 N641 2.057 1_556 S
Co632 O648 2.117 . S
Co632 O649 2.020 . S
Co632 O651 2.021 . S
Co632 O656 2.062 . S
C633 N635 1.316 . S
C633 N636 1.347 . S
C633 H638 0.931 . S
C634 N635 1.375 . S
C634 C637 1.350 . S
C634 H639 0.930 . S
N635 Co630 2.057 . S
N635 C633 1.316 . S
N635 C634 1.375 . S
N636 C633 1.347 . S
N636 C637 1.373 . S
C637 C634 1.350 . S
C637 N636 1.373 . S
C637 H658 0.931 . S
H638 C633 0.931 . S
H639 C634 0.930 . S
C640 O647 1.259 . S
C640 O648 1.258 . S
N641 Co632 2.057 1_554 S
N641 C642 1.316 . S
N641 C643 1.375 . S
C642 N641 1.316 . S
C642 N644 1.347 . S
C642 H653 0.931 . S
C643 N641 1.375 . S
C643 C645 1.350 . S
C643 H652 0.930 1_554 S
N644 C642 1.347 . S
N644 C645 1.373 . S
C645 C643 1.350 . S
C645 N644 1.373 . S
C645 H659 0.931 . S
C646 O649 1.256 . S
C646 O650 1.255 . S
O647 Co630 2.021 . S
O647 C640 1.259 . S
O648 Co632 2.117 . S
O648 C640 1.258 . S
O649 Co632 2.020 . S
O649 C646 1.256 . S
O650 Co630 2.062 . S
O650 C646 1.255 . S
O651 C631 1.259 . S
O651 Co632 2.021 . S
H652 C643 0.930 1_556 S
H653 C642 0.931 . S
O654 Co630 2.117 . S
O654 C631 1.258 . S
O655 Co630 2.020 . S
O655 C657 1.256 . S
O656 Co632 2.062 . S
O656 C657 1.255 . S
C657 O655 1.256 . S
C657 O656 1.255 . S
H658 C637 0.931 . S
H659 C645 0.931 . S
Co660 N665 2.057 . S
Co660 O677 2.021 . S
Co660 O680 2.062 . S
Co660 O684 2.117 . S
Co660 O685 2.020 . S
C661 O681 1.259 . S
C661 O684 1.258 . S
Co662 N671 2.057 . S
Co662 O678 2.117 . S
Co662 O679 2.020 . S
Co662 O681 2.021 . S
Co662 O686 2.062 . S
C663 N665 1.316 . S
C663 N666 1.347 . S
C663 H668 0.931 . S
C664 N665 1.375 . S
C664 C667 1.350 . S
C664 H669 0.930 . S
N665 Co660 2.057 . S
N665 C663 1.316 . S
N665 C664 1.375 . S
N666 C663 1.347 . S
N666 C667 1.373 . S
C667 C664 1.350 . S
C667 N666 1.373 . S
C667 H688 0.931 . S
H668 C663 0.931 . S
H669 C664 0.930 . S
C670 O677 1.259 . S
C670 O678 1.258 . S
N671 Co662 2.057 . S
N671 C672 1.316 . S
N671 C673 1.375 . S
C672 N671 1.316 . S
C672 N674 1.347 . S
C672 H683 0.931 . S
C673 N671 1.375 . S
C673 C675 1.350 . S
C673 H682 0.930 . S
N674 C672 1.347 . S
N674 C675 1.373 . S
C675 C673 1.350 . S
C675 N674 1.373 . S
C675 H689 0.931 . S
C676 O679 1.256 . S
C676 O680 1.255 . S
O677 Co660 2.021 . S
O677 C670 1.259 . S
O678 Co662 2.117 . S
O678 C670 1.258 . S
O679 Co662 2.020 . S
O679 C676 1.256 . S
O680 Co660 2.062 . S
O680 C676 1.255 . S
O681 C661 1.259 . S
O681 Co662 2.021 . S
H682 C673 0.930 . S
H683 C672 0.931 . S
O684 Co660 2.117 . S
O684 C661 1.258 . S
O685 Co660 2.020 . S
O685 C687 1.256 . S
O686 Co662 2.062 . S
O686 C687 1.255 . S
C687 O685 1.256 . S
C687 O686 1.255 . S
H688 C667 0.931 . S
H689 C675 0.931 . S
Co690 N695 2.057 . S
Co690 O707 2.021 . S
Co690 O710 2.062 . S
Co690 O714 2.117 . S
Co690 O715 2.020 . S
C691 O711 1.259 . S
C691 O714 1.258 . S
Co692 N701 2.057 . S
Co692 O708 2.117 . S
Co692 O709 2.020 . S
Co692 O711 2.021 . S
Co692 O716 2.062 . S
C693 N695 1.316 . S
C693 N696 1.347 . S
C693 H698 0.931 . S
C694 N695 1.375 . S
C694 C697 1.350 . S
C694 H699 0.930 . S
N695 Co690 2.057 . S
N695 C693 1.316 . S
N695 C694 1.375 . S
N696 C693 1.347 . S
N696 C697 1.373 . S
C697 C694 1.350 . S
C697 N696 1.373 . S
C697 H718 0.931 . S
H698 C693 0.931 . S
H699 C694 0.930 . S
C700 O707 1.259 . S
C700 O708 1.258 . S
N701 Co692 2.057 . S
N701 C702 1.316 . S
N701 C703 1.375 . S
C702 N701 1.316 . S
C702 N704 1.347 . S
C702 H713 0.931 . S
C703 N701 1.375 . S
C703 C705 1.350 . S
C703 H712 0.930 . S
N704 C702 1.347 . S
N704 C705 1.373 . S
C705 C703 1.350 . S
C705 N704 1.373 . S
C705 H719 0.931 . S
C706 O709 1.256 . S
C706 O710 1.255 . S
O707 Co690 2.021 . S
O707 C700 1.259 . S
O708 Co692 2.117 . S
O708 C700 1.258 . S
O709 Co692 2.020 . S
O709 C706 1.256 . S
O710 Co690 2.062 . S
O710 C706 1.255 . S
O711 C691 1.259 . S
O711 Co692 2.021 . S
H712 C703 0.930 . S
H713 C702 0.931 . S
O714 Co690 2.117 . S
O714 C691 1.258 . S
O715 Co690 2.020 . S
O715 C717 1.256 . S
O716 Co692 2.062 . S
O716 C717 1.255 . S
C717 O715 1.256 . S
C717 O716 1.255 . S
H718 C697 0.931 . S
H719 C705 0.931 . S
Co720 N725 2.057 . S
Co720 O737 2.021 . S
Co720 O740 2.062 . S
Co720 O744 2.117 . S
Co720 O745 2.020 . S
C721 O741 1.259 . S
C721 O744 1.258 . S
Co722 N731 2.057 . S
Co722 O738 2.117 . S
Co722 O739 2.020 . S
Co722 O741 2.021 . S
Co722 O746 2.062 . S
C723 N725 1.316 . S
C723 N726 1.347 . S
C723 H728 0.931 . S
C724 N725 1.375 . S
C724 C727 1.350 . S
C724 H729 0.930 . S
N725 Co720 2.057 . S
N725 C723 1.316 . S
N725 C724 1.375 . S
N726 C723 1.347 . S
N726 C727 1.373 . S
C727 C724 1.350 . S
C727 N726 1.373 . S
C727 H748 0.931 . S
H728 C723 0.931 . S
H729 C724 0.930 . S
C730 O737 1.259 . S
C730 O738 1.258 . S
N731 Co722 2.057 . S
N731 C732 1.316 . S
N731 C733 1.375 . S
C732 N731 1.316 . S
C732 N734 1.347 . S
C732 H743 0.931 . S
C733 N731 1.375 . S
C733 C735 1.350 . S
C733 H742 0.930 . S
N734 C732 1.347 . S
N734 C735 1.373 . S
C735 C733 1.350 . S
C735 N734 1.373 . S
C735 H749 0.931 . S
C736 O739 1.256 . S
C736 O740 1.255 . S
O737 Co720 2.021 . S
O737 C730 1.259 . S
O738 Co722 2.117 . S
O738 C730 1.258 . S
O739 Co722 2.020 . S
O739 C736 1.256 . S
O740 Co720 2.062 . S
O740 C736 1.255 . S
O741 C721 1.259 . S
O741 Co722 2.021 . S
H742 C733 0.930 . S
H743 C732 0.931 . S
O744 Co720 2.117 . S
O744 C721 1.258 . S
O745 Co720 2.020 . S
O745 C747 1.256 . S
O746 Co722 2.062 . S
O746 C747 1.255 . S
C747 O745 1.256 . S
C747 O746 1.255 . S
H748 C727 0.931 . S
H749 C735 0.931 . S
Co750 N755 2.057 1_556 S
Co750 O767 2.021 1_556 S
Co750 O770 2.062 1_556 S
Co750 O774 2.117 . S
Co750 O775 2.020 . S
C751 O771 1.259 . S
C751 O774 1.258 . S
Co752 N761 2.057 . S
Co752 O768 2.117 . S
Co752 O769 2.020 . S
Co752 O771 2.021 . S
Co752 O776 2.062 . S
C753 N755 1.316 . S
C753 N756 1.347 . S
C753 H758 0.931 . S
C754 N755 1.375 . S
C754 C757 1.350 . S
C754 H759 0.930 . S
N755 Co750 2.057 1_554 S
N755 C753 1.316 . S
N755 C754 1.375 . S
N756 C753 1.347 . S
N756 C757 1.373 . S
C757 C754 1.350 . S
C757 N756 1.373 . S
C757 H778 0.931 . S
H758 C753 0.931 . S
H759 C754 0.930 . S
C760 O767 1.259 1_556 S
C760 O768 1.258 . S
N761 Co752 2.057 . S
N761 C762 1.316 . S
N761 C763 1.375 . S
C762 N761 1.316 . S
C762 N764 1.347 . S
C762 H773 0.931 . S
C763 N761 1.375 . S
C763 C765 1.350 . S
C763 H772 0.930 . S
N764 C762 1.347 . S
N764 C765 1.373 . S
C765 C763 1.350 . S
C765 N764 1.373 . S
C765 H779 0.931 . S
C766 O769 1.256 . S
C766 O770 1.255 1_556 S
O767 Co750 2.021 1_554 S
O767 C760 1.259 1_554 S
O768 Co752 2.117 . S
O768 C760 1.258 . S
O769 Co752 2.020 . S
O769 C766 1.256 . S
O770 Co750 2.062 1_554 S
O770 C766 1.255 1_554 S
O771 C751 1.259 . S
O771 Co752 2.021 . S
H772 C763 0.930 . S
H773 C762 0.931 . S
O774 Co750 2.117 . S
O774 C751 1.258 . S
O775 Co750 2.020 . S
O775 C777 1.256 . S
O776 Co752 2.062 . S
O776 C777 1.255 . S
C777 O775 1.256 . S
C777 O776 1.255 . S
H778 C757 0.931 . S
H779 C765 0.931 . S
Co780 N785 2.057 . S
Co780 O797 2.021 . S
Co780 O800 2.062 . S
Co780 O804 2.117 . S
Co780 O805 2.020 . S
C781 O801 1.259 . S
C781 O804 1.258 . S
Co782 N791 2.057 . S
Co782 O798 2.117 . S
Co782 O799 2.020 . S
Co782 O801 2.021 . S
Co782 O806 2.062 . S
C783 N785 1.316 . S
C783 N786 1.347 1_455 S
C783 H788 0.931 . S
C784 N785 1.375 . S
C784 C787 1.350 1_455 S
C784 H789 0.930 . S
N785 Co780 2.057 . S
N785 C783 1.316 . S
N785 C784 1.375 . S
N786 C783 1.347 1_655 S
N786 C787 1.373 . S
C787 C784 1.350 1_655 S
C787 N786 1.373 . S
C787 H808 0.931 . S
H788 C783 0.931 . S
H789 C784 0.930 . S
C790 O797 1.259 . S
C790 O798 1.258 . S
N791 Co782 2.057 . S
N791 C792 1.316 . S
N791 C793 1.375 . S
C792 N791 1.316 . S
C792 N794 1.347 . S
C792 H803 0.931 . S
C793 N791 1.375 . S
C793 C795 1.350 . S
C793 H802 0.930 . S
N794 C792 1.347 . S
N794 C795 1.373 . S
C795 C793 1.350 . S
C795 N794 1.373 . S
C795 H809 0.931 . S
C796 O799 1.256 . S
C796 O800 1.255 . S
O797 Co780 2.021 . S
O797 C790 1.259 . S
O798 Co782 2.117 . S
O798 C790 1.258 . S
O799 Co782 2.020 . S
O799 C796 1.256 . S
O800 Co780 2.062 . S
O800 C796 1.255 . S
O801 C781 1.259 . S
O801 Co782 2.021 . S
H802 C793 0.930 . S
H803 C792 0.931 . S
O804 Co780 2.117 . S
O804 C781 1.258 . S
O805 Co780 2.020 . S
O805 C807 1.256 . S
O806 Co782 2.062 . S
O806 C807 1.255 . S
C807 O805 1.256 . S
C807 O806 1.255 . S
H808 C787 0.931 . S
H809 C795 0.931 . S
Co810 N815 2.057 . S
Co810 O827 2.021 . S
Co810 O830 2.062 . S
Co810 O834 2.117 . S
Co810 O835 2.020 . S
C811 O831 1.259 . S
C811 O834 1.258 . S
Co812 N821 2.057 . S
Co812 O828 2.117 . S
Co812 O829 2.020 . S
Co812 O831 2.021 . S
Co812 O836 2.062 . S
C813 N815 1.316 . S
C813 N816 1.347 . S
C813 H818 0.931 . S
C814 N815 1.375 . S
C814 C817 1.350 . S
C814 H819 0.930 . S
N815 Co810 2.057 . S
N815 C813 1.316 . S
N815 C814 1.375 . S
N816 C813 1.347 . S
N816 C817 1.373 . S
C817 C814 1.350 . S
C817 N816 1.373 . S
C817 H838 0.931 . S
H818 C813 0.931 . S
H819 C814 0.930 . S
C820 O827 1.259 . S
C820 O828 1.258 . S
N821 Co812 2.057 . S
N821 C822 1.316 . S
N821 C823 1.375 . S
C822 N821 1.316 . S
C822 N824 1.347 . S
C822 H833 0.931 . S
C823 N821 1.375 . S
C823 C825 1.350 . S
C823 H832 0.930 . S
N824 C822 1.347 . S
N824 C825 1.373 . S
C825 C823 1.350 . S
C825 N824 1.373 . S
C825 H839 0.931 . S
C826 O829 1.256 . S
C826 O830 1.255 . S
O827 Co810 2.021 . S
O827 C820 1.259 . S
O828 Co812 2.117 . S
O828 C820 1.258 . S
O829 Co812 2.020 . S
O829 C826 1.256 . S
O830 Co810 2.062 . S
O830 C826 1.255 . S
O831 C811 1.259 . S
O831 Co812 2.021 . S
H832 C823 0.930 . S
H833 C822 0.931 . S
O834 Co810 2.117 . S
O834 C811 1.258 . S
O835 Co810 2.020 . S
O835 C837 1.256 . S
O836 Co812 2.062 . S
O836 C837 1.255 . S
C837 O835 1.256 . S
C837 O836 1.255 . S
H838 C817 0.931 . S
H839 C825 0.931 . S
Co840 N845 2.057 . S
Co840 O857 2.021 . S
Co840 O860 2.062 . S
Co840 O864 2.117 . S
Co840 O865 2.020 . S
C841 O861 1.259 . S
C841 O864 1.258 . S
Co842 N851 2.057 . S
Co842 O858 2.117 . S
Co842 O859 2.020 . S
Co842 O861 2.021 . S
Co842 O866 2.062 . S
C843 N845 1.316 . S
C843 N846 1.347 . S
C843 H848 0.931 . S
C844 N845 1.375 . S
C844 C847 1.350 . S
C844 H849 0.930 . S
N845 Co840 2.057 . S
N845 C843 1.316 . S
N845 C844 1.375 . S
N846 C843 1.347 . S
N846 C847 1.373 . S
C847 C844 1.350 . S
C847 N846 1.373 . S
C847 H868 0.931 . S
H848 C843 0.931 . S
H849 C844 0.930 . S
C850 O857 1.259 . S
C850 O858 1.258 . S
N851 Co842 2.057 . S
N851 C852 1.316 . S
N851 C853 1.375 . S
C852 N851 1.316 . S
C852 N854 1.347 . S
C852 H863 0.931 . S
C853 N851 1.375 . S
C853 C855 1.350 . S
C853 H862 0.930 . S
N854 C852 1.347 . S
N854 C855 1.373 . S
C855 C853 1.350 . S
C855 N854 1.373 . S
C855 H869 0.931 . S
C856 O859 1.256 . S
C856 O860 1.255 . S
O857 Co840 2.021 . S
O857 C850 1.259 . S
O858 Co842 2.117 . S
O858 C850 1.258 . S
O859 Co842 2.020 . S
O859 C856 1.256 . S
O860 Co840 2.062 . S
O860 C856 1.255 . S
O861 C841 1.259 . S
O861 Co842 2.021 . S
H862 C853 0.930 . S
H863 C852 0.931 . S
O864 Co840 2.117 . S
O864 C841 1.258 . S
O865 Co840 2.020 . S
O865 C867 1.256 . S
O866 Co842 2.062 . S
O866 C867 1.255 . S
C867 O865 1.256 . S
C867 O866 1.255 . S
H868 C847 0.931 . S
H869 C855 0.931 . S
Co870 N875 2.057 1_554 S
Co870 O887 2.021 . S
Co870 O890 2.062 . S
Co870 O894 2.117 . S
Co870 O895 2.020 . S
C871 O891 1.259 . S
C871 O894 1.258 . S
Co872 N881 2.057 . S
Co872 O888 2.117 . S
Co872 O889 2.020 . S
Co872 O891 2.021 . S
Co872 O896 2.062 . S
C873 N875 1.316 . S
C873 N876 1.347 . S
C873 H878 0.931 . S
C874 N875 1.375 . S
C874 C877 1.350 . S
C874 H879 0.930 1_556 S
N875 Co870 2.057 1_556 S
N875 C873 1.316 . S
N875 C874 1.375 . S
N876 C873 1.347 . S
N876 C877 1.373 . S
C877 C874 1.350 . S
C877 N876 1.373 . S
C877 H898 0.931 . S
H878 C873 0.931 . S
H879 C874 0.930 1_554 S
C880 O887 1.259 . S
C880 O888 1.258 . S
N881 Co872 2.057 . S
N881 C882 1.316 . S
N881 C883 1.375 . S
C882 N881 1.316 . S
C882 N884 1.347 . S
C882 H893 0.931 . S
C883 N881 1.375 . S
C883 C885 1.350 . S
C883 H892 0.930 . S
N884 C882 1.347 . S
N884 C885 1.373 . S
C885 C883 1.350 . S
C885 N884 1.373 . S
C885 H899 0.931 . S
C886 O889 1.256 . S
C886 O890 1.255 . S
O887 Co870 2.021 . S
O887 C880 1.259 . S
O888 Co872 2.117 . S
O888 C880 1.258 . S
O889 Co872 2.020 . S
O889 C886 1.256 . S
O890 Co870 2.062 . S
O890 C886 1.255 . S
O891 C871 1.259 . S
O891 Co872 2.021 . S
H892 C883 0.930 . S
H893 C882 0.931 . S
O894 Co870 2.117 . S
O894 C871 1.258 . S
O895 Co870 2.020 . S
O895 C897 1.256 . S
O896 Co872 2.062 . S
O896 C897 1.255 . S
C897 O895 1.256 . S
C897 O896 1.255 . S
H898 C877 0.931 . S
H899 C885 0.931 . S
Co900 N905 2.057 . S
Co900 O917 2.021 . S
Co900 O920 2.062 . S
Co900 O924 2.117 . S
Co900 O925 2.020 . S
C901 O921 1.259 . S
C901 O924 1.258 . S
Co902 N911 2.057 . S
Co902 O918 2.117 . S
Co902 O919 2.020 . S
Co902 O921 2.021 . S
Co902 O926 2.062 . S
C903 N905 1.316 . S
C903 N906 1.347 . S
C903 H908 0.931 . S
C904 N905 1.375 . S
C904 C907 1.350 . S
C904 H909 0.930 . S
N905 Co900 2.057 . S
N905 C903 1.316 . S
N905 C904 1.375 . S
N906 C903 1.347 . S
N906 C907 1.373 . S
C907 C904 1.350 . S
C907 N906 1.373 . S
C907 H928 0.931 . S
H908 C903 0.931 . S
H909 C904 0.930 . S
C910 O917 1.259 . S
C910 O918 1.258 . S
N911 Co902 2.057 . S
N911 C912 1.316 . S
N911 C913 1.375 . S
C912 N911 1.316 . S
C912 N914 1.347 . S
C912 H923 0.931 . S
C913 N911 1.375 . S
C913 C915 1.350 . S
C913 H922 0.930 . S
N914 C912 1.347 . S
N914 C915 1.373 . S
C915 C913 1.350 . S
C915 N914 1.373 . S
C915 H929 0.931 . S
C916 O919 1.256 . S
C916 O920 1.255 . S
O917 Co900 2.021 . S
O917 C910 1.259 . S
O918 Co902 2.117 . S
O918 C910 1.258 . S
O919 Co902 2.020 . S
O919 C916 1.256 . S
O920 Co900 2.062 . S
O920 C916 1.255 . S
O921 C901 1.259 . S
O921 Co902 2.021 . S
H922 C913 0.930 . S
H923 C912 0.931 . S
O924 Co900 2.117 . S
O924 C901 1.258 . S
O925 Co900 2.020 . S
O925 C927 1.256 . S
O926 Co902 2.062 . S
O926 C927 1.255 . S
C927 O925 1.256 . S
C927 O926 1.255 . S
H928 C907 0.931 . S
H929 C915 0.931 . S
Co930 N935 2.057 . S
Co930 O947 2.021 . S
Co930 O950 2.062 . S
Co930 O954 2.117 . S
Co930 O955 2.020 . S
C931 O951 1.259 . S
C931 O954 1.258 . S
Co932 N941 2.057 . S
Co932 O948 2.117 . S
Co932 O949 2.020 . S
Co932 O951 2.021 . S
Co932 O956 2.062 . S
C933 N935 1.316 . S
C933 N936 1.347 . S
C933 H938 0.931 . S
C934 N935 1.375 . S
C934 C937 1.350 . S
C934 H939 0.930 . S
N935 Co930 2.057 . S
N935 C933 1.316 . S
N935 C934 1.375 . S
N936 C933 1.347 . S
N936 C937 1.373 . S
C937 C934 1.350 . S
C937 N936 1.373 . S
C937 H958 0.931 . S
H938 C933 0.931 . S
H939 C934 0.930 . S
C940 O947 1.259 . S
C940 O948 1.258 . S
N941 Co932 2.057 . S
N941 C942 1.316 . S
N941 C943 1.375 . S
C942 N941 1.316 . S
C942 N944 1.347 . S
C942 H953 0.931 . S
C943 N941 1.375 . S
C943 C945 1.350 . S
C943 H952 0.930 . S
N944 C942 1.347 . S
N944 C945 1.373 . S
C945 C943 1.350 . S
C945 N944 1.373 . S
C945 H959 0.931 . S
C946 O949 1.256 . S
C946 O950 1.255 . S
O947 Co930 2.021 . S
O947 C940 1.259 . S
O948 Co932 2.117 . S
O948 C940 1.258 . S
O949 Co932 2.020 . S
O949 C946 1.256 . S
O950 Co930 2.062 . S
O950 C946 1.255 . S
O951 C931 1.259 . S
O951 Co932 2.021 . S
H952 C943 0.930 . S
H953 C942 0.931 . S
O954 Co930 2.117 . S
O954 C931 1.258 . S
O955 Co930 2.020 . S
O955 C957 1.256 . S
O956 Co932 2.062 . S
O956 C957 1.255 . S
C957 O955 1.256 . S
C957 O956 1.255 . S
H958 C937 0.931 . S
H959 C945 0.931 . S
C960 C961 1.369 . S
C960 C962 1.419 . S
C960 H964 0.930 . S
C961 C960 1.369 . S
C961 C970 1.429 . S
C962 C960 1.419 . S
C962 C963 1.363 . S
C962 H965 0.929 . S
C963 C962 1.363 . S
C963 C969 1.428 . S
H964 C960 0.930 . S
H965 C962 0.929 . S
S966 N967 1.613 . S
S966 N968 1.610 . S
N967 S966 1.613 . S
N967 C970 1.350 . S
N968 S966 1.610 . S
N968 C969 1.351 . S
C969 C963 1.428 . S
C969 N968 1.351 . S
C969 C970 1.434 . S
C970 C961 1.429 . S
C970 N967 1.350 . S
C970 C969 1.434 . S
C971 C972 1.369 . S
C971 C973 1.419 1_545 S
C971 H975 0.930 . S
C972 C971 1.369 . S
C972 C981 1.429 1_545 S
C973 C971 1.419 1_565 S
C973 C974 1.363 . S
C973 H976 0.929 . S
C974 C973 1.363 . S
C974 C980 1.428 . S
H975 C971 0.930 . S
H976 C973 0.929 . S
S977 N978 1.613 . S
S977 N979 1.610 . S
N978 S977 1.613 . S
N978 C981 1.350 . S
N979 S977 1.610 . S
N979 C980 1.351 . S
C980 C974 1.428 . S
C980 N979 1.351 . S
C980 C981 1.434 . S
C981 C972 1.429 1_565 S
C981 N978 1.350 . S
C981 C980 1.434 . S
C982 C983 1.369 . S
C982 C984 1.419 . S
C982 H986 0.930 . S
C983 C982 1.369 . S
C983 C992 1.429 . S
C984 C982 1.419 . S
C984 C985 1.363 . S
C984 H987 0.929 . S
C985 C984 1.363 . S
C985 C991 1.428 . S
H986 C982 0.930 . S
H987 C984 0.929 . S
S988 N989 1.613 . S
S988 N990 1.610 . S
N989 S988 1.613 . S
N989 C992 1.350 . S
N990 S988 1.610 . S
N990 C991 1.351 . S
C991 C985 1.428 . S
C991 N990 1.351 . S
C991 C992 1.434 . S
C992 C983 1.429 . S
C992 N989 1.350 . S
C992 C991 1.434 . S
C993 C994 1.369 . S
C993 C995 1.419 . S
C993 H997 0.930 . S
C994 C993 1.369 . S
C994 C1003 1.429 . S
C995 C993 1.419 . S
C995 C996 1.363 . S
C995 H998 0.929 . S
C996 C995 1.363 . S
C996 C1002 1.428 . S
H997 C993 0.930 . S
H998 C995 0.929 . S
S999 N1000 1.613 . S
S999 N1001 1.610 . S
N1000 S999 1.613 . S
N1000 C1003 1.350 . S
N1001 S999 1.610 . S
N1001 C1002 1.351 . S
C1002 C996 1.428 . S
C1002 N1001 1.351 . S
C1002 C1003 1.434 . S
C1003 C994 1.429 . S
C1003 N1000 1.350 . S
C1003 C1002 1.434 . S
C1004 C1005 1.369 . S
C1004 C1006 1.419 . S
C1004 H1008 0.930 . S
C1005 C1004 1.369 . S
C1005 C1014 1.429 . S
C1006 C1004 1.419 . S
C1006 C1007 1.363 . S
C1006 H1009 0.929 . S
C1007 C1006 1.363 . S
C1007 C1013 1.428 . S
H1008 C1004 0.930 . S
H1009 C1006 0.929 . S
S1010 N1011 1.613 . S
S1010 N1012 1.610 . S
N1011 S1010 1.613 . S
N1011 C1014 1.350 . S
N1012 S1010 1.610 . S
N1012 C1013 1.351 . S
C1013 C1007 1.428 . S
C1013 N1012 1.351 . S
C1013 C1014 1.434 . S
C1014 C1005 1.429 . S
C1014 N1011 1.350 . S
C1014 C1013 1.434 . S
C1015 C1016 1.369 . S
C1015 C1017 1.419 1_565 S
C1015 H1019 0.930 . S
C1016 C1015 1.369 . S
C1016 C1025 1.429 . S
C1017 C1015 1.419 1_545 S
C1017 C1018 1.363 . S
C1017 H1020 0.929 . S
C1018 C1017 1.363 . S
C1018 C1024 1.438 . S
H1019 C1015 0.930 . S
H1020 C1017 0.929 . S
S1021 N1022 1.613 . S
S1021 N1023 1.610 . S
N1022 S1021 1.613 . S
N1022 C1025 1.350 . S
N1023 S1021 1.610 . S
N1023 C1024 1.351 1_565 S
C1024 C1018 1.438 . S
C1024 N1023 1.351 1_545 S
C1024 C1025 1.423 1_545 S
C1025 C1016 1.429 . S
C1025 N1022 1.350 . S
C1025 C1024 1.423 1_565 S
C1026 C1027 1.369 . S
C1026 C1028 1.419 . S
C1026 H1030 0.930 . S
C1027 C1026 1.369 . S
C1027 C1036 1.429 . S
C1028 C1026 1.419 . S
C1028 C1029 1.363 . S
C1028 H1031 0.929 . S
C1029 C1028 1.363 . S
C1029 C1035 1.428 . S
H1030 C1026 0.930 . S
H1031 C1028 0.929 . S
S1032 N1033 1.613 . S
S1032 N1034 1.610 . S
N1033 S1032 1.613 . S
N1033 C1036 1.350 . S
N1034 S1032 1.610 . S
N1034 C1035 1.351 . S
C1035 C1029 1.428 . S
C1035 N1034 1.351 . S
C1035 C1036 1.434 . S
C1036 C1027 1.429 . S
C1036 N1033 1.350 . S
C1036 C1035 1.434 . S
C1037 C1038 1.369 . S
C1037 C1039 1.419 1_565 S
C1037 H1041 0.930 1_556 S
C1038 C1037 1.369 . S
C1038 C1047 1.429 . S
C1039 C1037 1.419 1_545 S
C1039 C1040 1.363 . S
C1039 H1042 0.929 . S
C1040 C1039 1.363 . S
C1040 C1046 1.428 . S
H1041 C1037 0.930 1_554 S
H1042 C1039 0.929 . S
S1043 N1044 1.609 1_545 S
S1043 N1045 1.614 . S
N1044 S1043 1.609 1_565 S
N1044 C1047 1.350 . S
N1045 S1043 1.614 . S
N1045 C1046 1.351 . S
C1046 C1040 1.428 . S
C1046 N1045 1.351 . S
C1046 C1047 1.434 1_545 S
C1047 C1038 1.429 . S
C1047 N1044 1.350 . S
C1047 C1046 1.434 1_565 S
C1048 C1049 1.369 . S
C1048 C1050 1.419 . S
C1048 H1052 0.930 . S
C1049 C1048 1.369 . S
C1049 C1058 1.429 . S
C1050 C1048 1.419 . S
C1050 C1051 1.363 . S
C1050 H1053 0.929 . S
C1051 C1050 1.363 . S
C1051 C1057 1.428 . S
H1052 C1048 0.930 . S
H1053 C1050 0.929 . S
S1054 N1055 1.613 . S
S1054 N1056 1.610 . S
N1055 S1054 1.613 . S
N1055 C1058 1.350 . S
N1056 S1054 1.610 . S
N1056 C1057 1.351 . S
C1057 C1051 1.428 . S
C1057 N1056 1.351 . S
C1057 C1058 1.434 . S
C1058 C1049 1.429 . S
C1058 N1055 1.350 . S
C1058 C1057 1.434 . S
C1059 C1060 1.369 . S
C1059 C1061 1.419 . S
C1059 H1063 0.930 . S
C1060 C1059 1.369 . S
C1060 C1069 1.429 . S
C1061 C1059 1.419 . S
C1061 C1062 1.363 1_545 S
C1061 H1064 0.929 . S
C1062 C1061 1.363 1_565 S
C1062 C1068 1.428 . S
H1063 C1059 0.930 . S
H1064 C1061 0.929 . S
S1065 N1066 1.613 . S
S1065 N1067 1.610 . S
N1066 S1065 1.613 . S
N1066 C1069 1.350 1_565 S
N1067 S1065 1.610 . S
N1067 C1068 1.351 . S
C1068 C1062 1.428 . S
C1068 N1067 1.351 . S
C1068 C1069 1.434 1_565 S
C1069 C1060 1.429 . S
C1069 N1066 1.350 1_545 S
C1069 C1068 1.434 1_545 S
C1070 C1071 1.369 . S
C1070 C1072 1.419 . S
C1070 H1074 0.930 . S
C1071 C1070 1.369 . S
C1071 C1080 1.429 . S
C1072 C1070 1.419 . S
C1072 C1073 1.363 . S
C1072 H1075 0.929 . S
C1073 C1072 1.363 . S
C1073 C1079 1.428 . S
H1074 C1070 0.930 . S
H1075 C1072 0.929 . S
S1076 N1077 1.613 . S
S1076 N1078 1.610 . S
N1077 S1076 1.613 . S
N1077 C1080 1.350 . S
N1078 S1076 1.610 . S
N1078 C1079 1.351 . S
C1079 C1073 1.428 . S
C1079 N1078 1.351 . S
C1079 C1080 1.434 . S
C1080 C1071 1.429 . S
C1080 N1077 1.350 . S
C1080 C1079 1.434 . S
C1081 C1082 1.369 . S
C1081 C1083 1.419 . S
C1081 H1085 0.930 . S
C1082 C1081 1.369 . S
C1082 C1091 1.429 . S
C1083 C1081 1.419 . S
C1083 C1084 1.363 . S
C1083 H1086 0.929 . S
C1084 C1083 1.363 . S
C1084 C1090 1.428 . S
H1085 C1081 0.930 . S
H1086 C1083 0.929 . S
S1087 N1088 1.613 . S
S1087 N1089 1.610 . S
N1088 S1087 1.613 . S
N1088 C1091 1.350 . S
N1089 S1087 1.610 . S
N1089 C1090 1.351 . S
C1090 C1084 1.428 . S
C1090 N1089 1.351 . S
C1090 C1091 1.434 . S
C1091 C1082 1.429 . S
C1091 N1088 1.350 . S
C1091 C1090 1.434 . S
C1092 C1093 1.369 . S
C1092 C1094 1.419 . S
C1092 H1096 0.930 . S
C1093 C1092 1.369 . S
C1093 C1102 1.429 . S
C1094 C1092 1.419 . S
C1094 C1095 1.363 . S
C1094 H1097 0.929 . S
C1095 C1094 1.363 . S
C1095 C1101 1.428 . S
H1096 C1092 0.930 . S
H1097 C1094 0.929 . S
S1098 N1099 1.613 . S
S1098 N1100 1.610 . S
N1099 S1098 1.613 . S
N1099 C1102 1.350 . S
N1100 S1098 1.610 . S
N1100 C1101 1.351 . S
C1101 C1095 1.428 . S
C1101 N1100 1.351 . S
C1101 C1102 1.434 . S
C1102 C1093 1.429 . S
C1102 N1099 1.350 . S
C1102 C1101 1.434 . S
C1103 C1104 1.369 . S
C1103 C1105 1.419 1_545 S
C1103 H1107 0.930 . S
C1104 C1103 1.369 . S
C1104 C1113 1.429 . S
C1105 C1103 1.419 1_565 S
C1105 C1106 1.363 . S
C1105 H1108 0.929 . S
C1106 C1105 1.363 . S
C1106 C1112 1.428 . S
H1107 C1103 0.930 . S
H1108 C1105 0.929 . S
S1109 N1110 1.613 . S
S1109 N1111 1.590 1_545 S
N1110 S1109 1.613 . S
N1110 C1113 1.350 . S
N1111 S1109 1.590 1_565 S
N1111 C1112 1.351 . S
C1112 C1106 1.428 . S
C1112 N1111 1.351 . S
C1112 C1113 1.434 1_565 S
C1113 C1104 1.429 . S
C1113 N1110 1.350 . S
C1113 C1112 1.434 1_545 S
C1114 C1115 1.369 . S
C1114 C1116 1.419 . S
C1114 H1118 0.930 . S
C1115 C1114 1.369 . S
C1115 C1124 1.429 . S
C1116 C1114 1.419 . S
C1116 C1117 1.363 . S
C1116 H1119 0.929 . S
C1117 C1116 1.363 . S
C1117 C1123 1.428 . S
H1118 C1114 0.930 . S
H1119 C1116 0.929 . S
S1120 N1121 1.613 . S
S1120 N1122 1.610 . S
N1121 S1120 1.613 . S
N1121 C1124 1.350 . S
N1122 S1120 1.610 . S
N1122 C1123 1.351 . S
C1123 C1117 1.428 . S
C1123 N1122 1.351 . S
C1123 C1124 1.434 . S
C1124 C1115 1.429 . S
C1124 N1121 1.350 . S
C1124 C1123 1.434 . S
C1125 C1126 1.369 1_556 S
C1125 C1127 1.419 1_545 S
C1125 H1129 0.930 . S
C1126 C1125 1.369 1_554 S
C1126 C1135 1.429 . S
C1127 C1125 1.419 1_565 S
C1127 C1128 1.363 1_556 S
C1127 H1130 0.929 . S
C1128 C1127 1.363 1_554 S
C1128 C1134 1.428 . S
H1129 C1125 0.930 . S
H1130 C1127 0.929 . S
S1131 N1132 1.613 . S
S1131 N1133 1.610 1_545 S
N1132 S1131 1.613 . S
N1132 C1135 1.350 . S
N1133 S1131 1.610 1_565 S
N1133 C1134 1.351 . S
C1134 C1128 1.428 . S
C1134 N1133 1.351 . S
C1134 C1135 1.434 1_565 S
C1135 C1126 1.429 . S
C1135 N1132 1.350 . S
C1135 C1134 1.434 1_545 S
C1136 C1137 1.369 . S
C1136 C1138 1.419 . S
C1136 H1140 0.930 . S
C1137 C1136 1.369 . S
C1137 C1146 1.429 . S
C1138 C1136 1.419 . S
C1138 C1139 1.363 . S
C1138 H1141 0.929 . S
C1139 C1138 1.363 . S
C1139 C1145 1.428 . S
H1140 C1136 0.930 . S
H1141 C1138 0.929 . S
S1142 N1143 1.613 . S
S1142 N1144 1.610 . S
N1143 S1142 1.613 . S
N1143 C1146 1.350 . S
N1144 S1142 1.610 . S
N1144 C1145 1.351 . S
C1145 C1139 1.428 . S
C1145 N1144 1.351 . S
C1145 C1146 1.434 . S
C1146 C1137 1.429 . S
C1146 N1143 1.350 . S
C1146 C1145 1.434 . S
C1147 C1148 1.369 . S
C1147 C1149 1.419 . S
C1147 H1151 0.930 . S
C1148 C1147 1.369 . S
C1148 C1157 1.429 . S
C1149 C1147 1.419 . S
C1149 C1150 1.363 . S
C1149 H1152 0.929 . S
C1150 C1149 1.363 . S
C1150 C1156 1.428 . S
H1151 C1147 0.930 . S
H1152 C1149 0.929 . S
S1153 N1154 1.613 1_554 S
S1153 N1155 1.610 . S
N1154 S1153 1.613 1_556 S
N1154 C1157 1.350 . S
N1155 S1153 1.610 . S
N1155 C1156 1.351 1_554 S
C1156 C1150 1.428 . S
C1156 N1155 1.351 1_556 S
C1156 C1157 1.434 . S
C1157 C1148 1.429 . S
C1157 N1154 1.350 . S
C1157 C1156 1.434 . S
C1158 C1159 1.369 . S
C1158 C1160 1.419 . S
C1158 H1162 0.930 . S
C1159 C1158 1.369 . S
C1159 C1168 1.429 . S
C1160 C1158 1.419 . S
C1160 C1161 1.363 . S
C1160 H1163 0.929 . S
C1161 C1160 1.363 . S
C1161 C1167 1.428 . S
H1162 C1158 0.930 . S
H1163 C1160 0.929 . S
S1164 N1165 1.613 . S
S1164 N1166 1.610 . S
N1165 S1164 1.613 . S
N1165 C1168 1.350 . S
N1166 S1164 1.610 . S
N1166 C1167 1.351 . S
C1167 C1161 1.428 . S
C1167 N1166 1.351 . S
C1167 C1168 1.434 . S
C1168 C1159 1.429 . S
C1168 N1165 1.350 . S
C1168 C1167 1.434 . S
C1169 C1170 1.369 . S
C1169 C1171 1.419 . S
C1169 H1173 0.930 . S
C1170 C1169 1.369 . S
C1170 C1179 1.429 . S
C1171 C1169 1.419 . S
C1171 C1172 1.363 . S
C1171 H1174 0.929 . S
C1172 C1171 1.363 . S
C1172 C1178 1.428 . S
H1173 C1169 0.930 . S
H1174 C1171 0.929 . S
S1175 N1176 1.613 . S
S1175 N1177 1.610 . S
N1176 S1175 1.613 . S
N1176 C1179 1.350 . S
N1177 S1175 1.610 . S
N1177 C1178 1.351 . S
C1178 C1172 1.428 . S
C1178 N1177 1.351 . S
C1178 C1179 1.434 . S
C1179 C1170 1.429 . S
C1179 N1176 1.350 . S
C1179 C1178 1.434 . S
C1180 C1181 1.369 . S
C1180 C1182 1.419 . S
C1180 H1184 0.930 . S
C1181 C1180 1.369 . S
C1181 C1190 1.429 . S
C1182 C1180 1.419 . S
C1182 C1183 1.363 . S
C1182 H1185 0.929 . S
C1183 C1182 1.363 . S
C1183 C1189 1.428 . S
H1184 C1180 0.930 . S
H1185 C1182 0.929 . S
S1186 N1187 1.613 . S
S1186 N1188 1.610 . S
N1187 S1186 1.613 . S
N1187 C1190 1.350 . S
N1188 S1186 1.610 . S
N1188 C1189 1.351 . S
C1189 C1183 1.428 . S
C1189 N1188 1.351 . S
C1189 C1190 1.434 . S
C1190 C1181 1.429 . S
C1190 N1187 1.350 . S
C1190 C1189 1.434 . S
C1191 C1192 1.369 1_556 S
C1191 C1193 1.419 . S
C1191 H1195 0.930 . S
C1192 C1191 1.369 1_554 S
C1192 C1201 1.429 . S
C1193 C1191 1.419 . S
C1193 C1194 1.363 . S
C1193 H1196 0.929 . S
C1194 C1193 1.363 . S
C1194 C1200 1.428 1_556 S
H1195 C1191 0.930 . S
H1196 C1193 0.929 . S
S1197 N1198 1.613 . S
S1197 N1199 1.610 . S
N1198 S1197 1.613 . S
N1198 C1201 1.350 . S
N1199 S1197 1.610 . S
N1199 C1200 1.351 . S
C1200 C1194 1.428 1_554 S
C1200 N1199 1.351 . S
C1200 C1201 1.434 . S
C1201 C1192 1.429 . S
C1201 N1198 1.350 . S
C1201 C1200 1.434 . S
C1202 C1203 1.369 . S
C1202 C1204 1.419 . S
C1202 H1206 0.930 . S
C1203 C1202 1.369 . S
C1203 C1212 1.429 . S
C1204 C1202 1.419 . S
C1204 C1205 1.363 . S
C1204 H1207 0.929 . S
C1205 C1204 1.363 . S
C1205 C1211 1.428 . S
H1206 C1202 0.930 . S
H1207 C1204 0.929 . S
S1208 N1209 1.613 . S
S1208 N1210 1.610 . S
N1209 S1208 1.613 . S
N1209 C1212 1.350 . S
N1210 S1208 1.610 . S
N1210 C1211 1.351 . S
C1211 C1205 1.428 . S
C1211 N1210 1.351 . S
C1211 C1212 1.434 . S
C1212 C1203 1.429 . S
C1212 N1209 1.350 . S
C1212 C1211 1.434 . S
C1213 C1214 1.369 . S
C1213 C1215 1.419 . S
C1213 H1217 0.930 . S
C1214 C1213 1.369 . S
C1214 C1223 1.429 . S
C1215 C1213 1.419 . S
C1215 C1216 1.363 . S
C1215 H1218 0.929 . S
C1216 C1215 1.363 . S
C1216 C1222 1.428 . S
H1217 C1213 0.930 . S
H1218 C1215 0.929 . S
S1219 N1220 1.613 . S
S1219 N1221 1.610 . S
N1220 S1219 1.613 . S
N1220 C1223 1.350 . S
N1221 S1219 1.610 . S
N1221 C1222 1.351 . S
C1222 C1216 1.428 . S
C1222 N1221 1.351 . S
C1222 C1223 1.434 . S
C1223 C1214 1.429 . S
C1223 N1220 1.350 . S
C1223 C1222 1.434 . S
C1224 C1225 1.369 . S
C1224 C1226 1.419 . S
C1224 H1228 0.930 . S
C1225 C1224 1.369 . S
C1225 C1234 1.429 . S
C1226 C1224 1.419 . S
C1226 C1227 1.363 . S
C1226 H1229 0.929 . S
C1227 C1226 1.363 . S
C1227 C1233 1.428 . S
H1228 C1224 0.930 . S
H1229 C1226 0.929 . S
S1230 N1231 1.613 . S
S1230 N1232 1.610 . S
N1231 S1230 1.613 . S
N1231 C1234 1.350 . S
N1232 S1230 1.610 . S
N1232 C1233 1.351 . S
C1233 C1227 1.428 . S
C1233 N1232 1.351 . S
C1233 C1234 1.434 . S
C1234 C1225 1.429 . S
C1234 N1231 1.350 . S
C1234 C1233 1.434 . S
C1235 C1236 1.369 . S
C1235 C1237 1.419 . S
C1235 H1239 0.930 . S
C1236 C1235 1.369 . S
C1236 C1245 1.429 . S
C1237 C1235 1.419 . S
C1237 C1238 1.363 . S
C1237 H1240 0.929 1_554 S
C1238 C1237 1.363 . S
C1238 C1244 1.428 . S
H1239 C1235 0.930 . S
H1240 C1237 0.929 1_556 S
S1241 N1242 1.613 . S
S1241 N1243 1.610 . S
N1242 S1241 1.613 . S
N1242 C1245 1.350 . S
N1243 S1241 1.610 . S
N1243 C1244 1.351 . S
C1244 C1238 1.428 . S
C1244 N1243 1.351 . S
C1244 C1245 1.434 . S
C1245 C1236 1.429 . S
C1245 N1242 1.350 . S
C1245 C1244 1.434 . S
C1246 C1247 1.369 . S
C1246 C1248 1.419 . S
C1246 H1250 0.930 . S
C1247 C1246 1.369 . S
C1247 C1256 1.429 . S
C1248 C1246 1.419 . S
C1248 C1249 1.363 . S
C1248 H1251 0.929 . S
C1249 C1248 1.363 . S
C1249 C1255 1.428 . S
H1250 C1246 0.930 . S
H1251 C1248 0.929 . S
S1252 N1253 1.613 . S
S1252 N1254 1.610 . S
N1253 S1252 1.613 . S
N1253 C1256 1.350 . S
N1254 S1252 1.610 . S
N1254 C1255 1.351 . S
C1255 C1249 1.428 . S
C1255 N1254 1.351 . S
C1255 C1256 1.434 . S
C1256 C1247 1.429 . S
C1256 N1253 1.350 . S
C1256 C1255 1.434 . S
C1257 C1258 1.369 . S
C1257 C1259 1.419 . S
C1257 H1261 0.930 . S
C1258 C1257 1.369 . S
C1258 C1267 1.429 . S
C1259 C1257 1.419 . S
C1259 C1260 1.363 . S
C1259 H1262 0.929 . S
C1260 C1259 1.363 . S
C1260 C1266 1.428 . S
H1261 C1257 0.930 . S
H1262 C1259 0.929 . S
S1263 N1264 1.613 . S
S1263 N1265 1.610 . S
N1264 S1263 1.613 . S
N1264 C1267 1.350 . S
N1265 S1263 1.610 . S
N1265 C1266 1.351 . S
C1266 C1260 1.428 . S
C1266 N1265 1.351 . S
C1266 C1267 1.434 . S
C1267 C1258 1.429 . S
C1267 N1264 1.350 . S
C1267 C1266 1.434 . S
C1268 C1269 1.369 . S
C1268 C1270 1.419 . S
C1268 H1272 0.930 . S
C1269 C1268 1.369 . S
C1269 C1278 1.429 . S
C1270 C1268 1.419 . S
C1270 C1271 1.363 . S
C1270 H1273 0.929 . S
C1271 C1270 1.363 . S
C1271 C1277 1.428 . S
H1272 C1268 0.930 . S
H1273 C1270 0.929 . S
S1274 N1275 1.613 . S
S1274 N1276 1.610 . S
N1275 S1274 1.613 . S
N1275 C1278 1.350 . S
N1276 S1274 1.610 . S
N1276 C1277 1.351 . S
C1277 C1271 1.428 . S
C1277 N1276 1.351 . S
C1277 C1278 1.434 . S
C1278 C1269 1.429 . S
C1278 N1275 1.350 . S
C1278 C1277 1.434 . S
C1279 C1280 1.369 . S
C1279 C1281 1.419 . S
C1279 H1283 0.930 . S
C1280 C1279 1.369 . S
C1280 C1289 1.429 1_556 S
C1281 C1279 1.419 . S
C1281 C1282 1.363 1_556 S
C1281 H1284 0.929 . S
C1282 C1281 1.363 1_554 S
C1282 C1288 1.428 . S
H1283 C1279 0.930 . S
H1284 C1281 0.929 . S
S1285 N1286 1.613 . S
S1285 N1287 1.610 . S
N1286 S1285 1.613 . S
N1286 C1289 1.350 . S
N1287 S1285 1.610 . S
N1287 C1288 1.351 . S
C1288 C1282 1.428 . S
C1288 N1287 1.351 . S
C1288 C1289 1.434 . S
C1289 C1280 1.429 1_554 S
C1289 N1286 1.350 . S
C1289 C1288 1.434 . S
C1290 C1291 1.369 . S
C1290 C1292 1.419 . S
C1290 H1294 0.930 . S
C1291 C1290 1.369 . S
C1291 C1300 1.429 . S
C1292 C1290 1.419 . S
C1292 C1293 1.363 . S
C1292 H1295 0.929 . S
C1293 C1292 1.363 . S
C1293 C1299 1.428 . S
H1294 C1290 0.930 . S
H1295 C1292 0.929 . S
S1296 N1297 1.613 . S
S1296 N1298 1.610 . S
N1297 S1296 1.613 . S
N1297 C1300 1.350 . S
N1298 S1296 1.610 . S
N1298 C1299 1.351 . S
C1299 C1293 1.428 . S
C1299 N1298 1.351 . S
C1299 C1300 1.434 . S
C1300 C1291 1.429 . S
C1300 N1297 1.350 . S
C1300 C1299 1.434 . S
C1301 C1302 1.369 . S
C1301 C1303 1.419 . S
C1301 H1305 0.930 . S
C1302 C1301 1.369 . S
C1302 C1311 1.429 . S
C1303 C1301 1.419 . S
C1303 C1304 1.363 . S
C1303 H1306 0.929 . S
C1304 C1303 1.363 . S
C1304 C1310 1.428 . S
H1305 C1301 0.930 . S
H1306 C1303 0.929 . S
S1307 N1308 1.613 . S
S1307 N1309 1.610 . S
N1308 S1307 1.613 . S
N1308 C1311 1.350 . S
N1309 S1307 1.610 . S
N1309 C1310 1.351 . S
C1310 C1304 1.428 . S
C1310 N1309 1.351 . S
C1310 C1311 1.434 . S
C1311 C1302 1.429 . S
C1311 N1308 1.350 . S
C1311 C1310 1.434 . S
C1312 C1313 1.369 . S
C1312 C1314 1.419 . S
C1312 H1316 0.930 . S
C1313 C1312 1.369 . S
C1313 C1322 1.429 . S
C1314 C1312 1.419 . S
C1314 C1315 1.363 . S
C1314 H1317 0.929 . S
C1315 C1314 1.363 . S
C1315 C1321 1.428 . S
H1316 C1312 0.930 . S
H1317 C1314 0.929 . S
S1318 N1319 1.613 . S
S1318 N1320 1.610 . S
N1319 S1318 1.613 . S
N1319 C1322 1.350 . S
N1320 S1318 1.610 . S
N1320 C1321 1.351 . S
C1321 C1315 1.428 . S
C1321 N1320 1.351 . S
C1321 C1322 1.434 . S
C1322 C1313 1.429 . S
C1322 N1319 1.350 . S
C1322 C1321 1.434 . S
C1323 C1324 1.369 . S
C1323 C1325 1.419 . S
C1323 H1327 0.930 . S
C1324 C1323 1.369 . S
C1324 C1333 1.429 . S
C1325 C1323 1.419 . S
C1325 C1326 1.363 . S
C1325 H1328 0.929 . S
C1326 C1325 1.363 . S
C1326 C1332 1.428 . S
H1327 C1323 0.930 . S
H1328 C1325 0.929 . S
S1329 N1330 1.613 . S
S1329 N1331 1.623 . S
N1330 S1329 1.613 . S
N1330 C1333 1.350 . S
N1331 S1329 1.623 . S
N1331 C1332 1.368 . S
C1332 C1326 1.428 . S
C1332 N1331 1.368 . S
C1332 C1333 1.434 . S
C1333 C1324 1.429 . S
C1333 N1330 1.350 . S
C1333 C1332 1.434 . S
C1334 C1335 1.369 . S
C1334 C1336 1.419 . S
C1334 H1338 0.930 . S
C1335 C1334 1.369 . S
C1335 C1344 1.429 . S
C1336 C1334 1.419 . S
C1336 C1337 1.363 . S
C1336 H1339 0.929 . S
C1337 C1336 1.363 . S
C1337 C1343 1.428 . S
H1338 C1334 0.930 . S
H1339 C1336 0.929 . S
S1340 N1341 1.613 . S
S1340 N1342 1.610 . S
N1341 S1340 1.613 . S
N1341 C1344 1.350 . S
N1342 S1340 1.610 . S
N1342 C1343 1.351 . S
C1343 C1337 1.428 . S
C1343 N1342 1.351 . S
C1343 C1344 1.434 . S
C1344 C1335 1.429 . S
C1344 N1341 1.350 . S
C1344 C1343 1.434 . S
C1345 C1346 1.369 . S
C1345 C1347 1.419 . S
C1345 H1349 0.930 . S
C1346 C1345 1.369 . S
C1346 C1355 1.429 . S
C1347 C1345 1.419 . S
C1347 C1348 1.363 . S
C1347 H1350 0.929 . S
C1348 C1347 1.363 . S
C1348 C1354 1.428 . S
H1349 C1345 0.930 . S
H1350 C1347 0.929 . S
S1351 N1352 1.613 . S
S1351 N1353 1.610 . S
N1352 S1351 1.613 . S
N1352 C1355 1.350 . S
N1353 S1351 1.610 . S
N1353 C1354 1.351 . S
C1354 C1348 1.428 . S
C1354 N1353 1.351 . S
C1354 C1355 1.434 . S
C1355 C1346 1.429 . S
C1355 N1352 1.350 . S
C1355 C1354 1.434 . S
C1356 C1357 1.369 . S
C1356 C1358 1.419 . S
C1356 H1360 0.930 . S
C1357 C1356 1.369 . S
C1357 C1366 1.429 . S
C1358 C1356 1.419 . S
C1358 C1359 1.363 . S
C1358 H1361 0.929 . S
C1359 C1358 1.363 . S
C1359 C1365 1.428 . S
H1360 C1356 0.930 . S
H1361 C1358 0.929 . S
S1362 N1363 1.613 . S
S1362 N1364 1.610 . S
N1363 S1362 1.613 . S
N1363 C1366 1.350 . S
N1364 S1362 1.610 . S
N1364 C1365 1.351 . S
C1365 C1359 1.428 . S
C1365 N1364 1.351 . S
C1365 C1366 1.434 . S
C1366 C1357 1.429 . S
C1366 N1363 1.350 . S
C1366 C1365 1.434 . S
C1367 C1368 1.369 . S
C1367 C1369 1.419 . S
C1367 H1371 0.930 . S
C1368 C1367 1.369 . S
C1368 C1377 1.429 . S
C1369 C1367 1.419 . S
C1369 C1370 1.363 . S
C1369 H1372 0.929 . S
C1370 C1369 1.363 . S
C1370 C1376 1.428 . S
H1371 C1367 0.930 . S
H1372 C1369 0.929 . S
S1373 N1374 1.613 . S
S1373 N1375 1.610 . S
N1374 S1373 1.613 . S
N1374 C1377 1.350 . S
N1375 S1373 1.610 . S
N1375 C1376 1.351 . S
C1376 C1370 1.428 . S
C1376 N1375 1.351 . S
C1376 C1377 1.434 . S
C1377 C1368 1.429 . S
C1377 N1374 1.350 . S
C1377 C1376 1.434 . S
C1378 C1379 1.369 . S
C1378 C1380 1.419 . S
C1378 H1382 0.930 . S
C1379 C1378 1.369 . S
C1379 C1388 1.429 . S
C1380 C1378 1.419 . S
C1380 C1381 1.363 . S
C1380 H1383 0.929 . S
C1381 C1380 1.363 . S
C1381 C1387 1.428 . S
H1382 C1378 0.930 . S
H1383 C1380 0.929 . S
S1384 N1385 1.613 . S
S1384 N1386 1.610 . S
N1385 S1384 1.613 . S
N1385 C1388 1.350 . S
N1386 S1384 1.610 . S
N1386 C1387 1.351 . S
C1387 C1381 1.428 . S
C1387 N1386 1.351 . S
C1387 C1388 1.434 . S
C1388 C1379 1.429 . S
C1388 N1385 1.350 . S
C1388 C1387 1.434 . S
C1389 C1390 1.369 . S
C1389 C1391 1.419 1_455 S
C1389 H1393 0.930 . S
C1390 C1389 1.369 . S
C1390 C1399 1.429 . S
C1391 C1389 1.419 1_655 S
C1391 C1392 1.363 . S
C1391 H1394 0.929 . S
C1392 C1391 1.363 . S
C1392 C1398 1.428 . S
H1393 C1389 0.930 . S
H1394 C1391 0.929 . S
S1395 N1396 1.613 . S
S1395 N1397 1.610 1_455 S
N1396 S1395 1.613 . S
N1396 C1399 1.350 . S
N1397 S1395 1.610 1_655 S
N1397 C1398 1.351 . S
C1398 C1392 1.428 . S
C1398 N1397 1.351 . S
C1398 C1399 1.434 1_655 S
C1399 C1390 1.429 . S
C1399 N1396 1.350 . S
C1399 C1398 1.434 1_455 S
C1400 C1401 1.369 . S
C1400 C1402 1.419 . S
C1400 H1404 0.930 . S
C1401 C1400 1.369 . S
C1401 C1410 1.429 . S
C1402 C1400 1.419 . S
C1402 C1403 1.363 . S
C1402 H1405 0.929 . S
C1403 C1402 1.363 . S
C1403 C1409 1.428 . S
H1404 C1400 0.930 . S
H1405 C1402 0.929 . S
S1406 N1407 1.613 . S
S1406 N1408 1.610 . S
N1407 S1406 1.613 . S
N1407 C1410 1.350 . S
N1408 S1406 1.610 . S
N1408 C1409 1.351 . S
C1409 C1403 1.428 . S
C1409 N1408 1.351 . S
C1409 C1410 1.434 . S
C1410 C1401 1.429 . S
C1410 N1407 1.350 . S
C1410 C1409 1.434 . S
C1411 C1412 1.369 . S
C1411 C1413 1.419 . S
C1411 H1415 0.930 . S
C1412 C1411 1.369 . S
C1412 C1421 1.429 . S
C1413 C1411 1.419 . S
C1413 C1414 1.363 . S
C1413 H1416 0.929 . S
C1414 C1413 1.363 . S
C1414 C1420 1.428 . S
H1415 C1411 0.930 . S
H1416 C1413 0.929 . S
S1417 N1418 1.613 . S
S1417 N1419 1.610 1_455 S
N1418 S1417 1.613 . S
N1418 C1421 1.350 1_455 S
N1419 S1417 1.610 1_655 S
N1419 C1420 1.351 . S
C1420 C1414 1.428 . S
C1420 N1419 1.351 . S
C1420 C1421 1.434 . S
C1421 C1412 1.429 . S
C1421 N1418 1.350 1_655 S
C1421 C1420 1.434 . S
C1422 C1423 1.369 . S
C1422 C1424 1.419 . S
C1422 H1426 0.930 . S
C1423 C1422 1.369 . S
C1423 C1432 1.429 . S
C1424 C1422 1.419 . S
C1424 C1425 1.363 . S
C1424 H1427 0.929 . S
C1425 C1424 1.363 . S
C1425 C1431 1.428 . S
H1426 C1422 0.930 . S
H1427 C1424 0.929 . S
S1428 N1429 1.613 . S
S1428 N1430 1.610 . S
N1429 S1428 1.613 . S
N1429 C1432 1.350 . S
N1430 S1428 1.610 . S
N1430 C1431 1.351 . S
C1431 C1425 1.428 . S
C1431 N1430 1.351 . S
C1431 C1432 1.434 . S
C1432 C1423 1.429 . S
C1432 N1429 1.350 . S
C1432 C1431 1.434 . S
C1433 C1434 1.369 . S
C1433 C1435 1.419 . S
C1433 H1437 0.930 . S
C1434 C1433 1.369 . S
C1434 C1443 1.429 . S
C1435 C1433 1.419 . S
C1435 C1436 1.363 . S
C1435 H1438 0.929 . S
C1436 C1435 1.363 . S
C1436 C1442 1.428 . S
H1437 C1433 0.930 . S
H1438 C1435 0.929 . S
S1439 N1440 1.613 . S
S1439 N1441 1.610 . S
N1440 S1439 1.613 . S
N1440 C1443 1.350 . S
N1441 S1439 1.610 . S
N1441 C1442 1.351 . S
C1442 C1436 1.428 . S
C1442 N1441 1.351 . S
C1442 C1443 1.434 . S
C1443 C1434 1.429 . S
C1443 N1440 1.350 . S
C1443 C1442 1.434 . S
C1444 C1445 1.369 . S
C1444 C1446 1.419 . S
C1444 H1448 0.930 . S
C1445 C1444 1.369 . S
C1445 C1454 1.429 . S
C1446 C1444 1.419 . S
C1446 C1447 1.363 . S
C1446 H1449 0.929 . S
C1447 C1446 1.363 . S
C1447 C1453 1.428 . S
H1448 C1444 0.930 . S
H1449 C1446 0.929 . S
S1450 N1451 1.613 . S
S1450 N1452 1.610 . S
N1451 S1450 1.613 . S
N1451 C1454 1.350 . S
N1452 S1450 1.610 . S
N1452 C1453 1.351 . S
C1453 C1447 1.428 . S
C1453 N1452 1.351 . S
C1453 C1454 1.434 . S
C1454 C1445 1.429 . S
C1454 N1451 1.350 . S
C1454 C1453 1.434 . S
C1455 C1456 1.369 . S
C1455 C1457 1.419 . S
C1455 H1459 0.930 . S
C1456 C1455 1.369 . S
C1456 C1465 1.429 . S
C1457 C1455 1.419 . S
C1457 C1458 1.363 . S
C1457 H1460 0.929 . S
C1458 C1457 1.363 . S
C1458 C1464 1.428 . S
H1459 C1455 0.930 . S
H1460 C1457 0.929 . S
S1461 N1462 1.613 . S
S1461 N1463 1.610 . S
N1462 S1461 1.613 . S
N1462 C1465 1.350 . S
N1463 S1461 1.610 . S
N1463 C1464 1.351 . S
C1464 C1458 1.428 . S
C1464 N1463 1.351 . S
C1464 C1465 1.434 . S
C1465 C1456 1.429 . S
C1465 N1462 1.350 . S
C1465 C1464 1.434 . S
C1466 C1467 1.369 . S
C1466 C1468 1.419 . S
C1466 H1470 0.930 . S
C1467 C1466 1.369 . S
C1467 C1476 1.429 . S
C1468 C1466 1.419 . S
C1468 C1469 1.363 . S
C1468 H1471 0.929 . S
C1469 C1468 1.363 . S
C1469 C1475 1.428 . S
H1470 C1466 0.930 . S
H1471 C1468 0.929 . S
S1472 N1473 1.613 . S
S1472 N1474 1.610 . S
N1473 S1472 1.613 . S
N1473 C1476 1.350 . S
N1474 S1472 1.610 . S
N1474 C1475 1.351 . S
C1475 C1469 1.428 . S
C1475 N1474 1.351 . S
C1475 C1476 1.434 . S
C1476 C1467 1.429 . S
C1476 N1473 1.350 . S
C1476 C1475 1.434 . S
C1477 C1478 1.369 . S
C1477 C1479 1.419 1_655 S
C1477 H1481 0.930 . S
C1478 C1477 1.369 . S
C1478 C1487 1.429 . S
C1479 C1477 1.419 1_455 S
C1479 C1480 1.363 . S
C1479 H1482 0.929 . S
C1480 C1479 1.363 . S
C1480 C1486 1.428 . S
H1481 C1477 0.930 . S
H1482 C1479 0.929 . S
S1483 N1484 1.613 . S
S1483 N1485 1.610 1_655 S
N1484 S1483 1.613 . S
N1484 C1487 1.350 . S
N1485 S1483 1.610 1_455 S
N1485 C1486 1.351 . S
C1486 C1480 1.428 . S
C1486 N1485 1.351 . S
C1486 C1487 1.434 1_455 S
C1487 C1478 1.429 . S
C1487 N1484 1.350 . S
C1487 C1486 1.434 1_655 S
C1488 C1489 1.369 . S
C1488 C1490 1.419 . S
C1488 H1492 0.930 . S
C1489 C1488 1.369 . S
C1489 C1498 1.429 . S
C1490 C1488 1.419 . S
C1490 C1491 1.363 . S
C1490 H1493 0.929 . S
C1491 C1490 1.363 . S
C1491 C1497 1.428 . S
H1492 C1488 0.930 . S
H1493 C1490 0.929 . S
S1494 N1495 1.613 . S
S1494 N1496 1.610 . S
N1495 S1494 1.613 . S
N1495 C1498 1.350 . S
N1496 S1494 1.610 . S
N1496 C1497 1.351 . S
C1497 C1491 1.428 . S
C1497 N1496 1.351 . S
C1497 C1498 1.434 . S
C1498 C1489 1.429 . S
C1498 N1495 1.350 . S
C1498 C1497 1.434 . S
C1499 C1500 1.369 . S
C1499 C1501 1.419 . S
C1499 H1503 0.930 . S
C1500 C1499 1.369 . S
C1500 C1509 1.429 . S
C1501 C1499 1.419 . S
C1501 C1502 1.363 . S
C1501 H1504 0.929 . S
C1502 C1501 1.363 . S
C1502 C1508 1.428 . S
H1503 C1499 0.930 . S
H1504 C1501 0.929 . S
S1505 N1506 1.613 . S
S1505 N1507 1.610 . S
N1506 S1505 1.613 . S
N1506 C1509 1.350 . S
N1507 S1505 1.610 . S
N1507 C1508 1.351 . S
C1508 C1502 1.428 . S
C1508 N1507 1.351 . S
C1508 C1509 1.434 . S
C1509 C1500 1.429 . S
C1509 N1506 1.350 . S
C1509 C1508 1.434 . S
C1510 C1511 1.369 . S
C1510 C1512 1.419 . S
C1510 H1514 0.930 . S
C1511 C1510 1.369 . S
C1511 C1520 1.429 . S
C1512 C1510 1.419 . S
C1512 C1513 1.363 . S
C1512 H1515 0.929 . S
C1513 C1512 1.363 . S
C1513 C1519 1.428 . S
H1514 C1510 0.930 . S
H1515 C1512 0.929 . S
S1516 N1517 1.613 . S
S1516 N1518 1.610 . S
N1517 S1516 1.613 . S
N1517 C1520 1.350 . S
N1518 S1516 1.610 . S
N1518 C1519 1.351 . S
C1519 C1513 1.428 . S
C1519 N1518 1.351 . S
C1519 C1520 1.434 . S
C1520 C1511 1.429 . S
C1520 N1517 1.350 . S
C1520 C1519 1.434 . S
C1521 C1522 1.369 . S
C1521 C1523 1.419 . S
C1521 H1525 0.930 . S
C1522 C1521 1.369 . S
C1522 C1531 1.429 . S
C1523 C1521 1.419 . S
C1523 C1524 1.363 . S
C1523 H1526 0.929 . S
C1524 C1523 1.363 . S
C1524 C1530 1.428 . S
H1525 C1521 0.930 . S
H1526 C1523 0.929 . S
S1527 N1528 1.613 . S
S1527 N1529 1.610 . S
N1528 S1527 1.613 . S
N1528 C1531 1.350 . S
N1529 S1527 1.610 . S
N1529 C1530 1.351 . S
C1530 C1524 1.428 . S
C1530 N1529 1.351 . S
C1530 C1531 1.434 . S
C1531 C1522 1.429 . S
C1531 N1528 1.350 . S
C1531 C1530 1.434 . S
C1532 C1533 1.369 . S
C1532 C1534 1.419 . S
C1532 H1536 0.930 . S
C1533 C1532 1.369 . S
C1533 C1542 1.429 . S
C1534 C1532 1.419 . S
C1534 C1535 1.363 . S
C1534 H1537 0.929 . S
C1535 C1534 1.363 . S
C1535 C1541 1.428 . S
H1536 C1532 0.930 . S
H1537 C1534 0.929 . S
S1538 N1539 1.613 . S
S1538 N1540 1.610 . S
N1539 S1538 1.613 . S
N1539 C1542 1.350 . S
N1540 S1538 1.610 . S
N1540 C1541 1.351 . S
C1541 C1535 1.428 . S
C1541 N1540 1.351 . S
C1541 C1542 1.434 . S
C1542 C1533 1.429 . S
C1542 N1539 1.350 . S
C1542 C1541 1.434 . S
C1543 C1544 1.369 . S
C1543 C1545 1.418 1_655 S
C1543 H1547 0.930 . S
C1544 C1543 1.369 . S
C1544 C1553 1.429 . S
C1545 C1543 1.418 1_455 S
C1545 C1546 1.364 . S
C1545 H1548 0.929 . S
C1546 C1545 1.364 . S
C1546 C1552 1.428 . S
H1547 C1543 0.930 . S
H1548 C1545 0.929 . S
S1549 N1550 1.613 1_455 S
S1549 N1551 1.610 . S
N1550 S1549 1.613 1_655 S
N1550 C1553 1.350 . S
N1551 S1549 1.610 . S
N1551 C1552 1.351 . S
C1552 C1546 1.428 . S
C1552 N1551 1.351 . S
C1552 C1553 1.434 1_455 S
C1553 C1544 1.429 . S
C1553 N1550 1.350 . S
C1553 C1552 1.434 1_655 S
C1554 C1555 1.369 . S
C1554 C1556 1.419 . S
C1554 H1558 0.930 . S
C1555 C1554 1.369 . S
C1555 C1564 1.429 . S
C1556 C1554 1.419 . S
C1556 C1557 1.363 . S
C1556 H1559 0.929 . S
C1557 C1556 1.363 . S
C1557 C1563 1.428 . S
H1558 C1554 0.930 . S
H1559 C1556 0.929 . S
S1560 N1561 1.613 . S
S1560 N1562 1.610 . S
N1561 S1560 1.613 . S
N1561 C1564 1.350 . S
N1562 S1560 1.610 . S
N1562 C1563 1.351 . S
C1563 C1557 1.428 . S
C1563 N1562 1.351 . S
C1563 C1564 1.434 . S
C1564 C1555 1.429 . S
C1564 N1561 1.350 . S
C1564 C1563 1.434 . S
C1565 C1566 1.369 . S
C1565 C1567 1.419 . S
C1565 H1569 0.930 . S
C1566 C1565 1.369 . S
C1566 C1575 1.429 . S
C1567 C1565 1.419 . S
C1567 C1568 1.363 . S
C1567 H1570 0.929 . S
C1568 C1567 1.363 . S
C1568 C1574 1.428 . S
H1569 C1565 0.930 . S
H1570 C1567 0.929 . S
S1571 N1572 1.613 . S
S1571 N1573 1.610 . S
N1572 S1571 1.613 . S
N1572 C1575 1.350 . S
N1573 S1571 1.610 . S
N1573 C1574 1.351 . S
C1574 C1568 1.428 . S
C1574 N1573 1.351 . S
C1574 C1575 1.434 . S
C1575 C1566 1.429 . S
C1575 N1572 1.350 . S
C1575 C1574 1.434 . S
C1576 C1577 1.369 . S
C1576 C1578 1.419 . S
C1576 H1580 0.930 . S
C1577 C1576 1.369 . S
C1577 C1586 1.429 . S
C1578 C1576 1.419 . S
C1578 C1579 1.363 . S
C1578 H1581 0.929 . S
C1579 C1578 1.363 . S
C1579 C1585 1.428 . S
H1580 C1576 0.930 . S
H1581 C1578 0.929 . S
S1582 N1583 1.613 . S
S1582 N1584 1.610 . S
N1583 S1582 1.613 . S
N1583 C1586 1.350 . S
N1584 S1582 1.610 . S
N1584 C1585 1.351 . S
C1585 C1579 1.428 . S
C1585 N1584 1.351 . S
C1585 C1586 1.434 . S
C1586 C1577 1.429 . S
C1586 N1583 1.350 . S
C1586 C1585 1.434 . S
C1587 C1588 1.369 . S
C1587 C1589 1.419 . S
C1587 H1591 0.930 . S
C1588 C1587 1.369 . S
C1588 C1597 1.429 . S
C1589 C1587 1.419 . S
C1589 C1590 1.363 . S
C1589 H1592 0.929 . S
C1590 C1589 1.363 . S
C1590 C1596 1.428 . S
H1591 C1587 0.930 . S
H1592 C1589 0.929 . S
S1593 N1594 1.613 . S
S1593 N1595 1.610 . S
N1594 S1593 1.613 . S
N1594 C1597 1.350 . S
N1595 S1593 1.610 . S
N1595 C1596 1.351 . S
C1596 C1590 1.428 . S
C1596 N1595 1.351 . S
C1596 C1597 1.434 . S
C1597 C1588 1.429 . S
C1597 N1594 1.350 . S
C1597 C1596 1.434 . S
C1598 C1599 1.369 . S
C1598 C1600 1.419 . S
C1598 H1602 0.930 . S
C1599 C1598 1.369 . S
C1599 C1608 1.429 . S
C1600 C1598 1.419 . S
C1600 C1601 1.363 . S
C1600 H1603 0.929 . S
C1601 C1600 1.363 . S
C1601 C1607 1.428 . S
H1602 C1598 0.930 . S
H1603 C1600 0.929 . S
S1604 N1605 1.613 . S
S1604 N1606 1.610 . S
N1605 S1604 1.613 . S
N1605 C1608 1.350 . S
N1606 S1604 1.610 . S
N1606 C1607 1.351 . S
C1607 C1601 1.428 . S
C1607 N1606 1.351 . S
C1607 C1608 1.434 . S
C1608 C1599 1.429 . S
C1608 N1605 1.350 . S
C1608 C1607 1.434 . S
C1609 C1610 1.369 . S
C1609 C1611 1.419 . S
C1609 H1613 0.930 . S
C1610 C1609 1.369 . S
C1610 C1619 1.429 . S
C1611 C1609 1.419 . S
C1611 C1612 1.363 . S
C1611 H1614 0.929 . S
C1612 C1611 1.363 . S
C1612 C1618 1.428 . S
H1613 C1609 0.930 . S
H1614 C1611 0.929 . S
S1615 N1616 1.613 . S
S1615 N1617 1.610 . S
N1616 S1615 1.613 . S
N1616 C1619 1.350 . S
N1617 S1615 1.610 . S
N1617 C1618 1.351 . S
C1618 C1612 1.428 . S
C1618 N1617 1.351 . S
C1618 C1619 1.434 . S
C1619 C1610 1.429 . S
C1619 N1616 1.350 . S
C1619 C1618 1.434 . S
C1620 C1621 1.369 . S
C1620 C1622 1.419 . S
C1620 H1624 0.930 . S
C1621 C1620 1.369 . S
C1621 C1630 1.429 . S
C1622 C1620 1.419 . S
C1622 C1623 1.363 . S
C1622 H1625 0.929 . S
C1623 C1622 1.363 . S
C1623 C1629 1.428 . S
H1624 C1620 0.930 . S
H1625 C1622 0.929 . S
S1626 N1627 1.613 . S
S1626 N1628 1.610 . S
N1627 S1626 1.613 . S
N1627 C1630 1.350 . S
N1628 S1626 1.610 . S
N1628 C1629 1.351 . S
C1629 C1623 1.428 . S
C1629 N1628 1.351 . S
C1629 C1630 1.434 . S
C1630 C1621 1.429 . S
C1630 N1627 1.350 . S
C1630 C1629 1.434 . S
C1631 C1632 1.369 . S
C1631 C1633 1.419 1_455 S
C1631 H1635 0.930 . S
C1632 C1631 1.369 . S
C1632 C1641 1.429 . S
C1633 C1631 1.419 1_655 S
C1633 C1634 1.363 . S
C1633 H1636 0.929 . S
C1634 C1633 1.363 . S
C1634 C1640 1.428 . S
H1635 C1631 0.930 . S
H1636 C1633 0.929 . S
S1637 N1638 1.613 . S
S1637 N1639 1.610 1_455 S
N1638 S1637 1.613 . S
N1638 C1641 1.350 . S
N1639 S1637 1.610 1_655 S
N1639 C1640 1.351 . S
C1640 C1634 1.428 . S
C1640 N1639 1.351 . S
C1640 C1641 1.434 1_655 S
C1641 C1632 1.429 . S
C1641 N1638 1.350 . S
C1641 C1640 1.434 1_455 S
C1642 C1643 1.369 . S
C1642 C1644 1.419 . S
C1642 H1646 0.930 . S
C1643 C1642 1.369 . S
C1643 C1652 1.429 . S
C1644 C1642 1.419 . S
C1644 C1645 1.363 . S
C1644 H1647 0.929 . S
C1645 C1644 1.363 . S
C1645 C1651 1.428 . S
H1646 C1642 0.930 . S
H1647 C1644 0.929 . S
S1648 N1649 1.613 . S
S1648 N1650 1.610 . S
N1649 S1648 1.613 . S
N1649 C1652 1.350 . S
N1650 S1648 1.610 . S
N1650 C1651 1.351 . S
C1651 C1645 1.428 . S
C1651 N1650 1.351 . S
C1651 C1652 1.434 . S
C1652 C1643 1.429 . S
C1652 N1649 1.350 . S
C1652 C1651 1.434 . S
C1653 C1654 1.369 . S
C1653 C1655 1.419 . S
C1653 H1657 0.930 . S
C1654 C1653 1.369 . S
C1654 C1663 1.429 . S
C1655 C1653 1.419 . S
C1655 C1656 1.363 . S
C1655 H1658 0.929 . S
C1656 C1655 1.363 . S
C1656 C1662 1.428 . S
H1657 C1653 0.930 . S
H1658 C1655 0.929 . S
S1659 N1660 1.613 . S
S1659 N1661 1.610 . S
N1660 S1659 1.613 . S
N1660 C1663 1.350 . S
N1661 S1659 1.610 . S
N1661 C1662 1.351 . S
C1662 C1656 1.428 . S
C1662 N1661 1.351 . S
C1662 C1663 1.434 . S
C1663 C1654 1.429 . S
C1663 N1660 1.350 . S
C1663 C1662 1.434 . S
C1664 C1665 1.369 1_545 S
C1664 C1666 1.419 1_545 S
C1664 H1668 0.930 . S
C1665 C1664 1.369 1_565 S
C1665 C1674 1.429 . S
C1666 C1664 1.419 1_565 S
C1666 C1667 1.363 . S
C1666 H1669 0.929 1_565 S
C1667 C1666 1.363 . S
C1667 C1673 1.428 . S
H1668 C1664 0.930 . S
H1669 C1666 0.929 1_545 S
S1670 N1671 1.613 . S
S1670 N1672 1.610 . S
N1671 S1670 1.613 . S
N1671 C1674 1.350 . S
N1672 S1670 1.610 . S
N1672 C1673 1.351 . S
C1673 C1667 1.428 . S
C1673 N1672 1.351 . S
C1673 C1674 1.434 . S
C1674 C1665 1.429 . S
C1674 N1671 1.350 . S
C1674 C1673 1.434 . S
C1675 C1676 1.369 . S
C1675 C1677 1.419 . S
C1675 H1679 0.930 . S
C1676 C1675 1.369 . S
C1676 C1685 1.429 . S
C1677 C1675 1.419 . S
C1677 C1678 1.363 . S
C1677 H1680 0.929 . S
C1678 C1677 1.363 . S
C1678 C1684 1.428 . S
H1679 C1675 0.930 . S
H1680 C1677 0.929 . S
S1681 N1682 1.613 . S
S1681 N1683 1.610 . S
N1682 S1681 1.613 . S
N1682 C1685 1.350 . S
N1683 S1681 1.610 . S
N1683 C1684 1.351 . S
C1684 C1678 1.428 . S
C1684 N1683 1.351 . S
C1684 C1685 1.434 . S
C1685 C1676 1.429 . S
C1685 N1682 1.350 . S
C1685 C1684 1.434 . S
C1686 C1687 1.369 . S
C1686 C1688 1.411 1_565 S
C1686 H1690 0.930 . S
C1687 C1686 1.369 . S
C1687 C1696 1.427 . S
C1688 C1686 1.411 1_545 S
C1688 C1689 1.372 . S
C1688 H1691 0.927 1_545 S
C1689 C1688 1.372 . S
C1689 C1695 1.428 . S
H1690 C1686 0.930 . S
H1691 C1688 0.927 1_565 S
S1692 N1693 1.613 . S
S1692 N1694 1.610 . S
N1693 S1692 1.613 . S
N1693 C1696 1.350 1_545 S
N1694 S1692 1.610 . S
N1694 C1695 1.351 . S
C1695 C1689 1.428 . S
C1695 N1694 1.351 . S
C1695 C1696 1.435 1_545 S
C1696 C1687 1.427 . S
C1696 N1693 1.350 1_565 S
C1696 C1695 1.435 1_565 S
C1697 C1698 1.369 . S
C1697 C1699 1.419 . S
C1697 H1701 0.930 . S
C1698 C1697 1.369 . S
C1698 C1707 1.429 . S
C1699 C1697 1.419 . S
C1699 C1700 1.363 1_556 S
C1699 H1702 0.929 . S
C1700 C1699 1.363 1_554 S
C1700 C1706 1.428 . S
H1701 C1697 0.930 . S
H1702 C1699 0.929 . S
S1703 N1704 1.613 1_554 S
S1703 N1705 1.610 . S
N1704 S1703 1.613 1_556 S
N1704 C1707 1.350 . S
N1705 S1703 1.610 . S
N1705 C1706 1.351 . S
C1706 C1700 1.428 . S
C1706 N1705 1.351 . S
C1706 C1707 1.434 1_554 S
C1707 C1698 1.429 . S
C1707 N1704 1.350 . S
C1707 C1706 1.434 1_556 S
C1708 C1709 1.369 . S
C1708 C1710 1.419 1_545 S
C1708 H1712 0.930 1_545 S
C1709 C1708 1.369 . S
C1709 C1718 1.429 . S
C1710 C1708 1.419 1_565 S
C1710 C1711 1.363 1_565 S
C1710 H1713 0.929 . S
C1711 C1710 1.363 1_545 S
C1711 C1717 1.428 . S
H1712 C1708 0.930 1_565 S
H1713 C1710 0.929 . S
S1714 N1715 1.613 . S
S1714 N1716 1.610 . S
N1715 S1714 1.613 . S
N1715 C1718 1.350 . S
N1716 S1714 1.610 . S
N1716 C1717 1.351 . S
C1717 C1711 1.428 . S
C1717 N1716 1.351 . S
C1717 C1718 1.434 . S
C1718 C1709 1.429 . S
C1718 N1715 1.350 . S
C1718 C1717 1.434 . S
C1719 C1720 1.369 . S
C1719 C1721 1.419 . S
C1719 H1723 0.930 . S
C1720 C1719 1.369 . S
C1720 C1729 1.429 . S
C1721 C1719 1.419 . S
C1721 C1722 1.363 . S
C1721 H1724 0.929 . S
C1722 C1721 1.363 . S
C1722 C1728 1.428 . S
H1723 C1719 0.930 . S
H1724 C1721 0.929 . S
S1725 N1726 1.613 . S
S1725 N1727 1.610 . S
N1726 S1725 1.613 . S
N1726 C1729 1.350 . S
N1727 S1725 1.610 . S
N1727 C1728 1.351 . S
C1728 C1722 1.428 . S
C1728 N1727 1.351 . S
C1728 C1729 1.434 . S
C1729 C1720 1.429 . S
C1729 N1726 1.350 . S
C1729 C1728 1.434 . S
C1730 C1731 1.369 . S
C1730 C1732 1.419 1_545 S
C1730 H1734 0.930 . S
C1731 C1730 1.369 . S
C1731 C1740 1.429 . S
C1732 C1730 1.419 1_565 S
C1732 C1733 1.363 . S
C1732 H1735 0.929 . S
C1733 C1732 1.363 . S
C1733 C1739 1.428 . S
H1734 C1730 0.930 . S
H1735 C1732 0.929 . S
S1736 N1737 1.624 . S
S1736 N1738 1.610 . S
N1737 S1736 1.624 . S
N1737 C1740 1.348 1_565 S
N1738 S1736 1.610 . S
N1738 C1739 1.351 . S
C1739 C1733 1.428 . S
C1739 N1738 1.351 . S
C1739 C1740 1.434 1_565 S
C1740 C1731 1.429 . S
C1740 N1737 1.348 1_545 S
C1740 C1739 1.434 1_545 S
C1741 C1742 1.369 . S
C1741 C1743 1.419 1_556 S
C1741 H1745 0.930 . S
C1742 C1741 1.369 . S
C1742 C1751 1.429 1_556 S
C1743 C1741 1.419 1_554 S
C1743 C1744 1.363 . S
C1743 H1746 0.929 . S
C1744 C1743 1.363 . S
C1744 C1750 1.428 . S
H1745 C1741 0.930 . S
H1746 C1743 0.929 . S
S1747 N1748 1.613 . S
S1747 N1749 1.610 . S
N1748 S1747 1.613 . S
N1748 C1751 1.350 . S
N1749 S1747 1.610 . S
N1749 C1750 1.351 . S
C1750 C1744 1.428 . S
C1750 N1749 1.351 . S
C1750 C1751 1.434 . S
C1751 C1742 1.429 1_554 S
C1751 N1748 1.350 . S
C1751 C1750 1.434 . S
C1752 C1753 1.369 . S
C1752 C1754 1.419 . S
C1752 H1756 0.930 . S
C1753 C1752 1.369 . S
C1753 C1762 1.429 . S
C1754 C1752 1.419 . S
C1754 C1755 1.363 . S
C1754 H1757 0.929 . S
C1755 C1754 1.363 . S
C1755 C1761 1.428 . S
H1756 C1752 0.930 . S
H1757 C1754 0.929 . S
S1758 N1759 1.613 . S
S1758 N1760 1.610 . S
N1759 S1758 1.613 . S
N1759 C1762 1.350 . S
N1760 S1758 1.610 . S
N1760 C1761 1.351 . S
C1761 C1755 1.428 . S
C1761 N1760 1.351 . S
C1761 C1762 1.434 . S
C1762 C1753 1.429 . S
C1762 N1759 1.350 . S
C1762 C1761 1.434 . S
C1763 C1764 1.369 1_554 S
C1763 C1765 1.419 . S
C1763 H1767 0.930 . S
C1764 C1763 1.369 1_556 S
C1764 C1773 1.429 . S
C1765 C1763 1.419 . S
C1765 C1766 1.378 . S
C1765 H1768 0.929 . S
C1766 C1765 1.378 . S
C1766 C1772 1.405 1_554 S
H1767 C1763 0.930 . S
H1768 C1765 0.929 . S
S1769 N1770 1.613 . S
S1769 N1771 1.610 . S
N1770 S1769 1.613 . S
N1770 C1773 1.350 . S
N1771 S1769 1.610 . S
N1771 C1772 1.351 . S
C1772 C1766 1.405 1_556 S
C1772 N1771 1.351 . S
C1772 C1773 1.434 . S
C1773 C1764 1.429 . S
C1773 N1770 1.350 . S
C1773 C1772 1.434 . S
C1774 C1775 1.369 . S
C1774 C1776 1.419 . S
C1774 H1778 0.930 . S
C1775 C1774 1.369 . S
C1775 C1784 1.429 . S
C1776 C1774 1.419 . S
C1776 C1777 1.363 . S
C1776 H1779 0.929 . S
C1777 C1776 1.363 . S
C1777 C1783 1.428 . S
H1778 C1774 0.930 . S
H1779 C1776 0.929 . S
S1780 N1781 1.613 . S
S1780 N1782 1.610 . S
N1781 S1780 1.613 . S
N1781 C1784 1.350 . S
N1782 S1780 1.610 . S
N1782 C1783 1.351 . S
C1783 C1777 1.428 . S
C1783 N1782 1.351 . S
C1783 C1784 1.434 . S
C1784 C1775 1.429 . S
C1784 N1781 1.350 . S
C1784 C1783 1.434 . S
C1785 C1786 1.369 . S
C1785 C1787 1.419 . S
C1785 H1789 0.930 . S
C1786 C1785 1.369 . S
C1786 C1795 1.429 . S
C1787 C1785 1.419 . S
C1787 C1788 1.363 . S
C1787 H1790 0.929 . S
C1788 C1787 1.363 . S
C1788 C1794 1.428 . S
H1789 C1785 0.930 . S
H1790 C1787 0.929 . S
S1791 N1792 1.613 . S
S1791 N1793 1.610 . S
N1792 S1791 1.613 . S
N1792 C1795 1.350 . S
N1793 S1791 1.610 . S
N1793 C1794 1.351 . S
C1794 C1788 1.428 . S
C1794 N1793 1.351 . S
C1794 C1795 1.434 . S
C1795 C1786 1.429 . S
C1795 N1792 1.350 . S
C1795 C1794 1.434 . S
C1796 C1797 1.369 . S
C1796 C1798 1.419 . S
C1796 H1800 0.930 . S
C1797 C1796 1.369 . S
C1797 C1806 1.429 . S
C1798 C1796 1.419 . S
C1798 C1799 1.363 . S
C1798 H1801 0.929 . S
C1799 C1798 1.363 . S
C1799 C1805 1.428 . S
H1800 C1796 0.930 . S
H1801 C1798 0.929 . S
S1802 N1803 1.613 . S
S1802 N1804 1.610 . S
N1803 S1802 1.613 . S
N1803 C1806 1.350 . S
N1804 S1802 1.610 . S
N1804 C1805 1.351 . S
C1805 C1799 1.428 . S
C1805 N1804 1.351 . S
C1805 C1806 1.434 . S
C1806 C1797 1.429 . S
C1806 N1803 1.350 . S
C1806 C1805 1.434 . S
C1807 C1808 1.369 1_554 S
C1807 C1809 1.419 . S
C1807 H1811 0.930 . S
C1808 C1807 1.369 1_556 S
C1808 C1817 1.429 . S
C1809 C1807 1.419 . S
C1809 C1810 1.363 . S
C1809 H1812 0.929 . S
C1810 C1809 1.363 . S
C1810 C1816 1.428 . S
H1811 C1807 0.930 . S
H1812 C1809 0.929 . S
S1813 N1814 1.613 . S
S1813 N1815 1.610 . S
N1814 S1813 1.613 . S
N1814 C1817 1.350 . S
N1815 S1813 1.610 . S
N1815 C1816 1.351 1_556 S
C1816 C1810 1.428 . S
C1816 N1815 1.351 1_554 S
C1816 C1817 1.434 1_554 S
C1817 C1808 1.429 . S
C1817 N1814 1.350 . S
C1817 C1816 1.434 1_556 S
C1818 C1819 1.369 . S
C1818 C1820 1.419 . S
C1818 H1822 0.930 . S
C1819 C1818 1.369 . S
C1819 C1828 1.429 . S
C1820 C1818 1.419 . S
C1820 C1821 1.363 . S
C1820 H1823 0.929 . S
C1821 C1820 1.363 . S
C1821 C1827 1.428 . S
H1822 C1818 0.930 . S
H1823 C1820 0.929 . S
S1824 N1825 1.613 . S
S1824 N1826 1.610 . S
N1825 S1824 1.613 . S
N1825 C1828 1.350 . S
N1826 S1824 1.610 . S
N1826 C1827 1.351 . S
C1827 C1821 1.428 . S
C1827 N1826 1.351 . S
C1827 C1828 1.434 . S
C1828 C1819 1.429 . S
C1828 N1825 1.350 . S
C1828 C1827 1.434 . S
C1829 C1830 1.369 . S
C1829 C1831 1.419 . S
C1829 H1833 0.930 . S
C1830 C1829 1.369 . S
C1830 C1839 1.429 . S
C1831 C1829 1.419 . S
C1831 C1832 1.363 . S
C1831 H1834 0.929 . S
C1832 C1831 1.363 . S
C1832 C1838 1.428 . S
H1833 C1829 0.930 . S
H1834 C1831 0.929 . S
S1835 N1836 1.613 . S
S1835 N1837 1.610 . S
N1836 S1835 1.613 . S
N1836 C1839 1.350 . S
N1837 S1835 1.610 . S
N1837 C1838 1.351 . S
C1838 C1832 1.428 . S
C1838 N1837 1.351 . S
C1838 C1839 1.434 . S
C1839 C1830 1.429 . S
C1839 N1836 1.350 . S
C1839 C1838 1.434 . S
C1840 C1841 1.369 . S
C1840 C1842 1.419 . S
C1840 H1844 0.930 . S
C1841 C1840 1.369 . S
C1841 C1850 1.429 . S
C1842 C1840 1.419 . S
C1842 C1843 1.363 . S
C1842 H1845 0.929 . S
C1843 C1842 1.363 . S
C1843 C1849 1.428 . S
H1844 C1840 0.930 . S
H1845 C1842 0.929 . S
S1846 N1847 1.613 . S
S1846 N1848 1.610 . S
N1847 S1846 1.613 . S
N1847 C1850 1.350 . S
N1848 S1846 1.610 . S
N1848 C1849 1.351 . S
C1849 C1843 1.428 . S
C1849 N1848 1.351 . S
C1849 C1850 1.434 . S
C1850 C1841 1.429 . S
C1850 N1847 1.350 . S
C1850 C1849 1.434 . S
C1851 C1852 1.369 . S
C1851 C1853 1.419 . S
C1851 H1855 0.930 . S
C1852 C1851 1.369 . S
C1852 C1861 1.429 . S
C1853 C1851 1.419 . S
C1853 C1854 1.363 . S
C1853 H1856 0.929 . S
C1854 C1853 1.363 . S
C1854 C1860 1.428 . S
H1855 C1851 0.930 . S
H1856 C1853 0.929 . S
S1857 N1858 1.613 . S
S1857 N1859 1.610 . S
N1858 S1857 1.613 . S
N1858 C1861 1.350 . S
N1859 S1857 1.610 . S
N1859 C1860 1.351 . S
C1860 C1854 1.428 . S
C1860 N1859 1.351 . S
C1860 C1861 1.434 . S
C1861 C1852 1.429 . S
C1861 N1858 1.350 . S
C1861 C1860 1.434 . S
C1862 C1863 1.369 . S
C1862 C1864 1.419 . S
C1862 H1866 0.930 . S
C1863 C1862 1.369 . S
C1863 C1872 1.429 . S
C1864 C1862 1.419 . S
C1864 C1865 1.363 . S
C1864 H1867 0.929 . S
C1865 C1864 1.363 . S
C1865 C1871 1.428 . S
H1866 C1862 0.930 . S
H1867 C1864 0.929 . S
S1868 N1869 1.613 . S
S1868 N1870 1.610 . S
N1869 S1868 1.613 . S
N1869 C1872 1.350 . S
N1870 S1868 1.610 . S
N1870 C1871 1.351 . S
C1871 C1865 1.428 . S
C1871 N1870 1.351 . S
C1871 C1872 1.434 . S
C1872 C1863 1.429 . S
C1872 N1869 1.350 . S
C1872 C1871 1.434 . S
C1873 C1874 1.369 . S
C1873 C1875 1.419 . S
C1873 H1877 0.930 . S
C1874 C1873 1.369 . S
C1874 C1883 1.429 . S
C1875 C1873 1.419 . S
C1875 C1876 1.363 . S
C1875 H1878 0.929 . S
C1876 C1875 1.363 . S
C1876 C1882 1.428 . S
H1877 C1873 0.930 . S
H1878 C1875 0.929 . S
S1879 N1880 1.613 . S
S1879 N1881 1.610 . S
N1880 S1879 1.613 . S
N1880 C1883 1.350 . S
N1881 S1879 1.610 . S
N1881 C1882 1.351 . S
C1882 C1876 1.428 . S
C1882 N1881 1.351 . S
C1882 C1883 1.434 . S
C1883 C1874 1.429 . S
C1883 N1880 1.350 . S
C1883 C1882 1.434 . S
C1884 C1885 1.369 . S
C1884 C1886 1.419 . S
C1884 H1888 0.930 . S
C1885 C1884 1.369 . S
C1885 C1894 1.429 . S
C1886 C1884 1.419 . S
C1886 C1887 1.363 . S
C1886 H1889 0.929 . S
C1887 C1886 1.363 . S
C1887 C1893 1.428 . S
H1888 C1884 0.930 . S
H1889 C1886 0.929 . S
S1890 N1891 1.613 . S
S1890 N1892 1.610 . S
N1891 S1890 1.613 . S
N1891 C1894 1.350 . S
N1892 S1890 1.610 . S
N1892 C1893 1.351 . S
C1893 C1887 1.428 . S
C1893 N1892 1.351 . S
C1893 C1894 1.434 . S
C1894 C1885 1.429 . S
C1894 N1891 1.350 . S
C1894 C1893 1.434 . S
C1895 C1896 1.369 . S
C1895 C1897 1.419 . S
C1895 H1899 0.930 . S
C1896 C1895 1.369 . S
C1896 C1905 1.429 . S
C1897 C1895 1.419 . S
C1897 C1898 1.363 . S
C1897 H1900 0.929 . S
C1898 C1897 1.363 . S
C1898 C1904 1.428 . S
H1899 C1895 0.930 . S
H1900 C1897 0.929 . S
S1901 N1902 1.613 . S
S1901 N1903 1.610 . S
N1902 S1901 1.613 . S
N1902 C1905 1.350 . S
N1903 S1901 1.610 . S
N1903 C1904 1.351 . S
C1904 C1898 1.428 . S
C1904 N1903 1.351 . S
C1904 C1905 1.434 . S
C1905 C1896 1.429 . S
C1905 N1902 1.350 . S
C1905 C1904 1.434 . S
C1906 C1907 1.369 . S
C1906 C1908 1.419 . S
C1906 H1910 0.930 . S
C1907 C1906 1.369 . S
C1907 C1916 1.429 . S
C1908 C1906 1.419 . S
C1908 C1909 1.363 . S
C1908 H1911 0.929 . S
C1909 C1908 1.363 . S
C1909 C1915 1.428 . S
H1910 C1906 0.930 . S
H1911 C1908 0.929 . S
S1912 N1913 1.613 . S
S1912 N1914 1.610 . S
N1913 S1912 1.613 . S
N1913 C1916 1.350 . S
N1914 S1912 1.610 . S
N1914 C1915 1.351 . S
C1915 C1909 1.428 . S
C1915 N1914 1.351 . S
C1915 C1916 1.434 . S
C1916 C1907 1.429 . S
C1916 N1913 1.350 . S
C1916 C1915 1.434 . S
C1917 C1918 1.369 . S
C1917 C1919 1.419 . S
C1917 H1921 0.930 . S
C1918 C1917 1.369 . S
C1918 C1927 1.429 . S
C1919 C1917 1.419 . S
C1919 C1920 1.363 . S
C1919 H1922 0.929 . S
C1920 C1919 1.363 . S
C1920 C1926 1.428 . S
H1921 C1917 0.930 . S
H1922 C1919 0.929 . S
S1923 N1924 1.613 . S
S1923 N1925 1.610 . S
N1924 S1923 1.613 . S
N1924 C1927 1.350 . S
N1925 S1923 1.610 . S
N1925 C1926 1.351 . S
C1926 C1920 1.428 . S
C1926 N1925 1.351 . S
C1926 C1927 1.434 . S
C1927 C1918 1.429 . S
C1927 N1924 1.350 . S
C1927 C1926 1.434 . S
C1928 C1929 1.369 . S
C1928 C1930 1.419 . S
C1928 H1932 0.930 . S
C1929 C1928 1.369 . S
C1929 C1938 1.429 . S
C1930 C1928 1.419 . S
C1930 C1931 1.363 . S
C1930 H1933 0.929 . S
C1931 C1930 1.363 . S
C1931 C1937 1.428 . S
H1932 C1928 0.930 . S
H1933 C1930 0.929 . S
S1934 N1935 1.613 . S
S1934 N1936 1.610 . S
N1935 S1934 1.613 . S
N1935 C1938 1.350 . S
N1936 S1934 1.610 . S
N1936 C1937 1.351 . S
C1937 C1931 1.428 . S
C1937 N1936 1.351 . S
C1937 C1938 1.434 . S
C1938 C1929 1.429 . S
C1938 N1935 1.350 . S
C1938 C1937 1.434 . S
C1939 C1940 1.369 . S
C1939 C1941 1.419 . S
C1939 H1943 0.930 . S
C1940 C1939 1.369 . S
C1940 C1949 1.429 . S
C1941 C1939 1.419 . S
C1941 C1942 1.363 . S
C1941 H1944 0.929 . S
C1942 C1941 1.363 . S
C1942 C1948 1.428 . S
H1943 C1939 0.930 . S
H1944 C1941 0.929 . S
S1945 N1946 1.613 . S
S1945 N1947 1.610 . S
N1946 S1945 1.613 . S
N1946 C1949 1.350 . S
N1947 S1945 1.610 . S
N1947 C1948 1.351 . S
C1948 C1942 1.428 . S
C1948 N1947 1.351 . S
C1948 C1949 1.434 . S
C1949 C1940 1.429 . S
C1949 N1946 1.350 . S
C1949 C1948 1.434 . S
C1950 C1951 1.369 . S
C1950 C1952 1.419 . S
C1950 H1954 0.930 . S
C1951 C1950 1.369 . S
C1951 C1960 1.429 . S
C1952 C1950 1.419 . S
C1952 C1953 1.363 . S
C1952 H1955 0.929 . S
C1953 C1952 1.363 . S
C1953 C1959 1.428 . S
H1954 C1950 0.930 . S
H1955 C1952 0.929 . S
S1956 N1957 1.613 . S
S1956 N1958 1.610 . S
N1957 S1956 1.613 . S
N1957 C1960 1.350 . S
N1958 S1956 1.610 . S
N1958 C1959 1.351 . S
C1959 C1953 1.428 . S
C1959 N1958 1.351 . S
C1959 C1960 1.434 . S
C1960 C1951 1.429 . S
C1960 N1957 1.350 . S
C1960 C1959 1.434 . S
C1961 C1962 1.369 . S
C1961 C1963 1.419 . S
C1961 H1965 0.930 . S
C1962 C1961 1.369 . S
C1962 C1971 1.429 . S
C1963 C1961 1.419 . S
C1963 C1964 1.363 . S
C1963 H1966 0.929 . S
C1964 C1963 1.363 . S
C1964 C1970 1.428 . S
H1965 C1961 0.930 . S
H1966 C1963 0.929 . S
S1967 N1968 1.613 . S
S1967 N1969 1.610 . S
N1968 S1967 1.613 . S
N1968 C1971 1.350 . S
N1969 S1967 1.610 . S
N1969 C1970 1.351 . S
C1970 C1964 1.428 . S
C1970 N1969 1.351 . S
C1970 C1971 1.434 . S
C1971 C1962 1.429 . S
C1971 N1968 1.350 . S
C1971 C1970 1.434 . S
C1972 C1973 1.369 . S
C1972 C1974 1.419 . S
C1972 H1976 0.930 . S
C1973 C1972 1.369 . S
C1973 C1982 1.429 . S
C1974 C1972 1.419 . S
C1974 C1975 1.363 . S
C1974 H1977 0.929 . S
C1975 C1974 1.363 . S
C1975 C1981 1.428 . S
H1976 C1972 0.930 . S
H1977 C1974 0.929 . S
S1978 N1979 1.613 . S
S1978 N1980 1.610 . S
N1979 S1978 1.613 . S
N1979 C1982 1.350 . S
N1980 S1978 1.610 . S
N1980 C1981 1.351 . S
C1981 C1975 1.428 . S
C1981 N1980 1.351 . S
C1981 C1982 1.434 . S
C1982 C1973 1.429 . S
C1982 N1979 1.350 . S
C1982 C1981 1.434 . S
C1983 C1984 1.369 . S
C1983 C1985 1.419 . S
C1983 H1987 0.930 . S
C1984 C1983 1.369 . S
C1984 C1993 1.429 . S
C1985 C1983 1.419 . S
C1985 C1986 1.363 . S
C1985 H1988 0.929 . S
C1986 C1985 1.363 . S
C1986 C1992 1.428 . S
H1987 C1983 0.930 . S
H1988 C1985 0.929 . S
S1989 N1990 1.613 . S
S1989 N1991 1.610 . S
N1990 S1989 1.613 . S
N1990 C1993 1.350 . S
N1991 S1989 1.610 . S
N1991 C1992 1.351 . S
C1992 C1986 1.428 . S
C1992 N1991 1.351 . S
C1992 C1993 1.434 . S
C1993 C1984 1.429 . S
C1993 N1990 1.350 . S
C1993 C1992 1.434 . S
C1994 C1995 1.369 . S
C1994 C1996 1.419 . S
C1994 H1998 0.930 . S
C1995 C1994 1.369 . S
C1995 C2004 1.429 . S
C1996 C1994 1.419 . S
C1996 C1997 1.363 . S
C1996 H1999 0.929 . S
C1997 C1996 1.363 . S
C1997 C2003 1.428 . S
H1998 C1994 0.930 . S
H1999 C1996 0.929 . S
S2000 N2001 1.613 . S
S2000 N2002 1.610 . S
N2001 S2000 1.613 . S
N2001 C2004 1.350 . S
N2002 S2000 1.610 . S
N2002 C2003 1.351 . S
C2003 C1997 1.428 . S
C2003 N2002 1.351 . S
C2003 C2004 1.434 . S
C2004 C1995 1.429 . S
C2004 N2001 1.350 . S
C2004 C2003 1.434 . S
C2005 C2006 1.369 . S
C2005 C2007 1.419 . S
C2005 H2009 0.930 . S
C2006 C2005 1.369 . S
C2006 C2015 1.429 . S
C2007 C2005 1.419 . S
C2007 C2008 1.363 . S
C2007 H2010 0.929 . S
C2008 C2007 1.363 . S
C2008 C2014 1.428 . S
H2009 C2005 0.930 . S
H2010 C2007 0.929 . S
S2011 N2012 1.613 . S
S2011 N2013 1.610 . S
N2012 S2011 1.613 . S
N2012 C2015 1.350 . S
N2013 S2011 1.610 . S
N2013 C2014 1.351 . S
C2014 C2008 1.428 . S
C2014 N2013 1.351 . S
C2014 C2015 1.434 . S
C2015 C2006 1.429 . S
C2015 N2012 1.350 . S
C2015 C2014 1.434 . S
C961 N6 1.348 . S
C963 C117 1.418 . S
C972 C27 2.009 . S
C974 C57 2.001 . S
C983 N66 0.804 . S
C985 N36 0.798 . S
C994 C87 1.292 . S
C996 N96 1.268 . S
C1005 N156 2.079 . S
C1007 C147 2.330 . S
C1016 C177 1.827 . S
C1018 N186 1.568 . S
C1027 N216 1.609 . S
C1029 C207 1.956 . S
C1038 N126 1.179 1_556 S
C1040 C237 1.455 . S
C1049 N254 1.351 . S
C1051 C346 1.418 . S
C1060 C286 2.003 . S
C1062 C256 2.012 . S
C1071 N314 0.803 . S
C1073 N284 0.785 . S
C1082 N344 1.264 . S
C1084 C316 1.296 . S
C1093 C376 2.328 . S
C1095 N404 2.073 . S
C1104 C406 1.827 . S
C1106 N434 1.568 . S
C1115 N464 1.623 . S
C1117 C436 1.956 . S
C1126 N374 1.189 1_554 S
C1128 C466 1.456 . S
C1137 N486 1.351 . S
C1139 C597 1.418 . S
C1148 C507 2.012 . S
C1150 C537 2.003 1_556 S
C1159 N516 0.802 . S
C1161 N546 0.805 . S
C1170 N576 1.262 . S
C1172 C567 1.295 . S
C1181 C627 2.329 . S
C1183 N636 2.074 . S
C1192 N666 1.567 . S
C1194 C657 1.828 . S
C1203 C687 1.956 . S
C1205 N696 1.622 . S
C1214 N606 1.188 . S
C1216 C717 1.456 . S
C1225 C826 1.419 . S
C1227 N734 1.344 . S
C1236 C736 2.009 . S
C1238 C766 2.000 1_554 S
C1247 N794 0.805 . S
C1249 N764 0.798 . S
C1258 C796 1.292 . S
C1260 N824 1.267 . S
C1269 N884 2.075 . S
C1271 C856 2.330 . S
C1280 N914 1.581 . S
C1282 C886 1.829 . S
C1291 N944 1.618 . S
C1293 C916 1.956 . S
C1302 C946 1.457 . S
C1304 N854 1.176 . S
C1313 N816 1.357 . S
C1315 C1 1.369 . S
C1324 C40 1.205 . S
C1326 N246 1.202 1_455 S
C1335 C61 1.441 . S
C1337 C777 1.440 . S
C1346 C91 1.057 . S
C1348 N306 1.048 . S
C1357 C130 1.333 . S
C1359 C897 1.334 . S
C1368 C447 1.799 . S
C1370 C160 1.801 . S
C1379 C957 1.349 . S
C1381 C190 1.349 . S
C1390 C220 1.714 . S
C1392 C387 1.709 . S
C1401 C250 1.369 . S
C1403 N584 1.360 . S
C1412 N14 1.208 1_655 S
C1414 C271 1.202 . S
C1423 C526 1.441 . S
C1425 C310 1.442 . S
C1434 N74 1.044 . S
C1436 C340 1.057 . S
C1445 C646 1.335 . S
C1447 C361 1.333 . S
C1456 C196 1.800 . S
C1458 C391 1.801 . S
C1467 C421 1.350 . S
C1469 C706 1.347 . S
C1478 C451 1.713 . S
C1480 C136 1.710 . S
C1489 C481 1.370 . S
C1491 N336 1.359 . S
C1500 C520 1.205 . S
C1502 N726 1.203 . S
C1511 C541 1.440 . S
C1513 C297 1.440 . S
C1522 C571 1.056 . S
C1524 N786 1.045 . S
C1533 C610 1.336 . S
C1535 C417 1.332 . S
C1544 C640 1.801 . S
C1546 C927 1.799 . S
C1555 C477 1.349 . S
C1557 C670 1.348 . S
C1566 C700 1.713 . S
C1568 C867 1.711 . S
C1577 N104 1.357 . S
C1579 C730 1.369 . S
C1588 N494 1.209 . S
C1590 C751 1.196 . S
C1599 C46 1.439 . S
C1601 C790 1.440 . S
C1610 N554 1.048 . S
C1612 C820 1.058 . S
C1621 C166 1.331 . S
C1623 C841 1.335 . S
C1632 C871 1.801 . S
C1634 C676 1.800 . S
C1643 C901 1.350 . S
C1645 C226 1.347 . S
C1654 C616 1.709 . S
C1656 C931 1.714 . S
C1665 C10 0.893 1_565 S
C1667 C121 0.874 . S
C1676 C31 0.997 . S
C1678 C151 1.000 . S
C1687 C70 1.030 . S
C1689 C181 1.034 . S
C1698 C211 0.844 . S
C1700 C100 0.846 . S
C1709 C370 0.872 . S
C1711 C241 0.894 1_545 S
C1720 C400 1.000 . S
C1722 C280 0.997 . S
C1731 C301 1.032 . S
C1733 C430 1.034 . S
C1742 C331 0.841 . S
C1744 C460 0.842 . S
C1753 C490 0.883 . S
C1755 C601 0.886 . S
C1764 C631 1.001 . S
C1766 C511 1.005 . S
C1775 C661 1.039 . S
C1777 C550 1.032 . S
C1786 C691 0.846 . S
C1788 C580 0.842 . S
C1797 C850 0.872 . S
C1799 C721 0.895 . S
C1808 C760 1.000 . S
C1810 C880 0.999 . S
C1819 C910 1.034 . S
C1821 C781 1.031 . S
C1830 C811 0.841 . S
C1832 C940 0.845 . S
C1841 N224 1.915 . S
C1843 C16 1.938 . S
C1852 N44 0.625 . S
C1854 N134 0.632 . S
C1863 C76 1.940 . S
C1865 N164 1.957 . S
C1874 N194 1.610 . S
C1876 C106 1.632 . S
C1885 C267 1.936 . S
C1887 N456 1.911 . S
C1896 N366 0.625 . S
C1898 N276 0.629 . S
C1907 N396 1.956 . S
C1909 C327 1.938 . S
C1918 C357 1.632 . S
C1920 N426 1.612 . S
C1929 C496 1.936 . S
C1931 N704 1.913 . S
C1940 N614 0.634 . S
C1942 N524 0.624 . S
C1951 N644 1.958 . S
C1953 C556 1.941 . S
C1962 N674 1.611 . S
C1964 C586 1.632 . S
C1973 C747 1.938 . S
C1975 N936 1.914 . S
C1984 N846 0.633 . S
C1986 N756 0.625 . S
C1995 C807 1.941 . S
C1997 N876 1.957 . S
C2006 N906 1.613 . S
C2008 C837 1.633 . S
