# Generated by pormake.
# Topology smm, (6)-cn, num edge types: 1
# Building blocks:
#     Node 0, Type 0, BuildingBlock: MIFKUJ_clean_sbu_0, # of connection points: 6
#     Node 1, Type 0, BuildingBlock: MIFKUJ_clean_sbu_0, # of connection points: 6
#     Node 2, Type 0, BuildingBlock: MIFKUJ_clean_sbu_0, # of connection points: 6
#     Node 3, Type 0, BuildingBlock: MIFKUJ_clean_sbu_0, # of connection points: 6
#     Node 4, Type 0, BuildingBlock: MIFKUJ_clean_sbu_0, # of connection points: 6
#     Node 5, Type 0, BuildingBlock: MIFKUJ_clean_sbu_0, # of connection points: 6
#     Node 6, Type 0, BuildingBlock: MIFKUJ_clean_sbu_0, # of connection points: 6
#     Node 7, Type 0, BuildingBlock: MIFKUJ_clean_sbu_0, # of connection points: 6
#     Node 8, Type 0, BuildingBlock: MIFKUJ_clean_sbu_0, # of connection points: 6
#     Edge 9, Type (0, 0), BuildingBlock: KIFKEQ_clean_linker_1, # of connection points: 2
#     Edge 10, Type (0, 0), BuildingBlock: KIFKEQ_clean_linker_1, # of connection points: 2
#     Edge 11, Type (0, 0), BuildingBlock: KIFKEQ_clean_linker_1, # of connection points: 2
#     Edge 12, Type (0, 0), BuildingBlock: KIFKEQ_clean_linker_1, # of connection points: 2
#     Edge 13, Type (0, 0), BuildingBlock: KIFKEQ_clean_linker_1, # of connection points: 2
#     Edge 14, Type (0, 0), BuildingBlock: KIFKEQ_clean_linker_1, # of connection points: 2
#     Edge 15, Type (0, 0), BuildingBlock: KIFKEQ_clean_linker_1, # of connection points: 2
#     Edge 16, Type (0, 0), BuildingBlock: KIFKEQ_clean_linker_1, # of connection points: 2
#     Edge 17, Type (0, 0), BuildingBlock: KIFKEQ_clean_linker_1, # of connection points: 2
#     Edge 18, Type (0, 0), BuildingBlock: KIFKEQ_clean_linker_1, # of connection points: 2
#     Edge 19, Type (0, 0), BuildingBlock: KIFKEQ_clean_linker_1, # of connection points: 2
#     Edge 20, Type (0, 0), BuildingBlock: KIFKEQ_clean_linker_1, # of connection points: 2
#     Edge 21, Type (0, 0), BuildingBlock: KIFKEQ_clean_linker_1, # of connection points: 2
#     Edge 22, Type (0, 0), BuildingBlock: KIFKEQ_clean_linker_1, # of connection points: 2
#     Edge 23, Type (0, 0), BuildingBlock: KIFKEQ_clean_linker_1, # of connection points: 2
#     Edge 24, Type (0, 0), BuildingBlock: KIFKEQ_clean_linker_1, # of connection points: 2
#     Edge 25, Type (0, 0), BuildingBlock: KIFKEQ_clean_linker_1, # of connection points: 2
#     Edge 26, Type (0, 0), BuildingBlock: KIFKEQ_clean_linker_1, # of connection points: 2
#     Edge 27, Type (0, 0), BuildingBlock: KIFKEQ_clean_linker_1, # of connection points: 2
#     Edge 28, Type (0, 0), BuildingBlock: KIFKEQ_clean_linker_1, # of connection points: 2
#     Edge 29, Type (0, 0), BuildingBlock: KIFKEQ_clean_linker_1, # of connection points: 2
#     Edge 30, Type (0, 0), BuildingBlock: KIFKEQ_clean_linker_1, # of connection points: 2
#     Edge 31, Type (0, 0), BuildingBlock: KIFKEQ_clean_linker_1, # of connection points: 2
#     Edge 32, Type (0, 0), BuildingBlock: KIFKEQ_clean_linker_1, # of connection points: 2
#     Edge 33, Type (0, 0), BuildingBlock: KIFKEQ_clean_linker_1, # of connection points: 2
#     Edge 34, Type (0, 0), BuildingBlock: KIFKEQ_clean_linker_1, # of connection points: 2
#     Edge 35, Type (0, 0), BuildingBlock: KIFKEQ_clean_linker_1, # of connection points: 2
# Relax obj value: 0.037
# Max RMSD: 0.128
# Mean RMSD: 0.112
data_MOF--net-smm--node1-MIFKUJ_clean_sbu_0--edge1-KIFKEQ_clean_linker_1
_symmetry_space_group_name_H-M    P1
_symmetry_Int_Tables_number       1
_symmetry_cell_setting            triclinic
loop_
_symmetry_equiv_pos_as_xyz
'x, y, z'
_cell_length_a     61.550424
_cell_length_b     62.942023
_cell_length_c     13.920017
_cell_angle_alpha  92.47911
_cell_angle_beta   92.314679
_cell_angle_gamma 119.73193
loop_
_atom_site_label
_atom_site_type_symbol
_atom_site_fract_x
_atom_site_fract_y
_atom_site_fract_z
_atom_type_partial_charge
Zn0 Zn 0.997 0.13619 0.03946 0.0
Zn1 Zn 0.01507 0.20742 0.01734 0.0
C2 C 0.0457 0.13977 0.06129 0.0
O3 O 0.05007 0.15359 -0.0116 0.0
C4 C 0.97568 0.20979 0.11553 0.0
O5 O 0.98842 0.20867 0.19115 0.0
O6 O 0.96438 0.10427 0.02972 0.0
O7 O 0.99568 0.16373 0.10518 0.0
O8 O 0.02663 0.20053 0.14185 0.0
C9 C 0.95932 0.08814 0.08994 0.0
O10 O 0.97464 0.0934 0.16696 0.0
O11 O 0.02463 0.13109 0.09815 0.0
C12 C 0.03889 0.24993 0.91142 0.0
O13 O 0.02003 0.23596 0.84851 0.0
O14 O 0.0409 0.24144 -0.00971 0.0
O15 O 0.01341 0.18435 0.90518 0.0
O16 O 0.00429 0.14527 0.90413 0.0
O17 O 0.98268 0.20832 0.03178 0.0
C18 C 0.01439 0.17836 0.1615 0.0
C19 C 0.01039 0.16472 0.86115 0.0
Zn20 Zn 0.86458 0.86675 0.00316 0.0
Zn21 Zn 0.80373 0.79432 0.03914 0.0
C22 C 0.91646 0.89264 0.03491 0.0
O23 O 0.90974 0.90427 0.09701 0.0
C24 C 0.75458 0.77262 0.97297 0.0
O25 O 0.76235 0.75788 0.93943 0.0
O26 O 0.85943 0.89494 0.97179 0.0
O27 O 0.84012 0.83357 0.94348 0.0
O28 O 0.81254 0.79581 0.90065 0.0
C29 C 0.8732 0.91064 0.91477 0.0
O30 O 0.88802 0.90609 0.86311 0.0
O31 O 0.89961 0.87484 0.98077 0.0
C32 C 0.80909 0.75937 0.16578 0.0
O33 O 0.82286 0.77754 0.23038 0.0
O34 O 0.8007 0.76344 0.08799 0.0
O35 O 0.82962 0.82571 0.11492 0.0
O36 O 0.86099 0.86325 0.14505 0.0
O37 O 0.76962 0.79118 0.02883 0.0
C38 C 0.82913 0.81664 0.87722 0.0
C39 C 0.84422 0.84329 0.17537 0.0
Zn40 Zn 0.14646 0.01335 0.0122 0.0
Zn41 Zn 0.21179 0.00765 0.96108 0.0
C42 C 0.09986 0.96757 0.96553 0.0
O43 O 0.1088 0.96812 0.88103 0.0
C44 C 0.25945 0.03697 0.03327 0.0
O45 O 0.25306 0.01481 0.05794 0.0
O46 O 0.14663 0.044 0.06607 0.0
O47 O 0.17309 0.00687 0.06315 0.0
O48 O 0.2027 0.99882 0.0976 0.0
C49 C 0.13062 0.04156 0.12623 0.0
O50 O 0.11713 0.02009 0.16096 0.0
O51 O 0.11303 0.98433 0.03111 0.0
C52 C 0.21129 0.9665 0.83173 0.0
O53 O 0.18991 0.9608 0.78499 0.0
O54 O 0.22068 0.9837 0.8984 0.0
O55 O 0.18407 0.011 0.8918 0.0
O56 O 0.15081 0.01502 0.86932 0.0
O57 O 0.24377 0.03987 0.98143 0.0
C58 C 0.18495 0.00175 0.12536 0.0
C59 C 0.16844 0.01268 0.83479 0.0
Zn60 Zn 0.68003 0.47371 0.23883 0.0
Zn61 Zn 0.67179 0.53632 0.31787 0.0
C62 C 0.63169 0.42901 0.23494 0.0
O63 O 0.62979 0.4382 0.31866 0.0
C64 C 0.69862 0.58452 0.28789 0.0
O65 O 0.67605 0.57628 0.24633 0.0
O66 O 0.71239 0.47566 0.20183 0.0
O67 O 0.67335 0.49973 0.19367 0.0
O68 O 0.66567 0.52941 0.17299 0.0
C69 C 0.71178 0.46099 0.13454 0.0
O70 O 0.69071 0.44734 0.08163 0.0
O71 O 0.65115 0.44102 0.18947 0.0
C72 C 0.64911 0.55454 0.44566 0.0
O73 O 0.67168 0.56426 0.48913 0.0
O74 O 0.64349 0.53957 0.37225 0.0
O75 O 0.67607 0.50891 0.36998 0.0
O76 O 0.68087 0.47697 0.38467 0.0
O77 O 0.703 0.56976 0.33327 0.0
C78 C 0.66886 0.5124 0.13667 0.0
C79 C 0.67799 0.49402 0.42346 0.0
Zn80 Zn 0.53754 0.20764 0.1983 0.0
Zn81 Zn 0.47411 0.13794 0.2428 0.0
C82 C 0.58896 0.22342 0.23709 0.0
O83 O 0.58457 0.23271 0.31532 0.0
C84 C 0.43543 0.15021 0.22514 0.0
O85 O 0.45116 0.16658 0.17004 0.0
O86 O 0.53658 0.23756 0.15936 0.0
O87 O 0.50942 0.17601 0.13271 0.0
O88 O 0.47718 0.13951 0.09871 0.0
C89 C 0.55119 0.25093 0.09825 0.0
O90 O 0.56519 0.2437 0.05456 0.0
O91 O 0.57111 0.21119 0.17314 0.0
C92 C 0.46537 0.09972 0.3668 0.0
O93 O 0.46005 0.11297 0.4264 0.0
O94 O 0.47273 0.10721 0.28464 0.0
O95 O 0.50244 0.16934 0.30388 0.0
O96 O 0.53394 0.20579 0.34266 0.0
O97 O 0.44185 0.13654 0.26794 0.0
C98 C 0.49452 0.15937 0.06989 0.0
C99 C 0.51659 0.18564 0.36859 0.0
Zn100 Zn 0.81655 0.33863 0.25001 0.0
Zn101 Zn 0.88705 0.34314 0.31583 0.0
C102 C 0.81665 0.38478 0.25499 0.0
O103 O 0.82733 0.38784 0.342 0.0
C104 C 0.87882 0.29565 0.24179 0.0
O105 O 0.86661 0.29899 0.16987 0.0
O106 O 0.78553 0.3059 0.21726 0.0
O107 O 0.84823 0.34186 0.21286 0.0
O108 O 0.8851 0.35035 0.17633 0.0
C109 C 0.77009 0.30327 0.14805 0.0
O110 O 0.77641 0.32102 0.08998 0.0
O111 O 0.81123 0.3656 0.20201 0.0
C112 C 0.92908 0.38748 0.42685 0.0
O113 O 0.91289 0.39287 0.46324 0.0
O114 O 0.92142 0.3685 0.36956 0.0
O115 O 0.85935 0.34409 0.39306 0.0
O116 O 0.82258 0.34266 0.39395 0.0
O117 O 0.88701 0.31094 0.31538 0.0
C118 C 0.86408 0.34801 0.15032 0.0
C119 C 0.84204 0.34462 0.43914 0.0
Zn120 Zn 0.33782 0.81235 0.66982 0.0
Zn121 Zn 0.35616 0.88345 0.63934 0.0
C122 C 0.38672 0.81686 0.72107 0.0
O123 O 0.39529 0.83465 0.66242 0.0
C124 C 0.31882 0.89008 0.72675 0.0
O125 O 0.33514 0.89549 0.80043 0.0
O126 O 0.30451 0.78121 0.66345 0.0
O127 O 0.33708 0.84096 0.72833 0.0
O128 O 0.36704 0.8779 0.76926 0.0
C129 C 0.29936 0.7667 0.73044 0.0
O130 O 0.315 0.7735 0.80743 0.0
O131 O 0.36358 0.80598 0.73687 0.0
C132 C 0.38206 0.92433 0.52483 0.0
O133 O 0.36697 0.90836 0.45549 0.0
O134 O 0.38102 0.9178 0.61033 0.0
O135 O 0.3558 0.85946 0.5326 0.0
O136 O 0.3468 0.8204 0.53392 0.0
O137 O 0.32288 0.88294 0.64588 0.0
C138 C 0.35471 0.85571 0.78848 0.0
C139 C 0.35348 0.8399 0.49023 0.0
Zn140 Zn 0.19497 0.54203 0.69323 0.0
Zn141 Zn 0.15531 0.4721 0.70877 0.0
C142 C 0.24637 0.56702 0.72141 0.0
O143 O 0.23941 0.57831 0.78408 0.0
C144 C 0.11278 0.46582 0.59375 0.0
O145 O 0.12469 0.46158 0.52604 0.0
O146 O 0.19281 0.5726 0.67885 0.0
O147 O 0.16969 0.51312 0.61342 0.0
O148 O 0.17582 0.48208 0.59516 0.0
C149 C 0.20446 0.58652 0.61322 0.0
O150 O 0.21509 0.57913 0.55028 0.0
O151 O 0.22967 0.54952 0.66553 0.0
C152 C 0.13596 0.42931 0.80996 0.0
O153 O 0.13286 0.44387 0.87146 0.0
O154 O 0.14616 0.43761 0.73238 0.0
O155 O 0.17335 0.49357 0.83018 0.0
O156 O 0.19306 0.53443 0.8308 0.0
O157 O 0.12255 0.47139 0.67978 0.0
C158 C 0.17917 0.50229 0.56744 0.0
C159 C 0.18585 0.51485 0.8739 0.0
Zn160 Zn 0.4772 0.68174 0.72329 0.0
Zn161 Zn 0.5406 0.67284 0.66593 0.0
C162 C 0.43077 0.63598 0.69596 0.0
O163 O 0.44108 0.63279 0.61993 0.0
C164 C 0.58082 0.72107 0.7302 0.0
O165 O 0.56451 0.72037 0.78979 0.0
O166 O 0.48046 0.71456 0.76173 0.0
O167 O 0.50376 0.67519 0.77892 0.0
O168 O 0.53452 0.66802 0.80663 0.0
C169 C 0.46923 0.71747 0.83145 0.0
O170 O 0.45828 0.69971 0.88926 0.0
O171 O 0.44315 0.65519 0.75231 0.0
C172 C 0.55974 0.64938 0.54379 0.0
O173 O 0.57052 0.67123 0.51018 0.0
O174 O 0.54419 0.64479 0.60804 0.0
O175 O 0.5121 0.676 0.60577 0.0
O176 O 0.47943 0.68041 0.57901 0.0
O177 O 0.57383 0.70377 0.66485 0.0
C178 C 0.517 0.67091 0.83823 0.0
C179 C 0.49668 0.67723 0.54645 0.0
H180 H 0.04144 0.27316 0.74744 0.0
H181 H 0.07616 0.28506 0.03573 0.0
H182 H 0.06818 0.31656 0.72342 0.0
H183 H 0.10303 0.3284 0.01111 0.0
H184 H 0.11549 0.40664 0.97188 0.0
H185 H 0.09491 0.36294 -0.00511 0.0
H186 H 0.11254 0.349 0.71006 0.0
H187 H 0.13299 0.39281 0.68637 0.0
C188 C 0.05495 0.28497 0.80528 0.0
C189 C 0.05652 0.27572 0.89379 0.0
C190 C 0.07038 0.30979 0.79125 0.0
C191 C 0.0876 0.32586 0.8656 0.0
C192 C 0.08972 0.31647 0.95298 0.0
C193 C 0.07439 0.29163 0.96685 0.0
C194 C 0.11521 0.39431 0.91446 0.0
C195 C 0.12569 0.40316 0.82705 0.0
C196 C 0.10356 0.36929 0.92792 0.0
C197 C 0.10205 0.35257 0.85411 0.0
C198 C 0.1132 0.36147 0.76775 0.0
C199 C 0.12501 0.38655 0.75447 0.0
H200 H 0.71971 0.7349 0.85291 0.0
H201 H 0.73345 0.8014 0.01229 0.0
H202 H 0.67981 0.72867 0.78711 0.0
H203 H 0.6931 0.79517 0.9447 0.0
H204 H 0.60372 0.74893 0.89862 0.0
H205 H 0.64758 0.76573 0.95473 0.0
H206 H 0.66323 0.74675 0.67412 0.0
H207 H 0.61931 0.7294 0.61858 0.0
C208 C 0.71424 0.74827 0.87383 0.0
C209 C 0.72978 0.76866 0.93788 0.0
C210 C 0.69144 0.74483 0.83508 0.0
C211 C 0.68351 0.76168 0.85925 0.0
C212 C 0.6988 0.78194 0.92454 0.0
C213 C 0.72182 0.78545 0.96333 0.0
C214 C 0.61666 0.74898 0.84799 0.0
C215 C 0.60796 0.73733 0.75481 0.0
C216 C 0.64182 0.75865 0.88024 0.0
C217 C 0.65866 0.75695 0.81957 0.0
C218 C 0.65048 0.74769 0.72328 0.0
C219 C 0.62536 0.73791 0.69127 0.0
H220 H 0.19737 0.92709 0.69956 0.0
H221 H 0.25612 0.97556 0.91405 0.0
H222 H 0.22009 0.90477 0.6698 0.0
H223 H 0.27851 0.9537 0.8838 0.0
H224 H 0.30136 0.89761 0.89312 0.0
H225 H 0.27261 0.91313 0.91374 0.0
H226 H 0.26096 0.91116 0.60477 0.0
H227 H 0.2897 0.89511 0.58376 0.0
C228 C 0.21507 0.93301 0.74009 0.0
C229 C 0.22478 0.953 0.80974 0.0
C230 C 0.22808 0.92028 0.72285 0.0
C231 C 0.2509 0.92724 0.77551 0.0
C232 C 0.26069 0.94747 0.84362 0.0
C233 C 0.24786 0.96013 0.86052 0.0
C234 C 0.29243 0.90012 0.82934 0.0
C235 C 0.29812 0.89548 0.7368 0.0
C236 C 0.27601 0.90912 0.84122 0.0
C237 C 0.26492 0.91387 0.76092 0.0
C238 C 0.26923 0.9077 0.66803 0.0
C239 C 0.28571 0.89855 0.65604 0.0
H240 H 0.40094 0.12634 0.3543 0.0
H241 H 0.40965 0.15736 0.0781 0.0
H242 H 0.3556 0.10363 0.32015 0.0
H243 H 0.36436 0.1339 0.04229 0.0
H244 H 0.27879 0.08613 0.0075 0.0
H245 H 0.3198 0.12005 0.07158 0.0
H246 H 0.33593 0.0681 0.20424 0.0
H247 H 0.29553 0.0348 0.14243 0.0
C248 C 0.39308 0.12883 0.28748 0.0
C249 C 0.40874 0.14307 0.21781 0.0
C250 C 0.36717 0.11576 0.26771 0.0
C251 C 0.35657 0.11639 0.17725 0.0
C252 C 0.372 0.13297 0.11242 0.0
C253 C 0.39797 0.14636 0.13288 0.0
C254 C 0.29114 0.08211 0.05084 0.0
C255 C 0.28396 0.05782 0.06984 0.0
C256 C 0.3145 0.10148 0.08765 0.0
C257 C 0.33086 0.09678 0.14442 0.0
C258 C 0.32349 0.07247 0.16329 0.0
C259 C 0.30038 0.05328 0.12665 0.0
H260 H 0.86759 0.26225 0.08851 0.0
H261 H 0.90985 0.28828 0.36491 0.0
H262 H 0.88663 0.2369 0.05679 0.0
H263 H 0.9293 0.26353 0.33227 0.0
H264 H 0.95211 0.20745 0.27944 0.0
H265 H 0.92414 0.22345 0.3116 0.0
H266 H 0.92731 0.24385 0.01784 0.0
H267 H 0.95475 0.22713 0.98498 0.0
C268 C 0.88068 0.26233 0.14311 0.0
C269 C 0.88727 0.27742 0.2291 0.0
C270 C 0.89176 0.24794 0.12451 0.0
C271 C 0.90969 0.24829 0.19147 0.0
C272 C 0.91536 0.26252 0.27938 0.0
C273 C 0.90425 0.27684 0.29806 0.0
C274 C 0.94652 0.21499 0.22122 0.0
C275 C 0.95584 0.21621 0.12985 0.0
C276 C 0.93059 0.22432 0.23987 0.0
C277 C 0.92372 0.23529 0.16784 0.0
C278 C 0.93201 0.23536 0.07493 0.0
C279 C 0.94783 0.22584 0.05605 0.0
H280 H 0.79027 0.71983 0.03682 0.0
H281 H 0.80746 0.74075 0.34206 0.0
H282 H 0.76759 0.67684 0.07069 0.0
H283 H 0.78429 0.69733 0.37592 0.0
H284 H 0.74696 0.61031 0.37283 0.0
H285 H 0.77901 0.65271 0.34634 0.0
H286 H 0.72613 0.65812 0.15005 0.0
H287 H 0.69458 0.61658 0.17593 0.0
C288 C 0.7896 0.71522 0.11116 0.0
C289 C 0.80018 0.73366 0.18691 0.0
C290 C 0.77662 0.69061 0.13046 0.0
C291 C 0.77381 0.68386 0.22591 0.0
C292 C 0.78622 0.7021 0.30169 0.0
C293 C 0.79938 0.72691 0.28228 0.0
C294 C 0.7423 0.62065 0.32416 0.0
C295 C 0.71828 0.61006 0.27621 0.0
C296 C 0.76058 0.64483 0.30921 0.0
C297 C 0.7551 0.65846 0.24502 0.0
C298 C 0.73103 0.64786 0.19838 0.0
C299 C 0.71287 0.62405 0.21389 0.0
H300 H 0.09079 0.46336 0.41725 0.0
H301 H 0.07677 0.45782 0.71928 0.0
H302 H 0.04671 0.44938 0.37619 0.0
H303 H 0.03238 0.44308 0.67789 0.0
H304 H 0.95354 0.42565 0.56662 0.0
H305 H 0.99894 0.45009 0.60703 0.0
H306 H 0.01107 0.40862 0.38115 0.0
H307 H 0.96642 0.38479 0.34031 0.0
C308 C 0.07832 0.4594 0.47496 0.0
C309 C 0.08711 0.46125 0.57128 0.0
C310 C 0.05307 0.45133 0.45145 0.0
C311 C 0.03598 0.44466 0.52366 0.0
C312 C 0.04509 0.44816 0.62065 0.0
C313 C 0.07049 0.45648 0.64431 0.0
C314 C 0.966 0.42199 0.52525 0.0
C315 C 0.95637 0.40322 0.45057 0.0
C316 C 0.99194 0.4359 0.54854 0.0
C317 C 0.0086 0.43141 0.49679 0.0
C318 C 0.99885 0.41292 0.42125 0.0
C319 C 0.97314 0.39904 0.39848 0.0
H320 H 0.59947 0.658 0.43978 0.0
H321 H 0.54099 0.60192 0.59395 0.0
H322 H 0.61855 0.63235 0.4196 0.0
H323 H 0.56011 0.57601 0.57145 0.0
H324 H 0.5992 0.53575 0.3904 0.0
H325 H 0.57438 0.55627 0.41139 0.0
H326 H 0.63782 0.61748 0.56972 0.0
H327 H 0.66236 0.59704 0.55135 0.0
C328 C 0.5904 0.64004 0.46788 0.0
C329 C 0.56882 0.63212 0.51929 0.0
C330 C 0.60141 0.62542 0.45653 0.0
C331 C 0.59087 0.6024 0.49482 0.0
C332 C 0.56852 0.59374 0.5414 0.0
C333 C 0.55765 0.60858 0.55422 0.0
C334 C 0.60764 0.55338 0.43122 0.0
C335 C 0.63276 0.56481 0.46896 0.0
C336 C 0.59346 0.56505 0.44313 0.0
C337 C 0.60438 0.58848 0.49119 0.0
C338 C 0.62911 0.59947 0.53177 0.0
C339 C 0.64307 0.58767 0.52162 0.0
H340 H 0.44527 0.05918 0.24274 0.0
H341 H 0.47053 0.08404 0.54087 0.0
H342 H 0.42821 0.01696 0.28232 0.0
H343 H 0.45557 0.04187 0.58051 0.0
H344 H 0.39573 0.96494 0.6436 0.0
H345 H 0.41938 0.00744 0.60556 0.0
H346 H 0.43117 0.98416 0.32442 0.0
H347 H 0.4055 0.94153 0.36078 0.0
C348 C 0.44785 0.05554 0.31648 0.0
C349 C 0.45896 0.07472 0.38901 0.0
C350 C 0.43821 0.03126 0.33944 0.0
C351 C 0.44014 0.02564 0.43524 0.0
C352 C 0.45287 0.0452 0.50655 0.0
C353 C 0.46176 0.06944 0.48394 0.0
C354 C 0.40355 0.96902 0.57395 0.0
C355 C 0.39866 0.95006 0.50475 0.0
C356 C 0.41739 0.99348 0.55212 0.0
C357 C 0.42731 -0.00041 0.46137 0.0
C358 C 0.42334 0.9804 0.394 0.0
C359 C 0.40881 0.95591 0.41491 0.0
H360 H 0.09046 0.03757 0.21628 0.0
H361 H 0.15451 0.08883 0.07062 0.0
H362 H 0.07404 0.06536 0.21555 0.0
H363 H 0.13874 0.11757 0.07461 0.0
H364 H 0.08277 0.14069 0.95817 0.0
H365 H 0.10726 0.12098 -0.00845 0.0
H366 H 0.07417 0.10092 0.26499 0.0
H367 H 0.04849 0.11951 0.22817 0.0
C368 C 0.10145 0.05513 0.18639 0.0
C369 C 0.12362 0.06078 0.1421 0.0
C370 C 0.09207 0.07128 0.18663 0.0
C371 C 0.10482 0.09376 0.14395 0.0
C372 C 0.12801 0.10019 0.10594 0.0
C373 C 0.13721 0.0838 0.10438 0.0
C374 C 0.08098 0.13237 0.02608 0.0
C375 C 0.06342 0.13132 0.08988 0.0
C376 C 0.09523 0.12117 0.04576 0.0
C377 C 0.09261 0.10899 0.13068 0.0
C378 C 0.07625 0.10949 0.19762 0.0
C379 C 0.06163 0.1203 0.17697 0.0
H380 H 0.90042 0.94862 0.80392 0.0
H381 H 0.85602 0.93006 0.0518 0.0
H382 H 0.91523 0.99195 0.84372 0.0
H383 H 0.87089 0.97346 0.09136 0.0
H384 H 0.94179 0.04946 0.20364 0.0
H385 H 0.91435 0.0062 0.15283 0.0
H386 H 0.90441 0.0254 0.86676 0.0
H387 H 0.93186 0.06874 0.91736 0.0
C388 C 0.8933 0.95371 0.8654 0.0
C389 C 0.87732 0.93591 0.92537 0.0
C390 C 0.90171 0.97855 0.88801 0.0
C391 C 0.89444 0.98609 0.97139 0.0
C392 C 0.87703 0.96817 0.02736 0.0
C393 C 0.86841 0.9433 0.00423 0.0
C394 C 0.93334 0.04452 0.1305 0.0
C395 C 0.93925 0.06252 0.06436 0.0
C396 C 0.91749 0.01973 0.1015 0.0
C397 C 0.90738 0.01243 0.00558 0.0
C398 C 0.91213 0.03051 0.94087 0.0
C399 C 0.92777 0.05532 0.97012 0.0
H400 H 0.93673 0.8707 0.9246 0.0
H401 H 0.95656 0.93198 0.13075 0.0
H402 H 0.98115 0.88409 0.91349 0.0
H403 H 1.00067 0.94563 0.11778 0.0
H404 H 0.07744 0.95759 0.13521 0.0
H405 H 0.03265 0.93539 0.15647 0.0
H406 H 0.01736 0.91763 0.84889 0.0
H407 H 0.06223 0.93919 0.82797 0.0
C408 C 0.95055 0.88701 0.96747 0.0
C409 C 0.94318 0.90033 0.0284 0.0
C410 C 0.97596 0.89468 0.96097 0.0
C411 C 0.99442 0.91582 0.01516 0.0
C412 C 0.98694 0.92896 0.07661 0.0
C413 C 0.96162 0.92126 0.08337 0.0
C414 C 0.06453 0.94852 0.07235 0.0
C415 C 0.07329 0.95043 0.97975 0.0
C416 C 0.03887 0.93594 0.08447 0.0
C417 C 0.02146 0.92521 0.00415 0.0
C418 C 0.03029 0.92563 0.91227 0.0
C419 C 0.05601 0.93806 0.90022 0.0
H420 H 0.75887 0.4863 0.22681 0.0
H421 H 0.7112 0.4226 0.03386 0.0
H422 H 0.78965 0.47271 0.24138 0.0
H423 H 0.7411 0.40842 0.05189 0.0
H424 H 0.79969 0.38767 0.07408 0.0
H425 H 0.77975 0.41124 0.02846 0.0
H426 H 0.79224 0.44211 0.32264 0.0
H427 H 0.81318 0.41952 0.36657 0.0
C428 C 0.75511 0.46957 0.18653 0.0
C429 C 0.73245 0.4554 0.13007 0.0
C430 C 0.77266 0.46164 0.19549 0.0
C431 C 0.76778 0.43922 0.14918 0.0
C432 C 0.74579 0.42591 0.08796 0.0
C433 C 0.72845 0.43399 0.07801 0.0
C434 C 0.79857 0.39986 0.12846 0.0
C435 C 0.80774 0.40151 0.22418 0.0
C436 C 0.78698 0.41328 0.10251 0.0
C437 C 0.78396 0.42837 0.17201 0.0
C438 C 0.7944 0.43097 0.26661 0.0
C439 C 0.8063 0.41783 0.29217 0.0
H440 H 0.624 0.40832 0.05182 0.0
H441 H 0.59749 0.39257 0.33692 0.0
H442 H 0.59795 0.3651 -0.00214 0.0
H443 H 0.57238 0.34927 0.28472 0.0
H444 H 0.52565 0.27201 0.17675 0.0
H445 H 0.53907 0.31563 0.19202 0.0
H446 H 0.60219 0.33074 0.02434 0.0
H447 H 0.58822 0.28736 0.00588 0.0
C448 C 0.6124 0.39562 0.1027 0.0
C449 C 0.61306 0.4037 0.19897 0.0
C450 C 0.59754 0.37084 0.07193 0.0
C451 C 0.58338 0.35356 0.13723 0.0
C452 C 0.58282 0.36199 0.23197 0.0
C453 C 0.59738 0.38685 0.2623 0.0
C454 C 0.54204 0.28464 0.14123 0.0
C455 C 0.55614 0.27629 0.09155 0.0
C456 C 0.54983 0.30966 0.15051 0.0
C457 C 0.57199 0.32682 0.11101 0.0
C458 C 0.58493 0.31816 0.05517 0.0
C459 C 0.577 0.29318 0.04508 0.0
H460 H 0.60653 0.21374 0.0727 0.0
H461 H 0.62966 0.24525 0.36622 0.0
H462 H 0.65009 0.22642 0.04368 0.0
H463 H 0.67295 0.25807 0.33694 0.0
H464 H 0.748 0.26985 0.28278 0.0
H465 H 0.70315 0.24437 0.29999 0.0
H466 H 0.68728 0.26737 0.03093 0.0
H467 H 0.73203 0.2926 0.01298 0.0
C468 C 0.62083 0.22307 0.13129 0.0
C469 C 0.61471 0.22872 0.22146 0.0
C470 C 0.64575 0.23037 0.11458 0.0
C471 C 0.66493 0.24325 0.18795 0.0
C472 C 0.65858 0.24787 0.27928 0.0
C473 C 0.63377 0.24073 0.29578 0.0
C474 C 0.73497 0.26897 0.22595 0.0
C475 C 0.74358 0.2836 0.14727 0.0
C476 C 0.70927 0.25447 0.23618 0.0
C477 C 0.69172 0.2542 0.16765 0.0
C478 C 0.70033 0.26713 0.08484 0.0
C479 C 0.72601 0.28171 0.07481 0.0
H480 H 0.44749 0.73062 0.97241 0.0
H481 H 0.47811 0.75037 0.69524 0.0
H482 H 0.43171 0.75922 0.96274 0.0
H483 H 0.46156 0.77813 0.68373 0.0
H484 H 0.43624 0.83343 0.69201 0.0
H485 H 0.46095 0.81423 0.73566 0.0
H486 H 0.39787 0.75859 0.87305 0.0
H487 H 0.37363 0.77819 0.83243 0.0
C488 C 0.45116 0.7413 0.91 0.0
C489 C 0.46381 0.73797 0.83415 0.0
C490 C 0.44192 0.75757 0.90404 0.0
C491 C 0.44492 0.77073 0.82167 0.0
C492 C 0.45901 0.76853 0.74869 0.0
C493 C 0.46844 0.75246 0.75509 0.0
C494 C 0.42782 0.81735 0.73302 0.0
C495 C 0.40286 0.80722 0.75785 0.0
C496 C 0.44194 0.80623 0.75754 0.0
C497 C 0.43141 0.78468 0.80721 0.0
C498 C 0.40682 0.7753 0.83592 0.0
C499 C 0.39278 0.78647 0.81186 0.0
H500 H 0.22977 0.62133 0.48772 0.0
H501 H 0.1935 0.6105 0.75514 0.0
H502 H 0.24715 0.66542 0.51496 0.0
H503 H 0.21072 0.65469 0.78167 0.0
H504 H 0.2687 0.74413 0.56652 0.0
H505 H 0.23945 0.70034 0.53277 0.0
H506 H 0.25444 0.68743 0.82387 0.0
H507 H 0.2834 0.7311 0.85803 0.0
C508 C 0.22499 0.6283 0.55116 0.0
C509 C 0.21055 0.61243 0.61992 0.0
C510 C 0.23486 0.65359 0.56651 0.0
C511 C 0.23051 0.66354 0.65102 0.0
C512 C 0.21466 0.64755 0.71655 0.0
C513 C 0.20469 0.62223 0.70101 0.0
C514 C 0.26535 0.73202 0.62394 0.0
C515 C 0.27859 0.74106 0.7147 0.0
C516 C 0.24869 0.70693 0.60438 0.0
C517 C 0.24479 0.69042 0.67538 0.0
C518 C 0.25684 0.69968 0.76786 0.0
C519 C 0.27358 0.72473 0.78728 0.0
H520 H 0.39478 0.60475 0.55855 0.0
H521 H 0.40589 0.63126 0.85799 0.0
H522 H 0.34953 0.58494 0.5683 0.0
H523 H 0.36066 0.61056 0.86916 0.0
H524 H 0.28608 0.60774 0.81053 0.0
H525 H 0.33012 0.62011 0.80985 0.0
H526 H 0.31137 0.55472 0.63003 0.0
H527 H 0.26696 0.5427 0.62802 0.0
C528 C 0.38753 0.60574 0.6272 0.0
C529 C 0.4038 0.61992 0.70705 0.0
C530 C 0.36157 0.59431 0.63291 0.0
C531 C 0.35146 0.59661 0.71897 0.0
C532 C 0.36784 0.60906 0.80096 0.0
C533 C 0.39374 0.62077 0.79485 0.0
C534 C 0.29129 0.59594 0.77091 0.0
C535 C 0.27308 0.57428 0.71917 0.0
C536 C 0.31658 0.6029 0.77138 0.0
C537 C 0.32431 0.58825 0.72094 0.0
C538 C 0.30606 0.56649 0.66918 0.0
C539 C 0.28065 0.5596 0.66804 0.0
H540 H 1.00056 0.12545 0.73749 0.0
H541 H 0.03038 0.20393 0.75056 0.0
H542 H 0.0065 0.12541 0.56516 0.0
H543 H 0.03578 0.20374 0.57893 0.0
H544 H 0.05619 0.20299 0.28431 0.0
H545 H 0.05936 0.19707 0.45509 0.0
H546 H 0.98604 0.13206 0.42292 0.0
H547 H 0.98306 0.13777 0.25207 0.0
C548 C 0.00848 0.1427 0.70384 0.0
C549 C 0.01471 0.16468 0.75756 0.0
C550 C 0.01186 0.14263 0.60523 0.0
C551 C 0.0217 0.16455 0.5587 0.0
C552 C 0.02856 0.18659 0.613 0.0
C553 C 0.02512 0.18665 0.71126 0.0
C554 C 0.04108 0.18704 0.31323 0.0
C555 C 0.01917 0.17109 0.25558 0.0
C556 C 0.04285 0.18373 0.41098 0.0
C557 C 0.02269 0.16447 0.45267 0.0
C558 C 0.00189 0.14707 0.39285 0.0
C559 C 1.00017 0.15034 0.29488 0.0
H560 H 0.85498 0.86045 0.79903 0.0
H561 H 0.81539 0.78219 0.72805 0.0
H562 H 0.85948 0.86751 0.62838 0.0
H563 H 0.82046 0.78914 0.55771 0.0
H564 H 0.80426 0.81042 0.26676 0.0
H565 H 0.80257 0.80422 0.43851 0.0
H566 H 0.87945 0.86297 0.48833 0.0
H567 H 0.88093 0.86947 0.31689 0.0
C568 C 0.84776 0.84482 0.74698 0.0
C569 C 0.83476 0.82085 0.77627 0.0
C570 C 0.85032 0.84881 0.64944 0.0
C571 C 0.84005 0.82885 0.57991 0.0
C572 C 0.82806 0.80486 0.60975 0.0
C573 C 0.82534 0.80089 0.70714 0.0
C574 C 0.82075 0.82198 0.31463 0.0
C575 C 0.84276 0.84027 0.279 0.0
C576 C 0.81986 0.81836 0.41262 0.0
C577 C 0.84099 0.83296 0.47641 0.0
C578 C 0.86285 0.85157 0.44082 0.0
C579 C 0.86369 0.85526 0.34286 0.0
H580 H 0.13225 0.00403 0.69498 0.0
H581 H 0.2076 0.0161 0.73906 0.0
H582 H 0.13369 0.99832 0.52178 0.0
H583 H 0.20944 0.01135 0.56574 0.0
H584 H 0.19826 0.9799 0.26195 0.0
H585 H 0.19244 0.98082 0.43384 0.0
H586 H 0.15362 0.02143 0.38871 0.0
H587 H 0.15881 0.01973 0.21672 0.0
C588 C 0.14923 0.00576 0.66745 0.0
C589 C 0.16984 0.01056 0.73014 0.0
C590 C 0.15006 0.00251 0.56833 0.0
C591 C 0.17163 0.00428 0.53016 0.0
C592 C 0.19235 0.00937 0.59307 0.0
C593 C 0.1914 0.01233 0.69222 0.0
C594 C 0.18814 0.98866 0.28883 0.0
C595 C 0.17887 -0.0003 0.22647 0.0
C596 C 0.185 0.98938 0.3872 0.0
C597 C 0.17283 0.00144 0.42494 0.0
C598 C 0.16281 0.01173 0.36178 0.0
C599 C 0.16573 0.01076 0.2633 0.0
H600 H 0.65225 0.51233 0.51515 0.0
H601 H 0.69756 0.47854 0.56462 0.0
H602 H 0.64738 0.51456 0.68712 0.0
H603 H 0.69376 0.48172 0.73775 0.0
H604 H 0.66532 0.47246 0.03621 0.0
H605 H 0.66566 0.46639 0.86212 0.0
H606 H 0.67152 0.53704 0.82844 0.0
H607 H 0.67008 0.54249 0.00107 0.0
C608 C 0.66149 0.50575 0.56332 0.0
C609 C 0.67553 0.49559 0.52736 0.0
C610 C 0.65872 0.507 0.66176 0.0
C611 C 0.67034 0.49849 0.72631 0.0
C612 C 0.68426 0.48811 0.68989 0.0
C613 C 0.68664 0.48647 0.59104 0.0
C614 C 0.66646 0.48653 -0.00883 0.0
C615 C 0.66766 0.50791 0.03177 0.0
C616 C 0.66682 0.48315 0.89167 0.0
C617 C 0.66867 0.50126 0.83138 0.0
C618 C 0.66959 0.52251 0.87244 0.0
C619 C 0.6689 0.52571 0.97151 0.0
H620 H 0.50821 0.1456 0.459 0.0
H621 H 0.51632 0.21743 0.50552 0.0
H622 H 0.50121 0.13875 0.62916 0.0
H623 H 0.50915 0.21073 0.67603 0.0
H624 H 0.52745 0.20062 -0.0121 0.0
H625 H 0.53163 0.207 0.81698 0.0
H626 H 0.47067 0.13301 0.74749 0.0
H627 H 0.46679 0.12652 0.91884 0.0
C628 C 0.50794 0.15965 0.50581 0.0
C629 C 0.51233 0.18178 0.4702 0.0
C630 C 0.50402 0.15582 0.60285 0.0
C631 C 0.50454 0.17418 0.66558 0.0
C632 C 0.50892 0.19638 0.62939 0.0
C633 C 0.51297 0.20022 0.5323 0.0
C634 C 0.515 0.18574 0.93613 0.0
C635 C 0.49695 0.16307 0.96652 0.0
C636 C 0.51723 0.18945 0.83835 0.0
C637 C 0.50145 0.1705 0.76912 0.0
C638 C 0.48325 0.14784 0.79946 0.0
C639 C 0.481 0.14416 0.8974 0.0
H640 H 0.88116 0.35057 0.55867 0.0
H641 H 0.80892 0.34651 0.55975 0.0
H642 H 0.88536 0.35568 0.73345 0.0
H643 H 0.81335 0.35194 0.73545 0.0
H644 H 0.89745 0.38142 0.03855 0.0
H645 H 0.89123 0.38458 0.86679 0.0
H646 H 0.81353 0.32796 0.86987 0.0
H647 H 0.8198 0.32542 0.04261 0.0
C648 C 0.86628 0.351 0.59611 0.0
C649 C 0.84473 0.34812 0.5453 0.0
C650 C 0.86878 0.35415 0.69634 0.0
C651 C 0.84977 0.35445 0.74807 0.0
C652 C 0.82825 0.35171 0.69741 0.0
C653 C 0.82577 0.34863 0.59688 0.0
C654 C 0.87894 0.37008 0.00263 0.0
C655 C 0.85908 0.35307 0.05276 0.0
C656 C 0.8754 0.37179 0.90451 0.0
C657 C 0.85205 0.35616 0.85463 0.0
C658 C 0.83171 0.34034 0.90648 0.0
C659 C 0.83521 0.33889 0.00518 0.0
H660 H 0.33747 0.80011 0.36074 0.0
H661 H 0.3806 0.87923 0.38614 0.0
H662 H 0.34211 0.80027 0.18729 0.0
H663 H 0.38405 0.87957 0.21333 0.0
H664 H 0.39732 0.87788 0.90837 0.0
H665 H 0.40114 0.87093 0.07769 0.0
H666 H 0.3248 0.81048 0.05202 0.0
H667 H 0.3214 0.81705 0.8825 0.0
C668 C 0.34801 0.81754 0.3294 0.0
C669 C 0.35809 0.83973 0.38678 0.0
C670 C 0.35055 0.81763 0.22994 0.0
C671 C 0.36326 0.83992 0.18593 0.0
C672 C 0.37433 0.86202 0.24441 0.0
C673 C 0.3719 0.86189 0.34356 0.0
C674 C 0.38163 0.8627 0.93852 0.0
C675 C 0.35901 0.8481 0.88271 0.0
C676 C 0.38373 0.85881 0.03563 0.0
C677 C 0.36309 0.8405 0.07918 0.0
C678 C 0.34114 0.82466 0.02104 0.0
C679 C 0.33916 0.82839 0.92362 0.0
H680 H 0.20865 0.55636 -0.0033 0.0
H681 H 0.17813 0.47774 0.98653 0.0
H682 H 0.21682 0.55882 0.17103 0.0
H683 H 0.18588 0.48024 0.15972 0.0
H684 H 0.20684 0.48754 0.46506 0.0
H685 H 0.21724 0.49551 0.29813 0.0
H686 H 0.18684 0.5444 0.29772 0.0
H687 H 0.17665 0.53659 0.46364 0.0
C688 C 0.20385 0.53965 0.0314 0.0
C689 C 0.19226 0.51678 0.97816 0.0
C690 C 0.20863 0.54111 0.13097 0.0
C691 C 0.20202 0.51976 0.1787 0.0
C692 C 0.19156 0.49709 0.12476 0.0
C693 C 0.18673 0.49561 0.02556 0.0
C694 C 0.20303 0.50048 0.4299 0.0
C695 C 0.19061 0.51118 0.47648 0.0
C696 C 0.20897 0.50504 0.33463 0.0
C697 C 0.20247 0.52025 0.28478 0.0
C698 C 0.19225 0.53273 0.33449 0.0
C699 C 0.18632 0.52819 0.42959 0.0
H700 H 0.51831 0.65453 0.45353 0.0
H701 H 0.47868 0.69414 0.40588 0.0
H702 H 0.52132 0.65042 0.28061 0.0
H703 H 0.48258 0.69106 0.23321 0.0
H704 H 0.47501 0.6642 0.92195 0.0
H705 H 0.46852 0.66346 0.09366 0.0
H706 H 0.54329 0.67527 0.15675 0.0
H707 H 0.54921 0.67486 0.9855 0.0
C708 C 0.51053 0.6626 0.40587 0.0
C709 C 0.4985 0.67483 0.44248 0.0
C710 C 0.51225 0.66029 0.30699 0.0
C711 C 0.50229 0.67052 0.24321 0.0
C712 C 0.49007 0.68261 0.28022 0.0
C713 C 0.48801 0.68457 0.37903 0.0
C714 C 0.48992 0.66645 0.97279 0.0
C715 C 0.51258 0.66957 0.94093 0.0
C716 C 0.48629 0.66616 0.07098 0.0
C717 C 0.50542 0.66937 0.13882 0.0
C718 C 0.528 0.67228 0.10638 0.0
C719 C 0.53146 0.6722 0.00832 0.0
loop_
_geom_bond_atom_site_label_1
_geom_bond_atom_site_label_2
_geom_bond_distance
_geom_bond_site_symmetry_2
_ccdc_geom_bond_type
Zn0 O6 1.969 1_455 S
Zn0 O7 1.965 1_455 S
Zn0 O11 2.024 . S
Zn0 O16 1.969 1_554 S
Zn1 O8 1.969 . S
Zn1 O14 1.969 . S
Zn1 O15 1.965 1_554 S
Zn1 O17 2.024 1_455 S
C2 O3 1.229 1_554 S
C2 O11 1.058 . S
O3 C2 1.229 1_556 S
C4 O5 1.229 . S
C4 O17 1.058 . S
O5 C4 1.229 . S
O6 Zn0 1.969 1_655 S
O6 C9 1.267 . S
O7 Zn0 1.965 1_655 S
O7 C18 1.260 1_655 S
O8 Zn1 1.969 . S
O8 C18 1.258 . S
C9 O6 1.267 . S
C9 O10 1.228 . S
O10 C9 1.228 . S
O11 Zn0 2.024 . S
O11 C2 1.058 . S
C12 O13 1.228 . S
C12 O14 1.267 1_556 S
O13 C12 1.228 . S
O14 Zn1 1.969 . S
O14 C12 1.267 1_554 S
O15 Zn1 1.965 1_556 S
O15 C19 1.260 . S
O16 Zn0 1.969 1_556 S
O16 C19 1.258 . S
O17 Zn1 2.024 1_655 S
O17 C4 1.058 . S
C18 O7 1.260 1_455 S
C18 O8 1.258 . S
C19 O15 1.260 . S
C19 O16 1.258 . S
Zn20 O26 1.969 . S
Zn20 O27 1.965 1_554 S
Zn20 O31 2.024 . S
Zn20 O36 1.969 . S
Zn21 O28 1.969 1_554 S
Zn21 O34 1.969 . S
Zn21 O35 1.965 . S
Zn21 O37 2.024 . S
C22 O23 1.229 . S
C22 O31 1.058 . S
O23 C22 1.229 . S
C24 O25 1.229 1_554 S
C24 O37 1.058 . S
O25 C24 1.229 1_556 S
O26 Zn20 1.969 . S
O26 C29 1.267 1_554 S
O27 Zn20 1.965 1_556 S
O27 C38 1.260 . S
O28 Zn21 1.969 1_556 S
O28 C38 1.258 . S
C29 O26 1.267 1_556 S
C29 O30 1.229 . S
O30 C29 1.229 . S
O31 Zn20 2.024 . S
O31 C22 1.058 . S
C32 O33 1.228 . S
C32 O34 1.267 . S
O33 C32 1.228 . S
O34 Zn21 1.969 . S
O34 C32 1.267 . S
O35 Zn21 1.965 . S
O35 C39 1.260 . S
O36 Zn20 1.969 . S
O36 C39 1.258 . S
O37 Zn21 2.024 . S
O37 C24 1.058 . S
C38 O27 1.260 . S
C38 O28 1.258 . S
C39 O35 1.260 . S
C39 O36 1.258 . S
Zn40 O46 1.969 . S
Zn40 O47 1.965 1_556 S
Zn40 O51 2.024 1_546 S
Zn40 O56 1.969 . S
Zn41 O48 1.969 . S
Zn41 O54 1.969 1_545 S
Zn41 O55 1.965 1_544 S
Zn41 O57 2.024 1_554 S
C42 O43 1.229 . S
C42 O51 1.058 1_556 S
O43 C42 1.229 . S
C44 O45 1.229 . S
C44 O57 1.058 1_554 S
O45 C44 1.229 . S
O46 Zn40 1.969 . S
O46 C49 1.267 1_556 S
O47 Zn40 1.965 1_554 S
O47 C58 1.260 . S
O48 Zn41 1.969 . S
O48 C58 1.258 . S
C49 O46 1.267 1_554 S
C49 O50 1.228 . S
O50 C49 1.228 . S
O51 Zn40 2.024 1_564 S
O51 C42 1.058 1_554 S
C52 O53 1.228 . S
C52 O54 1.267 1_556 S
O53 C52 1.228 . S
O54 Zn41 1.969 1_565 S
O54 C52 1.267 1_554 S
O55 Zn41 1.965 1_566 S
O55 C59 1.260 1_565 S
O56 Zn40 1.969 . S
O56 C59 1.258 . S
O57 Zn41 2.024 1_556 S
O57 C44 1.058 1_556 S
C58 O47 1.260 . S
C58 O48 1.258 . S
C59 O55 1.260 1_545 S
C59 O56 1.258 . S
Zn60 O66 1.969 . S
Zn60 O67 1.965 . S
Zn60 O71 2.024 . S
Zn60 O76 1.969 . S
Zn61 O68 1.969 . S
Zn61 O74 1.969 . S
Zn61 O75 1.965 . S
Zn61 O77 2.024 . S
C62 O63 1.229 . S
C62 O71 1.058 . S
O63 C62 1.229 . S
C64 O65 1.229 . S
C64 O77 1.058 . S
O65 C64 1.229 . S
O66 Zn60 1.969 . S
O66 C69 1.267 . S
O67 Zn60 1.965 . S
O67 C78 1.260 . S
O68 Zn61 1.969 . S
O68 C78 1.258 . S
C69 O66 1.267 . S
C69 O70 1.228 . S
O70 C69 1.228 . S
O71 Zn60 2.024 . S
O71 C62 1.058 . S
C72 O73 1.228 . S
C72 O74 1.267 . S
O73 C72 1.228 . S
O74 Zn61 1.969 . S
O74 C72 1.267 . S
O75 Zn61 1.965 . S
O75 C79 1.260 . S
O76 Zn60 1.969 . S
O76 C79 1.258 . S
O77 Zn61 2.024 . S
O77 C64 1.058 . S
C78 O67 1.260 . S
C78 O68 1.258 . S
C79 O75 1.260 . S
C79 O76 1.258 . S
Zn80 O86 1.969 . S
Zn80 O87 1.965 . S
Zn80 O91 2.024 . S
Zn80 O96 1.969 . S
Zn81 O88 1.969 . S
Zn81 O94 1.969 . S
Zn81 O95 1.965 . S
Zn81 O97 2.024 . S
C82 O83 1.229 . S
C82 O91 1.058 . S
O83 C82 1.229 . S
C84 O85 1.229 . S
C84 O97 1.058 . S
O85 C84 1.229 . S
O86 Zn80 1.969 . S
O86 C89 1.267 . S
O87 Zn80 1.965 . S
O87 C98 1.260 . S
O88 Zn81 1.969 . S
O88 C98 1.258 . S
C89 O86 1.267 . S
C89 O90 1.228 . S
O90 C89 1.228 . S
O91 Zn80 2.024 . S
O91 C82 1.058 . S
C92 O93 1.228 . S
C92 O94 1.267 . S
O93 C92 1.228 . S
O94 Zn81 1.969 . S
O94 C92 1.267 . S
O95 Zn81 1.965 . S
O95 C99 1.260 . S
O96 Zn80 1.969 . S
O96 C99 1.258 . S
O97 Zn81 2.024 . S
O97 C84 1.058 . S
C98 O87 1.260 . S
C98 O88 1.258 . S
C99 O95 1.260 . S
C99 O96 1.258 . S
Zn100 O106 1.969 . S
Zn100 O107 1.965 . S
Zn100 O111 2.024 . S
Zn100 O116 1.969 . S
Zn101 O108 1.969 . S
Zn101 O114 1.969 . S
Zn101 O115 1.965 . S
Zn101 O117 2.024 . S
C102 O103 1.229 . S
C102 O111 1.058 . S
O103 C102 1.229 . S
C104 O105 1.229 . S
C104 O117 1.058 . S
O105 C104 1.229 . S
O106 Zn100 1.969 . S
O106 C109 1.267 . S
O107 Zn100 1.965 . S
O107 C118 1.260 . S
O108 Zn101 1.969 . S
O108 C118 1.258 . S
C109 O106 1.267 . S
C109 O110 1.228 . S
O110 C109 1.228 . S
O111 Zn100 2.024 . S
O111 C102 1.058 . S
C112 O113 1.228 . S
C112 O114 1.267 . S
O113 C112 1.228 . S
O114 Zn101 1.969 . S
O114 C112 1.267 . S
O115 Zn101 1.965 . S
O115 C119 1.260 . S
O116 Zn100 1.969 . S
O116 C119 1.258 . S
O117 Zn101 2.024 . S
O117 C104 1.058 . S
C118 O107 1.260 . S
C118 O108 1.258 . S
C119 O115 1.260 . S
C119 O116 1.258 . S
Zn120 O126 1.969 . S
Zn120 O127 1.965 . S
Zn120 O131 2.024 . S
Zn120 O136 1.969 . S
Zn121 O128 1.969 . S
Zn121 O134 1.969 . S
Zn121 O135 1.965 . S
Zn121 O137 2.024 . S
C122 O123 1.229 . S
C122 O131 1.058 . S
O123 C122 1.229 . S
C124 O125 1.229 . S
C124 O137 1.058 . S
O125 C124 1.229 . S
O126 Zn120 1.969 . S
O126 C129 1.267 . S
O127 Zn120 1.965 . S
O127 C138 1.260 . S
O128 Zn121 1.969 . S
O128 C138 1.258 . S
C129 O126 1.267 . S
C129 O130 1.228 . S
O130 C129 1.228 . S
O131 Zn120 2.024 . S
O131 C122 1.058 . S
C132 O133 1.228 . S
C132 O134 1.267 . S
O133 C132 1.228 . S
O134 Zn121 1.969 . S
O134 C132 1.267 . S
O135 Zn121 1.965 . S
O135 C139 1.260 . S
O136 Zn120 1.969 . S
O136 C139 1.258 . S
O137 Zn121 2.024 . S
O137 C124 1.058 . S
C138 O127 1.260 . S
C138 O128 1.258 . S
C139 O135 1.260 . S
C139 O136 1.258 . S
Zn140 O146 1.969 . S
Zn140 O147 1.965 . S
Zn140 O151 2.024 . S
Zn140 O156 1.969 . S
Zn141 O148 1.969 . S
Zn141 O154 1.969 . S
Zn141 O155 1.965 . S
Zn141 O157 2.024 . S
C142 O143 1.229 . S
C142 O151 1.058 . S
O143 C142 1.229 . S
C144 O145 1.229 . S
C144 O157 1.058 . S
O145 C144 1.229 . S
O146 Zn140 1.969 . S
O146 C149 1.267 . S
O147 Zn140 1.965 . S
O147 C158 1.260 . S
O148 Zn141 1.969 . S
O148 C158 1.258 . S
C149 O146 1.267 . S
C149 O150 1.228 . S
O150 C149 1.228 . S
O151 Zn140 2.024 . S
O151 C142 1.058 . S
C152 O153 1.228 . S
C152 O154 1.267 . S
O153 C152 1.228 . S
O154 Zn141 1.969 . S
O154 C152 1.267 . S
O155 Zn141 1.965 . S
O155 C159 1.260 . S
O156 Zn140 1.969 . S
O156 C159 1.258 . S
O157 Zn141 2.024 . S
O157 C144 1.058 . S
C158 O147 1.260 . S
C158 O148 1.258 . S
C159 O155 1.260 . S
C159 O156 1.258 . S
Zn160 O166 1.969 . S
Zn160 O167 1.965 . S
Zn160 O171 2.024 . S
Zn160 O176 1.969 . S
Zn161 O168 1.969 . S
Zn161 O174 1.969 . S
Zn161 O175 1.965 . S
Zn161 O177 2.024 . S
C162 O163 1.229 . S
C162 O171 1.058 . S
O163 C162 1.229 . S
C164 O165 1.229 . S
C164 O177 1.058 . S
O165 C164 1.229 . S
O166 Zn160 1.969 . S
O166 C169 1.267 . S
O167 Zn160 1.965 . S
O167 C178 1.260 . S
O168 Zn161 1.969 . S
O168 C178 1.258 . S
C169 O166 1.267 . S
C169 O170 1.228 . S
O170 C169 1.228 . S
O171 Zn160 2.024 . S
O171 C162 1.058 . S
C172 O173 1.228 . S
C172 O174 1.267 . S
O173 C172 1.228 . S
O174 Zn161 1.969 . S
O174 C172 1.267 . S
O175 Zn161 1.965 . S
O175 C179 1.260 . S
O176 Zn160 1.969 . S
O176 C179 1.258 . S
O177 Zn161 2.024 . S
O177 C164 1.058 . S
C178 O167 1.260 . S
C178 O168 1.258 . S
C179 O175 1.260 . S
C179 O176 1.258 . S
H180 C188 0.950 . S
H181 C193 0.950 1_554 S
H182 C190 0.950 . S
H183 C192 0.950 . S
H184 C194 0.950 . S
H185 C196 0.950 . S
H186 C198 0.950 . S
H187 C199 0.950 . S
C188 H180 0.950 . S
C188 C189 1.386 . S
C188 C190 1.391 . S
C189 C188 1.386 . S
C189 C193 1.393 . S
C190 H182 0.950 . S
C190 C188 1.391 . S
C190 C191 1.400 . S
C191 C190 1.400 . S
C191 C192 1.398 . S
C191 C197 1.491 . S
C192 H183 0.950 . S
C192 C191 1.398 . S
C192 C193 1.391 . S
C193 H181 0.950 1_556 S
C193 C189 1.393 . S
C193 C192 1.391 . S
C194 H184 0.950 . S
C194 C195 1.386 . S
C194 C196 1.391 . S
C195 C194 1.386 . S
C195 C199 1.393 . S
C196 H185 0.950 . S
C196 C194 1.391 . S
C196 C197 1.400 . S
C197 C191 1.491 . S
C197 C196 1.400 . S
C197 C198 1.398 . S
C198 H186 0.950 . S
C198 C197 1.398 . S
C198 C199 1.391 . S
C199 H187 0.950 . S
C199 C195 1.393 . S
C199 C198 1.391 . S
H200 C208 0.950 . S
H201 C213 0.950 . S
H202 C210 0.950 . S
H203 C212 0.950 . S
H204 C214 0.950 . S
H205 C216 0.950 . S
H206 C218 0.950 . S
H207 C219 0.950 . S
C208 H200 0.950 . S
C208 C209 1.386 . S
C208 C210 1.391 . S
C209 C208 1.386 . S
C209 C213 1.393 1_556 S
C210 H202 0.950 . S
C210 C208 1.391 . S
C210 C211 1.400 . S
C211 C210 1.400 . S
C211 C212 1.398 . S
C211 C217 1.491 . S
C212 H203 0.950 . S
C212 C211 1.398 . S
C212 C213 1.391 1_556 S
C213 H201 0.950 . S
C213 C209 1.393 1_554 S
C213 C212 1.391 1_554 S
C214 H204 0.950 . S
C214 C215 1.386 . S
C214 C216 1.391 . S
C215 C214 1.386 . S
C215 C219 1.393 . S
C216 H205 0.950 . S
C216 C214 1.391 . S
C216 C217 1.400 . S
C217 C211 1.491 . S
C217 C216 1.400 . S
C217 C218 1.398 . S
C218 H206 0.950 . S
C218 C217 1.398 . S
C218 C219 1.391 . S
C219 H207 0.950 . S
C219 C215 1.393 . S
C219 C218 1.391 . S
H220 C228 0.950 . S
H221 C233 0.950 . S
H222 C230 0.950 . S
H223 C232 0.950 . S
H224 C234 0.950 . S
H225 C236 0.950 . S
H226 C238 0.950 . S
H227 C239 0.950 . S
C228 H220 0.950 . S
C228 C229 1.386 . S
C228 C230 1.391 . S
C229 C228 1.386 . S
C229 C233 1.393 . S
C230 H222 0.950 . S
C230 C228 1.391 . S
C230 C231 1.400 . S
C231 C230 1.400 . S
C231 C232 1.398 . S
C231 C237 1.491 . S
C232 H223 0.950 . S
C232 C231 1.398 . S
C232 C233 1.391 . S
C233 H221 0.950 . S
C233 C229 1.393 . S
C233 C232 1.391 . S
C234 H224 0.950 . S
C234 C235 1.386 . S
C234 C236 1.391 . S
C235 C234 1.386 . S
C235 C239 1.393 . S
C236 H225 0.950 . S
C236 C234 1.391 . S
C236 C237 1.400 . S
C237 C231 1.491 . S
C237 C236 1.400 . S
C237 C238 1.398 . S
C238 H226 0.950 . S
C238 C237 1.398 . S
C238 C239 1.391 . S
C239 H227 0.950 . S
C239 C235 1.393 . S
C239 C238 1.391 . S
H240 C248 0.950 . S
H241 C253 0.950 . S
H242 C250 0.950 . S
H243 C252 0.950 . S
H244 C254 0.950 . S
H245 C256 0.950 . S
H246 C258 0.950 . S
H247 C259 0.950 . S
C248 H240 0.950 . S
C248 C249 1.386 . S
C248 C250 1.391 . S
C249 C248 1.386 . S
C249 C253 1.393 . S
C250 H242 0.950 . S
C250 C248 1.391 . S
C250 C251 1.400 . S
C251 C250 1.400 . S
C251 C252 1.398 . S
C251 C257 1.491 . S
C252 H243 0.950 . S
C252 C251 1.398 . S
C252 C253 1.391 . S
C253 H241 0.950 . S
C253 C249 1.393 . S
C253 C252 1.391 . S
C254 H244 0.950 . S
C254 C255 1.386 . S
C254 C256 1.391 . S
C255 C254 1.386 . S
C255 C259 1.393 . S
C256 H245 0.950 . S
C256 C254 1.391 . S
C256 C257 1.400 . S
C257 C251 1.491 . S
C257 C256 1.400 . S
C257 C258 1.398 . S
C258 H246 0.950 . S
C258 C257 1.398 . S
C258 C259 1.391 . S
C259 H247 0.950 . S
C259 C255 1.393 . S
C259 C258 1.391 . S
H260 C268 0.950 . S
H261 C273 0.950 . S
H262 C270 0.950 . S
H263 C272 0.950 . S
H264 C274 0.950 . S
H265 C276 0.950 . S
H266 C278 0.950 . S
H267 C279 0.950 1_556 S
C268 H260 0.950 . S
C268 C269 1.386 . S
C268 C270 1.391 . S
C269 C268 1.386 . S
C269 C273 1.393 . S
C270 H262 0.950 . S
C270 C268 1.391 . S
C270 C271 1.400 . S
C271 C270 1.400 . S
C271 C272 1.398 . S
C271 C277 1.491 . S
C272 H263 0.950 . S
C272 C271 1.398 . S
C272 C273 1.391 . S
C273 H261 0.950 . S
C273 C269 1.393 . S
C273 C272 1.391 . S
C274 H264 0.950 . S
C274 C275 1.386 . S
C274 C276 1.391 . S
C275 C274 1.386 . S
C275 C279 1.393 . S
C276 H265 0.950 . S
C276 C274 1.391 . S
C276 C277 1.400 . S
C277 C271 1.491 . S
C277 C276 1.400 . S
C277 C278 1.398 . S
C278 H266 0.950 . S
C278 C277 1.398 . S
C278 C279 1.391 . S
C279 H267 0.950 1_554 S
C279 C275 1.393 . S
C279 C278 1.391 . S
H280 C288 0.950 . S
H281 C293 0.950 . S
H282 C290 0.950 . S
H283 C292 0.950 . S
H284 C294 0.950 . S
H285 C296 0.950 . S
H286 C298 0.950 . S
H287 C299 0.950 . S
C288 H280 0.950 . S
C288 C289 1.386 . S
C288 C290 1.391 . S
C289 C288 1.386 . S
C289 C293 1.393 . S
C290 H282 0.950 . S
C290 C288 1.391 . S
C290 C291 1.400 . S
C291 C290 1.400 . S
C291 C292 1.398 . S
C291 C297 1.491 . S
C292 H283 0.950 . S
C292 C291 1.398 . S
C292 C293 1.391 . S
C293 H281 0.950 . S
C293 C289 1.393 . S
C293 C292 1.391 . S
C294 H284 0.950 . S
C294 C295 1.386 . S
C294 C296 1.391 . S
C295 C294 1.386 . S
C295 C299 1.393 . S
C296 H285 0.950 . S
C296 C294 1.391 . S
C296 C297 1.400 . S
C297 C291 1.491 . S
C297 C296 1.400 . S
C297 C298 1.398 . S
C298 H286 0.950 . S
C298 C297 1.398 . S
C298 C299 1.391 . S
C299 H287 0.950 . S
C299 C295 1.393 . S
C299 C298 1.391 . S
H300 C308 0.950 . S
H301 C313 0.950 . S
H302 C310 0.950 . S
H303 C312 0.950 . S
H304 C314 0.950 . S
H305 C316 0.950 . S
H306 C318 0.944 1_455 S
H307 C319 0.950 . S
C308 H300 0.950 . S
C308 C309 1.386 . S
C308 C310 1.391 . S
C309 C308 1.386 . S
C309 C313 1.393 . S
C310 H302 0.950 . S
C310 C308 1.391 . S
C310 C311 1.400 . S
C311 C310 1.400 . S
C311 C312 1.398 . S
C311 C317 1.491 . S
C312 H303 0.950 . S
C312 C311 1.398 . S
C312 C313 1.391 . S
C313 H301 0.950 . S
C313 C309 1.393 . S
C313 C312 1.391 . S
C314 H304 0.950 . S
C314 C315 1.386 . S
C314 C316 1.391 . S
C315 C314 1.386 . S
C315 C319 1.393 . S
C316 H305 0.950 . S
C316 C314 1.391 . S
C316 C317 1.400 1_655 S
C317 C311 1.491 . S
C317 C316 1.400 1_455 S
C317 C318 1.397 1_455 S
C318 H306 0.944 1_655 S
C318 C317 1.397 1_655 S
C318 C319 1.397 . S
C319 H307 0.950 . S
C319 C315 1.393 . S
C319 C318 1.397 . S
H320 C328 0.950 . S
H321 C333 0.950 . S
H322 C330 0.950 . S
H323 C332 0.950 . S
H324 C334 0.950 . S
H325 C336 0.950 . S
H326 C338 0.950 . S
H327 C339 0.950 . S
C328 H320 0.950 . S
C328 C329 1.386 . S
C328 C330 1.391 . S
C329 C328 1.386 . S
C329 C333 1.393 . S
C330 H322 0.950 . S
C330 C328 1.391 . S
C330 C331 1.400 . S
C331 C330 1.400 . S
C331 C332 1.398 . S
C331 C337 1.491 . S
C332 H323 0.950 . S
C332 C331 1.398 . S
C332 C333 1.391 . S
C333 H321 0.950 . S
C333 C329 1.393 . S
C333 C332 1.391 . S
C334 H324 0.950 . S
C334 C335 1.386 . S
C334 C336 1.391 . S
C335 C334 1.386 . S
C335 C339 1.393 . S
C336 H325 0.950 . S
C336 C334 1.391 . S
C336 C337 1.400 . S
C337 C331 1.491 . S
C337 C336 1.400 . S
C337 C338 1.398 . S
C338 H326 0.950 . S
C338 C337 1.398 . S
C338 C339 1.391 . S
C339 H327 0.950 . S
C339 C335 1.393 . S
C339 C338 1.391 . S
H340 C348 0.950 . S
H341 C353 0.950 . S
H342 C350 0.950 . S
H343 C352 0.950 . S
H344 C354 0.950 . S
H345 C356 0.915 1_545 S
H346 C358 0.950 . S
H347 C359 0.950 . S
C348 H340 0.950 . S
C348 C349 1.386 . S
C348 C350 1.391 . S
C349 C348 1.386 . S
C349 C353 1.393 . S
C350 H342 0.950 . S
C350 C348 1.391 . S
C350 C351 1.400 . S
C351 C350 1.400 . S
C351 C352 1.398 . S
C351 C357 1.491 1_545 S
C352 H343 0.950 . S
C352 C351 1.398 . S
C352 C353 1.391 . S
C353 H341 0.950 . S
C353 C349 1.393 . S
C353 C352 1.391 . S
C354 H344 0.950 . S
C354 C355 1.386 . S
C354 C356 1.433 . S
C355 C354 1.386 . S
C355 C359 1.393 . S
C356 H345 0.915 1_565 S
C356 C354 1.433 . S
C356 C357 1.395 . S
C357 C351 1.491 1_565 S
C357 C356 1.395 . S
C357 C358 1.398 . S
C358 H346 0.950 . S
C358 C357 1.398 . S
C358 C359 1.391 . S
C359 H347 0.950 . S
C359 C355 1.393 . S
C359 C358 1.391 . S
H360 C368 0.950 . S
H361 C373 0.950 1_556 S
H362 C370 0.950 . S
H363 C372 0.950 1_556 S
H364 C374 0.950 . S
H365 C376 0.950 . S
H366 C378 0.950 . S
H367 C379 0.950 . S
C368 H360 0.950 . S
C368 C369 1.386 . S
C368 C370 1.391 . S
C369 C368 1.386 . S
C369 C373 1.393 . S
C370 H362 0.950 . S
C370 C368 1.391 . S
C370 C371 1.400 . S
C371 C370 1.400 . S
C371 C372 1.398 . S
C371 C377 1.491 . S
C372 H363 0.950 1_554 S
C372 C371 1.398 . S
C372 C373 1.391 . S
C373 H361 0.950 1_554 S
C373 C369 1.393 . S
C373 C372 1.391 . S
C374 H364 0.950 . S
C374 C375 1.386 1_556 S
C374 C376 1.391 . S
C375 C374 1.386 1_554 S
C375 C379 1.393 . S
C376 H365 0.950 . S
C376 C374 1.391 . S
C376 C377 1.400 1_556 S
C377 C371 1.491 . S
C377 C376 1.400 1_554 S
C377 C378 1.398 . S
C378 H366 0.950 . S
C378 C377 1.398 . S
C378 C379 1.391 . S
C379 H367 0.950 . S
C379 C375 1.393 . S
C379 C378 1.391 . S
H380 C388 0.950 . S
H381 C393 0.950 . S
H382 C390 0.950 . S
H383 C392 0.950 . S
H384 C394 0.950 . S
H385 C396 0.950 . S
H386 C398 0.950 . S
H387 C399 0.950 . S
C388 H380 0.950 . S
C388 C389 1.386 1_556 S
C388 C390 1.391 . S
C389 C388 1.386 1_554 S
C389 C393 1.393 . S
C390 H382 0.950 . S
C390 C388 1.391 . S
C390 C391 1.400 1_556 S
C391 C390 1.400 1_554 S
C391 C392 1.398 . S
C391 C397 1.491 1_565 S
C392 H383 0.950 . S
C392 C391 1.398 . S
C392 C393 1.391 . S
C393 H381 0.950 . S
C393 C389 1.393 . S
C393 C392 1.391 . S
C394 H384 0.950 . S
C394 C395 1.386 . S
C394 C396 1.391 . S
C395 C394 1.386 . S
C395 C399 1.393 1_554 S
C396 H385 0.950 . S
C396 C394 1.391 . S
C396 C397 1.400 . S
C397 C391 1.491 1_545 S
C397 C396 1.400 . S
C397 C398 1.398 1_554 S
C398 H386 0.950 . S
C398 C397 1.398 1_556 S
C398 C399 1.391 . S
C399 H387 0.950 . S
C399 C395 1.393 1_556 S
C399 C398 1.391 . S
H400 C408 0.950 . S
H401 C413 0.950 . S
H402 C410 0.950 . S
H403 C412 0.950 . S
H404 C414 0.950 . S
H405 C416 0.950 . S
H406 C418 0.950 . S
H407 C419 0.950 . S
C408 H400 0.950 . S
C408 C409 1.385 1_556 S
C408 C410 1.392 . S
C409 C408 1.385 1_554 S
C409 C413 1.393 . S
C410 H402 0.950 . S
C410 C408 1.392 . S
C410 C411 1.400 1_556 S
C411 C410 1.400 1_554 S
C411 C412 1.398 . S
C411 C417 1.491 1_655 S
C412 H403 0.950 . S
C412 C411 1.398 . S
C412 C413 1.391 . S
C413 H401 0.950 . S
C413 C409 1.393 . S
C413 C412 1.391 . S
C414 H404 0.950 . S
C414 C415 1.386 1_554 S
C414 C416 1.391 . S
C415 C414 1.386 1_556 S
C415 C419 1.393 . S
C416 H405 0.950 . S
C416 C414 1.391 . S
C416 C417 1.400 . S
C417 C411 1.491 1_455 S
C417 C416 1.400 . S
C417 C418 1.398 1_554 S
C418 H406 0.950 . S
C418 C417 1.398 1_556 S
C418 C419 1.391 . S
C419 H407 0.950 . S
C419 C415 1.393 . S
C419 C418 1.391 . S
H420 C428 0.950 . S
H421 C433 0.950 . S
H422 C430 0.950 . S
H423 C432 0.950 . S
H424 C434 0.950 . S
H425 C436 0.950 . S
H426 C438 0.950 . S
H427 C439 0.950 . S
C428 H420 0.950 . S
C428 C429 1.386 . S
C428 C430 1.391 . S
C429 C428 1.386 . S
C429 C433 1.393 . S
C430 H422 0.950 . S
C430 C428 1.391 . S
C430 C431 1.400 . S
C431 C430 1.400 . S
C431 C432 1.398 . S
C431 C437 1.491 . S
C432 H423 0.950 . S
C432 C431 1.398 . S
C432 C433 1.391 . S
C433 H421 0.950 . S
C433 C429 1.393 . S
C433 C432 1.391 . S
C434 H424 0.950 . S
C434 C435 1.386 . S
C434 C436 1.391 . S
C435 C434 1.386 . S
C435 C439 1.393 . S
C436 H425 0.950 . S
C436 C434 1.391 . S
C436 C437 1.400 . S
C437 C431 1.491 . S
C437 C436 1.400 . S
C437 C438 1.398 . S
C438 H426 0.950 . S
C438 C437 1.398 . S
C438 C439 1.391 . S
C439 H427 0.950 . S
C439 C435 1.393 . S
C439 C438 1.391 . S
H440 C448 0.950 . S
H441 C453 0.950 . S
H442 C450 0.950 . S
H443 C452 0.950 . S
H444 C454 0.950 . S
H445 C456 0.950 . S
H446 C458 0.950 . S
H447 C459 0.950 . S
C448 H440 0.950 . S
C448 C449 1.386 . S
C448 C450 1.391 . S
C449 C448 1.386 . S
C449 C453 1.393 . S
C450 H442 0.950 . S
C450 C448 1.391 . S
C450 C451 1.400 . S
C451 C450 1.400 . S
C451 C452 1.398 . S
C451 C457 1.491 . S
C452 H443 0.950 . S
C452 C451 1.398 . S
C452 C453 1.391 . S
C453 H441 0.950 . S
C453 C449 1.393 . S
C453 C452 1.391 . S
C454 H444 0.950 . S
C454 C455 1.386 . S
C454 C456 1.391 . S
C455 C454 1.386 . S
C455 C459 1.393 . S
C456 H445 0.950 . S
C456 C454 1.391 . S
C456 C457 1.400 . S
C457 C451 1.491 . S
C457 C456 1.400 . S
C457 C458 1.398 . S
C458 H446 0.950 . S
C458 C457 1.398 . S
C458 C459 1.391 . S
C459 H447 0.950 . S
C459 C455 1.393 . S
C459 C458 1.391 . S
H460 C468 0.950 . S
H461 C473 0.950 . S
H462 C470 0.950 . S
H463 C472 0.950 . S
H464 C474 0.950 . S
H465 C476 0.950 . S
H466 C478 0.950 . S
H467 C479 0.950 . S
C468 H460 0.950 . S
C468 C469 1.386 . S
C468 C470 1.391 . S
C469 C468 1.386 . S
C469 C473 1.393 . S
C470 H462 0.950 . S
C470 C468 1.391 . S
C470 C471 1.400 . S
C471 C470 1.400 . S
C471 C472 1.398 . S
C471 C477 1.491 . S
C472 H463 0.950 . S
C472 C471 1.398 . S
C472 C473 1.391 . S
C473 H461 0.950 . S
C473 C469 1.393 . S
C473 C472 1.391 . S
C474 H464 0.950 . S
C474 C475 1.386 . S
C474 C476 1.391 . S
C475 C474 1.386 . S
C475 C479 1.393 . S
C476 H465 0.950 . S
C476 C474 1.391 . S
C476 C477 1.400 . S
C477 C471 1.491 . S
C477 C476 1.400 . S
C477 C478 1.398 . S
C478 H466 0.950 . S
C478 C477 1.398 . S
C478 C479 1.391 . S
C479 H467 0.950 . S
C479 C475 1.393 . S
C479 C478 1.391 . S
H480 C488 0.950 . S
H481 C493 0.950 . S
H482 C490 0.950 . S
H483 C492 0.950 . S
H484 C494 0.950 . S
H485 C496 0.950 . S
H486 C498 0.950 . S
H487 C499 0.950 . S
C488 H480 0.950 . S
C488 C489 1.386 . S
C488 C490 1.391 . S
C489 C488 1.386 . S
C489 C493 1.393 . S
C490 H482 0.950 . S
C490 C488 1.391 . S
C490 C491 1.400 . S
C491 C490 1.400 . S
C491 C492 1.398 . S
C491 C497 1.491 . S
C492 H483 0.950 . S
C492 C491 1.398 . S
C492 C493 1.391 . S
C493 H481 0.950 . S
C493 C489 1.393 . S
C493 C492 1.391 . S
C494 H484 0.950 . S
C494 C495 1.386 . S
C494 C496 1.391 . S
C495 C494 1.386 . S
C495 C499 1.393 . S
C496 H485 0.950 . S
C496 C494 1.391 . S
C496 C497 1.400 . S
C497 C491 1.491 . S
C497 C496 1.400 . S
C497 C498 1.398 . S
C498 H486 0.950 . S
C498 C497 1.398 . S
C498 C499 1.391 . S
C499 H487 0.950 . S
C499 C495 1.393 . S
C499 C498 1.391 . S
H500 C508 0.950 . S
H501 C513 0.950 . S
H502 C510 0.950 . S
H503 C512 0.950 . S
H504 C514 0.950 . S
H505 C516 0.950 . S
H506 C518 0.950 . S
H507 C519 0.950 . S
C508 H500 0.950 . S
C508 C509 1.386 . S
C508 C510 1.391 . S
C509 C508 1.386 . S
C509 C513 1.393 . S
C510 H502 0.950 . S
C510 C508 1.391 . S
C510 C511 1.400 . S
C511 C510 1.400 . S
C511 C512 1.398 . S
C511 C517 1.491 . S
C512 H503 0.950 . S
C512 C511 1.398 . S
C512 C513 1.391 . S
C513 H501 0.950 . S
C513 C509 1.393 . S
C513 C512 1.391 . S
C514 H504 0.950 . S
C514 C515 1.386 . S
C514 C516 1.391 . S
C515 C514 1.386 . S
C515 C519 1.393 . S
C516 H505 0.950 . S
C516 C514 1.391 . S
C516 C517 1.400 . S
C517 C511 1.491 . S
C517 C516 1.400 . S
C517 C518 1.398 . S
C518 H506 0.950 . S
C518 C517 1.398 . S
C518 C519 1.391 . S
C519 H507 0.950 . S
C519 C515 1.393 . S
C519 C518 1.391 . S
H520 C528 0.950 . S
H521 C533 0.950 . S
H522 C530 0.950 . S
H523 C532 0.950 . S
H524 C534 0.950 . S
H525 C536 0.950 . S
H526 C538 0.950 . S
H527 C539 0.950 . S
C528 H520 0.950 . S
C528 C529 1.386 . S
C528 C530 1.391 . S
C529 C528 1.386 . S
C529 C533 1.393 . S
C530 H522 0.950 . S
C530 C528 1.391 . S
C530 C531 1.400 . S
C531 C530 1.400 . S
C531 C532 1.398 . S
C531 C537 1.491 . S
C532 H523 0.950 . S
C532 C531 1.398 . S
C532 C533 1.391 . S
C533 H521 0.950 . S
C533 C529 1.393 . S
C533 C532 1.391 . S
C534 H524 0.950 . S
C534 C535 1.386 . S
C534 C536 1.391 . S
C535 C534 1.386 . S
C535 C539 1.393 . S
C536 H525 0.950 . S
C536 C534 1.391 . S
C536 C537 1.400 . S
C537 C531 1.491 . S
C537 C536 1.400 . S
C537 C538 1.398 . S
C538 H526 0.950 . S
C538 C537 1.398 . S
C538 C539 1.391 . S
C539 H527 0.950 . S
C539 C535 1.393 . S
C539 C538 1.391 . S
H540 C548 0.950 . S
H541 C553 0.948 . S
H542 C550 0.950 . S
H543 C552 0.961 . S
H544 C554 0.950 . S
H545 C556 0.950 . S
H546 C558 0.950 . S
H547 C559 0.950 . S
C548 H540 0.950 . S
C548 C549 1.386 . S
C548 C550 1.391 . S
C549 C548 1.386 . S
C549 C553 1.393 . S
C550 H542 0.950 . S
C550 C548 1.391 . S
C550 C551 1.400 . S
C551 C550 1.400 . S
C551 C552 1.398 . S
C551 C557 1.491 . S
C552 H543 0.961 . S
C552 C551 1.398 . S
C552 C553 1.391 . S
C553 H541 0.948 . S
C553 C549 1.393 . S
C553 C552 1.391 . S
C554 H544 0.950 . S
C554 C555 1.386 . S
C554 C556 1.391 . S
C555 C554 1.386 . S
C555 C559 1.393 . S
C556 H545 0.950 . S
C556 C554 1.391 . S
C556 C557 1.400 . S
C557 C551 1.491 . S
C557 C556 1.400 . S
C557 C558 1.398 . S
C558 H546 0.950 . S
C558 C557 1.398 . S
C558 C559 1.391 . S
C559 H547 0.950 . S
C559 C555 1.393 . S
C559 C558 1.391 . S
H560 C568 0.950 . S
H561 C573 0.950 . S
H562 C570 0.950 . S
H563 C572 0.950 . S
H564 C574 0.950 . S
H565 C576 0.950 . S
H566 C578 0.950 . S
H567 C579 0.950 . S
C568 H560 0.950 . S
C568 C569 1.386 . S
C568 C570 1.391 . S
C569 C568 1.386 . S
C569 C573 1.393 . S
C570 H562 0.950 . S
C570 C568 1.391 . S
C570 C571 1.400 . S
C571 C570 1.400 . S
C571 C572 1.398 . S
C571 C577 1.491 . S
C572 H563 0.950 . S
C572 C571 1.398 . S
C572 C573 1.391 . S
C573 H561 0.950 . S
C573 C569 1.393 . S
C573 C572 1.391 . S
C574 H564 0.950 . S
C574 C575 1.386 . S
C574 C576 1.391 . S
C575 C574 1.386 . S
C575 C579 1.393 . S
C576 H565 0.950 . S
C576 C574 1.391 . S
C576 C577 1.400 . S
C577 C571 1.491 . S
C577 C576 1.400 . S
C577 C578 1.398 . S
C578 H566 0.950 . S
C578 C577 1.398 . S
C578 C579 1.391 . S
C579 H567 0.950 . S
C579 C575 1.393 . S
C579 C578 1.391 . S
H580 C588 0.950 1_565 S
H581 C593 0.950 . S
H582 C590 0.950 1_565 S
H583 C592 0.950 . S
H584 C594 0.950 . S
H585 C596 0.950 . S
H586 C598 0.948 . S
H587 C599 0.947 . S
C588 H580 0.950 1_545 S
C588 C589 1.386 . S
C588 C590 1.391 . S
C589 C588 1.386 . S
C589 C593 1.393 . S
C590 H582 0.950 1_545 S
C590 C588 1.391 . S
C590 C591 1.400 . S
C591 C590 1.400 . S
C591 C592 1.398 . S
C591 C597 1.491 . S
C592 H583 0.950 . S
C592 C591 1.398 . S
C592 C593 1.391 . S
C593 H581 0.950 . S
C593 C589 1.393 . S
C593 C592 1.391 . S
C594 H584 0.950 . S
C594 C595 1.386 . S
C594 C596 1.391 . S
C595 C594 1.386 . S
C595 C599 1.395 1_545 S
C596 H585 0.950 . S
C596 C594 1.391 . S
C596 C597 1.400 . S
C597 C591 1.491 . S
C597 C596 1.400 . S
C597 C598 1.402 1_545 S
C598 H586 0.948 . S
C598 C597 1.402 1_565 S
C598 C599 1.390 . S
C599 H587 0.947 . S
C599 C595 1.395 1_565 S
C599 C598 1.390 . S
H600 C608 0.950 . S
H601 C613 0.950 . S
H602 C610 0.950 . S
H603 C612 0.950 . S
H604 C614 0.950 1_554 S
H605 C616 0.950 . S
H606 C618 0.950 . S
H607 C619 0.950 . S
C608 H600 0.950 . S
C608 C609 1.386 . S
C608 C610 1.391 . S
C609 C608 1.386 . S
C609 C613 1.393 . S
C610 H602 0.950 . S
C610 C608 1.391 . S
C610 C611 1.400 . S
C611 C610 1.400 . S
C611 C612 1.398 . S
C611 C617 1.491 . S
C612 H603 0.950 . S
C612 C611 1.398 . S
C612 C613 1.391 . S
C613 H601 0.950 . S
C613 C609 1.393 . S
C613 C612 1.391 . S
C614 H604 0.950 1_556 S
C614 C615 1.386 1_556 S
C614 C616 1.391 . S
C615 C614 1.386 1_554 S
C615 C619 1.393 . S
C616 H605 0.950 . S
C616 C614 1.391 . S
C616 C617 1.400 . S
C617 C611 1.491 . S
C617 C616 1.400 . S
C617 C618 1.398 . S
C618 H606 0.950 . S
C618 C617 1.398 . S
C618 C619 1.391 1_556 S
C619 H607 0.950 . S
C619 C615 1.393 . S
C619 C618 1.391 1_554 S
H620 C628 0.950 . S
H621 C633 0.950 . S
H622 C630 0.950 . S
H623 C632 0.950 . S
H624 C634 0.950 1_554 S
H625 C636 0.950 . S
H626 C638 0.950 . S
H627 C639 0.950 . S
C628 H620 0.950 . S
C628 C629 1.386 . S
C628 C630 1.391 . S
C629 C628 1.386 . S
C629 C633 1.393 . S
C630 H622 0.950 . S
C630 C628 1.391 . S
C630 C631 1.400 . S
C631 C630 1.400 . S
C631 C632 1.398 . S
C631 C637 1.491 . S
C632 H623 0.950 . S
C632 C631 1.398 . S
C632 C633 1.391 . S
C633 H621 0.950 . S
C633 C629 1.393 . S
C633 C632 1.391 . S
C634 H624 0.950 1_556 S
C634 C635 1.386 1_556 S
C634 C636 1.391 . S
C635 C634 1.386 1_554 S
C635 C639 1.393 1_554 S
C636 H625 0.950 . S
C636 C634 1.391 . S
C636 C637 1.400 . S
C637 C631 1.491 . S
C637 C636 1.400 . S
C637 C638 1.398 . S
C638 H626 0.950 . S
C638 C637 1.398 . S
C638 C639 1.391 . S
C639 H627 0.950 . S
C639 C635 1.393 1_556 S
C639 C638 1.391 . S
H640 C648 0.950 . S
H641 C653 0.950 . S
H642 C650 0.950 . S
H643 C652 0.950 . S
H644 C654 0.950 1_554 S
H645 C656 0.950 . S
H646 C658 0.950 . S
H647 C659 0.950 . S
C648 H640 0.950 . S
C648 C649 1.386 . S
C648 C650 1.391 . S
C649 C648 1.386 . S
C649 C653 1.393 . S
C650 H642 0.950 . S
C650 C648 1.391 . S
C650 C651 1.400 . S
C651 C650 1.400 . S
C651 C652 1.398 . S
C651 C657 1.491 . S
C652 H643 0.950 . S
C652 C651 1.398 . S
C652 C653 1.391 . S
C653 H641 0.950 . S
C653 C649 1.393 . S
C653 C652 1.391 . S
C654 H644 0.950 1_556 S
C654 C655 1.386 1_556 S
C654 C656 1.391 . S
C655 C654 1.386 1_554 S
C655 C659 1.393 . S
C656 H645 0.950 . S
C656 C654 1.391 . S
C656 C657 1.400 . S
C657 C651 1.491 . S
C657 C656 1.400 . S
C657 C658 1.398 . S
C658 H646 0.950 . S
C658 C657 1.398 . S
C658 C659 1.391 1_556 S
C659 H647 0.950 . S
C659 C655 1.393 . S
C659 C658 1.391 1_554 S
H660 C668 0.950 . S
H661 C673 0.950 . S
H662 C670 0.950 . S
H663 C672 0.950 . S
H664 C674 0.950 . S
H665 C676 0.950 . S
H666 C678 0.950 . S
H667 C679 0.950 . S
C668 H660 0.950 . S
C668 C669 1.386 . S
C668 C670 1.391 . S
C669 C668 1.386 . S
C669 C673 1.393 . S
C670 H662 0.950 . S
C670 C668 1.391 . S
C670 C671 1.400 . S
C671 C670 1.400 . S
C671 C672 1.398 . S
C671 C677 1.491 . S
C672 H663 0.950 . S
C672 C671 1.398 . S
C672 C673 1.391 . S
C673 H661 0.950 . S
C673 C669 1.393 . S
C673 C672 1.391 . S
C674 H664 0.950 . S
C674 C675 1.386 . S
C674 C676 1.391 1_556 S
C675 C674 1.386 . S
C675 C679 1.393 . S
C676 H665 0.950 . S
C676 C674 1.391 1_554 S
C676 C677 1.400 . S
C677 C671 1.491 . S
C677 C676 1.400 . S
C677 C678 1.398 . S
C678 H666 0.950 . S
C678 C677 1.398 . S
C678 C679 1.391 1_554 S
C679 H667 0.950 . S
C679 C675 1.393 . S
C679 C678 1.391 1_556 S
H680 C688 0.950 . S
H681 C693 0.950 . S
H682 C690 0.950 . S
H683 C692 0.950 . S
H684 C694 0.950 . S
H685 C696 0.950 . S
H686 C698 0.950 . S
H687 C699 0.950 . S
C688 H680 0.950 . S
C688 C689 1.386 . S
C688 C690 1.391 1_556 S
C689 C688 1.386 . S
C689 C693 1.393 . S
C690 H682 0.950 . S
C690 C688 1.391 1_554 S
C690 C691 1.400 . S
C691 C690 1.400 . S
C691 C692 1.398 . S
C691 C697 1.491 . S
C692 H683 0.950 . S
C692 C691 1.398 . S
C692 C693 1.391 1_554 S
C693 H681 0.950 . S
C693 C689 1.393 . S
C693 C692 1.391 1_556 S
C694 H684 0.950 . S
C694 C695 1.386 . S
C694 C696 1.391 . S
C695 C694 1.386 . S
C695 C699 1.393 . S
C696 H685 0.950 . S
C696 C694 1.391 . S
C696 C697 1.400 . S
C697 C691 1.491 . S
C697 C696 1.400 . S
C697 C698 1.398 . S
C698 H686 0.950 . S
C698 C697 1.398 . S
C698 C699 1.391 . S
C699 H687 0.950 . S
C699 C695 1.393 . S
C699 C698 1.391 . S
H700 C708 0.950 . S
H701 C713 0.950 . S
H702 C710 0.950 . S
H703 C712 0.950 . S
H704 C714 0.950 . S
H705 C716 0.950 . S
H706 C718 0.950 . S
H707 C719 0.950 . S
C708 H700 0.950 . S
C708 C709 1.386 . S
C708 C710 1.391 . S
C709 C708 1.386 . S
C709 C713 1.393 . S
C710 H702 0.950 . S
C710 C708 1.391 . S
C710 C711 1.400 . S
C711 C710 1.400 . S
C711 C712 1.398 . S
C711 C717 1.491 . S
C712 H703 0.950 . S
C712 C711 1.398 . S
C712 C713 1.391 . S
C713 H701 0.950 . S
C713 C709 1.393 . S
C713 C712 1.391 . S
C714 H704 0.950 . S
C714 C715 1.386 . S
C714 C716 1.391 1_556 S
C715 C714 1.386 . S
C715 C719 1.393 . S
C716 H705 0.950 . S
C716 C714 1.391 1_554 S
C716 C717 1.400 . S
C717 C711 1.491 . S
C717 C716 1.400 . S
C717 C718 1.398 . S
C718 H706 0.950 . S
C718 C717 1.398 . S
C718 C719 1.391 1_554 S
C719 H707 0.950 . S
C719 C715 1.393 . S
C719 C718 1.391 1_556 S
C189 C12 1.513 . S
C195 C152 1.518 . S
C209 C24 1.540 1_556 S
C215 C164 1.537 . S
C229 C52 1.537 . S
C235 C124 1.507 . S
C249 C84 1.441 . S
C255 C44 1.447 . S
C269 C104 1.473 . S
C275 C4 1.498 . S
C289 C32 1.588 . S
C295 C64 1.514 . S
C309 C144 1.473 . S
C315 C112 1.559 . S
C329 C172 1.567 . S
C335 C72 1.583 . S
C349 C92 1.647 . S
C355 C132 1.622 . S
C369 C49 1.421 . S
C375 C2 1.340 . S
C389 C29 1.410 1_554 S
C395 C9 1.382 . S
C409 C22 1.488 . S
C415 C42 1.526 . S
C429 C69 1.445 . S
C435 C102 1.417 . S
C449 C62 1.424 . S
C455 C89 1.475 . S
C469 C82 1.390 . S
C475 C109 1.447 . S
C489 C169 1.519 . S
C495 C122 1.437 . S
C509 C149 1.346 . S
C515 C129 1.324 . S
C529 C162 1.453 . S
C535 C142 1.428 . S
C549 C19 1.183 . S
C555 C18 1.183 . S
C569 C38 1.181 . S
C575 C39 1.181 . S
C589 C59 1.180 . S
C595 C58 1.180 . S
C609 C79 1.168 . S
C615 C78 1.168 . S
C629 C99 1.170 . S
C635 C98 1.170 . S
C649 C119 1.170 . S
C655 C118 1.170 . S
C669 C139 1.190 . S
C675 C138 1.190 . S
C689 C159 1.178 . S
C695 C158 1.178 . S
C709 C179 1.166 . S
C715 C178 1.166 . S
