# Generated by pormake.
# Topology wlb, (5)-cn, num edge types: 1
# Building blocks:
#     Node 0, Type 0, BuildingBlock: XOMCOT_clean_sbu_1, # of connection points: 5
#     Node 1, Type 0, BuildingBlock: XOMCOT_clean_sbu_1, # of connection points: 5
#     Node 2, Type 0, BuildingBlock: XOMCOT_clean_sbu_1, # of connection points: 5
#     Node 3, Type 0, BuildingBlock: XOMCOT_clean_sbu_1, # of connection points: 5
#     Node 4, Type 0, BuildingBlock: XOMCOT_clean_sbu_1, # of connection points: 5
#     Node 5, Type 0, BuildingBlock: XOMCOT_clean_sbu_1, # of connection points: 5
#     Node 6, Type 0, BuildingBlock: XOMCOT_clean_sbu_1, # of connection points: 5
#     Node 7, Type 0, BuildingBlock: XOMCOT_clean_sbu_1, # of connection points: 5
#     Node 8, Type 0, BuildingBlock: XOMCOT_clean_sbu_1, # of connection points: 5
#     Node 9, Type 0, BuildingBlock: XOMCOT_clean_sbu_1, # of connection points: 5
#     Node 10, Type 0, BuildingBlock: XOMCOT_clean_sbu_1, # of connection points: 5
#     Node 11, Type 0, BuildingBlock: XOMCOT_clean_sbu_1, # of connection points: 5
#     Node 12, Type 0, BuildingBlock: XOMCOT_clean_sbu_1, # of connection points: 5
#     Node 13, Type 0, BuildingBlock: XOMCOT_clean_sbu_1, # of connection points: 5
#     Node 14, Type 0, BuildingBlock: XOMCOT_clean_sbu_1, # of connection points: 5
#     Node 15, Type 0, BuildingBlock: XOMCOT_clean_sbu_1, # of connection points: 5
#     Node 16, Type 0, BuildingBlock: XOMCOT_clean_sbu_1, # of connection points: 5
#     Node 17, Type 0, BuildingBlock: XOMCOT_clean_sbu_1, # of connection points: 5
#     Edge 18, Type (0, 0), BuildingBlock: UVAHIK_clean_linker_0, # of connection points: 2
#     Edge 19, Type (0, 0), BuildingBlock: UVAHIK_clean_linker_0, # of connection points: 2
#     Edge 20, Type (0, 0), BuildingBlock: UVAHIK_clean_linker_0, # of connection points: 2
#     Edge 21, Type (0, 0), BuildingBlock: UVAHIK_clean_linker_0, # of connection points: 2
#     Edge 22, Type (0, 0), BuildingBlock: UVAHIK_clean_linker_0, # of connection points: 2
#     Edge 23, Type (0, 0), BuildingBlock: UVAHIK_clean_linker_0, # of connection points: 2
#     Edge 24, Type (0, 0), BuildingBlock: UVAHIK_clean_linker_0, # of connection points: 2
#     Edge 25, Type (0, 0), BuildingBlock: UVAHIK_clean_linker_0, # of connection points: 2
#     Edge 26, Type (0, 0), BuildingBlock: UVAHIK_clean_linker_0, # of connection points: 2
#     Edge 27, Type (0, 0), BuildingBlock: UVAHIK_clean_linker_0, # of connection points: 2
#     Edge 28, Type (0, 0), BuildingBlock: UVAHIK_clean_linker_0, # of connection points: 2
#     Edge 29, Type (0, 0), BuildingBlock: UVAHIK_clean_linker_0, # of connection points: 2
#     Edge 30, Type (0, 0), BuildingBlock: UVAHIK_clean_linker_0, # of connection points: 2
#     Edge 31, Type (0, 0), BuildingBlock: UVAHIK_clean_linker_0, # of connection points: 2
#     Edge 32, Type (0, 0), BuildingBlock: UVAHIK_clean_linker_0, # of connection points: 2
#     Edge 33, Type (0, 0), BuildingBlock: UVAHIK_clean_linker_0, # of connection points: 2
#     Edge 34, Type (0, 0), BuildingBlock: UVAHIK_clean_linker_0, # of connection points: 2
#     Edge 35, Type (0, 0), BuildingBlock: UVAHIK_clean_linker_0, # of connection points: 2
#     Edge 36, Type (0, 0), BuildingBlock: UVAHIK_clean_linker_0, # of connection points: 2
#     Edge 37, Type (0, 0), BuildingBlock: UVAHIK_clean_linker_0, # of connection points: 2
#     Edge 38, Type (0, 0), BuildingBlock: UVAHIK_clean_linker_0, # of connection points: 2
#     Edge 39, Type (0, 0), BuildingBlock: UVAHIK_clean_linker_0, # of connection points: 2
#     Edge 40, Type (0, 0), BuildingBlock: UVAHIK_clean_linker_0, # of connection points: 2
#     Edge 41, Type (0, 0), BuildingBlock: UVAHIK_clean_linker_0, # of connection points: 2
#     Edge 42, Type (0, 0), BuildingBlock: UVAHIK_clean_linker_0, # of connection points: 2
#     Edge 43, Type (0, 0), BuildingBlock: UVAHIK_clean_linker_0, # of connection points: 2
#     Edge 44, Type (0, 0), BuildingBlock: UVAHIK_clean_linker_0, # of connection points: 2
#     Edge 45, Type (0, 0), BuildingBlock: UVAHIK_clean_linker_0, # of connection points: 2
#     Edge 46, Type (0, 0), BuildingBlock: UVAHIK_clean_linker_0, # of connection points: 2
#     Edge 47, Type (0, 0), BuildingBlock: UVAHIK_clean_linker_0, # of connection points: 2
#     Edge 48, Type (0, 0), BuildingBlock: UVAHIK_clean_linker_0, # of connection points: 2
#     Edge 49, Type (0, 0), BuildingBlock: UVAHIK_clean_linker_0, # of connection points: 2
#     Edge 50, Type (0, 0), BuildingBlock: UVAHIK_clean_linker_0, # of connection points: 2
#     Edge 51, Type (0, 0), BuildingBlock: UVAHIK_clean_linker_0, # of connection points: 2
#     Edge 52, Type (0, 0), BuildingBlock: UVAHIK_clean_linker_0, # of connection points: 2
#     Edge 53, Type (0, 0), BuildingBlock: UVAHIK_clean_linker_0, # of connection points: 2
#     Edge 54, Type (0, 0), BuildingBlock: UVAHIK_clean_linker_0, # of connection points: 2
#     Edge 55, Type (0, 0), BuildingBlock: UVAHIK_clean_linker_0, # of connection points: 2
#     Edge 56, Type (0, 0), BuildingBlock: UVAHIK_clean_linker_0, # of connection points: 2
#     Edge 57, Type (0, 0), BuildingBlock: UVAHIK_clean_linker_0, # of connection points: 2
#     Edge 58, Type (0, 0), BuildingBlock: UVAHIK_clean_linker_0, # of connection points: 2
#     Edge 59, Type (0, 0), BuildingBlock: UVAHIK_clean_linker_0, # of connection points: 2
#     Edge 60, Type (0, 0), BuildingBlock: UVAHIK_clean_linker_0, # of connection points: 2
#     Edge 61, Type (0, 0), BuildingBlock: UVAHIK_clean_linker_0, # of connection points: 2
#     Edge 62, Type (0, 0), BuildingBlock: UVAHIK_clean_linker_0, # of connection points: 2
# Relax obj value: 0.324
# Max RMSD: 0.210
# Mean RMSD: 0.210
data_MOF--net-wlb--node1-XOMCOT_clean_sbu_1--edge1-UVAHIK_clean_linker_0
_symmetry_space_group_name_H-M    P1
_symmetry_Int_Tables_number       1
_symmetry_cell_setting            triclinic
loop_
_symmetry_equiv_pos_as_xyz
'x, y, z'
_cell_length_a     65.790441
_cell_length_b     65.869923
_cell_length_c     50.143667
_cell_angle_alpha  90.023323
_cell_angle_beta   89.926395
_cell_angle_gamma 119.98745
loop_
_atom_site_label
_atom_site_type_symbol
_atom_site_fract_x
_atom_site_fract_y
_atom_site_fract_z
_atom_type_partial_charge
C0 C 0.09441 0.19446 0.20682 0.0
C1 C 0.10481 0.18101 0.21033 0.0
N2 N 0.09231 0.16436 0.2286 0.0
N3 N 0.07545 0.18637 0.2228 0.0
C4 C 0.07466 0.16806 0.23591 0.0
H5 H 0.10021 0.20916 0.19335 0.0
Co6 Co 0.056 0.19923 0.22491 0.0
C7 C 0.00928 0.1607 0.24107 0.0
O8 O 0.99976 0.16956 0.22528 0.0
N9 N 0.03683 0.21309 0.22766 0.0
C10 C 0.01503 0.22603 0.24728 0.0
C11 C 0.02765 0.21486 0.25112 0.0
C12 C 0.02985 0.22391 0.20991 0.0
N13 N 0.0164 0.2317 0.22134 0.0
O14 O 0.06992 0.21349 0.25806 0.0
H15 H 0.02977 0.20817 0.26997 0.0
H16 H 0.03419 0.22595 0.18898 0.0
O17 O 0.03167 0.17076 0.24291 0.0
C18 C 0.08732 0.23376 0.25326 0.0
O19 O 0.09368 0.23951 0.22828 0.0
N20 N 0.04445 0.18702 0.19095 0.0
C21 C 0.0358 0.17427 0.13739 0.0
C22 C 0.02614 0.1572 0.15745 0.0
C23 C 0.03124 0.16388 0.18418 0.0
C24 C 0.05476 0.20361 0.17159 0.0
C25 C 0.05044 0.19771 0.14472 0.0
H26 H 0.02534 0.15029 0.19907 0.0
H27 H 0.06677 0.2216 0.17715 0.0
H28 H 0.06167 0.15785 0.25083 0.0
H29 H 0.12011 0.18303 0.19985 0.0
H30 H 0.00581 0.22995 0.2625 0.0
H31 H 0.0155 0.1388 0.15247 0.0
H32 H 0.05854 0.21137 0.12981 0.0
C33 C 0.81396 0.8971 0.20333 0.0
C34 C 0.82764 0.92087 0.20712 0.0
N35 N 0.84176 0.92454 0.22818 0.0
N36 N 0.81944 0.88584 0.22191 0.0
C37 C 0.8364 0.90302 0.23683 0.0
H38 H 0.80075 0.88853 0.18809 0.0
Co39 Co 0.80489 0.85351 0.22554 0.0
C40 C 0.84129 0.84358 0.24584 0.0
O41 O 0.8315 0.82406 0.23195 0.0
N42 N 0.78931 0.82054 0.22978 0.0
C43 C 0.7736 0.78611 0.25075 0.0
C44 C 0.78536 0.80999 0.2539 0.0
C45 C 0.77926 0.80245 0.21231 0.0
N46 N 0.76979 0.78139 0.22456 0.0
O47 O 0.78987 0.85522 0.25733 0.0
H48 H 0.79107 0.81913 0.27273 0.0
H49 H 0.77911 0.80437 0.19099 0.0
O50 O 0.83223 0.85687 0.2455 0.0
C51 C 0.77111 0.85512 0.2508 0.0
O52 O 0.76697 0.85608 0.22533 0.0
N53 N 0.81796 0.85234 0.19274 0.0
C54 C 0.83259 0.85426 0.14016 0.0
C55 C 0.84881 0.86149 0.16111 0.0
C56 C 0.84123 0.86101 0.18728 0.0
C57 C 0.80224 0.84626 0.17244 0.0
C58 C 0.80906 0.84671 0.14607 0.0
H59 H 0.85432 0.86863 0.2027 0.0
H60 H 0.78423 0.84127 0.17684 0.0
H61 H 0.84426 0.89988 0.2541 0.0
H62 H 0.8274 0.93441 0.19513 0.0
H63 H 0.76813 0.77323 0.26655 0.0
H64 H 0.86731 0.86834 0.15719 0.0
H65 H 0.79601 0.84125 0.13043 0.0
C66 C 0.10548 0.91175 0.19277 0.0
C67 C 0.08164 0.90156 0.19664 0.0
N68 N 0.07792 0.91238 0.2173 0.0
N69 N 0.1167 0.92891 0.2109 0.0
C70 C 0.09945 0.9288 0.22565 0.0
H71 H 0.11412 0.90688 0.17781 0.0
Co72 Co 0.14901 0.94701 0.21471 0.0
C73 C 0.15824 0.99299 0.23558 0.0
O74 O 0.17788 0.00316 0.22183 0.0
N75 N 0.18204 0.96485 0.21924 0.0
C76 C 0.21608 0.98362 0.24096 0.0
C77 C 0.19219 0.97065 0.24361 0.0
C78 C 0.20046 0.97441 0.20206 0.0
N79 N 0.22131 0.98608 0.21481 0.0
O80 O 0.14717 0.93014 0.24642 0.0
H81 H 0.18277 0.96623 0.26234 0.0
H82 H 0.19886 0.97359 0.18064 0.0
O83 O 0.14516 0.97064 0.23481 0.0
C84 C 0.14981 0.91292 0.23975 0.0
O85 O 0.15092 0.90911 0.2142 0.0
N86 N 0.15028 0.96131 0.18195 0.0
C87 C 0.14864 0.97396 0.12928 0.0
C88 C 0.14115 0.98284 0.15015 0.0
C89 C 0.14152 0.97579 0.17637 0.0
C90 C 0.15676 0.9519 0.16176 0.0
C91 C 0.15642 0.95821 0.13534 0.0
H92 H 0.13379 0.98121 0.19175 0.0
H93 H 0.16206 0.93915 0.16628 0.0
H94 H 0.10254 0.94003 0.24269 0.0
H95 H 0.0681 0.88744 0.18501 0.0
H96 H 0.22863 0.99074 0.25711 0.0
H97 H 0.1342 0.99436 0.14612 0.0
H98 H 0.16212 0.95075 0.11979 0.0
C99 C 0.19209 0.08611 0.78209 0.0
C100 C 0.17836 0.09625 0.77886 0.0
N101 N 0.16227 0.08425 0.7599 0.0
N102 N 0.18471 0.06783 0.76524 0.0
C103 C 0.16653 0.06715 0.75192 0.0
H104 H 0.20659 0.09173 0.79582 0.0
Co105 Co 0.1984 0.04919 0.76187 0.0
C106 C 0.16005 0.002 0.74681 0.0
O107 O 0.17004 0.99284 0.76136 0.0
N108 N 0.21301 0.03086 0.75778 0.0
C109 C 0.22646 0.00998 0.737 0.0
C110 C 0.21453 0.02195 0.73402 0.0
C111 C 0.22466 0.0243 0.77483 0.0
N112 N 0.23281 0.01144 0.76271 0.0
O113 O 0.21114 0.06311 0.72812 0.0
H114 H 0.20709 0.02376 0.71557 0.0
H115 H 0.22698 0.02846 0.79578 0.0
O116 O 0.16955 0.02432 0.74512 0.0
C117 C 0.23053 0.08209 0.73135 0.0
O118 O 0.23691 0.09016 0.75569 0.0
N119 N 0.18764 0.03757 0.79632 0.0
C120 C 0.17705 0.02764 0.85038 0.0
C121 C 0.15924 0.01805 0.83106 0.0
C122 C 0.16483 0.0237 0.80415 0.0
C123 C 0.20484 0.04816 0.81495 0.0
C124 C 0.20005 0.04319 0.84198 0.0
H125 H 0.15066 0.01749 0.78999 0.0
H126 H 0.22247 0.06078 0.80869 0.0
H127 H 0.15693 0.05475 0.73626 0.0
H128 H 0.17989 0.11109 0.78987 0.0
H129 H 0.23034 0.00109 0.72137 0.0
H130 H 0.14112 0.00643 0.83662 0.0
H131 H 0.21422 0.05191 0.85618 0.0
C132 C 0.91612 0.10387 0.80289 0.0
C133 C 0.90676 0.07997 0.80212 0.0
N134 N 0.91552 0.07469 0.78061 0.0
N135 N 0.93093 0.11364 0.78215 0.0
C136 C 0.92994 0.09539 0.76869 0.0
H137 H 0.91263 0.11356 0.81785 0.0
Co138 Co 0.94896 0.14564 0.7759 0.0
C139 C 0.99382 0.15339 0.75314 0.0
O140 O 0.00464 0.17337 0.76612 0.0
N141 N 0.96663 0.17828 0.76906 0.0
C142 C 0.98488 0.21138 0.74549 0.0
C143 C 0.9725 0.18736 0.74418 0.0
C144 C 0.97531 0.19737 0.7851 0.0
N145 N 0.98662 0.21765 0.77126 0.0
O146 O 0.93072 0.14244 0.74507 0.0
H147 H 0.96829 0.17711 0.72609 0.0
H148 H 0.97382 0.19672 0.80652 0.0
O149 O 0.97147 0.14057 0.75499 0.0
C150 C 0.91354 0.145 0.75219 0.0
O151 O 0.91037 0.14663 0.77782 0.0
N152 N 0.96491 0.14845 0.80795 0.0
C153 C 0.97935 0.14804 0.86011 0.0
C154 C 0.98712 0.13959 0.83909 0.0
C155 C 0.97916 0.13934 0.81319 0.0
C156 C 0.95667 0.156 0.82835 0.0
C157 C 0.96391 0.1563 0.85449 0.0
H158 H 0.98352 0.13066 0.79789 0.0
H159 H 0.94381 0.16126 0.82431 0.0
H160 H 0.93999 0.09723 0.75087 0.0
H161 H 0.89447 0.06745 0.8163 0.0
H162 H 0.99185 0.22331 0.72875 0.0
H163 H 0.99831 0.1322 0.84285 0.0
H164 H 0.95721 0.16263 0.87022 0.0
C165 C 0.89601 0.80698 0.79636 0.0
C166 C 0.91976 0.8206 0.79212 0.0
N167 N 0.92316 0.83445 0.77087 0.0
N168 N 0.88448 0.8122 0.77785 0.0
C169 C 0.9015 0.82896 0.76253 0.0
H170 H 0.88765 0.79391 0.8118 0.0
Co171 Co 0.85203 0.79778 0.77446 0.0
C172 C 0.84274 0.83556 0.75692 0.0
O173 O 0.82272 0.82556 0.76996 0.0
N174 N 0.81901 0.78254 0.77046 0.0
C175 C 0.7845 0.76751 0.74979 0.0
C176 C 0.8084 0.78018 0.74667 0.0
C177 C 0.80095 0.77076 0.7877 0.0
N178 N 0.77979 0.76157 0.77565 0.0
O179 O 0.8536 0.7848 0.74104 0.0
H180 H 0.81749 0.78761 0.72811 0.0
H181 H 0.80299 0.76847 0.80861 0.0
O182 O 0.85562 0.82607 0.75696 0.0
C183 C 0.85706 0.7675 0.74318 0.0
O184 O 0.86191 0.76235 0.76676 0.0
N185 N 0.85081 0.80898 0.80847 0.0
C186 C 0.8522 0.82078 0.86215 0.0
C187 C 0.85949 0.83802 0.84226 0.0
C188 C 0.85915 0.83185 0.81554 0.0
C189 C 0.8448 0.7923 0.82763 0.0
C190 C 0.845 0.79769 0.85451 0.0
H191 H 0.86653 0.84569 0.80094 0.0
H192 H 0.84021 0.77467 0.82193 0.0
H193 H 0.89812 0.83656 0.74518 0.0
H194 H 0.93347 0.8205 0.80392 0.0
H195 H 0.77162 0.76346 0.73426 0.0
H196 H 0.86569 0.85618 0.84727 0.0
H197 H 0.8402 0.78397 0.86919 0.0
C198 C 0.75159 0.51956 0.53598 0.0
C199 C 0.76121 0.50547 0.54008 0.0
N200 N 0.74993 0.49106 0.56069 0.0
N201 N 0.73439 0.51412 0.55399 0.0
C202 C 0.73378 0.49668 0.5688 0.0
H203 H 0.75676 0.53292 0.52081 0.0
Co204 Co 0.71646 0.52874 0.5566 0.0
C205 C 0.6692 0.49167 0.57241 0.0
O206 O 0.66048 0.50108 0.55626 0.0
N207 N 0.69866 0.54417 0.56004 0.0
C208 C 0.67803 0.55795 0.58087 0.0
C209 C 0.68994 0.54595 0.58384 0.0
C210 C 0.69203 0.55578 0.54297 0.0
N211 N 0.67933 0.56411 0.55512 0.0
O212 O 0.73111 0.54244 0.58975 0.0
H213 H 0.69179 0.5386 0.60234 0.0
H214 H 0.6959 0.55793 0.52195 0.0
O215 O 0.69148 0.50099 0.57473 0.0
C216 C 0.75191 0.55963 0.58731 0.0
O217 O 0.76186 0.56439 0.56367 0.0
N218 N 0.704 0.51664 0.52282 0.0
C219 C 0.69378 0.5025 0.46954 0.0
C220 C 0.68647 0.48589 0.49022 0.0
C221 C 0.69195 0.4933 0.51667 0.0
C222 C 0.7126 0.53287 0.50296 0.0
C223 C 0.70696 0.52634 0.47639 0.0
H224 H 0.68757 0.48019 0.53191 0.0
H225 H 0.7244 0.55109 0.50777 0.0
H226 H 0.72203 0.48851 0.58547 0.0
H227 H 0.77514 0.50554 0.52851 0.0
H228 H 0.66925 0.56197 0.59652 0.0
H229 H 0.67737 0.46728 0.48608 0.0
H230 H 0.71322 0.54002 0.46147 0.0
C231 C 0.46958 0.23108 0.53328 0.0
C232 C 0.48014 0.2539 0.54206 0.0
N233 N 0.49649 0.25709 0.56034 0.0
N234 N 0.47913 0.21986 0.54601 0.0
C235 C 0.49533 0.2361 0.5625 0.0
H236 H 0.45662 0.22348 0.51761 0.0
Co237 Co 0.47324 0.18982 0.53801 0.0
C238 C 0.50224 0.18242 0.57726 0.0
O239 O 0.48419 0.16243 0.58488 0.0
N240 N 0.46759 0.15966 0.5296 0.0
C241 C 0.47377 0.13074 0.51759 0.0
C242 C 0.48394 0.15447 0.52113 0.0
C243 C 0.44754 0.13871 0.53092 0.0
N244 N 0.45084 0.12072 0.52388 0.0
O245 O 0.45216 0.17772 0.56771 0.0
H246 H 0.50227 0.16713 0.51801 0.0
H247 H 0.43093 0.13661 0.53738 0.0
O248 O 0.49962 0.1947 0.55946 0.0
C249 C 0.43227 0.17474 0.56049 0.0
O250 O 0.42974 0.17926 0.53558 0.0
N251 N 0.49212 0.20176 0.50786 0.0
C252 C 0.51465 0.2179 0.45909 0.0
C253 C 0.52773 0.22269 0.48265 0.0
C254 C 0.51606 0.21475 0.50706 0.0
C255 C 0.47921 0.19715 0.4852 0.0
C256 C 0.49011 0.20512 0.46057 0.0
H257 H 0.52632 0.21907 0.52511 0.0
H258 H 0.46026 0.18715 0.48637 0.0
H259 H 0.50662 0.23288 0.57529 0.0
H260 H 0.47698 0.26742 0.53434 0.0
H261 H 0.48269 0.12168 0.51063 0.0
H262 H 0.54672 0.23269 0.4822 0.0
H263 H 0.47944 0.20095 0.44276 0.0
C264 C 0.76835 0.23652 0.53486 0.0
C265 C 0.74439 0.22483 0.53826 0.0
N266 N 0.73901 0.23745 0.55499 0.0
N267 N 0.77801 0.25634 0.54946 0.0
C268 C 0.75968 0.25645 0.56151 0.0
H269 H 0.77815 0.23091 0.52258 0.0
Co270 Co 0.81007 0.27694 0.55196 0.0
C271 C 0.81623 0.32199 0.57175 0.0
O272 O 0.83472 0.33268 0.55619 0.0
N273 N 0.84298 0.29723 0.55498 0.0
C274 C 0.8774 0.31885 0.57515 0.0
C275 C 0.85374 0.30473 0.57885 0.0
C276 C 0.86079 0.30689 0.53703 0.0
N277 N 0.88186 0.32029 0.54883 0.0
O278 O 0.81102 0.2613 0.58366 0.0
H279 H 0.84486 0.30049 0.59792 0.0
H280 H 0.85856 0.30467 0.51573 0.0
O281 O 0.80447 0.29951 0.57231 0.0
C282 C 0.8169 0.24645 0.5761 0.0
O283 O 0.81926 0.24434 0.55037 0.0
N284 N 0.80876 0.28984 0.5192 0.0
C285 C 0.80362 0.29984 0.46652 0.0
C286 C 0.79595 0.30841 0.4875 0.0
C287 C 0.79805 0.30261 0.51379 0.0
C288 C 0.81551 0.28076 0.49892 0.0
C289 C 0.81338 0.28575 0.47246 0.0
H290 H 0.79011 0.30756 0.52941 0.0
H291 H 0.82234 0.26924 0.5034 0.0
H292 H 0.76136 0.26982 0.57526 0.0
H293 H 0.73187 0.20849 0.5289 0.0
H294 H 0.89034 0.32727 0.59072 0.0
H295 H 0.78756 0.31866 0.48353 0.0
H296 H 0.81923 0.27856 0.45676 0.0
C297 C 0.86066 0.42155 0.13166 0.0
C298 C 0.84529 0.42993 0.13026 0.0
N299 N 0.8311 0.41995 0.10913 0.0
N300 N 0.85603 0.40616 0.11169 0.0
C301 C 0.83817 0.40583 0.09802 0.0
H302 H 0.87403 0.42598 0.14665 0.0
Co303 Co 0.87086 0.38868 0.10717 0.0
C304 C 0.83515 0.34301 0.08455 0.0
O305 O 0.84485 0.33285 0.09781 0.0
N306 N 0.88674 0.37158 0.10214 0.0
C307 C 0.90311 0.35387 0.08028 0.0
C308 C 0.8912 0.36591 0.07773 0.0
C309 C 0.89666 0.36308 0.1192 0.0
N310 N 0.90652 0.35208 0.1064 0.0
O311 O 0.88638 0.40654 0.07619 0.0
H312 H 0.88576 0.36994 0.05907 0.0
H313 H 0.89645 0.36441 0.14061 0.0
O314 O 0.844 0.36529 0.08604 0.0
C315 C 0.90605 0.42377 0.08337 0.0
O316 O 0.91043 0.42728 0.10905 0.0
N317 N 0.85712 0.37314 0.13926 0.0
C318 C 0.84058 0.35916 0.19109 0.0
C319 C 0.8251 0.35104 0.16941 0.0
C320 C 0.83363 0.35873 0.14368 0.0
C321 C 0.8722 0.38178 0.16026 0.0
C322 C 0.86442 0.37476 0.18628 0.0
H323 H 0.82106 0.35406 0.12779 0.0
H324 H 0.8904 0.39473 0.15677 0.0
H325 H 0.83004 0.39497 0.08073 0.0
H326 H 0.84452 0.4423 0.14386 0.0
H327 H 0.90897 0.34712 0.06414 0.0
H328 H 0.80641 0.33974 0.17245 0.0
H329 H 0.87692 0.3817 0.2025 0.0
C330 C 0.57647 0.4376 0.12438 0.0
C331 C 0.5652 0.41377 0.12012 0.0
N332 N 0.57638 0.40952 0.10026 0.0
N333 N 0.59464 0.44826 0.10727 0.0
C334 C 0.59404 0.43072 0.09273 0.0
H335 H 0.57188 0.4466 0.13915 0.0
Co336 Co 0.61519 0.48032 0.10492 0.0
C337 C 0.66069 0.48579 0.08799 0.0
O338 O 0.67118 0.5043 0.1035 0.0
N339 N 0.63558 0.51317 0.10168 0.0
C340 C 0.65796 0.54735 0.08117 0.0
C341 C 0.64475 0.52353 0.07795 0.0
C342 C 0.64319 0.53139 0.11893 0.0
N343 N 0.65694 0.55228 0.10698 0.0
O344 O 0.6007 0.48121 0.07243 0.0
H345 H 0.64206 0.51427 0.05931 0.0
H346 H 0.63902 0.52975 0.13987 0.0
O347 O 0.63825 0.47458 0.08622 0.0
C348 C 0.58393 0.4847 0.07878 0.0
O349 O 0.57921 0.48483 0.10424 0.0
N350 N 0.62725 0.47908 0.13836 0.0
C351 C 0.63679 0.47403 0.19153 0.0
C352 C 0.6431 0.4639 0.17076 0.0
C353 C 0.63791 0.46639 0.14434 0.0
C354 C 0.61961 0.48759 0.15833 0.0
C355 C 0.62496 0.48612 0.18484 0.0
H356 H 0.6414 0.45703 0.12901 0.0
H357 H 0.60885 0.49526 0.15364 0.0
H358 H 0.60612 0.43339 0.07669 0.0
H359 H 0.55033 0.40057 0.13122 0.0
H360 H 0.66721 0.56009 0.06562 0.0
H361 H 0.65116 0.45338 0.17483 0.0
H362 H 0.61954 0.49424 0.19986 0.0
C363 C 0.56587 0.13863 0.11453 0.0
C364 C 0.58939 0.14968 0.10814 0.0
N365 N 0.59568 0.17096 0.09793 0.0
N366 N 0.55728 0.15278 0.10819 0.0
C367 C 0.57585 0.17228 0.09818 0.0
H368 H 0.55595 0.12175 0.12412 0.0
Co369 Co 0.52735 0.14797 0.11535 0.0
C370 C 0.52065 0.17468 0.0724 0.0
O371 O 0.50012 0.15669 0.06617 0.0
N372 N 0.49733 0.14359 0.12291 0.0
C373 C 0.46905 0.1519 0.13121 0.0
C374 C 0.49263 0.16111 0.12703 0.0
C375 C 0.4762 0.12378 0.12522 0.0
N376 N 0.45869 0.12841 0.13 0.0
O377 O 0.5148 0.12534 0.08731 0.0
H378 H 0.5055 0.17958 0.12664 0.0
H379 H 0.47349 0.10629 0.12305 0.0
O380 O 0.53281 0.17286 0.09099 0.0
C381 C 0.50821 0.10468 0.09561 0.0
O382 O 0.51034 0.10158 0.12114 0.0
N383 N 0.53958 0.16861 0.14396 0.0
C384 C 0.55349 0.19353 0.19159 0.0
C385 C 0.55769 0.20536 0.16715 0.0
C386 C 0.5508 0.19254 0.14338 0.0
C387 C 0.53597 0.15692 0.1674 0.0
C388 C 0.5428 0.16902 0.19147 0.0
H389 H 0.55408 0.2019 0.12476 0.0
H390 H 0.52722 0.13798 0.16733 0.0
H391 H 0.57502 0.18748 0.09181 0.0
H392 H 0.6011 0.14291 0.11186 0.0
H393 H 0.46024 0.16176 0.13512 0.0
H394 H 0.56605 0.22429 0.16646 0.0
H395 H 0.53897 0.15918 0.2099 0.0
C396 C 0.42907 0.866 0.8781 0.0
C397 C 0.43981 0.85304 0.88324 0.0
N398 N 0.42674 0.83648 0.90134 0.0
N399 N 0.40938 0.85761 0.89291 0.0
C400 C 0.40854 0.83975 0.90699 0.0
H401 H 0.43509 0.88048 0.86428 0.0
Co402 Co 0.38901 0.86937 0.89324 0.0
C403 C 0.34257 0.83015 0.90984 0.0
O404 O 0.33261 0.83825 0.89363 0.0
N405 N 0.36891 0.88221 0.89422 0.0
C406 C 0.34628 0.89492 0.91209 0.0
C407 C 0.35939 0.88447 0.91717 0.0
C408 C 0.3616 0.89196 0.87549 0.0
N409 N 0.34765 0.89961 0.88585 0.0
O410 O 0.40236 0.88496 0.92607 0.0
H411 H 0.36167 0.87867 0.93654 0.0
H412 H 0.36613 0.89339 0.85464 0.0
O413 O 0.36499 0.84094 0.91189 0.0
C414 C 0.4189 0.90552 0.92043 0.0
O415 O 0.42449 0.91076 0.8952 0.0
N416 N 0.37807 0.85583 0.85957 0.0
C417 C 0.36915 0.84097 0.80666 0.0
C418 C 0.36013 0.82466 0.82753 0.0
C419 C 0.36539 0.8324 0.85391 0.0
C420 C 0.38798 0.8717 0.83944 0.0
C421 C 0.3835 0.86473 0.81285 0.0
H422 H 0.35994 0.81941 0.86945 0.0
H423 H 0.39962 0.88998 0.84416 0.0
H424 H 0.39507 0.82947 0.92139 0.0
H425 H 0.4556 0.8552 0.87388 0.0
H426 H 0.33679 0.89909 0.9267 0.0
H427 H 0.34978 0.80606 0.82345 0.0
H428 H 0.39113 0.87785 0.79728 0.0
C429 C 0.15022 0.56444 0.86961 0.0
C430 C 0.1633 0.58818 0.87399 0.0
N431 N 0.17899 0.59201 0.89337 0.0
N432 N 0.15758 0.55334 0.88615 0.0
C433 C 0.17516 0.57058 0.90042 0.0
H434 H 0.13616 0.55576 0.8553 0.0
Co435 Co 0.14397 0.52102 0.88754 0.0
C436 C 0.17975 0.51086 0.90836 0.0
O437 O 0.17196 0.49362 0.89101 0.0
N438 N 0.1291 0.48786 0.88948 0.0
C439 C 0.1138 0.45275 0.90876 0.0
C440 C 0.1252 0.47646 0.91303 0.0
C441 C 0.11923 0.47041 0.87118 0.0
N442 N 0.11006 0.44896 0.88243 0.0
O443 O 0.12645 0.52033 0.91831 0.0
H444 H 0.13056 0.48493 0.93227 0.0
H445 H 0.11879 0.47308 0.85003 0.0
O446 O 0.17027 0.52377 0.90952 0.0
C447 C 0.10644 0.51632 0.91012 0.0
O448 O 0.10283 0.51523 0.88424 0.0
N449 N 0.15958 0.52236 0.85562 0.0
C450 C 0.1786 0.52884 0.80444 0.0
C451 C 0.1932 0.53602 0.82692 0.0
C452 C 0.18339 0.53322 0.85233 0.0
C453 C 0.14532 0.5163 0.83389 0.0
C454 C 0.15436 0.51896 0.80817 0.0
H455 H 0.19511 0.54084 0.86904 0.0
H456 H 0.12677 0.50991 0.83656 0.0
H457 H 0.18464 0.56753 0.91602 0.0
H458 H 0.16159 0.60159 0.86347 0.0
H459 H 0.10835 0.43932 0.92392 0.0
H460 H 0.2121 0.54465 0.82481 0.0
H461 H 0.14247 0.51355 0.79134 0.0
C462 C 0.43332 0.57377 0.86829 0.0
C463 C 0.41123 0.55934 0.87843 0.0
N464 N 0.41004 0.56705 0.90291 0.0
N465 N 0.44602 0.59096 0.88603 0.0
C466 C 0.43165 0.58545 0.90747 0.0
H467 H 0.43909 0.57201 0.84875 0.0
Co468 Co 0.47637 0.61776 0.88287 0.0
C469 C 0.4471 0.63739 0.90302 0.0
O470 O 0.43045 0.62401 0.88615 0.0
N471 N 0.50655 0.64383 0.88013 0.0
C472 C 0.53711 0.68003 0.8804 0.0
C473 C 0.51369 0.66639 0.88614 0.0
C474 C 0.52601 0.64426 0.8706 0.0
N475 N 0.5449 0.66612 0.87057 0.0
O476 O 0.48541 0.60816 0.91434 0.0
H477 H 0.50265 0.67286 0.89369 0.0
H478 H 0.52617 0.62892 0.86322 0.0
O479 O 0.46609 0.63647 0.90381 0.0
C480 C 0.49254 0.59429 0.90684 0.0
O481 O 0.49137 0.58916 0.88135 0.0
N482 N 0.46896 0.62641 0.85019 0.0
C483 C 0.46311 0.63667 0.79777 0.0
C484 C 0.46371 0.65097 0.81882 0.0
C485 C 0.46717 0.64583 0.84489 0.0
C486 C 0.47013 0.61346 0.82971 0.0
C487 C 0.46666 0.61786 0.80347 0.0
H488 H 0.46929 0.65807 0.86038 0.0
H489 H 0.47442 0.59992 0.83377 0.0
H490 H 0.43647 0.59575 0.92558 0.0
H491 H 0.39666 0.54538 0.86774 0.0
H492 H 0.5476 0.69878 0.88336 0.0
H493 H 0.46193 0.66621 0.81515 0.0
H494 H 0.46764 0.60716 0.78767 0.0
C495 C 0.5204 0.75116 0.45718 0.0
C496 C 0.50631 0.76081 0.45355 0.0
N497 N 0.4915 0.74952 0.43327 0.0
N498 N 0.51456 0.73387 0.43925 0.0
C499 C 0.49684 0.73323 0.42493 0.0
H500 H 0.53415 0.75646 0.47188 0.0
Co501 Co 0.52998 0.7168 0.43623 0.0
C502 C 0.49498 0.66976 0.41702 0.0
O503 O 0.50539 0.66121 0.43183 0.0
N504 N 0.5466 0.70021 0.43263 0.0
C505 C 0.56315 0.68213 0.41192 0.0
C506 C 0.55084 0.69369 0.40861 0.0
C507 C 0.55705 0.69267 0.45023 0.0
N508 N 0.56702 0.68145 0.43812 0.0
O509 O 0.54481 0.73335 0.40431 0.0
H510 H 0.5449 0.69671 0.38971 0.0
H511 H 0.55706 0.69474 0.47155 0.0
O512 O 0.50309 0.69197 0.41636 0.0
C513 C 0.56342 0.75226 0.4105 0.0
O514 O 0.56763 0.7578 0.43587 0.0
N515 N 0.51689 0.7027 0.46907 0.0
C516 C 0.50094 0.69059 0.5214 0.0
C517 C 0.48517 0.68203 0.49999 0.0
C518 C 0.49342 0.68873 0.47399 0.0
C519 C 0.53224 0.71199 0.48975 0.0
C520 C 0.52478 0.7058 0.51601 0.0
H521 H 0.48069 0.68368 0.45821 0.0
H522 H 0.55041 0.72476 0.48579 0.0
H523 H 0.48838 0.72148 0.40835 0.0
H524 H 0.50677 0.77491 0.46513 0.0
H525 H 0.56889 0.67488 0.3962 0.0
H526 H 0.46648 0.67111 0.50336 0.0
H527 H 0.53755 0.7131 0.53194 0.0
C528 C 0.23965 0.76744 0.46573 0.0
C529 C 0.22906 0.74364 0.46149 0.0
N530 N 0.24137 0.73982 0.44264 0.0
N531 N 0.25849 0.77849 0.44961 0.0
C532 C 0.25901 0.76121 0.43569 0.0
H533 H 0.23404 0.77619 0.47969 0.0
Co534 Co 0.27792 0.81068 0.44755 0.0
C535 C 0.32382 0.81862 0.42778 0.0
O536 O 0.3341 0.8369 0.44365 0.0
N537 N 0.29691 0.84364 0.44487 0.0
C538 C 0.31693 0.87838 0.42493 0.0
C539 C 0.30576 0.8546 0.42137 0.0
C540 C 0.30253 0.86138 0.46234 0.0
N541 N 0.31483 0.88271 0.45072 0.0
O542 O 0.26214 0.81124 0.41587 0.0
H543 H 0.30408 0.84577 0.40262 0.0
H544 H 0.29704 0.85893 0.4829 0.0
O545 O 0.30135 0.80654 0.427 0.0
C546 C 0.24633 0.816 0.42278 0.0
O547 O 0.24308 0.81764 0.44839 0.0
N548 N 0.29134 0.80973 0.48025 0.0
C549 C 0.30468 0.8066 0.53215 0.0
C550 C 0.31212 0.79839 0.5106 0.0
C551 C 0.30466 0.79946 0.48482 0.0
C552 C 0.28281 0.8164 0.50119 0.0
C553 C 0.28954 0.81537 0.52726 0.0
H554 H 0.30896 0.79123 0.46892 0.0
H555 H 0.27033 0.82222 0.49761 0.0
H556 H 0.27172 0.76416 0.42034 0.0
H557 H 0.21378 0.73019 0.4718 0.0
H558 H 0.32593 0.89141 0.40959 0.0
H559 H 0.32297 0.79051 0.51374 0.0
H560 H 0.28297 0.82141 0.54342 0.0
C561 C 0.22231 0.45992 0.43861 0.0
C562 C 0.24568 0.47013 0.43189 0.0
N563 N 0.25479 0.49356 0.43057 0.0
N564 N 0.21652 0.47676 0.44134 0.0
C565 C 0.2367 0.497 0.43658 0.0
H566 H 0.21041 0.44138 0.44122 0.0
Co567 Co 0.18738 0.47368 0.44946 0.0
C568 C 0.18465 0.50466 0.4091 0.0
O569 O 0.16417 0.48774 0.4009 0.0
N570 N 0.15814 0.47115 0.45775 0.0
C571 C 0.13119 0.4813 0.46639 0.0
C572 C 0.15459 0.48941 0.46214 0.0
C573 C 0.13647 0.45204 0.46004 0.0
N574 N 0.11978 0.45778 0.46499 0.0
O575 O 0.17386 0.45317 0.41958 0.0
H576 H 0.16807 0.50766 0.46176 0.0
H577 H 0.13272 0.43421 0.45761 0.0
O578 O 0.19542 0.50086 0.42778 0.0
C579 C 0.16534 0.43187 0.42671 0.0
O580 O 0.16664 0.42731 0.45198 0.0
N581 N 0.20028 0.49179 0.47988 0.0
C582 C 0.2149 0.51157 0.53017 0.0
C583 C 0.21702 0.52568 0.50817 0.0
C584 C 0.20984 0.51545 0.48295 0.0
C585 C 0.19863 0.478 0.50088 0.0
C586 C 0.20594 0.48753 0.5262 0.0
H587 H 0.21142 0.52648 0.46623 0.0
H588 H 0.19108 0.45933 0.49794 0.0
H589 H 0.23809 0.51401 0.43794 0.0
H590 H 0.25504 0.46081 0.42805 0.0
H591 H 0.1232 0.49192 0.47036 0.0
H592 H 0.22395 0.54434 0.51052 0.0
H593 H 0.20374 0.476 0.54271 0.0
C594 C 0.91717 0.32108 0.10521 0.0
C595 C 0.91797 0.34043 0.11804 0.0
C596 C 0.9284 0.30983 0.11624 0.0
C597 C 0.95266 0.30233 0.1797 0.0
H598 H 0.98281 0.27827 0.13307 0.0
C599 C 0.98433 0.24075 0.21863 0.0
C600 C 0.0056 0.24361 0.20878 0.0
C601 C 0.97413 0.25284 0.20722 0.0
C602 C 0.9747 0.28508 0.14642 0.0
H603 H 0.93143 0.36333 0.15238 0.0
H604 H 0.95137 0.34393 0.17154 0.0
H605 H 0.96489 0.2996 0.11413 0.0
H606 H 0.03285 0.26136 0.17914 0.0
H607 H 0.01524 0.28283 0.15932 0.0
H608 H 0.96302 0.2884 0.21205 0.0
C609 C 0.94165 0.33713 0.15318 0.0
C610 C 0.96412 0.29705 0.13552 0.0
C611 C 0.93025 0.34828 0.14221 0.0
C612 C 0.01633 0.25863 0.18697 0.0
C613 C 0.00621 0.2709 0.17564 0.0
C614 C 0.96334 0.29048 0.19061 0.0
C615 C 0.94088 0.31776 0.14031 0.0
C616 C 0.95281 0.30568 0.152 0.0
C617 C 0.98504 0.26826 0.18574 0.0
C618 C 0.97433 0.28152 0.1741 0.0
H619 H 0.90751 0.31436 0.0868 0.0
H620 H 0.92698 0.29467 0.10606 0.0
H621 H 0.94393 0.3085 0.193 0.0
H622 H 0.97542 0.22895 0.23508 0.0
H623 H 0.95756 0.24991 0.21512 0.0
C624 C 0.68928 0.59332 0.10882 0.0
C625 C 0.66803 0.57518 0.11905 0.0
C626 C 0.69994 0.61565 0.1202 0.0
C627 C 0.70093 0.64717 0.18178 0.0
H628 H 0.73178 0.7018 0.13598 0.0
C629 C 0.75945 0.73984 0.22431 0.0
C630 C 0.75835 0.75854 0.21233 0.0
C631 C 0.74818 0.71759 0.21274 0.0
C632 C 0.72305 0.68676 0.14905 0.0
H633 H 0.64117 0.56633 0.14908 0.0
H634 H 0.6596 0.60538 0.16881 0.0
H635 H 0.71201 0.66281 0.11626 0.0
H636 H 0.74443 0.76853 0.17888 0.0
H637 H 0.72445 0.72958 0.15875 0.0
H638 H 0.71142 0.6711 0.21451 0.0
C639 C 0.66829 0.60224 0.15229 0.0
C640 C 0.71197 0.66436 0.13776 0.0
C641 C 0.6577 0.57985 0.14099 0.0
C642 C 0.74582 0.75453 0.1884 0.0
C643 C 0.7344 0.73221 0.17688 0.0
C644 C 0.71191 0.66955 0.19305 0.0
C645 C 0.68954 0.62043 0.14201 0.0
C646 C 0.70089 0.64428 0.15399 0.0
C647 C 0.7354 0.71344 0.18895 0.0
C648 C 0.72323 0.68963 0.17685 0.0
H649 H 0.69785 0.59016 0.09221 0.0
H650 H 0.71652 0.62908 0.11209 0.0
H651 H 0.69279 0.63211 0.19491 0.0
H652 H 0.76932 0.74247 0.24249 0.0
H653 H 0.74976 0.7037 0.22229 0.0
C654 C 0.42621 0.08986 0.1448 0.0
C655 C 0.43401 0.112 0.1333 0.0
C656 C 0.40232 0.07492 0.15012 0.0
C657 C 0.34887 0.07802 0.16309 0.0
H658 H 0.31703 0.0103 0.15704 0.0
C659 C 0.26209 0.01889 0.21697 0.0
C660 C 0.24438 0.99952 0.20323 0.0
C661 C 0.28454 0.03189 0.20616 0.0
C662 C 0.32563 0.02921 0.15858 0.0
H663 H 0.42275 0.1351 0.11658 0.0
H664 H 0.38124 0.10912 0.12563 0.0
H665 H 0.35749 0.03389 0.14114 0.0
H666 H 0.23645 0.97859 0.16733 0.0
H667 H 0.27589 0.00155 0.14822 0.0
H668 H 0.31718 0.07348 0.18045 0.0
C669 C 0.39355 0.1035 0.13125 0.0
C670 C 0.34886 0.0427 0.14974 0.0
C671 C 0.41735 0.11841 0.12608 0.0
C672 C 0.24967 0.99351 0.17829 0.0
C673 C 0.27229 0.00651 0.16749 0.0
C674 C 0.32577 0.06459 0.17195 0.0
C675 C 0.38578 0.08182 0.14391 0.0
C676 C 0.36079 0.06727 0.15207 0.0
C677 C 0.28993 0.0259 0.18131 0.0
C678 C 0.31396 0.04003 0.17012 0.0
H679 H 0.43864 0.08449 0.15067 0.0
H680 H 0.39694 0.0584 0.16006 0.0
H681 H 0.35758 0.09687 0.16551 0.0
H682 H 0.25855 0.0242 0.23603 0.0
H683 H 0.29779 0.04655 0.21747 0.0
C684 C 0.24353 0.98047 0.76396 0.0
C685 C 0.24535 0.00103 0.77469 0.0
C686 C 0.25561 0.97029 0.77546 0.0
C687 C 0.28351 0.96809 0.83831 0.0
H688 H 0.31115 0.94016 0.79359 0.0
C689 C 0.31535 0.90821 0.88178 0.0
C690 C 0.33652 0.91067 0.87212 0.0
C691 C 0.30493 0.91965 0.86932 0.0
C692 C 0.30373 0.94807 0.80636 0.0
H693 H 0.26163 0.02723 0.80569 0.0
H694 H 0.28286 0.00954 0.82575 0.0
H695 H 0.29245 0.9602 0.77303 0.0
H696 H 0.36326 0.92692 0.84159 0.0
H697 H 0.3451 0.94708 0.8198 0.0
H698 H 0.29513 0.95634 0.87163 0.0
C699 C 0.27176 0.00107 0.80866 0.0
C700 C 0.29276 0.95932 0.79458 0.0
C701 C 0.25959 0.01122 0.79718 0.0
C702 C 0.34684 0.92451 0.84935 0.0
C703 C 0.33643 0.93605 0.8369 0.0
C704 C 0.2945 0.95689 0.85008 0.0
C705 C 0.26988 0.98046 0.79794 0.0
C706 C 0.28236 0.9693 0.81042 0.0
C707 C 0.31546 0.93391 0.84691 0.0
C708 C 0.30455 0.94655 0.83425 0.0
H709 H 0.2324 0.97196 0.74693 0.0
H710 H 0.2534 0.95418 0.767 0.0
H711 H 0.27551 0.97539 0.85111 0.0
H712 H 0.30671 0.89729 0.89894 0.0
H713 H 0.2885 0.91716 0.87718 0.0
C714 C 0.08453 0.42262 0.84675 0.0
C715 C 0.09848 0.42646 0.86945 0.0
C716 C 0.07216 0.40028 0.8353 0.0
C717 C 0.04983 0.33766 0.85174 0.0
H718 H 0.04235 0.32912 0.7752 0.0
C719 C 0.99047 0.2466 0.80519 0.0
C720 C 0.99846 0.24114 0.78177 0.0
C721 C 0.002 0.26943 0.81531 0.0
C722 C 0.04442 0.33117 0.79662 0.0
H723 H 0.11136 0.41028 0.89715 0.0
H724 H 0.09032 0.37157 0.87699 0.0
H725 H 0.06462 0.36856 0.79352 0.0
H726 H 0.02502 0.25524 0.75083 0.0
H727 H 0.04543 0.29492 0.76869 0.0
H728 H 0.03043 0.30033 0.85486 0.0
C729 C 0.08823 0.38551 0.86846 0.0
C730 C 0.05695 0.35383 0.80715 0.0
C731 C 0.10037 0.40772 0.87998 0.0
C732 C 0.01824 0.25899 0.7687 0.0
C733 C 0.02989 0.28176 0.77892 0.0
C734 C 0.03746 0.31504 0.84122 0.0
C735 C 0.07367 0.38138 0.84622 0.0
C736 C 0.05993 0.35736 0.83485 0.0
C737 C 0.02193 0.2873 0.80237 0.0
C738 C 0.03465 0.31147 0.81352 0.0
H739 H 0.08261 0.43671 0.83837 0.0
H740 H 0.06095 0.39771 0.81835 0.0
H741 H 0.0514 0.33969 0.8732 0.0
H742 H 0.97507 0.23329 0.81547 0.0
H743 H 0.99511 0.27311 0.83315 0.0
C744 C 0.58303 0.6965 0.85252 0.0
C745 C 0.56845 0.67348 0.86171 0.0
C746 C 0.60617 0.70416 0.84503 0.0
C747 C 0.6465 0.6838 0.82344 0.0
H748 H 0.6939 0.74702 0.84295 0.0
C749 C 0.73724 0.73326 0.7725 0.0
C750 C 0.75685 0.74874 0.78778 0.0
C751 C 0.71476 0.72206 0.78364 0.0
C752 C 0.68099 0.72921 0.83762 0.0
H753 H 0.56678 0.64037 0.86987 0.0
H754 H 0.60738 0.65379 0.85665 0.0
H755 H 0.65377 0.73133 0.85853 0.0
H756 H 0.76815 0.76403 0.82708 0.0
H757 H 0.72896 0.74413 0.84667 0.0
H758 H 0.67384 0.68171 0.80258 0.0
C759 C 0.60074 0.66584 0.85515 0.0
C760 C 0.65789 0.72032 0.84627 0.0
C761 C 0.57748 0.65813 0.86268 0.0
C762 C 0.7535 0.75215 0.81476 0.0
C763 C 0.73098 0.74092 0.82592 0.0
C764 C 0.66966 0.69272 0.81476 0.0
C765 C 0.61542 0.68904 0.8465 0.0
C766 C 0.64028 0.69766 0.83891 0.0
C767 C 0.71129 0.72601 0.81037 0.0
C768 C 0.68712 0.71567 0.82142 0.0
H769 H 0.57652 0.70863 0.85092 0.0
H770 H 0.61679 0.72195 0.83783 0.0
H771 H 0.63335 0.66631 0.81734 0.0
H772 H 0.73921 0.72994 0.7518 0.0
H773 H 0.70001 0.71087 0.771 0.0
C774 C 0.648 0.57435 0.55369 0.0
C775 C 0.66885 0.5766 0.54319 0.0
C776 C 0.63786 0.58657 0.54244 0.0
C777 C 0.62663 0.62379 0.52486 0.0
H778 H 0.62667 0.63066 0.4481 0.0
C779 C 0.59138 0.67915 0.4743 0.0
C780 C 0.57881 0.6704 0.45043 0.0
C781 C 0.60323 0.66862 0.48578 0.0
C782 C 0.62633 0.62876 0.46957 0.0
H783 H 0.69553 0.59367 0.51279 0.0
H784 H 0.67803 0.61533 0.49329 0.0
H785 H 0.64523 0.61018 0.4676 0.0
H786 H 0.56817 0.6433 0.4204 0.0
H787 H 0.58838 0.62474 0.44052 0.0
H788 H 0.60696 0.64159 0.52676 0.0
C789 C 0.66925 0.60374 0.50994 0.0
C790 C 0.63728 0.61727 0.48079 0.0
C791 C 0.67931 0.59135 0.52111 0.0
C792 C 0.57807 0.65074 0.43851 0.0
C793 C 0.58974 0.64013 0.45004 0.0
C794 C 0.61556 0.63516 0.51363 0.0
C795 C 0.64839 0.60152 0.5205 0.0
C796 C 0.63744 0.61449 0.50857 0.0
C797 C 0.6026 0.649 0.47374 0.0
C798 C 0.61512 0.63765 0.48582 0.0
H799 H 0.63928 0.56281 0.57038 0.0
H800 H 0.62153 0.584 0.55075 0.0
H801 H 0.62671 0.6223 0.54636 0.0
H802 H 0.59248 0.69442 0.48379 0.0
H803 H 0.61319 0.67611 0.50385 0.0
C804 C 0.32795 0.90865 0.49047 0.0
C805 C 0.32362 0.90547 0.46289 0.0
C806 C 0.33773 0.93103 0.50181 0.0
C807 C 0.35141 0.99229 0.48707 0.0
H808 H 0.40091 0.00898 0.5389 0.0
C809 C 0.40955 0.08812 0.52147 0.0
C810 C 0.43372 0.09599 0.52311 0.0
C811 C 0.39323 0.06418 0.51913 0.0
C812 C 0.38719 0.00466 0.52436 0.0
H813 H 0.32523 0.92337 0.42592 0.0
H814 H 0.34305 0.96211 0.44527 0.0
H815 H 0.37747 0.96847 0.52454 0.0
H816 H 0.45935 0.08443 0.52507 0.0
H817 H 0.43131 0.04325 0.51975 0.0
H818 H 0.36219 0.0287 0.48545 0.0
C819 C 0.33858 0.94739 0.45837 0.0
C820 C 0.37346 0.9813 0.51641 0.0
C821 C 0.32869 0.9251 0.44712 0.0
C822 C 0.44101 0.07923 0.52326 0.0
C823 C 0.42478 0.0554 0.52069 0.0
C824 C 0.36531 0.01569 0.49477 0.0
C825 C 0.34347 0.95074 0.48582 0.0
C826 C 0.35581 0.97491 0.49709 0.0
C827 C 0.40068 0.04753 0.51825 0.0
C828 C 0.38382 0.02229 0.51298 0.0
H829 H 0.32437 0.894 0.50325 0.0
H830 H 0.34098 0.93289 0.52308 0.0
H831 H 0.33761 0.98796 0.47263 0.0
H832 H 0.4032 0.10042 0.52126 0.0
H833 H 0.37479 0.05876 0.51769 0.0
C834 C 0.0791 0.44969 0.46018 0.0
C835 C 0.09488 0.4423 0.46795 0.0
C836 C 0.05506 0.4355 0.46467 0.0
C837 C 0.00853 0.37509 0.48283 0.0
H838 H 0.97747 0.40755 0.51056 0.0
C839 C 0.92209 0.3542 0.54882 0.0
C840 C 0.90451 0.3339 0.53631 0.0
C841 C 0.94434 0.36705 0.53748 0.0
C842 C 0.98587 0.39819 0.50289 0.0
H843 H 0.09777 0.41391 0.48577 0.0
H844 H 0.05572 0.38918 0.49415 0.0
H845 H 0.01816 0.42997 0.49638 0.0
H846 H 0.89652 0.31131 0.50184 0.0
H847 H 0.93555 0.33402 0.48173 0.0
H848 H 0.97631 0.34321 0.49046 0.0
C849 C 0.0619 0.40583 0.48417 0.0
C850 C 0.00916 0.41107 0.49443 0.0
C851 C 0.086 0.42001 0.47947 0.0
C852 C 0.90964 0.32694 0.51188 0.0
C853 C 0.93204 0.33981 0.50052 0.0
C854 C 0.98516 0.36216 0.49135 0.0
C855 C 0.04618 0.41361 0.47726 0.0
C856 C 0.0209 0.39971 0.48458 0.0
C857 C 0.94966 0.35999 0.51326 0.0
C858 C 0.9737 0.37358 0.50189 0.0
H859 H 0.08537 0.46655 0.4507 0.0
H860 H 0.04343 0.44182 0.4585 0.0
H861 H 0.01695 0.36579 0.47505 0.0
H862 H 0.91865 0.36026 0.56743 0.0
H863 H 0.95754 0.38232 0.54802 0.0
C864 C 0.13884 0.38972 0.41671 0.0
C865 C 0.155 0.41231 0.40753 0.0
C866 C 0.13084 0.37039 0.39986 0.0
C867 C 0.14948 0.34965 0.34306 0.0
H868 H 0.08417 0.30077 0.33906 0.0
C869 C 0.1166 0.27425 0.26731 0.0
C870 C 0.09748 0.2522 0.27393 0.0
C871 C 0.12416 0.29315 0.28471 0.0
C872 C 0.10254 0.31403 0.34033 0.0
H873 H 0.175 0.43258 0.37337 0.0
H874 H 0.16121 0.39849 0.34375 0.0
H875 H 0.09516 0.33579 0.36564 0.0
H876 H 0.07207 0.23237 0.30472 0.0
H877 H 0.08578 0.26536 0.33568 0.0
H878 H 0.15707 0.32782 0.31837 0.0
C879 C 0.15473 0.39587 0.36405 0.0
C880 C 0.10878 0.33419 0.35535 0.0
C881 C 0.16246 0.41535 0.38087 0.0
C882 C 0.08686 0.24914 0.29905 0.0
C883 C 0.09454 0.26813 0.31663 0.0
C884 C 0.1433 0.32939 0.32829 0.0
C885 C 0.1391 0.37318 0.37355 0.0
C886 C 0.13229 0.35224 0.35674 0.0
C887 C 0.11294 0.29051 0.30937 0.0
C888 C 0.11972 0.31137 0.32658 0.0
H889 H 0.13271 0.3869 0.43717 0.0
H890 H 0.11892 0.35312 0.40776 0.0
H891 H 0.1678 0.3631 0.34423 0.0
H892 H 0.12522 0.27722 0.24812 0.0
H893 H 0.13817 0.3101 0.27822 0.0
C894 C 0.60022 0.78838 0.39776 0.0
C895 C 0.58214 0.76583 0.3909 0.0
C896 C 0.62035 0.79992 0.38206 0.0
C897 C 0.64597 0.80021 0.31638 0.0
H898 H 0.70455 0.83016 0.35583 0.0
C899 C 0.73405 0.85423 0.26286 0.0
C900 C 0.75227 0.85009 0.27019 0.0
C901 C 0.71388 0.8458 0.27846 0.0
C902 C 0.68836 0.82179 0.34454 0.0
H903 H 0.57039 0.73814 0.36147 0.0
H904 H 0.60576 0.75833 0.3339 0.0
H905 H 0.66733 0.81138 0.37988 0.0
H906 H 0.7642 0.83489 0.30033 0.0
H907 H 0.72876 0.82 0.32776 0.0
H908 H 0.66701 0.81012 0.28105 0.0
C909 C 0.60426 0.76713 0.35141 0.0
C910 C 0.66701 0.81126 0.35828 0.0
C911 C 0.58398 0.75558 0.36713 0.0
C912 C 0.7505 0.83848 0.2943 0.0
C913 C 0.73018 0.82991 0.30994 0.0
C914 C 0.66732 0.81079 0.30263 0.0
C915 C 0.62296 0.78914 0.35918 0.0
C916 C 0.64557 0.8004 0.34437 0.0
C917 C 0.71137 0.83291 0.30174 0.0
C918 C 0.68876 0.82177 0.31655 0.0
H919 H 0.5992 0.79684 0.41584 0.0
H920 H 0.63414 0.81709 0.38822 0.0
H921 H 0.62978 0.79208 0.30508 0.0
H922 H 0.73501 0.86334 0.2445 0.0
H923 H 0.7 0.84893 0.27195 0.0
C924 C 0.16067 0.88264 0.25045 0.0
C925 C 0.15519 0.89956 0.2595 0.0
C926 C 0.16851 0.87173 0.26813 0.0
C927 C 0.1696 0.85624 0.33755 0.0
H928 H 0.22799 0.85884 0.31824 0.0
C929 C 0.22063 0.83265 0.41234 0.0
C930 C 0.23374 0.8225 0.40321 0.0
C931 C 0.20973 0.84033 0.39445 0.0
C932 C 0.21145 0.8575 0.32375 0.0
H933 H 0.15269 0.91755 0.29448 0.0
H934 H 0.16604 0.89793 0.3257 0.0
H935 H 0.21086 0.87538 0.28835 0.0
H936 H 0.24523 0.81193 0.36803 0.0
H937 H 0.2254 0.82462 0.33652 0.0
H938 H 0.16974 0.8379 0.37262 0.0
C939 C 0.16437 0.89337 0.30474 0.0
C940 C 0.20174 0.86715 0.30669 0.0
C941 C 0.15674 0.90457 0.28692 0.0
C942 C 0.23529 0.81974 0.37565 0.0
C943 C 0.22406 0.82718 0.35763 0.0
C944 C 0.1791 0.84625 0.35445 0.0
C945 C 0.17082 0.87724 0.29535 0.0
C946 C 0.18083 0.86677 0.31352 0.0
C947 C 0.2113 0.83779 0.36683 0.0
C948 C 0.20031 0.84698 0.34794 0.0
H949 H 0.15957 0.87822 0.22949 0.0
H950 H 0.17305 0.85913 0.26044 0.0
H951 H 0.1533 0.85547 0.34309 0.0
H952 H 0.21922 0.83528 0.43344 0.0
H953 H 0.20059 0.84886 0.40238 0.0
C954 C 0.41108 0.15485 0.60296 0.0
C955 C 0.41196 0.16601 0.57877 0.0
C956 C 0.39098 0.1458 0.61911 0.0
C957 C 0.3394 0.15218 0.63277 0.0
H958 H 0.3111 0.08904 0.66107 0.0
C959 C 0.26624 0.11594 0.7122 0.0
C960 C 0.2479 0.09267 0.70964 0.0
C961 C 0.28529 0.12506 0.69471 0.0
C962 C 0.31871 0.10663 0.65307 0.0
H963 H 0.3927 0.17683 0.5528 0.0
H964 H 0.35808 0.16136 0.58086 0.0
H965 H 0.34743 0.10492 0.63506 0.0
H966 H 0.23465 0.06093 0.68615 0.0
H967 H 0.26816 0.07695 0.65542 0.0
H968 H 0.31078 0.15396 0.65066 0.0
C969 C 0.37277 0.15953 0.58745 0.0
C970 C 0.33965 0.11581 0.63854 0.0
C971 C 0.39261 0.16828 0.57129 0.0
C972 C 0.24846 0.07899 0.68846 0.0
C973 C 0.26774 0.08805 0.6711 0.0
C974 C 0.31863 0.1431 0.64745 0.0
C975 C 0.37164 0.14812 0.61147 0.0
C976 C 0.35015 0.13865 0.62814 0.0
C977 C 0.28656 0.11104 0.67442 0.0
C978 C 0.30802 0.12021 0.65773 0.0
H979 H 0.42571 0.15278 0.60916 0.0
H980 H 0.3906 0.13717 0.63764 0.0
H981 H 0.34716 0.1699 0.62513 0.0
H982 H 0.2663 0.12687 0.72838 0.0
H983 H 0.29955 0.14278 0.69788 0.0
C984 C 0.82092 0.23435 0.6227 0.0
C985 C 0.82379 0.23371 0.59499 0.0
C986 C 0.82877 0.22293 0.63995 0.0
C987 C 0.87253 0.20442 0.64382 0.0
H988 H 0.83302 0.16051 0.69813 0.0
C989 C 0.90511 0.15248 0.7054 0.0
C990 C 0.89984 0.15019 0.73275 0.0
C991 C 0.89403 0.1605 0.68794 0.0
C992 C 0.84441 0.17293 0.68328 0.0
H993 H 0.83689 0.22035 0.56371 0.0
H994 H 0.85072 0.20101 0.59365 0.0
H995 H 0.81761 0.18026 0.67045 0.0
H996 H 0.87807 0.15356 0.76303 0.0
H997 H 0.85945 0.16804 0.73302 0.0
H998 H 0.89957 0.19782 0.65688 0.0
C999 C 0.84245 0.21024 0.60207 0.0
C1000 C 0.83553 0.18421 0.66746 0.0
C1001 C 0.83437 0.22127 0.58494 0.0
C1002 C 0.8826 0.15513 0.74206 0.0
C1003 C 0.87174 0.16332 0.72474 0.0
C1004 C 0.88152 0.19342 0.65982 0.0
C1005 C 0.83993 0.21109 0.62972 0.0
C1006 C 0.84949 0.19996 0.64751 0.0
C1007 C 0.8776 0.16656 0.69753 0.0
C1008 C 0.86758 0.17746 0.67973 0.0
H1009 H 0.81284 0.24379 0.63101 0.0
H1010 H 0.82668 0.22385 0.66127 0.0
H1011 H 0.88372 0.21667 0.62868 0.0
H1012 H 0.91827 0.14876 0.6976 0.0
H1013 H 0.89865 0.16231 0.667 0.0
C1014 C 0.8615 0.73655 0.72013 0.0
C1015 C 0.85058 0.75019 0.72162 0.0
C1016 C 0.85214 0.71661 0.70401 0.0
C1017 C 0.7984 0.6687 0.68681 0.0
H1018 H 0.82658 0.65774 0.62461 0.0
C1019 C 0.74967 0.58439 0.62344 0.0
C1020 C 0.763 0.57717 0.60856 0.0
C1021 C 0.76081 0.60495 0.63857 0.0
C1022 C 0.81864 0.66024 0.64229 0.0
H1023 H 0.82192 0.75429 0.70676 0.0
H1024 H 0.80511 0.71886 0.67909 0.0
H1025 H 0.84604 0.69613 0.646 0.0
H1026 H 0.79814 0.58441 0.5994 0.0
H1027 H 0.81762 0.61925 0.6273 0.0
H1028 H 0.7716 0.63274 0.68423 0.0
C1029 C 0.82112 0.72395 0.69008 0.0
C1030 C 0.82969 0.68236 0.65424 0.0
C1031 C 0.83083 0.74425 0.7057 0.0
C1032 C 0.78752 0.58973 0.61068 0.0
C1033 C 0.79865 0.60991 0.62634 0.0
C1034 C 0.78758 0.64641 0.67527 0.0
C1035 C 0.83144 0.70976 0.68967 0.0
C1036 C 0.81953 0.68674 0.67641 0.0
C1037 C 0.7855 0.61841 0.63956 0.0
C1038 C 0.79748 0.64186 0.65275 0.0
H1039 H 0.87666 0.74073 0.73236 0.0
H1040 H 0.86028 0.70581 0.70395 0.0
H1041 H 0.79051 0.67174 0.70422 0.0
H1042 H 0.73073 0.57518 0.6218 0.0
H1043 H 0.74999 0.6109 0.64819 0.0
C1044 C 0.94769 0.45343 0.07365 0.0
C1045 C 0.92528 0.43707 0.0641 0.0
C1046 C 0.96689 0.46397 0.05644 0.0
C1047 C 0.98664 0.45486 0.99058 0.0
H1048 H 0.03934 0.51711 0.00373 0.0
C1049 C 0.06387 0.50132 0.91771 0.0
C1050 C 0.0865 0.51012 0.92843 0.0
C1051 C 0.04443 0.49376 0.93433 0.0
C1052 C 0.0248 0.49965 -0.0 0.0
H1053 H 0.90524 0.41986 0.02866 0.0
H1054 H 0.93868 0.43901 -0.00177 0.0
H1055 H 0.00399 0.50236 0.03106 0.0
H1056 H 0.10651 0.5185 0.9651 0.0
H1057 H 0.07221 0.50562 0.99441 0.0
H1058 H 0.00735 0.45253 0.95903 0.0
C1059 C 0.94154 0.44314 0.01927 0.0
C1060 C 0.00452 0.49113 0.01564 0.0
C1061 C 0.92229 0.43233 0.03664 0.0
C1062 C 0.08931 0.5118 0.95627 0.0
C1063 C 0.06974 0.5045 0.973 0.0
C1064 C 0.00674 0.46353 0.97472 0.0
C1065 C 0.96421 0.45872 0.02906 0.0
C1066 C 0.98521 0.46852 0.01128 0.0
C1067 C 0.0471 0.49506 0.9621 0.0
C1068 C 0.02605 0.48594 0.97936 0.0
H1069 H 0.9507 0.4575 0.09471 0.0
H1070 H 0.984 0.47553 0.06491 0.0
H1071 H 0.97244 0.43721 0.98694 0.0
H1072 H 0.061 0.49976 0.89637 0.0
H1073 H 0.02722 0.48681 0.92542 0.0
C1074 C 0.51735 0.57645 0.91534 0.0
C1075 C 0.50252 0.58424 0.92544 0.0
C1076 C 0.52588 0.56543 0.93188 0.0
C1077 C 0.53437 0.55536 0.00264 0.0
H1078 H 0.53925 0.50358 0.97273 0.0
C1079 C 0.55369 0.49543 0.0676 0.0
C1080 C 0.57213 0.492 0.05909 0.0
C1081 C 0.54442 0.50551 0.05068 0.0
C1082 C 0.53813 0.51811 0.98125 0.0
H1083 H 0.4853 0.58708 0.96089 0.0
H1084 H 0.49973 0.56712 0.98997 0.0
H1085 H 0.52439 0.52387 0.94529 0.0
H1086 H 0.59453 0.4954 0.02564 0.0
H1087 H 0.57793 0.51282 0.99569 0.0
H1088 H 0.54769 0.54916 0.03879 0.0
C1089 C 0.5051 0.56992 0.96925 0.0
C1090 C 0.5297 0.52982 0.96556 0.0
C1091 C 0.49678 0.58129 0.95266 0.0
C1092 C 0.5803 0.49777 0.03273 0.0
C1093 C 0.57084 0.50776 0.01564 0.0
C1094 C 0.54256 0.54347 0.0184 0.0
C1095 C 0.51953 0.56158 0.95893 0.0
C1096 C 0.52785 0.54871 0.976 0.0
C1097 C 0.55323 0.51226 0.02476 0.0
C1098 C 0.54458 0.52478 0.00784 0.0
H1099 H 0.5224 0.57882 0.8945 0.0
H1100 H 0.53748 0.55992 0.92336 0.0
H1101 H 0.53356 0.57003 0.01123 0.0
H1102 H 0.54681 0.49098 0.0877 0.0
H1103 H 0.53055 0.50836 0.05804 0.0
C1104 C 0.48469 0.06156 0.08847 0.0
C1105 C 0.49771 0.08418 0.07763 0.0
C1106 C 0.47549 0.04184 0.07206 0.0
C1107 C 0.46186 0.02288 0.00139 0.0
H1108 H 0.46216 0.96756 0.02751 0.0
C1109 C 0.4464 0.94709 0.93255 0.0
C1110 C 0.42936 0.9244 0.9406 0.0
C1111 C 0.45453 0.96589 0.95017 0.0
C1112 C 0.46178 0.98282 0.0201 0.0
H1113 H 0.51114 0.10397 0.04107 0.0
H1114 H 0.4957 0.06945 0.01229 0.0
H1115 H 0.47688 0.00221 0.05585 0.0
H1116 H 0.40824 0.90349 0.97391 0.0
H1117 H 0.42295 0.9366 0.00513 0.0
H1118 H 0.4474 0.00359 0.96532 0.0
C1119 C 0.49212 0.06693 0.03348 0.0
C1120 C 0.47013 0.00267 0.03631 0.0
C1121 C 0.50108 0.08673 0.04993 0.0
C1122 C 0.42139 0.92075 0.96714 0.0
C1123 C 0.42977 0.93967 0.98496 0.0
C1124 C 0.45379 0.00314 0.98509 0.0
C1125 C 0.47935 0.0442 0.04439 0.0
C1126 C 0.47032 0.023 0.02715 0.0
C1127 C 0.44602 0.96248 0.97638 0.0
C1128 C 0.45376 0.98296 0.99424 0.0
H1129 H 0.48152 0.05902 0.10974 0.0
H1130 H 0.46528 0.02473 0.08115 0.0
H1131 H 0.46126 0.03797 0.99382 0.0
H1132 H 0.45308 0.95055 0.91231 0.0
H1133 H 0.46736 0.98322 0.94318 0.0
C1134 C 0.04982 0.17685 0.09047 0.0
C1135 C 0.03124 0.16777 0.10888 0.0
C1136 C 0.04545 0.17202 0.06331 0.0
C1137 C 0.99945 0.13346 0.01472 0.0
H1138 H 0.03485 0.18564 0.96662 0.0
C1139 C 0.96934 0.13853 0.90829 0.0
C1140 C 0.98633 0.14726 0.88797 0.0
C1141 C 0.97588 0.13871 0.93477 0.0
C1142 C 0.02507 0.1708 0.97974 0.0
H1143 H 0.9936 0.14614 0.11353 0.0
H1144 H 0.98579 0.13815 0.06599 0.0
H1145 H 0.04418 0.19024 0.01395 0.0
H1146 H 0.02339 0.16255 0.87924 0.0
H1147 H 0.03493 0.16309 0.9258 0.0
H1148 H 0.97975 0.11439 0.98041 0.0
C1149 C 0.00382 0.1486 0.0725 0.0
C1150 C 0.03043 0.17339 0.0069 0.0
C1151 C 0.00824 0.15323 0.09973 0.0
C1152 C 0.00996 0.1557 0.89455 0.0
C1153 C 0.01655 0.15612 0.92114 0.0
C1154 C 0.99396 0.13095 0.98757 0.0
C1155 C 0.02236 0.15821 0.05391 0.0
C1156 C 0.01754 0.15483 0.02479 0.0
C1157 C 0.99958 0.14779 0.94151 0.0
C1158 C 0.00656 0.14969 0.96988 0.0
H1159 H 0.06777 0.18779 0.09709 0.0
H1160 H 0.06019 0.17928 0.04967 0.0
H1161 H 0.98944 0.11867 0.02783 0.0
H1162 H 0.95096 0.13166 0.9037 0.0
H1163 H 0.96246 0.13236 0.95008 0.0
C1164 C 0.87155 0.84767 0.90117 0.0
C1165 C 0.85289 0.8268 0.89081 0.0
C1166 C 0.87254 0.85271 0.92838 0.0
C1167 C 0.85133 0.82411 0.99333 0.0
H1168 H 0.86316 0.88498 0.01759 0.0
C1169 C 0.83195 0.86418 0.09216 0.0
C1170 C 0.84008 0.85507 0.11216 0.0
C1171 C 0.83743 0.86332 0.06546 0.0
C1172 C 0.85994 0.86795 0.01107 0.0
H1173 H 0.82029 0.79528 0.90083 0.0
H1174 H 0.82223 0.80396 0.94826 0.0
H1175 H 0.86447 0.87793 0.96987 0.0
H1176 H 0.86094 0.83867 0.12008 0.0
H1177 H 0.87049 0.83707 0.07319 0.0
H1178 H 0.84616 0.81388 0.03436 0.0
C1179 C 0.83623 0.81623 0.93538 0.0
C1180 C 0.86084 0.86397 0.98383 0.0
C1181 C 0.83514 0.81127 0.90821 0.0
C1182 C 0.85449 0.84583 0.10504 0.0
C1183 C 0.85981 0.84479 0.07826 0.0
C1184 C 0.85062 0.82814 0.02054 0.0
C1185 C 0.855 0.83691 0.94576 0.0
C1186 C 0.85606 0.84186 0.97468 0.0
C1187 C 0.85103 0.85321 0.05819 0.0
C1188 C 0.85448 0.84995 0.02965 0.0
H1189 H 0.88569 0.85985 0.88839 0.0
H1190 H 0.88727 0.86872 0.93592 0.0
H1191 H 0.84786 0.80698 0.98682 0.0
H1192 H 0.82106 0.87168 0.09715 0.0
H1193 H 0.83025 0.86977 0.05042 0.0
C1194 C 0.18774 0.01973 0.89566 0.0
C1195 C 0.17178 0.02214 0.8792 0.0
C1196 C 0.18348 0.01558 0.92293 0.0
C1197 C 0.13697 0.99185 0.97311 0.0
H1198 H 0.18818 0.02734 0.02235 0.0
C1199 C 0.15693 0.00404 0.09391 0.0
C1200 C 0.14783 0.98047 0.10119 0.0
C1201 C 0.1578 0.01023 0.06709 0.0
C1202 C 0.17363 0.01748 0.0089 0.0
H1203 H 0.13863 0.02184 0.87866 0.0
H1204 H 0.13095 0.014 0.92633 0.0
H1205 H 0.19398 0.03604 0.97473 0.0
H1206 H 0.13139 0.94481 0.08639 0.0
H1207 H 0.1329 0.95561 0.0396 0.0
H1208 H 0.11676 0.973 0.0073 0.0
C1209 C 0.14679 0.01539 0.91795 0.0
C1210 C 0.17702 0.0223 0.98163 0.0
C1211 C 0.15116 0.01978 0.89065 0.0
C1212 C 0.13876 0.96315 0.08129 0.0
C1213 C 0.13941 0.9693 0.05455 0.0
C1214 C 0.13364 0.98688 0.00039 0.0
C1215 C 0.16304 0.01351 0.93439 0.0
C1216 C 0.15884 0.00933 0.96343 0.0
C1217 C 0.1493 0.99293 0.04712 0.0
C1218 C 0.15203 0.99947 0.01852 0.0
H1219 H 0.20355 0.02093 0.88746 0.0
H1220 H 0.19609 0.01374 0.93504 0.0
H1221 H 0.12268 0.98154 0.9595 0.0
H1222 H 0.16408 0.01774 0.10887 0.0
H1223 H 0.16537 0.02858 0.06192 0.0
C1224 C 0.62676 0.47083 0.24039 0.0
C1225 C 0.64177 0.47148 0.21999 0.0
C1226 C 0.63216 0.47015 0.26712 0.0
C1227 C 0.68244 0.48127 0.31108 0.0
H1228 H 0.63332 0.45851 0.36447 0.0
C1229 C 0.66789 0.4743 0.43393 0.0
C1230 C 0.68844 0.4951 0.44105 0.0
C1231 C 0.66269 0.46778 0.40718 0.0
C1232 C 0.64738 0.46454 0.35002 0.0
H1233 H 0.67388 0.47073 0.21217 0.0
H1234 H 0.68224 0.46757 0.25855 0.0
H1235 H 0.62291 0.45167 0.31795 0.0
H1236 H 0.72012 0.52473 0.425 0.0
H1237 H 0.71001 0.51474 0.37892 0.0
H1238 H 0.70689 0.49264 0.34318 0.0
C1239 C 0.66682 0.46878 0.25397 0.0
C1240 C 0.64135 0.46106 0.32305 0.0
C1241 C 0.66176 0.47017 0.22716 0.0
C1242 C 0.70375 0.50896 0.42058 0.0
C1243 C 0.6982 0.50283 0.39386 0.0
C1244 C 0.68846 0.48405 0.33807 0.0
C1245 C 0.65236 0.46927 0.27441 0.0
C1246 C 0.65878 0.47011 0.30312 0.0
C1247 C 0.67753 0.48219 0.38667 0.0
C1248 C 0.67106 0.47648 0.35798 0.0
H1249 H 0.61078 0.47103 0.23589 0.0
H1250 H 0.62066 0.47095 0.282 0.0
H1251 H 0.69651 0.48868 0.29659 0.0
H1252 H 0.65547 0.46316 0.44892 0.0
H1253 H 0.64688 0.45146 0.40271 0.0
C1254 C 0.54291 0.21926 0.42479 0.0
C1255 C 0.52625 0.22539 0.4328 0.0
C1256 C 0.55118 0.22315 0.39852 0.0
C1257 C 0.53172 0.22935 0.33163 0.0
H1258 H 0.59227 0.23821 0.31013 0.0
C1259 C 0.55117 0.22258 0.22178 0.0
C1260 C 0.55855 0.2062 0.21733 0.0
C1261 C 0.55213 0.23144 0.24737 0.0
C1262 C 0.57534 0.23586 0.31587 0.0
H1263 H 0.5065 0.242 0.42055 0.0
H1264 H 0.52152 0.24962 0.37497 0.0
H1265 H 0.58494 0.24234 0.35709 0.0
H1266 H 0.5745 0.18773 0.23556 0.0
H1267 H 0.5761 0.20311 0.28025 0.0
H1268 H 0.52194 0.22238 0.29062 0.0
C1269 C 0.52764 0.24106 0.38856 0.0
C1270 C 0.57109 0.23811 0.34276 0.0
C1271 C 0.51913 0.23684 0.41468 0.0
C1272 C 0.56845 0.20014 0.23852 0.0
C1273 C 0.56957 0.20912 0.26404 0.0
C1274 C 0.53605 0.22732 0.30482 0.0
C1275 C 0.54314 0.23352 0.37987 0.0
C1276 C 0.54901 0.23432 0.35106 0.0
C1277 C 0.56067 0.22423 0.26891 0.0
C1278 C 0.55769 0.23 0.29671 0.0
H1279 H 0.54854 0.21027 0.4384 0.0
H1280 H 0.56288 0.21686 0.39255 0.0
H1281 H 0.51435 0.22584 0.33721 0.0
H1282 H 0.54337 0.22749 0.20584 0.0
H1283 H 0.54535 0.24324 0.25051 0.0
C1284 C 0.83959 0.36906 0.23909 0.0
C1285 C 0.83186 0.35219 0.2187 0.0
C1286 C 0.83219 0.36245 0.26535 0.0
C1287 C 0.81263 0.31263 0.31005 0.0
H1288 H 0.79601 0.3487 0.35732 0.0
C1289 C 0.79109 0.2866 0.41976 0.0
C1290 C 0.80105 0.3049 0.43842 0.0
C1291 C 0.79077 0.29142 0.39273 0.0
C1292 C 0.80077 0.33854 0.34442 0.0
H1293 H 0.80993 0.31527 0.20964 0.0
H1294 H 0.79705 0.30363 0.25571 0.0
H1295 H 0.80312 0.35897 0.31006 0.0
H1296 H 0.81769 0.34245 0.44382 0.0
H1297 H 0.81783 0.35107 0.39641 0.0
H1298 H 0.81129 0.29278 0.34427 0.0
C1299 C 0.80888 0.32197 0.25131 0.0
C1300 C 0.80476 0.34438 0.31737 0.0
C1301 C 0.81613 0.32863 0.22498 0.0
C1302 C 0.80983 0.32806 0.42976 0.0
C1303 C 0.80981 0.33293 0.40262 0.0
C1304 C 0.80886 0.30691 0.33706 0.0
C1305 C 0.81703 0.33879 0.27178 0.0
C1306 C 0.81096 0.33161 0.29999 0.0
C1307 C 0.80073 0.31468 0.38371 0.0
C1308 C 0.80309 0.31992 0.35466 0.0
H1309 H 0.85147 0.3874 0.23475 0.0
H1310 H 0.8389 0.37576 0.28075 0.0
H1311 H 0.81775 0.30271 0.29721 0.0
H1312 H 0.78385 0.26855 0.42606 0.0
H1313 H 0.7831 0.2769 0.37883 0.0
C1314 C 0.34075 0.81817 0.77034 0.0
C1315 C 0.36393 0.83334 0.77851 0.0
C1316 C 0.3356 0.81245 0.74341 0.0
C1317 C 0.36014 0.83502 0.67641 0.0
H1318 H 0.30873 0.7751 0.65317 0.0
C1319 C 0.33605 0.81403 0.56538 0.0
C1320 C 0.31227 0.80571 0.5597 0.0
C1321 C 0.34345 0.81491 0.59169 0.0
C1322 C 0.32314 0.7919 0.65942 0.0
H1323 H 0.40006 0.85341 0.7653 0.0
H1324 H 0.39124 0.84296 0.7184 0.0
H1325 H 0.32003 0.78102 0.70014 0.0
H1326 H 0.27743 0.7907 0.57681 0.0
H1327 H 0.29033 0.79217 0.62278 0.0
H1328 H 0.36317 0.84586 0.63568 0.0
C1329 C 0.37689 0.83604 0.73257 0.0
C1330 C 0.32956 0.79536 0.68632 0.0
C1331 C 0.38198 0.84197 0.75943 0.0
C1332 C 0.29591 0.79744 0.58068 0.0
C1333 C 0.30325 0.79807 0.60693 0.0
C1334 C 0.35388 0.83147 0.64952 0.0
C1335 C 0.35358 0.82158 0.72412 0.0
C1336 C 0.3479 0.8171 0.69523 0.0
C1337 C 0.32714 0.80719 0.61274 0.0
C1338 C 0.33509 0.81002 0.64082 0.0
H1339 H 0.3265 0.81142 0.78465 0.0
H1340 H 0.31742 0.80155 0.73765 0.0
H1341 H 0.37405 0.85214 0.68254 0.0
H1342 H 0.34903 0.82057 0.54957 0.0
H1343 H 0.36195 0.82189 0.59563 0.0
C1344 C 0.23278 0.51494 0.57512 0.0
C1345 C 0.22019 0.52118 0.55757 0.0
C1346 C 0.23437 0.52062 0.60215 0.0
C1347 C 0.22177 0.55484 0.65233 0.0
H1348 H 0.2094 0.5026 0.69841 0.0
C1349 C 0.1804 0.54113 0.75683 0.0
C1350 C 0.18856 0.53237 0.77718 0.0
C1351 C 0.18886 0.54337 0.73082 0.0
C1352 C 0.21328 0.51753 0.68592 0.0
H1353 H 0.20039 0.53923 0.55418 0.0
H1354 H 0.20269 0.54876 0.60145 0.0
H1355 H 0.2166 0.50066 0.65122 0.0
H1356 H 0.21242 0.51965 0.78642 0.0
H1357 H 0.2272 0.5235 0.74082 0.0
H1358 H 0.21736 0.57119 0.68711 0.0
C1359 C 0.21175 0.53987 0.59436 0.0
C1360 C 0.21749 0.51647 0.65881 0.0
C1361 C 0.21037 0.53439 0.56725 0.0
C1362 C 0.20584 0.52649 0.77114 0.0
C1363 C 0.21419 0.52856 0.74504 0.0
C1364 C 0.2174 0.55583 0.67946 0.0
C1365 C 0.22316 0.53242 0.61229 0.0
C1366 C 0.22139 0.53493 0.64156 0.0
C1367 C 0.20558 0.53678 0.72456 0.0
C1368 C 0.21272 0.537 0.69644 0.0
H1369 H 0.24076 0.50499 0.56805 0.0
H1370 H 0.24378 0.5151 0.61526 0.0
H1371 H 0.22508 0.56953 0.63971 0.0
H1372 H 0.16733 0.54613 0.76098 0.0
H1373 H 0.18172 0.54955 0.71543 0.0
C1374 C 0.44665 0.62403 0.75191 0.0
C1375 C 0.46064 0.64215 0.76974 0.0
C1376 C 0.44645 0.62872 0.72481 0.0
C1377 C 0.46354 0.67638 0.67532 0.0
H1378 H 0.47202 0.63415 0.62876 0.0
C1379 C 0.50159 0.70176 0.5693 0.0
C1380 C 0.49247 0.68455 0.54926 0.0
C1381 C 0.49419 0.69598 0.59568 0.0
C1382 C 0.46923 0.64589 0.64137 0.0
H1383 H 0.48473 0.6795 0.77335 0.0
H1384 H 0.48449 0.68769 0.72599 0.0
H1385 H 0.46476 0.62521 0.67602 0.0
H1386 H 0.4681 0.64788 0.5411 0.0
H1387 H 0.45493 0.63783 0.58722 0.0
H1388 H 0.46861 0.69736 0.64064 0.0
C1389 C 0.47343 0.66991 0.73299 0.0
C1390 C 0.46505 0.64076 0.66849 0.0
C1391 C 0.47359 0.66523 0.76013 0.0
C1392 C 0.47539 0.66153 0.55609 0.0
C1393 C 0.46799 0.65575 0.58251 0.0
C1394 C 0.46772 0.68152 0.64816 0.0
C1395 C 0.46029 0.65161 0.71496 0.0
C1396 C 0.4625 0.65611 0.68583 0.0
C1397 C 0.47749 0.67287 0.60263 0.0
C1398 C 0.47097 0.6665 0.63097 0.0
H1399 H 0.4362 0.60614 0.75886 0.0
H1400 H 0.43581 0.61432 0.71147 0.0
H1401 H 0.46134 0.68839 0.68815 0.0
H1402 H 0.51448 0.71974 0.5646 0.0
H1403 H 0.50202 0.70953 0.61075 0.0
C1404 C 0.16469 0.03213 0.24942 0.0
C1405 C 0.14934 0.0079 0.24674 0.0
C1406 C 0.15611 0.04718 0.25524 0.0
C1407 C 0.10282 0.05094 0.24589 0.0
H1408 H 0.1393 0.10985 0.28333 0.0
C1409 C 0.07793 0.12387 0.24463 0.0
C1410 C 0.09663 0.14608 0.23761 0.0
C1411 C 0.08214 0.10568 0.25151 0.0
C1412 C 0.12888 0.09345 0.27285 0.0
H1413 H 0.11297 0.98034 0.24972 0.0
H1414 H 0.09794 0.00665 0.26023 0.0
H1415 H 0.15038 0.0797 0.28657 0.0
H1416 H 0.1344 0.16692 0.23349 0.0
H1417 H 0.14177 0.13532 0.24542 0.0
H1418 H 0.08168 0.06499 0.23166 0.0
C1419 C 0.11665 0.01402 0.25743 0.0
C1420 C 0.13524 0.07617 0.27468 0.0
C1421 C 0.12529 0.99889 0.25166 0.0
C1422 C 0.11963 0.14994 0.2385 0.0
C1423 C 0.12386 0.13189 0.24564 0.0
C1424 C 0.09638 0.06819 0.2442 0.0
C1425 C 0.13191 0.03843 0.25855 0.0
C1426 C 0.12275 0.05499 0.26052 0.0
C1427 C 0.10516 0.10946 0.25186 0.0
C1428 C 0.10979 0.08991 0.25699 0.0
H1429 H 0.18334 0.03966 0.24588 0.0
H1430 H 0.1684 0.06585 0.25564 0.0
H1431 H 0.09293 0.03499 0.23448 0.0
H1432 H 0.06001 0.12033 0.24397 0.0
H1433 H 0.06739 0.08861 0.25631 0.0
C1434 C 0.96961 0.12759 0.25245 0.0
C1435 C 0.99405 0.13702 0.2523 0.0
C1436 C 0.95461 0.10406 0.25869 0.0
C1437 C 0.95286 0.04779 0.2546 0.0
H1438 H 0.89111 0.02497 0.28548 0.0
C1439 C 0.88025 0.95006 0.24939 0.0
C1440 C 0.85907 0.94687 0.23883 0.0
C1441 C 0.89775 0.97227 0.25782 0.0
C1442 C 0.90834 0.03107 0.27693 0.0
H1443 H 0.02195 0.12943 0.26027 0.0
H1444 H 0.99569 0.08821 0.27137 0.0
H1445 H 0.92068 0.06635 0.28962 0.0
H1446 H 0.83911 0.96405 0.23001 0.0
H1447 H 0.86949 0.00272 0.24472 0.0
H1448 H 0.94021 0.01259 0.24123 0.0
C1449 C 0.98816 0.09904 0.26631 0.0
C1450 C 0.92527 0.05476 0.27925 0.0
C1451 C 0.00322 0.12271 0.26014 0.0
C1452 C 0.85537 0.96607 0.23779 0.0
C1453 C 0.87267 0.98814 0.2465 0.0
C1454 C 0.93595 0.02404 0.25243 0.0
C1455 C 0.96366 0.08931 0.26495 0.0
C1456 C 0.94744 0.06358 0.26724 0.0
C1457 C 0.89419 0.99158 0.25623 0.0
C1458 C 0.91326 0.01563 0.26274 0.0
H1459 H 0.96195 0.13816 0.24666 0.0
H1460 H 0.93588 0.09719 0.25711 0.0
H1461 H 0.96966 0.05398 0.24489 0.0
H1462 H 0.8836 0.93556 0.25028 0.0
H1463 H 0.91415 0.97441 0.26529 0.0
C1464 C 0.88051 0.87638 0.26104 0.0
C1465 C 0.86544 0.85242 0.25592 0.0
C1466 C 0.90455 0.88513 0.2651 0.0
C1467 C 0.94952 0.86673 0.27528 0.0
H1468 H 0.98885 0.92166 0.23244 0.0
C1469 C 0.03644 0.88448 0.22785 0.0
C1470 C 0.05561 0.90744 0.22809 0.0
C1471 C 0.01453 0.87974 0.23735 0.0
C1472 C 0.9782 0.90654 0.24488 0.0
H1473 H 0.86347 0.81861 0.25319 0.0
H1474 H 0.90503 0.83373 0.2598 0.0
H1475 H 0.9478 0.90995 0.23964 0.0
H1476 H 0.06692 0.94345 0.23865 0.0
H1477 H 0.02838 0.9352 0.25493 0.0
H1478 H 0.97973 0.86267 0.27917 0.0
C1479 C 0.89852 0.8459 0.26092 0.0
C1480 C 0.95465 0.89985 0.24913 0.0
C1481 C 0.87459 0.8372 0.2569 0.0
C1482 C 0.05248 0.92556 0.23839 0.0
C1483 C 0.03044 0.92087 0.24755 0.0
C1484 C 0.97299 0.87328 0.27079 0.0
C1485 C 0.91396 0.87007 0.26419 0.0
C1486 C 0.93981 0.87945 0.26374 0.0
C1487 C 0.01121 0.89791 0.24701 0.0
C1488 C 0.98739 0.89289 0.25495 0.0
H1489 H 0.87404 0.88859 0.26047 0.0
H1490 H 0.91586 0.90379 0.26803 0.0
H1491 H 0.93878 0.85123 0.28713 0.0
H1492 H 0.03841 0.87016 0.22027 0.0
H1493 H 0.99999 0.86191 0.2364 0.0
C1494 C 0.03243 0.15887 0.73834 0.0
C1495 C 0.00817 0.14394 0.74165 0.0
C1496 C 0.04703 0.14979 0.73225 0.0
C1497 C 0.04962 0.09593 0.74182 0.0
H1498 H 0.10857 0.13149 0.70394 0.0
C1499 C 0.12201 0.07014 0.74316 0.0
C1500 C 0.14415 0.08871 0.75063 0.0
C1501 C 0.10394 0.07448 0.73606 0.0
C1502 C 0.09213 0.12132 0.7145 0.0
H1503 H 0.97999 0.10782 0.73936 0.0
H1504 H 0.00551 0.09193 0.72834 0.0
H1505 H 0.07877 0.1431 0.70065 0.0
H1506 H 0.16503 0.12636 0.75533 0.0
H1507 H 0.13364 0.13397 0.74287 0.0
H1508 H 0.0633 0.0745 0.75615 0.0
C1509 C 0.01327 0.11068 0.73092 0.0
C1510 C 0.07506 0.12797 0.71267 0.0
C1511 C 0.99861 0.11981 0.737 0.0
C1512 C 0.14809 0.11171 0.74994 0.0
C1513 C 0.13018 0.11607 0.74253 0.0
C1514 C 0.06664 0.08917 0.74348 0.0
C1515 C 0.03776 0.12551 0.72924 0.0
C1516 C 0.05392 0.11587 0.72706 0.0
C1517 C 0.1078 0.09749 0.73588 0.0
C1518 C 0.08837 0.10226 0.73055 0.0
H1519 H 0.04038 0.17756 0.74164 0.0
H1520 H 0.06577 0.16178 0.73142 0.0
H1521 H 0.03369 0.08633 0.75341 0.0
H1522 H 0.11846 0.05223 0.74366 0.0
H1523 H 0.08689 0.05983 0.73096 0.0
C1524 C 0.91114 0.04594 0.746 0.0
C1525 C 0.91132 0.05182 0.77299 0.0
C1526 C 0.90649 0.02346 0.73879 0.0
C1527 C 0.9073 0.97165 0.76502 0.0
H1528 H 0.85815 0.93612 0.71356 0.0
C1529 C 0.83787 0.86987 0.74583 0.0
C1530 C 0.85255 0.86013 0.74797 0.0
C1531 C 0.84739 0.89399 0.74234 0.0
C1532 C 0.87205 0.9459 0.7278 0.0
H1533 H 0.90754 0.03908 0.81355 0.0
H1534 H 0.89956 1.00002 0.80104 0.0
H1535 H 0.87099 0.97753 0.7212 0.0
H1536 H 0.88871 0.86796 0.74641 0.0
H1537 H 0.90533 0.91008 0.74034 0.0
H1538 H 0.90783 0.93995 0.77243 0.0
C1539 C 0.90292 0.01269 0.78544 0.0
C1540 C 0.87949 0.96961 0.73204 0.0
C1541 C 0.90723 0.03497 0.7926 0.0
C1542 C 0.87689 0.87485 0.74481 0.0
C1543 C 0.88644 0.89903 0.74154 0.0
C1544 C 0.90003 0.94805 0.76061 0.0
C1545 C 0.90237 0.00664 0.75847 0.0
C1546 C 0.89673 0.98253 0.75124 0.0
C1547 C 0.87183 0.90893 0.7411 0.0
C1548 C 0.8819 0.93474 0.74246 0.0
H1549 H 0.91412 0.05856 0.73049 0.0
H1550 H 0.90622 0.01926 0.71786 0.0
H1551 H 0.92079 0.98125 0.77974 0.0
H1552 H 0.81904 0.85899 0.74806 0.0
H1553 H 0.83565 0.90106 0.74226 0.0
C1554 C 0.12099 0.99531 0.73052 0.0
C1555 C 0.13581 0.98642 0.73722 0.0
C1556 C 0.09704 0.98005 0.72591 0.0
C1557 C 0.05242 0.91687 0.71553 0.0
H1558 H 0.01154 0.93257 0.75525 0.0
C1559 C 0.96458 0.84786 0.76041 0.0
C1560 C 0.94537 0.8516 0.75973 0.0
C1561 C 0.98654 0.86498 0.7511 0.0
C1562 C 0.02262 0.92809 0.74362 0.0
H1563 H 0.13743 0.95458 0.74252 0.0
H1564 H 0.09598 0.92818 0.73483 0.0
H1565 H 0.05283 0.96188 0.74966 0.0
H1566 H 0.93396 0.87605 0.74838 0.0
H1567 H 0.97263 0.90631 0.73234 0.0
H1568 H 0.02239 0.88266 0.71077 0.0
C1569 C 0.10267 0.94684 0.73291 0.0
C1570 C 0.04631 0.94491 0.74033 0.0
C1571 C 0.12649 0.96203 0.73756 0.0
C1572 C 0.94846 0.87267 0.74899 0.0
C1573 C 0.97057 0.89 0.73998 0.0
C1574 C 0.0288 0.90002 0.71899 0.0
C1575 C 0.08749 0.95562 0.72776 0.0
C1576 C 0.06167 0.93927 0.72698 0.0
C1577 C 0.98988 0.88638 0.74114 0.0
C1578 C 0.01382 0.90524 0.73376 0.0
H1579 H 0.1276 0.014 0.73005 0.0
H1580 H 0.08589 0.98739 0.72164 0.0
H1581 H 0.06362 0.91209 0.70462 0.0
H1582 H 0.96264 0.8317 0.76833 0.0
H1583 H 1.00113 0.86177 0.75254 0.0
C1584 C 0.82206 0.36057 0.58662 0.0
C1585 C 0.80702 0.33629 0.58389 0.0
C1586 C 0.81317 0.37526 0.59293 0.0
C1587 C 0.75921 0.3779 0.5845 0.0
H1588 H 0.7963 0.43781 0.61981 0.0
C1589 C 0.73535 0.45164 0.58019 0.0
C1590 C 0.75407 0.47309 0.57117 0.0
C1591 C 0.7393 0.43353 0.58828 0.0
C1592 C 0.78567 0.42109 0.61001 0.0
H1593 H 0.77096 0.30822 0.5875 0.0
H1594 H 0.75534 0.33393 0.59887 0.0
H1595 H 0.80737 0.40771 0.6241 0.0
H1596 H 0.79161 0.49281 0.56474 0.0
H1597 H 0.79858 0.46142 0.57906 0.0
H1598 H 0.73787 0.39161 0.56991 0.0
C1599 C 0.77404 0.34161 0.59571 0.0
C1600 C 0.79203 0.40385 0.61241 0.0
C1601 C 0.78301 0.32683 0.58944 0.0
C1602 C 0.77686 0.47639 0.57136 0.0
C1603 C 0.78086 0.4585 0.57981 0.0
C1604 C 0.75273 0.39509 0.58232 0.0
C1605 C 0.78895 0.36609 0.59673 0.0
C1606 C 0.77943 0.38237 0.59883 0.0
C1607 C 0.76209 0.43674 0.58797 0.0
C1608 C 0.7664 0.41717 0.59425 0.0
H1609 H 0.84067 0.36842 0.58262 0.0
H1610 H 0.82522 0.39398 0.59322 0.0
H1611 H 0.7492 0.36169 0.57356 0.0
H1612 H 0.71758 0.4486 0.58009 0.0
H1613 H 0.72452 0.41696 0.59451 0.0
C1614 C 0.66149 0.4532 0.59144 0.0
C1615 C 0.6532 0.46829 0.58379 0.0
C1616 C 0.64567 0.42974 0.59768 0.0
C1617 C 0.58263 0.38725 0.61153 0.0
H1618 H 0.59474 0.34429 0.57096 0.0
C1619 C 0.50941 0.29779 0.57423 0.0
C1620 C 0.51383 0.27908 0.57186 0.0
C1621 C 0.52704 0.31985 0.58267 0.0
C1622 C 0.59123 0.35589 0.58292 0.0
H1623 H 0.62201 0.47115 0.57862 0.0
H1624 H 0.59457 0.43045 0.58937 0.0
H1625 H 0.62507 0.38521 0.57446 0.0
H1626 H 0.5402 0.26884 0.57762 0.0
H1627 H 0.57069 0.30711 0.59285 0.0
H1628 H 0.54842 0.358 0.61914 0.0
C1629 C 0.61319 0.43659 0.59065 0.0
C1630 C 0.60868 0.3794 0.58496 0.0
C1631 C 0.62894 0.45991 0.58427 0.0
C1632 C 0.53603 0.28272 0.57933 0.0
C1633 C 0.55365 0.30478 0.58781 0.0
C1634 C 0.56517 0.36369 0.60953 0.0
C1635 C 0.62132 0.42103 0.5966 0.0
C1636 C 0.60435 0.39549 0.59862 0.0
C1637 C 0.54954 0.32375 0.58901 0.0
C1638 C 0.56903 0.34788 0.59455 0.0
H1639 H 0.68008 0.45912 0.59126 0.0
H1640 H 0.65248 0.41822 0.60248 0.0
H1641 H 0.57889 0.39916 0.62255 0.0
H1642 H 0.49245 0.29552 0.56901 0.0
H1643 H 0.52329 0.3341 0.58312 0.0
C1644 C 0.71026 0.24963 0.5671 0.0
C1645 C 0.71592 0.23187 0.56365 0.0
C1646 C 0.68736 0.244 0.57373 0.0
C1647 C 0.62619 0.19378 0.57157 0.0
H1648 H 0.61276 0.23582 0.61222 0.0
C1649 C 0.53133 0.17124 0.59344 0.0
C1650 C 0.52637 0.18863 0.58496 0.0
C1651 C 0.55459 0.17632 0.59603 0.0
C1652 C 0.61629 0.2239 0.60091 0.0
H1653 H 0.70252 0.19451 0.56587 0.0
H1654 H 0.66283 0.18463 0.5784 0.0
H1655 H 0.65336 0.24479 0.60699 0.0
H1656 H 0.54181 0.22536 0.57442 0.0
H1657 H 0.58233 0.23426 0.57934 0.0
H1658 H 0.58912 0.1729 0.5656 0.0
C1659 C 0.67572 0.20286 0.57501 0.0
C1660 C 0.63955 0.22909 0.59772 0.0
C1661 C 0.69849 0.20848 0.56794 0.0
C1662 C 0.54507 0.21155 0.58086 0.0
C1663 C 0.56829 0.21669 0.5838 0.0
C1664 C 0.60298 0.18845 0.57508 0.0
C1665 C 0.66968 0.22049 0.57749 0.0
C1666 C 0.64486 0.21427 0.58265 0.0
C1667 C 0.57329 0.19896 0.59059 0.0
C1668 C 0.59779 0.2036 0.58944 0.0
H1669 H 0.72335 0.2678 0.56371 0.0
H1670 H 0.68341 0.25807 0.57503 0.0
H1671 H 0.62946 0.18216 0.55936 0.0
H1672 H 0.51732 0.15341 0.59668 0.0
H1673 H 0.55797 0.16238 0.60152 0.0
C1674 C 0.79844 0.42657 0.12078 0.0
C1675 C 0.81147 0.4226 0.10137 0.0
C1676 C 0.77954 0.4294 0.11348 0.0
C1677 C 0.7572 0.44907 0.05897 0.0
H1678 H 0.70044 0.42134 0.10175 0.0
C1679 C 0.6649 0.45125 0.07515 0.0
C1680 C 0.67471 0.47563 0.07765 0.0
C1681 C 0.67938 0.44156 0.07119 0.0
C1682 C 0.71595 0.4289 0.08924 0.0
H1683 H 0.81481 0.41835 0.05904 0.0
H1684 H 0.78179 0.42366 0.04614 0.0
H1685 H 0.72981 0.40967 0.10911 0.0
H1686 H 0.70704 0.50903 0.07578 0.0
H1687 H 0.7322 0.49224 0.06859 0.0
H1688 H 0.7437 0.46898 0.0398 0.0
C1689 C 0.78624 0.42446 0.06705 0.0
C1690 C 0.73289 0.4224 0.09367 0.0
C1691 C 0.80503 0.42131 0.07442 0.0
C1692 C 0.69899 0.49017 0.07402 0.0
C1693 C 0.71341 0.48054 0.06975 0.0
C1694 C 0.74032 0.45574 0.05469 0.0
C1695 C 0.7733 0.42853 0.08654 0.0
C1696 C 0.75397 0.43288 0.0791 0.0
C1697 C 0.70388 0.45611 0.0693 0.0
C1698 C 0.71979 0.44617 0.07027 0.0
H1699 H 0.80277 0.42735 0.14171 0.0
H1700 H 0.7701 0.43278 0.12894 0.0
H1701 H 0.7733 0.4575 0.04748 0.0
H1702 H 0.64627 0.4396 0.07805 0.0
H1703 H 0.67153 0.42267 0.07071 0.0
C1704 C 0.55093 0.21587 0.06197 0.0
C1705 C 0.52719 0.19845 0.06328 0.0
C1706 C 0.55731 0.2394 0.05898 0.0
C1707 C 0.53358 0.27992 0.04715 0.0
H1708 H 0.58544 0.3209 0.09309 0.0
C1709 C 0.54832 0.36798 0.09011 0.0
C1710 C 0.57141 0.38698 0.09032 0.0
C1711 C 0.54367 0.34578 0.08185 0.0
C1712 C 0.57113 0.30978 0.07987 0.0
H1713 H 0.49148 0.19171 0.06117 0.0
H1714 H 0.50248 0.23278 0.05689 0.0
H1715 H 0.57611 0.28064 0.08672 0.0
H1716 H 0.60771 0.39769 0.08176 0.0
H1717 H 0.59963 0.35886 0.06758 0.0
H1718 H 0.52804 0.30911 0.04162 0.0
C1719 C 0.51629 0.2284 0.05745 0.0
C1720 C 0.56581 0.28666 0.07604 0.0
C1721 C 0.50992 0.20479 0.05992 0.0
C1722 C 0.58972 0.38344 0.0816 0.0
C1723 C 0.58512 0.3612 0.07367 0.0
C1724 C 0.53874 0.30304 0.05129 0.0
C1725 C 0.54008 0.24609 0.05788 0.0
C1726 C 0.54683 0.2713 0.05982 0.0
C1727 C 0.56208 0.34209 0.07398 0.0
C1728 C 0.55745 0.31812 0.06789 0.0
H1729 H 0.56459 0.21141 0.06425 0.0
H1730 H 0.5758 0.2524 0.05854 0.0
H1731 H 0.51907 0.26878 0.03421 0.0
H1732 H 0.53386 0.37026 0.09648 0.0
H1733 H 0.52577 0.33133 0.08249 0.0
C1734 C 0.79532 0.33635 0.07198 0.0
C1735 C 0.81115 0.32796 0.07401 0.0
C1736 C 0.77138 0.32076 0.06796 0.0
C1737 C 0.72741 0.25908 0.05057 0.0
H1738 H 0.68893 0.26767 0.10289 0.0
C1739 C 0.63659 0.18388 0.08402 0.0
C1740 C 0.61895 0.18923 0.09037 0.0
C1741 C 0.65933 0.20169 0.07773 0.0
C1742 C 0.69924 0.26515 0.08778 0.0
H1743 H 0.81459 0.29697 0.07111 0.0
H1744 H 0.77301 0.2699 0.06406 0.0
H1745 H 0.72979 0.29773 0.09743 0.0
H1746 H 0.61173 0.21787 0.09471 0.0
H1747 H 0.65092 0.24857 0.08304 0.0
H1748 H 0.69689 0.22621 0.04134 0.0
C1749 C 0.77897 0.28845 0.06561 0.0
C1750 C 0.72272 0.28247 0.08462 0.0
C1751 C 0.80283 0.30397 0.06979 0.0
C1752 C 0.6246 0.21286 0.08971 0.0
C1753 C 0.64728 0.23062 0.08331 0.0
C1754 C 0.70385 0.24177 0.05367 0.0
C1755 C 0.76284 0.29653 0.06567 0.0
C1756 C 0.73721 0.27947 0.06631 0.0
C1757 C 0.66502 0.22531 0.07755 0.0
C1758 C 0.68958 0.24441 0.07265 0.0
H1759 H 0.80111 0.35468 0.07519 0.0
H1760 H 0.75942 0.32757 0.0677 0.0
H1761 H 0.73806 0.25636 0.0361 0.0
H1762 H 0.63289 0.16593 0.08399 0.0
H1763 H 0.6726 0.19695 0.07368 0.0
C1764 C 0.41117 0.79557 0.91572 0.0
C1765 C 0.4304 0.818 0.91101 0.0
C1766 C 0.41467 0.7771 0.92312 0.0
C1767 C 0.45987 0.7594 0.91928 0.0
H1768 H 0.41338 0.7059 0.95945 0.0
C1769 C 0.46544 0.67556 0.92799 0.0
C1770 C 0.44547 0.65641 0.9168 0.0
C1771 C 0.46494 0.69577 0.93548 0.0
C1772 C 0.42661 0.72083 0.94843 0.0
H1773 H 0.46827 0.83908 0.91171 0.0
H1774 H 0.47451 0.80706 0.92552 0.0
H1775 H 0.41068 0.74152 0.95715 0.0
H1776 H 0.40855 0.6423 0.90784 0.0
H1777 H 0.4076 0.6773 0.92137 0.0
H1778 H 0.47559 0.73854 0.91037 0.0
C1779 C 0.4567 0.80346 0.92268 0.0
C1780 C 0.42499 0.74118 0.94689 0.0
C1781 C 0.45318 0.82184 0.91485 0.0
C1782 C 0.42437 0.65692 0.91593 0.0
C1783 C 0.42376 0.67692 0.92385 0.0
C1784 C 0.46167 0.73921 0.92119 0.0
C1785 C 0.43749 0.7807 0.92638 0.0
C1786 C 0.44115 0.76046 0.93154 0.0
C1787 C 0.44428 0.69689 0.93258 0.0
C1788 C 0.44468 0.71949 0.93509 0.0
H1789 H 0.39343 0.79206 0.9126 0.0
H1790 H 0.39942 0.75982 0.92521 0.0
H1791 H 0.47247 0.77364 0.90695 0.0
H1792 H 0.4818 0.6755 0.92966 0.0
H1793 H 0.48091 0.71085 0.94253 0.0
C1794 C 0.30344 0.79624 0.9215 0.0
C1795 C 0.32795 0.80621 0.92075 0.0
C1796 C 0.28894 0.77244 0.92693 0.0
C1797 C 0.28856 0.71702 0.91907 0.0
H1798 H 0.22742 0.69169 0.9524 0.0
C1799 C 0.21826 0.61844 0.91254 0.0
C1800 C 0.19622 0.61445 0.90396 0.0
C1801 C 0.23553 0.64082 0.92087 0.0
C1802 C 0.24446 0.69849 0.94308 0.0
H1803 H 0.35647 0.79916 0.92672 0.0
H1804 H 0.33112 0.75752 0.93642 0.0
H1805 H 0.2561 0.73327 0.95717 0.0
H1806 H 0.17462 0.63042 0.89865 0.0
H1807 H 0.2046 0.66931 0.91305 0.0
H1808 H 0.2766 0.68235 0.90429 0.0
C1809 C 0.32314 0.76816 0.9325 0.0
C1810 C 0.2609 0.72231 0.9458 0.0
C1811 C 0.3377 0.79209 0.92719 0.0
C1812 C 0.19152 0.63303 0.90482 0.0
C1813 C 0.20862 0.65525 0.91338 0.0
C1814 C 0.27214 0.69316 0.91644 0.0
C1815 C 0.29856 0.75792 0.9317 0.0
C1816 C 0.28286 0.73203 0.93306 0.0
C1817 C 0.23095 0.65952 0.92114 0.0
C1818 C 0.24963 0.6838 0.92768 0.0
H1819 H 0.29536 0.80664 0.91673 0.0
H1820 H 0.27013 0.76519 0.92584 0.0
H1821 H 0.3052 0.72393 0.90876 0.0
H1822 H 0.2224 0.60448 0.91197 0.0
H1823 H 0.25254 0.64356 0.92684 0.0
C1824 C 0.21706 0.54027 0.93125 0.0
C1825 C 0.20192 0.51728 0.92244 0.0
C1826 C 0.23993 0.54696 0.93953 0.0
C1827 C 0.28012 0.52325 0.95476 0.0
H1828 H 0.3269 0.58066 0.92089 0.0
C1829 C 0.36905 0.53883 0.91537 0.0
C1830 C 0.38872 0.56144 0.91699 0.0
C1831 C 0.34716 0.53441 0.92468 0.0
C1832 C 0.31415 0.5648 0.93096 0.0
H1833 H 0.19815 0.48285 0.9175 0.0
H1834 H 0.23767 0.49443 0.93135 0.0
H1835 H 0.28627 0.57156 0.9224 0.0
H1836 H 0.40099 0.5969 0.93094 0.0
H1837 H 0.36282 0.58919 0.94708 0.0
H1838 H 0.30797 0.5159 0.96171 0.0
C1839 C 0.23216 0.5074 0.93218 0.0
C1840 C 0.29079 0.5596 0.93193 0.0
C1841 C 0.20946 0.50077 0.92395 0.0
C1842 C 0.38629 0.57923 0.92955 0.0
C1843 C 0.36436 0.57488 0.93859 0.0
C1844 C 0.30345 0.52834 0.95351 0.0
C1845 C 0.24801 0.53076 0.93923 0.0
C1846 C 0.27331 0.53838 0.94306 0.0
C1847 C 0.34444 0.5526 0.93558 0.0
C1848 C 0.32058 0.54886 0.94092 0.0
H1849 H 0.21176 0.55339 0.93034 0.0
H1850 H 0.25154 0.56503 0.94523 0.0
H1851 H 0.26724 0.50699 0.96402 0.0
H1852 H 0.37043 0.52479 0.90591 0.0
H1853 H 0.33211 0.51708 0.92192 0.0
C1854 C 0.32893 0.78606 0.40861 0.0
C1855 C 0.33846 0.80978 0.41558 0.0
C1856 C 0.34367 0.77716 0.40191 0.0
C1857 C 0.40589 0.79498 0.38556 0.0
H1858 H 0.39254 0.73905 0.42508 0.0
C1859 C 0.47759 0.77713 0.42315 0.0
C1860 C 0.47378 0.75417 0.42305 0.0
C1861 C 0.45992 0.78166 0.41525 0.0
C1862 C 0.39633 0.75441 0.41345 0.0
H1863 H 0.3708 0.84306 0.41908 0.0
H1864 H 0.39634 0.82767 0.40762 0.0
H1865 H 0.36308 0.75113 0.42284 0.0
H1866 H 0.44863 0.71797 0.41397 0.0
H1867 H 0.41738 0.72585 0.40037 0.0
H1868 H 0.43962 0.79887 0.37737 0.0
C1869 C 0.37755 0.81584 0.40717 0.0
C1870 C 0.37941 0.76133 0.41211 0.0
C1871 C 0.36287 0.82467 0.41396 0.0
C1872 C 0.45206 0.73584 0.41412 0.0
C1873 C 0.43417 0.74034 0.40652 0.0
C1874 C 0.42283 0.78812 0.38702 0.0
C1875 C 0.36822 0.79184 0.40183 0.0
C1876 C 0.38429 0.78215 0.39891 0.0
C1877 C 0.43786 0.7633 0.40727 0.0
C1878 C 0.41853 0.76819 0.40172 0.0
H1879 H 0.31022 0.77411 0.40964 0.0
H1880 H 0.33589 0.75864 0.39758 0.0
H1881 H 0.41005 0.81082 0.37474 0.0
H1882 H 0.49424 0.79162 0.42965 0.0
H1883 H 0.46326 0.7995 0.41636 0.0
C1884 C 0.21653 0.54624 0.40416 0.0
C1885 C 0.19272 0.52923 0.40176 0.0
C1886 C 0.22374 0.57004 0.40217 0.0
C1887 C 0.20277 0.61225 0.38624 0.0
H1888 H 0.24983 0.65059 0.43855 0.0
C1889 C 0.21416 0.69855 0.43057 0.0
C1890 C 0.23716 0.71752 0.43279 0.0
C1891 C 0.21012 0.67661 0.42212 0.0
C1892 C 0.23689 0.6402 0.4236 0.0
H1893 H 0.15789 0.52365 0.39421 0.0
H1894 H 0.1702 0.5651 0.39173 0.0
H1895 H 0.24048 0.61036 0.43153 0.0
H1896 H 0.27395 0.72849 0.42772 0.0
H1897 H 0.2669 0.68997 0.41343 0.0
H1898 H 0.19842 0.64205 0.37964 0.0
C1899 C 0.18353 0.56024 0.39442 0.0
C1900 C 0.23159 0.61711 0.41939 0.0
C1901 C 0.1764 0.53639 0.39589 0.0
C1902 C 0.25604 0.71422 0.42601 0.0
C1903 C 0.25203 0.69219 0.41798 0.0
C1904 C 0.20784 0.63528 0.39079 0.0
C1905 C 0.20722 0.57742 0.39835 0.0
C1906 C 0.21427 0.60269 0.40085 0.0
C1907 C 0.22903 0.67314 0.41615 0.0
C1908 C 0.22479 0.64938 0.40971 0.0
H1909 H 0.22951 0.54116 0.40847 0.0
H1910 H 0.24221 0.58267 0.4045 0.0
H1911 H 0.18965 0.6019 0.37146 0.0
H1912 H 0.19931 0.7007 0.43544 0.0
H1913 H 0.19224 0.66217 0.42108 0.0
C1914 C 0.46456 0.62947 0.40399 0.0
C1915 C 0.47117 0.65318 0.40707 0.0
C1916 C 0.44101 0.61241 0.40118 0.0
C1917 C 0.38083 0.6007 0.38869 0.0
H1918 H 0.36441 0.55108 0.44041 0.0
C1919 C 0.28454 0.53439 0.41811 0.0
C1920 C 0.27873 0.51124 0.42439 0.0
C1921 C 0.3078 0.55164 0.4131 0.0
C1922 C 0.36863 0.56449 0.42548 0.0
H1923 H 0.45844 0.67783 0.40744 0.0
H1924 H 0.41705 0.64786 0.40243 0.0
H1925 H 0.40515 0.58118 0.43477 0.0
H1926 H 0.29335 0.48833 0.42953 0.0
H1927 H 0.33344 0.51799 0.41985 0.0
H1928 H 0.34418 0.58386 0.37935 0.0
C1929 C 0.43019 0.64255 0.40219 0.0
C1930 C 0.39205 0.58182 0.4223 0.0
C1931 C 0.4539 0.65972 0.40497 0.0
C1932 C 0.29686 0.50579 0.42477 0.0
C1933 C 0.32006 0.52298 0.4195 0.0
C1934 C 0.3573 0.58315 0.39169 0.0
C1935 C 0.42348 0.61864 0.40144 0.0
C1936 C 0.39846 0.6001 0.40387 0.0
C1937 C 0.32592 0.54622 0.41398 0.0
C1938 C 0.35091 0.5648 0.41016 0.0
H1939 H 0.4775 0.62391 0.40521 0.0
H1940 H 0.43641 0.59418 0.40004 0.0
H1941 H 0.38528 0.61457 0.3743 0.0
H1942 H 0.27121 0.53938 0.41709 0.0
H1943 H 0.31161 0.56936 0.40914 0.0
loop_
_geom_bond_atom_site_label_1
_geom_bond_atom_site_label_2
_geom_bond_distance
_geom_bond_site_symmetry_2
_ccdc_geom_bond_type
C0 C1 1.351 . S
C0 N3 1.368 . S
C0 H5 0.931 . S
C1 C0 1.351 . S
C1 N2 1.373 . S
C1 H29 0.930 . S
N2 C1 1.373 . S
N2 C4 1.340 . S
N3 C0 1.368 . S
N3 C4 1.321 . S
N3 Co6 2.135 . S
C4 N2 1.340 . S
C4 N3 1.321 . S
C4 H28 0.930 . S
H5 C0 0.931 . S
Co6 N3 2.135 . S
Co6 N9 2.121 1_455 S
Co6 O14 2.055 . S
Co6 O17 2.039 1_455 S
Co6 N20 2.140 . S
C7 O8 1.227 . S
C7 O17 1.265 . S
O8 C7 1.227 . S
N9 Co6 2.121 1_655 S
N9 C11 1.375 . S
N9 C12 1.313 . S
C10 C11 1.338 . S
C10 N13 1.377 . S
C10 H30 0.930 . S
C11 N9 1.375 . S
C11 C10 1.338 . S
C11 H15 0.931 . S
C12 N9 1.313 . S
C12 N13 1.344 . S
C12 H16 0.930 1_655 S
N13 C10 1.377 . S
N13 C12 1.344 . S
O14 Co6 2.055 . S
O14 C18 1.253 . S
H15 C11 0.931 . S
H16 C12 0.930 1_455 S
O17 Co6 2.039 1_655 S
O17 C7 1.265 . S
C18 O14 1.253 . S
C18 O19 1.227 . S
O19 C18 1.227 . S
N20 Co6 2.140 . S
N20 C23 1.346 . S
N20 C24 1.345 . S
C21 C22 1.387 . S
C21 C25 1.391 . S
C22 C21 1.387 . S
C22 C23 1.369 . S
C22 H31 0.929 . S
C23 N20 1.346 . S
C23 C22 1.369 . S
C23 H26 0.928 . S
C24 N20 1.345 . S
C24 C25 1.371 . S
C24 H27 0.931 . S
C25 C21 1.391 . S
C25 C24 1.371 . S
C25 H32 0.930 . S
H26 C23 0.928 . S
H27 C24 0.931 . S
H28 C4 0.930 . S
H29 C1 0.930 . S
H30 C10 0.930 . S
H31 C22 0.929 . S
H32 C25 0.930 . S
C33 C34 1.351 . S
C33 N36 1.368 . S
C33 H38 0.931 . S
C34 C33 1.351 . S
C34 N35 1.373 . S
C34 H62 0.930 . S
N35 C34 1.373 . S
N35 C37 1.340 . S
N36 C33 1.368 . S
N36 C37 1.321 . S
N36 Co39 2.135 . S
C37 N35 1.340 . S
C37 N36 1.321 . S
C37 H61 0.930 . S
H38 C33 0.931 . S
Co39 N36 2.135 . S
Co39 N42 2.121 . S
Co39 O47 2.055 . S
Co39 O50 2.039 . S
Co39 N53 2.140 . S
C40 O41 1.227 . S
C40 O50 1.265 . S
O41 C40 1.227 . S
N42 Co39 2.121 . S
N42 C44 1.375 . S
N42 C45 1.313 . S
C43 C44 1.338 . S
C43 N46 1.377 . S
C43 H63 0.930 . S
C44 N42 1.375 . S
C44 C43 1.338 . S
C44 H48 0.931 . S
C45 N42 1.313 . S
C45 N46 1.344 . S
C45 H49 0.930 . S
N46 C43 1.377 . S
N46 C45 1.344 . S
O47 Co39 2.055 . S
O47 C51 1.253 . S
H48 C44 0.931 . S
H49 C45 0.930 . S
O50 Co39 2.039 . S
O50 C40 1.265 . S
C51 O47 1.253 . S
C51 O52 1.227 . S
O52 C51 1.227 . S
N53 Co39 2.140 . S
N53 C56 1.346 . S
N53 C57 1.345 . S
C54 C55 1.387 . S
C54 C58 1.391 . S
C55 C54 1.387 . S
C55 C56 1.369 . S
C55 H64 0.929 . S
C56 N53 1.346 . S
C56 C55 1.369 . S
C56 H59 0.928 . S
C57 N53 1.345 . S
C57 C58 1.371 . S
C57 H60 0.931 . S
C58 C54 1.391 . S
C58 C57 1.371 . S
C58 H65 0.930 . S
H59 C56 0.928 . S
H60 C57 0.931 . S
H61 C37 0.930 . S
H62 C34 0.930 . S
H63 C43 0.930 . S
H64 C55 0.929 . S
H65 C58 0.930 . S
C66 C67 1.351 . S
C66 N69 1.368 . S
C66 H71 0.931 . S
C67 C66 1.351 . S
C67 N68 1.373 . S
C67 H95 0.930 . S
N68 C67 1.373 . S
N68 C70 1.340 . S
N69 C66 1.368 . S
N69 C70 1.321 . S
N69 Co72 2.135 . S
C70 N68 1.340 . S
C70 N69 1.321 . S
C70 H94 0.930 . S
H71 C66 0.931 . S
Co72 N69 2.135 . S
Co72 N75 2.121 1_565 S
Co72 O80 2.055 . S
Co72 O83 2.039 1_565 S
Co72 N86 2.140 . S
C73 O74 1.227 . S
C73 O83 1.265 . S
O74 C73 1.227 . S
N75 Co72 2.121 1_545 S
N75 C77 1.375 . S
N75 C78 1.313 . S
C76 C77 1.338 . S
C76 N79 1.377 . S
C76 H96 0.930 . S
C77 N75 1.375 . S
C77 C76 1.338 . S
C77 H81 0.931 . S
C78 N75 1.313 . S
C78 N79 1.344 . S
C78 H82 0.930 1_545 S
N79 C76 1.377 . S
N79 C78 1.344 . S
O80 Co72 2.055 . S
O80 C84 1.253 . S
H81 C77 0.931 . S
H82 C78 0.930 1_565 S
O83 Co72 2.039 1_545 S
O83 C73 1.265 . S
C84 O80 1.253 . S
C84 O85 1.227 . S
O85 C84 1.227 . S
N86 Co72 2.140 . S
N86 C89 1.346 . S
N86 C90 1.345 . S
C87 C88 1.387 . S
C87 C91 1.391 . S
C88 C87 1.387 . S
C88 C89 1.369 . S
C88 H97 0.929 . S
C89 N86 1.346 . S
C89 C88 1.369 . S
C89 H92 0.928 . S
C90 N86 1.345 . S
C90 C91 1.371 . S
C90 H93 0.931 . S
C91 C87 1.391 . S
C91 C90 1.371 . S
C91 H98 0.930 . S
H92 C89 0.928 . S
H93 C90 0.931 . S
H94 C70 0.930 . S
H95 C67 0.930 . S
H96 C76 0.930 . S
H97 C88 0.929 . S
H98 C91 0.930 . S
C99 C100 1.351 . S
C99 N102 1.368 . S
C99 H104 0.931 . S
C100 C99 1.351 . S
C100 N101 1.373 . S
C100 H128 0.930 . S
N101 C100 1.373 . S
N101 C103 1.340 . S
N102 C99 1.368 . S
N102 C103 1.321 . S
N102 Co105 2.135 . S
C103 N101 1.340 . S
C103 N102 1.321 . S
C103 H127 0.930 . S
H104 C99 0.931 . S
Co105 N102 2.135 . S
Co105 N108 2.121 1_545 S
Co105 O113 2.055 . S
Co105 O116 2.039 1_545 S
Co105 N119 2.140 . S
C106 O107 1.227 . S
C106 O116 1.265 . S
O107 C106 1.227 . S
N108 Co105 2.121 1_565 S
N108 C110 1.375 . S
N108 C111 1.313 . S
C109 C110 1.338 . S
C109 N112 1.377 . S
C109 H129 0.930 . S
C110 N108 1.375 . S
C110 C109 1.338 . S
C110 H114 0.931 . S
C111 N108 1.313 . S
C111 N112 1.344 . S
C111 H115 0.930 1_565 S
N112 C109 1.377 . S
N112 C111 1.344 . S
O113 Co105 2.055 . S
O113 C117 1.253 . S
H114 C110 0.931 . S
H115 C111 0.930 1_545 S
O116 Co105 2.039 1_565 S
O116 C106 1.265 . S
C117 O113 1.253 . S
C117 O118 1.227 . S
O118 C117 1.227 . S
N119 Co105 2.140 . S
N119 C122 1.346 . S
N119 C123 1.345 . S
C120 C121 1.387 . S
C120 C124 1.391 . S
C121 C120 1.387 . S
C121 C122 1.369 . S
C121 H130 0.929 . S
C122 N119 1.346 . S
C122 C121 1.369 . S
C122 H125 0.928 . S
C123 N119 1.345 . S
C123 C124 1.371 . S
C123 H126 0.931 . S
C124 C120 1.391 . S
C124 C123 1.371 . S
C124 H131 0.930 . S
H125 C122 0.928 . S
H126 C123 0.931 . S
H127 C103 0.930 . S
H128 C100 0.930 . S
H129 C109 0.930 . S
H130 C121 0.929 . S
H131 C124 0.930 . S
C132 C133 1.351 . S
C132 N135 1.368 . S
C132 H137 0.931 . S
C133 C132 1.351 . S
C133 N134 1.373 . S
C133 H161 0.930 . S
N134 C133 1.373 . S
N134 C136 1.340 . S
N135 C132 1.368 . S
N135 C136 1.321 . S
N135 Co138 2.135 . S
C136 N134 1.340 . S
C136 N135 1.321 . S
C136 H160 0.930 . S
H137 C132 0.931 . S
Co138 N135 2.135 . S
Co138 N141 2.121 1_655 S
Co138 O146 2.055 . S
Co138 O149 2.039 1_655 S
Co138 N152 2.140 . S
C139 O140 1.227 . S
C139 O149 1.265 . S
O140 C139 1.227 . S
N141 Co138 2.121 1_455 S
N141 C143 1.375 . S
N141 C144 1.313 . S
C142 C143 1.338 . S
C142 N145 1.377 . S
C142 H162 0.930 . S
C143 N141 1.375 . S
C143 C142 1.338 . S
C143 H147 0.931 . S
C144 N141 1.313 . S
C144 N145 1.344 . S
C144 H148 0.930 1_455 S
N145 C142 1.377 . S
N145 C144 1.344 . S
O146 Co138 2.055 . S
O146 C150 1.253 . S
H147 C143 0.931 . S
H148 C144 0.930 1_655 S
O149 Co138 2.039 1_455 S
O149 C139 1.265 . S
C150 O146 1.253 . S
C150 O151 1.227 . S
O151 C150 1.227 . S
N152 Co138 2.140 . S
N152 C155 1.346 . S
N152 C156 1.345 . S
C153 C154 1.387 . S
C153 C157 1.391 . S
C154 C153 1.387 . S
C154 C155 1.369 . S
C154 H163 0.929 . S
C155 N152 1.346 . S
C155 C154 1.369 . S
C155 H158 0.928 . S
C156 N152 1.345 . S
C156 C157 1.371 . S
C156 H159 0.931 . S
C157 C153 1.391 . S
C157 C156 1.371 . S
C157 H164 0.930 . S
H158 C155 0.928 . S
H159 C156 0.931 . S
H160 C136 0.930 . S
H161 C133 0.930 . S
H162 C142 0.930 . S
H163 C154 0.929 . S
H164 C157 0.930 . S
C165 C166 1.351 . S
C165 N168 1.368 . S
C165 H170 0.931 . S
C166 C165 1.351 . S
C166 N167 1.373 . S
C166 H194 0.930 . S
N167 C166 1.373 . S
N167 C169 1.340 . S
N168 C165 1.368 . S
N168 C169 1.321 . S
N168 Co171 2.135 . S
C169 N167 1.340 . S
C169 N168 1.321 . S
C169 H193 0.930 . S
H170 C165 0.931 . S
Co171 N168 2.135 . S
Co171 N174 2.121 . S
Co171 O179 2.055 . S
Co171 O182 2.039 . S
Co171 N185 2.140 . S
C172 O173 1.227 . S
C172 O182 1.265 . S
O173 C172 1.227 . S
N174 Co171 2.121 . S
N174 C176 1.375 . S
N174 C177 1.313 . S
C175 C176 1.338 . S
C175 N178 1.377 . S
C175 H195 0.930 . S
C176 N174 1.375 . S
C176 C175 1.338 . S
C176 H180 0.931 . S
C177 N174 1.313 . S
C177 N178 1.344 . S
C177 H181 0.930 . S
N178 C175 1.377 . S
N178 C177 1.344 . S
O179 Co171 2.055 . S
O179 C183 1.253 . S
H180 C176 0.931 . S
H181 C177 0.930 . S
O182 Co171 2.039 . S
O182 C172 1.265 . S
C183 O179 1.253 . S
C183 O184 1.227 . S
O184 C183 1.227 . S
N185 Co171 2.140 . S
N185 C188 1.346 . S
N185 C189 1.345 . S
C186 C187 1.387 . S
C186 C190 1.391 . S
C187 C186 1.387 . S
C187 C188 1.369 . S
C187 H196 0.929 . S
C188 N185 1.346 . S
C188 C187 1.369 . S
C188 H191 0.928 . S
C189 N185 1.345 . S
C189 C190 1.371 . S
C189 H192 0.931 . S
C190 C186 1.391 . S
C190 C189 1.371 . S
C190 H197 0.930 . S
H191 C188 0.928 . S
H192 C189 0.931 . S
H193 C169 0.930 . S
H194 C166 0.930 . S
H195 C175 0.930 . S
H196 C187 0.929 . S
H197 C190 0.930 . S
C198 C199 1.351 . S
C198 N201 1.368 . S
C198 H203 0.931 . S
C199 C198 1.351 . S
C199 N200 1.373 . S
C199 H227 0.930 . S
N200 C199 1.373 . S
N200 C202 1.340 . S
N201 C198 1.368 . S
N201 C202 1.321 . S
N201 Co204 2.135 . S
C202 N200 1.340 . S
C202 N201 1.321 . S
C202 H226 0.930 . S
H203 C198 0.931 . S
Co204 N201 2.135 . S
Co204 N207 2.121 . S
Co204 O212 2.055 . S
Co204 O215 2.039 . S
Co204 N218 2.140 . S
C205 O206 1.227 . S
C205 O215 1.265 . S
O206 C205 1.227 . S
N207 Co204 2.121 . S
N207 C209 1.375 . S
N207 C210 1.313 . S
C208 C209 1.338 . S
C208 N211 1.377 . S
C208 H228 0.930 . S
C209 N207 1.375 . S
C209 C208 1.338 . S
C209 H213 0.931 . S
C210 N207 1.313 . S
C210 N211 1.344 . S
C210 H214 0.930 . S
N211 C208 1.377 . S
N211 C210 1.344 . S
O212 Co204 2.055 . S
O212 C216 1.253 . S
H213 C209 0.931 . S
H214 C210 0.930 . S
O215 Co204 2.039 . S
O215 C205 1.265 . S
C216 O212 1.253 . S
C216 O217 1.227 . S
O217 C216 1.227 . S
N218 Co204 2.140 . S
N218 C221 1.346 . S
N218 C222 1.345 . S
C219 C220 1.387 . S
C219 C223 1.391 . S
C220 C219 1.387 . S
C220 C221 1.369 . S
C220 H229 0.929 . S
C221 N218 1.346 . S
C221 C220 1.369 . S
C221 H224 0.928 . S
C222 N218 1.345 . S
C222 C223 1.371 . S
C222 H225 0.931 . S
C223 C219 1.391 . S
C223 C222 1.371 . S
C223 H230 0.930 . S
H224 C221 0.928 . S
H225 C222 0.931 . S
H226 C202 0.930 . S
H227 C199 0.930 . S
H228 C208 0.930 . S
H229 C220 0.929 . S
H230 C223 0.930 . S
C231 C232 1.351 . S
C231 N234 1.368 . S
C231 H236 0.931 . S
C232 C231 1.351 . S
C232 N233 1.373 . S
C232 H260 0.930 . S
N233 C232 1.373 . S
N233 C235 1.340 . S
N234 C231 1.368 . S
N234 C235 1.321 . S
N234 Co237 2.135 . S
C235 N233 1.340 . S
C235 N234 1.321 . S
C235 H259 0.930 . S
H236 C231 0.931 . S
Co237 N234 2.135 . S
Co237 N240 2.121 . S
Co237 O245 2.055 . S
Co237 O248 2.039 . S
Co237 N251 2.140 . S
C238 O239 1.227 . S
C238 O248 1.265 . S
O239 C238 1.227 . S
N240 Co237 2.121 . S
N240 C242 1.375 . S
N240 C243 1.313 . S
C241 C242 1.338 . S
C241 N244 1.377 . S
C241 H261 0.930 . S
C242 N240 1.375 . S
C242 C241 1.338 . S
C242 H246 0.931 . S
C243 N240 1.313 . S
C243 N244 1.344 . S
C243 H247 0.930 . S
N244 C241 1.377 . S
N244 C243 1.344 . S
O245 Co237 2.055 . S
O245 C249 1.253 . S
H246 C242 0.931 . S
H247 C243 0.930 . S
O248 Co237 2.039 . S
O248 C238 1.265 . S
C249 O245 1.253 . S
C249 O250 1.227 . S
O250 C249 1.227 . S
N251 Co237 2.140 . S
N251 C254 1.346 . S
N251 C255 1.345 . S
C252 C253 1.387 . S
C252 C256 1.391 . S
C253 C252 1.387 . S
C253 C254 1.369 . S
C253 H262 0.929 . S
C254 N251 1.346 . S
C254 C253 1.369 . S
C254 H257 0.928 . S
C255 N251 1.345 . S
C255 C256 1.371 . S
C255 H258 0.931 . S
C256 C252 1.391 . S
C256 C255 1.371 . S
C256 H263 0.930 . S
H257 C254 0.928 . S
H258 C255 0.931 . S
H259 C235 0.930 . S
H260 C232 0.930 . S
H261 C241 0.930 . S
H262 C253 0.929 . S
H263 C256 0.930 . S
C264 C265 1.351 . S
C264 N267 1.368 . S
C264 H269 0.931 . S
C265 C264 1.351 . S
C265 N266 1.373 . S
C265 H293 0.930 . S
N266 C265 1.373 . S
N266 C268 1.340 . S
N267 C264 1.368 . S
N267 C268 1.321 . S
N267 Co270 2.135 . S
C268 N266 1.340 . S
C268 N267 1.321 . S
C268 H292 0.930 . S
H269 C264 0.931 . S
Co270 N267 2.135 . S
Co270 N273 2.121 . S
Co270 O278 2.055 . S
Co270 O281 2.039 . S
Co270 N284 2.140 . S
C271 O272 1.227 . S
C271 O281 1.265 . S
O272 C271 1.227 . S
N273 Co270 2.121 . S
N273 C275 1.375 . S
N273 C276 1.313 . S
C274 C275 1.338 . S
C274 N277 1.377 . S
C274 H294 0.930 . S
C275 N273 1.375 . S
C275 C274 1.338 . S
C275 H279 0.931 . S
C276 N273 1.313 . S
C276 N277 1.344 . S
C276 H280 0.930 . S
N277 C274 1.377 . S
N277 C276 1.344 . S
O278 Co270 2.055 . S
O278 C282 1.253 . S
H279 C275 0.931 . S
H280 C276 0.930 . S
O281 Co270 2.039 . S
O281 C271 1.265 . S
C282 O278 1.253 . S
C282 O283 1.227 . S
O283 C282 1.227 . S
N284 Co270 2.140 . S
N284 C287 1.346 . S
N284 C288 1.345 . S
C285 C286 1.387 . S
C285 C289 1.391 . S
C286 C285 1.387 . S
C286 C287 1.369 . S
C286 H295 0.929 . S
C287 N284 1.346 . S
C287 C286 1.369 . S
C287 H290 0.928 . S
C288 N284 1.345 . S
C288 C289 1.371 . S
C288 H291 0.931 . S
C289 C285 1.391 . S
C289 C288 1.371 . S
C289 H296 0.930 . S
H290 C287 0.928 . S
H291 C288 0.931 . S
H292 C268 0.930 . S
H293 C265 0.930 . S
H294 C274 0.930 . S
H295 C286 0.929 . S
H296 C289 0.930 . S
C297 C298 1.351 . S
C297 N300 1.368 . S
C297 H302 0.931 . S
C298 C297 1.351 . S
C298 N299 1.373 . S
C298 H326 0.930 . S
N299 C298 1.373 . S
N299 C301 1.340 . S
N300 C297 1.368 . S
N300 C301 1.321 . S
N300 Co303 2.135 . S
C301 N299 1.340 . S
C301 N300 1.321 . S
C301 H325 0.930 . S
H302 C297 0.931 . S
Co303 N300 2.135 . S
Co303 N306 2.121 . S
Co303 O311 2.055 . S
Co303 O314 2.039 . S
Co303 N317 2.140 . S
C304 O305 1.227 . S
C304 O314 1.265 . S
O305 C304 1.227 . S
N306 Co303 2.121 . S
N306 C308 1.375 . S
N306 C309 1.313 . S
C307 C308 1.338 . S
C307 N310 1.377 . S
C307 H327 0.930 . S
C308 N306 1.375 . S
C308 C307 1.338 . S
C308 H312 0.931 . S
C309 N306 1.313 . S
C309 N310 1.344 . S
C309 H313 0.930 . S
N310 C307 1.377 . S
N310 C309 1.344 . S
O311 Co303 2.055 . S
O311 C315 1.253 . S
H312 C308 0.931 . S
H313 C309 0.930 . S
O314 Co303 2.039 . S
O314 C304 1.265 . S
C315 O311 1.253 . S
C315 O316 1.227 . S
O316 C315 1.227 . S
N317 Co303 2.140 . S
N317 C320 1.346 . S
N317 C321 1.345 . S
C318 C319 1.387 . S
C318 C322 1.391 . S
C319 C318 1.387 . S
C319 C320 1.369 . S
C319 H328 0.929 . S
C320 N317 1.346 . S
C320 C319 1.369 . S
C320 H323 0.928 . S
C321 N317 1.345 . S
C321 C322 1.371 . S
C321 H324 0.931 . S
C322 C318 1.391 . S
C322 C321 1.371 . S
C322 H329 0.930 . S
H323 C320 0.928 . S
H324 C321 0.931 . S
H325 C301 0.930 . S
H326 C298 0.930 . S
H327 C307 0.930 . S
H328 C319 0.929 . S
H329 C322 0.930 . S
C330 C331 1.351 . S
C330 N333 1.368 . S
C330 H335 0.931 . S
C331 C330 1.351 . S
C331 N332 1.373 . S
C331 H359 0.930 . S
N332 C331 1.373 . S
N332 C334 1.340 . S
N333 C330 1.368 . S
N333 C334 1.321 . S
N333 Co336 2.135 . S
C334 N332 1.340 . S
C334 N333 1.321 . S
C334 H358 0.930 . S
H335 C330 0.931 . S
Co336 N333 2.135 . S
Co336 N339 2.121 . S
Co336 O344 2.055 . S
Co336 O347 2.039 . S
Co336 N350 2.140 . S
C337 O338 1.227 . S
C337 O347 1.265 . S
O338 C337 1.227 . S
N339 Co336 2.121 . S
N339 C341 1.375 . S
N339 C342 1.313 . S
C340 C341 1.338 . S
C340 N343 1.377 . S
C340 H360 0.930 . S
C341 N339 1.375 . S
C341 C340 1.338 . S
C341 H345 0.931 . S
C342 N339 1.313 . S
C342 N343 1.344 . S
C342 H346 0.930 . S
N343 C340 1.377 . S
N343 C342 1.344 . S
O344 Co336 2.055 . S
O344 C348 1.253 . S
H345 C341 0.931 . S
H346 C342 0.930 . S
O347 Co336 2.039 . S
O347 C337 1.265 . S
C348 O344 1.253 . S
C348 O349 1.227 . S
O349 C348 1.227 . S
N350 Co336 2.140 . S
N350 C353 1.346 . S
N350 C354 1.345 . S
C351 C352 1.387 . S
C351 C355 1.391 . S
C352 C351 1.387 . S
C352 C353 1.369 . S
C352 H361 0.929 . S
C353 N350 1.346 . S
C353 C352 1.369 . S
C353 H356 0.928 . S
C354 N350 1.345 . S
C354 C355 1.371 . S
C354 H357 0.931 . S
C355 C351 1.391 . S
C355 C354 1.371 . S
C355 H362 0.930 . S
H356 C353 0.928 . S
H357 C354 0.931 . S
H358 C334 0.930 . S
H359 C331 0.930 . S
H360 C340 0.930 . S
H361 C352 0.929 . S
H362 C355 0.930 . S
C363 C364 1.351 . S
C363 N366 1.368 . S
C363 H368 0.931 . S
C364 C363 1.351 . S
C364 N365 1.373 . S
C364 H392 0.930 . S
N365 C364 1.373 . S
N365 C367 1.340 . S
N366 C363 1.368 . S
N366 C367 1.321 . S
N366 Co369 2.135 . S
C367 N365 1.340 . S
C367 N366 1.321 . S
C367 H391 0.930 . S
H368 C363 0.931 . S
Co369 N366 2.135 . S
Co369 N372 2.121 . S
Co369 O377 2.055 . S
Co369 O380 2.039 . S
Co369 N383 2.140 . S
C370 O371 1.227 . S
C370 O380 1.265 . S
O371 C370 1.227 . S
N372 Co369 2.121 . S
N372 C374 1.375 . S
N372 C375 1.313 . S
C373 C374 1.338 . S
C373 N376 1.377 . S
C373 H393 0.930 . S
C374 N372 1.375 . S
C374 C373 1.338 . S
C374 H378 0.931 . S
C375 N372 1.313 . S
C375 N376 1.344 . S
C375 H379 0.930 . S
N376 C373 1.377 . S
N376 C375 1.344 . S
O377 Co369 2.055 . S
O377 C381 1.253 . S
H378 C374 0.931 . S
H379 C375 0.930 . S
O380 Co369 2.039 . S
O380 C370 1.265 . S
C381 O377 1.253 . S
C381 O382 1.227 . S
O382 C381 1.227 . S
N383 Co369 2.140 . S
N383 C386 1.346 . S
N383 C387 1.345 . S
C384 C385 1.387 . S
C384 C388 1.391 . S
C385 C384 1.387 . S
C385 C386 1.369 . S
C385 H394 0.929 . S
C386 N383 1.346 . S
C386 C385 1.369 . S
C386 H389 0.928 . S
C387 N383 1.345 . S
C387 C388 1.371 . S
C387 H390 0.931 . S
C388 C384 1.391 . S
C388 C387 1.371 . S
C388 H395 0.930 . S
H389 C386 0.928 . S
H390 C387 0.931 . S
H391 C367 0.930 . S
H392 C364 0.930 . S
H393 C373 0.930 . S
H394 C385 0.929 . S
H395 C388 0.930 . S
C396 C397 1.351 . S
C396 N399 1.368 . S
C396 H401 0.931 . S
C397 C396 1.351 . S
C397 N398 1.373 . S
C397 H425 0.930 . S
N398 C397 1.373 . S
N398 C400 1.340 . S
N399 C396 1.368 . S
N399 C400 1.321 . S
N399 Co402 2.135 . S
C400 N398 1.340 . S
C400 N399 1.321 . S
C400 H424 0.930 . S
H401 C396 0.931 . S
Co402 N399 2.135 . S
Co402 N405 2.121 . S
Co402 O410 2.055 . S
Co402 O413 2.039 . S
Co402 N416 2.140 . S
C403 O404 1.227 . S
C403 O413 1.265 . S
O404 C403 1.227 . S
N405 Co402 2.121 . S
N405 C407 1.375 . S
N405 C408 1.313 . S
C406 C407 1.338 . S
C406 N409 1.377 . S
C406 H426 0.930 . S
C407 N405 1.375 . S
C407 C406 1.338 . S
C407 H411 0.931 . S
C408 N405 1.313 . S
C408 N409 1.344 . S
C408 H412 0.930 . S
N409 C406 1.377 . S
N409 C408 1.344 . S
O410 Co402 2.055 . S
O410 C414 1.253 . S
H411 C407 0.931 . S
H412 C408 0.930 . S
O413 Co402 2.039 . S
O413 C403 1.265 . S
C414 O410 1.253 . S
C414 O415 1.227 . S
O415 C414 1.227 . S
N416 Co402 2.140 . S
N416 C419 1.346 . S
N416 C420 1.345 . S
C417 C418 1.387 . S
C417 C421 1.391 . S
C418 C417 1.387 . S
C418 C419 1.369 . S
C418 H427 0.929 . S
C419 N416 1.346 . S
C419 C418 1.369 . S
C419 H422 0.928 . S
C420 N416 1.345 . S
C420 C421 1.371 . S
C420 H423 0.931 . S
C421 C417 1.391 . S
C421 C420 1.371 . S
C421 H428 0.930 . S
H422 C419 0.928 . S
H423 C420 0.931 . S
H424 C400 0.930 . S
H425 C397 0.930 . S
H426 C406 0.930 . S
H427 C418 0.929 . S
H428 C421 0.930 . S
C429 C430 1.351 . S
C429 N432 1.368 . S
C429 H434 0.931 . S
C430 C429 1.351 . S
C430 N431 1.373 . S
C430 H458 0.930 . S
N431 C430 1.373 . S
N431 C433 1.340 . S
N432 C429 1.368 . S
N432 C433 1.321 . S
N432 Co435 2.135 . S
C433 N431 1.340 . S
C433 N432 1.321 . S
C433 H457 0.930 . S
H434 C429 0.931 . S
Co435 N432 2.135 . S
Co435 N438 2.121 . S
Co435 O443 2.055 . S
Co435 O446 2.039 . S
Co435 N449 2.140 . S
C436 O437 1.227 . S
C436 O446 1.265 . S
O437 C436 1.227 . S
N438 Co435 2.121 . S
N438 C440 1.375 . S
N438 C441 1.313 . S
C439 C440 1.338 . S
C439 N442 1.377 . S
C439 H459 0.930 . S
C440 N438 1.375 . S
C440 C439 1.338 . S
C440 H444 0.931 . S
C441 N438 1.313 . S
C441 N442 1.344 . S
C441 H445 0.930 . S
N442 C439 1.377 . S
N442 C441 1.344 . S
O443 Co435 2.055 . S
O443 C447 1.253 . S
H444 C440 0.931 . S
H445 C441 0.930 . S
O446 Co435 2.039 . S
O446 C436 1.265 . S
C447 O443 1.253 . S
C447 O448 1.227 . S
O448 C447 1.227 . S
N449 Co435 2.140 . S
N449 C452 1.346 . S
N449 C453 1.345 . S
C450 C451 1.387 . S
C450 C454 1.391 . S
C451 C450 1.387 . S
C451 C452 1.369 . S
C451 H460 0.929 . S
C452 N449 1.346 . S
C452 C451 1.369 . S
C452 H455 0.928 . S
C453 N449 1.345 . S
C453 C454 1.371 . S
C453 H456 0.931 . S
C454 C450 1.391 . S
C454 C453 1.371 . S
C454 H461 0.930 . S
H455 C452 0.928 . S
H456 C453 0.931 . S
H457 C433 0.930 . S
H458 C430 0.930 . S
H459 C439 0.930 . S
H460 C451 0.929 . S
H461 C454 0.930 . S
C462 C463 1.351 . S
C462 N465 1.368 . S
C462 H467 0.931 . S
C463 C462 1.351 . S
C463 N464 1.373 . S
C463 H491 0.930 . S
N464 C463 1.373 . S
N464 C466 1.340 . S
N465 C462 1.368 . S
N465 C466 1.321 . S
N465 Co468 2.135 . S
C466 N464 1.340 . S
C466 N465 1.321 . S
C466 H490 0.930 . S
H467 C462 0.931 . S
Co468 N465 2.135 . S
Co468 N471 2.121 . S
Co468 O476 2.055 . S
Co468 O479 2.039 . S
Co468 N482 2.140 . S
C469 O470 1.227 . S
C469 O479 1.265 . S
O470 C469 1.227 . S
N471 Co468 2.121 . S
N471 C473 1.375 . S
N471 C474 1.313 . S
C472 C473 1.338 . S
C472 N475 1.377 . S
C472 H492 0.930 . S
C473 N471 1.375 . S
C473 C472 1.338 . S
C473 H477 0.931 . S
C474 N471 1.313 . S
C474 N475 1.344 . S
C474 H478 0.930 . S
N475 C472 1.377 . S
N475 C474 1.344 . S
O476 Co468 2.055 . S
O476 C480 1.253 . S
H477 C473 0.931 . S
H478 C474 0.930 . S
O479 Co468 2.039 . S
O479 C469 1.265 . S
C480 O476 1.253 . S
C480 O481 1.227 . S
O481 C480 1.227 . S
N482 Co468 2.140 . S
N482 C485 1.346 . S
N482 C486 1.345 . S
C483 C484 1.387 . S
C483 C487 1.391 . S
C484 C483 1.387 . S
C484 C485 1.369 . S
C484 H493 0.929 . S
C485 N482 1.346 . S
C485 C484 1.369 . S
C485 H488 0.928 . S
C486 N482 1.345 . S
C486 C487 1.371 . S
C486 H489 0.931 . S
C487 C483 1.391 . S
C487 C486 1.371 . S
C487 H494 0.930 . S
H488 C485 0.928 . S
H489 C486 0.931 . S
H490 C466 0.930 . S
H491 C463 0.930 . S
H492 C472 0.930 . S
H493 C484 0.929 . S
H494 C487 0.930 . S
C495 C496 1.351 . S
C495 N498 1.368 . S
C495 H500 0.931 . S
C496 C495 1.351 . S
C496 N497 1.373 . S
C496 H524 0.930 . S
N497 C496 1.373 . S
N497 C499 1.340 . S
N498 C495 1.368 . S
N498 C499 1.321 . S
N498 Co501 2.135 . S
C499 N497 1.340 . S
C499 N498 1.321 . S
C499 H523 0.930 . S
H500 C495 0.931 . S
Co501 N498 2.135 . S
Co501 N504 2.121 . S
Co501 O509 2.055 . S
Co501 O512 2.039 . S
Co501 N515 2.140 . S
C502 O503 1.227 . S
C502 O512 1.265 . S
O503 C502 1.227 . S
N504 Co501 2.121 . S
N504 C506 1.375 . S
N504 C507 1.313 . S
C505 C506 1.338 . S
C505 N508 1.377 . S
C505 H525 0.930 . S
C506 N504 1.375 . S
C506 C505 1.338 . S
C506 H510 0.931 . S
C507 N504 1.313 . S
C507 N508 1.344 . S
C507 H511 0.930 . S
N508 C505 1.377 . S
N508 C507 1.344 . S
O509 Co501 2.055 . S
O509 C513 1.253 . S
H510 C506 0.931 . S
H511 C507 0.930 . S
O512 Co501 2.039 . S
O512 C502 1.265 . S
C513 O509 1.253 . S
C513 O514 1.227 . S
O514 C513 1.227 . S
N515 Co501 2.140 . S
N515 C518 1.346 . S
N515 C519 1.345 . S
C516 C517 1.387 . S
C516 C520 1.391 . S
C517 C516 1.387 . S
C517 C518 1.369 . S
C517 H526 0.929 . S
C518 N515 1.346 . S
C518 C517 1.369 . S
C518 H521 0.928 . S
C519 N515 1.345 . S
C519 C520 1.371 . S
C519 H522 0.931 . S
C520 C516 1.391 . S
C520 C519 1.371 . S
C520 H527 0.930 . S
H521 C518 0.928 . S
H522 C519 0.931 . S
H523 C499 0.930 . S
H524 C496 0.930 . S
H525 C505 0.930 . S
H526 C517 0.929 . S
H527 C520 0.930 . S
C528 C529 1.351 . S
C528 N531 1.368 . S
C528 H533 0.931 . S
C529 C528 1.351 . S
C529 N530 1.373 . S
C529 H557 0.930 . S
N530 C529 1.373 . S
N530 C532 1.340 . S
N531 C528 1.368 . S
N531 C532 1.321 . S
N531 Co534 2.135 . S
C532 N530 1.340 . S
C532 N531 1.321 . S
C532 H556 0.930 . S
H533 C528 0.931 . S
Co534 N531 2.135 . S
Co534 N537 2.121 . S
Co534 O542 2.055 . S
Co534 O545 2.039 . S
Co534 N548 2.140 . S
C535 O536 1.227 . S
C535 O545 1.265 . S
O536 C535 1.227 . S
N537 Co534 2.121 . S
N537 C539 1.375 . S
N537 C540 1.313 . S
C538 C539 1.338 . S
C538 N541 1.377 . S
C538 H558 0.930 . S
C539 N537 1.375 . S
C539 C538 1.338 . S
C539 H543 0.931 . S
C540 N537 1.313 . S
C540 N541 1.344 . S
C540 H544 0.930 . S
N541 C538 1.377 . S
N541 C540 1.344 . S
O542 Co534 2.055 . S
O542 C546 1.253 . S
H543 C539 0.931 . S
H544 C540 0.930 . S
O545 Co534 2.039 . S
O545 C535 1.265 . S
C546 O542 1.253 . S
C546 O547 1.227 . S
O547 C546 1.227 . S
N548 Co534 2.140 . S
N548 C551 1.346 . S
N548 C552 1.345 . S
C549 C550 1.387 . S
C549 C553 1.391 . S
C550 C549 1.387 . S
C550 C551 1.369 . S
C550 H559 0.929 . S
C551 N548 1.346 . S
C551 C550 1.369 . S
C551 H554 0.928 . S
C552 N548 1.345 . S
C552 C553 1.371 . S
C552 H555 0.931 . S
C553 C549 1.391 . S
C553 C552 1.371 . S
C553 H560 0.930 . S
H554 C551 0.928 . S
H555 C552 0.931 . S
H556 C532 0.930 . S
H557 C529 0.930 . S
H558 C538 0.930 . S
H559 C550 0.929 . S
H560 C553 0.930 . S
C561 C562 1.351 . S
C561 N564 1.368 . S
C561 H566 0.931 . S
C562 C561 1.351 . S
C562 N563 1.373 . S
C562 H590 0.930 . S
N563 C562 1.373 . S
N563 C565 1.340 . S
N564 C561 1.368 . S
N564 C565 1.321 . S
N564 Co567 2.135 . S
C565 N563 1.340 . S
C565 N564 1.321 . S
C565 H589 0.930 . S
H566 C561 0.931 . S
Co567 N564 2.135 . S
Co567 N570 2.121 . S
Co567 O575 2.055 . S
Co567 O578 2.039 . S
Co567 N581 2.140 . S
C568 O569 1.227 . S
C568 O578 1.265 . S
O569 C568 1.227 . S
N570 Co567 2.121 . S
N570 C572 1.375 . S
N570 C573 1.313 . S
C571 C572 1.338 . S
C571 N574 1.377 . S
C571 H591 0.930 . S
C572 N570 1.375 . S
C572 C571 1.338 . S
C572 H576 0.931 . S
C573 N570 1.313 . S
C573 N574 1.344 . S
C573 H577 0.930 . S
N574 C571 1.377 . S
N574 C573 1.344 . S
O575 Co567 2.055 . S
O575 C579 1.253 . S
H576 C572 0.931 . S
H577 C573 0.930 . S
O578 Co567 2.039 . S
O578 C568 1.265 . S
C579 O575 1.253 . S
C579 O580 1.227 . S
O580 C579 1.227 . S
N581 Co567 2.140 . S
N581 C584 1.346 . S
N581 C585 1.345 . S
C582 C583 1.387 . S
C582 C586 1.391 . S
C583 C582 1.387 . S
C583 C584 1.369 . S
C583 H592 0.929 . S
C584 N581 1.346 . S
C584 C583 1.369 . S
C584 H587 0.928 . S
C585 N581 1.345 . S
C585 C586 1.371 . S
C585 H588 0.931 . S
C586 C582 1.391 . S
C586 C585 1.371 . S
C586 H593 0.930 . S
H587 C584 0.928 . S
H588 C585 0.931 . S
H589 C565 0.930 . S
H590 C562 0.930 . S
H591 C571 0.930 . S
H592 C583 0.929 . S
H593 C586 0.930 . S
C594 C595 1.349 . S
C594 C596 1.327 . S
C594 H619 0.950 . S
C595 C594 1.349 . S
C595 C611 1.349 . S
C596 C594 1.327 . S
C596 C615 1.429 . S
C596 H620 0.950 . S
C597 C614 1.574 . S
C597 C616 1.368 . S
C597 H621 0.949 . S
H598 C602 0.949 . S
C599 C600 1.349 . S
C599 C601 1.327 . S
C599 H622 0.950 . S
C600 C599 1.349 . S
C600 C612 1.349 . S
C601 C599 1.327 . S
C601 C617 1.429 . S
C601 H623 0.950 . S
C602 H598 0.949 . S
C602 C610 1.574 . S
C602 C618 1.368 . S
H603 C611 0.950 . S
H604 C609 0.950 . S
H605 C610 0.949 . S
H606 C612 0.950 . S
H607 C613 0.950 . S
H608 C614 0.949 . S
C609 H604 0.950 . S
C609 C611 1.327 . S
C609 C615 1.429 . S
C610 C602 1.574 . S
C610 H605 0.949 . S
C610 C616 1.368 . S
C611 C595 1.349 . S
C611 H603 0.950 . S
C611 C609 1.327 . S
C612 C600 1.349 . S
C612 H606 0.950 . S
C612 C613 1.327 . S
C613 H607 0.950 . S
C613 C612 1.327 . S
C613 C617 1.429 . S
C614 C597 1.574 . S
C614 H608 0.949 . S
C614 C618 1.368 . S
C615 C596 1.429 . S
C615 C609 1.429 . S
C615 C616 1.523 . S
C616 C597 1.368 . S
C616 C610 1.368 . S
C616 C615 1.523 . S
C617 C601 1.429 . S
C617 C613 1.429 . S
C617 C618 1.523 . S
C618 C602 1.368 . S
C618 C614 1.368 . S
C618 C617 1.523 . S
H619 C594 0.950 . S
H620 C596 0.950 . S
H621 C597 0.949 . S
H622 C599 0.950 . S
H623 C601 0.950 . S
C624 C625 1.349 . S
C624 C626 1.327 . S
C624 H649 0.950 . S
C625 C624 1.349 . S
C625 C641 1.349 . S
C626 C624 1.327 . S
C626 C645 1.429 . S
C626 H650 0.950 . S
C627 C644 1.574 . S
C627 C646 1.368 . S
C627 H651 0.949 . S
H628 C632 0.949 . S
C629 C630 1.349 . S
C629 C631 1.327 . S
C629 H652 0.950 . S
C630 C629 1.349 . S
C630 C642 1.349 . S
C631 C629 1.327 . S
C631 C647 1.429 . S
C631 H653 0.950 . S
C632 H628 0.949 . S
C632 C640 1.574 . S
C632 C648 1.368 . S
H633 C641 0.950 . S
H634 C639 0.950 . S
H635 C640 0.949 . S
H636 C642 0.950 . S
H637 C643 0.950 . S
H638 C644 0.949 . S
C639 H634 0.950 . S
C639 C641 1.327 . S
C639 C645 1.429 . S
C640 C632 1.574 . S
C640 H635 0.949 . S
C640 C646 1.368 . S
C641 C625 1.349 . S
C641 H633 0.950 . S
C641 C639 1.327 . S
C642 C630 1.349 . S
C642 H636 0.950 . S
C642 C643 1.327 . S
C643 H637 0.950 . S
C643 C642 1.327 . S
C643 C647 1.429 . S
C644 C627 1.574 . S
C644 H638 0.949 . S
C644 C648 1.368 . S
C645 C626 1.429 . S
C645 C639 1.429 . S
C645 C646 1.523 . S
C646 C627 1.368 . S
C646 C640 1.368 . S
C646 C645 1.523 . S
C647 C631 1.429 . S
C647 C643 1.429 . S
C647 C648 1.523 . S
C648 C632 1.368 . S
C648 C644 1.368 . S
C648 C647 1.523 . S
H649 C624 0.950 . S
H650 C626 0.950 . S
H651 C627 0.949 . S
H652 C629 0.950 . S
H653 C631 0.950 . S
C654 C655 1.349 . S
C654 C656 1.327 . S
C654 H679 0.950 . S
C655 C654 1.349 . S
C655 C671 1.349 . S
C656 C654 1.327 . S
C656 C675 1.429 . S
C656 H680 0.950 . S
C657 C674 1.574 . S
C657 C676 1.368 . S
C657 H681 0.949 . S
H658 C662 0.949 . S
C659 C660 1.349 . S
C659 C661 1.327 . S
C659 H682 0.950 . S
C660 C659 1.349 . S
C660 C672 1.349 . S
C661 C659 1.327 . S
C661 C677 1.429 . S
C661 H683 0.950 . S
C662 H658 0.949 . S
C662 C670 1.574 . S
C662 C678 1.368 . S
H663 C671 0.950 . S
H664 C669 0.950 . S
H665 C670 0.949 . S
H666 C672 0.960 . S
H667 C673 0.950 . S
H668 C674 0.949 . S
C669 H664 0.950 . S
C669 C671 1.327 . S
C669 C675 1.429 . S
C670 C662 1.574 . S
C670 H665 0.949 . S
C670 C676 1.368 . S
C671 C655 1.349 . S
C671 H663 0.950 . S
C671 C669 1.327 . S
C672 C660 1.349 . S
C672 H666 0.960 . S
C672 C673 1.327 . S
C673 H667 0.950 . S
C673 C672 1.327 . S
C673 C677 1.429 . S
C674 C657 1.574 . S
C674 H668 0.949 . S
C674 C678 1.368 . S
C675 C656 1.429 . S
C675 C669 1.429 . S
C675 C676 1.523 . S
C676 C657 1.368 . S
C676 C670 1.368 . S
C676 C675 1.523 . S
C677 C661 1.429 . S
C677 C673 1.429 . S
C677 C678 1.523 . S
C678 C662 1.368 . S
C678 C674 1.368 . S
C678 C677 1.523 . S
H679 C654 0.950 . S
H680 C656 0.950 . S
H681 C657 0.949 . S
H682 C659 0.950 . S
H683 C661 0.950 . S
C684 C685 1.349 . S
C684 C686 1.327 . S
C684 H709 0.950 . S
C685 C684 1.349 . S
C685 C701 1.349 . S
C686 C684 1.327 . S
C686 C705 1.429 . S
C686 H710 0.950 . S
C687 C704 1.574 . S
C687 C706 1.368 . S
C687 H711 0.949 . S
H688 C692 0.949 . S
C689 C690 1.349 . S
C689 C691 1.327 . S
C689 H712 0.950 . S
C690 C689 1.349 . S
C690 C702 1.349 . S
C691 C689 1.327 . S
C691 C707 1.429 . S
C691 H713 0.950 . S
C692 H688 0.949 . S
C692 C700 1.574 . S
C692 C708 1.368 . S
H693 C701 0.950 . S
H694 C699 0.950 . S
H695 C700 0.949 . S
H696 C702 0.950 . S
H697 C703 0.950 . S
H698 C704 0.949 . S
C699 H694 0.950 . S
C699 C701 1.327 . S
C699 C705 1.429 . S
C700 C692 1.574 . S
C700 H695 0.949 . S
C700 C706 1.368 . S
C701 C685 1.349 . S
C701 H693 0.950 . S
C701 C699 1.327 . S
C702 C690 1.349 . S
C702 H696 0.950 . S
C702 C703 1.327 . S
C703 H697 0.950 . S
C703 C702 1.327 . S
C703 C707 1.429 . S
C704 C687 1.574 . S
C704 H698 0.949 . S
C704 C708 1.368 . S
C705 C686 1.429 . S
C705 C699 1.429 . S
C705 C706 1.523 . S
C706 C687 1.368 . S
C706 C700 1.368 . S
C706 C705 1.523 . S
C707 C691 1.429 . S
C707 C703 1.429 . S
C707 C708 1.523 . S
C708 C692 1.368 . S
C708 C704 1.368 . S
C708 C707 1.523 . S
H709 C684 0.950 . S
H710 C686 0.950 . S
H711 C687 0.949 . S
H712 C689 0.950 . S
H713 C691 0.950 . S
C714 C715 1.349 . S
C714 C716 1.327 . S
C714 H739 0.950 . S
C715 C714 1.349 . S
C715 C731 1.349 . S
C716 C714 1.327 . S
C716 C735 1.429 . S
C716 H740 0.950 . S
C717 C734 1.574 . S
C717 C736 1.368 . S
C717 H741 0.949 . S
H718 C722 0.949 . S
C719 C720 1.349 . S
C719 C721 1.327 . S
C719 H742 0.950 . S
C720 C719 1.349 . S
C720 C732 1.349 . S
C721 C719 1.327 . S
C721 C737 1.429 . S
C721 H743 0.950 . S
C722 H718 0.949 . S
C722 C730 1.574 . S
C722 C738 1.368 . S
H723 C731 0.950 . S
H724 C729 0.950 . S
H725 C730 0.949 . S
H726 C732 0.950 . S
H727 C733 0.950 . S
H728 C734 0.949 . S
C729 H724 0.950 . S
C729 C731 1.327 . S
C729 C735 1.429 . S
C730 C722 1.574 . S
C730 H725 0.949 . S
C730 C736 1.368 . S
C731 C715 1.349 . S
C731 H723 0.950 . S
C731 C729 1.327 . S
C732 C720 1.349 . S
C732 H726 0.950 . S
C732 C733 1.327 . S
C733 H727 0.950 . S
C733 C732 1.327 . S
C733 C737 1.429 . S
C734 C717 1.574 . S
C734 H728 0.949 . S
C734 C738 1.368 . S
C735 C716 1.429 . S
C735 C729 1.429 . S
C735 C736 1.523 . S
C736 C717 1.368 . S
C736 C730 1.368 . S
C736 C735 1.523 . S
C737 C721 1.429 . S
C737 C733 1.429 . S
C737 C738 1.523 . S
C738 C722 1.368 . S
C738 C734 1.368 . S
C738 C737 1.523 . S
H739 C714 0.950 . S
H740 C716 0.950 . S
H741 C717 0.949 . S
H742 C719 0.950 . S
H743 C721 0.950 . S
C744 C745 1.349 . S
C744 C746 1.327 . S
C744 H769 0.950 . S
C745 C744 1.349 . S
C745 C761 1.349 . S
C746 C744 1.327 . S
C746 C765 1.429 . S
C746 H770 0.950 . S
C747 C764 1.574 . S
C747 C766 1.368 . S
C747 H771 0.949 . S
H748 C752 0.949 . S
C749 C750 1.349 . S
C749 C751 1.327 . S
C749 H772 0.950 . S
C750 C749 1.349 . S
C750 C762 1.349 . S
C751 C749 1.327 . S
C751 C767 1.429 . S
C751 H773 0.950 . S
C752 H748 0.949 . S
C752 C760 1.574 . S
C752 C768 1.368 . S
H753 C761 0.950 . S
H754 C759 0.950 . S
H755 C760 0.949 . S
H756 C762 0.950 . S
H757 C763 0.950 . S
H758 C764 0.949 . S
C759 H754 0.950 . S
C759 C761 1.327 . S
C759 C765 1.429 . S
C760 C752 1.574 . S
C760 H755 0.949 . S
C760 C766 1.368 . S
C761 C745 1.349 . S
C761 H753 0.950 . S
C761 C759 1.327 . S
C762 C750 1.349 . S
C762 H756 0.950 . S
C762 C763 1.327 . S
C763 H757 0.950 . S
C763 C762 1.327 . S
C763 C767 1.429 . S
C764 C747 1.574 . S
C764 H758 0.949 . S
C764 C768 1.368 . S
C765 C746 1.429 . S
C765 C759 1.429 . S
C765 C766 1.523 . S
C766 C747 1.368 . S
C766 C760 1.368 . S
C766 C765 1.523 . S
C767 C751 1.429 . S
C767 C763 1.429 . S
C767 C768 1.523 . S
C768 C752 1.368 . S
C768 C764 1.368 . S
C768 C767 1.523 . S
H769 C744 0.950 . S
H770 C746 0.950 . S
H771 C747 0.949 . S
H772 C749 0.950 . S
H773 C751 0.950 . S
C774 C775 1.349 . S
C774 C776 1.327 . S
C774 H799 0.950 . S
C775 C774 1.349 . S
C775 C791 1.349 . S
C776 C774 1.327 . S
C776 C795 1.429 . S
C776 H800 0.950 . S
C777 C794 1.574 . S
C777 C796 1.368 . S
C777 H801 0.949 . S
H778 C782 0.949 . S
C779 C780 1.349 . S
C779 C781 1.327 . S
C779 H802 0.950 . S
C780 C779 1.349 . S
C780 C792 1.349 . S
C781 C779 1.327 . S
C781 C797 1.429 . S
C781 H803 0.950 . S
C782 H778 0.949 . S
C782 C790 1.574 . S
C782 C798 1.368 . S
H783 C791 0.950 . S
H784 C789 0.950 . S
H785 C790 0.949 . S
H786 C792 0.950 . S
H787 C793 0.950 . S
H788 C794 0.949 . S
C789 H784 0.950 . S
C789 C791 1.327 . S
C789 C795 1.429 . S
C790 C782 1.574 . S
C790 H785 0.949 . S
C790 C796 1.368 . S
C791 C775 1.349 . S
C791 H783 0.950 . S
C791 C789 1.327 . S
C792 C780 1.349 . S
C792 H786 0.950 . S
C792 C793 1.327 . S
C793 H787 0.950 . S
C793 C792 1.327 . S
C793 C797 1.429 . S
C794 C777 1.574 . S
C794 H788 0.949 . S
C794 C798 1.368 . S
C795 C776 1.429 . S
C795 C789 1.429 . S
C795 C796 1.523 . S
C796 C777 1.368 . S
C796 C790 1.368 . S
C796 C795 1.523 . S
C797 C781 1.429 . S
C797 C793 1.429 . S
C797 C798 1.523 . S
C798 C782 1.368 . S
C798 C794 1.368 . S
C798 C797 1.523 . S
H799 C774 0.950 . S
H800 C776 0.950 . S
H801 C777 0.949 . S
H802 C779 0.950 . S
H803 C781 0.950 . S
C804 C805 1.349 . S
C804 C806 1.327 . S
C804 H829 0.950 . S
C805 C804 1.349 . S
C805 C821 1.349 . S
C806 C804 1.327 . S
C806 C825 1.429 . S
C806 H830 0.950 . S
C807 C824 1.574 1_565 S
C807 C826 1.368 . S
C807 H831 0.949 . S
H808 C812 0.949 . S
C809 C810 1.349 . S
C809 C811 1.327 . S
C809 H832 0.950 . S
C810 C809 1.349 . S
C810 C822 1.349 . S
C811 C809 1.327 . S
C811 C827 1.429 . S
C811 H833 0.950 . S
C812 H808 0.949 . S
C812 C820 1.574 1_545 S
C812 C828 1.368 . S
H813 C821 0.950 . S
H814 C819 0.950 . S
H815 C820 0.949 . S
H816 C822 0.950 . S
H817 C823 0.950 . S
H818 C824 0.949 . S
C819 H814 0.950 . S
C819 C821 1.327 . S
C819 C825 1.429 . S
C820 C812 1.574 1_565 S
C820 H815 0.949 . S
C820 C826 1.368 . S
C821 C805 1.349 . S
C821 H813 0.950 . S
C821 C819 1.327 . S
C822 C810 1.349 . S
C822 H816 0.950 . S
C822 C823 1.327 . S
C823 H817 0.950 . S
C823 C822 1.327 . S
C823 C827 1.429 . S
C824 C807 1.574 1_545 S
C824 H818 0.949 . S
C824 C828 1.368 . S
C825 C806 1.429 . S
C825 C819 1.429 . S
C825 C826 1.523 . S
C826 C807 1.368 . S
C826 C820 1.368 . S
C826 C825 1.523 . S
C827 C811 1.429 . S
C827 C823 1.429 . S
C827 C828 1.523 . S
C828 C812 1.368 . S
C828 C824 1.368 . S
C828 C827 1.523 . S
H829 C804 0.950 . S
H830 C806 0.950 . S
H831 C807 0.949 . S
H832 C809 0.950 . S
H833 C811 0.950 . S
C834 C835 1.349 . S
C834 C836 1.327 . S
C834 H859 0.950 . S
C835 C834 1.349 . S
C835 C851 1.349 . S
C836 C834 1.327 . S
C836 C855 1.429 . S
C836 H860 0.950 . S
C837 C854 1.574 1_455 S
C837 C856 1.368 . S
C837 H861 0.949 . S
H838 C842 0.949 . S
C839 C840 1.349 . S
C839 C841 1.327 . S
C839 H862 0.950 . S
C840 C839 1.349 . S
C840 C852 1.349 . S
C841 C839 1.327 . S
C841 C857 1.429 . S
C841 H863 0.950 . S
C842 H838 0.949 . S
C842 C850 1.574 1_655 S
C842 C858 1.368 . S
H843 C851 0.950 . S
H844 C849 0.950 . S
H845 C850 0.949 . S
H846 C852 0.950 . S
H847 C853 0.950 . S
H848 C854 0.949 . S
C849 H844 0.950 . S
C849 C851 1.327 . S
C849 C855 1.429 . S
C850 C842 1.574 1_455 S
C850 H845 0.949 . S
C850 C856 1.368 . S
C851 C835 1.349 . S
C851 H843 0.950 . S
C851 C849 1.327 . S
C852 C840 1.349 . S
C852 H846 0.950 . S
C852 C853 1.327 . S
C853 H847 0.950 . S
C853 C852 1.327 . S
C853 C857 1.429 . S
C854 C837 1.574 1_655 S
C854 H848 0.949 . S
C854 C858 1.368 . S
C855 C836 1.429 . S
C855 C849 1.429 . S
C855 C856 1.523 . S
C856 C837 1.368 . S
C856 C850 1.368 . S
C856 C855 1.523 . S
C857 C841 1.429 . S
C857 C853 1.429 . S
C857 C858 1.523 . S
C858 C842 1.368 . S
C858 C854 1.368 . S
C858 C857 1.523 . S
H859 C834 0.950 . S
H860 C836 0.950 . S
H861 C837 0.949 . S
H862 C839 0.950 . S
H863 C841 0.950 . S
C864 C865 1.349 . S
C864 C866 1.327 . S
C864 H889 0.950 . S
C865 C864 1.349 . S
C865 C881 1.349 . S
C866 C864 1.327 . S
C866 C885 1.429 . S
C866 H890 0.950 . S
C867 C884 1.574 . S
C867 C886 1.368 . S
C867 H891 0.949 . S
H868 C872 0.949 . S
C869 C870 1.349 . S
C869 C871 1.327 . S
C869 H892 0.950 . S
C870 C869 1.349 . S
C870 C882 1.349 . S
C871 C869 1.327 . S
C871 C887 1.429 . S
C871 H893 0.950 . S
C872 H868 0.949 . S
C872 C880 1.574 . S
C872 C888 1.368 . S
H873 C881 0.950 . S
H874 C879 0.950 . S
H875 C880 0.949 . S
H876 C882 0.950 . S
H877 C883 0.950 . S
H878 C884 0.949 . S
C879 H874 0.950 . S
C879 C881 1.327 . S
C879 C885 1.429 . S
C880 C872 1.574 . S
C880 H875 0.949 . S
C880 C886 1.368 . S
C881 C865 1.349 . S
C881 H873 0.950 . S
C881 C879 1.327 . S
C882 C870 1.349 . S
C882 H876 0.950 . S
C882 C883 1.327 . S
C883 H877 0.950 . S
C883 C882 1.327 . S
C883 C887 1.429 . S
C884 C867 1.574 . S
C884 H878 0.949 . S
C884 C888 1.368 . S
C885 C866 1.429 . S
C885 C879 1.429 . S
C885 C886 1.523 . S
C886 C867 1.368 . S
C886 C880 1.368 . S
C886 C885 1.523 . S
C887 C871 1.429 . S
C887 C883 1.429 . S
C887 C888 1.523 . S
C888 C872 1.368 . S
C888 C884 1.368 . S
C888 C887 1.523 . S
H889 C864 0.950 . S
H890 C866 0.950 . S
H891 C867 0.949 . S
H892 C869 0.950 . S
H893 C871 0.950 . S
C894 C895 1.349 . S
C894 C896 1.327 . S
C894 H919 0.950 . S
C895 C894 1.349 . S
C895 C911 1.349 . S
C896 C894 1.327 . S
C896 C915 1.429 . S
C896 H920 0.950 . S
C897 C914 1.574 . S
C897 C916 1.368 . S
C897 H921 0.949 . S
H898 C902 0.949 . S
C899 C900 1.349 . S
C899 C901 1.327 . S
C899 H922 0.950 . S
C900 C899 1.349 . S
C900 C912 1.349 . S
C901 C899 1.327 . S
C901 C917 1.429 . S
C901 H923 0.950 . S
C902 H898 0.949 . S
C902 C910 1.574 . S
C902 C918 1.368 . S
H903 C911 0.950 . S
H904 C909 0.950 . S
H905 C910 0.949 . S
H906 C912 0.950 . S
H907 C913 0.950 . S
H908 C914 0.949 . S
C909 H904 0.950 . S
C909 C911 1.327 . S
C909 C915 1.429 . S
C910 C902 1.574 . S
C910 H905 0.949 . S
C910 C916 1.368 . S
C911 C895 1.349 . S
C911 H903 0.950 . S
C911 C909 1.327 . S
C912 C900 1.349 . S
C912 H906 0.950 . S
C912 C913 1.327 . S
C913 H907 0.950 . S
C913 C912 1.327 . S
C913 C917 1.429 . S
C914 C897 1.574 . S
C914 H908 0.949 . S
C914 C918 1.368 . S
C915 C896 1.429 . S
C915 C909 1.429 . S
C915 C916 1.523 . S
C916 C897 1.368 . S
C916 C910 1.368 . S
C916 C915 1.523 . S
C917 C901 1.429 . S
C917 C913 1.429 . S
C917 C918 1.523 . S
C918 C902 1.368 . S
C918 C914 1.368 . S
C918 C917 1.523 . S
H919 C894 0.950 . S
H920 C896 0.950 . S
H921 C897 0.949 . S
H922 C899 0.950 . S
H923 C901 0.950 . S
C924 C925 1.349 . S
C924 C926 1.327 . S
C924 H949 0.950 . S
C925 C924 1.349 . S
C925 C941 1.349 . S
C926 C924 1.327 . S
C926 C945 1.429 . S
C926 H950 0.950 . S
C927 C944 1.574 . S
C927 C946 1.368 . S
C927 H951 0.949 . S
H928 C932 0.949 . S
C929 C930 1.349 . S
C929 C931 1.327 . S
C929 H952 0.950 . S
C930 C929 1.349 . S
C930 C942 1.349 . S
C931 C929 1.327 . S
C931 C947 1.429 . S
C931 H953 0.950 . S
C932 H928 0.949 . S
C932 C940 1.574 . S
C932 C948 1.368 . S
H933 C941 0.950 . S
H934 C939 0.950 . S
H935 C940 0.949 . S
H936 C942 0.950 . S
H937 C943 0.950 . S
H938 C944 0.949 . S
C939 H934 0.950 . S
C939 C941 1.327 . S
C939 C945 1.429 . S
C940 C932 1.574 . S
C940 H935 0.949 . S
C940 C946 1.368 . S
C941 C925 1.349 . S
C941 H933 0.950 . S
C941 C939 1.327 . S
C942 C930 1.349 . S
C942 H936 0.950 . S
C942 C943 1.327 . S
C943 H937 0.950 . S
C943 C942 1.327 . S
C943 C947 1.429 . S
C944 C927 1.574 . S
C944 H938 0.949 . S
C944 C948 1.368 . S
C945 C926 1.429 . S
C945 C939 1.429 . S
C945 C946 1.523 . S
C946 C927 1.368 . S
C946 C940 1.368 . S
C946 C945 1.523 . S
C947 C931 1.429 . S
C947 C943 1.429 . S
C947 C948 1.523 . S
C948 C932 1.368 . S
C948 C944 1.368 . S
C948 C947 1.523 . S
H949 C924 0.950 . S
H950 C926 0.950 . S
H951 C927 0.949 . S
H952 C929 0.950 . S
H953 C931 0.950 . S
C954 C955 1.349 . S
C954 C956 1.327 . S
C954 H979 0.950 . S
C955 C954 1.349 . S
C955 C971 1.349 . S
C956 C954 1.327 . S
C956 C975 1.429 . S
C956 H980 0.950 . S
C957 C974 1.574 . S
C957 C976 1.368 . S
C957 H981 0.949 . S
H958 C962 0.949 . S
C959 C960 1.349 . S
C959 C961 1.327 . S
C959 H982 0.950 . S
C960 C959 1.349 . S
C960 C972 1.349 . S
C961 C959 1.327 . S
C961 C977 1.429 . S
C961 H983 0.950 . S
C962 H958 0.949 . S
C962 C970 1.574 . S
C962 C978 1.368 . S
H963 C971 0.950 . S
H964 C969 0.950 . S
H965 C970 0.949 . S
H966 C972 0.950 . S
H967 C973 0.950 . S
H968 C974 0.949 . S
C969 H964 0.950 . S
C969 C971 1.327 . S
C969 C975 1.429 . S
C970 C962 1.574 . S
C970 H965 0.949 . S
C970 C976 1.368 . S
C971 C955 1.349 . S
C971 H963 0.950 . S
C971 C969 1.327 . S
C972 C960 1.349 . S
C972 H966 0.950 . S
C972 C973 1.327 . S
C973 H967 0.950 . S
C973 C972 1.327 . S
C973 C977 1.429 . S
C974 C957 1.574 . S
C974 H968 0.949 . S
C974 C978 1.368 . S
C975 C956 1.429 . S
C975 C969 1.429 . S
C975 C976 1.523 . S
C976 C957 1.368 . S
C976 C970 1.368 . S
C976 C975 1.523 . S
C977 C961 1.429 . S
C977 C973 1.429 . S
C977 C978 1.523 . S
C978 C962 1.368 . S
C978 C974 1.368 . S
C978 C977 1.523 . S
H979 C954 0.950 . S
H980 C956 0.950 . S
H981 C957 0.949 . S
H982 C959 0.950 . S
H983 C961 0.950 . S
C984 C985 1.349 . S
C984 C986 1.327 . S
C984 H1009 0.950 . S
C985 C984 1.349 . S
C985 C1001 1.349 . S
C986 C984 1.327 . S
C986 C1005 1.429 . S
C986 H1010 0.950 . S
C987 C1004 1.574 . S
C987 C1006 1.368 . S
C987 H1011 0.949 . S
H988 C992 0.949 . S
C989 C990 1.349 . S
C989 C991 1.327 . S
C989 H1012 0.950 . S
C990 C989 1.349 . S
C990 C1002 1.349 . S
C991 C989 1.327 . S
C991 C1007 1.429 . S
C991 H1013 0.950 . S
C992 H988 0.949 . S
C992 C1000 1.574 . S
C992 C1008 1.368 . S
H993 C1001 0.950 . S
H994 C999 0.950 . S
H995 C1000 0.949 . S
H996 C1002 0.950 . S
H997 C1003 0.950 . S
H998 C1004 0.949 . S
C999 H994 0.950 . S
C999 C1001 1.327 . S
C999 C1005 1.429 . S
C1000 C992 1.574 . S
C1000 H995 0.949 . S
C1000 C1006 1.368 . S
C1001 C985 1.349 . S
C1001 H993 0.950 . S
C1001 C999 1.327 . S
C1002 C990 1.349 . S
C1002 H996 0.950 . S
C1002 C1003 1.327 . S
C1003 H997 0.950 . S
C1003 C1002 1.327 . S
C1003 C1007 1.429 . S
C1004 C987 1.574 . S
C1004 H998 0.949 . S
C1004 C1008 1.368 . S
C1005 C986 1.429 . S
C1005 C999 1.429 . S
C1005 C1006 1.523 . S
C1006 C987 1.368 . S
C1006 C1000 1.368 . S
C1006 C1005 1.523 . S
C1007 C991 1.429 . S
C1007 C1003 1.429 . S
C1007 C1008 1.523 . S
C1008 C992 1.368 . S
C1008 C1004 1.368 . S
C1008 C1007 1.523 . S
H1009 C984 0.950 . S
H1010 C986 0.950 . S
H1011 C987 0.949 . S
H1012 C989 0.950 . S
H1013 C991 0.950 . S
C1014 C1015 1.349 . S
C1014 C1016 1.327 . S
C1014 H1039 0.950 . S
C1015 C1014 1.349 . S
C1015 C1031 1.349 . S
C1016 C1014 1.327 . S
C1016 C1035 1.429 . S
C1016 H1040 0.950 . S
C1017 C1034 1.574 . S
C1017 C1036 1.368 . S
C1017 H1041 0.949 . S
H1018 C1022 0.949 . S
C1019 C1020 1.349 . S
C1019 C1021 1.327 . S
C1019 H1042 0.950 . S
C1020 C1019 1.349 . S
C1020 C1032 1.349 . S
C1021 C1019 1.327 . S
C1021 C1037 1.429 . S
C1021 H1043 0.950 . S
C1022 H1018 0.949 . S
C1022 C1030 1.574 . S
C1022 C1038 1.368 . S
H1023 C1031 0.950 . S
H1024 C1029 0.950 . S
H1025 C1030 0.949 . S
H1026 C1032 0.950 . S
H1027 C1033 0.950 . S
H1028 C1034 0.949 . S
C1029 H1024 0.950 . S
C1029 C1031 1.327 . S
C1029 C1035 1.429 . S
C1030 C1022 1.574 . S
C1030 H1025 0.949 . S
C1030 C1036 1.368 . S
C1031 C1015 1.349 . S
C1031 H1023 0.950 . S
C1031 C1029 1.327 . S
C1032 C1020 1.349 . S
C1032 H1026 0.950 . S
C1032 C1033 1.327 . S
C1033 H1027 0.950 . S
C1033 C1032 1.327 . S
C1033 C1037 1.429 . S
C1034 C1017 1.574 . S
C1034 H1028 0.949 . S
C1034 C1038 1.368 . S
C1035 C1016 1.429 . S
C1035 C1029 1.429 . S
C1035 C1036 1.523 . S
C1036 C1017 1.368 . S
C1036 C1030 1.368 . S
C1036 C1035 1.523 . S
C1037 C1021 1.429 . S
C1037 C1033 1.429 . S
C1037 C1038 1.523 . S
C1038 C1022 1.368 . S
C1038 C1034 1.368 . S
C1038 C1037 1.523 . S
H1039 C1014 0.950 . S
H1040 C1016 0.950 . S
H1041 C1017 0.949 . S
H1042 C1019 0.950 . S
H1043 C1021 0.950 . S
C1044 C1045 1.349 . S
C1044 C1046 1.327 . S
C1044 H1069 0.950 . S
C1045 C1044 1.349 . S
C1045 C1061 1.349 . S
C1046 C1044 1.327 . S
C1046 C1065 1.429 . S
C1046 H1070 0.950 . S
C1047 C1064 1.604 . S
C1047 C1066 1.368 1_556 S
C1047 H1071 0.949 . S
H1048 C1052 0.949 . S
C1049 C1050 1.349 . S
C1049 C1051 1.327 . S
C1049 H1072 0.950 . S
C1050 C1049 1.349 . S
C1050 C1062 1.349 . S
C1051 C1049 1.327 . S
C1051 C1067 1.429 . S
C1051 H1073 0.950 . S
C1052 H1048 0.949 . S
C1052 C1060 1.604 . S
C1052 C1068 1.368 1_554 S
H1053 C1061 0.950 . S
H1054 C1059 0.950 . S
H1055 C1060 0.949 . S
H1056 C1062 0.950 . S
H1057 C1063 0.950 . S
H1058 C1064 0.949 . S
C1059 H1054 0.950 . S
C1059 C1061 1.327 . S
C1059 C1065 1.429 . S
C1060 C1052 1.604 . S
C1060 H1055 0.949 . S
C1060 C1066 1.340 1_455 S
C1061 C1045 1.349 . S
C1061 H1053 0.950 . S
C1061 C1059 1.327 . S
C1062 C1050 1.349 . S
C1062 H1056 0.950 . S
C1062 C1063 1.327 . S
C1063 H1057 0.950 . S
C1063 C1062 1.327 . S
C1063 C1067 1.429 . S
C1064 C1047 1.604 . S
C1064 H1058 0.949 . S
C1064 C1068 1.340 1_655 S
C1065 C1046 1.429 . S
C1065 C1059 1.429 . S
C1065 C1066 1.523 . S
C1066 C1047 1.368 1_554 S
C1066 C1060 1.340 1_655 S
C1066 C1065 1.523 . S
C1067 C1051 1.429 . S
C1067 C1063 1.429 . S
C1067 C1068 1.523 . S
C1068 C1052 1.368 1_556 S
C1068 C1064 1.340 1_455 S
C1068 C1067 1.523 . S
H1069 C1044 0.950 . S
H1070 C1046 0.950 . S
H1071 C1047 0.949 . S
H1072 C1049 0.950 . S
H1073 C1051 0.950 . S
C1074 C1075 1.349 . S
C1074 C1076 1.327 . S
C1074 H1099 0.950 . S
C1075 C1074 1.349 . S
C1075 C1091 1.349 . S
C1076 C1074 1.327 . S
C1076 C1095 1.429 . S
C1076 H1100 0.950 . S
C1077 C1094 1.574 . S
C1077 C1096 1.368 1_554 S
C1077 H1101 0.949 . S
H1078 C1082 0.949 . S
C1079 C1080 1.349 . S
C1079 C1081 1.327 . S
C1079 H1102 0.950 . S
C1080 C1079 1.349 . S
C1080 C1092 1.349 . S
C1081 C1079 1.327 . S
C1081 C1097 1.429 . S
C1081 H1103 0.950 . S
C1082 H1078 0.949 . S
C1082 C1090 1.574 . S
C1082 C1098 1.368 1_556 S
H1083 C1091 0.950 . S
H1084 C1089 0.950 . S
H1085 C1090 0.949 . S
H1086 C1092 0.950 . S
H1087 C1093 0.950 . S
H1088 C1094 0.949 . S
C1089 H1084 0.950 . S
C1089 C1091 1.327 . S
C1089 C1095 1.429 . S
C1090 C1082 1.574 . S
C1090 H1085 0.949 . S
C1090 C1096 1.368 . S
C1091 C1075 1.349 . S
C1091 H1083 0.950 . S
C1091 C1089 1.327 . S
C1092 C1080 1.349 . S
C1092 H1086 0.950 . S
C1092 C1093 1.327 . S
C1093 H1087 0.950 . S
C1093 C1092 1.327 . S
C1093 C1097 1.429 . S
C1094 C1077 1.574 . S
C1094 H1088 0.949 . S
C1094 C1098 1.368 . S
C1095 C1076 1.429 . S
C1095 C1089 1.429 . S
C1095 C1096 1.523 . S
C1096 C1077 1.368 1_556 S
C1096 C1090 1.368 . S
C1096 C1095 1.523 . S
C1097 C1081 1.429 . S
C1097 C1093 1.429 . S
C1097 C1098 1.523 . S
C1098 C1082 1.368 1_554 S
C1098 C1094 1.368 . S
C1098 C1097 1.523 . S
H1099 C1074 0.950 . S
H1100 C1076 0.950 . S
H1101 C1077 0.949 . S
H1102 C1079 0.950 . S
H1103 C1081 0.950 . S
C1104 C1105 1.349 . S
C1104 C1106 1.327 . S
C1104 H1129 0.950 . S
C1105 C1104 1.349 . S
C1105 C1121 1.349 . S
C1106 C1104 1.327 . S
C1106 C1125 1.429 . S
C1106 H1130 0.950 . S
C1107 C1124 1.582 . S
C1107 C1126 1.368 1_556 S
C1107 H1131 0.949 . S
H1108 C1112 0.949 . S
C1109 C1110 1.349 . S
C1109 C1111 1.327 . S
C1109 H1132 0.950 . S
C1110 C1109 1.349 . S
C1110 C1122 1.349 . S
C1111 C1109 1.327 . S
C1111 C1127 1.429 . S
C1111 H1133 0.950 . S
C1112 H1108 0.949 . S
C1112 C1120 1.582 . S
C1112 C1128 1.368 1_554 S
H1113 C1121 0.950 . S
H1114 C1119 0.950 . S
H1115 C1120 0.947 . S
H1116 C1122 0.950 . S
H1117 C1123 0.950 . S
H1118 C1124 0.947 . S
C1119 H1114 0.950 . S
C1119 C1121 1.327 . S
C1119 C1125 1.429 . S
C1120 C1112 1.582 . S
C1120 H1115 0.947 . S
C1120 C1126 1.361 1_565 S
C1121 C1105 1.349 . S
C1121 H1113 0.950 . S
C1121 C1119 1.327 . S
C1122 C1110 1.349 . S
C1122 H1116 0.950 . S
C1122 C1123 1.327 . S
C1123 H1117 0.950 . S
C1123 C1122 1.327 . S
C1123 C1127 1.429 . S
C1124 C1107 1.582 . S
C1124 H1118 0.947 . S
C1124 C1128 1.361 1_545 S
C1125 C1106 1.429 . S
C1125 C1119 1.429 . S
C1125 C1126 1.523 . S
C1126 C1107 1.368 1_554 S
C1126 C1120 1.361 1_545 S
C1126 C1125 1.523 . S
C1127 C1111 1.429 . S
C1127 C1123 1.429 . S
C1127 C1128 1.523 . S
C1128 C1112 1.368 1_556 S
C1128 C1124 1.361 1_565 S
C1128 C1127 1.523 . S
H1129 C1104 0.950 . S
H1130 C1106 0.950 . S
H1131 C1107 0.949 . S
H1132 C1109 0.950 . S
H1133 C1111 0.950 . S
C1134 C1135 1.349 . S
C1134 C1136 1.327 . S
C1134 H1159 0.950 . S
C1135 C1134 1.349 . S
C1135 C1151 1.349 . S
C1136 C1134 1.327 . S
C1136 C1155 1.429 . S
C1136 H1160 0.950 . S
C1137 C1154 1.574 1_554 S
C1137 C1156 1.368 1_655 S
C1137 H1161 0.949 . S
H1138 C1142 0.949 . S
C1139 C1140 1.349 . S
C1139 C1141 1.327 . S
C1139 H1162 0.950 . S
C1140 C1139 1.349 . S
C1140 C1152 1.349 . S
C1141 C1139 1.327 . S
C1141 C1157 1.429 . S
C1141 H1163 0.950 . S
C1142 H1138 0.949 . S
C1142 C1150 1.574 1_556 S
C1142 C1158 1.368 1_455 S
H1143 C1151 0.964 . S
H1144 C1149 0.950 1_655 S
H1145 C1150 0.949 . S
H1146 C1152 0.964 . S
H1147 C1153 0.950 1_455 S
H1148 C1154 0.949 . S
C1149 H1144 0.950 1_455 S
C1149 C1151 1.327 . S
C1149 C1155 1.429 . S
C1150 C1142 1.574 1_554 S
C1150 H1145 0.949 . S
C1150 C1156 1.368 . S
C1151 C1135 1.349 . S
C1151 H1143 0.964 . S
C1151 C1149 1.327 . S
C1152 C1140 1.349 . S
C1152 H1146 0.964 . S
C1152 C1153 1.327 . S
C1153 H1147 0.950 1_655 S
C1153 C1152 1.327 . S
C1153 C1157 1.429 . S
C1154 C1137 1.574 1_556 S
C1154 H1148 0.949 . S
C1154 C1158 1.368 . S
C1155 C1136 1.429 . S
C1155 C1149 1.429 . S
C1155 C1156 1.523 . S
C1156 C1137 1.368 1_455 S
C1156 C1150 1.368 . S
C1156 C1155 1.523 . S
C1157 C1141 1.429 . S
C1157 C1153 1.429 . S
C1157 C1158 1.523 . S
C1158 C1142 1.368 1_655 S
C1158 C1154 1.368 . S
C1158 C1157 1.523 . S
H1159 C1134 0.950 . S
H1160 C1136 0.950 . S
H1161 C1137 0.949 . S
H1162 C1139 0.950 . S
H1163 C1141 0.950 . S
C1164 C1165 1.349 . S
C1164 C1166 1.327 . S
C1164 H1189 0.950 . S
C1165 C1164 1.349 . S
C1165 C1181 1.349 . S
C1166 C1164 1.327 . S
C1166 C1185 1.429 . S
C1166 H1190 0.950 . S
C1167 C1184 1.574 1_556 S
C1167 C1186 1.368 . S
C1167 H1191 0.949 . S
H1168 C1172 0.949 . S
C1169 C1170 1.349 . S
C1169 C1171 1.327 . S
C1169 H1192 0.950 . S
C1170 C1169 1.349 . S
C1170 C1182 1.349 . S
C1171 C1169 1.327 . S
C1171 C1187 1.429 . S
C1171 H1193 0.950 . S
C1172 H1168 0.949 . S
C1172 C1180 1.574 1_554 S
C1172 C1188 1.368 . S
H1173 C1181 0.950 . S
H1174 C1179 0.950 . S
H1175 C1180 0.949 . S
H1176 C1182 0.950 . S
H1177 C1183 0.950 . S
H1178 C1184 0.949 . S
C1179 H1174 0.950 . S
C1179 C1181 1.327 . S
C1179 C1185 1.429 . S
C1180 C1172 1.574 1_556 S
C1180 H1175 0.949 . S
C1180 C1186 1.368 . S
C1181 C1165 1.349 . S
C1181 H1173 0.950 . S
C1181 C1179 1.327 . S
C1182 C1170 1.349 . S
C1182 H1176 0.950 . S
C1182 C1183 1.327 . S
C1183 H1177 0.950 . S
C1183 C1182 1.327 . S
C1183 C1187 1.429 . S
C1184 C1167 1.574 1_554 S
C1184 H1178 0.949 . S
C1184 C1188 1.368 . S
C1185 C1166 1.429 . S
C1185 C1179 1.429 . S
C1185 C1186 1.523 . S
C1186 C1167 1.368 . S
C1186 C1180 1.368 . S
C1186 C1185 1.523 . S
C1187 C1171 1.429 . S
C1187 C1183 1.429 . S
C1187 C1188 1.523 . S
C1188 C1172 1.368 . S
C1188 C1184 1.368 . S
C1188 C1187 1.523 . S
H1189 C1164 0.950 . S
H1190 C1166 0.950 . S
H1191 C1167 0.949 . S
H1192 C1169 0.950 . S
H1193 C1171 0.950 . S
C1194 C1195 1.349 . S
C1194 C1196 1.327 . S
C1194 H1219 0.950 . S
C1195 C1194 1.349 . S
C1195 C1211 1.349 . S
C1196 C1194 1.327 . S
C1196 C1215 1.429 . S
C1196 H1220 0.950 . S
C1197 C1214 1.574 1_556 S
C1197 C1216 1.368 . S
C1197 H1221 0.949 . S
H1198 C1202 0.949 . S
C1199 C1200 1.349 . S
C1199 C1201 1.327 . S
C1199 H1222 0.950 . S
C1200 C1199 1.349 . S
C1200 C1212 1.349 . S
C1201 C1199 1.327 . S
C1201 C1217 1.429 . S
C1201 H1223 0.950 . S
C1202 H1198 0.949 . S
C1202 C1210 1.574 1_554 S
C1202 C1218 1.368 . S
H1203 C1211 0.950 . S
H1204 C1209 0.950 . S
H1205 C1210 0.949 . S
H1206 C1212 0.950 . S
H1207 C1213 0.950 . S
H1208 C1214 0.949 . S
C1209 H1204 0.950 . S
C1209 C1211 1.327 . S
C1209 C1215 1.429 . S
C1210 C1202 1.574 1_556 S
C1210 H1205 0.949 . S
C1210 C1216 1.368 1_565 S
C1211 C1195 1.349 . S
C1211 H1203 0.950 . S
C1211 C1209 1.327 . S
C1212 C1200 1.349 . S
C1212 H1206 0.950 . S
C1212 C1213 1.327 . S
C1213 H1207 0.950 . S
C1213 C1212 1.327 . S
C1213 C1217 1.429 . S
C1214 C1197 1.574 1_554 S
C1214 H1208 0.949 . S
C1214 C1218 1.368 1_545 S
C1215 C1196 1.429 . S
C1215 C1209 1.429 . S
C1215 C1216 1.523 . S
C1216 C1197 1.368 . S
C1216 C1210 1.368 1_545 S
C1216 C1215 1.523 . S
C1217 C1201 1.429 . S
C1217 C1213 1.429 . S
C1217 C1218 1.523 . S
C1218 C1202 1.368 . S
C1218 C1214 1.368 1_565 S
C1218 C1217 1.523 . S
H1219 C1194 0.950 . S
H1220 C1196 0.950 . S
H1221 C1197 0.949 . S
H1222 C1199 0.950 . S
H1223 C1201 0.950 . S
C1224 C1225 1.349 . S
C1224 C1226 1.327 . S
C1224 H1249 0.950 . S
C1225 C1224 1.349 . S
C1225 C1241 1.349 . S
C1226 C1224 1.327 . S
C1226 C1245 1.429 . S
C1226 H1250 0.950 . S
C1227 C1244 1.574 . S
C1227 C1246 1.368 . S
C1227 H1251 0.949 . S
H1228 C1232 0.949 . S
C1229 C1230 1.349 . S
C1229 C1231 1.327 . S
C1229 H1252 0.950 . S
C1230 C1229 1.349 . S
C1230 C1242 1.349 . S
C1231 C1229 1.327 . S
C1231 C1247 1.429 . S
C1231 H1253 0.950 . S
C1232 H1228 0.949 . S
C1232 C1240 1.574 . S
C1232 C1248 1.368 . S
H1233 C1241 0.950 . S
H1234 C1239 0.950 . S
H1235 C1240 0.949 . S
H1236 C1242 0.950 . S
H1237 C1243 0.950 . S
H1238 C1244 0.949 . S
C1239 H1234 0.950 . S
C1239 C1241 1.327 . S
C1239 C1245 1.429 . S
C1240 C1232 1.574 . S
C1240 H1235 0.949 . S
C1240 C1246 1.368 . S
C1241 C1225 1.349 . S
C1241 H1233 0.950 . S
C1241 C1239 1.327 . S
C1242 C1230 1.349 . S
C1242 H1236 0.950 . S
C1242 C1243 1.327 . S
C1243 H1237 0.950 . S
C1243 C1242 1.327 . S
C1243 C1247 1.429 . S
C1244 C1227 1.574 . S
C1244 H1238 0.949 . S
C1244 C1248 1.368 . S
C1245 C1226 1.429 . S
C1245 C1239 1.429 . S
C1245 C1246 1.523 . S
C1246 C1227 1.368 . S
C1246 C1240 1.368 . S
C1246 C1245 1.523 . S
C1247 C1231 1.429 . S
C1247 C1243 1.429 . S
C1247 C1248 1.523 . S
C1248 C1232 1.368 . S
C1248 C1244 1.368 . S
C1248 C1247 1.523 . S
H1249 C1224 0.950 . S
H1250 C1226 0.950 . S
H1251 C1227 0.949 . S
H1252 C1229 0.950 . S
H1253 C1231 0.950 . S
C1254 C1255 1.349 . S
C1254 C1256 1.327 . S
C1254 H1279 0.950 . S
C1255 C1254 1.349 . S
C1255 C1271 1.349 . S
C1256 C1254 1.327 . S
C1256 C1275 1.429 . S
C1256 H1280 0.950 . S
C1257 C1274 1.574 . S
C1257 C1276 1.368 . S
C1257 H1281 0.949 . S
H1258 C1262 0.949 . S
C1259 C1260 1.349 . S
C1259 C1261 1.327 . S
C1259 H1282 0.950 . S
C1260 C1259 1.349 . S
C1260 C1272 1.349 . S
C1261 C1259 1.327 . S
C1261 C1277 1.429 . S
C1261 H1283 0.950 . S
C1262 H1258 0.949 . S
C1262 C1270 1.574 . S
C1262 C1278 1.368 . S
H1263 C1271 0.950 . S
H1264 C1269 0.950 . S
H1265 C1270 0.949 . S
H1266 C1272 0.950 . S
H1267 C1273 0.950 . S
H1268 C1274 0.949 . S
C1269 H1264 0.950 . S
C1269 C1271 1.327 . S
C1269 C1275 1.429 . S
C1270 C1262 1.574 . S
C1270 H1265 0.949 . S
C1270 C1276 1.368 . S
C1271 C1255 1.349 . S
C1271 H1263 0.950 . S
C1271 C1269 1.327 . S
C1272 C1260 1.349 . S
C1272 H1266 0.950 . S
C1272 C1273 1.327 . S
C1273 H1267 0.950 . S
C1273 C1272 1.327 . S
C1273 C1277 1.429 . S
C1274 C1257 1.574 . S
C1274 H1268 0.949 . S
C1274 C1278 1.368 . S
C1275 C1256 1.429 . S
C1275 C1269 1.429 . S
C1275 C1276 1.523 . S
C1276 C1257 1.368 . S
C1276 C1270 1.368 . S
C1276 C1275 1.523 . S
C1277 C1261 1.429 . S
C1277 C1273 1.429 . S
C1277 C1278 1.523 . S
C1278 C1262 1.368 . S
C1278 C1274 1.368 . S
C1278 C1277 1.523 . S
H1279 C1254 0.950 . S
H1280 C1256 0.950 . S
H1281 C1257 0.949 . S
H1282 C1259 0.950 . S
H1283 C1261 0.950 . S
C1284 C1285 1.349 . S
C1284 C1286 1.327 . S
C1284 H1309 0.950 . S
C1285 C1284 1.349 . S
C1285 C1301 1.349 . S
C1286 C1284 1.327 . S
C1286 C1305 1.429 . S
C1286 H1310 0.950 . S
C1287 C1304 1.574 . S
C1287 C1306 1.368 . S
C1287 H1311 0.949 . S
H1288 C1292 0.949 . S
C1289 C1290 1.349 . S
C1289 C1291 1.327 . S
C1289 H1312 0.950 . S
C1290 C1289 1.349 . S
C1290 C1302 1.349 . S
C1291 C1289 1.327 . S
C1291 C1307 1.429 . S
C1291 H1313 0.950 . S
C1292 H1288 0.949 . S
C1292 C1300 1.574 . S
C1292 C1308 1.368 . S
H1293 C1301 0.950 . S
H1294 C1299 0.950 . S
H1295 C1300 0.949 . S
H1296 C1302 0.950 . S
H1297 C1303 0.950 . S
H1298 C1304 0.949 . S
C1299 H1294 0.950 . S
C1299 C1301 1.327 . S
C1299 C1305 1.429 . S
C1300 C1292 1.574 . S
C1300 H1295 0.949 . S
C1300 C1306 1.368 . S
C1301 C1285 1.349 . S
C1301 H1293 0.950 . S
C1301 C1299 1.327 . S
C1302 C1290 1.349 . S
C1302 H1296 0.950 . S
C1302 C1303 1.327 . S
C1303 H1297 0.950 . S
C1303 C1302 1.327 . S
C1303 C1307 1.429 . S
C1304 C1287 1.574 . S
C1304 H1298 0.949 . S
C1304 C1308 1.368 . S
C1305 C1286 1.429 . S
C1305 C1299 1.429 . S
C1305 C1306 1.523 . S
C1306 C1287 1.368 . S
C1306 C1300 1.368 . S
C1306 C1305 1.523 . S
C1307 C1291 1.429 . S
C1307 C1303 1.429 . S
C1307 C1308 1.523 . S
C1308 C1292 1.368 . S
C1308 C1304 1.368 . S
C1308 C1307 1.523 . S
H1309 C1284 0.950 . S
H1310 C1286 0.950 . S
H1311 C1287 0.949 . S
H1312 C1289 0.950 . S
H1313 C1291 0.950 . S
C1314 C1315 1.349 . S
C1314 C1316 1.327 . S
C1314 H1339 0.950 . S
C1315 C1314 1.349 . S
C1315 C1331 1.349 . S
C1316 C1314 1.327 . S
C1316 C1335 1.429 . S
C1316 H1340 0.950 . S
C1317 C1334 1.574 . S
C1317 C1336 1.368 . S
C1317 H1341 0.949 . S
H1318 C1322 0.949 . S
C1319 C1320 1.349 . S
C1319 C1321 1.327 . S
C1319 H1342 0.950 . S
C1320 C1319 1.349 . S
C1320 C1332 1.349 . S
C1321 C1319 1.327 . S
C1321 C1337 1.429 . S
C1321 H1343 0.950 . S
C1322 H1318 0.949 . S
C1322 C1330 1.574 . S
C1322 C1338 1.368 . S
H1323 C1331 0.950 . S
H1324 C1329 0.950 . S
H1325 C1330 0.949 . S
H1326 C1332 0.950 . S
H1327 C1333 0.950 . S
H1328 C1334 0.949 . S
C1329 H1324 0.950 . S
C1329 C1331 1.327 . S
C1329 C1335 1.429 . S
C1330 C1322 1.574 . S
C1330 H1325 0.949 . S
C1330 C1336 1.368 . S
C1331 C1315 1.349 . S
C1331 H1323 0.950 . S
C1331 C1329 1.327 . S
C1332 C1320 1.349 . S
C1332 H1326 0.950 . S
C1332 C1333 1.327 . S
C1333 H1327 0.950 . S
C1333 C1332 1.327 . S
C1333 C1337 1.429 . S
C1334 C1317 1.574 . S
C1334 H1328 0.949 . S
C1334 C1338 1.368 . S
C1335 C1316 1.429 . S
C1335 C1329 1.429 . S
C1335 C1336 1.523 . S
C1336 C1317 1.368 . S
C1336 C1330 1.368 . S
C1336 C1335 1.523 . S
C1337 C1321 1.429 . S
C1337 C1333 1.429 . S
C1337 C1338 1.523 . S
C1338 C1322 1.368 . S
C1338 C1334 1.368 . S
C1338 C1337 1.523 . S
H1339 C1314 0.950 . S
H1340 C1316 0.950 . S
H1341 C1317 0.949 . S
H1342 C1319 0.950 . S
H1343 C1321 0.950 . S
C1344 C1345 1.349 . S
C1344 C1346 1.327 . S
C1344 H1369 0.950 . S
C1345 C1344 1.349 . S
C1345 C1361 1.349 . S
C1346 C1344 1.327 . S
C1346 C1365 1.429 . S
C1346 H1370 0.950 . S
C1347 C1364 1.574 . S
C1347 C1366 1.368 . S
C1347 H1371 0.949 . S
H1348 C1352 0.949 . S
C1349 C1350 1.349 . S
C1349 C1351 1.327 . S
C1349 H1372 0.950 . S
C1350 C1349 1.349 . S
C1350 C1362 1.349 . S
C1351 C1349 1.327 . S
C1351 C1367 1.429 . S
C1351 H1373 0.950 . S
C1352 H1348 0.949 . S
C1352 C1360 1.574 . S
C1352 C1368 1.368 . S
H1353 C1361 0.950 . S
H1354 C1359 0.950 . S
H1355 C1360 0.949 . S
H1356 C1362 0.950 . S
H1357 C1363 0.950 . S
H1358 C1364 0.949 . S
C1359 H1354 0.950 . S
C1359 C1361 1.327 . S
C1359 C1365 1.429 . S
C1360 C1352 1.574 . S
C1360 H1355 0.949 . S
C1360 C1366 1.368 . S
C1361 C1345 1.349 . S
C1361 H1353 0.950 . S
C1361 C1359 1.327 . S
C1362 C1350 1.349 . S
C1362 H1356 0.950 . S
C1362 C1363 1.327 . S
C1363 H1357 0.950 . S
C1363 C1362 1.327 . S
C1363 C1367 1.429 . S
C1364 C1347 1.574 . S
C1364 H1358 0.949 . S
C1364 C1368 1.368 . S
C1365 C1346 1.429 . S
C1365 C1359 1.429 . S
C1365 C1366 1.523 . S
C1366 C1347 1.368 . S
C1366 C1360 1.368 . S
C1366 C1365 1.523 . S
C1367 C1351 1.429 . S
C1367 C1363 1.429 . S
C1367 C1368 1.523 . S
C1368 C1352 1.368 . S
C1368 C1364 1.368 . S
C1368 C1367 1.523 . S
H1369 C1344 0.950 . S
H1370 C1346 0.950 . S
H1371 C1347 0.949 . S
H1372 C1349 0.950 . S
H1373 C1351 0.950 . S
C1374 C1375 1.349 . S
C1374 C1376 1.327 . S
C1374 H1399 0.950 . S
C1375 C1374 1.349 . S
C1375 C1391 1.349 . S
C1376 C1374 1.327 . S
C1376 C1395 1.429 . S
C1376 H1400 0.950 . S
C1377 C1394 1.574 . S
C1377 C1396 1.368 . S
C1377 H1401 0.949 . S
H1378 C1382 0.949 . S
C1379 C1380 1.349 . S
C1379 C1381 1.327 . S
C1379 H1402 0.950 . S
C1380 C1379 1.349 . S
C1380 C1392 1.349 . S
C1381 C1379 1.327 . S
C1381 C1397 1.429 . S
C1381 H1403 0.950 . S
C1382 H1378 0.949 . S
C1382 C1390 1.574 . S
C1382 C1398 1.368 . S
H1383 C1391 0.950 . S
H1384 C1389 0.950 . S
H1385 C1390 0.949 . S
H1386 C1392 0.950 . S
H1387 C1393 0.950 . S
H1388 C1394 0.949 . S
C1389 H1384 0.950 . S
C1389 C1391 1.327 . S
C1389 C1395 1.429 . S
C1390 C1382 1.574 . S
C1390 H1385 0.949 . S
C1390 C1396 1.368 . S
C1391 C1375 1.349 . S
C1391 H1383 0.950 . S
C1391 C1389 1.327 . S
C1392 C1380 1.349 . S
C1392 H1386 0.950 . S
C1392 C1393 1.327 . S
C1393 H1387 0.950 . S
C1393 C1392 1.327 . S
C1393 C1397 1.429 . S
C1394 C1377 1.574 . S
C1394 H1388 0.949 . S
C1394 C1398 1.368 . S
C1395 C1376 1.429 . S
C1395 C1389 1.429 . S
C1395 C1396 1.523 . S
C1396 C1377 1.368 . S
C1396 C1390 1.368 . S
C1396 C1395 1.523 . S
C1397 C1381 1.429 . S
C1397 C1393 1.429 . S
C1397 C1398 1.523 . S
C1398 C1382 1.368 . S
C1398 C1394 1.368 . S
C1398 C1397 1.523 . S
H1399 C1374 0.950 . S
H1400 C1376 0.950 . S
H1401 C1377 0.949 . S
H1402 C1379 0.950 . S
H1403 C1381 0.950 . S
C1404 C1405 1.349 . S
C1404 C1406 1.327 . S
C1404 H1429 0.950 . S
C1405 C1404 1.349 . S
C1405 C1421 1.349 . S
C1406 C1404 1.327 . S
C1406 C1425 1.429 . S
C1406 H1430 0.950 . S
C1407 C1424 1.574 . S
C1407 C1426 1.368 . S
C1407 H1431 0.949 . S
H1408 C1412 0.949 . S
C1409 C1410 1.349 . S
C1409 C1411 1.327 . S
C1409 H1432 0.950 . S
C1410 C1409 1.349 . S
C1410 C1422 1.349 . S
C1411 C1409 1.327 . S
C1411 C1427 1.429 . S
C1411 H1433 0.950 . S
C1412 H1408 0.949 . S
C1412 C1420 1.574 . S
C1412 C1428 1.368 . S
H1413 C1421 0.950 . S
H1414 C1419 0.950 . S
H1415 C1420 0.949 . S
H1416 C1422 0.950 . S
H1417 C1423 0.950 . S
H1418 C1424 0.949 . S
C1419 H1414 0.950 . S
C1419 C1421 1.327 . S
C1419 C1425 1.429 . S
C1420 C1412 1.574 . S
C1420 H1415 0.949 . S
C1420 C1426 1.368 . S
C1421 C1405 1.349 . S
C1421 H1413 0.950 . S
C1421 C1419 1.327 . S
C1422 C1410 1.349 . S
C1422 H1416 0.950 . S
C1422 C1423 1.327 . S
C1423 H1417 0.950 . S
C1423 C1422 1.327 . S
C1423 C1427 1.429 . S
C1424 C1407 1.574 . S
C1424 H1418 0.949 . S
C1424 C1428 1.368 . S
C1425 C1406 1.429 . S
C1425 C1419 1.429 . S
C1425 C1426 1.523 . S
C1426 C1407 1.368 . S
C1426 C1420 1.368 . S
C1426 C1425 1.523 . S
C1427 C1411 1.429 . S
C1427 C1423 1.429 . S
C1427 C1428 1.523 . S
C1428 C1412 1.368 . S
C1428 C1424 1.368 . S
C1428 C1427 1.523 . S
H1429 C1404 0.950 . S
H1430 C1406 0.950 . S
H1431 C1407 0.949 . S
H1432 C1409 0.950 . S
H1433 C1411 0.950 . S
C1434 C1435 1.349 . S
C1434 C1436 1.327 . S
C1434 H1459 0.950 . S
C1435 C1434 1.349 . S
C1435 C1451 1.349 . S
C1436 C1434 1.327 . S
C1436 C1455 1.429 . S
C1436 H1460 0.950 . S
C1437 C1454 1.574 . S
C1437 C1456 1.368 . S
C1437 H1461 0.949 . S
H1438 C1442 0.949 . S
C1439 C1440 1.349 . S
C1439 C1441 1.327 . S
C1439 H1462 0.950 . S
C1440 C1439 1.349 . S
C1440 C1452 1.349 . S
C1441 C1439 1.327 . S
C1441 C1457 1.429 . S
C1441 H1463 0.950 . S
C1442 H1438 0.949 . S
C1442 C1450 1.574 . S
C1442 C1458 1.368 . S
H1443 C1451 0.950 . S
H1444 C1449 0.950 . S
H1445 C1450 0.949 . S
H1446 C1452 0.950 . S
H1447 C1453 0.950 . S
H1448 C1454 0.926 1_565 S
C1449 H1444 0.950 . S
C1449 C1451 1.327 . S
C1449 C1455 1.429 . S
C1450 C1442 1.574 . S
C1450 H1445 0.949 . S
C1450 C1456 1.368 . S
C1451 C1435 1.349 . S
C1451 H1443 0.950 . S
C1451 C1449 1.327 . S
C1452 C1440 1.349 . S
C1452 H1446 0.950 . S
C1452 C1453 1.327 . S
C1453 H1447 0.950 . S
C1453 C1452 1.327 . S
C1453 C1457 1.429 . S
C1454 C1437 1.574 . S
C1454 H1448 0.926 1_545 S
C1454 C1458 1.368 . S
C1455 C1436 1.429 . S
C1455 C1449 1.429 . S
C1455 C1456 1.523 . S
C1456 C1437 1.368 . S
C1456 C1450 1.368 . S
C1456 C1455 1.523 . S
C1457 C1441 1.429 . S
C1457 C1453 1.429 . S
C1457 C1458 1.523 1_565 S
C1458 C1442 1.368 . S
C1458 C1454 1.368 . S
C1458 C1457 1.523 1_545 S
H1459 C1434 0.950 . S
H1460 C1436 0.950 . S
H1461 C1437 0.949 . S
H1462 C1439 0.950 . S
H1463 C1441 0.950 . S
C1464 C1465 1.349 . S
C1464 C1466 1.327 . S
C1464 H1489 0.950 . S
C1465 C1464 1.349 . S
C1465 C1481 1.349 . S
C1466 C1464 1.327 . S
C1466 C1485 1.429 . S
C1466 H1490 0.950 . S
C1467 C1484 1.574 . S
C1467 C1486 1.368 . S
C1467 H1491 0.949 . S
H1468 C1472 0.956 . S
C1469 C1470 1.349 . S
C1469 C1471 1.327 . S
C1469 H1492 0.950 . S
C1470 C1469 1.349 . S
C1470 C1482 1.349 . S
C1471 C1469 1.327 . S
C1471 C1487 1.429 . S
C1471 H1493 0.950 . S
C1472 H1468 0.956 . S
C1472 C1480 1.574 . S
C1472 C1488 1.368 . S
H1473 C1481 0.950 . S
H1474 C1479 0.950 . S
H1475 C1480 0.949 . S
H1476 C1482 0.950 . S
H1477 C1483 0.950 . S
H1478 C1484 0.949 . S
C1479 H1474 0.950 . S
C1479 C1481 1.327 . S
C1479 C1485 1.429 . S
C1480 C1472 1.574 . S
C1480 H1475 0.949 . S
C1480 C1486 1.368 . S
C1481 C1465 1.349 . S
C1481 H1473 0.950 . S
C1481 C1479 1.327 . S
C1482 C1470 1.349 . S
C1482 H1476 0.950 . S
C1482 C1483 1.327 . S
C1483 H1477 0.950 . S
C1483 C1482 1.327 . S
C1483 C1487 1.429 . S
C1484 C1467 1.574 . S
C1484 H1478 0.949 . S
C1484 C1488 1.368 . S
C1485 C1466 1.429 . S
C1485 C1479 1.429 . S
C1485 C1486 1.523 . S
C1486 C1467 1.368 . S
C1486 C1480 1.368 . S
C1486 C1485 1.523 . S
C1487 C1471 1.429 . S
C1487 C1483 1.429 . S
C1487 C1488 1.523 1_455 S
C1488 C1472 1.368 . S
C1488 C1484 1.368 . S
C1488 C1487 1.523 1_655 S
H1489 C1464 0.950 . S
H1490 C1466 0.950 . S
H1491 C1467 0.949 . S
H1492 C1469 0.950 . S
H1493 C1471 0.950 . S
C1494 C1495 1.349 . S
C1494 C1496 1.327 . S
C1494 H1519 0.950 . S
C1495 C1494 1.349 . S
C1495 C1511 1.349 . S
C1496 C1494 1.327 . S
C1496 C1515 1.429 . S
C1496 H1520 0.950 . S
C1497 C1514 1.574 . S
C1497 C1516 1.368 . S
C1497 H1521 0.949 . S
H1498 C1502 0.949 . S
C1499 C1500 1.349 . S
C1499 C1501 1.327 . S
C1499 H1522 0.950 . S
C1500 C1499 1.349 . S
C1500 C1512 1.349 . S
C1501 C1499 1.327 . S
C1501 C1517 1.429 . S
C1501 H1523 0.950 . S
C1502 H1498 0.949 . S
C1502 C1510 1.574 . S
C1502 C1518 1.368 . S
H1503 C1511 0.950 . S
H1504 C1509 0.950 . S
H1505 C1510 0.949 . S
H1506 C1512 0.950 . S
H1507 C1513 0.950 . S
H1508 C1514 0.949 . S
C1509 H1504 0.950 . S
C1509 C1511 1.327 . S
C1509 C1515 1.429 . S
C1510 C1502 1.574 . S
C1510 H1505 0.949 . S
C1510 C1516 1.368 . S
C1511 C1495 1.349 . S
C1511 H1503 0.950 . S
C1511 C1509 1.327 . S
C1512 C1500 1.349 . S
C1512 H1506 0.950 . S
C1512 C1513 1.327 . S
C1513 H1507 0.950 . S
C1513 C1512 1.327 . S
C1513 C1517 1.429 . S
C1514 C1497 1.574 . S
C1514 H1508 0.949 . S
C1514 C1518 1.368 . S
C1515 C1496 1.429 . S
C1515 C1509 1.429 . S
C1515 C1516 1.523 . S
C1516 C1497 1.368 . S
C1516 C1510 1.368 . S
C1516 C1515 1.523 . S
C1517 C1501 1.429 . S
C1517 C1513 1.429 . S
C1517 C1518 1.523 . S
C1518 C1502 1.368 . S
C1518 C1514 1.368 . S
C1518 C1517 1.523 . S
H1519 C1494 0.950 . S
H1520 C1496 0.950 . S
H1521 C1497 0.949 . S
H1522 C1499 0.950 . S
H1523 C1501 0.950 . S
C1524 C1525 1.349 . S
C1524 C1526 1.327 . S
C1524 H1549 0.950 . S
C1525 C1524 1.349 . S
C1525 C1541 1.349 . S
C1526 C1524 1.327 . S
C1526 C1545 1.429 . S
C1526 H1550 0.950 . S
C1527 C1544 1.574 . S
C1527 C1546 1.368 . S
C1527 H1551 0.949 . S
H1528 C1532 0.949 . S
C1529 C1530 1.349 . S
C1529 C1531 1.327 . S
C1529 H1552 0.950 . S
C1530 C1529 1.349 . S
C1530 C1542 1.349 . S
C1531 C1529 1.327 . S
C1531 C1547 1.429 . S
C1531 H1553 0.950 . S
C1532 H1528 0.949 . S
C1532 C1540 1.574 . S
C1532 C1548 1.368 . S
H1533 C1541 0.950 . S
H1534 C1539 0.950 . S
H1535 C1540 0.949 1_545 S
H1536 C1542 0.950 . S
H1537 C1543 0.950 . S
H1538 C1544 0.949 . S
C1539 H1534 0.950 . S
C1539 C1541 1.327 . S
C1539 C1545 1.429 . S
C1540 C1532 1.574 . S
C1540 H1535 0.949 1_565 S
C1540 C1546 1.368 . S
C1541 C1525 1.349 . S
C1541 H1533 0.950 . S
C1541 C1539 1.327 . S
C1542 C1530 1.349 . S
C1542 H1536 0.950 . S
C1542 C1543 1.327 . S
C1543 H1537 0.950 . S
C1543 C1542 1.327 . S
C1543 C1547 1.429 . S
C1544 C1527 1.574 . S
C1544 H1538 0.949 . S
C1544 C1548 1.368 . S
C1545 C1526 1.429 . S
C1545 C1539 1.429 . S
C1545 C1546 1.523 1_545 S
C1546 C1527 1.368 . S
C1546 C1540 1.368 . S
C1546 C1545 1.523 1_565 S
C1547 C1531 1.429 . S
C1547 C1543 1.429 . S
C1547 C1548 1.523 . S
C1548 C1532 1.368 . S
C1548 C1544 1.368 . S
C1548 C1547 1.523 . S
H1549 C1524 0.950 . S
H1550 C1526 0.950 . S
H1551 C1527 0.949 . S
H1552 C1529 0.950 . S
H1553 C1531 0.950 . S
C1554 C1555 1.349 . S
C1554 C1556 1.327 . S
C1554 H1579 0.950 . S
C1555 C1554 1.349 . S
C1555 C1571 1.349 . S
C1556 C1554 1.327 . S
C1556 C1575 1.429 . S
C1556 H1580 0.950 . S
C1557 C1574 1.574 . S
C1557 C1576 1.368 . S
C1557 H1581 0.949 . S
H1558 C1562 0.951 . S
C1559 C1560 1.349 . S
C1559 C1561 1.327 . S
C1559 H1582 0.950 . S
C1560 C1559 1.349 . S
C1560 C1572 1.349 . S
C1561 C1559 1.327 . S
C1561 C1577 1.429 . S
C1561 H1583 0.950 . S
C1562 H1558 0.951 . S
C1562 C1570 1.574 . S
C1562 C1578 1.368 . S
H1563 C1571 0.950 . S
H1564 C1569 0.950 . S
H1565 C1570 0.949 . S
H1566 C1572 0.950 . S
H1567 C1573 0.950 . S
H1568 C1574 0.949 . S
C1569 H1564 0.950 . S
C1569 C1571 1.327 . S
C1569 C1575 1.429 . S
C1570 C1562 1.574 . S
C1570 H1565 0.949 . S
C1570 C1576 1.368 . S
C1571 C1555 1.349 . S
C1571 H1563 0.950 . S
C1571 C1569 1.327 . S
C1572 C1560 1.349 . S
C1572 H1566 0.950 . S
C1572 C1573 1.327 . S
C1573 H1567 0.950 . S
C1573 C1572 1.327 . S
C1573 C1577 1.429 . S
C1574 C1557 1.574 . S
C1574 H1568 0.949 . S
C1574 C1578 1.368 . S
C1575 C1556 1.429 . S
C1575 C1569 1.429 . S
C1575 C1576 1.523 . S
C1576 C1557 1.368 . S
C1576 C1570 1.368 . S
C1576 C1575 1.523 . S
C1577 C1561 1.429 . S
C1577 C1573 1.429 . S
C1577 C1578 1.523 1_655 S
C1578 C1562 1.368 . S
C1578 C1574 1.368 . S
C1578 C1577 1.523 1_455 S
H1579 C1554 0.950 . S
H1580 C1556 0.950 . S
H1581 C1557 0.949 . S
H1582 C1559 0.950 . S
H1583 C1561 0.950 . S
C1584 C1585 1.349 . S
C1584 C1586 1.327 . S
C1584 H1609 0.950 . S
C1585 C1584 1.349 . S
C1585 C1601 1.349 . S
C1586 C1584 1.327 . S
C1586 C1605 1.429 . S
C1586 H1610 0.950 . S
C1587 C1604 1.574 . S
C1587 C1606 1.368 . S
C1587 H1611 0.949 . S
H1588 C1592 0.949 . S
C1589 C1590 1.349 . S
C1589 C1591 1.327 . S
C1589 H1612 0.950 . S
C1590 C1589 1.349 . S
C1590 C1602 1.349 . S
C1591 C1589 1.327 . S
C1591 C1607 1.429 . S
C1591 H1613 0.950 . S
C1592 H1588 0.949 . S
C1592 C1600 1.574 . S
C1592 C1608 1.368 . S
H1593 C1601 0.950 . S
H1594 C1599 0.950 . S
H1595 C1600 0.949 . S
H1596 C1602 0.950 . S
H1597 C1603 0.950 . S
H1598 C1604 0.949 . S
C1599 H1594 0.950 . S
C1599 C1601 1.327 . S
C1599 C1605 1.429 . S
C1600 C1592 1.574 . S
C1600 H1595 0.949 . S
C1600 C1606 1.368 . S
C1601 C1585 1.349 . S
C1601 H1593 0.950 . S
C1601 C1599 1.327 . S
C1602 C1590 1.349 . S
C1602 H1596 0.950 . S
C1602 C1603 1.327 . S
C1603 H1597 0.950 . S
C1603 C1602 1.327 . S
C1603 C1607 1.429 . S
C1604 C1587 1.574 . S
C1604 H1598 0.949 . S
C1604 C1608 1.368 . S
C1605 C1586 1.429 . S
C1605 C1599 1.429 . S
C1605 C1606 1.523 . S
C1606 C1587 1.368 . S
C1606 C1600 1.368 . S
C1606 C1605 1.523 . S
C1607 C1591 1.429 . S
C1607 C1603 1.429 . S
C1607 C1608 1.523 . S
C1608 C1592 1.368 . S
C1608 C1604 1.368 . S
C1608 C1607 1.523 . S
H1609 C1584 0.950 . S
H1610 C1586 0.950 . S
H1611 C1587 0.949 . S
H1612 C1589 0.950 . S
H1613 C1591 0.950 . S
C1614 C1615 1.349 . S
C1614 C1616 1.327 . S
C1614 H1639 0.950 . S
C1615 C1614 1.349 . S
C1615 C1631 1.349 . S
C1616 C1614 1.327 . S
C1616 C1635 1.429 . S
C1616 H1640 0.950 . S
C1617 C1634 1.574 . S
C1617 C1636 1.368 . S
C1617 H1641 0.949 . S
H1618 C1622 0.949 . S
C1619 C1620 1.349 . S
C1619 C1621 1.327 . S
C1619 H1642 0.950 . S
C1620 C1619 1.349 . S
C1620 C1632 1.349 . S
C1621 C1619 1.327 . S
C1621 C1637 1.429 . S
C1621 H1643 0.950 . S
C1622 H1618 0.949 . S
C1622 C1630 1.574 . S
C1622 C1638 1.368 . S
H1623 C1631 0.950 . S
H1624 C1629 0.950 . S
H1625 C1630 0.949 . S
H1626 C1632 0.950 . S
H1627 C1633 0.950 . S
H1628 C1634 0.949 . S
C1629 H1624 0.950 . S
C1629 C1631 1.327 . S
C1629 C1635 1.429 . S
C1630 C1622 1.574 . S
C1630 H1625 0.949 . S
C1630 C1636 1.368 . S
C1631 C1615 1.349 . S
C1631 H1623 0.950 . S
C1631 C1629 1.327 . S
C1632 C1620 1.349 . S
C1632 H1626 0.950 . S
C1632 C1633 1.327 . S
C1633 H1627 0.950 . S
C1633 C1632 1.327 . S
C1633 C1637 1.429 . S
C1634 C1617 1.574 . S
C1634 H1628 0.949 . S
C1634 C1638 1.368 . S
C1635 C1616 1.429 . S
C1635 C1629 1.429 . S
C1635 C1636 1.523 . S
C1636 C1617 1.368 . S
C1636 C1630 1.368 . S
C1636 C1635 1.523 . S
C1637 C1621 1.429 . S
C1637 C1633 1.429 . S
C1637 C1638 1.523 . S
C1638 C1622 1.368 . S
C1638 C1634 1.368 . S
C1638 C1637 1.523 . S
H1639 C1614 0.950 . S
H1640 C1616 0.950 . S
H1641 C1617 0.949 . S
H1642 C1619 0.950 . S
H1643 C1621 0.950 . S
C1644 C1645 1.349 . S
C1644 C1646 1.327 . S
C1644 H1669 0.950 . S
C1645 C1644 1.349 . S
C1645 C1661 1.349 . S
C1646 C1644 1.327 . S
C1646 C1665 1.429 . S
C1646 H1670 0.950 . S
C1647 C1664 1.574 . S
C1647 C1666 1.368 . S
C1647 H1671 0.949 . S
H1648 C1652 0.949 . S
C1649 C1650 1.349 . S
C1649 C1651 1.327 . S
C1649 H1672 0.950 . S
C1650 C1649 1.349 . S
C1650 C1662 1.349 . S
C1651 C1649 1.327 . S
C1651 C1667 1.429 . S
C1651 H1673 0.950 . S
C1652 H1648 0.949 . S
C1652 C1660 1.574 . S
C1652 C1668 1.368 . S
H1653 C1661 0.950 . S
H1654 C1659 0.950 . S
H1655 C1660 0.949 . S
H1656 C1662 0.950 . S
H1657 C1663 0.950 . S
H1658 C1664 0.949 . S
C1659 H1654 0.950 . S
C1659 C1661 1.327 . S
C1659 C1665 1.429 . S
C1660 C1652 1.574 . S
C1660 H1655 0.949 . S
C1660 C1666 1.368 . S
C1661 C1645 1.349 . S
C1661 H1653 0.950 . S
C1661 C1659 1.327 . S
C1662 C1650 1.349 . S
C1662 H1656 0.950 . S
C1662 C1663 1.327 . S
C1663 H1657 0.950 . S
C1663 C1662 1.327 . S
C1663 C1667 1.429 . S
C1664 C1647 1.574 . S
C1664 H1658 0.949 . S
C1664 C1668 1.368 . S
C1665 C1646 1.429 . S
C1665 C1659 1.429 . S
C1665 C1666 1.523 . S
C1666 C1647 1.368 . S
C1666 C1660 1.368 . S
C1666 C1665 1.523 . S
C1667 C1651 1.429 . S
C1667 C1663 1.429 . S
C1667 C1668 1.523 . S
C1668 C1652 1.368 . S
C1668 C1664 1.368 . S
C1668 C1667 1.523 . S
H1669 C1644 0.950 . S
H1670 C1646 0.950 . S
H1671 C1647 0.949 . S
H1672 C1649 0.950 . S
H1673 C1651 0.950 . S
C1674 C1675 1.349 . S
C1674 C1676 1.327 . S
C1674 H1699 0.950 . S
C1675 C1674 1.349 . S
C1675 C1691 1.349 . S
C1676 C1674 1.327 . S
C1676 C1695 1.429 . S
C1676 H1700 0.950 . S
C1677 C1694 1.574 . S
C1677 C1696 1.368 . S
C1677 H1701 0.949 . S
H1678 C1682 0.949 . S
C1679 C1680 1.349 . S
C1679 C1681 1.327 . S
C1679 H1702 0.950 . S
C1680 C1679 1.349 . S
C1680 C1692 1.349 . S
C1681 C1679 1.327 . S
C1681 C1697 1.429 . S
C1681 H1703 0.950 . S
C1682 H1678 0.949 . S
C1682 C1690 1.574 . S
C1682 C1698 1.368 . S
H1683 C1691 0.950 . S
H1684 C1689 0.950 . S
H1685 C1690 0.949 . S
H1686 C1692 0.950 . S
H1687 C1693 0.950 . S
H1688 C1694 0.949 . S
C1689 H1684 0.950 . S
C1689 C1691 1.327 . S
C1689 C1695 1.429 . S
C1690 C1682 1.574 . S
C1690 H1685 0.949 . S
C1690 C1696 1.368 . S
C1691 C1675 1.349 . S
C1691 H1683 0.950 . S
C1691 C1689 1.327 . S
C1692 C1680 1.349 . S
C1692 H1686 0.950 . S
C1692 C1693 1.327 . S
C1693 H1687 0.950 . S
C1693 C1692 1.327 . S
C1693 C1697 1.429 . S
C1694 C1677 1.574 . S
C1694 H1688 0.949 . S
C1694 C1698 1.368 . S
C1695 C1676 1.429 . S
C1695 C1689 1.429 . S
C1695 C1696 1.523 . S
C1696 C1677 1.368 . S
C1696 C1690 1.368 . S
C1696 C1695 1.523 . S
C1697 C1681 1.429 . S
C1697 C1693 1.429 . S
C1697 C1698 1.523 . S
C1698 C1682 1.368 . S
C1698 C1694 1.368 . S
C1698 C1697 1.523 . S
H1699 C1674 0.950 . S
H1700 C1676 0.950 . S
H1701 C1677 0.949 . S
H1702 C1679 0.950 . S
H1703 C1681 0.950 . S
C1704 C1705 1.349 . S
C1704 C1706 1.327 . S
C1704 H1729 0.950 . S
C1705 C1704 1.349 . S
C1705 C1721 1.349 . S
C1706 C1704 1.327 . S
C1706 C1725 1.429 . S
C1706 H1730 0.950 . S
C1707 C1724 1.574 . S
C1707 C1726 1.368 . S
C1707 H1731 0.949 . S
H1708 C1712 0.949 . S
C1709 C1710 1.349 . S
C1709 C1711 1.327 . S
C1709 H1732 0.950 . S
C1710 C1709 1.349 . S
C1710 C1722 1.349 . S
C1711 C1709 1.327 . S
C1711 C1727 1.429 . S
C1711 H1733 0.950 . S
C1712 H1708 0.949 . S
C1712 C1720 1.574 . S
C1712 C1728 1.368 . S
H1713 C1721 0.950 . S
H1714 C1719 0.950 . S
H1715 C1720 0.949 . S
H1716 C1722 0.950 . S
H1717 C1723 0.950 . S
H1718 C1724 0.949 . S
C1719 H1714 0.950 . S
C1719 C1721 1.327 . S
C1719 C1725 1.429 . S
C1720 C1712 1.574 . S
C1720 H1715 0.949 . S
C1720 C1726 1.368 . S
C1721 C1705 1.349 . S
C1721 H1713 0.950 . S
C1721 C1719 1.327 . S
C1722 C1710 1.349 . S
C1722 H1716 0.950 . S
C1722 C1723 1.327 . S
C1723 H1717 0.950 . S
C1723 C1722 1.327 . S
C1723 C1727 1.429 . S
C1724 C1707 1.574 . S
C1724 H1718 0.949 . S
C1724 C1728 1.368 . S
C1725 C1706 1.429 . S
C1725 C1719 1.429 . S
C1725 C1726 1.523 . S
C1726 C1707 1.368 . S
C1726 C1720 1.368 . S
C1726 C1725 1.523 . S
C1727 C1711 1.429 . S
C1727 C1723 1.429 . S
C1727 C1728 1.523 . S
C1728 C1712 1.368 . S
C1728 C1724 1.368 . S
C1728 C1727 1.523 . S
H1729 C1704 0.950 . S
H1730 C1706 0.950 . S
H1731 C1707 0.949 . S
H1732 C1709 0.950 . S
H1733 C1711 0.950 . S
C1734 C1735 1.349 . S
C1734 C1736 1.327 . S
C1734 H1759 0.950 . S
C1735 C1734 1.349 . S
C1735 C1751 1.349 . S
C1736 C1734 1.327 . S
C1736 C1755 1.429 . S
C1736 H1760 0.950 . S
C1737 C1754 1.574 . S
C1737 C1756 1.368 . S
C1737 H1761 0.949 . S
H1738 C1742 0.949 . S
C1739 C1740 1.349 . S
C1739 C1741 1.327 . S
C1739 H1762 0.950 . S
C1740 C1739 1.349 . S
C1740 C1752 1.349 . S
C1741 C1739 1.327 . S
C1741 C1757 1.429 . S
C1741 H1763 0.950 . S
C1742 H1738 0.949 . S
C1742 C1750 1.574 . S
C1742 C1758 1.368 . S
H1743 C1751 0.950 . S
H1744 C1749 0.950 . S
H1745 C1750 0.949 . S
H1746 C1752 0.950 . S
H1747 C1753 0.950 . S
H1748 C1754 0.949 . S
C1749 H1744 0.950 . S
C1749 C1751 1.327 . S
C1749 C1755 1.429 . S
C1750 C1742 1.574 . S
C1750 H1745 0.949 . S
C1750 C1756 1.368 . S
C1751 C1735 1.349 . S
C1751 H1743 0.950 . S
C1751 C1749 1.327 . S
C1752 C1740 1.349 . S
C1752 H1746 0.950 . S
C1752 C1753 1.327 . S
C1753 H1747 0.950 . S
C1753 C1752 1.327 . S
C1753 C1757 1.429 . S
C1754 C1737 1.574 . S
C1754 H1748 0.949 . S
C1754 C1758 1.368 . S
C1755 C1736 1.429 . S
C1755 C1749 1.429 . S
C1755 C1756 1.523 . S
C1756 C1737 1.368 . S
C1756 C1750 1.368 . S
C1756 C1755 1.523 . S
C1757 C1741 1.429 . S
C1757 C1753 1.429 . S
C1757 C1758 1.523 . S
C1758 C1742 1.368 . S
C1758 C1754 1.368 . S
C1758 C1757 1.523 . S
H1759 C1734 0.950 . S
H1760 C1736 0.950 . S
H1761 C1737 0.949 . S
H1762 C1739 0.950 . S
H1763 C1741 0.950 . S
C1764 C1765 1.349 . S
C1764 C1766 1.327 . S
C1764 H1789 0.950 . S
C1765 C1764 1.349 . S
C1765 C1781 1.349 . S
C1766 C1764 1.327 . S
C1766 C1785 1.429 . S
C1766 H1790 0.950 . S
C1767 C1784 1.574 . S
C1767 C1786 1.368 . S
C1767 H1791 0.949 . S
H1768 C1772 0.949 . S
C1769 C1770 1.349 . S
C1769 C1771 1.327 . S
C1769 H1792 0.950 . S
C1770 C1769 1.349 . S
C1770 C1782 1.349 . S
C1771 C1769 1.327 . S
C1771 C1787 1.429 . S
C1771 H1793 0.950 . S
C1772 H1768 0.949 . S
C1772 C1780 1.574 . S
C1772 C1788 1.368 . S
H1773 C1781 0.950 . S
H1774 C1779 0.950 . S
H1775 C1780 0.949 . S
H1776 C1782 0.950 . S
H1777 C1783 0.950 . S
H1778 C1784 0.949 . S
C1779 H1774 0.950 . S
C1779 C1781 1.327 . S
C1779 C1785 1.429 . S
C1780 C1772 1.574 . S
C1780 H1775 0.949 . S
C1780 C1786 1.368 . S
C1781 C1765 1.349 . S
C1781 H1773 0.950 . S
C1781 C1779 1.327 . S
C1782 C1770 1.349 . S
C1782 H1776 0.950 . S
C1782 C1783 1.327 . S
C1783 H1777 0.950 . S
C1783 C1782 1.327 . S
C1783 C1787 1.429 . S
C1784 C1767 1.574 . S
C1784 H1778 0.949 . S
C1784 C1788 1.368 . S
C1785 C1766 1.429 . S
C1785 C1779 1.429 . S
C1785 C1786 1.523 . S
C1786 C1767 1.368 . S
C1786 C1780 1.368 . S
C1786 C1785 1.523 . S
C1787 C1771 1.429 . S
C1787 C1783 1.429 . S
C1787 C1788 1.523 . S
C1788 C1772 1.368 . S
C1788 C1784 1.368 . S
C1788 C1787 1.523 . S
H1789 C1764 0.950 . S
H1790 C1766 0.950 . S
H1791 C1767 0.949 . S
H1792 C1769 0.950 . S
H1793 C1771 0.950 . S
C1794 C1795 1.349 . S
C1794 C1796 1.327 . S
C1794 H1819 0.950 . S
C1795 C1794 1.349 . S
C1795 C1811 1.349 . S
C1796 C1794 1.327 . S
C1796 C1815 1.429 . S
C1796 H1820 0.950 . S
C1797 C1814 1.574 . S
C1797 C1816 1.368 . S
C1797 H1821 0.949 . S
H1798 C1802 0.949 . S
C1799 C1800 1.349 . S
C1799 C1801 1.327 . S
C1799 H1822 0.950 . S
C1800 C1799 1.349 . S
C1800 C1812 1.349 . S
C1801 C1799 1.327 . S
C1801 C1817 1.429 . S
C1801 H1823 0.950 . S
C1802 H1798 0.949 . S
C1802 C1810 1.574 . S
C1802 C1818 1.368 . S
H1803 C1811 0.950 . S
H1804 C1809 0.950 . S
H1805 C1810 0.949 . S
H1806 C1812 0.950 . S
H1807 C1813 0.950 . S
H1808 C1814 0.949 . S
C1809 H1804 0.950 . S
C1809 C1811 1.327 . S
C1809 C1815 1.429 . S
C1810 C1802 1.574 . S
C1810 H1805 0.949 . S
C1810 C1816 1.368 . S
C1811 C1795 1.349 . S
C1811 H1803 0.950 . S
C1811 C1809 1.327 . S
C1812 C1800 1.349 . S
C1812 H1806 0.950 . S
C1812 C1813 1.327 . S
C1813 H1807 0.950 . S
C1813 C1812 1.327 . S
C1813 C1817 1.429 . S
C1814 C1797 1.574 . S
C1814 H1808 0.949 . S
C1814 C1818 1.368 . S
C1815 C1796 1.429 . S
C1815 C1809 1.429 . S
C1815 C1816 1.523 . S
C1816 C1797 1.368 . S
C1816 C1810 1.368 . S
C1816 C1815 1.523 . S
C1817 C1801 1.429 . S
C1817 C1813 1.429 . S
C1817 C1818 1.523 . S
C1818 C1802 1.368 . S
C1818 C1814 1.368 . S
C1818 C1817 1.523 . S
H1819 C1794 0.950 . S
H1820 C1796 0.950 . S
H1821 C1797 0.949 . S
H1822 C1799 0.950 . S
H1823 C1801 0.950 . S
C1824 C1825 1.349 . S
C1824 C1826 1.327 . S
C1824 H1849 0.950 . S
C1825 C1824 1.349 . S
C1825 C1841 1.349 . S
C1826 C1824 1.327 . S
C1826 C1845 1.429 . S
C1826 H1850 0.950 . S
C1827 C1844 1.574 . S
C1827 C1846 1.368 . S
C1827 H1851 0.949 . S
H1828 C1832 0.949 . S
C1829 C1830 1.349 . S
C1829 C1831 1.327 . S
C1829 H1852 0.950 . S
C1830 C1829 1.349 . S
C1830 C1842 1.349 . S
C1831 C1829 1.327 . S
C1831 C1847 1.429 . S
C1831 H1853 0.950 . S
C1832 H1828 0.949 . S
C1832 C1840 1.574 . S
C1832 C1848 1.368 . S
H1833 C1841 0.950 . S
H1834 C1839 0.950 . S
H1835 C1840 0.949 . S
H1836 C1842 0.950 . S
H1837 C1843 0.950 . S
H1838 C1844 0.949 . S
C1839 H1834 0.950 . S
C1839 C1841 1.327 . S
C1839 C1845 1.429 . S
C1840 C1832 1.574 . S
C1840 H1835 0.949 . S
C1840 C1846 1.368 . S
C1841 C1825 1.349 . S
C1841 H1833 0.950 . S
C1841 C1839 1.327 . S
C1842 C1830 1.349 . S
C1842 H1836 0.950 . S
C1842 C1843 1.327 . S
C1843 H1837 0.950 . S
C1843 C1842 1.327 . S
C1843 C1847 1.429 . S
C1844 C1827 1.574 . S
C1844 H1838 0.949 . S
C1844 C1848 1.368 . S
C1845 C1826 1.429 . S
C1845 C1839 1.429 . S
C1845 C1846 1.523 . S
C1846 C1827 1.368 . S
C1846 C1840 1.368 . S
C1846 C1845 1.523 . S
C1847 C1831 1.429 . S
C1847 C1843 1.429 . S
C1847 C1848 1.523 . S
C1848 C1832 1.368 . S
C1848 C1844 1.368 . S
C1848 C1847 1.523 . S
H1849 C1824 0.950 . S
H1850 C1826 0.950 . S
H1851 C1827 0.949 . S
H1852 C1829 0.950 . S
H1853 C1831 0.950 . S
C1854 C1855 1.349 . S
C1854 C1856 1.327 . S
C1854 H1879 0.950 . S
C1855 C1854 1.349 . S
C1855 C1871 1.349 . S
C1856 C1854 1.327 . S
C1856 C1875 1.429 . S
C1856 H1880 0.950 . S
C1857 C1874 1.574 . S
C1857 C1876 1.368 . S
C1857 H1881 0.949 . S
H1858 C1862 0.949 . S
C1859 C1860 1.349 . S
C1859 C1861 1.327 . S
C1859 H1882 0.950 . S
C1860 C1859 1.349 . S
C1860 C1872 1.349 . S
C1861 C1859 1.327 . S
C1861 C1877 1.429 . S
C1861 H1883 0.950 . S
C1862 H1858 0.949 . S
C1862 C1870 1.574 . S
C1862 C1878 1.368 . S
H1863 C1871 0.950 . S
H1864 C1869 0.950 . S
H1865 C1870 0.949 . S
H1866 C1872 0.950 . S
H1867 C1873 0.950 . S
H1868 C1874 0.949 . S
C1869 H1864 0.950 . S
C1869 C1871 1.327 . S
C1869 C1875 1.429 . S
C1870 C1862 1.574 . S
C1870 H1865 0.949 . S
C1870 C1876 1.368 . S
C1871 C1855 1.349 . S
C1871 H1863 0.950 . S
C1871 C1869 1.327 . S
C1872 C1860 1.349 . S
C1872 H1866 0.950 . S
C1872 C1873 1.327 . S
C1873 H1867 0.950 . S
C1873 C1872 1.327 . S
C1873 C1877 1.429 . S
C1874 C1857 1.574 . S
C1874 H1868 0.949 . S
C1874 C1878 1.368 . S
C1875 C1856 1.429 . S
C1875 C1869 1.429 . S
C1875 C1876 1.523 . S
C1876 C1857 1.368 . S
C1876 C1870 1.368 . S
C1876 C1875 1.523 . S
C1877 C1861 1.429 . S
C1877 C1873 1.429 . S
C1877 C1878 1.523 . S
C1878 C1862 1.368 . S
C1878 C1874 1.368 . S
C1878 C1877 1.523 . S
H1879 C1854 0.950 . S
H1880 C1856 0.950 . S
H1881 C1857 0.949 . S
H1882 C1859 0.950 . S
H1883 C1861 0.950 . S
C1884 C1885 1.349 . S
C1884 C1886 1.327 . S
C1884 H1909 0.950 . S
C1885 C1884 1.349 . S
C1885 C1901 1.349 . S
C1886 C1884 1.327 . S
C1886 C1905 1.429 . S
C1886 H1910 0.950 . S
C1887 C1904 1.574 . S
C1887 C1906 1.368 . S
C1887 H1911 0.949 . S
H1888 C1892 0.949 . S
C1889 C1890 1.349 . S
C1889 C1891 1.327 . S
C1889 H1912 0.950 . S
C1890 C1889 1.349 . S
C1890 C1902 1.349 . S
C1891 C1889 1.327 . S
C1891 C1907 1.429 . S
C1891 H1913 0.950 . S
C1892 H1888 0.949 . S
C1892 C1900 1.574 . S
C1892 C1908 1.368 . S
H1893 C1901 0.950 . S
H1894 C1899 0.950 . S
H1895 C1900 0.949 . S
H1896 C1902 0.950 . S
H1897 C1903 0.950 . S
H1898 C1904 0.949 . S
C1899 H1894 0.950 . S
C1899 C1901 1.327 . S
C1899 C1905 1.429 . S
C1900 C1892 1.574 . S
C1900 H1895 0.949 . S
C1900 C1906 1.368 . S
C1901 C1885 1.349 . S
C1901 H1893 0.950 . S
C1901 C1899 1.327 . S
C1902 C1890 1.349 . S
C1902 H1896 0.950 . S
C1902 C1903 1.327 . S
C1903 H1897 0.950 . S
C1903 C1902 1.327 . S
C1903 C1907 1.429 . S
C1904 C1887 1.574 . S
C1904 H1898 0.949 . S
C1904 C1908 1.368 . S
C1905 C1886 1.429 . S
C1905 C1899 1.429 . S
C1905 C1906 1.523 . S
C1906 C1887 1.368 . S
C1906 C1900 1.368 . S
C1906 C1905 1.523 . S
C1907 C1891 1.429 . S
C1907 C1903 1.429 . S
C1907 C1908 1.523 . S
C1908 C1892 1.368 . S
C1908 C1904 1.368 . S
C1908 C1907 1.523 . S
H1909 C1884 0.950 . S
H1910 C1886 0.950 . S
H1911 C1887 0.949 . S
H1912 C1889 0.950 . S
H1913 C1891 0.950 . S
C1914 C1915 1.349 . S
C1914 C1916 1.327 . S
C1914 H1939 0.950 . S
C1915 C1914 1.349 . S
C1915 C1931 1.349 . S
C1916 C1914 1.327 . S
C1916 C1935 1.429 . S
C1916 H1940 0.950 . S
C1917 C1934 1.574 . S
C1917 C1936 1.368 . S
C1917 H1941 0.949 . S
H1918 C1922 0.949 . S
C1919 C1920 1.349 . S
C1919 C1921 1.327 . S
C1919 H1942 0.950 . S
C1920 C1919 1.349 . S
C1920 C1932 1.349 . S
C1921 C1919 1.327 . S
C1921 C1937 1.429 . S
C1921 H1943 0.950 . S
C1922 H1918 0.949 . S
C1922 C1930 1.574 . S
C1922 C1938 1.368 . S
H1923 C1931 0.950 . S
H1924 C1929 0.950 . S
H1925 C1930 0.949 . S
H1926 C1932 0.950 . S
H1927 C1933 0.950 . S
H1928 C1934 0.949 . S
C1929 H1924 0.950 . S
C1929 C1931 1.327 . S
C1929 C1935 1.429 . S
C1930 C1922 1.574 . S
C1930 H1925 0.949 . S
C1930 C1936 1.368 . S
C1931 C1915 1.349 . S
C1931 H1923 0.950 . S
C1931 C1929 1.327 . S
C1932 C1920 1.349 . S
C1932 H1926 0.950 . S
C1932 C1933 1.327 . S
C1933 H1927 0.950 . S
C1933 C1932 1.327 . S
C1933 C1937 1.429 . S
C1934 C1917 1.574 . S
C1934 H1928 0.949 . S
C1934 C1938 1.368 . S
C1935 C1916 1.429 . S
C1935 C1929 1.429 . S
C1935 C1936 1.523 . S
C1936 C1917 1.368 . S
C1936 C1930 1.368 . S
C1936 C1935 1.523 . S
C1937 C1921 1.429 . S
C1937 C1933 1.429 . S
C1937 C1938 1.523 . S
C1938 C1922 1.368 . S
C1938 C1934 1.368 . S
C1938 C1937 1.523 . S
H1939 C1914 0.950 . S
H1940 C1916 0.950 . S
H1941 C1917 0.949 . S
H1942 C1919 0.950 . S
H1943 C1921 0.950 . S
C595 N310 0.662 . S
C600 N13 0.662 . S
C625 N343 0.661 . S
C630 N46 0.661 . S
C655 N376 0.661 . S
C660 N79 0.661 . S
C685 N112 0.662 . S
C690 N409 0.662 . S
C715 N442 0.661 . S
C720 N145 0.661 . S
C745 N475 0.661 . S
C750 N178 0.661 . S
C775 N211 0.661 . S
C780 N508 0.661 . S
C805 N541 0.661 . S
C810 N244 0.661 . S
C835 N574 0.661 . S
C840 N277 0.661 . S
C865 C579 1.930 . S
C870 C18 1.930 . S
C895 C513 1.930 . S
C900 C51 1.930 . S
C925 C84 1.931 . S
C930 C546 1.931 . S
C955 C249 1.930 . S
C960 C117 1.930 . S
C985 C282 1.931 . S
C990 C150 1.931 . S
C1015 C183 1.930 . S
C1020 C216 1.930 . S
C1045 C315 1.930 . S
C1050 C447 1.930 . S
C1075 C480 1.931 . S
C1080 C348 1.931 . S
C1105 C381 1.930 . S
C1110 C414 1.930 . S
C1135 C21 1.024 . S
C1140 C153 1.024 . S
C1165 C186 1.024 . S
C1170 C54 1.024 . S
C1195 C120 1.024 . S
C1200 C87 1.024 . S
C1225 C351 1.024 . S
C1230 C219 1.024 . S
C1255 C252 1.024 . S
C1260 C384 1.024 . S
C1285 C318 1.024 . S
C1290 C285 1.024 . S
C1315 C417 1.024 . S
C1320 C549 1.024 . S
C1345 C582 1.024 . S
C1350 C450 1.024 . S
C1375 C483 1.024 . S
C1380 C516 1.024 . S
C1405 C73 0.901 . S
C1410 N2 0.916 . S
C1435 C7 0.900 . S
C1440 N35 0.915 . S
C1465 C40 0.900 . S
C1470 N68 0.915 . S
C1495 C139 0.901 . S
C1500 N101 0.916 . S
C1525 N134 0.915 . S
C1530 C172 0.900 . S
C1555 C106 0.900 . S
C1560 N167 0.915 . S
C1585 C271 0.901 . S
C1590 N200 0.916 . S
C1615 C205 0.900 . S
C1620 N233 0.915 . S
C1645 N266 0.915 . S
C1650 C238 0.900 . S
C1675 N299 0.916 . S
C1680 C337 0.901 . S
C1705 C370 0.900 . S
C1710 N332 0.915 . S
C1735 C304 0.900 . S
C1740 N365 0.915 . S
C1765 N398 0.916 . S
C1770 C469 0.901 . S
C1795 C403 0.900 . S
C1800 N431 0.915 . S
C1825 C436 0.900 . S
C1830 N464 0.915 . S
C1855 C535 0.901 . S
C1860 N497 0.916 . S
C1885 C568 0.900 . S
C1890 N530 0.915 . S
C1915 C502 0.900 . S
C1920 N563 0.915 . S
