# Generated by pormake.
# Topology gsi, (4)-cn, num edge types: 1
# Building blocks:
#     Node 0, Type 0, BuildingBlock: AZAVOO_clean_sbu_0, # of connection points: 4
#     Node 1, Type 0, BuildingBlock: AZAVOO_clean_sbu_0, # of connection points: 4
#     Node 2, Type 0, BuildingBlock: AZAVOO_clean_sbu_0, # of connection points: 4
#     Node 3, Type 0, BuildingBlock: AZAVOO_clean_sbu_0, # of connection points: 4
#     Node 4, Type 0, BuildingBlock: AZAVOO_clean_sbu_0, # of connection points: 4
#     Node 5, Type 0, BuildingBlock: AZAVOO_clean_sbu_0, # of connection points: 4
#     Node 6, Type 0, BuildingBlock: AZAVOO_clean_sbu_0, # of connection points: 4
#     Node 7, Type 0, BuildingBlock: AZAVOO_clean_sbu_0, # of connection points: 4
#     Node 8, Type 0, BuildingBlock: AZAVOO_clean_sbu_0, # of connection points: 4
#     Node 9, Type 0, BuildingBlock: AZAVOO_clean_sbu_0, # of connection points: 4
#     Node 10, Type 0, BuildingBlock: AZAVOO_clean_sbu_0, # of connection points: 4
#     Node 11, Type 0, BuildingBlock: AZAVOO_clean_sbu_0, # of connection points: 4
#     Node 12, Type 0, BuildingBlock: AZAVOO_clean_sbu_0, # of connection points: 4
#     Node 13, Type 0, BuildingBlock: AZAVOO_clean_sbu_0, # of connection points: 4
#     Node 14, Type 0, BuildingBlock: AZAVOO_clean_sbu_0, # of connection points: 4
#     Node 15, Type 0, BuildingBlock: AZAVOO_clean_sbu_0, # of connection points: 4
#     Edge 16, Type (0, 0), BuildingBlock: XIVTED_clean_linker_0, # of connection points: 2
#     Edge 17, Type (0, 0), BuildingBlock: XIVTED_clean_linker_0, # of connection points: 2
#     Edge 18, Type (0, 0), BuildingBlock: XIVTED_clean_linker_0, # of connection points: 2
#     Edge 19, Type (0, 0), BuildingBlock: XIVTED_clean_linker_0, # of connection points: 2
#     Edge 20, Type (0, 0), BuildingBlock: XIVTED_clean_linker_0, # of connection points: 2
#     Edge 21, Type (0, 0), BuildingBlock: XIVTED_clean_linker_0, # of connection points: 2
#     Edge 22, Type (0, 0), BuildingBlock: XIVTED_clean_linker_0, # of connection points: 2
#     Edge 23, Type (0, 0), BuildingBlock: XIVTED_clean_linker_0, # of connection points: 2
#     Edge 24, Type (0, 0), BuildingBlock: XIVTED_clean_linker_0, # of connection points: 2
#     Edge 25, Type (0, 0), BuildingBlock: XIVTED_clean_linker_0, # of connection points: 2
#     Edge 26, Type (0, 0), BuildingBlock: XIVTED_clean_linker_0, # of connection points: 2
#     Edge 27, Type (0, 0), BuildingBlock: XIVTED_clean_linker_0, # of connection points: 2
#     Edge 28, Type (0, 0), BuildingBlock: XIVTED_clean_linker_0, # of connection points: 2
#     Edge 29, Type (0, 0), BuildingBlock: XIVTED_clean_linker_0, # of connection points: 2
#     Edge 30, Type (0, 0), BuildingBlock: XIVTED_clean_linker_0, # of connection points: 2
#     Edge 31, Type (0, 0), BuildingBlock: XIVTED_clean_linker_0, # of connection points: 2
#     Edge 32, Type (0, 0), BuildingBlock: XIVTED_clean_linker_0, # of connection points: 2
#     Edge 33, Type (0, 0), BuildingBlock: XIVTED_clean_linker_0, # of connection points: 2
#     Edge 34, Type (0, 0), BuildingBlock: XIVTED_clean_linker_0, # of connection points: 2
#     Edge 35, Type (0, 0), BuildingBlock: XIVTED_clean_linker_0, # of connection points: 2
#     Edge 36, Type (0, 0), BuildingBlock: XIVTED_clean_linker_0, # of connection points: 2
#     Edge 37, Type (0, 0), BuildingBlock: XIVTED_clean_linker_0, # of connection points: 2
#     Edge 38, Type (0, 0), BuildingBlock: XIVTED_clean_linker_0, # of connection points: 2
#     Edge 39, Type (0, 0), BuildingBlock: XIVTED_clean_linker_0, # of connection points: 2
#     Edge 40, Type (0, 0), BuildingBlock: XIVTED_clean_linker_0, # of connection points: 2
#     Edge 41, Type (0, 0), BuildingBlock: XIVTED_clean_linker_0, # of connection points: 2
#     Edge 42, Type (0, 0), BuildingBlock: XIVTED_clean_linker_0, # of connection points: 2
#     Edge 43, Type (0, 0), BuildingBlock: XIVTED_clean_linker_0, # of connection points: 2
#     Edge 44, Type (0, 0), BuildingBlock: XIVTED_clean_linker_0, # of connection points: 2
#     Edge 45, Type (0, 0), BuildingBlock: XIVTED_clean_linker_0, # of connection points: 2
#     Edge 46, Type (0, 0), BuildingBlock: XIVTED_clean_linker_0, # of connection points: 2
#     Edge 47, Type (0, 0), BuildingBlock: XIVTED_clean_linker_0, # of connection points: 2
# Relax obj value: 0.018
# Max RMSD: 0.029
# Mean RMSD: 0.026
data_MOF--net-gsi--node1-AZAVOO_clean_sbu_0--edge1-XIVTED_clean_linker_0
_symmetry_space_group_name_H-M    P1
_symmetry_Int_Tables_number       1
_symmetry_cell_setting            triclinic
loop_
_symmetry_equiv_pos_as_xyz
'x, y, z'
_cell_length_a     43.634225
_cell_length_b     43.171473
_cell_length_c     42.675477
_cell_angle_alpha  90.054917
_cell_angle_beta   90.076579
_cell_angle_gamma 89.995788
loop_
_atom_site_label
_atom_site_type_symbol
_atom_site_fract_x
_atom_site_fract_y
_atom_site_fract_z
_atom_type_partial_charge
Mg0 Mg 0.14944 0.14178 0.13913 0.0
O1 O 0.17815 0.1693 0.17519 0.0
O2 O 0.22123 0.14217 0.18245 0.0
Mg3 Mg 0.22009 0.09822 0.15297 0.0
C4 C 0.2044 0.16572 0.18807 0.0
C5 C 0.08956 0.17353 0.1265 0.0
O6 O 0.0837 0.14371 0.12483 0.0
O7 O 0.18115 0.15778 0.10031 0.0
O8 O 0.22286 0.12883 0.10892 0.0
O9 O 0.12679 0.11451 0.17652 0.0
O10 O 0.16987 0.10059 0.15326 0.0
C11 C 0.20817 0.14908 0.09302 0.0
C12 C 0.14929 0.09512 0.17416 0.0
O13 O 0.11691 0.18216 0.13194 0.0
Mg14 Mg 0.85762 0.35913 0.13643 0.0
O15 O 0.82892 0.33136 0.17208 0.0
O16 O 0.78528 0.35768 0.17895 0.0
Mg17 Mg 0.786 0.40134 0.1491 0.0
C18 C 0.80256 0.33451 0.18479 0.0
C19 C 0.91826 0.328 0.12563 0.0
O20 O 0.92408 0.35786 0.12486 0.0
O21 O 0.82677 0.34249 0.09712 0.0
O22 O 0.7843 0.37041 0.10508 0.0
O23 O 0.87923 0.38646 0.17434 0.0
O24 O 0.8363 0.39996 0.15038 0.0
C25 C 0.79964 0.35049 0.08942 0.0
C26 C 0.85638 0.40543 0.17187 0.0
O27 O 0.89077 0.31918 0.12978 0.0
Mg28 Mg 0.14393 0.85506 0.33724 0.0
O29 O 0.17243 0.82567 0.30259 0.0
O30 O 0.21591 0.85197 0.29487 0.0
Mg31 Mg 0.21527 0.89705 0.32251 0.0
C32 C 0.19886 0.82842 0.28995 0.0
C33 C 0.08336 0.82473 0.34966 0.0
O34 O 0.07781 0.85465 0.34946 0.0
O35 O 0.17511 0.84007 0.37706 0.0
O36 O 0.2173 0.86801 0.36765 0.0
O37 O 0.12205 0.88122 0.29847 0.0
O38 O 0.16506 0.89539 0.3218 0.0
C39 C 0.20224 0.84861 0.3842 0.0
C40 C 0.14481 0.90036 0.3004 0.0
O41 O 0.11074 0.81552 0.3456 0.0
Mg42 Mg 0.8483 0.64375 0.33789 0.0
O43 O 0.81859 0.67051 0.30211 0.0
O44 O 0.77607 0.64224 0.2957 0.0
Mg45 Mg 0.77859 0.59841 0.32514 0.0
C46 C 0.79223 0.66616 0.28968 0.0
C47 C 0.90724 0.67612 0.35145 0.0
O48 O 0.9129 0.64633 0.35408 0.0
O49 O 0.8168 0.659 0.37715 0.0
O50 O 0.77569 0.62902 0.36927 0.0
O51 O 0.87116 0.61733 0.30012 0.0
O52 O 0.82869 0.60214 0.32377 0.0
C53 C 0.79013 0.64966 0.3849 0.0
C54 C 0.84909 0.59744 0.30247 0.0
O55 O 0.8801 0.6847 0.34498 0.0
Mg56 Mg 0.3514 0.85576 0.63997 0.0
O57 O 0.32295 0.82773 0.67572 0.0
O58 O 0.27986 0.85468 0.68351 0.0
Mg59 Mg 0.28068 0.89893 0.65458 0.0
C60 C 0.29677 0.8311 0.68875 0.0
C61 C 0.41147 0.82486 0.62722 0.0
O62 O 0.41677 0.85479 0.62575 0.0
O63 O 0.31962 0.84008 0.60091 0.0
O64 O 0.27789 0.8688 0.61015 0.0
O65 O 0.37403 0.8827 0.67771 0.0
O66 O 0.33089 0.89678 0.65459 0.0
C67 C 0.29252 0.84882 0.59387 0.0
C68 C 0.35151 0.90209 0.67556 0.0
O69 O 0.38425 0.81571 0.63241 0.0
Mg70 Mg 0.85726 0.85257 0.87047 0.0
O71 O 0.82172 0.829 0.83888 0.0
O72 O 0.77567 0.85035 0.84612 0.0
Mg73 Mg 0.78228 0.88962 0.88161 0.0
C74 C 0.79308 0.83047 0.83295 0.0
C75 C 0.89306 0.7977 0.84235 0.0
O76 O 0.86794 0.78414 0.85231 0.0
O77 O 0.85932 0.89406 0.83675 0.0
O78 O 0.81357 0.91479 0.84748 0.0
O79 O 0.84365 0.82064 0.90991 0.0
O80 O 0.82275 0.86627 0.90061 0.0
C81 C 0.8392 0.91532 0.83309 0.0
C82 C 0.82292 0.84106 0.91652 0.0
O83 O 0.89569 0.82687 0.84542 0.0
Mg84 Mg 0.13798 0.64433 0.86025 0.0
O85 O 0.17373 0.66907 0.83042 0.0
O86 O 0.21786 0.64295 0.83272 0.0
Mg87 Mg 0.21023 0.60145 0.86564 0.0
C88 C 0.20179 0.66564 0.82273 0.0
C89 C 0.07437 0.66139 0.83231 0.0
O90 O 0.07062 0.63153 0.83681 0.0
O91 O 0.13322 0.60667 0.82295 0.0
O92 O 0.17613 0.57933 0.83133 0.0
O93 O 0.1534 0.67143 0.90228 0.0
O94 O 0.17219 0.62602 0.8881 0.0
C95 C 0.15035 0.58326 0.81767 0.0
C96 C 0.17311 0.64942 0.90669 0.0
O97 O 0.10016 0.67356 0.83862 0.0
Mg98 Mg 0.86451 0.13419 0.62336 0.0
O99 O 0.82628 0.16143 0.64798 0.0
O100 O 0.78082 0.13912 0.63974 0.0
Mg101 Mg 0.79076 0.0949 0.61191 0.0
C102 C 0.79724 0.16069 0.65147 0.0
C103 C 0.89707 0.19329 0.6462 0.0
O104 O 0.87255 0.20456 0.63242 0.0
O105 O 0.86397 0.09861 0.66297 0.0
O106 O 0.81805 0.07708 0.654 0.0
O107 O 0.85441 0.15972 0.57892 0.0
O108 O 0.83265 0.11553 0.59273 0.0
C109 C 0.84282 0.07932 0.66984 0.0
C110 C 0.8344 0.13826 0.57339 0.0
O111 O 0.90053 0.16408 0.64749 0.0
Mg112 Mg 0.13432 0.35586 0.61994 0.0
O113 O 0.17098 0.33215 0.64947 0.0
O114 O 0.21501 0.35821 0.64551 0.0
Mg115 Mg 0.20611 0.3991 0.61209 0.0
C116 C 0.19922 0.33573 0.65637 0.0
C117 C 0.07143 0.33833 0.64919 0.0
O118 O 0.06668 0.3678 0.64327 0.0
O119 O 0.13007 0.39425 0.65652 0.0
O120 O 0.17275 0.4215 0.64688 0.0
O121 O 0.14918 0.32784 0.57836 0.0
O122 O 0.1677 0.37385 0.59095 0.0
C123 C 0.14728 0.41774 0.66111 0.0
C124 C 0.16859 0.34991 0.57308 0.0
O125 O 0.09751 0.32669 0.64321 0.0
Mg126 Mg 0.64714 0.14032 0.35215 0.0
O127 O 0.68335 0.1682 0.32526 0.0
O128 O 0.72923 0.14574 0.33 0.0
Mg129 Mg 0.72167 0.1013 0.35803 0.0
C130 C 0.7121 0.16746 0.31975 0.0
C131 C 0.61197 0.19915 0.33208 0.0
O132 O 0.63714 0.21106 0.34394 0.0
O133 O 0.6453 0.10498 0.31227 0.0
O134 O 0.69162 0.08329 0.31803 0.0
O135 O 0.65995 0.16536 0.39626 0.0
O136 O 0.68109 0.12161 0.38021 0.0
C137 C 0.66588 0.08561 0.30391 0.0
C138 C 0.68038 0.14395 0.4001 0.0
O139 O 0.60913 0.16986 0.33098 0.0
Mg140 Mg 0.64665 0.64394 0.64315 0.0
O141 O 0.67552 0.67204 0.67861 0.0
O142 O 0.71915 0.64561 0.68521 0.0
Mg143 Mg 0.71817 0.60153 0.65598 0.0
C144 C 0.70204 0.6689 0.69105 0.0
C145 C 0.58609 0.6743 0.6313 0.0
O146 O 0.58091 0.64433 0.63028 0.0
O147 O 0.67736 0.66007 0.60357 0.0
O148 O 0.71963 0.63182 0.61166 0.0
O149 O 0.62511 0.61666 0.68116 0.0
O150 O 0.66793 0.60316 0.65714 0.0
C151 C 0.70436 0.65169 0.59585 0.0
C152 C 0.64784 0.59758 0.6785 0.0
O153 O 0.6133 0.68367 0.63614 0.0
Mg154 Mg 0.65124 0.35269 0.83385 0.0
O155 O 0.67994 0.3252 0.79777 0.0
O156 O 0.72324 0.35211 0.79116 0.0
Mg157 Mg 0.72235 0.39576 0.82107 0.0
C158 C 0.70627 0.32876 0.7851 0.0
C159 C 0.59099 0.32237 0.84619 0.0
O160 O 0.58621 0.35236 0.8482 0.0
O161 O 0.68241 0.33624 0.87305 0.0
O162 O 0.72433 0.36502 0.86507 0.0
O163 O 0.62913 0.38039 0.79643 0.0
O164 O 0.67216 0.39376 0.82024 0.0
C165 C 0.70937 0.34484 0.88075 0.0
C166 C 0.65178 0.39956 0.79918 0.0
O167 O 0.618 0.31282 0.84056 0.0
Mg168 Mg 0.35328 0.14474 0.83518 0.0
O169 O 0.32414 0.1734 0.80038 0.0
O170 O 0.28062 0.14683 0.79367 0.0
Mg171 Mg 0.2817 0.1024 0.82224 0.0
C172 C 0.29755 0.1703 0.78808 0.0
C173 C 0.41405 0.17451 0.84695 0.0
O174 O 0.41885 0.14447 0.84789 0.0
O175 O 0.32279 0.16052 0.87522 0.0
O176 O 0.28051 0.13233 0.86684 0.0
O177 O 0.37456 0.11771 0.79668 0.0
O178 O 0.33186 0.10413 0.8208 0.0
C179 C 0.29579 0.15205 0.88286 0.0
C180 C 0.35182 0.09864 0.79929 0.0
O181 O 0.3869 0.18423 0.84237 0.0
Mg182 Mg 0.36478 0.35087 0.36058 0.0
O183 O 0.32885 0.32651 0.33053 0.0
O184 O 0.28469 0.3525 0.33354 0.0
Mg185 Mg 0.29254 0.39364 0.36697 0.0
C186 C 0.30071 0.32999 0.32309 0.0
C187 C 0.42874 0.33432 0.33436 0.0
O188 O 0.43266 0.3636 0.34182 0.0
O189 O 0.3693 0.38904 0.32383 0.0
O190 O 0.32633 0.4161 0.33278 0.0
O191 O 0.34947 0.3232 0.40228 0.0
O192 O 0.33077 0.36883 0.38879 0.0
C193 C 0.35202 0.41243 0.31895 0.0
C194 C 0.32985 0.3452 0.40702 0.0
O195 O 0.40254 0.32212 0.33828 0.0
Mg196 Mg 0.36295 0.64309 0.12553 0.0
O197 O 0.32498 0.66446 0.15485 0.0
O198 O 0.28115 0.63851 0.14916 0.0
Mg199 Mg 0.29214 0.59859 0.11498 0.0
C200 C 0.29667 0.66068 0.16107 0.0
C201 C 0.39271 0.70198 0.15313 0.0
O202 O 0.367 0.7131 0.1417 0.0
O203 O 0.36764 0.60389 0.16099 0.0
O204 O 0.3254 0.5763 0.15011 0.0
O205 O 0.34819 0.67181 0.08452 0.0
O206 O 0.33057 0.62499 0.09517 0.0
C207 C 0.35066 0.5801 0.16482 0.0
C208 C 0.32951 0.64941 0.078 0.0
O209 O 0.39799 0.67311 0.15085 0.0
Mg210 Mg 0.6297 0.84938 0.11981 0.0
O211 O 0.66806 0.82527 0.1467 0.0
O212 O 0.71348 0.84348 0.1313 0.0
Mg213 Mg 0.70345 0.8809 0.09444 0.0
C214 C 0.69727 0.8254 0.14817 0.0
C215 C 0.56887 0.84084 0.15617 0.0
O216 O 0.5643 0.86836 0.14388 0.0
O217 O 0.63506 0.8927 0.15035 0.0
O218 O 0.67953 0.91043 0.13153 0.0
O219 O 0.63509 0.81434 0.08117 0.0
O220 O 0.65921 0.85944 0.08362 0.0
C221 C 0.65637 0.91302 0.14964 0.0
C222 C 0.65487 0.8335 0.06961 0.0
O223 O 0.59461 0.82771 0.15214 0.0
H224 H 0.17738 0.22071 0.20626 0.0
H225 H 0.32666 0.27738 0.29929 0.0
H226 H 0.25988 0.16655 0.21776 0.0
H227 H 0.24158 0.32854 0.30021 0.0
H228 H 0.30244 0.23781 0.26722 0.0
H229 H 0.20014 0.26138 0.23908 0.0
C230 C 0.20015 0.21726 0.21575 0.0
C231 C 0.21671 0.19011 0.20912 0.0
C232 C 0.28899 0.25766 0.27439 0.0
C233 C 0.2429 0.2366 0.24642 0.0
C234 C 0.30287 0.2804 0.2927 0.0
C235 C 0.28617 0.30642 0.30259 0.0
C236 C 0.2581 0.26081 0.26568 0.0
C237 C 0.25536 0.30888 0.29319 0.0
C238 C 0.21313 0.2405 0.23444 0.0
C239 C 0.24616 0.187 0.22208 0.0
N240 N 0.2423 0.28635 0.27524 0.0
N241 N 0.25827 0.20994 0.23994 0.0
H242 H 0.83146 0.28121 0.20459 0.0
H243 H 0.6842 0.2198 0.29734 0.0
H244 H 0.74676 0.33223 0.21376 0.0
H245 H 0.77145 0.17251 0.29873 0.0
H246 H 0.70697 0.26067 0.26577 0.0
H247 H 0.81021 0.2407 0.23836 0.0
C248 C 0.80849 0.28399 0.21375 0.0
C249 C 0.79089 0.3102 0.20619 0.0
C250 C 0.7212 0.24141 0.27302 0.0
C251 C 0.76642 0.26388 0.2447 0.0
C252 C 0.70817 0.21797 0.29106 0.0
C253 C 0.72589 0.19258 0.30077 0.0
C254 C 0.75219 0.2395 0.26439 0.0
C255 C 0.75688 0.19163 0.29183 0.0
C256 C 0.79638 0.26085 0.23302 0.0
C257 C 0.76125 0.31249 0.21881 0.0
N258 N 0.76902 0.2147 0.27407 0.0
N259 N 0.74997 0.28963 0.23729 0.0
H260 H 0.32329 0.70966 0.19094 0.0
H261 H 0.17067 0.77398 0.27145 0.0
H262 H 0.23567 0.66475 0.17817 0.0
H263 H 0.25557 0.82484 0.26342 0.0
H264 H 0.19358 0.73178 0.24067 0.0
H265 H 0.29857 0.74953 0.22187 0.0
C266 C 0.29879 0.70808 0.19465 0.0
C267 C 0.28155 0.68381 0.18162 0.0
C268 C 0.20703 0.75229 0.24563 0.0
C269 C 0.25288 0.72986 0.21735 0.0
C270 C 0.194 0.77638 0.26317 0.0
C271 C 0.21119 0.80307 0.27014 0.0
C272 C 0.23748 0.75486 0.2353 0.0
C273 C 0.24132 0.80484 0.25876 0.0
C274 C 0.28463 0.73101 0.21234 0.0
C275 C 0.24987 0.68306 0.18765 0.0
N276 N 0.25345 0.78109 0.2421 0.0
N277 N 0.2365 0.70583 0.20507 0.0
H278 H 0.73454 0.66772 0.26504 0.0
H279 H 0.75865 0.82081 0.16301 0.0
H280 H 0.8198 0.71858 0.26558 0.0
H281 H 0.6707 0.77894 0.18196 0.0
H282 H 0.78285 0.78242 0.19745 0.0
H283 H 0.71237 0.70676 0.23104 0.0
C284 C 0.74872 0.68707 0.25796 0.0
C285 C 0.77916 0.68979 0.2683 0.0
C286 C 0.75826 0.78179 0.19407 0.0
C287 C 0.75363 0.73494 0.22911 0.0
C288 C 0.74442 0.80365 0.1744 0.0
C289 C 0.71256 0.80313 0.1695 0.0
C290 C 0.74012 0.75915 0.20867 0.0
C291 C 0.6953 0.78036 0.18496 0.0
C292 C 0.73593 0.70949 0.23856 0.0
C293 C 0.79623 0.71555 0.25826 0.0
N294 N 0.70931 0.75929 0.20367 0.0
N295 N 0.78324 0.73714 0.23913 0.0
H296 H 0.324 0.77596 0.70616 0.0
H297 H 0.17567 0.71854 0.79983 0.0
H298 H 0.24155 0.82994 0.71876 0.0
H299 H 0.26069 0.66726 0.79937 0.0
H300 H 0.19957 0.75836 0.76799 0.0
H301 H 0.30158 0.73501 0.73873 0.0
C302 C 0.3013 0.77931 0.71583 0.0
C303 C 0.28466 0.80649 0.70959 0.0
C304 C 0.21309 0.73844 0.77481 0.0
C305 C 0.25887 0.75968 0.74662 0.0
C306 C 0.19938 0.71555 0.79299 0.0
C307 C 0.21616 0.68941 0.80242 0.0
C308 C 0.24386 0.73532 0.76576 0.0
C309 C 0.24686 0.687 0.79271 0.0
C310 C 0.28852 0.7559 0.73438 0.0
C311 C 0.25532 0.80947 0.72278 0.0
N312 N 0.25974 0.70967 0.77489 0.0
N313 N 0.24341 0.78638 0.7405 0.0
H314 H 0.6728 0.72124 0.71312 0.0
H315 H 0.82211 0.78269 0.80303 0.0
H316 H 0.75911 0.67236 0.71717 0.0
H317 H 0.73331 0.82589 0.81268 0.0
H318 H 0.79949 0.74402 0.76859 0.0
H319 H 0.69454 0.76148 0.74715 0.0
C320 C 0.69624 0.7189 0.72116 0.0
C321 C 0.71411 0.6933 0.71222 0.0
C322 C 0.7849 0.76194 0.7782 0.0
C323 C 0.7391 0.7393 0.75093 0.0
C324 C 0.79784 0.78415 0.79787 0.0
C325 C 0.7796 0.80761 0.81094 0.0
C326 C 0.75344 0.76312 0.77131 0.0
C327 C 0.74826 0.80821 0.80323 0.0
C328 C 0.70862 0.74187 0.74058 0.0
C329 C 0.74436 0.69156 0.72339 0.0
N330 N 0.73616 0.78627 0.78392 0.0
N331 N 0.75586 0.71422 0.74203 0.0
H332 H 0.76187 0.32799 0.75576 0.0
H333 H 0.7369 0.16518 0.66977 0.0
H334 H 0.67856 0.27472 0.76509 0.0
H335 H 0.82358 0.21321 0.67532 0.0
H336 H 0.71343 0.20651 0.70096 0.0
H337 H 0.78284 0.28779 0.72225 0.0
C338 C 0.74785 0.30788 0.75071 0.0
C339 C 0.71836 0.30477 0.76349 0.0
C340 C 0.73757 0.20794 0.69528 0.0
C341 C 0.74253 0.25832 0.72488 0.0
C342 C 0.751 0.1844 0.67742 0.0
C343 C 0.78233 0.18563 0.66988 0.0
C344 C 0.75555 0.23299 0.70548 0.0
C345 C 0.7994 0.21113 0.68052 0.0
C346 C 0.75995 0.28483 0.73155 0.0
C347 C 0.70142 0.2781 0.75588 0.0
N348 N 0.78579 0.23373 0.69771 0.0
N349 N 0.71377 0.25585 0.7371 0.0
H350 H 0.17344 0.28369 0.6814 0.0
H351 H 0.32464 0.22529 0.76987 0.0
H352 H 0.25901 0.33388 0.67755 0.0
H353 H 0.24138 0.172 0.75994 0.0
H354 H 0.30142 0.26646 0.73804 0.0
H355 H 0.19816 0.24407 0.71284 0.0
C356 C 0.19745 0.2865 0.68722 0.0
C357 C 0.21414 0.31224 0.67666 0.0
C358 C 0.28837 0.24566 0.74282 0.0
C359 C 0.24279 0.26652 0.71286 0.0
C360 C 0.3016 0.22214 0.76095 0.0
C361 C 0.28497 0.19508 0.76771 0.0
C362 C 0.25829 0.24211 0.73156 0.0
C363 C 0.25518 0.19235 0.75549 0.0
C364 C 0.21162 0.26371 0.70517 0.0
C365 C 0.24523 0.31443 0.68511 0.0
N366 N 0.24285 0.21554 0.73818 0.0
N367 N 0.25858 0.29184 0.70273 0.0
H368 H 0.09895 0.92538 0.26532 0.0
H369 H 0.19876 0.05779 0.18695 0.0
H370 H 0.19443 0.93779 0.28876 0.0
H371 H 0.10211 0.06827 0.20557 0.0
H372 H 0.19857 0.00943 0.21693 0.0
H373 H 0.1007 0.97318 0.2347 0.0
C374 C 0.12038 0.93795 0.26375 0.0
C375 C 0.14659 0.92762 0.27968 0.0
C376 C 0.1775 0.02248 0.21451 0.0
C377 C 0.14868 0.98215 0.24472 0.0
C378 C 0.17757 0.05003 0.19741 0.0
C379 C 0.15043 0.0671 0.19384 0.0
C380 C 0.14996 0.01168 0.22742 0.0
C381 C 0.12359 0.05593 0.20793 0.0
C382 C 0.12126 0.9653 0.24649 0.0
C383 C 0.17368 0.94493 0.27697 0.0
N384 N 0.12396 0.02874 0.22386 0.0
N385 N 0.17408 0.97137 0.25971 0.0
H386 H 0.90174 0.43098 0.20711 0.0
H387 H 0.80012 0.55947 0.28927 0.0
H388 H 0.80619 0.44227 0.18335 0.0
H389 H 0.89631 0.57238 0.26975 0.0
H390 H 0.80086 0.51202 0.25765 0.0
H391 H 0.8991 0.47817 0.2386 0.0
C392 C 0.88012 0.44321 0.20873 0.0
C393 C 0.85414 0.43272 0.19252 0.0
C394 C 0.82169 0.52543 0.26025 0.0
C395 C 0.85103 0.48655 0.22854 0.0
C396 C 0.82132 0.55243 0.27829 0.0
C397 C 0.84819 0.56989 0.28209 0.0
C398 C 0.84927 0.5156 0.24663 0.0
C399 C 0.87504 0.5597 0.26728 0.0
C400 C 0.87872 0.47022 0.22651 0.0
C401 C 0.82677 0.44959 0.19534 0.0
N402 N 0.87498 0.53303 0.25045 0.0
N403 N 0.82586 0.47568 0.21317 0.0
H404 H 0.23531 0.15639 0.89833 0.0
H405 H 0.26891 0.15075 0.07768 0.0
H406 H 0.3261 0.17219 0.93523 0.0
H407 H 0.17914 0.17323 0.04167 0.0
H408 H 0.29071 0.1617 0.02619 0.0
H409 H 0.21409 0.16579 0.95039 0.0
C410 C 0.25073 0.16232 0.91733 0.0
C411 C 0.28253 0.16308 0.91262 0.0
C412 C 0.26633 0.16482 0.0297 0.0
C413 C 0.25848 0.17337 0.97227 0.0
C414 C 0.25385 0.15843 0.05904 0.0
C415 C 0.22212 0.16063 0.06379 0.0
C416 C 0.24683 0.17279 0.00479 0.0
C417 C 0.20371 0.17104 0.03895 0.0
C418 C 0.23861 0.16781 0.947 0.0
C419 C 0.30146 0.17121 0.93792 0.0
N420 N 0.21626 0.17613 0.0103 0.0
N421 N 0.28919 0.1754 0.96687 0.0
H422 H 0.82984 0.32626 0.03884 0.0
H423 H 0.67926 0.32281 0.93233 0.0
H424 H 0.73914 0.34746 0.07303 0.0
H425 H 0.76989 0.34202 0.89688 0.0
H426 H 0.70134 0.31412 0.9844 0.0
H427 H 0.80782 0.31447 0.98737 0.0
C428 C 0.80525 0.32783 0.03572 0.0
C429 C 0.78632 0.33839 0.06005 0.0
C430 C 0.71638 0.31966 0.96503 0.0
C431 C 0.76114 0.32475 0.00151 0.0
C432 C 0.70386 0.32448 0.93532 0.0
C433 C 0.72275 0.33367 0.91043 0.0
C434 C 0.74799 0.32366 0.96965 0.0
C435 C 0.75447 0.33549 0.9156 0.0
C436 C 0.79276 0.32119 0.00635 0.0
C437 C 0.75461 0.33992 0.05473 0.0
N438 N 0.76609 0.33081 0.94473 0.0
N439 N 0.74301 0.33344 0.02592 0.0
H440 H 0.23165 0.84654 0.57915 0.0
H441 H 0.26299 0.84535 0.39914 0.0
H442 H 0.32127 0.82643 0.54157 0.0
H443 H 0.1729 0.82772 0.43675 0.0
H444 H 0.28501 0.83549 0.4508 0.0
H445 H 0.20935 0.83667 0.52759 0.0
C446 C 0.24658 0.83959 0.56013 0.0
C447 C 0.2784 0.83774 0.56449 0.0
C448 C 0.26048 0.83321 0.44765 0.0
C449 C 0.25311 0.82686 0.50541 0.0
C450 C 0.24789 0.83898 0.4182 0.0
C451 C 0.21605 0.83779 0.41381 0.0
C452 C 0.24102 0.8269 0.47301 0.0
C453 C 0.19756 0.82906 0.43919 0.0
C454 C 0.23382 0.83383 0.53074 0.0
C455 C 0.29664 0.8283 0.53917 0.0
N456 N 0.21028 0.82456 0.46791 0.0
N457 N 0.28379 0.82382 0.5105 0.0
H458 H 0.76479 0.65556 0.57985 0.0
H459 H 0.72959 0.65055 0.40104 0.0
H460 H 0.67379 0.67263 0.54404 0.0
H461 H 0.81953 0.67402 0.43595 0.0
H462 H 0.7083 0.66129 0.45283 0.0
H463 H 0.78557 0.66515 0.52763 0.0
C464 C 0.74924 0.66181 0.56108 0.0
C465 C 0.7175 0.66287 0.56612 0.0
C466 C 0.7326 0.66467 0.44901 0.0
C467 C 0.74103 0.67336 0.50632 0.0
C468 C 0.74478 0.6584 0.41951 0.0
C469 C 0.77642 0.66096 0.41436 0.0
C470 C 0.75231 0.67286 0.47368 0.0
C471 C 0.79502 0.67156 0.43898 0.0
C472 C 0.76111 0.66741 0.53132 0.0
C473 C 0.6984 0.6714 0.5411 0.0
N474 N 0.78278 0.67651 0.46781 0.0
N475 N 0.71041 0.67568 0.51206 0.0
H476 H 0.97949 0.34011 0.12076 0.0
H477 H 0.02855 0.16165 0.11879 0.0
H478 H 0.91485 0.26451 0.12491 0.0
H479 H 0.09302 0.23702 0.12782 0.0
H480 H 0.98678 0.1991 0.11639 0.0
H481 H 0.02137 0.30275 0.11876 0.0
C482 C 0.97407 0.31563 0.12113 0.0
C483 C 0.94359 0.30542 0.12313 0.0
C484 C 0.01005 0.20747 0.11882 0.0
C485 C 0.99153 0.2625 0.12085 0.0
C486 C 0.03397 0.1861 0.12014 0.0
C487 C 0.06436 0.19622 0.12364 0.0
C488 C 0.01652 0.23924 0.12092 0.0
C489 C 0.06994 0.22819 0.12521 0.0
C490 C 0.99803 0.29431 0.12004 0.0
C491 C 0.93799 0.27342 0.12348 0.0
N492 N 0.04623 0.24857 0.1239 0.0
N493 N 0.96176 0.25309 0.1224 0.0
H494 H 0.90418 0.73958 0.3485 0.0
H495 H 0.08625 0.76132 0.35287 0.0
H496 H 0.96801 0.66405 0.36043 0.0
H497 H 0.02222 0.83758 0.35361 0.0
H498 H 0.04315 0.72523 0.35579 0.0
H499 H 0.9471 0.77599 0.3505 0.0
C500 C 0.92718 0.73067 0.35168 0.0
C501 C 0.93252 0.69873 0.35418 0.0
C502 C 0.03855 0.74987 0.35547 0.0
C503 C 0.98171 0.74018 0.35633 0.0
C504 C 0.06315 0.77047 0.35377 0.0
C505 C 0.05782 0.8025 0.35288 0.0
C506 C 0.00842 0.76138 0.35607 0.0
C507 C 0.02741 0.81307 0.35418 0.0
C508 C 0.95167 0.75145 0.35284 0.0
C509 C 0.9628 0.68847 0.35833 0.0
N510 N 0.00387 0.79257 0.35555 0.0
N511 N 0.98625 0.70912 0.3591 0.0
H512 H 0.52527 0.6608 0.62497 0.0
H513 H 0.47229 0.83802 0.62038 0.0
H514 H 0.58811 0.73788 0.63048 0.0
H515 H 0.40936 0.7613 0.62881 0.0
H516 H 0.51492 0.80153 0.6192 0.0
H517 H 0.48264 0.69717 0.62163 0.0
C518 C 0.53014 0.68539 0.62536 0.0
C519 C 0.56033 0.69632 0.62813 0.0
C520 C 0.49179 0.79265 0.62122 0.0
C521 C 0.51151 0.73811 0.62429 0.0
C522 C 0.46739 0.81347 0.62183 0.0
C523 C 0.43718 0.8027 0.62484 0.0
C524 C 0.486 0.76077 0.62353 0.0
C525 C 0.43228 0.77063 0.62657 0.0
C526 C 0.50574 0.70615 0.6235 0.0
C527 C 0.56521 0.72843 0.62847 0.0
N528 N 0.45646 0.75079 0.62596 0.0
N529 N 0.54103 0.74821 0.62662 0.0
H530 H 0.79815 0.06328 0.71005 0.0
H531 H 0.88597 0.92388 0.78989 0.0
H532 H 0.89423 0.04887 0.69143 0.0
H533 H 0.8051 0.96759 0.82808 0.0
H534 H 0.89066 0.96715 0.75249 0.0
H535 H 0.8008 0.02566 0.75218 0.0
C536 C 0.81992 0.05227 0.71509 0.0
C537 C 0.84598 0.05905 0.69732 0.0
C538 C 0.87217 0.96722 0.76939 0.0
C539 C 0.8492 0.01547 0.74535 0.0
C540 C 0.86942 0.94256 0.79062 0.0
C541 C 0.84478 0.94175 0.81178 0.0
C542 C 0.85002 0.99086 0.76943 0.0
C543 C 0.82415 0.96671 0.81188 0.0
C544 C 0.82149 0.03084 0.73921 0.0
C545 C 0.87369 0.04427 0.70485 0.0
N546 N 0.8271 0.98995 0.79091 0.0
N547 N 0.87454 0.02269 0.72815 0.0
H548 H 0.12408 0.59109 0.75993 0.0
H549 H 0.12265 0.41028 0.71955 0.0
H550 H 0.15426 0.52115 0.82512 0.0
H551 H 0.15107 0.47983 0.6532 0.0
H552 H 0.11471 0.45137 0.75884 0.0
H553 H 0.11452 0.55016 0.7208 0.0
C554 C 0.12804 0.5671 0.76614 0.0
C555 C 0.14033 0.55931 0.79543 0.0
C556 C 0.12209 0.45752 0.73543 0.0
C557 C 0.1289 0.51289 0.75159 0.0
C558 C 0.12652 0.43423 0.71312 0.0
C559 C 0.13789 0.44185 0.68344 0.0
C560 C 0.12832 0.48846 0.72751 0.0
C561 C 0.14268 0.47313 0.67609 0.0
C562 C 0.12267 0.5439 0.74393 0.0
C563 C 0.14518 0.52798 0.80253 0.0
N564 N 0.13795 0.49536 0.69804 0.0
N565 N 0.1395 0.50584 0.7807 0.0
H566 H 0.65799 0.86754 0.01758 0.0
H567 H 0.80562 0.78589 0.94466 0.0
H568 H 0.6946 0.78499 0.06017 0.0
H569 H 0.78346 0.88326 0.93989 0.0
H570 H 0.76062 0.77813 0.97895 0.0
H571 H 0.69742 0.86476 0.9774 0.0
C572 C 0.67401 0.84835 0.01788 0.0
C573 C 0.67326 0.82647 0.04192 0.0
C574 C 0.76577 0.80105 0.97012 0.0
C575 C 0.71923 0.82379 -0.00299 0.0
C576 C 0.7914 0.80553 0.95079 0.0
C577 C 0.79794 0.83518 0.93897 0.0
C578 C 0.74671 0.82636 0.97707 0.0
C579 C 0.77894 0.85986 0.94769 0.0
C580 C 0.69667 0.8469 -0.00479 0.0
C581 C 0.69452 0.8021 0.04163 0.0
N582 N 0.75419 0.85484 0.96595 0.0
N583 N 0.71719 0.80163 0.01967 0.0
H584 H 0.20841 0.60225 0.92777 0.0
H585 H 0.30978 0.7014 0.0464 0.0
H586 H 0.19139 0.6998 0.94184 0.0
H587 H 0.29753 0.60231 0.05179 0.0
H588 H 0.27146 0.7031 0.00398 0.0
H589 H 0.24696 0.60376 0.96874 0.0
C590 C 0.2129 0.6241 0.9394 0.0
C591 C 0.19668 0.65096 0.93139 0.0
C592 C 0.27721 0.6811 0.01465 0.0
C593 C 0.24086 0.65279 0.97864 0.0
C594 C 0.29907 0.68008 0.03867 0.0
C595 C 0.30672 0.65168 0.05262 0.0
C596 C 0.2635 0.65345 0.00438 0.0
C597 C 0.29219 0.62474 0.04187 0.0
C598 C 0.23484 0.62489 0.96295 0.0
C599 C 0.20335 0.67855 0.94747 0.0
N600 N 0.27143 0.6263 0.01833 0.0
N601 N 0.2251 0.67882 0.9704 0.0
H602 H 0.6974 0.19391 0.43642 0.0
H603 H 0.80227 0.09114 0.54757 0.0
H604 H 0.71557 0.09675 0.42121 0.0
H605 H 0.81677 0.18974 0.53984 0.0
H606 H 0.76496 0.09387 0.50531 0.0
H607 H 0.7362 0.19406 0.47843 0.0
C608 C 0.7095 0.17269 0.44193 0.0
C609 C 0.70335 0.14528 0.42538 0.0
C610 C 0.77635 0.11494 0.51272 0.0
C611 C 0.74713 0.14527 0.47308 0.0
C612 C 0.79756 0.11342 0.53693 0.0
C613 C 0.8126 0.14026 0.54714 0.0
C614 C 0.76974 0.14358 0.49878 0.0
C615 C 0.80573 0.1685 0.53243 0.0
C616 C 0.73166 0.17285 0.46568 0.0
C617 C 0.7197 0.11844 0.43325 0.0
N618 N 0.78454 0.16951 0.509 0.0
N619 N 0.74066 0.11908 0.45663 0.0
H620 H 0.20232 0.39688 0.54938 0.0
H621 H 0.31018 0.29421 0.44043 0.0
H622 H 0.18862 0.29817 0.54107 0.0
H623 H 0.2958 0.39256 0.42948 0.0
H624 H 0.27019 0.2936 0.4812 0.0
H625 H 0.24179 0.39416 0.50954 0.0
C626 C 0.2077 0.37454 0.5392 0.0
C627 C 0.19221 0.34769 0.54855 0.0
C628 C 0.27584 0.31518 0.46965 0.0
C629 C 0.2375 0.34442 0.50263 0.0
C630 C 0.29865 0.31558 0.44659 0.0
C631 C 0.30619 0.34346 0.43155 0.0
C632 C 0.26106 0.34295 0.47785 0.0
C633 C 0.29059 0.37049 0.44026 0.0
C634 C 0.23017 0.37303 0.5163 0.0
C635 C 0.2 0.31942 0.53434 0.0
N636 N 0.26893 0.36956 0.46287 0.0
N637 N 0.22232 0.31845 0.51205 0.0
H638 H 0.01514 0.64353 0.82123 0.0
H639 H 0.95147 0.8168 0.82842 0.0
H640 H 0.07306 0.72452 0.82551 0.0
H641 H 0.89434 0.73524 0.83207 0.0
H642 H 0.99583 0.7838 0.81789 0.0
H643 H 0.97051 0.67716 0.81563 0.0
C644 C 0.01854 0.66838 0.82061 0.0
C645 C 0.04785 0.68123 0.82436 0.0
C646 C 0.97352 0.77316 0.82065 0.0
C647 C 0.99678 0.71989 0.81816 0.0
C648 C 0.94817 0.792 0.8266 0.0
C649 C 0.91923 0.77872 0.83163 0.0
C650 C 0.96989 0.74083 0.81974 0.0
C651 C 0.91628 0.74647 0.82878 0.0
C652 C 0.99301 0.68758 0.81746 0.0
C653 C 0.05086 0.71359 0.82307 0.0
N654 N 0.94134 0.72862 0.82335 0.0
N655 N 0.0256 0.73182 0.82045 0.0
H656 H 0.01137 0.35438 0.6582 0.0
H657 H 0.95536 0.17836 0.66515 0.0
H658 H 0.07272 0.27594 0.66098 0.0
H659 H 0.89532 0.25641 0.64992 0.0
H660 H 0.99782 0.21427 0.67425 0.0
H661 H 0.96813 0.31931 0.66583 0.0
C662 C 0.01581 0.32983 0.66081 0.0
C663 C 0.04568 0.31803 0.6584 0.0
C664 C 0.97526 0.22352 0.66927 0.0
C665 C 0.99624 0.27774 0.66698 0.0
C666 C 0.951 0.20303 0.66415 0.0
C667 C 0.92187 0.21441 0.65625 0.0
C668 C 0.97031 0.25556 0.66651 0.0
C669 C 0.9175 0.2466 0.65548 0.0
C670 C 0.99109 0.3098 0.66512 0.0
C671 C 0.05005 0.28603 0.66227 0.0
N672 N 0.94152 0.26604 0.66021 0.0
N673 N 0.02556 0.26695 0.66601 0.0
H674 H 0.61162 0.26234 0.32874 0.0
H675 H 0.4294 0.27238 0.32004 0.0
H676 H 0.55304 0.18257 0.31702 0.0
H677 H 0.48869 0.35201 0.32866 0.0
H678 H 0.47444 0.23969 0.31217 0.0
H679 H 0.56718 0.29596 0.32199 0.0
C680 C 0.58945 0.25188 0.32442 0.0
C681 C 0.58598 0.21957 0.32388 0.0
C682 C 0.47758 0.26436 0.31543 0.0
C683 C 0.53488 0.25798 0.31637 0.0
C684 C 0.45186 0.28306 0.31992 0.0
C685 C 0.45529 0.31494 0.32547 0.0
C686 C 0.50697 0.2776 0.31665 0.0
C687 C 0.48494 0.32751 0.3248 0.0
C688 C 0.56405 0.27111 0.32056 0.0
C689 C 0.55674 0.20735 0.31787 0.0
N690 N 0.50964 0.30876 0.32085 0.0
N691 N 0.53224 0.22657 0.31473 0.0
H692 H 0.60218 0.57168 0.71297 0.0
H693 H 0.70152 0.43678 0.78734 0.0
H694 H 0.69743 0.55961 0.6886 0.0
H695 H 0.6049 0.42707 0.76781 0.0
H696 H 0.70158 0.48584 0.7585 0.0
H697 H 0.60393 0.52292 0.74195 0.0
C698 C 0.62356 0.55897 0.714 0.0
C699 C 0.6497 0.56967 0.69828 0.0
C700 C 0.68048 0.47278 0.76045 0.0
C701 C 0.65179 0.51404 0.73136 0.0
C702 C 0.68039 0.44484 0.77689 0.0
C703 C 0.65317 0.42783 0.77992 0.0
C704 C 0.65301 0.48399 0.74768 0.0
C705 C 0.62644 0.43938 0.76587 0.0
C706 C 0.62445 0.53107 0.73031 0.0
C707 C 0.67674 0.55217 0.70026 0.0
N708 N 0.62695 0.46693 0.75063 0.0
N709 N 0.67714 0.52518 0.71663 0.0
H710 H 0.30156 0.06214 0.78729 0.0
H711 H 0.39826 0.92747 0.70908 0.0
H712 H 0.39792 0.07136 0.76655 0.0
H713 H 0.30258 0.94057 0.68691 0.0
H714 H 0.39763 0.97604 0.73853 0.0
H715 H 0.30056 0.01366 0.75746 0.0
C716 C 0.32243 0.05411 0.77636 0.0
C717 C 0.34986 0.07081 0.77937 0.0
C718 C 0.37678 0.96817 0.72725 0.0
C719 C 0.34896 0.01525 0.74594 0.0
C720 C 0.37703 0.94037 0.71068 0.0
C721 C 0.35042 0.92998 0.69549 0.0
C722 C 0.34961 0.98542 0.7291 0.0
C723 C 0.32361 0.94775 0.69817 0.0
C724 C 0.32181 0.02649 0.75935 0.0
C725 C 0.37624 0.05929 0.76466 0.0
N726 N 0.32383 0.97461 0.7148 0.0
N727 N 0.37523 0.03202 0.74886 0.0
H728 H 0.47474 0.16015 0.8525 0.0
H729 H 0.5305 0.33653 0.8539 0.0
H730 H 0.41299 0.23813 0.84719 0.0
H731 H 0.59207 0.25875 0.84467 0.0
H732 H 0.48736 0.30074 0.85628 0.0
H733 H 0.51798 0.19588 0.85447 0.0
C734 C 0.47023 0.18481 0.85188 0.0
C735 C 0.44016 0.19617 0.84955 0.0
C736 C 0.5103 0.29147 0.8538 0.0
C737 C 0.48969 0.23722 0.85179 0.0
C738 C 0.535 0.31189 0.85249 0.0
C739 C 0.56498 0.30062 0.84895 0.0
C740 C 0.51555 0.25948 0.85166 0.0
C741 C 0.56934 0.26846 0.84731 0.0
C742 C 0.49498 0.20519 0.85295 0.0
C743 C 0.43577 0.22835 0.84888 0.0
N744 N 0.54487 0.24901 0.84863 0.0
N745 N 0.46029 0.24776 0.84994 0.0
H746 H 0.37671 0.58669 0.22283 0.0
H747 H 0.37611 0.4053 0.2602 0.0
H748 H 0.34593 0.51808 0.15635 0.0
H749 H 0.34923 0.47439 0.32783 0.0
H750 H 0.38427 0.44678 0.22144 0.0
H751 H 0.38579 0.54509 0.26122 0.0
C752 C 0.37249 0.56284 0.21618 0.0
C753 C 0.36018 0.55565 0.18672 0.0
C754 C 0.37719 0.45273 0.245 0.0
C755 C 0.37107 0.50844 0.22977 0.0
C756 C 0.37264 0.42922 0.26701 0.0
C757 C 0.36166 0.43664 0.29691 0.0
C758 C 0.37144 0.48365 0.25344 0.0
C759 C 0.35735 0.46787 0.30477 0.0
C760 C 0.3776 0.53926 0.23798 0.0
C761 C 0.35501 0.52448 0.17908 0.0
N762 N 0.36218 0.49031 0.28311 0.0
N763 N 0.36042 0.50195 0.20053 0.0
H764 H 0.61202 0.05742 0.28591 0.0
H765 H 0.69695 0.96079 0.15198 0.0
H766 H 0.70774 0.06551 0.26212 0.0
H767 H 0.61202 0.92924 0.19304 0.0
H768 H 0.69579 0.00581 0.18571 0.0
H769 H 0.60654 0.01683 0.24554 0.0
C770 C 0.63167 0.05103 0.27183 0.0
C771 C 0.66042 0.06455 0.27736 0.0
C772 C 0.67734 0.98911 0.18741 0.0
C773 C 0.65436 0.01871 0.23162 0.0
C774 C 0.67797 0.96325 0.16811 0.0
C775 C 0.65474 0.94083 0.1699 0.0
C776 C 0.65336 0.99286 0.20889 0.0
C777 C 0.63058 0.94577 0.1911 0.0
C778 C 0.62859 0.0278 0.24907 0.0
C779 C 0.68525 0.05542 0.25877 0.0
N780 N 0.63058 0.97126 0.20999 0.0
N781 N 0.68164 0.03308 0.23682 0.0
H782 H 0.56957 0.78188 0.17982 0.0
H783 H 0.38911 0.76488 0.15989 0.0
H784 H 0.50859 0.85816 0.15996 0.0
H785 H 0.45094 0.68782 0.17268 0.0
H786 H 0.43113 0.80044 0.17132 0.0
H787 H 0.5252 0.74879 0.18917 0.0
C788 C 0.54686 0.79185 0.17796 0.0
C789 C 0.54278 0.82268 0.16839 0.0
C790 C 0.43543 0.77575 0.17204 0.0
C791 C 0.49189 0.7848 0.17876 0.0
C792 C 0.41143 0.7554 0.16548 0.0
C793 C 0.41667 0.72333 0.16468 0.0
C794 C 0.46491 0.76396 0.17768 0.0
C795 C 0.44597 0.71239 0.17258 0.0
C796 C 0.52152 0.77289 0.18324 0.0
C797 C 0.51282 0.83441 0.16679 0.0
N798 N 0.4691 0.73269 0.17831 0.0
N799 N 0.4885 0.81531 0.1714 0.0
loop_
_geom_bond_atom_site_label_1
_geom_bond_atom_site_label_2
_geom_bond_distance
_geom_bond_site_symmetry_2
_ccdc_geom_bond_type
Mg0 O1 2.028 . S
Mg0 O7 1.986 . S
Mg0 O9 2.114 . S
Mg0 O10 2.251 . S
Mg0 O13 2.010 . S
O1 Mg0 2.028 . S
O1 C4 1.250 . S
O2 Mg3 2.028 . S
O2 C4 1.248 . S
Mg3 O2 2.028 . S
Mg3 O8 2.032 . S
Mg3 O10 2.079 . S
C4 O1 1.250 . S
C4 O2 1.248 . S
C5 O6 1.264 . S
C5 O13 1.249 . S
O6 C5 1.264 . S
O7 Mg0 1.986 . S
O7 C11 1.246 . S
O8 Mg3 2.032 . S
O8 C11 1.259 . S
O9 Mg0 2.114 . S
O9 C12 1.252 . S
O10 Mg0 2.251 . S
O10 Mg3 2.079 . S
O10 C12 1.273 . S
C11 O7 1.246 . S
C11 O8 1.259 . S
C12 O9 1.252 . S
C12 O10 1.273 . S
O13 Mg0 2.010 . S
O13 C5 1.249 . S
Mg14 O15 2.028 . S
Mg14 O21 1.986 . S
Mg14 O23 2.114 . S
Mg14 O24 2.251 . S
Mg14 O27 2.010 . S
O15 Mg14 2.028 . S
O15 C18 1.250 . S
O16 Mg17 2.028 . S
O16 C18 1.248 . S
Mg17 O16 2.028 . S
Mg17 O22 2.032 . S
Mg17 O24 2.079 . S
C18 O15 1.250 . S
C18 O16 1.248 . S
C19 O20 1.264 . S
C19 O27 1.249 . S
O20 C19 1.264 . S
O21 Mg14 1.986 . S
O21 C25 1.246 . S
O22 Mg17 2.032 . S
O22 C25 1.259 . S
O23 Mg14 2.114 . S
O23 C26 1.252 . S
O24 Mg14 2.251 . S
O24 Mg17 2.079 . S
O24 C26 1.273 . S
C25 O21 1.246 . S
C25 O22 1.259 . S
C26 O23 1.252 . S
C26 O24 1.273 . S
O27 Mg14 2.010 . S
O27 C19 1.249 . S
Mg28 O29 2.028 . S
Mg28 O35 1.986 . S
Mg28 O37 2.114 . S
Mg28 O38 2.251 . S
Mg28 O41 2.010 . S
O29 Mg28 2.028 . S
O29 C32 1.250 . S
O30 Mg31 2.028 . S
O30 C32 1.248 . S
Mg31 O30 2.028 . S
Mg31 O36 2.032 . S
Mg31 O38 2.079 . S
C32 O29 1.250 . S
C32 O30 1.248 . S
C33 O34 1.264 . S
C33 O41 1.249 . S
O34 C33 1.264 . S
O35 Mg28 1.986 . S
O35 C39 1.246 . S
O36 Mg31 2.032 . S
O36 C39 1.259 . S
O37 Mg28 2.114 . S
O37 C40 1.252 . S
O38 Mg28 2.251 . S
O38 Mg31 2.079 . S
O38 C40 1.273 . S
C39 O35 1.246 . S
C39 O36 1.259 . S
C40 O37 1.252 . S
C40 O38 1.273 . S
O41 Mg28 2.010 . S
O41 C33 1.249 . S
Mg42 O43 2.028 . S
Mg42 O49 1.986 . S
Mg42 O51 2.114 . S
Mg42 O52 2.251 . S
Mg42 O55 2.010 . S
O43 Mg42 2.028 . S
O43 C46 1.250 . S
O44 Mg45 2.028 . S
O44 C46 1.248 . S
Mg45 O44 2.028 . S
Mg45 O50 2.032 . S
Mg45 O52 2.079 . S
C46 O43 1.250 . S
C46 O44 1.248 . S
C47 O48 1.264 . S
C47 O55 1.249 . S
O48 C47 1.264 . S
O49 Mg42 1.986 . S
O49 C53 1.246 . S
O50 Mg45 2.032 . S
O50 C53 1.259 . S
O51 Mg42 2.114 . S
O51 C54 1.252 . S
O52 Mg42 2.251 . S
O52 Mg45 2.079 . S
O52 C54 1.273 . S
C53 O49 1.246 . S
C53 O50 1.259 . S
C54 O51 1.252 . S
C54 O52 1.273 . S
O55 Mg42 2.010 . S
O55 C47 1.249 . S
Mg56 O57 2.028 . S
Mg56 O63 1.986 . S
Mg56 O65 2.114 . S
Mg56 O66 2.251 . S
Mg56 O69 2.010 . S
O57 Mg56 2.028 . S
O57 C60 1.250 . S
O58 Mg59 2.028 . S
O58 C60 1.248 . S
Mg59 O58 2.028 . S
Mg59 O64 2.032 . S
Mg59 O66 2.079 . S
C60 O57 1.250 . S
C60 O58 1.248 . S
C61 O62 1.264 . S
C61 O69 1.249 . S
O62 C61 1.264 . S
O63 Mg56 1.986 . S
O63 C67 1.246 . S
O64 Mg59 2.032 . S
O64 C67 1.259 . S
O65 Mg56 2.114 . S
O65 C68 1.252 . S
O66 Mg56 2.251 . S
O66 Mg59 2.079 . S
O66 C68 1.273 . S
C67 O63 1.246 . S
C67 O64 1.259 . S
C68 O65 1.252 . S
C68 O66 1.273 . S
O69 Mg56 2.010 . S
O69 C61 1.249 . S
Mg70 O71 2.028 . S
Mg70 O77 1.986 . S
Mg70 O79 2.114 . S
Mg70 O80 2.251 . S
Mg70 O83 2.010 . S
O71 Mg70 2.028 . S
O71 C74 1.250 . S
O72 Mg73 2.028 . S
O72 C74 1.248 . S
Mg73 O72 2.028 . S
Mg73 O78 2.032 . S
Mg73 O80 2.079 . S
C74 O71 1.250 . S
C74 O72 1.248 . S
C75 O76 1.264 . S
C75 O83 1.249 . S
O76 C75 1.264 . S
O77 Mg70 1.986 . S
O77 C81 1.246 . S
O78 Mg73 2.032 . S
O78 C81 1.259 . S
O79 Mg70 2.114 . S
O79 C82 1.252 . S
O80 Mg70 2.251 . S
O80 Mg73 2.079 . S
O80 C82 1.273 . S
C81 O77 1.246 . S
C81 O78 1.259 . S
C82 O79 1.252 . S
C82 O80 1.273 . S
O83 Mg70 2.010 . S
O83 C75 1.249 . S
Mg84 O85 2.028 . S
Mg84 O91 1.986 . S
Mg84 O93 2.114 . S
Mg84 O94 2.251 . S
Mg84 O97 2.010 . S
O85 Mg84 2.028 . S
O85 C88 1.250 . S
O86 Mg87 2.028 . S
O86 C88 1.248 . S
Mg87 O86 2.028 . S
Mg87 O92 2.032 . S
Mg87 O94 2.079 . S
C88 O85 1.250 . S
C88 O86 1.248 . S
C89 O90 1.264 . S
C89 O97 1.249 . S
O90 C89 1.264 . S
O91 Mg84 1.986 . S
O91 C95 1.246 . S
O92 Mg87 2.032 . S
O92 C95 1.259 . S
O93 Mg84 2.114 . S
O93 C96 1.252 . S
O94 Mg84 2.251 . S
O94 Mg87 2.079 . S
O94 C96 1.273 . S
C95 O91 1.246 . S
C95 O92 1.259 . S
C96 O93 1.252 . S
C96 O94 1.273 . S
O97 Mg84 2.010 . S
O97 C89 1.249 . S
Mg98 O99 2.028 . S
Mg98 O105 1.986 . S
Mg98 O107 2.114 . S
Mg98 O108 2.251 . S
Mg98 O111 2.010 . S
O99 Mg98 2.028 . S
O99 C102 1.250 . S
O100 Mg101 2.028 . S
O100 C102 1.248 . S
Mg101 O100 2.028 . S
Mg101 O106 2.032 . S
Mg101 O108 2.079 . S
C102 O99 1.250 . S
C102 O100 1.248 . S
C103 O104 1.264 . S
C103 O111 1.249 . S
O104 C103 1.264 . S
O105 Mg98 1.986 . S
O105 C109 1.246 . S
O106 Mg101 2.032 . S
O106 C109 1.259 . S
O107 Mg98 2.114 . S
O107 C110 1.252 . S
O108 Mg98 2.251 . S
O108 Mg101 2.079 . S
O108 C110 1.273 . S
C109 O105 1.246 . S
C109 O106 1.259 . S
C110 O107 1.252 . S
C110 O108 1.273 . S
O111 Mg98 2.010 . S
O111 C103 1.249 . S
Mg112 O113 2.028 . S
Mg112 O119 1.986 . S
Mg112 O121 2.114 . S
Mg112 O122 2.251 . S
Mg112 O125 2.010 . S
O113 Mg112 2.028 . S
O113 C116 1.250 . S
O114 Mg115 2.028 . S
O114 C116 1.248 . S
Mg115 O114 2.028 . S
Mg115 O120 2.032 . S
Mg115 O122 2.079 . S
C116 O113 1.250 . S
C116 O114 1.248 . S
C117 O118 1.264 . S
C117 O125 1.249 . S
O118 C117 1.264 . S
O119 Mg112 1.986 . S
O119 C123 1.246 . S
O120 Mg115 2.032 . S
O120 C123 1.259 . S
O121 Mg112 2.114 . S
O121 C124 1.252 . S
O122 Mg112 2.251 . S
O122 Mg115 2.079 . S
O122 C124 1.273 . S
C123 O119 1.246 . S
C123 O120 1.259 . S
C124 O121 1.252 . S
C124 O122 1.273 . S
O125 Mg112 2.010 . S
O125 C117 1.249 . S
Mg126 O127 2.028 . S
Mg126 O133 1.986 . S
Mg126 O135 2.114 . S
Mg126 O136 2.251 . S
Mg126 O139 2.010 . S
O127 Mg126 2.028 . S
O127 C130 1.250 . S
O128 Mg129 2.028 . S
O128 C130 1.248 . S
Mg129 O128 2.028 . S
Mg129 O134 2.032 . S
Mg129 O136 2.079 . S
C130 O127 1.250 . S
C130 O128 1.248 . S
C131 O132 1.264 . S
C131 O139 1.249 . S
O132 C131 1.264 . S
O133 Mg126 1.986 . S
O133 C137 1.246 . S
O134 Mg129 2.032 . S
O134 C137 1.259 . S
O135 Mg126 2.114 . S
O135 C138 1.252 . S
O136 Mg126 2.251 . S
O136 Mg129 2.079 . S
O136 C138 1.273 . S
C137 O133 1.246 . S
C137 O134 1.259 . S
C138 O135 1.252 . S
C138 O136 1.273 . S
O139 Mg126 2.010 . S
O139 C131 1.249 . S
Mg140 O141 2.028 . S
Mg140 O147 1.986 . S
Mg140 O149 2.114 . S
Mg140 O150 2.251 . S
Mg140 O153 2.010 . S
O141 Mg140 2.028 . S
O141 C144 1.250 . S
O142 Mg143 2.028 . S
O142 C144 1.248 . S
Mg143 O142 2.028 . S
Mg143 O148 2.032 . S
Mg143 O150 2.079 . S
C144 O141 1.250 . S
C144 O142 1.248 . S
C145 O146 1.264 . S
C145 O153 1.249 . S
O146 C145 1.264 . S
O147 Mg140 1.986 . S
O147 C151 1.246 . S
O148 Mg143 2.032 . S
O148 C151 1.259 . S
O149 Mg140 2.114 . S
O149 C152 1.252 . S
O150 Mg140 2.251 . S
O150 Mg143 2.079 . S
O150 C152 1.273 . S
C151 O147 1.246 . S
C151 O148 1.259 . S
C152 O149 1.252 . S
C152 O150 1.273 . S
O153 Mg140 2.010 . S
O153 C145 1.249 . S
Mg154 O155 2.028 . S
Mg154 O161 1.986 . S
Mg154 O163 2.114 . S
Mg154 O164 2.251 . S
Mg154 O167 2.010 . S
O155 Mg154 2.028 . S
O155 C158 1.250 . S
O156 Mg157 2.028 . S
O156 C158 1.248 . S
Mg157 O156 2.028 . S
Mg157 O162 2.032 . S
Mg157 O164 2.079 . S
C158 O155 1.250 . S
C158 O156 1.248 . S
C159 O160 1.264 . S
C159 O167 1.249 . S
O160 C159 1.264 . S
O161 Mg154 1.986 . S
O161 C165 1.246 . S
O162 Mg157 2.032 . S
O162 C165 1.259 . S
O163 Mg154 2.114 . S
O163 C166 1.252 . S
O164 Mg154 2.251 . S
O164 Mg157 2.079 . S
O164 C166 1.273 . S
C165 O161 1.246 . S
C165 O162 1.259 . S
C166 O163 1.252 . S
C166 O164 1.273 . S
O167 Mg154 2.010 . S
O167 C159 1.249 . S
Mg168 O169 2.028 . S
Mg168 O175 1.986 . S
Mg168 O177 2.114 . S
Mg168 O178 2.251 . S
Mg168 O181 2.010 . S
O169 Mg168 2.028 . S
O169 C172 1.250 . S
O170 Mg171 2.028 . S
O170 C172 1.248 . S
Mg171 O170 2.028 . S
Mg171 O176 2.032 . S
Mg171 O178 2.079 . S
C172 O169 1.250 . S
C172 O170 1.248 . S
C173 O174 1.264 . S
C173 O181 1.249 . S
O174 C173 1.264 . S
O175 Mg168 1.986 . S
O175 C179 1.246 . S
O176 Mg171 2.032 . S
O176 C179 1.259 . S
O177 Mg168 2.114 . S
O177 C180 1.252 . S
O178 Mg168 2.251 . S
O178 Mg171 2.079 . S
O178 C180 1.273 . S
C179 O175 1.246 . S
C179 O176 1.259 . S
C180 O177 1.252 . S
C180 O178 1.273 . S
O181 Mg168 2.010 . S
O181 C173 1.249 . S
Mg182 O183 2.028 . S
Mg182 O189 1.986 . S
Mg182 O191 2.114 . S
Mg182 O192 2.251 . S
Mg182 O195 2.010 . S
O183 Mg182 2.028 . S
O183 C186 1.250 . S
O184 Mg185 2.028 . S
O184 C186 1.248 . S
Mg185 O184 2.028 . S
Mg185 O190 2.032 . S
Mg185 O192 2.079 . S
C186 O183 1.250 . S
C186 O184 1.248 . S
C187 O188 1.264 . S
C187 O195 1.249 . S
O188 C187 1.264 . S
O189 Mg182 1.986 . S
O189 C193 1.246 . S
O190 Mg185 2.032 . S
O190 C193 1.259 . S
O191 Mg182 2.114 . S
O191 C194 1.252 . S
O192 Mg182 2.251 . S
O192 Mg185 2.079 . S
O192 C194 1.273 . S
C193 O189 1.246 . S
C193 O190 1.259 . S
C194 O191 1.252 . S
C194 O192 1.273 . S
O195 Mg182 2.010 . S
O195 C187 1.249 . S
Mg196 O197 2.028 . S
Mg196 O203 1.986 . S
Mg196 O205 2.114 . S
Mg196 O206 2.251 . S
Mg196 O209 2.010 . S
O197 Mg196 2.028 . S
O197 C200 1.250 . S
O198 Mg199 2.028 . S
O198 C200 1.248 . S
Mg199 O198 2.028 . S
Mg199 O204 2.032 . S
Mg199 O206 2.079 . S
C200 O197 1.250 . S
C200 O198 1.248 . S
C201 O202 1.264 . S
C201 O209 1.249 . S
O202 C201 1.264 . S
O203 Mg196 1.986 . S
O203 C207 1.246 . S
O204 Mg199 2.032 . S
O204 C207 1.259 . S
O205 Mg196 2.114 . S
O205 C208 1.252 . S
O206 Mg196 2.251 . S
O206 Mg199 2.079 . S
O206 C208 1.273 . S
C207 O203 1.246 . S
C207 O204 1.259 . S
C208 O205 1.252 . S
C208 O206 1.273 . S
O209 Mg196 2.010 . S
O209 C201 1.249 . S
Mg210 O211 2.028 . S
Mg210 O217 1.986 . S
Mg210 O219 2.114 . S
Mg210 O220 2.251 . S
Mg210 O223 2.010 . S
O211 Mg210 2.028 . S
O211 C214 1.250 . S
O212 Mg213 2.028 . S
O212 C214 1.248 . S
Mg213 O212 2.028 . S
Mg213 O218 2.032 . S
Mg213 O220 2.079 . S
C214 O211 1.250 . S
C214 O212 1.248 . S
C215 O216 1.264 . S
C215 O223 1.249 . S
O216 C215 1.264 . S
O217 Mg210 1.986 . S
O217 C221 1.246 . S
O218 Mg213 2.032 . S
O218 C221 1.259 . S
O219 Mg210 2.114 . S
O219 C222 1.252 . S
O220 Mg210 2.251 . S
O220 Mg213 2.079 . S
O220 C222 1.273 . S
C221 O217 1.246 . S
C221 O218 1.259 . S
C222 O219 1.252 . S
C222 O220 1.273 . S
O223 Mg210 2.010 . S
O223 C215 1.249 . S
H224 C230 0.930 . S
H225 C234 0.930 . S
H226 C239 0.929 . S
H227 C237 0.929 . S
H228 C232 0.929 . S
H229 C238 0.929 . S
C230 H224 0.930 . S
C230 C231 1.367 . S
C230 C238 1.378 . S
C231 C230 1.367 . S
C231 C239 1.433 . S
C232 H228 0.929 . S
C232 C234 1.378 . S
C232 C236 1.350 . S
C233 C236 1.463 . S
C233 C238 1.350 . S
C233 N241 1.427 . S
C234 H225 0.930 . S
C234 C232 1.378 . S
C234 C235 1.367 . S
C235 C234 1.367 . S
C235 C237 1.433 . S
C236 C232 1.350 . S
C236 C233 1.463 . S
C236 N240 1.427 . S
C237 H227 0.929 . S
C237 C235 1.433 . S
C237 N240 1.384 . S
C238 H229 0.929 . S
C238 C230 1.378 . S
C238 C233 1.350 . S
C239 H226 0.929 . S
C239 C231 1.433 . S
C239 N241 1.384 . S
N240 C236 1.427 . S
N240 C237 1.384 . S
N241 C233 1.427 . S
N241 C239 1.384 . S
H242 C248 0.930 . S
H243 C252 0.930 . S
H244 C257 0.929 . S
H245 C255 0.929 . S
H246 C250 0.929 . S
H247 C256 0.929 . S
C248 H242 0.930 . S
C248 C249 1.367 . S
C248 C256 1.378 . S
C249 C248 1.367 . S
C249 C257 1.433 . S
C250 H246 0.929 . S
C250 C252 1.378 . S
C250 C254 1.350 . S
C251 C254 1.463 . S
C251 C256 1.350 . S
C251 N259 1.427 . S
C252 H243 0.930 . S
C252 C250 1.378 . S
C252 C253 1.367 . S
C253 C252 1.367 . S
C253 C255 1.433 . S
C254 C250 1.350 . S
C254 C251 1.463 . S
C254 N258 1.427 . S
C255 H245 0.929 . S
C255 C253 1.433 . S
C255 N258 1.384 . S
C256 H247 0.929 . S
C256 C248 1.378 . S
C256 C251 1.350 . S
C257 H244 0.929 . S
C257 C249 1.433 . S
C257 N259 1.384 . S
N258 C254 1.427 . S
N258 C255 1.384 . S
N259 C251 1.427 . S
N259 C257 1.384 . S
H260 C266 0.930 . S
H261 C270 0.930 . S
H262 C275 0.929 . S
H263 C273 0.929 . S
H264 C268 0.929 . S
H265 C274 0.929 . S
C266 H260 0.930 . S
C266 C267 1.367 . S
C266 C274 1.378 . S
C267 C266 1.367 . S
C267 C275 1.433 . S
C268 H264 0.929 . S
C268 C270 1.378 . S
C268 C272 1.350 . S
C269 C272 1.463 . S
C269 C274 1.350 . S
C269 N277 1.427 . S
C270 H261 0.930 . S
C270 C268 1.378 . S
C270 C271 1.367 . S
C271 C270 1.367 . S
C271 C273 1.433 . S
C272 C268 1.350 . S
C272 C269 1.463 . S
C272 N276 1.427 . S
C273 H263 0.929 . S
C273 C271 1.433 . S
C273 N276 1.384 . S
C274 H265 0.929 . S
C274 C266 1.378 . S
C274 C269 1.350 . S
C275 H262 0.929 . S
C275 C267 1.433 . S
C275 N277 1.384 . S
N276 C272 1.427 . S
N276 C273 1.384 . S
N277 C269 1.427 . S
N277 C275 1.384 . S
H278 C284 0.930 . S
H279 C288 0.930 . S
H280 C293 0.929 . S
H281 C291 0.929 . S
H282 C286 0.929 . S
H283 C292 0.929 . S
C284 H278 0.930 . S
C284 C285 1.367 . S
C284 C292 1.378 . S
C285 C284 1.367 . S
C285 C293 1.433 . S
C286 H282 0.929 . S
C286 C288 1.378 . S
C286 C290 1.350 . S
C287 C290 1.463 . S
C287 C292 1.350 . S
C287 N295 1.427 . S
C288 H279 0.930 . S
C288 C286 1.378 . S
C288 C289 1.367 . S
C289 C288 1.367 . S
C289 C291 1.433 . S
C290 C286 1.350 . S
C290 C287 1.463 . S
C290 N294 1.427 . S
C291 H281 0.929 . S
C291 C289 1.433 . S
C291 N294 1.384 . S
C292 H283 0.929 . S
C292 C284 1.378 . S
C292 C287 1.350 . S
C293 H280 0.929 . S
C293 C285 1.433 . S
C293 N295 1.384 . S
N294 C290 1.427 . S
N294 C291 1.384 . S
N295 C287 1.427 . S
N295 C293 1.384 . S
H296 C302 0.930 . S
H297 C306 0.930 . S
H298 C311 0.929 . S
H299 C309 0.929 . S
H300 C304 0.929 . S
H301 C310 0.929 . S
C302 H296 0.930 . S
C302 C303 1.367 . S
C302 C310 1.378 . S
C303 C302 1.367 . S
C303 C311 1.433 . S
C304 H300 0.929 . S
C304 C306 1.378 . S
C304 C308 1.350 . S
C305 C308 1.463 . S
C305 C310 1.350 . S
C305 N313 1.427 . S
C306 H297 0.930 . S
C306 C304 1.378 . S
C306 C307 1.367 . S
C307 C306 1.367 . S
C307 C309 1.433 . S
C308 C304 1.350 . S
C308 C305 1.463 . S
C308 N312 1.427 . S
C309 H299 0.929 . S
C309 C307 1.433 . S
C309 N312 1.384 . S
C310 H301 0.929 . S
C310 C302 1.378 . S
C310 C305 1.350 . S
C311 H298 0.929 . S
C311 C303 1.433 . S
C311 N313 1.384 . S
N312 C308 1.427 . S
N312 C309 1.384 . S
N313 C305 1.427 . S
N313 C311 1.384 . S
H314 C320 0.930 . S
H315 C324 0.930 . S
H316 C329 0.929 . S
H317 C327 0.929 . S
H318 C322 0.929 . S
H319 C328 0.929 . S
C320 H314 0.930 . S
C320 C321 1.367 . S
C320 C328 1.378 . S
C321 C320 1.367 . S
C321 C329 1.433 . S
C322 H318 0.929 . S
C322 C324 1.378 . S
C322 C326 1.350 . S
C323 C326 1.463 . S
C323 C328 1.350 . S
C323 N331 1.427 . S
C324 H315 0.930 . S
C324 C322 1.378 . S
C324 C325 1.367 . S
C325 C324 1.367 . S
C325 C327 1.433 . S
C326 C322 1.350 . S
C326 C323 1.463 . S
C326 N330 1.427 . S
C327 H317 0.929 . S
C327 C325 1.433 . S
C327 N330 1.384 . S
C328 H319 0.929 . S
C328 C320 1.378 . S
C328 C323 1.350 . S
C329 H316 0.929 . S
C329 C321 1.433 . S
C329 N331 1.384 . S
N330 C326 1.427 . S
N330 C327 1.384 . S
N331 C323 1.427 . S
N331 C329 1.384 . S
H332 C338 0.930 . S
H333 C342 0.930 . S
H334 C347 0.929 . S
H335 C345 0.929 . S
H336 C340 0.929 . S
H337 C346 0.929 . S
C338 H332 0.930 . S
C338 C339 1.367 . S
C338 C346 1.378 . S
C339 C338 1.367 . S
C339 C347 1.433 . S
C340 H336 0.929 . S
C340 C342 1.378 . S
C340 C344 1.350 . S
C341 C344 1.463 . S
C341 C346 1.350 . S
C341 N349 1.427 . S
C342 H333 0.930 . S
C342 C340 1.378 . S
C342 C343 1.367 . S
C343 C342 1.367 . S
C343 C345 1.433 . S
C344 C340 1.350 . S
C344 C341 1.463 . S
C344 N348 1.427 . S
C345 H335 0.929 . S
C345 C343 1.433 . S
C345 N348 1.384 . S
C346 H337 0.929 . S
C346 C338 1.378 . S
C346 C341 1.350 . S
C347 H334 0.929 . S
C347 C339 1.433 . S
C347 N349 1.384 . S
N348 C344 1.427 . S
N348 C345 1.384 . S
N349 C341 1.427 . S
N349 C347 1.384 . S
H350 C356 0.930 . S
H351 C360 0.930 . S
H352 C365 0.929 . S
H353 C363 0.929 . S
H354 C358 0.929 . S
H355 C364 0.929 . S
C356 H350 0.930 . S
C356 C357 1.367 . S
C356 C364 1.378 . S
C357 C356 1.367 . S
C357 C365 1.433 . S
C358 H354 0.929 . S
C358 C360 1.378 . S
C358 C362 1.350 . S
C359 C362 1.463 . S
C359 C364 1.350 . S
C359 N367 1.427 . S
C360 H351 0.930 . S
C360 C358 1.378 . S
C360 C361 1.367 . S
C361 C360 1.367 . S
C361 C363 1.433 . S
C362 C358 1.350 . S
C362 C359 1.463 . S
C362 N366 1.427 . S
C363 H353 0.929 . S
C363 C361 1.433 . S
C363 N366 1.384 . S
C364 H355 0.929 . S
C364 C356 1.378 . S
C364 C359 1.350 . S
C365 H352 0.929 . S
C365 C357 1.433 . S
C365 N367 1.384 . S
N366 C362 1.427 . S
N366 C363 1.384 . S
N367 C359 1.427 . S
N367 C365 1.384 . S
H368 C374 0.930 . S
H369 C378 0.930 . S
H370 C383 0.929 . S
H371 C381 0.929 . S
H372 C376 0.929 . S
H373 C382 0.929 . S
C374 H368 0.930 . S
C374 C375 1.367 . S
C374 C382 1.378 . S
C375 C374 1.367 . S
C375 C383 1.433 . S
C376 H372 0.929 . S
C376 C378 1.378 . S
C376 C380 1.350 . S
C377 C380 1.463 1_565 S
C377 C382 1.350 . S
C377 N385 1.427 . S
C378 H369 0.930 . S
C378 C376 1.378 . S
C378 C379 1.367 . S
C379 C378 1.367 . S
C379 C381 1.433 . S
C380 C376 1.350 . S
C380 C377 1.463 1_545 S
C380 N384 1.427 . S
C381 H371 0.929 . S
C381 C379 1.433 . S
C381 N384 1.384 . S
C382 H373 0.929 . S
C382 C374 1.378 . S
C382 C377 1.350 . S
C383 H370 0.929 . S
C383 C375 1.433 . S
C383 N385 1.384 . S
N384 C380 1.427 . S
N384 C381 1.384 . S
N385 C377 1.427 . S
N385 C383 1.384 . S
H386 C392 0.930 . S
H387 C396 0.930 . S
H388 C401 0.929 . S
H389 C399 0.929 . S
H390 C394 0.929 . S
H391 C400 0.929 . S
C392 H386 0.930 . S
C392 C393 1.367 . S
C392 C400 1.378 . S
C393 C392 1.367 . S
C393 C401 1.433 . S
C394 H390 0.929 . S
C394 C396 1.378 . S
C394 C398 1.350 . S
C395 C398 1.463 . S
C395 C400 1.350 . S
C395 N403 1.427 . S
C396 H387 0.930 . S
C396 C394 1.378 . S
C396 C397 1.367 . S
C397 C396 1.367 . S
C397 C399 1.433 . S
C398 C394 1.350 . S
C398 C395 1.463 . S
C398 N402 1.427 . S
C399 H389 0.929 . S
C399 C397 1.433 . S
C399 N402 1.384 . S
C400 H391 0.929 . S
C400 C392 1.378 . S
C400 C395 1.350 . S
C401 H388 0.929 . S
C401 C393 1.433 . S
C401 N403 1.384 . S
N402 C398 1.427 . S
N402 C399 1.384 . S
N403 C395 1.427 . S
N403 C401 1.384 . S
H404 C410 0.930 . S
H405 C414 0.930 . S
H406 C419 0.929 . S
H407 C417 0.929 . S
H408 C412 0.929 . S
H409 C418 0.929 . S
C410 H404 0.930 . S
C410 C411 1.367 . S
C410 C418 1.378 . S
C411 C410 1.367 . S
C411 C419 1.433 . S
C412 H408 0.929 . S
C412 C414 1.378 . S
C412 C416 1.350 . S
C413 C416 1.463 1_556 S
C413 C418 1.350 . S
C413 N421 1.427 . S
C414 H405 0.930 . S
C414 C412 1.378 . S
C414 C415 1.367 . S
C415 C414 1.367 . S
C415 C417 1.433 . S
C416 C412 1.350 . S
C416 C413 1.463 1_554 S
C416 N420 1.427 . S
C417 H407 0.929 . S
C417 C415 1.433 . S
C417 N420 1.384 . S
C418 H409 0.929 . S
C418 C410 1.378 . S
C418 C413 1.350 . S
C419 H406 0.929 . S
C419 C411 1.433 . S
C419 N421 1.384 . S
N420 C416 1.427 . S
N420 C417 1.384 . S
N421 C413 1.427 . S
N421 C419 1.384 . S
H422 C428 0.930 . S
H423 C432 0.930 . S
H424 C437 0.929 . S
H425 C435 0.929 . S
H426 C430 0.929 . S
H427 C436 0.929 . S
C428 H422 0.930 . S
C428 C429 1.367 . S
C428 C436 1.378 . S
C429 C428 1.367 . S
C429 C437 1.433 . S
C430 H426 0.929 . S
C430 C432 1.378 . S
C430 C434 1.350 . S
C431 C434 1.463 1_554 S
C431 C436 1.350 . S
C431 N439 1.427 . S
C432 H423 0.930 . S
C432 C430 1.378 . S
C432 C433 1.367 . S
C433 C432 1.367 . S
C433 C435 1.433 . S
C434 C430 1.350 . S
C434 C431 1.463 1_556 S
C434 N438 1.427 . S
C435 H425 0.929 . S
C435 C433 1.433 . S
C435 N438 1.384 . S
C436 H427 0.929 . S
C436 C428 1.378 . S
C436 C431 1.350 . S
C437 H424 0.929 . S
C437 C429 1.433 . S
C437 N439 1.384 . S
N438 C434 1.427 . S
N438 C435 1.384 . S
N439 C431 1.427 . S
N439 C437 1.384 . S
H440 C446 0.930 . S
H441 C450 0.930 . S
H442 C455 0.929 . S
H443 C453 0.929 . S
H444 C448 0.929 . S
H445 C454 0.929 . S
C446 H440 0.930 . S
C446 C447 1.367 . S
C446 C454 1.378 . S
C447 C446 1.367 . S
C447 C455 1.433 . S
C448 H444 0.929 . S
C448 C450 1.378 . S
C448 C452 1.350 . S
C449 C452 1.463 . S
C449 C454 1.350 . S
C449 N457 1.427 . S
C450 H441 0.930 . S
C450 C448 1.378 . S
C450 C451 1.367 . S
C451 C450 1.367 . S
C451 C453 1.433 . S
C452 C448 1.350 . S
C452 C449 1.463 . S
C452 N456 1.427 . S
C453 H443 0.929 . S
C453 C451 1.433 . S
C453 N456 1.384 . S
C454 H445 0.929 . S
C454 C446 1.378 . S
C454 C449 1.350 . S
C455 H442 0.929 . S
C455 C447 1.433 . S
C455 N457 1.384 . S
N456 C452 1.427 . S
N456 C453 1.384 . S
N457 C449 1.427 . S
N457 C455 1.384 . S
H458 C464 0.930 . S
H459 C468 0.930 . S
H460 C473 0.929 . S
H461 C471 0.929 . S
H462 C466 0.929 . S
H463 C472 0.929 . S
C464 H458 0.930 . S
C464 C465 1.367 . S
C464 C472 1.378 . S
C465 C464 1.367 . S
C465 C473 1.433 . S
C466 H462 0.929 . S
C466 C468 1.378 . S
C466 C470 1.350 . S
C467 C470 1.463 . S
C467 C472 1.350 . S
C467 N475 1.427 . S
C468 H459 0.930 . S
C468 C466 1.378 . S
C468 C469 1.367 . S
C469 C468 1.367 . S
C469 C471 1.433 . S
C470 C466 1.350 . S
C470 C467 1.463 . S
C470 N474 1.427 . S
C471 H461 0.929 . S
C471 C469 1.433 . S
C471 N474 1.384 . S
C472 H463 0.929 . S
C472 C464 1.378 . S
C472 C467 1.350 . S
C473 H460 0.929 . S
C473 C465 1.433 . S
C473 N475 1.384 . S
N474 C470 1.427 . S
N474 C471 1.384 . S
N475 C467 1.427 . S
N475 C473 1.384 . S
H476 C482 0.930 . S
H477 C486 0.930 . S
H478 C491 0.929 . S
H479 C489 0.929 . S
H480 C484 0.949 . S
H481 C490 0.949 . S
C482 H476 0.930 . S
C482 C483 1.367 . S
C482 C490 1.378 . S
C483 C482 1.367 . S
C483 C491 1.433 . S
C484 H480 0.949 . S
C484 C486 1.378 . S
C484 C488 1.350 . S
C485 C488 1.463 1_655 S
C485 C490 1.350 . S
C485 N493 1.427 . S
C486 H477 0.930 . S
C486 C484 1.378 . S
C486 C487 1.367 . S
C487 C486 1.367 . S
C487 C489 1.433 . S
C488 C484 1.350 . S
C488 C485 1.463 1_455 S
C488 N492 1.427 . S
C489 H479 0.929 . S
C489 C487 1.433 . S
C489 N492 1.384 . S
C490 H481 0.949 . S
C490 C482 1.378 . S
C490 C485 1.350 . S
C491 H478 0.929 . S
C491 C483 1.433 . S
C491 N493 1.384 . S
N492 C488 1.427 . S
N492 C489 1.384 . S
N493 C485 1.427 . S
N493 C491 1.384 . S
H494 C500 0.930 . S
H495 C504 0.930 . S
H496 C509 0.929 . S
H497 C507 0.929 . S
H498 C502 0.929 . S
H499 C508 0.929 . S
C500 H494 0.930 . S
C500 C501 1.367 . S
C500 C508 1.378 . S
C501 C500 1.367 . S
C501 C509 1.433 . S
C502 H498 0.929 . S
C502 C504 1.378 . S
C502 C506 1.350 . S
C503 C506 1.463 1_655 S
C503 C508 1.350 . S
C503 N511 1.427 . S
C504 H495 0.930 . S
C504 C502 1.378 . S
C504 C505 1.367 . S
C505 C504 1.367 . S
C505 C507 1.433 . S
C506 C502 1.350 . S
C506 C503 1.463 1_455 S
C506 N510 1.427 . S
C507 H497 0.929 . S
C507 C505 1.433 . S
C507 N510 1.384 . S
C508 H499 0.929 . S
C508 C500 1.378 . S
C508 C503 1.350 . S
C509 H496 0.929 . S
C509 C501 1.433 . S
C509 N511 1.384 . S
N510 C506 1.427 . S
N510 C507 1.384 . S
N511 C503 1.427 . S
N511 C509 1.384 . S
H512 C518 0.930 . S
H513 C522 0.930 . S
H514 C527 0.929 . S
H515 C525 0.929 . S
H516 C520 0.929 . S
H517 C526 0.929 . S
C518 H512 0.930 . S
C518 C519 1.367 . S
C518 C526 1.378 . S
C519 C518 1.367 . S
C519 C527 1.433 . S
C520 H516 0.929 . S
C520 C522 1.378 . S
C520 C524 1.350 . S
C521 C524 1.463 . S
C521 C526 1.350 . S
C521 N529 1.427 . S
C522 H513 0.930 . S
C522 C520 1.378 . S
C522 C523 1.367 . S
C523 C522 1.367 . S
C523 C525 1.433 . S
C524 C520 1.350 . S
C524 C521 1.463 . S
C524 N528 1.427 . S
C525 H515 0.929 . S
C525 C523 1.433 . S
C525 N528 1.384 . S
C526 H517 0.929 . S
C526 C518 1.378 . S
C526 C521 1.350 . S
C527 H514 0.929 . S
C527 C519 1.433 . S
C527 N529 1.384 . S
N528 C524 1.427 . S
N528 C525 1.384 . S
N529 C521 1.427 . S
N529 C527 1.384 . S
H530 C536 0.930 . S
H531 C540 0.930 . S
H532 C545 0.929 . S
H533 C543 0.929 . S
H534 C538 0.929 1_545 S
H535 C544 0.929 1_565 S
C536 H530 0.930 . S
C536 C537 1.367 . S
C536 C544 1.378 . S
C537 C536 1.367 . S
C537 C545 1.433 . S
C538 H534 0.929 1_565 S
C538 C540 1.378 . S
C538 C542 1.350 . S
C539 C542 1.463 1_545 S
C539 C544 1.350 . S
C539 N547 1.427 . S
C540 H531 0.930 . S
C540 C538 1.378 . S
C540 C541 1.367 . S
C541 C540 1.367 . S
C541 C543 1.433 . S
C542 C538 1.350 . S
C542 C539 1.463 1_565 S
C542 N546 1.427 . S
C543 H533 0.929 . S
C543 C541 1.433 . S
C543 N546 1.384 . S
C544 H535 0.929 1_545 S
C544 C536 1.378 . S
C544 C539 1.350 . S
C545 H532 0.929 . S
C545 C537 1.433 . S
C545 N547 1.384 . S
N546 C542 1.427 . S
N546 C543 1.384 . S
N547 C539 1.427 . S
N547 C545 1.384 . S
H548 C554 0.930 . S
H549 C558 0.930 . S
H550 C563 0.929 . S
H551 C561 0.929 . S
H552 C556 0.929 . S
H553 C562 0.929 . S
C554 H548 0.930 . S
C554 C555 1.367 . S
C554 C562 1.378 . S
C555 C554 1.367 . S
C555 C563 1.433 . S
C556 H552 0.929 . S
C556 C558 1.378 . S
C556 C560 1.350 . S
C557 C560 1.463 . S
C557 C562 1.350 . S
C557 N565 1.427 . S
C558 H549 0.930 . S
C558 C556 1.378 . S
C558 C559 1.367 . S
C559 C558 1.367 . S
C559 C561 1.433 . S
C560 C556 1.350 . S
C560 C557 1.463 . S
C560 N564 1.427 . S
C561 H551 0.929 . S
C561 C559 1.433 . S
C561 N564 1.384 . S
C562 H553 0.929 . S
C562 C554 1.378 . S
C562 C557 1.350 . S
C563 H550 0.929 . S
C563 C555 1.433 . S
C563 N565 1.384 . S
N564 C560 1.427 . S
N564 C561 1.384 . S
N565 C557 1.427 . S
N565 C563 1.384 . S
H566 C572 0.930 . S
H567 C576 0.930 . S
H568 C581 0.929 . S
H569 C579 0.929 . S
H570 C574 0.929 . S
H571 C580 0.929 . S
C572 H566 0.930 . S
C572 C573 1.367 . S
C572 C580 1.378 . S
C573 C572 1.367 . S
C573 C581 1.433 . S
C574 H570 0.929 . S
C574 C576 1.378 . S
C574 C578 1.350 . S
C575 C578 1.463 1_554 S
C575 C580 1.350 . S
C575 N583 1.427 . S
C576 H567 0.930 . S
C576 C574 1.378 . S
C576 C577 1.367 . S
C577 C576 1.367 . S
C577 C579 1.433 . S
C578 C574 1.350 . S
C578 C575 1.463 1_556 S
C578 N582 1.427 . S
C579 H569 0.929 . S
C579 C577 1.433 . S
C579 N582 1.384 . S
C580 H571 0.929 . S
C580 C572 1.378 . S
C580 C575 1.350 . S
C581 H568 0.929 . S
C581 C573 1.433 . S
C581 N583 1.384 . S
N582 C578 1.427 . S
N582 C579 1.384 . S
N583 C575 1.427 . S
N583 C581 1.384 . S
H584 C590 0.930 . S
H585 C594 0.930 . S
H586 C599 0.929 . S
H587 C597 0.929 . S
H588 C592 0.929 . S
H589 C598 0.929 . S
C590 H584 0.930 . S
C590 C591 1.367 . S
C590 C598 1.378 . S
C591 C590 1.367 . S
C591 C599 1.433 . S
C592 H588 0.929 . S
C592 C594 1.378 . S
C592 C596 1.350 . S
C593 C596 1.463 1_556 S
C593 C598 1.350 . S
C593 N601 1.427 . S
C594 H585 0.930 . S
C594 C592 1.378 . S
C594 C595 1.367 . S
C595 C594 1.367 . S
C595 C597 1.433 . S
C596 C592 1.350 . S
C596 C593 1.463 1_554 S
C596 N600 1.427 . S
C597 H587 0.929 . S
C597 C595 1.433 . S
C597 N600 1.384 . S
C598 H589 0.929 . S
C598 C590 1.378 . S
C598 C593 1.350 . S
C599 H586 0.929 . S
C599 C591 1.433 . S
C599 N601 1.384 . S
N600 C596 1.427 . S
N600 C597 1.384 . S
N601 C593 1.427 . S
N601 C599 1.384 . S
H602 C608 0.930 . S
H603 C612 0.930 . S
H604 C617 0.929 . S
H605 C615 0.929 . S
H606 C610 0.929 . S
H607 C616 0.929 . S
C608 H602 0.930 . S
C608 C609 1.367 . S
C608 C616 1.378 . S
C609 C608 1.367 . S
C609 C617 1.433 . S
C610 H606 0.929 . S
C610 C612 1.378 . S
C610 C614 1.350 . S
C611 C614 1.463 . S
C611 C616 1.350 . S
C611 N619 1.427 . S
C612 H603 0.930 . S
C612 C610 1.378 . S
C612 C613 1.367 . S
C613 C612 1.367 . S
C613 C615 1.433 . S
C614 C610 1.350 . S
C614 C611 1.463 . S
C614 N618 1.427 . S
C615 H605 0.929 . S
C615 C613 1.433 . S
C615 N618 1.384 . S
C616 H607 0.929 . S
C616 C608 1.378 . S
C616 C611 1.350 . S
C617 H604 0.929 . S
C617 C609 1.433 . S
C617 N619 1.384 . S
N618 C614 1.427 . S
N618 C615 1.384 . S
N619 C611 1.427 . S
N619 C617 1.384 . S
H620 C626 0.930 . S
H621 C630 0.930 . S
H622 C635 0.929 . S
H623 C633 0.929 . S
H624 C628 0.929 . S
H625 C634 0.929 . S
C626 H620 0.930 . S
C626 C627 1.367 . S
C626 C634 1.378 . S
C627 C626 1.367 . S
C627 C635 1.433 . S
C628 H624 0.929 . S
C628 C630 1.378 . S
C628 C632 1.350 . S
C629 C632 1.463 . S
C629 C634 1.350 . S
C629 N637 1.427 . S
C630 H621 0.930 . S
C630 C628 1.378 . S
C630 C631 1.367 . S
C631 C630 1.367 . S
C631 C633 1.433 . S
C632 C628 1.350 . S
C632 C629 1.463 . S
C632 N636 1.427 . S
C633 H623 0.929 . S
C633 C631 1.433 . S
C633 N636 1.384 . S
C634 H625 0.929 . S
C634 C626 1.378 . S
C634 C629 1.350 . S
C635 H622 0.929 . S
C635 C627 1.433 . S
C635 N637 1.384 . S
N636 C632 1.427 . S
N636 C633 1.384 . S
N637 C629 1.427 . S
N637 C635 1.384 . S
H638 C644 0.930 . S
H639 C648 0.930 . S
H640 C653 0.929 . S
H641 C651 0.929 . S
H642 C646 0.929 1_455 S
H643 C652 0.929 1_655 S
C644 H638 0.930 . S
C644 C645 1.367 . S
C644 C652 1.378 . S
C645 C644 1.367 . S
C645 C653 1.433 . S
C646 H642 0.929 1_655 S
C646 C648 1.378 . S
C646 C650 1.350 . S
C647 C650 1.463 1_455 S
C647 C652 1.350 . S
C647 N655 1.427 . S
C648 H639 0.930 . S
C648 C646 1.378 . S
C648 C649 1.367 . S
C649 C648 1.367 . S
C649 C651 1.433 . S
C650 C646 1.350 . S
C650 C647 1.463 1_655 S
C650 N654 1.427 . S
C651 H641 0.929 . S
C651 C649 1.433 . S
C651 N654 1.384 . S
C652 H643 0.929 1_455 S
C652 C644 1.378 . S
C652 C647 1.350 . S
C653 H640 0.929 . S
C653 C645 1.433 . S
C653 N655 1.384 . S
N654 C650 1.427 . S
N654 C651 1.384 . S
N655 C647 1.427 . S
N655 C653 1.384 . S
H656 C662 0.930 . S
H657 C666 0.930 . S
H658 C671 0.929 . S
H659 C669 0.929 . S
H660 C664 0.929 . S
H661 C670 0.929 . S
C662 H656 0.930 . S
C662 C663 1.367 . S
C662 C670 1.378 . S
C663 C662 1.367 . S
C663 C671 1.433 . S
C664 H660 0.929 . S
C664 C666 1.378 . S
C664 C668 1.350 . S
C665 C668 1.463 1_455 S
C665 C670 1.350 . S
C665 N673 1.427 . S
C666 H657 0.930 . S
C666 C664 1.378 . S
C666 C667 1.367 . S
C667 C666 1.367 . S
C667 C669 1.433 . S
C668 C664 1.350 . S
C668 C665 1.463 1_655 S
C668 N672 1.427 . S
C669 H659 0.929 . S
C669 C667 1.433 . S
C669 N672 1.384 . S
C670 H661 0.929 . S
C670 C662 1.378 . S
C670 C665 1.350 . S
C671 H658 0.929 . S
C671 C663 1.433 . S
C671 N673 1.384 . S
N672 C668 1.427 . S
N672 C669 1.384 . S
N673 C665 1.427 . S
N673 C671 1.384 . S
H674 C680 0.930 . S
H675 C684 0.930 . S
H676 C689 0.929 . S
H677 C687 0.929 . S
H678 C682 0.929 . S
H679 C688 0.929 . S
C680 H674 0.930 . S
C680 C681 1.367 . S
C680 C688 1.378 . S
C681 C680 1.367 . S
C681 C689 1.433 . S
C682 H678 0.929 . S
C682 C684 1.378 . S
C682 C686 1.350 . S
C683 C686 1.463 . S
C683 C688 1.350 . S
C683 N691 1.427 . S
C684 H675 0.930 . S
C684 C682 1.378 . S
C684 C685 1.367 . S
C685 C684 1.367 . S
C685 C687 1.433 . S
C686 C682 1.350 . S
C686 C683 1.463 . S
C686 N690 1.427 . S
C687 H677 0.929 . S
C687 C685 1.433 . S
C687 N690 1.384 . S
C688 H679 0.929 . S
C688 C680 1.378 . S
C688 C683 1.350 . S
C689 H676 0.929 . S
C689 C681 1.433 . S
C689 N691 1.384 . S
N690 C686 1.427 . S
N690 C687 1.384 . S
N691 C683 1.427 . S
N691 C689 1.384 . S
H692 C698 0.930 . S
H693 C702 0.930 . S
H694 C707 0.929 . S
H695 C705 0.929 . S
H696 C700 0.929 . S
H697 C706 0.929 . S
C698 H692 0.930 . S
C698 C699 1.367 . S
C698 C706 1.378 . S
C699 C698 1.367 . S
C699 C707 1.433 . S
C700 H696 0.929 . S
C700 C702 1.378 . S
C700 C704 1.350 . S
C701 C704 1.463 . S
C701 C706 1.350 . S
C701 N709 1.427 . S
C702 H693 0.930 . S
C702 C700 1.378 . S
C702 C703 1.367 . S
C703 C702 1.367 . S
C703 C705 1.433 . S
C704 C700 1.350 . S
C704 C701 1.463 . S
C704 N708 1.427 . S
C705 H695 0.929 . S
C705 C703 1.433 . S
C705 N708 1.384 . S
C706 H697 0.929 . S
C706 C698 1.378 . S
C706 C701 1.350 . S
C707 H694 0.929 . S
C707 C699 1.433 . S
C707 N709 1.384 . S
N708 C704 1.427 . S
N708 C705 1.384 . S
N709 C701 1.427 . S
N709 C707 1.384 . S
H710 C716 0.930 . S
H711 C720 0.930 . S
H712 C725 0.929 . S
H713 C723 0.929 . S
H714 C718 0.929 . S
H715 C724 0.929 . S
C716 H710 0.930 . S
C716 C717 1.367 . S
C716 C724 1.378 . S
C717 C716 1.367 . S
C717 C725 1.433 . S
C718 H714 0.929 . S
C718 C720 1.378 . S
C718 C722 1.350 . S
C719 C722 1.463 1_545 S
C719 C724 1.350 . S
C719 N727 1.427 . S
C720 H711 0.930 . S
C720 C718 1.378 . S
C720 C721 1.367 . S
C721 C720 1.367 . S
C721 C723 1.433 . S
C722 C718 1.350 . S
C722 C719 1.463 1_565 S
C722 N726 1.427 . S
C723 H713 0.929 . S
C723 C721 1.433 . S
C723 N726 1.384 . S
C724 H715 0.929 . S
C724 C716 1.378 . S
C724 C719 1.350 . S
C725 H712 0.929 . S
C725 C717 1.433 . S
C725 N727 1.384 . S
N726 C722 1.427 . S
N726 C723 1.384 . S
N727 C719 1.427 . S
N727 C725 1.384 . S
H728 C734 0.930 . S
H729 C738 0.930 . S
H730 C743 0.929 . S
H731 C741 0.929 . S
H732 C736 0.929 . S
H733 C742 0.929 . S
C734 H728 0.930 . S
C734 C735 1.367 . S
C734 C742 1.378 . S
C735 C734 1.367 . S
C735 C743 1.433 . S
C736 H732 0.929 . S
C736 C738 1.378 . S
C736 C740 1.350 . S
C737 C740 1.463 . S
C737 C742 1.350 . S
C737 N745 1.427 . S
C738 H729 0.930 . S
C738 C736 1.378 . S
C738 C739 1.367 . S
C739 C738 1.367 . S
C739 C741 1.433 . S
C740 C736 1.350 . S
C740 C737 1.463 . S
C740 N744 1.427 . S
C741 H731 0.929 . S
C741 C739 1.433 . S
C741 N744 1.384 . S
C742 H733 0.929 . S
C742 C734 1.378 . S
C742 C737 1.350 . S
C743 H730 0.929 . S
C743 C735 1.433 . S
C743 N745 1.384 . S
N744 C740 1.427 . S
N744 C741 1.384 . S
N745 C737 1.427 . S
N745 C743 1.384 . S
H746 C752 0.930 . S
H747 C756 0.930 . S
H748 C761 0.929 . S
H749 C759 0.929 . S
H750 C754 0.929 . S
H751 C760 0.929 . S
C752 H746 0.930 . S
C752 C753 1.367 . S
C752 C760 1.378 . S
C753 C752 1.367 . S
C753 C761 1.433 . S
C754 H750 0.929 . S
C754 C756 1.378 . S
C754 C758 1.350 . S
C755 C758 1.463 . S
C755 C760 1.350 . S
C755 N763 1.427 . S
C756 H747 0.930 . S
C756 C754 1.378 . S
C756 C757 1.367 . S
C757 C756 1.367 . S
C757 C759 1.433 . S
C758 C754 1.350 . S
C758 C755 1.463 . S
C758 N762 1.427 . S
C759 H749 0.929 . S
C759 C757 1.433 . S
C759 N762 1.384 . S
C760 H751 0.929 . S
C760 C752 1.378 . S
C760 C755 1.350 . S
C761 H748 0.929 . S
C761 C753 1.433 . S
C761 N763 1.384 . S
N762 C758 1.427 . S
N762 C759 1.384 . S
N763 C755 1.427 . S
N763 C761 1.384 . S
H764 C770 0.930 . S
H765 C774 0.930 . S
H766 C779 0.929 . S
H767 C777 0.929 . S
H768 C772 0.929 . S
H769 C778 0.929 . S
C770 H764 0.930 . S
C770 C771 1.367 . S
C770 C778 1.378 . S
C771 C770 1.367 . S
C771 C779 1.433 . S
C772 H768 0.929 . S
C772 C774 1.378 . S
C772 C776 1.350 . S
C773 C776 1.463 1_545 S
C773 C778 1.350 . S
C773 N781 1.427 . S
C774 H765 0.930 . S
C774 C772 1.378 . S
C774 C775 1.367 . S
C775 C774 1.367 . S
C775 C777 1.433 . S
C776 C772 1.350 . S
C776 C773 1.463 1_565 S
C776 N780 1.427 . S
C777 H767 0.929 . S
C777 C775 1.433 . S
C777 N780 1.384 . S
C778 H769 0.929 . S
C778 C770 1.378 . S
C778 C773 1.350 . S
C779 H766 0.929 . S
C779 C771 1.433 . S
C779 N781 1.384 . S
N780 C776 1.427 . S
N780 C777 1.384 . S
N781 C773 1.427 . S
N781 C779 1.384 . S
H782 C788 0.930 . S
H783 C792 0.930 . S
H784 C797 0.929 . S
H785 C795 0.929 . S
H786 C790 0.929 . S
H787 C796 0.929 . S
C788 H782 0.930 . S
C788 C789 1.367 . S
C788 C796 1.378 . S
C789 C788 1.367 . S
C789 C797 1.433 . S
C790 H786 0.929 . S
C790 C792 1.378 . S
C790 C794 1.350 . S
C791 C794 1.463 . S
C791 C796 1.350 . S
C791 N799 1.427 . S
C792 H783 0.930 . S
C792 C790 1.378 . S
C792 C793 1.367 . S
C793 C792 1.367 . S
C793 C795 1.433 . S
C794 C790 1.350 . S
C794 C791 1.463 . S
C794 N798 1.427 . S
C795 H785 0.929 . S
C795 C793 1.433 . S
C795 N798 1.384 . S
C796 H787 0.929 . S
C796 C788 1.378 . S
C796 C791 1.350 . S
C797 H784 0.929 . S
C797 C789 1.433 . S
C797 N799 1.384 . S
N798 C794 1.427 . S
N798 C795 1.384 . S
N799 C791 1.427 . S
N799 C797 1.384 . S
C231 C4 1.217 . S
C235 C186 1.216 . S
C249 C18 1.220 . S
C253 C130 1.219 . S
C267 C200 1.212 . S
C271 C32 1.212 . S
C285 C46 1.206 . S
C289 C214 1.205 . S
C303 C60 1.215 . S
C307 C88 1.214 . S
C321 C144 1.220 . S
C325 C74 1.219 . S
C339 C158 1.206 . S
C343 C102 1.205 . S
C357 C116 1.214 . S
C361 C172 1.215 . S
C375 C40 1.524 . S
C379 C12 1.524 . S
C393 C26 1.524 . S
C397 C54 1.524 . S
C411 C179 1.467 . S
C415 C11 1.465 . S
C429 C25 1.470 . S
C433 C165 1.471 . S
C447 C67 1.462 . S
C451 C39 1.461 . S
C465 C151 1.463 . S
C469 C53 1.462 . S
C483 C19 1.373 . S
C487 C5 1.361 . S
C501 C47 1.386 . S
C505 C33 1.373 . S
C519 C145 1.368 . S
C523 C61 1.361 . S
C537 C109 1.526 . S
C541 C81 1.533 . S
C555 C95 1.526 . S
C559 C123 1.528 . S
C573 C222 1.515 . S
C577 C82 1.513 . S
C591 C96 1.514 . S
C595 C208 1.512 . S
C609 C138 1.512 . S
C613 C110 1.514 . S
C627 C124 1.513 . S
C631 C194 1.512 . S
C645 C89 1.313 . S
C649 C75 1.322 . S
C663 C117 1.313 . S
C667 C103 1.326 . S
C681 C131 1.324 . S
C685 C187 1.339 . S
C699 C152 1.525 . S
C703 C166 1.525 . S
C717 C180 1.526 . S
C721 C68 1.526 . S
C735 C173 1.375 . S
C739 C159 1.362 . S
C753 C207 1.529 . S
C757 C193 1.526 . S
C771 C137 1.534 . S
C775 C221 1.525 . S
C789 C215 1.341 . S
C793 C201 1.330 . S
