# Generated by pormake.
# Topology smu, (6)-cn, num edge types: 1
# Building blocks:
#     Node 0, Type 0, BuildingBlock: CUWYAW_clean_sbu_0, # of connection points: 6
#     Node 1, Type 0, BuildingBlock: CUWYAW_clean_sbu_0, # of connection points: 6
#     Node 2, Type 0, BuildingBlock: CUWYAW_clean_sbu_0, # of connection points: 6
#     Node 3, Type 0, BuildingBlock: CUWYAW_clean_sbu_0, # of connection points: 6
#     Node 4, Type 0, BuildingBlock: CUWYAW_clean_sbu_0, # of connection points: 6
#     Node 5, Type 0, BuildingBlock: CUWYAW_clean_sbu_0, # of connection points: 6
#     Edge 6, Type (0, 0), BuildingBlock: UVAHIK_clean_linker_0, # of connection points: 2
#     Edge 7, Type (0, 0), BuildingBlock: UVAHIK_clean_linker_0, # of connection points: 2
#     Edge 8, Type (0, 0), BuildingBlock: UVAHIK_clean_linker_0, # of connection points: 2
#     Edge 9, Type (0, 0), BuildingBlock: UVAHIK_clean_linker_0, # of connection points: 2
#     Edge 10, Type (0, 0), BuildingBlock: UVAHIK_clean_linker_0, # of connection points: 2
#     Edge 11, Type (0, 0), BuildingBlock: UVAHIK_clean_linker_0, # of connection points: 2
#     Edge 12, Type (0, 0), BuildingBlock: UVAHIK_clean_linker_0, # of connection points: 2
#     Edge 13, Type (0, 0), BuildingBlock: UVAHIK_clean_linker_0, # of connection points: 2
#     Edge 14, Type (0, 0), BuildingBlock: UVAHIK_clean_linker_0, # of connection points: 2
#     Edge 15, Type (0, 0), BuildingBlock: UVAHIK_clean_linker_0, # of connection points: 2
#     Edge 16, Type (0, 0), BuildingBlock: UVAHIK_clean_linker_0, # of connection points: 2
#     Edge 17, Type (0, 0), BuildingBlock: UVAHIK_clean_linker_0, # of connection points: 2
#     Edge 18, Type (0, 0), BuildingBlock: UVAHIK_clean_linker_0, # of connection points: 2
#     Edge 19, Type (0, 0), BuildingBlock: UVAHIK_clean_linker_0, # of connection points: 2
#     Edge 20, Type (0, 0), BuildingBlock: UVAHIK_clean_linker_0, # of connection points: 2
#     Edge 21, Type (0, 0), BuildingBlock: UVAHIK_clean_linker_0, # of connection points: 2
#     Edge 22, Type (0, 0), BuildingBlock: UVAHIK_clean_linker_0, # of connection points: 2
#     Edge 23, Type (0, 0), BuildingBlock: UVAHIK_clean_linker_0, # of connection points: 2
# Relax obj value: 0.213
# Max RMSD: 0.299
# Mean RMSD: 0.299
data_MOF--net-smu--node1-CUWYAW_clean_sbu_0--edge1-UVAHIK_clean_linker_0
_symmetry_space_group_name_H-M    P1
_symmetry_Int_Tables_number       1
_symmetry_cell_setting            triclinic
loop_
_symmetry_equiv_pos_as_xyz
'x, y, z'
_cell_length_a     47.747257
_cell_length_b     47.783193
_cell_length_c     35.488763
_cell_angle_alpha  90.015204
_cell_angle_beta   89.850452
_cell_angle_gamma 120.17754
loop_
_atom_site_label
_atom_site_type_symbol
_atom_site_fract_x
_atom_site_fract_y
_atom_site_fract_z
_atom_type_partial_charge
C0 C 0.28661 0.99952 0.24871 0.0
Eu1 Eu 0.32328 0.05995 0.26741 0.0
C2 C 0.2513 0.97667 0.25267 0.0
C3 C 0.23541 0.9717 0.28756 0.0
C4 C 0.20159 0.9527 0.28997 0.0
C5 C 0.18286 0.93855 0.25752 0.0
C6 C 0.19887 0.94308 0.22278 0.0
C7 C 0.23269 0.96182 0.22043 0.0
C8 C 0.32312 0.08018 0.33932 0.0
C9 C 0.28983 0.10302 0.27206 0.0
C10 C 0.40171 0.19229 0.28988 0.0
Eu11 Eu 0.3639 0.13083 0.27311 0.0
C12 C 0.42678 0.22557 0.27811 0.0
C13 C 0.41917 0.24431 0.25419 0.0
C14 C 0.44109 0.27746 0.24896 0.0
C15 C 0.47115 0.29283 0.26768 0.0
C16 C 0.47925 0.27368 0.29023 0.0
C17 C 0.45734 0.24057 0.29545 0.0
C18 C 0.34634 0.10703 0.20082 0.0
C19 C 0.40202 0.09149 0.26869 0.0
O20 O 0.29449 0.02357 0.22536 0.0
O21 O 0.30404 1.00864 0.27956 0.0
O22 O 0.29795 0.05875 0.32125 0.0
O23 O 0.34784 0.09163 0.31789 0.0
O24 O 0.28949 0.07933 0.2525 0.0
O25 O 0.31551 0.12222 0.29198 0.0
O26 O 0.40987 0.1703 0.2954 0.0
O27 O 0.37253 0.18009 0.27625 0.0
O28 O 0.3476 0.13338 0.21223 0.0
O29 O 0.35558 0.09625 0.22696 0.0
O30 O 0.40441 0.12019 0.26838 0.0
O31 O 0.37348 0.06421 0.26934 0.0
H32 H 0.24897 0.98314 0.31289 0.0
H33 H 0.19004 0.94997 0.3171 0.0
H34 H 0.18522 0.93223 0.19732 0.0
H35 H 0.2443 0.9654 0.19318 0.0
H36 H 0.39572 0.23372 0.24068 0.0
H37 H 0.43378 0.29132 0.23164 0.0
H38 H 0.50234 0.28441 0.30458 0.0
H39 H 0.46385 0.22695 0.31434 0.0
C40 C 0.7388 0.74881 0.24994 0.0
Eu41 Eu 0.75951 0.70919 0.26709 0.0
C42 C 0.75593 0.78439 0.24584 0.0
C43 C 0.7401 0.80154 0.25475 0.0
C44 C 0.75694 0.83546 0.2538 0.0
C45 C 0.79005 0.85295 0.24401 0.0
C46 C 0.80567 0.83555 0.23458 0.0
C47 C 0.78882 0.80167 0.23554 0.0
C48 C 0.77181 0.70151 0.34017 0.0
C49 C 0.83477 0.73847 0.27647 0.0
C50 C 0.81414 0.63195 0.28649 0.0
Eu51 Eu 0.78304 0.66325 0.27368 0.0
C52 C 0.821 0.60588 0.2758 0.0
C53 C 0.8516 0.61439 0.26098 0.0
C54 C 0.86087 0.59109 0.25609 0.0
C55 C 0.83981 0.55854 0.26605 0.0
C56 C 0.80869 0.54982 0.27966 0.0
C57 C 0.79943 0.57321 0.28461 0.0
C58 C 0.77007 0.67429 0.2015 0.0
C59 C 0.7077 0.63087 0.27209 0.0
O60 O 0.74535 0.73291 0.22483 0.0
O61 O 0.73786 0.73814 0.28403 0.0
O62 O 0.78024 0.72896 0.32414 0.0
O63 O 0.75818 0.67877 0.31628 0.0
O64 O 0.81338 0.74277 0.2578 0.0
O65 O 0.82558 0.71059 0.2932 0.0
O66 O 0.78641 0.6244 0.30223 0.0
O67 O 0.82497 0.65724 0.26454 0.0
O68 O 0.76265 0.64591 0.21409 0.0
O69 O 0.78457 0.69486 0.22679 0.0
O70 O 0.73148 0.62739 0.28514 0.0
O71 O 0.71301 0.65925 0.25899 0.0
H72 H 0.71485 0.78871 0.26317 0.0
H73 H 0.7442 0.84798 0.26176 0.0
H74 H 0.83097 0.8481 0.22644 0.0
H75 H 0.80165 0.789 0.2287 0.0
H76 H 0.86901 0.63943 0.25455 0.0
H77 H 0.88516 0.59896 0.24608 0.0
H78 H 0.79159 0.52495 0.28711 0.0
H79 H 0.77576 0.56581 0.29637 0.0
C80 C 0.03112 0.29347 0.24718 0.0
Eu81 Eu 0.97173 0.27536 0.26752 0.0
C82 C 0.04981 0.27657 0.24349 0.0
C83 C 0.08272 0.29267 0.25316 0.0
C84 C 0.10035 0.27649 0.25187 0.0
C85 C 0.08538 0.24374 0.24101 0.0
C86 C 0.05241 0.22775 0.23102 0.0
C87 C 0.03484 0.244 0.23218 0.0
C88 C 0.95506 0.27367 0.34105 0.0
C89 C 0.93437 0.19749 0.28045 0.0
C90 C 0.84027 0.21092 0.29299 0.0
Eu91 Eu 0.90224 0.23881 0.27681 0.0
C92 C 0.80725 0.20571 0.28613 0.0
C93 C 0.79098 0.19348 0.25176 0.0
C94 C 0.75803 0.1839 0.24821 0.0
C95 C 0.7405 0.18602 0.27902 0.0
C96 C 0.75721 0.19931 0.31292 0.0
C97 C 0.79009 0.20899 0.31639 0.0
C98 C 0.92456 0.24791 0.20316 0.0
C99 C 0.93688 0.31704 0.27203 0.0
O100 O 1.00748 0.28543 0.22331 0.0
O101 O 0.02302 0.29651 0.28144 0.0
O102 O 0.97659 0.29917 0.32326 0.0
O103 O 0.94201 0.24947 0.31881 0.0
O104 O 0.95668 0.22154 0.26005 0.0
O105 O 0.91341 0.2021 0.29917 0.0
O106 O 0.86222 0.23786 0.30867 0.0
O107 O 0.85261 0.19945 0.26878 0.0
O108 O 0.90236 0.22029 0.21634 0.0
O109 O 0.93332 0.26835 0.22892 0.0
O110 O 0.91221 0.28998 0.2852 0.0
O111 O 0.9627 0.3173 0.25776 0.0
H112 H 0.0947 0.3177 0.26224 0.0
H113 H 0.12555 0.28947 0.26025 0.0
H114 H 0.04018 0.20269 0.22209 0.0
H115 H 1.0095 0.23097 0.22445 0.0
H116 H 0.80337 0.19031 0.22798 0.0
H117 H 0.746 0.17362 0.22174 0.0
H118 H 0.74475 0.20187 0.33705 0.0
H119 H 0.80186 0.21805 0.34331 0.0
C120 C 0.08885 0.41687 0.74083 0.0
Eu121 Eu 0.09234 0.36834 0.76989 0.0
C122 C 0.10387 0.45235 0.74565 0.0
C123 C 0.13041 0.46989 0.7697 0.0
C124 C 0.14396 0.50351 0.774 0.0
C125 C 0.13118 0.52029 0.75442 0.0
C126 C 0.10469 0.50244 0.73019 0.0
C127 C 0.09124 0.46894 0.72592 0.0
C128 C 0.08394 0.34882 0.84284 0.0
C129 C 0.16843 0.38641 0.77518 0.0
C130 C 0.12481 0.27341 0.81765 0.0
Eu131 Eu 0.10909 0.31299 0.78633 0.0
C132 C 0.14289 0.25661 0.80792 0.0
C133 C 0.1336 0.2346 0.77778 0.0
C134 C 0.15048 0.21823 0.77016 0.0
C135 C 0.17707 0.22349 0.79245 0.0
C136 C 0.18657 0.24596 0.82217 0.0
C137 C 0.16963 0.26219 0.82985 0.0
C138 C 0.09668 0.31495 0.71067 0.0
C139 C 0.03611 0.29468 0.77638 0.0
O140 O 0.10732 0.40624 0.72727 0.0
O141 O 0.07014 0.39868 0.7682 0.0
O142 O 0.06895 0.3619 0.82675 0.0
O143 O 0.10612 0.35056 0.82126 0.0
O144 O 0.14744 0.39693 0.77595 0.0
O145 O 0.15915 0.35527 0.77614 0.0
O146 O 0.09701 0.26382 0.80087 0.0
O147 O 0.14192 0.30492 0.82135 0.0
O148 O 0.10431 0.29472 0.72514 0.0
O149 O 0.09803 0.33312 0.737 0.0
O150 O 0.05603 0.29107 0.79898 0.0
O151 O 0.04622 0.32113 0.75539 0.0
H152 H 0.14053 0.45757 0.78529 0.0
H153 H 0.16408 0.51624 0.79319 0.0
H154 H 0.09448 0.5144 0.71411 0.0
H155 H 0.07087 0.45593 0.7071 0.0
H156 H 0.11309 0.22974 0.76028 0.0
H157 H 0.14219 0.20089 0.74731 0.0
H158 H 0.20722 0.25114 0.83956 0.0
H159 H 0.17737 0.27905 0.8532 0.0
C160 C 0.355 0.94551 0.73494 0.0
Eu161 Eu 0.30239 0.94177 0.76347 0.0
C162 C 0.37387 0.92866 0.73855 0.0
C163 C 0.35875 0.89494 0.74342 0.0
C164 C 0.37732 0.87982 0.74752 0.0
C165 C 0.41147 0.89807 0.74693 0.0
C166 C 0.42639 0.93182 0.74177 0.0
C167 C 0.40783 0.94686 0.73767 0.0
C168 C 0.29754 0.95672 0.83621 0.0
C169 C 0.25045 0.86596 0.77709 0.0
C170 C 0.17766 0.90217 0.81599 0.0
Eu171 Eu 0.23453 0.92353 0.7844 0.0
C172 C 0.14328 0.88906 0.80564 0.0
C173 C 0.12797 0.86473 0.77826 0.0
C174 C 0.09486 0.85145 0.77072 0.0
C175 C 0.07643 0.86236 0.79023 0.0
C176 C 0.09205 0.88706 0.81719 0.0
C177 C 0.12504 0.90018 0.82481 0.0
C178 C 0.24689 0.93881 0.70984 0.0
C179 C 0.28474 0.99717 0.77039 0.0
O180 O 0.32654 0.92985 0.71903 0.0
O181 O 0.35493 0.96202 0.76414 0.0
O182 O 0.32211 0.97342 0.81426 0.0
O183 O 0.27647 0.931 0.81969 0.0
O184 O 0.28144 0.88846 0.77828 0.0
O185 O 0.22782 0.87395 0.77503 0.0
O186 O 0.1977 0.9327 0.80889 0.0
O187 O 0.19043 0.88414 0.80909 0.0
O188 O 0.22552 0.94163 0.72934 0.0
O189 O 0.2577 0.92407 0.72925 0.0
O190 O 0.26279 0.97715 0.79461 0.0
O191 O 0.30049 0.98726 0.7482 0.0
H192 H 0.3326 0.88031 0.74425 0.0
H193 H 0.3649 0.85387 0.75182 0.0
H194 H 0.45253 0.94669 0.74051 0.0
H195 H 0.42008 0.97287 0.73384 0.0
H196 H 0.14149 0.85574 0.76292 0.0
H197 H 0.08371 0.83273 0.74952 0.0
H198 H 0.07859 0.89575 0.83315 0.0
H199 H 0.13625 0.91875 0.8462 0.0
C200 C 0.6215 0.66628 0.74973 0.0
Eu201 Eu 0.6608 0.72657 0.76867 0.0
C202 C 0.58566 0.64504 0.7509 0.0
C203 C 0.57186 0.6133 0.76473 0.0
C204 C 0.53809 0.59324 0.76702 0.0
C205 C 0.51713 0.60436 0.75537 0.0
C206 C 0.53115 0.63626 0.74146 0.0
C207 C 0.56492 0.65635 0.7394 0.0
C208 C 0.67103 0.74532 0.84324 0.0
C209 C 0.62999 0.77129 0.77931 0.0
C210 C 0.73718 0.85895 0.79758 0.0
Eu211 Eu 0.70648 0.79761 0.7794 0.0
C212 C 0.76324 0.89194 0.78689 0.0
C213 C 0.76022 0.90793 0.7552 0.0
C214 C 0.78212 0.94088 0.74913 0.0
C215 C 0.80752 0.95868 0.77461 0.0
C216 C 0.81139 0.94221 0.80526 0.0
C217 C 0.78943 0.9093 0.81138 0.0
C218 C 0.70489 0.77788 0.70713 0.0
C219 C 0.73838 0.75374 0.77536 0.0
O220 O 0.63326 0.69033 0.72575 0.0
O221 O 0.63621 0.67481 0.78222 0.0
O222 O 0.64307 0.72487 0.82902 0.0
O223 O 0.69165 0.75548 0.8171 0.0
O224 O 0.62615 0.74549 0.76134 0.0
O225 O 0.65761 0.79068 0.79621 0.0
O226 O 0.74518 0.8383 0.81062 0.0
O227 O 0.71123 0.8452 0.77656 0.0
O228 O 0.72995 0.80149 0.72311 0.0
O229 O 0.68042 0.76789 0.72863 0.0
O230 O 0.74086 0.77989 0.7912 0.0
O231 O 0.71084 0.7312 0.75984 0.0
H232 H 0.58725 0.60406 0.77412 0.0
H233 H 0.52847 0.56914 0.77855 0.0
H234 H 0.51607 0.64573 0.73172 0.0
H235 H 0.57476 0.6808 0.72885 0.0
H236 H 0.74019 0.89539 0.73584 0.0
H237 H 0.77815 0.95271 0.72541 0.0
H238 H 0.831 0.95492 0.82509 0.0
H239 H 0.79228 0.89771 0.83615 0.0
C240 C 0.31929 1.00088 0.88373 0.0
C241 C 0.29519 0.96928 0.8739 0.0
C242 C 0.31899 0.01419 0.91862 0.0
C243 C 0.28941 0.99315 1.01648 0.0
H244 H 0.32115 0.08539 0.02244 0.0
C245 C 0.34009 0.06456 0.15497 0.0
C246 C 0.33614 0.09117 0.16325 0.0
C247 C 0.33033 0.04858 0.12029 0.0
C248 C 0.31181 0.05954 0.02153 0.0
H249 H 0.25141 0.92694 0.89338 0.0
H250 H 0.25091 0.95028 0.95531 0.0
H251 H 0.31101 0.0592 0.96121 0.0
H252 H 0.31852 0.12172 0.14141 0.0
H253 H 0.30116 0.09369 0.08056 0.0
H254 H 0.29008 0.99349 0.07688 0.0
C255 C 0.27021 0.96468 0.93559 0.0
C256 C 0.30632 0.04449 0.98621 0.0
C257 C 0.27039 0.95129 0.90011 0.0
C258 C 0.32208 0.10144 0.13581 0.0
C259 C 0.3122 0.08534 0.1009 0.0
C260 C 0.29485 1.00821 0.05188 0.0
C261 C 0.29458 0.99644 0.94525 0.0
C262 C 0.29587 1.01123 0.98306 0.0
C263 C 0.31617 0.05859 0.0926 0.0
C264 C 0.30693 0.04183 0.05498 0.0
H265 H 0.33879 0.01563 0.86436 0.0
H266 H 0.33854 0.03835 0.92498 0.0
H267 H 0.28142 0.96757 1.01535 0.0
H268 H 0.351 0.05607 0.17535 0.0
H269 H 0.33457 0.0287 0.11499 0.0
C270 C 0.73793 0.77658 0.65352 0.0
C271 C 0.70724 0.7639 0.67046 0.0
C272 C 0.74203 0.7639 0.61988 0.0
C273 C 0.69909 0.71525 0.53548 0.0
H274 H 0.77977 0.71523 0.52237 0.0
C275 C 0.73358 0.67528 0.39498 0.0
C276 C 0.76436 0.69824 0.38114 0.0
C277 C 0.7244 0.67755 0.43211 0.0
C278 C 0.7571 0.71504 0.5255 0.0
H279 H 0.65649 0.72805 0.66446 0.0
H280 H 0.66363 0.70528 0.60533 0.0
H281 H 0.76686 0.72954 0.5832 0.0
H282 H 0.80992 0.74064 0.39562 0.0
H283 H 0.79457 0.74387 0.46042 0.0
H284 H 0.68963 0.7008 0.47736 0.0
C285 C 0.68461 0.72532 0.61834 0.0
C286 C 0.74969 0.72343 0.56043 0.0
C287 C 0.68048 0.7382 0.65237 0.0
C288 C 0.78624 0.72234 0.40569 0.0
C289 C 0.77736 0.72422 0.44283 0.0
C290 C 0.70642 0.70654 0.50047 0.0
C291 C 0.71561 0.73785 0.6018 0.0
C292 C 0.72106 0.72467 0.56574 0.0
C293 C 0.74604 0.70242 0.45633 0.0
C294 C 0.73595 0.70717 0.49475 0.0
H295 H 0.75916 0.79647 0.66641 0.0
H296 H 0.76613 0.77493 0.60782 0.0
H297 H 0.67689 0.71599 0.53826 0.0
H298 H 0.71597 0.6568 0.37649 0.0
H299 H 0.70017 0.66026 0.44164 0.0
C300 C 0.93825 0.23017 0.14158 0.0
C301 C 0.94097 0.2548 0.16565 0.0
C302 C 0.95602 0.23787 0.10756 0.0
C303 C 0.0273 0.30781 0.059 0.0
H304 H 0.9924 0.2562 0.96872 0.0
C305 C 0.07309 0.35718 0.9092 0.0
C306 C 0.07722 0.33768 0.8827 0.0
C307 C 0.05993 0.3452 0.94488 0.0
C308 C 1.00271 0.27064 0.99383 0.0
H309 H 0.96377 0.30678 0.1722 0.0
H310 H 0.99344 0.32013 0.11318 0.0
H311 H 0.96147 0.23872 0.02766 0.0
H312 H 0.07074 0.29006 0.87307 0.0
H313 H 0.04683 0.26862 0.93556 0.0
H314 H 0.06784 0.34037 0.02479 0.0
C315 C 0.97864 0.29482 0.12062 0.0
C316 C 0.98494 0.26061 0.02778 0.0
C317 C 0.96123 0.28715 0.15451 0.0
C318 C 0.06848 0.3059 0.89311 0.0
C319 C 0.05442 0.29353 0.92872 0.0
C320 C 0.04476 0.31799 0.02508 0.0
C321 C 0.97683 0.27043 0.09669 0.0
C322 C 0.99665 0.27939 0.06084 0.0
C323 C 0.04959 0.31296 0.9549 0.0
C324 C 0.03254 0.29987 0.99184 0.0
H325 H 0.92301 0.205 0.14945 0.0
H326 H 0.95396 0.21828 0.09025 0.0
H327 H 0.0379 0.32257 0.08381 0.0
H328 H 0.07903 0.38156 0.90178 0.0
H329 H 0.05637 0.36081 0.96403 0.0
C330 C 0.34855 0.07389 0.39865 0.0
C331 C 0.32373 0.07663 0.38088 0.0
C332 C 0.34477 0.06267 0.43607 0.0
C333 C 0.29598 0.04865 0.52354 0.0
H334 H 0.31216 0.97808 0.54225 0.0
C335 C 0.24082 0.96637 0.6533 0.0
C336 C 0.25804 0.95372 0.67183 0.0
C337 C 0.25175 0.98285 0.61901 0.0
C338 C 0.30794 0.99808 0.53788 0.0
H339 H 0.27625 0.07105 0.38878 0.0
H340 H 0.27009 0.05265 0.45395 0.0
H341 H 0.32763 1.0065 0.48178 0.0
H342 H 0.30029 0.94833 0.66833 0.0
H343 H 0.31997 0.97774 0.60859 0.0
H344 H 0.27647 0.04061 0.57935 0.0
C345 C 0.29243 0.05898 0.43928 0.0
C346 C 0.31686 0.01443 0.50307 0.0
C347 C 0.29598 0.06964 0.40189 0.0
C348 C 0.28637 0.95759 0.65475 0.0
C349 C 0.29757 0.97444 0.62037 0.0
C350 C 0.28737 0.03258 0.55835 0.0
C351 C 0.31633 0.05446 0.45664 0.0
C352 C 0.31039 0.03951 0.49514 0.0
C353 C 0.28059 0.98769 0.60214 0.0
C354 C 0.29247 1.0065 0.56587 0.0
H355 H 0.36997 0.07853 0.38299 0.0
H356 H 0.36378 0.05972 0.44862 0.0
H357 H 0.2911 0.06818 0.51875 0.0
H358 H 0.21881 0.96375 0.6655 0.0
H359 H 0.23733 0.99171 0.60568 0.0
C360 C 0.65667 0.72367 0.90988 0.0
C361 C 0.68018 0.74221 0.88259 0.0
C362 C 0.6658 0.71745 0.94521 0.0
C363 C 0.73876 0.74271 1.00763 0.0
H364 H 0.68256 0.66053 0.05637 0.0
C365 C 0.77053 0.71384 0.15466 0.0
C366 C 0.76038 0.68164 0.16453 0.0
C367 C 0.76022 0.72123 0.12109 0.0
C368 C 0.69889 0.68346 0.04306 0.0
H369 H 0.73184 0.76932 0.87163 0.0
H370 H 0.74762 0.75772 0.9318 0.0
H371 H 0.66589 0.67364 0.99748 0.0
H372 H 0.7322 0.63191 0.14597 0.0
H373 H 0.71541 0.64469 0.08641 0.0
H374 H 0.77255 0.75185 0.05183 0.0
C375 C 0.7221 0.7485 0.92687 0.0
C376 C 0.68897 0.69132 1.00934 0.0
C377 C 0.71301 0.75508 0.89194 0.0
C378 C 0.74034 0.65698 0.13932 0.0
C379 C 0.73041 0.66439 0.10527 0.0
C380 C 0.74888 0.73467 0.04094 0.0
C381 C 0.69871 0.72927 0.95411 0.0
C382 C 0.70874 0.72111 0.99094 0.0
C383 C 0.73998 0.69669 0.09563 0.0
C384 C 0.72913 0.70493 0.05944 0.0
H385 H 0.63117 0.71337 0.90366 0.0
H386 H 0.64693 0.70315 0.96541 0.0
H387 H 0.75467 0.76614 0.99513 0.0
H388 H 0.78625 0.73351 0.17321 0.0
H389 H 0.76783 0.74633 0.11558 0.0
C390 C 0.96716 0.29937 0.40453 0.0
C391 C 0.95887 0.27186 0.38243 0.0
C392 C 0.97807 0.3016 0.44165 0.0
C393 C 0.02133 0.27265 0.501 0.0
H394 H 0.99945 0.31212 0.58273 0.0
C395 C 0.07513 0.2844 0.65037 0.0
C396 C 0.08125 0.31099 0.67306 0.0
C397 C 0.05878 0.27877 0.61599 0.0
C398 C 1.00631 0.3015 0.56018 0.0
H399 H 0.95469 0.22462 0.38244 0.0
H400 H 0.97397 0.22849 0.44745 0.0
H401 H 0.97163 0.30227 0.52238 0.0
H402 H 0.07501 0.3527 0.67716 0.0
H403 H 0.0475 0.34373 0.61643 0.0
H404 H 0.05674 0.2728 0.53791 0.0
C405 C 0.97189 0.24837 0.43599 0.0
C406 C 0.99009 0.29561 0.52552 0.0
C407 C 0.96042 0.24592 0.39891 0.0
C408 C 0.07083 0.33209 0.66026 0.0
C409 C 0.05469 0.32664 0.62553 0.0
C410 C 0.03781 0.27886 0.53545 0.0
C411 C 0.98158 0.27659 0.45758 0.0
C412 C 0.99737 0.2811 0.49539 0.0
C413 C 0.04824 0.29976 0.60281 0.0
C414 C 0.03063 0.2934 0.56574 0.0
H415 H 0.96658 0.3199 0.39246 0.0
H416 H 0.98546 0.32377 0.45713 0.0
H417 H 0.02811 0.26206 0.47829 0.0
H418 H 0.08246 0.26742 0.65955 0.0
H419 H 0.05386 0.25742 0.60014 0.0
C420 C 0.45382 0.10842 0.23531 0.0
C421 C 0.43283 0.09127 0.26519 0.0
C422 C 0.48584 0.11494 0.23502 0.0
C423 C 0.54484 0.09637 0.28238 0.0
H424 H 0.60711 0.1815 0.24423 0.0
C425 C 0.68396 0.15605 0.30653 0.0
C426 C 0.70477 0.17345 0.27641 0.0
C427 C 0.65052 0.14419 0.3043 0.0
C428 C 0.59011 0.15749 0.25459 0.0
H429 H 0.42863 0.06691 0.31798 0.0
H430 H 0.485 0.07876 0.31811 0.0
H431 H 0.54964 0.16332 0.24191 0.0
H432 H 0.70626 0.19189 0.2202 0.0
H433 H 0.648 0.1712 0.21626 0.0
H434 H 0.58578 0.09111 0.29586 0.0
C435 C 0.47654 0.08658 0.29427 0.0
C436 C 0.55694 0.14691 0.25317 0.0
C437 C 0.44415 0.07961 0.29423 0.0
C438 C 0.69107 0.17849 0.24389 0.0
C439 C 0.65763 0.16685 0.24177 0.0
C440 C 0.57815 0.1071 0.28406 0.0
C441 C 0.49816 0.1052 0.26513 0.0
C442 C 0.53367 0.1161 0.26682 0.0
C443 C 0.63686 0.14956 0.27197 0.0
C444 C 0.60127 0.1378 0.27006 0.0
H445 H 0.44572 0.11782 0.21265 0.0
H446 H 0.50119 0.12844 0.21149 0.0
H447 H 0.52785 0.07241 0.29286 0.0
H448 H 0.69348 0.15126 0.33185 0.0
H449 H 0.63542 0.13126 0.32824 0.0
C450 C 0.66559 0.58048 0.30284 0.0
C451 C 0.67527 0.60127 0.27152 0.0
C452 C 0.63918 0.54899 0.30066 0.0
C453 C 0.595 0.48366 0.23212 0.0
H454 H 0.5384 0.44116 0.31738 0.0
C455 C 0.49689 0.34611 0.23195 0.0
C456 C 0.49302 0.32887 0.26561 0.0
C457 C 0.51657 0.37998 0.23072 0.0
C458 C 0.55416 0.45251 0.29339 0.0
H459 H 0.66437 0.60564 0.21344 0.0
H460 H 0.61776 0.5502 0.20943 0.0
H461 H 0.57526 0.49947 0.31871 0.0
H462 H 0.50689 0.33434 0.3245 0.0
H463 H 0.54152 0.39282 0.32216 0.0
H464 H 0.57438 0.43649 0.20717 0.0
C465 C 0.63068 0.55845 0.23584 0.0
C466 C 0.57526 0.48607 0.29409 0.0
C467 C 0.65703 0.59033 0.23824 0.0
C468 C 0.50952 0.34653 0.2979 0.0
C469 C 0.52908 0.3803 0.29669 0.0
C470 C 0.57388 0.44999 0.23143 0.0
C471 C 0.62186 0.53713 0.26685 0.0
C472 C 0.59646 0.50208 0.26381 0.0
C473 C 0.5328 0.39762 0.26318 0.0
C474 C 0.55361 0.43382 0.26241 0.0
H475 H 0.67948 0.58813 0.3287 0.0
H476 H 0.6335 0.53336 0.32499 0.0
H477 H 0.6112 0.49503 0.20846 0.0
H478 H 0.48481 0.33341 0.20641 0.0
H479 H 0.51865 0.39239 0.20444 0.0
C480 C 0.94946 0.37137 0.24563 0.0
C481 C 0.93381 0.34649 0.2724 0.0
C482 C 0.94297 0.39702 0.24415 0.0
C483 C 0.90942 0.43891 0.30085 0.0
H484 H 0.88721 0.46098 0.20471 0.0
C485 C 0.84254 0.51106 0.29293 0.0
C486 C 0.8511 0.53442 0.26436 0.0
C487 C 0.85468 0.48979 0.29283 0.0
C488 C 0.89376 0.45551 0.23177 0.0
H489 H 0.90016 0.32977 0.31946 0.0
H490 H 0.88937 0.37426 0.31723 0.0
H491 H 0.90699 0.42272 0.20706 0.0
H492 H 0.87864 0.55279 0.21255 0.0
H493 H 0.90032 0.51619 0.21282 0.0
H494 H 0.89621 0.47144 0.32571 0.0
C495 C 0.90651 0.37414 0.29727 0.0
C496 C 0.90517 0.43357 0.23307 0.0
C497 C 0.91259 0.34846 0.2984 0.0
C498 C 0.87176 0.53544 0.23529 0.0
C499 C 0.88397 0.51416 0.23523 0.0
C500 C 0.8982 0.4609 0.29954 0.0
C501 C 0.92121 0.39854 0.26985 0.0
C502 C 0.91258 0.42454 0.26773 0.0
C503 C 0.87589 0.49124 0.26423 0.0
C504 C 0.88961 0.4691 0.26508 0.0
H505 H 0.96576 0.37042 0.22507 0.0
H506 H 0.95484 0.41555 0.2228 0.0
H507 H 0.91541 0.43294 0.32797 0.0
H508 H 0.82705 0.50967 0.31605 0.0
H509 H 0.84737 0.47214 0.3153 0.0
C510 C 0.12469 0.56949 0.7601 0.0
C511 C 0.14507 0.5561 0.75927 0.0
C512 C 0.13748 0.60294 0.76394 0.0
C513 C 0.21353 0.68245 0.75262 0.0
H514 H 0.16642 0.7138 0.81145 0.0
C515 C 0.26295 0.82025 0.77952 0.0
C516 C 0.24026 0.83081 0.77748 0.0
C517 C 0.25278 0.78703 0.77891 0.0
C518 C 0.17981 0.70555 0.79459 0.0
H519 H 0.19526 0.56804 0.76184 0.0
H520 H 0.2175 0.62627 0.76921 0.0
H521 H 0.14619 0.65589 0.80749 0.0
H522 H 0.18886 0.81418 0.77338 0.0
H523 H 0.1714 0.75694 0.77219 0.0
H524 H 0.24709 0.73228 0.73965 0.0
C525 C 0.19153 0.61084 0.76647 0.0
C526 C 0.16813 0.67219 0.79228 0.0
C527 C 0.17871 0.57729 0.76268 0.0
C528 C 0.20718 0.8072 0.77515 0.0
C529 C 0.19705 0.77415 0.77468 0.0
C530 C 0.22525 0.71591 0.75497 0.0
C531 C 0.1711 0.6242 0.76714 0.0
C532 C 0.18457 0.66004 0.77091 0.0
C533 C 0.21963 0.76348 0.77653 0.0
C534 C 0.20834 0.72794 0.77564 0.0
H535 H 0.09866 0.55408 0.75807 0.0
H536 H 0.12089 0.61217 0.76384 0.0
H537 H 0.22674 0.67415 0.73555 0.0
H538 H 0.28858 0.83761 0.78161 0.0
H539 H 0.2709 0.77981 0.78077 0.0
C540 C 0.46041 0.89742 0.7729 0.0
C541 C 0.43155 0.88222 0.75185 0.0
C542 C 0.47956 0.88302 0.7771 0.0
C543 C 0.49646 0.82195 0.73421 0.0
H544 H 0.53924 0.82935 0.82942 0.0
C545 C 0.57491 0.76157 0.75937 0.0
C546 C 0.604 0.77999 0.77932 0.0
C547 C 0.55183 0.77159 0.75727 0.0
C548 C 0.52776 0.82726 0.80247 0.0
H549 H 0.40048 0.83963 0.71865 0.0
H550 H 0.43362 0.81432 0.72643 0.0
H551 H 0.50338 0.85151 0.82316 0.0
H552 H 0.6312 0.82327 0.81315 0.0
H553 H 0.5915 0.84066 0.80927 0.0
H554 H 0.5212 0.79802 0.71342 0.0
C555 C 0.44159 0.83762 0.73944 0.0
C556 C 0.50712 0.84004 0.79888 0.0
C557 C 0.42234 0.85201 0.73533 0.0
C558 C 0.60907 0.80827 0.79767 0.0
C559 C 0.5861 0.81824 0.7956 0.0
C560 C 0.51719 0.8092 0.73779 0.0
C561 C 0.47052 0.85293 0.76038 0.0
C562 C 0.49141 0.83791 0.76459 0.0
C563 C 0.55721 0.80024 0.77514 0.0
C564 C 0.53345 0.81198 0.77187 0.0
H565 H 0.46818 0.92047 0.78647 0.0
H566 H 0.5018 0.89581 0.79307 0.0
H567 H 0.48514 0.82011 0.70723 0.0
H568 H 0.57013 0.73966 0.74486 0.0
H569 H 0.52975 0.75683 0.74164 0.0
C570 C 0.21624 0.44375 0.77675 0.0
C571 C 0.20397 0.4102 0.77347 0.0
C572 C 0.24981 0.46568 0.7756 0.0
C573 C 0.32958 0.46892 0.78563 0.0
H574 H 0.36416 0.55244 0.7368 0.0
C575 C 0.46623 0.5493 0.75131 0.0
C576 C 0.48096 0.58286 0.75779 0.0
C577 C 0.43252 0.52913 0.75392 0.0
C578 C 0.35491 0.52933 0.75088 0.0
H579 H 0.21786 0.37374 0.7656 0.0
H580 H 0.27563 0.41156 0.76276 0.0
H581 H 0.30558 0.51605 0.74002 0.0
H582 H 0.47097 0.62111 0.77248 0.0
H583 H 0.41231 0.58605 0.77634 0.0
H584 H 0.37888 0.482 0.79596 0.0
C585 C 0.25959 0.42112 0.76723 0.0
C586 C 0.32121 0.50841 0.75282 0.0
C587 C 0.2262 0.3993 0.7686 0.0
C588 C 0.46073 0.59557 0.76664 0.0
C589 C 0.42696 0.57541 0.76897 0.0
C590 C 0.36319 0.4897 0.78344 0.0
C591 C 0.27204 0.45467 0.77097 0.0
C592 C 0.30799 0.47773 0.76998 0.0
C593 C 0.41238 0.54186 0.76282 0.0
C594 C 0.37639 0.52012 0.76583 0.0
H595 H 0.19995 0.45312 0.78059 0.0
H596 H 0.25831 0.49123 0.77895 0.0
H597 H 0.32055 0.44594 0.79992 0.0
H598 H 0.48068 0.53852 0.74366 0.0
H599 H 0.42218 0.50353 0.74837 0.0
C600 C 0.24121 0.09989 0.23982 0.0
C601 C 0.26318 0.11043 0.27002 0.0
C602 C 0.21938 0.11132 0.23577 0.0
C603 C 0.21171 0.18185 0.26346 0.0
H604 H 0.12287 0.13068 0.22955 0.0
C605 C 0.13628 0.24181 0.22794 0.0
C606 C 0.10402 0.2263 0.24075 0.0
C607 C 0.15426 0.22603 0.22918 0.0
C608 C 0.1476 0.14527 0.23922 0.0
H609 H 0.27787 0.13937 0.32101 0.0
H610 H 0.2398 0.1586 0.31435 0.0
H611 H 0.1558 0.10498 0.23765 0.0
H612 H 0.06534 0.18169 0.2646 0.0
H613 H 0.09676 0.15423 0.26693 0.0
H614 H 0.20364 0.22192 0.26585 0.0
C615 C 0.2399 0.14235 0.29314 0.0
C616 C 0.16655 0.13059 0.24351 0.0
C617 C 0.26163 0.13111 0.29708 0.0
C618 C 0.09 0.19428 0.2541 0.0
C619 C 0.10803 0.17849 0.2554 0.0
C620 C 0.19289 0.19647 0.2591 0.0
C621 C 0.21914 0.13343 0.26189 0.0
C622 C 0.19878 0.14868 0.25604 0.0
C623 C 0.14054 0.1943 0.24338 0.0
C624 C 0.16055 0.17843 0.24704 0.0
H625 H 0.24187 0.08403 0.21847 0.0
H626 H 0.20371 0.10395 0.21135 0.0
H627 H 0.23658 0.1967 0.27258 0.0
H628 H 0.14768 0.2662 0.21679 0.0
H629 H 0.179 0.23877 0.21897 0.0
C630 C 0.88251 0.78994 0.25188 0.0
C631 C 0.86957 0.76387 0.27739 0.0
C632 C 0.91604 0.81169 0.25042 0.0
C633 C 0.99215 0.84117 0.3047 0.0
H634 H 0.03372 0.86041 0.20666 0.0
C635 C 0.13081 0.89777 0.28918 0.0
C636 C 0.14674 0.9199 0.25974 0.0
C637 C 0.09692 0.88055 0.29145 0.0
C638 C 0.02258 0.85578 0.23428 0.0
H639 H 0.88163 0.74102 0.32238 0.0
H640 H 0.93964 0.77892 0.32008 0.0
H641 H 0.97479 0.82879 0.21104 0.0
H642 H 0.1394 0.94167 0.20995 0.0
H643 H 0.08044 0.91212 0.21416 0.0
H644 H 0.03975 0.86813 0.32806 0.0
C645 C 0.92406 0.78264 0.30114 0.0
C646 C 0.98871 0.8376 0.23676 0.0
C647 C 0.89073 0.76078 0.30231 0.0
C648 C 0.12791 0.92444 0.23268 0.0
C649 C 0.09402 0.90742 0.23509 0.0
C650 C 0.02598 0.85954 0.30224 0.0
C651 C 0.93724 0.80807 0.27481 0.0
C652 C 0.97309 0.8297 0.27202 0.0
C653 C 0.07799 0.88519 0.26451 0.0
C654 C 0.04176 0.86677 0.26701 0.0
H655 H 0.8669 0.79298 0.23226 0.0
H656 H 0.9254 0.83122 0.23004 0.0
H657 H 0.98089 0.83591 0.3323 0.0
H658 H 0.14455 0.89339 0.31023 0.0
H659 H 0.08558 0.86323 0.31409 0.0
C660 C 0.91009 0.14194 0.3071 0.0
C661 C 0.92921 0.16422 0.27907 0.0
C662 C 0.89902 0.10899 0.30289 0.0
C663 C 0.90773 0.04711 0.24995 0.0
H664 H 0.81627 0.99403 0.27364 0.0
C665 C 0.84029 0.90634 0.25836 0.0
C666 C 0.80835 0.88913 0.24459 0.0
C667 C 0.85697 0.94022 0.26033 0.0
C668 C 0.84174 1.00843 0.26655 0.0
H669 H 0.95359 0.16961 0.22572 0.0
H670 H 0.93411 0.11155 0.21825 0.0
H671 H 0.84314 0.05233 0.28202 0.0
H672 H 0.7695 0.89445 0.22074 0.0
H673 H 0.79844 0.95336 0.2244 0.0
H674 H 0.90604 1.00288 0.23424 0.0
C675 C 0.92773 0.11978 0.24355 0.0
C676 C 0.85729 0.0419 0.27182 0.0
C677 C 0.93897 0.15303 0.24785 0.0
C678 C 0.7938 0.90678 0.23218 0.0
C679 C 0.81044 0.94061 0.23422 0.0
C680 C 0.89214 0.01343 0.24488 0.0
C681 C 0.90662 0.09729 0.27043 0.0
C682 C 0.89052 0.06169 0.26387 0.0
C683 C 0.84211 0.95778 0.2487 0.0
C684 C 0.85892 0.99368 0.25317 0.0
H685 H 0.90249 0.14981 0.33176 0.0
H686 H 0.88356 0.09248 0.32461 0.0
H687 H 0.93333 0.06166 0.24361 0.0
H688 H 0.85216 0.89361 0.26867 0.0
H689 H 0.88115 0.95259 0.27208 0.0
C690 C 0.20528 0.19427 0.81591 0.0
C691 C 0.19433 0.2051 0.78549 0.0
C692 C 0.22119 0.17682 0.80975 0.0
C693 C 0.2311 0.12518 0.73978 0.0
H694 H 0.30139 0.13835 0.80561 0.0
C695 C 0.28755 0.04251 0.73183 0.0
C696 C 0.28864 0.02974 0.76707 0.0
C697 C 0.2826 0.06909 0.72962 0.0
C698 C 0.28182 0.13436 0.78694 0.0
H699 H 0.1921 0.20612 0.72448 0.0
H700 H 0.21963 0.17535 0.71377 0.0
H701 H 0.27895 0.17415 0.81034 0.0
H702 H 0.28745 0.03565 0.82741 0.0
H703 H 0.27963 0.08208 0.82373 0.0
H704 H 0.23342 0.08479 0.71713 0.0
C705 C 0.21564 0.18026 0.74248 0.0
C706 C 0.26885 0.15483 0.78974 0.0
C707 C 0.19978 0.19787 0.74865 0.0
C708 C 0.28696 0.04523 0.79989 0.0
C709 C 0.28251 0.0719 0.79772 0.0
C710 C 0.24411 0.10467 0.73697 0.0
C711 C 0.22659 0.16953 0.77298 0.0
C712 C 0.24274 0.15 0.76691 0.0
C713 C 0.27915 0.08355 0.76263 0.0
C714 C 0.26906 0.10848 0.76121 0.0
H715 H 0.20097 0.19869 0.84469 0.0
H716 H 0.2286 0.16837 0.83397 0.0
H717 H 0.21089 0.12059 0.72189 0.0
H718 H 0.28823 0.03063 0.70611 0.0
H719 H 0.28036 0.07761 0.70214 0.0
C720 C 0.02676 0.86735 0.78237 0.0
C721 C 0.04095 0.84775 0.78332 0.0
C722 C 0.99323 0.85363 0.77864 0.0
C723 C 0.91704 0.77877 0.75199 0.0
H724 H 0.87832 0.81567 0.81648 0.0
C725 C 0.78255 0.74992 0.74178 0.0
C726 C 0.76779 0.75101 0.77558 0.0
C727 C 0.81489 0.7569 0.74171 0.0
C728 C 0.88857 0.80473 0.79854 0.0
H729 H 0.03083 0.79819 0.78007 0.0
H730 H 0.97221 0.7742 0.7737 0.0
H731 H 0.93649 0.83807 0.81729 0.0
H732 H 0.77395 0.75772 0.83588 0.0
H733 H 0.82947 0.76838 0.83613 0.0
H734 H 0.86863 0.74508 0.73368 0.0
C735 C 0.98713 0.80028 0.77548 0.0
C736 C 0.92212 0.81798 0.79859 0.0
C737 C 0.02077 0.81406 0.77915 0.0
C738 C 0.78484 0.75666 0.80947 0.0
C739 C 0.81679 0.76319 0.8095 0.0
C740 C 0.88326 0.76548 0.75187 0.0
C741 C 0.97287 0.81987 0.77587 0.0
C742 C 0.93691 0.80531 0.77528 0.0
C743 C 0.83279 0.76495 0.77548 0.0
C744 C 0.86859 0.77824 0.77533 0.0
H745 H 0.04159 0.89342 0.78468 0.0
H746 H 0.98323 0.86955 0.77818 0.0
H747 H 0.92762 0.76852 0.7335 0.0
H748 H 0.77004 0.74623 0.71521 0.0
H749 H 0.82645 0.75809 0.71499 0.0
C750 C 0.98772 0.24714 0.80351 0.0
C751 C 1.00356 0.26609 0.77175 0.0
C752 C 0.9614 0.21584 0.79946 0.0
C753 C 0.93164 0.14776 0.73454 0.0
H754 H 0.85909 0.10832 0.80404 0.0
C755 C 0.8386 1.00932 0.73509 0.0
C756 C 0.82849 0.99456 0.7707 0.0
C757 C 0.85709 0.04312 0.7317 0.0
C758 C 0.87933 0.11886 0.78457 0.0
H759 H 1.0037 0.26774 0.71079 0.0
H760 H 0.95742 0.21259 0.70353 0.0
H761 H 0.89447 0.16694 0.80363 0.0
H762 H 0.82988 1.00417 0.83064 0.0
H763 H 0.86273 0.06261 0.82486 0.0
H764 H 0.9172 0.0996 0.71639 0.0
C765 C 0.96533 0.22213 0.73162 0.0
C766 C 0.8995 0.15252 0.78419 0.0
C767 C 0.99148 0.25382 0.73574 0.0
C768 C 0.83756 0.01451 0.80278 0.0
C769 C 0.856 0.04819 0.79941 0.0
C770 C 0.91151 0.11402 0.73502 0.0
C771 C 0.95059 0.20248 0.76347 0.0
C772 C 0.92633 0.16735 0.75977 0.0
C773 C 0.86586 0.06302 0.76383 0.0
C774 C 0.88553 0.09906 0.76067 0.0
H775 H 0.99686 0.25594 0.83155 0.0
H776 H 0.95091 0.20137 0.82457 0.0
H777 H 0.95233 0.15834 0.7157 0.0
H778 H 0.83231 0.99477 0.70977 0.0
H779 H 0.86411 0.05365 0.70384 0.0
loop_
_geom_bond_atom_site_label_1
_geom_bond_atom_site_label_2
_geom_bond_distance
_geom_bond_site_symmetry_2
_ccdc_geom_bond_type
C0 Eu1 2.835 . S
C0 C2 1.500 1_545 S
C0 O20 1.257 . S
C0 O21 1.260 . S
Eu1 C0 2.835 . S
Eu1 O20 2.473 . S
Eu1 O21 2.480 . S
Eu1 O22 2.430 . S
Eu1 O23 2.670 . S
Eu1 O24 2.394 . S
Eu1 O29 2.355 . S
Eu1 O31 2.374 . S
C2 C0 1.500 1_565 S
C2 C3 1.377 . S
C2 C7 1.377 . S
C3 C2 1.377 . S
C3 C4 1.395 . S
C3 H32 0.931 . S
C4 C3 1.395 . S
C4 C5 1.383 . S
C4 H33 0.931 . S
C5 C4 1.383 . S
C5 C6 1.394 . S
C6 C5 1.394 . S
C6 C7 1.378 . S
C6 H34 0.931 . S
C7 C2 1.377 . S
C7 C6 1.378 . S
C7 H35 0.931 . S
C8 O22 1.259 . S
C8 O23 1.270 . S
C9 O24 1.251 . S
C9 O25 1.251 . S
C10 Eu11 2.835 . S
C10 C12 1.500 . S
C10 O26 1.257 . S
C10 O27 1.260 . S
Eu11 C10 2.835 . S
Eu11 O23 2.355 . S
Eu11 O25 2.374 . S
Eu11 O26 2.473 . S
Eu11 O27 2.480 . S
Eu11 O28 2.430 . S
Eu11 O29 2.670 . S
Eu11 O30 2.394 . S
C12 C10 1.500 . S
C12 C13 1.377 . S
C12 C17 1.377 . S
C13 C12 1.377 . S
C13 C14 1.395 . S
C13 H36 0.931 . S
C14 C13 1.395 . S
C14 C15 1.383 . S
C14 H37 0.931 . S
C15 C14 1.383 . S
C15 C16 1.394 . S
C16 C15 1.394 . S
C16 C17 1.378 . S
C16 H38 0.931 . S
C17 C12 1.377 . S
C17 C16 1.378 . S
C17 H39 0.931 . S
C18 O28 1.259 . S
C18 O29 1.270 . S
C19 O30 1.251 . S
C19 O31 1.251 . S
O20 C0 1.257 . S
O20 Eu1 2.473 . S
O21 C0 1.260 . S
O21 Eu1 2.480 . S
O22 Eu1 2.430 . S
O22 C8 1.259 . S
O23 Eu1 2.670 . S
O23 C8 1.270 . S
O23 Eu11 2.355 . S
O24 Eu1 2.394 . S
O24 C9 1.251 . S
O25 C9 1.251 . S
O25 Eu11 2.374 . S
O26 C10 1.257 . S
O26 Eu11 2.473 . S
O27 C10 1.260 . S
O27 Eu11 2.480 . S
O28 Eu11 2.430 . S
O28 C18 1.259 . S
O29 Eu1 2.355 . S
O29 Eu11 2.670 . S
O29 C18 1.270 . S
O30 Eu11 2.394 . S
O30 C19 1.251 . S
O31 Eu1 2.374 . S
O31 C19 1.251 . S
H32 C3 0.931 . S
H33 C4 0.931 . S
H34 C6 0.931 . S
H35 C7 0.931 . S
H36 C13 0.931 . S
H37 C14 0.931 . S
H38 C16 0.931 . S
H39 C17 0.931 . S
C40 Eu41 2.835 . S
C40 C42 1.500 . S
C40 O60 1.257 . S
C40 O61 1.260 . S
Eu41 C40 2.835 . S
Eu41 O60 2.473 . S
Eu41 O61 2.480 . S
Eu41 O62 2.430 . S
Eu41 O63 2.670 . S
Eu41 O64 2.394 . S
Eu41 O69 2.355 . S
Eu41 O71 2.374 . S
C42 C40 1.500 . S
C42 C43 1.377 . S
C42 C47 1.377 . S
C43 C42 1.377 . S
C43 C44 1.395 . S
C43 H72 0.931 . S
C44 C43 1.395 . S
C44 C45 1.383 . S
C44 H73 0.931 . S
C45 C44 1.383 . S
C45 C46 1.394 . S
C46 C45 1.394 . S
C46 C47 1.378 . S
C46 H74 0.931 . S
C47 C42 1.377 . S
C47 C46 1.378 . S
C47 H75 0.931 . S
C48 O62 1.259 . S
C48 O63 1.270 . S
C49 O64 1.251 . S
C49 O65 1.251 . S
C50 Eu51 2.835 . S
C50 C52 1.500 . S
C50 O66 1.257 . S
C50 O67 1.260 . S
Eu51 C50 2.835 . S
Eu51 O63 2.355 . S
Eu51 O65 2.374 . S
Eu51 O66 2.473 . S
Eu51 O67 2.480 . S
Eu51 O68 2.430 . S
Eu51 O69 2.670 . S
Eu51 O70 2.394 . S
C52 C50 1.500 . S
C52 C53 1.377 . S
C52 C57 1.377 . S
C53 C52 1.377 . S
C53 C54 1.395 . S
C53 H76 0.931 . S
C54 C53 1.395 . S
C54 C55 1.383 . S
C54 H77 0.931 . S
C55 C54 1.383 . S
C55 C56 1.394 . S
C56 C55 1.394 . S
C56 C57 1.378 . S
C56 H78 0.931 . S
C57 C52 1.377 . S
C57 C56 1.378 . S
C57 H79 0.931 . S
C58 O68 1.259 . S
C58 O69 1.270 . S
C59 O70 1.251 . S
C59 O71 1.251 . S
O60 C40 1.257 . S
O60 Eu41 2.473 . S
O61 C40 1.260 . S
O61 Eu41 2.480 . S
O62 Eu41 2.430 . S
O62 C48 1.259 . S
O63 Eu41 2.670 . S
O63 C48 1.270 . S
O63 Eu51 2.355 . S
O64 Eu41 2.394 . S
O64 C49 1.251 . S
O65 C49 1.251 . S
O65 Eu51 2.374 . S
O66 C50 1.257 . S
O66 Eu51 2.473 . S
O67 C50 1.260 . S
O67 Eu51 2.480 . S
O68 Eu51 2.430 . S
O68 C58 1.259 . S
O69 Eu41 2.355 . S
O69 Eu51 2.670 . S
O69 C58 1.270 . S
O70 Eu51 2.394 . S
O70 C59 1.251 . S
O71 Eu41 2.374 . S
O71 C59 1.251 . S
H72 C43 0.931 . S
H73 C44 0.931 . S
H74 C46 0.931 . S
H75 C47 0.931 . S
H76 C53 0.931 . S
H77 C54 0.931 . S
H78 C56 0.931 . S
H79 C57 0.931 . S
C80 Eu81 2.835 . S
C80 C82 1.500 1_655 S
C80 O100 1.257 . S
C80 O101 1.260 . S
Eu81 C80 2.835 . S
Eu81 O100 2.473 . S
Eu81 O101 2.480 . S
Eu81 O102 2.430 . S
Eu81 O103 2.670 . S
Eu81 O104 2.394 . S
Eu81 O109 2.355 . S
Eu81 O111 2.374 . S
C82 C80 1.500 1_455 S
C82 C83 1.377 . S
C82 C87 1.377 . S
C83 C82 1.377 . S
C83 C84 1.395 . S
C83 H112 0.931 . S
C84 C83 1.395 . S
C84 C85 1.383 . S
C84 H113 0.931 . S
C85 C84 1.383 . S
C85 C86 1.394 . S
C86 C85 1.394 . S
C86 C87 1.378 . S
C86 H114 0.931 . S
C87 C82 1.377 . S
C87 C86 1.378 . S
C87 H115 0.931 . S
C88 O102 1.259 . S
C88 O103 1.270 . S
C89 O104 1.251 . S
C89 O105 1.251 . S
C90 Eu91 2.835 . S
C90 C92 1.500 . S
C90 O106 1.257 . S
C90 O107 1.260 . S
Eu91 C90 2.835 . S
Eu91 O103 2.355 . S
Eu91 O105 2.374 . S
Eu91 O106 2.473 . S
Eu91 O107 2.480 . S
Eu91 O108 2.430 . S
Eu91 O109 2.670 . S
Eu91 O110 2.394 . S
C92 C90 1.500 . S
C92 C93 1.377 . S
C92 C97 1.377 . S
C93 C92 1.377 . S
C93 C94 1.395 . S
C93 H116 0.931 . S
C94 C93 1.395 . S
C94 C95 1.383 . S
C94 H117 0.931 . S
C95 C94 1.383 . S
C95 C96 1.394 . S
C96 C95 1.394 . S
C96 C97 1.378 . S
C96 H118 0.931 . S
C97 C92 1.377 . S
C97 C96 1.378 . S
C97 H119 0.931 . S
C98 O108 1.259 . S
C98 O109 1.270 . S
C99 O110 1.251 . S
C99 O111 1.251 . S
O100 C80 1.257 . S
O100 Eu81 2.473 . S
O101 C80 1.260 . S
O101 Eu81 2.480 . S
O102 Eu81 2.430 . S
O102 C88 1.259 . S
O103 Eu81 2.670 . S
O103 C88 1.270 . S
O103 Eu91 2.355 . S
O104 Eu81 2.394 . S
O104 C89 1.251 . S
O105 C89 1.251 . S
O105 Eu91 2.374 . S
O106 C90 1.257 . S
O106 Eu91 2.473 . S
O107 C90 1.260 . S
O107 Eu91 2.480 . S
O108 Eu91 2.430 . S
O108 C98 1.259 . S
O109 Eu81 2.355 . S
O109 Eu91 2.670 . S
O109 C98 1.270 . S
O110 Eu91 2.394 . S
O110 C99 1.251 . S
O111 Eu81 2.374 . S
O111 C99 1.251 . S
H112 C83 0.931 . S
H113 C84 0.931 . S
H114 C86 0.931 . S
H115 C87 0.931 . S
H116 C93 0.931 . S
H117 C94 0.931 . S
H118 C96 0.931 . S
H119 C97 0.931 . S
C120 Eu121 2.835 . S
C120 C122 1.500 . S
C120 O140 1.257 . S
C120 O141 1.260 . S
Eu121 C120 2.835 . S
Eu121 O140 2.473 . S
Eu121 O141 2.480 . S
Eu121 O142 2.430 . S
Eu121 O143 2.670 . S
Eu121 O144 2.394 . S
Eu121 O149 2.355 . S
Eu121 O151 2.374 . S
C122 C120 1.500 . S
C122 C123 1.377 . S
C122 C127 1.377 . S
C123 C122 1.377 . S
C123 C124 1.395 . S
C123 H152 0.931 . S
C124 C123 1.395 . S
C124 C125 1.383 . S
C124 H153 0.931 . S
C125 C124 1.383 . S
C125 C126 1.394 . S
C126 C125 1.394 . S
C126 C127 1.378 . S
C126 H154 0.931 . S
C127 C122 1.377 . S
C127 C126 1.378 . S
C127 H155 0.931 . S
C128 O142 1.259 . S
C128 O143 1.270 . S
C129 O144 1.251 . S
C129 O145 1.251 . S
C130 Eu131 2.835 . S
C130 C132 1.500 . S
C130 O146 1.257 . S
C130 O147 1.260 . S
Eu131 C130 2.835 . S
Eu131 O143 2.355 . S
Eu131 O145 2.374 . S
Eu131 O146 2.473 . S
Eu131 O147 2.480 . S
Eu131 O148 2.430 . S
Eu131 O149 2.670 . S
Eu131 O150 2.394 . S
C132 C130 1.500 . S
C132 C133 1.377 . S
C132 C137 1.377 . S
C133 C132 1.377 . S
C133 C134 1.395 . S
C133 H156 0.931 . S
C134 C133 1.395 . S
C134 C135 1.383 . S
C134 H157 0.931 . S
C135 C134 1.383 . S
C135 C136 1.394 . S
C136 C135 1.394 . S
C136 C137 1.378 . S
C136 H158 0.931 . S
C137 C132 1.377 . S
C137 C136 1.378 . S
C137 H159 0.931 . S
C138 O148 1.259 . S
C138 O149 1.270 . S
C139 O150 1.251 . S
C139 O151 1.251 . S
O140 C120 1.257 . S
O140 Eu121 2.473 . S
O141 C120 1.260 . S
O141 Eu121 2.480 . S
O142 Eu121 2.430 . S
O142 C128 1.259 . S
O143 Eu121 2.670 . S
O143 C128 1.270 . S
O143 Eu131 2.355 . S
O144 Eu121 2.394 . S
O144 C129 1.251 . S
O145 C129 1.251 . S
O145 Eu131 2.374 . S
O146 C130 1.257 . S
O146 Eu131 2.473 . S
O147 C130 1.260 . S
O147 Eu131 2.480 . S
O148 Eu131 2.430 . S
O148 C138 1.259 . S
O149 Eu121 2.355 . S
O149 Eu131 2.670 . S
O149 C138 1.270 . S
O150 Eu131 2.394 . S
O150 C139 1.251 . S
O151 Eu121 2.374 . S
O151 C139 1.251 . S
H152 C123 0.931 . S
H153 C124 0.931 . S
H154 C126 0.931 . S
H155 C127 0.931 . S
H156 C133 0.931 . S
H157 C134 0.931 . S
H158 C136 0.931 . S
H159 C137 0.931 . S
C160 Eu161 2.835 . S
C160 C162 1.500 . S
C160 O180 1.257 . S
C160 O181 1.260 . S
Eu161 C160 2.835 . S
Eu161 O180 2.473 . S
Eu161 O181 2.480 . S
Eu161 O182 2.430 . S
Eu161 O183 2.670 . S
Eu161 O184 2.394 . S
Eu161 O189 2.355 . S
Eu161 O191 2.374 . S
C162 C160 1.500 . S
C162 C163 1.377 . S
C162 C167 1.377 . S
C163 C162 1.377 . S
C163 C164 1.395 . S
C163 H192 0.931 . S
C164 C163 1.395 . S
C164 C165 1.383 . S
C164 H193 0.931 . S
C165 C164 1.383 . S
C165 C166 1.394 . S
C166 C165 1.394 . S
C166 C167 1.378 . S
C166 H194 0.931 . S
C167 C162 1.377 . S
C167 C166 1.378 . S
C167 H195 0.931 . S
C168 O182 1.259 . S
C168 O183 1.270 . S
C169 O184 1.251 . S
C169 O185 1.251 . S
C170 Eu171 2.835 . S
C170 C172 1.500 . S
C170 O186 1.257 . S
C170 O187 1.260 . S
Eu171 C170 2.835 . S
Eu171 O183 2.355 . S
Eu171 O185 2.374 . S
Eu171 O186 2.473 . S
Eu171 O187 2.480 . S
Eu171 O188 2.430 . S
Eu171 O189 2.670 . S
Eu171 O190 2.394 . S
C172 C170 1.500 . S
C172 C173 1.377 . S
C172 C177 1.377 . S
C173 C172 1.377 . S
C173 C174 1.395 . S
C173 H196 0.931 . S
C174 C173 1.395 . S
C174 C175 1.383 . S
C174 H197 0.931 . S
C175 C174 1.383 . S
C175 C176 1.394 . S
C176 C175 1.394 . S
C176 C177 1.378 . S
C176 H198 0.931 . S
C177 C172 1.377 . S
C177 C176 1.378 . S
C177 H199 0.931 . S
C178 O188 1.259 . S
C178 O189 1.270 . S
C179 O190 1.251 . S
C179 O191 1.251 . S
O180 C160 1.257 . S
O180 Eu161 2.473 . S
O181 C160 1.260 . S
O181 Eu161 2.480 . S
O182 Eu161 2.430 . S
O182 C168 1.259 . S
O183 Eu161 2.670 . S
O183 C168 1.270 . S
O183 Eu171 2.355 . S
O184 Eu161 2.394 . S
O184 C169 1.251 . S
O185 C169 1.251 . S
O185 Eu171 2.374 . S
O186 C170 1.257 . S
O186 Eu171 2.473 . S
O187 C170 1.260 . S
O187 Eu171 2.480 . S
O188 Eu171 2.430 . S
O188 C178 1.259 . S
O189 Eu161 2.355 . S
O189 Eu171 2.670 . S
O189 C178 1.270 . S
O190 Eu171 2.394 . S
O190 C179 1.251 . S
O191 Eu161 2.374 . S
O191 C179 1.251 . S
H192 C163 0.931 . S
H193 C164 0.931 . S
H194 C166 0.931 . S
H195 C167 0.931 . S
H196 C173 0.931 . S
H197 C174 0.931 . S
H198 C176 0.931 . S
H199 C177 0.931 . S
C200 Eu201 2.835 . S
C200 C202 1.500 . S
C200 O220 1.257 . S
C200 O221 1.260 . S
Eu201 C200 2.835 . S
Eu201 O220 2.473 . S
Eu201 O221 2.480 . S
Eu201 O222 2.430 . S
Eu201 O223 2.670 . S
Eu201 O224 2.394 . S
Eu201 O229 2.355 . S
Eu201 O231 2.374 . S
C202 C200 1.500 . S
C202 C203 1.377 . S
C202 C207 1.377 . S
C203 C202 1.377 . S
C203 C204 1.395 . S
C203 H232 0.931 . S
C204 C203 1.395 . S
C204 C205 1.383 . S
C204 H233 0.931 . S
C205 C204 1.383 . S
C205 C206 1.394 . S
C206 C205 1.394 . S
C206 C207 1.378 . S
C206 H234 0.931 . S
C207 C202 1.377 . S
C207 C206 1.378 . S
C207 H235 0.931 . S
C208 O222 1.259 . S
C208 O223 1.270 . S
C209 O224 1.251 . S
C209 O225 1.251 . S
C210 Eu211 2.835 . S
C210 C212 1.500 . S
C210 O226 1.257 . S
C210 O227 1.260 . S
Eu211 C210 2.835 . S
Eu211 O223 2.355 . S
Eu211 O225 2.374 . S
Eu211 O226 2.473 . S
Eu211 O227 2.480 . S
Eu211 O228 2.430 . S
Eu211 O229 2.670 . S
Eu211 O230 2.394 . S
C212 C210 1.500 . S
C212 C213 1.377 . S
C212 C217 1.377 . S
C213 C212 1.377 . S
C213 C214 1.395 . S
C213 H236 0.931 . S
C214 C213 1.395 . S
C214 C215 1.383 . S
C214 H237 0.931 . S
C215 C214 1.383 . S
C215 C216 1.394 . S
C216 C215 1.394 . S
C216 C217 1.378 . S
C216 H238 0.931 . S
C217 C212 1.377 . S
C217 C216 1.378 . S
C217 H239 0.931 . S
C218 O228 1.259 . S
C218 O229 1.270 . S
C219 O230 1.251 . S
C219 O231 1.251 . S
O220 C200 1.257 . S
O220 Eu201 2.473 . S
O221 C200 1.260 . S
O221 Eu201 2.480 . S
O222 Eu201 2.430 . S
O222 C208 1.259 . S
O223 Eu201 2.670 . S
O223 C208 1.270 . S
O223 Eu211 2.355 . S
O224 Eu201 2.394 . S
O224 C209 1.251 . S
O225 C209 1.251 . S
O225 Eu211 2.374 . S
O226 C210 1.257 . S
O226 Eu211 2.473 . S
O227 C210 1.260 . S
O227 Eu211 2.480 . S
O228 Eu211 2.430 . S
O228 C218 1.259 . S
O229 Eu201 2.355 . S
O229 Eu211 2.670 . S
O229 C218 1.270 . S
O230 Eu211 2.394 . S
O230 C219 1.251 . S
O231 Eu201 2.374 . S
O231 C219 1.251 . S
H232 C203 0.931 . S
H233 C204 0.931 . S
H234 C206 0.931 . S
H235 C207 0.931 . S
H236 C213 0.931 . S
H237 C214 0.931 . S
H238 C216 0.931 . S
H239 C217 0.931 . S
C240 C241 1.349 . S
C240 C242 1.327 . S
C240 H265 0.950 . S
C241 C240 1.349 . S
C241 C257 1.349 . S
C242 C240 1.327 . S
C242 C261 1.429 . S
C242 H266 0.950 . S
C243 C260 1.580 . S
C243 C262 1.362 1_554 S
C243 H267 0.949 1_554 S
H244 C248 0.949 1_554 S
C245 C246 1.349 . S
C245 C247 1.327 . S
C245 H268 0.950 . S
C246 C245 1.349 . S
C246 C258 1.349 . S
C247 C245 1.327 . S
C247 C263 1.429 . S
C247 H269 0.950 . S
C248 H244 0.949 1_556 S
C248 C256 1.580 . S
C248 C264 1.362 1_556 S
H249 C257 0.950 . S
H250 C255 0.950 . S
H251 C256 0.949 . S
H252 C258 0.950 . S
H253 C259 0.950 . S
H254 C260 0.949 . S
C255 H250 0.950 . S
C255 C257 1.327 . S
C255 C261 1.429 . S
C256 C248 1.580 . S
C256 H251 0.949 . S
C256 C262 1.368 1_545 S
C257 C241 1.349 . S
C257 H249 0.950 . S
C257 C255 1.327 . S
C258 C246 1.349 . S
C258 H252 0.950 . S
C258 C259 1.327 . S
C259 H253 0.950 . S
C259 C258 1.327 . S
C259 C263 1.429 . S
C260 C243 1.580 . S
C260 H254 0.949 . S
C260 C264 1.368 1_565 S
C261 C242 1.429 . S
C261 C255 1.429 . S
C261 C262 1.523 . S
C262 C243 1.362 1_556 S
C262 C256 1.368 1_565 S
C262 C261 1.523 . S
C263 C247 1.429 . S
C263 C259 1.429 . S
C263 C264 1.523 . S
C264 C248 1.362 1_554 S
C264 C260 1.368 1_545 S
C264 C263 1.523 . S
H265 C240 0.950 . S
H266 C242 0.950 . S
H267 C243 0.949 1_556 S
H268 C245 0.950 . S
H269 C247 0.950 . S
C270 C271 1.349 . S
C270 C272 1.327 . S
C270 H295 0.950 . S
C271 C270 1.349 . S
C271 C287 1.349 . S
C272 C270 1.327 . S
C272 C291 1.429 . S
C272 H296 0.950 . S
C273 C290 1.574 . S
C273 C292 1.368 . S
C273 H297 0.949 . S
H274 C278 0.949 . S
C275 C276 1.349 . S
C275 C277 1.327 . S
C275 H298 0.950 . S
C276 C275 1.349 . S
C276 C288 1.349 . S
C277 C275 1.327 . S
C277 C293 1.429 . S
C277 H299 0.950 . S
C278 H274 0.949 . S
C278 C286 1.574 . S
C278 C294 1.368 . S
H279 C287 0.950 . S
H280 C285 0.950 . S
H281 C286 0.949 . S
H282 C288 0.950 . S
H283 C289 0.950 . S
H284 C290 0.949 . S
C285 H280 0.950 . S
C285 C287 1.327 . S
C285 C291 1.429 . S
C286 C278 1.574 . S
C286 H281 0.949 . S
C286 C292 1.368 . S
C287 C271 1.349 . S
C287 H279 0.950 . S
C287 C285 1.327 . S
C288 C276 1.349 . S
C288 H282 0.950 . S
C288 C289 1.327 . S
C289 H283 0.950 . S
C289 C288 1.327 . S
C289 C293 1.429 . S
C290 C273 1.574 . S
C290 H284 0.949 . S
C290 C294 1.368 . S
C291 C272 1.429 . S
C291 C285 1.429 . S
C291 C292 1.523 . S
C292 C273 1.368 . S
C292 C286 1.368 . S
C292 C291 1.523 . S
C293 C277 1.429 . S
C293 C289 1.429 . S
C293 C294 1.523 . S
C294 C278 1.368 . S
C294 C290 1.368 . S
C294 C293 1.523 . S
H295 C270 0.950 . S
H296 C272 0.950 . S
H297 C273 0.949 . S
H298 C275 0.950 . S
H299 C277 0.950 . S
C300 C301 1.349 . S
C300 C302 1.327 . S
C300 H325 0.950 . S
C301 C300 1.349 . S
C301 C317 1.349 . S
C302 C300 1.327 . S
C302 C321 1.429 . S
C302 H326 0.950 . S
C303 C320 1.574 . S
C303 C322 1.368 1_455 S
C303 H327 0.949 . S
H304 C308 0.949 . S
C305 C306 1.349 . S
C305 C307 1.327 . S
C305 H328 0.950 . S
C306 C305 1.349 . S
C306 C318 1.349 . S
C307 C305 1.327 . S
C307 C323 1.429 . S
C307 H329 0.950 . S
C308 H304 0.949 . S
C308 C316 1.574 . S
C308 C324 1.368 1_655 S
H309 C317 0.950 . S
H310 C315 0.982 . S
H311 C316 0.949 . S
H312 C318 0.950 . S
H313 C319 0.950 . S
H314 C320 0.949 . S
C315 H310 0.982 . S
C315 C317 1.327 . S
C315 C321 1.429 . S
C316 C308 1.574 . S
C316 H311 0.949 . S
C316 C322 1.368 1_556 S
C317 C301 1.349 . S
C317 H309 0.950 . S
C317 C315 1.327 . S
C318 C306 1.349 . S
C318 H312 0.950 . S
C318 C319 1.327 . S
C319 H313 0.950 . S
C319 C318 1.327 . S
C319 C323 1.429 . S
C320 C303 1.574 . S
C320 H314 0.949 . S
C320 C324 1.368 1_554 S
C321 C302 1.429 . S
C321 C315 1.429 . S
C321 C322 1.523 . S
C322 C303 1.368 1_655 S
C322 C316 1.368 1_554 S
C322 C321 1.523 . S
C323 C307 1.429 . S
C323 C319 1.429 . S
C323 C324 1.523 . S
C324 C308 1.368 1_455 S
C324 C320 1.368 1_556 S
C324 C323 1.523 . S
H325 C300 0.950 . S
H326 C302 0.950 . S
H327 C303 0.949 . S
H328 C305 0.950 . S
H329 C307 0.950 . S
C330 C331 1.349 . S
C330 C332 1.327 . S
C330 H355 0.950 . S
C331 C330 1.349 . S
C331 C347 1.349 . S
C332 C330 1.327 . S
C332 C351 1.429 . S
C332 H356 0.950 . S
C333 C350 1.574 . S
C333 C352 1.368 . S
C333 H357 0.949 . S
H334 C338 0.949 . S
C335 C336 1.349 . S
C335 C337 1.327 . S
C335 H358 0.950 . S
C336 C335 1.349 . S
C336 C348 1.349 . S
C337 C335 1.327 . S
C337 C353 1.429 . S
C337 H359 0.950 . S
C338 H334 0.949 . S
C338 C346 1.574 . S
C338 C354 1.368 . S
H339 C347 0.950 . S
H340 C345 0.950 . S
H341 C346 0.949 . S
H342 C348 0.950 . S
H343 C349 0.950 . S
H344 C350 0.949 . S
C345 H340 0.950 . S
C345 C347 1.327 . S
C345 C351 1.429 . S
C346 C338 1.574 . S
C346 H341 0.949 . S
C346 C352 1.368 1_565 S
C347 C331 1.349 . S
C347 H339 0.950 . S
C347 C345 1.327 . S
C348 C336 1.349 . S
C348 H342 0.950 . S
C348 C349 1.327 . S
C349 H343 0.950 . S
C349 C348 1.327 . S
C349 C353 1.429 . S
C350 C333 1.574 . S
C350 H344 0.949 . S
C350 C354 1.368 1_545 S
C351 C332 1.429 . S
C351 C345 1.429 . S
C351 C352 1.523 . S
C352 C333 1.368 . S
C352 C346 1.368 1_545 S
C352 C351 1.523 . S
C353 C337 1.429 . S
C353 C349 1.429 . S
C353 C354 1.523 . S
C354 C338 1.368 . S
C354 C350 1.368 1_565 S
C354 C353 1.523 . S
H355 C330 0.950 . S
H356 C332 0.950 . S
H357 C333 0.949 . S
H358 C335 0.950 . S
H359 C337 0.950 . S
C360 C361 1.349 . S
C360 C362 1.327 . S
C360 H385 0.950 . S
C361 C360 1.349 . S
C361 C377 1.349 . S
C362 C360 1.327 . S
C362 C381 1.429 . S
C362 H386 0.950 . S
C363 C380 1.574 1_556 S
C363 C382 1.368 . S
C363 H387 0.949 . S
H364 C368 0.949 . S
C365 C366 1.349 . S
C365 C367 1.327 . S
C365 H388 0.950 . S
C366 C365 1.349 . S
C366 C378 1.349 . S
C367 C365 1.327 . S
C367 C383 1.429 . S
C367 H389 0.950 . S
C368 H364 0.949 . S
C368 C376 1.574 1_554 S
C368 C384 1.368 . S
H369 C377 0.950 . S
H370 C375 0.950 . S
H371 C376 0.949 . S
H372 C378 0.950 . S
H373 C379 0.950 . S
H374 C380 0.949 . S
C375 H370 0.950 . S
C375 C377 1.327 . S
C375 C381 1.429 . S
C376 C368 1.574 1_556 S
C376 H371 0.949 . S
C376 C382 1.368 . S
C377 C361 1.349 . S
C377 H369 0.950 . S
C377 C375 1.327 . S
C378 C366 1.349 . S
C378 H372 0.950 . S
C378 C379 1.327 . S
C379 H373 0.950 . S
C379 C378 1.327 . S
C379 C383 1.429 . S
C380 C363 1.574 1_554 S
C380 H374 0.949 . S
C380 C384 1.368 . S
C381 C362 1.429 . S
C381 C375 1.429 . S
C381 C382 1.523 . S
C382 C363 1.368 . S
C382 C376 1.368 . S
C382 C381 1.523 . S
C383 C367 1.429 . S
C383 C379 1.429 . S
C383 C384 1.523 . S
C384 C368 1.368 . S
C384 C380 1.368 . S
C384 C383 1.523 . S
H385 C360 0.950 . S
H386 C362 0.950 . S
H387 C363 0.949 . S
H388 C365 0.950 . S
H389 C367 0.950 . S
C390 C391 1.349 . S
C390 C392 1.327 . S
C390 H415 0.950 . S
C391 C390 1.349 . S
C391 C407 1.349 . S
C392 C390 1.327 . S
C392 C411 1.429 . S
C392 H416 0.950 . S
C393 C410 1.574 1_655 S
C393 C412 1.368 . S
C393 H417 0.949 . S
H394 C398 0.949 . S
C395 C396 1.349 . S
C395 C397 1.327 . S
C395 H418 0.950 . S
C396 C395 1.349 . S
C396 C408 1.349 . S
C397 C395 1.327 . S
C397 C413 1.429 . S
C397 H419 0.950 . S
C398 H394 0.949 . S
C398 C406 1.574 . S
C398 C414 1.368 1_655 S
H399 C407 0.950 . S
H400 C405 0.950 . S
H401 C406 0.949 . S
H402 C408 0.950 . S
H403 C409 0.950 . S
H404 C410 0.949 . S
C405 H400 0.950 . S
C405 C407 1.327 . S
C405 C411 1.429 . S
C406 C398 1.574 . S
C406 H401 0.949 . S
C406 C412 1.368 . S
C407 C391 1.349 . S
C407 H399 0.950 . S
C407 C405 1.327 . S
C408 C396 1.349 . S
C408 H402 0.950 . S
C408 C409 1.327 . S
C409 H403 0.950 . S
C409 C408 1.327 . S
C409 C413 1.429 . S
C410 C393 1.574 1_455 S
C410 H404 0.949 . S
C410 C414 1.368 . S
C411 C392 1.429 . S
C411 C405 1.429 . S
C411 C412 1.523 . S
C412 C393 1.368 . S
C412 C406 1.368 . S
C412 C411 1.523 . S
C413 C397 1.429 . S
C413 C409 1.429 . S
C413 C414 1.523 . S
C414 C398 1.368 1_455 S
C414 C410 1.368 . S
C414 C413 1.523 . S
H415 C390 0.950 . S
H416 C392 0.950 . S
H417 C393 0.949 . S
H418 C395 0.950 . S
H419 C397 0.950 . S
C420 C421 1.349 . S
C420 C422 1.327 . S
C420 H445 0.950 . S
C421 C420 1.349 . S
C421 C437 1.349 . S
C422 C420 1.327 . S
C422 C441 1.429 . S
C422 H446 0.950 . S
C423 C440 1.574 . S
C423 C442 1.368 . S
C423 H447 0.949 . S
H424 C428 0.949 . S
C425 C426 1.349 . S
C425 C427 1.327 . S
C425 H448 0.950 . S
C426 C425 1.349 . S
C426 C438 1.349 . S
C427 C425 1.327 . S
C427 C443 1.429 . S
C427 H449 0.950 . S
C428 H424 0.949 . S
C428 C436 1.574 . S
C428 C444 1.368 . S
H429 C437 0.950 . S
H430 C435 0.950 . S
H431 C436 0.949 . S
H432 C438 0.950 . S
H433 C439 0.950 . S
H434 C440 0.949 . S
C435 H430 0.950 . S
C435 C437 1.327 . S
C435 C441 1.429 . S
C436 C428 1.574 . S
C436 H431 0.949 . S
C436 C442 1.368 . S
C437 C421 1.349 . S
C437 H429 0.950 . S
C437 C435 1.327 . S
C438 C426 1.349 . S
C438 H432 0.950 . S
C438 C439 1.327 . S
C439 H433 0.950 . S
C439 C438 1.327 . S
C439 C443 1.429 . S
C440 C423 1.574 . S
C440 H434 0.949 . S
C440 C444 1.368 . S
C441 C422 1.429 . S
C441 C435 1.429 . S
C441 C442 1.523 . S
C442 C423 1.368 . S
C442 C436 1.368 . S
C442 C441 1.523 . S
C443 C427 1.429 . S
C443 C439 1.429 . S
C443 C444 1.523 . S
C444 C428 1.368 . S
C444 C440 1.368 . S
C444 C443 1.523 . S
H445 C420 0.950 . S
H446 C422 0.950 . S
H447 C423 0.949 . S
H448 C425 0.950 . S
H449 C427 0.950 . S
C450 C451 1.349 . S
C450 C452 1.327 . S
C450 H475 0.950 . S
C451 C450 1.349 . S
C451 C467 1.349 . S
C452 C450 1.327 . S
C452 C471 1.429 . S
C452 H476 0.950 . S
C453 C470 1.574 . S
C453 C472 1.368 . S
C453 H477 0.949 . S
H454 C458 0.949 . S
C455 C456 1.349 . S
C455 C457 1.327 . S
C455 H478 0.950 . S
C456 C455 1.349 . S
C456 C468 1.349 . S
C457 C455 1.327 . S
C457 C473 1.429 . S
C457 H479 0.950 . S
C458 H454 0.949 . S
C458 C466 1.574 . S
C458 C474 1.368 . S
H459 C467 0.950 . S
H460 C465 0.950 . S
H461 C466 0.949 . S
H462 C468 0.950 . S
H463 C469 0.950 . S
H464 C470 0.949 . S
C465 H460 0.950 . S
C465 C467 1.327 . S
C465 C471 1.429 . S
C466 C458 1.574 . S
C466 H461 0.949 . S
C466 C472 1.368 . S
C467 C451 1.349 . S
C467 H459 0.950 . S
C467 C465 1.327 . S
C468 C456 1.349 . S
C468 H462 0.950 . S
C468 C469 1.327 . S
C469 H463 0.950 . S
C469 C468 1.327 . S
C469 C473 1.429 . S
C470 C453 1.574 . S
C470 H464 0.949 . S
C470 C474 1.368 . S
C471 C452 1.429 . S
C471 C465 1.429 . S
C471 C472 1.523 . S
C472 C453 1.368 . S
C472 C466 1.368 . S
C472 C471 1.523 . S
C473 C457 1.429 . S
C473 C469 1.429 . S
C473 C474 1.523 . S
C474 C458 1.368 . S
C474 C470 1.368 . S
C474 C473 1.523 . S
H475 C450 0.950 . S
H476 C452 0.950 . S
H477 C453 0.949 . S
H478 C455 0.950 . S
H479 C457 0.950 . S
C480 C481 1.349 . S
C480 C482 1.327 . S
C480 H505 0.950 . S
C481 C480 1.349 . S
C481 C497 1.349 . S
C482 C480 1.327 . S
C482 C501 1.429 . S
C482 H506 0.950 . S
C483 C500 1.574 . S
C483 C502 1.368 . S
C483 H507 0.949 . S
H484 C488 0.949 . S
C485 C486 1.349 . S
C485 C487 1.327 . S
C485 H508 0.950 . S
C486 C485 1.349 . S
C486 C498 1.349 . S
C487 C485 1.327 . S
C487 C503 1.429 . S
C487 H509 0.950 . S
C488 H484 0.949 . S
C488 C496 1.574 . S
C488 C504 1.368 . S
H489 C497 0.950 . S
H490 C495 0.950 . S
H491 C496 0.949 . S
H492 C498 0.950 . S
H493 C499 0.950 . S
H494 C500 0.949 . S
C495 H490 0.950 . S
C495 C497 1.327 . S
C495 C501 1.429 . S
C496 C488 1.574 . S
C496 H491 0.949 . S
C496 C502 1.368 . S
C497 C481 1.349 . S
C497 H489 0.950 . S
C497 C495 1.327 . S
C498 C486 1.349 . S
C498 H492 0.950 . S
C498 C499 1.327 . S
C499 H493 0.950 . S
C499 C498 1.327 . S
C499 C503 1.429 . S
C500 C483 1.574 . S
C500 H494 0.949 . S
C500 C504 1.368 . S
C501 C482 1.429 . S
C501 C495 1.429 . S
C501 C502 1.523 . S
C502 C483 1.368 . S
C502 C496 1.368 . S
C502 C501 1.523 . S
C503 C487 1.429 . S
C503 C499 1.429 . S
C503 C504 1.523 . S
C504 C488 1.368 . S
C504 C500 1.368 . S
C504 C503 1.523 . S
H505 C480 0.950 . S
H506 C482 0.950 . S
H507 C483 0.949 . S
H508 C485 0.950 . S
H509 C487 0.950 . S
C510 C511 1.349 . S
C510 C512 1.327 . S
C510 H535 0.950 . S
C511 C510 1.349 . S
C511 C527 1.349 . S
C512 C510 1.327 . S
C512 C531 1.429 . S
C512 H536 0.950 . S
C513 C530 1.574 . S
C513 C532 1.368 . S
C513 H537 0.949 . S
H514 C518 0.949 . S
C515 C516 1.349 . S
C515 C517 1.327 . S
C515 H538 0.950 . S
C516 C515 1.349 . S
C516 C528 1.349 . S
C517 C515 1.327 . S
C517 C533 1.429 . S
C517 H539 0.950 . S
C518 H514 0.949 . S
C518 C526 1.574 . S
C518 C534 1.368 . S
H519 C527 0.950 . S
H520 C525 0.950 . S
H521 C526 0.949 . S
H522 C528 0.950 . S
H523 C529 0.950 . S
H524 C530 0.949 . S
C525 H520 0.950 . S
C525 C527 1.327 . S
C525 C531 1.429 . S
C526 C518 1.574 . S
C526 H521 0.949 . S
C526 C532 1.368 . S
C527 C511 1.349 . S
C527 H519 0.950 . S
C527 C525 1.327 . S
C528 C516 1.349 . S
C528 H522 0.950 . S
C528 C529 1.327 . S
C529 H523 0.950 . S
C529 C528 1.327 . S
C529 C533 1.429 . S
C530 C513 1.574 . S
C530 H524 0.949 . S
C530 C534 1.368 . S
C531 C512 1.429 . S
C531 C525 1.429 . S
C531 C532 1.523 . S
C532 C513 1.368 . S
C532 C526 1.368 . S
C532 C531 1.523 . S
C533 C517 1.429 . S
C533 C529 1.429 . S
C533 C534 1.523 . S
C534 C518 1.368 . S
C534 C530 1.368 . S
C534 C533 1.523 . S
H535 C510 0.950 . S
H536 C512 0.950 . S
H537 C513 0.949 . S
H538 C515 0.950 . S
H539 C517 0.950 . S
C540 C541 1.349 . S
C540 C542 1.327 . S
C540 H565 0.950 . S
C541 C540 1.349 . S
C541 C557 1.349 . S
C542 C540 1.327 . S
C542 C561 1.429 . S
C542 H566 0.950 . S
C543 C560 1.574 . S
C543 C562 1.368 . S
C543 H567 0.949 . S
H544 C548 0.949 . S
C545 C546 1.349 . S
C545 C547 1.327 . S
C545 H568 0.950 . S
C546 C545 1.349 . S
C546 C558 1.349 . S
C547 C545 1.327 . S
C547 C563 1.429 . S
C547 H569 0.950 . S
C548 H544 0.949 . S
C548 C556 1.574 . S
C548 C564 1.368 . S
H549 C557 0.950 . S
H550 C555 0.950 . S
H551 C556 0.949 . S
H552 C558 0.950 . S
H553 C559 0.950 . S
H554 C560 0.949 . S
C555 H550 0.950 . S
C555 C557 1.327 . S
C555 C561 1.429 . S
C556 C548 1.574 . S
C556 H551 0.949 . S
C556 C562 1.368 . S
C557 C541 1.349 . S
C557 H549 0.950 . S
C557 C555 1.327 . S
C558 C546 1.349 . S
C558 H552 0.950 . S
C558 C559 1.327 . S
C559 H553 0.950 . S
C559 C558 1.327 . S
C559 C563 1.429 . S
C560 C543 1.574 . S
C560 H554 0.949 . S
C560 C564 1.368 . S
C561 C542 1.429 . S
C561 C555 1.429 . S
C561 C562 1.523 . S
C562 C543 1.368 . S
C562 C556 1.368 . S
C562 C561 1.523 . S
C563 C547 1.429 . S
C563 C559 1.429 . S
C563 C564 1.523 . S
C564 C548 1.368 . S
C564 C560 1.368 . S
C564 C563 1.523 . S
H565 C540 0.950 . S
H566 C542 0.950 . S
H567 C543 0.949 . S
H568 C545 0.950 . S
H569 C547 0.950 . S
C570 C571 1.349 . S
C570 C572 1.327 . S
C570 H595 0.950 . S
C571 C570 1.349 . S
C571 C587 1.349 . S
C572 C570 1.327 . S
C572 C591 1.429 . S
C572 H596 0.950 . S
C573 C590 1.574 . S
C573 C592 1.368 . S
C573 H597 0.949 . S
H574 C578 0.949 . S
C575 C576 1.349 . S
C575 C577 1.327 . S
C575 H598 0.950 . S
C576 C575 1.349 . S
C576 C588 1.349 . S
C577 C575 1.327 . S
C577 C593 1.429 . S
C577 H599 0.950 . S
C578 H574 0.949 . S
C578 C586 1.574 . S
C578 C594 1.368 . S
H579 C587 0.950 . S
H580 C585 0.950 . S
H581 C586 0.949 . S
H582 C588 0.950 . S
H583 C589 0.950 . S
H584 C590 0.949 . S
C585 H580 0.950 . S
C585 C587 1.327 . S
C585 C591 1.429 . S
C586 C578 1.574 . S
C586 H581 0.949 . S
C586 C592 1.368 . S
C587 C571 1.349 . S
C587 H579 0.950 . S
C587 C585 1.327 . S
C588 C576 1.349 . S
C588 H582 0.950 . S
C588 C589 1.327 . S
C589 H583 0.950 . S
C589 C588 1.327 . S
C589 C593 1.429 . S
C590 C573 1.574 . S
C590 H584 0.949 . S
C590 C594 1.368 . S
C591 C572 1.429 . S
C591 C585 1.429 . S
C591 C592 1.523 . S
C592 C573 1.368 . S
C592 C586 1.368 . S
C592 C591 1.523 . S
C593 C577 1.429 . S
C593 C589 1.429 . S
C593 C594 1.523 . S
C594 C578 1.368 . S
C594 C590 1.368 . S
C594 C593 1.523 . S
H595 C570 0.950 . S
H596 C572 0.950 . S
H597 C573 0.949 . S
H598 C575 0.950 . S
H599 C577 0.950 . S
C600 C601 1.349 . S
C600 C602 1.327 . S
C600 H625 0.950 . S
C601 C600 1.349 . S
C601 C617 1.349 . S
C602 C600 1.327 . S
C602 C621 1.429 . S
C602 H626 0.950 . S
C603 C620 1.574 . S
C603 C622 1.368 . S
C603 H627 0.949 . S
H604 C608 0.949 . S
C605 C606 1.349 . S
C605 C607 1.327 . S
C605 H628 0.950 . S
C606 C605 1.349 . S
C606 C618 1.349 . S
C607 C605 1.327 . S
C607 C623 1.429 . S
C607 H629 0.950 . S
C608 H604 0.949 . S
C608 C616 1.574 . S
C608 C624 1.368 . S
H609 C617 0.950 . S
H610 C615 0.950 . S
H611 C616 0.949 . S
H612 C618 0.950 . S
H613 C619 0.950 . S
H614 C620 0.949 . S
C615 H610 0.950 . S
C615 C617 1.327 . S
C615 C621 1.429 . S
C616 C608 1.574 . S
C616 H611 0.949 . S
C616 C622 1.368 . S
C617 C601 1.349 . S
C617 H609 0.950 . S
C617 C615 1.327 . S
C618 C606 1.349 . S
C618 H612 0.950 . S
C618 C619 1.327 . S
C619 H613 0.950 . S
C619 C618 1.327 . S
C619 C623 1.429 . S
C620 C603 1.574 . S
C620 H614 0.949 . S
C620 C624 1.368 . S
C621 C602 1.429 . S
C621 C615 1.429 . S
C621 C622 1.523 . S
C622 C603 1.368 . S
C622 C616 1.368 . S
C622 C621 1.523 . S
C623 C607 1.429 . S
C623 C619 1.429 . S
C623 C624 1.523 . S
C624 C608 1.368 . S
C624 C620 1.368 . S
C624 C623 1.523 . S
H625 C600 0.950 . S
H626 C602 0.950 . S
H627 C603 0.949 . S
H628 C605 0.950 . S
H629 C607 0.950 . S
C630 C631 1.349 . S
C630 C632 1.327 . S
C630 H655 0.950 . S
C631 C630 1.349 . S
C631 C647 1.349 . S
C632 C630 1.327 . S
C632 C651 1.429 . S
C632 H656 0.950 . S
C633 C650 1.574 1_655 S
C633 C652 1.368 . S
C633 H657 0.949 . S
H634 C638 0.949 . S
C635 C636 1.349 . S
C635 C637 1.327 . S
C635 H658 0.950 . S
C636 C635 1.349 . S
C636 C648 1.349 . S
C637 C635 1.327 . S
C637 C653 1.429 . S
C637 H659 0.950 . S
C638 H634 0.949 . S
C638 C646 1.574 1_455 S
C638 C654 1.368 . S
H639 C647 0.950 . S
H640 C645 0.950 . S
H641 C646 0.949 . S
H642 C648 0.950 . S
H643 C649 0.950 . S
H644 C650 0.949 . S
C645 H640 0.950 . S
C645 C647 1.327 . S
C645 C651 1.429 . S
C646 C638 1.574 1_655 S
C646 H641 0.949 . S
C646 C652 1.368 . S
C647 C631 1.349 . S
C647 H639 0.950 . S
C647 C645 1.327 . S
C648 C636 1.349 . S
C648 H642 0.950 . S
C648 C649 1.327 . S
C649 H643 0.950 . S
C649 C648 1.327 . S
C649 C653 1.429 . S
C650 C633 1.574 1_455 S
C650 H644 0.949 . S
C650 C654 1.368 . S
C651 C632 1.429 . S
C651 C645 1.429 . S
C651 C652 1.523 . S
C652 C633 1.368 . S
C652 C646 1.368 . S
C652 C651 1.523 . S
C653 C637 1.429 . S
C653 C649 1.429 . S
C653 C654 1.523 . S
C654 C638 1.368 . S
C654 C650 1.368 . S
C654 C653 1.523 . S
H655 C630 0.950 . S
H656 C632 0.950 . S
H657 C633 0.949 . S
H658 C635 0.950 . S
H659 C637 0.950 . S
C660 C661 1.349 . S
C660 C662 1.327 . S
C660 H685 0.950 . S
C661 C660 1.349 . S
C661 C677 1.349 . S
C662 C660 1.327 . S
C662 C681 1.429 . S
C662 H686 0.950 . S
C663 C680 1.574 1_545 S
C663 C682 1.368 . S
C663 H687 0.949 . S
H664 C668 0.949 . S
C665 C666 1.349 . S
C665 C667 1.327 . S
C665 H688 0.950 . S
C666 C665 1.349 . S
C666 C678 1.349 . S
C667 C665 1.327 . S
C667 C683 1.429 . S
C667 H689 0.950 . S
C668 H664 0.949 . S
C668 C676 1.574 1_565 S
C668 C684 1.368 . S
H669 C677 0.950 . S
H670 C675 0.950 . S
H671 C676 0.949 . S
H672 C678 0.950 . S
H673 C679 0.950 . S
H674 C680 0.949 . S
C675 H670 0.950 . S
C675 C677 1.327 . S
C675 C681 1.429 . S
C676 C668 1.574 1_545 S
C676 H671 0.949 . S
C676 C682 1.368 . S
C677 C661 1.349 . S
C677 H669 0.950 . S
C677 C675 1.327 . S
C678 C666 1.349 . S
C678 H672 0.950 . S
C678 C679 1.327 . S
C679 H673 0.950 . S
C679 C678 1.327 . S
C679 C683 1.429 . S
C680 C663 1.574 1_565 S
C680 H674 0.949 . S
C680 C684 1.368 . S
C681 C662 1.429 . S
C681 C675 1.429 . S
C681 C682 1.523 . S
C682 C663 1.368 . S
C682 C676 1.368 . S
C682 C681 1.523 . S
C683 C667 1.429 . S
C683 C679 1.429 . S
C683 C684 1.523 . S
C684 C668 1.368 . S
C684 C680 1.368 . S
C684 C683 1.523 . S
H685 C660 0.950 . S
H686 C662 0.950 . S
H687 C663 0.949 . S
H688 C665 0.950 . S
H689 C667 0.950 . S
C690 C691 1.349 . S
C690 C692 1.327 . S
C690 H715 0.950 . S
C691 C690 1.349 . S
C691 C707 1.349 . S
C692 C690 1.327 . S
C692 C711 1.429 . S
C692 H716 0.950 . S
C693 C710 1.574 . S
C693 C712 1.368 . S
C693 H717 0.949 . S
H694 C698 0.949 . S
C695 C696 1.349 . S
C695 C697 1.327 1_565 S
C695 H718 0.950 . S
C696 C695 1.349 . S
C696 C708 1.349 . S
C697 C695 1.327 1_545 S
C697 C713 1.429 . S
C697 H719 0.950 . S
C698 H694 0.949 . S
C698 C706 1.574 . S
C698 C714 1.368 . S
H699 C707 0.950 . S
H700 C705 0.950 . S
H701 C706 0.949 . S
H702 C708 0.950 . S
H703 C709 0.950 . S
H704 C710 0.949 . S
C705 H700 0.950 . S
C705 C707 1.327 . S
C705 C711 1.429 . S
C706 C698 1.574 . S
C706 H701 0.949 . S
C706 C712 1.368 . S
C707 C691 1.349 . S
C707 H699 0.950 . S
C707 C705 1.327 . S
C708 C696 1.349 . S
C708 H702 0.950 . S
C708 C709 1.327 . S
C709 H703 0.950 . S
C709 C708 1.327 . S
C709 C713 1.429 1_565 S
C710 C693 1.574 . S
C710 H704 0.949 . S
C710 C714 1.368 . S
C711 C692 1.429 . S
C711 C705 1.429 . S
C711 C712 1.523 . S
C712 C693 1.368 . S
C712 C706 1.368 . S
C712 C711 1.523 . S
C713 C697 1.429 . S
C713 C709 1.429 1_545 S
C713 C714 1.523 . S
C714 C698 1.368 . S
C714 C710 1.368 . S
C714 C713 1.523 . S
H715 C690 0.950 . S
H716 C692 0.950 . S
H717 C693 0.949 . S
H718 C695 0.950 . S
H719 C697 0.950 . S
C720 C721 1.349 . S
C720 C722 1.327 1_455 S
C720 H745 0.950 . S
C721 C720 1.349 . S
C721 C737 1.349 . S
C722 C720 1.327 1_655 S
C722 C741 1.429 . S
C722 H746 0.950 . S
C723 C740 1.574 . S
C723 C742 1.368 . S
C723 H747 0.949 . S
H724 C728 0.949 . S
C725 C726 1.349 . S
C725 C727 1.327 . S
C725 H748 0.950 . S
C726 C725 1.349 . S
C726 C738 1.349 . S
C727 C725 1.327 . S
C727 C743 1.429 . S
C727 H749 0.950 . S
C728 H724 0.949 . S
C728 C736 1.574 . S
C728 C744 1.368 . S
H729 C737 0.950 . S
H730 C735 0.950 . S
H731 C736 0.949 . S
H732 C738 0.950 . S
H733 C739 0.950 . S
H734 C740 0.949 . S
C735 H730 0.950 . S
C735 C737 1.327 1_655 S
C735 C741 1.429 . S
C736 C728 1.574 . S
C736 H731 0.949 . S
C736 C742 1.368 . S
C737 C721 1.349 . S
C737 H729 0.950 . S
C737 C735 1.327 1_455 S
C738 C726 1.349 . S
C738 H732 0.950 . S
C738 C739 1.327 . S
C739 H733 0.950 . S
C739 C738 1.327 . S
C739 C743 1.429 . S
C740 C723 1.574 . S
C740 H734 0.949 . S
C740 C744 1.368 . S
C741 C722 1.429 . S
C741 C735 1.429 . S
C741 C742 1.523 . S
C742 C723 1.368 . S
C742 C736 1.368 . S
C742 C741 1.523 . S
C743 C727 1.429 . S
C743 C739 1.429 . S
C743 C744 1.523 . S
C744 C728 1.368 . S
C744 C740 1.368 . S
C744 C743 1.523 . S
H745 C720 0.950 . S
H746 C722 0.950 . S
H747 C723 0.949 . S
H748 C725 0.950 . S
H749 C727 0.950 . S
C750 C751 1.349 . S
C750 C752 1.327 1_455 S
C750 H775 0.950 . S
C751 C750 1.349 . S
C751 C767 1.349 . S
C752 C750 1.327 1_655 S
C752 C771 1.429 . S
C752 H776 0.950 . S
C753 C770 1.574 . S
C753 C772 1.368 . S
C753 H777 0.949 . S
H754 C758 0.949 . S
C755 C756 1.349 . S
C755 C757 1.327 1_565 S
C755 H778 0.950 . S
C756 C755 1.349 . S
C756 C768 1.349 . S
C757 C755 1.327 1_545 S
C757 C773 1.429 . S
C757 H779 0.950 . S
C758 H754 0.949 . S
C758 C766 1.574 . S
C758 C774 1.368 . S
H759 C767 0.950 . S
H760 C765 0.950 . S
H761 C766 0.949 . S
H762 C768 0.950 . S
H763 C769 0.950 . S
H764 C770 0.949 . S
C765 H760 0.950 . S
C765 C767 1.327 . S
C765 C771 1.429 1_455 S
C766 C758 1.574 . S
C766 H761 0.949 . S
C766 C772 1.368 . S
C767 C751 1.349 . S
C767 H759 0.950 . S
C767 C765 1.327 . S
C768 C756 1.349 . S
C768 H762 0.950 . S
C768 C769 1.327 1_565 S
C769 H763 0.950 . S
C769 C768 1.327 1_545 S
C769 C773 1.429 . S
C770 C753 1.574 . S
C770 H764 0.949 . S
C770 C774 1.368 . S
C771 C752 1.429 . S
C771 C765 1.429 1_655 S
C771 C772 1.523 . S
C772 C753 1.368 . S
C772 C766 1.368 . S
C772 C771 1.523 . S
C773 C757 1.429 . S
C773 C769 1.429 . S
C773 C774 1.523 . S
C774 C758 1.368 . S
C774 C770 1.368 . S
C774 C773 1.523 . S
H775 C750 0.950 . S
H776 C752 0.950 . S
H777 C753 0.949 . S
H778 C755 0.950 . S
H779 C757 0.950 . S
C241 C168 2.233 . S
C246 C18 2.520 . S
C271 C218 2.534 . S
C276 C48 2.234 . S
C301 C98 2.520 . S
C306 C128 2.233 . S
C331 C8 2.234 . S
C336 C178 2.534 . S
C361 C208 2.233 . S
C366 C58 2.520 . S
C391 C88 2.234 . S
C396 C138 2.534 . S
C421 C19 1.951 . S
C426 C95 1.918 . S
C451 C59 1.951 . S
C456 C15 1.918 . S
C481 C99 1.951 . S
C486 C55 1.918 . S
C511 C125 1.861 . S
C516 C169 1.832 . S
C541 C165 1.861 . S
C546 C209 1.832 . S
C571 C129 1.832 . S
C576 C205 1.861 . S
C601 C9 0.900 . S
C606 C85 0.909 . S
C631 C49 0.900 . S
C636 C5 0.909 . S
C661 C89 0.900 . S
C666 C45 0.909 . S
C691 C135 0.977 . S
C696 C179 0.992 . S
C721 C175 0.978 . S
C726 C219 0.992 . S
C751 C139 0.992 . S
C756 C215 0.978 . S
