# Generated by pormake.
# Topology lcy-e, (6)-cn, num edge types: 1
# Building blocks:
#     Node 0, Type 0, BuildingBlock: BETDEL_clean_sbu_0, # of connection points: 6
#     Node 1, Type 0, BuildingBlock: BETDEL_clean_sbu_0, # of connection points: 6
#     Node 2, Type 0, BuildingBlock: BETDEL_clean_sbu_0, # of connection points: 6
#     Node 3, Type 0, BuildingBlock: BETDEL_clean_sbu_0, # of connection points: 6
#     Node 4, Type 0, BuildingBlock: BETDEL_clean_sbu_0, # of connection points: 6
#     Node 5, Type 0, BuildingBlock: BETDEL_clean_sbu_0, # of connection points: 6
#     Node 6, Type 0, BuildingBlock: BETDEL_clean_sbu_0, # of connection points: 6
#     Node 7, Type 0, BuildingBlock: BETDEL_clean_sbu_0, # of connection points: 6
#     Node 8, Type 0, BuildingBlock: BETDEL_clean_sbu_0, # of connection points: 6
#     Node 9, Type 0, BuildingBlock: BETDEL_clean_sbu_0, # of connection points: 6
#     Node 10, Type 0, BuildingBlock: BETDEL_clean_sbu_0, # of connection points: 6
#     Node 11, Type 0, BuildingBlock: BETDEL_clean_sbu_0, # of connection points: 6
#     Edge 12, Type (0, 0), BuildingBlock: TEMPAE_clean_linker_10, # of connection points: 2
#     Edge 13, Type (0, 0), BuildingBlock: TEMPAE_clean_linker_10, # of connection points: 2
#     Edge 14, Type (0, 0), BuildingBlock: TEMPAE_clean_linker_10, # of connection points: 2
#     Edge 15, Type (0, 0), BuildingBlock: TEMPAE_clean_linker_10, # of connection points: 2
#     Edge 16, Type (0, 0), BuildingBlock: TEMPAE_clean_linker_10, # of connection points: 2
#     Edge 17, Type (0, 0), BuildingBlock: TEMPAE_clean_linker_10, # of connection points: 2
#     Edge 18, Type (0, 0), BuildingBlock: TEMPAE_clean_linker_10, # of connection points: 2
#     Edge 19, Type (0, 0), BuildingBlock: TEMPAE_clean_linker_10, # of connection points: 2
#     Edge 20, Type (0, 0), BuildingBlock: TEMPAE_clean_linker_10, # of connection points: 2
#     Edge 21, Type (0, 0), BuildingBlock: TEMPAE_clean_linker_10, # of connection points: 2
#     Edge 22, Type (0, 0), BuildingBlock: TEMPAE_clean_linker_10, # of connection points: 2
#     Edge 23, Type (0, 0), BuildingBlock: TEMPAE_clean_linker_10, # of connection points: 2
#     Edge 24, Type (0, 0), BuildingBlock: TEMPAE_clean_linker_10, # of connection points: 2
#     Edge 25, Type (0, 0), BuildingBlock: TEMPAE_clean_linker_10, # of connection points: 2
#     Edge 26, Type (0, 0), BuildingBlock: TEMPAE_clean_linker_10, # of connection points: 2
#     Edge 27, Type (0, 0), BuildingBlock: TEMPAE_clean_linker_10, # of connection points: 2
#     Edge 28, Type (0, 0), BuildingBlock: TEMPAE_clean_linker_10, # of connection points: 2
#     Edge 29, Type (0, 0), BuildingBlock: TEMPAE_clean_linker_10, # of connection points: 2
#     Edge 30, Type (0, 0), BuildingBlock: TEMPAE_clean_linker_10, # of connection points: 2
#     Edge 31, Type (0, 0), BuildingBlock: TEMPAE_clean_linker_10, # of connection points: 2
#     Edge 32, Type (0, 0), BuildingBlock: TEMPAE_clean_linker_10, # of connection points: 2
#     Edge 33, Type (0, 0), BuildingBlock: TEMPAE_clean_linker_10, # of connection points: 2
#     Edge 34, Type (0, 0), BuildingBlock: TEMPAE_clean_linker_10, # of connection points: 2
#     Edge 35, Type (0, 0), BuildingBlock: TEMPAE_clean_linker_10, # of connection points: 2
#     Edge 36, Type (0, 0), BuildingBlock: TEMPAE_clean_linker_10, # of connection points: 2
#     Edge 37, Type (0, 0), BuildingBlock: TEMPAE_clean_linker_10, # of connection points: 2
#     Edge 38, Type (0, 0), BuildingBlock: TEMPAE_clean_linker_10, # of connection points: 2
#     Edge 39, Type (0, 0), BuildingBlock: TEMPAE_clean_linker_10, # of connection points: 2
#     Edge 40, Type (0, 0), BuildingBlock: TEMPAE_clean_linker_10, # of connection points: 2
#     Edge 41, Type (0, 0), BuildingBlock: TEMPAE_clean_linker_10, # of connection points: 2
#     Edge 42, Type (0, 0), BuildingBlock: TEMPAE_clean_linker_10, # of connection points: 2
#     Edge 43, Type (0, 0), BuildingBlock: TEMPAE_clean_linker_10, # of connection points: 2
#     Edge 44, Type (0, 0), BuildingBlock: TEMPAE_clean_linker_10, # of connection points: 2
#     Edge 45, Type (0, 0), BuildingBlock: TEMPAE_clean_linker_10, # of connection points: 2
#     Edge 46, Type (0, 0), BuildingBlock: TEMPAE_clean_linker_10, # of connection points: 2
#     Edge 47, Type (0, 0), BuildingBlock: TEMPAE_clean_linker_10, # of connection points: 2
# Relax obj value: 0.223
# Max RMSD: 0.280
# Mean RMSD: 0.269
data_MOF--net-lcy-e--node1-BETDEL_clean_sbu_0--edge1-TEMPAE_clean_linker_10
_symmetry_space_group_name_H-M    P1
_symmetry_Int_Tables_number       1
_symmetry_cell_setting            triclinic
loop_
_symmetry_equiv_pos_as_xyz
'x, y, z'
_cell_length_a     38.047858
_cell_length_b     37.024743
_cell_length_c     39.016879
_cell_angle_alpha  90.075467
_cell_angle_beta   91.434485
_cell_angle_gamma 88.468879
loop_
_atom_site_label
_atom_site_type_symbol
_atom_site_fract_x
_atom_site_fract_y
_atom_site_fract_z
_atom_type_partial_charge
Dy0 Dy 0.11761 0.24802 0.45276 0.0
C1 C 0.14392 0.12521 0.53336 0.0
C2 C 0.10565 0.3041 0.40848 0.0
Dy3 Dy 0.14711 0.18617 0.49523 0.0
O4 O 0.0899 0.27351 0.40731 0.0
O5 O 0.12769 0.30442 0.43446 0.0
O6 O 0.06527 0.22298 0.45331 0.0
O7 O 0.11082 0.18917 0.45061 0.0
C8 C 0.07756 0.18999 0.45269 0.0
C9 C 0.18327 0.24775 0.50096 0.0
O10 O 0.17234 0.17094 0.44633 0.0
O11 O 0.16574 0.22836 0.42368 0.0
O12 O 0.17311 0.13834 0.52267 0.0
O13 O 0.11725 0.1451 0.52308 0.0
O14 O 0.19818 0.21598 0.50572 0.0
O15 O 0.15083 0.24407 0.4978 0.0
O16 O 0.09466 0.26537 0.50312 0.0
O17 O 0.10737 0.21102 0.53106 0.0
C18 C 0.18079 0.1955 0.42366 0.0
C19 C 0.09146 0.24332 0.5297 0.0
Dy20 Dy 0.00713 0.86448 0.68807 0.0
C21 C 0.13219 0.85476 0.77517 0.0
C22 C 0.96051 0.87361 0.63423 0.0
Dy23 Dy 0.07072 0.86992 0.74039 0.0
O24 O 0.99116 0.85765 0.6329 0.0
O25 O 0.95455 0.88392 0.66555 0.0
O26 O 0.01832 0.80472 0.6857 0.0
O27 O 0.05975 0.84042 0.69331 0.0
C28 C 0.05192 0.80769 0.69126 0.0
C29 C 0.01464 0.91307 0.75371 0.0
O30 O 0.09226 0.90249 0.6987 0.0
O31 O 0.04181 0.905 0.66329 0.0
O32 O 0.11853 0.88715 0.77073 0.0
O33 O 0.11224 0.83095 0.76062 0.0
O34 O 0.03692 0.90143 0.77734 0.0
O35 O 0.02593 0.90414 0.72471 0.0
O36 O 0.98278 0.84648 0.73701 0.0
O37 O 0.03637 0.82828 0.76195 0.0
C38 C 0.07469 0.91411 0.67101 0.0
C39 C 0.0016 0.83092 0.76241 0.0
Dy40 Dy 0.37814 0.79545 0.99516 0.0
C41 C 0.37378 0.71418 0.87067 0.0
C42 C 0.38296 0.84858 0.04298 0.0
Dy43 Dy 0.38567 0.74229 0.93397 0.0
O44 O 0.38744 0.81428 0.04962 0.0
O45 O 0.37583 0.85343 0.01063 0.0
O46 O 0.322 0.80518 0.97809 0.0
O47 O 0.36046 0.79499 0.94149 0.0
C48 C 0.32808 0.80057 0.94583 0.0
C49 C 0.41888 0.72063 0.99239 0.0
O50 O 0.42687 0.78024 0.91989 0.0
O51 O 0.42724 0.81467 0.97002 0.0
O52 O 0.4037 0.71134 0.88765 0.0
O53 O 0.35056 0.73151 0.88862 0.0
O54 O 0.40754 0.698 0.96921 0.0
O55 O 0.4148 0.75242 0.9812 0.0
O56 O 0.35316 0.74607 0.01588 0.0
O57 O 0.33953 0.72307 0.96198 0.0
C58 C 0.44032 0.80563 0.93975 0.0
C59 C 0.33756 0.72199 0.99578 0.0
Dy60 Dy 0.51288 0.12822 0.18776 0.0
C61 C 0.39412 0.13364 0.28043 0.0
C62 C 0.56082 0.11772 0.13689 0.0
Dy63 Dy 0.45278 0.11958 0.242 0.0
O64 O 0.53774 0.14407 0.13847 0.0
O65 O 0.5591 0.09791 0.16432 0.0
O66 O 0.49151 0.18236 0.17385 0.0
O67 O 0.45657 0.14253 0.19015 0.0
C68 C 0.45945 0.17551 0.18187 0.0
C69 C 0.51215 0.0776 0.25134 0.0
O70 O 0.43577 0.07732 0.20567 0.0
O71 O 0.48517 0.07768 0.17142 0.0
O72 O 0.42599 0.12853 0.29279 0.0
O73 O 0.39442 0.13045 0.24727 0.0
O74 O 0.48205 0.06912 0.26414 0.0
O75 O 0.50844 0.10851 0.23896 0.0
O76 O 0.53435 0.1585 0.23402 0.0
O77 O 0.47864 0.17205 0.25368 0.0
C78 C 0.45505 0.06374 0.18081 0.0
C79 C 0.51323 0.17543 0.25612 0.0
Dy80 Dy 0.64608 0.26269 0.55758 0.0
C81 C 0.62691 0.38738 0.46642 0.0
C82 C 0.65199 0.20484 0.60086 0.0
Dy83 Dy 0.64688 0.32772 0.50405 0.0
O84 O 0.62232 0.22037 0.59088 0.0
O85 O 0.67788 0.21966 0.58557 0.0
O86 O 0.62497 0.3015 0.59625 0.0
O87 O 0.61261 0.30988 0.54475 0.0
C88 C 0.60914 0.32285 0.5743 0.0
C89 C 0.69639 0.27497 0.49706 0.0
O90 O 0.68174 0.34758 0.54612 0.0
O91 O 0.69579 0.29143 0.57053 0.0
O92 O 0.64399 0.35928 0.4546 0.0
O93 O 0.62126 0.38309 0.49886 0.0
O94 O 0.6998 0.30701 0.48392 0.0
O95 O 0.66596 0.27285 0.50786 0.0
O96 O 0.61515 0.23973 0.51237 0.0
O97 O 0.60525 0.29351 0.48144 0.0
C98 C 0.70166 0.32629 0.56623 0.0
C99 C 0.60018 0.25857 0.48635 0.0
Dy100 Dy 0.95464 0.39346 0.75516 0.0
C101 C 0.02903 0.36393 0.88215 0.0
C102 C 0.91534 0.39975 0.69601 0.0
Dy103 Dy 0.99619 0.36638 0.81906 0.0
O104 O 0.91479 0.42261 0.72122 0.0
O105 O 0.93806 0.37384 0.7028 0.0
O106 O 0.94664 0.44717 0.77889 0.0
O107 O 0.94866 0.40067 0.81047 0.0
C108 C 0.94685 0.43495 0.81007 0.0
C109 C 0.00785 0.32962 0.7602 0.0
O110 O 0.94919 0.33389 0.82618 0.0
O111 O 0.92353 0.3458 0.7725 0.0
O112 O 0.0434 0.35402 0.85363 0.0
O113 O 0.99672 0.37458 0.87617 0.0
O114 O 0.01069 0.31428 0.79027 0.0
O115 O 0.00241 0.36275 0.76427 0.0
O116 O 0.00713 0.41773 0.74652 0.0
O117 O 0.02432 0.41602 0.80391 0.0
C118 C 0.92484 0.32829 0.80223 0.0
C119 C 0.02905 0.42683 0.77204 0.0
Dy120 Dy 0.86574 0.75081 0.05816 0.0
C121 C 0.86479 0.62584 0.97254 0.0
C122 C 0.86265 0.8024 0.10805 0.0
Dy123 Dy 0.8492 0.6882 0.00675 0.0
O124 O 0.8849 0.77528 0.1075 0.0
O125 O 0.84279 0.80229 0.08045 0.0
O126 O 0.91888 0.72604 0.06705 0.0
O127 O 0.87557 0.69247 0.05698 0.0
C128 C 0.90858 0.6933 0.06176 0.0
C129 C 0.81036 0.74998 0.99865 0.0
O130 O 0.81552 0.67127 0.04864 0.0
O131 O 0.81617 0.72612 0.07771 0.0
O132 O 0.83521 0.64427 0.96882 0.0
O133 O 0.88543 0.64182 0.99433 0.0
O134 O 0.79922 0.71894 0.98738 0.0
O135 O 0.84155 0.74558 0.00863 0.0
O136 O 0.89386 0.77123 0.01184 0.0
O137 O 0.89304 0.71679 0.98152 0.0
C138 C 0.80309 0.69361 0.07208 0.0
C139 C 0.9039 0.75043 0.98561 0.0
Dy140 Dy 0.53736 0.62601 0.24868 0.0
C141 C 0.45751 0.63808 0.36873 0.0
C142 C 0.59116 0.62555 0.20398 0.0
Dy143 Dy 0.48564 0.64263 0.30581 0.0
O144 O 0.59417 0.61931 0.2366 0.0
O145 O 0.55823 0.63134 0.19522 0.0
O146 O 0.54298 0.56953 0.26893 0.0
O147 O 0.53583 0.61274 0.30315 0.0
C148 C 0.53916 0.57882 0.30067 0.0
C149 C 0.46678 0.67062 0.24434 0.0
O150 O 0.52109 0.68802 0.31732 0.0
O151 O 0.55945 0.67706 0.27263 0.0
O152 O 0.44682 0.66118 0.34529 0.0
O153 O 0.48323 0.61796 0.35773 0.0
O154 O 0.44395 0.66132 0.26687 0.0
O155 O 0.49744 0.66741 0.2572 0.0
O156 O 0.48865 0.59885 0.22803 0.0
O157 O 0.46485 0.59259 0.28172 0.0
C158 C 0.54902 0.6963 0.29966 0.0
C159 C 0.46466 0.58543 0.24843 0.0
Dy160 Dy 0.22752 0.42673 0.13641 0.0
C161 C 0.10398 0.51935 0.12092 0.0
C162 C 0.28322 0.37952 0.14562 0.0
Dy163 Dy 0.16708 0.48531 0.13491 0.0
O164 O 0.26966 0.38906 0.11594 0.0
O165 O 0.26734 0.39695 0.1698 0.0
O166 O 0.18929 0.38708 0.11364 0.0
O167 O 0.18395 0.44155 0.10162 0.0
C168 C 0.17002 0.41145 0.09778 0.0
C169 C 0.22556 0.50472 0.16909 0.0
O170 O 0.14732 0.4469 0.17363 0.0
O171 O 0.19852 0.41234 0.18324 0.0
O172 O 0.11711 0.49251 0.10362 0.0
O173 O 0.12542 0.52783 0.146 0.0
O174 O 0.20307 0.52793 0.15521 0.0
O175 O 0.21312 0.47332 0.1676 0.0
O176 O 0.25139 0.47226 0.10716 0.0
O177 O 0.19869 0.5017 0.09095 0.0
C178 C 0.16595 0.42209 0.19104 0.0
C179 C 0.23334 0.49771 0.0895 0.0
Dy180 Dy 0.69624 0.98883 0.85316 0.0
C181 C 0.77773 0.11582 0.8566 0.0
C182 C 0.65245 0.93237 0.85914 0.0
Dy183 Dy 0.7417 0.05418 0.8658 0.0
O184 O 0.64743 0.95963 0.83864 0.0
O185 O 0.68236 0.93514 0.87566 0.0
O186 O 0.68594 0.00461 0.79934 0.0
O187 O 0.69226 0.04574 0.83676 0.0
C188 C 0.68844 0.03905 0.80484 0.0
C189 C 0.75326 0.99745 0.90808 0.0
O190 O 0.70086 0.06986 0.90267 0.0
O191 O 0.67298 0.0149 0.9008 0.0
O192 O 0.79191 0.08487 0.86569 0.0
O193 O 0.74387 0.11326 0.85331 0.0
O194 O 0.75775 0.03052 0.91839 0.0
O195 O 0.74645 0.99739 0.87674 0.0
O196 O 0.74586 0.96952 0.82716 0.0
O197 O 0.76608 0.02745 0.82014 0.0
C198 C 0.67798 0.04725 0.91475 0.0
C199 C 0.76849 0.99224 0.81384 0.0
Dy200 Dy 0.74855 0.95126 0.38906 0.0
C201 C 0.87685 0.0317 0.38659 0.0
C202 C 0.69038 0.9102 0.37789 0.0
Dy203 Dy 0.81472 0.99637 0.37778 0.0
O204 O 0.71157 0.908 0.40446 0.0
O205 O 0.69991 0.93634 0.35824 0.0
O206 O 0.76855 0.93173 0.43954 0.0
O207 O 0.80498 0.94357 0.40106 0.0
C208 C 0.8014 0.93551 0.43245 0.0
C209 C 0.7565 0.01292 0.33918 0.0
O210 O 0.82702 0.95422 0.33992 0.0
O211 O 0.77236 0.92759 0.34083 0.0
O212 O 0.87253 0.99753 0.39184 0.0
O213 O 0.84725 0.04661 0.37582 0.0
O214 O 0.78807 0.01623 0.32764 0.0
O215 O 0.75844 0.00407 0.36995 0.0
O216 O 0.73574 0.00226 0.41918 0.0
O217 O 0.7943 0.01569 0.42791 0.0
C218 C 0.80371 0.93177 0.32721 0.0
C219 C 0.76073 0.02161 0.43466 0.0
Dy220 Dy 0.32526 0.49357 0.63537 0.0
C221 C 0.22385 0.60778 0.63388 0.0
C222 C 0.3824 0.44841 0.63351 0.0
Dy223 Dy 0.26893 0.55163 0.62042 0.0
O224 O 0.38165 0.4806 0.64641 0.0
O225 O 0.35117 0.43986 0.62224 0.0
O226 O 0.33394 0.51728 0.68693 0.0
O227 O 0.32089 0.55169 0.64492 0.0
C228 C 0.32659 0.55009 0.67697 0.0
C229 C 0.26302 0.4903 0.5833 0.0
O230 O 0.31208 0.57398 0.59094 0.0
O231 O 0.33898 0.51783 0.58444 0.0
O232 O 0.22768 0.59342 0.60365 0.0
O233 O 0.24452 0.59155 0.65611 0.0
O234 O 0.25209 0.52174 0.57176 0.0
O235 O 0.27253 0.49351 0.61402 0.0
O236 O 0.28412 0.47134 0.66903 0.0
O237 O 0.24971 0.5243 0.66713 0.0
C238 C 0.33453 0.55218 0.57542 0.0
C239 C 0.25786 0.49214 0.68039 0.0
C240 C 0.1761 0.31294 0.5149 0.0
C241 C 0.19878 0.28324 0.50872 0.0
C242 C 0.18903 0.3467 0.52419 0.0
C243 C 0.22576 0.35146 0.52652 0.0
C244 C 0.24897 0.32201 0.51895 0.0
C245 C 0.23518 0.288 0.51053 0.0
C246 C 0.1632 0.37684 0.53298 0.0
C247 C 0.28829 0.32628 0.5204 0.0
C248 C 0.25069 0.45054 0.53217 0.0
C249 C 0.25569 0.45475 0.56762 0.0
C250 C 0.24304 0.41645 0.51804 0.0
C251 C 0.23929 0.38634 0.54003 0.0
C252 C 0.24481 0.39059 0.57579 0.0
C253 C 0.25344 0.42451 0.58901 0.0
C254 C 0.23815 0.41282 0.47971 0.0
C255 C 0.23993 0.35973 0.6004 0.0
H256 H 0.14792 0.30961 0.51352 0.0
H257 H 0.25279 0.26523 0.50544 0.0
H258 H 0.16713 0.38477 0.56022 0.0
H259 H 0.16777 0.40101 0.51712 0.0
H260 H 0.13543 0.36895 0.52898 0.0
H261 H 0.30258 0.30221 0.51014 0.0
H262 H 0.29551 0.35043 0.50558 0.0
H263 H 0.29729 0.33056 0.54732 0.0
H264 H 0.25281 0.47378 0.51557 0.0
H265 H 0.2572 0.42757 0.61648 0.0
H266 H 0.21011 0.40806 0.47321 0.0
H267 H 0.25367 0.38919 0.47028 0.0
H268 H 0.24621 0.43738 0.46592 0.0
H269 H 0.21221 0.35113 0.59894 0.0
H270 H 0.24641 0.3672 0.62737 0.0
H271 H 0.25672 0.33612 0.59325 0.0
C272 C 0.8082 0.94163 0.7924 0.0
C273 C 0.80156 0.97859 0.79814 0.0
C274 C 0.84173 0.92884 0.7825 0.0
C275 C 0.86943 0.95346 0.77939 0.0
C276 C 0.86255 0.99079 0.78435 0.0
C277 C 0.82873 0.00287 0.79295 0.0
C278 C 0.84779 0.88895 0.77633 0.0
C279 C 0.89138 0.01798 0.78222 0.0
C280 C 0.96483 0.92248 0.79364 0.0
C281 C 0.97774 0.92414 0.76037 0.0
C282 C 0.92937 0.93091 0.80008 0.0
C283 C 0.9061 0.94066 0.77246 0.0
C284 C 0.91897 0.94175 0.73872 0.0
C285 C 0.95476 0.93405 0.73321 0.0
C286 C 0.91703 0.93016 0.83656 0.0
C287 C 0.89492 0.95093 0.70843 0.0
H288 H 0.78751 0.92263 0.79638 0.0
H289 H 0.82422 0.03152 0.7973 0.0
H290 H 0.86171 0.88444 0.75197 0.0
H291 H 0.86474 0.87727 0.79725 0.0
H292 H 0.82277 0.87414 0.77527 0.0
H293 H 0.88173 0.04606 0.78709 0.0
H294 H 0.91265 0.01117 0.8013 0.0
H295 H 0.90316 0.01702 0.75652 0.0
H296 H 0.98245 0.91449 0.81471 0.0
H297 H 0.96481 0.93575 0.70756 0.0
H298 H 0.89574 0.91053 0.83895 0.0
H299 H 0.90603 0.95711 0.84371 0.0
H300 H 0.93858 0.92259 0.85514 0.0
H301 H 0.87405 0.93062 0.7062 0.0
H302 H 0.90924 0.95152 0.68399 0.0
H303 H 0.88167 0.97764 0.71217 0.0
C304 C 0.31945 0.65845 0.98953 0.0
C305 C 0.32328 0.68895 0.01061 0.0
C306 C 0.30868 0.62564 0.0027 0.0
C307 C 0.30058 0.62336 0.0377 0.0
C308 C 0.30477 0.65378 0.0594 0.0
C309 C 0.31656 0.68624 0.04563 0.0
C310 C 0.30537 0.59356 0.97891 0.0
C311 C 0.29604 0.6522 0.09685 0.0
C312 C 0.23192 0.55511 0.05665 0.0
C313 C 0.2519 0.52711 0.07257 0.0
C314 C 0.24746 0.58681 0.04611 0.0
C315 C 0.28417 0.59026 0.05037 0.0
C316 C 0.30492 0.56155 0.06483 0.0
C317 C 0.28845 0.53038 0.07627 0.0
C318 C 0.22438 0.61692 0.03094 0.0
C319 C 0.34434 0.56402 0.06849 0.0
H320 H 0.32548 0.65983 0.96257 0.0
H321 H 0.32014 0.7095 0.06214 0.0
H322 H 0.31921 0.56948 0.99021 0.0
H323 H 0.27727 0.58687 0.97536 0.0
H324 H 0.31631 0.59876 0.9533 0.0
H325 H 0.30164 0.67786 0.11048 0.0
H326 H 0.26779 0.64629 0.09952 0.0
H327 H 0.31142 0.62995 0.10954 0.0
H328 H 0.20367 0.55298 0.05349 0.0
H329 H 0.30406 0.50909 0.08881 0.0
H330 H 0.23172 0.62204 0.00408 0.0
H331 H 0.22837 0.64229 0.04554 0.0
H332 H 0.196 0.61062 0.0311 0.0
H333 H 0.35694 0.53835 0.07779 0.0
H334 H 0.35097 0.58596 0.08669 0.0
H335 H 0.35572 0.57102 0.04353 0.0
C336 C 0.57716 0.07863 0.24703 0.0
C337 C 0.54761 0.06138 0.25945 0.0
C338 C 0.61143 0.06817 0.25739 0.0
C339 C 0.61677 0.03903 0.28045 0.0
C340 C 0.58724 0.01989 0.2916 0.0
C341 C 0.55287 0.03149 0.28119 0.0
C342 C 0.64179 0.08986 0.24515 0.0
C343 C 0.59192 0.98801 0.31545 0.0
C344 C 0.71222 0.00463 0.29126 0.0
C345 C 0.72252 0.02185 0.3217 0.0
C346 C 0.67745 0.00883 0.27806 0.0
C347 C 0.65288 0.03148 0.29532 0.0
C348 C 0.66365 0.04935 0.32581 0.0
C349 C 0.69806 0.04378 0.33887 0.0
C350 C 0.6668 0.98856 0.24605 0.0
C351 C 0.63891 0.07462 0.34462 0.0
H352 H 0.57359 0.10156 0.23008 0.0
H353 H 0.53026 0.01789 0.29079 0.0
H354 H 0.65401 0.10422 0.26721 0.0
H355 H 0.66233 0.07177 0.23422 0.0
H356 H 0.63342 0.11016 0.22544 0.0
H357 H 0.56702 0.97353 0.31867 0.0
H358 H 0.61211 0.96875 0.30559 0.0
H359 H 0.60142 0.99732 0.34099 0.0
H360 H 0.73085 0.98673 0.27864 0.0
H361 H 0.70595 0.05659 0.36277 0.0
H362 H 0.65756 0.00781 0.22579 0.0
H363 H 0.64451 0.97091 0.25157 0.0
H364 H 0.68875 0.97161 0.23596 0.0
H365 H 0.62999 0.09713 0.32749 0.0
H366 H 0.65137 0.08626 0.36806 0.0
H367 H 0.61519 0.06009 0.35212 0.0
C368 C 0.72107 0.23039 0.45588 0.0
C369 C 0.71721 0.2421 0.48969 0.0
C370 C 0.72975 0.194 0.44881 0.0
C371 C 0.7334 0.16889 0.47623 0.0
C372 C 0.73136 0.18127 0.51044 0.0
C373 C 0.72412 0.21793 0.51662 0.0
C374 C 0.73334 0.18214 0.41201 0.0
C375 C 0.73417 0.15555 0.54048 0.0
C376 C 0.71768 0.07059 0.45258 0.0
C377 C 0.75223 0.05655 0.45168 0.0
C378 C 0.71099 0.10688 0.46184 0.0
C379 C 0.73956 0.12976 0.4692 0.0
C380 C 0.77428 0.11537 0.46952 0.0
C381 C 0.78008 0.07886 0.46169 0.0
C382 C 0.67347 0.12105 0.46276 0.0
C383 C 0.80554 0.13895 0.47633 0.0
H384 H 0.71514 0.24905 0.43499 0.0
H385 H 0.72194 0.22751 0.54264 0.0
H386 H 0.75768 0.16534 0.40909 0.0
H387 H 0.71079 0.1653 0.40434 0.0
H388 H 0.73403 0.20549 0.3942 0.0
H389 H 0.73628 0.17003 0.56537 0.0
H390 H 0.71038 0.13885 0.54066 0.0
H391 H 0.75723 0.13684 0.53832 0.0
H392 H 0.69602 0.0537 0.44488 0.0
H393 H 0.80697 0.06847 0.46144 0.0
H394 H 0.66885 0.14184 0.44261 0.0
H395 H 0.66853 0.13426 0.4878 0.0
H396 H 0.65421 0.09933 0.45868 0.0
H397 H 0.80556 0.16104 0.45711 0.0
H398 H 0.83097 0.1236 0.47517 0.0
H399 H 0.80377 0.15177 0.50194 0.0
C400 C 0.07061 0.45363 0.73121 0.0
C401 C 0.06382 0.4409 0.76407 0.0
C402 C 0.10501 0.46107 0.72185 0.0
C403 C 0.13319 0.45487 0.74577 0.0
C404 C 0.1264 0.44297 0.77924 0.0
C405 C 0.09173 0.43657 0.78814 0.0
C406 C 0.11131 0.47479 0.68614 0.0
C407 C 0.15585 0.43562 0.8052 0.0
C408 C 0.22098 0.44351 0.70296 0.0
C409 C 0.23295 0.47883 0.70516 0.0
C410 C 0.18939 0.43443 0.71827 0.0
C411 C 0.16969 0.46151 0.7357 0.0
C412 C 0.18353 0.49621 0.74059 0.0
C413 C 0.21526 0.5043 0.72553 0.0
C414 C 0.17572 0.39683 0.7134 0.0
C415 C 0.16329 0.52589 0.75878 0.0
H416 H 0.04918 0.45695 0.71254 0.0
H417 H 0.08687 0.4264 0.81357 0.0
H418 H 0.12585 0.50036 0.68749 0.0
H419 H 0.12781 0.45486 0.67209 0.0
H420 H 0.0864 0.47969 0.6712 0.0
H421 H 0.14598 0.42734 0.8305 0.0
H422 H 0.17361 0.41383 0.79559 0.0
H423 H 0.17185 0.45999 0.80886 0.0
H424 H 0.23458 0.42392 0.68701 0.0
H425 H 0.22483 0.5316 0.72739 0.0
H426 H 0.15341 0.3976 0.69453 0.0
H427 H 0.16576 0.38634 0.73784 0.0
H428 H 0.19629 0.37774 0.70386 0.0
H429 H 0.14001 0.53436 0.74275 0.0
H430 H 0.1795 0.54996 0.76372 0.0
H431 H 0.1535 0.51614 0.78355 0.0
C432 C 0.77901 0.93576 0.90998 0.0
C433 C 0.76085 0.96361 0.92696 0.0
C434 C 0.78288 0.90118 0.92421 0.0
C435 C 0.76744 0.89385 0.95602 0.0
C436 C 0.74892 0.92192 0.97336 0.0
C437 C 0.74608 0.95675 0.95871 0.0
C438 C 0.80383 0.87259 0.90522 0.0
C439 C 0.73184 0.91501 0.00712 0.0
C440 C 0.76348 0.79256 0.97306 0.0
C441 C 0.79505 0.78663 0.9917 0.0
C442 C 0.75253 0.82792 0.96322 0.0
C443 C 0.77386 0.85764 0.97205 0.0
C444 C 0.80464 0.85174 0.99244 0.0
C445 C 0.81469 0.81653 0.00194 0.0
C446 C 0.71915 0.83332 0.94198 0.0
C447 C 0.82863 0.88224 0.00209 0.0
H448 H 0.79015 0.94107 0.88522 0.0
H449 H 0.73122 0.9781 0.97132 0.0
H450 H 0.8269 0.8634 0.9212 0.0
H451 H 0.78749 0.8487 0.90018 0.0
H452 H 0.81343 0.88255 0.88038 0.0
H453 H 0.7175 0.93931 0.01684 0.0
H454 H 0.71311 0.89268 0.0042 0.0
H455 H 0.75205 0.90633 0.0266 0.0
H456 H 0.7481 0.76964 0.96515 0.0
H457 H 0.83918 0.81243 0.01616 0.0
H458 H 0.72573 0.84084 0.91542 0.0
H459 H 0.70292 0.85584 0.95255 0.0
H460 H 0.70329 0.80857 0.94096 0.0
H461 H 0.84202 0.8916 0.97889 0.0
H462 H 0.84908 0.87386 0.02152 0.0
H463 H 0.81335 0.90558 0.01235 0.0
C464 C 0.40572 0.55887 0.25584 0.0
C465 C 0.4335 0.5665 0.2341 0.0
C466 C 0.37351 0.54653 0.24294 0.0
C467 C 0.36894 0.54033 0.20735 0.0
C468 C 0.39751 0.54591 0.18537 0.0
C469 C 0.42926 0.55949 0.19893 0.0
C470 C 0.34368 0.54211 0.26735 0.0
C471 C 0.39453 0.53933 0.14732 0.0
C472 C 0.28716 0.48622 0.18762 0.0
C473 C 0.26263 0.51338 0.17786 0.0
C474 C 0.32256 0.49415 0.1948 0.0
C475 C 0.33339 0.53044 0.19365 0.0
C476 C 0.30884 0.55793 0.18314 0.0
C477 C 0.2739 0.54901 0.17505 0.0
C478 C 0.34829 0.46376 0.20395 0.0
C479 C 0.31927 0.59692 0.18136 0.0
H480 H 0.40839 0.56414 0.2831 0.0
H481 H 0.45036 0.56537 0.18179 0.0
H482 H 0.32133 0.56051 0.25975 0.0
H483 H 0.33407 0.51412 0.26612 0.0
H484 H 0.35152 0.54811 0.29434 0.0
H485 H 0.41981 0.52835 0.1375 0.0
H486 H 0.37336 0.52044 0.14031 0.0
H487 H 0.38898 0.56552 0.13429 0.0
H488 H 0.27867 0.45878 0.18981 0.0
H489 H 0.25523 0.57014 0.16698 0.0
H490 H 0.35628 0.46564 0.23141 0.0
H491 H 0.37241 0.46599 0.18874 0.0
H492 H 0.33695 0.43679 0.19928 0.0
H493 H 0.297 0.61515 0.17307 0.0
H494 H 0.34093 0.59968 0.16312 0.0
H495 H 0.3292 0.60596 0.20687 0.0
C496 C 0.56138 0.19821 0.29551 0.0
C497 C 0.52723 0.18578 0.29035 0.0
C498 C 0.57408 0.20632 0.32883 0.0
C499 C 0.55246 0.20065 0.35737 0.0
C500 C 0.51881 0.18624 0.35228 0.0
C501 C 0.50644 0.17961 0.31896 0.0
C502 C 0.61018 0.22171 0.3335 0.0
C503 C 0.49555 0.17826 0.38205 0.0
C504 C 0.59243 0.20492 0.44786 0.0
C505 C 0.5824 0.24017 0.45742 0.0
C506 C 0.58245 0.19117 0.41548 0.0
C507 C 0.56286 0.21362 0.39211 0.0
C508 C 0.5515 0.24857 0.40235 0.0
C509 C 0.56083 0.26107 0.43502 0.0
C510 C 0.59428 0.15332 0.40595 0.0
C511 C 0.53058 0.27343 0.3783 0.0
H512 H 0.57779 0.20219 0.2736 0.0
H513 H 0.48044 0.16877 0.31554 0.0
H514 H 0.60796 0.24903 0.34513 0.0
H515 H 0.62637 0.20452 0.35139 0.0
H516 H 0.62404 0.22375 0.30888 0.0
H517 H 0.47165 0.16355 0.37395 0.0
H518 H 0.51039 0.16183 0.4016 0.0
H519 H 0.48711 0.20388 0.39453 0.0
H520 H 0.60955 0.18882 0.46481 0.0
H521 H 0.55281 0.28827 0.44235 0.0
H522 H 0.61893 0.15452 0.39144 0.0
H523 H 0.57436 0.13984 0.38948 0.0
H524 H 0.59966 0.13644 0.4291 0.0
H525 H 0.5451 0.27712 0.35429 0.0
H526 H 0.5252 0.30044 0.38977 0.0
H527 H 0.50508 0.26128 0.37121 0.0
C528 C 0.09759 0.27676 0.58444 0.0
C529 C 0.0764 0.25712 0.56173 0.0
C530 C 0.08593 0.2863 0.61722 0.0
C531 C 0.05196 0.27638 0.62734 0.0
C532 C 0.03025 0.25693 0.60411 0.0
C533 C 0.04298 0.24703 0.57172 0.0
C534 C 0.11015 0.30666 0.64115 0.0
C535 C 0.99353 0.24682 0.6134 0.0
C536 C 0.03187 0.27897 0.72312 0.0
C537 C 0.01737 0.31395 0.72646 0.0
C538 C 0.04299 0.26606 0.69093 0.0
C539 C 0.03858 0.28832 0.6614 0.0
C540 C 0.02291 0.32315 0.66468 0.0
C541 C 0.01339 0.33573 0.69711 0.0
C542 C 0.06046 0.22911 0.68868 0.0
C543 C 0.01682 0.34762 0.63401 0.0
H544 H 0.12376 0.28382 0.57683 0.0
H545 H 0.02693 0.23127 0.55423 0.0
H546 H 0.09824 0.3335 0.64723 0.0
H547 H 0.11385 0.29176 0.66569 0.0
H548 H 0.13634 0.31074 0.63002 0.0
H549 H 0.97998 0.23176 0.59251 0.0
H550 H 0.99444 0.22992 0.63687 0.0
H551 H 0.97766 0.27158 0.61917 0.0
H552 H 0.03545 0.26216 0.74572 0.0
H553 H 0.00325 0.36315 0.69947 0.0
H554 H 0.08785 0.23172 0.68005 0.0
H555 H 0.04648 0.2124 0.66937 0.0
H556 H 0.06109 0.21472 0.71366 0.0
H557 H 0.04243 0.35615 0.62423 0.0
H558 H 0.00088 0.37222 0.64031 0.0
H559 H 0.00313 0.33297 0.61297 0.0
C560 C 0.00659 0.81965 0.82504 0.0
C561 C 0.98514 0.82193 0.79522 0.0
C562 C 0.99257 0.81281 0.85705 0.0
C563 C 0.95618 0.80716 0.85948 0.0
C564 C 0.93402 0.8104 0.82977 0.0
C565 C 0.94875 0.81829 0.79792 0.0
C566 C 0.017 0.81065 0.88818 0.0
C567 C 0.89502 0.80462 0.8315 0.0
C568 C 0.93494 0.74295 0.93079 0.0
C569 C 0.92119 0.76624 0.9558 0.0
C570 C 0.94525 0.75598 0.89908 0.0
C571 C 0.94268 0.79348 0.89231 0.0
C572 C 0.93 0.81747 0.91782 0.0
C573 C 0.91913 0.80351 0.94929 0.0
C574 C 0.95854 0.72941 0.87261 0.0
C575 C 0.92726 0.85769 0.91166 0.0
H576 H 0.03463 0.8236 0.82363 0.0
H577 H 0.93195 0.82093 0.77517 0.0
H578 H 0.00644 0.82761 0.90922 0.0
H579 H 0.01896 0.78239 0.89762 0.0
H580 H 0.0439 0.81957 0.88257 0.0
H581 H 0.88159 0.807 0.80596 0.0
H582 H 0.89021 0.77746 0.84214 0.0
H583 H 0.88297 0.8248 0.849 0.0
H584 H 0.93667 0.7141 0.93558 0.0
H585 H 0.90792 0.82161 0.96821 0.0
H586 H 0.98641 0.73465 0.86715 0.0
H587 H 0.94319 0.73286 0.84822 0.0
H588 H 0.95672 0.70091 0.88112 0.0
H589 H 0.95219 0.86765 0.90147 0.0
H590 H 0.92102 0.87292 0.93539 0.0
H591 H 0.90619 0.86365 0.89219 0.0
C592 C 0.48623 0.68215 0.18487 0.0
C593 C 0.45872 0.67774 0.20754 0.0
C594 C 0.47971 0.68639 0.14953 0.0
C595 C 0.44458 0.68842 0.1366 0.0
C596 C 0.4165 0.68496 0.15955 0.0
C597 C 0.42397 0.67887 0.19466 0.0
C598 C 0.51051 0.68827 0.12596 0.0
C599 C 0.37858 0.68759 0.14725 0.0
C600 C 0.43423 0.73922 0.05218 0.0
C601 C 0.42699 0.71154 0.02879 0.0
C602 C 0.43863 0.73218 0.08737 0.0
C603 C 0.43764 0.69615 0.09942 0.0
C604 C 0.43144 0.66778 0.07571 0.0
C605 C 0.42554 0.67591 0.04073 0.0
C606 C 0.44337 0.76352 0.11175 0.0
C607 C 0.43099 0.6289 0.08722 0.0
H608 H 0.51303 0.682 0.19478 0.0
H609 H 0.40256 0.67534 0.21207 0.0
H610 H 0.50918 0.66601 0.10691 0.0
H611 H 0.50948 0.71404 0.11148 0.0
H612 H 0.53615 0.68615 0.14012 0.0
H613 H 0.36057 0.69341 0.16867 0.0
H614 H 0.37454 0.70893 0.12747 0.0
H615 H 0.37103 0.66151 0.1356 0.0
H616 H 0.43592 0.76666 0.04297 0.0
H617 H 0.4198 0.65439 0.02274 0.0
H618 H 0.46744 0.75943 0.12802 0.0
H619 H 0.42071 0.76527 0.12911 0.0
H620 H 0.44525 0.78964 0.09806 0.0
H621 H 0.45408 0.62242 0.10428 0.0
H622 H 0.43102 0.60981 0.06522 0.0
H623 H 0.40704 0.62445 0.10205 0.0
C624 C 0.12892 0.35795 0.37945 0.0
C625 C 0.10509 0.32983 0.37981 0.0
C626 C 0.13443 0.37711 0.34915 0.0
C627 C 0.11578 0.36756 0.31874 0.0
C628 C 0.08951 0.3413 0.31983 0.0
C629 C 0.08438 0.3228 0.35049 0.0
C630 C 0.16223 0.40544 0.34908 0.0
C631 C 0.06905 0.33038 0.28797 0.0
C632 C 0.12347 0.42495 0.23888 0.0
C633 C 0.15109 0.40683 0.22226 0.0
C634 C 0.11148 0.41251 0.27035 0.0
C635 C 0.12723 0.38102 0.28516 0.0
C636 C 0.1544 0.36206 0.26798 0.0
C637 C 0.16613 0.37532 0.23683 0.0
C638 C 0.08269 0.43352 0.28816 0.0
C639 C 0.17149 0.32799 0.28275 0.0
H640 H 0.14481 0.36351 0.40222 0.0
H641 H 0.06573 0.30117 0.35084 0.0
H642 H 0.18577 0.39459 0.33589 0.0
H643 H 0.15261 0.42979 0.33481 0.0
H644 H 0.17035 0.41356 0.37547 0.0
H645 H 0.04628 0.31357 0.29407 0.0
H646 H 0.05934 0.35451 0.27344 0.0
H647 H 0.08662 0.31455 0.27095 0.0
H648 H 0.11194 0.44953 0.22787 0.0
H649 H 0.18733 0.36111 0.224 0.0
H650 H 0.09302 0.4442 0.3129 0.0
H651 H 0.06079 0.41556 0.29412 0.0
H652 H 0.07208 0.45652 0.27246 0.0
H653 H 0.18438 0.33397 0.30786 0.0
H654 H 0.19154 0.31593 0.26562 0.0
H655 H 0.15125 0.30762 0.28729 0.0
C656 C 0.90781 0.90394 0.60599 0.0
C657 C 0.93808 0.88186 0.60366 0.0
C658 C 0.88765 0.91335 0.57648 0.0
C659 C 0.89794 0.90004 0.54403 0.0
C660 C 0.9285 0.87768 0.54165 0.0
C661 C 0.94824 0.86894 0.57148 0.0
C662 C 0.85526 0.93737 0.58005 0.0
C663 C 0.94012 0.86261 0.50764 0.0
C664 C 0.82484 0.89323 0.47676 0.0
C665 C 0.82963 0.92409 0.45687 0.0
C666 C 0.84758 0.88453 0.50448 0.0
C667 C 0.87551 0.90767 0.51292 0.0
C668 C 0.88108 0.93844 0.49231 0.0
C669 C 0.85801 0.94626 0.46438 0.0
C670 C 0.8409 0.85127 0.52547 0.0
C671 C 0.91049 0.96384 0.50063 0.0
H672 H 0.90004 0.91411 0.6308 0.0
H673 H 0.97176 0.85195 0.56956 0.0
H674 H 0.8568 0.96125 0.56306 0.0
H675 H 0.83156 0.92247 0.57188 0.0
H676 H 0.85183 0.94689 0.60681 0.0
H677 H 0.96511 0.84649 0.51003 0.0
H678 H 0.91948 0.84512 0.49659 0.0
H679 H 0.94373 0.88491 0.48921 0.0
H680 H 0.80261 0.87629 0.4711 0.0
H681 H 0.86091 0.97077 0.44981 0.0
H682 H 0.83381 0.85932 0.55187 0.0
H683 H 0.86509 0.83393 0.52754 0.0
H684 H 0.81933 0.83502 0.51428 0.0
H685 H 0.90735 0.97507 0.52679 0.0
H686 H 0.9112 0.98662 0.48217 0.0
H687 H 0.93616 0.94893 0.50045 0.0
C688 C 0.33504 0.61556 0.68973 0.0
C689 C 0.32692 0.58084 0.70066 0.0
C690 C 0.34072 0.64323 0.71381 0.0
C691 C 0.33769 0.63571 0.74921 0.0
C692 C 0.32688 0.60132 0.75988 0.0
C693 C 0.32188 0.57425 0.73545 0.0
C694 C 0.35184 0.67973 0.70159 0.0
C695 C 0.32246 0.59241 0.79729 0.0
C696 C 0.39185 0.67771 0.82016 0.0
C697 C 0.36627 0.69867 0.83666 0.0
C698 C 0.38356 0.65935 0.78971 0.0
C699 C 0.34885 0.66203 0.77571 0.0
C700 C 0.32368 0.68538 0.79094 0.0
C701 C 0.33271 0.70343 0.82138 0.0
C702 C 0.41125 0.63499 0.77397 0.0
C703 C 0.28648 0.68922 0.77676 0.0
H704 H 0.33874 0.62054 0.6627 0.0
H705 H 0.31494 0.54746 0.74372 0.0
H706 H 0.33672 0.70164 0.71449 0.0
H707 H 0.38004 0.68327 0.70834 0.0
H708 H 0.34818 0.68279 0.6734 0.0
H709 H 0.31121 0.56534 0.80096 0.0
H710 H 0.34838 0.59293 0.81096 0.0
H711 H 0.30502 0.61291 0.80947 0.0
H712 H 0.41793 0.67446 0.83177 0.0
H713 H 0.31301 0.72017 0.83388 0.0
H714 H 0.41181 0.6392 0.74585 0.0
H715 H 0.40475 0.60635 0.77841 0.0
H716 H 0.4379 0.63964 0.78512 0.0
H717 H 0.28579 0.68894 0.74832 0.0
H718 H 0.27335 0.71455 0.7857 0.0
H719 H 0.27109 0.66611 0.78558 0.0
C720 C 0.60486 0.07913 0.10525 0.0
C721 C 0.58027 0.10802 0.10548 0.0
C722 C 0.62106 0.06823 0.07464 0.0
C723 C 0.61192 0.08617 0.04341 0.0
C724 C 0.58709 0.11536 0.04365 0.0
C725 C 0.57189 0.1261 0.07465 0.0
C726 C 0.64794 0.0375 0.07569 0.0
C727 C 0.57617 0.13501 0.01103 0.0
C728 C 0.6743 0.08416 0.96847 0.0
C729 C 0.6601 0.05735 0.94711 0.0
C730 C 0.6594 0.09308 1.00008 0.0
C731 C 0.62898 0.07535 0.01058 0.0
C732 C 0.6143 0.04838 0.9891 0.0
C733 C 0.63026 0.03942 0.95783 0.0
C734 C 0.67638 0.12147 0.02234 0.0
C735 C 0.58151 0.02928 0.99898 0.0
H736 H 0.6113 0.06493 0.12896 0.0
H737 H 0.55263 0.14822 0.07453 0.0
H738 H 0.639 0.01516 0.05892 0.0
H739 H 0.67323 0.04668 0.06566 0.0
H740 H 0.65267 0.02681 0.10203 0.0
H741 H 0.55572 0.15639 0.01536 0.0
H742 H 0.59931 0.14766 0.99975 0.0
H743 H 0.56579 0.11556 0.99188 0.0
H744 H 0.69769 0.09784 0.96084 0.0
H745 H 0.61916 0.01859 0.94164 0.0
H746 H 0.68279 0.11024 0.04817 0.0
H747 H 0.65779 0.1447 0.02577 0.0
H748 H 0.70087 0.13157 0.01125 0.0
H749 H 0.58585 0.0156 0.02406 0.0
H750 H 0.57344 0.00887 0.97964 0.0
H751 H 0.55956 0.04928 0.00199 0.0
C752 C 0.69067 0.16899 0.64143 0.0
C753 C 0.65669 0.17997 0.6304 0.0
C754 C 0.69624 0.14836 0.67136 0.0
C755 C 0.66708 0.13834 0.69076 0.0
C756 C 0.63266 0.1493 0.67968 0.0
C757 C 0.62788 0.17001 0.64961 0.0
C758 C 0.73333 0.13706 0.68207 0.0
C759 C 0.60088 0.13892 0.69946 0.0
C760 C 0.67784 0.0525 0.7432 0.0
C761 C 0.68318 0.06562 0.77666 0.0
C762 C 0.67237 0.07589 0.71532 0.0
C763 C 0.67242 0.11363 0.72076 0.0
C764 C 0.67802 0.12726 0.75445 0.0
C765 C 0.68322 0.10302 0.78214 0.0
C766 C 0.66663 0.06007 0.67994 0.0
C767 C 0.67854 0.16737 0.76119 0.0
H768 H 0.71309 0.17697 0.62689 0.0
H769 H 0.6016 0.17879 0.64139 0.0
H770 H 0.739 0.14582 0.7088 0.0
H771 H 0.73624 0.10717 0.68149 0.0
H772 H 0.75324 0.14855 0.66515 0.0
H773 H 0.57607 0.15097 0.68839 0.0
H774 H 0.59874 0.10909 0.69959 0.0
H775 H 0.60379 0.14776 0.72654 0.0
H776 H 0.67786 0.02361 0.73864 0.0
H777 H 0.68722 0.11328 0.80792 0.0
H778 H 0.68737 0.0691 0.66265 0.0
H779 H 0.64098 0.06986 0.66888 0.0
H780 H 0.66699 0.03005 0.68015 0.0
H781 H 0.69901 0.17988 0.74567 0.0
H782 H 0.68385 0.17365 0.78866 0.0
H783 H 0.65289 0.18008 0.75323 0.0
C784 C 0.13266 0.36842 0.06458 0.0
C785 C 0.14485 0.40347 0.06949 0.0
C786 C 0.11158 0.35991 0.03573 0.0
C787 C 0.10282 0.38706 0.01119 0.0
C788 C 0.11414 0.42277 0.01669 0.0
C789 C 0.13499 0.43052 0.04577 0.0
C790 C 0.09954 0.32167 0.031 0.0
C791 C 0.10538 0.45255 0.9912 0.0
C792 C 0.08402 0.36121 0.91837 0.0
C793 C 0.04749 0.36654 0.91576 0.0
C794 C 0.10226 0.36698 0.94955 0.0
C795 C 0.08341 0.37795 0.97884 0.0
C796 C 0.04634 0.38216 0.97656 0.0
C797 C 0.02882 0.37659 0.94495 0.0
C798 C 0.14185 0.36259 0.95083 0.0
C799 C 0.02528 0.39354 0.00723 0.0
H800 H 0.1402 0.34748 0.08293 0.0
H801 H 0.14463 0.45759 0.04926 0.0
H802 H 0.07066 0.32154 0.02632 0.0
H803 H 0.112 0.30949 0.00817 0.0
H804 H 0.1063 0.30442 0.05362 0.0
H805 H 0.11474 0.47921 1.00013 0.0
H806 H 0.11767 0.44605 0.96636 0.0
H807 H 0.07655 0.45476 0.98639 0.0
H808 H 0.0985 0.35359 0.89578 0.0
H809 H 0.00052 0.38072 0.94297 0.0
H810 H 0.15028 0.34349 0.97151 0.0
H811 H 0.15376 0.38895 0.95688 0.0
H812 H 0.15242 0.35253 0.9262 0.0
H813 H 0.03201 0.37572 0.0294 0.0
H814 H 0.99649 0.39275 0.00192 0.0
H815 H 0.03195 0.42146 0.01484 0.0
C816 C 0.83948 0.92547 0.27478 0.0
C817 C 0.81239 0.91276 0.29498 0.0
C818 C 0.84746 0.90922 0.2434 0.0
C819 C 0.82829 0.8791 0.23209 0.0
C820 C 0.80093 0.86599 0.25231 0.0
C821 C 0.79308 0.88322 0.28344 0.0
C822 C 0.87645 0.92433 0.22235 0.0
C823 C 0.78027 0.83355 0.24124 0.0
C824 C 0.8303 0.85234 0.13799 0.0
C825 C 0.85607 0.82461 0.1387 0.0
C826 C 0.82118 0.87068 0.16818 0.0
C827 C 0.83789 0.86054 0.19972 0.0
C828 C 0.86432 0.83291 0.20036 0.0
C829 C 0.87329 0.8155 0.16978 0.0
C830 C 0.79339 0.90054 0.16644 0.0
C831 C 0.88259 0.82116 0.23349 0.0
H832 H 0.85422 0.94866 0.28319 0.0
H833 H 0.77206 0.87334 0.29885 0.0
H834 H 0.89782 0.90367 0.21945 0.0
H835 H 0.86622 0.93125 0.19623 0.0
H836 H 0.88784 0.94887 0.23412 0.0
H837 H 0.75959 0.82698 0.25967 0.0
H838 H 0.76762 0.8385 0.2157 0.0
H839 H 0.79829 0.80968 0.23872 0.0
H840 H 0.81689 0.85929 0.11396 0.0
H841 H 0.89306 0.79386 0.17043 0.0
H842 H 0.80405 0.9258 0.17737 0.0
H843 H 0.7707 0.89324 0.18208 0.0
H844 H 0.7838 0.90597 0.13976 0.0
H845 H 0.89603 0.84435 0.24556 0.0
H846 H 0.90234 0.79899 0.2296 0.0
H847 H 0.86292 0.81183 0.2518 0.0
C848 C 0.36119 0.54475 0.51829 0.0
C849 C 0.35431 0.56643 0.54685 0.0
C850 C 0.37811 0.55881 0.48995 0.0
C851 C 0.38937 0.59498 0.49089 0.0
C852 C 0.38337 0.61662 0.52018 0.0
C853 C 0.36531 0.60223 0.54765 0.0
C854 C 0.38336 0.5352 0.45879 0.0
C855 C 0.39616 0.65482 0.52254 0.0
C856 C 0.46036 0.61468 0.42804 0.0
C857 C 0.4409 0.632 0.40163 0.0
C858 C 0.44418 0.60407 0.45809 0.0
C859 C 0.40751 0.60999 0.46115 0.0
C860 C 0.38792 0.62842 0.43488 0.0
C861 C 0.40506 0.63973 0.40549 0.0
C862 C 0.46612 0.5854 0.48596 0.0
C863 C 0.34862 0.6344 0.43695 0.0
H864 H 0.35233 0.51716 0.51768 0.0
H865 H 0.36017 0.61882 0.56999 0.0
H866 H 0.37106 0.54847 0.43581 0.0
H867 H 0.41182 0.53151 0.45393 0.0
H868 H 0.37187 0.50814 0.46175 0.0
H869 H 0.39053 0.66753 0.54769 0.0
H870 H 0.42495 0.65502 0.51863 0.0
H871 H 0.38345 0.67163 0.50199 0.0
H872 H 0.48818 0.60883 0.42492 0.0
H873 H 0.39007 0.65279 0.38477 0.0
H874 H 0.45894 0.55663 0.48757 0.0
H875 H 0.46085 0.59795 0.51122 0.0
H876 H 0.49474 0.58651 0.4812 0.0
H877 H 0.33565 0.6079 0.43725 0.0
H878 H 0.33753 0.65046 0.41501 0.0
H879 H 0.34199 0.64853 0.46111 0.0
C880 C 0.22696 0.21417 0.38225 0.0
C881 C 0.20985 0.18673 0.39962 0.0
C882 C 0.25658 0.20639 0.36215 0.0
C883 C 0.26933 0.17021 0.35887 0.0
C884 C 0.25152 0.14232 0.37554 0.0
C885 C 0.22229 0.1509 0.39578 0.0
C886 C 0.27479 0.23706 0.34511 0.0
C887 C 0.26369 0.10333 0.37241 0.0
C888 C 0.32898 0.14493 0.28446 0.0
C889 C 0.36237 0.14294 0.30059 0.0
C890 C 0.29861 0.15385 0.30299 0.0
C891 C 0.30157 0.16147 0.33856 0.0
C892 C 0.33536 0.15993 0.35487 0.0
C893 C 0.36525 0.1505 0.33577 0.0
C894 C 0.26326 0.15478 0.28452 0.0
C895 C 0.33994 0.16826 0.39257 0.0
H896 H 0.21786 0.24197 0.38515 0.0
H897 H 0.20933 0.12938 0.40891 0.0
H898 H 0.30217 0.23862 0.35538 0.0
H899 H 0.27631 0.23212 0.31714 0.0
H900 H 0.26111 0.26354 0.34924 0.0
H901 H 0.24618 0.08464 0.38569 0.0
H902 H 0.26474 0.09548 0.34499 0.0
H903 H 0.29069 0.09983 0.38351 0.0
H904 H 0.32653 0.13925 0.25725 0.0
H905 H 0.39098 0.14929 0.34837 0.0
H906 H 0.25044 0.18185 0.28721 0.0
H907 H 0.2458 0.13496 0.29625 0.0
H908 H 0.26537 0.14847 0.25679 0.0
H909 H 0.32886 0.19561 0.39812 0.0
H910 H 0.36798 0.16705 0.40123 0.0
H911 H 0.32524 0.14873 0.40786 0.0
C912 C 0.11104 0.09124 0.57553 0.0
C913 C 0.14027 0.093 0.55463 0.0
C914 C 0.10465 0.06012 0.59428 0.0
C915 C 0.12759 0.02964 0.59126 0.0
C916 C 0.15755 0.03141 0.57052 0.0
C917 C 0.16385 0.06347 0.55267 0.0
C918 C 0.07291 0.05971 0.61683 0.0
C919 C 0.18208 0.99911 0.56623 0.0
C920 C 0.11804 0.96232 0.66275 0.0
C921 C 0.09174 0.94037 0.64895 0.0
C922 C 0.13166 0.99034 0.64347 0.0
C923 C 0.11916 0.99596 0.60941 0.0
C924 C 0.09445 0.97225 0.59456 0.0
C925 C 0.08065 0.94496 0.6147 0.0
C926 C 0.15737 0.01555 0.66045 0.0
C927 C 0.08108 0.97697 0.55804 0.0
H928 H 0.09297 0.11431 0.57712 0.0
H929 H 0.18627 0.06495 0.53617 0.0
H930 H 0.05398 0.03973 0.60688 0.0
H931 H 0.08091 0.05138 0.64326 0.0
H932 H 0.05916 0.08652 0.61806 0.0
H933 H 0.20522 0.00552 0.55075 0.0
H934 H 0.19149 0.98881 0.59161 0.0
H935 H 0.16769 0.97698 0.55338 0.0
H936 H 0.12667 0.9589 0.68926 0.0
H937 H 0.0607 0.92766 0.60382 0.0
H938 H 0.144 0.04207 0.66506 0.0
H939 H 0.17978 0.0204 0.64357 0.0
H940 H 0.16779 0.00488 0.6854 0.0
H941 H 0.06335 0.00121 0.55627 0.0
H942 H 0.06627 0.95325 0.54881 0.0
H943 H 0.10325 0.98131 0.54069 0.0
C944 C 0.18363 0.8731 0.81151 0.0
C945 C 0.16432 0.84577 0.79571 0.0
C946 C 0.21253 0.8646 0.83338 0.0
C947 C 0.22212 0.82791 0.83967 0.0
C948 C 0.20356 0.80026 0.82259 0.0
C949 C 0.17484 0.80955 0.80079 0.0
C950 C 0.23197 0.89486 0.85076 0.0
C951 C 0.21277 0.76081 0.82864 0.0
C952 C 0.3108 0.80779 0.88383 0.0
C953 C 0.3012 0.80537 0.91818 0.0
C954 C 0.28527 0.8143 0.85775 0.0
C955 C 0.24946 0.81861 0.86638 0.0
C956 C 0.23966 0.81526 0.90098 0.0
C957 C 0.26567 0.80878 0.92646 0.0
C958 C 0.29664 0.81716 0.82109 0.0
C959 C 0.2017 0.81913 0.91119 0.0
H960 H 0.17566 0.90112 0.80742 0.0
H961 H 0.16001 0.78833 0.78846 0.0
H962 H 0.2277 0.89403 0.87878 0.0
H963 H 0.26067 0.89144 0.84694 0.0
H964 H 0.22316 0.92186 0.84098 0.0
H965 H 0.2007 0.74323 0.80873 0.0
H966 H 0.24166 0.75591 0.8291 0.0
H967 H 0.20303 0.75268 0.85399 0.0
H968 H 0.33831 0.80525 0.87741 0.0
H969 H 0.25819 0.80671 0.953 0.0
H970 H 0.28984 0.84455 0.81102 0.0
H971 H 0.28237 0.79752 0.80478 0.0
H972 H 0.32535 0.812 0.81854 0.0
H973 H 0.19139 0.8467 0.90485 0.0
H974 H 0.19835 0.81438 0.93901 0.0
H975 H 0.18544 0.79973 0.89655 0.0
C976 C 0.40975 0.017 0.16989 0.0
C977 C 0.44285 0.03086 0.16309 0.0
C978 C 0.39796 0.98581 0.15328 0.0
C979 C 0.41984 0.96807 0.12941 0.0
C980 C 0.4535 0.9815 0.12289 0.0
C981 C 0.46457 0.01278 0.13974 0.0
C982 C 0.3618 0.97235 0.16064 0.0
C983 C 0.47759 0.9632 0.09759 0.0
C984 C 0.40376 0.87212 0.09976 0.0
C985 C 0.38856 0.87841 0.06721 0.0
C986 C 0.41314 0.90115 0.121 0.0
C987 C 0.40673 0.93699 0.10932 0.0
C988 C 0.38972 0.9433 0.07716 0.0
C989 C 0.38097 0.91389 0.05644 0.0
C990 C 0.43126 0.89349 0.15517 0.0
C991 C 0.38211 0.98114 0.06397 0.0
H992 H 0.3928 0.0307 0.18796 0.0
H993 H 0.4903 0.02306 0.13452 0.0
H994 H 0.34485 0.97441 0.13714 0.0
H995 H 0.36345 0.94343 0.16806 0.0
H996 H 0.34892 0.98793 0.18143 0.0
H997 H 0.50369 0.9759 0.09687 0.0
H998 H 0.48157 0.93423 0.10424 0.0
H999 H 0.46534 0.96448 0.0715 0.0
H1000 H 0.40942 0.84465 0.10812 0.0
H1001 H 0.36895 0.91874 0.03132 0.0
H1002 H 0.41788 0.90867 0.17585 0.0
H1003 H 0.45873 0.90279 0.15467 0.0
H1004 H 0.43182 0.86425 0.16162 0.0
H1005 H 0.36767 0.99731 0.08329 0.0
H1006 H 0.36636 0.98132 0.03961 0.0
H1007 H 0.40721 0.99476 0.0595 0.0
C1008 C 0.89015 0.37166 0.64336 0.0
C1009 C 0.88764 0.39772 0.66926 0.0
C1010 C 0.86076 0.36361 0.62264 0.0
C1011 C 0.82816 0.38157 0.62867 0.0
C1012 C 0.82625 0.40974 0.65314 0.0
C1013 C 0.85624 0.41778 0.67293 0.0
C1014 C 0.86401 0.33413 0.59606 0.0
C1015 C 0.79188 0.42918 0.66062 0.0
C1016 C 0.75028 0.37006 0.56743 0.0
C1017 C 0.73316 0.34141 0.5828 0.0
C1018 C 0.78156 0.38324 0.5818 0.0
C1019 C 0.7954 0.36792 0.61262 0.0
C1020 C 0.7778 0.33944 0.62857 0.0
C1021 C 0.74708 0.32622 0.61319 0.0
C1022 C 0.80012 0.41303 0.56374 0.0
C1023 C 0.79141 0.32291 0.66189 0.0
H1024 H 0.91458 0.35631 0.64044 0.0
H1025 H 0.85431 0.43793 0.69303 0.0
H1026 H 0.85111 0.30955 0.60524 0.0
H1027 H 0.85053 0.34249 0.57169 0.0
H1028 H 0.89192 0.32698 0.59084 0.0
H1029 H 0.79564 0.45307 0.67745 0.0
H1030 H 0.77828 0.43817 0.63653 0.0
H1031 H 0.77428 0.41036 0.67358 0.0
H1032 H 0.73977 0.3815 0.54363 0.0
H1033 H 0.73377 0.30414 0.62511 0.0
H1034 H 0.827 0.40355 0.55703 0.0
H1035 H 0.80304 0.43664 0.581 0.0
H1036 H 0.78584 0.42202 0.53994 0.0
H1037 H 0.81793 0.31051 0.65836 0.0
H1038 H 0.7739 0.30184 0.67151 0.0
H1039 H 0.79401 0.34419 0.68177 0.0
C1040 C 0.9405 0.49595 0.83502 0.0
C1041 C 0.93757 0.45859 0.83908 0.0
C1042 C 0.92826 0.52016 0.8598 0.0
C1043 C 0.91254 0.50671 0.8895 0.0
C1044 C 0.91062 0.46887 0.89445 0.0
C1045 C 0.92333 0.4451 0.86909 0.0
C1046 C 0.9315 0.56025 0.85374 0.0
C1047 C 0.89414 0.45362 0.92587 0.0
C1048 C 0.90831 0.57657 0.96021 0.0
C1049 C 0.87491 0.59254 0.95401 0.0
C1050 C 0.92017 0.54702 0.94075 0.0
C1051 C 0.89792 0.53287 0.91474 0.0
C1052 C 0.86338 0.5476 0.90974 0.0
C1053 C 0.8523 0.57744 0.9294 0.0
C1054 C 0.95717 0.53219 0.9468 0.0
C1055 C 0.83886 0.53316 0.88229 0.0
H1056 H 0.95184 0.50642 0.81194 0.0
H1057 H 0.92099 0.41617 0.87218 0.0
H1058 H 0.90497 0.57341 0.85217 0.0
H1059 H 0.94602 0.57276 0.87552 0.0
H1060 H 0.94538 0.56617 0.82975 0.0
H1061 H 0.89691 0.4237 0.92706 0.0
H1062 H 0.90629 0.46518 0.94943 0.0
H1063 H 0.86574 0.46128 0.92582 0.0
H1064 H 0.92573 0.58794 0.97956 0.0
H1065 H 0.82636 0.58957 0.92481 0.0
H1066 H 0.97253 0.53491 0.92318 0.0
H1067 H 0.95661 0.50299 0.95299 0.0
H1068 H 0.97112 0.54635 0.96797 0.0
H1069 H 0.8486 0.5403 0.85667 0.0
H1070 H 0.81163 0.54438 0.88452 0.0
H1071 H 0.83821 0.50326 0.88366 0.0
C1072 C 0.75933 0.64737 0.08699 0.0
C1073 C 0.77238 0.68222 0.09156 0.0
C1074 C 0.72927 0.63653 0.10382 0.0
C1075 C 0.7118 0.66112 0.12576 0.0
C1076 C 0.72485 0.69627 0.13068 0.0
C1077 C 0.75505 0.7064 0.11354 0.0
C1078 C 0.71629 0.59873 0.0982 0.0
C1079 C 0.70689 0.72316 0.15403 0.0
C1080 C 0.61706 0.64521 0.14903 0.0
C1081 C 0.62153 0.63095 0.1821 0.0
C1082 C 0.6463 0.65477 0.13007 0.0
C1083 C 0.68059 0.64961 0.14458 0.0
C1084 C 0.68516 0.63393 0.17747 0.0
C1085 C 0.65554 0.62484 0.19585 0.0
C1086 C 0.6405 0.67135 0.09499 0.0
C1087 C 0.72129 0.6277 0.19368 0.0
H1088 H 0.7725 0.62842 0.07009 0.0
H1089 H 0.76482 0.73341 0.11713 0.0
H1090 H 0.71649 0.58396 0.12293 0.0
H1091 H 0.68871 0.59984 0.08826 0.0
H1092 H 0.73259 0.58307 0.07986 0.0
H1093 H 0.72001 0.74962 0.15461 0.0
H1094 H 0.67908 0.72761 0.14549 0.0
H1095 H 0.70672 0.71232 0.18052 0.0
H1096 H 0.59077 0.64987 0.13841 0.0
H1097 H 0.65904 0.61374 0.22144 0.0
H1098 H 0.65541 0.65563 0.07569 0.0
H1099 H 0.65055 0.69921 0.09497 0.0
H1100 H 0.61227 0.67247 0.08695 0.0
H1101 H 0.73801 0.61115 0.17648 0.0
H1102 H 0.72032 0.61387 0.21888 0.0
H1103 H 0.73426 0.65395 0.19747 0.0
C1104 C 0.63044 0.4276 0.4154 0.0
C1105 C 0.61361 0.41833 0.44551 0.0
C1106 C 0.61733 0.45609 0.39457 0.0
C1107 C 0.58584 0.47485 0.40337 0.0
C1108 C 0.56876 0.46557 0.43388 0.0
C1109 C 0.58323 0.43781 0.45491 0.0
C1110 C 0.63698 0.46577 0.36285 0.0
C1111 C 0.53454 0.48395 0.44363 0.0
C1112 C 0.56589 0.56494 0.35862 0.0
C1113 C 0.54692 0.55374 0.32944 0.0
C1114 C 0.57807 0.53972 0.38348 0.0
C1115 C 0.57002 0.50273 0.37953 0.0
C1116 C 0.54885 0.49188 0.35115 0.0
C1117 C 0.53816 0.51739 0.32613 0.0
C1118 C 0.60129 0.55232 0.41281 0.0
C1119 C 0.53848 0.45306 0.34653 0.0
H1120 H 0.65403 0.41266 0.40823 0.0
H1121 H 0.57003 0.43043 0.47809 0.0
H1122 H 0.62093 0.45934 0.33963 0.0
H1123 H 0.6417 0.49522 0.36242 0.0
H1124 H 0.66267 0.45094 0.36136 0.0
H1125 H 0.52517 0.4744 0.46871 0.0
H1126 H 0.5375 0.51364 0.44491 0.0
H1127 H 0.51404 0.47862 0.42365 0.0
H1128 H 0.57289 0.59304 0.36103 0.0
H1129 H 0.52327 0.50881 0.30363 0.0
H1130 H 0.62817 0.54041 0.41016 0.0
H1131 H 0.59132 0.54291 0.43763 0.0
H1132 H 0.60306 0.58221 0.41361 0.0
H1133 H 0.56199 0.43613 0.34044 0.0
H1134 H 0.5185 0.44991 0.32555 0.0
H1135 H 0.52776 0.44251 0.37063 0.0
C1136 C 0.3195 0.32724 0.12464 0.0
C1137 C 0.30833 0.34909 0.15179 0.0
C1138 C 0.34142 0.29669 0.13073 0.0
C1139 C 0.35245 0.28799 0.16476 0.0
C1140 C 0.34089 0.30983 0.19228 0.0
C1141 C 0.31899 0.34016 0.18544 0.0
C1142 C 0.35335 0.27413 0.10072 0.0
C1143 C 0.35227 0.3016 0.22887 0.0
C1144 C 0.39557 0.19529 0.18174 0.0
C1145 C 0.43117 0.2035 0.17988 0.0
C1146 C 0.36934 0.22263 0.17748 0.0
C1147 C 0.37924 0.25866 0.17111 0.0
C1148 C 0.41522 0.26698 0.17009 0.0
C1149 C 0.44063 0.23936 0.17451 0.0
C1150 C 0.33117 0.2129 0.17902 0.0
C1151 C 0.42698 0.30502 0.1637 0.0
H1152 H 0.31092 0.33388 0.09865 0.0
H1153 H 0.3101 0.35687 0.20653 0.0
H1154 H 0.38224 0.27598 0.09825 0.0
H1155 H 0.34761 0.24529 0.10505 0.0
H1156 H 0.34043 0.28296 0.07617 0.0
H1157 H 0.3388 0.31957 0.24753 0.0
H1158 H 0.34677 0.27313 0.23522 0.0
H1159 H 0.38106 0.30491 0.23202 0.0
H1160 H 0.38824 0.16756 0.18573 0.0
H1161 H 0.46817 0.24593 0.17333 0.0
H1162 H 0.31823 0.2172 0.1535 0.0
H1163 H 0.31728 0.23072 0.19745 0.0
H1164 H 0.32791 0.18433 0.18675 0.0
H1165 H 0.41702 0.31442 0.13818 0.0
H1166 H 0.45607 0.30704 0.16457 0.0
H1167 H 0.41588 0.32372 0.18311 0.0
C1168 C 0.88287 0.28148 0.78195 0.0
C1169 C 0.89878 0.30052 0.80897 0.0
C1170 C 0.86109 0.25236 0.78853 0.0
C1171 C 0.85472 0.24264 0.82289 0.0
C1172 C 0.86935 0.26297 0.85017 0.0
C1173 C 0.89145 0.29146 0.84288 0.0
C1174 C 0.84621 0.23103 0.75878 0.0
C1175 C 0.86258 0.25393 0.88713 0.0
C1176 C 0.77938 0.18136 0.84259 0.0
C1177 C 0.7973 0.14831 0.84839 0.0
C1178 C 0.79766 0.21236 0.83398 0.0
C1179 C 0.8346 0.20992 0.83056 0.0
C1180 C 0.8527 0.17639 0.83589 0.0
C1181 C 0.83383 0.14601 0.84505 0.0
C1182 C 0.77757 0.24776 0.82902 0.0
C1183 C 0.89203 0.17262 0.83202 0.0
H1184 H 0.88861 0.28834 0.75571 0.0
H1185 H 0.90336 0.30643 0.86385 0.0
H1186 H 0.858 0.20328 0.75914 0.0
H1187 H 0.81739 0.22848 0.7611 0.0
H1188 H 0.85152 0.24363 0.73367 0.0
H1189 H 0.87354 0.27422 0.90518 0.0
H1190 H 0.83391 0.25228 0.89119 0.0
H1191 H 0.87465 0.2271 0.89355 0.0
H1192 H 0.75106 0.18306 0.84504 0.0
H1193 H 0.84763 0.12032 0.84917 0.0
H1194 H 0.78228 0.25883 0.80318 0.0
H1195 H 0.78709 0.26783 0.84801 0.0
H1196 H 0.74881 0.24491 0.83193 0.0
H1197 H 0.89941 0.18217 0.8063 0.0
H1198 H 0.90183 0.14427 0.83535 0.0
H1199 H 0.90561 0.18975 0.85127 0.0
C1200 C 0.05686 0.56494 0.13398 0.0
C1201 C 0.0707 0.5387 0.1119 0.0
C1202 C 0.02675 0.58556 0.12443 0.0
C1203 C 0.01053 0.58015 0.09179 0.0
C1204 C 0.02359 0.55258 0.07001 0.0
C1205 C 0.05348 0.532 0.08044 0.0
C1206 C 0.01332 0.61435 0.14862 0.0
C1207 C 0.00734 0.54623 0.03491 0.0
C1208 C 0.92201 0.62863 0.07693 0.0
C1209 C 0.93284 0.66179 0.0643 0.0
C1210 C 0.94687 0.60083 0.08476 0.0
C1211 C 0.98299 0.60641 0.07907 0.0
C1212 C 0.99344 0.63897 0.06387 0.0
C1213 C 0.96826 0.6664 0.05706 0.0
C1214 C 0.93479 0.56655 0.10106 0.0
C1215 C 0.03151 0.64569 0.05648 0.0
H1216 H 0.07 0.56987 0.15846 0.0
H1217 H 0.06414 0.51158 0.06335 0.0
H1218 H 0.01829 0.64145 0.13794 0.0
H1219 H 0.9845 0.61235 0.15146 0.0
H1220 H 0.02628 0.61234 0.17441 0.0
H1221 H 0.01739 0.52076 0.02314 0.0
H1222 H 0.9783 0.54526 0.03621 0.0
H1223 H 0.01348 0.56904 0.01783 0.0
H1224 H 0.89453 0.62519 0.08252 0.0
H1225 H 0.97648 0.69198 0.04684 0.0
H1226 H 0.94346 0.56596 0.12843 0.0
H1227 H 0.94683 0.5425 0.08853 0.0
H1228 H 0.90571 0.56444 0.09966 0.0
H1229 H 0.04671 0.64819 0.08097 0.0
H1230 H 0.03467 0.67075 0.04136 0.0
H1231 H 0.04317 0.6226 0.04216 0.0
C1232 C 0.66451 0.84978 0.38663 0.0
C1233 C 0.66528 0.88193 0.36773 0.0
C1234 C 0.64484 0.8204 0.37497 0.0
C1235 C 0.62493 0.82335 0.34388 0.0
C1236 C 0.62455 0.85629 0.32533 0.0
C1237 C 0.64501 0.88508 0.33732 0.0
C1238 C 0.64626 0.78578 0.39545 0.0
C1239 C 0.60317 0.86089 0.29246 0.0
C1240 C 0.60225 0.73532 0.29824 0.0
C1241 C 0.5683 0.72929 0.30986 0.0
C1242 C 0.6208 0.76606 0.30866 0.0
C1243 C 0.60484 0.79173 0.33084 0.0
C1244 C 0.57025 0.78622 0.3419 0.0
C1245 C 0.55256 0.75504 0.33153 0.0
C1246 C 0.65779 0.77066 0.29657 0.0
C1247 C 0.55201 0.81311 0.36506 0.0
H1248 H 0.68036 0.84706 0.41 0.0
H1249 H 0.64572 0.90979 0.32251 0.0
H1250 H 0.61937 0.77833 0.40259 0.0
H1251 H 0.65711 0.76342 0.3796 0.0
H1252 H 0.66274 0.78795 0.41923 0.0
H1253 H 0.60368 0.88895 0.28244 0.0
H1254 H 0.61359 0.84222 0.27266 0.0
H1255 H 0.57545 0.85378 0.29657 0.0
H1256 H 0.61466 0.71565 0.28152 0.0
H1257 H 0.52619 0.75097 0.34039 0.0
H1258 H 0.67638 0.77065 0.31895 0.0
H1259 H 0.65988 0.79707 0.28349 0.0
H1260 H 0.66612 0.74888 0.27868 0.0
H1261 H 0.56637 0.81437 0.39011 0.0
H1262 H 0.52435 0.80602 0.36972 0.0
H1263 H 0.55218 0.84053 0.35363 0.0
C1264 C 0.5663 0.34335 0.61754 0.0
C1265 C 0.57803 0.34461 0.5838 0.0
C1266 C 0.53381 0.35891 0.62613 0.0
C1267 C 0.51325 0.37721 0.6006 0.0
C1268 C 0.52561 0.37991 0.5668 0.0
C1269 C 0.55772 0.36301 0.55866 0.0
C1270 C 0.52113 0.35504 0.66231 0.0
C1271 C 0.50483 0.40032 0.53923 0.0
C1272 C 0.41566 0.39335 0.61396 0.0
C1273 C 0.41541 0.4285 0.6271 0.0
C1274 C 0.44753 0.37593 0.60554 0.0
C1275 C 0.47937 0.39466 0.6097 0.0
C1276 C 0.47909 0.43013 0.62303 0.0
C1277 C 0.44713 0.44642 0.63199 0.0
C1278 C 0.44717 0.3377 0.5921 0.0
C1279 C 0.51245 0.45116 0.62721 0.0
H1280 H 0.58182 0.32888 0.63701 0.0
H1281 H 0.56655 0.36357 0.53251 0.0
H1282 H 0.51727 0.38207 0.67413 0.0
H1283 H 0.49529 0.34181 0.66194 0.0
H1284 H 0.53985 0.33889 0.6788 0.0
H1285 H 0.51866 0.40066 0.5145 0.0
H1286 H 0.47888 0.38789 0.53497 0.0
H1287 H 0.49979 0.42863 0.54754 0.0
H1288 H 0.39104 0.37963 0.61013 0.0
H1289 H 0.44695 0.47379 0.64192 0.0
H1290 H 0.46464 0.31999 0.60839 0.0
H1291 H 0.45754 0.33677 0.56579 0.0
H1292 H 0.42034 0.32656 0.59148 0.0
H1293 H 0.53116 0.43685 0.64508 0.0
H1294 H 0.50745 0.4789 0.63717 0.0
H1295 H 0.52548 0.45317 0.60218 0.0
C1296 C 0.19527 0.64682 0.67724 0.0
C1297 C 0.19927 0.63743 0.64271 0.0
C1298 C 0.17172 0.67452 0.68674 0.0
C1299 C 0.15201 0.69345 0.661 0.0
C1300 C 0.15629 0.6844 0.62601 0.0
C1301 C 0.17981 0.65622 0.61727 0.0
C1302 C 0.16768 0.68323 0.72432 0.0
C1303 C 0.13604 0.70447 0.59789 0.0
C1304 C 0.06698 0.74243 0.68362 0.0
C1305 C 0.07789 0.77813 0.68641 0.0
C1306 C 0.09106 0.71441 0.67605 0.0
C1307 C 0.12665 0.72254 0.67072 0.0
C1308 C 0.13792 0.7585 0.67428 0.0
C1309 C 0.11339 0.78589 0.68236 0.0
C1310 C 0.07831 0.67621 0.67319 0.0
C1311 C 0.17566 0.76818 0.66865 0.0
H1312 H 0.21034 0.63224 0.69698 0.0
H1313 H 0.18307 0.64899 0.59058 0.0
H1314 H 0.17362 0.71197 0.72924 0.0
H1315 H 0.14006 0.67932 0.73169 0.0
H1316 H 0.18523 0.66608 0.74109 0.0
H1317 H 0.1431 0.69473 0.57195 0.0
H1318 H 0.1074 0.70127 0.60104 0.0
H1319 H 0.1412 0.73378 0.59962 0.0
H1320 H 0.03953 0.73647 0.68694 0.0
H1321 H 0.12182 0.81356 0.6845 0.0
H1322 H 0.09416 0.65816 0.69061 0.0
H1323 H 0.08184 0.66605 0.64671 0.0
H1324 H 0.05014 0.67424 0.6796 0.0
H1325 H 0.19354 0.75222 0.68606 0.0
H1326 H 0.18023 0.79735 0.67306 0.0
H1327 H 0.1829 0.76132 0.642 0.0
C1328 C 0.48455 0.85455 0.94317 0.0
C1329 C 0.473 0.82224 0.92857 0.0
C1330 C 0.51556 0.87024 0.93228 0.0
C1331 C 0.53559 0.85285 0.90661 0.0
C1332 C 0.52455 0.81975 0.89251 0.0
C1333 C 0.49327 0.80499 0.90347 0.0
C1334 C 0.5264 0.90586 0.94757 0.0
C1335 C 0.54546 0.8002 0.86542 0.0
C1336 C 0.59121 0.91217 0.85219 0.0
C1337 C 0.6244 0.90781 0.86821 0.0
C1338 C 0.56221 0.894 0.86422 0.0
C1339 C 0.56668 0.87056 0.89268 0.0
C1340 C 0.60053 0.86464 0.90792 0.0
C1341 C 0.6291 0.88356 0.89555 0.0
C1342 C 0.52652 0.90105 0.84731 0.0
C1343 C 0.60632 0.8393 0.93792 0.0
H1344 H 0.46905 0.86791 0.96264 0.0
H1345 H 0.48486 0.77968 0.89242 0.0
H1346 H 0.55369 0.90356 0.95817 0.0
H1347 H 0.52606 0.92685 0.92727 0.0
H1348 H 0.50876 0.91511 0.96828 0.0
H1349 H 0.5346 0.77343 0.85889 0.0
H1350 H 0.54553 0.81675 0.84174 0.0
H1351 H 0.57323 0.79624 0.87429 0.0
H1352 H 0.58754 0.931 0.83107 0.0
H1353 H 0.65477 0.88033 0.90801 0.0
H1354 H 0.50832 0.91326 0.86613 0.0
H1355 H 0.5151 0.87527 0.83855 0.0
H1356 H 0.52772 0.91948 0.82495 0.0
H1357 H 0.59196 0.8499 0.96036 0.0
H1358 H 0.63459 0.83583 0.94531 0.0
H1359 H 0.59565 0.81241 0.93168 0.0
C1360 C 0.93642 0.03449 0.41501 0.0
C1361 C 0.90962 0.05108 0.39476 0.0
C1362 C 0.96652 0.0534 0.42529 0.0
C1363 C 0.97035 0.08953 0.41435 0.0
C1364 C 0.94385 0.10593 0.39287 0.0
C1365 C 0.91364 0.08667 0.38369 0.0
C1366 C 0.99357 0.03516 0.44888 0.0
C1367 C 0.94704 0.14417 0.38016 0.0
C1368 C 0.02324 0.15775 0.46532 0.0
C1369 C 0.05407 0.15941 0.44659 0.0
C1370 C 0.9968 0.13349 0.45634 0.0
C1371 C 0.00069 0.11118 0.42709 0.0
C1372 C 0.03248 0.11179 0.40881 0.0
C1373 C 0.05907 0.13564 0.41909 0.0
C1374 C 0.96396 0.13304 0.47727 0.0
C1375 C 0.03747 0.08902 0.37713 0.0
H1376 H 0.93336 0.00699 0.42373 0.0
H1377 H 0.89304 0.09955 0.36796 0.0
H1378 H 0.01998 0.0359 0.43754 0.0
H1379 H 0.99504 0.04997 0.4736 0.0
H1380 H 0.98732 0.00659 0.45416 0.0
H1381 H 0.92573 0.15192 0.36138 0.0
H1382 H 0.94596 0.16321 0.4021 0.0
H1383 H 0.97278 0.14741 0.36791 0.0
H1384 H 0.0194 0.17626 0.48656 0.0
H1385 H 0.08268 0.13739 0.40425 0.0
H1386 H 0.95745 0.10488 0.48381 0.0
H1387 H 0.94143 0.14473 0.46203 0.0
H1388 H 0.96677 0.1488 0.5014 0.0
H1389 H 0.03134 0.06046 0.38233 0.0
H1390 H 0.06469 0.09012 0.3676 0.0
H1391 H 0.01895 0.09877 0.35652 0.0
loop_
_geom_bond_atom_site_label_1
_geom_bond_atom_site_label_2
_geom_bond_distance
_geom_bond_site_symmetry_2
_ccdc_geom_bond_type
Dy0 O4 2.398 . S
Dy0 O5 2.491 . S
Dy0 O6 2.403 . S
Dy0 O7 2.664 . S
Dy0 O11 2.326 . S
Dy0 O15 2.310 . S
Dy0 O16 2.351 . S
C1 O12 1.185 . S
C1 O13 1.355 . S
C2 O4 1.185 . S
C2 O5 1.355 . S
Dy3 O7 2.310 . S
Dy3 O10 2.351 . S
Dy3 O12 2.398 . S
Dy3 O13 2.491 . S
Dy3 O14 2.403 . S
Dy3 O15 2.664 . S
Dy3 O17 2.326 . S
O4 Dy0 2.398 . S
O4 C2 1.185 . S
O5 Dy0 2.491 . S
O5 C2 1.355 . S
O6 Dy0 2.403 . S
O6 C8 1.254 . S
O7 Dy0 2.664 . S
O7 Dy3 2.310 . S
O7 C8 1.268 . S
C8 O6 1.254 . S
C8 O7 1.268 . S
C9 O14 1.254 . S
C9 O15 1.268 . S
O10 Dy3 2.351 . S
O10 C18 1.249 . S
O11 Dy0 2.326 . S
O11 C18 1.267 . S
O12 C1 1.185 . S
O12 Dy3 2.398 . S
O13 C1 1.355 . S
O13 Dy3 2.491 . S
O14 Dy3 2.403 . S
O14 C9 1.254 . S
O15 Dy0 2.310 . S
O15 Dy3 2.664 . S
O15 C9 1.268 . S
O16 Dy0 2.351 . S
O16 C19 1.249 . S
O17 Dy3 2.326 . S
O17 C19 1.267 . S
C18 O10 1.249 . S
C18 O11 1.267 . S
C19 O16 1.249 . S
C19 O17 1.267 . S
Dy20 O24 2.398 . S
Dy20 O25 2.491 . S
Dy20 O26 2.403 1_655 S
Dy20 O27 2.664 1_655 S
Dy20 O31 2.326 1_655 S
Dy20 O35 2.310 . S
Dy20 O36 2.351 . S
C21 O32 1.185 . S
C21 O33 1.355 . S
C22 O24 1.185 . S
C22 O25 1.355 . S
Dy23 O27 2.310 . S
Dy23 O30 2.351 . S
Dy23 O32 2.398 . S
Dy23 O33 2.491 . S
Dy23 O34 2.403 . S
Dy23 O35 2.664 1_455 S
Dy23 O37 2.326 . S
O24 Dy20 2.398 . S
O24 C22 1.185 . S
O25 Dy20 2.491 . S
O25 C22 1.355 . S
O26 Dy20 2.403 1_455 S
O26 C28 1.254 . S
O27 Dy20 2.664 1_455 S
O27 Dy23 2.310 . S
O27 C28 1.268 . S
C28 O26 1.254 . S
C28 O27 1.268 . S
C29 O34 1.254 1_655 S
C29 O35 1.268 . S
O30 Dy23 2.351 . S
O30 C38 1.249 . S
O31 Dy20 2.326 1_455 S
O31 C38 1.267 . S
O32 C21 1.185 . S
O32 Dy23 2.398 . S
O33 C21 1.355 . S
O33 Dy23 2.491 . S
O34 Dy23 2.403 . S
O34 C29 1.254 1_455 S
O35 Dy20 2.310 . S
O35 Dy23 2.664 1_655 S
O35 C29 1.268 . S
O36 Dy20 2.351 . S
O36 C39 1.249 1_655 S
O37 Dy23 2.326 . S
O37 C39 1.267 . S
C38 O30 1.249 . S
C38 O31 1.267 . S
C39 O36 1.249 1_455 S
C39 O37 1.267 . S
Dy40 O44 2.398 . S
Dy40 O45 2.491 . S
Dy40 O46 2.403 1_554 S
Dy40 O47 2.664 1_554 S
Dy40 O51 2.326 1_554 S
Dy40 O55 2.310 1_554 S
Dy40 O56 2.351 . S
C41 O52 1.185 . S
C41 O53 1.355 . S
C42 O44 1.185 . S
C42 O45 1.355 . S
Dy43 O47 2.310 . S
Dy43 O50 2.351 . S
Dy43 O52 2.398 . S
Dy43 O53 2.491 . S
Dy43 O54 2.403 . S
Dy43 O55 2.664 . S
Dy43 O57 2.326 . S
O44 Dy40 2.398 . S
O44 C42 1.185 . S
O45 Dy40 2.491 . S
O45 C42 1.355 . S
O46 Dy40 2.403 1_556 S
O46 C48 1.254 . S
O47 Dy40 2.664 1_556 S
O47 Dy43 2.310 . S
O47 C48 1.268 . S
C48 O46 1.254 . S
C48 O47 1.268 . S
C49 O54 1.254 1_554 S
C49 O55 1.268 1_554 S
O50 Dy43 2.351 . S
O50 C58 1.249 . S
O51 Dy40 2.326 1_556 S
O51 C58 1.267 . S
O52 C41 1.185 . S
O52 Dy43 2.398 . S
O53 C41 1.355 . S
O53 Dy43 2.491 . S
O54 Dy43 2.403 . S
O54 C49 1.254 1_556 S
O55 Dy40 2.310 1_556 S
O55 Dy43 2.664 . S
O55 C49 1.268 1_556 S
O56 Dy40 2.351 . S
O56 C59 1.249 1_554 S
O57 Dy43 2.326 . S
O57 C59 1.267 . S
C58 O50 1.249 . S
C58 O51 1.267 . S
C59 O56 1.249 1_556 S
C59 O57 1.267 . S
Dy60 O64 2.398 . S
Dy60 O65 2.491 . S
Dy60 O66 2.403 . S
Dy60 O67 2.664 . S
Dy60 O71 2.326 . S
Dy60 O75 2.310 . S
Dy60 O76 2.351 . S
C61 O72 1.185 . S
C61 O73 1.355 . S
C62 O64 1.185 . S
C62 O65 1.355 . S
Dy63 O67 2.310 . S
Dy63 O70 2.351 . S
Dy63 O72 2.398 . S
Dy63 O73 2.491 . S
Dy63 O74 2.403 . S
Dy63 O75 2.664 . S
Dy63 O77 2.326 . S
O64 Dy60 2.398 . S
O64 C62 1.185 . S
O65 Dy60 2.491 . S
O65 C62 1.355 . S
O66 Dy60 2.403 . S
O66 C68 1.254 . S
O67 Dy60 2.664 . S
O67 Dy63 2.310 . S
O67 C68 1.268 . S
C68 O66 1.254 . S
C68 O67 1.268 . S
C69 O74 1.254 . S
C69 O75 1.268 . S
O70 Dy63 2.351 . S
O70 C78 1.249 . S
O71 Dy60 2.326 . S
O71 C78 1.267 . S
O72 C61 1.185 . S
O72 Dy63 2.398 . S
O73 C61 1.355 . S
O73 Dy63 2.491 . S
O74 Dy63 2.403 . S
O74 C69 1.254 . S
O75 Dy60 2.310 . S
O75 Dy63 2.664 . S
O75 C69 1.268 . S
O76 Dy60 2.351 . S
O76 C79 1.249 . S
O77 Dy63 2.326 . S
O77 C79 1.267 . S
C78 O70 1.249 . S
C78 O71 1.267 . S
C79 O76 1.249 . S
C79 O77 1.267 . S
Dy80 O84 2.398 . S
Dy80 O85 2.491 . S
Dy80 O86 2.403 . S
Dy80 O87 2.664 . S
Dy80 O91 2.326 . S
Dy80 O95 2.310 . S
Dy80 O96 2.351 . S
C81 O92 1.185 . S
C81 O93 1.355 . S
C82 O84 1.185 . S
C82 O85 1.355 . S
Dy83 O87 2.310 . S
Dy83 O90 2.351 . S
Dy83 O92 2.398 . S
Dy83 O93 2.491 . S
Dy83 O94 2.403 . S
Dy83 O95 2.664 . S
Dy83 O97 2.326 . S
O84 Dy80 2.398 . S
O84 C82 1.185 . S
O85 Dy80 2.491 . S
O85 C82 1.355 . S
O86 Dy80 2.403 . S
O86 C88 1.254 . S
O87 Dy80 2.664 . S
O87 Dy83 2.310 . S
O87 C88 1.268 . S
C88 O86 1.254 . S
C88 O87 1.268 . S
C89 O94 1.254 . S
C89 O95 1.268 . S
O90 Dy83 2.351 . S
O90 C98 1.249 . S
O91 Dy80 2.326 . S
O91 C98 1.267 . S
O92 C81 1.185 . S
O92 Dy83 2.398 . S
O93 C81 1.355 . S
O93 Dy83 2.491 . S
O94 Dy83 2.403 . S
O94 C89 1.254 . S
O95 Dy80 2.310 . S
O95 Dy83 2.664 . S
O95 C89 1.268 . S
O96 Dy80 2.351 . S
O96 C99 1.249 . S
O97 Dy83 2.326 . S
O97 C99 1.267 . S
C98 O90 1.249 . S
C98 O91 1.267 . S
C99 O96 1.249 . S
C99 O97 1.267 . S
Dy100 O104 2.398 . S
Dy100 O105 2.491 . S
Dy100 O106 2.403 . S
Dy100 O107 2.664 . S
Dy100 O111 2.326 . S
Dy100 O115 2.310 . S
Dy100 O116 2.351 1_655 S
C101 O112 1.185 . S
C101 O113 1.355 . S
C102 O104 1.185 . S
C102 O105 1.355 . S
Dy103 O107 2.310 1_455 S
Dy103 O110 2.351 1_455 S
Dy103 O112 2.398 . S
Dy103 O113 2.491 . S
Dy103 O114 2.403 . S
Dy103 O115 2.664 1_455 S
Dy103 O117 2.326 . S
O104 Dy100 2.398 . S
O104 C102 1.185 . S
O105 Dy100 2.491 . S
O105 C102 1.355 . S
O106 Dy100 2.403 . S
O106 C108 1.254 . S
O107 Dy100 2.664 . S
O107 Dy103 2.310 1_655 S
O107 C108 1.268 . S
C108 O106 1.254 . S
C108 O107 1.268 . S
C109 O114 1.254 . S
C109 O115 1.268 1_455 S
O110 Dy103 2.351 1_655 S
O110 C118 1.249 . S
O111 Dy100 2.326 . S
O111 C118 1.267 . S
O112 C101 1.185 . S
O112 Dy103 2.398 . S
O113 C101 1.355 . S
O113 Dy103 2.491 . S
O114 Dy103 2.403 . S
O114 C109 1.254 . S
O115 Dy100 2.310 . S
O115 Dy103 2.664 1_655 S
O115 C109 1.268 1_655 S
O116 Dy100 2.351 1_455 S
O116 C119 1.249 . S
O117 Dy103 2.326 . S
O117 C119 1.267 . S
C118 O110 1.249 . S
C118 O111 1.267 . S
C119 O116 1.249 . S
C119 O117 1.267 . S
Dy120 O124 2.398 . S
Dy120 O125 2.491 . S
Dy120 O126 2.403 . S
Dy120 O127 2.664 . S
Dy120 O131 2.326 . S
Dy120 O135 2.310 . S
Dy120 O136 2.351 . S
C121 O132 1.185 . S
C121 O133 1.355 . S
C122 O124 1.185 . S
C122 O125 1.355 . S
Dy123 O127 2.310 . S
Dy123 O130 2.351 . S
Dy123 O132 2.398 1_554 S
Dy123 O133 2.491 1_554 S
Dy123 O134 2.403 1_554 S
Dy123 O135 2.664 . S
Dy123 O137 2.326 1_554 S
O124 Dy120 2.398 . S
O124 C122 1.185 . S
O125 Dy120 2.491 . S
O125 C122 1.355 . S
O126 Dy120 2.403 . S
O126 C128 1.254 . S
O127 Dy120 2.664 . S
O127 Dy123 2.310 . S
O127 C128 1.268 . S
C128 O126 1.254 . S
C128 O127 1.268 . S
C129 O134 1.239 1_554 S
C129 O135 1.285 . S
O130 Dy123 2.351 . S
O130 C138 1.249 . S
O131 Dy120 2.326 . S
O131 C138 1.267 . S
O132 C121 1.185 . S
O132 Dy123 2.398 1_556 S
O133 C121 1.355 . S
O133 Dy123 2.491 1_556 S
O134 Dy123 2.403 1_556 S
O134 C129 1.239 1_556 S
O135 Dy120 2.310 . S
O135 Dy123 2.664 . S
O135 C129 1.285 . S
O136 Dy120 2.351 . S
O136 C139 1.249 1_554 S
O137 Dy123 2.326 1_556 S
O137 C139 1.267 . S
C138 O130 1.249 . S
C138 O131 1.267 . S
C139 O136 1.249 1_556 S
C139 O137 1.267 . S
Dy140 O144 2.398 . S
Dy140 O145 2.491 . S
Dy140 O146 2.403 . S
Dy140 O147 2.664 . S
Dy140 O151 2.326 . S
Dy140 O155 2.310 . S
Dy140 O156 2.351 . S
C141 O152 1.185 . S
C141 O153 1.355 . S
C142 O144 1.185 . S
C142 O145 1.355 . S
Dy143 O147 2.310 . S
Dy143 O150 2.351 . S
Dy143 O152 2.398 . S
Dy143 O153 2.491 . S
Dy143 O154 2.403 . S
Dy143 O155 2.664 . S
Dy143 O157 2.326 . S
O144 Dy140 2.398 . S
O144 C142 1.185 . S
O145 Dy140 2.491 . S
O145 C142 1.355 . S
O146 Dy140 2.403 . S
O146 C148 1.254 . S
O147 Dy140 2.664 . S
O147 Dy143 2.310 . S
O147 C148 1.268 . S
C148 O146 1.254 . S
C148 O147 1.268 . S
C149 O154 1.254 . S
C149 O155 1.268 . S
O150 Dy143 2.351 . S
O150 C158 1.249 . S
O151 Dy140 2.326 . S
O151 C158 1.267 . S
O152 C141 1.185 . S
O152 Dy143 2.398 . S
O153 C141 1.355 . S
O153 Dy143 2.491 . S
O154 Dy143 2.403 . S
O154 C149 1.254 . S
O155 Dy140 2.310 . S
O155 Dy143 2.664 . S
O155 C149 1.268 . S
O156 Dy140 2.351 . S
O156 C159 1.249 . S
O157 Dy143 2.326 . S
O157 C159 1.267 . S
C158 O150 1.249 . S
C158 O151 1.267 . S
C159 O156 1.249 . S
C159 O157 1.267 . S
Dy160 O164 2.398 . S
Dy160 O165 2.491 . S
Dy160 O166 2.403 . S
Dy160 O167 2.664 . S
Dy160 O171 2.326 . S
Dy160 O175 2.310 . S
Dy160 O176 2.351 . S
C161 O172 1.185 . S
C161 O173 1.355 . S
C162 O164 1.185 . S
C162 O165 1.355 . S
Dy163 O167 2.310 . S
Dy163 O170 2.351 . S
Dy163 O172 2.398 . S
Dy163 O173 2.491 . S
Dy163 O174 2.403 . S
Dy163 O175 2.664 . S
Dy163 O177 2.326 . S
O164 Dy160 2.398 . S
O164 C162 1.185 . S
O165 Dy160 2.491 . S
O165 C162 1.355 . S
O166 Dy160 2.403 . S
O166 C168 1.254 . S
O167 Dy160 2.664 . S
O167 Dy163 2.310 . S
O167 C168 1.268 . S
C168 O166 1.254 . S
C168 O167 1.268 . S
C169 O174 1.254 . S
C169 O175 1.268 . S
O170 Dy163 2.351 . S
O170 C178 1.249 . S
O171 Dy160 2.326 . S
O171 C178 1.267 . S
O172 C161 1.185 . S
O172 Dy163 2.398 . S
O173 C161 1.355 . S
O173 Dy163 2.491 . S
O174 Dy163 2.403 . S
O174 C169 1.254 . S
O175 Dy160 2.310 . S
O175 Dy163 2.664 . S
O175 C169 1.268 . S
O176 Dy160 2.351 . S
O176 C179 1.249 . S
O177 Dy163 2.326 . S
O177 C179 1.267 . S
C178 O170 1.249 . S
C178 O171 1.267 . S
C179 O176 1.249 . S
C179 O177 1.267 . S
Dy180 O184 2.398 . S
Dy180 O185 2.491 . S
Dy180 O186 2.403 1_565 S
Dy180 O187 2.664 1_565 S
Dy180 O191 2.326 1_565 S
Dy180 O195 2.310 1_565 S
Dy180 O196 2.351 . S
C181 O192 1.185 . S
C181 O193 1.355 . S
C182 O184 1.185 . S
C182 O185 1.355 . S
Dy183 O187 2.310 . S
Dy183 O190 2.351 . S
Dy183 O192 2.398 . S
Dy183 O193 2.491 . S
Dy183 O194 2.403 . S
Dy183 O195 2.664 . S
Dy183 O197 2.326 . S
O184 Dy180 2.398 . S
O184 C182 1.185 . S
O185 Dy180 2.491 . S
O185 C182 1.355 . S
O186 Dy180 2.403 1_545 S
O186 C188 1.254 . S
O187 Dy180 2.664 1_545 S
O187 Dy183 2.310 . S
O187 C188 1.268 . S
C188 O186 1.254 . S
C188 O187 1.268 . S
C189 O194 1.254 1_565 S
C189 O195 1.268 1_565 S
O190 Dy183 2.351 . S
O190 C198 1.249 . S
O191 Dy180 2.326 1_545 S
O191 C198 1.267 . S
O192 C181 1.185 . S
O192 Dy183 2.398 . S
O193 C181 1.355 . S
O193 Dy183 2.491 . S
O194 Dy183 2.403 . S
O194 C189 1.254 1_545 S
O195 Dy180 2.310 1_545 S
O195 Dy183 2.664 . S
O195 C189 1.268 1_545 S
O196 Dy180 2.351 . S
O196 C199 1.249 1_565 S
O197 Dy183 2.326 . S
O197 C199 1.267 . S
C198 O190 1.249 . S
C198 O191 1.267 . S
C199 O196 1.249 1_545 S
C199 O197 1.267 . S
Dy200 O204 2.398 . S
Dy200 O205 2.491 . S
Dy200 O206 2.403 . S
Dy200 O207 2.664 . S
Dy200 O211 2.326 . S
Dy200 O215 2.310 . S
Dy200 O216 2.354 . S
C201 O212 1.185 . S
C201 O213 1.355 . S
C202 O204 1.185 . S
C202 O205 1.355 . S
Dy203 O207 2.310 1_545 S
Dy203 O210 2.351 1_545 S
Dy203 O212 2.398 . S
Dy203 O213 2.491 . S
Dy203 O214 2.403 . S
Dy203 O215 2.664 1_545 S
Dy203 O217 2.326 . S
O204 Dy200 2.398 . S
O204 C202 1.185 . S
O205 Dy200 2.491 . S
O205 C202 1.355 . S
O206 Dy200 2.403 . S
O206 C208 1.254 . S
O207 Dy200 2.664 . S
O207 Dy203 2.310 1_565 S
O207 C208 1.268 . S
C208 O206 1.254 . S
C208 O207 1.268 . S
C209 O214 1.254 . S
C209 O215 1.268 1_545 S
O210 Dy203 2.351 1_565 S
O210 C218 1.249 . S
O211 Dy200 2.326 . S
O211 C218 1.267 . S
O212 C201 1.185 . S
O212 Dy203 2.398 . S
O213 C201 1.355 . S
O213 Dy203 2.491 . S
O214 Dy203 2.403 . S
O214 C209 1.254 . S
O215 Dy200 2.310 . S
O215 Dy203 2.664 1_565 S
O215 C209 1.268 1_565 S
O216 Dy200 2.354 . S
O216 C219 1.246 1_565 S
O217 Dy203 2.326 . S
O217 C219 1.267 . S
C218 O210 1.249 . S
C218 O211 1.267 . S
C219 O216 1.246 1_545 S
C219 O217 1.267 . S
Dy220 O224 2.398 . S
Dy220 O225 2.491 . S
Dy220 O226 2.403 . S
Dy220 O227 2.664 . S
Dy220 O231 2.326 . S
Dy220 O235 2.310 . S
Dy220 O236 2.351 . S
C221 O232 1.185 . S
C221 O233 1.355 . S
C222 O224 1.185 . S
C222 O225 1.355 . S
Dy223 O227 2.310 . S
Dy223 O230 2.351 . S
Dy223 O232 2.398 . S
Dy223 O233 2.491 . S
Dy223 O234 2.403 . S
Dy223 O235 2.664 . S
Dy223 O237 2.326 . S
O224 Dy220 2.398 . S
O224 C222 1.185 . S
O225 Dy220 2.491 . S
O225 C222 1.355 . S
O226 Dy220 2.403 . S
O226 C228 1.254 . S
O227 Dy220 2.664 . S
O227 Dy223 2.310 . S
O227 C228 1.268 . S
C228 O226 1.254 . S
C228 O227 1.268 . S
C229 O234 1.254 . S
C229 O235 1.268 . S
O230 Dy223 2.351 . S
O230 C238 1.249 . S
O231 Dy220 2.326 . S
O231 C238 1.267 . S
O232 C221 1.185 . S
O232 Dy223 2.398 . S
O233 C221 1.355 . S
O233 Dy223 2.491 . S
O234 Dy223 2.403 . S
O234 C229 1.254 . S
O235 Dy220 2.310 . S
O235 Dy223 2.664 . S
O235 C229 1.268 . S
O236 Dy220 2.351 . S
O236 C239 1.249 . S
O237 Dy223 2.326 . S
O237 C239 1.267 . S
C238 O230 1.249 . S
C238 O231 1.267 . S
C239 O236 1.249 . S
C239 O237 1.267 . S
C240 C241 1.391 . S
C240 C242 1.394 . S
C240 H256 0.931 . S
C241 C240 1.391 . S
C241 C245 1.376 . S
C242 C240 1.394 . S
C242 C243 1.369 . S
C242 C246 1.531 . S
C243 C242 1.369 . S
C243 C244 1.410 . S
C243 C251 1.503 . S
C244 C243 1.410 . S
C244 C245 1.392 . S
C244 C247 1.511 . S
C245 C241 1.376 . S
C245 C244 1.392 . S
C245 H257 0.929 . S
C246 C242 1.531 . S
C246 H258 0.960 . S
C246 H259 0.962 . S
C246 H260 0.960 . S
C247 C244 1.511 . S
C247 H261 0.961 . S
C247 H262 0.961 . S
C247 H263 0.961 . S
C248 C249 1.370 . S
C248 C250 1.363 . S
C248 H264 0.931 . S
C249 C248 1.370 . S
C249 C253 1.408 . S
C250 C248 1.363 . S
C250 C251 1.370 . S
C250 C254 1.524 . S
C251 C243 1.503 . S
C251 C250 1.370 . S
C251 C252 1.403 . S
C252 C251 1.403 . S
C252 C253 1.404 . S
C252 C255 1.539 . S
C253 C249 1.408 . S
C253 C252 1.404 . S
C253 H265 0.930 . S
C254 C250 1.524 . S
C254 H266 0.956 . S
C254 H267 0.961 . S
C254 H268 0.961 . S
C255 C252 1.539 . S
C255 H269 0.958 . S
C255 H270 0.961 . S
C255 H271 0.960 . S
H256 C240 0.931 . S
H257 C245 0.929 . S
H258 C246 0.960 . S
H259 C246 0.962 . S
H260 C246 0.960 . S
H261 C247 0.961 . S
H262 C247 0.961 . S
H263 C247 0.961 . S
H264 C248 0.931 . S
H265 C253 0.930 . S
H266 C254 0.956 . S
H267 C254 0.961 . S
H268 C254 0.961 . S
H269 C255 0.958 . S
H270 C255 0.961 . S
H271 C255 0.960 . S
C272 C273 1.391 1_565 S
C272 C274 1.394 . S
C272 H288 0.931 . S
C273 C272 1.391 1_545 S
C273 C277 1.376 . S
C274 C272 1.394 . S
C274 C275 1.369 . S
C274 C278 1.531 . S
C275 C274 1.369 . S
C275 C276 1.410 1_565 S
C275 C283 1.503 . S
C276 C275 1.410 1_545 S
C276 C277 1.392 . S
C276 C279 1.511 . S
C277 C273 1.376 . S
C277 C276 1.392 . S
C277 H289 0.929 . S
C278 C274 1.531 . S
C278 H290 0.960 . S
C278 H291 0.962 . S
C278 H292 0.960 . S
C279 C276 1.511 . S
C279 H293 0.961 . S
C279 H294 0.961 . S
C279 H295 0.961 . S
C280 C281 1.370 . S
C280 C282 1.363 . S
C280 H296 0.931 . S
C281 C280 1.370 . S
C281 C285 1.408 . S
C282 C280 1.363 . S
C282 C283 1.370 . S
C282 C286 1.524 . S
C283 C275 1.503 . S
C283 C282 1.370 . S
C283 C284 1.403 . S
C284 C283 1.403 . S
C284 C285 1.404 . S
C284 C287 1.539 1_565 S
C285 C281 1.408 . S
C285 C284 1.404 . S
C285 H297 0.930 . S
C286 C282 1.524 . S
C286 H298 0.956 . S
C286 H299 0.961 . S
C286 H300 0.961 . S
C287 C284 1.539 1_545 S
C287 H301 0.958 1_545 S
C287 H302 0.961 . S
C287 H303 0.960 . S
H288 C272 0.931 . S
H289 C277 0.929 . S
H290 C278 0.960 . S
H291 C278 0.962 . S
H292 C278 0.960 . S
H293 C279 0.961 . S
H294 C279 0.961 . S
H295 C279 0.961 . S
H296 C280 0.931 . S
H297 C285 0.930 . S
H298 C286 0.956 . S
H299 C286 0.961 . S
H300 C286 0.961 . S
H301 C287 0.958 1_565 S
H302 C287 0.961 . S
H303 C287 0.960 . S
C304 C305 1.391 . S
C304 C306 1.394 1_556 S
C304 H320 0.931 . S
C305 C304 1.391 . S
C305 C309 1.376 1_556 S
C306 C304 1.394 1_554 S
C306 C307 1.369 . S
C306 C310 1.531 1_554 S
C307 C306 1.369 . S
C307 C308 1.410 . S
C307 C315 1.503 . S
C308 C307 1.410 . S
C308 C309 1.392 . S
C308 C311 1.511 . S
C309 C305 1.376 1_554 S
C309 C308 1.392 . S
C309 H321 0.929 . S
C310 C306 1.531 1_556 S
C310 H322 0.960 1_556 S
C310 H323 0.962 . S
C310 H324 0.960 . S
C311 C308 1.511 . S
C311 H325 0.961 . S
C311 H326 0.961 . S
C311 H327 0.961 . S
C312 C313 1.370 . S
C312 C314 1.363 . S
C312 H328 0.931 . S
C313 C312 1.370 . S
C313 C317 1.408 . S
C314 C312 1.363 . S
C314 C315 1.370 . S
C314 C318 1.524 1_554 S
C315 C307 1.503 . S
C315 C314 1.370 . S
C315 C316 1.403 . S
C316 C315 1.403 . S
C316 C317 1.404 . S
C316 C319 1.539 . S
C317 C313 1.408 . S
C317 C316 1.404 . S
C317 H329 0.930 . S
C318 C314 1.524 1_556 S
C318 H330 0.956 . S
C318 H331 0.961 . S
C318 H332 0.961 . S
C319 C316 1.539 . S
C319 H333 0.958 . S
C319 H334 0.961 . S
C319 H335 0.960 . S
H320 C304 0.931 . S
H321 C309 0.929 . S
H322 C310 0.960 1_554 S
H323 C310 0.962 . S
H324 C310 0.960 . S
H325 C311 0.961 . S
H326 C311 0.961 . S
H327 C311 0.961 . S
H328 C312 0.931 . S
H329 C317 0.930 . S
H330 C318 0.956 . S
H331 C318 0.961 . S
H332 C318 0.961 . S
H333 C319 0.958 . S
H334 C319 0.961 . S
H335 C319 0.960 . S
C336 C337 1.391 . S
C336 C338 1.394 . S
C336 H352 0.931 . S
C337 C336 1.391 . S
C337 C341 1.376 . S
C338 C336 1.394 . S
C338 C339 1.369 . S
C338 C342 1.531 . S
C339 C338 1.369 . S
C339 C340 1.410 . S
C339 C347 1.503 . S
C340 C339 1.410 . S
C340 C341 1.392 . S
C340 C343 1.511 1_545 S
C341 C337 1.376 . S
C341 C340 1.392 . S
C341 H353 0.929 . S
C342 C338 1.531 . S
C342 H354 0.960 . S
C342 H355 0.962 . S
C342 H356 0.960 . S
C343 C340 1.511 1_565 S
C343 H357 0.961 . S
C343 H358 0.961 . S
C343 H359 0.961 . S
C344 C345 1.370 . S
C344 C346 1.363 . S
C344 H360 0.931 . S
C345 C344 1.370 . S
C345 C349 1.408 . S
C346 C344 1.363 . S
C346 C347 1.370 . S
C346 C350 1.524 . S
C347 C339 1.503 . S
C347 C346 1.370 . S
C347 C348 1.403 . S
C348 C347 1.403 . S
C348 C349 1.404 . S
C348 C351 1.539 . S
C349 C345 1.408 . S
C349 C348 1.404 . S
C349 H361 0.930 . S
C350 C346 1.524 . S
C350 H362 0.956 . S
C350 H363 0.961 . S
C350 H364 0.961 . S
C351 C348 1.539 . S
C351 H365 0.958 . S
C351 H366 0.961 . S
C351 H367 0.960 . S
H352 C336 0.931 . S
H353 C341 0.929 . S
H354 C342 0.960 . S
H355 C342 0.962 . S
H356 C342 0.960 . S
H357 C343 0.961 . S
H358 C343 0.961 . S
H359 C343 0.961 . S
H360 C344 0.931 . S
H361 C349 0.930 . S
H362 C350 0.956 . S
H363 C350 0.961 . S
H364 C350 0.961 . S
H365 C351 0.958 . S
H366 C351 0.961 . S
H367 C351 0.960 . S
C368 C369 1.391 . S
C368 C370 1.394 . S
C368 H384 0.931 . S
C369 C368 1.391 . S
C369 C373 1.376 . S
C370 C368 1.394 . S
C370 C371 1.369 . S
C370 C374 1.531 . S
C371 C370 1.369 . S
C371 C372 1.410 . S
C371 C379 1.503 . S
C372 C371 1.410 . S
C372 C373 1.392 . S
C372 C375 1.511 . S
C373 C369 1.376 . S
C373 C372 1.392 . S
C373 H385 0.929 . S
C374 C370 1.531 . S
C374 H386 0.960 . S
C374 H387 0.962 . S
C374 H388 0.960 . S
C375 C372 1.511 . S
C375 H389 0.961 . S
C375 H390 0.961 . S
C375 H391 0.961 . S
C376 C377 1.370 . S
C376 C378 1.363 . S
C376 H392 0.931 . S
C377 C376 1.370 . S
C377 C381 1.408 . S
C378 C376 1.363 . S
C378 C379 1.370 . S
C378 C382 1.524 . S
C379 C371 1.503 . S
C379 C378 1.370 . S
C379 C380 1.403 . S
C380 C379 1.403 . S
C380 C381 1.404 . S
C380 C383 1.539 . S
C381 C377 1.408 . S
C381 C380 1.404 . S
C381 H393 0.930 . S
C382 C378 1.524 . S
C382 H394 0.956 . S
C382 H395 0.961 . S
C382 H396 0.961 . S
C383 C380 1.539 . S
C383 H397 0.958 . S
C383 H398 0.961 . S
C383 H399 0.960 . S
H384 C368 0.931 . S
H385 C373 0.929 . S
H386 C374 0.960 . S
H387 C374 0.962 . S
H388 C374 0.960 . S
H389 C375 0.961 . S
H390 C375 0.961 . S
H391 C375 0.961 . S
H392 C376 0.931 . S
H393 C381 0.930 . S
H394 C382 0.956 . S
H395 C382 0.961 . S
H396 C382 0.961 . S
H397 C383 0.958 . S
H398 C383 0.961 . S
H399 C383 0.960 . S
C400 C401 1.391 . S
C400 C402 1.394 . S
C400 H416 0.931 . S
C401 C400 1.391 . S
C401 C405 1.376 . S
C402 C400 1.394 . S
C402 C403 1.369 . S
C402 C406 1.531 . S
C403 C402 1.369 . S
C403 C404 1.410 . S
C403 C411 1.503 . S
C404 C403 1.410 . S
C404 C405 1.392 . S
C404 C407 1.511 . S
C405 C401 1.376 . S
C405 C404 1.392 . S
C405 H417 0.929 . S
C406 C402 1.531 . S
C406 H418 0.960 . S
C406 H419 0.962 . S
C406 H420 0.960 . S
C407 C404 1.511 . S
C407 H421 0.961 . S
C407 H422 0.961 . S
C407 H423 0.961 . S
C408 C409 1.370 . S
C408 C410 1.363 . S
C408 H424 0.931 . S
C409 C408 1.370 . S
C409 C413 1.408 . S
C410 C408 1.363 . S
C410 C411 1.370 . S
C410 C414 1.524 . S
C411 C403 1.503 . S
C411 C410 1.370 . S
C411 C412 1.403 . S
C412 C411 1.403 . S
C412 C413 1.404 . S
C412 C415 1.539 . S
C413 C409 1.408 . S
C413 C412 1.404 . S
C413 H425 0.930 . S
C414 C410 1.524 . S
C414 H426 0.956 . S
C414 H427 0.961 . S
C414 H428 0.961 . S
C415 C412 1.539 . S
C415 H429 0.958 . S
C415 H430 0.961 . S
C415 H431 0.960 . S
H416 C400 0.931 . S
H417 C405 0.929 . S
H418 C406 0.960 . S
H419 C406 0.962 . S
H420 C406 0.960 . S
H421 C407 0.961 . S
H422 C407 0.961 . S
H423 C407 0.961 . S
H424 C408 0.931 . S
H425 C413 0.930 . S
H426 C414 0.956 . S
H427 C414 0.961 . S
H428 C414 0.961 . S
H429 C415 0.958 . S
H430 C415 0.961 . S
H431 C415 0.960 . S
C432 C433 1.391 . S
C432 C434 1.394 . S
C432 H448 0.931 . S
C433 C432 1.391 . S
C433 C437 1.376 . S
C434 C432 1.394 . S
C434 C435 1.369 . S
C434 C438 1.531 . S
C435 C434 1.369 . S
C435 C436 1.410 . S
C435 C443 1.503 . S
C436 C435 1.410 . S
C436 C437 1.392 . S
C436 C439 1.511 . S
C437 C433 1.376 . S
C437 C436 1.392 . S
C437 H449 0.929 . S
C438 C434 1.531 . S
C438 H450 0.960 . S
C438 H451 0.962 . S
C438 H452 0.960 . S
C439 C436 1.511 . S
C439 H453 0.961 . S
C439 H454 0.961 . S
C439 H455 0.961 . S
C440 C441 1.370 1_554 S
C440 C442 1.363 1_554 S
C440 H456 0.931 . S
C441 C440 1.370 1_556 S
C441 C445 1.408 . S
C442 C440 1.363 1_556 S
C442 C443 1.370 . S
C442 C446 1.524 1_556 S
C443 C435 1.503 . S
C443 C442 1.370 . S
C443 C444 1.403 . S
C444 C443 1.403 . S
C444 C445 1.404 . S
C444 C447 1.539 . S
C445 C441 1.408 . S
C445 C444 1.404 . S
C445 H457 0.930 . S
C446 C442 1.524 1_554 S
C446 H458 0.956 . S
C446 H459 0.961 . S
C446 H460 0.961 . S
C447 C444 1.539 . S
C447 H461 0.958 . S
C447 H462 0.961 . S
C447 H463 0.960 . S
H448 C432 0.931 . S
H449 C437 0.929 . S
H450 C438 0.960 . S
H451 C438 0.962 . S
H452 C438 0.960 . S
H453 C439 0.961 . S
H454 C439 0.961 . S
H455 C439 0.961 . S
H456 C440 0.931 . S
H457 C445 0.930 . S
H458 C446 0.956 . S
H459 C446 0.961 . S
H460 C446 0.961 . S
H461 C447 0.958 . S
H462 C447 0.961 . S
H463 C447 0.960 . S
C464 C465 1.391 . S
C464 C466 1.394 . S
C464 H480 0.931 . S
C465 C464 1.391 . S
C465 C469 1.376 . S
C466 C464 1.394 . S
C466 C467 1.369 . S
C466 C470 1.531 . S
C467 C466 1.369 . S
C467 C468 1.410 . S
C467 C475 1.503 . S
C468 C467 1.410 . S
C468 C469 1.392 . S
C468 C471 1.511 . S
C469 C465 1.376 . S
C469 C468 1.392 . S
C469 H481 0.929 . S
C470 C466 1.531 . S
C470 H482 0.960 . S
C470 H483 0.962 . S
C470 H484 0.960 . S
C471 C468 1.511 . S
C471 H485 0.961 . S
C471 H486 0.961 . S
C471 H487 0.961 . S
C472 C473 1.370 . S
C472 C474 1.363 . S
C472 H488 0.931 . S
C473 C472 1.370 . S
C473 C477 1.408 . S
C474 C472 1.363 . S
C474 C475 1.370 . S
C474 C478 1.524 . S
C475 C467 1.503 . S
C475 C474 1.370 . S
C475 C476 1.403 . S
C476 C475 1.403 . S
C476 C477 1.404 . S
C476 C479 1.539 . S
C477 C473 1.408 . S
C477 C476 1.404 . S
C477 H489 0.930 . S
C478 C474 1.524 . S
C478 H490 0.956 . S
C478 H491 0.961 . S
C478 H492 0.961 . S
C479 C476 1.539 . S
C479 H493 0.958 . S
C479 H494 0.961 . S
C479 H495 0.960 . S
H480 C464 0.931 . S
H481 C469 0.929 . S
H482 C470 0.960 . S
H483 C470 0.962 . S
H484 C470 0.960 . S
H485 C471 0.961 . S
H486 C471 0.961 . S
H487 C471 0.961 . S
H488 C472 0.931 . S
H489 C477 0.930 . S
H490 C478 0.956 . S
H491 C478 0.961 . S
H492 C478 0.961 . S
H493 C479 0.958 . S
H494 C479 0.961 . S
H495 C479 0.960 . S
C496 C497 1.391 . S
C496 C498 1.394 . S
C496 H512 0.931 . S
C497 C496 1.391 . S
C497 C501 1.376 . S
C498 C496 1.394 . S
C498 C499 1.369 . S
C498 C502 1.531 . S
C499 C498 1.369 . S
C499 C500 1.410 . S
C499 C507 1.503 . S
C500 C499 1.410 . S
C500 C501 1.392 . S
C500 C503 1.511 . S
C501 C497 1.376 . S
C501 C500 1.392 . S
C501 H513 0.929 . S
C502 C498 1.531 . S
C502 H514 0.960 . S
C502 H515 0.962 . S
C502 H516 0.960 . S
C503 C500 1.511 . S
C503 H517 0.961 . S
C503 H518 0.961 . S
C503 H519 0.961 . S
C504 C505 1.370 . S
C504 C506 1.363 . S
C504 H520 0.931 . S
C505 C504 1.370 . S
C505 C509 1.408 . S
C506 C504 1.363 . S
C506 C507 1.370 . S
C506 C510 1.524 . S
C507 C499 1.503 . S
C507 C506 1.370 . S
C507 C508 1.403 . S
C508 C507 1.403 . S
C508 C509 1.404 . S
C508 C511 1.539 . S
C509 C505 1.408 . S
C509 C508 1.404 . S
C509 H521 0.930 . S
C510 C506 1.524 . S
C510 H522 0.956 . S
C510 H523 0.961 . S
C510 H524 0.961 . S
C511 C508 1.539 . S
C511 H525 0.958 . S
C511 H526 0.961 . S
C511 H527 0.960 . S
H512 C496 0.931 . S
H513 C501 0.929 . S
H514 C502 0.960 . S
H515 C502 0.962 . S
H516 C502 0.960 . S
H517 C503 0.961 . S
H518 C503 0.961 . S
H519 C503 0.961 . S
H520 C504 0.931 . S
H521 C509 0.930 . S
H522 C510 0.956 . S
H523 C510 0.961 . S
H524 C510 0.961 . S
H525 C511 0.958 . S
H526 C511 0.961 . S
H527 C511 0.960 . S
C528 C529 1.391 . S
C528 C530 1.394 . S
C528 H544 0.931 . S
C529 C528 1.391 . S
C529 C533 1.376 . S
C530 C528 1.394 . S
C530 C531 1.369 . S
C530 C534 1.531 . S
C531 C530 1.369 . S
C531 C532 1.410 . S
C531 C539 1.503 . S
C532 C531 1.410 . S
C532 C533 1.392 . S
C532 C535 1.511 1_455 S
C533 C529 1.376 . S
C533 C532 1.392 . S
C533 H545 0.929 . S
C534 C530 1.531 . S
C534 H546 0.960 . S
C534 H547 0.962 . S
C534 H548 0.960 . S
C535 C532 1.511 1_655 S
C535 H549 0.961 . S
C535 H550 0.961 . S
C535 H551 0.961 . S
C536 C537 1.370 . S
C536 C538 1.363 . S
C536 H552 0.931 . S
C537 C536 1.370 . S
C537 C541 1.408 . S
C538 C536 1.363 . S
C538 C539 1.370 . S
C538 C542 1.524 . S
C539 C531 1.503 . S
C539 C538 1.370 . S
C539 C540 1.403 . S
C540 C539 1.403 . S
C540 C541 1.404 . S
C540 C543 1.539 . S
C541 C537 1.408 . S
C541 C540 1.404 . S
C541 H553 0.930 . S
C542 C538 1.524 . S
C542 H554 0.956 . S
C542 H555 0.961 . S
C542 H556 0.961 . S
C543 C540 1.539 . S
C543 H557 0.958 . S
C543 H558 0.961 . S
C543 H559 0.960 . S
H544 C528 0.931 . S
H545 C533 0.929 . S
H546 C534 0.960 . S
H547 C534 0.962 . S
H548 C534 0.960 . S
H549 C535 0.961 . S
H550 C535 0.961 . S
H551 C535 0.961 . S
H552 C536 0.931 . S
H553 C541 0.930 . S
H554 C542 0.956 . S
H555 C542 0.961 . S
H556 C542 0.961 . S
H557 C543 0.958 . S
H558 C543 0.961 . S
H559 C543 0.960 . S
C560 C561 1.391 1_455 S
C560 C562 1.394 . S
C560 H576 0.931 . S
C561 C560 1.391 1_655 S
C561 C565 1.376 . S
C562 C560 1.394 . S
C562 C563 1.369 1_455 S
C562 C566 1.531 . S
C563 C562 1.369 1_655 S
C563 C564 1.410 . S
C563 C571 1.503 . S
C564 C563 1.410 . S
C564 C565 1.392 . S
C564 C567 1.511 . S
C565 C561 1.376 . S
C565 C564 1.392 . S
C565 H577 0.929 . S
C566 C562 1.531 . S
C566 H578 0.960 . S
C566 H579 0.962 . S
C566 H580 0.960 . S
C567 C564 1.511 . S
C567 H581 0.961 . S
C567 H582 0.961 . S
C567 H583 0.961 . S
C568 C569 1.370 . S
C568 C570 1.363 . S
C568 H584 0.931 . S
C569 C568 1.370 . S
C569 C573 1.408 . S
C570 C568 1.363 . S
C570 C571 1.370 . S
C570 C574 1.524 1_655 S
C571 C563 1.503 . S
C571 C570 1.370 . S
C571 C572 1.403 . S
C572 C571 1.403 . S
C572 C573 1.404 . S
C572 C575 1.539 . S
C573 C569 1.408 . S
C573 C572 1.404 . S
C573 H585 0.930 . S
C574 C570 1.524 1_455 S
C574 H586 0.956 . S
C574 H587 0.961 1_455 S
C574 H588 0.961 . S
C575 C572 1.539 . S
C575 H589 0.958 . S
C575 H590 0.961 . S
C575 H591 0.960 . S
H576 C560 0.931 . S
H577 C565 0.929 . S
H578 C566 0.960 . S
H579 C566 0.962 . S
H580 C566 0.960 . S
H581 C567 0.961 . S
H582 C567 0.961 . S
H583 C567 0.961 . S
H584 C568 0.931 . S
H585 C573 0.930 . S
H586 C574 0.956 . S
H587 C574 0.961 1_655 S
H588 C574 0.961 . S
H589 C575 0.958 . S
H590 C575 0.961 . S
H591 C575 0.960 . S
C592 C593 1.391 . S
C592 C594 1.394 . S
C592 H608 0.931 . S
C593 C592 1.391 . S
C593 C597 1.376 . S
C594 C592 1.394 . S
C594 C595 1.369 . S
C594 C598 1.531 . S
C595 C594 1.369 . S
C595 C596 1.410 . S
C595 C603 1.503 . S
C596 C595 1.410 . S
C596 C597 1.392 . S
C596 C599 1.511 . S
C597 C593 1.376 . S
C597 C596 1.392 . S
C597 H609 0.929 . S
C598 C594 1.531 . S
C598 H610 0.960 . S
C598 H611 0.962 . S
C598 H612 0.960 . S
C599 C596 1.511 . S
C599 H613 0.961 . S
C599 H614 0.961 . S
C599 H615 0.961 . S
C600 C601 1.370 . S
C600 C602 1.363 . S
C600 H616 0.931 . S
C601 C600 1.370 . S
C601 C605 1.408 . S
C602 C600 1.363 . S
C602 C603 1.370 . S
C602 C606 1.524 . S
C603 C595 1.503 . S
C603 C602 1.370 . S
C603 C604 1.403 . S
C604 C603 1.403 . S
C604 C605 1.404 . S
C604 C607 1.539 . S
C605 C601 1.408 . S
C605 C604 1.404 . S
C605 H617 0.930 . S
C606 C602 1.524 . S
C606 H618 0.956 . S
C606 H619 0.961 . S
C606 H620 0.961 . S
C607 C604 1.539 . S
C607 H621 0.958 . S
C607 H622 0.961 . S
C607 H623 0.960 . S
H608 C592 0.931 . S
H609 C597 0.929 . S
H610 C598 0.960 . S
H611 C598 0.962 . S
H612 C598 0.960 . S
H613 C599 0.961 . S
H614 C599 0.961 . S
H615 C599 0.961 . S
H616 C600 0.931 . S
H617 C605 0.930 . S
H618 C606 0.956 . S
H619 C606 0.961 . S
H620 C606 0.961 . S
H621 C607 0.958 . S
H622 C607 0.961 . S
H623 C607 0.960 . S
C624 C625 1.391 . S
C624 C626 1.394 . S
C624 H640 0.931 . S
C625 C624 1.391 . S
C625 C629 1.376 . S
C626 C624 1.394 . S
C626 C627 1.369 . S
C626 C630 1.531 . S
C627 C626 1.369 . S
C627 C628 1.410 . S
C627 C635 1.503 . S
C628 C627 1.410 . S
C628 C629 1.392 . S
C628 C631 1.511 . S
C629 C625 1.376 . S
C629 C628 1.392 . S
C629 H641 0.929 . S
C630 C626 1.531 . S
C630 H642 0.960 . S
C630 H643 0.962 . S
C630 H644 0.960 . S
C631 C628 1.511 . S
C631 H645 0.961 . S
C631 H646 0.961 . S
C631 H647 0.961 . S
C632 C633 1.370 . S
C632 C634 1.363 . S
C632 H648 0.931 . S
C633 C632 1.370 . S
C633 C637 1.408 . S
C634 C632 1.363 . S
C634 C635 1.370 . S
C634 C638 1.524 . S
C635 C627 1.503 . S
C635 C634 1.370 . S
C635 C636 1.403 . S
C636 C635 1.403 . S
C636 C637 1.404 . S
C636 C639 1.539 . S
C637 C633 1.408 . S
C637 C636 1.404 . S
C637 H649 0.930 . S
C638 C634 1.524 . S
C638 H650 0.956 . S
C638 H651 0.961 . S
C638 H652 0.961 . S
C639 C636 1.539 . S
C639 H653 0.958 . S
C639 H654 0.961 . S
C639 H655 0.960 . S
H640 C624 0.931 . S
H641 C629 0.929 . S
H642 C630 0.960 . S
H643 C630 0.962 . S
H644 C630 0.960 . S
H645 C631 0.961 . S
H646 C631 0.961 . S
H647 C631 0.961 . S
H648 C632 0.931 . S
H649 C637 0.930 . S
H650 C638 0.956 . S
H651 C638 0.961 . S
H652 C638 0.961 . S
H653 C639 0.958 . S
H654 C639 0.961 . S
H655 C639 0.960 . S
C656 C657 1.391 . S
C656 C658 1.394 . S
C656 H672 0.931 . S
C657 C656 1.391 . S
C657 C661 1.376 . S
C658 C656 1.394 . S
C658 C659 1.369 . S
C658 C662 1.531 . S
C659 C658 1.369 . S
C659 C660 1.410 . S
C659 C667 1.503 . S
C660 C659 1.410 . S
C660 C661 1.392 . S
C660 C663 1.511 . S
C661 C657 1.376 . S
C661 C660 1.392 . S
C661 H673 0.929 . S
C662 C658 1.531 . S
C662 H674 0.960 . S
C662 H675 0.962 . S
C662 H676 0.960 . S
C663 C660 1.511 . S
C663 H677 0.961 . S
C663 H678 0.961 . S
C663 H679 0.961 . S
C664 C665 1.370 . S
C664 C666 1.363 . S
C664 H680 0.931 . S
C665 C664 1.370 . S
C665 C669 1.408 . S
C666 C664 1.363 . S
C666 C667 1.370 . S
C666 C670 1.524 . S
C667 C659 1.503 . S
C667 C666 1.370 . S
C667 C668 1.403 . S
C668 C667 1.403 . S
C668 C669 1.404 . S
C668 C671 1.539 . S
C669 C665 1.408 . S
C669 C668 1.404 . S
C669 H681 0.930 . S
C670 C666 1.524 . S
C670 H682 0.956 . S
C670 H683 0.961 . S
C670 H684 0.961 . S
C671 C668 1.539 . S
C671 H685 0.958 . S
C671 H686 0.961 . S
C671 H687 0.960 . S
H672 C656 0.931 . S
H673 C661 0.929 . S
H674 C662 0.960 . S
H675 C662 0.962 . S
H676 C662 0.960 . S
H677 C663 0.961 . S
H678 C663 0.961 . S
H679 C663 0.961 . S
H680 C664 0.931 . S
H681 C669 0.930 . S
H682 C670 0.956 . S
H683 C670 0.961 . S
H684 C670 0.961 . S
H685 C671 0.958 . S
H686 C671 0.961 . S
H687 C671 0.960 . S
C688 C689 1.391 . S
C688 C690 1.394 . S
C688 H704 0.931 . S
C689 C688 1.391 . S
C689 C693 1.376 . S
C690 C688 1.394 . S
C690 C691 1.369 . S
C690 C694 1.531 . S
C691 C690 1.369 . S
C691 C692 1.410 . S
C691 C699 1.503 . S
C692 C691 1.410 . S
C692 C693 1.392 . S
C692 C695 1.511 . S
C693 C689 1.376 . S
C693 C692 1.392 . S
C693 H705 0.929 . S
C694 C690 1.531 . S
C694 H706 0.960 . S
C694 H707 0.962 . S
C694 H708 0.960 . S
C695 C692 1.511 . S
C695 H709 0.961 . S
C695 H710 0.961 . S
C695 H711 0.961 . S
C696 C697 1.370 . S
C696 C698 1.363 . S
C696 H712 0.931 . S
C697 C696 1.370 . S
C697 C701 1.408 . S
C698 C696 1.363 . S
C698 C699 1.370 . S
C698 C702 1.524 . S
C699 C691 1.503 . S
C699 C698 1.370 . S
C699 C700 1.403 . S
C700 C699 1.403 . S
C700 C701 1.404 . S
C700 C703 1.539 . S
C701 C697 1.408 . S
C701 C700 1.404 . S
C701 H713 0.930 . S
C702 C698 1.524 . S
C702 H714 0.956 . S
C702 H715 0.961 . S
C702 H716 0.961 . S
C703 C700 1.539 . S
C703 H717 0.958 . S
C703 H718 0.961 . S
C703 H719 0.960 . S
H704 C688 0.931 . S
H705 C693 0.929 . S
H706 C694 0.960 . S
H707 C694 0.962 . S
H708 C694 0.960 . S
H709 C695 0.961 . S
H710 C695 0.961 . S
H711 C695 0.961 . S
H712 C696 0.931 . S
H713 C701 0.930 . S
H714 C702 0.956 . S
H715 C702 0.961 . S
H716 C702 0.961 . S
H717 C703 0.958 . S
H718 C703 0.961 . S
H719 C703 0.960 . S
C720 C721 1.391 . S
C720 C722 1.394 . S
C720 H736 0.931 . S
C721 C720 1.391 . S
C721 C725 1.376 . S
C722 C720 1.394 . S
C722 C723 1.369 . S
C722 C726 1.531 . S
C723 C722 1.369 . S
C723 C724 1.410 . S
C723 C731 1.503 1_554 S
C724 C723 1.410 . S
C724 C725 1.392 . S
C724 C727 1.511 1_554 S
C725 C721 1.376 . S
C725 C724 1.392 . S
C725 H737 0.929 . S
C726 C722 1.531 . S
C726 H738 0.960 . S
C726 H739 0.962 . S
C726 H740 0.960 . S
C727 C724 1.511 1_556 S
C727 H741 0.965 . S
C727 H742 0.961 . S
C727 H743 0.961 . S
C728 C729 1.370 . S
C728 C730 1.363 . S
C728 H744 0.931 . S
C729 C728 1.370 . S
C729 C733 1.408 . S
C730 C728 1.363 . S
C730 C731 1.370 . S
C730 C734 1.524 1_556 S
C731 C723 1.503 1_556 S
C731 C730 1.370 . S
C731 C732 1.403 . S
C732 C731 1.403 . S
C732 C733 1.404 . S
C732 C735 1.539 . S
C733 C729 1.408 . S
C733 C732 1.404 . S
C733 H745 0.930 . S
C734 C730 1.524 1_554 S
C734 H746 0.956 . S
C734 H747 0.961 . S
C734 H748 0.961 . S
C735 C732 1.539 . S
C735 H749 0.958 . S
C735 H750 0.961 . S
C735 H751 0.960 . S
H736 C720 0.931 . S
H737 C725 0.929 . S
H738 C726 0.960 . S
H739 C726 0.962 . S
H740 C726 0.960 . S
H741 C727 0.965 . S
H742 C727 0.961 . S
H743 C727 0.961 . S
H744 C728 0.931 . S
H745 C733 0.930 . S
H746 C734 0.956 . S
H747 C734 0.961 . S
H748 C734 0.961 . S
H749 C735 0.958 . S
H750 C735 0.961 . S
H751 C735 0.960 . S
C752 C753 1.391 . S
C752 C754 1.394 . S
C752 H768 0.931 . S
C753 C752 1.391 . S
C753 C757 1.376 . S
C754 C752 1.394 . S
C754 C755 1.369 . S
C754 C758 1.531 . S
C755 C754 1.369 . S
C755 C756 1.410 . S
C755 C763 1.503 . S
C756 C755 1.410 . S
C756 C757 1.392 . S
C756 C759 1.511 . S
C757 C753 1.376 . S
C757 C756 1.392 . S
C757 H769 0.929 . S
C758 C754 1.531 . S
C758 H770 0.960 . S
C758 H771 0.962 . S
C758 H772 0.960 . S
C759 C756 1.511 . S
C759 H773 0.961 . S
C759 H774 0.961 . S
C759 H775 0.961 . S
C760 C761 1.370 . S
C760 C762 1.363 . S
C760 H776 0.931 . S
C761 C760 1.370 . S
C761 C765 1.408 . S
C762 C760 1.363 . S
C762 C763 1.370 . S
C762 C766 1.524 . S
C763 C755 1.503 . S
C763 C762 1.370 . S
C763 C764 1.403 . S
C764 C763 1.403 . S
C764 C765 1.404 . S
C764 C767 1.539 . S
C765 C761 1.408 . S
C765 C764 1.404 . S
C765 H777 0.930 . S
C766 C762 1.524 . S
C766 H778 0.956 . S
C766 H779 0.961 . S
C766 H780 0.961 . S
C767 C764 1.539 . S
C767 H781 0.958 . S
C767 H782 0.961 . S
C767 H783 0.960 . S
H768 C752 0.931 . S
H769 C757 0.929 . S
H770 C758 0.960 . S
H771 C758 0.962 . S
H772 C758 0.960 . S
H773 C759 0.961 . S
H774 C759 0.961 . S
H775 C759 0.961 . S
H776 C760 0.931 . S
H777 C765 0.930 . S
H778 C766 0.956 . S
H779 C766 0.961 . S
H780 C766 0.961 . S
H781 C767 0.958 . S
H782 C767 0.961 . S
H783 C767 0.960 . S
C784 C785 1.391 . S
C784 C786 1.394 . S
C784 H800 0.931 . S
C785 C784 1.391 . S
C785 C789 1.376 . S
C786 C784 1.394 . S
C786 C787 1.369 1_554 S
C786 C790 1.531 . S
C787 C786 1.369 1_556 S
C787 C788 1.410 . S
C787 C795 1.503 . S
C788 C787 1.410 . S
C788 C789 1.392 1_556 S
C788 C791 1.511 . S
C789 C785 1.376 . S
C789 C788 1.392 1_554 S
C789 H801 0.929 . S
C790 C786 1.531 . S
C790 H802 0.960 1_554 S
C790 H803 0.962 . S
C790 H804 0.960 . S
C791 C788 1.511 . S
C791 H805 0.961 . S
C791 H806 0.961 . S
C791 H807 0.961 . S
C792 C793 1.370 . S
C792 C794 1.363 . S
C792 H808 0.931 . S
C793 C792 1.370 . S
C793 C797 1.408 . S
C794 C792 1.363 . S
C794 C795 1.370 . S
C794 C798 1.524 . S
C795 C787 1.503 . S
C795 C794 1.370 . S
C795 C796 1.403 . S
C796 C795 1.403 . S
C796 C797 1.404 . S
C796 C799 1.539 . S
C797 C793 1.408 . S
C797 C796 1.404 . S
C797 H809 0.930 . S
C798 C794 1.524 . S
C798 H810 0.956 . S
C798 H811 0.961 . S
C798 H812 0.961 . S
C799 C796 1.539 . S
C799 H813 0.958 . S
C799 H814 0.961 . S
C799 H815 0.960 . S
H800 C784 0.931 . S
H801 C789 0.929 . S
H802 C790 0.960 1_556 S
H803 C790 0.962 . S
H804 C790 0.960 . S
H805 C791 0.961 . S
H806 C791 0.961 . S
H807 C791 0.961 . S
H808 C792 0.931 . S
H809 C797 0.930 . S
H810 C798 0.956 . S
H811 C798 0.961 . S
H812 C798 0.961 . S
H813 C799 0.958 . S
H814 C799 0.961 . S
H815 C799 0.960 . S
C816 C817 1.391 . S
C816 C818 1.394 . S
C816 H832 0.931 . S
C817 C816 1.391 . S
C817 C821 1.376 . S
C818 C816 1.394 . S
C818 C819 1.369 . S
C818 C822 1.531 . S
C819 C818 1.369 . S
C819 C820 1.410 . S
C819 C827 1.503 . S
C820 C819 1.410 . S
C820 C821 1.392 . S
C820 C823 1.511 . S
C821 C817 1.376 . S
C821 C820 1.392 . S
C821 H833 0.929 . S
C822 C818 1.531 . S
C822 H834 0.960 . S
C822 H835 0.962 . S
C822 H836 0.960 . S
C823 C820 1.511 . S
C823 H837 0.961 . S
C823 H838 0.961 . S
C823 H839 0.961 . S
C824 C825 1.370 . S
C824 C826 1.363 . S
C824 H840 0.931 . S
C825 C824 1.370 . S
C825 C829 1.408 . S
C826 C824 1.363 . S
C826 C827 1.370 . S
C826 C830 1.524 . S
C827 C819 1.503 . S
C827 C826 1.370 . S
C827 C828 1.403 . S
C828 C827 1.403 . S
C828 C829 1.404 . S
C828 C831 1.539 . S
C829 C825 1.408 . S
C829 C828 1.404 . S
C829 H841 0.930 . S
C830 C826 1.524 . S
C830 H842 0.956 . S
C830 H843 0.961 . S
C830 H844 0.961 . S
C831 C828 1.539 . S
C831 H845 0.958 . S
C831 H846 0.961 . S
C831 H847 0.960 . S
H832 C816 0.931 . S
H833 C821 0.929 . S
H834 C822 0.960 . S
H835 C822 0.962 . S
H836 C822 0.960 . S
H837 C823 0.961 . S
H838 C823 0.961 . S
H839 C823 0.961 . S
H840 C824 0.931 . S
H841 C829 0.930 . S
H842 C830 0.956 . S
H843 C830 0.961 . S
H844 C830 0.961 . S
H845 C831 0.958 . S
H846 C831 0.961 . S
H847 C831 0.960 . S
C848 C849 1.391 . S
C848 C850 1.394 . S
C848 H864 0.931 . S
C849 C848 1.391 . S
C849 C853 1.376 . S
C850 C848 1.394 . S
C850 C851 1.369 . S
C850 C854 1.531 . S
C851 C850 1.369 . S
C851 C852 1.410 . S
C851 C859 1.503 . S
C852 C851 1.410 . S
C852 C853 1.392 . S
C852 C855 1.511 . S
C853 C849 1.376 . S
C853 C852 1.392 . S
C853 H865 0.929 . S
C854 C850 1.531 . S
C854 H866 0.960 . S
C854 H867 0.962 . S
C854 H868 0.960 . S
C855 C852 1.511 . S
C855 H869 0.961 . S
C855 H870 0.961 . S
C855 H871 0.961 . S
C856 C857 1.370 . S
C856 C858 1.363 . S
C856 H872 0.931 . S
C857 C856 1.370 . S
C857 C861 1.408 . S
C858 C856 1.363 . S
C858 C859 1.370 . S
C858 C862 1.524 . S
C859 C851 1.503 . S
C859 C858 1.370 . S
C859 C860 1.403 . S
C860 C859 1.403 . S
C860 C861 1.404 . S
C860 C863 1.539 . S
C861 C857 1.408 . S
C861 C860 1.404 . S
C861 H873 0.930 . S
C862 C858 1.524 . S
C862 H874 0.956 . S
C862 H875 0.961 . S
C862 H876 0.961 . S
C863 C860 1.539 . S
C863 H877 0.958 . S
C863 H878 0.961 . S
C863 H879 0.960 . S
H864 C848 0.931 . S
H865 C853 0.929 . S
H866 C854 0.960 . S
H867 C854 0.962 . S
H868 C854 0.960 . S
H869 C855 0.961 . S
H870 C855 0.961 . S
H871 C855 0.961 . S
H872 C856 0.931 . S
H873 C861 0.930 . S
H874 C862 0.956 . S
H875 C862 0.961 . S
H876 C862 0.961 . S
H877 C863 0.958 . S
H878 C863 0.961 . S
H879 C863 0.960 . S
C880 C881 1.391 . S
C880 C882 1.394 . S
C880 H896 0.931 . S
C881 C880 1.391 . S
C881 C885 1.376 . S
C882 C880 1.394 . S
C882 C883 1.369 . S
C882 C886 1.531 . S
C883 C882 1.369 . S
C883 C884 1.410 . S
C883 C891 1.503 . S
C884 C883 1.410 . S
C884 C885 1.392 . S
C884 C887 1.511 . S
C885 C881 1.376 . S
C885 C884 1.392 . S
C885 H897 0.929 . S
C886 C882 1.531 . S
C886 H898 0.960 . S
C886 H899 0.962 . S
C886 H900 0.960 . S
C887 C884 1.511 . S
C887 H901 0.961 . S
C887 H902 0.961 . S
C887 H903 0.961 . S
C888 C889 1.370 . S
C888 C890 1.363 . S
C888 H904 0.931 . S
C889 C888 1.370 . S
C889 C893 1.408 . S
C890 C888 1.363 . S
C890 C891 1.370 . S
C890 C894 1.524 . S
C891 C883 1.503 . S
C891 C890 1.370 . S
C891 C892 1.403 . S
C892 C891 1.403 . S
C892 C893 1.404 . S
C892 C895 1.539 . S
C893 C889 1.408 . S
C893 C892 1.404 . S
C893 H905 0.930 . S
C894 C890 1.524 . S
C894 H906 0.956 . S
C894 H907 0.961 . S
C894 H908 0.961 . S
C895 C892 1.539 . S
C895 H909 0.958 . S
C895 H910 0.961 . S
C895 H911 0.960 . S
H896 C880 0.931 . S
H897 C885 0.929 . S
H898 C886 0.960 . S
H899 C886 0.962 . S
H900 C886 0.960 . S
H901 C887 0.961 . S
H902 C887 0.961 . S
H903 C887 0.961 . S
H904 C888 0.931 . S
H905 C893 0.930 . S
H906 C894 0.956 . S
H907 C894 0.961 . S
H908 C894 0.961 . S
H909 C895 0.958 . S
H910 C895 0.961 . S
H911 C895 0.960 . S
C912 C913 1.391 . S
C912 C914 1.394 . S
C912 H928 0.931 . S
C913 C912 1.391 . S
C913 C917 1.376 . S
C914 C912 1.394 . S
C914 C915 1.369 . S
C914 C918 1.531 . S
C915 C914 1.369 . S
C915 C916 1.410 . S
C915 C923 1.503 . S
C916 C915 1.410 . S
C916 C917 1.392 . S
C916 C919 1.511 . S
C917 C913 1.376 . S
C917 C916 1.392 . S
C917 H929 0.929 . S
C918 C914 1.531 . S
C918 H930 0.960 . S
C918 H931 0.962 . S
C918 H932 0.960 . S
C919 C916 1.511 . S
C919 H933 0.961 . S
C919 H934 0.961 . S
C919 H935 0.961 . S
C920 C921 1.370 . S
C920 C922 1.363 1_565 S
C920 H936 0.931 . S
C921 C920 1.370 . S
C921 C925 1.408 . S
C922 C920 1.363 1_545 S
C922 C923 1.370 . S
C922 C926 1.524 . S
C923 C915 1.503 . S
C923 C922 1.370 . S
C923 C924 1.403 1_545 S
C924 C923 1.403 1_565 S
C924 C925 1.404 . S
C924 C927 1.539 . S
C925 C921 1.408 . S
C925 C924 1.404 . S
C925 H937 0.930 . S
C926 C922 1.524 . S
C926 H938 0.956 . S
C926 H939 0.961 . S
C926 H940 0.961 . S
C927 C924 1.539 . S
C927 H941 0.958 . S
C927 H942 0.961 . S
C927 H943 0.966 . S
H928 C912 0.931 . S
H929 C917 0.929 . S
H930 C918 0.960 . S
H931 C918 0.962 . S
H932 C918 0.960 . S
H933 C919 0.961 . S
H934 C919 0.961 . S
H935 C919 0.961 . S
H936 C920 0.931 . S
H937 C925 0.930 . S
H938 C926 0.956 . S
H939 C926 0.961 . S
H940 C926 0.961 . S
H941 C927 0.958 . S
H942 C927 0.961 . S
H943 C927 0.966 . S
C944 C945 1.391 . S
C944 C946 1.394 . S
C944 H960 0.931 . S
C945 C944 1.391 . S
C945 C949 1.376 . S
C946 C944 1.394 . S
C946 C947 1.369 . S
C946 C950 1.531 . S
C947 C946 1.369 . S
C947 C948 1.410 . S
C947 C955 1.503 . S
C948 C947 1.410 . S
C948 C949 1.392 . S
C948 C951 1.511 . S
C949 C945 1.376 . S
C949 C948 1.392 . S
C949 H961 0.929 . S
C950 C946 1.531 . S
C950 H962 0.960 . S
C950 H963 0.962 . S
C950 H964 0.960 . S
C951 C948 1.511 . S
C951 H965 0.961 . S
C951 H966 0.961 . S
C951 H967 0.961 . S
C952 C953 1.370 . S
C952 C954 1.363 . S
C952 H968 0.931 . S
C953 C952 1.370 . S
C953 C957 1.408 . S
C954 C952 1.363 . S
C954 C955 1.370 . S
C954 C958 1.524 . S
C955 C947 1.503 . S
C955 C954 1.370 . S
C955 C956 1.403 . S
C956 C955 1.403 . S
C956 C957 1.404 . S
C956 C959 1.539 . S
C957 C953 1.408 . S
C957 C956 1.404 . S
C957 H969 0.930 . S
C958 C954 1.524 . S
C958 H970 0.956 . S
C958 H971 0.961 . S
C958 H972 0.961 . S
C959 C956 1.539 . S
C959 H973 0.958 . S
C959 H974 0.961 . S
C959 H975 0.960 . S
H960 C944 0.931 . S
H961 C949 0.929 . S
H962 C950 0.960 . S
H963 C950 0.962 . S
H964 C950 0.960 . S
H965 C951 0.961 . S
H966 C951 0.961 . S
H967 C951 0.961 . S
H968 C952 0.931 . S
H969 C957 0.930 . S
H970 C958 0.956 . S
H971 C958 0.961 . S
H972 C958 0.961 . S
H973 C959 0.958 . S
H974 C959 0.961 . S
H975 C959 0.960 . S
C976 C977 1.391 . S
C976 C978 1.394 . S
C976 H992 0.931 . S
C977 C976 1.391 . S
C977 C981 1.376 . S
C978 C976 1.394 . S
C978 C979 1.369 . S
C978 C982 1.531 . S
C979 C978 1.369 . S
C979 C980 1.410 1_545 S
C979 C987 1.503 1_545 S
C980 C979 1.410 1_565 S
C980 C981 1.392 1_565 S
C980 C983 1.511 . S
C981 C977 1.376 . S
C981 C980 1.392 1_545 S
C981 H993 0.929 . S
C982 C978 1.531 . S
C982 H994 0.960 . S
C982 H995 0.962 . S
C982 H996 0.960 . S
C983 C980 1.511 . S
C983 H997 0.961 . S
C983 H998 0.961 . S
C983 H999 0.961 . S
C984 C985 1.370 . S
C984 C986 1.363 . S
C984 H1000 0.931 . S
C985 C984 1.370 . S
C985 C989 1.408 . S
C986 C984 1.363 . S
C986 C987 1.370 . S
C986 C990 1.524 . S
C987 C979 1.503 1_565 S
C987 C986 1.370 . S
C987 C988 1.403 . S
C988 C987 1.403 . S
C988 C989 1.404 . S
C988 C991 1.539 . S
C989 C985 1.408 . S
C989 C988 1.404 . S
C989 H1001 0.930 . S
C990 C986 1.524 . S
C990 H1002 0.956 . S
C990 H1003 0.961 . S
C990 H1004 0.961 . S
C991 C988 1.539 . S
C991 H1005 0.978 . S
C991 H1006 0.961 . S
C991 H1007 0.960 . S
H992 C976 0.931 . S
H993 C981 0.929 . S
H994 C982 0.960 . S
H995 C982 0.962 . S
H996 C982 0.960 . S
H997 C983 0.961 . S
H998 C983 0.961 . S
H999 C983 0.961 . S
H1000 C984 0.931 . S
H1001 C989 0.930 . S
H1002 C990 0.956 . S
H1003 C990 0.961 . S
H1004 C990 0.961 . S
H1005 C991 0.978 . S
H1006 C991 0.961 . S
H1007 C991 0.960 . S
C1008 C1009 1.391 . S
C1008 C1010 1.394 . S
C1008 H1024 0.931 . S
C1009 C1008 1.391 . S
C1009 C1013 1.376 . S
C1010 C1008 1.394 . S
C1010 C1011 1.369 . S
C1010 C1014 1.531 . S
C1011 C1010 1.369 . S
C1011 C1012 1.410 . S
C1011 C1019 1.503 . S
C1012 C1011 1.410 . S
C1012 C1013 1.392 . S
C1012 C1015 1.511 . S
C1013 C1009 1.376 . S
C1013 C1012 1.392 . S
C1013 H1025 0.929 . S
C1014 C1010 1.531 . S
C1014 H1026 0.960 . S
C1014 H1027 0.962 . S
C1014 H1028 0.960 . S
C1015 C1012 1.511 . S
C1015 H1029 0.961 . S
C1015 H1030 0.961 . S
C1015 H1031 0.961 . S
C1016 C1017 1.370 . S
C1016 C1018 1.363 . S
C1016 H1032 0.931 . S
C1017 C1016 1.370 . S
C1017 C1021 1.408 . S
C1018 C1016 1.363 . S
C1018 C1019 1.370 . S
C1018 C1022 1.524 . S
C1019 C1011 1.503 . S
C1019 C1018 1.370 . S
C1019 C1020 1.403 . S
C1020 C1019 1.403 . S
C1020 C1021 1.404 . S
C1020 C1023 1.539 . S
C1021 C1017 1.408 . S
C1021 C1020 1.404 . S
C1021 H1033 0.930 . S
C1022 C1018 1.524 . S
C1022 H1034 0.956 . S
C1022 H1035 0.961 . S
C1022 H1036 0.961 . S
C1023 C1020 1.539 . S
C1023 H1037 0.958 . S
C1023 H1038 0.961 . S
C1023 H1039 0.960 . S
H1024 C1008 0.931 . S
H1025 C1013 0.929 . S
H1026 C1014 0.960 . S
H1027 C1014 0.962 . S
H1028 C1014 0.960 . S
H1029 C1015 0.961 . S
H1030 C1015 0.961 . S
H1031 C1015 0.961 . S
H1032 C1016 0.931 . S
H1033 C1021 0.930 . S
H1034 C1022 0.956 . S
H1035 C1022 0.961 . S
H1036 C1022 0.961 . S
H1037 C1023 0.958 . S
H1038 C1023 0.961 . S
H1039 C1023 0.960 . S
C1040 C1041 1.391 . S
C1040 C1042 1.394 . S
C1040 H1056 0.931 . S
C1041 C1040 1.391 . S
C1041 C1045 1.376 . S
C1042 C1040 1.394 . S
C1042 C1043 1.369 . S
C1042 C1046 1.531 . S
C1043 C1042 1.369 . S
C1043 C1044 1.410 . S
C1043 C1051 1.503 . S
C1044 C1043 1.410 . S
C1044 C1045 1.392 . S
C1044 C1047 1.511 . S
C1045 C1041 1.376 . S
C1045 C1044 1.392 . S
C1045 H1057 0.929 . S
C1046 C1042 1.531 . S
C1046 H1058 0.960 . S
C1046 H1059 0.962 . S
C1046 H1060 0.960 . S
C1047 C1044 1.511 . S
C1047 H1061 0.961 . S
C1047 H1062 0.961 . S
C1047 H1063 0.961 . S
C1048 C1049 1.370 . S
C1048 C1050 1.363 . S
C1048 H1064 0.931 . S
C1049 C1048 1.370 . S
C1049 C1053 1.408 . S
C1050 C1048 1.363 . S
C1050 C1051 1.370 . S
C1050 C1054 1.524 . S
C1051 C1043 1.503 . S
C1051 C1050 1.370 . S
C1051 C1052 1.403 . S
C1052 C1051 1.403 . S
C1052 C1053 1.404 . S
C1052 C1055 1.539 . S
C1053 C1049 1.408 . S
C1053 C1052 1.404 . S
C1053 H1065 0.930 . S
C1054 C1050 1.524 . S
C1054 H1066 0.956 . S
C1054 H1067 0.961 . S
C1054 H1068 0.961 . S
C1055 C1052 1.539 . S
C1055 H1069 0.958 . S
C1055 H1070 0.961 . S
C1055 H1071 0.960 . S
H1056 C1040 0.931 . S
H1057 C1045 0.929 . S
H1058 C1046 0.960 . S
H1059 C1046 0.962 . S
H1060 C1046 0.960 . S
H1061 C1047 0.961 . S
H1062 C1047 0.961 . S
H1063 C1047 0.961 . S
H1064 C1048 0.931 . S
H1065 C1053 0.930 . S
H1066 C1054 0.956 . S
H1067 C1054 0.961 . S
H1068 C1054 0.961 . S
H1069 C1055 0.958 . S
H1070 C1055 0.961 . S
H1071 C1055 0.960 . S
C1072 C1073 1.391 . S
C1072 C1074 1.394 . S
C1072 H1088 0.931 . S
C1073 C1072 1.391 . S
C1073 C1077 1.376 . S
C1074 C1072 1.394 . S
C1074 C1075 1.369 . S
C1074 C1078 1.531 . S
C1075 C1074 1.369 . S
C1075 C1076 1.410 . S
C1075 C1083 1.503 . S
C1076 C1075 1.410 . S
C1076 C1077 1.392 . S
C1076 C1079 1.511 . S
C1077 C1073 1.376 . S
C1077 C1076 1.392 . S
C1077 H1089 0.929 . S
C1078 C1074 1.531 . S
C1078 H1090 0.960 . S
C1078 H1091 0.962 . S
C1078 H1092 0.960 . S
C1079 C1076 1.511 . S
C1079 H1093 0.961 . S
C1079 H1094 0.961 . S
C1079 H1095 0.961 . S
C1080 C1081 1.370 . S
C1080 C1082 1.363 . S
C1080 H1096 0.931 . S
C1081 C1080 1.370 . S
C1081 C1085 1.408 . S
C1082 C1080 1.363 . S
C1082 C1083 1.370 . S
C1082 C1086 1.524 . S
C1083 C1075 1.503 . S
C1083 C1082 1.370 . S
C1083 C1084 1.403 . S
C1084 C1083 1.403 . S
C1084 C1085 1.404 . S
C1084 C1087 1.539 . S
C1085 C1081 1.408 . S
C1085 C1084 1.404 . S
C1085 H1097 0.930 . S
C1086 C1082 1.524 . S
C1086 H1098 0.956 . S
C1086 H1099 0.961 . S
C1086 H1100 0.961 . S
C1087 C1084 1.539 . S
C1087 H1101 0.958 . S
C1087 H1102 0.961 . S
C1087 H1103 0.960 . S
H1088 C1072 0.931 . S
H1089 C1077 0.929 . S
H1090 C1078 0.960 . S
H1091 C1078 0.962 . S
H1092 C1078 0.960 . S
H1093 C1079 0.961 . S
H1094 C1079 0.961 . S
H1095 C1079 0.961 . S
H1096 C1080 0.931 . S
H1097 C1085 0.930 . S
H1098 C1086 0.956 . S
H1099 C1086 0.961 . S
H1100 C1086 0.961 . S
H1101 C1087 0.958 . S
H1102 C1087 0.961 . S
H1103 C1087 0.960 . S
C1104 C1105 1.391 . S
C1104 C1106 1.394 . S
C1104 H1120 0.931 . S
C1105 C1104 1.391 . S
C1105 C1109 1.376 . S
C1106 C1104 1.394 . S
C1106 C1107 1.369 . S
C1106 C1110 1.531 . S
C1107 C1106 1.369 . S
C1107 C1108 1.410 . S
C1107 C1115 1.503 . S
C1108 C1107 1.410 . S
C1108 C1109 1.392 . S
C1108 C1111 1.511 . S
C1109 C1105 1.376 . S
C1109 C1108 1.392 . S
C1109 H1121 0.929 . S
C1110 C1106 1.531 . S
C1110 H1122 0.960 . S
C1110 H1123 0.962 . S
C1110 H1124 0.960 . S
C1111 C1108 1.511 . S
C1111 H1125 0.961 . S
C1111 H1126 0.961 . S
C1111 H1127 0.961 . S
C1112 C1113 1.370 . S
C1112 C1114 1.363 . S
C1112 H1128 0.931 . S
C1113 C1112 1.370 . S
C1113 C1117 1.408 . S
C1114 C1112 1.363 . S
C1114 C1115 1.370 . S
C1114 C1118 1.524 . S
C1115 C1107 1.503 . S
C1115 C1114 1.370 . S
C1115 C1116 1.403 . S
C1116 C1115 1.403 . S
C1116 C1117 1.404 . S
C1116 C1119 1.539 . S
C1117 C1113 1.408 . S
C1117 C1116 1.404 . S
C1117 H1129 0.930 . S
C1118 C1114 1.524 . S
C1118 H1130 0.956 . S
C1118 H1131 0.961 . S
C1118 H1132 0.961 . S
C1119 C1116 1.539 . S
C1119 H1133 0.958 . S
C1119 H1134 0.961 . S
C1119 H1135 0.960 . S
H1120 C1104 0.931 . S
H1121 C1109 0.929 . S
H1122 C1110 0.960 . S
H1123 C1110 0.962 . S
H1124 C1110 0.960 . S
H1125 C1111 0.961 . S
H1126 C1111 0.961 . S
H1127 C1111 0.961 . S
H1128 C1112 0.931 . S
H1129 C1117 0.930 . S
H1130 C1118 0.956 . S
H1131 C1118 0.961 . S
H1132 C1118 0.961 . S
H1133 C1119 0.958 . S
H1134 C1119 0.961 . S
H1135 C1119 0.960 . S
C1136 C1137 1.391 . S
C1136 C1138 1.394 . S
C1136 H1152 0.931 . S
C1137 C1136 1.391 . S
C1137 C1141 1.376 . S
C1138 C1136 1.394 . S
C1138 C1139 1.369 . S
C1138 C1142 1.531 . S
C1139 C1138 1.369 . S
C1139 C1140 1.410 . S
C1139 C1147 1.503 . S
C1140 C1139 1.410 . S
C1140 C1141 1.392 . S
C1140 C1143 1.511 . S
C1141 C1137 1.376 . S
C1141 C1140 1.392 . S
C1141 H1153 0.929 . S
C1142 C1138 1.531 . S
C1142 H1154 0.960 . S
C1142 H1155 0.962 . S
C1142 H1156 0.960 . S
C1143 C1140 1.511 . S
C1143 H1157 0.961 . S
C1143 H1158 0.961 . S
C1143 H1159 0.961 . S
C1144 C1145 1.370 . S
C1144 C1146 1.363 . S
C1144 H1160 0.931 . S
C1145 C1144 1.370 . S
C1145 C1149 1.408 . S
C1146 C1144 1.363 . S
C1146 C1147 1.370 . S
C1146 C1150 1.524 . S
C1147 C1139 1.503 . S
C1147 C1146 1.370 . S
C1147 C1148 1.403 . S
C1148 C1147 1.403 . S
C1148 C1149 1.404 . S
C1148 C1151 1.539 . S
C1149 C1145 1.408 . S
C1149 C1148 1.404 . S
C1149 H1161 0.930 . S
C1150 C1146 1.524 . S
C1150 H1162 0.956 . S
C1150 H1163 0.961 . S
C1150 H1164 0.961 . S
C1151 C1148 1.539 . S
C1151 H1165 0.958 . S
C1151 H1166 0.961 . S
C1151 H1167 0.960 . S
H1152 C1136 0.931 . S
H1153 C1141 0.929 . S
H1154 C1142 0.960 . S
H1155 C1142 0.962 . S
H1156 C1142 0.960 . S
H1157 C1143 0.961 . S
H1158 C1143 0.961 . S
H1159 C1143 0.961 . S
H1160 C1144 0.931 . S
H1161 C1149 0.930 . S
H1162 C1150 0.956 . S
H1163 C1150 0.961 . S
H1164 C1150 0.961 . S
H1165 C1151 0.958 . S
H1166 C1151 0.961 . S
H1167 C1151 0.960 . S
C1168 C1169 1.391 . S
C1168 C1170 1.394 . S
C1168 H1184 0.931 . S
C1169 C1168 1.391 . S
C1169 C1173 1.376 . S
C1170 C1168 1.394 . S
C1170 C1171 1.369 . S
C1170 C1174 1.531 . S
C1171 C1170 1.369 . S
C1171 C1172 1.410 . S
C1171 C1179 1.503 . S
C1172 C1171 1.410 . S
C1172 C1173 1.392 . S
C1172 C1175 1.511 . S
C1173 C1169 1.376 . S
C1173 C1172 1.392 . S
C1173 H1185 0.929 . S
C1174 C1170 1.531 . S
C1174 H1186 0.960 . S
C1174 H1187 0.962 . S
C1174 H1188 0.960 . S
C1175 C1172 1.511 . S
C1175 H1189 0.961 . S
C1175 H1190 0.961 . S
C1175 H1191 0.961 . S
C1176 C1177 1.370 . S
C1176 C1178 1.363 . S
C1176 H1192 0.931 . S
C1177 C1176 1.370 . S
C1177 C1181 1.408 . S
C1178 C1176 1.363 . S
C1178 C1179 1.370 . S
C1178 C1182 1.524 . S
C1179 C1171 1.503 . S
C1179 C1178 1.370 . S
C1179 C1180 1.403 . S
C1180 C1179 1.403 . S
C1180 C1181 1.404 . S
C1180 C1183 1.539 . S
C1181 C1177 1.408 . S
C1181 C1180 1.404 . S
C1181 H1193 0.930 . S
C1182 C1178 1.524 . S
C1182 H1194 0.956 . S
C1182 H1195 0.961 . S
C1182 H1196 0.961 . S
C1183 C1180 1.539 . S
C1183 H1197 0.958 . S
C1183 H1198 0.961 . S
C1183 H1199 0.960 . S
H1184 C1168 0.931 . S
H1185 C1173 0.929 . S
H1186 C1174 0.960 . S
H1187 C1174 0.962 . S
H1188 C1174 0.960 . S
H1189 C1175 0.961 . S
H1190 C1175 0.961 . S
H1191 C1175 0.961 . S
H1192 C1176 0.931 . S
H1193 C1181 0.930 . S
H1194 C1182 0.956 . S
H1195 C1182 0.961 . S
H1196 C1182 0.961 . S
H1197 C1183 0.958 . S
H1198 C1183 0.961 . S
H1199 C1183 0.960 . S
C1200 C1201 1.391 . S
C1200 C1202 1.394 . S
C1200 H1216 0.931 . S
C1201 C1200 1.391 . S
C1201 C1205 1.376 . S
C1202 C1200 1.394 . S
C1202 C1203 1.369 . S
C1202 C1206 1.531 . S
C1203 C1202 1.369 . S
C1203 C1204 1.410 . S
C1203 C1211 1.503 . S
C1204 C1203 1.410 . S
C1204 C1205 1.392 . S
C1204 C1207 1.511 . S
C1205 C1201 1.376 . S
C1205 C1204 1.392 . S
C1205 H1217 0.929 . S
C1206 C1202 1.531 . S
C1206 H1218 0.960 . S
C1206 H1219 0.962 . S
C1206 H1220 0.960 . S
C1207 C1204 1.511 . S
C1207 H1221 0.961 . S
C1207 H1222 0.961 . S
C1207 H1223 0.961 . S
C1208 C1209 1.370 . S
C1208 C1210 1.363 1_655 S
C1208 H1224 0.931 . S
C1209 C1208 1.370 . S
C1209 C1213 1.408 . S
C1210 C1208 1.363 1_455 S
C1210 C1211 1.370 . S
C1210 C1214 1.524 . S
C1211 C1203 1.503 . S
C1211 C1210 1.370 . S
C1211 C1212 1.403 . S
C1212 C1211 1.403 . S
C1212 C1213 1.404 1_455 S
C1212 C1215 1.539 . S
C1213 C1209 1.408 . S
C1213 C1212 1.404 1_655 S
C1213 H1225 0.930 . S
C1214 C1210 1.524 . S
C1214 H1226 0.956 . S
C1214 H1227 0.961 . S
C1214 H1228 0.961 . S
C1215 C1212 1.539 . S
C1215 H1229 0.958 1_554 S
C1215 H1230 0.971 . S
C1215 H1231 0.960 . S
H1216 C1200 0.931 . S
H1217 C1205 0.929 . S
H1218 C1206 0.960 . S
H1219 C1206 0.962 . S
H1220 C1206 0.960 . S
H1221 C1207 0.961 . S
H1222 C1207 0.961 . S
H1223 C1207 0.961 . S
H1224 C1208 0.931 . S
H1225 C1213 0.930 . S
H1226 C1214 0.956 . S
H1227 C1214 0.961 . S
H1228 C1214 0.961 . S
H1229 C1215 0.958 1_556 S
H1230 C1215 0.971 . S
H1231 C1215 0.960 . S
C1232 C1233 1.391 . S
C1232 C1234 1.394 . S
C1232 H1248 0.931 . S
C1233 C1232 1.391 . S
C1233 C1237 1.376 . S
C1234 C1232 1.394 . S
C1234 C1235 1.369 . S
C1234 C1238 1.531 . S
C1235 C1234 1.369 . S
C1235 C1236 1.410 . S
C1235 C1243 1.503 . S
C1236 C1235 1.410 . S
C1236 C1237 1.392 . S
C1236 C1239 1.511 . S
C1237 C1233 1.376 . S
C1237 C1236 1.392 . S
C1237 H1249 0.929 . S
C1238 C1234 1.531 . S
C1238 H1250 0.960 . S
C1238 H1251 0.962 . S
C1238 H1252 0.960 . S
C1239 C1236 1.511 . S
C1239 H1253 0.961 . S
C1239 H1254 0.961 . S
C1239 H1255 0.961 . S
C1240 C1241 1.370 . S
C1240 C1242 1.363 . S
C1240 H1256 0.931 . S
C1241 C1240 1.370 . S
C1241 C1245 1.408 . S
C1242 C1240 1.363 . S
C1242 C1243 1.370 . S
C1242 C1246 1.524 . S
C1243 C1235 1.503 . S
C1243 C1242 1.370 . S
C1243 C1244 1.403 . S
C1244 C1243 1.403 . S
C1244 C1245 1.404 . S
C1244 C1247 1.539 . S
C1245 C1241 1.408 . S
C1245 C1244 1.404 . S
C1245 H1257 0.930 . S
C1246 C1242 1.524 . S
C1246 H1258 0.956 . S
C1246 H1259 0.961 . S
C1246 H1260 0.961 . S
C1247 C1244 1.539 . S
C1247 H1261 0.958 . S
C1247 H1262 0.961 . S
C1247 H1263 0.960 . S
H1248 C1232 0.931 . S
H1249 C1237 0.929 . S
H1250 C1238 0.960 . S
H1251 C1238 0.962 . S
H1252 C1238 0.960 . S
H1253 C1239 0.961 . S
H1254 C1239 0.961 . S
H1255 C1239 0.961 . S
H1256 C1240 0.931 . S
H1257 C1245 0.930 . S
H1258 C1246 0.956 . S
H1259 C1246 0.961 . S
H1260 C1246 0.961 . S
H1261 C1247 0.958 . S
H1262 C1247 0.961 . S
H1263 C1247 0.960 . S
C1264 C1265 1.391 . S
C1264 C1266 1.394 . S
C1264 H1280 0.931 . S
C1265 C1264 1.391 . S
C1265 C1269 1.376 . S
C1266 C1264 1.394 . S
C1266 C1267 1.369 . S
C1266 C1270 1.531 . S
C1267 C1266 1.369 . S
C1267 C1268 1.410 . S
C1267 C1275 1.503 . S
C1268 C1267 1.410 . S
C1268 C1269 1.392 . S
C1268 C1271 1.511 . S
C1269 C1265 1.376 . S
C1269 C1268 1.392 . S
C1269 H1281 0.929 . S
C1270 C1266 1.531 . S
C1270 H1282 0.960 . S
C1270 H1283 0.962 . S
C1270 H1284 0.960 . S
C1271 C1268 1.511 . S
C1271 H1285 0.961 . S
C1271 H1286 0.961 . S
C1271 H1287 0.961 . S
C1272 C1273 1.370 . S
C1272 C1274 1.363 . S
C1272 H1288 0.931 . S
C1273 C1272 1.370 . S
C1273 C1277 1.408 . S
C1274 C1272 1.363 . S
C1274 C1275 1.370 . S
C1274 C1278 1.524 . S
C1275 C1267 1.503 . S
C1275 C1274 1.370 . S
C1275 C1276 1.403 . S
C1276 C1275 1.403 . S
C1276 C1277 1.404 . S
C1276 C1279 1.539 . S
C1277 C1273 1.408 . S
C1277 C1276 1.404 . S
C1277 H1289 0.930 . S
C1278 C1274 1.524 . S
C1278 H1290 0.956 . S
C1278 H1291 0.961 . S
C1278 H1292 0.961 . S
C1279 C1276 1.539 . S
C1279 H1293 0.958 . S
C1279 H1294 0.961 . S
C1279 H1295 0.960 . S
H1280 C1264 0.931 . S
H1281 C1269 0.929 . S
H1282 C1270 0.960 . S
H1283 C1270 0.962 . S
H1284 C1270 0.960 . S
H1285 C1271 0.961 . S
H1286 C1271 0.961 . S
H1287 C1271 0.961 . S
H1288 C1272 0.931 . S
H1289 C1277 0.930 . S
H1290 C1278 0.956 . S
H1291 C1278 0.961 . S
H1292 C1278 0.961 . S
H1293 C1279 0.958 . S
H1294 C1279 0.961 . S
H1295 C1279 0.960 . S
C1296 C1297 1.391 . S
C1296 C1298 1.394 . S
C1296 H1312 0.931 . S
C1297 C1296 1.391 . S
C1297 C1301 1.376 . S
C1298 C1296 1.394 . S
C1298 C1299 1.369 . S
C1298 C1302 1.531 . S
C1299 C1298 1.369 . S
C1299 C1300 1.410 . S
C1299 C1307 1.503 . S
C1300 C1299 1.410 . S
C1300 C1301 1.392 . S
C1300 C1303 1.511 . S
C1301 C1297 1.376 . S
C1301 C1300 1.392 . S
C1301 H1313 0.929 . S
C1302 C1298 1.531 . S
C1302 H1314 0.960 . S
C1302 H1315 0.962 . S
C1302 H1316 0.960 . S
C1303 C1300 1.511 . S
C1303 H1317 0.961 . S
C1303 H1318 0.961 . S
C1303 H1319 0.961 . S
C1304 C1305 1.370 . S
C1304 C1306 1.363 . S
C1304 H1320 0.931 . S
C1305 C1304 1.370 . S
C1305 C1309 1.408 . S
C1306 C1304 1.363 . S
C1306 C1307 1.370 . S
C1306 C1310 1.524 . S
C1307 C1299 1.503 . S
C1307 C1306 1.370 . S
C1307 C1308 1.403 . S
C1308 C1307 1.403 . S
C1308 C1309 1.404 . S
C1308 C1311 1.539 . S
C1309 C1305 1.408 . S
C1309 C1308 1.404 . S
C1309 H1321 0.930 . S
C1310 C1306 1.524 . S
C1310 H1322 0.956 . S
C1310 H1323 0.961 . S
C1310 H1324 0.961 . S
C1311 C1308 1.539 . S
C1311 H1325 0.958 . S
C1311 H1326 0.961 . S
C1311 H1327 0.960 . S
H1312 C1296 0.931 . S
H1313 C1301 0.929 . S
H1314 C1302 0.960 . S
H1315 C1302 0.962 . S
H1316 C1302 0.960 . S
H1317 C1303 0.961 . S
H1318 C1303 0.961 . S
H1319 C1303 0.961 . S
H1320 C1304 0.931 . S
H1321 C1309 0.930 . S
H1322 C1310 0.956 . S
H1323 C1310 0.961 . S
H1324 C1310 0.961 . S
H1325 C1311 0.958 . S
H1326 C1311 0.961 . S
H1327 C1311 0.960 . S
C1328 C1329 1.391 . S
C1328 C1330 1.394 . S
C1328 H1344 0.931 . S
C1329 C1328 1.391 . S
C1329 C1333 1.376 . S
C1330 C1328 1.394 . S
C1330 C1331 1.369 . S
C1330 C1334 1.531 . S
C1331 C1330 1.369 . S
C1331 C1332 1.410 . S
C1331 C1339 1.503 . S
C1332 C1331 1.410 . S
C1332 C1333 1.392 . S
C1332 C1335 1.511 . S
C1333 C1329 1.376 . S
C1333 C1332 1.392 . S
C1333 H1345 0.929 . S
C1334 C1330 1.531 . S
C1334 H1346 0.960 . S
C1334 H1347 0.962 . S
C1334 H1348 0.960 . S
C1335 C1332 1.511 . S
C1335 H1349 0.961 . S
C1335 H1350 0.961 . S
C1335 H1351 0.961 . S
C1336 C1337 1.370 . S
C1336 C1338 1.363 . S
C1336 H1352 0.931 . S
C1337 C1336 1.370 . S
C1337 C1341 1.408 . S
C1338 C1336 1.363 . S
C1338 C1339 1.370 . S
C1338 C1342 1.524 . S
C1339 C1331 1.503 . S
C1339 C1338 1.370 . S
C1339 C1340 1.403 . S
C1340 C1339 1.403 . S
C1340 C1341 1.404 . S
C1340 C1343 1.539 . S
C1341 C1337 1.408 . S
C1341 C1340 1.404 . S
C1341 H1353 0.930 . S
C1342 C1338 1.524 . S
C1342 H1354 0.956 . S
C1342 H1355 0.961 . S
C1342 H1356 0.961 . S
C1343 C1340 1.539 . S
C1343 H1357 0.958 . S
C1343 H1358 0.961 . S
C1343 H1359 0.960 . S
H1344 C1328 0.931 . S
H1345 C1333 0.929 . S
H1346 C1334 0.960 . S
H1347 C1334 0.962 . S
H1348 C1334 0.960 . S
H1349 C1335 0.961 . S
H1350 C1335 0.961 . S
H1351 C1335 0.961 . S
H1352 C1336 0.931 . S
H1353 C1341 0.930 . S
H1354 C1342 0.956 . S
H1355 C1342 0.961 . S
H1356 C1342 0.961 . S
H1357 C1343 0.958 . S
H1358 C1343 0.961 . S
H1359 C1343 0.960 . S
C1360 C1361 1.391 . S
C1360 C1362 1.394 . S
C1360 H1376 0.931 . S
C1361 C1360 1.391 . S
C1361 C1365 1.376 . S
C1362 C1360 1.394 . S
C1362 C1363 1.369 . S
C1362 C1366 1.531 . S
C1363 C1362 1.369 . S
C1363 C1364 1.410 . S
C1363 C1371 1.503 . S
C1364 C1363 1.410 . S
C1364 C1365 1.392 . S
C1364 C1367 1.511 . S
C1365 C1361 1.376 . S
C1365 C1364 1.392 . S
C1365 H1377 0.929 . S
C1366 C1362 1.531 . S
C1366 H1378 0.940 1_655 S
C1366 H1379 0.962 . S
C1366 H1380 0.960 . S
C1367 C1364 1.511 . S
C1367 H1381 0.961 . S
C1367 H1382 0.961 . S
C1367 H1383 0.961 . S
C1368 C1369 1.370 . S
C1368 C1370 1.363 . S
C1368 H1384 0.931 . S
C1369 C1368 1.370 . S
C1369 C1373 1.408 . S
C1370 C1368 1.363 . S
C1370 C1371 1.370 1_455 S
C1370 C1374 1.524 1_455 S
C1371 C1363 1.503 . S
C1371 C1370 1.370 1_655 S
C1371 C1372 1.403 1_655 S
C1372 C1371 1.403 1_455 S
C1372 C1373 1.404 . S
C1372 C1375 1.539 1_455 S
C1373 C1369 1.408 . S
C1373 C1372 1.404 . S
C1373 H1385 0.930 . S
C1374 C1370 1.524 1_655 S
C1374 H1386 0.956 . S
C1374 H1387 0.961 . S
C1374 H1388 0.962 . S
C1375 C1372 1.539 1_655 S
C1375 H1389 0.958 . S
C1375 H1390 0.961 . S
C1375 H1391 0.960 . S
H1376 C1360 0.931 . S
H1377 C1365 0.929 . S
H1378 C1366 0.940 1_455 S
H1379 C1366 0.962 . S
H1380 C1366 0.960 . S
H1381 C1367 0.961 . S
H1382 C1367 0.961 . S
H1383 C1367 0.961 . S
H1384 C1368 0.931 . S
H1385 C1373 0.930 . S
H1386 C1374 0.956 . S
H1387 C1374 0.961 . S
H1388 C1374 0.962 . S
H1389 C1375 0.958 . S
H1390 C1375 0.961 . S
H1391 C1375 0.960 . S
C241 C9 1.252 . S
C249 C229 1.264 . S
C273 C199 1.472 . S
C281 C29 1.515 . S
C305 C59 1.255 . S
C313 C179 1.273 . S
C337 C69 1.751 . S
C345 C209 1.758 . S
C369 C89 1.539 . S
C377 C219 1.492 . S
C401 C119 1.297 . S
C409 C239 1.279 . S
C433 C189 1.598 . S
C441 C129 1.611 1_556 S
C465 C159 1.410 . S
C473 C169 1.535 . S
C497 C79 1.648 . S
C505 C99 1.644 . S
C529 C19 1.428 . S
C537 C109 1.506 . S
C561 C39 1.302 1_655 S
C569 C139 1.317 . S
C593 C149 1.659 . S
C601 C49 1.670 . S
C625 C2 1.602 . S
C633 C178 1.590 . S
C657 C22 1.527 . S
C665 C208 1.471 . S
C689 C228 1.557 . S
C697 C41 1.505 . S
C721 C62 1.390 . S
C729 C198 1.382 . S
C753 C82 1.337 . S
C761 C188 1.299 . S
C785 C168 1.264 . S
C793 C101 1.266 . S
C817 C218 1.215 . S
C825 C122 1.236 . S
C849 C238 2.105 . S
C857 C141 2.031 . S
C881 C18 1.648 . S
C889 C61 1.599 . S
C913 C1 1.511 . S
C921 C38 1.611 . S
C945 C21 1.351 . S
C953 C48 1.362 . S
C977 C78 1.351 . S
C985 C42 1.354 . S
C1009 C102 1.374 . S
C1017 C98 1.374 . S
C1041 C108 1.543 . S
C1049 C121 1.584 . S
C1073 C138 1.537 . S
C1081 C142 1.553 . S
C1105 C81 1.193 . S
C1113 C148 1.167 . S
C1137 C162 0.704 . S
C1145 C68 0.714 . S
C1169 C118 1.300 . S
C1177 C181 1.280 . S
C1201 C161 1.263 . S
C1209 C128 1.279 . S
C1233 C202 1.549 . S
C1241 C158 1.560 . S
C1265 C88 1.096 . S
C1273 C222 1.149 . S
C1297 C221 1.392 . S
C1305 C28 1.460 . S
C1329 C58 1.474 . S
C1337 C182 1.476 . S
C1361 C201 1.448 . S
C1369 C8 1.420 . S
