# Generated by pormake.
# Topology unl, (4)-cn, num edge types: 1
# Building blocks:
#     Node 0, Type 0, BuildingBlock: AZAVOO_clean_sbu_0, # of connection points: 4
#     Node 1, Type 0, BuildingBlock: AZAVOO_clean_sbu_0, # of connection points: 4
#     Node 2, Type 0, BuildingBlock: AZAVOO_clean_sbu_0, # of connection points: 4
#     Node 3, Type 0, BuildingBlock: AZAVOO_clean_sbu_0, # of connection points: 4
#     Node 4, Type 0, BuildingBlock: AZAVOO_clean_sbu_0, # of connection points: 4
#     Node 5, Type 0, BuildingBlock: AZAVOO_clean_sbu_0, # of connection points: 4
#     Node 6, Type 0, BuildingBlock: AZAVOO_clean_sbu_0, # of connection points: 4
#     Node 7, Type 0, BuildingBlock: AZAVOO_clean_sbu_0, # of connection points: 4
#     Node 8, Type 0, BuildingBlock: AZAVOO_clean_sbu_0, # of connection points: 4
#     Node 9, Type 0, BuildingBlock: AZAVOO_clean_sbu_0, # of connection points: 4
#     Node 10, Type 0, BuildingBlock: AZAVOO_clean_sbu_0, # of connection points: 4
#     Node 11, Type 0, BuildingBlock: AZAVOO_clean_sbu_0, # of connection points: 4
#     Node 12, Type 0, BuildingBlock: AZAVOO_clean_sbu_0, # of connection points: 4
#     Node 13, Type 0, BuildingBlock: AZAVOO_clean_sbu_0, # of connection points: 4
#     Node 14, Type 0, BuildingBlock: AZAVOO_clean_sbu_0, # of connection points: 4
#     Node 15, Type 0, BuildingBlock: AZAVOO_clean_sbu_0, # of connection points: 4
#     Node 16, Type 0, BuildingBlock: AZAVOO_clean_sbu_0, # of connection points: 4
#     Node 17, Type 0, BuildingBlock: AZAVOO_clean_sbu_0, # of connection points: 4
#     Node 18, Type 0, BuildingBlock: AZAVOO_clean_sbu_0, # of connection points: 4
#     Node 19, Type 0, BuildingBlock: AZAVOO_clean_sbu_0, # of connection points: 4
#     Node 20, Type 0, BuildingBlock: AZAVOO_clean_sbu_0, # of connection points: 4
#     Node 21, Type 0, BuildingBlock: AZAVOO_clean_sbu_0, # of connection points: 4
#     Node 22, Type 0, BuildingBlock: AZAVOO_clean_sbu_0, # of connection points: 4
#     Node 23, Type 0, BuildingBlock: AZAVOO_clean_sbu_0, # of connection points: 4
#     Node 24, Type 0, BuildingBlock: AZAVOO_clean_sbu_0, # of connection points: 4
#     Node 25, Type 0, BuildingBlock: AZAVOO_clean_sbu_0, # of connection points: 4
#     Node 26, Type 0, BuildingBlock: AZAVOO_clean_sbu_0, # of connection points: 4
#     Node 27, Type 0, BuildingBlock: AZAVOO_clean_sbu_0, # of connection points: 4
#     Node 28, Type 0, BuildingBlock: AZAVOO_clean_sbu_0, # of connection points: 4
#     Node 29, Type 0, BuildingBlock: AZAVOO_clean_sbu_0, # of connection points: 4
#     Node 30, Type 0, BuildingBlock: AZAVOO_clean_sbu_0, # of connection points: 4
#     Node 31, Type 0, BuildingBlock: AZAVOO_clean_sbu_0, # of connection points: 4
#     Node 32, Type 0, BuildingBlock: AZAVOO_clean_sbu_0, # of connection points: 4
#     Node 33, Type 0, BuildingBlock: AZAVOO_clean_sbu_0, # of connection points: 4
#     Node 34, Type 0, BuildingBlock: AZAVOO_clean_sbu_0, # of connection points: 4
#     Node 35, Type 0, BuildingBlock: AZAVOO_clean_sbu_0, # of connection points: 4
#     Edge 36, Type (0, 0), BuildingBlock: XIVTED_clean_linker_0, # of connection points: 2
#     Edge 37, Type (0, 0), BuildingBlock: XIVTED_clean_linker_0, # of connection points: 2
#     Edge 38, Type (0, 0), BuildingBlock: XIVTED_clean_linker_0, # of connection points: 2
#     Edge 39, Type (0, 0), BuildingBlock: XIVTED_clean_linker_0, # of connection points: 2
#     Edge 40, Type (0, 0), BuildingBlock: XIVTED_clean_linker_0, # of connection points: 2
#     Edge 41, Type (0, 0), BuildingBlock: XIVTED_clean_linker_0, # of connection points: 2
#     Edge 42, Type (0, 0), BuildingBlock: XIVTED_clean_linker_0, # of connection points: 2
#     Edge 43, Type (0, 0), BuildingBlock: XIVTED_clean_linker_0, # of connection points: 2
#     Edge 44, Type (0, 0), BuildingBlock: XIVTED_clean_linker_0, # of connection points: 2
#     Edge 45, Type (0, 0), BuildingBlock: XIVTED_clean_linker_0, # of connection points: 2
#     Edge 46, Type (0, 0), BuildingBlock: XIVTED_clean_linker_0, # of connection points: 2
#     Edge 47, Type (0, 0), BuildingBlock: XIVTED_clean_linker_0, # of connection points: 2
#     Edge 48, Type (0, 0), BuildingBlock: XIVTED_clean_linker_0, # of connection points: 2
#     Edge 49, Type (0, 0), BuildingBlock: XIVTED_clean_linker_0, # of connection points: 2
#     Edge 50, Type (0, 0), BuildingBlock: XIVTED_clean_linker_0, # of connection points: 2
#     Edge 51, Type (0, 0), BuildingBlock: XIVTED_clean_linker_0, # of connection points: 2
#     Edge 52, Type (0, 0), BuildingBlock: XIVTED_clean_linker_0, # of connection points: 2
#     Edge 53, Type (0, 0), BuildingBlock: XIVTED_clean_linker_0, # of connection points: 2
#     Edge 54, Type (0, 0), BuildingBlock: XIVTED_clean_linker_0, # of connection points: 2
#     Edge 55, Type (0, 0), BuildingBlock: XIVTED_clean_linker_0, # of connection points: 2
#     Edge 56, Type (0, 0), BuildingBlock: XIVTED_clean_linker_0, # of connection points: 2
#     Edge 57, Type (0, 0), BuildingBlock: XIVTED_clean_linker_0, # of connection points: 2
#     Edge 58, Type (0, 0), BuildingBlock: XIVTED_clean_linker_0, # of connection points: 2
#     Edge 59, Type (0, 0), BuildingBlock: XIVTED_clean_linker_0, # of connection points: 2
#     Edge 60, Type (0, 0), BuildingBlock: XIVTED_clean_linker_0, # of connection points: 2
#     Edge 61, Type (0, 0), BuildingBlock: XIVTED_clean_linker_0, # of connection points: 2
#     Edge 62, Type (0, 0), BuildingBlock: XIVTED_clean_linker_0, # of connection points: 2
#     Edge 63, Type (0, 0), BuildingBlock: XIVTED_clean_linker_0, # of connection points: 2
#     Edge 64, Type (0, 0), BuildingBlock: XIVTED_clean_linker_0, # of connection points: 2
#     Edge 65, Type (0, 0), BuildingBlock: XIVTED_clean_linker_0, # of connection points: 2
#     Edge 66, Type (0, 0), BuildingBlock: XIVTED_clean_linker_0, # of connection points: 2
#     Edge 67, Type (0, 0), BuildingBlock: XIVTED_clean_linker_0, # of connection points: 2
#     Edge 68, Type (0, 0), BuildingBlock: XIVTED_clean_linker_0, # of connection points: 2
#     Edge 69, Type (0, 0), BuildingBlock: XIVTED_clean_linker_0, # of connection points: 2
#     Edge 70, Type (0, 0), BuildingBlock: XIVTED_clean_linker_0, # of connection points: 2
#     Edge 71, Type (0, 0), BuildingBlock: XIVTED_clean_linker_0, # of connection points: 2
#     Edge 72, Type (0, 0), BuildingBlock: XIVTED_clean_linker_0, # of connection points: 2
#     Edge 73, Type (0, 0), BuildingBlock: XIVTED_clean_linker_0, # of connection points: 2
#     Edge 74, Type (0, 0), BuildingBlock: XIVTED_clean_linker_0, # of connection points: 2
#     Edge 75, Type (0, 0), BuildingBlock: XIVTED_clean_linker_0, # of connection points: 2
#     Edge 76, Type (0, 0), BuildingBlock: XIVTED_clean_linker_0, # of connection points: 2
#     Edge 77, Type (0, 0), BuildingBlock: XIVTED_clean_linker_0, # of connection points: 2
#     Edge 78, Type (0, 0), BuildingBlock: XIVTED_clean_linker_0, # of connection points: 2
#     Edge 79, Type (0, 0), BuildingBlock: XIVTED_clean_linker_0, # of connection points: 2
#     Edge 80, Type (0, 0), BuildingBlock: XIVTED_clean_linker_0, # of connection points: 2
#     Edge 81, Type (0, 0), BuildingBlock: XIVTED_clean_linker_0, # of connection points: 2
#     Edge 82, Type (0, 0), BuildingBlock: XIVTED_clean_linker_0, # of connection points: 2
#     Edge 83, Type (0, 0), BuildingBlock: XIVTED_clean_linker_0, # of connection points: 2
#     Edge 84, Type (0, 0), BuildingBlock: XIVTED_clean_linker_0, # of connection points: 2
#     Edge 85, Type (0, 0), BuildingBlock: XIVTED_clean_linker_0, # of connection points: 2
#     Edge 86, Type (0, 0), BuildingBlock: XIVTED_clean_linker_0, # of connection points: 2
#     Edge 87, Type (0, 0), BuildingBlock: XIVTED_clean_linker_0, # of connection points: 2
#     Edge 88, Type (0, 0), BuildingBlock: XIVTED_clean_linker_0, # of connection points: 2
#     Edge 89, Type (0, 0), BuildingBlock: XIVTED_clean_linker_0, # of connection points: 2
#     Edge 90, Type (0, 0), BuildingBlock: XIVTED_clean_linker_0, # of connection points: 2
#     Edge 91, Type (0, 0), BuildingBlock: XIVTED_clean_linker_0, # of connection points: 2
#     Edge 92, Type (0, 0), BuildingBlock: XIVTED_clean_linker_0, # of connection points: 2
#     Edge 93, Type (0, 0), BuildingBlock: XIVTED_clean_linker_0, # of connection points: 2
#     Edge 94, Type (0, 0), BuildingBlock: XIVTED_clean_linker_0, # of connection points: 2
#     Edge 95, Type (0, 0), BuildingBlock: XIVTED_clean_linker_0, # of connection points: 2
#     Edge 96, Type (0, 0), BuildingBlock: XIVTED_clean_linker_0, # of connection points: 2
#     Edge 97, Type (0, 0), BuildingBlock: XIVTED_clean_linker_0, # of connection points: 2
#     Edge 98, Type (0, 0), BuildingBlock: XIVTED_clean_linker_0, # of connection points: 2
#     Edge 99, Type (0, 0), BuildingBlock: XIVTED_clean_linker_0, # of connection points: 2
#     Edge 100, Type (0, 0), BuildingBlock: XIVTED_clean_linker_0, # of connection points: 2
#     Edge 101, Type (0, 0), BuildingBlock: XIVTED_clean_linker_0, # of connection points: 2
#     Edge 102, Type (0, 0), BuildingBlock: XIVTED_clean_linker_0, # of connection points: 2
#     Edge 103, Type (0, 0), BuildingBlock: XIVTED_clean_linker_0, # of connection points: 2
#     Edge 104, Type (0, 0), BuildingBlock: XIVTED_clean_linker_0, # of connection points: 2
#     Edge 105, Type (0, 0), BuildingBlock: XIVTED_clean_linker_0, # of connection points: 2
#     Edge 106, Type (0, 0), BuildingBlock: XIVTED_clean_linker_0, # of connection points: 2
#     Edge 107, Type (0, 0), BuildingBlock: XIVTED_clean_linker_0, # of connection points: 2
# Relax obj value: 0.206
# Max RMSD: 0.223
# Mean RMSD: 0.216
data_MOF--net-unl--node1-AZAVOO_clean_sbu_0--edge1-XIVTED_clean_linker_0
_symmetry_space_group_name_H-M    P1
_symmetry_Int_Tables_number       1
_symmetry_cell_setting            triclinic
loop_
_symmetry_equiv_pos_as_xyz
'x, y, z'
_cell_length_a     64.629397
_cell_length_b     63.977488
_cell_length_c     37.695432
_cell_angle_alpha  90.713709
_cell_angle_beta   90.002549
_cell_angle_gamma 120.34311
loop_
_atom_site_label
_atom_site_type_symbol
_atom_site_fract_x
_atom_site_fract_y
_atom_site_fract_z
_atom_type_partial_charge
Mg0 Mg 0.20089 0.09437 0.07662 0.0
O1 O 0.17358 0.09022 0.11837 0.0
O2 O 0.13719 0.07402 0.09396 0.0
Mg3 Mg 0.14125 0.06762 0.03519 0.0
C4 C 0.15122 0.08262 0.12075 0.0
C5 C 0.23311 0.1199 0.14263 0.0
O6 O 0.2221 0.13232 0.13936 0.0
O7 O 0.18762 0.05369 0.07588 0.0
O8 O 0.15228 0.03984 0.04828 0.0
O9 O 0.20601 0.13058 0.06071 0.0
O10 O 0.17954 0.09547 0.03661 0.0
C11 C 0.16828 0.03639 0.0623 0.0
C12 C 0.18895 0.11856 0.03783 0.0
O13 O 0.22811 0.10257 0.12091 0.0
Mg14 Mg 0.93704 0.11317 0.16829 0.0
O15 O 0.90726 0.08245 0.13538 0.0
O16 O 0.87823 0.05631 0.17086 0.0
Mg17 Mg 0.88864 0.0723 0.2271 0.0
C18 C 0.88724 0.06304 0.14007 0.0
C19 C 0.97574 0.14089 0.11188 0.0
O20 O 0.98813 0.13768 0.13666 0.0
O21 O 0.91354 0.13007 0.1731 0.0
O22 O 0.8843 0.10398 0.20845 0.0
O23 O 0.95299 0.08979 0.17581 0.0
O24 O 0.92675 0.09095 0.21239 0.0
C25 C 0.8939 0.12305 0.18962 0.0
C26 C 0.93885 0.08092 0.20271 0.0
O27 O 0.95364 0.13326 0.11707 0.0
Mg28 Mg 0.91132 0.81963 0.15061 0.0
O29 O 0.93478 0.81837 0.10567 0.0
O30 O 0.9586 0.80602 0.12892 0.0
Mg31 Mg 0.95071 0.79968 0.18817 0.0
C32 C 0.95119 0.81289 0.10256 0.0
C33 C 0.881 0.83889 0.11617 0.0
O34 O 0.88976 0.85319 0.1442 0.0
O35 O 0.88885 0.7785 0.14919 0.0
O36 O 0.91321 0.76774 0.17479 0.0
O37 O 0.93911 0.85792 0.16417 0.0
O38 O 0.93786 0.8255 0.1866 0.0
C39 C 0.89308 0.76235 0.16079 0.0
C40 C 0.94889 0.84867 0.18362 0.0
O41 O 0.88658 0.8227 0.11085 0.0
Mg42 Mg 0.09601 0.18295 0.34798 0.0
O43 O 0.11955 0.18166 0.39245 0.0
O44 O 0.15551 0.19215 0.37015 0.0
Mg45 Mg 0.15478 0.19944 0.31095 0.0
C46 C 0.14092 0.18567 0.39609 0.0
C47 C 0.04713 0.16587 0.38501 0.0
O48 O 0.04011 0.15201 0.35638 0.0
O49 O 0.11714 0.22425 0.35011 0.0
O50 O 0.15171 0.23288 0.32442 0.0
O51 O 0.08319 0.14427 0.33265 0.0
O52 O 0.11556 0.17586 0.31112 0.0
C53 C 0.13791 0.2395 0.33847 0.0
C54 C 0.10209 0.15272 0.31301 0.0
O55 O 0.06932 0.18114 0.38923 0.0
Mg56 Mg 0.81059 0.88453 0.32555 0.0
O57 O 0.81362 0.91607 0.35902 0.0
O58 O 0.81225 0.94322 0.32386 0.0
Mg59 Mg 0.80571 0.92731 0.26748 0.0
C60 C 0.81419 0.9361 0.35453 0.0
C61 C 0.81876 0.85353 0.37888 0.0
O62 O 0.83236 0.85484 0.35209 0.0
O63 O 0.77056 0.86984 0.32101 0.0
O64 O 0.76871 0.89674 0.28581 0.0
O65 O 0.84996 0.90561 0.31774 0.0
O66 O 0.82357 0.90694 0.28171 0.0
C67 C 0.75858 0.87766 0.30462 0.0
C68 C 0.8456 0.9154 0.29108 0.0
O69 O 0.80623 0.86363 0.37626 0.0
Mg70 Mg 0.10151 0.8938 0.42006 0.0
O71 O 0.08109 0.90098 0.37691 0.0
O72 O 0.06036 0.91657 0.40157 0.0
Mg73 Mg 0.06749 0.9194 0.46112 0.0
C74 C 0.06691 0.90932 0.37445 0.0
C75 C 0.11079 0.87102 0.35405 0.0
O76 O 0.08726 0.85937 0.35521 0.0
O77 O 0.12915 0.93423 0.42541 0.0
O78 O 0.10683 0.94741 0.45202 0.0
O79 O 0.06999 0.85687 0.42882 0.0
O80 O 0.07572 0.88992 0.45691 0.0
C81 C 0.12673 0.95117 0.43937 0.0
C82 C 0.06226 0.86703 0.45077 0.0
O83 O 0.1227 0.88747 0.3772 0.0
Mg84 Mg 0.77868 0.90681 0.88944 0.0
O85 O 0.78755 0.88522 0.92881 0.0
O86 O 0.77532 0.8484 0.90585 0.0
Mg87 Mg 0.75805 0.84613 0.85207 0.0
C88 C 0.78535 0.86425 0.93055 0.0
C89 C 0.80446 0.95606 0.92935 0.0
O90 O 0.81572 0.96188 0.89886 0.0
O91 O 0.73888 0.88545 0.90425 0.0
O92 O 0.72858 0.84938 0.88004 0.0
O93 O 0.81411 0.91932 0.86319 0.0
O94 O 0.78053 0.88583 0.84816 0.0
C95 C 0.72339 0.86332 0.89744 0.0
C96 C 0.80342 0.8993 0.84499 0.0
O97 O 0.787 0.93467 0.93333 0.0
Mg98 Mg 0.08841 0.87503 0.83128 0.0
O99 O 0.1118 0.90258 0.87372 0.0
O100 O 0.14659 0.93046 0.85068 0.0
Mg101 Mg 0.14543 0.92016 0.79184 0.0
C102 C 0.13244 0.9215 0.87697 0.0
C103 C 0.04224 0.84904 0.87545 0.0
O104 O 0.03534 0.8571 0.84872 0.0
O105 O 0.11193 0.85761 0.83589 0.0
O106 O 0.14515 0.88612 0.80958 0.0
O107 O 0.07465 0.89969 0.815 0.0
O108 O 0.10613 0.90005 0.79166 0.0
C109 C 0.13333 0.86567 0.82472 0.0
C110 C 0.09264 0.9094 0.79358 0.0
O111 O 0.06334 0.85227 0.87542 0.0
Mg112 Mg 0.09454 0.19994 0.82159 0.0
O113 O 0.06972 0.19553 0.86726 0.0
O114 O 0.04155 0.20354 0.84962 0.0
Mg115 Mg 0.04965 0.21426 0.79097 0.0
C116 C 0.05129 0.1973 0.87354 0.0
C117 C 0.12804 0.18435 0.85256 0.0
O118 O 0.12279 0.17398 0.82096 0.0
O119 O 0.11285 0.24061 0.82747 0.0
O120 O 0.08534 0.24873 0.80641 0.0
O121 O 0.0697 0.16169 0.80523 0.0
O122 O 0.06797 0.19312 0.7847 0.0
C123 C 0.10618 0.25561 0.81925 0.0
C124 C 0.05909 0.17002 0.78567 0.0
O125 O 0.11969 0.19784 0.86135 0.0
Mg126 Mg 0.88468 0.79501 0.66151 0.0
O127 O 0.86215 0.799 0.61873 0.0
O128 O 0.8256 0.7881 0.6384 0.0
Mg129 Mg 0.82477 0.77574 0.6957 0.0
C130 C 0.8413 0.79599 0.61394 0.0
C131 C 0.92097 0.78891 0.60961 0.0
O132 O 0.91489 0.76871 0.62625 0.0
O133 O 0.86443 0.75408 0.65266 0.0
O134 O 0.82878 0.74381 0.67616 0.0
O135 O 0.89556 0.83211 0.68272 0.0
O136 O 0.8641 0.79813 0.70075 0.0
C137 C 0.84314 0.73813 0.66148 0.0
C138 C 0.87674 0.82136 0.70252 0.0
O139 O 0.91191 0.80171 0.61884 0.0
Mg140 Mg 0.20711 0.11338 0.66647 0.0
O141 O 0.20564 0.08832 0.62141 0.0
O142 O 0.21564 0.06212 0.64264 0.0
Mg143 Mg 0.22207 0.06947 0.7025 0.0
C144 C 0.2096 0.07083 0.61697 0.0
C145 C 0.18685 0.14021 0.62339 0.0
O146 O 0.17038 0.13003 0.64791 0.0
O147 O 0.24822 0.13305 0.66397 0.0
O148 O 0.25494 0.10547 0.68884 0.0
O149 O 0.16848 0.0871 0.67933 0.0
O150 O 0.19921 0.08575 0.70226 0.0
C151 C 0.26252 0.12621 0.67514 0.0
C152 C 0.17637 0.07581 0.69814 0.0
O153 O 0.20526 0.13791 0.62477 0.0
Mg154 Mg 0.87708 0.0871 0.61472 0.0
O155 O 0.90913 0.11066 0.57914 0.0
O156 O 0.93715 0.14193 0.61068 0.0
Mg157 Mg 0.92166 0.13964 0.66604 0.0
C158 C 0.92977 0.1297 0.58177 0.0
C159 C 0.84657 0.04277 0.5683 0.0
O160 O 0.84669 0.03369 0.59933 0.0
O161 O 0.86352 0.11383 0.61059 0.0
O162 O 0.89164 0.14468 0.64299 0.0
O163 O 0.89649 0.06837 0.63207 0.0
O164 O 0.8987 0.10015 0.6599 0.0
C165 C 0.87243 0.13506 0.62429 0.0
C166 C 0.90589 0.0848 0.65679 0.0
O167 O 0.85675 0.06562 0.56555 0.0
Mg168 Mg 0.86295 0.43153 0.40937 0.0
O169 O 0.83795 0.4225 0.45681 0.0
O170 O 0.79996 0.40408 0.43791 0.0
Mg171 Mg 0.80053 0.40138 0.37754 0.0
C172 C 0.81554 0.41255 0.46287 0.0
C173 C 0.8989 0.45673 0.47086 0.0
O174 O 0.88632 0.46766 0.47209 0.0
O175 O 0.85303 0.39195 0.40195 0.0
O176 O 0.8157 0.37605 0.38055 0.0
O177 O 0.86446 0.46707 0.40267 0.0
O178 O 0.83734 0.4326 0.37731 0.0
C179 C 0.8337 0.37409 0.38941 0.0
C180 C 0.84531 0.45524 0.38336 0.0
O181 O 0.89364 0.44016 0.4476 0.0
Mg182 Mg 0.60173 0.45116 0.50609 0.0
O183 O 0.57196 0.4188 0.47504 0.0
O184 O 0.54487 0.39284 0.51309 0.0
Mg185 Mg 0.55611 0.41031 0.5682 0.0
C186 C 0.5527 0.39894 0.48159 0.0
C187 C 0.63909 0.48136 0.45019 0.0
O188 O 0.65231 0.48075 0.4762 0.0
O189 O 0.57673 0.46601 0.51179 0.0
O190 O 0.54879 0.44015 0.54891 0.0
O191 O 0.62016 0.43029 0.51239 0.0
O192 O 0.59374 0.42961 0.55061 0.0
C193 C 0.55732 0.45868 0.529 0.0
C194 C 0.6066 0.42065 0.53968 0.0
O195 O 0.61654 0.47103 0.45426 0.0
Mg196 Mg 0.58183 0.14464 0.4845 0.0
O197 O 0.60644 0.14554 0.4399 0.0
O198 O 0.63144 0.13442 0.46224 0.0
Mg199 Mg 0.62316 0.1268 0.52127 0.0
C200 C 0.62357 0.14118 0.43632 0.0
C201 C 0.55115 0.16332 0.44872 0.0
O202 O 0.55898 0.17715 0.47734 0.0
O203 O 0.5609 0.10332 0.48176 0.0
O204 O 0.5864 0.09396 0.50713 0.0
O205 O 0.60821 0.18307 0.50024 0.0
O206 O 0.60836 0.1511 0.52145 0.0
C207 C 0.56607 0.08774 0.49305 0.0
C208 C 0.61835 0.1743 0.51989 0.0
O209 O 0.55714 0.14739 0.44372 0.0
Mg210 Mg 0.75914 0.50739 0.6877 0.0
O211 O 0.78474 0.51072 0.73247 0.0
O212 O 0.82042 0.52152 0.70873 0.0
Mg213 Mg 0.81757 0.5247 0.64873 0.0
C214 C 0.8066 0.51614 0.73549 0.0
C215 C 0.7104 0.49086 0.72294 0.0
O216 O 0.70422 0.47699 0.69434 0.0
O217 O 0.77808 0.54851 0.68408 0.0
O218 O 0.81245 0.55736 0.65752 0.0
O219 O 0.74809 0.46846 0.67818 0.0
O220 O 0.77879 0.49944 0.65233 0.0
C221 C 0.79817 0.56374 0.67045 0.0
C222 C 0.76649 0.47648 0.65756 0.0
O223 O 0.73242 0.50628 0.72821 0.0
Mg224 Mg 0.49141 0.22005 0.65038 0.0
O225 O 0.49255 0.25064 0.68412 0.0
O226 O 0.49072 0.27757 0.64902 0.0
Mg227 Mg 0.48553 0.26226 0.59248 0.0
C228 C 0.49243 0.27035 0.67973 0.0
C229 C 0.50133 0.1917 0.70703 0.0
O230 O 0.51799 0.19592 0.68358 0.0
O231 O 0.45137 0.20419 0.64444 0.0
O232 O 0.44872 0.23093 0.60997 0.0
O233 O 0.53077 0.24254 0.64472 0.0
O234 O 0.50452 0.2431 0.60739 0.0
C235 C 0.43899 0.21164 0.62831 0.0
C236 C 0.52639 0.25247 0.61825 0.0
O237 O 0.4866 0.19887 0.70079 0.0
Mg238 Mg 0.77164 0.23832 0.76606 0.0
O239 O 0.74979 0.2409 0.72046 0.0
O240 O 0.72964 0.25851 0.73998 0.0
Mg241 Mg 0.73816 0.26677 0.7991 0.0
C242 C 0.73541 0.24872 0.71518 0.0
C243 C 0.78097 0.21036 0.70592 0.0
O244 O 0.75746 0.1975 0.70752 0.0
O245 O 0.79928 0.27887 0.76492 0.0
O246 O 0.77757 0.2939 0.78829 0.0
O247 O 0.74008 0.20275 0.78284 0.0
O248 O 0.74805 0.23862 0.80285 0.0
C249 C 0.79731 0.29667 0.7764 0.0
C250 C 0.7344 0.21552 0.80315 0.0
O251 O 0.79221 0.22875 0.72633 0.0
Mg252 Mg 0.44612 0.23848 0.23531 0.0
O253 O 0.45885 0.21695 0.26791 0.0
O254 O 0.4522 0.18408 0.23722 0.0
Mg255 Mg 0.4336 0.18375 0.18541 0.0
C256 C 0.46011 0.19774 0.26474 0.0
C257 C 0.46552 0.28496 0.27905 0.0
O258 O 0.47257 0.29264 0.24669 0.0
O259 O 0.40673 0.21173 0.24838 0.0
O260 O 0.4012 0.17978 0.2158 0.0
O261 O 0.48163 0.25676 0.20754 0.0
O262 O 0.44953 0.22326 0.18847 0.0
C263 C 0.39337 0.19003 0.23677 0.0
C264 C 0.47178 0.23913 0.18461 0.0
O265 O 0.45232 0.26234 0.28393 0.0
Mg266 Mg 0.75317 0.21251 0.15723 0.0
O267 O 0.77789 0.24043 0.19844 0.0
O268 O 0.81099 0.26927 0.17268 0.0
Mg269 Mg 0.80778 0.25854 0.11376 0.0
C270 C 0.79817 0.25995 0.20015 0.0
C271 C 0.70866 0.18337 0.20363 0.0
O272 O 0.69982 0.18949 0.17697 0.0
O273 O 0.77756 0.19632 0.15778 0.0
O274 O 0.80991 0.22532 0.13047 0.0
O275 O 0.73761 0.23593 0.14627 0.0
O276 O 0.76842 0.23815 0.11727 0.0
C277 C 0.79878 0.20484 0.14575 0.0
C278 C 0.75462 0.24684 0.12348 0.0
O279 O 0.73056 0.18904 0.2028 0.0
Mg280 Mg 0.74997 0.52965 0.15652 0.0
O281 O 0.72644 0.52903 0.20211 0.0
O282 O 0.70002 0.53948 0.18436 0.0
Mg283 Mg 0.708 0.54822 0.12526 0.0
C284 C 0.70919 0.53275 0.20847 0.0
C285 C 0.76304 0.50916 0.21903 0.0
O286 O 0.73975 0.49494 0.21541 0.0
O287 O 0.77109 0.57063 0.16037 0.0
O288 O 0.74516 0.58087 0.13924 0.0
O289 O 0.7232 0.49147 0.1419 0.0
O290 O 0.72254 0.52348 0.12156 0.0
C291 C 0.7658 0.58658 0.15161 0.0
C292 C 0.71232 0.50026 0.12404 0.0
O293 O 0.77411 0.52623 0.19718 0.0
Mg294 Mg 0.5529 0.13615 0.00823 0.0
O295 O 0.53467 0.13942 0.95833 0.0
O296 O 0.49702 0.1294 0.97097 0.0
Mg297 Mg 0.49138 0.11979 0.02997 0.0
C298 C 0.51429 0.13633 0.9491 0.0
C299 C 0.60401 0.15403 0.98283 0.0
O300 O 0.60762 0.16657 0.01237 0.0
O301 O 0.53167 0.09533 0.00283 0.0
O302 O 0.49481 0.08615 0.01921 0.0
O303 O 0.56508 0.17451 0.0233 0.0
O304 O 0.53035 0.14289 0.03882 0.0
C305 C 0.50984 0.07985 0.00937 0.0
C306 C 0.54432 0.16605 0.03803 0.0
O307 O 0.5827 0.13846 0.97387 0.0
Mg308 Mg 0.86986 0.45183 0.01333 0.0
O309 O 0.86863 0.42604 0.97006 0.0
O310 O 0.87319 0.39677 0.99358 0.0
Mg311 Mg 0.87849 0.40488 0.05351 0.0
C312 C 0.87014 0.407 0.96681 0.0
C313 C 0.85484 0.48211 0.96913 0.0
O314 O 0.83966 0.47528 0.99559 0.0
O315 O 0.91061 0.46897 0.01516 0.0
O316 O 0.91379 0.43936 0.04086 0.0
O317 O 0.83064 0.42705 0.02158 0.0
O318 O 0.85903 0.42478 0.05113 0.0
C319 C 0.92325 0.46042 0.02738 0.0
C320 C 0.83664 0.4158 0.04392 0.0
O321 O 0.87119 0.47661 0.96952 0.0
Mg322 Mg 0.53414 0.41895 0.9401 0.0
O323 O 0.56837 0.44109 0.90792 0.0
O324 O 0.59429 0.47428 0.9383 0.0
Mg325 Mg 0.57528 0.47454 0.98932 0.0
C326 C 0.5887 0.46048 0.91097 0.0
C327 C 0.51086 0.37285 0.89388 0.0
O328 O 0.51195 0.3646 0.92516 0.0
O329 O 0.52071 0.44482 0.92569 0.0
O330 O 0.547 0.47758 0.95702 0.0
O331 O 0.55244 0.40196 0.96846 0.0
O332 O 0.55247 0.43488 0.98699 0.0
C333 C 0.52902 0.46678 0.93599 0.0
C334 C 0.55983 0.41979 0.99096 0.0
O335 O 0.51757 0.39515 0.89105 0.0
Mg336 Mg 0.53033 0.75084 0.75456 0.0
O337 O 0.50052 0.74767 0.79181 0.0
O338 O 0.4655 0.73338 0.76294 0.0
Mg339 Mg 0.4708 0.71383 0.71618 0.0
C340 C 0.47879 0.743 0.79037 0.0
C341 C 0.56137 0.78534 0.81631 0.0
O342 O 0.55017 0.79661 0.80611 0.0
O343 O 0.52316 0.71216 0.7621 0.0
O344 O 0.48576 0.70174 0.76058 0.0
O345 O 0.53106 0.7828 0.73093 0.0
O346 O 0.50798 0.74548 0.70995 0.0
C347 C 0.50155 0.69584 0.75615 0.0
C348 C 0.51475 0.76819 0.70863 0.0
O349 O 0.55681 0.76573 0.80065 0.0
Mg350 Mg 0.2706 0.77365 0.84803 0.0
O351 O 0.2422 0.74332 0.81259 0.0
O352 O 0.21257 0.71576 0.84587 0.0
Mg353 Mg 0.22126 0.72978 0.90318 0.0
C354 C 0.22229 0.72352 0.81573 0.0
C355 C 0.29693 0.78556 0.77755 0.0
O356 O 0.29364 0.76417 0.78554 0.0
O357 O 0.24565 0.78891 0.85269 0.0
O358 O 0.21622 0.76142 0.88643 0.0
O359 O 0.28803 0.75174 0.85538 0.0
O360 O 0.25968 0.74982 0.89048 0.0
C361 C 0.22565 0.78095 0.86864 0.0
C362 C 0.27281 0.74098 0.8805 0.0
O363 O 0.28868 0.79542 0.79825 0.0
Mg364 Mg 0.24668 0.4896 0.81532 0.0
O365 O 0.27016 0.48923 0.77002 0.0
O366 O 0.29478 0.47731 0.79127 0.0
Mg367 Mg 0.28738 0.47056 0.8507 0.0
C368 C 0.28676 0.48416 0.76568 0.0
C369 C 0.2169 0.50907 0.77819 0.0
O370 O 0.22568 0.52425 0.80528 0.0
O371 O 0.22477 0.44841 0.81334 0.0
O372 O 0.24998 0.43837 0.83793 0.0
O373 O 0.27407 0.52792 0.82993 0.0
O374 O 0.27342 0.49556 0.85128 0.0
C375 C 0.22957 0.43256 0.82455 0.0
C376 C 0.28401 0.51876 0.84923 0.0
O377 O 0.222 0.49239 0.77504 0.0
Mg378 Mg 0.41731 0.8461 0.00956 0.0
O379 O 0.44187 0.84552 0.0528 0.0
O380 O 0.47801 0.85739 0.03003 0.0
Mg381 Mg 0.47644 0.86547 0.97137 0.0
C382 C 0.46348 0.85022 0.05606 0.0
C383 C 0.36982 0.82382 0.05165 0.0
O384 O 0.36383 0.80788 0.02567 0.0
O385 O 0.43686 0.88724 0.01349 0.0
O386 O 0.47178 0.89752 0.98756 0.0
O387 O 0.40602 0.80806 0.99287 0.0
O388 O 0.43741 0.84078 0.97153 0.0
C389 C 0.45749 0.9032 0.00239 0.0
C390 C 0.4248 0.81754 0.97293 0.0
O391 O 0.39074 0.84236 0.05217 0.0
Mg392 Mg 0.15086 0.54361 0.99261 0.0
O393 O 0.15765 0.5777 0.02314 0.0
O394 O 0.15471 0.60351 0.98699 0.0
Mg395 Mg 0.14467 0.58483 0.93244 0.0
C396 C 0.15851 0.59777 0.01761 0.0
C397 C 0.16851 0.53707 0.06419 0.0
O398 O 0.18634 0.55743 0.05227 0.0
O399 O 0.11103 0.53077 0.99354 0.0
O400 O 0.10867 0.55647 0.95634 0.0
O401 O 0.18938 0.56215 0.97922 0.0
O402 O 0.1619 0.56373 0.94613 0.0
C403 C 0.09894 0.53863 0.97753 0.0
C404 C 0.18421 0.57177 0.95325 0.0
O405 O 0.14946 0.52582 0.04556 0.0
Mg406 Mg 0.44631 0.57945 0.08215 0.0
O407 O 0.42311 0.58483 0.04029 0.0
O408 O 0.40103 0.59886 0.06571 0.0
Mg409 Mg 0.42211 0.61609 0.11632 0.0
C410 C 0.40639 0.59002 0.03903 0.0
C411 C 0.44739 0.54802 0.019 0.0
O412 O 0.42416 0.53718 0.02423 0.0
O413 O 0.47888 0.61816 0.08111 0.0
O414 O 0.45236 0.629 0.07706 0.0
O415 O 0.41298 0.54685 0.10016 0.0
O416 O 0.42597 0.58345 0.12319 0.0
C417 C 0.47337 0.63441 0.08586 0.0
C418 C 0.40971 0.56082 0.12173 0.0
O419 O 0.46134 0.5662 0.03838 0.0
Mg420 Mg 0.11727 0.58035 0.55025 0.0
O421 O 0.12813 0.55869 0.58577 0.0
O422 O 0.12136 0.52483 0.55795 0.0
Mg423 Mg 0.1039 0.52378 0.50477 0.0
C424 C 0.12891 0.53916 0.58477 0.0
C425 C 0.14023 0.62663 0.59635 0.0
O426 O 0.15135 0.63447 0.56602 0.0
O427 O 0.07743 0.55477 0.56253 0.0
O428 O 0.07172 0.52162 0.53319 0.0
O429 O 0.15343 0.59672 0.52459 0.0
O430 O 0.12116 0.56354 0.50525 0.0
C431 C 0.06394 0.53274 0.55237 0.0
C432 C 0.14381 0.57839 0.50283 0.0
O433 O 0.1233 0.60477 0.59823 0.0
Mg434 Mg 0.41805 0.5504 0.48919 0.0
O435 O 0.44106 0.57618 0.53395 0.0
O436 O 0.47694 0.60328 0.51268 0.0
Mg437 Mg 0.4762 0.59569 0.45291 0.0
C438 C 0.46219 0.5943 0.53828 0.0
C439 C 0.37155 0.52261 0.53312 0.0
O440 O 0.36454 0.53212 0.50856 0.0
O441 O 0.44082 0.53216 0.49189 0.0
O442 O 0.47468 0.56047 0.467 0.0
O443 O 0.40413 0.57533 0.47675 0.0
O444 O 0.43687 0.57838 0.45337 0.0
C445 C 0.46212 0.5397 0.48087 0.0
C446 C 0.42328 0.58751 0.45813 0.0
O447 O 0.39247 0.5255 0.53129 0.0
Mg448 Mg 0.42181 0.85469 0.49326 0.0
O449 O 0.39955 0.85208 0.54199 0.0
O450 O 0.37376 0.86434 0.52831 0.0
Mg451 Mg 0.37954 0.8747 0.46965 0.0
C452 C 0.38277 0.85616 0.55049 0.0
C453 C 0.44788 0.83005 0.52438 0.0
O454 O 0.43597 0.81566 0.49754 0.0
O455 O 0.44375 0.89589 0.49932 0.0
O456 O 0.41725 0.9064 0.48188 0.0
O457 O 0.39414 0.81701 0.47751 0.0
O458 O 0.39332 0.84971 0.46127 0.0
C459 C 0.43825 0.91199 0.4923 0.0
C460 C 0.38288 0.82642 0.46232 0.0
O461 O 0.44708 0.84933 0.52918 0.0
Mg462 Mg 0.23428 0.47389 0.34576 0.0
O463 O 0.21311 0.47882 0.30132 0.0
O464 O 0.17566 0.46653 0.31825 0.0
Mg465 Mg 0.17297 0.45362 0.37534 0.0
C466 C 0.19223 0.47542 0.29511 0.0
C467 C 0.27215 0.50167 0.29033 0.0
O468 O 0.26385 0.51599 0.29914 0.0
O469 O 0.21434 0.43295 0.33527 0.0
O470 O 0.17808 0.42239 0.35644 0.0
O471 O 0.24487 0.51062 0.36755 0.0
O472 O 0.21213 0.47704 0.38314 0.0
C473 C 0.1928 0.41687 0.34274 0.0
C474 C 0.22496 0.50032 0.3849 0.0
O475 O 0.26349 0.48126 0.30534 0.0
Mg476 Mg 0.52795 0.78957 0.34117 0.0
O477 O 0.52294 0.75938 0.3031 0.0
O478 O 0.52861 0.73212 0.33111 0.0
Mg479 Mg 0.53884 0.74622 0.38839 0.0
C480 C 0.52365 0.73982 0.30313 0.0
C481 C 0.50972 0.81488 0.29166 0.0
O482 O 0.49502 0.80925 0.31858 0.0
O483 O 0.56866 0.80593 0.33702 0.0
O484 O 0.57302 0.77843 0.36699 0.0
O485 O 0.48941 0.76639 0.35699 0.0
O486 O 0.51988 0.76651 0.3838 0.0
C487 C 0.5818 0.79802 0.34947 0.0
C488 C 0.49709 0.75709 0.38017 0.0
O489 O 0.52662 0.81022 0.29335 0.0
Mg490 Mg 0.20146 0.74489 0.28468 0.0
O491 O 0.2355 0.76658 0.25238 0.0
O492 O 0.26178 0.80071 0.28037 0.0
Mg493 Mg 0.2432 0.80174 0.33148 0.0
C494 C 0.25575 0.7861 0.25395 0.0
C495 C 0.19726 0.70954 0.22749 0.0
O496 O 0.21614 0.71413 0.24655 0.0
O497 O 0.18829 0.77069 0.26803 0.0
O498 O 0.21467 0.80384 0.29857 0.0
O499 O 0.2194 0.72842 0.31532 0.0
O500 O 0.22009 0.76206 0.33127 0.0
C501 C 0.19669 0.79282 0.27757 0.0
C502 C 0.22725 0.74693 0.33654 0.0
O503 O 0.18553 0.7199 0.23598 0.0
H504 H 0.20393 0.02866 0.03979 0.0
H505 H 0.10568 0.91022 0.93754 0.0
H506 H 0.12827 0.99159 0.06214 0.0
H507 H 0.17631 0.95973 0.89748 0.0
H508 H 0.11709 0.93213 0.99421 0.0
H509 H 0.19731 0.9949 0.00082 0.0
C510 C 0.18611 0.01288 0.03791 0.0
C511 C 0.16652 0.01302 0.05367 0.0
C512 C 0.13018 0.93798 0.97315 0.0
C513 C 0.15878 0.97481 0.00863 0.0
C514 C 0.12367 0.92556 0.94069 0.0
C515 C 0.13989 0.93346 0.91234 0.0
C516 C 0.15309 0.95843 0.97746 0.0
C517 C 0.16305 0.95326 0.91831 0.0
C518 C 0.18229 0.9938 0.0152 0.0
C519 C 0.14378 0.99224 0.05006 0.0
N520 N 0.16887 0.96523 0.95009 0.0
N521 N 0.14043 0.97417 0.02729 0.0
H522 H 0.9554 0.14958 0.05401 0.0
H523 H 0.07081 0.19004 0.93305 0.0
H524 H 0.02188 0.15686 0.09158 0.0
H525 H 0.00799 0.191 0.8964 0.0
H526 H 0.053 0.17847 0.99152 0.0
H527 H 0.97415 0.16537 0.99652 0.0
C528 C 0.97397 0.15462 0.05027 0.0
C529 C 0.98705 0.15177 0.07764 0.0
C530 C 0.0431 0.1813 0.9708 0.0
C531 C 0.00854 0.16973 0.01191 0.0
C532 C 0.05326 0.18788 0.93727 0.0
C533 C 0.04085 0.1914 0.90958 0.0
C534 C 0.02021 0.178 0.97688 0.0
C535 C 0.01821 0.18847 0.9169 0.0
C536 C 0.98465 0.16364 0.01744 0.0
C537 C 0.01104 0.15865 0.07128 0.0
N538 N 0.00855 0.18178 0.9498 0.0
N539 N 0.02094 0.16716 0.03908 0.0
H540 H 0.78792 0.82331 0.9408 0.0
H541 H 0.86866 0.87402 0.11661 0.0
H542 H 0.80828 0.89273 0.98909 0.0
H543 H 0.85714 0.81043 0.05837 0.0
H544 H 0.84317 0.87909 0.07382 0.0
H545 H 0.80942 0.81612 0.98774 0.0
C546 C 0.79672 0.83698 0.96142 0.0
C547 C 0.79639 0.85875 0.96079 0.0
C548 C 0.84618 0.864 0.07047 0.0
C549 C 0.82121 0.85061 0.01463 0.0
C550 C 0.86072 0.86107 0.0949 0.0
C551 C 0.86515 0.84183 0.09097 0.0
C552 C 0.83588 0.8475 0.04199 0.0
C553 C 0.85433 0.8256 0.06235 0.0
C554 C 0.80909 0.83287 0.98817 0.0
C555 C 0.80813 0.87573 0.98835 0.0
N556 N 0.84023 0.82882 0.03895 0.0
N557 N 0.82015 0.87134 0.01405 0.0
H558 H 0.9204 0.10909 0.51512 0.0
H559 H 0.05552 0.19066 0.4483 0.0
H560 H 0.9766 0.1667 0.57803 0.0
H561 H -0.00124 0.1339 0.38511 0.0
H562 H 0.02651 0.18362 0.49495 0.0
H563 H 0.94841 0.11944 0.46609 0.0
C564 C 0.93858 0.12402 0.51861 0.0
C565 C 0.94613 0.13696 0.55093 0.0
C566 C 0.02038 0.17279 0.47081 0.0
C567 C 0.97842 0.14884 0.49473 0.0
C568 C 0.03694 0.1768 0.44413 0.0
C569 C 0.02961 0.16277 0.41277 0.0
C570 C 0.99628 0.15457 0.46617 0.0
C571 C 0.00528 0.14511 0.40886 0.0
C572 C 0.95459 0.12992 0.49055 0.0
C573 C 0.96994 0.15617 0.55371 0.0
N574 N 0.98954 0.14145 0.43529 0.0
N575 N 0.98525 0.16143 0.52607 0.0
H576 H 0.8461 0.83328 0.39384 0.0
H577 H 0.80343 0.80211 0.59545 0.0
H578 H 0.79358 0.84791 0.44037 0.0
H579 H 0.8662 0.80387 0.55236 0.0
H580 H 0.79584 0.81396 0.53735 0.0
H581 H 0.84968 0.81716 0.45023 0.0
C582 C 0.83519 0.83298 0.41586 0.0
C583 C 0.81963 0.84214 0.41239 0.0
C584 C 0.81121 0.81166 0.5407 0.0
C585 C 0.82372 0.82368 0.47729 0.0
C586 C 0.81552 0.80484 0.57379 0.0
C587 C 0.83557 0.80212 0.57889 0.0
C588 C 0.82692 0.81552 0.51249 0.0
C589 C 0.85063 0.80592 0.54985 0.0
C590 C 0.8373 0.82381 0.44813 0.0
C591 C 0.80589 0.84115 0.4419 0.0
N592 N 0.84599 0.81241 0.51802 0.0
N593 N 0.80831 0.83216 0.47319 0.0
H594 H 0.17114 0.9605 0.46002 0.0
H595 H 0.19184 0.08053 0.55726 0.0
H596 H 0.12998 0.99524 0.44018 0.0
H597 H 0.21847 0.03501 0.5952 0.0
H598 H 0.18002 0.05737 0.50162 0.0
H599 H 0.19969 0.996 0.4951 0.0
C600 C 0.16868 0.97602 0.46176 0.0
C601 C 0.14799 0.97484 0.44783 0.0
C602 C 0.18882 0.05272 0.52192 0.0
C603 C 0.18014 0.01509 0.48827 0.0
C604 C 0.19553 0.0659 0.55377 0.0
C605 C 0.20561 0.05932 0.58137 0.0
C606 C 0.1922 0.03282 0.51759 0.0
C607 C 0.21028 0.04041 0.57499 0.0
C608 C 0.18481 0.99615 0.48213 0.0
C609 C 0.14555 0.99535 0.45104 0.0
N610 N 0.20321 0.0276 0.54396 0.0
N611 N 0.16118 0.01447 0.47151 0.0
H612 H 0.89952 0.07255 0.07016 0.0
H613 H 0.78818 0.94847 0.99785 0.0
H614 H 0.84479 0.01953 0.13807 0.0
H615 H 0.84286 0.00224 0.93081 0.0
H616 H 0.80712 0.97525 0.04917 0.0
H617 H 0.87779 0.04779 0.01865 0.0
C618 C 0.88292 0.0557 0.07431 0.0
C619 C 0.87405 0.0481 0.10862 0.0
C620 C 0.81486 0.98125 0.02319 0.0
C621 C 0.84898 0.01959 0.04948 0.0
C622 C 0.80402 0.96601 0.99384 0.0
C623 C 0.81404 0.97306 0.95998 0.0
C624 C 0.83591 0.00368 0.01867 0.0
C625 C 0.83457 0.99599 0.95641 0.0
C626 C 0.87048 0.04157 0.04479 0.0
C627 C 0.85237 0.02611 0.11218 0.0
N628 N 0.8449 0.0104 0.98541 0.0
N629 N 0.84062 0.0126 0.08297 0.0
H630 H 0.93936 0.82459 0.03877 0.0
H631 H 0.05142 0.83233 0.93673 0.0
H632 H 0.98897 0.80643 0.08634 0.0
H633 H -0.00186 0.84404 0.88651 0.0
H634 H 0.02763 0.8207 0.99092 0.0
H635 H 0.95964 0.83007 0.98206 0.0
C636 C 0.95444 0.82165 0.03732 0.0
C637 C 0.96253 0.81518 0.06753 0.0
C638 C 0.02104 0.82561 0.96795 0.0
C639 C 0.98589 0.82149 0.00258 0.0
C640 C 0.0346 0.83222 0.93696 0.0
C641 C 0.02686 0.83934 0.90708 0.0
C642 C -0.00036 0.82627 0.96918 0.0
C643 C 0.00489 0.8388 0.90893 0.0
C644 C 0.966 0.82475 0.00487 0.0
C645 C 0.98212 0.81151 0.06387 0.0
N646 N 0.99217 0.8326 0.93953 0.0
N647 N 0.9932 0.81487 0.03209 0.0
H648 H 0.14154 0.15052 0.84524 0.0
H649 H 0.19767 0.16558 0.03858 0.0
H650 H 0.14327 0.20321 0.9198 0.0
H651 H 0.16247 0.09844 0.97842 0.0
H652 H 0.18523 0.18429 0.9927 0.0
H653 H 0.15819 0.13652 0.89084 0.0
C654 C 0.14565 0.15934 0.8711 0.0
C655 C 0.14073 0.17787 0.87885 0.0
C656 C 0.18026 0.16546 0.98986 0.0
C657 C 0.15977 0.16184 0.93122 0.0
C658 C 0.1873 0.1548 0.01591 0.0
C659 C 0.18097 0.13041 0.01237 0.0
C660 C 0.16738 0.15167 0.95995 0.0
C661 C 0.1676 0.11724 0.98246 0.0
C662 C 0.15504 0.15124 0.89717 0.0
C663 C 0.14659 0.1887 0.91284 0.0
N664 N 0.16143 0.12807 0.95737 0.0
N665 N 0.15574 0.18044 0.93795 0.0
H666 H 0.93401 0.82767 0.5672 0.0
H667 H 0.03887 0.81909 0.46803 0.0
H668 H 0.94898 0.77022 0.58684 0.0
H669 H 0.03228 0.88284 0.47311 0.0
H670 H 0.00188 0.79729 0.50271 0.0
H671 H 0.9658 0.84426 0.52356 0.0
C672 C 0.94394 0.81846 0.56227 0.0
C673 C 0.93905 0.7977 0.58114 0.0
C674 C 0.00854 0.81603 0.49599 0.0
C675 C 0.97566 0.81676 0.53098 0.0
C676 C 0.02952 0.82842 0.47611 0.0
C677 C 0.03886 0.85295 0.46825 0.0
C678 C 0.99676 0.82825 0.50747 0.0
C679 C 0.02612 0.8642 0.47927 0.0
C680 C 0.96212 0.82798 0.53728 0.0
C681 C 0.95231 0.78638 0.57311 0.0
N682 N 0.00578 0.85179 0.49836 0.0
N683 N 0.9702 0.79618 0.54877 0.0
H684 H 0.11586 0.17335 0.45848 0.0
H685 H 0.21552 0.16014 0.56532 0.0
H686 H 0.18402 0.18983 0.41418 0.0
H687 H 0.14796 0.14523 0.61003 0.0
H688 H 0.20566 0.17411 0.5113 0.0
H689 H 0.1285 0.16568 0.51545 0.0
C690 C 0.13352 0.17546 0.4607 0.0
C691 C 0.14881 0.1821 0.4313 0.0
C692 C 0.19308 0.16797 0.53303 0.0
C693 C 0.16341 0.17328 0.49666 0.0
C694 C 0.19872 0.16004 0.56395 0.0
C695 C 0.18246 0.15131 0.59219 0.0
C696 C 0.17097 0.16709 0.53024 0.0
C697 C 0.161 0.15166 0.58889 0.0
C698 C 0.14075 0.17109 0.49332 0.0
C699 C 0.17156 0.18465 0.43599 0.0
N700 N 0.1558 0.15922 0.55839 0.0
N701 N 0.1781 0.18011 0.46795 0.0
H702 H 0.84692 0.05555 0.49886 0.0
H703 H 0.81242 0.92438 0.42445 0.0
H704 H 0.82694 0.99368 0.56507 0.0
H705 H 0.82212 0.98257 0.35667 0.0
H706 H 0.81736 0.94972 0.47616 0.0
H707 H 0.83697 0.02922 0.44634 0.0
C708 C 0.84019 0.0364 0.50239 0.0
C709 C 0.83793 0.02684 0.53643 0.0
C710 C 0.81832 0.95695 0.45 0.0
C711 C 0.82678 0.99671 0.47649 0.0
C712 C 0.81559 0.9425 0.42038 0.0
C713 C 0.81695 0.95137 0.38607 0.0
C714 C 0.82262 0.98057 0.44542 0.0
C715 C 0.82095 0.97497 0.38259 0.0
C716 C 0.83456 0.0214 0.47239 0.0
C717 C 0.8291 0.00189 0.53938 0.0
N718 N 0.82378 0.9888 0.4119 0.0
N719 N 0.82406 0.98776 0.50982 0.0
H720 H 0.77437 0.24745 0.26346 0.0
H721 H 0.87016 0.37058 0.35906 0.0
H722 H 0.8413 0.30064 0.21678 0.0
H723 H 0.79597 0.32788 0.38916 0.0
H724 H 0.86459 0.33795 0.31836 0.0
H725 H 0.78682 0.27024 0.31933 0.0
C726 C 0.7918 0.26379 0.26497 0.0
C727 C 0.80659 0.27241 0.23504 0.0
C728 C 0.84974 0.33544 0.3347 0.0
C729 C 0.82098 0.29846 0.29921 0.0
C730 C 0.853 0.3539 0.3583 0.0
C731 C 0.83337 0.35199 0.37703 0.0
C732 C 0.82678 0.315 0.3302 0.0
C733 C 0.81146 0.33012 0.3748 0.0
C734 C 0.7989 0.27674 0.29698 0.0
C735 C 0.82911 0.29353 0.23892 0.0
N736 N 0.80862 0.31262 0.35127 0.0
N737 N 0.8355 0.30599 0.2703 0.0
H738 H 0.68609 0.50128 0.43157 0.0
H739 H 0.66666 0.52827 0.2312 0.0
H740 H 0.61744 0.4862 0.39056 0.0
H741 H 0.72917 0.52702 0.26868 0.0
H742 H 0.64995 0.51837 0.29114 0.0
H743 H 0.70375 0.51651 0.37371 0.0
C744 C 0.67473 0.50131 0.41047 0.0
C745 C 0.65019 0.49226 0.41588 0.0
C746 C 0.66737 0.52039 0.28617 0.0
C747 C 0.67036 0.50969 0.34939 0.0
C748 C 0.67695 0.52613 0.25203 0.0
C749 C 0.69929 0.52835 0.24481 0.0
C750 C 0.68032 0.5171 0.31329 0.0
C751 C 0.71181 0.52531 0.27286 0.0
C752 C 0.68484 0.50997 0.37737 0.0
C753 C 0.63642 0.49287 0.38751 0.0
N754 N 0.70214 0.51983 0.30575 0.0
N755 N 0.64667 0.50135 0.3554 0.0
H756 H 0.53186 0.13818 0.38632 0.0
H757 H 0.47787 0.22128 0.32855 0.0
H758 H 0.53664 0.19676 0.45071 0.0
H759 H 0.46951 0.16038 0.26611 0.0
H760 H 0.49881 0.21202 0.37398 0.0
H761 H 0.50845 0.1455 0.34237 0.0
C762 C 0.52794 0.15253 0.39129 0.0
C763 C 0.5363 0.16691 0.42225 0.0
C764 C 0.49232 0.20062 0.35041 0.0
C765 C 0.50954 0.17543 0.37198 0.0
C766 C 0.48033 0.2059 0.32439 0.0
C767 C 0.47191 0.19164 0.29331 0.0
C768 C 0.49606 0.18097 0.34539 0.0
C769 C 0.47566 0.17191 0.28957 0.0
C770 C 0.51456 0.1567 0.36618 0.0
C771 C 0.53063 0.18523 0.42724 0.0
N772 N 0.48753 0.16723 0.31521 0.0
N773 N 0.51768 0.189 0.40236 0.0
H774 H 0.63539 0.498 0.90938 0.0
H775 H 0.66221 0.4585 0.72031 0.0
H776 H 0.58279 0.43695 0.84721 0.0
H777 H 0.7167 0.51588 0.78557 0.0
H778 H 0.63236 0.45225 0.76492 0.0
H779 H 0.66484 0.50665 0.86277 0.0
C780 C 0.62996 0.48647 0.8859 0.0
C781 C 0.60654 0.46665 0.88235 0.0
C782 C 0.65083 0.46626 0.76949 0.0
C783 C 0.64025 0.47648 0.82886 0.0
C784 C 0.66791 0.46987 0.74397 0.0
C785 C 0.69204 0.48769 0.74924 0.0
C786 C 0.65786 0.48057 0.80059 0.0
C787 C 0.69831 0.50189 0.78043 0.0
C788 C 0.64683 0.49141 0.85931 0.0
C789 C 0.60062 0.45237 0.85126 0.0
N790 N 0.68134 0.49798 0.80497 0.0
N791 N 0.61736 0.45755 0.82581 0.0
H792 H 0.46942 0.18019 0.76165 0.0
H793 H 0.54452 0.14596 0.89291 0.0
H794 H 0.53255 0.17787 0.73069 0.0
H795 H 0.47658 0.13915 0.92086 0.0
H796 H 0.53986 0.15693 0.833 0.0
H797 H 0.47105 0.16432 0.81965 0.0
C798 C 0.48353 0.1762 0.76694 0.0
C799 C 0.50096 0.18051 0.74131 0.0
C800 C 0.52589 0.15291 0.85215 0.0
C801 C 0.503 0.16247 0.80769 0.0
C802 C 0.52856 0.14668 0.88646 0.0
C803 C 0.51097 0.14172 0.91212 0.0
C804 C 0.50558 0.15442 0.84334 0.0
C805 C 0.49062 0.14283 0.90201 0.0
C806 C 0.48444 0.16713 0.80006 0.0
C807 C 0.51879 0.17493 0.74963 0.0
N808 N 0.48856 0.14922 0.86848 0.0
N809 N 0.51943 0.16637 0.78215 0.0
H810 H 0.85859 0.42071 0.90477 0.0
H811 H 0.83988 0.3034 0.8012 0.0
H812 H 0.87612 0.36894 0.9466 0.0
H813 H 0.8032 0.34199 0.77603 0.0
H814 H 0.86627 0.33643 0.84168 0.0
H815 H 0.85043 0.40025 0.84706 0.0
C816 C 0.861 0.4052 0.9018 0.0
C817 C 0.86754 0.3962 0.9309 0.0
C818 C 0.85297 0.33804 0.82637 0.0
C819 C 0.85844 0.3729 0.86463 0.0
C820 C 0.83814 0.31936 0.8028 0.0
C821 C 0.81901 0.31978 0.78586 0.0
C822 C 0.84869 0.35721 0.83259 0.0
C823 C 0.81751 0.34084 0.78909 0.0
C824 C 0.85641 0.39361 0.86875 0.0
C825 C 0.87067 0.37624 0.92516 0.0
N826 N 0.83178 0.35851 0.81272 0.0
N827 N 0.86582 0.36509 0.89278 0.0
H828 H 0.56007 0.40772 0.41042 0.0
H829 H 0.45692 0.27524 0.35003 0.0
H830 H 0.51373 0.35292 0.48435 0.0
H831 H 0.49709 0.33366 0.27746 0.0
H832 H 0.47696 0.30334 0.39976 0.0
H833 H 0.53707 0.38059 0.36145 0.0
C834 C 0.54507 0.38998 0.41641 0.0
C835 C 0.53889 0.3826 0.45163 0.0
C836 C 0.48124 0.31003 0.37294 0.0
C837 C 0.5124 0.35139 0.39551 0.0
C838 C 0.46977 0.29401 0.34454 0.0
C839 C 0.47543 0.30207 0.30951 0.0
C840 C 0.49859 0.33423 0.36624 0.0
C841 C 0.49222 0.3266 0.304 0.0
C842 C 0.53187 0.37451 0.38838 0.0
C843 C 0.51917 0.35941 0.45765 0.0
N844 N 0.50332 0.34174 0.33204 0.0
N845 N 0.50669 0.3446 0.42987 0.0
H846 H 0.66262 0.17261 0.21581 0.0
H847 H 0.66347 0.13853 0.41917 0.0
H848 H 0.72188 0.17072 0.26534 0.0
H849 H 0.60973 0.1513 0.37306 0.0
H850 H 0.68281 0.14554 0.36139 0.0
H851 H 0.64062 0.15969 0.27141 0.0
C852 C 0.67094 0.16925 0.23827 0.0
C853 C 0.69423 0.17295 0.23595 0.0
C854 C 0.66674 0.14672 0.36391 0.0
C855 C 0.66914 0.15826 0.29985 0.0
C856 C 0.65565 0.14269 0.39691 0.0
C857 C 0.63499 0.14447 0.40113 0.0
C858 C 0.65708 0.15247 0.33481 0.0
C859 C 0.62569 0.14989 0.37121 0.0
C860 C 0.65838 0.16195 0.27007 0.0
C861 C 0.70403 0.16822 0.26595 0.0
N862 N 0.63683 0.15375 0.33938 0.0
N863 N 0.69148 0.16126 0.29671 0.0
H864 H 0.79733 0.43748 0.37815 0.0
H865 H 0.81152 0.53305 0.2332 0.0
H866 H 0.86561 0.49977 0.35315 0.0
H867 H 0.74355 0.47573 0.27114 0.0
H868 H 0.83188 0.52356 0.27977 0.0
H869 H 0.77732 0.45372 0.34277 0.0
C870 C 0.80808 0.45468 0.36529 0.0
C871 C 0.83311 0.4671 0.36787 0.0
C872 C 0.8125 0.51325 0.27804 0.0
C873 C 0.81045 0.48583 0.32703 0.0
C874 C 0.80089 0.51859 0.25141 0.0
C875 C 0.77583 0.50492 0.24796 0.0
C876 C 0.79891 0.49407 0.30118 0.0
C877 C 0.76291 0.48654 0.27245 0.0
C878 C 0.79667 0.46405 0.3452 0.0
C879 C 0.84622 0.48967 0.35159 0.0
N880 N 0.77461 0.48155 0.29778 0.0
N881 N 0.83475 0.49816 0.33125 0.0
H882 H 0.65015 0.19115 0.98936 0.0
H883 H 0.69736 0.16801 0.80601 0.0
H884 H 0.60337 0.13147 0.91994 0.0
H885 H 0.72543 0.23805 0.85712 0.0
H886 H 0.66553 0.1507 0.85102 0.0
H887 H 0.68175 0.20444 0.94532 0.0
C888 C 0.64658 0.18068 0.96501 0.0
C889 C 0.624 0.16033 0.95815 0.0
C890 C 0.67868 0.16986 0.85207 0.0
C891 C 0.66011 0.17555 0.90753 0.0
C892 C 0.69674 0.17972 0.82647 0.0
C893 C 0.71396 0.20451 0.82774 0.0
C894 C 0.67832 0.18487 0.8793 0.0
C895 C 0.71246 0.21889 0.85487 0.0
C896 C 0.66459 0.18836 0.93979 0.0
C897 C 0.62048 0.1474 0.92614 0.0
N898 N 0.6951 0.20884 0.87964 0.0
N899 N 0.63836 0.15529 0.90184 0.0
H900 H 0.81919 0.49245 0.95757 0.0
H901 H 0.85048 0.5218 0.75233 0.0
H902 H 0.88056 0.49524 0.90732 0.0
H903 H 0.78419 0.50864 0.79981 0.0
H904 H 0.86456 0.51784 0.81059 0.0
H905 H 0.80924 0.50447 0.90186 0.0
C906 C 0.83076 0.49587 0.93496 0.0
C907 C 0.85061 0.49258 0.93705 0.0
C908 C 0.84699 0.51596 0.80827 0.0
C909 C 0.83919 0.50621 0.87305 0.0
C910 C 0.83892 0.51824 0.77499 0.0
C911 C 0.81599 0.51533 0.77101 0.0
C912 C 0.83209 0.5108 0.83788 0.0
C913 C 0.80191 0.51082 0.80147 0.0
C914 C 0.825 0.50266 0.90309 0.0
C915 C 0.86499 0.4974 0.90688 0.0
N916 N 0.81013 0.50859 0.83355 0.0
N917 N 0.85888 0.50378 0.87604 0.0
H918 H 0.50971 0.38458 0.82437 0.0
H919 H 0.49197 0.25898 0.74963 0.0
H920 H 0.49887 0.32534 0.89062 0.0
H921 H 0.49607 0.31504 0.68218 0.0
H922 H 0.49413 0.28311 0.80149 0.0
H923 H 0.5038 0.35924 0.77188 0.0
C924 C 0.50586 0.36618 0.82791 0.0
C925 C 0.50491 0.35712 0.86197 0.0
C926 C 0.4945 0.29013 0.77536 0.0
C927 C 0.49836 0.32812 0.80202 0.0
C928 C 0.49335 0.27638 0.74566 0.0
C929 C 0.4939 0.28499 0.71139 0.0
C930 C 0.49633 0.31277 0.7709 0.0
C931 C 0.4956 0.30765 0.70805 0.0
C932 C 0.50254 0.35175 0.79792 0.0
C933 C 0.49986 0.33314 0.86492 0.0
N934 N 0.49683 0.32079 0.73743 0.0
N935 N 0.49694 0.31956 0.83536 0.0
H936 H 0.50681 0.62976 0.56084 0.0
H937 H 0.45822 0.65701 0.7382 0.0
H938 H 0.43398 0.5853 0.59689 0.0
H939 H 0.53361 0.69055 0.71437 0.0
H940 H 0.44932 0.62882 0.68851 0.0
H941 H 0.51743 0.65086 0.61822 0.0
C942 C 0.49308 0.62431 0.58087 0.0
C943 C 0.46939 0.6059 0.57384 0.0
C944 C 0.46785 0.64212 0.69442 0.0
C945 C 0.48145 0.63005 0.63957 0.0
C946 C 0.47293 0.65821 0.7228 0.0
C947 C 0.49664 0.67636 0.73014 0.0
C948 C 0.48659 0.64439 0.67291 0.0
C949 C 0.51503 0.67697 0.70953 0.0
C950 C 0.49919 0.6363 0.6137 0.0
C951 C 0.45243 0.59948 0.60098 0.0
N952 N 0.50958 0.66146 0.68148 0.0
N953 N 0.45873 0.61173 0.63248 0.0
H954 H 0.34905 0.8646 0.58161 0.0
H955 H 0.32605 0.77466 0.73968 0.0
H956 H 0.39228 0.83191 0.6012 0.0
H957 H 0.29957 0.82453 0.74287 0.0
H958 H 0.34861 0.79425 0.68664 0.0
H959 H 0.32934 0.84948 0.63879 0.0
C960 C 0.35456 0.85445 0.59799 0.0
C961 C 0.37226 0.84938 0.58638 0.0
C962 C 0.33799 0.80105 0.69896 0.0
C963 C 0.3496 0.83189 0.6515 0.0
C964 C 0.32496 0.78976 0.72919 0.0
C965 C 0.31083 0.79793 0.74567 0.0
C966 C 0.33669 0.82048 0.68463 0.0
C967 C 0.31028 0.8177 0.73097 0.0
C968 C 0.34331 0.84587 0.63062 0.0
C969 C 0.3787 0.83622 0.60885 0.0
N970 N 0.32289 0.82822 0.70102 0.0
N971 N 0.36722 0.82775 0.64008 0.0
H972 H 0.14624 0.56471 0.64723 0.0
H973 H 0.19609 0.48105 0.7187 0.0
H974 H 0.13668 0.50097 0.59151 0.0
H975 H 0.20399 0.54374 0.77547 0.0
H976 H 0.17302 0.48718 0.67289 0.0
H977 H 0.16608 0.55639 0.69548 0.0
C978 C 0.14819 0.54889 0.64516 0.0
C979 C 0.13982 0.53357 0.6151 0.0
C980 C 0.17972 0.49954 0.69543 0.0
C981 C 0.16267 0.524 0.67039 0.0
C982 C 0.19291 0.49606 0.72162 0.0
C983 C 0.20208 0.51197 0.75094 0.0
C984 C 0.1757 0.51911 0.69848 0.0
C985 C 0.19733 0.53106 0.75331 0.0
C986 C 0.15955 0.54416 0.67277 0.0
C987 C 0.14286 0.51332 0.61407 0.0
N988 N 0.18455 0.53414 0.72737 0.0
N989 N 0.15412 0.5092 0.64122 0.0
H990 H 0.3769 0.85206 0.11096 0.0
H991 H 0.24905 0.75924 0.19346 0.0
H992 H 0.32428 0.78556 0.05922 0.0
H993 H 0.30062 0.82608 0.24572 0.0
H994 H 0.27646 0.76897 0.14395 0.0
H995 H 0.34917 0.84338 0.16018 0.0
C996 C 0.35948 0.83569 0.10985 0.0
C997 C 0.35292 0.81949 0.08092 0.0
C998 C 0.2818 0.78155 0.1662 0.0
C999 C 0.32116 0.80941 0.13724 0.0
C1000 C 0.26614 0.77599 0.19459 0.0
C1001 C 0.27249 0.79187 0.22392 0.0
C1002 C 0.30407 0.80315 0.16699 0.0
C1003 C 0.29494 0.81329 0.22372 0.0
C1004 C 0.34368 0.83073 0.13801 0.0
C1005 C 0.33013 0.79856 0.08096 0.0
N1006 N 0.30992 0.81829 0.19571 0.0
N1007 N 0.31512 0.79411 0.10871 0.0
H1008 H 0.20961 0.55254 0.10213 0.0
H1009 H 0.14899 0.46581 0.26662 0.0
H1010 H 0.134 0.49954 0.10345 0.0
H1011 H 0.22483 0.50225 0.24442 0.0
H1012 H 0.14238 0.47995 0.20984 0.0
H1013 H 0.21474 0.53664 0.15761 0.0
C1014 C 0.19402 0.53755 0.11412 0.0
C1015 C 0.17132 0.52733 0.09807 0.0
C1016 C 0.16041 0.4847 0.21744 0.0
C1017 C 0.17712 0.50902 0.16191 0.0
C1018 C 0.16423 0.47671 0.24985 0.0
C1019 C 0.18752 0.48289 0.26041 0.0
C1020 C 0.18005 0.49921 0.19575 0.0
C1021 C 0.20656 0.49699 0.2375 0.0
C1022 C 0.19701 0.5284 0.14578 0.0
C1023 C 0.15183 0.50789 0.11489 0.0
N1024 N 0.20241 0.50478 0.20644 0.0
N1025 N 0.15515 0.4994 0.14607 0.0
H1026 H 0.5076 0.74774 0.24043 0.0
H1027 H 0.50528 0.63676 0.13655 0.0
H1028 H 0.5285 0.70023 0.28873 0.0
H1029 H 0.46869 0.67347 0.1006 0.0
H1030 H 0.52007 0.66406 0.18834 0.0
H1031 H 0.49897 0.72448 0.1853 0.0
C1032 C 0.51044 0.73244 0.23949 0.0
C1033 C 0.51864 0.72585 0.26945 0.0
C1034 C 0.50898 0.66624 0.16891 0.0
C1035 C 0.50886 0.69916 0.20608 0.0
C1036 C 0.50067 0.65079 0.13922 0.0
C1037 C 0.48554 0.65273 0.11439 0.0
C1038 C 0.5023 0.68385 0.17353 0.0
C1039 C 0.48013 0.67122 0.11927 0.0
C1040 C 0.50549 0.71916 0.20793 0.0
C1041 C 0.52203 0.70587 0.26643 0.0
N1042 N 0.4884 0.68597 0.14833 0.0
N1043 N 0.51709 0.6932 0.2353 0.0
H1044 H 0.12463 0.6148 0.6649 0.0
H1045 H 0.23572 0.73545 0.74659 0.0
H1046 H 0.17791 0.67303 0.60186 0.0
H1047 H 0.1801 0.67995 0.81056 0.0
H1048 H 0.21435 0.71286 0.69334 0.0
H1049 H 0.14379 0.63877 0.71858 0.0
C1050 C 0.14018 0.63272 0.6623 0.0
C1051 C 0.14974 0.64187 0.6288 0.0
C1052 C 0.20678 0.70562 0.71902 0.0
C1053 C 0.17191 0.66926 0.69014 0.0
C1054 C 0.21903 0.71849 0.74951 0.0
C1055 C 0.20974 0.7096 0.78322 0.0
C1056 C 0.18506 0.68362 0.72211 0.0
C1057 C 0.18798 0.68752 0.78519 0.0
C1058 C 0.15117 0.64636 0.69297 0.0
C1059 C 0.16995 0.66519 0.62708 0.0
N1060 N 0.17641 0.67527 0.75506 0.0
N1061 N 0.18044 0.67799 0.6573 0.0
H1062 H 0.27278 0.49539 0.7035 0.0
H1063 H 0.38195 0.50432 0.59157 0.0
H1064 H 0.32469 0.47865 0.74613 0.0
H1065 H 0.32772 0.51729 0.548 0.0
H1066 H 0.35966 0.49194 0.64711 0.0
H1067 H 0.29131 0.50103 0.64539 0.0
C1068 C 0.28803 0.49282 0.70068 0.0
C1069 C 0.29727 0.48669 0.72992 0.0
C1070 C 0.35253 0.49728 0.62528 0.0
C1071 C 0.31863 0.49316 0.66323 0.0
C1072 C 0.36522 0.5043 0.59351 0.0
C1073 C 0.35681 0.51207 0.56515 0.0
C1074 C 0.33133 0.49814 0.62881 0.0
C1075 C 0.33498 0.51159 0.5692 0.0
C1076 C 0.29858 0.496 0.6674 0.0
C1077 C 0.31699 0.48346 0.72445 0.0
N1078 N 0.32312 0.50498 0.60052 0.0
N1079 N 0.32709 0.48688 0.69184 0.0
H1080 H 0.48366 0.74279 0.65449 0.0
H1081 H 0.47411 0.85494 0.58349 0.0
H1082 H 0.52232 0.81419 0.70244 0.0
H1083 H 0.44802 0.78747 0.52563 0.0
H1084 H 0.49048 0.84016 0.62893 0.0
H1085 H 0.46827 0.75842 0.60919 0.0
C1086 C 0.48881 0.76174 0.65562 0.0
C1087 C 0.50431 0.77722 0.68227 0.0
C1088 C 0.48128 0.82867 0.60617 0.0
C1089 C 0.48684 0.79528 0.63032 0.0
C1090 C 0.47197 0.83711 0.58019 0.0
C1091 C 0.45964 0.82241 0.55072 0.0
C1092 C 0.47805 0.80531 0.60276 0.0
C1093 C 0.45738 0.79945 0.54787 0.0
C1094 C 0.48011 0.77068 0.62961 0.0
C1095 C 0.51043 0.80163 0.68232 0.0
N1096 N 0.46637 0.79157 0.57364 0.0
N1097 N 0.50166 0.80992 0.65674 0.0
H1098 H 0.29793 0.54645 0.26168 0.0
H1099 H 0.37521 0.51338 0.13194 0.0
H1100 H 0.29042 0.47544 0.25859 0.0
H1101 H 0.39514 0.58642 0.16286 0.0
H1102 H 0.34071 0.49809 0.17179 0.0
H1103 H 0.33023 0.56024 0.21883 0.0
C1104 C 0.30303 0.5337 0.25194 0.0
C1105 C 0.29152 0.50976 0.26391 0.0
C1106 C 0.35264 0.51745 0.16968 0.0
C1107 C 0.32855 0.52551 0.21457 0.0
C1108 C 0.37224 0.5262 0.14685 0.0
C1109 C 0.38807 0.55124 0.14402 0.0
C1110 C 0.34874 0.53388 0.18944 0.0
C1111 C 0.38343 0.56701 0.16408 0.0
C1112 C 0.32155 0.54164 0.2275 0.0
C1113 C 0.29892 0.49409 0.25023 0.0
N1114 N 0.36418 0.55806 0.18586 0.0
N1115 N 0.31699 0.50224 0.22619 0.0
H1116 H 0.4732 0.82352 0.2779 0.0
H1117 H 0.50638 0.85351 0.07309 0.0
H1118 H 0.535 0.82616 0.22945 0.0
H1119 H 0.43973 0.84024 0.11936 0.0
H1120 H 0.5193 0.8477 0.13127 0.0
H1121 H 0.46312 0.83427 0.22125 0.0
C1122 C 0.48479 0.82656 0.25543 0.0
C1123 C 0.50489 0.82376 0.2584 0.0
C1124 C 0.50188 0.84612 0.12866 0.0
C1125 C 0.49335 0.83596 0.19329 0.0
C1126 C 0.49448 0.84945 0.09544 0.0
C1127 C 0.47186 0.84723 0.0912 0.0
C1128 C 0.48662 0.84067 0.15791 0.0
C1129 C 0.45725 0.84198 0.12122 0.0
C1130 C 0.47896 0.83263 0.22302 0.0
C1131 C 0.51927 0.82802 0.22835 0.0
N1132 N 0.46488 0.83885 0.15323 0.0
N1133 N 0.51315 0.83379 0.19699 0.0
H1134 H 0.21185 0.67725 0.21405 0.0
H1135 H 0.15238 0.63725 0.02188 0.0
H1136 H 0.16726 0.70339 0.17127 0.0
H1137 H 0.17646 0.59665 0.08269 0.0
H1138 H 0.16071 0.66434 0.07326 0.0
H1139 H 0.20202 0.65023 0.16297 0.0
C1140 C 0.19993 0.67729 0.19388 0.0
C1141 C 0.19035 0.69261 0.19692 0.0
C1142 C 0.16408 0.64944 0.07526 0.0
C1143 C 0.17912 0.66168 0.13804 0.0
C1144 C 0.15948 0.63407 0.04594 0.0
C1145 C 0.16376 0.61465 0.04795 0.0
C1146 C 0.17333 0.64554 0.10657 0.0
C1147 C 0.17283 0.61132 0.07987 0.0
C1148 C 0.19427 0.66177 0.16474 0.0
C1149 C 0.17494 0.69178 0.16998 0.0
N1150 N 0.1774 0.62666 0.1078 0.0
N1151 N 0.1699 0.67665 0.14144 0.0
H1152 H 0.14622 0.15797 0.30386 0.0
H1153 H 0.10484 0.06977 0.13728 0.0
H1154 H 0.0717 0.11114 0.27662 0.0
H1155 H 0.1763 0.10372 0.18201 0.0
H1156 H 0.09137 0.08152 0.19054 0.0
H1157 H 0.15689 0.13548 0.26237 0.0
C1158 C 0.13209 0.14282 0.28922 0.0
C1159 C 0.10813 0.13667 0.293 0.0
C1160 C 0.10991 0.08604 0.1889 0.0
C1161 C 0.12012 0.11087 0.24525 0.0
C1162 C 0.11764 0.07938 0.15845 0.0
C1163 C 0.14186 0.08614 0.1548 0.0
C1164 C 0.12656 0.09977 0.21569 0.0
C1165 C 0.15754 0.09839 0.18332 0.0
C1166 C 0.13815 0.12985 0.2657 0.0
C1167 C 0.09042 0.11646 0.27422 0.0
N1168 N 0.1497 0.10511 0.21227 0.0
N1169 N 0.0968 0.10452 0.25054 0.0
H1170 H 0.8485 0.93147 0.22372 0.0
H1171 H 0.92875 0.06637 0.27105 0.0
H1172 H 0.88521 0.95133 0.32482 0.0
H1173 H 0.93324 0.04137 0.16615 0.0
H1174 H 0.91099 0.02473 0.29232 0.0
H1175 H 0.87724 0.97184 0.20161 0.0
C1176 C 0.86285 0.94423 0.24102 0.0
C1177 C 0.86458 0.93819 0.27606 0.0
C1178 C 0.91639 0.02849 0.26484 0.0
C1179 C 0.89691 0.98426 0.25138 0.0
C1180 C 0.92646 0.05214 0.25274 0.0
C1181 C 0.93253 0.05716 0.21694 0.0
C1182 C 0.9116 0.00972 0.24063 0.0
C1183 C 0.929 0.03817 0.19406 0.0
C1184 C 0.87924 0.96713 0.22839 0.0
C1185 C 0.88341 0.95531 0.29755 0.0
N1186 N 0.91821 0.0151 0.20612 0.0
N1187 N 0.89859 0.97784 0.28511 0.0
H1188 H 0.98593 0.84028 0.1908 0.0
H1189 H 0.03766 0.92724 0.35691 0.0
H1190 H 0.96381 0.89161 0.21836 0.0
H1191 H 0.07059 0.88857 0.31256 0.0
H1192 H 0.01392 0.91862 0.30267 0.0
H1193 H 0.02025 0.86145 0.23077 0.0
C1194 C 0.98845 0.85615 0.20516 0.0
C1195 C 0.97181 0.86392 0.20211 0.0
C1196 C 0.02666 0.91241 0.30455 0.0
C1197 C 0.0109 0.8882 0.24805 0.0
C1198 C 0.04019 0.91726 0.33558 0.0
C1199 C 0.05576 0.90814 0.33966 0.0
C1200 C 0.0285 0.89808 0.27763 0.0
C1201 C 0.05854 0.89564 0.31089 0.0
C1202 C 0.00815 0.86838 0.22778 0.0
C1203 C 0.97623 0.88502 0.22034 0.0
N1204 N 0.04471 0.8906 0.28137 0.0
N1205 N 0.99513 0.89618 0.24322 0.0
H1206 H 0.84548 0.8033 0.75657 0.0
H1207 H 0.84198 0.92413 0.80079 0.0
H1208 H 0.89031 0.86986 0.70124 0.0
H1209 H 0.79709 0.8542 0.84699 0.0
H1210 H 0.86292 0.90699 0.76715 0.0
H1211 H 0.8305 0.82393 0.7932 0.0
C1212 C 0.85215 0.82235 0.75206 0.0
C1213 C 0.86891 0.83481 0.72551 0.0
C1214 C 0.84842 0.89549 0.78468 0.0
C1215 C 0.85166 0.8588 0.76759 0.0
C1216 C 0.83654 0.90523 0.80381 0.0
C1217 C 0.81724 0.89029 0.82578 0.0
C1218 C 0.84102 0.87084 0.78825 0.0
C1219 C 0.81104 0.8661 0.82929 0.0
C1220 C 0.84361 0.83421 0.77313 0.0
C1221 C 0.87725 0.85961 0.72138 0.0
N1222 N 0.8228 0.85717 0.81071 0.0
N1223 N 0.86835 0.87084 0.74208 0.0
H1224 H 0.13332 0.05667 0.73316 0.0
H1225 H 0.11999 0.92534 0.73501 0.0
H1226 H 0.18258 0.03756 0.68693 0.0
H1227 H 0.08144 0.9449 0.80899 0.0
H1228 H 0.13664 0.96479 0.70797 0.0
H1229 H 0.10845 0.01445 0.75331 0.0
C1230 C 0.13883 0.0436 0.7272 0.0
C1231 C 0.16032 0.05065 0.70915 0.0
C1232 C 0.12445 0.96053 0.73001 0.0
C1233 C 0.13207 0.0028 0.73115 0.0
C1234 C 0.1149 0.93796 0.74543 0.0
C1235 C 0.09967 0.93204 0.77466 0.0
C1236 C 0.11897 0.97758 0.74401 0.0
C1237 C 0.0933 0.94891 0.78661 0.0
C1238 C 0.12473 0.01965 0.73868 0.0
C1239 C 0.16665 0.03316 0.70172 0.0
N1240 N 0.10327 0.97117 0.7715 0.0
N1241 N 0.15264 0.01014 0.71271 0.0
H1242 H 0.91208 0.08559 0.72799 0.0
H1243 H 0.0462 0.17776 0.72106 0.0
H1244 H 0.94883 0.09641 0.62859 0.0
H1245 H 0.02232 0.12556 0.80501 0.0
H1246 H 0.00902 0.15127 0.68829 0.0
H1247 H 0.95067 0.1022 0.75951 0.0
C1248 C 0.92825 0.09085 0.713 0.0
C1249 C 0.92751 0.08942 0.6759 0.0
C1250 C 0.01209 0.14554 0.7137 0.0
C1251 C 0.97129 0.10922 0.71124 0.0
C1252 C 0.0331 0.16066 0.73248 0.0
C1253 C 0.03713 0.15374 0.76568 0.0
C1254 C 0.99474 0.12377 0.72881 0.0
C1255 C 0.01976 0.1314 0.77937 0.0
C1256 C 0.95013 0.1003 0.73088 0.0
C1257 C 0.94882 0.09691 0.65733 0.0
N1258 N -0.00103 0.11732 0.76114 0.0
N1259 N 0.97004 0.10707 0.6752 0.0
H1260 H 0.73634 0.43169 0.62915 0.0
H1261 H 0.84352 0.43334 0.52206 0.0
H1262 H 0.81125 0.48404 0.64492 0.0
H1263 H 0.76959 0.39454 0.48705 0.0
H1264 H 0.83087 0.44238 0.5783 0.0
H1265 H 0.74756 0.40878 0.58856 0.0
C1266 C 0.75515 0.43804 0.62466 0.0
C1267 C 0.77292 0.46007 0.63951 0.0
C1268 C 0.81738 0.43154 0.55851 0.0
C1269 C 0.78583 0.43415 0.59352 0.0
C1270 C 0.82457 0.42632 0.52637 0.0
C1271 C 0.80765 0.41368 0.49936 0.0
C1272 C 0.79313 0.4241 0.56372 0.0
C1273 C 0.78332 0.40476 0.50681 0.0
C1274 C 0.76152 0.42507 0.60143 0.0
C1275 C 0.797 0.46756 0.63303 0.0
N1276 N 0.77682 0.41048 0.5381 0.0
N1277 N 0.80276 0.45476 0.61021 0.0
H1278 H 0.56115 0.28939 0.65787 0.0
H1279 H 0.60838 0.385 0.50211 0.0
H1280 H 0.53207 0.27047 0.55168 0.0
H1281 H 0.59326 0.40252 0.60623 0.0
H1282 H 0.59376 0.34335 0.52128 0.0
H1283 H 0.58644 0.33164 0.63952 0.0
C1284 C 0.56062 0.29402 0.63047 0.0
C1285 C 0.54459 0.27659 0.60614 0.0
C1286 C 0.59417 0.35652 0.54003 0.0
C1287 C 0.57342 0.32438 0.58518 0.0
C1288 C 0.6026 0.38024 0.52927 0.0
C1289 C 0.6019 0.39708 0.55269 0.0
C1290 C 0.58559 0.3499 0.57462 0.0
C1291 C 0.59395 0.38996 0.58743 0.0
C1292 C 0.57487 0.31805 0.62018 0.0
C1293 C 0.54422 0.28349 0.57113 0.0
N1294 N 0.58604 0.36681 0.59741 0.0
N1295 N 0.55846 0.30694 0.56162 0.0
H1296 H 0.65538 0.16682 0.53507 0.0
H1297 H 0.70423 0.26314 0.69223 0.0
H1298 H 0.63111 0.21772 0.55185 0.0
H1299 H 0.73841 0.22317 0.6585 0.0
H1300 H 0.67965 0.24962 0.6383 0.0
H1301 H 0.68806 0.18969 0.57709 0.0
C1302 C 0.657 0.18289 0.54753 0.0
C1303 C 0.64025 0.19011 0.54062 0.0
C1304 C 0.69279 0.24412 0.64246 0.0
C1305 C 0.67762 0.21645 0.58892 0.0
C1306 C 0.70683 0.25181 0.6733 0.0
C1307 C 0.72317 0.24397 0.68028 0.0
C1308 C 0.69492 0.22828 0.61862 0.0
C1309 C 0.72588 0.22947 0.65455 0.0
C1310 C 0.6758 0.19609 0.57136 0.0
C1311 C 0.64363 0.21151 0.55668 0.0
N1312 N 0.71165 0.22182 0.62517 0.0
N1313 N 0.66171 0.22373 0.58065 0.0
H1314 H 0.50085 0.16185 0.02836 0.0
H1315 H 0.52033 0.25598 0.18267 0.0
H1316 H 0.56959 0.20708 0.07857 0.0
H1317 H 0.45446 0.21331 0.12376 0.0
H1318 H 0.54083 0.24325 0.14011 0.0
H1319 H 0.48554 0.18522 0.05786 0.0
C1320 C 0.5127 0.17676 0.0457 0.0
C1321 C 0.53624 0.18223 0.05188 0.0
C1322 C 0.52198 0.23703 0.13626 0.0
C1323 C 0.51894 0.20913 0.08601 0.0
C1324 C 0.51033 0.24432 0.16045 0.0
C1325 C 0.48562 0.23526 0.157 0.0
C1326 C 0.50871 0.2207 0.10862 0.0
C1327 C 0.47344 0.22029 0.12778 0.0
C1328 C 0.50405 0.19027 0.06238 0.0
C1329 C 0.5512 0.20226 0.07353 0.0
N1330 N 0.48505 0.21331 0.10498 0.0
N1331 N 0.54216 0.21479 0.09046 0.0
H1332 H 0.83272 0.39871 0.11049 0.0
H1333 H 0.77161 0.26441 0.05799 0.0
H1334 H 0.80191 0.37786 0.00554 0.0
H1335 H 0.75242 0.2834 0.15785 0.0
H1336 H 0.78661 0.30596 0.03774 0.0
H1337 H 0.80721 0.35667 0.12948 0.0
C1338 C 0.82027 0.38529 0.09168 0.0
C1339 C 0.81916 0.39158 0.05657 0.0
C1340 C 0.7787 0.30084 0.06381 0.0
C1341 C 0.79079 0.34373 0.07762 0.0
C1342 C 0.77026 0.27728 0.07538 0.0
C1343 C 0.76075 0.27062 0.1095 0.0
C1344 C 0.77838 0.31794 0.08706 0.0
C1345 C 0.75947 0.28788 0.13122 0.0
C1346 C 0.80575 0.36145 0.1025 0.0
C1347 C 0.80298 0.37363 0.03296 0.0
N1348 N 0.76872 0.311 0.11993 0.0
N1349 N 0.78974 0.35029 0.04371 0.0
H1350 H 0.56892 0.44652 0.05104 0.0
H1351 H 0.69478 0.45604 0.09143 0.0
H1352 H 0.59386 0.40592 0.99063 0.0
H1353 H 0.67467 0.50795 0.12499 0.0
H1354 H 0.65481 0.43121 0.06407 0.0
H1355 H 0.60412 0.46205 0.08916 0.0
C1356 C 0.58173 0.44065 0.04609 0.0
C1357 C 0.57876 0.42529 0.01732 0.0
C1358 C 0.65922 0.44801 0.07759 0.0
C1359 C 0.61932 0.44328 0.06058 0.0
C1360 C 0.6819 0.46211 0.09316 0.0
C1361 C 0.68812 0.48434 0.10957 0.0
C1362 C 0.64269 0.45611 0.07927 0.0
C1363 C 0.6709 0.49139 0.11152 0.0
C1364 C 0.60185 0.44957 0.06781 0.0
C1365 C 0.59565 0.41789 0.01246 0.0
N1366 N 0.649 0.47736 0.09648 0.0
N1367 N 0.61553 0.42729 0.03362 0.0
H1368 H 0.46978 0.825 0.96411 0.0
H1369 H 0.43268 0.73317 0.80132 0.0
H1370 H 0.39593 0.77597 0.93554 0.0
H1371 H 0.50316 0.76878 0.84964 0.0
H1372 H 0.41832 0.74754 0.85067 0.0
H1373 H 0.48201 0.80354 0.92319 0.0
C1374 C 0.45615 0.80965 0.94919 0.0
C1375 C 0.4319 0.80248 0.95255 0.0
C1376 C 0.43685 0.75196 0.85059 0.0
C1377 C 0.44566 0.77779 0.90561 0.0
C1378 C 0.4451 0.74386 0.82236 0.0
C1379 C 0.46924 0.74999 0.82109 0.0
C1380 C 0.45292 0.76649 0.87748 0.0
C1381 C 0.48445 0.76373 0.84928 0.0
C1382 C 0.46309 0.79726 0.92602 0.0
C1383 C 0.41484 0.78203 0.93348 0.0
N1384 N 0.47609 0.77171 0.87608 0.0
N1385 N 0.42207 0.77058 0.91027 0.0
H1386 H 0.27426 0.70624 0.84 0.0
H1387 H 0.18584 0.58915 0.88697 0.0
H1388 H 0.25623 0.71995 0.94458 0.0
H1389 H 0.22363 0.60731 0.9872 0.0
H1390 H 0.21319 0.6306 0.86702 0.0
H1391 H 0.25681 0.66331 0.85479 0.0
C1392 C 0.2672 0.70031 0.86636 0.0
C1393 C 0.26654 0.71649 0.89118 0.0
C1394 C 0.21582 0.62522 0.89299 0.0
C1395 C 0.24684 0.66789 0.908 0.0
C1396 C 0.20024 0.60172 0.90438 0.0
C1397 C 0.2027 0.5949 0.93857 0.0
C1398 C 0.23338 0.64203 0.91646 0.0
C1399 C 0.22139 0.61185 0.96044 0.0
C1400 C 0.25711 0.67589 0.87457 0.0
C1401 C 0.25694 0.70793 0.92476 0.0
N1402 N 0.23569 0.63491 0.94933 0.0
N1403 N 0.24744 0.68412 0.93227 0.0
H1404 H 0.37278 0.60257 0.02237 0.0
H1405 H 0.32119 0.51085 0.85968 0.0
H1406 H 0.40714 0.56467 0.98041 0.0
H1407 H 0.29752 0.56141 0.88404 0.0
H1408 H 0.35448 0.53234 0.9013 0.0
H1409 H 0.34662 0.58976 0.97013 0.0
C1410 C 0.37497 0.59172 0.00208 0.0
C1411 C 0.39198 0.5844 0.00608 0.0
C1412 C 0.34222 0.53897 0.8973 0.0
C1413 C 0.36203 0.56964 0.94629 0.0
C1414 C 0.32311 0.52659 0.8737 0.0
C1415 C 0.30637 0.53411 0.86909 0.0
C1416 C 0.34434 0.55878 0.91691 0.0
C1417 C 0.31006 0.55503 0.88707 0.0
C1418 C 0.36009 0.58451 0.97218 0.0
C1419 C 0.39416 0.57057 0.97869 0.0
N1420 N 0.32844 0.56643 0.91078 0.0
N1421 N 0.37915 0.56339 0.95021 0.0
H1422 H 0.1278 0.54496 0.44953 0.0
H1423 H 0.24647 0.54995 0.39078 0.0
H1424 H 0.19279 0.59698 0.50408 0.0
H1425 H 0.18292 0.48361 0.42057 0.0
H1426 H 0.22898 0.57297 0.41719 0.0
H1427 H 0.14991 0.52836 0.41984 0.0
C1428 C 0.14679 0.55307 0.45504 0.0
C1429 C 0.15835 0.5719 0.48011 0.0
C1430 C 0.21905 0.55336 0.41772 0.0
C1431 C 0.18372 0.55329 0.44555 0.0
C1432 C 0.2289 0.54022 0.40273 0.0
C1433 C 0.21586 0.51475 0.40268 0.0
C1434 C 0.19591 0.5408 0.43182 0.0
C1435 C 0.19333 0.5031 0.41889 0.0
C1436 C 0.15934 0.5436 0.43802 0.0
C1437 C 0.18318 0.58222 0.48526 0.0
N1438 N 0.18393 0.5162 0.43231 0.0
N1439 N 0.19513 0.57259 0.46828 0.0
H1440 H 0.46775 0.62627 0.46789 0.0
H1441 H 0.45218 0.72091 0.35853 0.0
H1442 H 0.39751 0.60662 0.42875 0.0
H1443 H 0.5058 0.7402 0.4403 0.0
H1444 H 0.43077 0.67921 0.38099 0.0
H1445 H 0.48205 0.66799 0.45344 0.0
C1446 C 0.45537 0.63065 0.45575 0.0
C1447 C 0.43158 0.61283 0.44881 0.0
C1448 C 0.44694 0.69278 0.39437 0.0
C1449 C 0.44775 0.6611 0.43257 0.0
C1450 C 0.4591 0.71653 0.3817 0.0
C1451 C 0.481 0.73383 0.39725 0.0
C1452 C 0.457 0.68655 0.42243 0.0
C1453 C 0.48923 0.72729 0.4271 0.0
C1454 C 0.46346 0.65467 0.44797 0.0
C1455 C 0.4161 0.61991 0.4342 0.0
N1456 N 0.47744 0.70412 0.43835 0.0
N1457 N 0.42454 0.64358 0.42601 0.0
H1458 H 0.3633 0.78179 0.4304 0.0
H1459 H 0.23931 0.77722 0.39339 0.0
H1460 H 0.34608 0.83554 0.46559 0.0
H1461 H 0.25951 0.73089 0.3379 0.0
H1462 H 0.27529 0.79294 0.42989 0.0
H1463 H 0.3226 0.7577 0.40531 0.0
C1464 C 0.35092 0.78845 0.43294 0.0
C1465 C 0.3582 0.81101 0.44912 0.0
C1466 C 0.27182 0.77918 0.40997 0.0
C1467 C 0.31191 0.78361 0.42125 0.0
C1468 C 0.25125 0.77017 0.38916 0.0
C1469 C 0.24671 0.75308 0.36222 0.0
C1470 C 0.28813 0.77122 0.40363 0.0
C1471 C 0.26251 0.74422 0.35829 0.0
C1472 C 0.3278 0.77475 0.41866 0.0
C1473 C 0.34155 0.81877 0.45216 0.0
N1474 N 0.28281 0.75368 0.37848 0.0
N1475 N 0.31923 0.80515 0.43825 0.0
H1476 H 0.25372 0.16073 0.18491 0.0
H1477 H 0.36212 0.14141 0.23659 0.0
H1478 H 0.25743 0.09666 0.16005 0.0
H1479 H 0.36487 0.21001 0.24655 0.0
H1480 H 0.31914 0.12159 0.22504 0.0
H1481 H 0.2897 0.17569 0.22191 0.0
C1482 C 0.26188 0.14963 0.18762 0.0
C1483 C 0.25282 0.12761 0.16878 0.0
C1484 C 0.329 0.1409 0.23049 0.0
C1485 C 0.2939 0.1446 0.21121 0.0
C1486 C 0.35353 0.15221 0.23733 0.0
C1487 C 0.36715 0.17746 0.24183 0.0
C1488 C 0.31804 0.15497 0.22767 0.0
C1489 C 0.35506 0.19052 0.24295 0.0
C1490 C 0.28242 0.1582 0.20877 0.0
C1491 C 0.26401 0.11392 0.17359 0.0
N1492 N 0.33123 0.17919 0.23504 0.0
N1493 N 0.2841 0.12276 0.194 0.0
H1494 H 0.78467 0.16355 0.18427 0.0
H1495 H 0.90713 0.1637 0.15035 0.0
H1496 H 0.84276 0.21612 0.1203 0.0
H1497 H 0.85048 0.11227 0.21746 0.0
H1498 H 0.88366 0.18316 0.13927 0.0
H1499 H 0.80806 0.14393 0.19601 0.0
C1500 C 0.80223 0.17088 0.1725 0.0
C1501 C 0.81174 0.19156 0.15132 0.0
C1502 C 0.87639 0.16766 0.15652 0.0
C1503 C 0.83867 0.16933 0.16487 0.0
C1504 C 0.88985 0.15658 0.16297 0.0
C1505 C 0.88079 0.13626 0.18484 0.0
C1506 C 0.85367 0.15837 0.17196 0.0
C1507 C 0.85822 0.12787 0.20039 0.0
C1508 C 0.81563 0.15974 0.17935 0.0
C1509 C 0.83467 0.20028 0.13688 0.0
N1510 N 0.84541 0.1389 0.19355 0.0
N1511 N 0.84732 0.18916 0.14398 0.0
H1512 H 0.81181 0.60641 0.17696 0.0
H1513 H 0.84698 0.74287 0.13551 0.0
H1514 H 0.76229 0.62597 0.1329 0.0
H1515 H 0.89563 0.7229 0.18178 0.0
H1516 H 0.81569 0.70016 0.13411 0.0
H1517 H 0.84265 0.64915 0.17925 0.0
C1518 C 0.80737 0.61966 0.16787 0.0
C1519 C 0.78439 0.61252 0.15463 0.0
C1520 C 0.83322 0.70516 0.14456 0.0
C1521 C 0.81973 0.66157 0.15706 0.0
C1522 C 0.85113 0.72954 0.1453 0.0
C1523 C 0.87401 0.73655 0.1588 0.0
C1524 C 0.83823 0.68763 0.15736 0.0
C1525 C 0.87829 0.71843 0.17115 0.0
C1526 C 0.82502 0.6441 0.16914 0.0
C1527 C 0.77973 0.63059 0.14328 0.0
N1528 N 0.86058 0.69485 0.17013 0.0
N1529 N 0.79726 0.65426 0.14467 0.0
H1530 H 0.21915 0.39603 0.32126 0.0
H1531 H 0.11267 0.26128 0.36014 0.0
H1532 H 0.1481 0.37818 0.35422 0.0
H1533 H 0.18151 0.2775 0.31891 0.0
H1534 H 0.12582 0.30435 0.35887 0.0
H1535 H 0.20588 0.35277 0.31965 0.0
C1536 C 0.20074 0.38307 0.32785 0.0
C1537 C 0.18479 0.39083 0.33809 0.0
C1538 C 0.13806 0.29848 0.3501 0.0
C1539 C 0.16958 0.34136 0.33667 0.0
C1540 C 0.13059 0.27387 0.35097 0.0
C1541 C 0.14598 0.26568 0.33961 0.0
C1542 C 0.16113 0.3151 0.33788 0.0
C1543 C 0.16899 0.28292 0.3279 0.0
C1544 C 0.1932 0.35837 0.32706 0.0
C1545 C 0.16113 0.37315 0.34637 0.0
N1546 N 0.17585 0.30679 0.32734 0.0
N1547 N 0.15432 0.34932 0.34566 0.0
H1548 H 0.60853 0.83808 0.30789 0.0
H1549 H 0.73029 0.83692 0.34292 0.0
H1550 H 0.61474 0.78735 0.37529 0.0
H1551 H 0.72678 0.88994 0.27727 0.0
H1552 H 0.68743 0.81808 0.35342 0.0
H1553 H 0.65156 0.8574 0.29546 0.0
C1554 C 0.61889 0.83107 0.32019 0.0
C1555 C 0.60792 0.81101 0.34262 0.0
C1556 C 0.69599 0.8338 0.33663 0.0
C1557 C 0.657 0.83288 0.32835 0.0
C1558 C 0.72051 0.84456 0.33053 0.0
C1559 C 0.73225 0.86511 0.30923 0.0
C1560 C 0.68298 0.84363 0.32139 0.0
C1561 C 0.71852 0.87413 0.29391 0.0
C1562 C 0.64342 0.84206 0.313 0.0
C1563 C 0.62227 0.80269 0.35773 0.0
N1564 N 0.69462 0.86338 0.30037 0.0
N1565 N 0.64596 0.81361 0.35028 0.0
H1566 H 0.14851 0.7733 0.26459 0.0
H1567 H 0.15864 0.89363 0.3386 0.0
H1568 H 0.215 0.84141 0.27321 0.0
H1569 H 0.09092 0.82965 0.31319 0.0
H1570 H 0.17914 0.87677 0.30482 0.0
H1571 H 0.12655 0.79508 0.27076 0.0
C1572 C 0.15849 0.79289 0.26654 0.0
C1573 C 0.18357 0.80554 0.26927 0.0
C1574 C 0.15975 0.86653 0.30611 0.0
C1575 C 0.1587 0.83046 0.27717 0.0
C1576 C 0.14806 0.87616 0.32553 0.0
C1577 C 0.12309 0.86282 0.32931 0.0
C1578 C 0.14643 0.8432 0.29089 0.0
C1579 C 0.11025 0.84043 0.31136 0.0
C1580 C 0.14596 0.80533 0.27037 0.0
C1581 C 0.19561 0.83091 0.27181 0.0
N1582 N 0.12209 0.83109 0.29351 0.0
N1583 N 0.18308 0.84249 0.27646 0.0
H1584 H 0.6909 0.81771 0.91721 0.0
H1585 H 0.58443 0.83222 0.84144 0.0
H1586 H 0.69775 0.88669 0.89363 0.0
H1587 H 0.58362 0.76462 0.8505 0.0
H1588 H 0.62151 0.85227 0.87663 0.0
H1589 H 0.6475 0.79851 0.91105 0.0
C1590 C 0.68314 0.82891 0.91173 0.0
C1591 C 0.69785 0.8537 0.90527 0.0
C1592 C 0.61295 0.83297 0.87145 0.0
C1593 C 0.64831 0.83177 0.89698 0.0
C1594 C 0.59179 0.82149 0.85138 0.0
C1595 C 0.58124 0.79681 0.84237 0.0
C1596 C 0.62349 0.8196 0.88267 0.0
C1597 C 0.59142 0.78378 0.8562 0.0
C1598 C 0.65838 0.81793 0.90798 0.0
C1599 C 0.68697 0.86747 0.89859 0.0
N1600 N 0.61212 0.79539 0.87528 0.0
N1601 N 0.6628 0.8562 0.89369 0.0
H1602 H 0.18215 0.76933 0.89746 0.0
H1603 H 0.17551 0.87457 0.79574 0.0
H1604 H 0.23787 0.82148 0.82987 0.0
H1605 H 0.11983 0.82549 0.86625 0.0
H1606 H 0.19775 0.85421 0.80741 0.0
H1607 H 0.15878 0.78904 0.88669 0.0
C1608 C 0.18958 0.785 0.88053 0.0
C1609 C 0.21206 0.79373 0.8645 0.0
C1610 C 0.18067 0.8478 0.82038 0.0
C1611 C 0.18524 0.8162 0.85191 0.0
C1612 C 0.16786 0.85942 0.81369 0.0
C1613 C 0.14575 0.85184 0.83022 0.0
C1614 C 0.17145 0.82835 0.84384 0.0
C1615 C 0.13679 0.83195 0.85293 0.0
C1616 C 0.17615 0.79618 0.87435 0.0
C1617 C 0.22068 0.81408 0.84283 0.0
N1618 N 0.14974 0.82091 0.85921 0.0
N1619 N 0.20723 0.82454 0.83712 0.0
H1620 H 0.18303 0.41197 0.80042 0.0
H1621 H 0.15164 0.27736 0.84693 0.0
H1622 H 0.23324 0.39395 0.84621 0.0
H1623 H 0.10072 0.29375 0.7994 0.0
H1624 H 0.18121 0.32041 0.84869 0.0
H1625 H 0.15223 0.36901 0.80078 0.0
C1626 C 0.18762 0.39902 0.81044 0.0
C1627 C 0.2108 0.40664 0.82328 0.0
C1628 C 0.16355 0.31463 0.83797 0.0
C1629 C 0.17563 0.35752 0.82393 0.0
C1630 C 0.1466 0.29 0.83701 0.0
C1631 C 0.12365 0.28185 0.82282 0.0
C1632 C 0.15761 0.33133 0.82459 0.0
C1633 C 0.1182 0.29917 0.81051 0.0
C1634 C 0.17001 0.37451 0.81072 0.0
C1635 C 0.21567 0.38901 0.83602 0.0
N1636 N 0.1351 0.3231 0.81153 0.0
N1637 N 0.19825 0.36534 0.83603 0.0
H1638 H 0.79899 0.69923 0.67578 0.0
H1639 H 0.84008 0.60165 0.64576 0.0
H1640 H 0.86951 0.71756 0.63944 0.0
H1641 H 0.77159 0.58466 0.68941 0.0
H1642 H 0.85039 0.64373 0.64009 0.0
H1643 H 0.7877 0.65673 0.67649 0.0
C1644 C 0.81208 0.69434 0.66763 0.0
C1645 C 0.83534 0.7121 0.65779 0.0
C1646 C 0.83311 0.63081 0.65091 0.0
C1647 C 0.82248 0.66329 0.65886 0.0
C1648 C 0.8272 0.60674 0.65425 0.0
C1649 C 0.80491 0.58951 0.66817 0.0
C1650 C 0.81664 0.63779 0.66148 0.0
C1651 C 0.78899 0.59726 0.67865 0.0
C1652 C 0.80561 0.67001 0.66818 0.0
C1653 C 0.85142 0.70454 0.64733 0.0
N1654 N 0.79517 0.62082 0.67506 0.0
N1655 N 0.84473 0.68071 0.64836 0.0
H1656 H 0.28722 0.16605 0.63238 0.0
H1657 H 0.41192 0.17124 0.66772 0.0
H1658 H 0.29753 0.12093 0.70617 0.0
H1659 H 0.40611 0.22263 0.6013 0.0
H1660 H 0.36933 0.15204 0.6801 0.0
H1661 H 0.33042 0.18743 0.62003 0.0
C1662 C 0.29855 0.16084 0.64627 0.0
C1663 C 0.28869 0.14153 0.67011 0.0
C1664 C 0.37731 0.1675 0.66276 0.0
C1665 C 0.33783 0.16558 0.65584 0.0
C1666 C 0.40168 0.17842 0.6555 0.0
C1667 C 0.41271 0.19864 0.63346 0.0
C1668 C 0.36371 0.17676 0.64787 0.0
C1669 C 0.3984 0.20708 0.61846 0.0
C1670 C 0.32315 0.17293 0.63906 0.0
C1671 C 0.30421 0.13549 0.68727 0.0
N1672 N 0.37462 0.19612 0.626 0.0
N1673 N 0.32789 0.14735 0.67964 0.0
H1674 H 0.82453 0.11665 0.60964 0.0
H1675 H 0.82915 0.23396 0.69295 0.0
H1676 H 0.88968 0.18323 0.63597 0.0
H1677 H 0.76322 0.16783 0.66791 0.0
H1678 H 0.85142 0.21787 0.6622 0.0
H1679 H 0.80175 0.13723 0.62016 0.0
C1680 C 0.83411 0.13571 0.61682 0.0
C1681 C 0.85899 0.14812 0.6226 0.0
C1682 C 0.83205 0.20694 0.66306 0.0
C1683 C 0.83308 0.17165 0.63507 0.0
C1684 C 0.81933 0.21613 0.68069 0.0
C1685 C 0.79432 0.20206 0.68355 0.0
C1686 C 0.81974 0.18338 0.64845 0.0
C1687 C 0.78252 0.1792 0.66671 0.0
C1688 C 0.82108 0.14742 0.62303 0.0
C1689 C 0.87046 0.17282 0.63186 0.0
N1690 N 0.79537 0.17042 0.6503 0.0
N1691 N 0.85739 0.18366 0.63826 0.0
H1692 H 0.03556 0.55294 0.5626 0.0
H1693 H 0.92487 0.43448 0.48306 0.0
H1694 H 0.03259 0.4842 0.55286 0.0
H1695 H 0.92142 0.49822 0.51138 0.0
H1696 H 0.96252 0.45096 0.51599 0.0
H1697 H 0.99208 0.5321 0.5531 0.0
C1698 C 0.02568 0.5334 0.55959 0.0
C1699 C 0.03774 0.52034 0.55771 0.0
C1700 C 0.95341 0.46125 0.51545 0.0
C1701 C 0.98825 0.49651 0.54609 0.0
C1702 C 0.93194 0.45186 0.49648 0.0
C1703 C 0.9202 0.46517 0.49399 0.0
C1704 C 0.96347 0.48432 0.53155 0.0
C1705 C 0.93002 0.48745 0.51233 0.0
C1706 C 0.00088 0.52152 0.55388 0.0
C1707 C 0.02405 0.49505 0.55372 0.0
N1708 N 0.9513 0.49653 0.52984 0.0
N1709 N 0.00014 0.48404 0.54735 0.0
H1710 H 0.44786 0.49987 0.52336 0.0
H1711 H 0.56932 0.49829 0.48844 0.0
H1712 H 0.5034 0.54674 0.45095 0.0
H1713 H 0.51332 0.44692 0.55646 0.0
H1714 H 0.54505 0.51647 0.47583 0.0
H1715 H 0.4707 0.47959 0.53601 0.0
C1716 C 0.46466 0.50571 0.50985 0.0
C1717 C 0.47379 0.52515 0.48626 0.0
C1718 C 0.53802 0.50124 0.49358 0.0
C1719 C 0.50003 0.50233 0.50086 0.0
C1720 C 0.55196 0.49088 0.50094 0.0
C1721 C 0.54339 0.47099 0.52354 0.0
C1722 C 0.51524 0.49171 0.50888 0.0
C1723 C 0.52069 0.46225 0.53889 0.0
C1724 C 0.47774 0.49424 0.51723 0.0
C1725 C 0.49571 0.53202 0.4696 0.0
N1726 N 0.50736 0.47264 0.53122 0.0
N1727 N 0.50806 0.52072 0.47736 0.0
H1728 H 0.57127 0.04924 0.51087 0.0
H1729 H 0.43303 0.95098 0.47868 0.0
H1730 H 0.5189 0.06661 0.47216 0.0
H1731 H 0.48606 0.93245 0.50981 0.0
H1732 H 0.46411 0.9935 0.47812 0.0
H1733 H 0.54032 0.00656 0.51161 0.0
C1734 C 0.55329 0.04411 0.50237 0.0
C1735 C 0.54771 0.06164 0.49149 0.0
C1736 C 0.46898 0.98016 0.48513 0.0
C1737 C 0.5121 0.01265 0.49253 0.0
C1738 C 0.4512 0.95581 0.48558 0.0
C1739 C 0.45689 0.93799 0.49423 0.0
C1740 C 0.49272 0.9869 0.49344 0.0
C1741 C 0.4808 0.9455 0.50296 0.0
C1742 C 0.53561 0.01969 0.50286 0.0
C1743 C 0.52407 0.0538 0.48072 0.0
N1744 N 0.49784 0.96939 0.50228 0.0
N1745 N 0.50714 0.0299 0.48164 0.0
H1746 H 0.53595 0.05904 0.98817 0.0
H1747 H 0.4313 0.92349 0.02649 0.0
H1748 H 0.46579 0.04114 0.02574 0.0
H1749 H 0.50072 0.94217 0.98468 0.0
H1750 H 0.44373 0.9665 0.02794 0.0
H1751 H 0.52323 0.01613 0.98743 0.0
C1752 C 0.51783 0.0461 0.99615 0.0
C1753 C 0.50193 0.05377 0.00707 0.0
C1754 C 0.45622 0.96114 0.01851 0.0
C1755 C 0.48729 0.0045 0.00646 0.0
C1756 C 0.44917 0.9366 0.01778 0.0
C1757 C 0.46495 0.92915 0.00534 0.0
C1758 C 0.47921 0.97834 0.00678 0.0
C1759 C 0.48788 0.94698 0.99437 0.0
C1760 C 0.51059 0.02157 0.99577 0.0
C1761 C 0.47867 0.0361 0.01709 0.0
N1762 N 0.49428 0.97069 0.99529 0.0
N1763 N 0.47207 0.0123 0.01663 0.0
H1764 H 0.95578 0.45124 0.05891 0.0
H1765 H 0.0674 0.55101 0.94983 0.0
H1766 H 0.9509 0.50072 0.98716 0.0
H1767 H 0.07138 0.50149 0.02262 0.0
H1768 H 0.02511 0.53377 0.96419 0.0
H1769 H -0.00141 0.47094 0.04783 0.0
C1770 C 0.96373 0.46639 0.04097 0.0
C1771 C 0.94963 0.47421 0.02371 0.0
C1772 C 0.03524 0.52669 0.97701 0.0
C1773 C -0.00117 0.49679 0.01068 0.0
C1774 C 0.05941 0.53645 0.96875 0.0
C1775 C 0.07303 0.52765 0.98497 0.0
C1776 C 0.02456 0.50795 0.00166 0.0
C1777 C 0.06163 0.50883 0.00935 0.0
C1778 C 0.98823 0.47761 0.03461 0.0
C1779 C 0.96104 0.49407 0.00101 0.0
N1780 N 0.03808 0.49962 0.01692 0.0
N1781 N 0.98498 0.50457 0.99493 0.0
H1782 H 0.54747 0.51507 0.9276 0.0
H1783 H 0.42402 0.50408 0.98415 0.0
H1784 H 0.48043 0.44736 0.9296 0.0
H1785 H 0.4936 0.56849 0.99588 0.0
H1786 H 0.44229 0.48525 0.94904 0.0
H1787 H 0.52574 0.53677 0.93528 0.0
C1788 C 0.52807 0.5048 0.92865 0.0
C1789 C 0.51573 0.47941 0.92862 0.0
C1790 C 0.45346 0.50364 0.95883 0.0
C1791 C 0.49079 0.50406 0.93856 0.0
C1792 C 0.44306 0.51441 0.97889 0.0
C1793 C 0.45741 0.53772 0.99359 0.0
C1794 C 0.47834 0.51632 0.95335 0.0
C1795 C 0.48193 0.55032 0.98564 0.0
C1796 C 0.51567 0.51718 0.93328 0.0
C1797 C 0.4906 0.46697 0.92971 0.0
N1798 N 0.49164 0.53937 0.96641 0.0
N1799 N 0.47895 0.47942 0.93553 0.0
loop_
_geom_bond_atom_site_label_1
_geom_bond_atom_site_label_2
_geom_bond_distance
_geom_bond_site_symmetry_2
_ccdc_geom_bond_type
Mg0 O1 2.028 . S
Mg0 O7 1.986 . S
Mg0 O9 2.114 . S
Mg0 O10 2.251 . S
Mg0 O13 2.010 . S
O1 Mg0 2.028 . S
O1 C4 1.250 . S
O2 Mg3 2.028 . S
O2 C4 1.248 . S
Mg3 O2 2.028 . S
Mg3 O8 2.032 . S
Mg3 O10 2.079 . S
C4 O1 1.250 . S
C4 O2 1.248 . S
C5 O6 1.264 . S
C5 O13 1.249 . S
O6 C5 1.264 . S
O7 Mg0 1.986 . S
O7 C11 1.246 . S
O8 Mg3 2.032 . S
O8 C11 1.259 . S
O9 Mg0 2.114 . S
O9 C12 1.252 . S
O10 Mg0 2.251 . S
O10 Mg3 2.079 . S
O10 C12 1.273 . S
C11 O7 1.246 . S
C11 O8 1.259 . S
C12 O9 1.252 . S
C12 O10 1.273 . S
O13 Mg0 2.010 . S
O13 C5 1.249 . S
Mg14 O15 2.028 . S
Mg14 O21 1.986 . S
Mg14 O23 2.114 . S
Mg14 O24 2.251 . S
Mg14 O27 2.010 . S
O15 Mg14 2.028 . S
O15 C18 1.250 . S
O16 Mg17 2.028 . S
O16 C18 1.248 . S
Mg17 O16 2.028 . S
Mg17 O22 2.032 . S
Mg17 O24 2.079 . S
C18 O15 1.250 . S
C18 O16 1.248 . S
C19 O20 1.264 . S
C19 O27 1.249 . S
O20 C19 1.264 . S
O21 Mg14 1.986 . S
O21 C25 1.246 . S
O22 Mg17 2.032 . S
O22 C25 1.259 . S
O23 Mg14 2.114 . S
O23 C26 1.252 . S
O24 Mg14 2.251 . S
O24 Mg17 2.079 . S
O24 C26 1.273 . S
C25 O21 1.246 . S
C25 O22 1.259 . S
C26 O23 1.252 . S
C26 O24 1.273 . S
O27 Mg14 2.010 . S
O27 C19 1.249 . S
Mg28 O29 2.028 . S
Mg28 O35 1.986 . S
Mg28 O37 2.114 . S
Mg28 O38 2.251 . S
Mg28 O41 2.010 . S
O29 Mg28 2.028 . S
O29 C32 1.250 . S
O30 Mg31 2.028 . S
O30 C32 1.248 . S
Mg31 O30 2.028 . S
Mg31 O36 2.032 . S
Mg31 O38 2.079 . S
C32 O29 1.250 . S
C32 O30 1.248 . S
C33 O34 1.264 . S
C33 O41 1.249 . S
O34 C33 1.264 . S
O35 Mg28 1.986 . S
O35 C39 1.246 . S
O36 Mg31 2.032 . S
O36 C39 1.259 . S
O37 Mg28 2.114 . S
O37 C40 1.252 . S
O38 Mg28 2.251 . S
O38 Mg31 2.079 . S
O38 C40 1.273 . S
C39 O35 1.246 . S
C39 O36 1.259 . S
C40 O37 1.252 . S
C40 O38 1.273 . S
O41 Mg28 2.010 . S
O41 C33 1.249 . S
Mg42 O43 2.028 . S
Mg42 O49 1.986 . S
Mg42 O51 2.114 . S
Mg42 O52 2.251 . S
Mg42 O55 2.010 . S
O43 Mg42 2.028 . S
O43 C46 1.250 . S
O44 Mg45 2.028 . S
O44 C46 1.248 . S
Mg45 O44 2.028 . S
Mg45 O50 2.032 . S
Mg45 O52 2.079 . S
C46 O43 1.250 . S
C46 O44 1.248 . S
C47 O48 1.264 . S
C47 O55 1.249 . S
O48 C47 1.264 . S
O49 Mg42 1.986 . S
O49 C53 1.246 . S
O50 Mg45 2.032 . S
O50 C53 1.259 . S
O51 Mg42 2.114 . S
O51 C54 1.252 . S
O52 Mg42 2.251 . S
O52 Mg45 2.079 . S
O52 C54 1.273 . S
C53 O49 1.246 . S
C53 O50 1.259 . S
C54 O51 1.252 . S
C54 O52 1.273 . S
O55 Mg42 2.010 . S
O55 C47 1.249 . S
Mg56 O57 2.028 . S
Mg56 O63 1.986 . S
Mg56 O65 2.114 . S
Mg56 O66 2.251 . S
Mg56 O69 2.010 . S
O57 Mg56 2.028 . S
O57 C60 1.250 . S
O58 Mg59 2.028 . S
O58 C60 1.248 . S
Mg59 O58 2.028 . S
Mg59 O64 2.032 . S
Mg59 O66 2.079 . S
C60 O57 1.250 . S
C60 O58 1.248 . S
C61 O62 1.264 . S
C61 O69 1.249 . S
O62 C61 1.264 . S
O63 Mg56 1.986 . S
O63 C67 1.246 . S
O64 Mg59 2.032 . S
O64 C67 1.259 . S
O65 Mg56 2.114 . S
O65 C68 1.252 . S
O66 Mg56 2.251 . S
O66 Mg59 2.079 . S
O66 C68 1.273 . S
C67 O63 1.246 . S
C67 O64 1.259 . S
C68 O65 1.252 . S
C68 O66 1.273 . S
O69 Mg56 2.010 . S
O69 C61 1.249 . S
Mg70 O71 2.028 . S
Mg70 O77 1.986 . S
Mg70 O79 2.114 . S
Mg70 O80 2.251 . S
Mg70 O83 2.010 . S
O71 Mg70 2.028 . S
O71 C74 1.250 . S
O72 Mg73 2.028 . S
O72 C74 1.248 . S
Mg73 O72 2.028 . S
Mg73 O78 2.032 . S
Mg73 O80 2.079 . S
C74 O71 1.250 . S
C74 O72 1.248 . S
C75 O76 1.264 . S
C75 O83 1.249 . S
O76 C75 1.264 . S
O77 Mg70 1.986 . S
O77 C81 1.246 . S
O78 Mg73 2.032 . S
O78 C81 1.259 . S
O79 Mg70 2.114 . S
O79 C82 1.252 . S
O80 Mg70 2.251 . S
O80 Mg73 2.079 . S
O80 C82 1.273 . S
C81 O77 1.246 . S
C81 O78 1.259 . S
C82 O79 1.252 . S
C82 O80 1.273 . S
O83 Mg70 2.010 . S
O83 C75 1.249 . S
Mg84 O85 2.028 . S
Mg84 O91 1.986 . S
Mg84 O93 2.114 . S
Mg84 O94 2.251 . S
Mg84 O97 2.010 . S
O85 Mg84 2.028 . S
O85 C88 1.250 . S
O86 Mg87 2.028 . S
O86 C88 1.248 . S
Mg87 O86 2.028 . S
Mg87 O92 2.032 . S
Mg87 O94 2.079 . S
C88 O85 1.250 . S
C88 O86 1.248 . S
C89 O90 1.264 . S
C89 O97 1.249 . S
O90 C89 1.264 . S
O91 Mg84 1.986 . S
O91 C95 1.246 . S
O92 Mg87 2.032 . S
O92 C95 1.259 . S
O93 Mg84 2.114 . S
O93 C96 1.252 . S
O94 Mg84 2.251 . S
O94 Mg87 2.079 . S
O94 C96 1.273 . S
C95 O91 1.246 . S
C95 O92 1.259 . S
C96 O93 1.252 . S
C96 O94 1.273 . S
O97 Mg84 2.010 . S
O97 C89 1.249 . S
Mg98 O99 2.028 . S
Mg98 O105 1.986 . S
Mg98 O107 2.114 . S
Mg98 O108 2.251 . S
Mg98 O111 2.010 . S
O99 Mg98 2.028 . S
O99 C102 1.250 . S
O100 Mg101 2.028 . S
O100 C102 1.248 . S
Mg101 O100 2.028 . S
Mg101 O106 2.032 . S
Mg101 O108 2.079 . S
C102 O99 1.250 . S
C102 O100 1.248 . S
C103 O104 1.264 . S
C103 O111 1.249 . S
O104 C103 1.264 . S
O105 Mg98 1.986 . S
O105 C109 1.246 . S
O106 Mg101 2.032 . S
O106 C109 1.259 . S
O107 Mg98 2.114 . S
O107 C110 1.252 . S
O108 Mg98 2.251 . S
O108 Mg101 2.079 . S
O108 C110 1.273 . S
C109 O105 1.246 . S
C109 O106 1.259 . S
C110 O107 1.252 . S
C110 O108 1.273 . S
O111 Mg98 2.010 . S
O111 C103 1.249 . S
Mg112 O113 2.028 . S
Mg112 O119 1.986 . S
Mg112 O121 2.114 . S
Mg112 O122 2.251 . S
Mg112 O125 2.010 . S
O113 Mg112 2.028 . S
O113 C116 1.250 . S
O114 Mg115 2.028 . S
O114 C116 1.248 . S
Mg115 O114 2.028 . S
Mg115 O120 2.032 . S
Mg115 O122 2.079 . S
C116 O113 1.250 . S
C116 O114 1.248 . S
C117 O118 1.264 . S
C117 O125 1.249 . S
O118 C117 1.264 . S
O119 Mg112 1.986 . S
O119 C123 1.246 . S
O120 Mg115 2.032 . S
O120 C123 1.259 . S
O121 Mg112 2.114 . S
O121 C124 1.252 . S
O122 Mg112 2.251 . S
O122 Mg115 2.079 . S
O122 C124 1.273 . S
C123 O119 1.246 . S
C123 O120 1.259 . S
C124 O121 1.252 . S
C124 O122 1.273 . S
O125 Mg112 2.010 . S
O125 C117 1.249 . S
Mg126 O127 2.028 . S
Mg126 O133 1.986 . S
Mg126 O135 2.114 . S
Mg126 O136 2.251 . S
Mg126 O139 2.010 . S
O127 Mg126 2.028 . S
O127 C130 1.250 . S
O128 Mg129 2.028 . S
O128 C130 1.248 . S
Mg129 O128 2.028 . S
Mg129 O134 2.032 . S
Mg129 O136 2.079 . S
C130 O127 1.250 . S
C130 O128 1.248 . S
C131 O132 1.264 . S
C131 O139 1.249 . S
O132 C131 1.264 . S
O133 Mg126 1.986 . S
O133 C137 1.246 . S
O134 Mg129 2.032 . S
O134 C137 1.259 . S
O135 Mg126 2.114 . S
O135 C138 1.252 . S
O136 Mg126 2.251 . S
O136 Mg129 2.079 . S
O136 C138 1.273 . S
C137 O133 1.246 . S
C137 O134 1.259 . S
C138 O135 1.252 . S
C138 O136 1.273 . S
O139 Mg126 2.010 . S
O139 C131 1.249 . S
Mg140 O141 2.028 . S
Mg140 O147 1.986 . S
Mg140 O149 2.114 . S
Mg140 O150 2.251 . S
Mg140 O153 2.010 . S
O141 Mg140 2.028 . S
O141 C144 1.250 . S
O142 Mg143 2.028 . S
O142 C144 1.248 . S
Mg143 O142 2.028 . S
Mg143 O148 2.032 . S
Mg143 O150 2.079 . S
C144 O141 1.250 . S
C144 O142 1.248 . S
C145 O146 1.264 . S
C145 O153 1.249 . S
O146 C145 1.264 . S
O147 Mg140 1.986 . S
O147 C151 1.246 . S
O148 Mg143 2.032 . S
O148 C151 1.259 . S
O149 Mg140 2.114 . S
O149 C152 1.252 . S
O150 Mg140 2.251 . S
O150 Mg143 2.079 . S
O150 C152 1.273 . S
C151 O147 1.246 . S
C151 O148 1.259 . S
C152 O149 1.252 . S
C152 O150 1.273 . S
O153 Mg140 2.010 . S
O153 C145 1.249 . S
Mg154 O155 2.028 . S
Mg154 O161 1.986 . S
Mg154 O163 2.114 . S
Mg154 O164 2.251 . S
Mg154 O167 2.010 . S
O155 Mg154 2.028 . S
O155 C158 1.250 . S
O156 Mg157 2.028 . S
O156 C158 1.248 . S
Mg157 O156 2.028 . S
Mg157 O162 2.032 . S
Mg157 O164 2.079 . S
C158 O155 1.250 . S
C158 O156 1.248 . S
C159 O160 1.264 . S
C159 O167 1.249 . S
O160 C159 1.264 . S
O161 Mg154 1.986 . S
O161 C165 1.246 . S
O162 Mg157 2.032 . S
O162 C165 1.259 . S
O163 Mg154 2.114 . S
O163 C166 1.252 . S
O164 Mg154 2.251 . S
O164 Mg157 2.079 . S
O164 C166 1.273 . S
C165 O161 1.246 . S
C165 O162 1.259 . S
C166 O163 1.252 . S
C166 O164 1.273 . S
O167 Mg154 2.010 . S
O167 C159 1.249 . S
Mg168 O169 2.028 . S
Mg168 O175 1.986 . S
Mg168 O177 2.114 . S
Mg168 O178 2.251 . S
Mg168 O181 2.010 . S
O169 Mg168 2.028 . S
O169 C172 1.250 . S
O170 Mg171 2.028 . S
O170 C172 1.248 . S
Mg171 O170 2.028 . S
Mg171 O176 2.032 . S
Mg171 O178 2.079 . S
C172 O169 1.250 . S
C172 O170 1.248 . S
C173 O174 1.264 . S
C173 O181 1.249 . S
O174 C173 1.264 . S
O175 Mg168 1.986 . S
O175 C179 1.246 . S
O176 Mg171 2.032 . S
O176 C179 1.259 . S
O177 Mg168 2.114 . S
O177 C180 1.252 . S
O178 Mg168 2.251 . S
O178 Mg171 2.079 . S
O178 C180 1.273 . S
C179 O175 1.246 . S
C179 O176 1.259 . S
C180 O177 1.252 . S
C180 O178 1.273 . S
O181 Mg168 2.010 . S
O181 C173 1.249 . S
Mg182 O183 2.028 . S
Mg182 O189 1.986 . S
Mg182 O191 2.114 . S
Mg182 O192 2.251 . S
Mg182 O195 2.010 . S
O183 Mg182 2.028 . S
O183 C186 1.250 . S
O184 Mg185 2.028 . S
O184 C186 1.248 . S
Mg185 O184 2.028 . S
Mg185 O190 2.032 . S
Mg185 O192 2.079 . S
C186 O183 1.250 . S
C186 O184 1.248 . S
C187 O188 1.264 . S
C187 O195 1.249 . S
O188 C187 1.264 . S
O189 Mg182 1.986 . S
O189 C193 1.246 . S
O190 Mg185 2.032 . S
O190 C193 1.259 . S
O191 Mg182 2.114 . S
O191 C194 1.252 . S
O192 Mg182 2.251 . S
O192 Mg185 2.079 . S
O192 C194 1.273 . S
C193 O189 1.246 . S
C193 O190 1.259 . S
C194 O191 1.252 . S
C194 O192 1.273 . S
O195 Mg182 2.010 . S
O195 C187 1.249 . S
Mg196 O197 2.028 . S
Mg196 O203 1.986 . S
Mg196 O205 2.114 . S
Mg196 O206 2.251 . S
Mg196 O209 2.010 . S
O197 Mg196 2.028 . S
O197 C200 1.250 . S
O198 Mg199 2.028 . S
O198 C200 1.248 . S
Mg199 O198 2.028 . S
Mg199 O204 2.032 . S
Mg199 O206 2.079 . S
C200 O197 1.250 . S
C200 O198 1.248 . S
C201 O202 1.264 . S
C201 O209 1.249 . S
O202 C201 1.264 . S
O203 Mg196 1.986 . S
O203 C207 1.246 . S
O204 Mg199 2.032 . S
O204 C207 1.259 . S
O205 Mg196 2.114 . S
O205 C208 1.252 . S
O206 Mg196 2.251 . S
O206 Mg199 2.079 . S
O206 C208 1.273 . S
C207 O203 1.246 . S
C207 O204 1.259 . S
C208 O205 1.252 . S
C208 O206 1.273 . S
O209 Mg196 2.010 . S
O209 C201 1.249 . S
Mg210 O211 2.028 . S
Mg210 O217 1.986 . S
Mg210 O219 2.114 . S
Mg210 O220 2.251 . S
Mg210 O223 2.010 . S
O211 Mg210 2.028 . S
O211 C214 1.250 . S
O212 Mg213 2.028 . S
O212 C214 1.248 . S
Mg213 O212 2.028 . S
Mg213 O218 2.032 . S
Mg213 O220 2.079 . S
C214 O211 1.250 . S
C214 O212 1.248 . S
C215 O216 1.264 . S
C215 O223 1.249 . S
O216 C215 1.264 . S
O217 Mg210 1.986 . S
O217 C221 1.246 . S
O218 Mg213 2.032 . S
O218 C221 1.259 . S
O219 Mg210 2.114 . S
O219 C222 1.252 . S
O220 Mg210 2.251 . S
O220 Mg213 2.079 . S
O220 C222 1.273 . S
C221 O217 1.246 . S
C221 O218 1.259 . S
C222 O219 1.252 . S
C222 O220 1.273 . S
O223 Mg210 2.010 . S
O223 C215 1.249 . S
Mg224 O225 2.028 . S
Mg224 O231 1.986 . S
Mg224 O233 2.114 . S
Mg224 O234 2.251 . S
Mg224 O237 2.010 . S
O225 Mg224 2.028 . S
O225 C228 1.250 . S
O226 Mg227 2.028 . S
O226 C228 1.248 . S
Mg227 O226 2.028 . S
Mg227 O232 2.032 . S
Mg227 O234 2.079 . S
C228 O225 1.250 . S
C228 O226 1.248 . S
C229 O230 1.264 . S
C229 O237 1.249 . S
O230 C229 1.264 . S
O231 Mg224 1.986 . S
O231 C235 1.246 . S
O232 Mg227 2.032 . S
O232 C235 1.259 . S
O233 Mg224 2.114 . S
O233 C236 1.252 . S
O234 Mg224 2.251 . S
O234 Mg227 2.079 . S
O234 C236 1.273 . S
C235 O231 1.246 . S
C235 O232 1.259 . S
C236 O233 1.252 . S
C236 O234 1.273 . S
O237 Mg224 2.010 . S
O237 C229 1.249 . S
Mg238 O239 2.028 . S
Mg238 O245 1.986 . S
Mg238 O247 2.114 . S
Mg238 O248 2.251 . S
Mg238 O251 2.010 . S
O239 Mg238 2.028 . S
O239 C242 1.250 . S
O240 Mg241 2.028 . S
O240 C242 1.248 . S
Mg241 O240 2.028 . S
Mg241 O246 2.032 . S
Mg241 O248 2.079 . S
C242 O239 1.250 . S
C242 O240 1.248 . S
C243 O244 1.264 . S
C243 O251 1.249 . S
O244 C243 1.264 . S
O245 Mg238 1.986 . S
O245 C249 1.246 . S
O246 Mg241 2.032 . S
O246 C249 1.259 . S
O247 Mg238 2.114 . S
O247 C250 1.252 . S
O248 Mg238 2.251 . S
O248 Mg241 2.079 . S
O248 C250 1.273 . S
C249 O245 1.246 . S
C249 O246 1.259 . S
C250 O247 1.252 . S
C250 O248 1.273 . S
O251 Mg238 2.010 . S
O251 C243 1.249 . S
Mg252 O253 2.028 . S
Mg252 O259 1.986 . S
Mg252 O261 2.114 . S
Mg252 O262 2.251 . S
Mg252 O265 2.010 . S
O253 Mg252 2.028 . S
O253 C256 1.250 . S
O254 Mg255 2.028 . S
O254 C256 1.248 . S
Mg255 O254 2.028 . S
Mg255 O260 2.032 . S
Mg255 O262 2.079 . S
C256 O253 1.250 . S
C256 O254 1.248 . S
C257 O258 1.264 . S
C257 O265 1.249 . S
O258 C257 1.264 . S
O259 Mg252 1.986 . S
O259 C263 1.246 . S
O260 Mg255 2.032 . S
O260 C263 1.259 . S
O261 Mg252 2.114 . S
O261 C264 1.252 . S
O262 Mg252 2.251 . S
O262 Mg255 2.079 . S
O262 C264 1.273 . S
C263 O259 1.246 . S
C263 O260 1.259 . S
C264 O261 1.252 . S
C264 O262 1.273 . S
O265 Mg252 2.010 . S
O265 C257 1.249 . S
Mg266 O267 2.028 . S
Mg266 O273 1.986 . S
Mg266 O275 2.114 . S
Mg266 O276 2.251 . S
Mg266 O279 2.010 . S
O267 Mg266 2.028 . S
O267 C270 1.250 . S
O268 Mg269 2.028 . S
O268 C270 1.248 . S
Mg269 O268 2.028 . S
Mg269 O274 2.032 . S
Mg269 O276 2.079 . S
C270 O267 1.250 . S
C270 O268 1.248 . S
C271 O272 1.264 . S
C271 O279 1.249 . S
O272 C271 1.264 . S
O273 Mg266 1.986 . S
O273 C277 1.246 . S
O274 Mg269 2.032 . S
O274 C277 1.259 . S
O275 Mg266 2.114 . S
O275 C278 1.252 . S
O276 Mg266 2.251 . S
O276 Mg269 2.079 . S
O276 C278 1.273 . S
C277 O273 1.246 . S
C277 O274 1.259 . S
C278 O275 1.252 . S
C278 O276 1.273 . S
O279 Mg266 2.010 . S
O279 C271 1.249 . S
Mg280 O281 2.028 . S
Mg280 O287 1.986 . S
Mg280 O289 2.114 . S
Mg280 O290 2.251 . S
Mg280 O293 2.010 . S
O281 Mg280 2.028 . S
O281 C284 1.250 . S
O282 Mg283 2.028 . S
O282 C284 1.248 . S
Mg283 O282 2.028 . S
Mg283 O288 2.032 . S
Mg283 O290 2.079 . S
C284 O281 1.250 . S
C284 O282 1.248 . S
C285 O286 1.264 . S
C285 O293 1.249 . S
O286 C285 1.264 . S
O287 Mg280 1.986 . S
O287 C291 1.246 . S
O288 Mg283 2.032 . S
O288 C291 1.259 . S
O289 Mg280 2.114 . S
O289 C292 1.252 . S
O290 Mg280 2.251 . S
O290 Mg283 2.079 . S
O290 C292 1.273 . S
C291 O287 1.246 . S
C291 O288 1.259 . S
C292 O289 1.252 . S
C292 O290 1.273 . S
O293 Mg280 2.010 . S
O293 C285 1.249 . S
Mg294 O295 2.028 . S
Mg294 O301 1.986 . S
Mg294 O303 2.114 . S
Mg294 O304 2.251 1_556 S
Mg294 O307 2.010 . S
O295 Mg294 2.028 . S
O295 C298 1.250 . S
O296 Mg297 2.028 . S
O296 C298 1.248 . S
Mg297 O296 2.028 . S
Mg297 O302 2.032 . S
Mg297 O304 2.079 1_556 S
C298 O295 1.250 . S
C298 O296 1.248 . S
C299 O300 1.264 . S
C299 O307 1.249 . S
O300 C299 1.264 . S
O301 Mg294 1.986 . S
O301 C305 1.246 . S
O302 Mg297 2.032 . S
O302 C305 1.259 . S
O303 Mg294 2.114 . S
O303 C306 1.252 1_556 S
O304 Mg294 2.251 1_554 S
O304 Mg297 2.079 1_554 S
O304 C306 1.273 . S
C305 O301 1.246 . S
C305 O302 1.259 . S
C306 O303 1.252 1_554 S
C306 O304 1.273 . S
O307 Mg294 2.010 . S
O307 C299 1.249 . S
Mg308 O309 2.028 . S
Mg308 O315 1.986 . S
Mg308 O317 2.114 . S
Mg308 O318 2.251 . S
Mg308 O321 2.010 . S
O309 Mg308 2.028 . S
O309 C312 1.250 . S
O310 Mg311 2.028 . S
O310 C312 1.248 . S
Mg311 O310 2.028 . S
Mg311 O316 2.032 . S
Mg311 O318 2.079 . S
C312 O309 1.250 . S
C312 O310 1.248 . S
C313 O314 1.264 . S
C313 O321 1.249 . S
O314 C313 1.264 . S
O315 Mg308 1.986 . S
O315 C319 1.246 . S
O316 Mg311 2.032 . S
O316 C319 1.259 . S
O317 Mg308 2.114 . S
O317 C320 1.252 1_556 S
O318 Mg308 2.251 . S
O318 Mg311 2.079 . S
O318 C320 1.273 1_556 S
C319 O315 1.246 . S
C319 O316 1.259 . S
C320 O317 1.252 1_554 S
C320 O318 1.273 1_554 S
O321 Mg308 2.010 . S
O321 C313 1.249 . S
Mg322 O323 2.028 . S
Mg322 O329 1.986 . S
Mg322 O331 2.114 . S
Mg322 O332 2.251 . S
Mg322 O335 2.010 . S
O323 Mg322 2.028 . S
O323 C326 1.250 . S
O324 Mg325 2.028 . S
O324 C326 1.248 . S
Mg325 O324 2.028 . S
Mg325 O330 2.032 . S
Mg325 O332 2.079 . S
C326 O323 1.250 . S
C326 O324 1.248 . S
C327 O328 1.264 . S
C327 O335 1.249 . S
O328 C327 1.264 . S
O329 Mg322 1.986 . S
O329 C333 1.246 . S
O330 Mg325 2.032 . S
O330 C333 1.259 . S
O331 Mg322 2.114 . S
O331 C334 1.242 1_556 S
O332 Mg322 2.251 . S
O332 Mg325 2.079 . S
O332 C334 1.268 1_556 S
C333 O329 1.246 . S
C333 O330 1.259 . S
C334 O331 1.242 1_554 S
C334 O332 1.268 1_554 S
O335 Mg322 2.010 . S
O335 C327 1.249 . S
Mg336 O337 2.028 . S
Mg336 O343 1.986 . S
Mg336 O345 2.114 . S
Mg336 O346 2.251 . S
Mg336 O349 2.010 . S
O337 Mg336 2.028 . S
O337 C340 1.250 . S
O338 Mg339 2.028 . S
O338 C340 1.248 . S
Mg339 O338 2.028 . S
Mg339 O344 2.032 . S
Mg339 O346 2.079 . S
C340 O337 1.250 . S
C340 O338 1.248 . S
C341 O342 1.264 . S
C341 O349 1.249 . S
O342 C341 1.264 . S
O343 Mg336 1.986 . S
O343 C347 1.246 . S
O344 Mg339 2.032 . S
O344 C347 1.259 . S
O345 Mg336 2.114 . S
O345 C348 1.252 . S
O346 Mg336 2.251 . S
O346 Mg339 2.079 . S
O346 C348 1.273 . S
C347 O343 1.246 . S
C347 O344 1.259 . S
C348 O345 1.252 . S
C348 O346 1.273 . S
O349 Mg336 2.010 . S
O349 C341 1.249 . S
Mg350 O351 2.028 . S
Mg350 O357 1.986 . S
Mg350 O359 2.114 . S
Mg350 O360 2.251 . S
Mg350 O363 2.010 . S
O351 Mg350 2.028 . S
O351 C354 1.250 . S
O352 Mg353 2.028 . S
O352 C354 1.248 . S
Mg353 O352 2.028 . S
Mg353 O358 2.032 . S
Mg353 O360 2.079 . S
C354 O351 1.250 . S
C354 O352 1.248 . S
C355 O356 1.264 . S
C355 O363 1.249 . S
O356 C355 1.264 . S
O357 Mg350 1.986 . S
O357 C361 1.246 . S
O358 Mg353 2.032 . S
O358 C361 1.259 . S
O359 Mg350 2.114 . S
O359 C362 1.252 . S
O360 Mg350 2.251 . S
O360 Mg353 2.079 . S
O360 C362 1.273 . S
C361 O357 1.246 . S
C361 O358 1.259 . S
C362 O359 1.252 . S
C362 O360 1.273 . S
O363 Mg350 2.010 . S
O363 C355 1.249 . S
Mg364 O365 2.028 . S
Mg364 O371 1.986 . S
Mg364 O373 2.114 . S
Mg364 O374 2.251 . S
Mg364 O377 2.010 . S
O365 Mg364 2.028 . S
O365 C368 1.250 . S
O366 Mg367 2.028 . S
O366 C368 1.248 . S
Mg367 O366 2.028 . S
Mg367 O372 2.032 . S
Mg367 O374 2.079 . S
C368 O365 1.250 . S
C368 O366 1.248 . S
C369 O370 1.264 . S
C369 O377 1.249 . S
O370 C369 1.264 . S
O371 Mg364 1.986 . S
O371 C375 1.246 . S
O372 Mg367 2.032 . S
O372 C375 1.259 . S
O373 Mg364 2.114 . S
O373 C376 1.252 . S
O374 Mg364 2.251 . S
O374 Mg367 2.079 . S
O374 C376 1.273 . S
C375 O371 1.246 . S
C375 O372 1.259 . S
C376 O373 1.252 . S
C376 O374 1.273 . S
O377 Mg364 2.010 . S
O377 C369 1.249 . S
Mg378 O379 2.028 . S
Mg378 O385 1.986 . S
Mg378 O387 2.114 1_554 S
Mg378 O388 2.251 1_554 S
Mg378 O391 2.010 . S
O379 Mg378 2.028 . S
O379 C382 1.250 . S
O380 Mg381 2.028 . S
O380 C382 1.248 . S
Mg381 O380 2.028 . S
Mg381 O386 2.032 . S
Mg381 O388 2.079 1_554 S
C382 O379 1.250 . S
C382 O380 1.248 . S
C383 O384 1.264 . S
C383 O391 1.249 . S
O384 C383 1.264 . S
O385 Mg378 1.986 . S
O385 C389 1.246 . S
O386 Mg381 2.032 . S
O386 C389 1.259 . S
O387 Mg378 2.114 1_556 S
O387 C390 1.252 . S
O388 Mg378 2.251 1_556 S
O388 Mg381 2.079 1_556 S
O388 C390 1.273 . S
C389 O385 1.246 . S
C389 O386 1.259 . S
C390 O387 1.252 . S
C390 O388 1.273 . S
O391 Mg378 2.010 . S
O391 C383 1.249 . S
Mg392 O393 2.028 . S
Mg392 O399 1.986 . S
Mg392 O401 2.114 . S
Mg392 O402 2.251 1_554 S
Mg392 O405 2.010 . S
O393 Mg392 2.028 . S
O393 C396 1.250 . S
O394 Mg395 2.028 . S
O394 C396 1.248 . S
Mg395 O394 2.028 . S
Mg395 O400 2.032 . S
Mg395 O402 2.079 1_554 S
C396 O393 1.250 . S
C396 O394 1.248 . S
C397 O398 1.264 . S
C397 O405 1.249 . S
O398 C397 1.264 . S
O399 Mg392 1.986 . S
O399 C403 1.246 . S
O400 Mg395 2.032 . S
O400 C403 1.259 . S
O401 Mg392 2.114 . S
O401 C404 1.252 1_554 S
O402 Mg392 2.251 1_556 S
O402 Mg395 2.079 1_556 S
O402 C404 1.273 . S
C403 O399 1.246 . S
C403 O400 1.259 . S
C404 O401 1.252 1_556 S
C404 O402 1.273 . S
O405 Mg392 2.010 . S
O405 C397 1.249 . S
Mg406 O407 2.028 . S
Mg406 O413 1.986 . S
Mg406 O415 2.114 . S
Mg406 O416 2.251 . S
Mg406 O419 2.010 . S
O407 Mg406 2.028 . S
O407 C410 1.250 . S
O408 Mg409 2.028 . S
O408 C410 1.248 . S
Mg409 O408 2.028 . S
Mg409 O414 2.032 . S
Mg409 O416 2.079 . S
C410 O407 1.250 . S
C410 O408 1.248 . S
C411 O412 1.264 . S
C411 O419 1.249 . S
O412 C411 1.264 . S
O413 Mg406 1.986 . S
O413 C417 1.246 . S
O414 Mg409 2.032 . S
O414 C417 1.259 . S
O415 Mg406 2.114 . S
O415 C418 1.252 . S
O416 Mg406 2.251 . S
O416 Mg409 2.079 . S
O416 C418 1.273 . S
C417 O413 1.246 . S
C417 O414 1.259 . S
C418 O415 1.252 . S
C418 O416 1.273 . S
O419 Mg406 2.010 . S
O419 C411 1.249 . S
Mg420 O421 2.028 . S
Mg420 O427 1.986 . S
Mg420 O429 2.114 . S
Mg420 O430 2.251 . S
Mg420 O433 2.010 . S
O421 Mg420 2.028 . S
O421 C424 1.250 . S
O422 Mg423 2.028 . S
O422 C424 1.248 . S
Mg423 O422 2.028 . S
Mg423 O428 2.032 . S
Mg423 O430 2.079 . S
C424 O421 1.250 . S
C424 O422 1.248 . S
C425 O426 1.264 . S
C425 O433 1.249 . S
O426 C425 1.264 . S
O427 Mg420 1.986 . S
O427 C431 1.246 . S
O428 Mg423 2.032 . S
O428 C431 1.259 . S
O429 Mg420 2.114 . S
O429 C432 1.252 . S
O430 Mg420 2.251 . S
O430 Mg423 2.079 . S
O430 C432 1.273 . S
C431 O427 1.246 . S
C431 O428 1.259 . S
C432 O429 1.252 . S
C432 O430 1.273 . S
O433 Mg420 2.010 . S
O433 C425 1.249 . S
Mg434 O435 2.028 . S
Mg434 O441 1.986 . S
Mg434 O443 2.114 . S
Mg434 O444 2.251 . S
Mg434 O447 2.010 . S
O435 Mg434 2.028 . S
O435 C438 1.250 . S
O436 Mg437 2.028 . S
O436 C438 1.248 . S
Mg437 O436 2.028 . S
Mg437 O442 2.032 . S
Mg437 O444 2.079 . S
C438 O435 1.250 . S
C438 O436 1.248 . S
C439 O440 1.264 . S
C439 O447 1.249 . S
O440 C439 1.264 . S
O441 Mg434 1.986 . S
O441 C445 1.246 . S
O442 Mg437 2.032 . S
O442 C445 1.259 . S
O443 Mg434 2.114 . S
O443 C446 1.252 . S
O444 Mg434 2.251 . S
O444 Mg437 2.079 . S
O444 C446 1.273 . S
C445 O441 1.246 . S
C445 O442 1.259 . S
C446 O443 1.252 . S
C446 O444 1.273 . S
O447 Mg434 2.010 . S
O447 C439 1.249 . S
Mg448 O449 2.028 . S
Mg448 O455 1.986 . S
Mg448 O457 2.114 . S
Mg448 O458 2.251 . S
Mg448 O461 2.010 . S
O449 Mg448 2.028 . S
O449 C452 1.250 . S
O450 Mg451 2.028 . S
O450 C452 1.248 . S
Mg451 O450 2.028 . S
Mg451 O456 2.032 . S
Mg451 O458 2.079 . S
C452 O449 1.250 . S
C452 O450 1.248 . S
C453 O454 1.264 . S
C453 O461 1.249 . S
O454 C453 1.264 . S
O455 Mg448 1.986 . S
O455 C459 1.246 . S
O456 Mg451 2.032 . S
O456 C459 1.259 . S
O457 Mg448 2.114 . S
O457 C460 1.252 . S
O458 Mg448 2.251 . S
O458 Mg451 2.079 . S
O458 C460 1.273 . S
C459 O455 1.246 . S
C459 O456 1.259 . S
C460 O457 1.252 . S
C460 O458 1.273 . S
O461 Mg448 2.010 . S
O461 C453 1.249 . S
Mg462 O463 2.028 . S
Mg462 O469 1.986 . S
Mg462 O471 2.114 . S
Mg462 O472 2.251 . S
Mg462 O475 2.010 . S
O463 Mg462 2.028 . S
O463 C466 1.250 . S
O464 Mg465 2.028 . S
O464 C466 1.248 . S
Mg465 O464 2.028 . S
Mg465 O470 2.032 . S
Mg465 O472 2.079 . S
C466 O463 1.250 . S
C466 O464 1.248 . S
C467 O468 1.264 . S
C467 O475 1.249 . S
O468 C467 1.264 . S
O469 Mg462 1.986 . S
O469 C473 1.246 . S
O470 Mg465 2.032 . S
O470 C473 1.259 . S
O471 Mg462 2.114 . S
O471 C474 1.252 . S
O472 Mg462 2.251 . S
O472 Mg465 2.079 . S
O472 C474 1.273 . S
C473 O469 1.246 . S
C473 O470 1.259 . S
C474 O471 1.252 . S
C474 O472 1.273 . S
O475 Mg462 2.010 . S
O475 C467 1.249 . S
Mg476 O477 2.028 . S
Mg476 O483 1.986 . S
Mg476 O485 2.114 . S
Mg476 O486 2.251 . S
Mg476 O489 2.010 . S
O477 Mg476 2.028 . S
O477 C480 1.250 . S
O478 Mg479 2.028 . S
O478 C480 1.248 . S
Mg479 O478 2.028 . S
Mg479 O484 2.032 . S
Mg479 O486 2.079 . S
C480 O477 1.250 . S
C480 O478 1.248 . S
C481 O482 1.264 . S
C481 O489 1.249 . S
O482 C481 1.264 . S
O483 Mg476 1.986 . S
O483 C487 1.246 . S
O484 Mg479 2.032 . S
O484 C487 1.259 . S
O485 Mg476 2.114 . S
O485 C488 1.252 . S
O486 Mg476 2.251 . S
O486 Mg479 2.079 . S
O486 C488 1.273 . S
C487 O483 1.246 . S
C487 O484 1.259 . S
C488 O485 1.252 . S
C488 O486 1.273 . S
O489 Mg476 2.010 . S
O489 C481 1.249 . S
Mg490 O491 2.028 . S
Mg490 O497 1.986 . S
Mg490 O499 2.114 . S
Mg490 O500 2.251 . S
Mg490 O503 2.010 . S
O491 Mg490 2.028 . S
O491 C494 1.250 . S
O492 Mg493 2.028 . S
O492 C494 1.248 . S
Mg493 O492 2.028 . S
Mg493 O498 2.032 . S
Mg493 O500 2.079 . S
C494 O491 1.250 . S
C494 O492 1.248 . S
C495 O496 1.264 . S
C495 O503 1.249 . S
O496 C495 1.264 . S
O497 Mg490 1.986 . S
O497 C501 1.246 . S
O498 Mg493 2.032 . S
O498 C501 1.259 . S
O499 Mg490 2.114 . S
O499 C502 1.252 . S
O500 Mg490 2.251 . S
O500 Mg493 2.079 . S
O500 C502 1.273 . S
C501 O497 1.246 . S
C501 O498 1.259 . S
C502 O499 1.252 . S
C502 O500 1.273 . S
O503 Mg490 2.010 . S
O503 C495 1.249 . S
H504 C510 0.930 . S
H505 C514 0.930 . S
H506 C519 0.929 . S
H507 C517 0.929 . S
H508 C512 0.929 . S
H509 C518 0.954 . S
C510 H504 0.930 . S
C510 C511 1.367 . S
C510 C518 1.378 . S
C511 C510 1.367 . S
C511 C519 1.433 . S
C512 H508 0.929 . S
C512 C514 1.378 1_554 S
C512 C516 1.352 . S
C513 C516 1.471 1_545 S
C513 C518 1.350 . S
C513 N521 1.427 1_545 S
C514 H505 0.930 . S
C514 C512 1.378 1_556 S
C514 C515 1.367 . S
C515 C514 1.367 . S
C515 C517 1.433 . S
C516 C512 1.352 . S
C516 C513 1.471 1_565 S
C516 N520 1.416 1_554 S
C517 H507 0.929 . S
C517 C515 1.433 . S
C517 N520 1.384 . S
C518 H509 0.954 . S
C518 C510 1.378 . S
C518 C513 1.350 . S
C519 H506 0.929 . S
C519 C511 1.433 . S
C519 N521 1.384 1_545 S
N520 C516 1.416 1_556 S
N520 C517 1.384 . S
N521 C513 1.427 1_565 S
N521 C519 1.384 1_565 S
H522 C528 0.930 . S
H523 C532 0.930 . S
H524 C537 0.929 . S
H525 C535 0.929 . S
H526 C530 0.943 . S
H527 C536 0.929 . S
C528 H522 0.930 . S
C528 C529 1.367 . S
C528 C536 1.378 . S
C529 C528 1.367 . S
C529 C537 1.433 . S
C530 H526 0.943 . S
C530 C532 1.364 1_554 S
C530 C534 1.349 1_554 S
C531 C534 1.471 1_554 S
C531 C536 1.346 1_455 S
C531 N539 1.424 . S
C532 H523 0.930 . S
C532 C530 1.364 1_556 S
C532 C533 1.367 . S
C533 C532 1.367 . S
C533 C535 1.433 . S
C534 C530 1.349 1_556 S
C534 C531 1.471 1_556 S
C534 N538 1.427 . S
C535 H525 0.929 . S
C535 C533 1.433 . S
C535 N538 1.384 . S
C536 H527 0.929 . S
C536 C528 1.378 . S
C536 C531 1.346 1_655 S
C537 H524 0.929 . S
C537 C529 1.433 . S
C537 N539 1.384 1_655 S
N538 C534 1.427 . S
N538 C535 1.384 . S
N539 C531 1.424 . S
N539 C537 1.384 1_455 S
H540 C546 0.930 . S
H541 C550 0.930 . S
H542 C555 0.929 . S
H543 C553 0.929 . S
H544 C548 0.929 . S
H545 C554 0.929 . S
C546 H540 0.930 . S
C546 C547 1.367 . S
C546 C554 1.378 . S
C547 C546 1.367 . S
C547 C555 1.433 . S
C548 H544 0.929 . S
C548 C550 1.378 . S
C548 C552 1.350 . S
C549 C552 1.463 . S
C549 C554 1.350 1_554 S
C549 N557 1.427 . S
C550 H541 0.930 . S
C550 C548 1.378 . S
C550 C551 1.367 . S
C551 C550 1.367 . S
C551 C553 1.433 . S
C552 C548 1.350 . S
C552 C549 1.463 . S
C552 N556 1.427 . S
C553 H543 0.929 . S
C553 C551 1.433 . S
C553 N556 1.384 . S
C554 H545 0.929 . S
C554 C546 1.378 . S
C554 C549 1.350 1_556 S
C555 H542 0.929 . S
C555 C547 1.433 . S
C555 N557 1.384 1_556 S
N556 C552 1.427 . S
N556 C553 1.384 . S
N557 C549 1.427 . S
N557 C555 1.384 1_554 S
H558 C564 0.930 . S
H559 C568 0.930 . S
H560 C573 0.929 . S
H561 C571 0.929 . S
H562 C566 0.931 . S
H563 C572 0.929 . S
C564 H558 0.930 . S
C564 C565 1.367 . S
C564 C572 1.378 . S
C565 C564 1.367 . S
C565 C573 1.433 . S
C566 H562 0.931 . S
C566 C568 1.376 1_655 S
C566 C570 1.349 . S
C567 C570 1.463 . S
C567 C572 1.350 . S
C567 N575 1.427 . S
C568 H559 0.930 . S
C568 C566 1.376 1_455 S
C568 C569 1.367 . S
C569 C568 1.367 . S
C569 C571 1.433 . S
C570 C566 1.349 . S
C570 C567 1.463 . S
C570 N574 1.427 1_655 S
C571 H561 0.929 . S
C571 C569 1.433 . S
C571 N574 1.384 . S
C572 H563 0.929 . S
C572 C564 1.378 . S
C572 C567 1.350 . S
C573 H560 0.929 . S
C573 C565 1.433 . S
C573 N575 1.384 . S
N574 C570 1.427 1_455 S
N574 C571 1.384 . S
N575 C567 1.427 . S
N575 C573 1.384 . S
H576 C582 0.930 . S
H577 C586 0.930 . S
H578 C591 0.929 . S
H579 C589 0.929 . S
H580 C584 0.929 . S
H581 C590 0.929 . S
C582 H576 0.930 . S
C582 C583 1.367 . S
C582 C590 1.378 . S
C583 C582 1.367 . S
C583 C591 1.433 . S
C584 H580 0.929 . S
C584 C586 1.378 . S
C584 C588 1.350 . S
C585 C588 1.463 . S
C585 C590 1.350 . S
C585 N593 1.427 . S
C586 H577 0.930 . S
C586 C584 1.378 . S
C586 C587 1.367 . S
C587 C586 1.367 . S
C587 C589 1.433 . S
C588 C584 1.350 . S
C588 C585 1.463 . S
C588 N592 1.427 . S
C589 H579 0.929 . S
C589 C587 1.433 . S
C589 N592 1.384 . S
C590 H581 0.929 . S
C590 C582 1.378 . S
C590 C585 1.350 . S
C591 H578 0.929 . S
C591 C583 1.433 . S
C591 N593 1.384 . S
N592 C588 1.427 . S
N592 C589 1.384 . S
N593 C585 1.427 . S
N593 C591 1.384 . S
H594 C600 0.930 . S
H595 C604 0.930 . S
H596 C609 0.929 . S
H597 C607 0.929 . S
H598 C602 0.929 . S
H599 C608 0.929 . S
C600 H594 0.930 . S
C600 C601 1.367 . S
C600 C608 1.378 . S
C601 C600 1.367 . S
C601 C609 1.433 . S
C602 H598 0.929 . S
C602 C604 1.378 . S
C602 C606 1.350 . S
C603 C606 1.463 1_565 S
C603 C608 1.350 . S
C603 N611 1.427 . S
C604 H595 0.930 . S
C604 C602 1.378 . S
C604 C605 1.367 . S
C605 C604 1.367 . S
C605 C607 1.433 . S
C606 C602 1.350 . S
C606 C603 1.463 1_545 S
C606 N610 1.427 . S
C607 H597 0.929 . S
C607 C605 1.433 . S
C607 N610 1.384 . S
C608 H599 0.929 . S
C608 C600 1.378 . S
C608 C603 1.350 . S
C609 H596 0.929 . S
C609 C601 1.433 . S
C609 N611 1.384 . S
N610 C606 1.427 . S
N610 C607 1.384 . S
N611 C603 1.427 . S
N611 C609 1.384 . S
H612 C618 0.930 . S
H613 C622 0.930 . S
H614 C627 0.929 . S
H615 C625 0.929 . S
H616 C620 0.929 1_554 S
H617 C626 0.929 1_556 S
C618 H612 0.930 . S
C618 C619 1.367 . S
C618 C626 1.378 . S
C619 C618 1.367 . S
C619 C627 1.433 . S
C620 H616 0.929 1_556 S
C620 C622 1.378 . S
C620 C624 1.350 1_565 S
C621 C624 1.463 1_554 S
C621 C626 1.350 . S
C621 N629 1.427 . S
C622 H613 0.930 . S
C622 C620 1.378 . S
C622 C623 1.367 . S
C623 C622 1.367 . S
C623 C625 1.433 . S
C624 C620 1.350 1_545 S
C624 C621 1.463 1_556 S
C624 N628 1.427 . S
C625 H615 0.929 . S
C625 C623 1.433 . S
C625 N628 1.384 1_565 S
C626 H617 0.929 1_554 S
C626 C618 1.378 . S
C626 C621 1.350 . S
C627 H614 0.929 . S
C627 C619 1.433 . S
C627 N629 1.384 . S
N628 C624 1.427 . S
N628 C625 1.384 1_545 S
N629 C621 1.427 . S
N629 C627 1.384 . S
H630 C636 0.930 . S
H631 C640 0.930 . S
H632 C645 0.929 . S
H633 C643 0.929 . S
H634 C638 0.929 1_554 S
H635 C644 0.929 1_556 S
C636 H630 0.930 . S
C636 C637 1.367 . S
C636 C644 1.378 . S
C637 C636 1.367 . S
C637 C645 1.433 . S
C638 H634 0.929 1_556 S
C638 C640 1.378 . S
C638 C642 1.350 . S
C639 C642 1.463 1_654 S
C639 C644 1.350 . S
C639 N647 1.427 . S
C640 H631 0.930 . S
C640 C638 1.378 . S
C640 C641 1.367 . S
C641 C640 1.367 . S
C641 C643 1.433 . S
C642 C638 1.350 . S
C642 C639 1.463 1_456 S
C642 N646 1.427 1_455 S
C643 H633 0.929 . S
C643 C641 1.433 . S
C643 N646 1.384 1_455 S
C644 H635 0.929 1_554 S
C644 C636 1.378 . S
C644 C639 1.350 . S
C645 H632 0.929 . S
C645 C637 1.433 . S
C645 N647 1.384 . S
N646 C642 1.427 1_655 S
N646 C643 1.384 1_655 S
N647 C639 1.427 . S
N647 C645 1.384 . S
H648 C654 0.930 . S
H649 C658 0.930 . S
H650 C663 0.929 . S
H651 C661 0.929 . S
H652 C656 0.929 . S
H653 C662 0.929 . S
C654 H648 0.930 . S
C654 C655 1.367 . S
C654 C662 1.378 . S
C655 C654 1.367 . S
C655 C663 1.433 . S
C656 H652 0.929 . S
C656 C658 1.378 . S
C656 C660 1.351 . S
C657 C660 1.462 1_556 S
C657 C662 1.350 . S
C657 N665 1.427 . S
C658 H649 0.930 . S
C658 C656 1.378 . S
C658 C659 1.367 . S
C659 C658 1.367 . S
C659 C661 1.433 . S
C660 C656 1.351 . S
C660 C657 1.462 1_554 S
C660 N664 1.427 1_554 S
C661 H651 0.929 . S
C661 C659 1.433 . S
C661 N664 1.384 1_554 S
C662 H653 0.929 . S
C662 C654 1.378 . S
C662 C657 1.350 . S
C663 H650 0.929 . S
C663 C655 1.433 . S
C663 N665 1.384 . S
N664 C660 1.427 1_556 S
N664 C661 1.384 1_556 S
N665 C657 1.427 . S
N665 C663 1.384 . S
H666 C672 0.930 . S
H667 C676 0.930 . S
H668 C681 0.929 . S
H669 C679 0.929 . S
H670 C674 0.929 . S
H671 C680 0.929 . S
C672 H666 0.930 . S
C672 C673 1.367 . S
C672 C680 1.378 . S
C673 C672 1.367 . S
C673 C681 1.433 . S
C674 H670 0.929 . S
C674 C676 1.378 . S
C674 C678 1.350 . S
C675 C678 1.463 1_655 S
C675 C680 1.350 . S
C675 N683 1.427 1_655 S
C676 H667 0.930 . S
C676 C674 1.378 . S
C676 C677 1.367 . S
C677 C676 1.367 . S
C677 C679 1.433 . S
C678 C674 1.350 . S
C678 C675 1.463 1_455 S
C678 N682 1.427 . S
C679 H669 0.929 . S
C679 C677 1.433 . S
C679 N682 1.384 . S
C680 H671 0.929 . S
C680 C672 1.378 . S
C680 C675 1.350 . S
C681 H668 0.929 . S
C681 C673 1.433 . S
C681 N683 1.384 1_655 S
N682 C678 1.427 . S
N682 C679 1.384 . S
N683 C675 1.427 1_455 S
N683 C681 1.384 1_455 S
H684 C690 0.930 . S
H685 C694 0.930 . S
H686 C699 0.929 . S
H687 C697 0.929 . S
H688 C692 0.929 . S
H689 C698 0.929 . S
C690 H684 0.930 . S
C690 C691 1.367 . S
C690 C698 1.378 . S
C691 C690 1.367 . S
C691 C699 1.433 . S
C692 H688 0.929 . S
C692 C694 1.378 . S
C692 C696 1.350 . S
C693 C696 1.463 . S
C693 C698 1.350 . S
C693 N701 1.427 . S
C694 H685 0.930 . S
C694 C692 1.378 . S
C694 C695 1.367 . S
C695 C694 1.367 . S
C695 C697 1.433 . S
C696 C692 1.350 . S
C696 C693 1.463 . S
C696 N700 1.427 . S
C697 H687 0.929 . S
C697 C695 1.433 . S
C697 N700 1.384 . S
C698 H689 0.929 . S
C698 C690 1.378 . S
C698 C693 1.350 . S
C699 H686 0.929 . S
C699 C691 1.433 . S
C699 N701 1.384 . S
N700 C696 1.427 . S
N700 C697 1.384 . S
N701 C693 1.427 . S
N701 C699 1.384 . S
H702 C708 0.930 . S
H703 C712 0.930 . S
H704 C717 0.929 . S
H705 C715 0.929 . S
H706 C710 0.929 . S
H707 C716 0.929 . S
C708 H702 0.930 . S
C708 C709 1.367 . S
C708 C716 1.378 . S
C709 C708 1.367 . S
C709 C717 1.433 . S
C710 H706 0.929 . S
C710 C712 1.378 . S
C710 C714 1.350 . S
C711 C714 1.463 . S
C711 C716 1.350 1_565 S
C711 N719 1.427 . S
C712 H703 0.930 . S
C712 C710 1.378 . S
C712 C713 1.367 . S
C713 C712 1.367 . S
C713 C715 1.433 . S
C714 C710 1.350 . S
C714 C711 1.463 . S
C714 N718 1.427 . S
C715 H705 0.929 . S
C715 C713 1.433 . S
C715 N718 1.384 . S
C716 H707 0.929 . S
C716 C708 1.378 . S
C716 C711 1.350 1_545 S
C717 H704 0.929 . S
C717 C709 1.433 . S
C717 N719 1.384 1_545 S
N718 C714 1.427 . S
N718 C715 1.384 . S
N719 C711 1.427 . S
N719 C717 1.384 1_565 S
H720 C726 0.930 . S
H721 C730 0.930 . S
H722 C735 0.929 . S
H723 C733 0.929 . S
H724 C728 0.929 . S
H725 C734 0.929 . S
C726 H720 0.930 . S
C726 C727 1.367 . S
C726 C734 1.378 . S
C727 C726 1.367 . S
C727 C735 1.433 . S
C728 H724 0.929 . S
C728 C730 1.378 . S
C728 C732 1.350 . S
C729 C732 1.463 . S
C729 C734 1.350 . S
C729 N737 1.427 . S
C730 H721 0.930 . S
C730 C728 1.378 . S
C730 C731 1.367 . S
C731 C730 1.367 . S
C731 C733 1.433 . S
C732 C728 1.350 . S
C732 C729 1.463 . S
C732 N736 1.427 . S
C733 H723 0.929 . S
C733 C731 1.433 . S
C733 N736 1.384 . S
C734 H725 0.929 . S
C734 C726 1.378 . S
C734 C729 1.350 . S
C735 H722 0.929 . S
C735 C727 1.433 . S
C735 N737 1.384 . S
N736 C732 1.427 . S
N736 C733 1.384 . S
N737 C729 1.427 . S
N737 C735 1.384 . S
H738 C744 0.930 . S
H739 C748 0.930 . S
H740 C753 0.929 . S
H741 C751 0.929 . S
H742 C746 0.929 . S
H743 C752 0.929 . S
C744 H738 0.930 . S
C744 C745 1.367 . S
C744 C752 1.378 . S
C745 C744 1.367 . S
C745 C753 1.433 . S
C746 H742 0.929 . S
C746 C748 1.378 . S
C746 C750 1.350 . S
C747 C750 1.463 . S
C747 C752 1.350 . S
C747 N755 1.427 . S
C748 H739 0.930 . S
C748 C746 1.378 . S
C748 C749 1.367 . S
C749 C748 1.367 . S
C749 C751 1.433 . S
C750 C746 1.350 . S
C750 C747 1.463 . S
C750 N754 1.427 . S
C751 H741 0.929 . S
C751 C749 1.433 . S
C751 N754 1.384 . S
C752 H743 0.929 . S
C752 C744 1.378 . S
C752 C747 1.350 . S
C753 H740 0.929 . S
C753 C745 1.433 . S
C753 N755 1.384 . S
N754 C750 1.427 . S
N754 C751 1.384 . S
N755 C747 1.427 . S
N755 C753 1.384 . S
H756 C762 0.930 . S
H757 C766 0.930 . S
H758 C771 0.929 . S
H759 C769 0.929 . S
H760 C764 0.929 . S
H761 C770 0.929 . S
C762 H756 0.930 . S
C762 C763 1.367 . S
C762 C770 1.378 . S
C763 C762 1.367 . S
C763 C771 1.433 . S
C764 H760 0.929 . S
C764 C766 1.378 . S
C764 C768 1.350 . S
C765 C768 1.463 . S
C765 C770 1.350 . S
C765 N773 1.427 . S
C766 H757 0.930 . S
C766 C764 1.378 . S
C766 C767 1.367 . S
C767 C766 1.367 . S
C767 C769 1.433 . S
C768 C764 1.350 . S
C768 C765 1.463 . S
C768 N772 1.427 . S
C769 H759 0.929 . S
C769 C767 1.433 . S
C769 N772 1.384 . S
C770 H761 0.929 . S
C770 C762 1.378 . S
C770 C765 1.350 . S
C771 H758 0.929 . S
C771 C763 1.433 . S
C771 N773 1.384 . S
N772 C768 1.427 . S
N772 C769 1.384 . S
N773 C765 1.427 . S
N773 C771 1.384 . S
H774 C780 0.930 . S
H775 C784 0.930 . S
H776 C789 0.929 . S
H777 C787 0.929 . S
H778 C782 0.929 . S
H779 C788 0.929 . S
C780 H774 0.930 . S
C780 C781 1.367 . S
C780 C788 1.378 . S
C781 C780 1.367 . S
C781 C789 1.433 . S
C782 H778 0.929 . S
C782 C784 1.378 . S
C782 C786 1.350 . S
C783 C786 1.463 . S
C783 C788 1.350 . S
C783 N791 1.427 . S
C784 H775 0.930 . S
C784 C782 1.378 . S
C784 C785 1.367 . S
C785 C784 1.367 . S
C785 C787 1.433 . S
C786 C782 1.350 . S
C786 C783 1.463 . S
C786 N790 1.427 . S
C787 H777 0.929 . S
C787 C785 1.433 . S
C787 N790 1.384 . S
C788 H779 0.929 . S
C788 C780 1.378 . S
C788 C783 1.350 . S
C789 H776 0.929 . S
C789 C781 1.433 . S
C789 N791 1.384 . S
N790 C786 1.427 . S
N790 C787 1.384 . S
N791 C783 1.427 . S
N791 C789 1.384 . S
H792 C798 0.930 . S
H793 C802 0.930 . S
H794 C807 0.929 . S
H795 C805 0.929 . S
H796 C800 0.929 . S
H797 C806 0.929 . S
C798 H792 0.930 . S
C798 C799 1.367 . S
C798 C806 1.378 . S
C799 C798 1.367 . S
C799 C807 1.433 . S
C800 H796 0.929 . S
C800 C802 1.378 . S
C800 C804 1.350 . S
C801 C804 1.463 . S
C801 C806 1.350 . S
C801 N809 1.427 . S
C802 H793 0.930 . S
C802 C800 1.378 . S
C802 C803 1.367 . S
C803 C802 1.367 . S
C803 C805 1.433 . S
C804 C800 1.350 . S
C804 C801 1.463 . S
C804 N808 1.427 . S
C805 H795 0.929 . S
C805 C803 1.433 . S
C805 N808 1.384 . S
C806 H797 0.929 . S
C806 C798 1.378 . S
C806 C801 1.350 . S
C807 H794 0.929 . S
C807 C799 1.433 . S
C807 N809 1.384 . S
N808 C804 1.427 . S
N808 C805 1.384 . S
N809 C801 1.427 . S
N809 C807 1.384 . S
H810 C816 0.930 . S
H811 C820 0.930 . S
H812 C825 0.929 . S
H813 C823 0.929 . S
H814 C818 0.929 . S
H815 C824 0.929 . S
C816 H810 0.930 . S
C816 C817 1.367 . S
C816 C824 1.378 . S
C817 C816 1.367 . S
C817 C825 1.433 . S
C818 H814 0.929 . S
C818 C820 1.378 . S
C818 C822 1.350 . S
C819 C822 1.463 . S
C819 C824 1.350 . S
C819 N827 1.427 . S
C820 H811 0.930 . S
C820 C818 1.378 . S
C820 C821 1.367 . S
C821 C820 1.367 . S
C821 C823 1.433 . S
C822 C818 1.350 . S
C822 C819 1.463 . S
C822 N826 1.427 . S
C823 H813 0.929 . S
C823 C821 1.433 . S
C823 N826 1.384 . S
C824 H815 0.929 . S
C824 C816 1.378 . S
C824 C819 1.350 . S
C825 H812 0.929 . S
C825 C817 1.433 . S
C825 N827 1.384 . S
N826 C822 1.427 . S
N826 C823 1.384 . S
N827 C819 1.427 . S
N827 C825 1.384 . S
H828 C834 0.930 . S
H829 C838 0.930 . S
H830 C843 0.929 . S
H831 C841 0.929 . S
H832 C836 0.929 . S
H833 C842 0.929 . S
C834 H828 0.930 . S
C834 C835 1.367 . S
C834 C842 1.378 . S
C835 C834 1.367 . S
C835 C843 1.433 . S
C836 H832 0.929 . S
C836 C838 1.378 . S
C836 C840 1.350 . S
C837 C840 1.463 . S
C837 C842 1.350 . S
C837 N845 1.427 . S
C838 H829 0.930 . S
C838 C836 1.378 . S
C838 C839 1.367 . S
C839 C838 1.367 . S
C839 C841 1.433 . S
C840 C836 1.350 . S
C840 C837 1.463 . S
C840 N844 1.427 . S
C841 H831 0.929 . S
C841 C839 1.433 . S
C841 N844 1.384 . S
C842 H833 0.929 . S
C842 C834 1.378 . S
C842 C837 1.350 . S
C843 H830 0.929 . S
C843 C835 1.433 . S
C843 N845 1.384 . S
N844 C840 1.427 . S
N844 C841 1.384 . S
N845 C837 1.427 . S
N845 C843 1.384 . S
H846 C852 0.930 . S
H847 C856 0.930 . S
H848 C861 0.929 . S
H849 C859 0.929 . S
H850 C854 0.929 . S
H851 C860 0.929 . S
C852 H846 0.930 . S
C852 C853 1.367 . S
C852 C860 1.378 . S
C853 C852 1.367 . S
C853 C861 1.433 . S
C854 H850 0.929 . S
C854 C856 1.378 . S
C854 C858 1.350 . S
C855 C858 1.463 . S
C855 C860 1.350 . S
C855 N863 1.427 . S
C856 H847 0.930 . S
C856 C854 1.378 . S
C856 C857 1.367 . S
C857 C856 1.367 . S
C857 C859 1.433 . S
C858 C854 1.350 . S
C858 C855 1.463 . S
C858 N862 1.427 . S
C859 H849 0.929 . S
C859 C857 1.433 . S
C859 N862 1.384 . S
C860 H851 0.929 . S
C860 C852 1.378 . S
C860 C855 1.350 . S
C861 H848 0.929 . S
C861 C853 1.433 . S
C861 N863 1.384 . S
N862 C858 1.427 . S
N862 C859 1.384 . S
N863 C855 1.427 . S
N863 C861 1.384 . S
H864 C870 0.930 . S
H865 C874 0.930 . S
H866 C879 0.929 . S
H867 C877 0.929 . S
H868 C872 0.929 . S
H869 C878 0.929 . S
C870 H864 0.930 . S
C870 C871 1.367 . S
C870 C878 1.378 . S
C871 C870 1.367 . S
C871 C879 1.433 . S
C872 H868 0.929 . S
C872 C874 1.378 . S
C872 C876 1.350 . S
C873 C876 1.463 . S
C873 C878 1.350 . S
C873 N881 1.427 . S
C874 H865 0.930 . S
C874 C872 1.378 . S
C874 C875 1.367 . S
C875 C874 1.367 . S
C875 C877 1.433 . S
C876 C872 1.350 . S
C876 C873 1.463 . S
C876 N880 1.427 . S
C877 H867 0.929 . S
C877 C875 1.433 . S
C877 N880 1.384 . S
C878 H869 0.929 . S
C878 C870 1.378 . S
C878 C873 1.350 . S
C879 H866 0.929 . S
C879 C871 1.433 . S
C879 N881 1.384 . S
N880 C876 1.427 . S
N880 C877 1.384 . S
N881 C873 1.427 . S
N881 C879 1.384 . S
H882 C888 0.930 . S
H883 C892 0.930 . S
H884 C897 0.929 . S
H885 C895 0.929 . S
H886 C890 0.929 . S
H887 C896 0.929 . S
C888 H882 0.930 . S
C888 C889 1.367 . S
C888 C896 1.378 . S
C889 C888 1.367 . S
C889 C897 1.433 . S
C890 H886 0.929 . S
C890 C892 1.378 . S
C890 C894 1.350 . S
C891 C894 1.463 . S
C891 C896 1.350 . S
C891 N899 1.427 . S
C892 H883 0.930 . S
C892 C890 1.378 . S
C892 C893 1.367 . S
C893 C892 1.367 . S
C893 C895 1.433 . S
C894 C890 1.350 . S
C894 C891 1.463 . S
C894 N898 1.427 . S
C895 H885 0.929 . S
C895 C893 1.433 . S
C895 N898 1.384 . S
C896 H887 0.929 . S
C896 C888 1.378 . S
C896 C891 1.350 . S
C897 H884 0.929 . S
C897 C889 1.433 . S
C897 N899 1.384 . S
N898 C894 1.427 . S
N898 C895 1.384 . S
N899 C891 1.427 . S
N899 C897 1.384 . S
H900 C906 0.930 . S
H901 C910 0.930 . S
H902 C915 0.929 . S
H903 C913 0.929 . S
H904 C908 0.929 . S
H905 C914 0.929 . S
C906 H900 0.930 . S
C906 C907 1.367 . S
C906 C914 1.378 . S
C907 C906 1.367 . S
C907 C915 1.433 . S
C908 H904 0.929 . S
C908 C910 1.378 . S
C908 C912 1.350 . S
C909 C912 1.463 . S
C909 C914 1.350 . S
C909 N917 1.427 . S
C910 H901 0.930 . S
C910 C908 1.378 . S
C910 C911 1.367 . S
C911 C910 1.367 . S
C911 C913 1.433 . S
C912 C908 1.350 . S
C912 C909 1.463 . S
C912 N916 1.427 . S
C913 H903 0.929 . S
C913 C911 1.433 . S
C913 N916 1.384 . S
C914 H905 0.929 . S
C914 C906 1.378 . S
C914 C909 1.350 . S
C915 H902 0.929 . S
C915 C907 1.433 . S
C915 N917 1.384 . S
N916 C912 1.427 . S
N916 C913 1.384 . S
N917 C909 1.427 . S
N917 C915 1.384 . S
H918 C924 0.930 . S
H919 C928 0.930 . S
H920 C933 0.929 . S
H921 C931 0.929 . S
H922 C926 0.929 . S
H923 C932 0.929 . S
C924 H918 0.930 . S
C924 C925 1.367 . S
C924 C932 1.378 . S
C925 C924 1.367 . S
C925 C933 1.433 . S
C926 H922 0.929 . S
C926 C928 1.378 . S
C926 C930 1.350 . S
C927 C930 1.463 . S
C927 C932 1.350 . S
C927 N935 1.427 . S
C928 H919 0.930 . S
C928 C926 1.378 . S
C928 C929 1.367 . S
C929 C928 1.367 . S
C929 C931 1.433 . S
C930 C926 1.350 . S
C930 C927 1.463 . S
C930 N934 1.427 . S
C931 H921 0.929 . S
C931 C929 1.433 . S
C931 N934 1.384 . S
C932 H923 0.929 . S
C932 C924 1.378 . S
C932 C927 1.350 . S
C933 H920 0.929 . S
C933 C925 1.433 . S
C933 N935 1.384 . S
N934 C930 1.427 . S
N934 C931 1.384 . S
N935 C927 1.427 . S
N935 C933 1.384 . S
H936 C942 0.930 . S
H937 C946 0.930 . S
H938 C951 0.929 . S
H939 C949 0.929 . S
H940 C944 0.929 . S
H941 C950 0.929 . S
C942 H936 0.930 . S
C942 C943 1.367 . S
C942 C950 1.378 . S
C943 C942 1.367 . S
C943 C951 1.433 . S
C944 H940 0.929 . S
C944 C946 1.378 . S
C944 C948 1.350 . S
C945 C948 1.463 . S
C945 C950 1.350 . S
C945 N953 1.427 . S
C946 H937 0.930 . S
C946 C944 1.378 . S
C946 C947 1.367 . S
C947 C946 1.367 . S
C947 C949 1.433 . S
C948 C944 1.350 . S
C948 C945 1.463 . S
C948 N952 1.427 . S
C949 H939 0.929 . S
C949 C947 1.433 . S
C949 N952 1.384 . S
C950 H941 0.929 . S
C950 C942 1.378 . S
C950 C945 1.350 . S
C951 H938 0.929 . S
C951 C943 1.433 . S
C951 N953 1.384 . S
N952 C948 1.427 . S
N952 C949 1.384 . S
N953 C945 1.427 . S
N953 C951 1.384 . S
H954 C960 0.930 . S
H955 C964 0.930 . S
H956 C969 0.929 . S
H957 C967 0.929 . S
H958 C962 0.929 . S
H959 C968 0.929 . S
C960 H954 0.930 . S
C960 C961 1.367 . S
C960 C968 1.378 . S
C961 C960 1.367 . S
C961 C969 1.433 . S
C962 H958 0.929 . S
C962 C964 1.378 . S
C962 C966 1.350 . S
C963 C966 1.463 . S
C963 C968 1.350 . S
C963 N971 1.427 . S
C964 H955 0.930 . S
C964 C962 1.378 . S
C964 C965 1.367 . S
C965 C964 1.367 . S
C965 C967 1.433 . S
C966 C962 1.350 . S
C966 C963 1.463 . S
C966 N970 1.427 . S
C967 H957 0.929 . S
C967 C965 1.433 . S
C967 N970 1.384 . S
C968 H959 0.929 . S
C968 C960 1.378 . S
C968 C963 1.350 . S
C969 H956 0.929 . S
C969 C961 1.433 . S
C969 N971 1.384 . S
N970 C966 1.427 . S
N970 C967 1.384 . S
N971 C963 1.427 . S
N971 C969 1.384 . S
H972 C978 0.930 . S
H973 C982 0.930 . S
H974 C987 0.929 . S
H975 C985 0.929 . S
H976 C980 0.929 . S
H977 C986 0.929 . S
C978 H972 0.930 . S
C978 C979 1.367 . S
C978 C986 1.378 . S
C979 C978 1.367 . S
C979 C987 1.433 . S
C980 H976 0.929 . S
C980 C982 1.378 . S
C980 C984 1.350 . S
C981 C984 1.463 . S
C981 C986 1.350 . S
C981 N989 1.427 . S
C982 H973 0.930 . S
C982 C980 1.378 . S
C982 C983 1.367 . S
C983 C982 1.367 . S
C983 C985 1.433 . S
C984 C980 1.350 . S
C984 C981 1.463 . S
C984 N988 1.427 . S
C985 H975 0.929 . S
C985 C983 1.433 . S
C985 N988 1.384 . S
C986 H977 0.929 . S
C986 C978 1.378 . S
C986 C981 1.350 . S
C987 H974 0.929 . S
C987 C979 1.433 . S
C987 N989 1.384 . S
N988 C984 1.427 . S
N988 C985 1.384 . S
N989 C981 1.427 . S
N989 C987 1.384 . S
H990 C996 0.930 . S
H991 C1000 0.930 . S
H992 C1005 0.929 . S
H993 C1003 0.929 . S
H994 C998 0.929 . S
H995 C1004 0.929 . S
C996 H990 0.930 . S
C996 C997 1.367 . S
C996 C1004 1.378 . S
C997 C996 1.367 . S
C997 C1005 1.433 . S
C998 H994 0.929 . S
C998 C1000 1.378 . S
C998 C1002 1.350 . S
C999 C1002 1.463 . S
C999 C1004 1.350 . S
C999 N1007 1.427 . S
C1000 H991 0.930 . S
C1000 C998 1.378 . S
C1000 C1001 1.367 . S
C1001 C1000 1.367 . S
C1001 C1003 1.433 . S
C1002 C998 1.350 . S
C1002 C999 1.463 . S
C1002 N1006 1.427 . S
C1003 H993 0.929 . S
C1003 C1001 1.433 . S
C1003 N1006 1.384 . S
C1004 H995 0.929 . S
C1004 C996 1.378 . S
C1004 C999 1.350 . S
C1005 H992 0.929 . S
C1005 C997 1.433 . S
C1005 N1007 1.384 . S
N1006 C1002 1.427 . S
N1006 C1003 1.384 . S
N1007 C999 1.427 . S
N1007 C1005 1.384 . S
H1008 C1014 0.930 . S
H1009 C1018 0.930 . S
H1010 C1023 0.929 . S
H1011 C1021 0.929 . S
H1012 C1016 0.929 . S
H1013 C1022 0.929 . S
C1014 H1008 0.930 . S
C1014 C1015 1.367 . S
C1014 C1022 1.378 . S
C1015 C1014 1.367 . S
C1015 C1023 1.433 . S
C1016 H1012 0.929 . S
C1016 C1018 1.378 . S
C1016 C1020 1.350 . S
C1017 C1020 1.463 . S
C1017 C1022 1.350 . S
C1017 N1025 1.427 . S
C1018 H1009 0.930 . S
C1018 C1016 1.378 . S
C1018 C1019 1.367 . S
C1019 C1018 1.367 . S
C1019 C1021 1.433 . S
C1020 C1016 1.350 . S
C1020 C1017 1.463 . S
C1020 N1024 1.427 . S
C1021 H1011 0.929 . S
C1021 C1019 1.433 . S
C1021 N1024 1.384 . S
C1022 H1013 0.929 . S
C1022 C1014 1.378 . S
C1022 C1017 1.350 . S
C1023 H1010 0.929 . S
C1023 C1015 1.433 . S
C1023 N1025 1.384 . S
N1024 C1020 1.427 . S
N1024 C1021 1.384 . S
N1025 C1017 1.427 . S
N1025 C1023 1.384 . S
H1026 C1032 0.930 . S
H1027 C1036 0.930 . S
H1028 C1041 0.929 . S
H1029 C1039 0.929 . S
H1030 C1034 0.929 . S
H1031 C1040 0.929 . S
C1032 H1026 0.930 . S
C1032 C1033 1.367 . S
C1032 C1040 1.378 . S
C1033 C1032 1.367 . S
C1033 C1041 1.433 . S
C1034 H1030 0.929 . S
C1034 C1036 1.378 . S
C1034 C1038 1.350 . S
C1035 C1038 1.463 . S
C1035 C1040 1.350 . S
C1035 N1043 1.427 . S
C1036 H1027 0.930 . S
C1036 C1034 1.378 . S
C1036 C1037 1.367 . S
C1037 C1036 1.367 . S
C1037 C1039 1.433 . S
C1038 C1034 1.350 . S
C1038 C1035 1.463 . S
C1038 N1042 1.427 . S
C1039 H1029 0.929 . S
C1039 C1037 1.433 . S
C1039 N1042 1.384 . S
C1040 H1031 0.929 . S
C1040 C1032 1.378 . S
C1040 C1035 1.350 . S
C1041 H1028 0.929 . S
C1041 C1033 1.433 . S
C1041 N1043 1.384 . S
N1042 C1038 1.427 . S
N1042 C1039 1.384 . S
N1043 C1035 1.427 . S
N1043 C1041 1.384 . S
H1044 C1050 0.930 . S
H1045 C1054 0.930 . S
H1046 C1059 0.929 . S
H1047 C1057 0.929 . S
H1048 C1052 0.929 . S
H1049 C1058 0.929 . S
C1050 H1044 0.930 . S
C1050 C1051 1.367 . S
C1050 C1058 1.378 . S
C1051 C1050 1.367 . S
C1051 C1059 1.433 . S
C1052 H1048 0.929 . S
C1052 C1054 1.378 . S
C1052 C1056 1.350 . S
C1053 C1056 1.463 . S
C1053 C1058 1.350 . S
C1053 N1061 1.427 . S
C1054 H1045 0.930 . S
C1054 C1052 1.378 . S
C1054 C1055 1.367 . S
C1055 C1054 1.367 . S
C1055 C1057 1.433 . S
C1056 C1052 1.350 . S
C1056 C1053 1.463 . S
C1056 N1060 1.427 . S
C1057 H1047 0.929 . S
C1057 C1055 1.433 . S
C1057 N1060 1.384 . S
C1058 H1049 0.929 . S
C1058 C1050 1.378 . S
C1058 C1053 1.350 . S
C1059 H1046 0.929 . S
C1059 C1051 1.433 . S
C1059 N1061 1.384 . S
N1060 C1056 1.427 . S
N1060 C1057 1.384 . S
N1061 C1053 1.427 . S
N1061 C1059 1.384 . S
H1062 C1068 0.930 . S
H1063 C1072 0.930 . S
H1064 C1077 0.929 . S
H1065 C1075 0.929 . S
H1066 C1070 0.929 . S
H1067 C1076 0.929 . S
C1068 H1062 0.930 . S
C1068 C1069 1.367 . S
C1068 C1076 1.378 . S
C1069 C1068 1.367 . S
C1069 C1077 1.433 . S
C1070 H1066 0.929 . S
C1070 C1072 1.378 . S
C1070 C1074 1.350 . S
C1071 C1074 1.463 . S
C1071 C1076 1.350 . S
C1071 N1079 1.427 . S
C1072 H1063 0.930 . S
C1072 C1070 1.378 . S
C1072 C1073 1.367 . S
C1073 C1072 1.367 . S
C1073 C1075 1.433 . S
C1074 C1070 1.350 . S
C1074 C1071 1.463 . S
C1074 N1078 1.427 . S
C1075 H1065 0.929 . S
C1075 C1073 1.433 . S
C1075 N1078 1.384 . S
C1076 H1067 0.929 . S
C1076 C1068 1.378 . S
C1076 C1071 1.350 . S
C1077 H1064 0.929 . S
C1077 C1069 1.433 . S
C1077 N1079 1.384 . S
N1078 C1074 1.427 . S
N1078 C1075 1.384 . S
N1079 C1071 1.427 . S
N1079 C1077 1.384 . S
H1080 C1086 0.930 . S
H1081 C1090 0.930 . S
H1082 C1095 0.929 . S
H1083 C1093 0.929 . S
H1084 C1088 0.929 . S
H1085 C1094 0.929 . S
C1086 H1080 0.930 . S
C1086 C1087 1.367 . S
C1086 C1094 1.378 . S
C1087 C1086 1.367 . S
C1087 C1095 1.433 . S
C1088 H1084 0.929 . S
C1088 C1090 1.378 . S
C1088 C1092 1.350 . S
C1089 C1092 1.463 . S
C1089 C1094 1.350 . S
C1089 N1097 1.427 . S
C1090 H1081 0.930 . S
C1090 C1088 1.378 . S
C1090 C1091 1.367 . S
C1091 C1090 1.367 . S
C1091 C1093 1.433 . S
C1092 C1088 1.350 . S
C1092 C1089 1.463 . S
C1092 N1096 1.427 . S
C1093 H1083 0.929 . S
C1093 C1091 1.433 . S
C1093 N1096 1.384 . S
C1094 H1085 0.929 . S
C1094 C1086 1.378 . S
C1094 C1089 1.350 . S
C1095 H1082 0.929 . S
C1095 C1087 1.433 . S
C1095 N1097 1.384 . S
N1096 C1092 1.427 . S
N1096 C1093 1.384 . S
N1097 C1089 1.427 . S
N1097 C1095 1.384 . S
H1098 C1104 0.930 . S
H1099 C1108 0.930 . S
H1100 C1113 0.929 . S
H1101 C1111 0.929 . S
H1102 C1106 0.929 . S
H1103 C1112 0.929 . S
C1104 H1098 0.930 . S
C1104 C1105 1.367 . S
C1104 C1112 1.378 . S
C1105 C1104 1.367 . S
C1105 C1113 1.433 . S
C1106 H1102 0.929 . S
C1106 C1108 1.378 . S
C1106 C1110 1.350 . S
C1107 C1110 1.463 . S
C1107 C1112 1.350 . S
C1107 N1115 1.427 . S
C1108 H1099 0.930 . S
C1108 C1106 1.378 . S
C1108 C1109 1.367 . S
C1109 C1108 1.367 . S
C1109 C1111 1.433 . S
C1110 C1106 1.350 . S
C1110 C1107 1.463 . S
C1110 N1114 1.427 . S
C1111 H1101 0.929 . S
C1111 C1109 1.433 . S
C1111 N1114 1.384 . S
C1112 H1103 0.929 . S
C1112 C1104 1.378 . S
C1112 C1107 1.350 . S
C1113 H1100 0.929 . S
C1113 C1105 1.433 . S
C1113 N1115 1.384 . S
N1114 C1110 1.427 . S
N1114 C1111 1.384 . S
N1115 C1107 1.427 . S
N1115 C1113 1.384 . S
H1116 C1122 0.930 . S
H1117 C1126 0.930 . S
H1118 C1131 0.929 . S
H1119 C1129 0.929 . S
H1120 C1124 0.929 . S
H1121 C1130 0.929 . S
C1122 H1116 0.930 . S
C1122 C1123 1.367 . S
C1122 C1130 1.378 . S
C1123 C1122 1.367 . S
C1123 C1131 1.433 . S
C1124 H1120 0.929 . S
C1124 C1126 1.378 . S
C1124 C1128 1.350 . S
C1125 C1128 1.463 . S
C1125 C1130 1.350 . S
C1125 N1133 1.427 . S
C1126 H1117 0.930 . S
C1126 C1124 1.378 . S
C1126 C1127 1.367 . S
C1127 C1126 1.367 . S
C1127 C1129 1.433 . S
C1128 C1124 1.350 . S
C1128 C1125 1.463 . S
C1128 N1132 1.427 . S
C1129 H1119 0.929 . S
C1129 C1127 1.433 . S
C1129 N1132 1.384 . S
C1130 H1121 0.929 . S
C1130 C1122 1.378 . S
C1130 C1125 1.350 . S
C1131 H1118 0.929 . S
C1131 C1123 1.433 . S
C1131 N1133 1.384 . S
N1132 C1128 1.427 . S
N1132 C1129 1.384 . S
N1133 C1125 1.427 . S
N1133 C1131 1.384 . S
H1134 C1140 0.930 . S
H1135 C1144 0.930 . S
H1136 C1149 0.929 . S
H1137 C1147 0.929 . S
H1138 C1142 0.929 . S
H1139 C1148 0.929 . S
C1140 H1134 0.930 . S
C1140 C1141 1.367 . S
C1140 C1148 1.378 . S
C1141 C1140 1.367 . S
C1141 C1149 1.433 . S
C1142 H1138 0.929 . S
C1142 C1144 1.378 . S
C1142 C1146 1.350 . S
C1143 C1146 1.463 . S
C1143 C1148 1.350 . S
C1143 N1151 1.427 . S
C1144 H1135 0.930 . S
C1144 C1142 1.378 . S
C1144 C1145 1.367 . S
C1145 C1144 1.367 . S
C1145 C1147 1.433 . S
C1146 C1142 1.350 . S
C1146 C1143 1.463 . S
C1146 N1150 1.427 . S
C1147 H1137 0.929 . S
C1147 C1145 1.433 . S
C1147 N1150 1.384 . S
C1148 H1139 0.929 . S
C1148 C1140 1.378 . S
C1148 C1143 1.350 . S
C1149 H1136 0.929 . S
C1149 C1141 1.433 . S
C1149 N1151 1.384 . S
N1150 C1146 1.427 . S
N1150 C1147 1.384 . S
N1151 C1143 1.427 . S
N1151 C1149 1.384 . S
H1152 C1158 0.930 . S
H1153 C1162 0.930 . S
H1154 C1167 0.929 . S
H1155 C1165 0.929 . S
H1156 C1160 0.929 . S
H1157 C1166 0.929 . S
C1158 H1152 0.930 . S
C1158 C1159 1.367 . S
C1158 C1166 1.378 . S
C1159 C1158 1.367 . S
C1159 C1167 1.433 . S
C1160 H1156 0.929 . S
C1160 C1162 1.378 . S
C1160 C1164 1.350 . S
C1161 C1164 1.463 . S
C1161 C1166 1.350 . S
C1161 N1169 1.427 . S
C1162 H1153 0.930 . S
C1162 C1160 1.378 . S
C1162 C1163 1.367 . S
C1163 C1162 1.367 . S
C1163 C1165 1.433 . S
C1164 C1160 1.350 . S
C1164 C1161 1.463 . S
C1164 N1168 1.427 . S
C1165 H1155 0.929 . S
C1165 C1163 1.433 . S
C1165 N1168 1.384 . S
C1166 H1157 0.929 . S
C1166 C1158 1.378 . S
C1166 C1161 1.350 . S
C1167 H1154 0.929 . S
C1167 C1159 1.433 . S
C1167 N1169 1.384 . S
N1168 C1164 1.427 . S
N1168 C1165 1.384 . S
N1169 C1161 1.427 . S
N1169 C1167 1.384 . S
H1170 C1176 0.930 . S
H1171 C1180 0.930 . S
H1172 C1185 0.929 . S
H1173 C1183 0.929 . S
H1174 C1178 0.929 . S
H1175 C1184 0.929 . S
C1176 H1170 0.930 . S
C1176 C1177 1.367 . S
C1176 C1184 1.378 . S
C1177 C1176 1.367 . S
C1177 C1185 1.433 . S
C1178 H1174 0.929 . S
C1178 C1180 1.378 . S
C1178 C1182 1.350 . S
C1179 C1182 1.463 1_565 S
C1179 C1184 1.350 . S
C1179 N1187 1.427 . S
C1180 H1171 0.930 . S
C1180 C1178 1.378 . S
C1180 C1181 1.367 . S
C1181 C1180 1.367 . S
C1181 C1183 1.433 . S
C1182 C1178 1.350 . S
C1182 C1179 1.463 1_545 S
C1182 N1186 1.427 . S
C1183 H1173 0.929 . S
C1183 C1181 1.433 . S
C1183 N1186 1.384 . S
C1184 H1175 0.929 . S
C1184 C1176 1.378 . S
C1184 C1179 1.350 . S
C1185 H1172 0.929 . S
C1185 C1177 1.433 . S
C1185 N1187 1.384 . S
N1186 C1182 1.427 . S
N1186 C1183 1.384 . S
N1187 C1179 1.427 . S
N1187 C1185 1.384 . S
H1188 C1194 0.930 . S
H1189 C1198 0.930 . S
H1190 C1203 0.929 . S
H1191 C1201 0.929 . S
H1192 C1196 0.929 . S
H1193 C1202 0.929 . S
C1194 H1188 0.930 . S
C1194 C1195 1.367 . S
C1194 C1202 1.378 . S
C1195 C1194 1.367 . S
C1195 C1203 1.433 . S
C1196 H1192 0.929 . S
C1196 C1198 1.378 . S
C1196 C1200 1.350 . S
C1197 C1200 1.463 1_655 S
C1197 C1202 1.350 . S
C1197 N1205 1.427 . S
C1198 H1189 0.930 . S
C1198 C1196 1.378 . S
C1198 C1199 1.367 . S
C1199 C1198 1.367 . S
C1199 C1201 1.433 . S
C1200 C1196 1.350 . S
C1200 C1197 1.463 1_455 S
C1200 N1204 1.427 . S
C1201 H1191 0.929 . S
C1201 C1199 1.433 . S
C1201 N1204 1.384 . S
C1202 H1193 0.929 . S
C1202 C1194 1.378 . S
C1202 C1197 1.350 . S
C1203 H1190 0.929 . S
C1203 C1195 1.433 . S
C1203 N1205 1.384 . S
N1204 C1200 1.427 . S
N1204 C1201 1.384 . S
N1205 C1197 1.427 . S
N1205 C1203 1.384 . S
H1206 C1212 0.930 . S
H1207 C1216 0.930 . S
H1208 C1221 0.929 . S
H1209 C1219 0.929 . S
H1210 C1214 0.929 . S
H1211 C1220 0.929 . S
C1212 H1206 0.930 . S
C1212 C1213 1.367 . S
C1212 C1220 1.378 . S
C1213 C1212 1.367 . S
C1213 C1221 1.433 . S
C1214 H1210 0.929 . S
C1214 C1216 1.378 . S
C1214 C1218 1.350 . S
C1215 C1218 1.463 . S
C1215 C1220 1.350 . S
C1215 N1223 1.427 . S
C1216 H1207 0.930 . S
C1216 C1214 1.378 . S
C1216 C1217 1.367 . S
C1217 C1216 1.367 . S
C1217 C1219 1.433 . S
C1218 C1214 1.350 . S
C1218 C1215 1.463 . S
C1218 N1222 1.427 . S
C1219 H1209 0.929 . S
C1219 C1217 1.433 . S
C1219 N1222 1.384 . S
C1220 H1211 0.929 . S
C1220 C1212 1.378 . S
C1220 C1215 1.350 . S
C1221 H1208 0.929 . S
C1221 C1213 1.433 . S
C1221 N1223 1.384 . S
N1222 C1218 1.427 . S
N1222 C1219 1.384 . S
N1223 C1215 1.427 . S
N1223 C1221 1.384 . S
H1224 C1230 0.930 . S
H1225 C1234 0.930 . S
H1226 C1239 0.929 . S
H1227 C1237 0.929 . S
H1228 C1232 0.929 . S
H1229 C1238 0.929 . S
C1230 H1224 0.930 . S
C1230 C1231 1.367 . S
C1230 C1238 1.378 . S
C1231 C1230 1.367 . S
C1231 C1239 1.433 . S
C1232 H1228 0.929 . S
C1232 C1234 1.378 . S
C1232 C1236 1.350 . S
C1233 C1236 1.463 1_545 S
C1233 C1238 1.350 . S
C1233 N1241 1.427 . S
C1234 H1225 0.930 . S
C1234 C1232 1.378 . S
C1234 C1235 1.367 . S
C1235 C1234 1.367 . S
C1235 C1237 1.433 . S
C1236 C1232 1.350 . S
C1236 C1233 1.463 1_565 S
C1236 N1240 1.427 . S
C1237 H1227 0.929 . S
C1237 C1235 1.433 . S
C1237 N1240 1.384 . S
C1238 H1229 0.929 . S
C1238 C1230 1.378 . S
C1238 C1233 1.350 . S
C1239 H1226 0.929 . S
C1239 C1231 1.433 . S
C1239 N1241 1.384 . S
N1240 C1236 1.427 . S
N1240 C1237 1.384 . S
N1241 C1233 1.427 . S
N1241 C1239 1.384 . S
H1242 C1248 0.930 . S
H1243 C1252 0.930 . S
H1244 C1257 0.929 . S
H1245 C1255 0.929 . S
H1246 C1250 0.929 . S
H1247 C1256 0.929 . S
C1248 H1242 0.930 . S
C1248 C1249 1.367 . S
C1248 C1256 1.378 . S
C1249 C1248 1.367 . S
C1249 C1257 1.433 . S
C1250 H1246 0.929 . S
C1250 C1252 1.378 . S
C1250 C1254 1.350 . S
C1251 C1254 1.463 1_655 S
C1251 C1256 1.350 . S
C1251 N1259 1.427 . S
C1252 H1243 0.930 . S
C1252 C1250 1.378 . S
C1252 C1253 1.367 . S
C1253 C1252 1.367 . S
C1253 C1255 1.433 . S
C1254 C1250 1.350 . S
C1254 C1251 1.463 1_455 S
C1254 N1258 1.427 . S
C1255 H1245 0.929 . S
C1255 C1253 1.433 . S
C1255 N1258 1.384 . S
C1256 H1247 0.929 . S
C1256 C1248 1.378 . S
C1256 C1251 1.350 . S
C1257 H1244 0.929 . S
C1257 C1249 1.433 . S
C1257 N1259 1.384 . S
N1258 C1254 1.427 . S
N1258 C1255 1.384 . S
N1259 C1251 1.427 . S
N1259 C1257 1.384 . S
H1260 C1266 0.930 . S
H1261 C1270 0.930 . S
H1262 C1275 0.929 . S
H1263 C1273 0.929 . S
H1264 C1268 0.929 . S
H1265 C1274 0.929 . S
C1266 H1260 0.930 . S
C1266 C1267 1.367 . S
C1266 C1274 1.378 . S
C1267 C1266 1.367 . S
C1267 C1275 1.433 . S
C1268 H1264 0.929 . S
C1268 C1270 1.378 . S
C1268 C1272 1.350 . S
C1269 C1272 1.463 . S
C1269 C1274 1.350 . S
C1269 N1277 1.427 . S
C1270 H1261 0.930 . S
C1270 C1268 1.378 . S
C1270 C1271 1.367 . S
C1271 C1270 1.367 . S
C1271 C1273 1.433 . S
C1272 C1268 1.350 . S
C1272 C1269 1.463 . S
C1272 N1276 1.427 . S
C1273 H1263 0.929 . S
C1273 C1271 1.433 . S
C1273 N1276 1.384 . S
C1274 H1265 0.929 . S
C1274 C1266 1.378 . S
C1274 C1269 1.350 . S
C1275 H1262 0.929 . S
C1275 C1267 1.433 . S
C1275 N1277 1.384 . S
N1276 C1272 1.427 . S
N1276 C1273 1.384 . S
N1277 C1269 1.427 . S
N1277 C1275 1.384 . S
H1278 C1284 0.930 . S
H1279 C1288 0.930 . S
H1280 C1293 0.929 . S
H1281 C1291 0.929 . S
H1282 C1286 0.929 . S
H1283 C1292 0.929 . S
C1284 H1278 0.930 . S
C1284 C1285 1.367 . S
C1284 C1292 1.378 . S
C1285 C1284 1.367 . S
C1285 C1293 1.433 . S
C1286 H1282 0.929 . S
C1286 C1288 1.378 . S
C1286 C1290 1.350 . S
C1287 C1290 1.463 . S
C1287 C1292 1.350 . S
C1287 N1295 1.427 . S
C1288 H1279 0.930 . S
C1288 C1286 1.378 . S
C1288 C1289 1.367 . S
C1289 C1288 1.367 . S
C1289 C1291 1.433 . S
C1290 C1286 1.350 . S
C1290 C1287 1.463 . S
C1290 N1294 1.427 . S
C1291 H1281 0.929 . S
C1291 C1289 1.433 . S
C1291 N1294 1.384 . S
C1292 H1283 0.929 . S
C1292 C1284 1.378 . S
C1292 C1287 1.350 . S
C1293 H1280 0.929 . S
C1293 C1285 1.433 . S
C1293 N1295 1.384 . S
N1294 C1290 1.427 . S
N1294 C1291 1.384 . S
N1295 C1287 1.427 . S
N1295 C1293 1.384 . S
H1296 C1302 0.930 . S
H1297 C1306 0.930 . S
H1298 C1311 0.929 . S
H1299 C1309 0.929 . S
H1300 C1304 0.929 . S
H1301 C1310 0.929 . S
C1302 H1296 0.930 . S
C1302 C1303 1.367 . S
C1302 C1310 1.378 . S
C1303 C1302 1.367 . S
C1303 C1311 1.433 . S
C1304 H1300 0.929 . S
C1304 C1306 1.378 . S
C1304 C1308 1.350 . S
C1305 C1308 1.463 . S
C1305 C1310 1.350 . S
C1305 N1313 1.427 . S
C1306 H1297 0.930 . S
C1306 C1304 1.378 . S
C1306 C1307 1.367 . S
C1307 C1306 1.367 . S
C1307 C1309 1.433 . S
C1308 C1304 1.350 . S
C1308 C1305 1.463 . S
C1308 N1312 1.427 . S
C1309 H1299 0.929 . S
C1309 C1307 1.433 . S
C1309 N1312 1.384 . S
C1310 H1301 0.929 . S
C1310 C1302 1.378 . S
C1310 C1305 1.350 . S
C1311 H1298 0.929 . S
C1311 C1303 1.433 . S
C1311 N1313 1.384 . S
N1312 C1308 1.427 . S
N1312 C1309 1.384 . S
N1313 C1305 1.427 . S
N1313 C1311 1.384 . S
H1314 C1320 0.930 . S
H1315 C1324 0.930 . S
H1316 C1329 0.929 . S
H1317 C1327 0.929 . S
H1318 C1322 0.929 . S
H1319 C1328 0.929 . S
C1320 H1314 0.930 . S
C1320 C1321 1.367 . S
C1320 C1328 1.378 . S
C1321 C1320 1.367 . S
C1321 C1329 1.433 . S
C1322 H1318 0.929 . S
C1322 C1324 1.378 . S
C1322 C1326 1.350 . S
C1323 C1326 1.463 . S
C1323 C1328 1.350 . S
C1323 N1331 1.427 . S
C1324 H1315 0.930 . S
C1324 C1322 1.378 . S
C1324 C1325 1.367 . S
C1325 C1324 1.367 . S
C1325 C1327 1.433 . S
C1326 C1322 1.350 . S
C1326 C1323 1.463 . S
C1326 N1330 1.427 . S
C1327 H1317 0.929 . S
C1327 C1325 1.433 . S
C1327 N1330 1.384 . S
C1328 H1319 0.929 . S
C1328 C1320 1.378 . S
C1328 C1323 1.350 . S
C1329 H1316 0.929 . S
C1329 C1321 1.433 . S
C1329 N1331 1.384 . S
N1330 C1326 1.427 . S
N1330 C1327 1.384 . S
N1331 C1323 1.427 . S
N1331 C1329 1.384 . S
H1332 C1338 0.930 . S
H1333 C1342 0.930 . S
H1334 C1347 0.929 . S
H1335 C1345 0.929 . S
H1336 C1340 0.929 . S
H1337 C1346 0.929 . S
C1338 H1332 0.930 . S
C1338 C1339 1.367 . S
C1338 C1346 1.378 . S
C1339 C1338 1.367 . S
C1339 C1347 1.433 . S
C1340 H1336 0.929 . S
C1340 C1342 1.378 . S
C1340 C1344 1.350 . S
C1341 C1344 1.463 . S
C1341 C1346 1.350 . S
C1341 N1349 1.427 . S
C1342 H1333 0.930 . S
C1342 C1340 1.378 . S
C1342 C1343 1.367 . S
C1343 C1342 1.367 . S
C1343 C1345 1.433 . S
C1344 C1340 1.350 . S
C1344 C1341 1.463 . S
C1344 N1348 1.427 . S
C1345 H1335 0.929 . S
C1345 C1343 1.433 . S
C1345 N1348 1.384 . S
C1346 H1337 0.929 . S
C1346 C1338 1.378 . S
C1346 C1341 1.350 . S
C1347 H1334 0.929 . S
C1347 C1339 1.433 . S
C1347 N1349 1.384 . S
N1348 C1344 1.427 . S
N1348 C1345 1.384 . S
N1349 C1341 1.427 . S
N1349 C1347 1.384 . S
H1350 C1356 0.930 . S
H1351 C1360 0.930 . S
H1352 C1365 0.929 . S
H1353 C1363 0.929 . S
H1354 C1358 0.929 . S
H1355 C1364 0.929 . S
C1356 H1350 0.930 . S
C1356 C1357 1.367 . S
C1356 C1364 1.378 . S
C1357 C1356 1.367 . S
C1357 C1365 1.433 . S
C1358 H1354 0.929 . S
C1358 C1360 1.378 . S
C1358 C1362 1.350 . S
C1359 C1362 1.463 . S
C1359 C1364 1.350 . S
C1359 N1367 1.427 . S
C1360 H1351 0.930 . S
C1360 C1358 1.378 . S
C1360 C1361 1.367 . S
C1361 C1360 1.367 . S
C1361 C1363 1.433 . S
C1362 C1358 1.350 . S
C1362 C1359 1.463 . S
C1362 N1366 1.427 . S
C1363 H1353 0.929 . S
C1363 C1361 1.433 . S
C1363 N1366 1.384 . S
C1364 H1355 0.929 . S
C1364 C1356 1.378 . S
C1364 C1359 1.350 . S
C1365 H1352 0.929 . S
C1365 C1357 1.433 . S
C1365 N1367 1.384 . S
N1366 C1362 1.427 . S
N1366 C1363 1.384 . S
N1367 C1359 1.427 . S
N1367 C1365 1.384 . S
H1368 C1374 0.930 . S
H1369 C1378 0.930 . S
H1370 C1383 0.929 . S
H1371 C1381 0.929 . S
H1372 C1376 0.929 . S
H1373 C1382 0.929 . S
C1374 H1368 0.930 . S
C1374 C1375 1.367 . S
C1374 C1382 1.378 . S
C1375 C1374 1.367 . S
C1375 C1383 1.433 . S
C1376 H1372 0.929 . S
C1376 C1378 1.378 . S
C1376 C1380 1.350 . S
C1377 C1380 1.463 . S
C1377 C1382 1.350 . S
C1377 N1385 1.427 . S
C1378 H1369 0.930 . S
C1378 C1376 1.378 . S
C1378 C1379 1.367 . S
C1379 C1378 1.367 . S
C1379 C1381 1.433 . S
C1380 C1376 1.350 . S
C1380 C1377 1.463 . S
C1380 N1384 1.427 . S
C1381 H1371 0.929 . S
C1381 C1379 1.433 . S
C1381 N1384 1.384 . S
C1382 H1373 0.929 . S
C1382 C1374 1.378 . S
C1382 C1377 1.350 . S
C1383 H1370 0.929 . S
C1383 C1375 1.433 . S
C1383 N1385 1.384 . S
N1384 C1380 1.427 . S
N1384 C1381 1.384 . S
N1385 C1377 1.427 . S
N1385 C1383 1.384 . S
H1386 C1392 0.930 . S
H1387 C1396 0.930 . S
H1388 C1401 0.929 . S
H1389 C1399 0.929 . S
H1390 C1394 0.929 . S
H1391 C1400 0.929 . S
C1392 H1386 0.930 . S
C1392 C1393 1.367 . S
C1392 C1400 1.378 . S
C1393 C1392 1.367 . S
C1393 C1401 1.433 . S
C1394 H1390 0.929 . S
C1394 C1396 1.378 . S
C1394 C1398 1.350 . S
C1395 C1398 1.463 . S
C1395 C1400 1.350 . S
C1395 N1403 1.427 . S
C1396 H1387 0.930 . S
C1396 C1394 1.378 . S
C1396 C1397 1.367 . S
C1397 C1396 1.367 . S
C1397 C1399 1.433 . S
C1398 C1394 1.350 . S
C1398 C1395 1.463 . S
C1398 N1402 1.427 . S
C1399 H1389 0.929 . S
C1399 C1397 1.433 . S
C1399 N1402 1.384 . S
C1400 H1391 0.929 . S
C1400 C1392 1.378 . S
C1400 C1395 1.350 . S
C1401 H1388 0.929 . S
C1401 C1393 1.433 . S
C1401 N1403 1.384 . S
N1402 C1398 1.427 . S
N1402 C1399 1.384 . S
N1403 C1395 1.427 . S
N1403 C1401 1.384 . S
H1404 C1410 0.930 1_554 S
H1405 C1414 0.930 . S
H1406 C1419 0.929 . S
H1407 C1417 0.929 . S
H1408 C1412 0.929 . S
H1409 C1418 0.929 . S
C1410 H1404 0.930 1_556 S
C1410 C1411 1.367 . S
C1410 C1418 1.378 . S
C1411 C1410 1.367 . S
C1411 C1419 1.433 . S
C1412 H1408 0.929 . S
C1412 C1414 1.378 . S
C1412 C1416 1.350 . S
C1413 C1416 1.463 . S
C1413 C1418 1.350 . S
C1413 N1421 1.427 . S
C1414 H1405 0.930 . S
C1414 C1412 1.378 . S
C1414 C1415 1.367 . S
C1415 C1414 1.367 . S
C1415 C1417 1.433 . S
C1416 C1412 1.350 . S
C1416 C1413 1.463 . S
C1416 N1420 1.427 . S
C1417 H1407 0.929 . S
C1417 C1415 1.433 . S
C1417 N1420 1.384 . S
C1418 H1409 0.929 . S
C1418 C1410 1.378 . S
C1418 C1413 1.350 . S
C1419 H1406 0.929 . S
C1419 C1411 1.433 . S
C1419 N1421 1.384 . S
N1420 C1416 1.427 . S
N1420 C1417 1.384 . S
N1421 C1413 1.427 . S
N1421 C1419 1.384 . S
H1422 C1428 0.930 . S
H1423 C1432 0.930 . S
H1424 C1437 0.929 . S
H1425 C1435 0.929 . S
H1426 C1430 0.929 . S
H1427 C1436 0.929 . S
C1428 H1422 0.930 . S
C1428 C1429 1.367 . S
C1428 C1436 1.378 . S
C1429 C1428 1.367 . S
C1429 C1437 1.433 . S
C1430 H1426 0.929 . S
C1430 C1432 1.378 . S
C1430 C1434 1.350 . S
C1431 C1434 1.463 . S
C1431 C1436 1.350 . S
C1431 N1439 1.427 . S
C1432 H1423 0.930 . S
C1432 C1430 1.378 . S
C1432 C1433 1.367 . S
C1433 C1432 1.367 . S
C1433 C1435 1.433 . S
C1434 C1430 1.350 . S
C1434 C1431 1.463 . S
C1434 N1438 1.427 . S
C1435 H1425 0.929 . S
C1435 C1433 1.433 . S
C1435 N1438 1.384 . S
C1436 H1427 0.929 . S
C1436 C1428 1.378 . S
C1436 C1431 1.350 . S
C1437 H1424 0.929 . S
C1437 C1429 1.433 . S
C1437 N1439 1.384 . S
N1438 C1434 1.427 . S
N1438 C1435 1.384 . S
N1439 C1431 1.427 . S
N1439 C1437 1.384 . S
H1440 C1446 0.930 . S
H1441 C1450 0.930 . S
H1442 C1455 0.929 . S
H1443 C1453 0.929 . S
H1444 C1448 0.929 . S
H1445 C1454 0.929 . S
C1446 H1440 0.930 . S
C1446 C1447 1.367 . S
C1446 C1454 1.378 . S
C1447 C1446 1.367 . S
C1447 C1455 1.433 . S
C1448 H1444 0.929 . S
C1448 C1450 1.378 . S
C1448 C1452 1.350 . S
C1449 C1452 1.463 . S
C1449 C1454 1.350 . S
C1449 N1457 1.427 . S
C1450 H1441 0.930 . S
C1450 C1448 1.378 . S
C1450 C1451 1.367 . S
C1451 C1450 1.367 . S
C1451 C1453 1.433 . S
C1452 C1448 1.350 . S
C1452 C1449 1.463 . S
C1452 N1456 1.427 . S
C1453 H1443 0.929 . S
C1453 C1451 1.433 . S
C1453 N1456 1.384 . S
C1454 H1445 0.929 . S
C1454 C1446 1.378 . S
C1454 C1449 1.350 . S
C1455 H1442 0.929 . S
C1455 C1447 1.433 . S
C1455 N1457 1.384 . S
N1456 C1452 1.427 . S
N1456 C1453 1.384 . S
N1457 C1449 1.427 . S
N1457 C1455 1.384 . S
H1458 C1464 0.930 . S
H1459 C1468 0.930 . S
H1460 C1473 0.929 . S
H1461 C1471 0.929 . S
H1462 C1466 0.929 . S
H1463 C1472 0.929 . S
C1464 H1458 0.930 . S
C1464 C1465 1.367 . S
C1464 C1472 1.378 . S
C1465 C1464 1.367 . S
C1465 C1473 1.433 . S
C1466 H1462 0.929 . S
C1466 C1468 1.378 . S
C1466 C1470 1.350 . S
C1467 C1470 1.463 . S
C1467 C1472 1.350 . S
C1467 N1475 1.427 . S
C1468 H1459 0.930 . S
C1468 C1466 1.378 . S
C1468 C1469 1.367 . S
C1469 C1468 1.367 . S
C1469 C1471 1.433 . S
C1470 C1466 1.350 . S
C1470 C1467 1.463 . S
C1470 N1474 1.427 . S
C1471 H1461 0.929 . S
C1471 C1469 1.433 . S
C1471 N1474 1.384 . S
C1472 H1463 0.929 . S
C1472 C1464 1.378 . S
C1472 C1467 1.350 . S
C1473 H1460 0.929 . S
C1473 C1465 1.433 . S
C1473 N1475 1.384 . S
N1474 C1470 1.427 . S
N1474 C1471 1.384 . S
N1475 C1467 1.427 . S
N1475 C1473 1.384 . S
H1476 C1482 0.930 . S
H1477 C1486 0.930 . S
H1478 C1491 0.929 . S
H1479 C1489 0.929 . S
H1480 C1484 0.929 . S
H1481 C1490 0.929 . S
C1482 H1476 0.930 . S
C1482 C1483 1.367 . S
C1482 C1490 1.378 . S
C1483 C1482 1.367 . S
C1483 C1491 1.433 . S
C1484 H1480 0.929 . S
C1484 C1486 1.378 . S
C1484 C1488 1.350 . S
C1485 C1488 1.463 . S
C1485 C1490 1.350 . S
C1485 N1493 1.427 . S
C1486 H1477 0.930 . S
C1486 C1484 1.378 . S
C1486 C1487 1.367 . S
C1487 C1486 1.367 . S
C1487 C1489 1.433 . S
C1488 C1484 1.350 . S
C1488 C1485 1.463 . S
C1488 N1492 1.427 . S
C1489 H1479 0.929 . S
C1489 C1487 1.433 . S
C1489 N1492 1.384 . S
C1490 H1481 0.929 . S
C1490 C1482 1.378 . S
C1490 C1485 1.350 . S
C1491 H1478 0.929 . S
C1491 C1483 1.433 . S
C1491 N1493 1.384 . S
N1492 C1488 1.427 . S
N1492 C1489 1.384 . S
N1493 C1485 1.427 . S
N1493 C1491 1.384 . S
H1494 C1500 0.930 . S
H1495 C1504 0.930 . S
H1496 C1509 0.929 . S
H1497 C1507 0.929 . S
H1498 C1502 0.929 . S
H1499 C1508 0.929 . S
C1500 H1494 0.930 . S
C1500 C1501 1.367 . S
C1500 C1508 1.378 . S
C1501 C1500 1.367 . S
C1501 C1509 1.433 . S
C1502 H1498 0.929 . S
C1502 C1504 1.378 . S
C1502 C1506 1.350 . S
C1503 C1506 1.463 . S
C1503 C1508 1.350 . S
C1503 N1511 1.427 . S
C1504 H1495 0.930 . S
C1504 C1502 1.378 . S
C1504 C1505 1.367 . S
C1505 C1504 1.367 . S
C1505 C1507 1.433 . S
C1506 C1502 1.350 . S
C1506 C1503 1.463 . S
C1506 N1510 1.427 . S
C1507 H1497 0.929 . S
C1507 C1505 1.433 . S
C1507 N1510 1.384 . S
C1508 H1499 0.929 . S
C1508 C1500 1.378 . S
C1508 C1503 1.350 . S
C1509 H1496 0.929 . S
C1509 C1501 1.433 . S
C1509 N1511 1.384 . S
N1510 C1506 1.427 . S
N1510 C1507 1.384 . S
N1511 C1503 1.427 . S
N1511 C1509 1.384 . S
H1512 C1518 0.930 . S
H1513 C1522 0.930 . S
H1514 C1527 0.929 . S
H1515 C1525 0.929 . S
H1516 C1520 0.929 . S
H1517 C1526 0.929 . S
C1518 H1512 0.930 . S
C1518 C1519 1.367 . S
C1518 C1526 1.378 . S
C1519 C1518 1.367 . S
C1519 C1527 1.433 . S
C1520 H1516 0.929 . S
C1520 C1522 1.378 . S
C1520 C1524 1.350 . S
C1521 C1524 1.463 . S
C1521 C1526 1.350 . S
C1521 N1529 1.427 . S
C1522 H1513 0.930 . S
C1522 C1520 1.378 . S
C1522 C1523 1.367 . S
C1523 C1522 1.367 . S
C1523 C1525 1.433 . S
C1524 C1520 1.350 . S
C1524 C1521 1.463 . S
C1524 N1528 1.427 . S
C1525 H1515 0.929 . S
C1525 C1523 1.433 . S
C1525 N1528 1.384 . S
C1526 H1517 0.929 . S
C1526 C1518 1.378 . S
C1526 C1521 1.350 . S
C1527 H1514 0.929 . S
C1527 C1519 1.433 . S
C1527 N1529 1.384 . S
N1528 C1524 1.427 . S
N1528 C1525 1.384 . S
N1529 C1521 1.427 . S
N1529 C1527 1.384 . S
H1530 C1536 0.930 . S
H1531 C1540 0.930 . S
H1532 C1545 0.929 . S
H1533 C1543 0.929 . S
H1534 C1538 0.929 . S
H1535 C1544 0.929 . S
C1536 H1530 0.930 . S
C1536 C1537 1.367 . S
C1536 C1544 1.378 . S
C1537 C1536 1.367 . S
C1537 C1545 1.433 . S
C1538 H1534 0.929 . S
C1538 C1540 1.378 . S
C1538 C1542 1.350 . S
C1539 C1542 1.463 . S
C1539 C1544 1.350 . S
C1539 N1547 1.427 . S
C1540 H1531 0.930 . S
C1540 C1538 1.378 . S
C1540 C1541 1.367 . S
C1541 C1540 1.367 . S
C1541 C1543 1.433 . S
C1542 C1538 1.350 . S
C1542 C1539 1.463 . S
C1542 N1546 1.427 . S
C1543 H1533 0.929 . S
C1543 C1541 1.433 . S
C1543 N1546 1.384 . S
C1544 H1535 0.929 . S
C1544 C1536 1.378 . S
C1544 C1539 1.350 . S
C1545 H1532 0.929 . S
C1545 C1537 1.433 . S
C1545 N1547 1.384 . S
N1546 C1542 1.427 . S
N1546 C1543 1.384 . S
N1547 C1539 1.427 . S
N1547 C1545 1.384 . S
H1548 C1554 0.930 . S
H1549 C1558 0.930 . S
H1550 C1563 0.929 . S
H1551 C1561 0.929 . S
H1552 C1556 0.929 . S
H1553 C1562 0.929 . S
C1554 H1548 0.930 . S
C1554 C1555 1.367 . S
C1554 C1562 1.378 . S
C1555 C1554 1.367 . S
C1555 C1563 1.433 . S
C1556 H1552 0.929 . S
C1556 C1558 1.378 . S
C1556 C1560 1.350 . S
C1557 C1560 1.463 . S
C1557 C1562 1.350 . S
C1557 N1565 1.427 . S
C1558 H1549 0.930 . S
C1558 C1556 1.378 . S
C1558 C1559 1.367 . S
C1559 C1558 1.367 . S
C1559 C1561 1.433 . S
C1560 C1556 1.350 . S
C1560 C1557 1.463 . S
C1560 N1564 1.427 . S
C1561 H1551 0.929 . S
C1561 C1559 1.433 . S
C1561 N1564 1.384 . S
C1562 H1553 0.929 . S
C1562 C1554 1.378 . S
C1562 C1557 1.350 . S
C1563 H1550 0.929 . S
C1563 C1555 1.433 . S
C1563 N1565 1.384 . S
N1564 C1560 1.427 . S
N1564 C1561 1.384 . S
N1565 C1557 1.427 . S
N1565 C1563 1.384 . S
H1566 C1572 0.930 . S
H1567 C1576 0.930 . S
H1568 C1581 0.929 . S
H1569 C1579 0.929 . S
H1570 C1574 0.929 . S
H1571 C1580 0.929 . S
C1572 H1566 0.930 . S
C1572 C1573 1.367 . S
C1572 C1580 1.378 . S
C1573 C1572 1.367 . S
C1573 C1581 1.433 . S
C1574 H1570 0.929 . S
C1574 C1576 1.378 . S
C1574 C1578 1.350 . S
C1575 C1578 1.463 . S
C1575 C1580 1.350 . S
C1575 N1583 1.427 . S
C1576 H1567 0.930 . S
C1576 C1574 1.378 . S
C1576 C1577 1.367 . S
C1577 C1576 1.367 . S
C1577 C1579 1.433 . S
C1578 C1574 1.350 . S
C1578 C1575 1.463 . S
C1578 N1582 1.427 . S
C1579 H1569 0.929 . S
C1579 C1577 1.433 . S
C1579 N1582 1.384 . S
C1580 H1571 0.929 . S
C1580 C1572 1.378 . S
C1580 C1575 1.350 . S
C1581 H1568 0.929 . S
C1581 C1573 1.433 . S
C1581 N1583 1.384 . S
N1582 C1578 1.427 . S
N1582 C1579 1.384 . S
N1583 C1575 1.427 . S
N1583 C1581 1.384 . S
H1584 C1590 0.930 . S
H1585 C1594 0.930 . S
H1586 C1599 0.929 . S
H1587 C1597 0.929 . S
H1588 C1592 0.929 . S
H1589 C1598 0.929 . S
C1590 H1584 0.930 . S
C1590 C1591 1.367 . S
C1590 C1598 1.378 . S
C1591 C1590 1.367 . S
C1591 C1599 1.433 . S
C1592 H1588 0.929 . S
C1592 C1594 1.378 . S
C1592 C1596 1.350 . S
C1593 C1596 1.463 . S
C1593 C1598 1.350 . S
C1593 N1601 1.427 . S
C1594 H1585 0.930 . S
C1594 C1592 1.378 . S
C1594 C1595 1.367 . S
C1595 C1594 1.367 . S
C1595 C1597 1.433 . S
C1596 C1592 1.350 . S
C1596 C1593 1.463 . S
C1596 N1600 1.427 . S
C1597 H1587 0.929 . S
C1597 C1595 1.433 . S
C1597 N1600 1.384 . S
C1598 H1589 0.929 . S
C1598 C1590 1.378 . S
C1598 C1593 1.350 . S
C1599 H1586 0.929 . S
C1599 C1591 1.433 . S
C1599 N1601 1.384 . S
N1600 C1596 1.427 . S
N1600 C1597 1.384 . S
N1601 C1593 1.427 . S
N1601 C1599 1.384 . S
H1602 C1608 0.930 . S
H1603 C1612 0.930 . S
H1604 C1617 0.929 . S
H1605 C1615 0.929 . S
H1606 C1610 0.929 . S
H1607 C1616 0.929 . S
C1608 H1602 0.930 . S
C1608 C1609 1.367 . S
C1608 C1616 1.378 . S
C1609 C1608 1.367 . S
C1609 C1617 1.433 . S
C1610 H1606 0.929 . S
C1610 C1612 1.378 . S
C1610 C1614 1.350 . S
C1611 C1614 1.463 . S
C1611 C1616 1.350 . S
C1611 N1619 1.427 . S
C1612 H1603 0.930 . S
C1612 C1610 1.378 . S
C1612 C1613 1.367 . S
C1613 C1612 1.367 . S
C1613 C1615 1.433 . S
C1614 C1610 1.350 . S
C1614 C1611 1.463 . S
C1614 N1618 1.427 . S
C1615 H1605 0.929 . S
C1615 C1613 1.433 . S
C1615 N1618 1.384 . S
C1616 H1607 0.929 . S
C1616 C1608 1.378 . S
C1616 C1611 1.350 . S
C1617 H1604 0.929 . S
C1617 C1609 1.433 . S
C1617 N1619 1.384 . S
N1618 C1614 1.427 . S
N1618 C1615 1.384 . S
N1619 C1611 1.427 . S
N1619 C1617 1.384 . S
H1620 C1626 0.930 . S
H1621 C1630 0.930 . S
H1622 C1635 0.929 . S
H1623 C1633 0.929 . S
H1624 C1628 0.929 . S
H1625 C1634 0.929 . S
C1626 H1620 0.930 . S
C1626 C1627 1.367 . S
C1626 C1634 1.378 . S
C1627 C1626 1.367 . S
C1627 C1635 1.433 . S
C1628 H1624 0.929 . S
C1628 C1630 1.378 . S
C1628 C1632 1.350 . S
C1629 C1632 1.463 . S
C1629 C1634 1.350 . S
C1629 N1637 1.427 . S
C1630 H1621 0.930 . S
C1630 C1628 1.378 . S
C1630 C1631 1.367 . S
C1631 C1630 1.367 . S
C1631 C1633 1.433 . S
C1632 C1628 1.350 . S
C1632 C1629 1.463 . S
C1632 N1636 1.427 . S
C1633 H1623 0.929 . S
C1633 C1631 1.433 . S
C1633 N1636 1.384 . S
C1634 H1625 0.929 . S
C1634 C1626 1.378 . S
C1634 C1629 1.350 . S
C1635 H1622 0.929 . S
C1635 C1627 1.433 . S
C1635 N1637 1.384 . S
N1636 C1632 1.427 . S
N1636 C1633 1.384 . S
N1637 C1629 1.427 . S
N1637 C1635 1.384 . S
H1638 C1644 0.930 . S
H1639 C1648 0.930 . S
H1640 C1653 0.929 . S
H1641 C1651 0.929 . S
H1642 C1646 0.929 . S
H1643 C1652 0.929 . S
C1644 H1638 0.930 . S
C1644 C1645 1.367 . S
C1644 C1652 1.378 . S
C1645 C1644 1.367 . S
C1645 C1653 1.433 . S
C1646 H1642 0.929 . S
C1646 C1648 1.378 . S
C1646 C1650 1.350 . S
C1647 C1650 1.463 . S
C1647 C1652 1.350 . S
C1647 N1655 1.427 . S
C1648 H1639 0.930 . S
C1648 C1646 1.378 . S
C1648 C1649 1.367 . S
C1649 C1648 1.367 . S
C1649 C1651 1.433 . S
C1650 C1646 1.350 . S
C1650 C1647 1.463 . S
C1650 N1654 1.427 . S
C1651 H1641 0.929 . S
C1651 C1649 1.433 . S
C1651 N1654 1.384 . S
C1652 H1643 0.929 . S
C1652 C1644 1.378 . S
C1652 C1647 1.350 . S
C1653 H1640 0.929 . S
C1653 C1645 1.433 . S
C1653 N1655 1.384 . S
N1654 C1650 1.427 . S
N1654 C1651 1.384 . S
N1655 C1647 1.427 . S
N1655 C1653 1.384 . S
H1656 C1662 0.930 . S
H1657 C1666 0.930 . S
H1658 C1671 0.929 . S
H1659 C1669 0.929 . S
H1660 C1664 0.929 . S
H1661 C1670 0.929 . S
C1662 H1656 0.930 . S
C1662 C1663 1.367 . S
C1662 C1670 1.378 . S
C1663 C1662 1.367 . S
C1663 C1671 1.433 . S
C1664 H1660 0.929 . S
C1664 C1666 1.378 . S
C1664 C1668 1.350 . S
C1665 C1668 1.463 . S
C1665 C1670 1.350 . S
C1665 N1673 1.427 . S
C1666 H1657 0.930 . S
C1666 C1664 1.378 . S
C1666 C1667 1.367 . S
C1667 C1666 1.367 . S
C1667 C1669 1.433 . S
C1668 C1664 1.350 . S
C1668 C1665 1.463 . S
C1668 N1672 1.427 . S
C1669 H1659 0.929 . S
C1669 C1667 1.433 . S
C1669 N1672 1.384 . S
C1670 H1661 0.929 . S
C1670 C1662 1.378 . S
C1670 C1665 1.350 . S
C1671 H1658 0.929 . S
C1671 C1663 1.433 . S
C1671 N1673 1.384 . S
N1672 C1668 1.427 . S
N1672 C1669 1.384 . S
N1673 C1665 1.427 . S
N1673 C1671 1.384 . S
H1674 C1680 0.930 . S
H1675 C1684 0.930 . S
H1676 C1689 0.929 . S
H1677 C1687 0.929 . S
H1678 C1682 0.929 . S
H1679 C1688 0.929 . S
C1680 H1674 0.930 . S
C1680 C1681 1.367 . S
C1680 C1688 1.378 . S
C1681 C1680 1.367 . S
C1681 C1689 1.433 . S
C1682 H1678 0.929 . S
C1682 C1684 1.378 . S
C1682 C1686 1.350 . S
C1683 C1686 1.463 . S
C1683 C1688 1.350 . S
C1683 N1691 1.427 . S
C1684 H1675 0.930 . S
C1684 C1682 1.378 . S
C1684 C1685 1.367 . S
C1685 C1684 1.367 . S
C1685 C1687 1.433 . S
C1686 C1682 1.350 . S
C1686 C1683 1.463 . S
C1686 N1690 1.427 . S
C1687 H1677 0.929 . S
C1687 C1685 1.433 . S
C1687 N1690 1.384 . S
C1688 H1679 0.929 . S
C1688 C1680 1.378 . S
C1688 C1683 1.350 . S
C1689 H1676 0.929 . S
C1689 C1681 1.433 . S
C1689 N1691 1.384 . S
N1690 C1686 1.427 . S
N1690 C1687 1.384 . S
N1691 C1683 1.427 . S
N1691 C1689 1.384 . S
H1692 C1698 0.930 . S
H1693 C1702 0.930 . S
H1694 C1707 0.929 . S
H1695 C1705 0.929 . S
H1696 C1700 0.929 . S
H1697 C1706 0.929 . S
C1698 H1692 0.930 . S
C1698 C1699 1.367 . S
C1698 C1706 1.378 . S
C1699 C1698 1.367 . S
C1699 C1707 1.433 . S
C1700 H1696 0.929 . S
C1700 C1702 1.378 . S
C1700 C1704 1.350 . S
C1701 C1704 1.463 1_455 S
C1701 C1706 1.350 . S
C1701 N1709 1.427 . S
C1702 H1693 0.930 . S
C1702 C1700 1.378 . S
C1702 C1703 1.367 . S
C1703 C1702 1.367 . S
C1703 C1705 1.433 . S
C1704 C1700 1.350 . S
C1704 C1701 1.463 1_655 S
C1704 N1708 1.427 . S
C1705 H1695 0.929 . S
C1705 C1703 1.433 . S
C1705 N1708 1.384 . S
C1706 H1697 0.929 . S
C1706 C1698 1.378 . S
C1706 C1701 1.350 . S
C1707 H1694 0.929 . S
C1707 C1699 1.433 . S
C1707 N1709 1.384 . S
N1708 C1704 1.427 . S
N1708 C1705 1.384 . S
N1709 C1701 1.427 . S
N1709 C1707 1.384 . S
H1710 C1716 0.930 . S
H1711 C1720 0.930 . S
H1712 C1725 0.929 . S
H1713 C1723 0.929 . S
H1714 C1718 0.929 . S
H1715 C1724 0.929 . S
C1716 H1710 0.930 . S
C1716 C1717 1.367 . S
C1716 C1724 1.378 . S
C1717 C1716 1.367 . S
C1717 C1725 1.433 . S
C1718 H1714 0.929 . S
C1718 C1720 1.378 . S
C1718 C1722 1.350 . S
C1719 C1722 1.463 . S
C1719 C1724 1.350 . S
C1719 N1727 1.427 . S
C1720 H1711 0.930 . S
C1720 C1718 1.378 . S
C1720 C1721 1.367 . S
C1721 C1720 1.367 . S
C1721 C1723 1.433 . S
C1722 C1718 1.350 . S
C1722 C1719 1.463 . S
C1722 N1726 1.427 . S
C1723 H1713 0.929 . S
C1723 C1721 1.433 . S
C1723 N1726 1.384 . S
C1724 H1715 0.929 . S
C1724 C1716 1.378 . S
C1724 C1719 1.350 . S
C1725 H1712 0.929 . S
C1725 C1717 1.433 . S
C1725 N1727 1.384 . S
N1726 C1722 1.427 . S
N1726 C1723 1.384 . S
N1727 C1719 1.427 . S
N1727 C1725 1.384 . S
H1728 C1734 0.930 . S
H1729 C1738 0.930 . S
H1730 C1743 0.929 . S
H1731 C1741 0.929 . S
H1732 C1736 0.929 . S
H1733 C1742 0.929 . S
C1734 H1728 0.930 . S
C1734 C1735 1.367 . S
C1734 C1742 1.378 . S
C1735 C1734 1.367 . S
C1735 C1743 1.433 . S
C1736 H1732 0.929 . S
C1736 C1738 1.378 . S
C1736 C1740 1.350 . S
C1737 C1740 1.463 1_545 S
C1737 C1742 1.350 . S
C1737 N1745 1.427 . S
C1738 H1729 0.930 . S
C1738 C1736 1.378 . S
C1738 C1739 1.367 . S
C1739 C1738 1.367 . S
C1739 C1741 1.433 . S
C1740 C1736 1.350 . S
C1740 C1737 1.463 1_565 S
C1740 N1744 1.427 . S
C1741 H1731 0.929 . S
C1741 C1739 1.433 . S
C1741 N1744 1.384 . S
C1742 H1733 0.929 . S
C1742 C1734 1.378 . S
C1742 C1737 1.350 . S
C1743 H1730 0.929 . S
C1743 C1735 1.433 . S
C1743 N1745 1.384 . S
N1744 C1740 1.427 . S
N1744 C1741 1.384 . S
N1745 C1737 1.427 . S
N1745 C1743 1.384 . S
H1746 C1752 0.930 . S
H1747 C1756 0.930 . S
H1748 C1761 0.929 . S
H1749 C1759 0.929 . S
H1750 C1754 0.929 . S
H1751 C1760 0.929 . S
C1752 H1746 0.930 . S
C1752 C1753 1.367 . S
C1752 C1760 1.378 . S
C1753 C1752 1.367 . S
C1753 C1761 1.433 1_556 S
C1754 H1750 0.929 . S
C1754 C1756 1.378 . S
C1754 C1758 1.350 . S
C1755 C1758 1.463 1_546 S
C1755 C1760 1.350 . S
C1755 N1763 1.427 1_556 S
C1756 H1747 0.930 . S
C1756 C1754 1.378 . S
C1756 C1757 1.367 . S
C1757 C1756 1.367 . S
C1757 C1759 1.433 1_554 S
C1758 C1754 1.350 . S
C1758 C1755 1.463 1_564 S
C1758 N1762 1.427 1_554 S
C1759 H1749 0.929 . S
C1759 C1757 1.433 1_556 S
C1759 N1762 1.384 . S
C1760 H1751 0.929 . S
C1760 C1752 1.378 . S
C1760 C1755 1.350 . S
C1761 H1748 0.929 . S
C1761 C1753 1.433 1_554 S
C1761 N1763 1.384 . S
N1762 C1758 1.427 1_556 S
N1762 C1759 1.384 . S
N1763 C1755 1.427 1_554 S
N1763 C1761 1.384 . S
H1764 C1770 0.930 . S
H1765 C1774 0.930 . S
H1766 C1779 0.929 . S
H1767 C1777 0.929 . S
H1768 C1772 0.929 . S
H1769 C1778 0.929 . S
C1770 H1764 0.930 . S
C1770 C1771 1.367 . S
C1770 C1778 1.378 . S
C1771 C1770 1.367 . S
C1771 C1779 1.433 . S
C1772 H1768 0.929 . S
C1772 C1774 1.378 . S
C1772 C1776 1.350 . S
C1773 C1776 1.463 1_656 S
C1773 C1778 1.350 . S
C1773 N1781 1.427 . S
C1774 H1765 0.930 . S
C1774 C1772 1.378 . S
C1774 C1775 1.367 . S
C1775 C1774 1.367 . S
C1775 C1777 1.433 . S
C1776 C1772 1.350 . S
C1776 C1773 1.463 1_454 S
C1776 N1780 1.427 1_554 S
C1777 H1767 0.929 . S
C1777 C1775 1.433 . S
C1777 N1780 1.384 1_554 S
C1778 H1769 0.929 . S
C1778 C1770 1.378 . S
C1778 C1773 1.350 . S
C1779 H1766 0.929 . S
C1779 C1771 1.433 . S
C1779 N1781 1.384 . S
N1780 C1776 1.427 1_556 S
N1780 C1777 1.384 1_556 S
N1781 C1773 1.427 . S
N1781 C1779 1.384 . S
H1782 C1788 0.930 . S
H1783 C1792 0.930 . S
H1784 C1797 0.929 1_554 S
H1785 C1795 0.929 . S
H1786 C1790 0.929 . S
H1787 C1796 0.929 . S
C1788 H1782 0.930 . S
C1788 C1789 1.367 . S
C1788 C1796 1.378 . S
C1789 C1788 1.367 . S
C1789 C1797 1.433 . S
C1790 H1786 0.929 . S
C1790 C1792 1.378 . S
C1790 C1794 1.350 1_554 S
C1791 C1794 1.463 . S
C1791 C1796 1.350 . S
C1791 N1799 1.427 1_556 S
C1792 H1783 0.930 . S
C1792 C1790 1.378 . S
C1792 C1793 1.367 . S
C1793 C1792 1.367 . S
C1793 C1795 1.433 1_554 S
C1794 C1790 1.350 1_556 S
C1794 C1791 1.463 . S
C1794 N1798 1.427 . S
C1795 H1785 0.929 . S
C1795 C1793 1.433 1_556 S
C1795 N1798 1.384 . S
C1796 H1787 0.929 . S
C1796 C1788 1.378 . S
C1796 C1791 1.350 . S
C1797 H1784 0.929 1_556 S
C1797 C1789 1.433 . S
C1797 N1799 1.384 1_556 S
N1798 C1794 1.427 . S
N1798 C1795 1.384 . S
N1799 C1791 1.427 1_554 S
N1799 C1797 1.384 1_554 S
C511 C11 1.086 . S
C515 C102 1.132 . S
C529 C19 1.141 . S
C533 C116 1.196 . S
C547 C88 1.148 . S
C551 C33 1.071 . S
C565 C158 1.151 . S
C569 C47 1.072 . S
C583 C61 1.116 . S
C587 C130 1.190 . S
C601 C81 1.091 . S
C605 C144 1.131 . S
C619 C18 1.036 . S
C623 C89 0.980 . S
C637 C32 1.145 . S
C641 C103 1.082 . S
C655 C117 0.981 . S
C659 C12 1.052 . S
C673 C131 1.000 . S
C677 C82 1.048 . S
C691 C46 1.140 . S
C695 C145 1.067 . S
C709 C159 0.994 . S
C713 C60 1.035 . S
C727 C270 1.130 . S
C731 C179 1.078 . S
C745 C187 1.120 . S
C749 C284 1.189 . S
C763 C201 1.088 . S
C767 C256 1.157 . S
C781 C326 1.148 . S
C785 C215 1.072 . S
C799 C229 1.138 . S
C803 C298 1.198 . S
C817 C312 1.132 . S
C821 C249 1.080 . S
C835 C186 1.037 . S
C839 C257 0.990 . S
C853 C271 1.086 . S
C857 C200 1.137 . S
C871 C180 1.045 . S
C875 C285 0.975 . S
C889 C299 0.990 . S
C893 C250 1.054 . S
C907 C313 1.065 . S
C911 C214 1.138 . S
C925 C327 0.991 . S
C929 C228 1.037 . S
C943 C438 1.123 . S
C947 C347 1.100 . S
C961 C452 1.191 . S
C965 C355 1.135 . S
C979 C424 1.158 . S
C983 C369 1.089 . S
C997 C383 1.075 . S
C1001 C494 1.153 . S
C1015 C397 1.139 . S
C1019 C466 1.194 . S
C1033 C480 1.130 . S
C1037 C417 1.078 . S
C1051 C425 0.994 . S
C1055 C354 1.034 . S
C1069 C368 1.141 . S
C1073 C439 1.069 . S
C1087 C348 1.047 . S
C1091 C453 0.997 . S
C1105 C467 0.999 . S
C1109 C418 1.054 . S
C1123 C481 1.071 . S
C1127 C382 1.134 . S
C1141 C495 0.988 . S
C1145 C396 1.029 . S
C1159 C54 1.471 . S
C1163 C4 1.392 . S
C1177 C68 1.464 . S
C1181 C26 1.462 . S
C1195 C40 1.478 . S
C1199 C74 1.405 . S
C1213 C138 1.397 . S
C1217 C96 1.397 . S
C1231 C152 1.478 . S
C1235 C110 1.474 . S
C1249 C166 1.396 . S
C1253 C124 1.394 . S
C1267 C222 1.471 . S
C1271 C172 1.391 . S
C1285 C236 1.454 . S
C1289 C194 1.450 . S
C1303 C208 1.478 . S
C1307 C242 1.405 . S
C1321 C306 1.388 . S
C1325 C264 1.389 . S
C1339 C320 1.479 . S
C1343 C278 1.475 . S
C1357 C334 1.405 . S
C1361 C292 1.399 . S
C1375 C390 1.474 . S
C1379 C340 1.399 . S
C1393 C362 1.453 . S
C1397 C404 1.450 . S
C1411 C410 1.393 1_556 S
C1415 C376 1.471 . S
C1429 C432 1.388 . S
C1433 C474 1.397 . S
C1447 C446 1.467 . S
C1451 C488 1.471 . S
C1465 C460 1.400 . S
C1469 C502 1.393 . S
C1483 C5 1.234 . S
C1487 C263 1.395 . S
C1501 C277 1.415 . S
C1505 C25 1.417 . S
C1519 C291 1.420 . S
C1523 C39 1.419 . S
C1537 C473 1.428 . S
C1541 C53 1.427 . S
C1555 C487 1.413 . S
C1559 C67 1.415 . S
C1573 C501 1.394 . S
C1577 C75 1.256 . S
C1591 C95 1.398 . S
C1595 C341 1.230 . S
C1609 C361 1.413 . S
C1613 C109 1.412 . S
C1627 C375 1.422 . S
C1631 C123 1.423 . S
C1645 C137 1.417 . S
C1649 C221 1.415 . S
C1663 C151 1.415 . S
C1667 C235 1.417 . S
C1681 C165 1.394 . S
C1685 C243 1.255 . S
C1699 C431 1.402 . S
C1703 C173 1.237 . S
C1717 C445 1.415 . S
C1721 C193 1.417 . S
C1735 C207 1.419 . S
C1739 C459 1.421 . S
C1753 C305 1.428 . S
C1757 C389 1.426 . S
C1771 C319 1.405 . S
C1775 C403 1.407 . S
C1789 C333 1.400 . S
C1793 C411 1.229 . S
