# Generated by pormake.
# Topology qdl, (4)-cn, num edge types: 1
# Building blocks:
#     Node 0, Type 0, BuildingBlock: NAWXER_clean_sbu_0, # of connection points: 4
#     Node 1, Type 0, BuildingBlock: NAWXER_clean_sbu_0, # of connection points: 4
#     Node 2, Type 0, BuildingBlock: NAWXER_clean_sbu_0, # of connection points: 4
#     Node 3, Type 0, BuildingBlock: NAWXER_clean_sbu_0, # of connection points: 4
#     Node 4, Type 0, BuildingBlock: NAWXER_clean_sbu_0, # of connection points: 4
#     Node 5, Type 0, BuildingBlock: NAWXER_clean_sbu_0, # of connection points: 4
#     Edge 6, Type (0, 0), BuildingBlock: FUNLAD_clean_linker_0, # of connection points: 2
#     Edge 7, Type (0, 0), BuildingBlock: FUNLAD_clean_linker_0, # of connection points: 2
#     Edge 8, Type (0, 0), BuildingBlock: FUNLAD_clean_linker_0, # of connection points: 2
#     Edge 9, Type (0, 0), BuildingBlock: FUNLAD_clean_linker_0, # of connection points: 2
#     Edge 10, Type (0, 0), BuildingBlock: FUNLAD_clean_linker_0, # of connection points: 2
#     Edge 11, Type (0, 0), BuildingBlock: FUNLAD_clean_linker_0, # of connection points: 2
#     Edge 12, Type (0, 0), BuildingBlock: FUNLAD_clean_linker_0, # of connection points: 2
#     Edge 13, Type (0, 0), BuildingBlock: FUNLAD_clean_linker_0, # of connection points: 2
#     Edge 14, Type (0, 0), BuildingBlock: FUNLAD_clean_linker_0, # of connection points: 2
#     Edge 15, Type (0, 0), BuildingBlock: FUNLAD_clean_linker_0, # of connection points: 2
#     Edge 16, Type (0, 0), BuildingBlock: FUNLAD_clean_linker_0, # of connection points: 2
#     Edge 17, Type (0, 0), BuildingBlock: FUNLAD_clean_linker_0, # of connection points: 2
# Relax obj value: 0.000
# Max RMSD: 0.023
# Mean RMSD: 0.019
data_MOF--net-qdl--node1-NAWXER_clean_sbu_0--edge1-FUNLAD_clean_linker_0
_symmetry_space_group_name_H-M    P1
_symmetry_Int_Tables_number       1
_symmetry_cell_setting            triclinic
loop_
_symmetry_equiv_pos_as_xyz
'x, y, z'
_cell_length_a     17.247926
_cell_length_b     17.255608
_cell_length_c     103.08178
_cell_angle_alpha  94.716568
_cell_angle_beta   94.638579
_cell_angle_gamma 120.00669
loop_
_atom_site_label
_atom_site_type_symbol
_atom_site_fract_x
_atom_site_fract_y
_atom_site_fract_z
_atom_type_partial_charge
C0 C 0.29655 0.06882 0.09034 0.0
C1 C 0.31421 0.36216 0.09388 0.0
O2 O 0.36749 0.14671 0.09206 0.0
Zn3 Zn 0.30707 0.21631 0.09226 0.0
O4 O 0.21878 0.06217 0.08943 0.0
Zn5 Zn 0.16445 0.15011 0.09006 0.0
O6 O 0.09314 0.11647 0.07313 0.0
O7 O 0.23974 0.18457 0.07222 0.0
O8 O 0.23287 0.29497 0.09235 0.0
O9 O 0.37963 0.34754 0.09443 0.0
O10 O 0.24893 0.19072 0.11039 0.0
O11 O 0.10096 0.12186 0.105 0.0
C12 C 0.15808 0.14683 0.06638 0.0
C13 C 0.1694 0.15405 0.11378 0.0
C14 C 0.12582 0.87695 0.41508 0.0
C15 C 0.85106 0.89298 0.41521 0.0
O16 O 0.04449 0.81157 0.41284 0.0
Zn17 Zn 0.98756 0.88331 0.41501 0.0
O18 O 0.14182 0.95788 0.41791 0.0
Zn19 Zn 0.06688 0.02549 0.42027 0.0
O20 O 0.10351 0.07969 0.43836 0.0
O21 O 0.01961 0.93091 0.43591 0.0
O22 O 0.92382 0.9702 0.4182 0.0
O23 O 0.85626 0.82283 0.41231 0.0
O24 O 0.02494 0.96038 0.39874 0.0
O25 O 0.10261 0.10489 0.40712 0.0
C26 C 0.06383 1.00726 0.44343 0.0
C27 C 0.06841 0.04403 0.39715 0.0
C28 C 0.03604 0.05811 0.77697 0.0
C29 C 1.00176 0.0137 0.72912 0.0
O30 O 0.99454 0.08139 0.7689 0.0
Zn31 Zn 0.01787 0.03487 0.75304 0.0
O32 O 0.07597 0.01748 0.77261 0.0
Zn33 Zn 0.09596 0.97136 0.75371 0.0
O34 O 0.22636 0.0418 0.75433 0.0
O35 O 0.16029 0.12287 0.75332 0.0
O36 O 0.0491 0.98251 0.73422 0.0
O37 O 0.96893 0.04875 0.73658 0.0
O38 O 0.94269 0.89192 0.75324 0.0
O39 O 0.0378 0.84166 0.75366 0.0
C40 C 0.23212 0.1178 0.75376 0.0
C41 C 0.95753 0.82626 0.75351 0.0
C42 C 0.04341 0.07579 0.61084 0.0
C43 C 0.06276 0.10202 0.56436 0.0
O44 O 0.08284 0.15843 0.60872 0.0
Zn45 Zn 0.11944 0.2313 0.59209 0.0
O46 O 0.01526 0.01298 0.60121 0.0
Zn47 Zn 0.05204 0.08858 0.58756 0.0
O48 O 0.19692 0.1559 0.59127 0.0
O49 O 0.25068 0.30244 0.59578 0.0
O50 O 0.02675 0.03062 0.56974 0.0
O51 O 0.09833 0.17946 0.5715 0.0
O52 O 0.05056 0.29237 0.59255 0.0
O53 O 0.96518 0.14426 0.58755 0.0
C54 C 0.2646 0.23674 0.59421 0.0
C55 C 0.97245 0.2221 0.58964 0.0
C56 C 0.07111 0.1415 0.94554 0.0
C57 C 0.03754 0.11899 0.89787 0.0
O58 O 0.03154 0.18284 0.94134 0.0
Zn59 Zn 0.98962 0.20759 0.92245 0.0
O60 O 0.09563 0.10183 0.93736 0.0
Zn61 Zn 0.05355 0.13043 0.92173 0.0
O62 O 0.14268 0.27384 0.92335 0.0
O63 O 0.06023 0.33856 0.92376 0.0
O64 O 0.0725 0.08638 0.90535 0.0
O65 O 1.00445 0.16471 0.90292 0.0
O66 O 0.85932 0.1488 0.9219 0.0
O67 O 0.90939 0.0536 0.92102 0.0
C68 C 0.13729 0.34551 0.92402 0.0
C69 C 0.84345 0.06815 0.92118 0.0
C70 C 0.11048 0.12702 0.27994 0.0
C71 C 0.11663 0.1108 0.23267 0.0
O72 O 0.03084 0.08913 0.27339 0.0
Zn73 Zn 0.97073 0.05353 0.25302 0.0
O74 O 0.1788 0.15552 0.27386 0.0
Zn75 Zn 0.11402 0.11961 0.25632 0.0
O76 O 0.05978 0.20709 0.25499 0.0
O77 O 0.91088 0.12298 0.25175 0.0
O78 O 0.18291 0.14389 0.24186 0.0
O79 O 0.0358 0.0757 0.23553 0.0
O80 O 0.89793 0.92241 0.25118 0.0
O81 O 0.04476 0.97537 0.25472 0.0
C82 C 0.98213 0.20054 0.2532 0.0
C83 C 0.96338 0.90818 0.25283 0.0
C84 C 0.38404 0.9881 0.09269 0.0
C85 C 0.30174 0.98534 0.08951 0.0
C86 C 0.38639 0.90778 0.09235 0.0
C87 C 0.30627 0.8232 0.08875 0.0
C88 C 0.22483 0.82123 0.0853 0.0
C89 C 0.22241 0.90091 0.08573 0.0
C90 C 0.30249 0.73488 0.08843 0.0
C91 C 0.36757 0.72221 0.09421 0.0
C92 C 0.35417 0.63009 0.0945 0.0
C93 C 0.42864 0.61737 0.09479 0.0
C94 C 0.41659 0.53067 0.09477 0.0
C95 C 0.32976 0.4552 0.09458 0.0
H96 H 0.20937 0.56211 0.09517 0.0
C97 C 0.25595 0.46872 0.09475 0.0
C98 C 0.26797 0.55486 0.09479 0.0
H99 H 0.18828 0.41252 0.09483 0.0
H100 H 0.44643 0.05216 0.09558 0.0
H101 H 0.45095 0.91272 0.09484 0.0
H102 H 0.16206 0.7574 0.08243 0.0
H103 H 0.15784 0.89602 0.08313 0.0
H104 H 0.24031 0.67615 0.08344 0.0
H105 H 0.43187 0.77948 0.09886 0.0
H106 H 0.49599 0.67433 0.09479 0.0
H107 H 0.47497 0.52266 0.09472 0.0
C108 C 0.29095 0.93636 0.41556 0.0
C109 C 0.20263 0.86173 0.41424 0.0
C110 C 0.36445 0.92413 0.41479 0.0
C111 C 0.35196 0.83671 0.41287 0.0
C112 C 0.26357 0.76187 0.41123 0.0
C113 C 0.18947 0.77416 0.41196 0.0
C114 C 0.4302 0.82297 0.41213 0.0
C115 C 0.51282 0.88305 0.41872 0.0
C116 C 0.59688 0.88081 0.41742 0.0
C117 C 0.67948 0.9613 0.42155 0.0
C118 C 0.76118 0.96477 0.42065 0.0
C119 C 0.76281 0.88735 0.41569 0.0
H120 H 0.53567 0.739 0.40934 0.0
C121 C 0.68027 0.80612 0.4116 0.0
C122 C 0.59782 0.8028 0.41242 0.0
H123 H 0.67934 0.74519 0.40781 0.0
H124 H 0.30365 1.00482 0.41708 0.0
H125 H 0.43085 0.98373 0.41548 0.0
H126 H 0.25192 0.69384 0.40953 0.0
H127 H 0.12215 0.71525 0.41079 0.0
H128 H 0.41914 0.76329 0.40596 0.0
H129 H 0.52084 0.94035 0.42518 0.0
H130 H 0.68104 0.02241 0.42546 0.0
H131 H 0.82325 0.02847 0.42396 0.0
C132 C 0.79492 0.72195 0.75512 0.0
C133 C 0.8807 0.73417 0.75387 0.0
C134 C 0.72133 0.63624 0.75547 0.0
C135 C 0.73097 0.55977 0.75438 0.0
C136 C 0.81709 0.5719 0.75345 0.0
C137 C 0.89135 0.65832 0.75315 0.0
C138 C 0.65246 0.46775 0.75462 0.0
C139 C 0.56734 0.44557 0.75008 0.0
C140 C 0.48409 0.35943 0.75126 0.0
C141 C 0.40189 0.35816 0.74983 0.0
C142 C 0.321 0.28009 0.75081 0.0
C143 C 0.31969 0.20037 0.75312 0.0
H144 H 0.54506 0.27737 0.75452 0.0
C145 C 0.40175 0.20083 0.75448 0.0
C146 C 0.48343 0.27977 0.75359 0.0
H147 H 0.40287 0.14028 0.75619 0.0
H148 H 0.78438 0.7789 0.75596 0.0
H149 H 0.65729 0.63073 0.75683 0.0
H150 H 0.8267 0.51435 0.7528 0.0
H151 H 0.95677 0.6656 0.75228 0.0
H152 H 0.66557 0.41881 0.75871 0.0
H153 H 0.55691 0.49507 0.74561 0.0
H154 H 0.4001 0.41826 0.74801 0.0
H155 H 0.25921 0.28235 0.74964 0.0
C156 C 0.37 0.17709 0.59412 0.0
C157 C 0.35757 0.25178 0.59521 0.0
C158 C 0.45626 0.18911 0.59425 0.0
C159 C 0.53275 0.27631 0.59535 0.0
C160 C 0.52097 0.35129 0.59695 0.0
C161 C 0.43416 0.33923 0.59682 0.0
C162 C 0.62509 0.29002 0.59514 0.0
C163 C 0.63899 0.22893 0.58831 0.0
C164 C 0.72734 0.23277 0.58849 0.0
C165 C 0.72578 0.15354 0.58362 0.0
C166 C 0.80537 0.15095 0.58387 0.0
C167 C 0.88934 0.228 0.58889 0.0
H168 H 0.81634 0.37389 0.59693 0.0
C169 C 0.89181 0.3084 0.59348 0.0
C170 C 0.81157 0.31084 0.59332 0.0
H171 H 0.95552 0.36904 0.59737 0.0
H172 H 0.31284 0.10874 0.59308 0.0
H173 H 0.46257 0.12963 0.5936 0.0
H174 H 0.57884 0.41925 0.59803 0.0
H175 H 0.42701 0.39824 0.59776 0.0
H176 H 0.68155 0.35134 0.6007 0.0
H177 H 0.58119 0.17 0.58245 0.0
H178 H 0.66226 0.09244 0.57977 0.0
H179 H 0.80076 0.08796 0.58017 0.0
C180 C 0.21891 0.51387 0.92347 0.0
C181 C 0.22122 0.43474 0.92499 0.0
C182 C 0.2995 0.5969 0.92397 0.0
C183 C 0.38388 0.60211 0.92606 0.0
C184 C 0.38553 0.5232 0.92787 0.0
C185 C 0.30556 0.44072 0.92728 0.0
C186 C 0.4723 0.68691 0.92644 0.0
C187 C 0.48406 0.76245 0.92182 0.0
C188 C 0.5759 0.84076 0.92134 0.0
C189 C 0.59035 0.92888 0.92246 0.0
C190 C 0.67693 1.00328 0.92228 0.0
C191 C 0.75046 0.99063 0.92084 0.0
H192 H 0.64011 0.76132 0.91795 0.0
C193 C 0.73504 0.90214 0.91928 0.0
C194 C 0.64902 0.82826 0.91945 0.0
H195 H 0.78962 0.88954 0.91793 0.0
H196 H 0.15493 0.51152 0.92176 0.0
H197 H 0.29499 0.65624 0.92278 0.0
H198 H 0.44925 0.52492 0.92957 0.0
H199 H 0.31014 0.38142 0.92859 0.0
H200 H 0.53176 0.68532 0.93038 0.0
H201 H 0.42624 0.76781 0.91827 0.0
H202 H 0.53494 0.94032 0.92371 0.0
H203 H 0.6864 0.07055 0.92342 0.0
C204 C 0.89457 0.28148 0.25148 0.0
C205 C 0.97743 0.28354 0.25247 0.0
C206 C 0.89209 0.36101 0.25064 0.0
C207 C 0.97267 0.4439 0.2507 0.0
C208 C 0.05491 0.44519 0.25159 0.0
C209 C 0.05743 0.36643 0.25252 0.0
C210 C 0.97596 0.53101 0.24977 0.0
C211 C 0.91015 0.54829 0.2523 0.0
C212 C 0.92348 0.64063 0.25253 0.0
C213 C 0.84908 0.65171 0.24941 0.0
C214 C 0.86113 0.73845 0.24949 0.0
C215 C 0.9479 0.81561 0.25281 0.0
H216 H 0.06819 0.71303 0.25932 0.0
C217 C 0.02169 0.80419 0.25626 0.0
C218 C 1.00964 0.71814 0.25623 0.0
H219 H 0.08929 0.86197 0.25911 0.0
H220 H 0.83169 0.21853 0.25134 0.0
H221 H 0.8271 0.35664 0.24973 0.0
H222 H 0.11806 0.50782 0.25164 0.0
H223 H 0.1225 0.37073 0.2532 0.0
H224 H 0.03845 0.58521 0.24726 0.0
H225 H 0.84568 0.4949 0.25436 0.0
H226 H 0.78175 0.59319 0.24673 0.0
H227 H 0.80278 0.74501 0.24689 0.0
C228 C 0.05807 0.07619 0.20863 0.0
C229 C 0.13191 0.11415 0.21874 0.0
C230 C 0.07181 0.08123 0.19548 0.0
C231 C 0.15998 0.12518 0.19212 0.0
C232 C 0.23368 0.1612 0.20221 0.0
C233 C 0.21993 0.15613 0.21538 0.0
C234 C 0.17762 0.13287 0.17825 0.0
C235 C 0.11864 0.13034 0.16855 0.0
C236 C 0.13458 0.13714 0.1546 0.0
C237 C 0.05965 0.10492 0.14483 0.0
C238 C 0.07087 0.11027 0.1316 0.0
C239 C 0.15762 0.1488 0.12782 0.0
H240 H 0.28155 0.20499 0.15804 0.0
C241 C 0.23289 0.1822 0.1376 0.0
C242 C 0.22165 0.17668 0.15084 0.0
H243 H 0.30075 0.21297 0.13503 0.0
H244 H 0.9893 0.04238 0.21085 0.0
H245 H 0.01293 0.04937 0.18803 0.0
H246 H 0.30229 0.19447 0.19991 0.0
H247 H 0.27834 0.1857 0.22292 0.0
H248 H 0.24209 0.14219 0.17613 0.0
H249 H 0.0546 0.12177 0.17077 0.0
H250 H 0.99187 0.07482 0.14743 0.0
H251 H 1.01139 0.08418 0.12435 0.0
C252 C 0.03251 0.01297 0.54213 0.0
C253 C 0.06721 0.09678 0.55004 0.0
C254 C 0.04043 1.00875 0.52872 0.0
C255 C 0.08285 0.08847 0.52291 0.0
C256 C 0.11742 0.172 0.53085 0.0
C257 C 0.10945 0.1762 0.54423 0.0
C258 C 0.09527 0.08827 0.50878 0.0
C259 C 0.04426 0.01654 0.49939 0.0
C260 C 0.05499 0.01708 0.48518 0.0
C261 C 0.01596 0.93391 0.47696 0.0
C262 C 0.02062 0.93068 0.46347 0.0
C263 C 0.0642 0.01079 0.45785 0.0
H264 H 0.12811 0.16314 0.48535 0.0
C265 C 0.10411 0.09415 0.46606 0.0
C266 C 0.09926 0.09741 0.47955 0.0
H267 H 0.13744 0.15717 0.46202 0.0
H268 H 1.00036 0.95053 0.54632 0.0
H269 H 0.01514 0.94302 0.5231 0.0
H270 H 0.15084 0.23452 0.52668 0.0
H271 H 0.13731 0.24198 0.55003 0.0
H272 H 0.14797 0.15088 0.50612 0.0
H273 H 0.99155 0.95402 0.50208 0.0
H274 H 0.98105 0.87093 0.48098 0.0
H275 H 0.9889 0.86523 0.45744 0.0
C276 C 0.08119 0.04783 0.80019 0.0
C277 C 0.03681 0.07551 0.79131 0.0
C278 C 0.08005 0.06169 0.8137 0.0
C279 C 0.03383 0.10309 0.81866 0.0
C280 C 0.99135 0.13266 0.80981 0.0
C281 C 0.99237 0.11868 0.79628 0.0
C282 C 0.03053 0.11859 0.83297 0.0
C283 C 0.03821 0.06718 0.84158 0.0
C284 C 0.03648 0.08201 0.85596 0.0
C285 C 0.07207 0.04369 0.86433 0.0
C286 C 0.07223 0.05547 0.8779 0.0
C287 C 0.03607 0.10545 0.88345 0.0
H288 H 0.96827 0.15941 0.85543 0.0
C289 C 0.99909 0.14274 0.87509 0.0
C290 C 0.99902 0.13103 0.86149 0.0
H291 H 0.96999 0.181 0.87903 0.0
H292 H 0.11693 0.01525 0.79672 0.0
H293 H 0.11665 0.04098 0.82018 0.0
H294 H 0.95618 0.1657 0.81336 0.0
H295 H 0.95789 0.14127 0.78972 0.0
H296 H 0.02012 0.17347 0.83635 0.0
H297 H 0.04751 0.01178 0.83804 0.0
H298 H 0.1007 1.005 0.86036 0.0
H299 H 0.10098 0.02549 0.88404 0.0
C300 C 0.21157 0.17317 0.04438 0.0
C301 C 0.14008 0.1413 0.05193 0.0
C302 C 0.19506 0.17104 0.03081 0.0
C303 C 0.10643 0.13658 0.02448 0.0
C304 C 0.03514 0.10489 0.03204 0.0
C305 C 0.05159 0.1067 0.04559 0.0
C306 C 0.08629 0.1366 0.01018 0.0
C307 C 0.1393 0.13556 1.00133 0.0
C308 C 0.11941 0.1367 0.98706 0.0
C309 C 0.15349 0.1002 0.97804 0.0
C310 C 0.13744 0.10126 0.96456 0.0
C311 C 0.08783 0.14001 0.95982 0.0
H312 H 0.04542 0.20762 0.989 0.0
C313 C 0.0547 0.17768 0.96886 0.0
C314 C 0.07036 0.17619 0.98234 0.0
H315 H 0.01679 0.20866 0.96555 0.0
H316 H 0.28065 0.20091 0.04896 0.0
H317 H 0.25227 0.19865 0.02543 0.0
H318 H 0.96634 0.07868 0.02744 0.0
H319 H 0.99496 0.08198 0.05112 0.0
H320 H 0.02346 0.13368 0.00681 0.0
H321 H 0.19742 0.12951 1.00448 0.0
H322 H 0.19225 0.0702 0.98142 0.0
H323 H 0.16436 0.07205 0.95788 0.0
C324 C 0.05157 0.12388 0.30139 0.0
C325 C 0.12136 0.13197 0.29441 0.0
C326 C 0.05801 0.12041 0.3149 0.0
C327 C 0.13402 0.12386 0.32168 0.0
C328 C 0.2043 0.13324 0.31475 0.0
C329 C 0.19865 0.13848 0.30127 0.0
C330 C 0.13766 0.10954 0.33566 0.0
C331 C 0.09969 0.13699 0.34445 0.0
C332 C 0.09586 0.11414 0.35803 0.0
C333 C 0.10257 0.17609 0.3684 0.0
C334 C 0.09549 0.1542 0.3812 0.0
C335 C 0.07885 0.06881 0.38375 0.0
H336 H 0.0725 0.97901 0.35275 0.0
C337 C 0.07116 1.00647 0.37332 0.0
C338 C 0.0802 0.02908 0.36061 0.0
H339 H 0.05836 0.94015 0.37499 0.0
H340 H 0.99111 0.11855 0.29635 0.0
H341 H 1.00169 0.11112 0.31989 0.0
H342 H 0.26317 0.13525 0.31974 0.0
H343 H 0.25322 0.14404 0.29613 0.0
H344 H 0.1734 0.0758 0.3388 0.0
H345 H 0.07193 0.17868 0.34174 0.0
H346 H 0.11367 0.24166 0.36662 0.0
H347 H 0.10117 0.20337 0.38903 0.0
C348 C 0.05454 0.12388 0.63482 0.0
C349 C 0.03054 0.05455 0.62441 0.0
C350 C 0.04289 0.10464 0.64766 0.0
C351 C 1.00662 0.01536 0.65039 0.0
C352 C 0.98352 0.9462 0.64002 0.0
C353 C 0.9947 0.96539 0.62714 0.0
C354 C 0.99698 0.99331 0.66403 0.0
C355 C 0.98498 0.04305 0.67357 0.0
C356 C 0.98278 0.02688 0.68752 0.0
C357 C 0.94394 0.06309 0.69569 0.0
C358 C 0.94733 0.05625 0.70913 0.0
C359 C 0.99058 0.01372 0.71472 0.0
H360 H 0.05726 0.95574 0.68724 0.0
C361 C 0.02793 0.97586 0.70651 0.0
C362 C 0.02433 0.98249 0.69307 0.0
H363 H 0.06217 0.94302 0.7105 0.0
H364 H 0.08286 0.19341 0.63309 0.0
H365 H 0.06445 0.16033 0.65543 0.0
H366 H 0.95647 0.87703 0.64188 0.0
H367 H 0.97589 0.91043 0.61936 0.0
H368 H 0.99781 0.93305 0.66611 0.0
H369 H 0.97529 0.09788 0.67108 0.0
H370 H 0.91205 0.09816 0.69171 0.0
H371 H 0.91805 0.08637 0.71517 0.0
loop_
_geom_bond_atom_site_label_1
_geom_bond_atom_site_label_2
_geom_bond_distance
_geom_bond_site_symmetry_2
_ccdc_geom_bond_type
C0 O2 1.247 . S
C0 O4 1.258 1_545 S
C1 O8 1.247 . S
C1 O9 1.258 . S
O2 C0 1.247 . S
O2 Zn3 2.028 . S
Zn3 O2 2.028 . S
Zn3 O7 2.035 . S
Zn3 O9 2.035 . S
Zn3 O10 2.028 . S
O4 C0 1.258 1_565 S
O4 Zn5 2.035 1_565 S
Zn5 O4 2.035 1_545 S
Zn5 O6 2.028 . S
Zn5 O8 2.028 . S
Zn5 O11 2.035 . S
O6 Zn5 2.028 . S
O6 C12 1.247 . S
O7 Zn3 2.035 . S
O7 C12 1.258 . S
O8 C1 1.247 . S
O8 Zn5 2.028 . S
O9 C1 1.258 . S
O9 Zn3 2.035 . S
O10 Zn3 2.028 . S
O10 C13 1.247 . S
O11 Zn5 2.035 . S
O11 C13 1.258 . S
C12 O6 1.247 . S
C12 O7 1.258 . S
C13 O10 1.247 . S
C13 O11 1.258 . S
C14 O16 1.247 1_545 S
C14 O18 1.258 . S
C15 O22 1.247 . S
C15 O23 1.258 1_545 S
O16 C14 1.247 1_565 S
O16 Zn17 2.028 . S
Zn17 O16 2.028 . S
Zn17 O21 2.035 . S
Zn17 O23 2.035 1_455 S
Zn17 O24 2.028 . S
O18 C14 1.258 . S
O18 Zn19 2.035 . S
Zn19 O18 2.035 . S
Zn19 O20 2.028 . S
Zn19 O22 2.028 1_455 S
Zn19 O25 2.035 . S
O20 Zn19 2.028 . S
O20 C26 1.247 . S
O21 Zn17 2.035 . S
O21 C26 1.258 1_565 S
O22 C15 1.247 . S
O22 Zn19 2.028 1_655 S
O23 C15 1.258 1_565 S
O23 Zn17 2.035 1_655 S
O24 Zn17 2.028 . S
O24 C27 1.247 1_565 S
O25 Zn19 2.035 . S
O25 C27 1.258 . S
C26 O20 1.247 . S
C26 O21 1.258 1_545 S
C27 O24 1.247 1_545 S
C27 O25 1.258 . S
C28 O30 1.247 1_455 S
C28 O32 1.258 . S
C29 O36 1.247 . S
C29 O37 1.258 1_455 S
O30 C28 1.247 1_655 S
O30 Zn31 2.028 . S
Zn31 O30 2.028 . S
Zn31 O35 2.035 1_655 S
Zn31 O37 2.035 . S
Zn31 O38 2.028 . S
O32 C28 1.258 . S
O32 Zn33 2.035 . S
Zn33 O32 2.035 . S
Zn33 O34 2.028 . S
Zn33 O36 2.028 . S
Zn33 O39 2.035 1_445 S
O34 Zn33 2.028 . S
O34 C40 1.247 . S
O35 Zn31 2.035 1_455 S
O35 C40 1.258 . S
O36 C29 1.247 . S
O36 Zn33 2.028 . S
O37 C29 1.258 1_655 S
O37 Zn31 2.035 . S
O38 Zn31 2.028 . S
O38 C41 1.247 1_545 S
O39 Zn33 2.035 1_665 S
O39 C41 1.258 . S
C40 O34 1.247 . S
C40 O35 1.258 . S
C41 O38 1.247 1_565 S
C41 O39 1.258 . S
C42 O44 1.247 . S
C42 O46 1.258 1_445 S
C43 O50 1.247 1_455 S
C43 O51 1.258 1_565 S
O44 C42 1.247 . S
O44 Zn45 2.028 . S
Zn45 O44 2.028 . S
Zn45 O49 2.035 . S
Zn45 O51 2.035 . S
Zn45 O52 2.028 1_455 S
O46 C42 1.258 1_665 S
O46 Zn47 2.035 . S
Zn47 O46 2.035 . S
Zn47 O48 2.028 1_655 S
Zn47 O50 2.028 . S
Zn47 O53 2.035 . S
O48 Zn47 2.028 1_455 S
O48 C54 1.242 1_565 S
O49 Zn45 2.035 . S
O49 C54 1.266 . S
O50 C43 1.247 1_655 S
O50 Zn47 2.028 . S
O51 C43 1.258 1_545 S
O51 Zn45 2.035 . S
O52 Zn45 2.028 1_655 S
O52 C55 1.254 . S
O53 Zn47 2.035 . S
O53 C55 1.244 1_565 S
C54 O48 1.242 1_545 S
C54 O49 1.266 . S
C55 O52 1.254 . S
C55 O53 1.244 1_545 S
C56 O58 1.247 . S
C56 O60 1.258 . S
C57 O64 1.247 . S
C57 O65 1.258 . S
O58 C56 1.247 . S
O58 Zn59 2.028 . S
Zn59 O58 2.028 . S
Zn59 O63 2.035 . S
Zn59 O65 2.035 . S
Zn59 O66 2.028 1_455 S
O60 C56 1.258 . S
O60 Zn61 2.035 . S
Zn61 O60 2.035 . S
Zn61 O62 2.028 . S
Zn61 O64 2.028 . S
Zn61 O67 2.035 1_445 S
O62 Zn61 2.028 . S
O62 C68 1.247 . S
O63 Zn59 2.035 . S
O63 C68 1.258 . S
O64 C57 1.247 . S
O64 Zn61 2.028 . S
O65 C57 1.258 . S
O65 Zn59 2.035 . S
O66 Zn59 2.028 1_655 S
O66 C69 1.247 1_545 S
O67 Zn61 2.035 1_665 S
O67 C69 1.258 . S
C68 O62 1.247 . S
C68 O63 1.258 . S
C69 O66 1.247 1_565 S
C69 O67 1.258 . S
C70 O72 1.247 . S
C70 O74 1.258 . S
C71 O78 1.247 . S
C71 O79 1.258 . S
O72 C70 1.247 . S
O72 Zn73 2.028 . S
Zn73 O72 2.028 . S
Zn73 O77 2.035 . S
Zn73 O79 2.035 . S
Zn73 O80 2.028 1_545 S
O74 C70 1.258 . S
O74 Zn75 2.035 . S
Zn75 O74 2.035 . S
Zn75 O76 2.028 . S
Zn75 O78 2.028 . S
Zn75 O81 2.035 . S
O76 Zn75 2.028 . S
O76 C82 1.247 . S
O77 Zn73 2.035 . S
O77 C82 1.258 . S
O78 C71 1.247 . S
O78 Zn75 2.028 . S
O79 C71 1.258 . S
O79 Zn73 2.035 . S
O80 Zn73 2.028 1_565 S
O80 C83 1.247 . S
O81 Zn75 2.035 . S
O81 C83 1.258 1_545 S
C82 O76 1.247 . S
C82 O77 1.258 . S
C83 O80 1.247 . S
C83 O81 1.258 1_565 S
C84 C85 1.386 . S
C84 C86 1.383 . S
C84 H100 0.951 . S
C85 C84 1.386 . S
C85 C89 1.383 . S
C86 C84 1.383 . S
C86 C87 1.402 . S
C86 H101 0.951 . S
C87 C86 1.402 . S
C87 C88 1.375 . S
C87 C90 1.481 . S
C88 C87 1.375 . S
C88 C89 1.367 . S
C88 H102 0.951 1_455 S
C89 C85 1.383 . S
C89 C88 1.367 . S
C89 H103 0.950 . S
C90 C87 1.481 . S
C90 C91 1.297 . S
C90 H104 0.950 . S
C91 C90 1.297 . S
C91 C92 1.479 . S
C91 H105 0.950 . S
C92 C91 1.479 . S
C92 C93 1.375 . S
C92 C98 1.404 . S
C93 C92 1.375 . S
C93 C94 1.369 . S
C93 H106 0.950 . S
C94 C93 1.369 . S
C94 C95 1.392 . S
C94 H107 0.951 . S
C95 C94 1.392 . S
C95 C97 1.384 . S
H96 C98 0.949 . S
C97 C95 1.384 . S
C97 C98 1.385 . S
C97 H99 0.950 . S
C98 C92 1.404 . S
C98 H96 0.949 . S
C98 C97 1.385 . S
H99 C97 0.950 . S
H100 C84 0.951 . S
H101 C86 0.951 . S
H102 C88 0.951 1_655 S
H103 C89 0.950 . S
H104 C90 0.950 . S
H105 C91 0.950 . S
H106 C93 0.950 . S
H107 C94 0.951 . S
C108 C109 1.386 . S
C108 C110 1.383 . S
C108 H124 0.951 . S
C109 C108 1.386 . S
C109 C113 1.383 1_545 S
C110 C108 1.383 . S
C110 C111 1.402 1_545 S
C110 H125 0.951 . S
C111 C110 1.402 1_565 S
C111 C112 1.375 . S
C111 C114 1.481 . S
C112 C111 1.375 . S
C112 C113 1.367 . S
C112 H126 0.951 . S
C113 C109 1.383 1_565 S
C113 C112 1.367 . S
C113 H127 0.950 . S
C114 C111 1.481 . S
C114 C115 1.297 1_565 S
C114 H128 0.950 . S
C115 C114 1.297 1_545 S
C115 C116 1.479 . S
C115 H129 0.950 . S
C116 C115 1.479 . S
C116 C117 1.375 . S
C116 C122 1.404 1_545 S
C117 C116 1.375 . S
C117 C118 1.369 . S
C117 H130 0.950 . S
C118 C117 1.369 . S
C118 C119 1.392 . S
C118 H131 0.951 . S
C119 C118 1.392 . S
C119 C121 1.384 1_545 S
H120 C122 0.949 . S
C121 C119 1.384 1_565 S
C121 C122 1.385 . S
C121 H123 0.950 . S
C122 C116 1.404 1_565 S
C122 H120 0.949 . S
C122 C121 1.385 . S
H123 C121 0.950 . S
H124 C108 0.951 . S
H125 C110 0.951 . S
H126 C112 0.951 . S
H127 C113 0.950 . S
H128 C114 0.950 . S
H129 C115 0.950 . S
H130 C117 0.950 . S
H131 C118 0.951 . S
C132 C133 1.386 . S
C132 C134 1.383 . S
C132 H148 0.951 . S
C133 C132 1.386 . S
C133 C137 1.383 . S
C134 C132 1.383 . S
C134 C135 1.402 . S
C134 H149 0.951 . S
C135 C134 1.402 . S
C135 C136 1.375 . S
C135 C138 1.481 . S
C136 C135 1.375 . S
C136 C137 1.367 . S
C136 H150 0.951 . S
C137 C133 1.383 . S
C137 C136 1.367 . S
C137 H151 0.950 . S
C138 C135 1.481 . S
C138 C139 1.297 . S
C138 H152 0.950 . S
C139 C138 1.297 . S
C139 C140 1.479 . S
C139 H153 0.950 . S
C140 C139 1.479 . S
C140 C141 1.375 . S
C140 C146 1.404 . S
C141 C140 1.375 . S
C141 C142 1.369 . S
C141 H154 0.950 . S
C142 C141 1.369 . S
C142 C143 1.392 . S
C142 H155 0.951 . S
C143 C142 1.392 . S
C143 C145 1.384 . S
H144 C146 0.949 . S
C145 C143 1.384 . S
C145 C146 1.385 . S
C145 H147 0.950 . S
C146 C140 1.404 . S
C146 H144 0.949 . S
C146 C145 1.385 . S
H147 C145 0.950 . S
H148 C132 0.951 . S
H149 C134 0.951 . S
H150 C136 0.951 . S
H151 C137 0.950 . S
H152 C138 0.950 . S
H153 C139 0.950 . S
H154 C141 0.950 . S
H155 C142 0.951 . S
C156 C157 1.386 1_565 S
C156 C158 1.383 . S
C156 H172 0.951 . S
C157 C156 1.386 1_545 S
C157 C161 1.383 . S
C158 C156 1.383 . S
C158 C159 1.402 1_565 S
C158 H173 0.951 . S
C159 C158 1.402 1_545 S
C159 C160 1.375 . S
C159 C162 1.481 . S
C160 C159 1.375 . S
C160 C161 1.367 . S
C160 H174 0.951 . S
C161 C157 1.383 . S
C161 C160 1.367 . S
C161 H175 0.950 . S
C162 C159 1.481 . S
C162 C163 1.297 1_545 S
C162 H176 0.950 . S
C163 C162 1.297 1_565 S
C163 C164 1.479 . S
C163 H177 0.950 . S
C164 C163 1.479 . S
C164 C165 1.375 . S
C164 C170 1.404 1_565 S
C165 C164 1.375 . S
C165 C166 1.369 . S
C165 H178 0.950 . S
C166 C165 1.369 . S
C166 C167 1.392 1_565 S
C166 H179 0.951 . S
C167 C166 1.392 1_545 S
C167 C169 1.384 . S
H168 C170 0.949 . S
C169 C167 1.384 . S
C169 C170 1.385 . S
C169 H171 0.950 . S
C170 C164 1.404 1_545 S
C170 H168 0.949 . S
C170 C169 1.385 . S
H171 C169 0.950 . S
H172 C156 0.951 . S
H173 C158 0.951 . S
H174 C160 0.951 . S
H175 C161 0.950 . S
H176 C162 0.950 . S
H177 C163 0.950 . S
H178 C165 0.950 . S
H179 C166 0.951 . S
C180 C181 1.386 . S
C180 C182 1.383 . S
C180 H196 0.951 . S
C181 C180 1.386 . S
C181 C185 1.383 . S
C182 C180 1.383 . S
C182 C183 1.402 . S
C182 H197 0.951 . S
C183 C182 1.402 . S
C183 C184 1.375 . S
C183 C186 1.481 . S
C184 C183 1.375 . S
C184 C185 1.367 . S
C184 H198 0.951 . S
C185 C181 1.383 . S
C185 C184 1.367 . S
C185 H199 0.950 . S
C186 C183 1.481 . S
C186 C187 1.297 . S
C186 H200 0.950 . S
C187 C186 1.297 . S
C187 C188 1.479 . S
C187 H201 0.950 . S
C188 C187 1.479 . S
C188 C189 1.375 . S
C188 C194 1.404 . S
C189 C188 1.375 . S
C189 C190 1.369 . S
C189 H202 0.950 . S
C190 C189 1.369 . S
C190 C191 1.392 . S
C190 H203 0.951 . S
C191 C190 1.392 . S
C191 C193 1.384 . S
H192 C194 0.949 . S
C193 C191 1.384 . S
C193 C194 1.385 . S
C193 H195 0.950 . S
C194 C188 1.404 . S
C194 H192 0.949 . S
C194 C193 1.385 . S
H195 C193 0.950 . S
H196 C180 0.951 . S
H197 C182 0.951 . S
H198 C184 0.951 . S
H199 C185 0.950 . S
H200 C186 0.950 . S
H201 C187 0.950 . S
H202 C189 0.950 . S
H203 C190 0.951 . S
C204 C205 1.386 . S
C204 C206 1.383 . S
C204 H220 0.951 . S
C205 C204 1.386 . S
C205 C209 1.383 . S
C206 C204 1.383 . S
C206 C207 1.402 . S
C206 H221 0.951 . S
C207 C206 1.402 . S
C207 C208 1.375 . S
C207 C210 1.481 . S
C208 C207 1.375 . S
C208 C209 1.367 . S
C208 H222 0.951 . S
C209 C205 1.383 . S
C209 C208 1.367 . S
C209 H223 0.950 . S
C210 C207 1.481 . S
C210 C211 1.297 . S
C210 H224 0.950 . S
C211 C210 1.297 . S
C211 C212 1.479 . S
C211 H225 0.950 . S
C212 C211 1.479 . S
C212 C213 1.375 . S
C212 C218 1.404 . S
C213 C212 1.375 . S
C213 C214 1.369 . S
C213 H226 0.950 . S
C214 C213 1.369 . S
C214 C215 1.392 . S
C214 H227 0.951 . S
C215 C214 1.392 . S
C215 C217 1.384 . S
H216 C218 0.949 . S
C217 C215 1.384 . S
C217 C218 1.385 . S
C217 H219 0.950 . S
C218 C212 1.404 . S
C218 H216 0.949 . S
C218 C217 1.385 . S
H219 C217 0.950 . S
H220 C204 0.951 . S
H221 C206 0.951 . S
H222 C208 0.951 . S
H223 C209 0.950 . S
H224 C210 0.950 . S
H225 C211 0.950 . S
H226 C213 0.950 . S
H227 C214 0.951 . S
C228 C229 1.386 . S
C228 C230 1.383 . S
C228 H244 0.951 . S
C229 C228 1.386 . S
C229 C233 1.383 . S
C230 C228 1.383 . S
C230 C231 1.402 . S
C230 H245 0.951 . S
C231 C230 1.402 . S
C231 C232 1.375 . S
C231 C234 1.481 . S
C232 C231 1.375 . S
C232 C233 1.367 . S
C232 H246 0.951 . S
C233 C229 1.383 . S
C233 C232 1.367 . S
C233 H247 0.950 . S
C234 C231 1.481 . S
C234 C235 1.297 . S
C234 H248 0.950 . S
C235 C234 1.297 . S
C235 C236 1.479 . S
C235 H249 0.950 . S
C236 C235 1.479 . S
C236 C237 1.375 . S
C236 C242 1.404 . S
C237 C236 1.375 . S
C237 C238 1.369 . S
C237 H250 0.950 . S
C238 C237 1.369 . S
C238 C239 1.392 . S
C238 H251 0.951 . S
C239 C238 1.392 . S
C239 C241 1.384 . S
H240 C242 0.949 . S
C241 C239 1.384 . S
C241 C242 1.385 . S
C241 H243 0.950 . S
C242 C236 1.404 . S
C242 H240 0.949 . S
C242 C241 1.385 . S
H243 C241 0.950 . S
H244 C228 0.951 . S
H245 C230 0.951 . S
H246 C232 0.951 . S
H247 C233 0.950 . S
H248 C234 0.950 . S
H249 C235 0.950 . S
H250 C237 0.950 . S
H251 C238 0.951 . S
C252 C253 1.386 1_665 S
C252 C254 1.383 . S
C252 H268 0.951 . S
C253 C252 1.386 1_445 S
C253 C257 1.383 . S
C254 C252 1.383 . S
C254 C255 1.402 1_665 S
C254 H269 0.951 . S
C255 C254 1.402 1_445 S
C255 C256 1.375 . S
C255 C258 1.481 . S
C256 C255 1.375 . S
C256 C257 1.367 . S
C256 H270 0.951 . S
C257 C253 1.383 . S
C257 C256 1.367 . S
C257 H271 0.950 . S
C258 C255 1.481 . S
C258 C259 1.297 1_445 S
C258 H272 0.950 . S
C259 C258 1.297 1_665 S
C259 C260 1.479 1_665 S
C259 H273 0.950 . S
C260 C259 1.479 1_445 S
C260 C261 1.375 1_445 S
C260 C266 1.404 . S
C261 C260 1.375 1_665 S
C261 C262 1.369 . S
C261 H274 0.950 . S
C262 C261 1.369 . S
C262 C263 1.392 1_665 S
C262 H275 0.951 . S
C263 C262 1.392 1_445 S
C263 C265 1.384 . S
H264 C266 0.949 . S
C265 C263 1.384 . S
C265 C266 1.385 . S
C265 H267 0.950 . S
C266 C260 1.404 . S
C266 H264 0.949 . S
C266 C265 1.385 . S
H267 C265 0.950 . S
H268 C252 0.951 . S
H269 C254 0.951 . S
H270 C256 0.951 . S
H271 C257 0.950 . S
H272 C258 0.950 . S
H273 C259 0.950 . S
H274 C261 0.950 . S
H275 C262 0.951 . S
C276 C277 1.386 . S
C276 C278 1.383 . S
C276 H292 0.951 . S
C277 C276 1.386 . S
C277 C281 1.383 1_455 S
C278 C276 1.383 . S
C278 C279 1.402 1_455 S
C278 H293 0.951 . S
C279 C278 1.402 1_655 S
C279 C280 1.375 . S
C279 C282 1.481 . S
C280 C279 1.375 . S
C280 C281 1.367 . S
C280 H294 0.951 . S
C281 C277 1.383 1_655 S
C281 C280 1.367 . S
C281 H295 0.950 . S
C282 C279 1.481 . S
C282 C283 1.297 1_655 S
C282 H296 0.950 . S
C283 C282 1.297 1_455 S
C283 C284 1.479 . S
C283 H297 0.950 . S
C284 C283 1.479 . S
C284 C285 1.375 . S
C284 C290 1.404 1_455 S
C285 C284 1.375 . S
C285 C286 1.369 . S
C285 H298 0.950 . S
C286 C285 1.369 . S
C286 C287 1.392 . S
C286 H299 0.951 . S
C287 C286 1.392 . S
C287 C289 1.384 1_455 S
H288 C290 0.949 . S
C289 C287 1.384 1_655 S
C289 C290 1.385 . S
C289 H291 0.950 . S
C290 C284 1.404 1_655 S
C290 H288 0.949 . S
C290 C289 1.385 . S
H291 C289 0.950 . S
H292 C276 0.951 . S
H293 C278 0.951 . S
H294 C280 0.951 . S
H295 C281 0.950 . S
H296 C282 0.950 . S
H297 C283 0.950 . S
H298 C285 0.950 . S
H299 C286 0.951 . S
C300 C301 1.386 . S
C300 C302 1.383 . S
C300 H316 0.951 . S
C301 C300 1.386 . S
C301 C305 1.383 . S
C302 C300 1.383 . S
C302 C303 1.402 . S
C302 H317 0.951 . S
C303 C302 1.402 . S
C303 C304 1.375 . S
C303 C306 1.481 . S
C304 C303 1.375 . S
C304 C305 1.367 . S
C304 H318 0.951 1_455 S
C305 C301 1.383 . S
C305 C304 1.367 . S
C305 H319 0.950 1_455 S
C306 C303 1.481 . S
C306 C307 1.297 1_554 S
C306 H320 0.948 1_455 S
C307 C306 1.297 1_556 S
C307 C308 1.479 . S
C307 H321 0.959 . S
C308 C307 1.479 . S
C308 C309 1.375 . S
C308 C314 1.404 . S
C309 C308 1.375 . S
C309 C310 1.369 . S
C309 H322 0.950 . S
C310 C309 1.369 . S
C310 C311 1.392 . S
C310 H323 0.951 . S
C311 C310 1.392 . S
C311 C313 1.384 1_455 S
H312 C314 0.949 1_655 S
C313 C311 1.384 1_655 S
C313 C314 1.385 1_655 S
C313 H315 0.950 . S
C314 C308 1.404 . S
C314 H312 0.949 1_455 S
C314 C313 1.385 1_455 S
H315 C313 0.950 . S
H316 C300 0.951 . S
H317 C302 0.951 . S
H318 C304 0.951 1_655 S
H319 C305 0.950 1_655 S
H320 C306 0.948 1_655 S
H321 C307 0.959 . S
H322 C309 0.950 . S
H323 C310 0.951 . S
C324 C325 1.386 . S
C324 C326 1.383 . S
C324 H340 0.951 . S
C325 C324 1.386 . S
C325 C329 1.383 . S
C326 C324 1.383 . S
C326 C327 1.402 . S
C326 H341 0.951 . S
C327 C326 1.402 . S
C327 C328 1.375 . S
C327 C330 1.481 . S
C328 C327 1.375 . S
C328 C329 1.367 . S
C328 H342 0.951 1_545 S
C329 C325 1.383 . S
C329 C328 1.367 . S
C329 H343 0.950 . S
C330 C327 1.481 . S
C330 C331 1.297 . S
C330 H344 0.950 1_545 S
C331 C330 1.297 . S
C331 C332 1.479 . S
C331 H345 0.950 . S
C332 C331 1.479 . S
C332 C333 1.375 . S
C332 C338 1.404 1_545 S
C333 C332 1.375 . S
C333 C334 1.369 . S
C333 H346 0.950 1_455 S
C334 C333 1.369 . S
C334 C335 1.392 . S
C334 H347 0.951 1_455 S
C335 C334 1.392 . S
C335 C337 1.384 1_545 S
H336 C338 0.949 . S
C337 C335 1.384 1_565 S
C337 C338 1.385 . S
C337 H339 0.950 . S
C338 C332 1.404 1_565 S
C338 H336 0.949 . S
C338 C337 1.385 . S
H339 C337 0.950 . S
H340 C324 0.951 . S
H341 C326 0.951 . S
H342 C328 0.951 1_565 S
H343 C329 0.950 . S
H344 C330 0.950 1_565 S
H345 C331 0.950 . S
H346 C333 0.950 1_655 S
H347 C334 0.951 1_655 S
C348 C349 1.386 1_655 S
C348 C350 1.383 . S
C348 H364 0.951 . S
C349 C348 1.386 1_455 S
C349 C353 1.383 1_545 S
C350 C348 1.383 . S
C350 C351 1.402 1_545 S
C350 H365 0.951 . S
C351 C350 1.402 1_565 S
C351 C352 1.375 1_655 S
C351 C354 1.481 . S
C352 C351 1.375 1_455 S
C352 C353 1.367 . S
C352 H366 0.951 . S
C353 C349 1.383 1_565 S
C353 C352 1.367 . S
C353 H367 0.950 . S
C354 C351 1.481 . S
C354 C355 1.297 1_565 S
C354 H368 0.950 1_655 S
C355 C354 1.297 1_545 S
C355 C356 1.479 . S
C355 H369 0.950 . S
C356 C355 1.479 . S
C356 C357 1.375 . S
C356 C362 1.404 1_545 S
C357 C356 1.375 . S
C357 C358 1.369 . S
C357 H370 0.950 . S
C358 C357 1.369 . S
C358 C359 1.392 . S
C358 H371 0.951 . S
C359 C358 1.392 . S
C359 C361 1.384 1_645 S
H360 C362 0.950 . S
C361 C359 1.384 1_465 S
C361 C362 1.385 1_455 S
C361 H363 0.950 . S
C362 C356 1.404 1_565 S
C362 H360 0.950 . S
C362 C361 1.385 1_655 S
H363 C361 0.950 . S
H364 C348 0.951 . S
H365 C350 0.951 . S
H366 C352 0.951 . S
H367 C353 0.950 . S
H368 C354 0.950 1_455 S
H369 C355 0.950 . S
H370 C357 0.950 . S
H371 C358 0.951 . S
C85 C0 1.498 1_565 S
C95 C1 1.478 . S
C109 C14 1.492 . S
C119 C15 1.496 . S
C133 C41 1.489 . S
C143 C40 1.493 . S
C157 C54 1.494 . S
C167 C55 1.486 . S
C181 C68 1.489 . S
C191 C69 1.489 . S
C205 C82 1.489 . S
C215 C83 1.491 . S
C229 C71 1.507 . S
C239 C13 1.485 . S
C253 C43 1.498 1_545 S
C263 C26 1.501 . S
C277 C28 1.505 . S
C287 C57 1.501 . S
C301 C12 1.498 . S
C311 C56 1.496 . S
C325 C70 1.505 . S
C335 C27 1.493 . S
C349 C42 1.505 . S
C359 C29 1.486 1_655 S
