# Generated by pormake.
# Topology umr, (4)-cn, num edge types: 1
# Building blocks:
#     Node 0, Type 0, BuildingBlock: QUQFOY_clean_sbu_1, # of connection points: 4
#     Node 1, Type 0, BuildingBlock: QUQFOY_clean_sbu_1, # of connection points: 4
#     Node 2, Type 0, BuildingBlock: QUQFOY_clean_sbu_1, # of connection points: 4
#     Node 3, Type 0, BuildingBlock: QUQFOY_clean_sbu_1, # of connection points: 4
#     Node 4, Type 0, BuildingBlock: QUQFOY_clean_sbu_1, # of connection points: 4
#     Node 5, Type 0, BuildingBlock: QUQFOY_clean_sbu_1, # of connection points: 4
#     Node 6, Type 0, BuildingBlock: QUQFOY_clean_sbu_1, # of connection points: 4
#     Node 7, Type 0, BuildingBlock: QUQFOY_clean_sbu_1, # of connection points: 4
#     Node 8, Type 0, BuildingBlock: QUQFOY_clean_sbu_1, # of connection points: 4
#     Node 9, Type 0, BuildingBlock: QUQFOY_clean_sbu_1, # of connection points: 4
#     Node 10, Type 0, BuildingBlock: QUQFOY_clean_sbu_1, # of connection points: 4
#     Node 11, Type 0, BuildingBlock: QUQFOY_clean_sbu_1, # of connection points: 4
#     Node 12, Type 0, BuildingBlock: QUQFOY_clean_sbu_1, # of connection points: 4
#     Node 13, Type 0, BuildingBlock: QUQFOY_clean_sbu_1, # of connection points: 4
#     Node 14, Type 0, BuildingBlock: QUQFOY_clean_sbu_1, # of connection points: 4
#     Node 15, Type 0, BuildingBlock: QUQFOY_clean_sbu_1, # of connection points: 4
#     Node 16, Type 0, BuildingBlock: QUQFOY_clean_sbu_1, # of connection points: 4
#     Node 17, Type 0, BuildingBlock: QUQFOY_clean_sbu_1, # of connection points: 4
#     Node 18, Type 0, BuildingBlock: QUQFOY_clean_sbu_1, # of connection points: 4
#     Node 19, Type 0, BuildingBlock: QUQFOY_clean_sbu_1, # of connection points: 4
#     Node 20, Type 0, BuildingBlock: QUQFOY_clean_sbu_1, # of connection points: 4
#     Node 21, Type 0, BuildingBlock: QUQFOY_clean_sbu_1, # of connection points: 4
#     Node 22, Type 0, BuildingBlock: QUQFOY_clean_sbu_1, # of connection points: 4
#     Node 23, Type 0, BuildingBlock: QUQFOY_clean_sbu_1, # of connection points: 4
#     Node 24, Type 0, BuildingBlock: QUQFOY_clean_sbu_1, # of connection points: 4
#     Node 25, Type 0, BuildingBlock: QUQFOY_clean_sbu_1, # of connection points: 4
#     Node 26, Type 0, BuildingBlock: QUQFOY_clean_sbu_1, # of connection points: 4
#     Node 27, Type 0, BuildingBlock: QUQFOY_clean_sbu_1, # of connection points: 4
#     Node 28, Type 0, BuildingBlock: QUQFOY_clean_sbu_1, # of connection points: 4
#     Node 29, Type 0, BuildingBlock: QUQFOY_clean_sbu_1, # of connection points: 4
#     Node 30, Type 0, BuildingBlock: QUQFOY_clean_sbu_1, # of connection points: 4
#     Node 31, Type 0, BuildingBlock: QUQFOY_clean_sbu_1, # of connection points: 4
#     Edge 32, Type (0, 0), BuildingBlock: XIVTED_clean_linker_0, # of connection points: 2
#     Edge 33, Type (0, 0), BuildingBlock: XIVTED_clean_linker_0, # of connection points: 2
#     Edge 34, Type (0, 0), BuildingBlock: XIVTED_clean_linker_0, # of connection points: 2
#     Edge 35, Type (0, 0), BuildingBlock: XIVTED_clean_linker_0, # of connection points: 2
#     Edge 36, Type (0, 0), BuildingBlock: XIVTED_clean_linker_0, # of connection points: 2
#     Edge 37, Type (0, 0), BuildingBlock: XIVTED_clean_linker_0, # of connection points: 2
#     Edge 38, Type (0, 0), BuildingBlock: XIVTED_clean_linker_0, # of connection points: 2
#     Edge 39, Type (0, 0), BuildingBlock: XIVTED_clean_linker_0, # of connection points: 2
#     Edge 40, Type (0, 0), BuildingBlock: XIVTED_clean_linker_0, # of connection points: 2
#     Edge 41, Type (0, 0), BuildingBlock: XIVTED_clean_linker_0, # of connection points: 2
#     Edge 42, Type (0, 0), BuildingBlock: XIVTED_clean_linker_0, # of connection points: 2
#     Edge 43, Type (0, 0), BuildingBlock: XIVTED_clean_linker_0, # of connection points: 2
#     Edge 44, Type (0, 0), BuildingBlock: XIVTED_clean_linker_0, # of connection points: 2
#     Edge 45, Type (0, 0), BuildingBlock: XIVTED_clean_linker_0, # of connection points: 2
#     Edge 46, Type (0, 0), BuildingBlock: XIVTED_clean_linker_0, # of connection points: 2
#     Edge 47, Type (0, 0), BuildingBlock: XIVTED_clean_linker_0, # of connection points: 2
#     Edge 48, Type (0, 0), BuildingBlock: XIVTED_clean_linker_0, # of connection points: 2
#     Edge 49, Type (0, 0), BuildingBlock: XIVTED_clean_linker_0, # of connection points: 2
#     Edge 50, Type (0, 0), BuildingBlock: XIVTED_clean_linker_0, # of connection points: 2
#     Edge 51, Type (0, 0), BuildingBlock: XIVTED_clean_linker_0, # of connection points: 2
#     Edge 52, Type (0, 0), BuildingBlock: XIVTED_clean_linker_0, # of connection points: 2
#     Edge 53, Type (0, 0), BuildingBlock: XIVTED_clean_linker_0, # of connection points: 2
#     Edge 54, Type (0, 0), BuildingBlock: XIVTED_clean_linker_0, # of connection points: 2
#     Edge 55, Type (0, 0), BuildingBlock: XIVTED_clean_linker_0, # of connection points: 2
#     Edge 56, Type (0, 0), BuildingBlock: XIVTED_clean_linker_0, # of connection points: 2
#     Edge 57, Type (0, 0), BuildingBlock: XIVTED_clean_linker_0, # of connection points: 2
#     Edge 58, Type (0, 0), BuildingBlock: XIVTED_clean_linker_0, # of connection points: 2
#     Edge 59, Type (0, 0), BuildingBlock: XIVTED_clean_linker_0, # of connection points: 2
#     Edge 60, Type (0, 0), BuildingBlock: XIVTED_clean_linker_0, # of connection points: 2
#     Edge 61, Type (0, 0), BuildingBlock: XIVTED_clean_linker_0, # of connection points: 2
#     Edge 62, Type (0, 0), BuildingBlock: XIVTED_clean_linker_0, # of connection points: 2
#     Edge 63, Type (0, 0), BuildingBlock: XIVTED_clean_linker_0, # of connection points: 2
#     Edge 64, Type (0, 0), BuildingBlock: XIVTED_clean_linker_0, # of connection points: 2
#     Edge 65, Type (0, 0), BuildingBlock: XIVTED_clean_linker_0, # of connection points: 2
#     Edge 66, Type (0, 0), BuildingBlock: XIVTED_clean_linker_0, # of connection points: 2
#     Edge 67, Type (0, 0), BuildingBlock: XIVTED_clean_linker_0, # of connection points: 2
#     Edge 68, Type (0, 0), BuildingBlock: XIVTED_clean_linker_0, # of connection points: 2
#     Edge 69, Type (0, 0), BuildingBlock: XIVTED_clean_linker_0, # of connection points: 2
#     Edge 70, Type (0, 0), BuildingBlock: XIVTED_clean_linker_0, # of connection points: 2
#     Edge 71, Type (0, 0), BuildingBlock: XIVTED_clean_linker_0, # of connection points: 2
#     Edge 72, Type (0, 0), BuildingBlock: XIVTED_clean_linker_0, # of connection points: 2
#     Edge 73, Type (0, 0), BuildingBlock: XIVTED_clean_linker_0, # of connection points: 2
#     Edge 74, Type (0, 0), BuildingBlock: XIVTED_clean_linker_0, # of connection points: 2
#     Edge 75, Type (0, 0), BuildingBlock: XIVTED_clean_linker_0, # of connection points: 2
#     Edge 76, Type (0, 0), BuildingBlock: XIVTED_clean_linker_0, # of connection points: 2
#     Edge 77, Type (0, 0), BuildingBlock: XIVTED_clean_linker_0, # of connection points: 2
#     Edge 78, Type (0, 0), BuildingBlock: XIVTED_clean_linker_0, # of connection points: 2
#     Edge 79, Type (0, 0), BuildingBlock: XIVTED_clean_linker_0, # of connection points: 2
#     Edge 80, Type (0, 0), BuildingBlock: XIVTED_clean_linker_0, # of connection points: 2
#     Edge 81, Type (0, 0), BuildingBlock: XIVTED_clean_linker_0, # of connection points: 2
#     Edge 82, Type (0, 0), BuildingBlock: XIVTED_clean_linker_0, # of connection points: 2
#     Edge 83, Type (0, 0), BuildingBlock: XIVTED_clean_linker_0, # of connection points: 2
#     Edge 84, Type (0, 0), BuildingBlock: XIVTED_clean_linker_0, # of connection points: 2
#     Edge 85, Type (0, 0), BuildingBlock: XIVTED_clean_linker_0, # of connection points: 2
#     Edge 86, Type (0, 0), BuildingBlock: XIVTED_clean_linker_0, # of connection points: 2
#     Edge 87, Type (0, 0), BuildingBlock: XIVTED_clean_linker_0, # of connection points: 2
#     Edge 88, Type (0, 0), BuildingBlock: XIVTED_clean_linker_0, # of connection points: 2
#     Edge 89, Type (0, 0), BuildingBlock: XIVTED_clean_linker_0, # of connection points: 2
#     Edge 90, Type (0, 0), BuildingBlock: XIVTED_clean_linker_0, # of connection points: 2
#     Edge 91, Type (0, 0), BuildingBlock: XIVTED_clean_linker_0, # of connection points: 2
#     Edge 92, Type (0, 0), BuildingBlock: XIVTED_clean_linker_0, # of connection points: 2
#     Edge 93, Type (0, 0), BuildingBlock: XIVTED_clean_linker_0, # of connection points: 2
#     Edge 94, Type (0, 0), BuildingBlock: XIVTED_clean_linker_0, # of connection points: 2
#     Edge 95, Type (0, 0), BuildingBlock: XIVTED_clean_linker_0, # of connection points: 2
# Relax obj value: 0.051
# Max RMSD: 0.110
# Mean RMSD: 0.110
data_MOF--net-umr--node1-QUQFOY_clean_sbu_1--edge1-XIVTED_clean_linker_0
_symmetry_space_group_name_H-M    P1
_symmetry_Int_Tables_number       1
_symmetry_cell_setting            triclinic
loop_
_symmetry_equiv_pos_as_xyz
'x, y, z'
_cell_length_a     86.188258
_cell_length_b     86.195778
_cell_length_c     28.390641
_cell_angle_alpha  90.004216
_cell_angle_beta   89.997596
_cell_angle_gamma 90.011653
loop_
_atom_site_label
_atom_site_type_symbol
_atom_site_fract_x
_atom_site_fract_y
_atom_site_fract_z
_atom_type_partial_charge
O0 O 0.16482 0.28616 0.19183 0.0
Cd1 Cd 0.16927 0.29856 0.131 0.0
Cd2 Cd 0.16765 0.26902 0.09575 0.0
O3 O 0.15858 0.26356 0.16097 0.0
O4 O 0.1648 0.32021 0.15118 0.0
O5 O 0.15107 0.30788 0.09684 0.0
C6 C 0.15315 0.32004 0.12272 0.0
C7 C 0.15719 0.25928 0.02609 0.0
C8 C 0.15963 0.27244 0.19652 0.0
C9 C 0.19815 0.28587 0.08821 0.0
O10 O 0.19114 0.27291 0.08917 0.0
O11 O 0.19112 0.29821 0.10044 0.0
O12 O 0.16438 0.25045 0.05552 0.0
O13 O 0.15495 0.27359 0.03782 0.0
O14 O 0.96285 0.91579 0.44409 0.0
Cd15 Cd 0.95054 0.91978 0.3828 0.0
Cd16 Cd 0.98 0.91804 0.34774 0.0
O17 O 0.98545 0.9094 0.41353 0.0
O18 O 0.92888 0.91494 0.40206 0.0
O19 O 0.9418 0.90128 0.3488 0.0
C20 C 0.92944 0.9032 0.37395 0.0
C21 C 0.98984 0.90718 0.27882 0.0
C22 C 0.97657 0.91065 0.44904 0.0
C23 C 0.96304 0.94841 0.33807 0.0
O24 O 0.97603 0.94145 0.33945 0.0
O25 O 0.95074 0.94144 0.35098 0.0
O26 O 0.99862 0.91457 0.30791 0.0
O27 O 0.97552 0.90495 0.29056 0.0
O28 O 0.33371 0.71028 0.68701 0.0
Cd29 Cd 0.32975 0.69832 0.62516 0.0
Cd30 Cd 0.33243 0.72757 0.59096 0.0
O31 O 0.3408 0.7328 0.65732 0.0
O32 O 0.33414 0.67652 0.64376 0.0
O33 O 0.34823 0.68943 0.59151 0.0
C34 C 0.34602 0.67703 0.6162 0.0
C35 C 0.34425 0.73666 0.52255 0.0
C36 C 0.33913 0.72387 0.69256 0.0
C37 C 0.3016 0.7116 0.57993 0.0
O38 O 0.30893 0.72439 0.58147 0.0
O39 O 0.30818 0.69911 0.59294 0.0
O40 O 0.33708 0.74588 0.55091 0.0
O41 O 0.34566 0.72228 0.53469 0.0
O42 O 0.53932 0.08318 0.93935 0.0
Cd43 Cd 0.55061 0.08077 0.87553 0.0
Cd44 Cd 0.52166 0.08353 0.84351 0.0
O45 O 0.51724 0.0918 0.91042 0.0
O46 O 0.5728 0.08548 0.88863 0.0
O47 O 0.5576 0.10072 0.84594 0.0
C48 C 0.57091 0.09823 0.86554 0.0
C49 C 0.51239 0.09556 0.77577 0.0
C50 C 0.526 0.08918 0.94553 0.0
C51 C 0.53725 0.05305 0.82848 0.0
O52 O 0.52437 0.06002 0.8334 0.0
O53 O 0.54982 0.05988 0.83937 0.0
O54 O 0.50319 0.08859 0.80465 0.0
O55 O 0.52686 0.09673 0.7872 0.0
O56 O 0.16688 0.71191 0.31147 0.0
Cd57 Cd 0.16922 0.70067 0.37545 0.0
Cd58 Cd 0.16716 0.72987 0.40665 0.0
O59 O 0.1588 0.73427 0.3399 0.0
O60 O 0.16437 0.67853 0.36222 0.0
O61 O 0.14923 0.69378 0.4051 0.0
C62 C 0.15165 0.68047 0.38542 0.0
C63 C 0.15556 0.73952 0.47453 0.0
C64 C 0.16113 0.72533 0.30502 0.0
C65 C 0.19725 0.71362 0.42209 0.0
O66 O 0.19061 0.72664 0.41645 0.0
O67 O 0.1901 0.70117 0.41176 0.0
O68 O 0.1627 0.74851 0.44541 0.0
O69 O 0.15393 0.72509 0.46317 0.0
O70 O 0.53909 0.91776 0.56333 0.0
Cd71 Cd 0.55051 0.92014 0.62693 0.0
Cd72 Cd 0.52152 0.91792 0.65923 0.0
O73 O 0.51683 0.90963 0.59243 0.0
O74 O 0.57261 0.9152 0.61331 0.0
O75 O 0.55741 0.9002 0.65678 0.0
C76 C 0.57068 0.90253 0.63677 0.0
C77 C 0.51232 0.90617 0.72754 0.0
C78 C 0.52564 0.91202 0.55726 0.0
C79 C 0.53764 0.94817 0.67359 0.0
O80 O 0.52464 0.9414 0.66896 0.0
O81 O 0.55008 0.94112 0.66266 0.0
O82 O 0.50312 0.91322 0.69885 0.0
O83 O 0.52672 0.90473 0.71557 0.0
O84 O 0.3314 0.29056 0.81653 0.0
Cd85 Cd 0.32963 0.30186 0.88053 0.0
Cd86 Cd 0.33282 0.27308 0.91249 0.0
O87 O 0.34045 0.26857 0.84487 0.0
O88 O 0.3344 0.32401 0.8673 0.0
O89 O 0.34989 0.30862 0.90857 0.0
C90 C 0.34733 0.32198 0.88935 0.0
C91 C 0.3456 0.26431 0.97953 0.0
C92 C 0.33743 0.27727 0.80992 0.0
C93 C 0.30246 0.28854 0.93042 0.0
O94 O 0.30941 0.27567 0.92489 0.0
O95 O 0.30913 0.30111 0.91867 0.0
O96 O 0.33848 0.25487 0.9517 0.0
O97 O 0.34651 0.27872 0.96727 0.0
O98 O 0.95958 0.08054 0.05858 0.0
Cd99 Cd 0.94889 0.07872 0.12357 0.0
Cd100 Cd 0.97805 0.08144 0.15267 0.0
O101 O 0.98195 0.08931 0.08502 0.0
O102 O 0.92667 0.08375 0.11237 0.0
O103 O 0.94261 0.09899 0.15253 0.0
C104 C 0.92906 0.09661 0.13443 0.0
C105 C 0.98742 0.09386 0.21954 0.0
C106 C 0.97284 0.0865 0.05086 0.0
C107 C 0.96241 0.0513 0.17178 0.0
O108 O 0.97531 0.05804 0.16455 0.0
O109 O 0.94981 0.05819 0.16167 0.0
O110 O 0.9966 0.08676 0.19086 0.0
O111 O 0.97295 0.095 0.20813 0.0
O112 O 0.83209 0.71037 0.81222 0.0
Cd113 Cd 0.82994 0.6992 0.8763 0.0
Cd114 Cd 0.83311 0.728 0.90789 0.0
O115 O 0.84114 0.73237 0.84063 0.0
O116 O 0.8347 0.67699 0.86379 0.0
O117 O 0.85002 0.69244 0.90546 0.0
C118 C 0.84752 0.67905 0.8864 0.0
C119 C 0.84556 0.73678 0.97554 0.0
C120 C 0.83823 0.72362 0.80568 0.0
C121 C 0.80255 0.71279 0.92437 0.0
O122 O 0.80962 0.7256 0.91893 0.0
O123 O 0.80922 0.70015 0.91336 0.0
O124 O 0.83866 0.74623 0.94723 0.0
O125 O 0.84645 0.72235 0.96346 0.0
O126 O 0.03731 0.08281 0.55701 0.0
Cd127 Cd 0.04821 0.0802 0.6214 0.0
Cd128 Cd 0.01875 0.08175 0.65087 0.0
O129 O 0.01461 0.09038 0.58424 0.0
O130 O 0.07043 0.08492 0.60891 0.0
O131 O 0.05519 0.10003 0.65188 0.0
C132 C 0.06854 0.09757 0.63246 0.0
C133 C 0.00907 0.09301 0.71922 0.0
C134 C 0.02385 0.08838 0.5499 0.0
C135 C 0.03518 0.05179 0.66591 0.0
O136 O 0.02212 0.05829 0.6597 0.0
O137 O 0.04761 0.05914 0.65675 0.0
O138 O 1.00009 0.08601 0.68975 0.0
O139 O 0.0235 0.09472 0.70792 0.0
O140 O 0.66839 0.2901 0.30997 0.0
Cd141 Cd 0.6703 0.30099 0.37463 0.0
Cd142 Cd 0.66811 0.27166 0.40431 0.0
O143 O 0.66022 0.26755 0.33678 0.0
O144 O 0.66555 0.32321 0.36232 0.0
O145 O 0.65011 0.30771 0.40334 0.0
C146 C 0.65268 0.32114 0.38461 0.0
C147 C 0.65601 0.26203 0.4714 0.0
C148 C 0.66273 0.27669 0.3025 0.0
C149 C 0.69803 0.28786 0.42258 0.0
O150 O 0.69148 0.27485 0.41585 0.0
O151 O 0.69092 0.30033 0.41228 0.0
O152 O 0.66325 0.25301 0.44259 0.0
O153 O 0.65454 0.27648 0.46002 0.0
O154 O 0.46103 0.91715 0.063 0.0
Cd155 Cd 0.44904 0.92073 0.12511 0.0
Cd156 Cd 0.47864 0.91867 0.15865 0.0
O157 O 0.48373 0.9104 0.09212 0.0
O158 O 0.4273 0.9161 0.10634 0.0
O159 O 0.4404 0.90198 0.15804 0.0
C160 C 0.42796 0.90413 0.13346 0.0
C161 C 0.48864 0.90729 0.22658 0.0
C162 C 0.47469 0.91196 0.0571 0.0
C163 C 0.46184 0.94901 0.17098 0.0
O164 O 0.4748 0.94205 0.16846 0.0
O165 O 0.44945 0.94215 0.15833 0.0
O166 O 0.49739 0.91476 0.19756 0.0
O167 O 0.47425 0.90529 0.21528 0.0
O168 O 0.83384 0.28755 0.69275 0.0
Cd169 Cd 0.82962 0.2999 0.63167 0.0
Cd170 Cd 0.83204 0.27047 0.5963 0.0
O171 O 0.84078 0.26514 0.66204 0.0
O172 O 0.83367 0.32161 0.652 0.0
O173 O 0.84793 0.30942 0.59863 0.0
C174 C 0.84552 0.32157 0.62429 0.0
C175 C 0.84311 0.26092 0.52731 0.0
C176 C 0.83929 0.27394 0.69761 0.0
C177 C 0.80131 0.28676 0.5867 0.0
O178 O 0.80854 0.27392 0.58813 0.0
O179 O 0.80802 0.2992 0.59955 0.0
O180 O 0.83592 0.25196 0.55635 0.0
O181 O 0.84502 0.27527 0.53913 0.0
O182 O 0.46195 0.08457 0.44083 0.0
Cd183 Cd 0.44971 0.08079 0.37926 0.0
Cd184 Cd 0.47913 0.08321 0.34432 0.0
O185 O 0.48436 0.09169 0.41042 0.0
O186 O 0.42799 0.08534 0.39851 0.0
O187 O 0.44088 0.09941 0.34617 0.0
C188 C 0.42852 0.09725 0.37109 0.0
C189 C 0.48912 0.09444 0.27616 0.0
C190 C 0.47555 0.09001 0.44593 0.0
C191 C 0.46264 0.05261 0.33329 0.0
O192 O 0.47552 0.05977 0.33521 0.0
O193 O 0.45022 0.05932 0.34626 0.0
O194 O 0.49787 0.08706 0.30536 0.0
O195 O 0.47472 0.09642 0.28734 0.0
O196 O 0.66711 0.71222 0.19152 0.0
Cd197 Cd 0.6698 0.70084 0.1279 0.0
Cd198 Cd 0.66818 0.73018 0.09614 0.0
O199 O 0.6596 0.73472 0.16261 0.0
O200 O 0.66507 0.6787 0.14156 0.0
O201 O 0.65 0.69366 0.09757 0.0
C202 C 0.65246 0.68043 0.11768 0.0
C203 C 0.65702 0.74002 0.02778 0.0
C204 C 0.66156 0.72574 0.19762 0.0
C205 C 0.6982 0.71356 0.08247 0.0
O206 O 0.69163 0.72665 0.08731 0.0
O207 O 0.69091 0.70121 0.09284 0.0
O208 O 0.66417 0.74889 0.0572 0.0
O209 O 0.65513 0.72561 0.03905 0.0
O210 O 0.04038 0.91882 0.94077 0.0
Cd211 Cd 0.05132 0.92079 0.8763 0.0
Cd212 Cd 0.02228 0.91785 0.84588 0.0
O213 O 0.01814 0.90999 0.91348 0.0
O214 O 0.07355 0.91613 0.88863 0.0
O215 O 0.0581 0.90063 0.84762 0.0
C216 C 0.07151 0.90323 0.86645 0.0
C217 C 0.0132 0.90532 0.77878 0.0
C218 C 0.0271 0.91284 0.94798 0.0
C219 C 0.03775 0.94819 0.82806 0.0
O220 O 0.02488 0.94129 0.83415 0.0
O221 O 0.05036 0.94141 0.83882 0.0
O222 O 0.00388 0.91232 0.80728 0.0
O223 O 0.02767 0.90438 0.79038 0.0
O224 O 0.66906 0.79024 0.68929 0.0
Cd225 Cd 0.67096 0.80109 0.62457 0.0
Cd226 Cd 0.66826 0.77184 0.5949 0.0
O227 O 0.66033 0.7679 0.66247 0.0
O228 O 0.66629 0.82334 0.63664 0.0
O229 O 0.65075 0.80781 0.59606 0.0
C230 C 0.65336 0.82125 0.61465 0.0
C231 C 0.65603 0.76214 0.52809 0.0
C232 C 0.66312 0.77696 0.69677 0.0
C233 C 0.69843 0.78757 0.5765 0.0
O234 O 0.69168 0.77467 0.58335 0.0
O235 O 0.69153 0.80016 0.5867 0.0
O236 O 0.66315 0.75312 0.55718 0.0
O237 O 0.65477 0.77665 0.53898 0.0
O238 O 0.46142 0.41844 0.94056 0.0
Cd239 Cd 0.45062 0.42037 0.87578 0.0
Cd240 Cd 0.47994 0.418 0.84647 0.0
O241 O 0.48388 0.41 0.91391 0.0
O242 O 0.42838 0.41564 0.8879 0.0
O243 O 0.44391 0.4002 0.84699 0.0
C244 C 0.43047 0.40276 0.86566 0.0
C245 C 0.4897 0.40593 0.77954 0.0
C246 C 0.47475 0.41263 0.94813 0.0
C247 C 0.46396 0.44801 0.82812 0.0
O248 O 0.47693 0.4414 0.83517 0.0
O249 O 0.45143 0.44097 0.83807 0.0
O250 O 0.49868 0.41307 0.80869 0.0
O251 O 0.4752 0.40456 0.79045 0.0
O252 O 0.83209 0.21019 0.18967 0.0
Cd253 Cd 0.82986 0.19918 0.12537 0.0
Cd254 Cd 0.83251 0.2283 0.09467 0.0
O255 O 0.84044 0.23258 0.1621 0.0
O256 O 0.8344 0.17694 0.13804 0.0
O257 O 0.84986 0.19215 0.09611 0.0
C258 C 0.84721 0.17881 0.11529 0.0
C259 C 0.8449 0.23744 0.0274 0.0
C260 C 0.83787 0.22357 0.19668 0.0
C261 C 0.80221 0.21259 0.0778 0.0
O262 O 0.80906 0.22551 0.08333 0.0
O263 O 0.80908 0.20005 0.0887 0.0
O264 O 0.83784 0.24671 0.0559 0.0
O265 O 0.84596 0.22298 0.03905 0.0
O266 O 0.03986 0.58183 0.43971 0.0
Cd267 Cd 0.05067 0.57971 0.375 0.0
Cd268 Cd 0.02137 0.58204 0.3455 0.0
O269 O 0.01742 0.59024 0.41275 0.0
O270 O 0.0729 0.58452 0.38691 0.0
O271 O 0.05732 0.59983 0.34574 0.0
C272 C 0.07077 0.59735 0.36446 0.0
C273 C 0.01159 0.59398 0.27833 0.0
C274 C 0.02654 0.58769 0.44707 0.0
C275 C 0.03731 0.55191 0.32826 0.0
O276 O 0.02436 0.5586 0.33488 0.0
O277 O 0.04986 0.55896 0.33803 0.0
O278 O 0.00262 0.58688 0.30761 0.0
O279 O 0.0261 0.59536 0.28916 0.0
O280 O 0.66736 0.21189 0.80893 0.0
Cd281 Cd 0.66987 0.20103 0.87341 0.0
Cd282 Cd 0.66805 0.23039 0.90292 0.0
O283 O 0.65948 0.23449 0.83616 0.0
O284 O 0.66496 0.17882 0.86142 0.0
O285 O 0.64995 0.19431 0.90388 0.0
C286 C 0.65229 0.1809 0.88478 0.0
C287 C 0.65667 0.24001 0.97122 0.0
C288 C 0.66166 0.2253 0.80179 0.0
C289 C 0.69814 0.21419 0.91815 0.0
O290 O 0.69154 0.2272 0.91192 0.0
O291 O 0.69089 0.2017 0.90896 0.0
O292 O 0.66363 0.24903 0.94177 0.0
O293 O 0.65508 0.22556 0.95992 0.0
O294 O 0.0384 0.41511 0.06421 0.0
Cd295 Cd 0.05054 0.41906 0.12578 0.0
Cd296 Cd 0.02114 0.41697 0.1603 0.0
O297 O 0.01575 0.40855 0.09411 0.0
O298 O 0.07227 0.41445 0.10666 0.0
O299 O 0.0594 0.40056 0.15949 0.0
C300 C 0.07176 0.40264 0.13444 0.0
C301 C 0.01166 0.40563 0.22901 0.0
C302 C 0.0247 0.40996 0.05881 0.0
C303 C 0.03771 0.44754 0.17046 0.0
O304 O 0.0248 0.44042 0.16914 0.0
O305 O 0.05008 0.44071 0.15756 0.0
O306 O 0.00266 0.41291 0.20028 0.0
O307 O 0.02602 0.40381 0.21708 0.0
O308 O 0.83523 0.78788 0.3102 0.0
Cd309 Cd 0.83105 0.79989 0.3719 0.0
Cd310 Cd 0.83255 0.77016 0.40547 0.0
O311 O 0.84125 0.765 0.33954 0.0
O312 O 0.83576 0.82163 0.3532 0.0
O313 O 0.84943 0.8087 0.40636 0.0
C314 C 0.84746 0.82109 0.3814 0.0
C315 C 0.84338 0.76008 0.4741 0.0
C316 C 0.84022 0.77413 0.30456 0.0
C317 C 0.80223 0.78721 0.41524 0.0
O318 O 0.80914 0.7742 0.41358 0.0
O319 O 0.80927 0.79953 0.40302 0.0
O320 O 0.836 0.7514 0.44469 0.0
O321 O 0.84559 0.77445 0.46288 0.0
O322 O 0.46218 0.58395 0.55787 0.0
Cd323 Cd 0.45016 0.57971 0.6195 0.0
Cd324 Cd 0.47988 0.58177 0.65332 0.0
O325 O 0.48492 0.59043 0.58727 0.0
O326 O 0.42838 0.58393 0.60026 0.0
O327 O 0.44094 0.59802 0.65326 0.0
C328 C 0.42864 0.59574 0.62812 0.0
C329 C 0.48982 0.59286 0.72176 0.0
C330 C 0.47584 0.58918 0.55225 0.0
C331 C 0.46326 0.55123 0.66372 0.0
O332 O 0.47617 0.55832 0.66191 0.0
O333 O 0.45085 0.55806 0.65125 0.0
O334 O 0.4986 0.58556 0.69245 0.0
O335 O 0.47542 0.59485 0.71052 0.0
O336 O 0.33538 0.21326 0.31344 0.0
Cd337 Cd 0.33087 0.20113 0.37471 0.0
Cd338 Cd 0.33226 0.23091 0.40853 0.0
O339 O 0.34134 0.23611 0.34312 0.0
O340 O 0.33526 0.17942 0.35508 0.0
O341 O 0.34904 0.19184 0.40909 0.0
C342 C 0.34693 0.17963 0.38346 0.0
C343 C 0.34273 0.24088 0.47785 0.0
C344 C 0.34044 0.227 0.30807 0.0
C345 C 0.30186 0.21394 0.41668 0.0
O346 O 0.3088 0.22694 0.41519 0.0
O347 O 0.30897 0.20159 0.40506 0.0
O348 O 0.33555 0.24962 0.44816 0.0
O349 O 0.34495 0.22652 0.46659 0.0
O350 O 0.53962 0.58233 0.05985 0.0
Cd351 Cd 0.55077 0.58023 0.12401 0.0
Cd352 Cd 0.52193 0.58307 0.15542 0.0
O353 O 0.51751 0.5911 0.08821 0.0
O354 O 0.57293 0.58537 0.11189 0.0
O355 O 0.55719 0.60036 0.15363 0.0
C356 C 0.57065 0.59811 0.13473 0.0
C357 C 0.51301 0.59536 0.22313 0.0
C358 C 0.52631 0.58832 0.05329 0.0
C359 C 0.53743 0.55267 0.17184 0.0
O360 O 0.52456 0.5596 0.16631 0.0
O361 O 0.55002 0.55948 0.16095 0.0
O362 O 0.50364 0.5884 0.19474 0.0
O363 O 0.52744 0.59642 0.21109 0.0
O364 O 0.16786 0.78944 0.81252 0.0
Cd365 Cd 0.17013 0.80022 0.87722 0.0
Cd366 Cd 0.16773 0.77093 0.90666 0.0
O367 O 0.15948 0.767 0.8395 0.0
O368 O 0.16538 0.82246 0.86537 0.0
O369 O 0.15011 0.80694 0.90692 0.0
C370 C 0.15259 0.82038 0.88813 0.0
C371 C 0.15576 0.76127 0.9739 0.0
C372 C 0.16198 0.77613 0.80519 0.0
C373 C 0.19794 0.78677 0.92367 0.0
O374 O 0.1912 0.77384 0.91716 0.0
O375 O 0.19093 0.79933 0.9139 0.0
O376 O 0.1628 0.75224 0.94468 0.0
O377 O 0.15446 0.77577 0.96298 0.0
O378 O 0.96082 0.41638 0.5639 0.0
Cd379 Cd 0.94844 0.42028 0.62508 0.0
Cd380 Cd 0.97753 0.41738 0.66104 0.0
O381 O 0.98306 0.40903 0.59487 0.0
O382 O 0.92673 0.41604 0.6051 0.0
O383 O 0.93921 0.4018 0.65791 0.0
C384 C 0.92698 0.40413 0.63255 0.0
C385 C 0.98652 0.40567 0.72979 0.0
C386 C 0.97439 0.41085 0.5591 0.0
C387 C 0.9616 0.44829 0.67141 0.0
O388 O 0.97434 0.44088 0.67043 0.0
O389 O 0.94914 0.44179 0.65769 0.0
O390 O 0.99576 0.41288 0.70158 0.0
O391 O 0.97218 0.40414 0.71728 0.0
O392 O 0.33465 0.78745 0.18807 0.0
Cd393 Cd 0.33061 0.7999 0.12715 0.0
Cd394 Cd 0.33299 0.77074 0.09103 0.0
O395 O 0.34144 0.76505 0.15693 0.0
O396 O 0.33501 0.82155 0.14741 0.0
O397 O 0.349 0.80914 0.09384 0.0
C398 C 0.34681 0.82133 0.11951 0.0
C399 C 0.34441 0.76164 0.02197 0.0
C400 C 0.33994 0.77377 0.19271 0.0
C401 C 0.30227 0.78708 0.08168 0.0
O402 O 0.30951 0.77424 0.08227 0.0
O403 O 0.30897 0.79944 0.09534 0.0
O404 O 0.33714 0.75248 0.05028 0.0
O405 O 0.34616 0.77595 0.03454 0.0
O406 O 0.96201 0.58287 0.94083 0.0
Cd407 Cd 0.95077 0.58053 0.87682 0.0
Cd408 Cd 0.98001 0.58251 0.84566 0.0
O409 O 0.9844 0.59089 0.91242 0.0
O410 O 0.92863 0.58542 0.88991 0.0
O411 O 0.94393 0.6005 0.84703 0.0
C412 C 0.9306 0.59811 0.86662 0.0
C413 C 0.98975 0.59402 0.77774 0.0
C414 C 0.97545 0.5886 0.94728 0.0
C415 C 0.96367 0.55246 0.83028 0.0
O416 O 0.97671 0.55907 0.83597 0.0
O417 O 0.95124 0.55964 0.84054 0.0
O418 O 0.99869 0.58687 0.80697 0.0
O419 O 0.97532 0.59572 0.78902 0.0
O420 O 0.16843 0.20869 0.68736 0.0
Cd421 Cd 0.17012 0.19779 0.62274 0.0
Cd422 Cd 0.16718 0.22678 0.59245 0.0
O423 O 0.1596 0.23096 0.66034 0.0
O424 O 0.16519 0.17559 0.63474 0.0
O425 O 0.14981 0.19133 0.59438 0.0
C426 C 0.15227 0.17784 0.61286 0.0
C427 C 0.15439 0.23584 0.5258 0.0
C428 C 0.16254 0.222 0.69476 0.0
C429 C 0.19742 0.21122 0.57366 0.0
O430 O 0.19057 0.2241 0.57989 0.0
O431 O 0.19064 0.19863 0.58469 0.0
O432 O 0.16152 0.24516 0.55398 0.0
O433 O 0.15348 0.22137 0.5375 0.0
O434 O 0.53909 0.41799 0.44242 0.0
Cd435 Cd 0.55027 0.42053 0.37844 0.0
Cd436 Cd 0.52107 0.41867 0.34718 0.0
O437 O 0.51665 0.41019 0.41383 0.0
O438 O 0.57239 0.41542 0.39104 0.0
O439 O 0.55691 0.40063 0.3478 0.0
C440 C 0.57028 0.40283 0.36732 0.0
C441 C 0.51139 0.40716 0.27917 0.0
C442 C 0.52563 0.41231 0.44874 0.0
C443 C 0.53746 0.44876 0.33255 0.0
O444 O 0.52441 0.44212 0.33768 0.0
O445 O 0.54986 0.44157 0.343 0.0
O446 O 0.50242 0.41432 0.30831 0.0
O447 O 0.52582 0.40549 0.29055 0.0
H448 H 0.28453 0.3138 0.95433 0.0
H449 H 0.21707 0.26153 0.0662 0.0
H450 H 0.28507 0.26373 0.95878 0.0
H451 H 0.21569 0.31161 0.06612 0.0
H452 H 0.24236 0.26246 0.02838 0.0
H453 H 0.2595 0.31356 0.99536 0.0
C454 C 0.27937 0.30277 0.96368 0.0
C455 C 0.28694 0.28876 0.95298 0.0
C456 C 0.2366 0.27327 0.03675 0.0
C457 C 0.25837 0.28843 1.00022 0.0
C458 C 0.22213 0.27276 0.05853 0.0
C459 C 0.21417 0.28652 0.0693 0.0
C460 C 0.24325 0.28766 0.02531 0.0
C461 C 0.22139 0.3007 0.05853 0.0
C462 C 0.26511 0.30265 0.98727 0.0
C463 C 0.27971 0.27482 0.96618 0.0
N464 N 0.2355 0.30091 0.03688 0.0
N465 N 0.26588 0.27503 0.98906 0.0
H466 H 0.93721 0.96599 0.31729 0.0
H467 H 0.98731 0.03346 0.19641 0.0
H468 H 0.98727 0.96681 0.31123 0.0
H469 H 0.93723 0.03404 0.20067 0.0
H470 H 0.98717 0.00896 0.23887 0.0
H471 H 0.93665 0.99108 0.27655 0.0
C472 C 0.94807 0.97149 0.30785 0.0
C473 C 0.96231 0.96423 0.31765 0.0
C474 C 0.97618 0.01439 0.2305 0.0
C475 C 0.96173 0.99283 0.27064 0.0
C476 C 0.97625 0.0284 0.20603 0.0
C477 C 0.96225 0.03587 0.19484 0.0
C478 C 0.96202 0.00769 0.24411 0.0
C479 C 0.9483 0.02869 0.20842 0.0
C480 C 0.94774 0.98577 0.28438 0.0
C481 C 0.97601 0.97189 0.30436 0.0
N482 N 0.94853 0.01502 0.23244 0.0
N483 N 0.97536 0.9857 0.28148 0.0
H484 H 0.21589 0.73809 0.44522 0.0
H485 H 0.2831 0.68631 0.56061 0.0
H486 H 0.2143 0.68803 0.44862 0.0
H487 H 0.28397 0.73632 0.55234 0.0
H488 H 0.25773 0.68641 0.52152 0.0
H489 H 0.24087 0.73736 0.48499 0.0
C490 C 0.22082 0.72691 0.45409 0.0
C491 C 0.21293 0.7131 0.44348 0.0
C492 C 0.26348 0.69735 0.52845 0.0
C493 C 0.24166 0.71218 0.48963 0.0
C494 C 0.27793 0.69731 0.55096 0.0
C495 C 0.28572 0.71133 0.55977 0.0
C496 C 0.25678 0.71151 0.5147 0.0
C497 C 0.27846 0.72522 0.54626 0.0
C498 C 0.23511 0.7265 0.47699 0.0
C499 C 0.21996 0.69897 0.45599 0.0
N500 N 0.26447 0.72494 0.52438 0.0
N501 N 0.23391 0.69888 0.47853 0.0
H502 H 0.51243 0.03506 0.80391 0.0
H503 H 0.56325 0.9658 0.69601 0.0
H504 H 0.56253 0.03513 0.80471 0.0
H505 H 0.51317 0.96649 0.69915 0.0
H506 H 0.56351 0.99124 0.73461 0.0
H507 H 0.51277 0.00984 0.76546 0.0
C508 C 0.52353 0.02975 0.79622 0.0
C509 C 0.53748 0.03727 0.80762 0.0
C510 C 0.55248 0.98582 0.72671 0.0
C511 C 0.53795 0.00827 0.76305 0.0
C512 C 0.55232 0.97132 0.70452 0.0
C513 C 0.53817 0.96396 0.69429 0.0
C514 C 0.53839 0.99301 0.73874 0.0
C515 C 0.52437 0.97167 0.70631 0.0
C516 C 0.52371 0.01531 0.7741 0.0
C517 C 0.55149 0.02976 0.79666 0.0
N518 N 0.52484 0.98571 0.7279 0.0
N519 N 0.55137 0.01568 0.77487 0.0
H520 H 0.71537 0.68774 0.05911 0.0
H521 H 0.78502 0.7378 0.95018 0.0
H522 H 0.71698 0.73781 0.05799 0.0
H523 H 0.78442 0.68771 0.94868 0.0
H524 H 0.76 0.73773 0.9898 0.0
H525 H 0.74072 0.68719 0.02 0.0
C526 C 0.72108 0.69861 0.05098 0.0
C527 C 0.71399 0.71284 0.06186 0.0
C528 C 0.76529 0.72673 0.98077 0.0
C529 C 0.74293 0.71229 0.01681 0.0
C530 C 0.7796 0.72676 0.95797 0.0
C531 C 0.78688 0.71273 0.946 0.0
C532 C 0.7581 0.71257 0.99193 0.0
C533 C 0.77924 0.6988 0.95714 0.0
C534 C 0.73552 0.69828 0.02849 0.0
C535 C 0.72194 0.72655 0.0503 0.0
N536 N 0.76527 0.69907 0.97957 0.0
N537 N 0.73592 0.72592 0.02837 0.0
H538 H 0.06298 0.96617 0.80436 0.0
H539 H 0.0108 0.03286 0.68793 0.0
H540 H 0.0129 0.96562 0.80019 0.0
H541 H 0.06084 0.03489 0.69254 0.0
H542 H 0.01166 0.00786 0.72763 0.0
H543 H 0.06272 0.99118 0.76332 0.0
C544 C 0.05194 0.97133 0.7951 0.0
C545 C 0.03794 0.96375 0.80581 0.0
C546 C 0.02248 0.01372 0.71989 0.0
C547 C 0.03758 0.9923 0.75852 0.0
C548 C 0.022 0.02802 0.69702 0.0
C549 C 0.03577 0.03605 0.68687 0.0
C550 C 0.03683 0.00732 0.73293 0.0
C551 C 0.04993 0.02912 0.69961 0.0
C552 C 0.05181 0.98558 0.77153 0.0
C553 C 0.02399 0.97099 0.79276 0.0
N554 N 0.05009 0.01518 0.72212 0.0
N555 N 0.02418 0.9848 0.76979 0.0
H556 H 0.71506 0.31342 0.44949 0.0
H557 H 0.7832 0.26211 0.56162 0.0
H558 H 0.71621 0.26334 0.44847 0.0
H559 H 0.78336 0.3122 0.56457 0.0
H560 H 0.75825 0.26267 0.52173 0.0
H561 H 0.73988 0.31354 0.49168 0.0
C562 C 0.72056 0.30246 0.45782 0.0
C563 C 0.71351 0.28835 0.44533 0.0
C564 C 0.76367 0.27357 0.5312 0.0
C565 C 0.74183 0.28842 0.49395 0.0
C566 C 0.77794 0.27326 0.55418 0.0
C567 C 0.78546 0.28714 0.56644 0.0
C568 C 0.75676 0.28786 0.52007 0.0
C569 C 0.77799 0.30121 0.55586 0.0
C570 C 0.73469 0.30255 0.48209 0.0
C571 C 0.72116 0.27451 0.45728 0.0
N572 N 0.76408 0.30122 0.53307 0.0
N573 N 0.73484 0.27491 0.48091 0.0
H574 H 0.43618 0.9666 0.19373 0.0
H575 H 0.48726 0.03444 0.30864 0.0
H576 H 0.48626 0.9672 0.19748 0.0
H577 H 0.43717 0.0349 0.30946 0.0
H578 H 0.48673 0.0096 0.26823 0.0
H579 H 0.43592 0.99165 0.23478 0.0
C580 C 0.44711 0.97203 0.20278 0.0
C581 C 0.46126 0.96474 0.19212 0.0
C582 C 0.47582 0.01506 0.27732 0.0
C583 C 0.46104 0.99329 0.23945 0.0
C584 C 0.47611 0.02928 0.3006 0.0
C585 C 0.46223 0.03683 0.31248 0.0
C586 C 0.46154 0.00825 0.2655 0.0
C587 C 0.44816 0.02949 0.30109 0.0
C588 C 0.44695 0.98629 0.22643 0.0
C589 C 0.47506 0.97231 0.20495 0.0
N590 N 0.44817 0.01562 0.27804 0.0
N591 N 0.47458 0.98611 0.22795 0.0
H592 H 0.71629 0.76271 0.55168 0.0
H593 H 0.78458 0.81301 0.43593 0.0
H594 H 0.71589 0.81279 0.54907 0.0
H595 H 0.78366 0.76294 0.44068 0.0
H596 H 0.75926 0.8135 0.47534 0.0
H597 H 0.74102 0.76291 0.51046 0.0
C598 C 0.72143 0.77378 0.54266 0.0
C599 C 0.71396 0.78776 0.55397 0.0
C600 C 0.7646 0.80242 0.46752 0.0
C601 C 0.7424 0.78807 0.50615 0.0
C602 C 0.77902 0.80213 0.44482 0.0
C603 C 0.78631 0.78791 0.43503 0.0
C604 C 0.75743 0.78841 0.48048 0.0
C605 C 0.77855 0.77419 0.44757 0.0
C606 C 0.73558 0.77389 0.51891 0.0
C607 C 0.72124 0.80173 0.54119 0.0
N608 N 0.76461 0.77479 0.4697 0.0
N609 N 0.73506 0.80154 0.51788 0.0
H610 H 0.48866 0.46621 0.80382 0.0
H611 H 0.43769 0.53328 0.68448 0.0
H612 H 0.43858 0.46505 0.79978 0.0
H613 H 0.48775 0.53315 0.69039 0.0
H614 H 0.43747 0.50813 0.72484 0.0
H615 H 0.48822 0.49081 0.76194 0.0
C616 C 0.47753 0.47116 0.79437 0.0
C617 C 0.46363 0.4635 0.80543 0.0
C618 C 0.44848 0.5136 0.71707 0.0
C619 C 0.46305 0.4918 0.75685 0.0
C620 C 0.44862 0.52792 0.69382 0.0
C621 C 0.46276 0.53539 0.68406 0.0
C622 C 0.46257 0.50671 0.73064 0.0
C623 C 0.47656 0.5279 0.69721 0.0
C624 C 0.4773 0.48523 0.77024 0.0
C625 C 0.44959 0.47055 0.7921 0.0
N626 N 0.47611 0.51405 0.71989 0.0
N627 N 0.44966 0.48429 0.76841 0.0
H628 H 0.71687 0.23874 0.94 0.0
H629 H 0.7843 0.18721 0.0551 0.0
H630 H 0.7153 0.18869 0.9447 0.0
H631 H 0.78451 0.23728 0.0501 0.0
H632 H 0.75915 0.18723 0.01487 0.0
H633 H 0.74195 0.23812 0.97923 0.0
C634 C 0.72183 0.22758 0.94903 0.0
C635 C 0.71391 0.21374 0.93901 0.0
C636 C 0.7647 0.19819 0.02272 0.0
C637 C 0.74274 0.21295 0.98452 0.0
C638 C 0.77904 0.1982 0.04583 0.0
C639 C 0.78657 0.21226 0.05606 0.0
C640 C 0.75785 0.21235 0.0097 0.0
C641 C 0.77919 0.22614 0.04302 0.0
C642 C 0.73618 0.22724 0.97162 0.0
C643 C 0.72098 0.19965 0.95166 0.0
N644 N 0.7653 0.22582 0.02052 0.0
N645 N 0.73498 0.19962 0.9739 0.0
H646 H 0.06332 0.46565 0.18954 0.0
H647 H 0.01257 0.5336 0.30524 0.0
H648 H 0.01328 0.46564 0.19755 0.0
H649 H 0.06264 0.53463 0.30083 0.0
H650 H 0.01293 0.50866 0.26523 0.0
H651 H 0.06361 0.49107 0.22835 0.0
C652 C 0.0524 0.47102 0.19906 0.0
C653 C 0.03825 0.46345 0.1903 0.0
C654 C 0.02387 0.51428 0.27304 0.0
C655 C 0.03853 0.49244 0.23504 0.0
C656 C 0.02367 0.52855 0.29608 0.0
C657 C 0.0376 0.53627 0.30651 0.0
C658 C 0.03809 0.50758 0.2601 0.0
C659 C 0.05162 0.52909 0.29362 0.0
C660 C 0.05258 0.4855 0.2214 0.0
C661 C 0.02448 0.47096 0.20361 0.0
N662 N 0.05151 0.51516 0.27098 0.0
N663 N 0.02498 0.48498 0.22535 0.0
H664 H 0.28287 0.23827 0.43832 0.0
H665 H 0.21526 0.18595 0.54919 0.0
H666 H 0.28436 0.1882 0.4389 0.0
H667 H 0.21492 0.23604 0.54601 0.0
H668 H 0.24032 0.1862 0.50836 0.0
H669 H 0.25754 0.23733 0.4759 0.0
C670 C 0.27783 0.22704 0.44605 0.0
C671 C 0.28582 0.21328 0.43549 0.0
C672 C 0.23475 0.19712 0.51669 0.0
C673 C 0.2567 0.21213 0.47919 0.0
C674 C 0.22047 0.19699 0.54016 0.0
C675 C 0.21295 0.211 0.55116 0.0
C676 C 0.24155 0.21135 0.50414 0.0
C677 C 0.22024 0.22494 0.53838 0.0
C678 C 0.26333 0.22651 0.46769 0.0
C679 C 0.27862 0.19909 0.44633 0.0
N680 N 0.23409 0.22475 0.51559 0.0
N681 N 0.26449 0.19888 0.46783 0.0
H682 H 0.56317 0.46605 0.30871 0.0
H683 H 0.51258 0.53487 0.19728 0.0
H684 H 0.51308 0.46726 0.30741 0.0
H685 H 0.56268 0.53487 0.19683 0.0
H686 H 0.51285 0.50994 0.2374 0.0
H687 H 0.56353 0.49127 0.26879 0.0
C688 C 0.55226 0.47165 0.30037 0.0
C689 C 0.53807 0.46449 0.31145 0.0
C690 C 0.52381 0.51534 0.22849 0.0
C691 C 0.53842 0.49327 0.26545 0.0
C692 C 0.52367 0.5296 0.20539 0.0
C693 C 0.53763 0.53703 0.19359 0.0
C694 C 0.53802 0.50835 0.24012 0.0
C695 C 0.55163 0.52957 0.20515 0.0
C696 C 0.55248 0.48601 0.27741 0.0
C697 C 0.5243 0.47228 0.2996 0.0
N698 N 0.55147 0.51565 0.22788 0.0
N699 N 0.52484 0.48619 0.27722 0.0
H700 H 0.28398 0.81263 0.06372 0.0
H701 H 0.21627 0.762 0.94616 0.0
H702 H 0.28437 0.76265 0.05335 0.0
H703 H 0.21521 0.81206 0.95149 0.0
H704 H 0.24122 0.76232 0.9862 0.0
H705 H 0.25858 0.81294 0.0248 0.0
C706 C 0.27869 0.80173 0.05366 0.0
C707 C 0.28637 0.7876 0.06179 0.0
C708 C 0.23558 0.77326 0.97857 0.0
C709 C 0.25739 0.78788 0.01693 0.0
C710 C 0.22131 0.77309 0.95552 0.0
C711 C 0.21359 0.78703 0.94535 0.0
C712 C 0.24227 0.78747 0.99181 0.0
C713 C 0.22075 0.80103 0.9585 0.0
C714 C 0.26423 0.80192 0.03125 0.0
C715 C 0.27896 0.77384 0.04778 0.0
N716 N 0.23468 0.80089 0.98116 0.0
N717 N 0.26495 0.77434 0.026 0.0
H718 H 0.93632 0.46688 0.69014 0.0
H719 H 0.98811 0.53371 0.80769 0.0
H720 H 0.9863 0.46576 0.69996 0.0
H721 H 0.93806 0.53554 0.80309 0.0
H722 H 0.98734 0.50877 0.76771 0.0
H723 H 0.93642 0.4922 0.72956 0.0
C724 C 0.94731 0.47199 0.7002 0.0
C725 C 0.96132 0.46414 0.69173 0.0
C726 C 0.9765 0.51457 0.77549 0.0
C727 C 0.9615 0.49302 0.73717 0.0
C728 C 0.97692 0.52884 0.79851 0.0
C729 C 0.96312 0.53678 0.80884 0.0
C730 C 0.96217 0.50811 0.76243 0.0
C731 C 0.94899 0.52983 0.79595 0.0
C732 C 0.94735 0.48641 0.7229 0.0
C733 C 0.9752 0.47131 0.70576 0.0
N734 N 0.94888 0.5159 0.77328 0.0
N735 N 0.97492 0.48528 0.7278 0.0
H736 H 0.14796 0.27594 0.94842 0.0
H737 H 0.16458 0.20473 0.7753 0.0
H738 H 0.15849 0.22942 0.99463 0.0
H739 H 0.15278 0.25061 0.72587 0.0
H740 H 0.16 0.21326 0.85587 0.0
H741 H 0.14679 0.26653 0.86702 0.0
C742 C 0.14972 0.2637 0.94159 0.0
C743 C 0.15348 0.25348 0.97834 0.0
C744 C 0.15832 0.22147 0.82746 0.0
C745 C 0.15239 0.24269 0.88537 0.0
C746 C 0.16099 0.21661 0.78134 0.0
C747 C 0.15921 0.227 0.74368 0.0
C748 C 0.15393 0.23689 0.8363 0.0
C749 C 0.15439 0.24222 0.7538 0.0
C750 C 0.14915 0.25835 0.89508 0.0
C751 C 0.1557 0.23775 0.9674 0.0
N752 N 0.15203 0.24674 0.79918 0.0
N753 N 0.15528 0.23289 0.92195 0.0
H754 H 0.04443 0.91453 0.02845 0.0
H755 H 0.97321 0.8978 0.20127 0.0
H756 H 0.9985 0.90297 0.97889 0.0
H757 H 0.01974 0.90825 0.2476 0.0
H758 H 0.98264 0.89656 0.11992 0.0
H759 H 0.03594 0.9097 0.10891 0.0
C760 C 0.03254 0.91094 0.03444 0.0
C761 C 0.02212 0.90931 0.99679 0.0
C762 C 0.99082 0.8989 0.148 0.0
C763 C 0.01228 0.90373 0.08928 0.0
C764 C 0.98545 0.89951 0.19449 0.0
C765 C 0.99567 0.9033 0.23124 0.0
C766 C 0.00649 0.90213 0.13833 0.0
C767 C 0.01141 0.90545 0.22036 0.0
C768 C 0.02771 0.90812 0.0805 0.0
C769 C 0.00691 0.90446 0.00683 0.0
N770 N 0.01628 0.90501 0.17493 0.0
N771 N 0.0024 0.90197 0.05216 0.0
H772 H 0.34736 0.76659 0.49323 0.0
H773 H 0.34763 0.74408 0.22012 0.0
H774 H 0.35101 0.71939 0.44384 0.0
H775 H 0.34165 0.79052 0.27414 0.0
H776 H 0.3526 0.73497 0.30057 0.0
H777 H 0.34956 0.7757 0.41231 0.0
C778 C 0.34889 0.75814 0.46537 0.0
C779 C 0.34883 0.7422 0.47525 0.0
C780 C 0.35033 0.74717 0.29466 0.0
C781 C 0.35104 0.75255 0.3821 0.0
C782 C 0.34748 0.75238 0.24877 0.0
C783 C 0.34402 0.76806 0.24038 0.0
C784 C 0.34976 0.75773 0.33234 0.0
C785 C 0.34406 0.7783 0.27886 0.0
C786 C 0.35008 0.76335 0.41906 0.0
C787 C 0.35096 0.73179 0.43775 0.0
N788 N 0.34678 0.77294 0.32303 0.0
N789 N 0.35174 0.73713 0.39267 0.0
H790 H 0.48238 0.09824 0.7466 0.0
H791 H 0.50496 0.09857 0.47355 0.0
H792 H 0.52951 0.10255 0.69698 0.0
H793 H 0.45871 0.09104 0.52739 0.0
H794 H 0.51387 0.10389 0.55395 0.0
H795 H 0.47321 0.10008 0.66564 0.0
C796 C 0.4908 0.09985 0.7187 0.0
C797 C 0.50675 0.10006 0.72853 0.0
C798 C 0.50175 0.10119 0.54803 0.0
C799 C 0.49633 0.10186 0.63538 0.0
C800 C 0.49666 0.09813 0.50216 0.0
C801 C 0.48109 0.09416 0.49372 0.0
C802 C 0.49119 0.10032 0.58566 0.0
C803 C 0.47085 0.09387 0.53216 0.0
C804 C 0.48556 0.10083 0.67236 0.0
C805 C 0.51711 0.10228 0.69095 0.0
N806 N 0.4761 0.09681 0.57634 0.0
N807 N 0.51174 0.10286 0.64589 0.0
H808 H 0.1629 0.79375 0.72515 0.0
H809 H 0.14644 0.72268 0.55187 0.0
H810 H 0.15217 0.74755 0.77409 0.0
H811 H 0.15584 0.76946 0.50575 0.0
H812 H 0.14518 0.732 0.63328 0.0
H813 H 0.15761 0.78545 0.64474 0.0
C814 C 0.1594 0.78185 0.71903 0.0
C815 C 0.15815 0.77129 0.75647 0.0
C816 C 0.14729 0.74025 0.60525 0.0
C817 C 0.15204 0.76167 0.66409 0.0
C818 C 0.1479 0.73495 0.55871 0.0
C819 C 0.15143 0.74527 0.522 0.0
C820 C 0.15027 0.75596 0.61501 0.0
C821 C 0.15326 0.76105 0.53296 0.0
C822 C 0.15631 0.77712 0.67302 0.0
C823 C 0.15339 0.75606 0.74631 0.0
N824 N 0.15284 0.76586 0.57846 0.0
N825 N 0.15064 0.75167 0.70103 0.0
H826 H 0.45723 0.91032 0.97701 0.0
H827 H 0.52963 0.89831 0.80525 0.0
H828 H 0.50412 0.90425 0.02727 0.0
H829 H 0.48242 0.90481 0.75865 0.0
H830 H 0.52033 0.89675 0.88672 0.0
H831 H 0.46608 0.90507 0.89723 0.0
C832 C 0.46941 0.90784 0.97133 0.0
C833 C 0.47997 0.90792 0.00895 0.0
C834 C 0.512 0.89828 0.85856 0.0
C835 C 0.49025 0.90188 0.91714 0.0
C836 C 0.51729 0.89906 0.81201 0.0
C837 C 0.5068 0.90187 0.77513 0.0
C838 C 0.49613 0.90032 0.86815 0.0
C839 C 0.49095 0.9028 0.78598 0.0
C840 C 0.47446 0.90479 0.92564 0.0
C841 C 0.49558 0.90442 0.99932 0.0
N842 N 0.48613 0.9022 0.83146 0.0
N843 N 0.50028 0.90169 0.95427 0.0
H844 H 0.3532 0.282 0.05664 0.0
H845 H 0.34393 0.20941 0.22883 0.0
H846 H 0.34853 0.23452 0.01053 0.0
H847 H 0.34733 0.25664 0.2784 0.0
H848 H 0.34949 0.21831 0.1493 0.0
H849 H 0.35538 0.27285 0.13811 0.0
C850 C 0.35301 0.26964 0.06349 0.0
C851 C 0.35048 0.25901 0.0268 0.0
C852 C 0.34914 0.22675 0.17752 0.0
C853 C 0.35274 0.2485 0.11982 0.0
C854 C 0.34591 0.22167 0.22305 0.0
C855 C 0.34494 0.23232 0.26035 0.0
C856 C 0.35131 0.24265 0.16884 0.0
C857 C 0.34784 0.24804 0.25067 0.0
C858 C 0.35414 0.26443 0.11005 0.0
C859 C 0.35028 0.24314 0.03775 0.0
N860 N 0.35073 0.25276 0.20574 0.0
N861 N 0.35119 0.2384 0.08325 0.0
H862 H 0.04167 0.08863 0.47024 0.0
H863 H 0.97027 0.10275 0.29647 0.0
H864 H 0.995 0.09735 0.51875 0.0
H865 H 0.01735 0.09473 0.25078 0.0
H866 H 0.97949 0.10447 0.3779 0.0
H867 H 0.03332 0.09394 0.38989 0.0
C868 C 0.02965 0.0917 0.46405 0.0
C869 C 0.01898 0.09236 0.50133 0.0
C870 C 0.98782 0.10257 0.34995 0.0
C871 C 0.0093 0.09847 0.409 0.0
C872 C 0.98258 0.1017 0.3034 0.0
C873 C 0.99303 0.0984 0.26681 0.0
C874 C 0.00361 0.10009 0.35987 0.0
C875 C 0.00885 0.09712 0.27789 0.0
C876 C 0.0249 0.0948 0.41807 0.0
C877 C 0.0036 0.09659 0.49108 0.0
N878 N 0.01361 0.09778 0.32342 0.0
N879 N 0.99919 0.09935 0.44582 0.0
H880 H 0.85298 0.71914 0.05289 0.0
H881 H 0.84321 0.7917 0.22507 0.0
H882 H 0.8482 0.76659 0.00668 0.0
H883 H 0.84719 0.74452 0.27476 0.0
H884 H 0.84865 0.7828 0.14544 0.0
H885 H 0.85495 0.7283 0.1344 0.0
C886 C 0.85271 0.7315 0.05974 0.0
C887 C 0.85023 0.74211 0.02298 0.0
C888 C 0.84844 0.77437 0.17371 0.0
C889 C 0.85224 0.75263 0.11605 0.0
C890 C 0.84528 0.77945 0.2193 0.0
C891 C 0.84453 0.76882 0.25668 0.0
C892 C 0.85077 0.7585 0.16506 0.0
C893 C 0.84754 0.75312 0.24698 0.0
C894 C 0.85372 0.73671 0.10632 0.0
C895 C 0.84992 0.75798 0.03393 0.0
N896 N 0.85036 0.7484 0.20201 0.0
N897 N 0.85072 0.76273 0.07944 0.0
H898 H 0.95527 0.08475 0.97083 0.0
H899 H 0.02589 0.10221 0.79655 0.0
H900 H 0.00126 0.0966 0.01922 0.0
H901 H 0.9792 0.0921 0.75094 0.0
H902 H 0.01666 0.10322 0.8781 0.0
H903 H 0.96346 0.08984 0.89018 0.0
C904 C 0.9671 0.08845 0.96454 0.0
C905 C 0.97763 0.09009 0.00192 0.0
C906 C 0.0084 0.10101 0.85015 0.0
C907 C 0.98712 0.09598 0.90925 0.0
C908 C 0.01365 0.10053 0.80354 0.0
C909 C 0.00333 0.0969 0.7669 0.0
C910 C 0.99275 0.09778 0.86009 0.0
C911 C 0.9876 0.09479 0.77807 0.0
C912 C 0.97176 0.09142 0.91839 0.0
C913 C 0.99277 0.09508 0.99151 0.0
N914 N 0.98284 0.09508 0.82364 0.0
N915 N 0.9971 0.09773 0.94612 0.0
H916 H 0.64684 0.27895 0.54852 0.0
H917 H 0.66196 0.2076 0.72186 0.0
H918 H 0.65579 0.23208 0.50249 0.0
H919 H 0.65233 0.25405 0.77073 0.0
H920 H 0.65674 0.21597 0.64148 0.0
H921 H 0.64527 0.26963 0.62988 0.0
C922 C 0.64813 0.26665 0.55536 0.0
C923 C 0.65163 0.2563 0.51869 0.0
C924 C 0.65566 0.22434 0.66975 0.0
C925 C 0.65011 0.24561 0.61167 0.0
C926 C 0.65871 0.21957 0.71574 0.0
C927 C 0.65776 0.23018 0.75315 0.0
C928 C 0.65174 0.23988 0.66078 0.0
C929 C 0.65331 0.2455 0.74298 0.0
C930 C 0.64734 0.26135 0.60187 0.0
C931 C 0.65323 0.24051 0.52966 0.0
N932 N 0.6506 0.24993 0.69771 0.0
N933 N 0.65264 0.23569 0.57515 0.0
H934 H 0.51878 0.90668 0.25557 0.0
H935 H 0.49671 0.90229 0.52877 0.0
H936 H 0.47212 0.89885 0.30528 0.0
H937 H 0.54236 0.91316 0.47549 0.0
H938 H 0.488 0.89749 0.44794 0.0
H939 H 0.52816 0.90496 0.33634 0.0
C940 C 0.51052 0.90434 0.28344 0.0
C941 C 0.49462 0.90308 0.2737 0.0
C942 C 0.49994 0.90082 0.45404 0.0
C943 C 0.50526 0.90138 0.36666 0.0
C944 C 0.50493 0.90359 0.50017 0.0
C945 C 0.52026 0.90831 0.50896 0.0
C946 C 0.51037 0.90275 0.41646 0.0
C947 C 0.5304 0.90971 0.47049 0.0
C948 C 0.51588 0.90343 0.32967 0.0
C949 C 0.48448 0.89994 0.31123 0.0
N950 N 0.52526 0.90702 0.42603 0.0
N951 N 0.48994 0.89942 0.3562 0.0
H952 H 0.83693 0.20617 0.27711 0.0
H953 H 0.85199 0.2778 0.44972 0.0
H954 H 0.84713 0.2524 0.22739 0.0
H955 H 0.84287 0.231 0.49612 0.0
H956 H 0.85342 0.2684 0.36835 0.0
H957 H 0.84174 0.21477 0.35748 0.0
C958 C 0.84022 0.21814 0.28305 0.0
C959 C 0.84146 0.22861 0.24538 0.0
C960 C 0.85133 0.26017 0.39645 0.0
C961 C 0.84701 0.23859 0.33777 0.0
C962 C 0.85062 0.26551 0.44294 0.0
C963 C 0.84714 0.2552 0.47972 0.0
C964 C 0.84853 0.24442 0.38681 0.0
C965 C 0.84542 0.23941 0.46886 0.0
C966 C 0.84303 0.22305 0.32905 0.0
C967 C 0.84594 0.24395 0.25535 0.0
N968 N 0.84596 0.23454 0.42342 0.0
N969 N 0.84842 0.24851 0.30063 0.0
H970 H 0.51928 0.09489 0.24721 0.0
H971 H 0.49727 0.0994 0.97401 0.0
H972 H 0.47265 0.10288 0.19738 0.0
H973 H 0.5427 0.08767 0.02731 0.0
H974 H 0.48863 0.10434 0.05481 0.0
H975 H 0.52867 0.09647 0.16643 0.0
C976 C 0.51103 0.09724 0.21931 0.0
C977 C 0.49513 0.09858 0.22902 0.0
C978 C 0.50051 0.10079 0.04872 0.0
C979 C 0.50579 0.10013 0.13608 0.0
C980 C 0.50545 0.09794 0.00261 0.0
C981 C 0.5207 0.09294 0.99384 0.0
C982 C 0.51089 0.09867 0.08631 0.0
C983 C 0.5308 0.09134 0.03232 0.0
C984 C 0.5164 0.09807 0.17309 0.0
C985 C 0.48501 0.10172 0.19145 0.0
N986 N 0.5257 0.09412 0.07677 0.0
N987 N 0.49048 0.10218 0.1465 0.0
H988 H 0.64767 0.72338 0.95023 0.0
H989 H 0.66486 0.79438 0.77711 0.0
H990 H 0.65801 0.76994 0.99657 0.0
H991 H 0.65308 0.74846 0.72795 0.0
H992 H 0.65988 0.78601 0.85765 0.0
H993 H 0.64654 0.73278 0.86887 0.0
C994 C 0.64938 0.73563 0.94345 0.0
C995 C 0.65311 0.74586 0.98023 0.0
C996 C 0.65829 0.77776 0.8293 0.0
C997 C 0.65208 0.75663 0.88726 0.0
C998 C 0.6612 0.78253 0.7832 0.0
C999 C 0.65955 0.77208 0.74564 0.0
C1000 C 0.65379 0.76237 0.83818 0.0
C1001 C 0.6546 0.7569 0.75581 0.0
C1002 C 0.64884 0.74097 0.89694 0.0
C1003 C 0.65525 0.7616 0.96932 0.0
N1004 N 0.65202 0.75247 0.80114 0.0
N1005 N 0.65488 0.76645 0.92386 0.0
H1006 H 0.00616 0.90274 0.47672 0.0
H1007 H 0.98327 0.90196 0.74944 0.0
H1008 H 0.95965 0.90874 0.53016 0.0
H1009 H 0.03051 0.89856 0.70024 0.0
H1010 H 0.97422 0.89994 0.66838 0.0
H1011 H 0.01509 0.89734 0.55705 0.0
C1012 C 0.99781 0.90282 0.50521 0.0
C1013 C 0.98216 0.9064 0.4967 0.0
C1014 C 0.98657 0.89943 0.67522 0.0
C1015 C 0.99228 0.90015 0.58856 0.0
C1016 C 0.99174 0.9005 0.72161 0.0
C1017 C 0.00768 0.90061 0.73158 0.0
C1018 C 0.9974 0.89863 0.63832 0.0
C1019 C 0.01812 0.89858 0.6941 0.0
C1020 C 0.00292 0.89971 0.55105 0.0
C1021 C 0.97185 0.90623 0.53499 0.0
N1022 N 0.01281 0.89792 0.64898 0.0
N1023 N 0.97711 0.90327 0.57914 0.0
H1024 H 0.6544 0.73202 0.49902 0.0
H1025 H 0.65206 0.75471 0.22617 0.0
H1026 H 0.64806 0.77893 0.44955 0.0
H1027 H 0.66182 0.70877 0.27902 0.0
H1028 H 0.64678 0.76329 0.30683 0.0
H1029 H 0.65269 0.72278 0.41806 0.0
C1030 C 0.65236 0.74036 0.47118 0.0
C1031 C 0.65156 0.75629 0.48103 0.0
C1032 C 0.64997 0.75131 0.30067 0.0
C1033 C 0.64989 0.74581 0.38792 0.0
C1034 C 0.65301 0.7464 0.25464 0.0
C1035 C 0.65757 0.73103 0.2458 0.0
C1036 C 0.65146 0.74076 0.33812 0.0
C1037 C 0.65852 0.72077 0.28409 0.0
C1038 C 0.65147 0.73508 0.42485 0.0
C1039 C 0.64881 0.76655 0.44353 0.0
N1040 N 0.65558 0.72584 0.32849 0.0
N1041 N 0.6483 0.76116 0.3985 0.0
H1042 H 0.51981 0.40471 0.75018 0.0
H1043 H 0.49683 0.40239 0.47754 0.0
H1044 H 0.47292 0.39786 0.70108 0.0
H1045 H 0.54267 0.4129 0.53001 0.0
H1046 H 0.48843 0.39692 0.55823 0.0
H1047 H 0.52897 0.40327 0.66909 0.0
C1048 C 0.51146 0.40261 0.72239 0.0
C1049 C 0.49555 0.40159 0.73238 0.0
C1050 C 0.50035 0.40032 0.55198 0.0
C1051 C 0.50595 0.40023 0.63915 0.0
C1052 C 0.50515 0.40348 0.50593 0.0
C1053 C 0.52045 0.40829 0.49698 0.0
C1054 C 0.51091 0.40195 0.58934 0.0
C1055 C 0.53073 0.4094 0.53518 0.0
C1056 C 0.51669 0.40188 0.67599 0.0
C1057 C 0.48528 0.39877 0.69495 0.0
N1058 N 0.52575 0.40634 0.5796 0.0
N1059 N 0.49063 0.39842 0.64985 0.0
H1060 H 0.84764 0.24447 0.72526 0.0
H1061 H 0.84801 0.26739 0.998 0.0
H1062 H 0.84093 0.29088 0.77875 0.0
H1063 H 0.8518 0.22016 0.94888 0.0
H1064 H 0.84998 0.27644 0.91694 0.0
H1065 H 0.85311 0.23561 0.80562 0.0
C1066 C 0.84742 0.25282 0.75377 0.0
C1067 C 0.84362 0.26841 0.74527 0.0
C1068 C 0.8506 0.2641 0.9238 0.0
C1069 C 0.84994 0.25836 0.83715 0.0
C1070 C 0.84955 0.25892 0.97019 0.0
C1071 C 0.84956 0.24299 0.98018 0.0
C1072 C 0.85149 0.25327 0.88692 0.0
C1073 C 0.85168 0.23256 0.94272 0.0
C1074 C 0.85056 0.24775 0.79962 0.0
C1075 C 0.8436 0.27871 0.78358 0.0
N1076 N 0.85232 0.23787 0.8976 0.0
N1077 N 0.84661 0.27349 0.82774 0.0
H1078 H 0.98146 0.59506 0.24903 0.0
H1079 H 0.00423 0.59849 0.97628 0.0
H1080 H 0.02831 0.60221 0.19986 0.0
H1081 H 0.95847 0.5876 0.02866 0.0
H1082 H 0.01269 0.60361 0.05713 0.0
H1083 H 0.97225 0.59669 0.16803 0.0
C1084 C 0.9898 0.59725 0.22125 0.0
C1085 C 0.00571 0.59832 0.2312 0.0
C1086 C 0.00078 0.60021 0.05084 0.0
C1087 C 0.99525 0.5999 0.13805 0.0
C1088 C 0.99594 0.59725 0.00469 0.0
C1089 C 0.98065 0.59244 0.99565 0.0
C1090 C 0.99025 0.59837 0.0882 0.0
C1091 C 0.97041 0.59112 0.03389 0.0
C1092 C 0.98453 0.5981 0.1749 0.0
C1093 C 0.01594 0.60126 0.19377 0.0
N1094 N 0.97541 0.59399 0.0784 0.0
N1095 N 0.01057 0.60173 0.14872 0.0
H1096 H 0.66391 0.29424 0.22233 0.0
H1097 H 0.64773 0.22313 0.04871 0.0
H1098 H 0.65324 0.24802 0.27118 0.0
H1099 H 0.65715 0.26991 0.00272 0.0
H1100 H 0.64659 0.23241 0.13018 0.0
H1101 H 0.65891 0.28588 0.14181 0.0
C1102 C 0.66048 0.28232 0.21618 0.0
C1103 C 0.65915 0.27179 0.25365 0.0
C1104 C 0.64868 0.24067 0.10217 0.0
C1105 C 0.65337 0.26209 0.1611 0.0
C1106 C 0.64923 0.23539 0.05559 0.0
C1107 C 0.65271 0.24573 0.01887 0.0
C1108 C 0.65166 0.25638 0.11198 0.0
C1109 C 0.65459 0.26149 0.02991 0.0
C1110 C 0.65757 0.27756 0.17009 0.0
C1111 C 0.65451 0.25652 0.24339 0.0
N1112 N 0.65422 0.26629 0.07545 0.0
N1113 N 0.65191 0.2521 0.19806 0.0
H1114 H 0.00389 0.40241 0.53166 0.0
H1115 H 0.98163 0.40365 0.2583 0.0
H1116 H 0.95771 0.41001 0.4774 0.0
H1117 H 0.02865 0.39845 0.30797 0.0
H1118 H 0.9724 0.40185 0.33918 0.0
H1119 H 0.01292 0.39739 0.45116 0.0
C1120 C 0.99563 0.40292 0.50295 0.0
C1121 C 0.98004 0.40682 0.51131 0.0
C1122 C 0.98473 0.40091 0.33251 0.0
C1123 C 0.99029 0.40101 0.41928 0.0
C1124 C 0.99001 0.40187 0.28621 0.0
C1125 C 0.00595 0.40136 0.2764 0.0
C1126 C 0.99547 0.3996 0.36953 0.0
C1127 C 0.01626 0.39893 0.31399 0.0
C1128 C 0.0008 0.40003 0.45703 0.0
C1129 C 0.96986 0.40723 0.47273 0.0
N1130 N 0.01086 0.39837 0.35905 0.0
N1131 N 0.97518 0.40446 0.42853 0.0
H1132 H 0.84876 0.75218 0.77655 0.0
H1133 H 0.84303 0.72998 0.50359 0.0
H1134 H 0.836 0.70693 0.72404 0.0
H1135 H 0.85215 0.77648 0.55273 0.0
H1136 H 0.84447 0.72068 0.58449 0.0
H1137 H 0.85349 0.76067 0.69548 0.0
C1138 C 0.84703 0.744 0.74806 0.0
C1139 C 0.84182 0.72885 0.75715 0.0
C1140 C 0.84634 0.73289 0.57765 0.0
C1141 C 0.8473 0.73849 0.66437 0.0
C1142 C 0.84559 0.73821 0.53136 0.0
C1143 C 0.84731 0.75406 0.52141 0.0
C1144 C 0.84871 0.7435 0.6145 0.0
C1145 C 0.8507 0.76416 0.55883 0.0
C1146 C 0.84975 0.74886 0.7018 0.0
C1147 C 0.83985 0.71875 0.71881 0.0
N1148 N 0.85109 0.75875 0.60385 0.0
N1149 N 0.84252 0.72377 0.67421 0.0
H1150 H 0.49763 0.59849 0.02412 0.0
H1151 H 0.51993 0.59303 0.75122 0.0
H1152 H 0.54306 0.58635 0.97168 0.0
H1153 H 0.4733 0.60145 0.80032 0.0
H1154 H 0.52921 0.59466 0.8321 0.0
H1155 H 0.48908 0.60312 0.94306 0.0
C1156 C 0.50583 0.59687 0.99565 0.0
C1157 C 0.52105 0.59186 0.00476 0.0
C1158 C 0.51697 0.59634 0.82526 0.0
C1159 C 0.51136 0.59723 0.91197 0.0
C1160 C 0.51166 0.59548 0.77897 0.0
C1161 C 0.49578 0.59694 0.76902 0.0
C1162 C 0.50632 0.59856 0.8621 0.0
C1163 C 0.48563 0.6002 0.80642 0.0
C1164 C 0.50095 0.59954 0.94939 0.0
C1165 C 0.53118 0.59005 0.96643 0.0
N1166 N 0.49105 0.6007 0.85145 0.0
N1167 N 0.52613 0.59266 0.92183 0.0
H1168 H 0.34223 0.27094 0.50768 0.0
H1169 H 0.34777 0.24865 0.78069 0.0
H1170 H 0.3512 0.2244 0.55664 0.0
H1171 H 0.335 0.2939 0.72823 0.0
H1172 H 0.35238 0.24013 0.69957 0.0
H1173 H 0.34347 0.28017 0.58869 0.0
C1174 C 0.34471 0.26268 0.53544 0.0
C1175 C 0.34646 0.24684 0.52539 0.0
C1176 C 0.34865 0.25194 0.70591 0.0
C1177 C 0.34763 0.25732 0.61861 0.0
C1178 C 0.346 0.25682 0.7522 0.0
C1179 C 0.34084 0.27199 0.76133 0.0
C1180 C 0.34619 0.26232 0.66849 0.0
C1181 C 0.33882 0.28207 0.72298 0.0
C1182 C 0.34534 0.26796 0.5818 0.0
C1183 C 0.34973 0.2367 0.56281 0.0
N1184 N 0.34144 0.27704 0.67836 0.0
N1185 N 0.35002 0.24209 0.60789 0.0
H1186 H 0.45823 0.59181 0.47273 0.0
H1187 H 0.53058 0.60293 0.30053 0.0
H1188 H 0.50533 0.59666 0.52245 0.0
H1189 H 0.48318 0.59756 0.25436 0.0
H1190 H 0.52142 0.60465 0.38208 0.0
H1191 H 0.46702 0.59743 0.39313 0.0
C1192 C 0.47044 0.5941 0.46697 0.0
C1193 C 0.48108 0.59355 0.50435 0.0
C1194 C 0.51301 0.60335 0.35401 0.0
C1195 C 0.49128 0.60001 0.41276 0.0
C1196 C 0.51823 0.60248 0.3074 0.0
C1197 C 0.50764 0.59991 0.27064 0.0
C1198 C 0.49712 0.60163 0.36375 0.0
C1199 C 0.49178 0.59937 0.28162 0.0
C1200 C 0.47546 0.59737 0.42139 0.0
C1201 C 0.49673 0.59685 0.49466 0.0
N1202 N 0.48703 0.60003 0.32715 0.0
N1203 N 0.50139 0.59978 0.4497 0.0
H1204 H 0.15126 0.75411 0.27597 0.0
H1205 H 0.15448 0.73117 0.00335 0.0
H1206 H 0.16206 0.70832 0.22372 0.0
H1207 H 0.14764 0.77808 0.05227 0.0
H1208 H 0.15282 0.72202 0.08439 0.0
H1209 H 0.14611 0.76254 0.19511 0.0
C1210 C 0.15248 0.7458 0.24759 0.0
C1211 C 0.15728 0.73052 0.25666 0.0
C1212 C 0.15148 0.7343 0.07746 0.0
C1213 C 0.15131 0.74008 0.16411 0.0
C1214 C 0.15235 0.73953 0.03109 0.0
C1215 C 0.15138 0.75544 0.02106 0.0
C1216 C 0.14976 0.74505 0.11426 0.0
C1217 C 0.14851 0.76572 0.05843 0.0
C1218 C 0.14951 0.75063 0.20144 0.0
C1219 C 0.15856 0.72026 0.21846 0.0
N1220 N 0.14803 0.76037 0.10352 0.0
N1221 N 0.15567 0.72524 0.17395 0.0
H1222 H 0.96909 0.39798 0.80745 0.0
H1223 H 0.04201 0.40762 0.97864 0.0
H1224 H 0.01638 0.4037 0.76069 0.0
H1225 H 0.99502 0.40299 0.02945 0.0
H1226 H 0.0329 0.4027 0.89896 0.0
H1227 H 0.97843 0.39593 0.88883 0.0
C1228 C 0.98145 0.39846 0.81415 0.0
C1229 C 0.99197 0.40119 0.77729 0.0
C1230 C 0.02455 0.40266 0.92747 0.0
C1231 C 0.00269 0.39905 0.87015 0.0
C1232 C 0.02975 0.40552 0.9731 0.0
C1233 C 0.01924 0.40592 0.01084 0.0
C1234 C 0.00867 0.40029 0.91911 0.0
C1235 C 0.00352 0.40289 0.00139 0.0
C1236 C 0.98676 0.39739 0.86064 0.0
C1237 C 0.00784 0.40177 0.78803 0.0
N1238 N 0.99868 0.40036 0.95637 0.0
N1239 N 0.01268 0.40088 0.83343 0.0
H1240 H 0.35226 0.77902 0.94435 0.0
H1241 H 0.34098 0.70648 0.77266 0.0
H1242 H 0.34583 0.73179 0.99078 0.0
H1243 H 0.34672 0.75337 0.72213 0.0
H1244 H 0.34611 0.71542 0.85239 0.0
H1245 H 0.35402 0.76973 0.86286 0.0
C1246 C 0.35156 0.76668 0.93754 0.0
C1247 C 0.34872 0.75617 0.97435 0.0
C1248 C 0.34635 0.72378 0.82394 0.0
C1249 C 0.35051 0.74551 0.88137 0.0
C1250 C 0.34337 0.71868 0.77828 0.0
C1251 C 0.34322 0.72922 0.7406 0.0
C1252 C 0.3491 0.7396 0.83238 0.0
C1253 C 0.34661 0.74485 0.75014 0.0
C1254 C 0.35246 0.76139 0.89099 0.0
C1255 C 0.34785 0.74032 0.96348 0.0
N1256 N 0.34926 0.74961 0.79519 0.0
N1257 N 0.34858 0.73551 0.91803 0.0
H1258 H 0.973 0.60322 0.70031 0.0
H1259 H 0.0441 0.58655 0.52723 0.0
H1260 H 0.0197 0.59353 0.74661 0.0
H1261 H 0.99797 0.59754 0.47814 0.0
H1262 H 0.03576 0.59176 0.60767 0.0
H1263 H 0.98237 0.60444 0.61894 0.0
C1264 C 0.98527 0.60169 0.69352 0.0
C1265 C 0.99555 0.59809 0.73028 0.0
C1266 C 0.02746 0.59313 0.57934 0.0
C1267 C 0.00629 0.59921 0.6373 0.0
C1268 C 0.03221 0.59009 0.53332 0.0
C1269 C 0.02168 0.59144 0.49582 0.0
C1270 C 0.01202 0.59745 0.58823 0.0
C1271 C 0.00646 0.59625 0.50596 0.0
C1272 C 0.99059 0.60228 0.64701 0.0
C1273 C 0.01131 0.59617 0.71937 0.0
N1274 N 0.00205 0.59895 0.55124 0.0
N1275 N 0.01616 0.59657 0.67389 0.0
H1276 H 0.15178 0.24282 0.22404 0.0
H1277 H 0.15075 0.26575 0.4966 0.0
H1278 H 0.1572 0.28941 0.27741 0.0
H1279 H 0.14752 0.21849 0.44744 0.0
H1280 H 0.14853 0.27479 0.41559 0.0
H1281 H 0.14625 0.23388 0.30429 0.0
C1282 C 0.15169 0.25119 0.25249 0.0
C1283 C 0.15517 0.26686 0.24401 0.0
C1284 C 0.14809 0.26244 0.42243 0.0
C1285 C 0.14879 0.25672 0.33577 0.0
C1286 C 0.14928 0.25727 0.46879 0.0
C1287 C 0.14951 0.24133 0.47875 0.0
C1288 C 0.1473 0.2516 0.38553 0.0
C1289 C 0.14745 0.23089 0.4413 0.0
C1290 C 0.14852 0.24607 0.29828 0.0
C1291 C 0.15479 0.27719 0.28224 0.0
N1292 N 0.14669 0.23619 0.3962 0.0
N1293 N 0.15178 0.27192 0.32635 0.0
H1294 H 0.5282 0.39784 0.20197 0.0
H1295 H 0.45716 0.41397 0.02819 0.0
H1296 H 0.48147 0.40762 0.24784 0.0
H1297 H 0.50332 0.40293 0.97955 0.0
H1298 H 0.46547 0.40901 0.10879 0.0
H1299 H 0.51888 0.39643 0.12058 0.0
C1300 C 0.51593 0.39936 0.19508 0.0
C1301 C 0.50563 0.40303 0.23171 0.0
C1302 C 0.47379 0.40758 0.08053 0.0
C1303 C 0.49494 0.40169 0.13872 0.0
C1304 C 0.46905 0.41047 0.03441 0.0
C1305 C 0.47959 0.40903 0.99699 0.0
C1306 C 0.48923 0.4033 0.08959 0.0
C1307 C 0.49482 0.40428 0.00731 0.0
C1308 C 0.51063 0.39866 0.14856 0.0
C1309 C 0.48987 0.40493 0.22069 0.0
N1310 N 0.49922 0.40172 0.05267 0.0
N1311 N 0.48505 0.40441 0.1752 0.0
H1312 H 0.13423 0.32967 0.05076 0.0
H1313 H 0.08066 0.38315 0.20586 0.0
H1314 H 0.14632 0.33948 0.19518 0.0
H1315 H 0.09156 0.39596 0.06272 0.0
H1316 H 0.10128 0.36342 0.20278 0.0
H1317 H 0.11481 0.35058 0.0539 0.0
C1318 C 0.13282 0.33625 0.08298 0.0
C1319 C 0.14192 0.33296 0.12266 0.0
C1320 C 0.09915 0.37065 0.17224 0.0
C1321 C 0.11961 0.3564 0.12683 0.0
C1322 C 0.08742 0.38183 0.17394 0.0
C1323 C 0.08452 0.39123 0.13461 0.0
C1324 C 0.10762 0.36857 0.13047 0.0
C1325 C 0.09355 0.38904 0.09397 0.0
C1326 C 0.12181 0.34815 0.08471 0.0
C1327 C 0.13963 0.34178 0.16367 0.0
N1328 N 0.10458 0.37779 0.09271 0.0
N1329 N 0.12855 0.35298 0.16493 0.0
H1330 H 0.86659 0.82997 0.45377 0.0
H1331 H 0.9205 0.8841 0.30165 0.0
H1332 H 0.85447 0.84093 0.31013 0.0
H1333 H 0.90975 0.89608 0.44554 0.0
H1334 H 0.89981 0.86442 0.30376 0.0
H1335 H 0.88625 0.85069 0.45179 0.0
C1336 C 0.86805 0.83676 0.42196 0.0
C1337 C 0.85886 0.83386 0.38218 0.0
C1338 C 0.902 0.87144 0.33469 0.0
C1339 C 0.88144 0.85707 0.37931 0.0
C1340 C 0.91377 0.8826 0.33355 0.0
C1341 C 0.91672 0.89176 0.37336 0.0
C1342 C 0.89353 0.86916 0.37637 0.0
C1343 C 0.90771 0.88935 0.41394 0.0
C1344 C 0.87919 0.84854 0.4209 0.0
C1345 C 0.86122 0.84293 0.34172 0.0
N1346 N 0.89664 0.87814 0.41463 0.0
N1347 N 0.87242 0.85402 0.34109 0.0
H1348 H 0.36549 0.66808 0.54479 0.0
H1349 H 0.41917 0.61486 0.69977 0.0
H1350 H 0.3526 0.6572 0.68788 0.0
H1351 H 0.40896 0.60224 0.556 0.0
H1352 H 0.39819 0.63421 0.69657 0.0
H1353 H 0.38519 0.64743 0.54794 0.0
C1354 C 0.36678 0.66131 0.57671 0.0
C1355 C 0.35738 0.66423 0.61601 0.0
C1356 C 0.40056 0.62711 0.66592 0.0
C1357 C 0.38001 0.64111 0.62023 0.0
C1358 C 0.41249 0.61614 0.66768 0.0
C1359 C 0.41568 0.60691 0.62821 0.0
C1360 C 0.39218 0.62914 0.62395 0.0
C1361 C 0.40674 0.60903 0.58736 0.0
C1362 C 0.37795 0.64957 0.57845 0.0
C1363 C 0.35953 0.65519 0.65665 0.0
N1364 N 0.39551 0.62008 0.58604 0.0
N1365 N 0.37077 0.64416 0.65797 0.0
H1366 H 0.62123 0.18395 0.90261 0.0
H1367 H 0.60186 0.09396 0.88129 0.0
H1368 H 0.65622 0.1499 0.86888 0.0
H1369 H 0.56808 0.12943 0.85004 0.0
H1370 H 0.62186 0.11403 0.88778 0.0
H1371 H 0.60134 0.16369 0.89628 0.0
C1372 C 0.62474 0.17218 0.89452 0.0
C1373 C 0.64038 0.16858 0.88625 0.0
C1374 C 0.61009 0.11739 0.8792 0.0
C1375 C 0.61775 0.14546 0.87889 0.0
C1376 C 0.59868 0.10597 0.87544 0.0
C1377 C 0.58331 0.11005 0.86491 0.0
C1378 C 0.60602 0.13304 0.87341 0.0
C1379 C 0.57982 0.12578 0.85782 0.0
C1380 C 0.61339 0.16068 0.89046 0.0
C1381 C 0.64428 0.15318 0.87541 0.0
N1382 N 0.59106 0.13674 0.86268 0.0
N1383 N 0.63305 0.14216 0.87221 0.0
H1384 H 0.10183 0.59325 0.37844 0.0
H1385 H 0.12057 0.68327 0.40345 0.0
H1386 H 0.06761 0.6286 0.35038 0.0
H1387 H 0.15571 0.6496 0.36783 0.0
H1388 H 0.10079 0.66293 0.39638 0.0
H1389 H 0.12169 0.61345 0.38504 0.0
C1390 C 0.09853 0.60526 0.37329 0.0
C1391 C 0.08308 0.60927 0.36366 0.0
C1392 C 0.11284 0.66002 0.39028 0.0
C1393 C 0.10564 0.6324 0.37228 0.0
C1394 C 0.12414 0.67156 0.39475 0.0
C1395 C 0.13979 0.66809 0.38621 0.0
C1396 C 0.11729 0.64488 0.37801 0.0
C1397 C 0.14377 0.65277 0.3746 0.0
C1398 C 0.10985 0.61676 0.37712 0.0
C1399 C 0.07942 0.62501 0.35745 0.0
N1400 N 0.13259 0.64171 0.37101 0.0
N1401 N 0.0906 0.63603 0.36236 0.0
H1402 H 0.65765 0.8523 0.62838 0.0
H1403 H 0.56779 0.8715 0.65536 0.0
H1404 H 0.62205 0.81823 0.6015 0.0
H1405 H 0.60153 0.90643 0.61839 0.0
H1406 H 0.58802 0.85162 0.64811 0.0
H1407 H 0.63757 0.87226 0.63532 0.0
C1408 C 0.64561 0.84905 0.62358 0.0
C1409 C 0.64149 0.83361 0.61416 0.0
C1410 C 0.59096 0.86365 0.64176 0.0
C1411 C 0.6185 0.85629 0.62317 0.0
C1412 C 0.57949 0.87501 0.64633 0.0
C1413 C 0.58301 0.89063 0.63746 0.0
C1414 C 0.6061 0.86801 0.62906 0.0
C1415 C 0.59832 0.89451 0.62542 0.0
C1416 C 0.63418 0.86043 0.62759 0.0
C1417 C 0.62572 0.83003 0.60839 0.0
N1418 N 0.60932 0.88329 0.62174 0.0
N1419 N 0.61476 0.84126 0.61348 0.0
H1420 H 0.43337 0.37158 0.84948 0.0
H1421 H 0.34325 0.35293 0.87329 0.0
H1422 H 0.39951 0.40691 0.88155 0.0
H1423 H 0.37859 0.31891 0.90359 0.0
H1424 H 0.36344 0.37275 0.86571 0.0
H1425 H 0.41302 0.35183 0.85686 0.0
C1426 C 0.42163 0.37519 0.85745 0.0
C1427 C 0.4181 0.39089 0.86493 0.0
C1428 C 0.36675 0.36097 0.87431 0.0
C1429 C 0.39488 0.36842 0.87349 0.0
C1430 C 0.35525 0.34966 0.87869 0.0
C1431 C 0.35926 0.33428 0.88927 0.0
C1432 C 0.38239 0.35679 0.87957 0.0
C1433 C 0.375 0.33067 0.89578 0.0
C1434 C 0.41008 0.36392 0.8621 0.0
C1435 C 0.40272 0.39492 0.87562 0.0
N1436 N 0.38602 0.34182 0.89036 0.0
N1437 N 0.39166 0.38376 0.87943 0.0
H1438 H 0.84268 0.14789 0.13084 0.0
H1439 H 0.93255 0.12772 0.15068 0.0
H1440 H 0.87844 0.18138 0.09957 0.0
H1441 H 0.89796 0.093 0.11948 0.0
H1442 H 0.91252 0.14782 0.14422 0.0
H1443 H 0.86256 0.12772 0.13711 0.0
C1444 C 0.85471 0.15097 0.12494 0.0
C1445 C 0.85893 0.16631 0.1145 0.0
C1446 C 0.90934 0.13579 0.13896 0.0
C1447 C 0.88171 0.14339 0.12268 0.0
C1448 C 0.92071 0.12431 0.14308 0.0
C1449 C 0.91689 0.10868 0.1356 0.0
C1450 C 0.89402 0.13155 0.12808 0.0
C1451 C 0.90141 0.10492 0.1254 0.0
C1452 C 0.86603 0.13947 0.12857 0.0
C1453 C 0.87469 0.16967 0.10731 0.0
N1454 N 0.89052 0.11627 0.1221 0.0
N1455 N 0.88555 0.15833 0.11201 0.0
H1456 H 0.84341 0.64802 0.87159 0.0
H1457 H 0.93346 0.62918 0.84858 0.0
H1458 H 0.87875 0.68213 0.90112 0.0
H1459 H 0.89969 0.59406 0.88364 0.0
H1460 H 0.91311 0.64897 0.85517 0.0
H1461 H 0.86359 0.62814 0.86519 0.0
C1462 C 0.85541 0.65129 0.87708 0.0
C1463 C 0.85942 0.66672 0.88709 0.0
C1464 C 0.91019 0.63692 0.86124 0.0
C1465 C 0.88253 0.64414 0.87871 0.0
C1466 C 0.92173 0.62562 0.85705 0.0
C1467 C 0.91823 0.60997 0.86558 0.0
C1468 C 0.89501 0.63248 0.87322 0.0
C1469 C 0.90288 0.60601 0.87689 0.0
C1470 C 0.8669 0.63996 0.87338 0.0
C1471 C 0.87515 0.67034 0.89374 0.0
N1472 N 0.89182 0.61718 0.88021 0.0
N1473 N 0.88617 0.65915 0.88895 0.0
H1474 H 0.15614 0.14675 0.62691 0.0
H1475 H 0.06593 0.12862 0.65122 0.0
H1476 H 0.12102 0.18125 0.59931 0.0
H1477 H 0.09942 0.0933 0.61554 0.0
H1478 H 0.08643 0.14827 0.64487 0.0
H1479 H 0.1358 0.12704 0.63354 0.0
C1480 C 0.14415 0.15015 0.6219 0.0
C1481 C 0.14025 0.16563 0.61235 0.0
C1482 C 0.08926 0.1362 0.63863 0.0
C1483 C 0.11696 0.14324 0.62099 0.0
C1484 C 0.07763 0.12498 0.64268 0.0
C1485 C 0.081 0.10932 0.63387 0.0
C1486 C 0.1044 0.13167 0.6265 0.0
C1487 C 0.09632 0.10526 0.62249 0.0
C1488 C 0.13257 0.13891 0.62574 0.0
C1489 C 0.12453 0.16941 0.60632 0.0
N1490 N 0.10747 0.11635 0.61928 0.0
N1491 N 0.11343 0.15831 0.61121 0.0
H1492 H 0.56712 0.37186 0.34818 0.0
H1493 H 0.65702 0.35217 0.3708 0.0
H1494 H 0.60124 0.40653 0.38426 0.0
H1495 H 0.62139 0.31821 0.39873 0.0
H1496 H 0.637 0.37222 0.36487 0.0
H1497 H 0.58728 0.35185 0.35403 0.0
C1498 C 0.57888 0.37528 0.35671 0.0
C1499 C 0.58253 0.39086 0.36576 0.0
C1500 C 0.63359 0.3604 0.37259 0.0
C1501 C 0.60554 0.36811 0.37255 0.0
C1502 C 0.64498 0.34896 0.37602 0.0
C1503 C 0.64084 0.33353 0.38546 0.0
C1504 C 0.61791 0.35631 0.37764 0.0
C1505 C 0.62508 0.33 0.39179 0.0
C1506 C 0.59032 0.36386 0.36048 0.0
C1507 C 0.59793 0.39464 0.37713 0.0
N1508 N 0.61415 0.34129 0.38729 0.0
N1509 N 0.60888 0.38335 0.38004 0.0
H1510 H 0.36589 0.83102 0.04804 0.0
H1511 H 0.41924 0.88431 0.20426 0.0
H1512 H 0.3535 0.84066 0.19235 0.0
H1513 H 0.40816 0.8976 0.06166 0.0
H1514 H 0.39871 0.86449 0.20068 0.0
H1515 H 0.38529 0.85195 0.05176 0.0
C1516 C 0.36724 0.83756 0.08037 0.0
C1517 C 0.35805 0.83423 0.11983 0.0
C1518 C 0.40079 0.87184 0.17037 0.0
C1519 C 0.38034 0.85768 0.12466 0.0
C1520 C 0.41246 0.88308 0.17235 0.0
C1521 C 0.41528 0.89263 0.13333 0.0
C1522 C 0.39229 0.86987 0.1286 0.0
C1523 C 0.40623 0.89055 0.09269 0.0
C1524 C 0.37823 0.84947 0.08242 0.0
C1525 C 0.36026 0.84299 0.16099 0.0
N1526 N 0.39525 0.87925 0.09113 0.0
N1527 N 0.37133 0.8542 0.16257 0.0
H1528 H 0.90733 0.39795 0.56002 0.0
H1529 H 0.85162 0.34113 0.6971 0.0
H1530 H 0.91748 0.38461 0.70322 0.0
H1531 H 0.86475 0.33149 0.5534 0.0
H1532 H 0.87119 0.36177 0.69995 0.0
H1533 H 0.88696 0.37809 0.55716 0.0
C1534 C 0.90514 0.39096 0.59104 0.0
C1535 C 0.91406 0.3929 0.63198 0.0
C1536 C 0.86969 0.35516 0.66781 0.0
C1537 C 0.89074 0.37044 0.62897 0.0
C1538 C 0.8585 0.34349 0.66597 0.0
C1539 C 0.85659 0.33463 0.62488 0.0
C1540 C 0.87873 0.35825 0.62789 0.0
C1541 C 0.86591 0.33805 0.58573 0.0
C1542 C 0.89362 0.37961 0.58919 0.0
C1543 C 0.91086 0.38344 0.671 0.0
N1544 N 0.87652 0.34972 0.58803 0.0
N1545 N 0.89933 0.37268 0.66871 0.0
H1546 H 0.36594 0.17009 0.45537 0.0
H1547 H 0.41956 0.11681 0.29996 0.0
H1548 H 0.3537 0.16012 0.31115 0.0
H1549 H 0.40876 0.10382 0.44301 0.0
H1550 H 0.39888 0.13647 0.3033 0.0
H1551 H 0.38541 0.14923 0.45216 0.0
C1552 C 0.36732 0.16349 0.42318 0.0
C1553 C 0.35817 0.16672 0.38358 0.0
C1554 C 0.40105 0.12923 0.33377 0.0
C1555 C 0.38055 0.14335 0.37932 0.0
C1556 C 0.41281 0.11808 0.33193 0.0
C1557 C 0.41575 0.10865 0.37114 0.0
C1558 C 0.39258 0.13124 0.37558 0.0
C1559 C 0.40673 0.11077 0.41184 0.0
C1560 C 0.37837 0.15162 0.42141 0.0
C1561 C 0.36043 0.15787 0.34261 0.0
N1562 N 0.39567 0.12198 0.41326 0.0
N1563 N 0.37155 0.14671 0.3413 0.0
H1564 H 0.65697 0.64955 0.13374 0.0
H1565 H 0.56717 0.62917 0.15182 0.0
H1566 H 0.6213 0.68293 0.10071 0.0
H1567 H 0.60172 0.59456 0.11921 0.0
H1568 H 0.5872 0.64929 0.14576 0.0
H1569 H 0.63709 0.62933 0.1393 0.0
C1570 C 0.64496 0.65259 0.12732 0.0
C1571 C 0.64076 0.66791 0.11656 0.0
C1572 C 0.59037 0.63728 0.1401 0.0
C1573 C 0.61799 0.64495 0.12398 0.0
C1574 C 0.579 0.62579 0.14399 0.0
C1575 C 0.58281 0.61018 0.13601 0.0
C1576 C 0.60568 0.63308 0.129 0.0
C1577 C 0.59829 0.60646 0.12552 0.0
C1578 C 0.63365 0.64106 0.13053 0.0
C1579 C 0.62503 0.67123 0.10869 0.0
N1580 N 0.60917 0.61782 0.1225 0.0
N1581 N 0.61417 0.65986 0.11305 0.0
H1582 H 0.10251 0.90745 0.88147 0.0
H1583 H 0.12149 0.81743 0.90541 0.0
H1584 H 0.06852 0.87197 0.85224 0.0
H1585 H 0.15664 0.85134 0.87193 0.0
H1586 H 0.10166 0.83772 0.89844 0.0
H1587 H 0.12242 0.88734 0.88856 0.0
C1588 C 0.09927 0.89543 0.87618 0.0
C1589 C 0.08386 0.89136 0.86606 0.0
C1590 C 0.11373 0.84069 0.89281 0.0
C1591 C 0.10648 0.86832 0.87522 0.0
C1592 C 0.12505 0.82917 0.89722 0.0
C1593 C 0.14072 0.83273 0.88922 0.0
C1594 C 0.11817 0.85589 0.88111 0.0
C1595 C 0.14468 0.8481 0.87827 0.0
C1596 C 0.11062 0.88398 0.88029 0.0
C1597 C 0.08029 0.87561 0.85969 0.0
N1598 N 0.13348 0.85914 0.87468 0.0
N1599 N 0.09149 0.86463 0.86485 0.0
loop_
_geom_bond_atom_site_label_1
_geom_bond_atom_site_label_2
_geom_bond_distance
_geom_bond_site_symmetry_2
_ccdc_geom_bond_type
O0 Cd1 2.223 . S
O0 C8 1.315 . S
Cd1 O0 2.223 . S
Cd1 O4 2.297 . S
Cd1 O5 2.439 . S
Cd1 O11 2.240 . S
Cd2 O3 2.240 . S
Cd2 O10 2.223 . S
Cd2 O12 2.297 1_554 S
Cd2 O13 2.439 1_554 S
O3 Cd2 2.240 . S
O3 C8 1.279 . S
O4 Cd1 2.297 . S
O4 C6 1.247 . S
O5 Cd1 2.439 . S
O5 C6 1.208 . S
C6 O4 1.247 . S
C6 O5 1.208 . S
C7 O12 1.247 . S
C7 O13 1.208 . S
C8 O0 1.315 . S
C8 O3 1.279 . S
C9 O10 1.315 . S
C9 O11 1.279 . S
O10 Cd2 2.223 . S
O10 C9 1.315 . S
O11 Cd1 2.240 . S
O11 C9 1.279 . S
O12 Cd2 2.297 1_556 S
O12 C7 1.247 . S
O13 Cd2 2.439 1_556 S
O13 C7 1.208 . S
O14 Cd15 2.223 . S
O14 C22 1.315 . S
Cd15 O14 2.223 . S
Cd15 O18 2.297 . S
Cd15 O19 2.439 . S
Cd15 O25 2.240 . S
Cd16 O17 2.240 . S
Cd16 O24 2.223 . S
Cd16 O26 2.297 . S
Cd16 O27 2.439 . S
O17 Cd16 2.240 . S
O17 C22 1.279 . S
O18 Cd15 2.297 . S
O18 C20 1.247 . S
O19 Cd15 2.439 . S
O19 C20 1.208 . S
C20 O18 1.247 . S
C20 O19 1.208 . S
C21 O26 1.247 . S
C21 O27 1.208 . S
C22 O14 1.315 . S
C22 O17 1.279 . S
C23 O24 1.315 . S
C23 O25 1.279 . S
O24 Cd16 2.223 . S
O24 C23 1.315 . S
O25 Cd15 2.240 . S
O25 C23 1.279 . S
O26 Cd16 2.297 . S
O26 C21 1.247 . S
O27 Cd16 2.439 . S
O27 C21 1.208 . S
O28 Cd29 2.223 . S
O28 C36 1.315 . S
Cd29 O28 2.223 . S
Cd29 O32 2.297 . S
Cd29 O33 2.439 . S
Cd29 O39 2.240 . S
Cd30 O31 2.240 . S
Cd30 O38 2.223 . S
Cd30 O40 2.297 . S
Cd30 O41 2.439 . S
O31 Cd30 2.240 . S
O31 C36 1.279 . S
O32 Cd29 2.297 . S
O32 C34 1.247 . S
O33 Cd29 2.439 . S
O33 C34 1.208 . S
C34 O32 1.247 . S
C34 O33 1.208 . S
C35 O40 1.247 . S
C35 O41 1.208 . S
C36 O28 1.315 . S
C36 O31 1.279 . S
C37 O38 1.315 . S
C37 O39 1.279 . S
O38 Cd30 2.223 . S
O38 C37 1.315 . S
O39 Cd29 2.240 . S
O39 C37 1.279 . S
O40 Cd30 2.297 . S
O40 C35 1.247 . S
O41 Cd30 2.439 . S
O41 C35 1.208 . S
O42 Cd43 2.223 . S
O42 C50 1.315 . S
Cd43 O42 2.223 . S
Cd43 O46 2.297 . S
Cd43 O47 2.439 . S
Cd43 O53 2.240 . S
Cd44 O45 2.240 . S
Cd44 O52 2.223 . S
Cd44 O54 2.297 . S
Cd44 O55 2.439 . S
O45 Cd44 2.240 . S
O45 C50 1.279 . S
O46 Cd43 2.297 . S
O46 C48 1.247 . S
O47 Cd43 2.439 . S
O47 C48 1.208 . S
C48 O46 1.247 . S
C48 O47 1.208 . S
C49 O54 1.247 . S
C49 O55 1.208 . S
C50 O42 1.315 . S
C50 O45 1.279 . S
C51 O52 1.315 . S
C51 O53 1.279 . S
O52 Cd44 2.223 . S
O52 C51 1.315 . S
O53 Cd43 2.240 . S
O53 C51 1.279 . S
O54 Cd44 2.297 . S
O54 C49 1.247 . S
O55 Cd44 2.439 . S
O55 C49 1.208 . S
O56 Cd57 2.223 . S
O56 C64 1.315 . S
Cd57 O56 2.223 . S
Cd57 O60 2.297 . S
Cd57 O61 2.439 . S
Cd57 O67 2.240 . S
Cd58 O59 2.240 . S
Cd58 O66 2.223 . S
Cd58 O68 2.297 . S
Cd58 O69 2.439 . S
O59 Cd58 2.240 . S
O59 C64 1.279 . S
O60 Cd57 2.297 . S
O60 C62 1.247 . S
O61 Cd57 2.439 . S
O61 C62 1.208 . S
C62 O60 1.247 . S
C62 O61 1.208 . S
C63 O68 1.247 . S
C63 O69 1.208 . S
C64 O56 1.315 . S
C64 O59 1.279 . S
C65 O66 1.315 . S
C65 O67 1.279 . S
O66 Cd58 2.223 . S
O66 C65 1.315 . S
O67 Cd57 2.240 . S
O67 C65 1.279 . S
O68 Cd58 2.297 . S
O68 C63 1.247 . S
O69 Cd58 2.439 . S
O69 C63 1.208 . S
O70 Cd71 2.223 . S
O70 C78 1.315 . S
Cd71 O70 2.223 . S
Cd71 O74 2.297 . S
Cd71 O75 2.439 . S
Cd71 O81 2.240 . S
Cd72 O73 2.240 . S
Cd72 O80 2.223 . S
Cd72 O82 2.297 . S
Cd72 O83 2.439 . S
O73 Cd72 2.240 . S
O73 C78 1.279 . S
O74 Cd71 2.297 . S
O74 C76 1.247 . S
O75 Cd71 2.439 . S
O75 C76 1.208 . S
C76 O74 1.247 . S
C76 O75 1.208 . S
C77 O82 1.247 . S
C77 O83 1.208 . S
C78 O70 1.315 . S
C78 O73 1.279 . S
C79 O80 1.315 . S
C79 O81 1.279 . S
O80 Cd72 2.223 . S
O80 C79 1.315 . S
O81 Cd71 2.240 . S
O81 C79 1.279 . S
O82 Cd72 2.297 . S
O82 C77 1.247 . S
O83 Cd72 2.439 . S
O83 C77 1.208 . S
O84 Cd85 2.223 . S
O84 C92 1.315 . S
Cd85 O84 2.223 . S
Cd85 O88 2.297 . S
Cd85 O89 2.439 . S
Cd85 O95 2.240 . S
Cd86 O87 2.240 . S
Cd86 O94 2.223 . S
Cd86 O96 2.297 1_556 S
Cd86 O97 2.439 1_556 S
O87 Cd86 2.240 . S
O87 C92 1.279 . S
O88 Cd85 2.297 . S
O88 C90 1.247 . S
O89 Cd85 2.439 . S
O89 C90 1.208 . S
C90 O88 1.247 . S
C90 O89 1.208 . S
C91 O96 1.247 . S
C91 O97 1.208 . S
C92 O84 1.315 . S
C92 O87 1.279 . S
C93 O94 1.315 . S
C93 O95 1.279 . S
O94 Cd86 2.223 . S
O94 C93 1.315 . S
O95 Cd85 2.240 . S
O95 C93 1.279 . S
O96 Cd86 2.297 1_554 S
O96 C91 1.247 . S
O97 Cd86 2.439 1_554 S
O97 C91 1.208 . S
O98 Cd99 2.223 . S
O98 C106 1.315 . S
Cd99 O98 2.223 . S
Cd99 O102 2.297 . S
Cd99 O103 2.439 . S
Cd99 O109 2.240 . S
Cd100 O101 2.240 . S
Cd100 O108 2.223 . S
Cd100 O110 2.297 . S
Cd100 O111 2.439 . S
O101 Cd100 2.240 . S
O101 C106 1.279 . S
O102 Cd99 2.297 . S
O102 C104 1.247 . S
O103 Cd99 2.439 . S
O103 C104 1.208 . S
C104 O102 1.247 . S
C104 O103 1.208 . S
C105 O110 1.247 . S
C105 O111 1.208 . S
C106 O98 1.315 . S
C106 O101 1.279 . S
C107 O108 1.315 . S
C107 O109 1.279 . S
O108 Cd100 2.223 . S
O108 C107 1.315 . S
O109 Cd99 2.240 . S
O109 C107 1.279 . S
O110 Cd100 2.297 . S
O110 C105 1.247 . S
O111 Cd100 2.439 . S
O111 C105 1.208 . S
O112 Cd113 2.223 . S
O112 C120 1.315 . S
Cd113 O112 2.223 . S
Cd113 O116 2.297 . S
Cd113 O117 2.439 . S
Cd113 O123 2.240 . S
Cd114 O115 2.240 . S
Cd114 O122 2.223 . S
Cd114 O124 2.297 1_556 S
Cd114 O125 2.439 1_556 S
O115 Cd114 2.240 . S
O115 C120 1.279 . S
O116 Cd113 2.297 . S
O116 C118 1.247 . S
O117 Cd113 2.439 . S
O117 C118 1.208 . S
C118 O116 1.247 . S
C118 O117 1.208 . S
C119 O124 1.247 . S
C119 O125 1.208 . S
C120 O112 1.315 . S
C120 O115 1.279 . S
C121 O122 1.315 . S
C121 O123 1.279 . S
O122 Cd114 2.223 . S
O122 C121 1.315 . S
O123 Cd113 2.240 . S
O123 C121 1.279 . S
O124 Cd114 2.297 1_554 S
O124 C119 1.247 . S
O125 Cd114 2.439 1_554 S
O125 C119 1.208 . S
O126 Cd127 2.223 . S
O126 C134 1.315 . S
Cd127 O126 2.223 . S
Cd127 O130 2.297 . S
Cd127 O131 2.439 . S
Cd127 O137 2.240 . S
Cd128 O129 2.240 . S
Cd128 O136 2.223 . S
Cd128 O138 2.297 . S
Cd128 O139 2.439 . S
O129 Cd128 2.240 . S
O129 C134 1.279 . S
O130 Cd127 2.297 . S
O130 C132 1.247 . S
O131 Cd127 2.439 . S
O131 C132 1.208 . S
C132 O130 1.247 . S
C132 O131 1.208 . S
C133 O138 1.247 . S
C133 O139 1.208 . S
C134 O126 1.315 . S
C134 O129 1.279 . S
C135 O136 1.315 . S
C135 O137 1.279 . S
O136 Cd128 2.223 . S
O136 C135 1.315 . S
O137 Cd127 2.240 . S
O137 C135 1.279 . S
O138 Cd128 2.297 . S
O138 C133 1.247 . S
O139 Cd128 2.439 . S
O139 C133 1.208 . S
O140 Cd141 2.223 . S
O140 C148 1.315 . S
Cd141 O140 2.223 . S
Cd141 O144 2.297 . S
Cd141 O145 2.439 . S
Cd141 O151 2.240 . S
Cd142 O143 2.240 . S
Cd142 O150 2.223 . S
Cd142 O152 2.297 . S
Cd142 O153 2.439 . S
O143 Cd142 2.240 . S
O143 C148 1.279 . S
O144 Cd141 2.297 . S
O144 C146 1.247 . S
O145 Cd141 2.439 . S
O145 C146 1.208 . S
C146 O144 1.247 . S
C146 O145 1.208 . S
C147 O152 1.247 . S
C147 O153 1.208 . S
C148 O140 1.315 . S
C148 O143 1.279 . S
C149 O150 1.315 . S
C149 O151 1.279 . S
O150 Cd142 2.223 . S
O150 C149 1.315 . S
O151 Cd141 2.240 . S
O151 C149 1.279 . S
O152 Cd142 2.297 . S
O152 C147 1.247 . S
O153 Cd142 2.439 . S
O153 C147 1.208 . S
O154 Cd155 2.223 . S
O154 C162 1.315 . S
Cd155 O154 2.223 . S
Cd155 O158 2.297 . S
Cd155 O159 2.439 . S
Cd155 O165 2.240 . S
Cd156 O157 2.240 . S
Cd156 O164 2.223 . S
Cd156 O166 2.297 . S
Cd156 O167 2.439 . S
O157 Cd156 2.240 . S
O157 C162 1.279 . S
O158 Cd155 2.297 . S
O158 C160 1.247 . S
O159 Cd155 2.439 . S
O159 C160 1.208 . S
C160 O158 1.247 . S
C160 O159 1.208 . S
C161 O166 1.247 . S
C161 O167 1.208 . S
C162 O154 1.315 . S
C162 O157 1.279 . S
C163 O164 1.315 . S
C163 O165 1.279 . S
O164 Cd156 2.223 . S
O164 C163 1.315 . S
O165 Cd155 2.240 . S
O165 C163 1.279 . S
O166 Cd156 2.297 . S
O166 C161 1.247 . S
O167 Cd156 2.439 . S
O167 C161 1.208 . S
O168 Cd169 2.223 . S
O168 C176 1.315 . S
Cd169 O168 2.223 . S
Cd169 O172 2.297 . S
Cd169 O173 2.439 . S
Cd169 O179 2.240 . S
Cd170 O171 2.240 . S
Cd170 O178 2.223 . S
Cd170 O180 2.297 . S
Cd170 O181 2.439 . S
O171 Cd170 2.240 . S
O171 C176 1.279 . S
O172 Cd169 2.297 . S
O172 C174 1.247 . S
O173 Cd169 2.439 . S
O173 C174 1.208 . S
C174 O172 1.247 . S
C174 O173 1.208 . S
C175 O180 1.247 . S
C175 O181 1.208 . S
C176 O168 1.315 . S
C176 O171 1.279 . S
C177 O178 1.315 . S
C177 O179 1.279 . S
O178 Cd170 2.223 . S
O178 C177 1.315 . S
O179 Cd169 2.240 . S
O179 C177 1.279 . S
O180 Cd170 2.297 . S
O180 C175 1.247 . S
O181 Cd170 2.439 . S
O181 C175 1.208 . S
O182 Cd183 2.223 . S
O182 C190 1.315 . S
Cd183 O182 2.223 . S
Cd183 O186 2.297 . S
Cd183 O187 2.439 . S
Cd183 O193 2.240 . S
Cd184 O185 2.240 . S
Cd184 O192 2.223 . S
Cd184 O194 2.297 . S
Cd184 O195 2.439 . S
O185 Cd184 2.240 . S
O185 C190 1.279 . S
O186 Cd183 2.297 . S
O186 C188 1.247 . S
O187 Cd183 2.439 . S
O187 C188 1.208 . S
C188 O186 1.247 . S
C188 O187 1.208 . S
C189 O194 1.247 . S
C189 O195 1.208 . S
C190 O182 1.315 . S
C190 O185 1.279 . S
C191 O192 1.315 . S
C191 O193 1.279 . S
O192 Cd184 2.223 . S
O192 C191 1.315 . S
O193 Cd183 2.240 . S
O193 C191 1.279 . S
O194 Cd184 2.297 . S
O194 C189 1.247 . S
O195 Cd184 2.439 . S
O195 C189 1.208 . S
O196 Cd197 2.223 . S
O196 C204 1.315 . S
Cd197 O196 2.223 . S
Cd197 O200 2.297 . S
Cd197 O201 2.439 . S
Cd197 O207 2.240 . S
Cd198 O199 2.240 . S
Cd198 O206 2.223 . S
Cd198 O208 2.297 1_554 S
Cd198 O209 2.439 1_554 S
O199 Cd198 2.240 . S
O199 C204 1.279 . S
O200 Cd197 2.297 . S
O200 C202 1.247 . S
O201 Cd197 2.439 . S
O201 C202 1.208 . S
C202 O200 1.247 . S
C202 O201 1.208 . S
C203 O208 1.247 . S
C203 O209 1.208 . S
C204 O196 1.315 . S
C204 O199 1.279 . S
C205 O206 1.315 . S
C205 O207 1.279 . S
O206 Cd198 2.223 . S
O206 C205 1.315 . S
O207 Cd197 2.240 . S
O207 C205 1.279 . S
O208 Cd198 2.297 1_556 S
O208 C203 1.247 . S
O209 Cd198 2.439 1_556 S
O209 C203 1.208 . S
O210 Cd211 2.223 . S
O210 C218 1.315 . S
Cd211 O210 2.223 . S
Cd211 O214 2.297 . S
Cd211 O215 2.439 . S
Cd211 O221 2.240 . S
Cd212 O213 2.240 . S
Cd212 O220 2.223 . S
Cd212 O222 2.297 . S
Cd212 O223 2.439 . S
O213 Cd212 2.240 . S
O213 C218 1.279 . S
O214 Cd211 2.297 . S
O214 C216 1.247 . S
O215 Cd211 2.439 . S
O215 C216 1.208 . S
C216 O214 1.247 . S
C216 O215 1.208 . S
C217 O222 1.247 . S
C217 O223 1.208 . S
C218 O210 1.315 . S
C218 O213 1.279 . S
C219 O220 1.315 . S
C219 O221 1.279 . S
O220 Cd212 2.223 . S
O220 C219 1.315 . S
O221 Cd211 2.240 . S
O221 C219 1.279 . S
O222 Cd212 2.297 . S
O222 C217 1.247 . S
O223 Cd212 2.439 . S
O223 C217 1.208 . S
O224 Cd225 2.223 . S
O224 C232 1.315 . S
Cd225 O224 2.223 . S
Cd225 O228 2.297 . S
Cd225 O229 2.439 . S
Cd225 O235 2.240 . S
Cd226 O227 2.240 . S
Cd226 O234 2.223 . S
Cd226 O236 2.297 . S
Cd226 O237 2.439 . S
O227 Cd226 2.240 . S
O227 C232 1.279 . S
O228 Cd225 2.297 . S
O228 C230 1.247 . S
O229 Cd225 2.439 . S
O229 C230 1.208 . S
C230 O228 1.247 . S
C230 O229 1.208 . S
C231 O236 1.247 . S
C231 O237 1.208 . S
C232 O224 1.315 . S
C232 O227 1.279 . S
C233 O234 1.315 . S
C233 O235 1.279 . S
O234 Cd226 2.223 . S
O234 C233 1.315 . S
O235 Cd225 2.240 . S
O235 C233 1.279 . S
O236 Cd226 2.297 . S
O236 C231 1.247 . S
O237 Cd226 2.439 . S
O237 C231 1.208 . S
O238 Cd239 2.223 . S
O238 C246 1.315 . S
Cd239 O238 2.223 . S
Cd239 O242 2.297 . S
Cd239 O243 2.439 . S
Cd239 O249 2.240 . S
Cd240 O241 2.240 . S
Cd240 O248 2.223 . S
Cd240 O250 2.297 . S
Cd240 O251 2.439 . S
O241 Cd240 2.240 . S
O241 C246 1.279 . S
O242 Cd239 2.297 . S
O242 C244 1.247 . S
O243 Cd239 2.439 . S
O243 C244 1.208 . S
C244 O242 1.247 . S
C244 O243 1.208 . S
C245 O250 1.247 . S
C245 O251 1.208 . S
C246 O238 1.315 . S
C246 O241 1.279 . S
C247 O248 1.315 . S
C247 O249 1.279 . S
O248 Cd240 2.223 . S
O248 C247 1.315 . S
O249 Cd239 2.240 . S
O249 C247 1.279 . S
O250 Cd240 2.297 . S
O250 C245 1.247 . S
O251 Cd240 2.439 . S
O251 C245 1.208 . S
O252 Cd253 2.223 . S
O252 C260 1.315 . S
Cd253 O252 2.223 . S
Cd253 O256 2.297 . S
Cd253 O257 2.439 . S
Cd253 O263 2.240 . S
Cd254 O255 2.240 . S
Cd254 O262 2.223 . S
Cd254 O264 2.297 1_554 S
Cd254 O265 2.439 1_554 S
O255 Cd254 2.240 . S
O255 C260 1.279 . S
O256 Cd253 2.297 . S
O256 C258 1.247 . S
O257 Cd253 2.439 . S
O257 C258 1.208 . S
C258 O256 1.247 . S
C258 O257 1.208 . S
C259 O264 1.247 . S
C259 O265 1.208 . S
C260 O252 1.315 . S
C260 O255 1.279 . S
C261 O262 1.315 . S
C261 O263 1.279 . S
O262 Cd254 2.223 . S
O262 C261 1.315 . S
O263 Cd253 2.240 . S
O263 C261 1.279 . S
O264 Cd254 2.297 1_556 S
O264 C259 1.247 . S
O265 Cd254 2.439 1_556 S
O265 C259 1.208 . S
O266 Cd267 2.223 . S
O266 C274 1.315 . S
Cd267 O266 2.223 . S
Cd267 O270 2.297 . S
Cd267 O271 2.439 . S
Cd267 O277 2.240 . S
Cd268 O269 2.240 . S
Cd268 O276 2.223 . S
Cd268 O278 2.297 . S
Cd268 O279 2.439 . S
O269 Cd268 2.240 . S
O269 C274 1.279 . S
O270 Cd267 2.297 . S
O270 C272 1.247 . S
O271 Cd267 2.439 . S
O271 C272 1.208 . S
C272 O270 1.247 . S
C272 O271 1.208 . S
C273 O278 1.247 . S
C273 O279 1.208 . S
C274 O266 1.315 . S
C274 O269 1.279 . S
C275 O276 1.315 . S
C275 O277 1.279 . S
O276 Cd268 2.223 . S
O276 C275 1.315 . S
O277 Cd267 2.240 . S
O277 C275 1.279 . S
O278 Cd268 2.297 . S
O278 C273 1.247 . S
O279 Cd268 2.439 . S
O279 C273 1.208 . S
O280 Cd281 2.223 . S
O280 C288 1.315 . S
Cd281 O280 2.223 . S
Cd281 O284 2.297 . S
Cd281 O285 2.439 . S
Cd281 O291 2.240 . S
Cd282 O283 2.240 . S
Cd282 O290 2.223 . S
Cd282 O292 2.297 1_556 S
Cd282 O293 2.439 1_556 S
O283 Cd282 2.240 . S
O283 C288 1.279 . S
O284 Cd281 2.297 . S
O284 C286 1.247 . S
O285 Cd281 2.439 . S
O285 C286 1.208 . S
C286 O284 1.247 . S
C286 O285 1.208 . S
C287 O292 1.247 . S
C287 O293 1.208 . S
C288 O280 1.315 . S
C288 O283 1.279 . S
C289 O290 1.315 . S
C289 O291 1.279 . S
O290 Cd282 2.223 . S
O290 C289 1.315 . S
O291 Cd281 2.240 . S
O291 C289 1.279 . S
O292 Cd282 2.297 1_554 S
O292 C287 1.247 . S
O293 Cd282 2.439 1_554 S
O293 C287 1.208 . S
O294 Cd295 2.223 . S
O294 C302 1.315 . S
Cd295 O294 2.223 . S
Cd295 O298 2.297 . S
Cd295 O299 2.439 . S
Cd295 O305 2.240 . S
Cd296 O297 2.240 . S
Cd296 O304 2.223 . S
Cd296 O306 2.297 . S
Cd296 O307 2.439 . S
O297 Cd296 2.240 . S
O297 C302 1.279 . S
O298 Cd295 2.297 . S
O298 C300 1.247 . S
O299 Cd295 2.439 . S
O299 C300 1.208 . S
C300 O298 1.247 . S
C300 O299 1.208 . S
C301 O306 1.247 . S
C301 O307 1.208 . S
C302 O294 1.315 . S
C302 O297 1.279 . S
C303 O304 1.315 . S
C303 O305 1.279 . S
O304 Cd296 2.223 . S
O304 C303 1.315 . S
O305 Cd295 2.240 . S
O305 C303 1.279 . S
O306 Cd296 2.297 . S
O306 C301 1.247 . S
O307 Cd296 2.439 . S
O307 C301 1.208 . S
O308 Cd309 2.223 . S
O308 C316 1.315 . S
Cd309 O308 2.223 . S
Cd309 O312 2.297 . S
Cd309 O313 2.439 . S
Cd309 O319 2.240 . S
Cd310 O311 2.240 . S
Cd310 O318 2.223 . S
Cd310 O320 2.297 . S
Cd310 O321 2.439 . S
O311 Cd310 2.240 . S
O311 C316 1.279 . S
O312 Cd309 2.297 . S
O312 C314 1.247 . S
O313 Cd309 2.439 . S
O313 C314 1.208 . S
C314 O312 1.247 . S
C314 O313 1.208 . S
C315 O320 1.247 . S
C315 O321 1.208 . S
C316 O308 1.315 . S
C316 O311 1.279 . S
C317 O318 1.315 . S
C317 O319 1.279 . S
O318 Cd310 2.223 . S
O318 C317 1.315 . S
O319 Cd309 2.240 . S
O319 C317 1.279 . S
O320 Cd310 2.297 . S
O320 C315 1.247 . S
O321 Cd310 2.439 . S
O321 C315 1.208 . S
O322 Cd323 2.223 . S
O322 C330 1.315 . S
Cd323 O322 2.223 . S
Cd323 O326 2.297 . S
Cd323 O327 2.439 . S
Cd323 O333 2.240 . S
Cd324 O325 2.240 . S
Cd324 O332 2.223 . S
Cd324 O334 2.297 . S
Cd324 O335 2.439 . S
O325 Cd324 2.240 . S
O325 C330 1.279 . S
O326 Cd323 2.297 . S
O326 C328 1.247 . S
O327 Cd323 2.439 . S
O327 C328 1.208 . S
C328 O326 1.247 . S
C328 O327 1.208 . S
C329 O334 1.247 . S
C329 O335 1.208 . S
C330 O322 1.315 . S
C330 O325 1.279 . S
C331 O332 1.315 . S
C331 O333 1.279 . S
O332 Cd324 2.223 . S
O332 C331 1.315 . S
O333 Cd323 2.240 . S
O333 C331 1.279 . S
O334 Cd324 2.297 . S
O334 C329 1.247 . S
O335 Cd324 2.439 . S
O335 C329 1.208 . S
O336 Cd337 2.223 . S
O336 C344 1.315 . S
Cd337 O336 2.223 . S
Cd337 O340 2.297 . S
Cd337 O341 2.439 . S
Cd337 O347 2.240 . S
Cd338 O339 2.240 . S
Cd338 O346 2.223 . S
Cd338 O348 2.297 . S
Cd338 O349 2.439 . S
O339 Cd338 2.240 . S
O339 C344 1.279 . S
O340 Cd337 2.297 . S
O340 C342 1.247 . S
O341 Cd337 2.439 . S
O341 C342 1.208 . S
C342 O340 1.247 . S
C342 O341 1.208 . S
C343 O348 1.247 . S
C343 O349 1.208 . S
C344 O336 1.315 . S
C344 O339 1.279 . S
C345 O346 1.315 . S
C345 O347 1.279 . S
O346 Cd338 2.223 . S
O346 C345 1.315 . S
O347 Cd337 2.240 . S
O347 C345 1.279 . S
O348 Cd338 2.297 . S
O348 C343 1.247 . S
O349 Cd338 2.439 . S
O349 C343 1.208 . S
O350 Cd351 2.223 . S
O350 C358 1.315 . S
Cd351 O350 2.223 . S
Cd351 O354 2.297 . S
Cd351 O355 2.439 . S
Cd351 O361 2.240 . S
Cd352 O353 2.240 . S
Cd352 O360 2.223 . S
Cd352 O362 2.297 . S
Cd352 O363 2.439 . S
O353 Cd352 2.240 . S
O353 C358 1.279 . S
O354 Cd351 2.297 . S
O354 C356 1.247 . S
O355 Cd351 2.439 . S
O355 C356 1.208 . S
C356 O354 1.247 . S
C356 O355 1.208 . S
C357 O362 1.247 . S
C357 O363 1.208 . S
C358 O350 1.315 . S
C358 O353 1.279 . S
C359 O360 1.315 . S
C359 O361 1.279 . S
O360 Cd352 2.223 . S
O360 C359 1.315 . S
O361 Cd351 2.240 . S
O361 C359 1.279 . S
O362 Cd352 2.297 . S
O362 C357 1.247 . S
O363 Cd352 2.439 . S
O363 C357 1.208 . S
O364 Cd365 2.223 . S
O364 C372 1.315 . S
Cd365 O364 2.223 . S
Cd365 O368 2.297 . S
Cd365 O369 2.439 . S
Cd365 O375 2.240 . S
Cd366 O367 2.240 . S
Cd366 O374 2.223 . S
Cd366 O376 2.297 1_556 S
Cd366 O377 2.439 1_556 S
O367 Cd366 2.240 . S
O367 C372 1.279 . S
O368 Cd365 2.297 . S
O368 C370 1.247 . S
O369 Cd365 2.439 . S
O369 C370 1.208 . S
C370 O368 1.247 . S
C370 O369 1.208 . S
C371 O376 1.247 . S
C371 O377 1.208 . S
C372 O364 1.315 . S
C372 O367 1.279 . S
C373 O374 1.315 . S
C373 O375 1.279 . S
O374 Cd366 2.223 . S
O374 C373 1.315 . S
O375 Cd365 2.240 . S
O375 C373 1.279 . S
O376 Cd366 2.297 1_554 S
O376 C371 1.247 . S
O377 Cd366 2.439 1_554 S
O377 C371 1.208 . S
O378 Cd379 2.223 . S
O378 C386 1.315 . S
Cd379 O378 2.223 . S
Cd379 O382 2.297 . S
Cd379 O383 2.439 . S
Cd379 O389 2.240 . S
Cd380 O381 2.240 . S
Cd380 O388 2.223 . S
Cd380 O390 2.297 . S
Cd380 O391 2.439 . S
O381 Cd380 2.240 . S
O381 C386 1.279 . S
O382 Cd379 2.297 . S
O382 C384 1.247 . S
O383 Cd379 2.439 . S
O383 C384 1.208 . S
C384 O382 1.247 . S
C384 O383 1.208 . S
C385 O390 1.247 . S
C385 O391 1.208 . S
C386 O378 1.315 . S
C386 O381 1.279 . S
C387 O388 1.315 . S
C387 O389 1.279 . S
O388 Cd380 2.223 . S
O388 C387 1.315 . S
O389 Cd379 2.240 . S
O389 C387 1.279 . S
O390 Cd380 2.297 . S
O390 C385 1.247 . S
O391 Cd380 2.439 . S
O391 C385 1.208 . S
O392 Cd393 2.223 . S
O392 C400 1.315 . S
Cd393 O392 2.223 . S
Cd393 O396 2.297 . S
Cd393 O397 2.439 . S
Cd393 O403 2.240 . S
Cd394 O395 2.240 . S
Cd394 O402 2.223 . S
Cd394 O404 2.297 1_554 S
Cd394 O405 2.439 1_554 S
O395 Cd394 2.240 . S
O395 C400 1.279 . S
O396 Cd393 2.297 . S
O396 C398 1.247 . S
O397 Cd393 2.439 . S
O397 C398 1.208 . S
C398 O396 1.247 . S
C398 O397 1.208 . S
C399 O404 1.247 . S
C399 O405 1.208 . S
C400 O392 1.315 . S
C400 O395 1.279 . S
C401 O402 1.315 . S
C401 O403 1.279 . S
O402 Cd394 2.223 . S
O402 C401 1.315 . S
O403 Cd393 2.240 . S
O403 C401 1.279 . S
O404 Cd394 2.297 1_556 S
O404 C399 1.247 . S
O405 Cd394 2.439 1_556 S
O405 C399 1.208 . S
O406 Cd407 2.223 . S
O406 C414 1.315 . S
Cd407 O406 2.223 . S
Cd407 O410 2.297 . S
Cd407 O411 2.439 . S
Cd407 O417 2.240 . S
Cd408 O409 2.240 . S
Cd408 O416 2.223 . S
Cd408 O418 2.297 . S
Cd408 O419 2.439 . S
O409 Cd408 2.240 . S
O409 C414 1.279 . S
O410 Cd407 2.297 . S
O410 C412 1.247 . S
O411 Cd407 2.439 . S
O411 C412 1.208 . S
C412 O410 1.247 . S
C412 O411 1.208 . S
C413 O418 1.247 . S
C413 O419 1.208 . S
C414 O406 1.315 . S
C414 O409 1.279 . S
C415 O416 1.315 . S
C415 O417 1.279 . S
O416 Cd408 2.223 . S
O416 C415 1.315 . S
O417 Cd407 2.240 . S
O417 C415 1.279 . S
O418 Cd408 2.297 . S
O418 C413 1.247 . S
O419 Cd408 2.439 . S
O419 C413 1.208 . S
O420 Cd421 2.223 . S
O420 C428 1.315 . S
Cd421 O420 2.223 . S
Cd421 O424 2.297 . S
Cd421 O425 2.439 . S
Cd421 O431 2.240 . S
Cd422 O423 2.240 . S
Cd422 O430 2.223 . S
Cd422 O432 2.297 . S
Cd422 O433 2.439 . S
O423 Cd422 2.240 . S
O423 C428 1.279 . S
O424 Cd421 2.297 . S
O424 C426 1.247 . S
O425 Cd421 2.439 . S
O425 C426 1.208 . S
C426 O424 1.247 . S
C426 O425 1.208 . S
C427 O432 1.247 . S
C427 O433 1.208 . S
C428 O420 1.315 . S
C428 O423 1.279 . S
C429 O430 1.315 . S
C429 O431 1.279 . S
O430 Cd422 2.223 . S
O430 C429 1.315 . S
O431 Cd421 2.240 . S
O431 C429 1.279 . S
O432 Cd422 2.297 . S
O432 C427 1.247 . S
O433 Cd422 2.439 . S
O433 C427 1.208 . S
O434 Cd435 2.223 . S
O434 C442 1.315 . S
Cd435 O434 2.223 . S
Cd435 O438 2.297 . S
Cd435 O439 2.439 . S
Cd435 O445 2.240 . S
Cd436 O437 2.240 . S
Cd436 O444 2.223 . S
Cd436 O446 2.297 . S
Cd436 O447 2.439 . S
O437 Cd436 2.240 . S
O437 C442 1.279 . S
O438 Cd435 2.297 . S
O438 C440 1.247 . S
O439 Cd435 2.439 . S
O439 C440 1.208 . S
C440 O438 1.247 . S
C440 O439 1.208 . S
C441 O446 1.247 . S
C441 O447 1.208 . S
C442 O434 1.315 . S
C442 O437 1.279 . S
C443 O444 1.315 . S
C443 O445 1.279 . S
O444 Cd436 2.223 . S
O444 C443 1.315 . S
O445 Cd435 2.240 . S
O445 C443 1.279 . S
O446 Cd436 2.297 . S
O446 C441 1.247 . S
O447 Cd436 2.439 . S
O447 C441 1.208 . S
H448 C454 0.930 . S
H449 C458 0.930 . S
H450 C463 0.929 . S
H451 C461 0.929 . S
H452 C456 0.929 . S
H453 C462 0.929 . S
C454 H448 0.930 . S
C454 C455 1.367 . S
C454 C462 1.378 . S
C455 C454 1.367 . S
C455 C463 1.433 1_556 S
C456 H452 0.929 . S
C456 C458 1.378 . S
C456 C460 1.350 . S
C457 C460 1.463 1_556 S
C457 C462 1.350 . S
C457 N465 1.427 1_556 S
C458 H449 0.930 . S
C458 C456 1.378 . S
C458 C459 1.367 . S
C459 C458 1.367 . S
C459 C461 1.433 1_554 S
C460 C456 1.350 . S
C460 C457 1.463 1_554 S
C460 N464 1.427 1_554 S
C461 H451 0.929 . S
C461 C459 1.433 1_556 S
C461 N464 1.384 . S
C462 H453 0.929 . S
C462 C454 1.378 . S
C462 C457 1.350 . S
C463 H450 0.929 . S
C463 C455 1.433 1_554 S
C463 N465 1.384 . S
N464 C460 1.427 1_556 S
N464 C461 1.384 . S
N465 C457 1.427 1_554 S
N465 C463 1.384 . S
H466 C472 0.930 . S
H467 C476 0.930 . S
H468 C481 0.929 . S
H469 C479 0.929 . S
H470 C474 0.929 . S
H471 C480 0.929 . S
C472 H466 0.930 . S
C472 C473 1.367 . S
C472 C480 1.378 . S
C473 C472 1.367 . S
C473 C481 1.433 . S
C474 H470 0.929 . S
C474 C476 1.378 . S
C474 C478 1.350 . S
C475 C478 1.463 1_565 S
C475 C480 1.350 . S
C475 N483 1.427 . S
C476 H467 0.930 . S
C476 C474 1.378 . S
C476 C477 1.367 . S
C477 C476 1.367 . S
C477 C479 1.433 . S
C478 C474 1.350 . S
C478 C475 1.463 1_545 S
C478 N482 1.427 . S
C479 H469 0.929 . S
C479 C477 1.433 . S
C479 N482 1.384 . S
C480 H471 0.929 . S
C480 C472 1.378 . S
C480 C475 1.350 . S
C481 H468 0.929 . S
C481 C473 1.433 . S
C481 N483 1.384 . S
N482 C478 1.427 . S
N482 C479 1.384 . S
N483 C475 1.427 . S
N483 C481 1.384 . S
H484 C490 0.930 . S
H485 C494 0.930 . S
H486 C499 0.929 . S
H487 C497 0.929 . S
H488 C492 0.929 . S
H489 C498 0.929 . S
C490 H484 0.930 . S
C490 C491 1.367 . S
C490 C498 1.378 . S
C491 C490 1.367 . S
C491 C499 1.433 . S
C492 H488 0.929 . S
C492 C494 1.378 . S
C492 C496 1.350 . S
C493 C496 1.463 . S
C493 C498 1.350 . S
C493 N501 1.427 . S
C494 H485 0.930 . S
C494 C492 1.378 . S
C494 C495 1.367 . S
C495 C494 1.367 . S
C495 C497 1.433 . S
C496 C492 1.350 . S
C496 C493 1.463 . S
C496 N500 1.427 . S
C497 H487 0.929 . S
C497 C495 1.433 . S
C497 N500 1.384 . S
C498 H489 0.929 . S
C498 C490 1.378 . S
C498 C493 1.350 . S
C499 H486 0.929 . S
C499 C491 1.433 . S
C499 N501 1.384 . S
N500 C496 1.427 . S
N500 C497 1.384 . S
N501 C493 1.427 . S
N501 C499 1.384 . S
H502 C508 0.930 . S
H503 C512 0.930 . S
H504 C517 0.929 . S
H505 C515 0.929 . S
H506 C510 0.929 . S
H507 C516 0.929 . S
C508 H502 0.930 . S
C508 C509 1.367 . S
C508 C516 1.378 . S
C509 C508 1.367 . S
C509 C517 1.433 . S
C510 H506 0.929 . S
C510 C512 1.378 . S
C510 C514 1.350 . S
C511 C514 1.463 1_545 S
C511 C516 1.350 . S
C511 N519 1.427 . S
C512 H503 0.930 . S
C512 C510 1.378 . S
C512 C513 1.367 . S
C513 C512 1.367 . S
C513 C515 1.433 . S
C514 C510 1.350 . S
C514 C511 1.463 1_565 S
C514 N518 1.427 . S
C515 H505 0.929 . S
C515 C513 1.433 . S
C515 N518 1.384 . S
C516 H507 0.929 . S
C516 C508 1.378 . S
C516 C511 1.350 . S
C517 H504 0.929 . S
C517 C509 1.433 . S
C517 N519 1.384 . S
N518 C514 1.427 . S
N518 C515 1.384 . S
N519 C511 1.427 . S
N519 C517 1.384 . S
H520 C526 0.930 . S
H521 C530 0.930 . S
H522 C535 0.929 . S
H523 C533 0.929 . S
H524 C528 0.929 . S
H525 C534 0.929 . S
C526 H520 0.930 . S
C526 C527 1.367 . S
C526 C534 1.378 1_554 S
C527 C526 1.367 . S
C527 C535 1.433 . S
C528 H524 0.929 . S
C528 C530 1.378 1_554 S
C528 C532 1.350 1_554 S
C529 C532 1.463 1_554 S
C529 C534 1.350 1_554 S
C529 N537 1.427 . S
C530 H521 0.930 . S
C530 C528 1.378 1_556 S
C530 C531 1.367 . S
C531 C530 1.367 . S
C531 C533 1.433 . S
C532 C528 1.350 1_556 S
C532 C529 1.463 1_556 S
C532 N536 1.427 . S
C533 H523 0.929 . S
C533 C531 1.433 . S
C533 N536 1.384 . S
C534 H525 0.929 . S
C534 C526 1.378 1_556 S
C534 C529 1.350 1_556 S
C535 H522 0.929 . S
C535 C527 1.433 . S
C535 N537 1.384 . S
N536 C532 1.427 . S
N536 C533 1.384 . S
N537 C529 1.427 . S
N537 C535 1.384 . S
H538 C544 0.930 . S
H539 C548 0.930 . S
H540 C553 0.929 . S
H541 C551 0.929 . S
H542 C546 0.929 . S
H543 C552 0.929 . S
C544 H538 0.930 . S
C544 C545 1.367 . S
C544 C552 1.378 . S
C545 C544 1.367 . S
C545 C553 1.433 . S
C546 H542 0.929 . S
C546 C548 1.378 . S
C546 C550 1.350 . S
C547 C550 1.463 1_565 S
C547 C552 1.350 . S
C547 N555 1.427 . S
C548 H539 0.930 . S
C548 C546 1.378 . S
C548 C549 1.367 . S
C549 C548 1.367 . S
C549 C551 1.433 . S
C550 C546 1.350 . S
C550 C547 1.463 1_545 S
C550 N554 1.427 . S
C551 H541 0.929 . S
C551 C549 1.433 . S
C551 N554 1.384 . S
C552 H543 0.929 . S
C552 C544 1.378 . S
C552 C547 1.350 . S
C553 H540 0.929 . S
C553 C545 1.433 . S
C553 N555 1.384 . S
N554 C550 1.427 . S
N554 C551 1.384 . S
N555 C547 1.427 . S
N555 C553 1.384 . S
H556 C562 0.930 . S
H557 C566 0.930 . S
H558 C571 0.929 . S
H559 C569 0.929 . S
H560 C564 0.929 . S
H561 C570 0.929 . S
C562 H556 0.930 . S
C562 C563 1.367 . S
C562 C570 1.378 . S
C563 C562 1.367 . S
C563 C571 1.433 . S
C564 H560 0.929 . S
C564 C566 1.378 . S
C564 C568 1.350 . S
C565 C568 1.463 . S
C565 C570 1.350 . S
C565 N573 1.427 . S
C566 H557 0.930 . S
C566 C564 1.378 . S
C566 C567 1.367 . S
C567 C566 1.367 . S
C567 C569 1.433 . S
C568 C564 1.350 . S
C568 C565 1.463 . S
C568 N572 1.427 . S
C569 H559 0.929 . S
C569 C567 1.433 . S
C569 N572 1.384 . S
C570 H561 0.929 . S
C570 C562 1.378 . S
C570 C565 1.350 . S
C571 H558 0.929 . S
C571 C563 1.433 . S
C571 N573 1.384 . S
N572 C568 1.427 . S
N572 C569 1.384 . S
N573 C565 1.427 . S
N573 C571 1.384 . S
H574 C580 0.930 . S
H575 C584 0.930 . S
H576 C589 0.929 . S
H577 C587 0.929 . S
H578 C582 0.929 . S
H579 C588 0.929 . S
C580 H574 0.930 . S
C580 C581 1.367 . S
C580 C588 1.378 . S
C581 C580 1.367 . S
C581 C589 1.433 . S
C582 H578 0.929 . S
C582 C584 1.378 . S
C582 C586 1.350 . S
C583 C586 1.463 1_565 S
C583 C588 1.350 . S
C583 N591 1.427 . S
C584 H575 0.930 . S
C584 C582 1.378 . S
C584 C585 1.367 . S
C585 C584 1.367 . S
C585 C587 1.433 . S
C586 C582 1.350 . S
C586 C583 1.463 1_545 S
C586 N590 1.427 . S
C587 H577 0.929 . S
C587 C585 1.433 . S
C587 N590 1.384 . S
C588 H579 0.929 . S
C588 C580 1.378 . S
C588 C583 1.350 . S
C589 H576 0.929 . S
C589 C581 1.433 . S
C589 N591 1.384 . S
N590 C586 1.427 . S
N590 C587 1.384 . S
N591 C583 1.427 . S
N591 C589 1.384 . S
H592 C598 0.930 . S
H593 C602 0.930 . S
H594 C607 0.929 . S
H595 C605 0.929 . S
H596 C600 0.929 . S
H597 C606 0.929 . S
C598 H592 0.930 . S
C598 C599 1.367 . S
C598 C606 1.378 . S
C599 C598 1.367 . S
C599 C607 1.433 . S
C600 H596 0.929 . S
C600 C602 1.378 . S
C600 C604 1.350 . S
C601 C604 1.463 . S
C601 C606 1.350 . S
C601 N609 1.427 . S
C602 H593 0.930 . S
C602 C600 1.378 . S
C602 C603 1.367 . S
C603 C602 1.367 . S
C603 C605 1.433 . S
C604 C600 1.350 . S
C604 C601 1.463 . S
C604 N608 1.427 . S
C605 H595 0.929 . S
C605 C603 1.433 . S
C605 N608 1.384 . S
C606 H597 0.929 . S
C606 C598 1.378 . S
C606 C601 1.350 . S
C607 H594 0.929 . S
C607 C599 1.433 . S
C607 N609 1.384 . S
N608 C604 1.427 . S
N608 C605 1.384 . S
N609 C601 1.427 . S
N609 C607 1.384 . S
H610 C616 0.930 . S
H611 C620 0.930 . S
H612 C625 0.929 . S
H613 C623 0.929 . S
H614 C618 0.929 . S
H615 C624 0.929 . S
C616 H610 0.930 . S
C616 C617 1.367 . S
C616 C624 1.378 . S
C617 C616 1.367 . S
C617 C625 1.433 . S
C618 H614 0.929 . S
C618 C620 1.378 . S
C618 C622 1.350 . S
C619 C622 1.463 . S
C619 C624 1.350 . S
C619 N627 1.427 . S
C620 H611 0.930 . S
C620 C618 1.378 . S
C620 C621 1.367 . S
C621 C620 1.367 . S
C621 C623 1.433 . S
C622 C618 1.350 . S
C622 C619 1.463 . S
C622 N626 1.427 . S
C623 H613 0.929 . S
C623 C621 1.433 . S
C623 N626 1.384 . S
C624 H615 0.929 . S
C624 C616 1.378 . S
C624 C619 1.350 . S
C625 H612 0.929 . S
C625 C617 1.433 . S
C625 N627 1.384 . S
N626 C622 1.427 . S
N626 C623 1.384 . S
N627 C619 1.427 . S
N627 C625 1.384 . S
H628 C634 0.927 1_554 S
H629 C638 0.927 1_556 S
H630 C643 0.929 . S
H631 C641 0.929 . S
H632 C636 0.929 . S
H633 C642 0.929 . S
C634 H628 0.927 1_556 S
C634 C635 1.367 . S
C634 C642 1.378 1_556 S
C635 C634 1.367 . S
C635 C643 1.433 . S
C636 H632 0.929 . S
C636 C638 1.378 1_556 S
C636 C640 1.350 1_556 S
C637 C640 1.463 1_556 S
C637 C642 1.350 1_556 S
C637 N645 1.427 . S
C638 H629 0.927 1_554 S
C638 C636 1.378 1_554 S
C638 C639 1.367 . S
C639 C638 1.367 . S
C639 C641 1.433 . S
C640 C636 1.350 1_554 S
C640 C637 1.463 1_554 S
C640 N644 1.427 . S
C641 H631 0.929 . S
C641 C639 1.433 . S
C641 N644 1.384 . S
C642 H633 0.929 . S
C642 C634 1.378 1_554 S
C642 C637 1.350 1_554 S
C643 H630 0.929 . S
C643 C635 1.433 . S
C643 N645 1.384 . S
N644 C640 1.427 . S
N644 C641 1.384 . S
N645 C637 1.427 . S
N645 C643 1.384 . S
H646 C652 0.930 . S
H647 C656 0.930 . S
H648 C661 0.929 . S
H649 C659 0.929 . S
H650 C654 0.929 . S
H651 C660 0.929 . S
C652 H646 0.930 . S
C652 C653 1.367 . S
C652 C660 1.378 . S
C653 C652 1.367 . S
C653 C661 1.433 . S
C654 H650 0.929 . S
C654 C656 1.378 . S
C654 C658 1.350 . S
C655 C658 1.463 . S
C655 C660 1.350 . S
C655 N663 1.427 . S
C656 H647 0.930 . S
C656 C654 1.378 . S
C656 C657 1.367 . S
C657 C656 1.367 . S
C657 C659 1.433 . S
C658 C654 1.350 . S
C658 C655 1.463 . S
C658 N662 1.427 . S
C659 H649 0.929 . S
C659 C657 1.433 . S
C659 N662 1.384 . S
C660 H651 0.929 . S
C660 C652 1.378 . S
C660 C655 1.350 . S
C661 H648 0.929 . S
C661 C653 1.433 . S
C661 N663 1.384 . S
N662 C658 1.427 . S
N662 C659 1.384 . S
N663 C655 1.427 . S
N663 C661 1.384 . S
H664 C670 0.930 . S
H665 C674 0.930 . S
H666 C679 0.929 . S
H667 C677 0.929 . S
H668 C672 0.929 . S
H669 C678 0.929 . S
C670 H664 0.930 . S
C670 C671 1.367 . S
C670 C678 1.378 . S
C671 C670 1.367 . S
C671 C679 1.433 . S
C672 H668 0.929 . S
C672 C674 1.378 . S
C672 C676 1.350 . S
C673 C676 1.463 . S
C673 C678 1.350 . S
C673 N681 1.427 . S
C674 H665 0.930 . S
C674 C672 1.378 . S
C674 C675 1.367 . S
C675 C674 1.367 . S
C675 C677 1.433 . S
C676 C672 1.350 . S
C676 C673 1.463 . S
C676 N680 1.427 . S
C677 H667 0.929 . S
C677 C675 1.433 . S
C677 N680 1.384 . S
C678 H669 0.929 . S
C678 C670 1.378 . S
C678 C673 1.350 . S
C679 H666 0.929 . S
C679 C671 1.433 . S
C679 N681 1.384 . S
N680 C676 1.427 . S
N680 C677 1.384 . S
N681 C673 1.427 . S
N681 C679 1.384 . S
H682 C688 0.930 . S
H683 C692 0.930 . S
H684 C697 0.929 . S
H685 C695 0.929 . S
H686 C690 0.929 . S
H687 C696 0.929 . S
C688 H682 0.930 . S
C688 C689 1.367 . S
C688 C696 1.378 . S
C689 C688 1.367 . S
C689 C697 1.433 . S
C690 H686 0.929 . S
C690 C692 1.378 . S
C690 C694 1.350 . S
C691 C694 1.463 . S
C691 C696 1.350 . S
C691 N699 1.427 . S
C692 H683 0.930 . S
C692 C690 1.378 . S
C692 C693 1.367 . S
C693 C692 1.367 . S
C693 C695 1.433 . S
C694 C690 1.350 . S
C694 C691 1.463 . S
C694 N698 1.427 . S
C695 H685 0.929 . S
C695 C693 1.433 . S
C695 N698 1.384 . S
C696 H687 0.929 . S
C696 C688 1.378 . S
C696 C691 1.350 . S
C697 H684 0.929 . S
C697 C689 1.433 . S
C697 N699 1.384 . S
N698 C694 1.427 . S
N698 C695 1.384 . S
N699 C691 1.427 . S
N699 C697 1.384 . S
H700 C706 0.930 . S
H701 C710 0.930 . S
H702 C715 0.929 . S
H703 C713 0.929 . S
H704 C708 0.929 . S
H705 C714 0.929 . S
C706 H700 0.930 . S
C706 C707 1.367 . S
C706 C714 1.378 . S
C707 C706 1.367 . S
C707 C715 1.433 . S
C708 H704 0.929 . S
C708 C710 1.378 . S
C708 C712 1.350 . S
C709 C712 1.463 1_554 S
C709 C714 1.350 . S
C709 N717 1.427 1_554 S
C710 H701 0.930 . S
C710 C708 1.378 . S
C710 C711 1.367 . S
C711 C710 1.367 . S
C711 C713 1.433 . S
C712 C708 1.350 . S
C712 C709 1.463 1_556 S
C712 N716 1.427 1_556 S
C713 H703 0.929 . S
C713 C711 1.433 . S
C713 N716 1.384 1_556 S
C714 H705 0.929 . S
C714 C706 1.378 . S
C714 C709 1.350 . S
C715 H702 0.929 . S
C715 C707 1.433 . S
C715 N717 1.384 1_554 S
N716 C712 1.427 1_554 S
N716 C713 1.384 1_554 S
N717 C709 1.427 1_556 S
N717 C715 1.384 1_556 S
H718 C724 0.930 . S
H719 C728 0.930 . S
H720 C733 0.929 . S
H721 C731 0.929 . S
H722 C726 0.929 . S
H723 C732 0.929 . S
C724 H718 0.930 . S
C724 C725 1.367 . S
C724 C732 1.378 . S
C725 C724 1.367 . S
C725 C733 1.433 . S
C726 H722 0.929 . S
C726 C728 1.378 . S
C726 C730 1.350 . S
C727 C730 1.463 . S
C727 C732 1.350 . S
C727 N735 1.427 . S
C728 H719 0.930 . S
C728 C726 1.378 . S
C728 C729 1.367 . S
C729 C728 1.367 . S
C729 C731 1.433 . S
C730 C726 1.350 . S
C730 C727 1.463 . S
C730 N734 1.427 . S
C731 H721 0.929 . S
C731 C729 1.433 . S
C731 N734 1.384 . S
C732 H723 0.929 . S
C732 C724 1.378 . S
C732 C727 1.350 . S
C733 H720 0.929 . S
C733 C725 1.433 . S
C733 N735 1.384 . S
N734 C730 1.427 . S
N734 C731 1.384 . S
N735 C727 1.427 . S
N735 C733 1.384 . S
H736 C742 0.930 . S
H737 C746 0.930 . S
H738 C751 0.929 . S
H739 C749 0.929 . S
H740 C744 0.929 . S
H741 C750 0.929 . S
C742 H736 0.930 . S
C742 C743 1.367 . S
C742 C750 1.378 . S
C743 C742 1.367 . S
C743 C751 1.433 . S
C744 H740 0.929 . S
C744 C746 1.378 . S
C744 C748 1.350 . S
C745 C748 1.463 . S
C745 C750 1.350 . S
C745 N753 1.427 . S
C746 H737 0.930 . S
C746 C744 1.378 . S
C746 C747 1.367 . S
C747 C746 1.367 . S
C747 C749 1.433 . S
C748 C744 1.350 . S
C748 C745 1.463 . S
C748 N752 1.427 . S
C749 H739 0.929 . S
C749 C747 1.433 . S
C749 N752 1.384 . S
C750 H741 0.929 . S
C750 C742 1.378 . S
C750 C745 1.350 . S
C751 H738 0.929 . S
C751 C743 1.433 . S
C751 N753 1.384 . S
N752 C748 1.427 . S
N752 C749 1.384 . S
N753 C745 1.427 . S
N753 C751 1.384 . S
H754 C760 0.930 . S
H755 C764 0.930 . S
H756 C769 0.929 . S
H757 C767 0.929 . S
H758 C762 0.929 . S
H759 C768 0.929 . S
C760 H754 0.930 . S
C760 C761 1.367 . S
C760 C768 1.378 . S
C761 C760 1.367 . S
C761 C769 1.433 . S
C762 H758 0.929 . S
C762 C764 1.378 . S
C762 C766 1.350 . S
C763 C766 1.463 1_456 S
C763 C768 1.350 . S
C763 N771 1.427 . S
C764 H755 0.930 . S
C764 C762 1.378 . S
C764 C765 1.367 . S
C765 C764 1.367 . S
C765 C767 1.433 . S
C766 C762 1.350 . S
C766 C763 1.463 1_654 S
C766 N770 1.427 . S
C767 H757 0.929 . S
C767 C765 1.433 . S
C767 N770 1.384 . S
C768 H759 0.929 . S
C768 C760 1.378 . S
C768 C763 1.350 . S
C769 H756 0.929 . S
C769 C761 1.433 . S
C769 N771 1.384 . S
N770 C766 1.427 . S
N770 C767 1.384 . S
N771 C763 1.427 . S
N771 C769 1.384 . S
H772 C778 0.930 . S
H773 C782 0.930 . S
H774 C787 0.929 . S
H775 C785 0.929 . S
H776 C780 0.929 . S
H777 C786 0.929 . S
C778 H772 0.930 . S
C778 C779 1.367 . S
C778 C786 1.378 . S
C779 C778 1.367 . S
C779 C787 1.433 . S
C780 H776 0.929 . S
C780 C782 1.378 . S
C780 C784 1.350 . S
C781 C784 1.463 . S
C781 C786 1.350 . S
C781 N789 1.427 . S
C782 H773 0.930 . S
C782 C780 1.378 . S
C782 C783 1.367 . S
C783 C782 1.367 . S
C783 C785 1.433 . S
C784 C780 1.350 . S
C784 C781 1.463 . S
C784 N788 1.427 . S
C785 H775 0.929 . S
C785 C783 1.433 . S
C785 N788 1.384 . S
C786 H777 0.929 . S
C786 C778 1.378 . S
C786 C781 1.350 . S
C787 H774 0.929 . S
C787 C779 1.433 . S
C787 N789 1.384 . S
N788 C784 1.427 . S
N788 C785 1.384 . S
N789 C781 1.427 . S
N789 C787 1.384 . S
H790 C796 0.930 . S
H791 C800 0.930 . S
H792 C805 0.929 . S
H793 C803 0.929 . S
H794 C798 0.929 . S
H795 C804 0.929 . S
C796 H790 0.930 . S
C796 C797 1.367 . S
C796 C804 1.378 . S
C797 C796 1.367 . S
C797 C805 1.433 . S
C798 H794 0.929 . S
C798 C800 1.378 . S
C798 C802 1.350 . S
C799 C802 1.463 . S
C799 C804 1.350 . S
C799 N807 1.427 . S
C800 H791 0.930 . S
C800 C798 1.378 . S
C800 C801 1.367 . S
C801 C800 1.367 . S
C801 C803 1.433 . S
C802 C798 1.350 . S
C802 C799 1.463 . S
C802 N806 1.427 . S
C803 H793 0.929 . S
C803 C801 1.433 . S
C803 N806 1.384 . S
C804 H795 0.929 . S
C804 C796 1.378 . S
C804 C799 1.350 . S
C805 H792 0.929 . S
C805 C797 1.433 . S
C805 N807 1.384 . S
N806 C802 1.427 . S
N806 C803 1.384 . S
N807 C799 1.427 . S
N807 C805 1.384 . S
H808 C814 0.930 . S
H809 C818 0.930 . S
H810 C823 0.929 . S
H811 C821 0.929 . S
H812 C816 0.929 . S
H813 C822 0.929 . S
C814 H808 0.930 . S
C814 C815 1.367 . S
C814 C822 1.378 . S
C815 C814 1.367 . S
C815 C823 1.433 . S
C816 H812 0.929 . S
C816 C818 1.378 . S
C816 C820 1.350 . S
C817 C820 1.463 . S
C817 C822 1.350 . S
C817 N825 1.427 . S
C818 H809 0.930 . S
C818 C816 1.378 . S
C818 C819 1.367 . S
C819 C818 1.367 . S
C819 C821 1.433 . S
C820 C816 1.350 . S
C820 C817 1.463 . S
C820 N824 1.427 . S
C821 H811 0.929 . S
C821 C819 1.433 . S
C821 N824 1.384 . S
C822 H813 0.929 . S
C822 C814 1.378 . S
C822 C817 1.350 . S
C823 H810 0.929 . S
C823 C815 1.433 . S
C823 N825 1.384 . S
N824 C820 1.427 . S
N824 C821 1.384 . S
N825 C817 1.427 . S
N825 C823 1.384 . S
H826 C832 0.930 . S
H827 C836 0.930 . S
H828 C841 0.929 . S
H829 C839 0.929 . S
H830 C834 0.929 . S
H831 C840 0.929 1_556 S
C832 H826 0.930 . S
C832 C833 1.367 . S
C832 C840 1.378 . S
C833 C832 1.367 . S
C833 C841 1.433 . S
C834 H830 0.929 . S
C834 C836 1.378 . S
C834 C838 1.350 . S
C835 C838 1.463 1_554 S
C835 C840 1.350 . S
C835 N843 1.427 . S
C836 H827 0.930 . S
C836 C834 1.378 . S
C836 C837 1.367 . S
C837 C836 1.367 . S
C837 C839 1.433 . S
C838 C834 1.350 . S
C838 C835 1.463 1_556 S
C838 N842 1.427 . S
C839 H829 0.929 . S
C839 C837 1.433 . S
C839 N842 1.384 . S
C840 H831 0.929 1_554 S
C840 C832 1.378 . S
C840 C835 1.350 . S
C841 H828 0.929 . S
C841 C833 1.433 . S
C841 N843 1.384 . S
N842 C838 1.427 . S
N842 C839 1.384 . S
N843 C835 1.427 . S
N843 C841 1.384 . S
H844 C850 0.930 . S
H845 C854 0.930 . S
H846 C859 0.929 . S
H847 C857 0.929 . S
H848 C852 0.929 . S
H849 C858 0.929 . S
C850 H844 0.930 . S
C850 C851 1.367 . S
C850 C858 1.378 . S
C851 C850 1.367 . S
C851 C859 1.433 . S
C852 H848 0.929 . S
C852 C854 1.378 . S
C852 C856 1.350 . S
C853 C856 1.463 . S
C853 C858 1.350 . S
C853 N861 1.427 . S
C854 H845 0.930 . S
C854 C852 1.378 . S
C854 C855 1.367 . S
C855 C854 1.367 . S
C855 C857 1.433 . S
C856 C852 1.350 . S
C856 C853 1.463 . S
C856 N860 1.427 . S
C857 H847 0.929 . S
C857 C855 1.433 . S
C857 N860 1.384 . S
C858 H849 0.929 . S
C858 C850 1.378 . S
C858 C853 1.350 . S
C859 H846 0.929 . S
C859 C851 1.433 . S
C859 N861 1.384 . S
N860 C856 1.427 . S
N860 C857 1.384 . S
N861 C853 1.427 . S
N861 C859 1.384 . S
H862 C868 0.930 . S
H863 C872 0.930 . S
H864 C877 0.929 1_655 S
H865 C875 0.923 1_455 S
H866 C870 0.929 . S
H867 C876 0.929 . S
C868 H862 0.930 . S
C868 C869 1.367 . S
C868 C876 1.378 . S
C869 C868 1.367 . S
C869 C877 1.433 . S
C870 H866 0.929 . S
C870 C872 1.378 . S
C870 C874 1.350 . S
C871 C874 1.463 1_455 S
C871 C876 1.350 . S
C871 N879 1.427 1_455 S
C872 H863 0.930 . S
C872 C870 1.378 . S
C872 C873 1.367 . S
C873 C872 1.367 . S
C873 C875 1.444 . S
C874 C870 1.350 . S
C874 C871 1.463 1_655 S
C874 N878 1.427 1_655 S
C875 H865 0.923 1_655 S
C875 C873 1.444 . S
C875 N878 1.379 1_655 S
C876 H867 0.929 . S
C876 C868 1.378 . S
C876 C871 1.350 . S
C877 H864 0.929 1_455 S
C877 C869 1.433 . S
C877 N879 1.384 1_455 S
N878 C874 1.427 1_455 S
N878 C875 1.379 1_455 S
N879 C871 1.427 1_655 S
N879 C877 1.384 1_655 S
H880 C886 0.930 . S
H881 C890 0.930 . S
H882 C895 0.929 . S
H883 C893 0.929 . S
H884 C888 0.929 . S
H885 C894 0.929 . S
C886 H880 0.930 . S
C886 C887 1.367 . S
C886 C894 1.378 . S
C887 C886 1.367 . S
C887 C895 1.433 . S
C888 H884 0.929 . S
C888 C890 1.378 . S
C888 C892 1.350 . S
C889 C892 1.463 . S
C889 C894 1.350 . S
C889 N897 1.427 . S
C890 H881 0.930 . S
C890 C888 1.378 . S
C890 C891 1.367 . S
C891 C890 1.367 . S
C891 C893 1.433 . S
C892 C888 1.350 . S
C892 C889 1.463 . S
C892 N896 1.427 . S
C893 H883 0.929 . S
C893 C891 1.433 . S
C893 N896 1.384 . S
C894 H885 0.929 . S
C894 C886 1.378 . S
C894 C889 1.350 . S
C895 H882 0.929 . S
C895 C887 1.433 . S
C895 N897 1.384 . S
N896 C892 1.427 . S
N896 C893 1.384 . S
N897 C889 1.427 . S
N897 C895 1.384 . S
H898 C904 0.930 . S
H899 C908 0.930 . S
H900 C913 0.929 . S
H901 C911 0.929 . S
H902 C906 0.929 . S
H903 C912 0.929 . S
C904 H898 0.930 . S
C904 C905 1.367 . S
C904 C912 1.378 . S
C905 C904 1.367 . S
C905 C913 1.433 . S
C906 H902 0.929 . S
C906 C908 1.378 . S
C906 C910 1.350 . S
C907 C910 1.463 1_654 S
C907 C912 1.350 . S
C907 N915 1.427 . S
C908 H899 0.930 . S
C908 C906 1.378 . S
C908 C909 1.367 . S
C909 C908 1.367 . S
C909 C911 1.433 . S
C910 C906 1.350 . S
C910 C907 1.463 1_456 S
C910 N914 1.427 . S
C911 H901 0.929 . S
C911 C909 1.433 . S
C911 N914 1.384 . S
C912 H903 0.929 . S
C912 C904 1.378 . S
C912 C907 1.350 . S
C913 H900 0.929 . S
C913 C905 1.433 . S
C913 N915 1.384 . S
N914 C910 1.427 . S
N914 C911 1.384 . S
N915 C907 1.427 . S
N915 C913 1.384 . S
H916 C922 0.930 . S
H917 C926 0.930 . S
H918 C931 0.929 . S
H919 C929 0.929 . S
H920 C924 0.929 . S
H921 C930 0.929 . S
C922 H916 0.930 . S
C922 C923 1.367 . S
C922 C930 1.378 . S
C923 C922 1.367 . S
C923 C931 1.433 . S
C924 H920 0.929 . S
C924 C926 1.378 . S
C924 C928 1.350 . S
C925 C928 1.463 . S
C925 C930 1.350 . S
C925 N933 1.427 . S
C926 H917 0.930 . S
C926 C924 1.378 . S
C926 C927 1.367 . S
C927 C926 1.367 . S
C927 C929 1.433 . S
C928 C924 1.350 . S
C928 C925 1.463 . S
C928 N932 1.427 . S
C929 H919 0.929 . S
C929 C927 1.433 . S
C929 N932 1.384 . S
C930 H921 0.929 . S
C930 C922 1.378 . S
C930 C925 1.350 . S
C931 H918 0.929 . S
C931 C923 1.433 . S
C931 N933 1.384 . S
N932 C928 1.427 . S
N932 C929 1.384 . S
N933 C925 1.427 . S
N933 C931 1.384 . S
H934 C940 0.930 . S
H935 C944 0.930 . S
H936 C949 0.929 . S
H937 C947 0.929 . S
H938 C942 0.929 . S
H939 C948 0.929 . S
C940 H934 0.930 . S
C940 C941 1.367 . S
C940 C948 1.378 . S
C941 C940 1.367 . S
C941 C949 1.433 . S
C942 H938 0.929 . S
C942 C944 1.378 . S
C942 C946 1.350 . S
C943 C946 1.463 . S
C943 C948 1.350 . S
C943 N951 1.427 . S
C944 H935 0.930 . S
C944 C942 1.378 . S
C944 C945 1.367 . S
C945 C944 1.367 . S
C945 C947 1.433 . S
C946 C942 1.350 . S
C946 C943 1.463 . S
C946 N950 1.427 . S
C947 H937 0.929 . S
C947 C945 1.433 . S
C947 N950 1.384 . S
C948 H939 0.929 . S
C948 C940 1.378 . S
C948 C943 1.350 . S
C949 H936 0.929 . S
C949 C941 1.433 . S
C949 N951 1.384 . S
N950 C946 1.427 . S
N950 C947 1.384 . S
N951 C943 1.427 . S
N951 C949 1.384 . S
H952 C958 0.930 . S
H953 C962 0.930 . S
H954 C967 0.929 . S
H955 C965 0.929 . S
H956 C960 0.929 . S
H957 C966 0.929 . S
C958 H952 0.930 . S
C958 C959 1.367 . S
C958 C966 1.378 . S
C959 C958 1.367 . S
C959 C967 1.433 . S
C960 H956 0.929 . S
C960 C962 1.378 . S
C960 C964 1.350 . S
C961 C964 1.463 . S
C961 C966 1.350 . S
C961 N969 1.427 . S
C962 H953 0.930 . S
C962 C960 1.378 . S
C962 C963 1.367 . S
C963 C962 1.367 . S
C963 C965 1.433 . S
C964 C960 1.350 . S
C964 C961 1.463 . S
C964 N968 1.427 . S
C965 H955 0.929 . S
C965 C963 1.433 . S
C965 N968 1.384 . S
C966 H957 0.929 . S
C966 C958 1.378 . S
C966 C961 1.350 . S
C967 H954 0.929 . S
C967 C959 1.433 . S
C967 N969 1.384 . S
N968 C964 1.427 . S
N968 C965 1.384 . S
N969 C961 1.427 . S
N969 C967 1.384 . S
H970 C976 0.930 . S
H971 C980 0.930 . S
H972 C985 0.929 . S
H973 C983 0.929 . S
H974 C978 0.929 . S
H975 C984 0.929 . S
C976 H970 0.930 . S
C976 C977 1.367 . S
C976 C984 1.378 . S
C977 C976 1.367 . S
C977 C985 1.433 . S
C978 H974 0.929 . S
C978 C980 1.378 . S
C978 C982 1.350 . S
C979 C982 1.463 1_554 S
C979 C984 1.350 . S
C979 N987 1.427 . S
C980 H971 0.930 . S
C980 C978 1.378 . S
C980 C981 1.367 . S
C981 C980 1.367 . S
C981 C983 1.433 . S
C982 C978 1.350 . S
C982 C979 1.463 1_556 S
C982 N986 1.427 . S
C983 H973 0.929 . S
C983 C981 1.433 . S
C983 N986 1.384 . S
C984 H975 0.929 . S
C984 C976 1.378 . S
C984 C979 1.350 . S
C985 H972 0.929 . S
C985 C977 1.433 . S
C985 N987 1.384 . S
N986 C982 1.427 . S
N986 C983 1.384 . S
N987 C979 1.427 . S
N987 C985 1.384 . S
H988 C994 0.930 . S
H989 C998 0.930 . S
H990 C1003 0.929 . S
H991 C1001 0.929 . S
H992 C996 0.929 . S
H993 C1002 0.929 . S
C994 H988 0.930 . S
C994 C995 1.367 . S
C994 C1002 1.378 . S
C995 C994 1.367 . S
C995 C1003 1.433 . S
C996 H992 0.929 . S
C996 C998 1.378 . S
C996 C1000 1.350 . S
C997 C1000 1.463 . S
C997 C1002 1.350 . S
C997 N1005 1.427 . S
C998 H989 0.930 . S
C998 C996 1.378 . S
C998 C999 1.367 . S
C999 C998 1.367 . S
C999 C1001 1.433 . S
C1000 C996 1.350 . S
C1000 C997 1.463 . S
C1000 N1004 1.427 . S
C1001 H991 0.929 . S
C1001 C999 1.433 . S
C1001 N1004 1.384 . S
C1002 H993 0.929 . S
C1002 C994 1.378 . S
C1002 C997 1.350 . S
C1003 H990 0.929 . S
C1003 C995 1.433 . S
C1003 N1005 1.384 . S
N1004 C1000 1.427 . S
N1004 C1001 1.384 . S
N1005 C997 1.427 . S
N1005 C1003 1.384 . S
H1006 C1012 0.930 . S
H1007 C1016 0.930 . S
H1008 C1021 0.929 . S
H1009 C1019 0.929 . S
H1010 C1014 0.942 . S
H1011 C1020 0.929 . S
C1012 H1006 0.930 . S
C1012 C1013 1.367 . S
C1012 C1020 1.378 . S
C1013 C1012 1.367 . S
C1013 C1021 1.433 . S
C1014 H1010 0.942 . S
C1014 C1016 1.378 . S
C1014 C1018 1.350 . S
C1015 C1018 1.463 1_655 S
C1015 C1020 1.350 . S
C1015 N1023 1.427 . S
C1016 H1007 0.930 . S
C1016 C1014 1.378 . S
C1016 C1017 1.367 . S
C1017 C1016 1.367 . S
C1017 C1019 1.433 . S
C1018 C1014 1.350 . S
C1018 C1015 1.463 1_455 S
C1018 N1022 1.427 . S
C1019 H1009 0.929 . S
C1019 C1017 1.433 . S
C1019 N1022 1.384 . S
C1020 H1011 0.929 . S
C1020 C1012 1.378 . S
C1020 C1015 1.350 . S
C1021 H1008 0.929 . S
C1021 C1013 1.433 . S
C1021 N1023 1.384 . S
N1022 C1018 1.427 . S
N1022 C1019 1.384 . S
N1023 C1015 1.427 . S
N1023 C1021 1.384 . S
H1024 C1030 0.930 . S
H1025 C1034 0.930 . S
H1026 C1039 0.929 . S
H1027 C1037 0.929 . S
H1028 C1032 0.929 . S
H1029 C1038 0.929 . S
C1030 H1024 0.930 . S
C1030 C1031 1.367 . S
C1030 C1038 1.378 . S
C1031 C1030 1.367 . S
C1031 C1039 1.433 . S
C1032 H1028 0.929 . S
C1032 C1034 1.378 . S
C1032 C1036 1.350 . S
C1033 C1036 1.463 . S
C1033 C1038 1.350 . S
C1033 N1041 1.427 . S
C1034 H1025 0.930 . S
C1034 C1032 1.378 . S
C1034 C1035 1.367 . S
C1035 C1034 1.367 . S
C1035 C1037 1.433 . S
C1036 C1032 1.350 . S
C1036 C1033 1.463 . S
C1036 N1040 1.427 . S
C1037 H1027 0.929 . S
C1037 C1035 1.433 . S
C1037 N1040 1.384 . S
C1038 H1029 0.929 . S
C1038 C1030 1.378 . S
C1038 C1033 1.350 . S
C1039 H1026 0.929 . S
C1039 C1031 1.433 . S
C1039 N1041 1.384 . S
N1040 C1036 1.427 . S
N1040 C1037 1.384 . S
N1041 C1033 1.427 . S
N1041 C1039 1.384 . S
H1042 C1048 0.930 . S
H1043 C1052 0.930 . S
H1044 C1057 0.929 . S
H1045 C1055 0.929 . S
H1046 C1050 0.929 . S
H1047 C1056 0.929 . S
C1048 H1042 0.930 . S
C1048 C1049 1.367 . S
C1048 C1056 1.378 . S
C1049 C1048 1.367 . S
C1049 C1057 1.433 . S
C1050 H1046 0.929 . S
C1050 C1052 1.378 . S
C1050 C1054 1.350 . S
C1051 C1054 1.463 . S
C1051 C1056 1.350 . S
C1051 N1059 1.427 . S
C1052 H1043 0.930 . S
C1052 C1050 1.378 . S
C1052 C1053 1.367 . S
C1053 C1052 1.367 . S
C1053 C1055 1.433 . S
C1054 C1050 1.350 . S
C1054 C1051 1.463 . S
C1054 N1058 1.427 . S
C1055 H1045 0.929 . S
C1055 C1053 1.433 . S
C1055 N1058 1.384 . S
C1056 H1047 0.929 . S
C1056 C1048 1.378 . S
C1056 C1051 1.350 . S
C1057 H1044 0.929 . S
C1057 C1049 1.433 . S
C1057 N1059 1.384 . S
N1058 C1054 1.427 . S
N1058 C1055 1.384 . S
N1059 C1051 1.427 . S
N1059 C1057 1.384 . S
H1060 C1066 0.930 . S
H1061 C1070 0.930 . S
H1062 C1075 0.929 . S
H1063 C1073 0.929 . S
H1064 C1068 0.929 . S
H1065 C1074 0.929 . S
C1066 H1060 0.930 . S
C1066 C1067 1.367 . S
C1066 C1074 1.378 . S
C1067 C1066 1.367 . S
C1067 C1075 1.433 . S
C1068 H1064 0.929 . S
C1068 C1070 1.378 . S
C1068 C1072 1.350 . S
C1069 C1072 1.463 . S
C1069 C1074 1.350 . S
C1069 N1077 1.427 . S
C1070 H1061 0.930 . S
C1070 C1068 1.378 . S
C1070 C1071 1.367 . S
C1071 C1070 1.367 . S
C1071 C1073 1.433 . S
C1072 C1068 1.350 . S
C1072 C1069 1.463 . S
C1072 N1076 1.427 . S
C1073 H1063 0.929 . S
C1073 C1071 1.433 . S
C1073 N1076 1.384 . S
C1074 H1065 0.929 . S
C1074 C1066 1.378 . S
C1074 C1069 1.350 . S
C1075 H1062 0.929 . S
C1075 C1067 1.433 . S
C1075 N1077 1.384 . S
N1076 C1072 1.427 . S
N1076 C1073 1.384 . S
N1077 C1069 1.427 . S
N1077 C1075 1.384 . S
H1078 C1084 0.930 . S
H1079 C1088 0.930 . S
H1080 C1093 0.929 . S
H1081 C1091 0.929 . S
H1082 C1086 0.931 1_455 S
H1083 C1092 0.929 . S
C1084 H1078 0.930 . S
C1084 C1085 1.367 . S
C1084 C1092 1.378 1_455 S
C1085 C1084 1.367 . S
C1085 C1093 1.433 . S
C1086 H1082 0.931 1_655 S
C1086 C1088 1.377 . S
C1086 C1090 1.349 . S
C1087 C1090 1.463 1_454 S
C1087 C1092 1.350 1_455 S
C1087 N1095 1.427 . S
C1088 H1079 0.930 . S
C1088 C1086 1.377 . S
C1088 C1089 1.367 . S
C1089 C1088 1.367 . S
C1089 C1091 1.433 . S
C1090 C1086 1.349 . S
C1090 C1087 1.463 1_656 S
C1090 N1094 1.427 . S
C1091 H1081 0.929 . S
C1091 C1089 1.433 . S
C1091 N1094 1.384 . S
C1092 H1083 0.929 . S
C1092 C1084 1.378 1_655 S
C1092 C1087 1.350 1_655 S
C1093 H1080 0.929 . S
C1093 C1085 1.433 . S
C1093 N1095 1.384 . S
N1094 C1090 1.427 . S
N1094 C1091 1.384 . S
N1095 C1087 1.427 . S
N1095 C1093 1.384 . S
H1096 C1102 0.930 . S
H1097 C1106 0.930 . S
H1098 C1111 0.929 . S
H1099 C1109 0.929 . S
H1100 C1104 0.929 . S
H1101 C1110 0.929 . S
C1102 H1096 0.930 . S
C1102 C1103 1.367 . S
C1102 C1110 1.378 . S
C1103 C1102 1.367 . S
C1103 C1111 1.433 . S
C1104 H1100 0.929 . S
C1104 C1106 1.378 . S
C1104 C1108 1.350 . S
C1105 C1108 1.463 . S
C1105 C1110 1.350 . S
C1105 N1113 1.427 . S
C1106 H1097 0.930 . S
C1106 C1104 1.378 . S
C1106 C1107 1.367 . S
C1107 C1106 1.367 . S
C1107 C1109 1.433 . S
C1108 C1104 1.350 . S
C1108 C1105 1.463 . S
C1108 N1112 1.427 . S
C1109 H1099 0.929 . S
C1109 C1107 1.433 . S
C1109 N1112 1.384 . S
C1110 H1101 0.929 . S
C1110 C1102 1.378 . S
C1110 C1105 1.350 . S
C1111 H1098 0.929 . S
C1111 C1103 1.433 . S
C1111 N1113 1.384 . S
N1112 C1108 1.427 . S
N1112 C1109 1.384 . S
N1113 C1105 1.427 . S
N1113 C1111 1.384 . S
H1114 C1120 0.930 . S
H1115 C1124 0.930 . S
H1116 C1129 0.929 . S
H1117 C1127 0.929 . S
H1118 C1122 0.922 1_655 S
H1119 C1128 0.929 . S
C1120 H1114 0.930 . S
C1120 C1121 1.367 . S
C1120 C1128 1.378 . S
C1121 C1120 1.367 . S
C1121 C1129 1.433 . S
C1122 H1118 0.922 1_455 S
C1122 C1124 1.378 . S
C1122 C1126 1.350 . S
C1123 C1126 1.463 1_655 S
C1123 C1128 1.350 . S
C1123 N1131 1.427 . S
C1124 H1115 0.930 . S
C1124 C1122 1.378 . S
C1124 C1125 1.367 . S
C1125 C1124 1.367 . S
C1125 C1127 1.433 . S
C1126 C1122 1.350 . S
C1126 C1123 1.463 1_455 S
C1126 N1130 1.427 . S
C1127 H1117 0.929 . S
C1127 C1125 1.433 . S
C1127 N1130 1.384 . S
C1128 H1119 0.929 . S
C1128 C1120 1.378 . S
C1128 C1123 1.350 . S
C1129 H1116 0.929 . S
C1129 C1121 1.433 . S
C1129 N1131 1.384 . S
N1130 C1126 1.427 . S
N1130 C1127 1.384 . S
N1131 C1123 1.427 . S
N1131 C1129 1.384 . S
H1132 C1138 0.930 . S
H1133 C1142 0.930 . S
H1134 C1147 0.929 . S
H1135 C1145 0.929 . S
H1136 C1140 0.929 . S
H1137 C1146 0.929 . S
C1138 H1132 0.930 . S
C1138 C1139 1.367 . S
C1138 C1146 1.378 . S
C1139 C1138 1.367 . S
C1139 C1147 1.433 . S
C1140 H1136 0.929 . S
C1140 C1142 1.378 . S
C1140 C1144 1.350 . S
C1141 C1144 1.463 . S
C1141 C1146 1.350 . S
C1141 N1149 1.427 . S
C1142 H1133 0.930 . S
C1142 C1140 1.378 . S
C1142 C1143 1.367 . S
C1143 C1142 1.367 . S
C1143 C1145 1.433 . S
C1144 C1140 1.350 . S
C1144 C1141 1.463 . S
C1144 N1148 1.427 . S
C1145 H1135 0.929 . S
C1145 C1143 1.433 . S
C1145 N1148 1.384 . S
C1146 H1137 0.929 . S
C1146 C1138 1.378 . S
C1146 C1141 1.350 . S
C1147 H1134 0.929 . S
C1147 C1139 1.433 . S
C1147 N1149 1.384 . S
N1148 C1144 1.427 . S
N1148 C1145 1.384 . S
N1149 C1141 1.427 . S
N1149 C1147 1.384 . S
H1150 C1156 0.930 . S
H1151 C1160 0.930 . S
H1152 C1165 0.929 . S
H1153 C1163 0.929 . S
H1154 C1158 0.929 . S
H1155 C1164 0.929 . S
C1156 H1150 0.930 . S
C1156 C1157 1.367 . S
C1156 C1164 1.378 . S
C1157 C1156 1.367 . S
C1157 C1165 1.433 . S
C1158 H1154 0.929 . S
C1158 C1160 1.378 . S
C1158 C1162 1.350 . S
C1159 C1162 1.463 1_554 S
C1159 C1164 1.350 . S
C1159 N1167 1.427 . S
C1160 H1151 0.930 . S
C1160 C1158 1.378 . S
C1160 C1161 1.367 . S
C1161 C1160 1.367 . S
C1161 C1163 1.433 . S
C1162 C1158 1.350 . S
C1162 C1159 1.463 1_556 S
C1162 N1166 1.427 . S
C1163 H1153 0.929 . S
C1163 C1161 1.433 . S
C1163 N1166 1.384 . S
C1164 H1155 0.929 . S
C1164 C1156 1.378 . S
C1164 C1159 1.350 . S
C1165 H1152 0.929 . S
C1165 C1157 1.433 . S
C1165 N1167 1.384 . S
N1166 C1162 1.427 . S
N1166 C1163 1.384 . S
N1167 C1159 1.427 . S
N1167 C1165 1.384 . S
H1168 C1174 0.930 . S
H1169 C1178 0.930 . S
H1170 C1183 0.929 . S
H1171 C1181 0.929 . S
H1172 C1176 0.929 . S
H1173 C1182 0.929 . S
C1174 H1168 0.930 . S
C1174 C1175 1.367 . S
C1174 C1182 1.378 . S
C1175 C1174 1.367 . S
C1175 C1183 1.433 . S
C1176 H1172 0.929 . S
C1176 C1178 1.378 . S
C1176 C1180 1.350 . S
C1177 C1180 1.463 . S
C1177 C1182 1.350 . S
C1177 N1185 1.427 . S
C1178 H1169 0.930 . S
C1178 C1176 1.378 . S
C1178 C1179 1.367 . S
C1179 C1178 1.367 . S
C1179 C1181 1.433 . S
C1180 C1176 1.350 . S
C1180 C1177 1.463 . S
C1180 N1184 1.427 . S
C1181 H1171 0.929 . S
C1181 C1179 1.433 . S
C1181 N1184 1.384 . S
C1182 H1173 0.929 . S
C1182 C1174 1.378 . S
C1182 C1177 1.350 . S
C1183 H1170 0.929 . S
C1183 C1175 1.433 . S
C1183 N1185 1.384 . S
N1184 C1180 1.427 . S
N1184 C1181 1.384 . S
N1185 C1177 1.427 . S
N1185 C1183 1.384 . S
H1186 C1192 0.930 . S
H1187 C1196 0.930 . S
H1188 C1201 0.929 . S
H1189 C1199 0.929 . S
H1190 C1194 0.929 . S
H1191 C1200 0.929 . S
C1192 H1186 0.930 . S
C1192 C1193 1.367 . S
C1192 C1200 1.378 . S
C1193 C1192 1.367 . S
C1193 C1201 1.433 . S
C1194 H1190 0.929 . S
C1194 C1196 1.378 . S
C1194 C1198 1.350 . S
C1195 C1198 1.463 . S
C1195 C1200 1.350 . S
C1195 N1203 1.427 . S
C1196 H1187 0.930 . S
C1196 C1194 1.378 . S
C1196 C1197 1.367 . S
C1197 C1196 1.367 . S
C1197 C1199 1.433 . S
C1198 C1194 1.350 . S
C1198 C1195 1.463 . S
C1198 N1202 1.427 . S
C1199 H1189 0.929 . S
C1199 C1197 1.433 . S
C1199 N1202 1.384 . S
C1200 H1191 0.929 . S
C1200 C1192 1.378 . S
C1200 C1195 1.350 . S
C1201 H1188 0.929 . S
C1201 C1193 1.433 . S
C1201 N1203 1.384 . S
N1202 C1198 1.427 . S
N1202 C1199 1.384 . S
N1203 C1195 1.427 . S
N1203 C1201 1.384 . S
H1204 C1210 0.930 . S
H1205 C1214 0.930 . S
H1206 C1219 0.929 . S
H1207 C1217 0.929 . S
H1208 C1212 0.929 . S
H1209 C1218 0.929 . S
C1210 H1204 0.930 . S
C1210 C1211 1.367 . S
C1210 C1218 1.378 . S
C1211 C1210 1.367 . S
C1211 C1219 1.433 . S
C1212 H1208 0.929 . S
C1212 C1214 1.378 . S
C1212 C1216 1.350 . S
C1213 C1216 1.463 . S
C1213 C1218 1.350 . S
C1213 N1221 1.427 . S
C1214 H1205 0.930 . S
C1214 C1212 1.378 . S
C1214 C1215 1.367 . S
C1215 C1214 1.367 . S
C1215 C1217 1.433 . S
C1216 C1212 1.350 . S
C1216 C1213 1.463 . S
C1216 N1220 1.427 . S
C1217 H1207 0.929 . S
C1217 C1215 1.433 . S
C1217 N1220 1.384 . S
C1218 H1209 0.929 . S
C1218 C1210 1.378 . S
C1218 C1213 1.350 . S
C1219 H1206 0.929 . S
C1219 C1211 1.433 . S
C1219 N1221 1.384 . S
N1220 C1216 1.427 . S
N1220 C1217 1.384 . S
N1221 C1213 1.427 . S
N1221 C1219 1.384 . S
H1222 C1228 0.930 . S
H1223 C1232 0.930 . S
H1224 C1237 0.939 . S
H1225 C1235 0.929 . S
H1226 C1230 0.929 . S
H1227 C1236 0.929 . S
C1228 H1222 0.930 . S
C1228 C1229 1.367 . S
C1228 C1236 1.378 . S
C1229 C1228 1.367 . S
C1229 C1237 1.433 . S
C1230 H1226 0.929 . S
C1230 C1232 1.378 . S
C1230 C1234 1.350 . S
C1231 C1234 1.463 1_656 S
C1231 C1236 1.350 . S
C1231 N1239 1.427 1_655 S
C1232 H1223 0.930 . S
C1232 C1230 1.378 . S
C1232 C1233 1.367 . S
C1233 C1232 1.367 . S
C1233 C1235 1.433 . S
C1234 C1230 1.350 . S
C1234 C1231 1.463 1_454 S
C1234 N1238 1.407 1_455 S
C1235 H1225 0.929 . S
C1235 C1233 1.433 . S
C1235 N1238 1.359 1_455 S
C1236 H1227 0.929 . S
C1236 C1228 1.378 . S
C1236 C1231 1.350 . S
C1237 H1224 0.939 . S
C1237 C1229 1.433 . S
C1237 N1239 1.384 1_655 S
N1238 C1234 1.407 1_655 S
N1238 C1235 1.359 1_655 S
N1239 C1231 1.427 1_455 S
N1239 C1237 1.384 1_455 S
H1240 C1246 0.930 . S
H1241 C1250 0.930 . S
H1242 C1255 0.929 . S
H1243 C1253 0.929 . S
H1244 C1248 0.929 . S
H1245 C1254 0.929 . S
C1246 H1240 0.930 . S
C1246 C1247 1.367 . S
C1246 C1254 1.378 . S
C1247 C1246 1.367 . S
C1247 C1255 1.433 . S
C1248 H1244 0.929 . S
C1248 C1250 1.378 . S
C1248 C1252 1.350 . S
C1249 C1252 1.463 . S
C1249 C1254 1.350 . S
C1249 N1257 1.427 . S
C1250 H1241 0.930 . S
C1250 C1248 1.378 . S
C1250 C1251 1.367 . S
C1251 C1250 1.367 . S
C1251 C1253 1.433 . S
C1252 C1248 1.350 . S
C1252 C1249 1.463 . S
C1252 N1256 1.427 . S
C1253 H1243 0.929 . S
C1253 C1251 1.433 . S
C1253 N1256 1.384 . S
C1254 H1245 0.929 . S
C1254 C1246 1.378 . S
C1254 C1249 1.350 . S
C1255 H1242 0.929 . S
C1255 C1247 1.433 . S
C1255 N1257 1.384 . S
N1256 C1252 1.427 . S
N1256 C1253 1.384 . S
N1257 C1249 1.427 . S
N1257 C1255 1.384 . S
H1258 C1264 0.930 . S
H1259 C1268 0.930 . S
H1260 C1273 0.929 . S
H1261 C1271 0.900 1_655 S
H1262 C1266 0.929 . S
H1263 C1272 0.929 . S
C1264 H1258 0.930 . S
C1264 C1265 1.367 . S
C1264 C1272 1.378 . S
C1265 C1264 1.367 . S
C1265 C1273 1.433 1_655 S
C1266 H1262 0.929 . S
C1266 C1268 1.378 . S
C1266 C1270 1.350 . S
C1267 C1270 1.463 1_655 S
C1267 C1272 1.350 . S
C1267 N1275 1.427 1_655 S
C1268 H1259 0.930 . S
C1268 C1266 1.378 . S
C1268 C1269 1.367 . S
C1269 C1268 1.367 . S
C1269 C1271 1.485 . S
C1270 C1266 1.350 . S
C1270 C1267 1.463 1_455 S
C1270 N1274 1.427 1_455 S
C1271 H1261 0.900 1_455 S
C1271 C1269 1.485 . S
C1271 N1274 1.364 1_455 S
C1272 H1263 0.929 . S
C1272 C1264 1.378 . S
C1272 C1267 1.350 . S
C1273 H1260 0.929 . S
C1273 C1265 1.433 1_455 S
C1273 N1275 1.384 . S
N1274 C1270 1.427 1_655 S
N1274 C1271 1.364 1_655 S
N1275 C1267 1.427 1_455 S
N1275 C1273 1.384 . S
H1276 C1282 0.930 . S
H1277 C1286 0.930 . S
H1278 C1291 0.929 . S
H1279 C1289 0.929 . S
H1280 C1284 0.929 . S
H1281 C1290 0.929 . S
C1282 H1276 0.930 . S
C1282 C1283 1.367 . S
C1282 C1290 1.378 . S
C1283 C1282 1.367 . S
C1283 C1291 1.433 . S
C1284 H1280 0.929 . S
C1284 C1286 1.378 . S
C1284 C1288 1.350 . S
C1285 C1288 1.463 . S
C1285 C1290 1.350 . S
C1285 N1293 1.427 . S
C1286 H1277 0.930 . S
C1286 C1284 1.378 . S
C1286 C1287 1.367 . S
C1287 C1286 1.367 . S
C1287 C1289 1.433 . S
C1288 C1284 1.350 . S
C1288 C1285 1.463 . S
C1288 N1292 1.427 . S
C1289 H1279 0.929 . S
C1289 C1287 1.433 . S
C1289 N1292 1.384 . S
C1290 H1281 0.929 . S
C1290 C1282 1.378 . S
C1290 C1285 1.350 . S
C1291 H1278 0.929 . S
C1291 C1283 1.433 . S
C1291 N1293 1.384 . S
N1292 C1288 1.427 . S
N1292 C1289 1.384 . S
N1293 C1285 1.427 . S
N1293 C1291 1.384 . S
H1294 C1300 0.930 . S
H1295 C1304 0.930 . S
H1296 C1309 0.929 . S
H1297 C1307 0.929 . S
H1298 C1302 0.929 . S
H1299 C1308 0.929 . S
C1300 H1294 0.930 . S
C1300 C1301 1.367 . S
C1300 C1308 1.378 . S
C1301 C1300 1.367 . S
C1301 C1309 1.433 . S
C1302 H1298 0.929 . S
C1302 C1304 1.378 . S
C1302 C1306 1.350 . S
C1303 C1306 1.463 1_554 S
C1303 C1308 1.350 . S
C1303 N1311 1.427 . S
C1304 H1295 0.930 . S
C1304 C1302 1.378 . S
C1304 C1305 1.367 . S
C1305 C1304 1.367 . S
C1305 C1307 1.433 . S
C1306 C1302 1.350 . S
C1306 C1303 1.463 1_556 S
C1306 N1310 1.427 . S
C1307 H1297 0.929 . S
C1307 C1305 1.433 . S
C1307 N1310 1.384 . S
C1308 H1299 0.929 . S
C1308 C1300 1.378 . S
C1308 C1303 1.350 . S
C1309 H1296 0.929 . S
C1309 C1301 1.433 . S
C1309 N1311 1.384 . S
N1310 C1306 1.427 . S
N1310 C1307 1.384 . S
N1311 C1303 1.427 . S
N1311 C1309 1.384 . S
H1312 C1318 0.930 . S
H1313 C1322 0.930 . S
H1314 C1327 0.929 . S
H1315 C1325 0.929 . S
H1316 C1320 0.929 . S
H1317 C1326 0.929 . S
C1318 H1312 0.930 . S
C1318 C1319 1.367 . S
C1318 C1326 1.378 . S
C1319 C1318 1.367 . S
C1319 C1327 1.433 . S
C1320 H1316 0.929 . S
C1320 C1322 1.378 . S
C1320 C1324 1.350 . S
C1321 C1324 1.463 . S
C1321 C1326 1.350 . S
C1321 N1329 1.427 . S
C1322 H1313 0.930 . S
C1322 C1320 1.378 . S
C1322 C1323 1.367 . S
C1323 C1322 1.367 . S
C1323 C1325 1.433 . S
C1324 C1320 1.350 . S
C1324 C1321 1.463 . S
C1324 N1328 1.427 . S
C1325 H1315 0.929 . S
C1325 C1323 1.433 . S
C1325 N1328 1.384 . S
C1326 H1317 0.929 . S
C1326 C1318 1.378 . S
C1326 C1321 1.350 . S
C1327 H1314 0.929 . S
C1327 C1319 1.433 . S
C1327 N1329 1.384 . S
N1328 C1324 1.427 . S
N1328 C1325 1.384 . S
N1329 C1321 1.427 . S
N1329 C1327 1.384 . S
H1330 C1336 0.930 . S
H1331 C1340 0.930 . S
H1332 C1345 0.929 . S
H1333 C1343 0.929 . S
H1334 C1338 0.929 . S
H1335 C1344 0.929 . S
C1336 H1330 0.930 . S
C1336 C1337 1.367 . S
C1336 C1344 1.378 . S
C1337 C1336 1.367 . S
C1337 C1345 1.433 . S
C1338 H1334 0.929 . S
C1338 C1340 1.378 . S
C1338 C1342 1.350 . S
C1339 C1342 1.463 . S
C1339 C1344 1.350 . S
C1339 N1347 1.427 . S
C1340 H1331 0.930 . S
C1340 C1338 1.378 . S
C1340 C1341 1.367 . S
C1341 C1340 1.367 . S
C1341 C1343 1.433 . S
C1342 C1338 1.350 . S
C1342 C1339 1.463 . S
C1342 N1346 1.427 . S
C1343 H1333 0.929 . S
C1343 C1341 1.433 . S
C1343 N1346 1.384 . S
C1344 H1335 0.929 . S
C1344 C1336 1.378 . S
C1344 C1339 1.350 . S
C1345 H1332 0.929 . S
C1345 C1337 1.433 . S
C1345 N1347 1.384 . S
N1346 C1342 1.427 . S
N1346 C1343 1.384 . S
N1347 C1339 1.427 . S
N1347 C1345 1.384 . S
H1348 C1354 0.930 . S
H1349 C1358 0.930 . S
H1350 C1363 0.929 . S
H1351 C1361 0.929 . S
H1352 C1356 0.929 . S
H1353 C1362 0.929 . S
C1354 H1348 0.930 . S
C1354 C1355 1.367 . S
C1354 C1362 1.378 . S
C1355 C1354 1.367 . S
C1355 C1363 1.433 . S
C1356 H1352 0.929 . S
C1356 C1358 1.378 . S
C1356 C1360 1.350 . S
C1357 C1360 1.463 . S
C1357 C1362 1.350 . S
C1357 N1365 1.427 . S
C1358 H1349 0.930 . S
C1358 C1356 1.378 . S
C1358 C1359 1.367 . S
C1359 C1358 1.367 . S
C1359 C1361 1.433 . S
C1360 C1356 1.350 . S
C1360 C1357 1.463 . S
C1360 N1364 1.427 . S
C1361 H1351 0.929 . S
C1361 C1359 1.433 . S
C1361 N1364 1.384 . S
C1362 H1353 0.929 . S
C1362 C1354 1.378 . S
C1362 C1357 1.350 . S
C1363 H1350 0.929 . S
C1363 C1355 1.433 . S
C1363 N1365 1.384 . S
N1364 C1360 1.427 . S
N1364 C1361 1.384 . S
N1365 C1357 1.427 . S
N1365 C1363 1.384 . S
H1366 C1372 0.930 . S
H1367 C1376 0.930 . S
H1368 C1381 0.929 . S
H1369 C1379 0.929 . S
H1370 C1374 0.929 . S
H1371 C1380 0.929 . S
C1372 H1366 0.930 . S
C1372 C1373 1.367 . S
C1372 C1380 1.378 . S
C1373 C1372 1.367 . S
C1373 C1381 1.433 . S
C1374 H1370 0.929 . S
C1374 C1376 1.378 . S
C1374 C1378 1.350 . S
C1375 C1378 1.463 . S
C1375 C1380 1.350 . S
C1375 N1383 1.427 . S
C1376 H1367 0.930 . S
C1376 C1374 1.378 . S
C1376 C1377 1.367 . S
C1377 C1376 1.367 . S
C1377 C1379 1.433 . S
C1378 C1374 1.350 . S
C1378 C1375 1.463 . S
C1378 N1382 1.427 . S
C1379 H1369 0.929 . S
C1379 C1377 1.433 . S
C1379 N1382 1.384 . S
C1380 H1371 0.929 . S
C1380 C1372 1.378 . S
C1380 C1375 1.350 . S
C1381 H1368 0.929 . S
C1381 C1373 1.433 . S
C1381 N1383 1.384 . S
N1382 C1378 1.427 . S
N1382 C1379 1.384 . S
N1383 C1375 1.427 . S
N1383 C1381 1.384 . S
H1384 C1390 0.930 . S
H1385 C1394 0.930 . S
H1386 C1399 0.929 . S
H1387 C1397 0.929 . S
H1388 C1392 0.929 . S
H1389 C1398 0.929 . S
C1390 H1384 0.930 . S
C1390 C1391 1.367 . S
C1390 C1398 1.378 . S
C1391 C1390 1.367 . S
C1391 C1399 1.433 . S
C1392 H1388 0.929 . S
C1392 C1394 1.378 . S
C1392 C1396 1.350 . S
C1393 C1396 1.463 . S
C1393 C1398 1.350 . S
C1393 N1401 1.427 . S
C1394 H1385 0.930 . S
C1394 C1392 1.378 . S
C1394 C1395 1.367 . S
C1395 C1394 1.367 . S
C1395 C1397 1.433 . S
C1396 C1392 1.350 . S
C1396 C1393 1.463 . S
C1396 N1400 1.427 . S
C1397 H1387 0.929 . S
C1397 C1395 1.433 . S
C1397 N1400 1.384 . S
C1398 H1389 0.929 . S
C1398 C1390 1.378 . S
C1398 C1393 1.350 . S
C1399 H1386 0.929 . S
C1399 C1391 1.433 . S
C1399 N1401 1.384 . S
N1400 C1396 1.427 . S
N1400 C1397 1.384 . S
N1401 C1393 1.427 . S
N1401 C1399 1.384 . S
H1402 C1408 0.930 . S
H1403 C1412 0.930 . S
H1404 C1417 0.929 . S
H1405 C1415 0.929 . S
H1406 C1410 0.929 . S
H1407 C1416 0.929 . S
C1408 H1402 0.930 . S
C1408 C1409 1.367 . S
C1408 C1416 1.378 . S
C1409 C1408 1.367 . S
C1409 C1417 1.433 . S
C1410 H1406 0.929 . S
C1410 C1412 1.378 . S
C1410 C1414 1.350 . S
C1411 C1414 1.463 . S
C1411 C1416 1.350 . S
C1411 N1419 1.427 . S
C1412 H1403 0.930 . S
C1412 C1410 1.378 . S
C1412 C1413 1.367 . S
C1413 C1412 1.367 . S
C1413 C1415 1.433 . S
C1414 C1410 1.350 . S
C1414 C1411 1.463 . S
C1414 N1418 1.427 . S
C1415 H1405 0.929 . S
C1415 C1413 1.433 . S
C1415 N1418 1.384 . S
C1416 H1407 0.929 . S
C1416 C1408 1.378 . S
C1416 C1411 1.350 . S
C1417 H1404 0.929 . S
C1417 C1409 1.433 . S
C1417 N1419 1.384 . S
N1418 C1414 1.427 . S
N1418 C1415 1.384 . S
N1419 C1411 1.427 . S
N1419 C1417 1.384 . S
H1420 C1426 0.930 . S
H1421 C1430 0.930 . S
H1422 C1435 0.929 . S
H1423 C1433 0.929 . S
H1424 C1428 0.929 . S
H1425 C1434 0.929 . S
C1426 H1420 0.930 . S
C1426 C1427 1.367 . S
C1426 C1434 1.378 . S
C1427 C1426 1.367 . S
C1427 C1435 1.433 . S
C1428 H1424 0.929 . S
C1428 C1430 1.378 . S
C1428 C1432 1.350 . S
C1429 C1432 1.463 . S
C1429 C1434 1.350 . S
C1429 N1437 1.427 . S
C1430 H1421 0.930 . S
C1430 C1428 1.378 . S
C1430 C1431 1.367 . S
C1431 C1430 1.367 . S
C1431 C1433 1.433 . S
C1432 C1428 1.350 . S
C1432 C1429 1.463 . S
C1432 N1436 1.427 . S
C1433 H1423 0.929 . S
C1433 C1431 1.433 . S
C1433 N1436 1.384 . S
C1434 H1425 0.929 . S
C1434 C1426 1.378 . S
C1434 C1429 1.350 . S
C1435 H1422 0.929 . S
C1435 C1427 1.433 . S
C1435 N1437 1.384 . S
N1436 C1432 1.427 . S
N1436 C1433 1.384 . S
N1437 C1429 1.427 . S
N1437 C1435 1.384 . S
H1438 C1444 0.930 . S
H1439 C1448 0.930 . S
H1440 C1453 0.929 . S
H1441 C1451 0.929 . S
H1442 C1446 0.929 . S
H1443 C1452 0.929 . S
C1444 H1438 0.930 . S
C1444 C1445 1.367 . S
C1444 C1452 1.378 . S
C1445 C1444 1.367 . S
C1445 C1453 1.433 . S
C1446 H1442 0.929 . S
C1446 C1448 1.378 . S
C1446 C1450 1.350 . S
C1447 C1450 1.463 . S
C1447 C1452 1.350 . S
C1447 N1455 1.427 . S
C1448 H1439 0.930 . S
C1448 C1446 1.378 . S
C1448 C1449 1.367 . S
C1449 C1448 1.367 . S
C1449 C1451 1.433 . S
C1450 C1446 1.350 . S
C1450 C1447 1.463 . S
C1450 N1454 1.427 . S
C1451 H1441 0.929 . S
C1451 C1449 1.433 . S
C1451 N1454 1.384 . S
C1452 H1443 0.929 . S
C1452 C1444 1.378 . S
C1452 C1447 1.350 . S
C1453 H1440 0.929 . S
C1453 C1445 1.433 . S
C1453 N1455 1.384 . S
N1454 C1450 1.427 . S
N1454 C1451 1.384 . S
N1455 C1447 1.427 . S
N1455 C1453 1.384 . S
H1456 C1462 0.930 . S
H1457 C1466 0.930 . S
H1458 C1471 0.929 . S
H1459 C1469 0.929 . S
H1460 C1464 0.929 . S
H1461 C1470 0.929 . S
C1462 H1456 0.930 . S
C1462 C1463 1.367 . S
C1462 C1470 1.378 . S
C1463 C1462 1.367 . S
C1463 C1471 1.433 . S
C1464 H1460 0.929 . S
C1464 C1466 1.378 . S
C1464 C1468 1.350 . S
C1465 C1468 1.463 . S
C1465 C1470 1.350 . S
C1465 N1473 1.427 . S
C1466 H1457 0.930 . S
C1466 C1464 1.378 . S
C1466 C1467 1.367 . S
C1467 C1466 1.367 . S
C1467 C1469 1.433 . S
C1468 C1464 1.350 . S
C1468 C1465 1.463 . S
C1468 N1472 1.427 . S
C1469 H1459 0.929 . S
C1469 C1467 1.433 . S
C1469 N1472 1.384 . S
C1470 H1461 0.929 . S
C1470 C1462 1.378 . S
C1470 C1465 1.350 . S
C1471 H1458 0.929 . S
C1471 C1463 1.433 . S
C1471 N1473 1.384 . S
N1472 C1468 1.427 . S
N1472 C1469 1.384 . S
N1473 C1465 1.427 . S
N1473 C1471 1.384 . S
H1474 C1480 0.930 . S
H1475 C1484 0.930 . S
H1476 C1489 0.929 . S
H1477 C1487 0.929 . S
H1478 C1482 0.929 . S
H1479 C1488 0.929 . S
C1480 H1474 0.930 . S
C1480 C1481 1.367 . S
C1480 C1488 1.378 . S
C1481 C1480 1.367 . S
C1481 C1489 1.433 . S
C1482 H1478 0.929 . S
C1482 C1484 1.378 . S
C1482 C1486 1.350 . S
C1483 C1486 1.463 . S
C1483 C1488 1.350 . S
C1483 N1491 1.427 . S
C1484 H1475 0.930 . S
C1484 C1482 1.378 . S
C1484 C1485 1.367 . S
C1485 C1484 1.367 . S
C1485 C1487 1.433 . S
C1486 C1482 1.350 . S
C1486 C1483 1.463 . S
C1486 N1490 1.427 . S
C1487 H1477 0.929 . S
C1487 C1485 1.433 . S
C1487 N1490 1.384 . S
C1488 H1479 0.929 . S
C1488 C1480 1.378 . S
C1488 C1483 1.350 . S
C1489 H1476 0.929 . S
C1489 C1481 1.433 . S
C1489 N1491 1.384 . S
N1490 C1486 1.427 . S
N1490 C1487 1.384 . S
N1491 C1483 1.427 . S
N1491 C1489 1.384 . S
H1492 C1498 0.930 . S
H1493 C1502 0.930 . S
H1494 C1507 0.929 . S
H1495 C1505 0.929 . S
H1496 C1500 0.929 . S
H1497 C1506 0.929 . S
C1498 H1492 0.930 . S
C1498 C1499 1.367 . S
C1498 C1506 1.378 . S
C1499 C1498 1.367 . S
C1499 C1507 1.433 . S
C1500 H1496 0.929 . S
C1500 C1502 1.378 . S
C1500 C1504 1.350 . S
C1501 C1504 1.463 . S
C1501 C1506 1.350 . S
C1501 N1509 1.427 . S
C1502 H1493 0.930 . S
C1502 C1500 1.378 . S
C1502 C1503 1.367 . S
C1503 C1502 1.367 . S
C1503 C1505 1.433 . S
C1504 C1500 1.350 . S
C1504 C1501 1.463 . S
C1504 N1508 1.427 . S
C1505 H1495 0.929 . S
C1505 C1503 1.433 . S
C1505 N1508 1.384 . S
C1506 H1497 0.929 . S
C1506 C1498 1.378 . S
C1506 C1501 1.350 . S
C1507 H1494 0.929 . S
C1507 C1499 1.433 . S
C1507 N1509 1.384 . S
N1508 C1504 1.427 . S
N1508 C1505 1.384 . S
N1509 C1501 1.427 . S
N1509 C1507 1.384 . S
H1510 C1516 0.930 . S
H1511 C1520 0.930 . S
H1512 C1525 0.929 . S
H1513 C1523 0.929 . S
H1514 C1518 0.929 . S
H1515 C1524 0.929 . S
C1516 H1510 0.930 . S
C1516 C1517 1.367 . S
C1516 C1524 1.378 . S
C1517 C1516 1.367 . S
C1517 C1525 1.433 . S
C1518 H1514 0.929 . S
C1518 C1520 1.378 . S
C1518 C1522 1.350 . S
C1519 C1522 1.463 . S
C1519 C1524 1.350 . S
C1519 N1527 1.427 . S
C1520 H1511 0.930 . S
C1520 C1518 1.378 . S
C1520 C1521 1.367 . S
C1521 C1520 1.367 . S
C1521 C1523 1.433 . S
C1522 C1518 1.350 . S
C1522 C1519 1.463 . S
C1522 N1526 1.427 . S
C1523 H1513 0.929 . S
C1523 C1521 1.433 . S
C1523 N1526 1.384 . S
C1524 H1515 0.929 . S
C1524 C1516 1.378 . S
C1524 C1519 1.350 . S
C1525 H1512 0.929 . S
C1525 C1517 1.433 . S
C1525 N1527 1.384 . S
N1526 C1522 1.427 . S
N1526 C1523 1.384 . S
N1527 C1519 1.427 . S
N1527 C1525 1.384 . S
H1528 C1534 0.930 . S
H1529 C1538 0.930 . S
H1530 C1543 0.929 . S
H1531 C1541 0.929 . S
H1532 C1536 0.929 . S
H1533 C1542 0.929 . S
C1534 H1528 0.930 . S
C1534 C1535 1.367 . S
C1534 C1542 1.378 . S
C1535 C1534 1.367 . S
C1535 C1543 1.433 . S
C1536 H1532 0.929 . S
C1536 C1538 1.378 . S
C1536 C1540 1.350 . S
C1537 C1540 1.463 . S
C1537 C1542 1.350 . S
C1537 N1545 1.427 . S
C1538 H1529 0.930 . S
C1538 C1536 1.378 . S
C1538 C1539 1.367 . S
C1539 C1538 1.367 . S
C1539 C1541 1.433 . S
C1540 C1536 1.350 . S
C1540 C1537 1.463 . S
C1540 N1544 1.427 . S
C1541 H1531 0.929 . S
C1541 C1539 1.433 . S
C1541 N1544 1.384 . S
C1542 H1533 0.929 . S
C1542 C1534 1.378 . S
C1542 C1537 1.350 . S
C1543 H1530 0.929 . S
C1543 C1535 1.433 . S
C1543 N1545 1.384 . S
N1544 C1540 1.427 . S
N1544 C1541 1.384 . S
N1545 C1537 1.427 . S
N1545 C1543 1.384 . S
H1546 C1552 0.930 . S
H1547 C1556 0.930 . S
H1548 C1561 0.929 . S
H1549 C1559 0.929 . S
H1550 C1554 0.929 . S
H1551 C1560 0.929 . S
C1552 H1546 0.930 . S
C1552 C1553 1.367 . S
C1552 C1560 1.378 . S
C1553 C1552 1.367 . S
C1553 C1561 1.433 . S
C1554 H1550 0.929 . S
C1554 C1556 1.378 . S
C1554 C1558 1.350 . S
C1555 C1558 1.463 . S
C1555 C1560 1.350 . S
C1555 N1563 1.427 . S
C1556 H1547 0.930 . S
C1556 C1554 1.378 . S
C1556 C1557 1.367 . S
C1557 C1556 1.367 . S
C1557 C1559 1.433 . S
C1558 C1554 1.350 . S
C1558 C1555 1.463 . S
C1558 N1562 1.427 . S
C1559 H1549 0.929 . S
C1559 C1557 1.433 . S
C1559 N1562 1.384 . S
C1560 H1551 0.929 . S
C1560 C1552 1.378 . S
C1560 C1555 1.350 . S
C1561 H1548 0.929 . S
C1561 C1553 1.433 . S
C1561 N1563 1.384 . S
N1562 C1558 1.427 . S
N1562 C1559 1.384 . S
N1563 C1555 1.427 . S
N1563 C1561 1.384 . S
H1564 C1570 0.930 . S
H1565 C1574 0.930 . S
H1566 C1579 0.929 . S
H1567 C1577 0.929 . S
H1568 C1572 0.929 . S
H1569 C1578 0.929 . S
C1570 H1564 0.930 . S
C1570 C1571 1.367 . S
C1570 C1578 1.378 . S
C1571 C1570 1.367 . S
C1571 C1579 1.433 . S
C1572 H1568 0.929 . S
C1572 C1574 1.378 . S
C1572 C1576 1.350 . S
C1573 C1576 1.463 . S
C1573 C1578 1.350 . S
C1573 N1581 1.427 . S
C1574 H1565 0.930 . S
C1574 C1572 1.378 . S
C1574 C1575 1.367 . S
C1575 C1574 1.367 . S
C1575 C1577 1.433 . S
C1576 C1572 1.350 . S
C1576 C1573 1.463 . S
C1576 N1580 1.427 . S
C1577 H1567 0.929 . S
C1577 C1575 1.433 . S
C1577 N1580 1.384 . S
C1578 H1569 0.929 . S
C1578 C1570 1.378 . S
C1578 C1573 1.350 . S
C1579 H1566 0.929 . S
C1579 C1571 1.433 . S
C1579 N1581 1.384 . S
N1580 C1576 1.427 . S
N1580 C1577 1.384 . S
N1581 C1573 1.427 . S
N1581 C1579 1.384 . S
H1582 C1588 0.930 . S
H1583 C1592 0.930 . S
H1584 C1597 0.929 . S
H1585 C1595 0.929 . S
H1586 C1590 0.929 . S
H1587 C1596 0.929 . S
C1588 H1582 0.930 . S
C1588 C1589 1.367 . S
C1588 C1596 1.378 . S
C1589 C1588 1.367 . S
C1589 C1597 1.433 . S
C1590 H1586 0.929 . S
C1590 C1592 1.378 . S
C1590 C1594 1.350 . S
C1591 C1594 1.463 . S
C1591 C1596 1.350 . S
C1591 N1599 1.427 . S
C1592 H1583 0.930 . S
C1592 C1590 1.378 . S
C1592 C1593 1.367 . S
C1593 C1592 1.367 . S
C1593 C1595 1.433 . S
C1594 C1590 1.350 . S
C1594 C1591 1.463 . S
C1594 N1598 1.427 . S
C1595 H1585 0.929 . S
C1595 C1593 1.433 . S
C1595 N1598 1.384 . S
C1596 H1587 0.929 . S
C1596 C1588 1.378 . S
C1596 C1591 1.350 . S
C1597 H1584 0.929 . S
C1597 C1589 1.433 . S
C1597 N1599 1.384 . S
N1598 C1594 1.427 . S
N1598 C1595 1.384 . S
N1599 C1591 1.427 . S
N1599 C1597 1.384 . S
C455 C93 1.534 . S
C459 C9 1.528 . S
C473 C23 1.527 . S
C477 C107 1.522 . S
C491 C65 1.522 . S
C495 C37 1.528 . S
C509 C51 1.522 . S
C513 C79 1.528 . S
C527 C205 1.531 . S
C531 C121 1.523 . S
C545 C219 1.533 . S
C549 C135 1.527 . S
C563 C149 1.532 . S
C567 C177 1.524 . S
C581 C163 1.533 . S
C585 C191 1.527 . S
C599 C233 1.522 . S
C603 C317 1.528 . S
C617 C247 1.530 . S
C621 C331 1.533 . S
C635 C289 1.523 . S
C639 C261 1.530 . S
C653 C303 1.528 . S
C657 C275 1.522 . S
C671 C345 1.523 . S
C675 C429 1.531 . S
C689 C443 1.532 . S
C693 C359 1.531 . S
C707 C401 1.533 . S
C711 C373 1.525 . S
C725 C387 1.533 . S
C729 C415 1.530 . S
C743 C7 1.299 . S
C747 C428 1.309 . S
C761 C218 1.316 . S
C765 C21 1.301 . S
C779 C35 1.292 . S
C783 C400 1.321 . S
C797 C49 1.287 . S
C801 C190 1.319 . S
C815 C372 1.310 . S
C819 C63 1.303 . S
C833 C162 1.314 . S
C837 C77 1.303 . S
C851 C91 1.302 . S
C855 C344 1.309 . S
C869 C134 1.309 . S
C873 C105 1.299 . S
C887 C119 1.302 . S
C891 C316 1.310 . S
C905 C106 1.316 . S
C909 C133 1.302 . S
C923 C147 1.303 . S
C927 C288 1.312 . S
C941 C161 1.287 . S
C945 C78 1.320 . S
C959 C260 1.309 . S
C963 C175 1.297 . S
C977 C189 1.291 . S
C981 C50 1.321 . S
C995 C203 1.301 . S
C999 C232 1.316 . S
C1013 C22 1.314 . S
C1017 C217 1.289 . S
C1031 C231 1.296 . S
C1035 C204 1.320 . S
C1049 C245 1.292 . S
C1053 C442 1.321 . S
C1067 C176 1.319 . S
C1071 C259 1.287 . S
C1085 C273 1.287 . S
C1089 C414 1.317 . S
C1103 C148 1.312 . S
C1107 C287 1.303 . S
C1121 C386 1.314 . S
C1125 C301 1.289 . S
C1139 C120 1.321 . S
C1143 C315 1.294 . S
C1157 C358 1.321 . S
C1161 C329 1.295 . S
C1175 C343 1.288 . S
C1179 C92 1.317 . S
C1193 C330 1.318 . S
C1197 C357 1.299 . S
C1211 C64 1.321 . S
C1215 C371 1.293 . S
C1229 C385 1.296 . S
C1233 C302 1.310 . S
C1247 C399 1.302 . S
C1251 C36 1.309 . S
C1265 C413 1.301 . S
C1269 C274 1.309 . S
C1283 C8 1.321 . S
C1287 C427 1.291 . S
C1301 C441 1.298 . S
C1305 C246 1.319 . S
C1319 C6 1.495 . S
C1323 C300 1.497 . S
C1337 C314 1.497 . S
C1341 C20 1.493 . S
C1355 C34 1.493 . S
C1359 C328 1.498 . S
C1373 C286 1.498 . S
C1377 C48 1.490 . S
C1391 C272 1.490 . S
C1395 C62 1.498 . S
C1409 C230 1.485 . S
C1413 C76 1.491 . S
C1427 C244 1.497 . S
C1431 C90 1.489 . S
C1445 C258 1.488 . S
C1449 C104 1.498 . S
C1463 C118 1.485 . S
C1467 C412 1.493 . S
C1481 C426 1.486 . S
C1485 C132 1.496 . S
C1499 C440 1.497 . S
C1503 C146 1.487 . S
C1517 C398 1.492 . S
C1521 C160 1.498 . S
C1535 C384 1.490 . S
C1539 C174 1.484 . S
C1553 C342 1.495 . S
C1557 C188 1.497 . S
C1571 C202 1.484 . S
C1575 C356 1.492 . S
C1589 C216 1.486 . S
C1593 C370 1.496 . S
