# Generated by pormake.
# Topology unp, (4)-cn, num edge types: 1
# Building blocks:
#     Node 0, Type 0, BuildingBlock: CEKHIL_clean_sbu_0, # of connection points: 4
#     Node 1, Type 0, BuildingBlock: CEKHIL_clean_sbu_0, # of connection points: 4
#     Node 2, Type 0, BuildingBlock: CEKHIL_clean_sbu_0, # of connection points: 4
#     Node 3, Type 0, BuildingBlock: CEKHIL_clean_sbu_0, # of connection points: 4
#     Node 4, Type 0, BuildingBlock: CEKHIL_clean_sbu_0, # of connection points: 4
#     Node 5, Type 0, BuildingBlock: CEKHIL_clean_sbu_0, # of connection points: 4
#     Node 6, Type 0, BuildingBlock: CEKHIL_clean_sbu_0, # of connection points: 4
#     Node 7, Type 0, BuildingBlock: CEKHIL_clean_sbu_0, # of connection points: 4
#     Node 8, Type 0, BuildingBlock: CEKHIL_clean_sbu_0, # of connection points: 4
#     Node 9, Type 0, BuildingBlock: CEKHIL_clean_sbu_0, # of connection points: 4
#     Node 10, Type 0, BuildingBlock: CEKHIL_clean_sbu_0, # of connection points: 4
#     Node 11, Type 0, BuildingBlock: CEKHIL_clean_sbu_0, # of connection points: 4
#     Node 12, Type 0, BuildingBlock: CEKHIL_clean_sbu_0, # of connection points: 4
#     Node 13, Type 0, BuildingBlock: CEKHIL_clean_sbu_0, # of connection points: 4
#     Node 14, Type 0, BuildingBlock: CEKHIL_clean_sbu_0, # of connection points: 4
#     Node 15, Type 0, BuildingBlock: CEKHIL_clean_sbu_0, # of connection points: 4
#     Node 16, Type 0, BuildingBlock: CEKHIL_clean_sbu_0, # of connection points: 4
#     Node 17, Type 0, BuildingBlock: CEKHIL_clean_sbu_0, # of connection points: 4
#     Edge 18, Type (0, 0), BuildingBlock: XIVTED_clean_linker_0, # of connection points: 2
#     Edge 19, Type (0, 0), BuildingBlock: XIVTED_clean_linker_0, # of connection points: 2
#     Edge 20, Type (0, 0), BuildingBlock: XIVTED_clean_linker_0, # of connection points: 2
#     Edge 21, Type (0, 0), BuildingBlock: XIVTED_clean_linker_0, # of connection points: 2
#     Edge 22, Type (0, 0), BuildingBlock: XIVTED_clean_linker_0, # of connection points: 2
#     Edge 23, Type (0, 0), BuildingBlock: XIVTED_clean_linker_0, # of connection points: 2
#     Edge 24, Type (0, 0), BuildingBlock: XIVTED_clean_linker_0, # of connection points: 2
#     Edge 25, Type (0, 0), BuildingBlock: XIVTED_clean_linker_0, # of connection points: 2
#     Edge 26, Type (0, 0), BuildingBlock: XIVTED_clean_linker_0, # of connection points: 2
#     Edge 27, Type (0, 0), BuildingBlock: XIVTED_clean_linker_0, # of connection points: 2
#     Edge 28, Type (0, 0), BuildingBlock: XIVTED_clean_linker_0, # of connection points: 2
#     Edge 29, Type (0, 0), BuildingBlock: XIVTED_clean_linker_0, # of connection points: 2
#     Edge 30, Type (0, 0), BuildingBlock: XIVTED_clean_linker_0, # of connection points: 2
#     Edge 31, Type (0, 0), BuildingBlock: XIVTED_clean_linker_0, # of connection points: 2
#     Edge 32, Type (0, 0), BuildingBlock: XIVTED_clean_linker_0, # of connection points: 2
#     Edge 33, Type (0, 0), BuildingBlock: XIVTED_clean_linker_0, # of connection points: 2
#     Edge 34, Type (0, 0), BuildingBlock: XIVTED_clean_linker_0, # of connection points: 2
#     Edge 35, Type (0, 0), BuildingBlock: XIVTED_clean_linker_0, # of connection points: 2
#     Edge 36, Type (0, 0), BuildingBlock: XIVTED_clean_linker_0, # of connection points: 2
#     Edge 37, Type (0, 0), BuildingBlock: XIVTED_clean_linker_0, # of connection points: 2
#     Edge 38, Type (0, 0), BuildingBlock: XIVTED_clean_linker_0, # of connection points: 2
#     Edge 39, Type (0, 0), BuildingBlock: XIVTED_clean_linker_0, # of connection points: 2
#     Edge 40, Type (0, 0), BuildingBlock: XIVTED_clean_linker_0, # of connection points: 2
#     Edge 41, Type (0, 0), BuildingBlock: XIVTED_clean_linker_0, # of connection points: 2
#     Edge 42, Type (0, 0), BuildingBlock: XIVTED_clean_linker_0, # of connection points: 2
#     Edge 43, Type (0, 0), BuildingBlock: XIVTED_clean_linker_0, # of connection points: 2
#     Edge 44, Type (0, 0), BuildingBlock: XIVTED_clean_linker_0, # of connection points: 2
#     Edge 45, Type (0, 0), BuildingBlock: XIVTED_clean_linker_0, # of connection points: 2
#     Edge 46, Type (0, 0), BuildingBlock: XIVTED_clean_linker_0, # of connection points: 2
#     Edge 47, Type (0, 0), BuildingBlock: XIVTED_clean_linker_0, # of connection points: 2
#     Edge 48, Type (0, 0), BuildingBlock: XIVTED_clean_linker_0, # of connection points: 2
#     Edge 49, Type (0, 0), BuildingBlock: XIVTED_clean_linker_0, # of connection points: 2
#     Edge 50, Type (0, 0), BuildingBlock: XIVTED_clean_linker_0, # of connection points: 2
#     Edge 51, Type (0, 0), BuildingBlock: XIVTED_clean_linker_0, # of connection points: 2
#     Edge 52, Type (0, 0), BuildingBlock: XIVTED_clean_linker_0, # of connection points: 2
#     Edge 53, Type (0, 0), BuildingBlock: XIVTED_clean_linker_0, # of connection points: 2
# Relax obj value: 0.423
# Max RMSD: 0.186
# Mean RMSD: 0.186
data_MOF--net-unp--node1-CEKHIL_clean_sbu_0--edge1-XIVTED_clean_linker_0
_symmetry_space_group_name_H-M    P1
_symmetry_Int_Tables_number       1
_symmetry_cell_setting            triclinic
loop_
_symmetry_equiv_pos_as_xyz
'x, y, z'
_cell_length_a     48.418715
_cell_length_b     48.427282
_cell_length_c     54.034572
_cell_angle_alpha  90.012498
_cell_angle_beta   89.981306
_cell_angle_gamma 120.01582
loop_
_atom_site_label
_atom_site_type_symbol
_atom_site_fract_x
_atom_site_fract_y
_atom_site_fract_z
_atom_type_partial_charge
Co0 Co 0.18035 0.15056 0.14074 0.0
O1 O 0.22591 0.17273 0.13904 0.0
O2 O 0.19692 0.19432 0.15096 0.0
C3 C 0.17371 0.10639 0.15998 0.0
O4 O 0.13316 0.13485 0.14555 0.0
Co5 Co 0.14022 0.08589 0.11351 0.0
O6 O 0.10494 0.08333 0.13415 0.0
C7 C 0.17421 0.14567 0.08517 0.0
C8 C 0.22482 0.19761 0.14658 0.0
C9 C 0.107 0.10792 0.14459 0.0
O10 O 0.17868 0.16198 0.10507 0.0
O11 O 0.16239 0.11538 0.08504 0.0
O12 O 0.18031 0.13165 0.17286 0.0
O13 O 0.17481 0.10998 0.13632 0.0
Co14 Co 0.85191 0.03494 0.13967 0.0
O15 O 0.82931 0.05791 0.13858 0.0
O16 O 0.80777 0.00659 0.14832 0.0
C17 C 0.89488 0.07133 0.16079 0.0
O18 O 0.86797 0.00362 0.14351 0.0
Co19 Co 0.91785 0.06196 0.11401 0.0
O20 O 0.92001 0.02818 0.13348 0.0
C21 C 0.85944 0.03751 0.08412 0.0
C22 C 0.80428 0.03123 0.1448 0.0
C23 C 0.8951 0.00481 0.14288 0.0
O24 O 0.84233 0.02434 0.10345 0.0
O25 O 0.88969 0.05615 0.0849 0.0
O26 O 0.86905 0.05161 0.17265 0.0
O27 O 0.89248 0.07055 0.13703 0.0
Co28 Co 0.96676 0.82014 0.13872 0.0
O29 O 0.94295 0.7746 0.13746 0.0
O30 O 0.99411 0.80338 0.14799 0.0
C31 C 0.93041 0.82762 0.15904 0.0
O32 O -0.00127 0.86736 0.14279 0.0
Co33 Co 0.94149 0.85999 0.11209 0.0
O34 O 0.97515 0.89552 0.13197 0.0
C35 C 0.96565 0.82509 0.08311 0.0
C36 C 0.96917 0.77554 0.14407 0.0
C37 C 0.99802 0.89355 0.14188 0.0
O38 O 0.97823 0.82102 0.10273 0.0
O39 O 0.94737 0.83712 0.08339 0.0
O40 O 0.94941 0.82096 0.17137 0.0
O41 O 0.93179 0.82598 0.13532 0.0
Co42 Co 0.1465 0.18189 0.85819 0.0
O43 O 0.16882 0.22749 0.85908 0.0
O44 O 0.19062 0.19792 0.84943 0.0
C45 C 0.10327 0.17467 0.83715 0.0
O46 O 0.13091 0.13461 0.8545 0.0
Co47 Co 0.08075 0.14241 0.88397 0.0
O48 O 0.0789 0.10658 0.86452 0.0
C49 C 0.13919 0.17703 0.91377 0.0
C50 C 0.19392 0.22599 0.85282 0.0
C51 C 0.10396 0.10846 0.85513 0.0
O52 O 0.1563 0.18122 0.89439 0.0
O53 O 0.10888 0.16498 0.91305 0.0
O54 O 0.12914 0.18101 0.82524 0.0
O55 O 0.10575 0.17647 0.86091 0.0
Co56 Co 0.81703 0.96856 0.85752 0.0
O57 O 0.77144 0.94504 0.85886 0.0
O58 O 0.80054 0.99598 0.84783 0.0
C59 C 0.82395 0.93164 0.83755 0.0
O60 O 0.86421 0.0003 0.85315 0.0
Co61 Co 0.85724 0.94361 0.88401 0.0
O62 O 0.89265 0.97703 0.86387 0.0
C63 C 0.8227 0.96823 0.91306 0.0
C64 C 0.7726 0.9712 0.85174 0.0
C65 C 0.89047 -0.00025 0.85392 0.0
O66 O 0.81827 0.98058 0.89343 0.0
O67 O 0.83471 0.94994 0.91274 0.0
O68 O 0.81746 0.95063 0.82505 0.0
O69 O 0.82267 0.93348 0.86126 0.0
Co70 Co 0.03041 0.85136 0.85626 0.0
O71 O 0.05426 0.82966 0.85715 0.0
O72 O 0.0031 0.80733 0.84666 0.0
C73 C 0.06666 0.89546 0.83618 0.0
O74 O 0.99843 0.86666 0.85253 0.0
Co75 Co 0.0558 0.91619 0.88345 0.0
O76 O 0.02212 0.91828 0.86379 0.0
C77 C 0.03147 0.85677 0.91195 0.0
C78 C 0.02808 0.80445 0.85038 0.0
C79 C -0.00078 0.89359 0.85374 0.0
O80 O 0.01892 0.84033 0.89222 0.0
O81 O 0.04981 0.88708 0.91187 0.0
O82 O 0.0477 0.8699 0.82371 0.0
O83 O 0.06537 0.89215 0.85987 0.0
Co84 Co 0.84659 0.48372 0.47167 0.0
O85 O 0.89216 0.505 0.4714 0.0
O86 O 0.86349 0.52737 0.48229 0.0
C87 C 0.83773 0.43869 0.49073 0.0
O88 O 0.79941 0.46892 0.47498 0.0
Co89 Co 0.80685 0.42004 0.4431 0.0
O90 O 0.77108 0.41763 0.463 0.0
C91 C 0.84355 0.48041 0.41594 0.0
C92 C 0.8913 0.53007 0.47877 0.0
C93 C 0.77311 0.44219 0.47347 0.0
O94 O 0.84717 0.49622 0.43598 0.0
O95 O 0.83108 0.45005 0.41538 0.0
O96 O 0.84435 0.46383 0.50378 0.0
O97 O 0.84025 0.44286 0.46712 0.0
Co98 Co 0.51486 0.36186 0.47335 0.0
O99 O 0.49238 0.38496 0.47222 0.0
O100 O 0.47113 0.33412 0.48335 0.0
C101 C 0.55872 0.39914 0.49306 0.0
O102 O 0.53081 0.33053 0.4776 0.0
Co103 Co 0.57985 0.38729 0.44646 0.0
O104 O 0.58251 0.35431 0.46667 0.0
C105 C 0.52035 0.36224 0.41779 0.0
C106 C 0.46765 0.35871 0.47956 0.0
C107 C 0.55782 0.33148 0.47678 0.0
O108 O 0.5038 0.34969 0.43748 0.0
O109 O 0.55064 0.38078 0.41796 0.0
O110 O 0.53341 0.38 0.50571 0.0
O111 O 0.55537 0.39719 0.46937 0.0
Co112 Co 0.63172 0.14927 0.47584 0.0
O113 O 0.60894 0.1037 0.47685 0.0
O114 O 0.66084 0.13441 0.48437 0.0
C115 C 0.59668 0.15742 0.49744 0.0
O116 O 0.66307 0.19686 0.47732 0.0
Co117 Co 0.6029 0.18604 0.44942 0.0
O118 O 0.63779 0.22348 0.46689 0.0
C119 C 0.62608 0.15045 0.42018 0.0
C120 C 0.63611 0.10601 0.48236 0.0
C121 C 0.66177 0.22269 0.47581 0.0
O122 O 0.64008 0.14762 0.43945 0.0
O123 O 0.6075 0.16212 0.42087 0.0
O124 O 0.61715 0.1522 0.50908 0.0
O125 O 0.59587 0.1539 0.47377 0.0
Co126 Co 0.81567 0.51512 0.19014 0.0
O127 O 0.83749 0.56068 0.18942 0.0
O128 O 0.85946 0.53113 0.18018 0.0
C129 C 0.77112 0.50617 0.17018 0.0
O130 O 0.80025 0.46769 0.18813 0.0
Co131 Co 0.75147 0.47731 0.21845 0.0
O132 O 0.74886 0.44043 0.20006 0.0
C133 C 0.81157 0.51394 0.24592 0.0
C134 C 0.86252 0.55921 0.18289 0.0
C135 C 0.77336 0.44165 0.19014 0.0
O136 O 0.82753 0.51677 0.22611 0.0
O137 O 0.78126 0.50195 0.24617 0.0
O138 O 0.79637 0.51198 0.15758 0.0
O139 O 0.77498 0.50956 0.19379 0.0
Co140 Co 0.4843 0.29831 0.19095 0.0
O141 O 0.43869 0.27552 0.19144 0.0
O142 O 0.46892 0.32699 0.18232 0.0
C143 C 0.49108 0.26216 0.16966 0.0
O144 O 0.53184 0.32951 0.18777 0.0
Co145 Co 0.52233 0.27046 0.2168 0.0
O146 O 0.55885 0.30453 0.19796 0.0
C147 C 0.48796 0.2946 0.24653 0.0
C148 C 0.44064 0.30237 0.1854 0.0
C149 C 0.55769 0.32815 0.18867 0.0
O150 O 0.48457 0.30823 0.22726 0.0
O151 O 0.49943 0.27585 0.24571 0.0
O152 O 0.48541 0.28221 0.15787 0.0
O153 O 0.48895 0.26252 0.19341 0.0
Co154 Co 0.69557 0.18176 0.19399 0.0
O155 O 0.719 0.15967 0.19594 0.0
O156 O 0.66885 0.13829 0.18296 0.0
C157 C 0.73371 0.22652 0.17579 0.0
O158 O 0.66418 0.19746 0.18872 0.0
Co159 Co 0.71886 0.24557 0.2222 0.0
O160 O 0.68707 0.24871 0.2008 0.0
C161 C 0.69255 0.18499 0.2495 0.0
C162 C 0.69333 0.13495 0.18777 0.0
C163 C 0.66496 0.22438 0.18976 0.0
O164 O 0.68121 0.16927 0.2293 0.0
O165 O 0.71093 0.21528 0.25021 0.0
O166 O 0.7156 0.2016 0.16238 0.0
O167 O 0.73035 0.22227 0.19937 0.0
Co168 Co 0.51365 0.81338 0.80439 0.0
O169 O 0.5592 0.83564 0.80254 0.0
O170 O 0.52999 0.85787 0.81207 0.0
C171 C 0.50726 0.77117 0.82646 0.0
O172 O 0.46645 0.79783 0.80891 0.0
Co173 Co 0.47356 0.74653 0.78039 0.0
O174 O 0.43832 0.74543 0.80019 0.0
C175 C 0.50681 0.80365 0.74903 0.0
C176 C 0.55795 0.861 0.80836 0.0
C177 C 0.44036 0.77079 0.80907 0.0
O178 O 0.51166 0.82157 0.76801 0.0
O179 O 0.49494 0.77341 0.75049 0.0
O180 O 0.51398 0.79755 0.83771 0.0
O181 O 0.50825 0.77258 0.80264 0.0
Co182 Co 0.1837 0.6974 0.80787 0.0
O183 O 0.16244 0.72166 0.80662 0.0
O184 O 0.13947 0.67049 0.81716 0.0
C185 C 0.22771 0.73344 0.82818 0.0
O186 O 0.19846 0.66504 0.81194 0.0
Co187 Co 0.24884 0.72218 0.78127 0.0
O188 O 0.25025 0.68835 0.80122 0.0
C189 C 0.18987 0.69868 0.75228 0.0
C190 C 0.13696 0.69565 0.81327 0.0
C191 C 0.22529 0.66558 0.8111 0.0
O192 O 0.17308 0.68602 0.77185 0.0
O193 O 0.22021 0.7168 0.75264 0.0
O194 O 0.20196 0.71463 0.84053 0.0
O195 O 0.22468 0.73208 0.80447 0.0
Co196 Co 0.30234 0.48578 0.80814 0.0
O197 O 0.27935 0.44028 0.80571 0.0
O198 O 0.3297 0.46939 0.8182 0.0
C199 C 0.26415 0.49137 0.82738 0.0
O200 O 0.33346 0.53284 0.81374 0.0
Co201 Co 0.27796 0.5265 0.78169 0.0
O202 O 0.31042 0.56141 0.80276 0.0
C203 C 0.30468 0.49379 0.75273 0.0
C204 C 0.30533 0.44149 0.81342 0.0
C205 C 0.33282 0.55906 0.81314 0.0
O206 O 0.31612 0.48862 0.77254 0.0
O207 O 0.28612 0.50551 0.7528 0.0
O208 O 0.28279 0.48469 0.8402 0.0
O209 O 0.26714 0.49109 0.80372 0.0
Co210 Co 0.4799 0.84619 0.52184 0.0
O211 O 0.50249 0.89168 0.52432 0.0
O212 O 0.52401 0.86245 0.51286 0.0
C213 C 0.43684 0.8407 0.50149 0.0
O214 O 0.46397 0.79909 0.51645 0.0
Co215 Co 0.41393 0.80576 0.54717 0.0
O216 O 0.41207 0.77064 0.52674 0.0
C217 C 0.47237 0.83852 0.5772 0.0
C218 C 0.52751 0.89037 0.51749 0.0
C219 C 0.43706 0.7729 0.51687 0.0
O220 O 0.48956 0.84336 0.55776 0.0
O221 O 0.44212 0.82698 0.57649 0.0
O222 O 0.46258 0.84732 0.48926 0.0
O223 O 0.43935 0.84104 0.52523 0.0
Co224 Co 0.15311 0.63268 0.52572 0.0
O225 O 0.1076 0.60799 0.52706 0.0
O226 O 0.13536 0.65917 0.51648 0.0
C227 C 0.16153 0.597 0.50535 0.0
O228 O 0.20007 0.66546 0.52142 0.0
Co229 Co 0.19441 0.60895 0.55211 0.0
O230 O 0.22917 0.64273 0.53174 0.0
C231 C 0.15832 0.6316 0.58129 0.0
C232 C 0.1078 0.63383 0.52034 0.0
C233 C 0.22652 0.66523 0.52189 0.0
O234 O 0.15386 0.64404 0.56174 0.0
O235 O 0.17103 0.61393 0.58087 0.0
O236 O 0.15421 0.61555 0.49306 0.0
O237 O 0.15999 0.59836 0.52908 0.0
Co238 Co 0.37013 0.52011 0.52548 0.0
O239 O 0.39343 0.49782 0.52679 0.0
O240 O 0.34192 0.47577 0.51751 0.0
C241 C 0.40582 0.56269 0.50364 0.0
O242 O 0.33839 0.53557 0.52151 0.0
Co243 Co 0.39675 0.58656 0.5501 0.0
O244 O 0.36235 0.58778 0.53077 0.0
C245 C 0.3729 0.52903 0.58098 0.0
C246 C 0.36673 0.47255 0.52094 0.0
C247 C 0.33906 0.56245 0.5218 0.0
O248 O 0.36008 0.51137 0.56184 0.0
O249 O 0.39112 0.55932 0.5798 0.0
O250 O 0.38614 0.53645 0.49223 0.0
O251 O 0.40552 0.56095 0.52745 0.0
H252 H 0.42419 0.32464 0.14502 0.0
H253 H 0.24226 0.23525 0.18767 0.0
H254 H 0.39081 0.28211 0.2168 0.0
H255 H 0.27483 0.22703 0.11528 0.0
H256 H 0.29717 0.27635 0.19822 0.0
H257 H 0.36974 0.31269 0.13481 0.0
C258 C 0.40563 0.31395 0.15892 0.0
C259 C 0.41148 0.30384 0.18158 0.0
C260 C 0.29194 0.26633 0.17975 0.0
C261 C 0.35005 0.29065 0.17032 0.0
C262 C 0.26077 0.24305 0.17373 0.0
C263 C 0.2545 0.22767 0.15078 0.0
C264 C 0.31648 0.27438 0.16244 0.0
C265 C 0.27908 0.23821 0.13331 0.0
C266 C 0.37472 0.30711 0.15311 0.0
C267 C 0.38685 0.28983 0.199 0.0
N268 N 0.30918 0.26075 0.13959 0.0
N269 N 0.35701 0.2833 0.19291 0.0
H270 H 0.77603 0.05308 0.11358 0.0
H271 H 0.71418 0.10559 0.21882 0.0
H272 H 0.76438 0.0079 0.1845 0.0
H273 H 0.67339 0.0976 0.1465 0.0
H274 H 0.72693 0.06436 0.20758 0.0
H275 H 0.73316 0.0638 0.12403 0.0
C276 C 0.7637 0.04465 0.1311 0.0
C277 C 0.77372 0.02999 0.14839 0.0
C278 C 0.71424 0.07079 0.19441 0.0
C279 C 0.72568 0.04301 0.16078 0.0
C280 C 0.70713 0.09439 0.20078 0.0
C281 C 0.69316 0.10504 0.18338 0.0
C282 C 0.7085 0.05887 0.17014 0.0
C283 C 0.68433 0.08994 0.16031 0.0
C284 C 0.73918 0.05059 0.13702 0.0
C285 C 0.75721 0.01939 0.1708 0.0
N286 N 0.6931 0.06822 0.15401 0.0
N287 N 0.73455 0.02703 0.17674 0.0
H288 H 0.89346 0.6077 0.21509 0.0
H289 H 0.94762 0.72665 0.11174 0.0
H290 H 0.89878 0.57776 0.14104 0.0
H291 H 0.99068 0.75679 0.1837 0.0
H292 H 0.93591 0.67245 0.12089 0.0
H293 H 0.9351 0.66192 0.20479 0.0
C294 C 0.90421 0.61252 0.19685 0.0
C295 C 0.89275 0.58867 0.17875 0.0
C296 C 0.94883 0.69104 0.13443 0.0
C297 C 0.9393 0.65049 0.16657 0.0
C298 C 0.95535 0.72187 0.12924 0.0
C299 C 0.9697 0.74578 0.14717 0.0
C300 C 0.95556 0.68397 0.15809 0.0
C301 C 0.97942 0.73873 0.16952 0.0
C302 C 0.92801 0.64336 0.19099 0.0
C303 C 0.90715 0.59576 0.1554 0.0
N304 N 0.97127 0.7081 0.17471 0.0
N305 N 0.92912 0.6264 0.14968 0.0
H306 H 0.32562 0.42442 0.85458 0.0
H307 H 0.23363 0.24217 0.81305 0.0
H308 H 0.28493 0.39134 0.78224 0.0
H309 H 0.22228 0.27647 0.88376 0.0
H310 H 0.27635 0.29651 0.80281 0.0
H311 H 0.31172 0.3696 0.86544 0.0
C312 C 0.31495 0.40582 0.84071 0.0
C313 C 0.30585 0.41191 0.81769 0.0
C314 C 0.26524 0.29175 0.8209 0.0
C315 C 0.29051 0.35006 0.82971 0.0
C316 C 0.24103 0.26092 0.82673 0.0
C317 C 0.22438 0.25535 0.84905 0.0
C318 C 0.27295 0.31661 0.8378 0.0
C319 C 0.23445 0.28021 0.8662 0.0
C320 C 0.30701 0.37471 0.8469 0.0
C321 C 0.29185 0.38722 0.80032 0.0
N322 N 0.25795 0.30996 0.86012 0.0
N323 N 0.28424 0.35717 0.80677 0.0
H324 H 0.7221 0.95035 0.88253 0.0
H325 H 0.60855 0.88775 0.77741 0.0
H326 H 0.75576 0.99141 0.8104 0.0
H327 H 0.57459 0.90209 0.84725 0.0
H328 H 0.66228 0.93042 0.78781 0.0
H329 H 0.66823 0.93773 0.87093 0.0
C330 C 0.71817 0.95752 0.86449 0.0
C331 C 0.74299 0.97157 0.84725 0.0
C332 C 0.64293 0.92503 0.80053 0.0
C333 C 0.68165 0.95633 0.83358 0.0
C334 C 0.61238 0.90063 0.79465 0.0
C335 C 0.58752 0.89143 0.81168 0.0
C336 C 0.64871 0.93924 0.82402 0.0
C337 C 0.59339 0.90863 0.83374 0.0
C338 C 0.68753 0.95048 0.8579 0.0
C339 C 0.73699 0.98046 0.8241 0.0
N340 N 0.62374 0.93115 0.8397 0.0
N341 N 0.70658 0.97174 0.81759 0.0
H342 H 0.10956 0.7168 0.78067 0.0
H343 H 0.04723 0.77527 0.88299 0.0
H344 H 0.09746 0.67586 0.85339 0.0
H345 H 0.00965 0.76659 0.80937 0.0
H346 H 0.05996 0.73355 0.87346 0.0
H347 H 0.06773 0.72951 0.78976 0.0
C348 C 0.09735 0.70972 0.79833 0.0
C349 C 0.10693 0.69562 0.81645 0.0
C350 C 0.04798 0.73995 0.85961 0.0
C351 C 0.06004 0.71095 0.82729 0.0
C352 C 0.04085 0.7638 0.86503 0.0
C353 C 0.02771 0.77431 0.84681 0.0
C354 C 0.04312 0.72762 0.83549 0.0
C355 C 0.01985 0.75897 0.82382 0.0
C356 C 0.07342 0.71683 0.80349 0.0
C357 C 0.0906 0.68684 0.83903 0.0
N358 N 0.02858 0.73695 0.8185 0.0
N359 N 0.0685 0.69554 0.84415 0.0
H360 H 0.93997 0.56157 0.44674 0.0
H361 H 0.09269 0.66351 0.48411 0.0
H362 H 0.91048 0.56433 0.52147 0.0
H363 H 0.05446 0.6028 0.54812 0.0
H364 H 0.03844 0.65179 0.47338 0.0
H365 H 0.99448 0.60203 0.4575 0.0
C366 C 0.94492 0.57165 0.46521 0.0
C367 C 0.9211 0.55981 0.48333 0.0
C368 C 0.04218 0.6417 0.49006 0.0
C369 C 0.98315 0.6053 0.49594 0.0
C370 C 0.07299 0.64847 0.49623 0.0
C371 C 0.0776 0.63341 0.51665 0.0
C372 C 0.0163 0.62014 0.5047 0.0
C373 C 0.05156 0.61423 0.53189 0.0
C374 C 0.97592 0.59488 0.47131 0.0
C375 C 0.92843 0.57314 0.50705 0.0
N376 N 0.02189 0.60788 0.52548 0.0
N377 N 0.95918 0.59451 0.51296 0.0
H378 H 0.34044 0.43085 0.48257 0.0
H379 H 0.43282 0.34026 0.522 0.0
H380 H 0.39134 0.44588 0.55122 0.0
H381 H 0.43597 0.37748 0.44898 0.0
H382 H 0.39287 0.35502 0.53402 0.0
H383 H 0.35122 0.38754 0.47244 0.0
C384 C 0.35283 0.42419 0.49586 0.0
C385 C 0.36558 0.44201 0.5175 0.0
C386 C 0.40144 0.35874 0.51511 0.0
C387 C 0.37726 0.39273 0.50641 0.0
C388 C 0.42404 0.35029 0.50826 0.0
C389 C 0.43771 0.35816 0.48464 0.0
C390 C 0.39235 0.37454 0.498 0.0
C391 C 0.42604 0.37144 0.46747 0.0
C392 C 0.35895 0.39963 0.4901 0.0
C393 C 0.38162 0.43282 0.53416 0.0
N394 N 0.4042 0.37959 0.47457 0.0
N395 N 0.38732 0.40893 0.52816 0.0
H396 H 0.65494 0.08863 0.52409 0.0
H397 H 0.56829 0.90828 0.47824 0.0
H398 H 0.61984 0.05771 0.45014 0.0
H399 H 0.55516 0.9394 0.54978 0.0
H400 H 0.61103 0.9631 0.46942 0.0
H401 H 0.64241 0.03398 0.53412 0.0
C402 C 0.64584 0.07058 0.50974 0.0
C403 C 0.63793 0.07713 0.48643 0.0
C404 C 0.59952 0.95755 0.48737 0.0
C405 C 0.62394 0.01546 0.49753 0.0
C406 C 0.57529 0.92643 0.4924 0.0
C407 C 0.5581 0.91985 0.51453 0.0
C408 C 0.60664 0.98168 0.50485 0.0
C409 C 0.56772 0.94394 0.53232 0.0
C410 C 0.63866 0.03956 0.51545 0.0
C411 C 0.62588 0.05317 0.46841 0.0
N412 N 0.59118 0.97399 0.527 0.0
N413 N 0.61885 0.02316 0.47442 0.0
H414 H 0.05352 0.05428 0.1607 0.0
H415 H 0.94622 0.12903 0.15149 0.0
H416 H 0.09443 0.15616 0.15369 0.0
H417 H 0.9161 0.04257 0.19291 0.0
H418 H 0.00162 0.14209 0.15606 0.0
H419 H 0.00382 0.05028 0.17527 0.0
C420 C 0.05209 0.07583 0.16238 0.0
C421 C 0.0779 0.10553 0.15551 0.0
C422 C 0.98306 0.12077 0.16489 0.0
C423 C 0.02118 0.10111 0.17215 0.0
C424 C 0.95148 0.11348 0.16245 0.0
C425 C 0.92675 0.0847 0.17177 0.0
C426 C 0.9897 0.09852 0.17596 0.0
C427 C 0.93462 0.06509 0.18557 0.0
C428 C 0.02385 0.07357 0.17096 0.0
C429 C 0.07499 0.13275 0.15853 0.0
N430 N 0.96545 0.07183 0.18657 0.0
N431 N 0.0469 0.12981 0.16615 0.0
H432 H 0.94858 0.00448 0.15883 0.0
H433 H 0.87323 0.82193 0.14879 0.0
H434 H 0.84681 0.94362 0.15065 0.0
H435 H 0.95909 0.87781 0.19101 0.0
H436 H 0.86064 0.86466 0.15274 0.0
H437 H 0.95233 0.95845 0.17287 0.0
C438 C 0.92701 0.98147 0.16012 0.0
C439 C 0.89741 0.97774 0.15313 0.0
C440 C 0.88173 0.86724 0.16186 0.0
C441 C 0.90154 0.92506 0.16919 0.0
C442 C 0.88874 0.84274 0.15978 0.0
C443 C 0.9172 0.84651 0.16955 0.0
C444 C 0.90395 0.89608 0.17304 0.0
C445 C 0.93679 0.87401 0.18335 0.0
C446 C 0.92912 0.95529 0.16839 0.0
C447 C 0.87015 0.9475 0.15561 0.0
N448 N 0.93034 0.8983 0.18403 0.0
N449 N 0.87295 0.92219 0.16299 0.0
H450 H 0.17998 0.05563 0.14816 0.0
H451 H 0.99807 0.94683 0.15865 0.0
H452 H 0.12406 0.0835 0.19256 0.0
H453 H 0.05927 0.90651 0.14946 0.0
H454 H 0.04395 0.99647 0.1731 0.0
H455 H 0.13777 -2e-05 0.15162 0.0
C456 C 0.15931 0.04978 0.15951 0.0
C457 C 0.15534 0.07399 0.17006 0.0
C458 C 0.04722 0.97657 0.16832 0.0
C459 C 0.10636 0.01081 0.17302 0.0
C460 C 0.02114 0.94837 0.15981 0.0
C461 C 0.02501 0.92273 0.15243 0.0
C462 C 0.07751 0.97938 0.16894 0.0
C463 C 0.0553 0.92581 0.15474 0.0
C464 C 0.1351 0.01808 0.16133 0.0
C465 C 0.12801 0.06539 0.1843 0.0
N466 N 0.08055 0.95387 0.16234 0.0
N467 N 0.10399 0.0345 0.18471 0.0
H468 H 0.03762 0.91675 0.80441 0.0
H469 H 0.15286 0.09649 0.84757 0.0
H470 H 0.12349 0.94733 0.8468 0.0
H471 H 0.05101 0.05435 0.83869 0.0
H472 H 0.14878 0.04665 0.83317 0.0
H473 H 0.04998 0.97242 0.8019 0.0
C474 C 0.05987 0.93536 0.81209 0.0
C475 C 0.07956 0.92766 0.82596 0.0
C476 C 0.12744 0.04856 0.83407 0.0
C477 C 0.09357 0.9908 0.82335 0.0
C478 C 0.1297 0.0769 0.84234 0.0
C479 C 0.10213 0.07932 0.84482 0.0
C480 C 0.0975 0.02265 0.82788 0.0
C481 C 0.07277 0.05325 0.83757 0.0
C482 C 0.06664 0.96699 0.81097 0.0
C483 C 0.10775 0.95248 0.83601 0.0
N484 N 0.07119 0.02588 0.82955 0.0
N485 N 0.11376 0.98297 0.83479 0.0
H486 H 0.08278 0.12475 0.80506 0.0
H487 H 0.90214 0.06036 0.8455 0.0
H488 H 0.05128 0.17995 0.84654 0.0
H489 H 0.94462 0.00085 0.83777 0.0
H490 H 0.95212 0.10613 0.8312 0.0
H491 H 0.02711 0.08172 0.80145 0.0
C492 C 0.06401 0.12845 0.8123 0.0
C493 C 0.0714 0.15569 0.82627 0.0
C494 C 0.95024 0.08291 0.8323 0.0
C495 C 0.00825 0.10688 0.8224 0.0
C496 C 0.92182 0.05683 0.8405 0.0
C497 C 0.91949 0.02692 0.84333 0.0
C498 C 0.97629 0.07894 0.82654 0.0
C499 C 0.94566 0.02366 0.83638 0.0
C500 C 0.03236 0.10375 0.81054 0.0
C501 C 0.04637 0.15915 0.83572 0.0
N502 N 0.9731 0.04943 0.82846 0.0
N503 N 0.01585 0.1348 0.8339 0.0
H504 H -0.0006 0.94719 0.83764 0.0
H505 H 0.81747 0.87424 0.84831 0.0
H506 H 0.93789 0.84553 0.84586 0.0
H507 H 0.87382 0.95919 0.80523 0.0
H508 H 0.85955 0.86071 0.84426 0.0
H509 H 0.95365 0.95138 0.82359 0.0
C510 C 0.97629 0.92572 0.83634 0.0
C511 C 0.9723 0.89603 0.84335 0.0
C512 C 0.86234 0.88177 0.83496 0.0
C513 C 0.91993 0.90068 0.82728 0.0
C514 C 0.83821 0.88933 0.83712 0.0
C515 C 0.84233 0.91782 0.82711 0.0
C516 C 0.89116 0.90349 0.82348 0.0
C517 C 0.86975 0.93688 0.81306 0.0
C518 C 0.95027 0.92809 0.82805 0.0
C519 C 0.94196 0.86892 0.84087 0.0
N520 N 0.89369 0.9299 0.81231 0.0
N521 N 0.91678 0.87198 0.8335 0.0
H522 H 0.76027 0.49045 0.48153 0.0
H523 H 0.58148 0.37194 0.52525 0.0
H524 H 0.71981 0.38879 0.49004 0.0
H525 H 0.60939 0.45671 0.48209 0.0
H526 H 0.63769 0.38617 0.52789 0.0
H527 H 0.70999 0.48528 0.49627 0.0
C528 C 0.74097 0.46712 0.48679 0.0
C529 C 0.74393 0.4399 0.48409 0.0
C530 C 0.63154 0.40221 0.51863 0.0
C531 C 0.68691 0.43405 0.50143 0.0
C532 C 0.5996 0.39436 0.51743 0.0
C533 C 0.59103 0.41318 0.5033 0.0
C534 C 0.65478 0.42932 0.50606 0.0
C535 C 0.61523 0.44163 0.49308 0.0
C536 C 0.71241 0.46425 0.49524 0.0
C537 C 0.71826 0.41029 0.49134 0.0
N538 N 0.64607 0.44868 0.49437 0.0
N539 N 0.69072 0.40811 0.49957 0.0
H540 H 0.50939 0.27097 0.48651 0.0
H541 H 0.62764 0.20933 0.52753 0.0
H542 H 0.61154 0.33132 0.49242 0.0
H543 H 0.53892 0.15149 0.48912 0.0
H544 H 0.61513 0.25251 0.52998 0.0
H545 H 0.51432 0.22603 0.50176 0.0
C546 C 0.53281 0.27487 0.49127 0.0
C547 C 0.56019 0.30476 0.48769 0.0
C548 C 0.59792 0.22992 0.52182 0.0
C549 C 0.56581 0.25366 0.50556 0.0
C550 C 0.60481 0.20515 0.52075 0.0
C551 C 0.5843 0.17704 0.50795 0.0
C552 C 0.57011 0.22604 0.51045 0.0
C553 C 0.55533 0.17296 0.49903 0.0
C554 C 0.53555 0.24925 0.50002 0.0
C555 C 0.58989 0.30849 0.49438 0.0
N556 N 0.54924 0.1974 0.50015 0.0
N557 N 0.59195 0.28316 0.50285 0.0
H558 H 0.78742 0.41667 0.52264 0.0
H559 H 0.72352 0.23639 0.48108 0.0
H560 H 0.84206 0.38687 0.47854 0.0
H561 H 0.66273 0.27708 0.4911 0.0
H562 H 0.76946 0.28735 0.49348 0.0
H563 H 0.7444 0.36085 0.52533 0.0
C564 C 0.79097 0.3982 0.51455 0.0
C565 C 0.81814 0.40615 0.50029 0.0
C566 C 0.74597 0.28491 0.49324 0.0
C567 C 0.76934 0.34284 0.5031 0.0
C568 C 0.71978 0.25592 0.48613 0.0
C569 C 0.68937 0.25271 0.48463 0.0
C570 C 0.74163 0.31066 0.49929 0.0
C571 C 0.68588 0.27875 0.49154 0.0
C572 C 0.76629 0.3665 0.51578 0.0
C573 C 0.82137 0.38153 0.48968 0.0
N574 N 0.71176 0.30673 0.49848 0.0
N575 N 0.79708 0.35094 0.49107 0.0
H576 H 0.79002 0.27715 0.18933 0.0
H577 H 0.71971 0.38792 0.17454 0.0
H578 H 0.70841 0.25003 0.14247 0.0
H579 H 0.82111 0.42757 0.18415 0.0
H580 H 0.71531 0.3374 0.16173 0.0
H581 H 0.804 0.33296 0.18557 0.0
C582 C 0.7758 0.28319 0.17743 0.0
C583 C 0.74811 0.25917 0.16617 0.0
C584 C 0.73859 0.35733 0.16625 0.0
C585 C 0.76291 0.32249 0.16281 0.0
C586 C 0.74106 0.38602 0.17383 0.0
C587 C 0.77075 0.41178 0.18079 0.0
C588 C 0.76587 0.35416 0.16618 0.0
C589 C 0.79773 0.40821 0.17913 0.0
C590 C 0.78362 0.31497 0.17543 0.0
C591 C 0.73012 0.268 0.15125 0.0
N592 N 0.79456 0.37971 0.17245 0.0
N593 N 0.73727 0.29897 0.15061 0.0
H594 H 0.71956 0.5116 0.18081 0.0
H595 H 0.61162 0.32825 0.17336 0.0
H596 H 0.74893 0.45438 0.13977 0.0
H597 H 0.57113 0.38952 0.1809 0.0
H598 H 0.66161 0.37405 0.15931 0.0
H599 H 0.66421 0.46851 0.17805 0.0
C600 C 0.7141 0.49037 0.17035 0.0
C601 C 0.73865 0.48641 0.16051 0.0
C602 C 0.64162 0.37736 0.16368 0.0
C603 C 0.67581 0.43647 0.15836 0.0
C604 C 0.61321 0.35131 0.17196 0.0
C605 C 0.58736 0.3552 0.17871 0.0
C606 C 0.64441 0.40762 0.16262 0.0
C607 C 0.59055 0.3855 0.17611 0.0
C608 C 0.68257 0.46567 0.16894 0.0
C609 C 0.73055 0.45836 0.14743 0.0
N610 N 0.61876 0.41068 0.16869 0.0
N611 N 0.69981 0.43396 0.14737 0.0
H612 H 0.48379 0.20398 0.17831 0.0
H613 H 0.66603 0.27843 0.1736 0.0
H614 H 0.54209 0.29139 0.13851 0.0
H615 H 0.60449 0.17646 0.17914 0.0
H616 H 0.6211 0.28286 0.15777 0.0
H617 H 0.52609 0.19075 0.17454 0.0
C618 C 0.50505 0.21972 0.16785 0.0
C619 C 0.50965 0.24881 0.1588 0.0
C620 C 0.61756 0.25946 0.16205 0.0
C621 C 0.55871 0.23478 0.15556 0.0
C622 C 0.6431 0.25695 0.17135 0.0
C623 C 0.63879 0.22709 0.17817 0.0
C624 C 0.58736 0.23201 0.1601 0.0
C625 C 0.60876 0.19998 0.17437 0.0
C626 C 0.52931 0.21233 0.16587 0.0
C627 C 0.53768 0.26864 0.14565 0.0
N628 N 0.584 0.20315 0.16607 0.0
N629 N 0.5617 0.26178 0.14512 0.0
H630 H 0.24891 0.70445 0.8601 0.0
H631 H 0.4284 0.81978 0.81631 0.0
H632 H 0.27947 0.79048 0.81795 0.0
H633 H 0.38669 0.71819 0.8265 0.0
H634 H 0.37872 0.81583 0.831 0.0
H635 H 0.30465 0.71703 0.86283 0.0
C636 C 0.26753 0.72678 0.85253 0.0
C637 C 0.25981 0.74645 0.83865 0.0
C638 C 0.38069 0.79453 0.83032 0.0
C639 C 0.32303 0.7607 0.84146 0.0
C640 C 0.40895 0.79671 0.8219 0.0
C641 C 0.41143 0.76915 0.81968 0.0
C642 C 0.35491 0.76468 0.83691 0.0
C643 C 0.38554 0.73993 0.8274 0.0
C644 C 0.2992 0.73369 0.85377 0.0
C645 C 0.28462 0.77474 0.82874 0.0
N646 N 0.35824 0.73841 0.83552 0.0
N647 N 0.31516 0.78086 0.83005 0.0
H648 H 0.20692 0.48453 0.81536 0.0
H649 H 0.27821 0.6656 0.82862 0.0
H650 H 0.28967 0.53993 0.86091 0.0
H651 H 0.17695 0.60412 0.81795 0.0
H652 H 0.28197 0.61967 0.8428 0.0
H653 H 0.1926 0.52603 0.81956 0.0
C654 C 0.22132 0.5049 0.82711 0.0
C655 C 0.24948 0.50898 0.83777 0.0
C656 C 0.25883 0.61633 0.83778 0.0
C657 C 0.23429 0.55718 0.8416 0.0
C658 C 0.25672 0.64245 0.82942 0.0
C659 C 0.22731 0.63852 0.82167 0.0
C660 C 0.23146 0.58593 0.83787 0.0
C661 C 0.20014 0.60812 0.82353 0.0
C662 C 0.21331 0.5287 0.82936 0.0
C663 C 0.26764 0.53591 0.85254 0.0
N664 N 0.20298 0.58283 0.83096 0.0
N665 N 0.2603 0.55958 0.85339 0.0
H666 H 0.45832 0.75215 0.85933 0.0
H667 H 0.39304 0.57028 0.82271 0.0
H668 H 0.5124 0.71884 0.8184 0.0
H669 H 0.33392 0.61342 0.82882 0.0
H670 H 0.43886 0.62037 0.83668 0.0
H671 H 0.41538 0.69669 0.86446 0.0
C672 C 0.46183 0.73307 0.85254 0.0
C673 C 0.48867 0.73984 0.83826 0.0
C674 C 0.4157 0.61859 0.83534 0.0
C675 C 0.43999 0.67692 0.8439 0.0
C676 C 0.38957 0.59011 0.82734 0.0
C677 C 0.35979 0.58794 0.82407 0.0
C678 C 0.41191 0.6449 0.84045 0.0
C679 C 0.35664 0.61432 0.83054 0.0
C680 C 0.43719 0.70153 0.85518 0.0
C681 C 0.49191 0.71442 0.82944 0.0
N682 N 0.38248 0.64184 0.83825 0.0
N683 N 0.46761 0.68401 0.83211 0.0
H684 H 0.384 0.71848 0.50109 0.0
H685 H 0.46299 0.61518 0.51212 0.0
H686 H 0.48617 0.76163 0.5079 0.0
H687 H 0.37568 0.5819 0.47115 0.0
H688 H 0.4746 0.66999 0.5066 0.0
H689 H 0.38122 0.66911 0.48708 0.0
C690 C 0.40586 0.71763 0.49947 0.0
C691 C 0.43529 0.74397 0.50615 0.0
C692 C 0.45339 0.65085 0.49807 0.0
C693 C 0.43227 0.68764 0.49019 0.0
C694 C 0.44694 0.61961 0.50106 0.0
C695 C 0.41834 0.59418 0.49216 0.0
C696 C 0.4305 0.65646 0.48688 0.0
C697 C 0.39807 0.60099 0.4782 0.0
C698 C 0.4043 0.68957 0.49123 0.0
C699 C 0.46294 0.74177 0.50322 0.0
N700 N 0.404 0.63152 0.47667 0.0
N701 N 0.46068 0.71387 0.49594 0.0
H702 H 0.27964 0.6657 0.50418 0.0
H703 H 0.38618 0.84781 0.51169 0.0
H704 H 0.23827 0.72597 0.51357 0.0
H705 H 0.41468 0.79127 0.46879 0.0
H706 H 0.33063 0.80543 0.50828 0.0
H707 H 0.32827 0.71149 0.48833 0.0
C708 C 0.28074 0.68855 0.50279 0.0
C709 C 0.25512 0.69221 0.51066 0.0
C710 C 0.34883 0.80265 0.49884 0.0
C711 C 0.31067 0.74465 0.49251 0.0
C712 C 0.38049 0.82698 0.5006 0.0
C713 C 0.40486 0.82283 0.49062 0.0
C714 C 0.34179 0.77363 0.48776 0.0
C715 C 0.39645 0.79533 0.47668 0.0
C716 C 0.30836 0.71459 0.49346 0.0
C717 C 0.2576 0.7222 0.50797 0.0
N718 N 0.36561 0.77119 0.47636 0.0
N719 N 0.28516 0.74744 0.49958 0.0
H720 H 0.2784 0.51301 0.51449 0.0
H721 H 0.21113 0.62641 0.47292 0.0
H722 H 0.33694 0.61496 0.50556 0.0
H723 H 0.15752 0.54056 0.51569 0.0
H724 H 0.25483 0.6147 0.4696 0.0
H725 H 0.23207 0.51638 0.50057 0.0
C726 C 0.2816 0.53605 0.50933 0.0
C727 C 0.31144 0.56385 0.51166 0.0
C728 C 0.233 0.59789 0.47893 0.0
C729 C 0.25873 0.56766 0.49529 0.0
C730 C 0.20792 0.60429 0.48052 0.0
C731 C 0.18092 0.58443 0.49473 0.0
C732 C 0.23048 0.57115 0.4912 0.0
C733 C 0.1781 0.55643 0.50466 0.0
C734 C 0.25519 0.53789 0.50134 0.0
C735 C 0.31423 0.59303 0.50452 0.0
N736 N 0.20279 0.55078 0.50298 0.0
N737 N 0.28813 0.59422 0.49679 0.0
H738 H 0.16501 0.19485 0.07144 0.0
H739 H 0.19219 0.17469 0.92817 0.0
H740 H 0.19737 0.13227 0.0439 0.0
H741 H 0.12059 0.1953 0.95528 0.0
H742 H 0.21087 0.17733 0.97081 0.0
H743 H 0.16563 0.21314 0.0289 0.0
C744 C 0.17305 0.18564 0.05653 0.0
C745 C 0.18064 0.16169 0.06098 0.0
C746 C 0.1915 0.1819 0.96726 0.0
C747 C 0.1817 0.18255 0.01273 0.0
C748 C 0.18091 0.18049 0.94301 0.0
C749 C 0.15443 0.18416 0.93835 0.0
C750 C 0.1758 0.18755 0.98678 0.0
C751 C 0.14069 0.1917 0.95821 0.0
C752 C 0.17328 0.19594 0.03234 0.0
C753 C 0.19084 0.15041 0.04109 0.0
N754 N 0.15136 0.19289 0.98162 0.0
N755 N 0.19084 0.16075 0.01776 0.0
H756 H 0.80027 0.9308 0.95395 0.0
H757 H 0.87716 0.07495 0.04298 0.0
H758 H 0.83092 0.02594 0.92776 0.0
H759 H 0.80774 0.98137 0.06924 0.0
H760 H 0.85798 0.05825 0.00078 0.0
H761 H 0.79942 0.9483 0.9962 0.0
C762 C 0.80626 0.95527 0.95711 0.0
C763 C 0.8161 0.97712 0.93749 0.0
C764 C 0.84647 0.04155 0.01581 0.0
C765 C 0.81582 0.99744 0.98572 0.0
C766 C 0.85752 0.05101 0.03986 0.0
C767 C 0.84432 0.02931 0.0595 0.0
C768 C 0.82263 0.00993 0.01131 0.0
C769 C 0.81868 0.99873 0.05455 0.0
C770 C 0.80564 0.96522 0.98118 0.0
C771 C 0.82333 0.00844 0.94245 0.0
N772 N 0.80913 0.98967 0.03081 0.0
N773 N 0.82381 0.01792 0.96622 0.0
H774 H 0.97427 0.80589 0.92594 0.0
H775 H 0.02203 0.82945 0.0691 0.0
H776 H 0.0685 0.87194 0.95315 0.0
H777 H 0.92871 0.80465 0.04175 0.0
H778 H 0.03855 0.82692 0.02657 0.0
H779 H 0.95733 0.78739 0.96853 0.0
C780 C 0.99157 0.81587 0.94079 0.0
C781 C 0.02262 0.84085 0.93622 0.0
C782 C 0.01427 0.82137 0.03005 0.0
C783 C 0.00362 0.81972 0.98454 0.0
C784 C 0.00483 0.82272 0.05423 0.0
C785 C 0.97419 0.81786 0.05875 0.0
C786 C 0.99271 0.81458 0.01049 0.0
C787 C 0.95276 0.80917 0.0389 0.0
C788 C 0.98189 0.80541 0.965 0.0
C789 C 0.04416 0.85302 0.95604 0.0
N790 N 0.96251 0.80807 0.01556 0.0
N791 N 0.03418 0.84253 0.97941 0.0
H792 H 0.86384 0.50988 0.25959 0.0
H793 H 0.83865 0.53233 0.40267 0.0
H794 H 0.79646 0.5362 0.28699 0.0
H795 H 0.86645 0.46628 0.37483 0.0
H796 H 0.84175 0.5523 0.36038 0.0
H797 H 0.88324 0.51275 0.30201 0.0
C798 C 0.85375 0.51709 0.27442 0.0
C799 C 0.82808 0.52214 0.26998 0.0
C800 C 0.8479 0.53397 0.36371 0.0
C801 C 0.85022 0.52572 0.31814 0.0
C802 C 0.84623 0.52267 0.38777 0.0
C803 C 0.85168 0.49723 0.39203 0.0
C804 C 0.85556 0.52002 0.34405 0.0
C805 C 0.86145 0.48551 0.37215 0.0
C806 C 0.86473 0.51862 0.29856 0.0
C807 C 0.81586 0.53147 0.28979 0.0
N808 N 0.86278 0.49679 0.34894 0.0
N809 N 0.82681 0.53264 0.3131 0.0
H810 H 0.46766 0.25658 0.28735 0.0
H811 H 0.53461 0.40003 0.3772 0.0
H812 H 0.49222 0.35053 0.2618 0.0
H813 H 0.47114 0.30438 0.40296 0.0
H814 H 0.51604 0.38284 0.33496 0.0
H815 H 0.46496 0.27277 0.32967 0.0
C816 C 0.472 0.2805 0.29064 0.0
C817 C 0.4807 0.30245 0.27117 0.0
C818 C 0.50562 0.36573 0.34988 0.0
C819 C 0.47813 0.32125 0.31952 0.0
C820 C 0.5163 0.3755 0.37395 0.0
C821 C 0.50467 0.35344 0.39344 0.0
C822 C 0.48383 0.33348 0.34519 0.0
C823 C 0.48078 0.32205 0.38837 0.0
C824 C 0.47027 0.28966 0.31477 0.0
C825 C 0.48565 0.33297 0.27635 0.0
N826 N 0.47166 0.31277 0.36459 0.0
N827 N 0.48503 0.34174 0.30016 0.0
H828 H 0.68099 0.15202 0.40559 0.0
H829 H 0.63396 0.13538 0.26245 0.0
H830 H 0.58864 0.13157 0.37892 0.0
H831 H 0.72875 0.19688 0.29075 0.0
H832 H 0.61599 0.11546 0.30466 0.0
H833 H 0.69681 0.14954 0.36288 0.0
C834 C 0.6638 0.14624 0.39084 0.0
C835 C 0.63373 0.1427 0.39564 0.0
C836 C 0.64086 0.13278 0.30144 0.0
C837 C 0.65151 0.13959 0.34709 0.0
C838 C 0.65111 0.14403 0.27744 0.0
C839 C 0.68269 0.16816 0.27336 0.0
C840 C 0.66257 0.14541 0.32118 0.0
C841 C 0.70405 0.17866 0.29332 0.0
C842 C 0.67286 0.14492 0.36653 0.0
C843 C 0.61231 0.13513 0.37588 0.0
N844 N 0.69354 0.1674 0.31644 0.0
N845 N 0.62173 0.13415 0.3524 0.0
H846 H 0.45672 0.86001 0.61832 0.0
H847 H 0.5244 0.7839 0.7078 0.0
H848 H 0.52135 0.82956 0.59201 0.0
H849 H 0.50256 0.85518 0.73349 0.0
H850 H 0.52571 0.8018 0.66532 0.0
H851 H 0.47498 0.86063 0.66058 0.0
C852 C 0.47516 0.85395 0.62146 0.0
C853 C 0.48732 0.84434 0.6018 0.0
C854 C 0.52129 0.81397 0.68028 0.0
C855 C 0.50782 0.84441 0.65001 0.0
C856 C 0.52035 0.80365 0.70449 0.0
C857 C 0.5129 0.81781 0.72408 0.0
C858 C 0.51389 0.83803 0.6756 0.0
C859 C 0.50821 0.84354 0.71886 0.0
C860 C 0.48568 0.85447 0.64553 0.0
C861 C 0.51135 0.837 0.60674 0.0
N862 N 0.50805 0.85238 0.695 0.0
N863 N 0.52032 0.83645 0.6305 0.0
H864 H 0.13724 0.59364 0.62201 0.0
H865 H 0.20543 0.73669 0.71167 0.0
H866 H 0.16265 0.68768 0.59615 0.0
H867 H 0.13962 0.6416 0.73732 0.0
H868 H 0.18686 0.71986 0.66937 0.0
H869 H 0.13415 0.60996 0.66422 0.0
C870 C 0.14165 0.6176 0.62522 0.0
C871 C 0.15071 0.63954 0.60572 0.0
C872 C 0.17592 0.70283 0.68428 0.0
C873 C 0.14777 0.65851 0.65391 0.0
C874 C 0.18663 0.71238 0.70839 0.0
C875 C 0.17434 0.69032 0.72785 0.0
C876 C 0.15346 0.67078 0.67956 0.0
C877 C 0.1498 0.65924 0.72274 0.0
C878 C 0.13971 0.62684 0.64927 0.0
C879 C 0.15579 0.67014 0.61075 0.0
N880 N 0.14068 0.65013 0.69893 0.0
N881 N 0.15502 0.67901 0.63451 0.0
H882 H 0.31775 0.476 0.59562 0.0
H883 H 0.36354 0.50411 0.73916 0.0
H884 H 0.40923 0.54913 0.62279 0.0
H885 H 0.26874 0.47139 0.71111 0.0
H886 H 0.38178 0.50429 0.69665 0.0
H887 H 0.30141 0.45803 0.63835 0.0
C888 C 0.33461 0.48779 0.61051 0.0
C889 C 0.36464 0.51444 0.6058 0.0
C890 C 0.35686 0.49643 0.69997 0.0
C891 C 0.34631 0.49385 0.65435 0.0
C892 C 0.34645 0.49618 0.72413 0.0
C893 C 0.31475 0.48818 0.72844 0.0
C894 C 0.33521 0.488 0.68025 0.0
C895 C 0.2935 0.47819 0.70841 0.0
C896 C 0.32526 0.4776 0.63481 0.0
C897 C 0.38563 0.52885 0.62573 0.0
N898 N 0.30416 0.47857 0.68512 0.0
N899 N 0.37598 0.51853 0.6492 0.0
loop_
_geom_bond_atom_site_label_1
_geom_bond_atom_site_label_2
_geom_bond_distance
_geom_bond_site_symmetry_2
_ccdc_geom_bond_type
Co0 O1 2.216 . S
Co0 O2 2.091 . S
Co0 O4 2.004 . S
Co0 O10 2.021 . S
Co0 O12 2.137 . S
Co0 O13 2.244 . S
O1 Co0 2.216 . S
O1 C8 1.247 . S
O2 Co0 2.091 . S
O2 C8 1.261 . S
C3 O12 1.247 . S
C3 O13 1.272 . S
O4 Co0 2.004 . S
O4 C9 1.259 . S
Co5 O6 2.061 . S
Co5 O11 2.052 . S
Co5 O13 2.135 . S
O6 Co5 2.061 . S
O6 C9 1.235 . S
C7 O10 1.238 . S
C7 O11 1.241 . S
C8 O1 1.247 . S
C8 O2 1.261 . S
C9 O4 1.259 . S
C9 O6 1.235 . S
O10 Co0 2.021 . S
O10 C7 1.238 . S
O11 Co5 2.052 . S
O11 C7 1.241 . S
O12 Co0 2.137 . S
O12 C3 1.247 . S
O13 Co0 2.244 . S
O13 C3 1.272 . S
O13 Co5 2.135 . S
Co14 O15 2.216 . S
Co14 O16 2.088 . S
Co14 O18 2.004 1_545 S
Co14 O24 2.021 1_545 S
Co14 O26 2.137 . S
Co14 O27 2.244 . S
O15 Co14 2.216 . S
O15 C22 1.247 . S
O16 Co14 2.088 . S
O16 C22 1.270 . S
C17 O26 1.247 . S
C17 O27 1.272 . S
O18 Co14 2.004 1_565 S
O18 C23 1.259 . S
Co19 O20 2.061 1_545 S
Co19 O25 2.052 . S
Co19 O27 2.135 . S
O20 Co19 2.061 1_565 S
O20 C23 1.235 . S
C21 O24 1.238 . S
C21 O25 1.241 1_565 S
C22 O15 1.247 . S
C22 O16 1.270 . S
C23 O18 1.259 . S
C23 O20 1.235 . S
O24 Co14 2.021 1_565 S
O24 C21 1.238 . S
O25 Co19 2.052 . S
O25 C21 1.241 1_545 S
O26 Co14 2.137 . S
O26 C17 1.247 . S
O27 Co14 2.244 . S
O27 C17 1.272 . S
O27 Co19 2.135 . S
Co28 O29 2.216 . S
Co28 O30 2.071 1_655 S
Co28 O32 2.004 1_655 S
Co28 O38 2.021 1_655 S
Co28 O40 2.137 . S
Co28 O41 2.244 . S
O29 Co28 2.216 . S
O29 C36 1.247 . S
O30 Co28 2.071 1_455 S
O30 C36 1.237 1_455 S
C31 O40 1.247 . S
C31 O41 1.272 . S
O32 Co28 2.004 1_455 S
O32 C37 1.259 . S
Co33 O34 2.061 1_655 S
Co33 O39 2.062 . S
Co33 O41 2.135 . S
O34 Co33 2.061 1_455 S
O34 C37 1.235 . S
C35 O38 1.238 . S
C35 O39 1.225 1_455 S
C36 O29 1.247 . S
C36 O30 1.237 1_655 S
C37 O32 1.259 . S
C37 O34 1.235 . S
O38 Co28 2.021 1_455 S
O38 C35 1.238 . S
O39 Co33 2.062 . S
O39 C35 1.225 1_655 S
O40 Co28 2.137 . S
O40 C31 1.247 . S
O41 Co28 2.244 . S
O41 C31 1.272 . S
O41 Co33 2.135 . S
Co42 O43 2.216 . S
Co42 O44 2.091 . S
Co42 O46 2.004 . S
Co42 O52 2.021 . S
Co42 O54 2.137 . S
Co42 O55 2.244 . S
O43 Co42 2.216 . S
O43 C50 1.247 . S
O44 Co42 2.091 . S
O44 C50 1.261 . S
C45 O54 1.247 . S
C45 O55 1.272 . S
O46 Co42 2.004 . S
O46 C51 1.259 . S
Co47 O48 2.061 . S
Co47 O53 2.052 . S
Co47 O55 2.135 . S
O48 Co47 2.061 . S
O48 C51 1.235 . S
C49 O52 1.238 . S
C49 O53 1.241 . S
C50 O43 1.247 . S
C50 O44 1.261 . S
C51 O46 1.259 . S
C51 O48 1.235 . S
O52 Co42 2.021 . S
O52 C49 1.238 . S
O53 Co47 2.052 . S
O53 C49 1.241 . S
O54 Co42 2.137 . S
O54 C45 1.247 . S
O55 Co42 2.244 . S
O55 C45 1.272 . S
O55 Co47 2.135 . S
Co56 O57 2.216 . S
Co56 O58 2.072 1_565 S
Co56 O60 2.004 1_565 S
Co56 O66 2.021 1_565 S
Co56 O68 2.137 . S
Co56 O69 2.244 . S
O57 Co56 2.216 . S
O57 C64 1.247 . S
O58 Co56 2.072 1_545 S
O58 C64 1.238 1_545 S
C59 O68 1.247 . S
C59 O69 1.272 . S
O60 Co56 2.004 1_545 S
O60 C65 1.259 . S
Co61 O62 2.061 1_565 S
Co61 O67 2.063 . S
Co61 O69 2.135 . S
O62 Co61 2.061 1_545 S
O62 C65 1.235 . S
C63 O66 1.238 . S
C63 O67 1.224 1_545 S
C64 O57 1.247 . S
C64 O58 1.238 1_565 S
C65 O60 1.259 . S
C65 O62 1.235 . S
O66 Co56 2.021 1_545 S
O66 C63 1.238 . S
O67 Co61 2.063 . S
O67 C63 1.224 1_565 S
O68 Co56 2.137 . S
O68 C59 1.247 . S
O69 Co56 2.244 . S
O69 C59 1.272 . S
O69 Co61 2.135 . S
Co70 O71 2.216 . S
Co70 O72 2.087 . S
Co70 O74 2.004 1_455 S
Co70 O80 2.021 1_455 S
Co70 O82 2.137 . S
Co70 O83 2.244 . S
O71 Co70 2.216 . S
O71 C78 1.247 . S
O72 Co70 2.087 . S
O72 C78 1.271 . S
C73 O82 1.247 . S
C73 O83 1.272 . S
O74 Co70 2.004 1_655 S
O74 C79 1.259 . S
Co75 O76 2.061 1_455 S
Co75 O81 2.052 . S
Co75 O83 2.135 . S
O76 Co75 2.061 1_655 S
O76 C79 1.235 . S
C77 O80 1.238 . S
C77 O81 1.241 1_655 S
C78 O71 1.247 . S
C78 O72 1.271 . S
C79 O74 1.259 . S
C79 O76 1.235 . S
O80 Co70 2.021 1_655 S
O80 C77 1.238 . S
O81 Co75 2.052 . S
O81 C77 1.241 1_455 S
O82 Co70 2.137 . S
O82 C73 1.247 . S
O83 Co70 2.244 . S
O83 C73 1.272 . S
O83 Co75 2.135 . S
Co84 O85 2.216 . S
Co84 O86 2.091 . S
Co84 O88 2.004 . S
Co84 O94 2.021 . S
Co84 O96 2.137 . S
Co84 O97 2.244 . S
O85 Co84 2.216 . S
O85 C92 1.247 . S
O86 Co84 2.091 . S
O86 C92 1.261 . S
C87 O96 1.247 . S
C87 O97 1.272 . S
O88 Co84 2.004 . S
O88 C93 1.259 . S
Co89 O90 2.061 . S
Co89 O95 2.052 . S
Co89 O97 2.135 . S
O90 Co89 2.061 . S
O90 C93 1.235 . S
C91 O94 1.238 . S
C91 O95 1.241 . S
C92 O85 1.247 . S
C92 O86 1.261 . S
C93 O88 1.259 . S
C93 O90 1.235 . S
O94 Co84 2.021 . S
O94 C91 1.238 . S
O95 Co89 2.052 . S
O95 C91 1.241 . S
O96 Co84 2.137 . S
O96 C87 1.247 . S
O97 Co84 2.244 . S
O97 C87 1.272 . S
O97 Co89 2.135 . S
Co98 O99 2.216 . S
Co98 O100 2.091 . S
Co98 O102 2.004 . S
Co98 O108 2.021 . S
Co98 O110 2.137 . S
Co98 O111 2.244 . S
O99 Co98 2.216 . S
O99 C106 1.247 . S
O100 Co98 2.091 . S
O100 C106 1.261 . S
C101 O110 1.247 . S
C101 O111 1.272 . S
O102 Co98 2.004 . S
O102 C107 1.259 . S
Co103 O104 2.061 . S
Co103 O109 2.052 . S
Co103 O111 2.135 . S
O104 Co103 2.061 . S
O104 C107 1.235 . S
C105 O108 1.238 . S
C105 O109 1.241 . S
C106 O99 1.247 . S
C106 O100 1.261 . S
C107 O102 1.259 . S
C107 O104 1.235 . S
O108 Co98 2.021 . S
O108 C105 1.238 . S
O109 Co103 2.052 . S
O109 C105 1.241 . S
O110 Co98 2.137 . S
O110 C101 1.247 . S
O111 Co98 2.244 . S
O111 C101 1.272 . S
O111 Co103 2.135 . S
Co112 O113 2.216 . S
Co112 O114 2.091 . S
Co112 O116 2.004 . S
Co112 O122 2.021 . S
Co112 O124 2.137 . S
Co112 O125 2.244 . S
O113 Co112 2.216 . S
O113 C120 1.247 . S
O114 Co112 2.091 . S
O114 C120 1.261 . S
C115 O124 1.247 . S
C115 O125 1.272 . S
O116 Co112 2.004 . S
O116 C121 1.259 . S
Co117 O118 2.061 . S
Co117 O123 2.052 . S
Co117 O125 2.135 . S
O118 Co117 2.061 . S
O118 C121 1.235 . S
C119 O122 1.238 . S
C119 O123 1.241 . S
C120 O113 1.247 . S
C120 O114 1.261 . S
C121 O116 1.259 . S
C121 O118 1.235 . S
O122 Co112 2.021 . S
O122 C119 1.238 . S
O123 Co117 2.052 . S
O123 C119 1.241 . S
O124 Co112 2.137 . S
O124 C115 1.247 . S
O125 Co112 2.244 . S
O125 C115 1.272 . S
O125 Co117 2.135 . S
Co126 O127 2.216 . S
Co126 O128 2.091 . S
Co126 O130 2.004 . S
Co126 O136 2.021 . S
Co126 O138 2.137 . S
Co126 O139 2.244 . S
O127 Co126 2.216 . S
O127 C134 1.247 . S
O128 Co126 2.091 . S
O128 C134 1.261 . S
C129 O138 1.247 . S
C129 O139 1.272 . S
O130 Co126 2.004 . S
O130 C135 1.259 . S
Co131 O132 2.061 . S
Co131 O137 2.052 . S
Co131 O139 2.135 . S
O132 Co131 2.061 . S
O132 C135 1.235 . S
C133 O136 1.238 . S
C133 O137 1.241 . S
C134 O127 1.247 . S
C134 O128 1.261 . S
C135 O130 1.259 . S
C135 O132 1.235 . S
O136 Co126 2.021 . S
O136 C133 1.238 . S
O137 Co131 2.052 . S
O137 C133 1.241 . S
O138 Co126 2.137 . S
O138 C129 1.247 . S
O139 Co126 2.244 . S
O139 C129 1.272 . S
O139 Co131 2.135 . S
Co140 O141 2.216 . S
Co140 O142 2.091 . S
Co140 O144 2.004 . S
Co140 O150 2.021 . S
Co140 O152 2.137 . S
Co140 O153 2.244 . S
O141 Co140 2.216 . S
O141 C148 1.247 . S
O142 Co140 2.091 . S
O142 C148 1.261 . S
C143 O152 1.247 . S
C143 O153 1.272 . S
O144 Co140 2.004 . S
O144 C149 1.259 . S
Co145 O146 2.061 . S
Co145 O151 2.052 . S
Co145 O153 2.135 . S
O146 Co145 2.061 . S
O146 C149 1.235 . S
C147 O150 1.238 . S
C147 O151 1.241 . S
C148 O141 1.247 . S
C148 O142 1.261 . S
C149 O144 1.259 . S
C149 O146 1.235 . S
O150 Co140 2.021 . S
O150 C147 1.238 . S
O151 Co145 2.052 . S
O151 C147 1.241 . S
O152 Co140 2.137 . S
O152 C143 1.247 . S
O153 Co140 2.244 . S
O153 C143 1.272 . S
O153 Co145 2.135 . S
Co154 O155 2.216 . S
Co154 O156 2.091 . S
Co154 O158 2.004 . S
Co154 O164 2.021 . S
Co154 O166 2.137 . S
Co154 O167 2.244 . S
O155 Co154 2.216 . S
O155 C162 1.247 . S
O156 Co154 2.091 . S
O156 C162 1.261 . S
C157 O166 1.247 . S
C157 O167 1.272 . S
O158 Co154 2.004 . S
O158 C163 1.259 . S
Co159 O160 2.061 . S
Co159 O165 2.052 . S
Co159 O167 2.135 . S
O160 Co159 2.061 . S
O160 C163 1.235 . S
C161 O164 1.238 . S
C161 O165 1.241 . S
C162 O155 1.247 . S
C162 O156 1.261 . S
C163 O158 1.259 . S
C163 O160 1.235 . S
O164 Co154 2.021 . S
O164 C161 1.238 . S
O165 Co159 2.052 . S
O165 C161 1.241 . S
O166 Co154 2.137 . S
O166 C157 1.247 . S
O167 Co154 2.244 . S
O167 C157 1.272 . S
O167 Co159 2.135 . S
Co168 O169 2.216 . S
Co168 O170 2.091 . S
Co168 O172 2.004 . S
Co168 O178 2.021 . S
Co168 O180 2.137 . S
Co168 O181 2.244 . S
O169 Co168 2.216 . S
O169 C176 1.247 . S
O170 Co168 2.091 . S
O170 C176 1.261 . S
C171 O180 1.247 . S
C171 O181 1.272 . S
O172 Co168 2.004 . S
O172 C177 1.259 . S
Co173 O174 2.061 . S
Co173 O179 2.052 . S
Co173 O181 2.135 . S
O174 Co173 2.061 . S
O174 C177 1.235 . S
C175 O178 1.238 . S
C175 O179 1.241 . S
C176 O169 1.247 . S
C176 O170 1.261 . S
C177 O172 1.259 . S
C177 O174 1.235 . S
O178 Co168 2.021 . S
O178 C175 1.238 . S
O179 Co173 2.052 . S
O179 C175 1.241 . S
O180 Co168 2.137 . S
O180 C171 1.247 . S
O181 Co168 2.244 . S
O181 C171 1.272 . S
O181 Co173 2.135 . S
Co182 O183 2.216 . S
Co182 O184 2.091 . S
Co182 O186 2.004 . S
Co182 O192 2.021 . S
Co182 O194 2.137 . S
Co182 O195 2.244 . S
O183 Co182 2.216 . S
O183 C190 1.247 . S
O184 Co182 2.091 . S
O184 C190 1.261 . S
C185 O194 1.247 . S
C185 O195 1.272 . S
O186 Co182 2.004 . S
O186 C191 1.259 . S
Co187 O188 2.061 . S
Co187 O193 2.052 . S
Co187 O195 2.135 . S
O188 Co187 2.061 . S
O188 C191 1.235 . S
C189 O192 1.238 . S
C189 O193 1.241 . S
C190 O183 1.247 . S
C190 O184 1.261 . S
C191 O186 1.259 . S
C191 O188 1.235 . S
O192 Co182 2.021 . S
O192 C189 1.238 . S
O193 Co187 2.052 . S
O193 C189 1.241 . S
O194 Co182 2.137 . S
O194 C185 1.247 . S
O195 Co182 2.244 . S
O195 C185 1.272 . S
O195 Co187 2.135 . S
Co196 O197 2.216 . S
Co196 O198 2.091 . S
Co196 O200 2.004 . S
Co196 O206 2.021 . S
Co196 O208 2.137 . S
Co196 O209 2.244 . S
O197 Co196 2.216 . S
O197 C204 1.247 . S
O198 Co196 2.091 . S
O198 C204 1.261 . S
C199 O208 1.247 . S
C199 O209 1.272 . S
O200 Co196 2.004 . S
O200 C205 1.259 . S
Co201 O202 2.061 . S
Co201 O207 2.052 . S
Co201 O209 2.135 . S
O202 Co201 2.061 . S
O202 C205 1.235 . S
C203 O206 1.238 . S
C203 O207 1.241 . S
C204 O197 1.247 . S
C204 O198 1.261 . S
C205 O200 1.259 . S
C205 O202 1.235 . S
O206 Co196 2.021 . S
O206 C203 1.238 . S
O207 Co201 2.052 . S
O207 C203 1.241 . S
O208 Co196 2.137 . S
O208 C199 1.247 . S
O209 Co196 2.244 . S
O209 C199 1.272 . S
O209 Co201 2.135 . S
Co210 O211 2.216 . S
Co210 O212 2.091 . S
Co210 O214 2.004 . S
Co210 O220 2.021 . S
Co210 O222 2.137 . S
Co210 O223 2.244 . S
O211 Co210 2.216 . S
O211 C218 1.247 . S
O212 Co210 2.091 . S
O212 C218 1.261 . S
C213 O222 1.247 . S
C213 O223 1.272 . S
O214 Co210 2.004 . S
O214 C219 1.259 . S
Co215 O216 2.061 . S
Co215 O221 2.052 . S
Co215 O223 2.135 . S
O216 Co215 2.061 . S
O216 C219 1.235 . S
C217 O220 1.238 . S
C217 O221 1.241 . S
C218 O211 1.247 . S
C218 O212 1.261 . S
C219 O214 1.259 . S
C219 O216 1.235 . S
O220 Co210 2.021 . S
O220 C217 1.238 . S
O221 Co215 2.052 . S
O221 C217 1.241 . S
O222 Co210 2.137 . S
O222 C213 1.247 . S
O223 Co210 2.244 . S
O223 C213 1.272 . S
O223 Co215 2.135 . S
Co224 O225 2.216 . S
Co224 O226 2.091 . S
Co224 O228 2.004 . S
Co224 O234 2.021 . S
Co224 O236 2.137 . S
Co224 O237 2.244 . S
O225 Co224 2.216 . S
O225 C232 1.247 . S
O226 Co224 2.091 . S
O226 C232 1.261 . S
C227 O236 1.247 . S
C227 O237 1.272 . S
O228 Co224 2.004 . S
O228 C233 1.259 . S
Co229 O230 2.061 . S
Co229 O235 2.052 . S
Co229 O237 2.135 . S
O230 Co229 2.061 . S
O230 C233 1.235 . S
C231 O234 1.238 . S
C231 O235 1.241 . S
C232 O225 1.247 . S
C232 O226 1.261 . S
C233 O228 1.259 . S
C233 O230 1.235 . S
O234 Co224 2.021 . S
O234 C231 1.238 . S
O235 Co229 2.052 . S
O235 C231 1.241 . S
O236 Co224 2.137 . S
O236 C227 1.247 . S
O237 Co224 2.244 . S
O237 C227 1.272 . S
O237 Co229 2.135 . S
Co238 O239 2.216 . S
Co238 O240 2.091 . S
Co238 O242 2.004 . S
Co238 O248 2.021 . S
Co238 O250 2.137 . S
Co238 O251 2.244 . S
O239 Co238 2.216 . S
O239 C246 1.247 . S
O240 Co238 2.091 . S
O240 C246 1.261 . S
C241 O250 1.247 . S
C241 O251 1.272 . S
O242 Co238 2.004 . S
O242 C247 1.259 . S
Co243 O244 2.061 . S
Co243 O249 2.052 . S
Co243 O251 2.135 . S
O244 Co243 2.061 . S
O244 C247 1.235 . S
C245 O248 1.238 . S
C245 O249 1.241 . S
C246 O239 1.247 . S
C246 O240 1.261 . S
C247 O242 1.259 . S
C247 O244 1.235 . S
O248 Co238 2.021 . S
O248 C245 1.238 . S
O249 Co243 2.052 . S
O249 C245 1.241 . S
O250 Co238 2.137 . S
O250 C241 1.247 . S
O251 Co238 2.244 . S
O251 C241 1.272 . S
O251 Co243 2.135 . S
H252 C258 0.930 . S
H253 C262 0.930 . S
H254 C267 0.929 . S
H255 C265 0.929 . S
H256 C260 0.929 . S
H257 C266 0.929 . S
C258 H252 0.930 . S
C258 C259 1.367 . S
C258 C266 1.378 . S
C259 C258 1.367 . S
C259 C267 1.433 . S
C260 H256 0.929 . S
C260 C262 1.378 . S
C260 C264 1.350 . S
C261 C264 1.463 . S
C261 C266 1.350 . S
C261 N269 1.427 . S
C262 H253 0.930 . S
C262 C260 1.378 . S
C262 C263 1.367 . S
C263 C262 1.367 . S
C263 C265 1.433 . S
C264 C260 1.350 . S
C264 C261 1.463 . S
C264 N268 1.427 . S
C265 H255 0.929 . S
C265 C263 1.433 . S
C265 N268 1.384 . S
C266 H257 0.929 . S
C266 C258 1.378 . S
C266 C261 1.350 . S
C267 H254 0.929 . S
C267 C259 1.433 . S
C267 N269 1.384 . S
N268 C264 1.427 . S
N268 C265 1.384 . S
N269 C261 1.427 . S
N269 C267 1.384 . S
H270 C276 0.930 . S
H271 C280 0.930 . S
H272 C285 0.929 . S
H273 C283 0.929 . S
H274 C278 0.929 . S
H275 C284 0.929 . S
C276 H270 0.930 . S
C276 C277 1.367 . S
C276 C284 1.378 . S
C277 C276 1.367 . S
C277 C285 1.433 . S
C278 H274 0.929 . S
C278 C280 1.378 . S
C278 C282 1.350 . S
C279 C282 1.463 . S
C279 C284 1.350 . S
C279 N287 1.427 . S
C280 H271 0.930 . S
C280 C278 1.378 . S
C280 C281 1.367 . S
C281 C280 1.367 . S
C281 C283 1.433 . S
C282 C278 1.350 . S
C282 C279 1.463 . S
C282 N286 1.427 . S
C283 H273 0.929 . S
C283 C281 1.433 . S
C283 N286 1.384 . S
C284 H275 0.929 . S
C284 C276 1.378 . S
C284 C279 1.350 . S
C285 H272 0.929 . S
C285 C277 1.433 . S
C285 N287 1.384 . S
N286 C282 1.427 . S
N286 C283 1.384 . S
N287 C279 1.427 . S
N287 C285 1.384 . S
H288 C294 0.930 . S
H289 C298 0.930 . S
H290 C303 0.929 . S
H291 C301 0.929 . S
H292 C296 0.929 . S
H293 C302 0.929 . S
C294 H288 0.930 . S
C294 C295 1.367 . S
C294 C302 1.378 . S
C295 C294 1.367 . S
C295 C303 1.433 . S
C296 H292 0.929 . S
C296 C298 1.378 . S
C296 C300 1.350 . S
C297 C300 1.463 . S
C297 C302 1.350 . S
C297 N305 1.427 . S
C298 H289 0.930 . S
C298 C296 1.378 . S
C298 C299 1.367 . S
C299 C298 1.367 . S
C299 C301 1.433 . S
C300 C296 1.350 . S
C300 C297 1.463 . S
C300 N304 1.427 . S
C301 H291 0.929 . S
C301 C299 1.433 . S
C301 N304 1.384 . S
C302 H293 0.929 . S
C302 C294 1.378 . S
C302 C297 1.350 . S
C303 H290 0.929 . S
C303 C295 1.433 . S
C303 N305 1.384 . S
N304 C300 1.427 . S
N304 C301 1.384 . S
N305 C297 1.427 . S
N305 C303 1.384 . S
H306 C312 0.930 . S
H307 C316 0.930 . S
H308 C321 0.929 . S
H309 C319 0.929 . S
H310 C314 0.929 . S
H311 C320 0.929 . S
C312 H306 0.930 . S
C312 C313 1.367 . S
C312 C320 1.378 . S
C313 C312 1.367 . S
C313 C321 1.433 . S
C314 H310 0.929 . S
C314 C316 1.378 . S
C314 C318 1.350 . S
C315 C318 1.463 . S
C315 C320 1.350 . S
C315 N323 1.427 . S
C316 H307 0.930 . S
C316 C314 1.378 . S
C316 C317 1.367 . S
C317 C316 1.367 . S
C317 C319 1.433 . S
C318 C314 1.350 . S
C318 C315 1.463 . S
C318 N322 1.427 . S
C319 H309 0.929 . S
C319 C317 1.433 . S
C319 N322 1.384 . S
C320 H311 0.929 . S
C320 C312 1.378 . S
C320 C315 1.350 . S
C321 H308 0.929 . S
C321 C313 1.433 . S
C321 N323 1.384 . S
N322 C318 1.427 . S
N322 C319 1.384 . S
N323 C315 1.427 . S
N323 C321 1.384 . S
H324 C330 0.930 . S
H325 C334 0.930 . S
H326 C339 0.929 . S
H327 C337 0.929 . S
H328 C332 0.929 . S
H329 C338 0.929 . S
C330 H324 0.930 . S
C330 C331 1.367 . S
C330 C338 1.378 . S
C331 C330 1.367 . S
C331 C339 1.433 . S
C332 H328 0.929 . S
C332 C334 1.378 . S
C332 C336 1.350 . S
C333 C336 1.463 . S
C333 C338 1.350 . S
C333 N341 1.427 . S
C334 H325 0.930 . S
C334 C332 1.378 . S
C334 C335 1.367 . S
C335 C334 1.367 . S
C335 C337 1.433 . S
C336 C332 1.350 . S
C336 C333 1.463 . S
C336 N340 1.427 . S
C337 H327 0.929 . S
C337 C335 1.433 . S
C337 N340 1.384 . S
C338 H329 0.929 . S
C338 C330 1.378 . S
C338 C333 1.350 . S
C339 H326 0.929 . S
C339 C331 1.433 . S
C339 N341 1.384 . S
N340 C336 1.427 . S
N340 C337 1.384 . S
N341 C333 1.427 . S
N341 C339 1.384 . S
H342 C348 0.930 . S
H343 C352 0.930 . S
H344 C357 0.929 . S
H345 C355 0.929 . S
H346 C350 0.929 . S
H347 C356 0.929 . S
C348 H342 0.930 . S
C348 C349 1.367 . S
C348 C356 1.378 . S
C349 C348 1.367 . S
C349 C357 1.433 . S
C350 H346 0.929 . S
C350 C352 1.378 . S
C350 C354 1.350 . S
C351 C354 1.463 . S
C351 C356 1.350 . S
C351 N359 1.427 . S
C352 H343 0.930 . S
C352 C350 1.378 . S
C352 C353 1.367 . S
C353 C352 1.367 . S
C353 C355 1.433 . S
C354 C350 1.350 . S
C354 C351 1.463 . S
C354 N358 1.427 . S
C355 H345 0.929 . S
C355 C353 1.433 . S
C355 N358 1.384 . S
C356 H347 0.929 . S
C356 C348 1.378 . S
C356 C351 1.350 . S
C357 H344 0.929 . S
C357 C349 1.433 . S
C357 N359 1.384 . S
N358 C354 1.427 . S
N358 C355 1.384 . S
N359 C351 1.427 . S
N359 C357 1.384 . S
H360 C366 0.930 . S
H361 C370 0.930 . S
H362 C375 0.929 . S
H363 C373 0.929 . S
H364 C368 0.929 . S
H365 C374 0.929 . S
C366 H360 0.930 . S
C366 C367 1.367 . S
C366 C374 1.378 . S
C367 C366 1.367 . S
C367 C375 1.433 . S
C368 H364 0.929 . S
C368 C370 1.378 . S
C368 C372 1.350 . S
C369 C372 1.463 1_655 S
C369 C374 1.350 . S
C369 N377 1.427 . S
C370 H361 0.930 . S
C370 C368 1.378 . S
C370 C371 1.367 . S
C371 C370 1.367 . S
C371 C373 1.433 . S
C372 C368 1.350 . S
C372 C369 1.463 1_455 S
C372 N376 1.427 . S
C373 H363 0.929 . S
C373 C371 1.433 . S
C373 N376 1.384 . S
C374 H365 0.929 . S
C374 C366 1.378 . S
C374 C369 1.350 . S
C375 H362 0.929 . S
C375 C367 1.433 . S
C375 N377 1.384 . S
N376 C372 1.427 . S
N376 C373 1.384 . S
N377 C369 1.427 . S
N377 C375 1.384 . S
H378 C384 0.930 . S
H379 C388 0.930 . S
H380 C393 0.929 . S
H381 C391 0.929 . S
H382 C386 0.929 . S
H383 C392 0.929 . S
C384 H378 0.930 . S
C384 C385 1.367 . S
C384 C392 1.378 . S
C385 C384 1.367 . S
C385 C393 1.433 . S
C386 H382 0.929 . S
C386 C388 1.378 . S
C386 C390 1.350 . S
C387 C390 1.463 . S
C387 C392 1.350 . S
C387 N395 1.427 . S
C388 H379 0.930 . S
C388 C386 1.378 . S
C388 C389 1.367 . S
C389 C388 1.367 . S
C389 C391 1.433 . S
C390 C386 1.350 . S
C390 C387 1.463 . S
C390 N394 1.427 . S
C391 H381 0.929 . S
C391 C389 1.433 . S
C391 N394 1.384 . S
C392 H383 0.929 . S
C392 C384 1.378 . S
C392 C387 1.350 . S
C393 H380 0.929 . S
C393 C385 1.433 . S
C393 N395 1.384 . S
N394 C390 1.427 . S
N394 C391 1.384 . S
N395 C387 1.427 . S
N395 C393 1.384 . S
H396 C402 0.930 . S
H397 C406 0.930 . S
H398 C411 0.929 . S
H399 C409 0.929 . S
H400 C404 0.929 . S
H401 C410 0.929 . S
C402 H396 0.930 . S
C402 C403 1.367 . S
C402 C410 1.378 . S
C403 C402 1.367 . S
C403 C411 1.433 . S
C404 H400 0.929 . S
C404 C406 1.378 . S
C404 C408 1.350 . S
C405 C408 1.463 1_545 S
C405 C410 1.350 . S
C405 N413 1.427 . S
C406 H397 0.930 . S
C406 C404 1.378 . S
C406 C407 1.367 . S
C407 C406 1.367 . S
C407 C409 1.433 . S
C408 C404 1.350 . S
C408 C405 1.463 1_565 S
C408 N412 1.427 . S
C409 H399 0.929 . S
C409 C407 1.433 . S
C409 N412 1.384 . S
C410 H401 0.929 . S
C410 C402 1.378 . S
C410 C405 1.350 . S
C411 H398 0.929 . S
C411 C403 1.433 . S
C411 N413 1.384 . S
N412 C408 1.427 . S
N412 C409 1.384 . S
N413 C405 1.427 . S
N413 C411 1.384 . S
H414 C420 0.930 . S
H415 C424 0.930 . S
H416 C429 0.929 . S
H417 C427 0.929 . S
H418 C422 0.929 . S
H419 C428 0.929 . S
C420 H414 0.930 . S
C420 C421 1.367 . S
C420 C428 1.378 . S
C421 C420 1.367 . S
C421 C429 1.433 . S
C422 H418 0.929 . S
C422 C424 1.378 . S
C422 C426 1.350 . S
C423 C426 1.463 1_455 S
C423 C428 1.350 . S
C423 N431 1.427 . S
C424 H415 0.930 . S
C424 C422 1.378 . S
C424 C425 1.367 . S
C425 C424 1.367 . S
C425 C427 1.433 . S
C426 C422 1.350 . S
C426 C423 1.463 1_655 S
C426 N430 1.427 . S
C427 H417 0.929 . S
C427 C425 1.433 . S
C427 N430 1.384 . S
C428 H419 0.929 . S
C428 C420 1.378 . S
C428 C423 1.350 . S
C429 H416 0.929 . S
C429 C421 1.433 . S
C429 N431 1.384 . S
N430 C426 1.427 . S
N430 C427 1.384 . S
N431 C423 1.427 . S
N431 C429 1.384 . S
H432 C438 0.930 . S
H433 C442 0.930 . S
H434 C447 0.929 . S
H435 C445 0.929 . S
H436 C440 0.929 . S
H437 C446 0.929 . S
C438 H432 0.930 . S
C438 C439 1.367 . S
C438 C446 1.378 . S
C439 C438 1.367 . S
C439 C447 1.433 . S
C440 H436 0.929 . S
C440 C442 1.378 . S
C440 C444 1.350 . S
C441 C444 1.463 . S
C441 C446 1.350 . S
C441 N449 1.427 . S
C442 H433 0.930 . S
C442 C440 1.378 . S
C442 C443 1.367 . S
C443 C442 1.367 . S
C443 C445 1.433 . S
C444 C440 1.350 . S
C444 C441 1.463 . S
C444 N448 1.427 . S
C445 H435 0.929 . S
C445 C443 1.433 . S
C445 N448 1.384 . S
C446 H437 0.929 . S
C446 C438 1.378 . S
C446 C441 1.350 . S
C447 H434 0.929 . S
C447 C439 1.433 . S
C447 N449 1.384 . S
N448 C444 1.427 . S
N448 C445 1.384 . S
N449 C441 1.427 . S
N449 C447 1.384 . S
H450 C456 0.930 . S
H451 C460 0.930 . S
H452 C465 0.929 . S
H453 C463 0.929 . S
H454 C458 0.929 . S
H455 C464 0.929 . S
C456 H450 0.930 . S
C456 C457 1.367 . S
C456 C464 1.378 . S
C457 C456 1.367 . S
C457 C465 1.433 . S
C458 H454 0.929 . S
C458 C460 1.378 . S
C458 C462 1.350 . S
C459 C462 1.463 1_545 S
C459 C464 1.350 . S
C459 N467 1.427 . S
C460 H451 0.930 . S
C460 C458 1.378 . S
C460 C461 1.367 . S
C461 C460 1.367 . S
C461 C463 1.433 . S
C462 C458 1.350 . S
C462 C459 1.463 1_565 S
C462 N466 1.427 . S
C463 H453 0.929 . S
C463 C461 1.433 . S
C463 N466 1.384 . S
C464 H455 0.929 . S
C464 C456 1.378 . S
C464 C459 1.350 . S
C465 H452 0.929 . S
C465 C457 1.433 . S
C465 N467 1.384 . S
N466 C462 1.427 . S
N466 C463 1.384 . S
N467 C459 1.427 . S
N467 C465 1.384 . S
H468 C474 0.930 . S
H469 C478 0.930 . S
H470 C483 0.929 . S
H471 C481 0.929 . S
H472 C476 0.929 . S
H473 C482 0.929 . S
C474 H468 0.930 . S
C474 C475 1.367 . S
C474 C482 1.378 . S
C475 C474 1.367 . S
C475 C483 1.433 . S
C476 H472 0.929 . S
C476 C478 1.378 . S
C476 C480 1.350 . S
C477 C480 1.463 1_565 S
C477 C482 1.350 . S
C477 N485 1.427 . S
C478 H469 0.930 . S
C478 C476 1.378 . S
C478 C479 1.367 . S
C479 C478 1.367 . S
C479 C481 1.433 . S
C480 C476 1.350 . S
C480 C477 1.463 1_545 S
C480 N484 1.427 . S
C481 H471 0.929 . S
C481 C479 1.433 . S
C481 N484 1.384 . S
C482 H473 0.929 . S
C482 C474 1.378 . S
C482 C477 1.350 . S
C483 H470 0.929 . S
C483 C475 1.433 . S
C483 N485 1.384 . S
N484 C480 1.427 . S
N484 C481 1.384 . S
N485 C477 1.427 . S
N485 C483 1.384 . S
H486 C492 0.930 . S
H487 C496 0.930 . S
H488 C501 0.929 . S
H489 C499 0.929 . S
H490 C494 0.929 . S
H491 C500 0.929 . S
C492 H486 0.930 . S
C492 C493 1.367 . S
C492 C500 1.378 . S
C493 C492 1.367 . S
C493 C501 1.433 . S
C494 H490 0.929 . S
C494 C496 1.378 . S
C494 C498 1.350 . S
C495 C498 1.463 1_455 S
C495 C500 1.350 . S
C495 N503 1.427 . S
C496 H487 0.930 . S
C496 C494 1.378 . S
C496 C497 1.367 . S
C497 C496 1.367 . S
C497 C499 1.433 . S
C498 C494 1.350 . S
C498 C495 1.463 1_655 S
C498 N502 1.427 . S
C499 H489 0.929 . S
C499 C497 1.433 . S
C499 N502 1.384 . S
C500 H491 0.929 . S
C500 C492 1.378 . S
C500 C495 1.350 . S
C501 H488 0.929 . S
C501 C493 1.433 . S
C501 N503 1.384 . S
N502 C498 1.427 . S
N502 C499 1.384 . S
N503 C495 1.427 . S
N503 C501 1.384 . S
H504 C510 0.930 . S
H505 C514 0.930 . S
H506 C519 0.929 . S
H507 C517 0.929 . S
H508 C512 0.929 . S
H509 C518 0.929 . S
C510 H504 0.930 . S
C510 C511 1.367 . S
C510 C518 1.378 . S
C511 C510 1.367 . S
C511 C519 1.433 . S
C512 H508 0.929 . S
C512 C514 1.378 . S
C512 C516 1.350 . S
C513 C516 1.463 . S
C513 C518 1.350 . S
C513 N521 1.427 . S
C514 H505 0.930 . S
C514 C512 1.378 . S
C514 C515 1.367 . S
C515 C514 1.367 . S
C515 C517 1.433 . S
C516 C512 1.350 . S
C516 C513 1.463 . S
C516 N520 1.427 . S
C517 H507 0.929 . S
C517 C515 1.433 . S
C517 N520 1.384 . S
C518 H509 0.929 . S
C518 C510 1.378 . S
C518 C513 1.350 . S
C519 H506 0.929 . S
C519 C511 1.433 . S
C519 N521 1.384 . S
N520 C516 1.427 . S
N520 C517 1.384 . S
N521 C513 1.427 . S
N521 C519 1.384 . S
H522 C528 0.930 . S
H523 C532 0.930 . S
H524 C537 0.929 . S
H525 C535 0.929 . S
H526 C530 0.929 . S
H527 C536 0.929 . S
C528 H522 0.930 . S
C528 C529 1.367 . S
C528 C536 1.378 . S
C529 C528 1.367 . S
C529 C537 1.433 . S
C530 H526 0.929 . S
C530 C532 1.378 . S
C530 C534 1.350 . S
C531 C534 1.463 . S
C531 C536 1.350 . S
C531 N539 1.427 . S
C532 H523 0.930 . S
C532 C530 1.378 . S
C532 C533 1.367 . S
C533 C532 1.367 . S
C533 C535 1.433 . S
C534 C530 1.350 . S
C534 C531 1.463 . S
C534 N538 1.427 . S
C535 H525 0.929 . S
C535 C533 1.433 . S
C535 N538 1.384 . S
C536 H527 0.929 . S
C536 C528 1.378 . S
C536 C531 1.350 . S
C537 H524 0.929 . S
C537 C529 1.433 . S
C537 N539 1.384 . S
N538 C534 1.427 . S
N538 C535 1.384 . S
N539 C531 1.427 . S
N539 C537 1.384 . S
H540 C546 0.930 . S
H541 C550 0.930 . S
H542 C555 0.929 . S
H543 C553 0.929 . S
H544 C548 0.929 . S
H545 C554 0.929 . S
C546 H540 0.930 . S
C546 C547 1.367 . S
C546 C554 1.378 . S
C547 C546 1.367 . S
C547 C555 1.433 . S
C548 H544 0.929 . S
C548 C550 1.378 . S
C548 C552 1.350 . S
C549 C552 1.463 . S
C549 C554 1.350 . S
C549 N557 1.427 . S
C550 H541 0.930 . S
C550 C548 1.378 . S
C550 C551 1.367 . S
C551 C550 1.367 . S
C551 C553 1.433 . S
C552 C548 1.350 . S
C552 C549 1.463 . S
C552 N556 1.427 . S
C553 H543 0.929 . S
C553 C551 1.433 . S
C553 N556 1.384 . S
C554 H545 0.929 . S
C554 C546 1.378 . S
C554 C549 1.350 . S
C555 H542 0.929 . S
C555 C547 1.433 . S
C555 N557 1.384 . S
N556 C552 1.427 . S
N556 C553 1.384 . S
N557 C549 1.427 . S
N557 C555 1.384 . S
H558 C564 0.930 . S
H559 C568 0.930 . S
H560 C573 0.929 . S
H561 C571 0.929 . S
H562 C566 0.929 . S
H563 C572 0.929 . S
C564 H558 0.930 . S
C564 C565 1.367 . S
C564 C572 1.378 . S
C565 C564 1.367 . S
C565 C573 1.433 . S
C566 H562 0.929 . S
C566 C568 1.378 . S
C566 C570 1.350 . S
C567 C570 1.463 . S
C567 C572 1.350 . S
C567 N575 1.427 . S
C568 H559 0.930 . S
C568 C566 1.378 . S
C568 C569 1.367 . S
C569 C568 1.367 . S
C569 C571 1.433 . S
C570 C566 1.350 . S
C570 C567 1.463 . S
C570 N574 1.427 . S
C571 H561 0.929 . S
C571 C569 1.433 . S
C571 N574 1.384 . S
C572 H563 0.929 . S
C572 C564 1.378 . S
C572 C567 1.350 . S
C573 H560 0.929 . S
C573 C565 1.433 . S
C573 N575 1.384 . S
N574 C570 1.427 . S
N574 C571 1.384 . S
N575 C567 1.427 . S
N575 C573 1.384 . S
H576 C582 0.930 . S
H577 C586 0.930 . S
H578 C591 0.929 . S
H579 C589 0.929 . S
H580 C584 0.929 . S
H581 C590 0.929 . S
C582 H576 0.930 . S
C582 C583 1.367 . S
C582 C590 1.378 . S
C583 C582 1.367 . S
C583 C591 1.433 . S
C584 H580 0.929 . S
C584 C586 1.378 . S
C584 C588 1.350 . S
C585 C588 1.463 . S
C585 C590 1.350 . S
C585 N593 1.427 . S
C586 H577 0.930 . S
C586 C584 1.378 . S
C586 C587 1.367 . S
C587 C586 1.367 . S
C587 C589 1.433 . S
C588 C584 1.350 . S
C588 C585 1.463 . S
C588 N592 1.427 . S
C589 H579 0.929 . S
C589 C587 1.433 . S
C589 N592 1.384 . S
C590 H581 0.929 . S
C590 C582 1.378 . S
C590 C585 1.350 . S
C591 H578 0.929 . S
C591 C583 1.433 . S
C591 N593 1.384 . S
N592 C588 1.427 . S
N592 C589 1.384 . S
N593 C585 1.427 . S
N593 C591 1.384 . S
H594 C600 0.930 . S
H595 C604 0.930 . S
H596 C609 0.929 . S
H597 C607 0.929 . S
H598 C602 0.929 . S
H599 C608 0.929 . S
C600 H594 0.930 . S
C600 C601 1.367 . S
C600 C608 1.378 . S
C601 C600 1.367 . S
C601 C609 1.433 . S
C602 H598 0.929 . S
C602 C604 1.378 . S
C602 C606 1.350 . S
C603 C606 1.463 . S
C603 C608 1.350 . S
C603 N611 1.427 . S
C604 H595 0.930 . S
C604 C602 1.378 . S
C604 C605 1.367 . S
C605 C604 1.367 . S
C605 C607 1.433 . S
C606 C602 1.350 . S
C606 C603 1.463 . S
C606 N610 1.427 . S
C607 H597 0.929 . S
C607 C605 1.433 . S
C607 N610 1.384 . S
C608 H599 0.929 . S
C608 C600 1.378 . S
C608 C603 1.350 . S
C609 H596 0.929 . S
C609 C601 1.433 . S
C609 N611 1.384 . S
N610 C606 1.427 . S
N610 C607 1.384 . S
N611 C603 1.427 . S
N611 C609 1.384 . S
H612 C618 0.930 . S
H613 C622 0.930 . S
H614 C627 0.929 . S
H615 C625 0.929 . S
H616 C620 0.929 . S
H617 C626 0.929 . S
C618 H612 0.930 . S
C618 C619 1.367 . S
C618 C626 1.378 . S
C619 C618 1.367 . S
C619 C627 1.433 . S
C620 H616 0.929 . S
C620 C622 1.378 . S
C620 C624 1.350 . S
C621 C624 1.463 . S
C621 C626 1.350 . S
C621 N629 1.427 . S
C622 H613 0.930 . S
C622 C620 1.378 . S
C622 C623 1.367 . S
C623 C622 1.367 . S
C623 C625 1.433 . S
C624 C620 1.350 . S
C624 C621 1.463 . S
C624 N628 1.427 . S
C625 H615 0.929 . S
C625 C623 1.433 . S
C625 N628 1.384 . S
C626 H617 0.929 . S
C626 C618 1.378 . S
C626 C621 1.350 . S
C627 H614 0.929 . S
C627 C619 1.433 . S
C627 N629 1.384 . S
N628 C624 1.427 . S
N628 C625 1.384 . S
N629 C621 1.427 . S
N629 C627 1.384 . S
H630 C636 0.930 . S
H631 C640 0.930 . S
H632 C645 0.929 . S
H633 C643 0.929 . S
H634 C638 0.929 . S
H635 C644 0.929 . S
C636 H630 0.930 . S
C636 C637 1.367 . S
C636 C644 1.378 . S
C637 C636 1.367 . S
C637 C645 1.433 . S
C638 H634 0.929 . S
C638 C640 1.378 . S
C638 C642 1.350 . S
C639 C642 1.463 . S
C639 C644 1.350 . S
C639 N647 1.427 . S
C640 H631 0.930 . S
C640 C638 1.378 . S
C640 C641 1.367 . S
C641 C640 1.367 . S
C641 C643 1.433 . S
C642 C638 1.350 . S
C642 C639 1.463 . S
C642 N646 1.427 . S
C643 H633 0.929 . S
C643 C641 1.433 . S
C643 N646 1.384 . S
C644 H635 0.929 . S
C644 C636 1.378 . S
C644 C639 1.350 . S
C645 H632 0.929 . S
C645 C637 1.433 . S
C645 N647 1.384 . S
N646 C642 1.427 . S
N646 C643 1.384 . S
N647 C639 1.427 . S
N647 C645 1.384 . S
H648 C654 0.930 . S
H649 C658 0.930 . S
H650 C663 0.929 . S
H651 C661 0.929 . S
H652 C656 0.929 . S
H653 C662 0.929 . S
C654 H648 0.930 . S
C654 C655 1.367 . S
C654 C662 1.378 . S
C655 C654 1.367 . S
C655 C663 1.433 . S
C656 H652 0.929 . S
C656 C658 1.378 . S
C656 C660 1.350 . S
C657 C660 1.463 . S
C657 C662 1.350 . S
C657 N665 1.427 . S
C658 H649 0.930 . S
C658 C656 1.378 . S
C658 C659 1.367 . S
C659 C658 1.367 . S
C659 C661 1.433 . S
C660 C656 1.350 . S
C660 C657 1.463 . S
C660 N664 1.427 . S
C661 H651 0.929 . S
C661 C659 1.433 . S
C661 N664 1.384 . S
C662 H653 0.929 . S
C662 C654 1.378 . S
C662 C657 1.350 . S
C663 H650 0.929 . S
C663 C655 1.433 . S
C663 N665 1.384 . S
N664 C660 1.427 . S
N664 C661 1.384 . S
N665 C657 1.427 . S
N665 C663 1.384 . S
H666 C672 0.930 . S
H667 C676 0.930 . S
H668 C681 0.929 . S
H669 C679 0.929 . S
H670 C674 0.929 . S
H671 C680 0.929 . S
C672 H666 0.930 . S
C672 C673 1.367 . S
C672 C680 1.378 . S
C673 C672 1.367 . S
C673 C681 1.433 . S
C674 H670 0.929 . S
C674 C676 1.378 . S
C674 C678 1.350 . S
C675 C678 1.463 . S
C675 C680 1.350 . S
C675 N683 1.427 . S
C676 H667 0.930 . S
C676 C674 1.378 . S
C676 C677 1.367 . S
C677 C676 1.367 . S
C677 C679 1.433 . S
C678 C674 1.350 . S
C678 C675 1.463 . S
C678 N682 1.427 . S
C679 H669 0.929 . S
C679 C677 1.433 . S
C679 N682 1.384 . S
C680 H671 0.929 . S
C680 C672 1.378 . S
C680 C675 1.350 . S
C681 H668 0.929 . S
C681 C673 1.433 . S
C681 N683 1.384 . S
N682 C678 1.427 . S
N682 C679 1.384 . S
N683 C675 1.427 . S
N683 C681 1.384 . S
H684 C690 0.930 . S
H685 C694 0.930 . S
H686 C699 0.929 . S
H687 C697 0.929 . S
H688 C692 0.929 . S
H689 C698 0.929 . S
C690 H684 0.930 . S
C690 C691 1.367 . S
C690 C698 1.378 . S
C691 C690 1.367 . S
C691 C699 1.433 . S
C692 H688 0.929 . S
C692 C694 1.378 . S
C692 C696 1.350 . S
C693 C696 1.463 . S
C693 C698 1.350 . S
C693 N701 1.427 . S
C694 H685 0.930 . S
C694 C692 1.378 . S
C694 C695 1.367 . S
C695 C694 1.367 . S
C695 C697 1.433 . S
C696 C692 1.350 . S
C696 C693 1.463 . S
C696 N700 1.427 . S
C697 H687 0.929 . S
C697 C695 1.433 . S
C697 N700 1.384 . S
C698 H689 0.929 . S
C698 C690 1.378 . S
C698 C693 1.350 . S
C699 H686 0.929 . S
C699 C691 1.433 . S
C699 N701 1.384 . S
N700 C696 1.427 . S
N700 C697 1.384 . S
N701 C693 1.427 . S
N701 C699 1.384 . S
H702 C708 0.930 . S
H703 C712 0.930 . S
H704 C717 0.929 . S
H705 C715 0.929 . S
H706 C710 0.929 . S
H707 C716 0.929 . S
C708 H702 0.930 . S
C708 C709 1.367 . S
C708 C716 1.378 . S
C709 C708 1.367 . S
C709 C717 1.433 . S
C710 H706 0.929 . S
C710 C712 1.378 . S
C710 C714 1.350 . S
C711 C714 1.463 . S
C711 C716 1.350 . S
C711 N719 1.427 . S
C712 H703 0.930 . S
C712 C710 1.378 . S
C712 C713 1.367 . S
C713 C712 1.367 . S
C713 C715 1.433 . S
C714 C710 1.350 . S
C714 C711 1.463 . S
C714 N718 1.427 . S
C715 H705 0.929 . S
C715 C713 1.433 . S
C715 N718 1.384 . S
C716 H707 0.929 . S
C716 C708 1.378 . S
C716 C711 1.350 . S
C717 H704 0.929 . S
C717 C709 1.433 . S
C717 N719 1.384 . S
N718 C714 1.427 . S
N718 C715 1.384 . S
N719 C711 1.427 . S
N719 C717 1.384 . S
H720 C726 0.930 . S
H721 C730 0.930 . S
H722 C735 0.929 . S
H723 C733 0.929 . S
H724 C728 0.929 . S
H725 C734 0.929 . S
C726 H720 0.930 . S
C726 C727 1.367 . S
C726 C734 1.378 . S
C727 C726 1.367 . S
C727 C735 1.433 . S
C728 H724 0.929 . S
C728 C730 1.378 . S
C728 C732 1.350 . S
C729 C732 1.463 . S
C729 C734 1.350 . S
C729 N737 1.427 . S
C730 H721 0.930 . S
C730 C728 1.378 . S
C730 C731 1.367 . S
C731 C730 1.367 . S
C731 C733 1.433 . S
C732 C728 1.350 . S
C732 C729 1.463 . S
C732 N736 1.427 . S
C733 H723 0.929 . S
C733 C731 1.433 . S
C733 N736 1.384 . S
C734 H725 0.929 . S
C734 C726 1.378 . S
C734 C729 1.350 . S
C735 H722 0.929 . S
C735 C727 1.433 . S
C735 N737 1.384 . S
N736 C732 1.427 . S
N736 C733 1.384 . S
N737 C729 1.427 . S
N737 C735 1.384 . S
H738 C744 0.930 . S
H739 C748 0.930 . S
H740 C753 0.929 . S
H741 C751 0.929 . S
H742 C746 0.929 . S
H743 C752 0.929 . S
C744 H738 0.930 . S
C744 C745 1.367 . S
C744 C752 1.378 . S
C745 C744 1.367 . S
C745 C753 1.433 . S
C746 H742 0.929 . S
C746 C748 1.378 . S
C746 C750 1.350 . S
C747 C750 1.463 1_554 S
C747 C752 1.350 . S
C747 N755 1.427 . S
C748 H739 0.930 . S
C748 C746 1.378 . S
C748 C749 1.367 . S
C749 C748 1.367 . S
C749 C751 1.433 . S
C750 C746 1.350 . S
C750 C747 1.463 1_556 S
C750 N754 1.427 . S
C751 H741 0.929 . S
C751 C749 1.433 . S
C751 N754 1.384 . S
C752 H743 0.929 . S
C752 C744 1.378 . S
C752 C747 1.350 . S
C753 H740 0.929 . S
C753 C745 1.433 . S
C753 N755 1.384 . S
N754 C750 1.427 . S
N754 C751 1.384 . S
N755 C747 1.427 . S
N755 C753 1.384 . S
H756 C762 0.930 . S
H757 C766 0.930 . S
H758 C771 0.929 . S
H759 C769 0.929 . S
H760 C764 0.929 . S
H761 C770 0.929 . S
C762 H756 0.930 . S
C762 C763 1.367 1_565 S
C762 C770 1.378 . S
C763 C762 1.367 1_545 S
C763 C771 1.433 . S
C764 H760 0.929 . S
C764 C766 1.378 . S
C764 C768 1.338 1_545 S
C765 C768 1.462 1_546 S
C765 C770 1.350 1_545 S
C765 N773 1.427 . S
C766 H757 0.930 . S
C766 C764 1.378 . S
C766 C767 1.367 1_545 S
C767 C766 1.367 1_565 S
C767 C769 1.433 . S
C768 C764 1.338 1_565 S
C768 C765 1.462 1_564 S
C768 N772 1.441 . S
C769 H759 0.929 . S
C769 C767 1.433 . S
C769 N772 1.384 . S
C770 H761 0.929 . S
C770 C762 1.378 . S
C770 C765 1.350 1_565 S
C771 H758 0.929 . S
C771 C763 1.433 . S
C771 N773 1.384 . S
N772 C768 1.441 . S
N772 C769 1.384 . S
N773 C765 1.427 . S
N773 C771 1.384 . S
H774 C780 0.930 . S
H775 C784 0.930 . S
H776 C789 0.929 . S
H777 C787 0.929 . S
H778 C782 0.929 . S
H779 C788 0.929 . S
C780 H774 0.930 . S
C780 C781 1.367 . S
C780 C788 1.378 . S
C781 C780 1.367 . S
C781 C789 1.433 1_655 S
C782 H778 0.929 . S
C782 C784 1.378 . S
C782 C786 1.350 . S
C783 C786 1.463 1_656 S
C783 C788 1.350 . S
C783 N791 1.427 1_655 S
C784 H775 0.930 . S
C784 C782 1.378 . S
C784 C785 1.367 . S
C785 C784 1.367 . S
C785 C787 1.433 1_455 S
C786 C782 1.350 . S
C786 C783 1.463 1_454 S
C786 N790 1.427 1_455 S
C787 H777 0.929 . S
C787 C785 1.433 1_655 S
C787 N790 1.384 . S
C788 H779 0.929 . S
C788 C780 1.378 . S
C788 C783 1.350 . S
C789 H776 0.929 . S
C789 C781 1.433 1_455 S
C789 N791 1.384 . S
N790 C786 1.427 1_655 S
N790 C787 1.384 . S
N791 C783 1.427 1_455 S
N791 C789 1.384 . S
H792 C798 0.930 . S
H793 C802 0.930 . S
H794 C807 0.929 . S
H795 C805 0.929 . S
H796 C800 0.929 . S
H797 C806 0.929 . S
C798 H792 0.930 . S
C798 C799 1.367 . S
C798 C806 1.378 . S
C799 C798 1.367 . S
C799 C807 1.433 . S
C800 H796 0.929 . S
C800 C802 1.378 . S
C800 C804 1.350 . S
C801 C804 1.463 . S
C801 C806 1.350 . S
C801 N809 1.427 . S
C802 H793 0.930 . S
C802 C800 1.378 . S
C802 C803 1.367 . S
C803 C802 1.367 . S
C803 C805 1.433 . S
C804 C800 1.350 . S
C804 C801 1.463 . S
C804 N808 1.427 . S
C805 H795 0.929 . S
C805 C803 1.433 . S
C805 N808 1.384 . S
C806 H797 0.929 . S
C806 C798 1.378 . S
C806 C801 1.350 . S
C807 H794 0.929 . S
C807 C799 1.433 . S
C807 N809 1.384 . S
N808 C804 1.427 . S
N808 C805 1.384 . S
N809 C801 1.427 . S
N809 C807 1.384 . S
H810 C816 0.930 . S
H811 C820 0.930 . S
H812 C825 0.929 . S
H813 C823 0.929 . S
H814 C818 0.929 . S
H815 C824 0.929 . S
C816 H810 0.930 . S
C816 C817 1.367 . S
C816 C824 1.378 . S
C817 C816 1.367 . S
C817 C825 1.433 . S
C818 H814 0.929 . S
C818 C820 1.378 . S
C818 C822 1.350 . S
C819 C822 1.463 . S
C819 C824 1.350 . S
C819 N827 1.427 . S
C820 H811 0.930 . S
C820 C818 1.378 . S
C820 C821 1.367 . S
C821 C820 1.367 . S
C821 C823 1.433 . S
C822 C818 1.350 . S
C822 C819 1.463 . S
C822 N826 1.427 . S
C823 H813 0.929 . S
C823 C821 1.433 . S
C823 N826 1.384 . S
C824 H815 0.929 . S
C824 C816 1.378 . S
C824 C819 1.350 . S
C825 H812 0.929 . S
C825 C817 1.433 . S
C825 N827 1.384 . S
N826 C822 1.427 . S
N826 C823 1.384 . S
N827 C819 1.427 . S
N827 C825 1.384 . S
H828 C834 0.930 . S
H829 C838 0.930 . S
H830 C843 0.929 . S
H831 C841 0.929 . S
H832 C836 0.929 . S
H833 C842 0.929 . S
C834 H828 0.930 . S
C834 C835 1.367 . S
C834 C842 1.378 . S
C835 C834 1.367 . S
C835 C843 1.433 . S
C836 H832 0.929 . S
C836 C838 1.378 . S
C836 C840 1.350 . S
C837 C840 1.463 . S
C837 C842 1.350 . S
C837 N845 1.427 . S
C838 H829 0.930 . S
C838 C836 1.378 . S
C838 C839 1.367 . S
C839 C838 1.367 . S
C839 C841 1.433 . S
C840 C836 1.350 . S
C840 C837 1.463 . S
C840 N844 1.427 . S
C841 H831 0.929 . S
C841 C839 1.433 . S
C841 N844 1.384 . S
C842 H833 0.929 . S
C842 C834 1.378 . S
C842 C837 1.350 . S
C843 H830 0.929 . S
C843 C835 1.433 . S
C843 N845 1.384 . S
N844 C840 1.427 . S
N844 C841 1.384 . S
N845 C837 1.427 . S
N845 C843 1.384 . S
H846 C852 0.930 . S
H847 C856 0.930 . S
H848 C861 0.929 . S
H849 C859 0.929 . S
H850 C854 0.929 . S
H851 C860 0.929 . S
C852 H846 0.930 . S
C852 C853 1.367 . S
C852 C860 1.378 . S
C853 C852 1.367 . S
C853 C861 1.433 . S
C854 H850 0.929 . S
C854 C856 1.378 . S
C854 C858 1.350 . S
C855 C858 1.463 . S
C855 C860 1.350 . S
C855 N863 1.427 . S
C856 H847 0.930 . S
C856 C854 1.378 . S
C856 C857 1.367 . S
C857 C856 1.367 . S
C857 C859 1.433 . S
C858 C854 1.350 . S
C858 C855 1.463 . S
C858 N862 1.427 . S
C859 H849 0.929 . S
C859 C857 1.433 . S
C859 N862 1.384 . S
C860 H851 0.929 . S
C860 C852 1.378 . S
C860 C855 1.350 . S
C861 H848 0.929 . S
C861 C853 1.433 . S
C861 N863 1.384 . S
N862 C858 1.427 . S
N862 C859 1.384 . S
N863 C855 1.427 . S
N863 C861 1.384 . S
H864 C870 0.930 . S
H865 C874 0.930 . S
H866 C879 0.929 . S
H867 C877 0.929 . S
H868 C872 0.929 . S
H869 C878 0.929 . S
C870 H864 0.930 . S
C870 C871 1.367 . S
C870 C878 1.378 . S
C871 C870 1.367 . S
C871 C879 1.433 . S
C872 H868 0.929 . S
C872 C874 1.378 . S
C872 C876 1.350 . S
C873 C876 1.463 . S
C873 C878 1.350 . S
C873 N881 1.427 . S
C874 H865 0.930 . S
C874 C872 1.378 . S
C874 C875 1.367 . S
C875 C874 1.367 . S
C875 C877 1.433 . S
C876 C872 1.350 . S
C876 C873 1.463 . S
C876 N880 1.427 . S
C877 H867 0.929 . S
C877 C875 1.433 . S
C877 N880 1.384 . S
C878 H869 0.929 . S
C878 C870 1.378 . S
C878 C873 1.350 . S
C879 H866 0.929 . S
C879 C871 1.433 . S
C879 N881 1.384 . S
N880 C876 1.427 . S
N880 C877 1.384 . S
N881 C873 1.427 . S
N881 C879 1.384 . S
H882 C888 0.930 . S
H883 C892 0.930 . S
H884 C897 0.929 . S
H885 C895 0.929 . S
H886 C890 0.929 . S
H887 C896 0.929 . S
C888 H882 0.930 . S
C888 C889 1.367 . S
C888 C896 1.378 . S
C889 C888 1.367 . S
C889 C897 1.433 . S
C890 H886 0.929 . S
C890 C892 1.378 . S
C890 C894 1.350 . S
C891 C894 1.463 . S
C891 C896 1.350 . S
C891 N899 1.427 . S
C892 H883 0.930 . S
C892 C890 1.378 . S
C892 C893 1.367 . S
C893 C892 1.367 . S
C893 C895 1.433 . S
C894 C890 1.350 . S
C894 C891 1.463 . S
C894 N898 1.427 . S
C895 H885 0.929 . S
C895 C893 1.433 . S
C895 N898 1.384 . S
C896 H887 0.929 . S
C896 C888 1.378 . S
C896 C891 1.350 . S
C897 H884 0.929 . S
C897 C889 1.433 . S
C897 N899 1.384 . S
N898 C894 1.427 . S
N898 C895 1.384 . S
N899 C891 1.427 . S
N899 C897 1.384 . S
C259 C148 1.161 . S
C263 C8 1.163 . S
C277 C22 1.157 . S
C281 C162 1.154 . S
C295 C134 1.155 . S
C299 C36 1.154 . S
C313 C204 1.162 . S
C317 C50 1.164 . S
C331 C64 1.158 . S
C335 C176 1.154 . S
C349 C190 1.156 . S
C353 C78 1.160 . S
C367 C92 1.156 . S
C371 C232 1.161 . S
C385 C246 1.163 . S
C389 C106 1.159 . S
C403 C120 1.161 . S
C407 C218 1.163 . S
C421 C9 0.989 . S
C425 C17 1.073 . S
C439 C23 0.990 . S
C443 C31 1.071 . S
C457 C3 1.073 . S
C461 C37 0.989 . S
C475 C73 1.073 . S
C479 C51 1.004 . S
C493 C45 1.063 . S
C497 C65 1.019 . S
C511 C79 0.995 . S
C515 C59 1.069 . S
C529 C93 1.020 . S
C533 C101 1.064 . S
C547 C107 1.018 . S
C551 C115 1.065 . S
C565 C87 1.071 . S
C569 C121 1.006 . S
C583 C157 1.062 . S
C587 C135 1.016 . S
C601 C129 1.064 . S
C605 C149 1.006 . S
C619 C143 1.070 . S
C623 C163 0.992 . S
C637 C185 1.071 . S
C641 C177 1.007 . S
C655 C199 1.063 . S
C659 C191 1.009 . S
C673 C171 1.073 . S
C677 C205 1.001 . S
C691 C219 0.996 . S
C695 C241 1.068 . S
C709 C233 0.989 . S
C713 C213 1.073 . S
C727 C247 0.997 . S
C731 C227 1.074 . S
C745 C7 1.585 . S
C749 C49 1.601 . S
C763 C63 1.586 . S
C767 C21 1.593 . S
C781 C77 1.601 . S
C785 C35 1.587 . S
C799 C133 1.588 . S
C803 C91 1.600 . S
C817 C147 1.584 . S
C821 C105 1.597 . S
C835 C119 1.596 . S
C839 C161 1.594 . S
C853 C217 1.595 . S
C857 C175 1.585 . S
C871 C231 1.585 . S
C875 C189 1.595 . S
C889 C245 1.601 . S
C893 C203 1.585 . S
