# Generated by pormake.
# Topology whc, (6)-cn, num edge types: 1
# Building blocks:
#     Node 0, Type 0, BuildingBlock: IZENUY_clean_sbu_0, # of connection points: 6
#     Node 1, Type 0, BuildingBlock: IZENUY_clean_sbu_0, # of connection points: 6
#     Node 2, Type 0, BuildingBlock: IZENUY_clean_sbu_0, # of connection points: 6
#     Node 3, Type 0, BuildingBlock: IZENUY_clean_sbu_0, # of connection points: 6
#     Node 4, Type 0, BuildingBlock: IZENUY_clean_sbu_0, # of connection points: 6
#     Node 5, Type 0, BuildingBlock: IZENUY_clean_sbu_0, # of connection points: 6
#     Node 6, Type 0, BuildingBlock: IZENUY_clean_sbu_0, # of connection points: 6
#     Node 7, Type 0, BuildingBlock: IZENUY_clean_sbu_0, # of connection points: 6
#     Edge 8, Type (0, 0), BuildingBlock: XUDNAN_clean_linker_2, # of connection points: 2
#     Edge 9, Type (0, 0), BuildingBlock: XUDNAN_clean_linker_2, # of connection points: 2
#     Edge 10, Type (0, 0), BuildingBlock: XUDNAN_clean_linker_2, # of connection points: 2
#     Edge 11, Type (0, 0), BuildingBlock: XUDNAN_clean_linker_2, # of connection points: 2
#     Edge 12, Type (0, 0), BuildingBlock: XUDNAN_clean_linker_2, # of connection points: 2
#     Edge 13, Type (0, 0), BuildingBlock: XUDNAN_clean_linker_2, # of connection points: 2
#     Edge 14, Type (0, 0), BuildingBlock: XUDNAN_clean_linker_2, # of connection points: 2
#     Edge 15, Type (0, 0), BuildingBlock: XUDNAN_clean_linker_2, # of connection points: 2
#     Edge 16, Type (0, 0), BuildingBlock: XUDNAN_clean_linker_2, # of connection points: 2
#     Edge 17, Type (0, 0), BuildingBlock: XUDNAN_clean_linker_2, # of connection points: 2
#     Edge 18, Type (0, 0), BuildingBlock: XUDNAN_clean_linker_2, # of connection points: 2
#     Edge 19, Type (0, 0), BuildingBlock: XUDNAN_clean_linker_2, # of connection points: 2
#     Edge 20, Type (0, 0), BuildingBlock: XUDNAN_clean_linker_2, # of connection points: 2
#     Edge 21, Type (0, 0), BuildingBlock: XUDNAN_clean_linker_2, # of connection points: 2
#     Edge 22, Type (0, 0), BuildingBlock: XUDNAN_clean_linker_2, # of connection points: 2
#     Edge 23, Type (0, 0), BuildingBlock: XUDNAN_clean_linker_2, # of connection points: 2
#     Edge 24, Type (0, 0), BuildingBlock: XUDNAN_clean_linker_2, # of connection points: 2
#     Edge 25, Type (0, 0), BuildingBlock: XUDNAN_clean_linker_2, # of connection points: 2
#     Edge 26, Type (0, 0), BuildingBlock: XUDNAN_clean_linker_2, # of connection points: 2
#     Edge 27, Type (0, 0), BuildingBlock: XUDNAN_clean_linker_2, # of connection points: 2
#     Edge 28, Type (0, 0), BuildingBlock: XUDNAN_clean_linker_2, # of connection points: 2
#     Edge 29, Type (0, 0), BuildingBlock: XUDNAN_clean_linker_2, # of connection points: 2
#     Edge 30, Type (0, 0), BuildingBlock: XUDNAN_clean_linker_2, # of connection points: 2
#     Edge 31, Type (0, 0), BuildingBlock: XUDNAN_clean_linker_2, # of connection points: 2
# Relax obj value: 0.363
# Max RMSD: 0.283
# Mean RMSD: 0.283
data_MOF--net-whc--node1-IZENUY_clean_sbu_0--edge1-XUDNAN_clean_linker_2
_symmetry_space_group_name_H-M    P1
_symmetry_Int_Tables_number       1
_symmetry_cell_setting            triclinic
loop_
_symmetry_equiv_pos_as_xyz
'x, y, z'
_cell_length_a     35.038375
_cell_length_b     34.943761
_cell_length_c     29.349359
_cell_angle_alpha  89.938452
_cell_angle_beta   89.976635
_cell_angle_gamma 89.691377
loop_
_atom_site_label
_atom_site_type_symbol
_atom_site_fract_x
_atom_site_fract_y
_atom_site_fract_z
_atom_type_partial_charge
Fe0 Fe 0.50213 0.18854 0.10325 0.0
Fe1 Fe 0.41947 0.21001 0.07985 0.0
O2 O 0.46342 0.22103 0.10645 0.0
Fe3 Fe 0.46842 0.26447 0.13635 0.0
O4 O 0.51974 0.27032 0.12401 0.0
O5 O 0.53253 0.22337 0.07659 0.0
O6 O 0.49055 0.17208 0.04497 0.0
C7 C 0.47065 0.18882 0.01475 0.0
C8 C 0.50306 0.21377 0.19429 0.0
O9 O 0.44229 0.20922 0.02502 0.0
C10 C 0.3924 0.24153 0.15752 0.0
O11 O 0.47449 0.15156 0.13033 0.0
O12 O 0.42488 0.15719 0.08584 0.0
O13 O 0.47762 0.23905 0.18901 0.0
O14 O 0.5204 0.19963 0.16032 0.0
C15 C 0.42856 0.28942 0.06252 0.0
O16 O 0.39378 0.21127 0.13394 0.0
O17 O 0.41813 0.26675 0.15371 0.0
C18 C 0.44573 0.137 0.11205 0.0
O19 O 0.407 0.26049 0.06714 0.0
O20 O 0.45904 0.29193 0.08519 0.0
C21 C 0.54031 0.25558 0.09308 0.0
Fe22 Fe 0.20086 0.58081 0.9117 0.0
Fe23 Fe 0.21398 0.49795 0.88038 0.0
O24 O 0.22886 0.54638 0.88253 0.0
Fe25 Fe 0.27189 0.55968 0.8555 0.0
O26 O 0.28457 0.59667 0.89719 0.0
O27 O 0.24007 0.592 0.94978 0.0
O28 O 0.18536 0.547 0.9557 0.0
C29 C 0.20146 0.51646 0.96925 0.0
C30 C 0.22813 0.62188 0.83408 0.0
O31 O 0.2178 0.49387 0.94174 0.0
C32 C 0.2354 0.51228 0.79262 0.0
O33 O 0.15901 0.57099 0.87595 0.0
O34 O 0.16313 0.50865 0.88448 0.0
O35 O 0.24742 0.59391 0.81966 0.0
O36 O 0.21304 0.62105 0.87339 0.0
C37 C 0.29283 0.49094 0.89266 0.0
O38 O 0.20917 0.50087 0.81879 0.0
O39 O 0.26626 0.52527 0.80883 0.0
C40 C 0.14406 0.53809 0.87398 0.0
O41 O 0.26221 0.47757 0.87663 0.0
O42 O 0.29934 0.52631 0.89021 0.0
C43 C 0.2732 0.60143 0.93769 0.0
Fe44 Fe 0.58361 0.80949 0.08948 0.0
Fe45 Fe 0.54818 0.74212 0.14062 0.0
O46 O 0.54315 0.788 0.1158 0.0
Fe47 Fe 0.49866 0.81235 0.11631 0.0
O48 O 0.50459 0.82998 0.0571 0.0
O49 O 0.56059 0.80651 0.03512 0.0
O50 O 0.60759 0.7641 0.07579 0.0
C51 C 0.59409 0.73124 0.06804 0.0
C52 C 0.5428 0.87502 0.12171 0.0
O53 O 0.56344 0.7213 0.08682 0.0
C54 C 0.50521 0.77971 0.20499 0.0
O55 O 0.60903 0.81193 0.14376 0.0
O56 O 0.5973 0.75117 0.15968 0.0
O57 O 0.51944 0.85432 0.14232 0.0
O58 O 0.56707 0.85954 0.09564 0.0
C59 C 0.47385 0.73843 0.10212 0.0
O60 O 0.53364 0.75929 0.19513 0.0
O61 O 0.48613 0.79764 0.17491 0.0
C62 C 0.61572 0.78184 0.16692 0.0
O63 O 0.49985 0.72526 0.12756 0.0
O64 O 0.47332 0.77303 0.09066 0.0
C65 C 0.52764 0.81896 0.02606 0.0
Fe66 Fe 0.81651 0.502 0.90438 0.0
Fe67 Fe 0.74563 0.45481 0.88265 0.0
O68 O 0.79394 0.45722 0.90053 0.0
Fe69 Fe 0.81953 0.41484 0.91495 0.0
O70 O 0.82598 0.43105 0.97275 0.0
O71 O 0.84465 0.48942 0.95574 0.0
O72 O 0.78175 0.51924 0.94366 0.0
C73 C 0.74657 0.52177 0.93721 0.0
C74 C 0.8763 0.46104 0.87181 0.0
O75 O 0.73071 0.50187 0.90653 0.0
C76 C 0.78081 0.39038 0.84034 0.0
O77 O 0.79189 0.52243 0.85424 0.0
O78 O 0.75732 0.47518 0.82779 0.0
O79 O 0.86733 0.43323 0.8976 0.0
O80 O 0.85312 0.48782 0.86516 0.0
C81 C 0.74524 0.40208 0.95086 0.0
O82 O 0.75159 0.40788 0.85539 0.0
O83 O 0.81339 0.39524 0.85797 0.0
C84 C 0.77589 0.50541 0.82118 0.0
O85 O 0.73151 0.4333 0.93633 0.0
O86 O 0.77696 0.38952 0.93587 0.0
C87 C 0.83906 0.46293 0.98467 0.0
Fe88 Fe 0.54418 0.26785 0.6271 0.0
Fe89 Fe 0.58902 0.20034 0.58603 0.0
O90 O 0.54509 0.22068 0.60443 0.0
Fe91 Fe 0.50211 0.19438 0.60109 0.0
O92 O 0.47912 0.23078 0.56721 0.0
O93 O 0.49471 0.279 0.61059 0.0
O94 O 0.55982 0.28781 0.57331 0.0
C95 C 0.59039 0.27755 0.55374 0.0
C96 C 0.50136 0.22764 0.68825 0.0
O97 O 0.60746 0.24653 0.56463 0.0
C98 C 0.55054 0.13673 0.62648 0.0
O99 O 0.59319 0.26657 0.64807 0.0
O100 O 0.61109 0.20663 0.64197 0.0
O101 O 0.48325 0.2134 0.65496 0.0
O102 O 0.52937 0.24958 0.68193 0.0
C103 C 0.5405 0.17712 0.51828 0.0
O104 O 0.57713 0.15039 0.60213 0.0
O105 O 0.52098 0.15573 0.63476 0.0
C106 C 0.61519 0.23941 0.65928 0.0
O107 O 0.57115 0.19306 0.52946 0.0
O108 O 0.51405 0.17091 0.54675 0.0
C109 C 0.47389 0.26461 0.58005 0.0
Fe110 Fe 0.19462 0.43085 0.41069 0.0
Fe111 Fe 0.26963 0.45831 0.36872 0.0
O112 O 0.22242 0.46824 0.3869 0.0
Fe113 Fe 0.20328 0.51492 0.38069 0.0
O114 O 0.17753 0.51331 0.43555 0.0
O115 O 0.19109 0.45614 0.4639 0.0
O116 O 0.23613 0.40575 0.43537 0.0
C117 C 0.26884 0.41788 0.44714 0.0
C118 C 0.13871 0.47509 0.36275 0.0
O119 O 0.284 0.44558 0.42619 0.0
C120 C 0.23879 0.49838 0.29731 0.0
O121 O 0.19757 0.40282 0.35796 0.0
O122 O 0.26004 0.40845 0.35422 0.0
O123 O 0.1632 0.49801 0.34824 0.0
O124 O 0.14778 0.45012 0.39222 0.0
C125 C 0.2764 0.53362 0.4031 0.0
O126 O 0.25673 0.46933 0.31114 0.0
O127 O 0.22626 0.52339 0.32495 0.0
C128 C 0.22944 0.39295 0.34109 0.0
O129 O 0.28847 0.50658 0.37841 0.0
O130 O 0.24161 0.53638 0.41253 0.0
C131 C 0.18136 0.49064 0.46922 0.0
Fe132 Fe 0.41943 0.81492 0.58851 0.0
Fe133 Fe 0.50429 0.81031 0.61702 0.0
O134 O 0.45865 0.78947 0.61273 0.0
Fe135 Fe 0.45176 0.74212 0.63195 0.0
O136 O 0.44142 0.727 0.5747 0.0
O137 O 0.39724 0.77121 0.56397 0.0
O138 O 0.44377 0.81908 0.53532 0.0
C139 C 0.47749 0.82964 0.52848 0.0
C140 C 0.38276 0.77882 0.65697 0.0
O141 O 0.50073 0.83483 0.5612 0.0
C142 C 0.49177 0.77274 0.70198 0.0
O143 O 0.43589 0.86309 0.60612 0.0
O144 O 0.48598 0.85064 0.64842 0.0
O145 O 0.40114 0.74912 0.64532 0.0
O146 O 0.39191 0.81124 0.64132 0.0
C147 C 0.52623 0.73714 0.5966 0.0
O148 O 0.51423 0.78879 0.67367 0.0
O149 O 0.462 0.75578 0.68922 0.0
C150 C 0.46091 0.87357 0.63467 0.0
O151 O 0.52718 0.77181 0.58571 0.0
O152 O 0.50095 0.72516 0.62348 0.0
C153 C 0.41386 0.74027 0.55198 0.0
Fe154 Fe 0.80636 0.58884 0.4201 0.0
Fe155 Fe 0.74525 0.54973 0.36085 0.0
O156 O 0.78688 0.54724 0.3949 0.0
Fe157 Fe 0.80981 0.50276 0.40495 0.0
O158 O 0.79941 0.50646 0.46619 0.0
O159 O 0.82499 0.56355 0.4703 0.0
O160 O 0.7632 0.59653 0.45275 0.0
C161 C 0.72953 0.59712 0.43743 0.0
C162 C 0.87146 0.55241 0.3939 0.0
O163 O 0.72162 0.58581 0.39737 0.0
C164 C 0.79717 0.50164 0.31227 0.0
O165 O 0.78975 0.62251 0.37614 0.0
O166 O 0.76529 0.58587 0.32343 0.0
O167 O 0.85714 0.52314 0.41229 0.0
O168 O 0.85134 0.58237 0.38848 0.0
C169 C 0.73289 0.48063 0.40295 0.0
O170 O 0.76345 0.51437 0.3191 0.0
O171 O 0.82073 0.49788 0.34477 0.0
C172 C 0.77772 0.61782 0.33602 0.0
O173 O 0.7204 0.51377 0.395 0.0
O174 O 0.76775 0.47305 0.39843 0.0
C175 C 0.81135 0.5343 0.48987 0.0
H176 H 0.26121 0.39994 0.25921 0.0
H177 H 0.21314 0.31638 0.351 0.0
H178 H 0.24244 0.26428 0.30492 0.0
H179 H 0.25655 0.33919 0.15026 0.0
H180 H 0.301 0.3597 0.13162 0.0
H181 H 0.26777 0.38803 0.16445 0.0
H182 H 0.32142 0.40215 0.22251 0.0
H183 H 0.35447 0.37307 0.19116 0.0
H184 H 0.3455 0.36285 0.2504 0.0
H185 H 0.28921 0.22312 0.25725 0.0
H186 H 0.34474 0.19857 0.21275 0.0
H187 H 0.35978 0.31114 0.15384 0.0
C188 C 0.25437 0.37064 0.26765 0.0
C189 C 0.23357 0.36205 0.30736 0.0
C190 C 0.22769 0.32338 0.31954 0.0
C191 C 0.24453 0.2937 0.2937 0.0
C192 C 0.26652 0.30339 0.25558 0.0
C193 C 0.27051 0.34114 0.24209 0.0
C194 C 0.29941 0.34535 0.20426 0.0
C195 C 0.28002 0.35885 0.16002 0.0
C196 C 0.3321 0.37241 0.21796 0.0
C197 C 0.31308 0.3045 0.20034 0.0
C198 C 0.29347 0.28029 0.22927 0.0
C199 C 0.30406 0.24176 0.23381 0.0
C200 C 0.33561 0.22803 0.20859 0.0
C201 C 0.35652 0.25309 0.18025 0.0
C202 C 0.34435 0.29139 0.17547 0.0
H203 H 0.23617 0.63168 0.74294 0.0
H204 H 0.23377 0.69391 0.87033 0.0
H205 H 0.26171 0.75017 0.83187 0.0
H206 H 0.32348 0.65615 0.71316 0.0
H207 H 0.31553 0.65982 0.65262 0.0
H208 H 0.28546 0.62987 0.68653 0.0
H209 H 0.22623 0.66643 0.65648 0.0
H210 H 0.25603 0.69778 0.62321 0.0
H211 H 0.22282 0.71758 0.66376 0.0
H212 H 0.30475 0.79261 0.78449 0.0
H213 H 0.35616 0.81602 0.7334 0.0
H214 H 0.33008 0.72586 0.6376 0.0
C215 C 0.23991 0.65777 0.76219 0.0
C216 C 0.23257 0.65855 0.80942 0.0
C217 C 0.23841 0.69295 0.83385 0.0
C218 C 0.25449 0.72502 0.81226 0.0
C219 C 0.26386 0.72244 0.76608 0.0
C220 C 0.256 0.68977 0.74117 0.0
C221 C 0.27381 0.69142 0.69427 0.0
C222 C 0.30118 0.65733 0.68623 0.0
C223 C 0.24287 0.69342 0.65724 0.0
C224 C 0.2952 0.72876 0.6977 0.0
C225 C 0.28849 0.74692 0.73881 0.0
C226 C 0.30925 0.7793 0.75164 0.0
C227 C 0.33831 0.79254 0.72246 0.0
C228 C 0.34654 0.77294 0.68152 0.0
C229 C 0.32372 0.74171 0.66843 0.0
H230 H 0.72235 0.66848 0.35672 0.0
H231 H 0.8058 0.64095 0.25307 0.0
H232 H 0.78046 0.69366 0.20462 0.0
H233 H 0.64767 0.67857 0.28386 0.0
H234 H 0.62394 0.71658 0.31447 0.0
H235 H 0.65481 0.68402 0.34432 0.0
H236 H 0.69662 0.74155 0.37344 0.0
H237 H 0.663 0.77287 0.34512 0.0
H238 H 0.71328 0.77606 0.33272 0.0
H239 H 0.74189 0.74588 0.1651 0.0
H240 H 0.68722 0.78117 0.13168 0.0
H241 H 0.62413 0.76718 0.25721 0.0
C242 C 0.73609 0.67461 0.32449 0.0
C243 C 0.76674 0.65175 0.30902 0.0
C244 C 0.78296 0.659 0.26581 0.0
C245 C 0.76881 0.68894 0.23831 0.0
C246 C 0.73806 0.71084 0.25431 0.0
C247 C 0.72157 0.70353 0.29624 0.0
C248 C 0.68501 0.72629 0.30255 0.0
C249 C 0.65086 0.69978 0.31179 0.0
C250 C 0.6897 0.75596 0.34073 0.0
C251 C 0.68205 0.74577 0.25656 0.0
C252 C 0.71393 0.7382 0.23012 0.0
C253 C 0.71703 0.75219 0.18571 0.0
C254 C 0.68598 0.7725 0.16709 0.0
C255 C 0.65179 0.77718 0.19214 0.0
C256 C 0.6504 0.76487 0.2379 0.0
H257 H 0.75468 0.39415 0.754 0.0
H258 H 0.78682 0.31466 0.86038 0.0
H259 H 0.75523 0.26206 0.8185 0.0
H260 H 0.66708 0.36594 0.73753 0.0
H261 H 0.66494 0.37004 0.67635 0.0
H262 H 0.69825 0.39839 0.70783 0.0
H263 H 0.75609 0.36926 0.66077 0.0
H264 H 0.72059 0.34441 0.62784 0.0
H265 H 0.75912 0.3183 0.65443 0.0
H266 H 0.7085 0.22156 0.77216 0.0
H267 H 0.6545 0.19794 0.72493 0.0
H268 H 0.65462 0.30473 0.64978 0.0
C269 C 0.75683 0.36519 0.76698 0.0
C270 C 0.77389 0.35801 0.80955 0.0
C271 C 0.77492 0.32026 0.82695 0.0
C272 C 0.75683 0.29031 0.8035 0.0
C273 C 0.7386 0.29858 0.76233 0.0
C274 C 0.73951 0.33502 0.7436 0.0
C275 C 0.71454 0.33776 0.70172 0.0
C276 C 0.68445 0.3699 0.70618 0.0
C277 C 0.73898 0.34276 0.65864 0.0
C278 C 0.69656 0.2986 0.70242 0.0
C279 C 0.71154 0.27572 0.73646 0.0
C280 C 0.69721 0.23903 0.74478 0.0
C281 C 0.6666 0.22579 0.71793 0.0
C282 C 0.65037 0.24963 0.68407 0.0
C283 C 0.66633 0.28596 0.67573 0.0
H284 H 0.50952 0.26881 0.76683 0.0
H285 H 0.47315 0.15872 0.71477 0.0
H286 H 0.46595 0.13477 0.79351 0.0
H287 H 0.56246 0.23528 0.86207 0.0
H288 H 0.54693 0.27284 0.89996 0.0
H289 H 0.5494 0.28154 0.83953 0.0
H290 H 0.47815 0.30213 0.83863 0.0
H291 H 0.47575 0.29428 0.8992 0.0
H292 H 0.44271 0.27039 0.8619 0.0
H293 H 0.46616 0.12182 0.87822 0.0
H294 H 0.46322 0.1246 0.96273 0.0
H295 H 0.49527 0.24407 0.95851 0.0
C296 C 0.49962 0.23983 0.77211 0.0
C297 C 0.49184 0.2156 0.73493 0.0
C298 C 0.47884 0.17786 0.74294 0.0
C299 C 0.47506 0.16388 0.78748 0.0
C300 C 0.48379 0.18824 0.82347 0.0
C301 C 0.49488 0.2257 0.81629 0.0
C302 C 0.5008 0.24655 0.86082 0.0
C303 C 0.54237 0.25982 0.86587 0.0
C304 C 0.47267 0.28032 0.8654 0.0
C305 C 0.49163 0.21488 0.89412 0.0
C306 C 0.4825 0.18125 0.87202 0.0
C307 C 0.47314 0.14802 0.89592 0.0
C308 C 0.47186 0.14967 0.9437 0.0
C309 C 0.47945 0.18439 0.96643 0.0
C310 C 0.48988 0.21713 0.94148 0.0
H311 H 0.21388 0.56566 0.03887 0.0
H312 H 0.18919 0.4469 0.00853 0.0
H313 H 0.18987 0.43197 0.09104 0.0
H314 H 0.2813 0.54534 0.1241 0.0
H315 H 0.26919 0.58508 0.16057 0.0
H316 H 0.26144 0.58861 0.10015 0.0
H317 H 0.19035 0.60471 0.11254 0.0
H318 H 0.19742 0.60225 0.17331 0.0
H319 H 0.16127 0.57337 0.14669 0.0
H320 H 0.19252 0.4302 0.17498 0.0
H321 H 0.20702 0.43837 0.25624 0.0
H322 H 0.23822 0.55661 0.23264 0.0
C323 C 0.20788 0.5367 0.04985 0.0
C324 C 0.20065 0.50742 0.01792 0.0
C325 C 0.19431 0.46959 0.03287 0.0
C326 C 0.19445 0.461 0.07947 0.0
C327 C 0.20167 0.49052 0.11018 0.0
C328 C 0.20893 0.52747 0.09611 0.0
C329 C 0.21985 0.55287 0.13589 0.0
C330 C 0.26036 0.56887 0.12981 0.0
C331 C 0.19046 0.58521 0.14249 0.0
C332 C 0.21807 0.52422 0.17456 0.0
C333 C 0.20657 0.48875 0.1588 0.0
C334 C 0.20222 0.45757 0.18756 0.0
C335 C 0.21109 0.46234 0.23344 0.0
C336 C 0.22543 0.49749 0.24993 0.0
C337 C 0.22782 0.52932 0.22055 0.0
H338 H 0.53701 0.861 0.94756 0.0
H339 H 0.49185 0.75542 0.00232 0.0
H340 H 0.4804 0.73158 0.92477 0.0
H341 H 0.47141 0.86726 0.84766 0.0
H342 H 0.50811 0.88546 0.81057 0.0
H343 H 0.50951 0.89581 0.87068 0.0
H344 H 0.57792 0.86747 0.87447 0.0
H345 H 0.57632 0.8561 0.81465 0.0
H346 H 0.58629 0.81901 0.85576 0.0
H347 H 0.47712 0.71733 0.8438 0.0
H348 H 0.47614 0.71519 0.76014 0.0
H349 H 0.52378 0.82957 0.75442 0.0
C350 C 0.52319 0.83364 0.94283 0.0
C351 C 0.51332 0.81063 0.98053 0.0
C352 C 0.49727 0.77414 0.97369 0.0
C353 C 0.4913 0.76016 0.92983 0.0
C354 C 0.50163 0.78313 0.89323 0.0
C355 C 0.51667 0.81931 0.8989 0.0
C356 C 0.52633 0.83718 0.85316 0.0
C357 C 0.5024 0.87358 0.84504 0.0
C358 C 0.56927 0.84542 0.84931 0.0
C359 C 0.51459 0.80519 0.82124 0.0
C360 C 0.50071 0.7743 0.84546 0.0
C361 C 0.48774 0.74132 0.82429 0.0
C362 C 0.48746 0.74034 0.77683 0.0
C363 C 0.50003 0.77214 0.75104 0.0
C364 C 0.51468 0.80465 0.77346 0.0
H365 H 0.76715 0.52661 0.23062 0.0
H366 H 0.85599 0.454 0.28762 0.0
H367 H 0.87923 0.43953 0.21003 0.0
H368 H 0.74722 0.4697 0.13108 0.0
H369 H 0.74017 0.51056 0.09441 0.0
H370 H 0.73033 0.51439 0.15445 0.0
H371 H 0.77647 0.57195 0.15936 0.0
H372 H 0.78691 0.56768 0.09945 0.0
H373 H 0.82515 0.56633 0.14049 0.0
H374 H 0.89105 0.43045 0.12567 0.0
H375 H 0.89031 0.42808 0.04118 0.0
H376 H 0.7968 0.50939 0.03916 0.0
C377 C 0.79123 0.50732 0.22676 0.0
C378 C 0.80946 0.49109 0.26534 0.0
C379 C 0.8414 0.46663 0.25871 0.0
C380 C 0.8549 0.45832 0.21472 0.0
C381 C 0.83659 0.47511 0.1775 0.0
C382 C 0.80548 0.49919 0.18304 0.0
C383 C 0.79123 0.51381 0.13733 0.0
C384 C 0.74979 0.50135 0.12883 0.0
C385 C 0.79519 0.55754 0.13398 0.0
C386 C 0.81874 0.49368 0.10525 0.0
C387 C 0.84471 0.47147 0.12909 0.0
C388 C 0.87134 0.4483 0.1067 0.0
C389 C 0.87094 0.44727 0.05879 0.0
C390 C 0.84459 0.46977 0.03384 0.0
C391 C 0.81846 0.49345 0.05744 0.0
H392 H 0.46387 0.22739 0.27351 0.0
H393 H 0.56446 0.16994 0.21974 0.0
H394 H 0.58029 0.14678 0.29691 0.0
H395 H 0.50513 0.25931 0.37582 0.0
H396 H 0.46299 0.25179 0.40986 0.0
H397 H 0.45851 0.26156 0.34992 0.0
H398 H 0.41975 0.19911 0.34002 0.0
H399 H 0.42464 0.18891 0.39996 0.0
H400 H 0.44009 0.15418 0.3584 0.0
H401 H 0.58876 0.13556 0.38007 0.0
H402 H 0.58973 0.13808 0.46425 0.0
H403 H 0.4818 0.19906 0.46385 0.0
C404 C 0.4892 0.20988 0.27792 0.0
C405 C 0.51307 0.20066 0.24064 0.0
C406 C 0.5458 0.17745 0.24781 0.0
C407 C 0.55491 0.16396 0.29145 0.0
C408 C 0.5307 0.17347 0.3274 0.0
C409 C 0.49849 0.19583 0.32114 0.0
C410 C 0.47821 0.20336 0.36584 0.0
C411 C 0.47612 0.24656 0.37595 0.0
C412 C 0.4383 0.1853 0.36605 0.0
C413 C 0.50479 0.18281 0.39844 0.0
C414 C 0.53473 0.16549 0.37547 0.0
C415 C 0.56502 0.14814 0.39842 0.0
C416 C 0.56532 0.14958 0.44608 0.0
C417 C 0.53532 0.16778 0.47006 0.0
C418 C 0.5042 0.18363 0.44608 0.0
H419 H 0.15889 0.45328 0.54658 0.0
H420 H 0.20453 0.56079 0.49738 0.0
H421 H 0.22109 0.57889 0.57616 0.0
H422 H 0.11976 0.49436 0.65717 0.0
H423 H 0.13092 0.45088 0.68757 0.0
H424 H 0.11801 0.44895 0.62817 0.0
H425 H 0.18088 0.41232 0.61127 0.0
H426 H 0.19461 0.41508 0.67022 0.0
H427 H 0.22583 0.43357 0.62671 0.0
H428 H 0.24573 0.57803 0.65552 0.0
H429 H 0.26256 0.56702 0.73598 0.0
H430 H 0.19342 0.4644 0.73741 0.0
C431 C 0.17096 0.48128 0.55272 0.0
C432 C 0.18043 0.50572 0.51606 0.0
C433 C 0.19667 0.5419 0.52507 0.0
C434 C 0.20647 0.55226 0.56963 0.0
C435 C 0.19867 0.5266 0.60476 0.0
C436 C 0.17989 0.49254 0.59718 0.0
C437 C 0.17585 0.46974 0.64095 0.0
C438 C 0.13362 0.46576 0.65426 0.0
C439 C 0.19547 0.43036 0.63702 0.0
C440 C 0.19687 0.4955 0.67384 0.0
C441 C 0.21022 0.52785 0.65198 0.0
C442 C 0.23426 0.55365 0.67356 0.0
C443 C 0.24386 0.54696 0.71915 0.0
C444 C 0.22855 0.51537 0.74315 0.0
C445 C 0.20485 0.4892 0.72008 0.0
H446 H 0.48526 0.8426 0.25694 0.0
H447 H 0.5047 0.71987 0.26213 0.0
H448 H 0.50464 0.72195 0.34575 0.0
H449 H 0.54435 0.8669 0.34909 0.0
H450 H 0.51387 0.90342 0.37302 0.0
H451 H 0.51193 0.8932 0.3129 0.0
H452 H 0.4394 0.88009 0.31813 0.0
H453 H 0.44084 0.89154 0.37794 0.0
H454 H 0.422 0.84622 0.35951 0.0
H455 H 0.50689 0.73632 0.42605 0.0
H456 H 0.5004 0.76111 0.50361 0.0
H457 H 0.47932 0.87506 0.4511 0.0
C458 C 0.48807 0.81613 0.27591 0.0
C459 C 0.49482 0.78101 0.25338 0.0
C460 C 0.49938 0.74697 0.27899 0.0
C461 C 0.49969 0.74789 0.32641 0.0
C462 C 0.49511 0.78307 0.3477 0.0
C463 C 0.48832 0.81649 0.32376 0.0
C464 C 0.48438 0.85025 0.35611 0.0
C465 C 0.51549 0.88021 0.34723 0.0
C466 C 0.44426 0.86807 0.35273 0.0
C467 C 0.49044 0.83037 0.40165 0.0
C468 C 0.4971 0.79171 0.39542 0.0
C469 C 0.50263 0.76665 0.43153 0.0
C470 C 0.49992 0.78115 0.47552 0.0
C471 C 0.49207 0.82028 0.48323 0.0
C472 C 0.48737 0.84542 0.4459 0.0
H473 H 0.74293 0.47809 0.74238 0.0
H474 H 0.82318 0.56267 0.79207 0.0
H475 H 0.84019 0.57885 0.71287 0.0
H476 H 0.79879 0.44357 0.65213 0.0
H477 H 0.75942 0.43721 0.6133 0.0
H478 H 0.75147 0.43527 0.67392 0.0
H479 H 0.69977 0.48798 0.66625 0.0
H480 H 0.70827 0.49043 0.60576 0.0
H481 H 0.71204 0.53299 0.64007 0.0
H482 H 0.8523 0.58244 0.62934 0.0
H483 H 0.85529 0.57739 0.54593 0.0
H484 H 0.76723 0.4904 0.54857 0.0
C485 C 0.76346 0.50065 0.73666 0.0
C486 C 0.78154 0.51928 0.77371 0.0
C487 C 0.8086 0.54826 0.76451 0.0
C488 C 0.81861 0.55753 0.71955 0.0
C489 C 0.80108 0.53787 0.684 0.0
C490 C 0.77361 0.5105 0.69189 0.0
C491 C 0.76005 0.4929 0.64742 0.0
C492 C 0.76795 0.44965 0.64659 0.0
C493 C 0.71751 0.50161 0.63942 0.0
C494 C 0.78495 0.5139 0.61338 0.0
C495 C 0.80821 0.53984 0.63541 0.0
C496 C 0.83401 0.56247 0.61172 0.0
C497 C 0.83555 0.55923 0.56423 0.0
C498 C 0.81159 0.53338 0.54051 0.0
C499 C 0.78622 0.51008 0.56565 0.0
H500 H 0.28034 0.418 0.92269 0.0
H501 H 0.368 0.50495 0.91332 0.0
H502 H 0.41317 0.46181 0.9533 0.0
H503 H 0.30419 0.38753 0.03501 0.0
H504 H 0.29358 0.3379 0.02462 0.0
H505 H 0.26904 0.3747 0.99296 0.0
H506 H 0.29107 0.34354 0.9171 0.0
H507 H 0.31561 0.3066 0.94856 0.0
H508 H 0.34122 0.33498 0.90747 0.0
H509 H 0.44818 0.40947 0.99608 0.0
H510 H 0.46987 0.35306 0.03985 0.0
H511 H 0.35849 0.30113 0.02246 0.0
C512 C 0.30922 0.4278 0.92836 0.0
C513 C 0.32082 0.46468 0.91429 0.0
C514 C 0.35858 0.47672 0.92345 0.0
C515 C 0.38442 0.45241 0.94612 0.0
C516 C 0.37193 0.41632 0.95974 0.0
C517 C 0.33516 0.40414 0.95134 0.0
C518 C 0.32822 0.36481 0.97139 0.0
C519 C 0.29691 0.36635 0.00816 0.0
C520 C 0.31846 0.33577 0.93388 0.0
C521 C 0.36695 0.35655 0.99211 0.0
C522 C 0.39179 0.38658 0.985 0.0
C523 C 0.42898 0.38579 0.00176 0.0
C524 C 0.441 0.3536 0.02666 0.0
C525 C 0.4159 0.32259 0.03468 0.0
C526 C 0.37848 0.32418 0.01677 0.0
H527 H 0.313 0.66788 0.92965 0.0
H528 H 0.29251 0.57227 0.02032 0.0
H529 H 0.3413 0.59707 0.07376 0.0
H530 H 0.4129 0.67648 0.94505 0.0
H531 H 0.41209 0.72808 0.94444 0.0
H532 H 0.37596 0.70185 0.91448 0.0
H533 H 0.32425 0.73931 0.96017 0.0
H534 H 0.36097 0.76462 0.99053 0.0
H535 H 0.32534 0.73823 0.02158 0.0
H536 H 0.3973 0.6293 0.11283 0.0
H537 H 0.44958 0.67087 0.13998 0.0
H538 H 0.4277 0.74902 0.02784 0.0
C539 C 0.31867 0.65249 0.96102 0.0
C540 C 0.29936 0.61825 0.97116 0.0
C541 C 0.30704 0.59876 0.01242 0.0
C542 C 0.33477 0.61251 0.04272 0.0
C543 C 0.35379 0.64621 0.03154 0.0
C544 C 0.34541 0.66642 0.99219 0.0
C545 C 0.36901 0.70244 0.98875 0.0
C546 C 0.39398 0.70212 0.94562 0.0
C547 C 0.34336 0.73827 0.99037 0.0
C548 C 0.39292 0.69873 0.03149 0.0
C549 C 0.38403 0.66596 0.05555 0.0
C550 C 0.40408 0.65536 0.09468 0.0
C551 C 0.43383 0.67903 0.10972 0.0
C552 C 0.44277 0.7132 0.0861 0.0
C553 C 0.42164 0.72316 0.04675 0.0
H554 H 0.57978 0.67022 0.01002 0.0
H555 H 0.66778 0.72451 0.09105 0.0
H556 H 0.71314 0.67403 0.07006 0.0
H557 H 0.60868 0.57107 0.03144 0.0
H558 H 0.60024 0.55514 0.97395 0.0
H559 H 0.57268 0.59426 0.99712 0.0
H560 H 0.59322 0.63746 0.92979 0.0
H561 H 0.62062 0.59842 0.90628 0.0
H562 H 0.6433 0.64356 0.91783 0.0
H563 H 0.74852 0.62 0.04284 0.0
H564 H 0.77743 0.56701 0.00203 0.0
H565 H 0.67002 0.54554 0.9321 0.0
C566 C 0.60864 0.6712 0.02315 0.0
C567 C 0.62046 0.70125 0.05212 0.0
C568 C 0.65837 0.70202 0.06852 0.0
C569 C 0.68424 0.67327 0.05712 0.0
C570 C 0.67196 0.64411 0.02867 0.0
C571 C 0.63545 0.64288 0.01107 0.0
C572 C 0.63131 0.60915 0.97864 0.0
C573 C 0.60145 0.58072 0.99636 0.0
C574 C 0.62154 0.62298 0.93026 0.0
C575 C 0.67134 0.5921 0.98083 0.0
C576 C 0.69368 0.61269 0.01074 0.0
C577 C 0.73149 0.60359 0.0192 0.0
C578 C 0.74758 0.57309 0.99567 0.0
C579 C 0.72613 0.55176 0.9635 0.0
C580 C 0.68717 0.56115 0.95641 0.0
H581 H 0.67344 0.41656 0.98593 0.0
H582 H 0.76282 0.32997 0.98042 0.0
H583 H 0.72144 0.28521 0.02188 0.0
H584 H 0.63719 0.39042 0.10041 0.0
H585 H 0.58821 0.39947 0.08483 0.0
H586 H 0.62598 0.42624 0.05816 0.0
H587 H 0.60171 0.40522 0.97871 0.0
H588 H 0.56402 0.37831 0.00508 0.0
H589 H 0.59666 0.35495 0.96648 0.0
H590 H 0.66876 0.24744 0.05504 0.0
H591 H 0.60841 0.21985 0.08295 0.0
H592 H 0.55332 0.33085 0.07138 0.0
C593 C 0.68456 0.38842 0.99412 0.0
C594 C 0.72145 0.37684 0.97976 0.0
C595 C 0.73476 0.33963 0.99098 0.0
C596 C 0.71147 0.31394 0.0146 0.0
C597 C 0.67507 0.32594 0.02733 0.0
C598 C 0.66173 0.36239 0.01802 0.0
C599 C 0.62074 0.36728 0.03387 0.0
C600 C 0.61788 0.39766 0.07157 0.0
C601 C 0.59423 0.377 0.99363 0.0
C602 C 0.6129 0.32756 0.0524 0.0
C603 C 0.64474 0.30425 0.04823 0.0
C604 C 0.64387 0.26554 0.05938 0.0
C605 C 0.6095 0.25011 0.075 0.0
C606 C 0.57661 0.27342 0.07984 0.0
C607 C 0.57844 0.31274 0.069 0.0
H608 H 0.59243 0.35618 0.55684 0.0
H609 H 0.63171 0.25812 0.47903 0.0
H610 H 0.66624 0.30121 0.42672 0.0
H611 H 0.58256 0.42431 0.46159 0.0
H612 H 0.60112 0.46392 0.49389 0.0
H613 H 0.57588 0.426 0.52247 0.0
H614 H 0.63387 0.41494 0.57583 0.0
H615 H 0.65913 0.45288 0.54756 0.0
H616 H 0.68022 0.40583 0.55135 0.0
H617 H 0.7 0.35321 0.38674 0.0
H618 H 0.73456 0.41122 0.36329 0.0
H619 H 0.67515 0.47698 0.4668 0.0
C620 C 0.60767 0.34398 0.52817 0.0
C621 C 0.6091 0.3039 0.52145 0.0
C622 C 0.63022 0.28875 0.48453 0.0
C623 C 0.64971 0.313 0.45457 0.0
C624 C 0.64811 0.35233 0.46229 0.0
C625 C 0.62794 0.36782 0.49834 0.0
C626 C 0.63392 0.41081 0.50124 0.0
C627 C 0.59611 0.43254 0.49438 0.0
C628 C 0.65292 0.42174 0.54668 0.0
C629 C 0.66079 0.41695 0.46131 0.0
C630 C 0.66823 0.38275 0.43922 0.0
C631 C 0.69403 0.38024 0.4033 0.0
C632 C 0.71348 0.41331 0.39022 0.0
C633 C 0.70699 0.44853 0.41276 0.0
C634 C 0.67973 0.4506 0.44819 0.0
H635 H 0.46403 0.33939 0.5534 0.0
H636 H 0.40398 0.23279 0.5757 0.0
H637 H 0.34346 0.2637 0.55302 0.0
H638 H 0.38663 0.40519 0.58828 0.0
H639 H 0.39644 0.43903 0.54344 0.0
H640 H 0.43456 0.41025 0.56681 0.0
H641 H 0.45108 0.38518 0.48607 0.0
H642 H 0.41325 0.41404 0.46248 0.0
H643 H 0.41431 0.36319 0.45222 0.0
H644 H 0.29045 0.30445 0.52618 0.0
H645 H 0.2487 0.35017 0.48639 0.0
H646 H 0.34299 0.43002 0.47549 0.0
C647 C 0.43793 0.32292 0.55405 0.0
C648 C 0.43832 0.28393 0.56658 0.0
C649 C 0.40404 0.26275 0.56614 0.0
C650 C 0.36955 0.28011 0.55372 0.0
C651 C 0.36997 0.31854 0.54131 0.0
C652 C 0.40324 0.33964 0.54063 0.0
C653 C 0.39616 0.37928 0.52118 0.0
C654 C 0.40391 0.41027 0.55708 0.0
C655 C 0.42011 0.38578 0.47792 0.0
C656 C 0.35393 0.37676 0.5103 0.0
C657 C 0.33935 0.34176 0.5233 0.0
C658 C 0.30143 0.33203 0.51588 0.0
C659 C 0.27793 0.35829 0.49324 0.0
C660 C 0.29257 0.39366 0.47746 0.0
C661 C 0.33089 0.4033 0.48718 0.0
H662 H 0.3395 0.71817 0.54377 0.0
H663 H 0.4522 0.70327 0.48539 0.0
H664 H 0.42813 0.65113 0.43661 0.0
H665 H 0.32046 0.6208 0.5533 0.0
H666 H 0.27027 0.62456 0.54051 0.0
H667 H 0.2949 0.66451 0.56525 0.0
H668 H 0.27265 0.70762 0.49819 0.0
H669 H 0.24801 0.66757 0.47341 0.0
H670 H 0.28299 0.69325 0.44047 0.0
H671 H 0.39403 0.59615 0.40115 0.0
H672 H 0.35111 0.54383 0.37808 0.0
H673 H 0.26082 0.59323 0.46112 0.0
C674 C 0.35856 0.70487 0.51933 0.0
C675 C 0.39738 0.71509 0.51728 0.0
C676 C 0.42217 0.69608 0.48659 0.0
C677 C 0.4088 0.66642 0.45895 0.0
C678 C 0.37066 0.65593 0.46285 0.0
C679 C 0.34578 0.67469 0.49201 0.0
C680 C 0.30717 0.6554 0.4928 0.0
C681 C 0.29766 0.64042 0.54081 0.0
C682 C 0.27586 0.68259 0.47514 0.0
C683 C 0.31439 0.62278 0.45991 0.0
C684 C 0.35113 0.62366 0.44294 0.0
C685 C 0.365 0.59542 0.41369 0.0
C686 C 0.34047 0.5657 0.40099 0.0
C687 C 0.30252 0.56446 0.41756 0.0
C688 C 0.28953 0.59346 0.44749 0.0
H689 H 0.67513 0.65109 0.41724 0.0
H690 H 0.71629 0.57676 0.52501 0.0
H691 H 0.66639 0.60203 0.5768 0.0
H692 H 0.6595 0.7316 0.4885 0.0
H693 H 0.61737 0.74819 0.459 0.0
H694 H 0.65313 0.72118 0.42886 0.0
H695 H 0.60265 0.67178 0.40388 0.0
H696 H 0.56663 0.69902 0.43343 0.0
H697 H 0.57343 0.64905 0.44649 0.0
H698 H 0.61101 0.63482 0.6162 0.0
H699 H 0.55951 0.67809 0.64318 0.0
H700 H 0.5611 0.7369 0.51303 0.0
C701 C 0.67318 0.6399 0.45155 0.0
C702 C 0.699 0.61175 0.4672 0.0
C703 C 0.69645 0.59826 0.51257 0.0
C704 C 0.66819 0.61231 0.54207 0.0
C705 C 0.64325 0.64038 0.52584 0.0
C706 C 0.64584 0.65446 0.48186 0.0
C707 C 0.6176 0.68678 0.4741 0.0
C708 C 0.63815 0.72418 0.46196 0.0
C709 C 0.58835 0.67599 0.4373 0.0
C710 C 0.59917 0.68902 0.52069 0.0
C711 C 0.61357 0.66133 0.54967 0.0
C712 C 0.59974 0.65683 0.59391 0.0
C713 C 0.57053 0.68145 0.60892 0.0
C714 C 0.55639 0.71086 0.58023 0.0
C715 C 0.57121 0.71474 0.53574 0.0
H716 H 0.4614 0.0843 0.17876 0.0
H717 H 0.43642 0.09545 0.03472 0.0
H718 H 0.46025 0.02972 0.02185 0.0
H719 H 0.54524 0.03433 0.17072 0.0
H720 H 0.53766 1.00183 0.21755 0.0
H721 H 0.51455 0.04796 0.21735 0.0
H722 H 0.44828 0.01628 0.22544 0.0
H723 H 0.47124 0.97003 0.2273 0.0
H724 H 0.43441 0.97947 0.18586 0.0
H725 H 0.49831 0.9686 0.02264 0.0
H726 H 0.53136 0.90765 0.03923 0.0
H727 H 0.52485 0.93156 0.184 0.0
C728 C 0.45933 0.07218 0.14491 0.0
C729 C 0.44672 0.09483 0.10774 0.0
C730 C 0.44524 0.07841 0.06373 0.0
C731 C 0.45924 0.04125 0.05603 0.0
C732 C 0.47353 0.0205 0.09295 0.0
C733 C 0.47211 0.03465 0.13686 0.0
C734 C 0.48937 0.00629 0.17045 0.0
C735 C 0.52374 0.02366 0.19548 0.0
C736 C 0.45901 0.99217 0.20426 0.0
C737 C 0.50189 0.97459 0.13835 0.0
C738 C 0.49312 0.98382 0.09372 0.0
C739 C 0.50447 0.96065 0.05753 0.0
C740 C 0.52375 0.92634 0.06727 0.0
C741 C 0.5308 0.915 0.11287 0.0
C742 C 0.51994 0.93964 0.14885 0.0
H743 H 0.94325 0.43669 0.91259 0.0
H744 H 0.89922 0.50467 0.80035 0.0
H745 H 0.96302 0.53206 0.78794 0.0
H746 H 1.00215 0.50571 0.95797 0.0
H747 H 0.0411 0.47428 0.97304 0.0
H748 H 0.99328 0.45593 0.96998 0.0
H749 H 0.01474 0.40444 0.91176 0.0
H750 H 0.06291 0.42197 0.91556 0.0
H751 H 0.03972 0.41884 0.86089 0.0
H752 H 0.0297 0.55927 0.79483 0.0
H753 H 0.09718 0.57528 0.81253 0.0
H754 H 0.09796 0.48805 0.9177 0.0
C755 C 0.9474 0.45611 0.88426 0.0
C756 C 0.91621 0.46838 0.85739 0.0
C757 C 0.9227 0.49473 0.82136 0.0
C758 C 0.95883 0.51067 0.81415 0.0
C759 C 0.98852 0.49968 0.84282 0.0
C760 C 0.98349 0.47225 0.87638 0.0
C761 C 0.01985 0.46649 0.90348 0.0
C762 C 0.0137 0.47619 0.9541 0.0
C763 C 0.03522 0.4255 0.89755 0.0
C764 C 0.04563 0.49547 0.8806 0.0
C765 C 0.02707 0.51459 0.84588 0.0
C766 C 0.04476 0.54401 0.82147 0.0
C767 C 0.08286 0.55325 0.83199 0.0
C768 C 0.10272 0.5328 0.86619 0.0
C769 C 0.08355 0.50392 0.89098 0.0
H770 H 0.46636 0.93162 0.57275 0.0
H771 H 0.47612 0.906 0.71674 0.0
H772 H 0.50398 0.96995 0.7302 0.0
H773 H 0.55506 0.97709 0.56346 0.0
H774 H 0.53994 0.01297 0.52306 0.0
H775 H 0.51614 0.96744 0.52506 0.0
H776 H 0.45093 1.0011 0.53771 0.0
H777 H 0.47437 0.04676 0.53422 0.0
H778 H 0.44582 0.03519 0.5834 0.0
H779 H 0.53239 0.0364 0.72741 0.0
H780 H 0.55572 0.10146 0.70887 0.0
H781 H 0.53325 0.0812 0.56597 0.0
C782 C 0.47291 0.94019 0.60733 0.0
C783 C 0.46793 0.91447 0.64402 0.0
C784 C 0.47872 0.9258 0.68847 0.0
C785 C 0.49494 0.96187 0.69631 0.0
C786 C 0.50089 0.98603 0.65916 0.0
C787 C 0.48993 0.97581 0.61558 0.0
C788 C 0.50144 0.00612 0.58124 0.0
C789 C 0.52983 0.98992 0.54614 0.0
C790 C 0.46603 0.02332 0.55777 0.0
C791 C 0.52049 0.03498 0.61226 0.0
C792 C 0.51976 0.02294 0.65713 0.0
C793 C 0.53368 0.04582 0.69231 0.0
C794 C 0.5474 0.08247 0.68151 0.0
C795 C 0.54793 0.09546 0.63588 0.0
C796 C 0.53492 0.0711 0.60084 0.0
H797 H 0.92443 0.51032 0.43849 0.0
H798 H 0.9112 0.58839 0.32457 0.0
H799 H 0.9779 0.57385 0.30063 0.0
H800 H 0.02345 0.53118 0.46355 0.0
H801 H 0.03386 0.48219 0.47854 0.0
H802 H 0.98653 0.50123 0.48689 0.0
H803 H 0.9593 0.44594 0.43806 0.0
H804 H 0.00664 0.42734 0.42847 0.0
H805 H 0.97645 0.43912 0.38071 0.0
H806 H 0.04557 0.54729 0.28801 0.0
H807 H 0.1099 0.51828 0.29278 0.0
H808 H 0.07629 0.45666 0.41465 0.0
C809 C 0.93564 0.52489 0.40879 0.0
C810 C 0.91272 0.55059 0.38334 0.0
C811 C 0.92849 0.56904 0.34484 0.0
C812 C 0.96611 0.56055 0.3308 0.0
C813 C 0.98732 0.53374 0.35582 0.0
C814 C 0.97269 0.51673 0.39446 0.0
C815 C 1.00073 0.48884 0.41565 0.0
C816 C 0.0118 0.50164 0.46401 0.0
C817 C 0.98481 0.44789 0.4157 0.0
C818 C 0.03377 0.49255 0.38292 0.0
C819 C 0.02552 0.5184 0.34846 0.0
C820 C 0.0522 0.52709 0.31488 0.0
C821 C 0.08861 0.51023 0.31774 0.0
C822 C 0.09813 0.48495 0.35397 0.0
C823 C 0.06982 0.47524 0.38609 0.0
loop_
_geom_bond_atom_site_label_1
_geom_bond_atom_site_label_2
_geom_bond_distance
_geom_bond_site_symmetry_2
_ccdc_geom_bond_type
Fe0 O2 1.918 . S
Fe0 O5 1.997 . S
Fe0 O6 2.002 . S
Fe0 O11 1.976 . S
Fe0 O14 1.996 . S
Fe1 O2 1.918 . S
Fe1 O9 1.997 1_554 S
Fe1 O12 1.996 . S
Fe1 O16 1.976 . S
Fe1 O19 2.002 . S
O2 Fe0 1.918 . S
O2 Fe1 1.918 . S
O2 Fe3 1.918 . S
Fe3 O2 1.918 . S
Fe3 O4 2.002 . S
Fe3 O13 1.976 . S
Fe3 O17 1.996 . S
Fe3 O20 1.997 . S
O4 Fe3 2.002 . S
O4 C21 1.295 . S
O5 Fe0 1.997 . S
O5 C21 1.235 . S
O6 Fe0 2.002 . S
O6 C7 1.295 1_554 S
C7 O6 1.295 1_556 S
C7 O9 1.235 . S
C8 O13 1.287 . S
C8 O14 1.255 . S
O9 Fe1 1.997 1_556 S
O9 C7 1.235 . S
C10 O16 1.287 . S
C10 O17 1.255 . S
O11 Fe0 1.976 . S
O11 C18 1.287 . S
O12 Fe1 1.996 . S
O12 C18 1.255 . S
O13 Fe3 1.976 . S
O13 C8 1.287 . S
O14 Fe0 1.996 . S
O14 C8 1.255 . S
C15 O19 1.295 . S
C15 O20 1.235 . S
O16 Fe1 1.976 . S
O16 C10 1.287 . S
O17 Fe3 1.996 . S
O17 C10 1.255 . S
C18 O11 1.287 . S
C18 O12 1.255 . S
O19 Fe1 2.002 . S
O19 C15 1.295 . S
O20 Fe3 1.997 . S
O20 C15 1.235 . S
C21 O4 1.295 . S
C21 O5 1.235 . S
Fe22 O24 1.918 . S
Fe22 O27 1.997 . S
Fe22 O28 2.002 1_556 S
Fe22 O33 1.976 . S
Fe22 O36 1.996 . S
Fe23 O24 1.918 . S
Fe23 O31 1.997 . S
Fe23 O34 1.996 . S
Fe23 O38 1.976 . S
Fe23 O41 2.002 . S
O24 Fe22 1.918 . S
O24 Fe23 1.918 . S
O24 Fe25 1.918 . S
Fe25 O24 1.918 . S
Fe25 O26 2.002 . S
Fe25 O35 1.976 . S
Fe25 O39 1.996 . S
Fe25 O42 1.997 . S
O26 Fe25 2.002 . S
O26 C43 1.295 . S
O27 Fe22 1.997 . S
O27 C43 1.235 . S
O28 Fe22 2.002 1_554 S
O28 C29 1.295 . S
C29 O28 1.295 . S
C29 O31 1.235 1_554 S
C30 O35 1.287 . S
C30 O36 1.255 . S
O31 Fe23 1.997 . S
O31 C29 1.235 1_556 S
C32 O38 1.287 . S
C32 O39 1.255 . S
O33 Fe22 1.976 . S
O33 C40 1.287 . S
O34 Fe23 1.996 . S
O34 C40 1.255 . S
O35 Fe25 1.976 . S
O35 C30 1.287 . S
O36 Fe22 1.996 . S
O36 C30 1.255 . S
C37 O41 1.295 . S
C37 O42 1.235 . S
O38 Fe23 1.976 . S
O38 C32 1.287 . S
O39 Fe25 1.996 . S
O39 C32 1.255 . S
C40 O33 1.287 . S
C40 O34 1.255 . S
O41 Fe23 2.002 . S
O41 C37 1.295 . S
O42 Fe25 1.997 . S
O42 C37 1.235 . S
C43 O26 1.295 . S
C43 O27 1.235 . S
Fe44 O46 1.918 . S
Fe44 O49 1.997 1_554 S
Fe44 O50 2.002 . S
Fe44 O55 1.976 . S
Fe44 O58 1.996 . S
Fe45 O46 1.918 . S
Fe45 O53 1.997 . S
Fe45 O56 1.996 . S
Fe45 O60 1.976 . S
Fe45 O63 2.002 . S
O46 Fe44 1.918 . S
O46 Fe45 1.918 . S
O46 Fe47 1.918 . S
Fe47 O46 1.918 . S
Fe47 O48 2.002 . S
Fe47 O57 1.976 . S
Fe47 O61 1.996 . S
Fe47 O64 1.997 . S
O48 Fe47 2.002 . S
O48 C65 1.295 1_554 S
O49 Fe44 1.997 1_556 S
O49 C65 1.235 . S
O50 Fe44 2.002 . S
O50 C51 1.295 . S
C51 O50 1.295 . S
C51 O53 1.235 . S
C52 O57 1.287 . S
C52 O58 1.255 . S
O53 Fe45 1.997 . S
O53 C51 1.235 . S
C54 O60 1.287 . S
C54 O61 1.255 . S
O55 Fe44 1.976 . S
O55 C62 1.287 . S
O56 Fe45 1.996 . S
O56 C62 1.255 . S
O57 Fe47 1.976 . S
O57 C52 1.287 . S
O58 Fe44 1.996 . S
O58 C52 1.255 . S
C59 O63 1.295 . S
C59 O64 1.235 . S
O60 Fe45 1.976 . S
O60 C54 1.287 . S
O61 Fe47 1.996 . S
O61 C54 1.255 . S
C62 O55 1.287 . S
C62 O56 1.255 . S
O63 Fe45 2.002 . S
O63 C59 1.295 . S
O64 Fe47 1.997 . S
O64 C59 1.235 . S
C65 O48 1.295 1_556 S
C65 O49 1.235 . S
Fe66 O68 1.918 . S
Fe66 O71 1.997 . S
Fe66 O72 2.002 . S
Fe66 O77 1.976 . S
Fe66 O80 1.996 . S
Fe67 O68 1.918 . S
Fe67 O75 1.997 . S
Fe67 O78 1.996 . S
Fe67 O82 1.976 . S
Fe67 O85 2.002 . S
O68 Fe66 1.918 . S
O68 Fe67 1.918 . S
O68 Fe69 1.918 . S
Fe69 O68 1.918 . S
Fe69 O70 2.002 1_556 S
Fe69 O79 1.976 . S
Fe69 O83 1.996 . S
Fe69 O86 1.997 . S
O70 Fe69 2.002 1_554 S
O70 C87 1.295 . S
O71 Fe66 1.997 . S
O71 C87 1.235 1_556 S
O72 Fe66 2.002 . S
O72 C73 1.295 . S
C73 O72 1.295 . S
C73 O75 1.235 . S
C74 O79 1.287 . S
C74 O80 1.255 . S
O75 Fe67 1.997 . S
O75 C73 1.235 . S
C76 O82 1.287 . S
C76 O83 1.255 . S
O77 Fe66 1.976 . S
O77 C84 1.287 . S
O78 Fe67 1.996 . S
O78 C84 1.255 . S
O79 Fe69 1.976 . S
O79 C74 1.287 . S
O80 Fe66 1.996 . S
O80 C74 1.255 . S
C81 O85 1.295 . S
C81 O86 1.235 . S
O82 Fe67 1.976 . S
O82 C76 1.287 . S
O83 Fe69 1.996 . S
O83 C76 1.255 . S
C84 O77 1.287 . S
C84 O78 1.255 . S
O85 Fe67 2.002 . S
O85 C81 1.295 . S
O86 Fe69 1.997 . S
O86 C81 1.235 . S
C87 O70 1.295 . S
C87 O71 1.235 1_554 S
Fe88 O90 1.918 . S
Fe88 O93 1.997 . S
Fe88 O94 2.002 . S
Fe88 O99 1.976 . S
Fe88 O102 1.996 . S
Fe89 O90 1.918 . S
Fe89 O97 1.997 . S
Fe89 O100 1.996 . S
Fe89 O104 1.976 . S
Fe89 O107 2.002 . S
O90 Fe88 1.918 . S
O90 Fe89 1.918 . S
O90 Fe91 1.918 . S
Fe91 O90 1.918 . S
Fe91 O92 2.002 . S
Fe91 O101 1.976 . S
Fe91 O105 1.996 . S
Fe91 O108 1.997 . S
O92 Fe91 2.002 . S
O92 C109 1.295 . S
O93 Fe88 1.997 . S
O93 C109 1.235 . S
O94 Fe88 2.002 . S
O94 C95 1.295 . S
C95 O94 1.295 . S
C95 O97 1.235 . S
C96 O101 1.287 . S
C96 O102 1.255 . S
O97 Fe89 1.997 . S
O97 C95 1.235 . S
C98 O104 1.287 . S
C98 O105 1.255 . S
O99 Fe88 1.976 . S
O99 C106 1.287 . S
O100 Fe89 1.996 . S
O100 C106 1.255 . S
O101 Fe91 1.976 . S
O101 C96 1.287 . S
O102 Fe88 1.996 . S
O102 C96 1.255 . S
C103 O107 1.295 . S
C103 O108 1.235 . S
O104 Fe89 1.976 . S
O104 C98 1.287 . S
O105 Fe91 1.996 . S
O105 C98 1.255 . S
C106 O99 1.287 . S
C106 O100 1.255 . S
O107 Fe89 2.002 . S
O107 C103 1.295 . S
O108 Fe91 1.997 . S
O108 C103 1.235 . S
C109 O92 1.295 . S
C109 O93 1.235 . S
Fe110 O112 1.918 . S
Fe110 O115 1.997 . S
Fe110 O116 2.002 . S
Fe110 O121 1.976 . S
Fe110 O124 1.996 . S
Fe111 O112 1.918 . S
Fe111 O119 1.997 . S
Fe111 O122 1.996 . S
Fe111 O126 1.976 . S
Fe111 O129 2.002 . S
O112 Fe110 1.918 . S
O112 Fe111 1.918 . S
O112 Fe113 1.918 . S
Fe113 O112 1.918 . S
Fe113 O114 2.002 . S
Fe113 O123 1.976 . S
Fe113 O127 1.996 . S
Fe113 O130 1.997 . S
O114 Fe113 2.002 . S
O114 C131 1.295 . S
O115 Fe110 1.997 . S
O115 C131 1.235 . S
O116 Fe110 2.002 . S
O116 C117 1.295 . S
C117 O116 1.295 . S
C117 O119 1.235 . S
C118 O123 1.287 . S
C118 O124 1.255 . S
O119 Fe111 1.997 . S
O119 C117 1.235 . S
C120 O126 1.287 . S
C120 O127 1.255 . S
O121 Fe110 1.976 . S
O121 C128 1.287 . S
O122 Fe111 1.996 . S
O122 C128 1.255 . S
O123 Fe113 1.976 . S
O123 C118 1.287 . S
O124 Fe110 1.996 . S
O124 C118 1.255 . S
C125 O129 1.295 . S
C125 O130 1.235 . S
O126 Fe111 1.976 . S
O126 C120 1.287 . S
O127 Fe113 1.996 . S
O127 C120 1.255 . S
C128 O121 1.287 . S
C128 O122 1.255 . S
O129 Fe111 2.002 . S
O129 C125 1.295 . S
O130 Fe113 1.997 . S
O130 C125 1.235 . S
C131 O114 1.295 . S
C131 O115 1.235 . S
Fe132 O134 1.918 . S
Fe132 O137 1.997 . S
Fe132 O138 2.002 . S
Fe132 O143 1.976 . S
Fe132 O146 1.996 . S
Fe133 O134 1.918 . S
Fe133 O141 1.997 . S
Fe133 O144 1.996 . S
Fe133 O148 1.976 . S
Fe133 O151 2.002 . S
O134 Fe132 1.918 . S
O134 Fe133 1.918 . S
O134 Fe135 1.918 . S
Fe135 O134 1.918 . S
Fe135 O136 2.002 . S
Fe135 O145 1.976 . S
Fe135 O149 1.996 . S
Fe135 O152 1.997 . S
O136 Fe135 2.002 . S
O136 C153 1.295 . S
O137 Fe132 1.997 . S
O137 C153 1.235 . S
O138 Fe132 2.002 . S
O138 C139 1.295 . S
C139 O138 1.295 . S
C139 O141 1.235 . S
C140 O145 1.287 . S
C140 O146 1.255 . S
O141 Fe133 1.997 . S
O141 C139 1.235 . S
C142 O148 1.287 . S
C142 O149 1.255 . S
O143 Fe132 1.976 . S
O143 C150 1.287 . S
O144 Fe133 1.996 . S
O144 C150 1.255 . S
O145 Fe135 1.976 . S
O145 C140 1.287 . S
O146 Fe132 1.996 . S
O146 C140 1.255 . S
C147 O151 1.295 . S
C147 O152 1.235 . S
O148 Fe133 1.976 . S
O148 C142 1.287 . S
O149 Fe135 1.996 . S
O149 C142 1.255 . S
C150 O143 1.287 . S
C150 O144 1.255 . S
O151 Fe133 2.002 . S
O151 C147 1.295 . S
O152 Fe135 1.997 . S
O152 C147 1.235 . S
C153 O136 1.295 . S
C153 O137 1.235 . S
Fe154 O156 1.918 . S
Fe154 O159 1.997 . S
Fe154 O160 2.002 . S
Fe154 O165 1.976 . S
Fe154 O168 1.996 . S
Fe155 O156 1.918 . S
Fe155 O163 1.997 . S
Fe155 O166 1.996 . S
Fe155 O170 1.976 . S
Fe155 O173 2.002 . S
O156 Fe154 1.918 . S
O156 Fe155 1.918 . S
O156 Fe157 1.918 . S
Fe157 O156 1.918 . S
Fe157 O158 2.002 . S
Fe157 O167 1.976 . S
Fe157 O171 1.996 . S
Fe157 O174 1.997 . S
O158 Fe157 2.002 . S
O158 C175 1.295 . S
O159 Fe154 1.997 . S
O159 C175 1.235 . S
O160 Fe154 2.002 . S
O160 C161 1.295 . S
C161 O160 1.295 . S
C161 O163 1.235 . S
C162 O167 1.287 . S
C162 O168 1.255 . S
O163 Fe155 1.997 . S
O163 C161 1.235 . S
C164 O170 1.287 . S
C164 O171 1.255 . S
O165 Fe154 1.976 . S
O165 C172 1.287 . S
O166 Fe155 1.996 . S
O166 C172 1.255 . S
O167 Fe157 1.976 . S
O167 C162 1.287 . S
O168 Fe154 1.996 . S
O168 C162 1.255 . S
C169 O173 1.295 . S
C169 O174 1.235 . S
O170 Fe155 1.976 . S
O170 C164 1.287 . S
O171 Fe157 1.996 . S
O171 C164 1.255 . S
C172 O165 1.287 . S
C172 O166 1.255 . S
O173 Fe155 2.002 . S
O173 C169 1.295 . S
O174 Fe157 1.997 . S
O174 C169 1.235 . S
C175 O158 1.295 . S
C175 O159 1.235 . S
H176 C188 0.930 . S
H177 C190 0.930 . S
H178 C191 0.930 . S
H179 C195 0.959 . S
H180 C195 0.959 . S
H181 C195 0.961 . S
H182 C196 0.960 . S
H183 C196 0.961 . S
H184 C196 0.959 . S
H185 C199 0.929 . S
H186 C200 0.931 . S
H187 C202 0.930 . S
C188 H176 0.930 . S
C188 C189 1.399 . S
C188 C193 1.399 . S
C189 C188 1.399 . S
C189 C190 1.376 . S
C190 H177 0.930 . S
C190 C189 1.376 . S
C190 C191 1.388 . S
C191 H178 0.930 . S
C191 C190 1.388 . S
C191 C192 1.390 . S
C192 C191 1.390 . S
C192 C193 1.394 . S
C192 C198 1.465 . S
C193 C188 1.399 . S
C193 C192 1.394 . S
C193 C194 1.516 . S
C194 C193 1.516 . S
C194 C195 1.502 . S
C194 C196 1.561 . S
C194 C197 1.526 . S
C195 H179 0.959 . S
C195 H180 0.959 . S
C195 H181 0.961 . S
C195 C194 1.502 . S
C196 H182 0.960 . S
C196 H183 0.961 . S
C196 H184 0.959 . S
C196 C194 1.561 . S
C197 C194 1.526 . S
C197 C198 1.396 . S
C197 C202 1.390 . S
C198 C192 1.465 . S
C198 C197 1.396 . S
C198 C199 1.399 . S
C199 H185 0.929 . S
C199 C198 1.399 . S
C199 C200 1.385 . S
C200 H186 0.931 . S
C200 C199 1.385 . S
C200 C201 1.389 . S
C201 C200 1.389 . S
C201 C202 1.387 . S
C202 H187 0.930 . S
C202 C197 1.390 . S
C202 C201 1.387 . S
H203 C215 0.930 . S
H204 C217 0.930 . S
H205 C218 0.930 . S
H206 C222 0.959 . S
H207 C222 0.959 . S
H208 C222 0.961 . S
H209 C223 0.960 . S
H210 C223 0.961 . S
H211 C223 0.959 . S
H212 C226 0.929 . S
H213 C227 0.931 . S
H214 C229 0.930 . S
C215 H203 0.930 . S
C215 C216 1.399 . S
C215 C220 1.399 . S
C216 C215 1.399 . S
C216 C217 1.376 . S
C217 H204 0.930 . S
C217 C216 1.376 . S
C217 C218 1.388 . S
C218 H205 0.930 . S
C218 C217 1.388 . S
C218 C219 1.390 . S
C219 C218 1.390 . S
C219 C220 1.394 . S
C219 C225 1.465 . S
C220 C215 1.399 . S
C220 C219 1.394 . S
C220 C221 1.516 . S
C221 C220 1.516 . S
C221 C222 1.502 . S
C221 C223 1.561 . S
C221 C224 1.526 . S
C222 H206 0.959 . S
C222 H207 0.959 . S
C222 H208 0.961 . S
C222 C221 1.502 . S
C223 H209 0.960 . S
C223 H210 0.961 . S
C223 H211 0.959 . S
C223 C221 1.561 . S
C224 C221 1.526 . S
C224 C225 1.396 . S
C224 C229 1.390 . S
C225 C219 1.465 . S
C225 C224 1.396 . S
C225 C226 1.399 . S
C226 H212 0.929 . S
C226 C225 1.399 . S
C226 C227 1.385 . S
C227 H213 0.931 . S
C227 C226 1.385 . S
C227 C228 1.389 . S
C228 C227 1.389 . S
C228 C229 1.387 . S
C229 H214 0.930 . S
C229 C224 1.390 . S
C229 C228 1.387 . S
H230 C242 0.930 . S
H231 C244 0.930 . S
H232 C245 0.930 . S
H233 C249 0.959 . S
H234 C249 0.959 . S
H235 C249 0.961 . S
H236 C250 0.960 . S
H237 C250 0.961 . S
H238 C250 0.959 . S
H239 C253 0.929 . S
H240 C254 0.931 . S
H241 C256 0.930 . S
C242 H230 0.930 . S
C242 C243 1.399 . S
C242 C247 1.399 . S
C243 C242 1.399 . S
C243 C244 1.376 . S
C244 H231 0.930 . S
C244 C243 1.376 . S
C244 C245 1.388 . S
C245 H232 0.930 . S
C245 C244 1.388 . S
C245 C246 1.390 . S
C246 C245 1.390 . S
C246 C247 1.394 . S
C246 C252 1.465 . S
C247 C242 1.399 . S
C247 C246 1.394 . S
C247 C248 1.516 . S
C248 C247 1.516 . S
C248 C249 1.502 . S
C248 C250 1.561 . S
C248 C251 1.526 . S
C249 H233 0.959 . S
C249 H234 0.959 . S
C249 H235 0.961 . S
C249 C248 1.502 . S
C250 H236 0.960 . S
C250 H237 0.961 . S
C250 H238 0.959 . S
C250 C248 1.561 . S
C251 C248 1.526 . S
C251 C252 1.396 . S
C251 C256 1.390 . S
C252 C246 1.465 . S
C252 C251 1.396 . S
C252 C253 1.399 . S
C253 H239 0.929 . S
C253 C252 1.399 . S
C253 C254 1.385 . S
C254 H240 0.931 . S
C254 C253 1.385 . S
C254 C255 1.389 . S
C255 C254 1.389 . S
C255 C256 1.387 . S
C256 H241 0.930 . S
C256 C251 1.390 . S
C256 C255 1.387 . S
H257 C269 0.930 . S
H258 C271 0.930 . S
H259 C272 0.930 . S
H260 C276 0.959 . S
H261 C276 0.959 . S
H262 C276 0.961 . S
H263 C277 0.960 . S
H264 C277 0.961 . S
H265 C277 0.959 . S
H266 C280 0.929 . S
H267 C281 0.931 . S
H268 C283 0.930 . S
C269 H257 0.930 . S
C269 C270 1.399 . S
C269 C274 1.399 . S
C270 C269 1.399 . S
C270 C271 1.376 . S
C271 H258 0.930 . S
C271 C270 1.376 . S
C271 C272 1.388 . S
C272 H259 0.930 . S
C272 C271 1.388 . S
C272 C273 1.390 . S
C273 C272 1.390 . S
C273 C274 1.394 . S
C273 C279 1.465 . S
C274 C269 1.399 . S
C274 C273 1.394 . S
C274 C275 1.516 . S
C275 C274 1.516 . S
C275 C276 1.502 . S
C275 C277 1.561 . S
C275 C278 1.526 . S
C276 H260 0.959 . S
C276 H261 0.959 . S
C276 H262 0.961 . S
C276 C275 1.502 . S
C277 H263 0.960 . S
C277 H264 0.961 . S
C277 H265 0.959 . S
C277 C275 1.561 . S
C278 C275 1.526 . S
C278 C279 1.396 . S
C278 C283 1.390 . S
C279 C273 1.465 . S
C279 C278 1.396 . S
C279 C280 1.399 . S
C280 H266 0.929 . S
C280 C279 1.399 . S
C280 C281 1.385 . S
C281 H267 0.931 . S
C281 C280 1.385 . S
C281 C282 1.389 . S
C282 C281 1.389 . S
C282 C283 1.387 . S
C283 H268 0.930 . S
C283 C278 1.390 . S
C283 C282 1.387 . S
H284 C296 0.930 . S
H285 C298 0.930 . S
H286 C299 0.930 . S
H287 C303 0.959 . S
H288 C303 0.959 . S
H289 C303 0.961 . S
H290 C304 0.960 . S
H291 C304 0.961 . S
H292 C304 0.959 . S
H293 C307 0.929 . S
H294 C308 0.931 . S
H295 C310 0.930 . S
C296 H284 0.930 . S
C296 C297 1.399 . S
C296 C301 1.399 . S
C297 C296 1.399 . S
C297 C298 1.376 . S
C298 H285 0.930 . S
C298 C297 1.376 . S
C298 C299 1.388 . S
C299 H286 0.930 . S
C299 C298 1.388 . S
C299 C300 1.390 . S
C300 C299 1.390 . S
C300 C301 1.394 . S
C300 C306 1.465 . S
C301 C296 1.399 . S
C301 C300 1.394 . S
C301 C302 1.516 . S
C302 C301 1.516 . S
C302 C303 1.502 . S
C302 C304 1.561 . S
C302 C305 1.526 . S
C303 H287 0.959 . S
C303 H288 0.959 . S
C303 H289 0.961 . S
C303 C302 1.502 . S
C304 H290 0.960 . S
C304 H291 0.961 . S
C304 H292 0.959 . S
C304 C302 1.561 . S
C305 C302 1.526 . S
C305 C306 1.396 . S
C305 C310 1.390 . S
C306 C300 1.465 . S
C306 C305 1.396 . S
C306 C307 1.399 . S
C307 H293 0.929 . S
C307 C306 1.399 . S
C307 C308 1.385 . S
C308 H294 0.931 . S
C308 C307 1.385 . S
C308 C309 1.389 . S
C309 C308 1.389 . S
C309 C310 1.387 . S
C310 H295 0.930 . S
C310 C305 1.390 . S
C310 C309 1.387 . S
H311 C323 0.930 . S
H312 C325 0.930 . S
H313 C326 0.930 . S
H314 C330 0.959 . S
H315 C330 0.959 . S
H316 C330 0.961 . S
H317 C331 0.960 . S
H318 C331 0.961 . S
H319 C331 0.959 . S
H320 C334 0.929 . S
H321 C335 0.931 . S
H322 C337 0.930 . S
C323 H311 0.930 . S
C323 C324 1.399 . S
C323 C328 1.399 . S
C324 C323 1.399 . S
C324 C325 1.376 . S
C325 H312 0.930 . S
C325 C324 1.376 . S
C325 C326 1.388 . S
C326 H313 0.930 . S
C326 C325 1.388 . S
C326 C327 1.390 . S
C327 C326 1.390 . S
C327 C328 1.394 . S
C327 C333 1.465 . S
C328 C323 1.399 . S
C328 C327 1.394 . S
C328 C329 1.516 . S
C329 C328 1.516 . S
C329 C330 1.502 . S
C329 C331 1.561 . S
C329 C332 1.526 . S
C330 H314 0.959 . S
C330 H315 0.959 . S
C330 H316 0.961 . S
C330 C329 1.502 . S
C331 H317 0.960 . S
C331 H318 0.961 . S
C331 H319 0.959 . S
C331 C329 1.561 . S
C332 C329 1.526 . S
C332 C333 1.396 . S
C332 C337 1.390 . S
C333 C327 1.465 . S
C333 C332 1.396 . S
C333 C334 1.399 . S
C334 H320 0.929 . S
C334 C333 1.399 . S
C334 C335 1.385 . S
C335 H321 0.931 . S
C335 C334 1.385 . S
C335 C336 1.389 . S
C336 C335 1.389 . S
C336 C337 1.387 . S
C337 H322 0.930 . S
C337 C332 1.390 . S
C337 C336 1.387 . S
H338 C350 0.930 . S
H339 C352 0.930 . S
H340 C353 0.930 . S
H341 C357 0.959 . S
H342 C357 0.959 . S
H343 C357 0.961 . S
H344 C358 0.960 . S
H345 C358 0.961 . S
H346 C358 0.959 . S
H347 C361 0.929 . S
H348 C362 0.931 . S
H349 C364 0.930 . S
C350 H338 0.930 . S
C350 C351 1.399 . S
C350 C355 1.399 . S
C351 C350 1.399 . S
C351 C352 1.376 . S
C352 H339 0.930 . S
C352 C351 1.376 . S
C352 C353 1.388 . S
C353 H340 0.930 . S
C353 C352 1.388 . S
C353 C354 1.390 . S
C354 C353 1.390 . S
C354 C355 1.394 . S
C354 C360 1.465 . S
C355 C350 1.399 . S
C355 C354 1.394 . S
C355 C356 1.516 . S
C356 C355 1.516 . S
C356 C357 1.502 . S
C356 C358 1.561 . S
C356 C359 1.526 . S
C357 H341 0.959 . S
C357 H342 0.959 . S
C357 H343 0.961 . S
C357 C356 1.502 . S
C358 H344 0.960 . S
C358 H345 0.961 . S
C358 H346 0.959 . S
C358 C356 1.561 . S
C359 C356 1.526 . S
C359 C360 1.396 . S
C359 C364 1.390 . S
C360 C354 1.465 . S
C360 C359 1.396 . S
C360 C361 1.399 . S
C361 H347 0.929 . S
C361 C360 1.399 . S
C361 C362 1.385 . S
C362 H348 0.931 . S
C362 C361 1.385 . S
C362 C363 1.389 . S
C363 C362 1.389 . S
C363 C364 1.387 . S
C364 H349 0.930 . S
C364 C359 1.390 . S
C364 C363 1.387 . S
H365 C377 0.930 . S
H366 C379 0.930 . S
H367 C380 0.930 . S
H368 C384 0.959 . S
H369 C384 0.959 . S
H370 C384 0.961 . S
H371 C385 0.960 . S
H372 C385 0.961 . S
H373 C385 0.959 . S
H374 C388 0.929 . S
H375 C389 0.931 . S
H376 C391 0.930 . S
C377 H365 0.930 . S
C377 C378 1.399 . S
C377 C382 1.399 . S
C378 C377 1.399 . S
C378 C379 1.376 . S
C379 H366 0.930 . S
C379 C378 1.376 . S
C379 C380 1.388 . S
C380 H367 0.930 . S
C380 C379 1.388 . S
C380 C381 1.390 . S
C381 C380 1.390 . S
C381 C382 1.394 . S
C381 C387 1.465 . S
C382 C377 1.399 . S
C382 C381 1.394 . S
C382 C383 1.516 . S
C383 C382 1.516 . S
C383 C384 1.502 . S
C383 C385 1.561 . S
C383 C386 1.526 . S
C384 H368 0.959 . S
C384 H369 0.959 . S
C384 H370 0.961 . S
C384 C383 1.502 . S
C385 H371 0.960 . S
C385 H372 0.961 . S
C385 H373 0.959 . S
C385 C383 1.561 . S
C386 C383 1.526 . S
C386 C387 1.396 . S
C386 C391 1.390 . S
C387 C381 1.465 . S
C387 C386 1.396 . S
C387 C388 1.399 . S
C388 H374 0.929 . S
C388 C387 1.399 . S
C388 C389 1.385 . S
C389 H375 0.931 . S
C389 C388 1.385 . S
C389 C390 1.389 . S
C390 C389 1.389 . S
C390 C391 1.387 . S
C391 H376 0.930 . S
C391 C386 1.390 . S
C391 C390 1.387 . S
H392 C404 0.930 . S
H393 C406 0.930 . S
H394 C407 0.930 . S
H395 C411 0.959 . S
H396 C411 0.959 . S
H397 C411 0.961 . S
H398 C412 0.960 . S
H399 C412 0.961 . S
H400 C412 0.959 . S
H401 C415 0.929 . S
H402 C416 0.931 . S
H403 C418 0.930 . S
C404 H392 0.930 . S
C404 C405 1.399 . S
C404 C409 1.399 . S
C405 C404 1.399 . S
C405 C406 1.376 . S
C406 H393 0.930 . S
C406 C405 1.376 . S
C406 C407 1.388 . S
C407 H394 0.930 . S
C407 C406 1.388 . S
C407 C408 1.390 . S
C408 C407 1.390 . S
C408 C409 1.394 . S
C408 C414 1.465 . S
C409 C404 1.399 . S
C409 C408 1.394 . S
C409 C410 1.516 . S
C410 C409 1.516 . S
C410 C411 1.502 . S
C410 C412 1.561 . S
C410 C413 1.526 . S
C411 H395 0.959 . S
C411 H396 0.959 . S
C411 H397 0.961 . S
C411 C410 1.502 . S
C412 H398 0.960 . S
C412 H399 0.961 . S
C412 H400 0.959 . S
C412 C410 1.561 . S
C413 C410 1.526 . S
C413 C414 1.396 . S
C413 C418 1.390 . S
C414 C408 1.465 . S
C414 C413 1.396 . S
C414 C415 1.399 . S
C415 H401 0.929 . S
C415 C414 1.399 . S
C415 C416 1.385 . S
C416 H402 0.931 . S
C416 C415 1.385 . S
C416 C417 1.389 . S
C417 C416 1.389 . S
C417 C418 1.387 . S
C418 H403 0.930 . S
C418 C413 1.390 . S
C418 C417 1.387 . S
H419 C431 0.930 . S
H420 C433 0.930 . S
H421 C434 0.930 . S
H422 C438 0.959 . S
H423 C438 0.959 . S
H424 C438 0.961 . S
H425 C439 0.960 . S
H426 C439 0.961 . S
H427 C439 0.959 . S
H428 C442 0.929 . S
H429 C443 0.931 . S
H430 C445 0.930 . S
C431 H419 0.930 . S
C431 C432 1.399 . S
C431 C436 1.399 . S
C432 C431 1.399 . S
C432 C433 1.376 . S
C433 H420 0.930 . S
C433 C432 1.376 . S
C433 C434 1.388 . S
C434 H421 0.930 . S
C434 C433 1.388 . S
C434 C435 1.390 . S
C435 C434 1.390 . S
C435 C436 1.394 . S
C435 C441 1.465 . S
C436 C431 1.399 . S
C436 C435 1.394 . S
C436 C437 1.516 . S
C437 C436 1.516 . S
C437 C438 1.502 . S
C437 C439 1.561 . S
C437 C440 1.526 . S
C438 H422 0.959 . S
C438 H423 0.959 . S
C438 H424 0.961 . S
C438 C437 1.502 . S
C439 H425 0.960 . S
C439 H426 0.961 . S
C439 H427 0.959 . S
C439 C437 1.561 . S
C440 C437 1.526 . S
C440 C441 1.396 . S
C440 C445 1.390 . S
C441 C435 1.465 . S
C441 C440 1.396 . S
C441 C442 1.399 . S
C442 H428 0.929 . S
C442 C441 1.399 . S
C442 C443 1.385 . S
C443 H429 0.931 . S
C443 C442 1.385 . S
C443 C444 1.389 . S
C444 C443 1.389 . S
C444 C445 1.387 . S
C445 H430 0.930 . S
C445 C440 1.390 . S
C445 C444 1.387 . S
H446 C458 0.930 . S
H447 C460 0.930 . S
H448 C461 0.930 . S
H449 C465 0.959 . S
H450 C465 0.959 . S
H451 C465 0.961 . S
H452 C466 0.960 . S
H453 C466 0.961 . S
H454 C466 0.959 . S
H455 C469 0.929 . S
H456 C470 0.931 . S
H457 C472 0.930 . S
C458 H446 0.930 . S
C458 C459 1.399 . S
C458 C463 1.399 . S
C459 C458 1.399 . S
C459 C460 1.376 . S
C460 H447 0.930 . S
C460 C459 1.376 . S
C460 C461 1.388 . S
C461 H448 0.930 . S
C461 C460 1.388 . S
C461 C462 1.390 . S
C462 C461 1.390 . S
C462 C463 1.394 . S
C462 C468 1.465 . S
C463 C458 1.399 . S
C463 C462 1.394 . S
C463 C464 1.516 . S
C464 C463 1.516 . S
C464 C465 1.502 . S
C464 C466 1.561 . S
C464 C467 1.526 . S
C465 H449 0.959 . S
C465 H450 0.959 . S
C465 H451 0.961 . S
C465 C464 1.502 . S
C466 H452 0.960 . S
C466 H453 0.961 . S
C466 H454 0.959 . S
C466 C464 1.561 . S
C467 C464 1.526 . S
C467 C468 1.396 . S
C467 C472 1.390 . S
C468 C462 1.465 . S
C468 C467 1.396 . S
C468 C469 1.399 . S
C469 H455 0.929 . S
C469 C468 1.399 . S
C469 C470 1.385 . S
C470 H456 0.931 . S
C470 C469 1.385 . S
C470 C471 1.389 . S
C471 C470 1.389 . S
C471 C472 1.387 . S
C472 H457 0.930 . S
C472 C467 1.390 . S
C472 C471 1.387 . S
H473 C485 0.930 . S
H474 C487 0.930 . S
H475 C488 0.930 . S
H476 C492 0.959 . S
H477 C492 0.959 . S
H478 C492 0.961 . S
H479 C493 0.960 . S
H480 C493 0.961 . S
H481 C493 0.959 . S
H482 C496 0.929 . S
H483 C497 0.931 . S
H484 C499 0.930 . S
C485 H473 0.930 . S
C485 C486 1.399 . S
C485 C490 1.399 . S
C486 C485 1.399 . S
C486 C487 1.376 . S
C487 H474 0.930 . S
C487 C486 1.376 . S
C487 C488 1.388 . S
C488 H475 0.930 . S
C488 C487 1.388 . S
C488 C489 1.390 . S
C489 C488 1.390 . S
C489 C490 1.394 . S
C489 C495 1.465 . S
C490 C485 1.399 . S
C490 C489 1.394 . S
C490 C491 1.516 . S
C491 C490 1.516 . S
C491 C492 1.502 . S
C491 C493 1.561 . S
C491 C494 1.526 . S
C492 H476 0.959 . S
C492 H477 0.959 . S
C492 H478 0.961 . S
C492 C491 1.502 . S
C493 H479 0.960 . S
C493 H480 0.961 . S
C493 H481 0.959 . S
C493 C491 1.561 . S
C494 C491 1.526 . S
C494 C495 1.396 . S
C494 C499 1.390 . S
C495 C489 1.465 . S
C495 C494 1.396 . S
C495 C496 1.399 . S
C496 H482 0.929 . S
C496 C495 1.399 . S
C496 C497 1.385 . S
C497 H483 0.931 . S
C497 C496 1.385 . S
C497 C498 1.389 . S
C498 C497 1.389 . S
C498 C499 1.387 . S
C499 H484 0.930 . S
C499 C494 1.390 . S
C499 C498 1.387 . S
H500 C512 0.930 . S
H501 C514 0.930 1_554 S
H502 C515 0.930 . S
H503 C519 0.959 . S
H504 C519 0.959 . S
H505 C519 0.961 . S
H506 C520 0.960 . S
H507 C520 0.961 . S
H508 C520 0.959 . S
H509 C523 0.929 . S
H510 C524 0.931 . S
H511 C526 0.930 . S
C512 H500 0.930 . S
C512 C513 1.399 . S
C512 C517 1.399 . S
C513 C512 1.399 . S
C513 C514 1.376 . S
C514 H501 0.930 1_556 S
C514 C513 1.376 . S
C514 C515 1.388 1_556 S
C515 H502 0.930 . S
C515 C514 1.388 1_554 S
C515 C516 1.390 1_554 S
C516 C515 1.390 1_556 S
C516 C517 1.394 . S
C516 C522 1.465 1_556 S
C517 C512 1.399 . S
C517 C516 1.394 . S
C517 C518 1.516 . S
C518 C517 1.516 . S
C518 C519 1.502 . S
C518 C520 1.561 . S
C518 C521 1.526 . S
C519 H503 0.959 . S
C519 H504 0.959 . S
C519 H505 0.961 . S
C519 C518 1.502 . S
C520 H506 0.960 . S
C520 H507 0.961 . S
C520 H508 0.959 . S
C520 C518 1.561 . S
C521 C518 1.526 . S
C521 C522 1.396 1_556 S
C521 C526 1.390 . S
C522 C516 1.465 1_554 S
C522 C521 1.396 1_554 S
C522 C523 1.399 . S
C523 H509 0.929 . S
C523 C522 1.399 . S
C523 C524 1.385 . S
C524 H510 0.931 . S
C524 C523 1.385 . S
C524 C525 1.389 . S
C525 C524 1.389 . S
C525 C526 1.387 1_554 S
C526 H511 0.930 . S
C526 C521 1.390 . S
C526 C525 1.387 1_556 S
H527 C539 0.930 . S
H528 C541 0.930 . S
H529 C542 0.930 . S
H530 C546 0.959 . S
H531 C546 0.959 . S
H532 C546 0.961 . S
H533 C547 0.960 . S
H534 C547 0.961 . S
H535 C547 0.959 . S
H536 C550 0.929 . S
H537 C551 0.931 . S
H538 C553 0.930 1_556 S
C539 H527 0.930 . S
C539 C540 1.399 . S
C539 C544 1.399 . S
C540 C539 1.399 . S
C540 C541 1.376 1_556 S
C541 H528 0.930 . S
C541 C540 1.376 1_554 S
C541 C542 1.388 . S
C542 H529 0.930 . S
C542 C541 1.388 . S
C542 C543 1.390 . S
C543 C542 1.390 . S
C543 C544 1.394 1_554 S
C543 C549 1.465 . S
C544 C539 1.399 . S
C544 C543 1.394 1_556 S
C544 C545 1.516 . S
C545 C544 1.516 . S
C545 C546 1.502 . S
C545 C547 1.561 . S
C545 C548 1.526 1_556 S
C546 H530 0.959 . S
C546 H531 0.959 . S
C546 H532 0.961 . S
C546 C545 1.502 . S
C547 H533 0.960 . S
C547 H534 0.961 . S
C547 H535 0.959 . S
C547 C545 1.561 . S
C548 C545 1.526 1_554 S
C548 C549 1.396 . S
C548 C553 1.390 . S
C549 C543 1.465 . S
C549 C548 1.396 . S
C549 C550 1.399 . S
C550 H536 0.929 . S
C550 C549 1.399 . S
C550 C551 1.385 . S
C551 H537 0.931 . S
C551 C550 1.385 . S
C551 C552 1.389 . S
C552 C551 1.389 . S
C552 C553 1.387 . S
C553 H538 0.930 1_554 S
C553 C548 1.390 . S
C553 C552 1.387 . S
H554 C566 0.930 . S
H555 C568 0.930 . S
H556 C569 0.930 . S
H557 C573 0.959 . S
H558 C573 0.959 . S
H559 C573 0.961 . S
H560 C574 0.960 . S
H561 C574 0.961 . S
H562 C574 0.959 . S
H563 C577 0.929 . S
H564 C578 0.931 . S
H565 C580 0.930 . S
C566 H554 0.930 . S
C566 C567 1.399 1_556 S
C566 C571 1.399 . S
C567 C566 1.399 1_554 S
C567 C568 1.376 . S
C568 H555 0.930 . S
C568 C567 1.376 . S
C568 C569 1.388 . S
C569 H556 0.930 . S
C569 C568 1.388 . S
C569 C570 1.390 . S
C570 C569 1.390 . S
C570 C571 1.394 1_554 S
C570 C576 1.465 1_554 S
C571 C566 1.399 . S
C571 C570 1.394 1_556 S
C571 C572 1.516 . S
C572 C571 1.516 . S
C572 C573 1.502 . S
C572 C574 1.561 . S
C572 C575 1.526 . S
C573 H557 0.959 . S
C573 H558 0.959 . S
C573 H559 0.961 . S
C573 C572 1.502 . S
C574 H560 0.960 . S
C574 H561 0.961 . S
C574 H562 0.959 . S
C574 C572 1.561 . S
C575 C572 1.526 . S
C575 C576 1.396 . S
C575 C580 1.390 . S
C576 C570 1.465 1_556 S
C576 C575 1.396 . S
C576 C577 1.399 1_556 S
C577 H563 0.929 . S
C577 C576 1.399 1_554 S
C577 C578 1.385 1_554 S
C578 H564 0.931 . S
C578 C577 1.385 1_556 S
C578 C579 1.389 . S
C579 C578 1.389 . S
C579 C580 1.387 . S
C580 H565 0.930 . S
C580 C575 1.390 . S
C580 C579 1.387 . S
H581 C593 0.930 . S
H582 C595 0.930 . S
H583 C596 0.930 . S
H584 C600 0.959 . S
H585 C600 0.959 . S
H586 C600 0.961 . S
H587 C601 0.960 . S
H588 C601 0.961 . S
H589 C601 0.959 . S
H590 C604 0.929 . S
H591 C605 0.931 1_556 S
H592 C607 0.930 . S
C593 H581 0.930 . S
C593 C594 1.399 1_554 S
C593 C598 1.399 . S
C594 C593 1.399 1_556 S
C594 C595 1.376 . S
C595 H582 0.930 . S
C595 C594 1.376 . S
C595 C596 1.388 . S
C596 H583 0.930 . S
C596 C595 1.388 . S
C596 C597 1.390 . S
C597 C596 1.390 . S
C597 C598 1.394 1_556 S
C597 C603 1.465 1_556 S
C598 C593 1.399 . S
C598 C597 1.394 1_554 S
C598 C599 1.516 . S
C599 C598 1.516 . S
C599 C600 1.502 . S
C599 C601 1.561 . S
C599 C602 1.526 . S
C600 H584 0.959 . S
C600 H585 0.959 . S
C600 H586 0.961 . S
C600 C599 1.502 . S
C601 H587 0.960 . S
C601 H588 0.961 . S
C601 H589 0.959 . S
C601 C599 1.561 . S
C602 C599 1.526 . S
C602 C603 1.396 . S
C602 C607 1.390 . S
C603 C597 1.465 1_554 S
C603 C602 1.396 . S
C603 C604 1.399 1_554 S
C604 H590 0.929 . S
C604 C603 1.399 1_556 S
C604 C605 1.385 1_556 S
C605 H591 0.931 1_554 S
C605 C604 1.385 1_554 S
C605 C606 1.389 . S
C606 C605 1.389 . S
C606 C607 1.387 . S
C607 H592 0.930 . S
C607 C602 1.390 . S
C607 C606 1.387 . S
H608 C620 0.930 . S
H609 C622 0.930 . S
H610 C623 0.930 . S
H611 C627 0.959 . S
H612 C627 0.959 . S
H613 C627 0.961 . S
H614 C628 0.960 . S
H615 C628 0.961 . S
H616 C628 0.959 . S
H617 C631 0.929 . S
H618 C632 0.931 . S
H619 C634 0.930 . S
C620 H608 0.930 . S
C620 C621 1.399 . S
C620 C625 1.399 . S
C621 C620 1.399 . S
C621 C622 1.376 . S
C622 H609 0.930 . S
C622 C621 1.376 . S
C622 C623 1.388 . S
C623 H610 0.930 . S
C623 C622 1.388 . S
C623 C624 1.390 . S
C624 C623 1.390 . S
C624 C625 1.394 . S
C624 C630 1.465 . S
C625 C620 1.399 . S
C625 C624 1.394 . S
C625 C626 1.516 . S
C626 C625 1.516 . S
C626 C627 1.502 . S
C626 C628 1.561 . S
C626 C629 1.526 . S
C627 H611 0.959 . S
C627 H612 0.959 . S
C627 H613 0.961 . S
C627 C626 1.502 . S
C628 H614 0.960 . S
C628 H615 0.961 . S
C628 H616 0.959 . S
C628 C626 1.561 . S
C629 C626 1.526 . S
C629 C630 1.396 . S
C629 C634 1.390 . S
C630 C624 1.465 . S
C630 C629 1.396 . S
C630 C631 1.399 . S
C631 H617 0.929 . S
C631 C630 1.399 . S
C631 C632 1.385 . S
C632 H618 0.931 . S
C632 C631 1.385 . S
C632 C633 1.389 . S
C633 C632 1.389 . S
C633 C634 1.387 . S
C634 H619 0.930 . S
C634 C629 1.390 . S
C634 C633 1.387 . S
H635 C647 0.930 . S
H636 C649 0.930 . S
H637 C650 0.930 . S
H638 C654 0.959 . S
H639 C654 0.959 . S
H640 C654 0.961 . S
H641 C655 0.960 . S
H642 C655 0.961 . S
H643 C655 0.959 . S
H644 C658 0.929 . S
H645 C659 0.931 . S
H646 C661 0.930 . S
C647 H635 0.930 . S
C647 C648 1.399 . S
C647 C652 1.399 . S
C648 C647 1.399 . S
C648 C649 1.376 . S
C649 H636 0.930 . S
C649 C648 1.376 . S
C649 C650 1.388 . S
C650 H637 0.930 . S
C650 C649 1.388 . S
C650 C651 1.390 . S
C651 C650 1.390 . S
C651 C652 1.394 . S
C651 C657 1.465 . S
C652 C647 1.399 . S
C652 C651 1.394 . S
C652 C653 1.516 . S
C653 C652 1.516 . S
C653 C654 1.502 . S
C653 C655 1.561 . S
C653 C656 1.526 . S
C654 H638 0.959 . S
C654 H639 0.959 . S
C654 H640 0.961 . S
C654 C653 1.502 . S
C655 H641 0.960 . S
C655 H642 0.961 . S
C655 H643 0.959 . S
C655 C653 1.561 . S
C656 C653 1.526 . S
C656 C657 1.396 . S
C656 C661 1.390 . S
C657 C651 1.465 . S
C657 C656 1.396 . S
C657 C658 1.399 . S
C658 H644 0.929 . S
C658 C657 1.399 . S
C658 C659 1.385 . S
C659 H645 0.931 . S
C659 C658 1.385 . S
C659 C660 1.389 . S
C660 C659 1.389 . S
C660 C661 1.387 . S
C661 H646 0.930 . S
C661 C656 1.390 . S
C661 C660 1.387 . S
H662 C674 0.930 . S
H663 C676 0.930 . S
H664 C677 0.930 . S
H665 C681 0.959 . S
H666 C681 0.959 . S
H667 C681 0.961 . S
H668 C682 0.960 . S
H669 C682 0.961 . S
H670 C682 0.959 . S
H671 C685 0.929 . S
H672 C686 0.931 . S
H673 C688 0.930 . S
C674 H662 0.930 . S
C674 C675 1.399 . S
C674 C679 1.399 . S
C675 C674 1.399 . S
C675 C676 1.376 . S
C676 H663 0.930 . S
C676 C675 1.376 . S
C676 C677 1.388 . S
C677 H664 0.930 . S
C677 C676 1.388 . S
C677 C678 1.390 . S
C678 C677 1.390 . S
C678 C679 1.394 . S
C678 C684 1.465 . S
C679 C674 1.399 . S
C679 C678 1.394 . S
C679 C680 1.516 . S
C680 C679 1.516 . S
C680 C681 1.502 . S
C680 C682 1.561 . S
C680 C683 1.526 . S
C681 H665 0.959 . S
C681 H666 0.959 . S
C681 H667 0.961 . S
C681 C680 1.502 . S
C682 H668 0.960 . S
C682 H669 0.961 . S
C682 H670 0.959 . S
C682 C680 1.561 . S
C683 C680 1.526 . S
C683 C684 1.396 . S
C683 C688 1.390 . S
C684 C678 1.465 . S
C684 C683 1.396 . S
C684 C685 1.399 . S
C685 H671 0.929 . S
C685 C684 1.399 . S
C685 C686 1.385 . S
C686 H672 0.931 . S
C686 C685 1.385 . S
C686 C687 1.389 . S
C687 C686 1.389 . S
C687 C688 1.387 . S
C688 H673 0.930 . S
C688 C683 1.390 . S
C688 C687 1.387 . S
H689 C701 0.930 . S
H690 C703 0.930 . S
H691 C704 0.930 . S
H692 C708 0.959 . S
H693 C708 0.959 . S
H694 C708 0.961 . S
H695 C709 0.960 . S
H696 C709 0.961 . S
H697 C709 0.959 . S
H698 C712 0.929 . S
H699 C713 0.931 . S
H700 C715 0.930 . S
C701 H689 0.930 . S
C701 C702 1.399 . S
C701 C706 1.399 . S
C702 C701 1.399 . S
C702 C703 1.376 . S
C703 H690 0.930 . S
C703 C702 1.376 . S
C703 C704 1.388 . S
C704 H691 0.930 . S
C704 C703 1.388 . S
C704 C705 1.390 . S
C705 C704 1.390 . S
C705 C706 1.394 . S
C705 C711 1.465 . S
C706 C701 1.399 . S
C706 C705 1.394 . S
C706 C707 1.516 . S
C707 C706 1.516 . S
C707 C708 1.502 . S
C707 C709 1.561 . S
C707 C710 1.526 . S
C708 H692 0.959 . S
C708 H693 0.959 . S
C708 H694 0.961 . S
C708 C707 1.502 . S
C709 H695 0.960 . S
C709 H696 0.961 . S
C709 H697 0.959 . S
C709 C707 1.561 . S
C710 C707 1.526 . S
C710 C711 1.396 . S
C710 C715 1.390 . S
C711 C705 1.465 . S
C711 C710 1.396 . S
C711 C712 1.399 . S
C712 H698 0.929 . S
C712 C711 1.399 . S
C712 C713 1.385 . S
C713 H699 0.931 . S
C713 C712 1.385 . S
C713 C714 1.389 . S
C714 C713 1.389 . S
C714 C715 1.387 . S
C715 H700 0.930 . S
C715 C710 1.390 . S
C715 C714 1.387 . S
H716 C728 0.930 . S
H717 C730 0.930 . S
H718 C731 0.930 . S
H719 C735 0.959 . S
H720 C735 0.959 . S
H721 C735 0.961 . S
H722 C736 0.960 1_545 S
H723 C736 0.961 . S
H724 C736 0.959 . S
H725 C739 0.929 . S
H726 C740 0.931 . S
H727 C742 0.930 . S
C728 H716 0.930 . S
C728 C729 1.399 . S
C728 C733 1.399 . S
C729 C728 1.399 . S
C729 C730 1.376 . S
C730 H717 0.930 . S
C730 C729 1.376 . S
C730 C731 1.388 . S
C731 H718 0.930 . S
C731 C730 1.388 . S
C731 C732 1.390 . S
C732 C731 1.390 . S
C732 C733 1.394 . S
C732 C738 1.465 1_545 S
C733 C728 1.399 . S
C733 C732 1.394 . S
C733 C734 1.516 . S
C734 C733 1.516 . S
C734 C735 1.502 . S
C734 C736 1.561 1_545 S
C734 C737 1.526 1_545 S
C735 H719 0.959 . S
C735 H720 0.959 . S
C735 H721 0.961 . S
C735 C734 1.502 . S
C736 H722 0.960 1_565 S
C736 H723 0.961 . S
C736 H724 0.959 . S
C736 C734 1.561 1_565 S
C737 C734 1.526 1_565 S
C737 C738 1.396 . S
C737 C742 1.390 . S
C738 C732 1.465 1_565 S
C738 C737 1.396 . S
C738 C739 1.399 . S
C739 H725 0.929 . S
C739 C738 1.399 . S
C739 C740 1.385 . S
C740 H726 0.931 . S
C740 C739 1.385 . S
C740 C741 1.389 . S
C741 C740 1.389 . S
C741 C742 1.387 . S
C742 H727 0.930 . S
C742 C737 1.390 . S
C742 C741 1.387 . S
H743 C755 0.930 . S
H744 C757 0.930 . S
H745 C758 0.930 . S
H746 C762 0.959 . S
H747 C762 0.959 1_554 S
H748 C762 0.961 1_554 S
H749 C763 0.960 1_655 S
H750 C763 0.961 . S
H751 C763 0.959 1_556 S
H752 C766 0.929 . S
H753 C767 0.931 . S
H754 C769 0.930 . S
C755 H743 0.930 . S
C755 C756 1.399 . S
C755 C760 1.399 . S
C756 C755 1.399 . S
C756 C757 1.376 . S
C757 H744 0.930 . S
C757 C756 1.376 . S
C757 C758 1.388 . S
C758 H745 0.930 . S
C758 C757 1.388 . S
C758 C759 1.390 . S
C759 C758 1.390 . S
C759 C760 1.394 . S
C759 C765 1.465 1_655 S
C760 C755 1.399 . S
C760 C759 1.394 . S
C760 C761 1.516 . S
C761 C760 1.516 . S
C761 C762 1.502 . S
C761 C763 1.561 1_656 S
C761 C764 1.526 1_655 S
C762 H746 0.959 . S
C762 H747 0.959 1_556 S
C762 H748 0.961 1_556 S
C762 C761 1.502 . S
C763 H749 0.960 1_455 S
C763 H750 0.961 . S
C763 H751 0.959 1_554 S
C763 C761 1.561 1_454 S
C764 C761 1.526 1_455 S
C764 C765 1.396 . S
C764 C769 1.390 . S
C765 C759 1.465 1_455 S
C765 C764 1.396 . S
C765 C766 1.399 . S
C766 H752 0.929 . S
C766 C765 1.399 . S
C766 C767 1.385 . S
C767 H753 0.931 . S
C767 C766 1.385 . S
C767 C768 1.389 . S
C768 C767 1.389 . S
C768 C769 1.387 . S
C769 H754 0.930 . S
C769 C764 1.390 . S
C769 C768 1.387 . S
H770 C782 0.930 . S
H771 C784 0.930 . S
H772 C785 0.930 . S
H773 C789 0.959 . S
H774 C789 0.959 . S
H775 C789 0.961 . S
H776 C790 0.960 1_565 S
H777 C790 0.961 . S
H778 C790 0.959 . S
H779 C793 0.929 . S
H780 C794 0.931 . S
H781 C796 0.930 . S
C782 H770 0.930 . S
C782 C783 1.399 . S
C782 C787 1.399 . S
C783 C782 1.399 . S
C783 C784 1.376 . S
C784 H771 0.930 . S
C784 C783 1.376 . S
C784 C785 1.388 . S
C785 H772 0.930 . S
C785 C784 1.388 . S
C785 C786 1.390 . S
C786 C785 1.390 . S
C786 C787 1.394 . S
C786 C792 1.465 1_565 S
C787 C782 1.399 . S
C787 C786 1.394 . S
C787 C788 1.516 . S
C788 C787 1.516 . S
C788 C789 1.502 . S
C788 C790 1.561 1_565 S
C788 C791 1.526 1_565 S
C789 H773 0.959 . S
C789 H774 0.959 . S
C789 H775 0.961 . S
C789 C788 1.502 . S
C790 H776 0.960 1_545 S
C790 H777 0.961 . S
C790 H778 0.959 . S
C790 C788 1.561 1_545 S
C791 C788 1.526 1_545 S
C791 C792 1.396 . S
C791 C796 1.390 . S
C792 C786 1.465 1_545 S
C792 C791 1.396 . S
C792 C793 1.399 . S
C793 H779 0.929 . S
C793 C792 1.399 . S
C793 C794 1.385 . S
C794 H780 0.931 . S
C794 C793 1.385 . S
C794 C795 1.389 . S
C795 C794 1.389 . S
C795 C796 1.387 . S
C796 H781 0.930 . S
C796 C791 1.390 . S
C796 C795 1.387 . S
H797 C809 0.930 . S
H798 C811 0.930 . S
H799 C812 0.930 . S
H800 C816 0.959 . S
H801 C816 0.959 . S
H802 C816 0.961 . S
H803 C817 0.960 1_655 S
H804 C817 0.961 . S
H805 C817 0.959 1_655 S
H806 C820 0.929 . S
H807 C821 0.931 . S
H808 C823 0.930 . S
C809 H797 0.930 . S
C809 C810 1.399 . S
C809 C814 1.399 . S
C810 C809 1.399 . S
C810 C811 1.376 . S
C811 H798 0.930 . S
C811 C810 1.376 . S
C811 C812 1.388 . S
C812 H799 0.930 . S
C812 C811 1.388 . S
C812 C813 1.390 . S
C813 C812 1.390 . S
C813 C814 1.394 . S
C813 C819 1.465 1_655 S
C814 C809 1.399 . S
C814 C813 1.394 . S
C814 C815 1.516 1_655 S
C815 C814 1.516 1_455 S
C815 C816 1.502 . S
C815 C817 1.561 . S
C815 C818 1.526 . S
C816 H800 0.959 . S
C816 H801 0.959 . S
C816 H802 0.961 . S
C816 C815 1.502 . S
C817 H803 0.960 1_455 S
C817 H804 0.961 . S
C817 H805 0.959 1_455 S
C817 C815 1.561 . S
C818 C815 1.526 . S
C818 C819 1.396 . S
C818 C823 1.390 . S
C819 C813 1.465 1_455 S
C819 C818 1.396 . S
C819 C820 1.399 . S
C820 H806 0.929 . S
C820 C819 1.399 . S
C820 C821 1.385 . S
C821 H807 0.931 . S
C821 C820 1.385 . S
C821 C822 1.389 . S
C822 C821 1.389 . S
C822 C823 1.387 . S
C823 H808 0.930 . S
C823 C818 1.390 . S
C823 C822 1.387 . S
C189 C128 1.287 . S
C201 C10 1.322 . S
C216 C30 1.331 . S
C228 C140 1.343 . S
C243 C172 1.337 . S
C255 C62 1.303 . S
C270 C76 1.387 . S
C282 C106 1.388 . S
C297 C96 1.249 . S
C309 C7 1.252 . S
C324 C29 1.253 . S
C336 C120 1.217 . S
C351 C65 1.222 . S
C363 C142 1.229 . S
C378 C164 1.254 . S
C390 C87 1.226 . S
C405 C8 1.254 . S
C417 C103 1.226 . S
C432 C131 1.216 . S
C444 C32 1.203 . S
C459 C54 1.228 . S
C471 C139 1.226 . S
C486 C84 1.228 . S
C498 C175 1.248 . S
C513 C37 1.172 . S
C525 C15 1.134 . S
C540 C43 1.180 . S
C552 C59 1.158 . S
C567 C51 1.139 . S
C579 C73 1.152 . S
C594 C81 1.126 . S
C606 C21 1.165 . S
C621 C95 1.154 . S
C633 C169 1.145 . S
C648 C109 1.180 . S
C660 C117 1.143 . S
C675 C153 1.144 . S
C687 C125 1.175 . S
C702 C161 1.176 . S
C714 C147 1.176 . S
C729 C18 1.584 . S
C741 C52 1.533 . S
C756 C74 1.597 . S
C768 C40 1.544 . S
C783 C150 1.599 . S
C795 C98 1.542 . S
C810 C162 1.523 . S
C822 C118 1.602 . S
