# Generated by pormake.
# Topology wgq, (5)-cn, num edge types: 1
# Building blocks:
#     Node 0, Type 0, BuildingBlock: BEQFEK_clean_sbu_0, # of connection points: 5
#     Node 1, Type 0, BuildingBlock: BEQFEK_clean_sbu_0, # of connection points: 5
#     Node 2, Type 0, BuildingBlock: BEQFEK_clean_sbu_0, # of connection points: 5
#     Node 3, Type 0, BuildingBlock: BEQFEK_clean_sbu_0, # of connection points: 5
#     Node 4, Type 0, BuildingBlock: BEQFEK_clean_sbu_0, # of connection points: 5
#     Node 5, Type 0, BuildingBlock: BEQFEK_clean_sbu_0, # of connection points: 5
#     Node 6, Type 0, BuildingBlock: BEQFEK_clean_sbu_0, # of connection points: 5
#     Node 7, Type 0, BuildingBlock: BEQFEK_clean_sbu_0, # of connection points: 5
#     Node 8, Type 0, BuildingBlock: BEQFEK_clean_sbu_0, # of connection points: 5
#     Node 9, Type 0, BuildingBlock: BEQFEK_clean_sbu_0, # of connection points: 5
#     Node 10, Type 0, BuildingBlock: BEQFEK_clean_sbu_0, # of connection points: 5
#     Node 11, Type 0, BuildingBlock: BEQFEK_clean_sbu_0, # of connection points: 5
#     Node 12, Type 0, BuildingBlock: BEQFEK_clean_sbu_0, # of connection points: 5
#     Node 13, Type 0, BuildingBlock: BEQFEK_clean_sbu_0, # of connection points: 5
#     Node 14, Type 0, BuildingBlock: BEQFEK_clean_sbu_0, # of connection points: 5
#     Node 15, Type 0, BuildingBlock: BEQFEK_clean_sbu_0, # of connection points: 5
#     Node 16, Type 0, BuildingBlock: BEQFEK_clean_sbu_0, # of connection points: 5
#     Node 17, Type 0, BuildingBlock: BEQFEK_clean_sbu_0, # of connection points: 5
#     Node 18, Type 0, BuildingBlock: BEQFEK_clean_sbu_0, # of connection points: 5
#     Node 19, Type 0, BuildingBlock: BEQFEK_clean_sbu_0, # of connection points: 5
#     Node 20, Type 0, BuildingBlock: BEQFEK_clean_sbu_0, # of connection points: 5
#     Node 21, Type 0, BuildingBlock: BEQFEK_clean_sbu_0, # of connection points: 5
#     Node 22, Type 0, BuildingBlock: BEQFEK_clean_sbu_0, # of connection points: 5
#     Node 23, Type 0, BuildingBlock: BEQFEK_clean_sbu_0, # of connection points: 5
#     Node 24, Type 0, BuildingBlock: BEQFEK_clean_sbu_0, # of connection points: 5
#     Node 25, Type 0, BuildingBlock: BEQFEK_clean_sbu_0, # of connection points: 5
#     Node 26, Type 0, BuildingBlock: BEQFEK_clean_sbu_0, # of connection points: 5
#     Node 27, Type 0, BuildingBlock: BEQFEK_clean_sbu_0, # of connection points: 5
#     Node 28, Type 0, BuildingBlock: BEQFEK_clean_sbu_0, # of connection points: 5
#     Node 29, Type 0, BuildingBlock: BEQFEK_clean_sbu_0, # of connection points: 5
#     Node 30, Type 0, BuildingBlock: BEQFEK_clean_sbu_0, # of connection points: 5
#     Node 31, Type 0, BuildingBlock: BEQFEK_clean_sbu_0, # of connection points: 5
#     Edge 32, Type (0, 0), BuildingBlock: OJICUG_clean_linker_0, # of connection points: 2
#     Edge 33, Type (0, 0), BuildingBlock: OJICUG_clean_linker_0, # of connection points: 2
#     Edge 34, Type (0, 0), BuildingBlock: OJICUG_clean_linker_0, # of connection points: 2
#     Edge 35, Type (0, 0), BuildingBlock: OJICUG_clean_linker_0, # of connection points: 2
#     Edge 36, Type (0, 0), BuildingBlock: OJICUG_clean_linker_0, # of connection points: 2
#     Edge 37, Type (0, 0), BuildingBlock: OJICUG_clean_linker_0, # of connection points: 2
#     Edge 38, Type (0, 0), BuildingBlock: OJICUG_clean_linker_0, # of connection points: 2
#     Edge 39, Type (0, 0), BuildingBlock: OJICUG_clean_linker_0, # of connection points: 2
#     Edge 40, Type (0, 0), BuildingBlock: OJICUG_clean_linker_0, # of connection points: 2
#     Edge 41, Type (0, 0), BuildingBlock: OJICUG_clean_linker_0, # of connection points: 2
#     Edge 42, Type (0, 0), BuildingBlock: OJICUG_clean_linker_0, # of connection points: 2
#     Edge 43, Type (0, 0), BuildingBlock: OJICUG_clean_linker_0, # of connection points: 2
#     Edge 44, Type (0, 0), BuildingBlock: OJICUG_clean_linker_0, # of connection points: 2
#     Edge 45, Type (0, 0), BuildingBlock: OJICUG_clean_linker_0, # of connection points: 2
#     Edge 46, Type (0, 0), BuildingBlock: OJICUG_clean_linker_0, # of connection points: 2
#     Edge 47, Type (0, 0), BuildingBlock: OJICUG_clean_linker_0, # of connection points: 2
#     Edge 48, Type (0, 0), BuildingBlock: OJICUG_clean_linker_0, # of connection points: 2
#     Edge 49, Type (0, 0), BuildingBlock: OJICUG_clean_linker_0, # of connection points: 2
#     Edge 50, Type (0, 0), BuildingBlock: OJICUG_clean_linker_0, # of connection points: 2
#     Edge 51, Type (0, 0), BuildingBlock: OJICUG_clean_linker_0, # of connection points: 2
#     Edge 52, Type (0, 0), BuildingBlock: OJICUG_clean_linker_0, # of connection points: 2
#     Edge 53, Type (0, 0), BuildingBlock: OJICUG_clean_linker_0, # of connection points: 2
#     Edge 54, Type (0, 0), BuildingBlock: OJICUG_clean_linker_0, # of connection points: 2
#     Edge 55, Type (0, 0), BuildingBlock: OJICUG_clean_linker_0, # of connection points: 2
#     Edge 56, Type (0, 0), BuildingBlock: OJICUG_clean_linker_0, # of connection points: 2
#     Edge 57, Type (0, 0), BuildingBlock: OJICUG_clean_linker_0, # of connection points: 2
#     Edge 58, Type (0, 0), BuildingBlock: OJICUG_clean_linker_0, # of connection points: 2
#     Edge 59, Type (0, 0), BuildingBlock: OJICUG_clean_linker_0, # of connection points: 2
#     Edge 60, Type (0, 0), BuildingBlock: OJICUG_clean_linker_0, # of connection points: 2
#     Edge 61, Type (0, 0), BuildingBlock: OJICUG_clean_linker_0, # of connection points: 2
#     Edge 62, Type (0, 0), BuildingBlock: OJICUG_clean_linker_0, # of connection points: 2
#     Edge 63, Type (0, 0), BuildingBlock: OJICUG_clean_linker_0, # of connection points: 2
#     Edge 64, Type (0, 0), BuildingBlock: OJICUG_clean_linker_0, # of connection points: 2
#     Edge 65, Type (0, 0), BuildingBlock: OJICUG_clean_linker_0, # of connection points: 2
#     Edge 66, Type (0, 0), BuildingBlock: OJICUG_clean_linker_0, # of connection points: 2
#     Edge 67, Type (0, 0), BuildingBlock: OJICUG_clean_linker_0, # of connection points: 2
#     Edge 68, Type (0, 0), BuildingBlock: OJICUG_clean_linker_0, # of connection points: 2
#     Edge 69, Type (0, 0), BuildingBlock: OJICUG_clean_linker_0, # of connection points: 2
#     Edge 70, Type (0, 0), BuildingBlock: OJICUG_clean_linker_0, # of connection points: 2
#     Edge 71, Type (0, 0), BuildingBlock: OJICUG_clean_linker_0, # of connection points: 2
#     Edge 72, Type (0, 0), BuildingBlock: OJICUG_clean_linker_0, # of connection points: 2
#     Edge 73, Type (0, 0), BuildingBlock: OJICUG_clean_linker_0, # of connection points: 2
#     Edge 74, Type (0, 0), BuildingBlock: OJICUG_clean_linker_0, # of connection points: 2
#     Edge 75, Type (0, 0), BuildingBlock: OJICUG_clean_linker_0, # of connection points: 2
#     Edge 76, Type (0, 0), BuildingBlock: OJICUG_clean_linker_0, # of connection points: 2
#     Edge 77, Type (0, 0), BuildingBlock: OJICUG_clean_linker_0, # of connection points: 2
#     Edge 78, Type (0, 0), BuildingBlock: OJICUG_clean_linker_0, # of connection points: 2
#     Edge 79, Type (0, 0), BuildingBlock: OJICUG_clean_linker_0, # of connection points: 2
#     Edge 80, Type (0, 0), BuildingBlock: OJICUG_clean_linker_0, # of connection points: 2
#     Edge 81, Type (0, 0), BuildingBlock: OJICUG_clean_linker_0, # of connection points: 2
#     Edge 82, Type (0, 0), BuildingBlock: OJICUG_clean_linker_0, # of connection points: 2
#     Edge 83, Type (0, 0), BuildingBlock: OJICUG_clean_linker_0, # of connection points: 2
#     Edge 84, Type (0, 0), BuildingBlock: OJICUG_clean_linker_0, # of connection points: 2
#     Edge 85, Type (0, 0), BuildingBlock: OJICUG_clean_linker_0, # of connection points: 2
#     Edge 86, Type (0, 0), BuildingBlock: OJICUG_clean_linker_0, # of connection points: 2
#     Edge 87, Type (0, 0), BuildingBlock: OJICUG_clean_linker_0, # of connection points: 2
#     Edge 88, Type (0, 0), BuildingBlock: OJICUG_clean_linker_0, # of connection points: 2
#     Edge 89, Type (0, 0), BuildingBlock: OJICUG_clean_linker_0, # of connection points: 2
#     Edge 90, Type (0, 0), BuildingBlock: OJICUG_clean_linker_0, # of connection points: 2
#     Edge 91, Type (0, 0), BuildingBlock: OJICUG_clean_linker_0, # of connection points: 2
#     Edge 92, Type (0, 0), BuildingBlock: OJICUG_clean_linker_0, # of connection points: 2
#     Edge 93, Type (0, 0), BuildingBlock: OJICUG_clean_linker_0, # of connection points: 2
#     Edge 94, Type (0, 0), BuildingBlock: OJICUG_clean_linker_0, # of connection points: 2
#     Edge 95, Type (0, 0), BuildingBlock: OJICUG_clean_linker_0, # of connection points: 2
#     Edge 96, Type (0, 0), BuildingBlock: OJICUG_clean_linker_0, # of connection points: 2
#     Edge 97, Type (0, 0), BuildingBlock: OJICUG_clean_linker_0, # of connection points: 2
#     Edge 98, Type (0, 0), BuildingBlock: OJICUG_clean_linker_0, # of connection points: 2
#     Edge 99, Type (0, 0), BuildingBlock: OJICUG_clean_linker_0, # of connection points: 2
#     Edge 100, Type (0, 0), BuildingBlock: OJICUG_clean_linker_0, # of connection points: 2
#     Edge 101, Type (0, 0), BuildingBlock: OJICUG_clean_linker_0, # of connection points: 2
#     Edge 102, Type (0, 0), BuildingBlock: OJICUG_clean_linker_0, # of connection points: 2
#     Edge 103, Type (0, 0), BuildingBlock: OJICUG_clean_linker_0, # of connection points: 2
#     Edge 104, Type (0, 0), BuildingBlock: OJICUG_clean_linker_0, # of connection points: 2
#     Edge 105, Type (0, 0), BuildingBlock: OJICUG_clean_linker_0, # of connection points: 2
#     Edge 106, Type (0, 0), BuildingBlock: OJICUG_clean_linker_0, # of connection points: 2
#     Edge 107, Type (0, 0), BuildingBlock: OJICUG_clean_linker_0, # of connection points: 2
#     Edge 108, Type (0, 0), BuildingBlock: OJICUG_clean_linker_0, # of connection points: 2
#     Edge 109, Type (0, 0), BuildingBlock: OJICUG_clean_linker_0, # of connection points: 2
#     Edge 110, Type (0, 0), BuildingBlock: OJICUG_clean_linker_0, # of connection points: 2
#     Edge 111, Type (0, 0), BuildingBlock: OJICUG_clean_linker_0, # of connection points: 2
# Relax obj value: 0.078
# Max RMSD: 0.130
# Mean RMSD: 0.130
data_MOF--net-wgq--node1-BEQFEK_clean_sbu_0--edge1-OJICUG_clean_linker_0
_symmetry_space_group_name_H-M    P1
_symmetry_Int_Tables_number       1
_symmetry_cell_setting            triclinic
loop_
_symmetry_equiv_pos_as_xyz
'x, y, z'
_cell_length_a     22.70318
_cell_length_b     22.726145
_cell_length_c     122.71029
_cell_angle_alpha  89.986909
_cell_angle_beta   89.966712
_cell_angle_gamma 90.001144
loop_
_atom_site_label
_atom_site_type_symbol
_atom_site_fract_x
_atom_site_fract_y
_atom_site_fract_z
_atom_type_partial_charge
Co0 Co 0.15309 0.07293 0.16926 0.0
Co1 Co 0.15461 0.08676 0.19465 0.0
C2 C 0.07025 0.00412 0.18222 0.0
O3 O 0.09449 0.01047 0.17289 0.0
O4 O 0.09091 0.02987 0.19065 0.0
C5 C 0.16539 0.04635 0.14567 0.0
O6 O 0.15606 0.9905 0.14784 0.0
C7 C 0.17019 0.04678 0.21734 0.0
C8 C 0.16038 0.13102 0.22618 0.0
C9 C 0.16855 0.07125 0.22771 0.0
N10 N 0.16332 0.0903 0.21004 0.0
N11 N 0.15795 0.14053 0.21538 0.0
C12 C 0.17378 0.98306 0.21437 0.0
H13 H 0.15823 0.97593 0.20591 0.0
H14 H 0.22032 0.96848 0.21489 0.0
H15 H 0.1474 0.95616 0.22014 0.0
C16 C 0.28268 0.0579 0.1734 0.0
N17 N 0.22676 0.06616 0.17685 0.0
N18 N 0.2273 0.07504 0.18743 0.0
C19 C 0.28343 0.07517 0.19099 0.0
C20 C 0.32102 0.06374 0.18224 0.0
C21 C 0.29824 0.04137 0.16195 0.0
H22 H 0.26291 0.01371 0.15843 0.0
H23 H 0.34036 0.0167 0.16162 0.0
H24 H 0.30231 0.08191 0.15697 0.0
O25 O 0.10891 0.14551 0.17311 0.0
O26 O 0.12063 0.1617 0.19074 0.0
H27 H 0.34673 0.10719 0.20279 0.0
H28 H 0.29555 0.05235 0.20774 0.0
C29 C 0.30056 0.09138 0.20239 0.0
H30 H 0.27121 0.1266 0.20547 0.0
H31 H 0.15126 0.18127 0.21166 0.0
O32 O 0.16641 0.08351 0.15339 0.0
C33 C 0.09899 0.17598 0.18161 0.0
Co34 Co 0.17155 0.89192 0.41748 0.0
Co35 Co 0.18199 0.89025 0.44297 0.0
C36 C 0.25346 0.80875 0.43021 0.0
O37 O 0.22952 0.82986 0.42165 0.0
O38 O 0.24448 0.83196 0.43953 0.0
C39 C 0.21558 0.92752 0.39628 0.0
O40 O 0.26151 0.94761 0.40162 0.0
C41 C 0.2114 0.88991 0.46651 0.0
C42 C 0.13751 0.94233 0.47313 0.0
C43 C 0.18857 0.91323 0.47608 0.0
N44 N 0.17522 0.90453 0.45827 0.0
N45 N 0.13082 0.9352 0.46231 0.0
C46 C 0.26857 0.85819 0.46505 0.0
H47 H 0.29263 0.87698 0.45798 0.0
H48 H 0.29649 0.8611 0.47245 0.0
H49 H 0.25945 0.81124 0.46322 0.0
C50 C 0.17521 0.02058 0.42144 0.0
N51 N 0.17926 0.96445 0.4249 0.0
N52 N 0.1895 0.96394 0.43543 0.0
C53 C 0.196 0.02008 0.43889 0.0
C54 C 0.18659 0.05832 0.43014 0.0
C55 C 0.15323 0.0375 0.41036 0.0
H56 H 0.12421 0.00257 0.40705 0.0
H57 H 0.19111 0.04337 0.40476 0.0
H58 H 0.12835 0.0795 0.41071 0.0
O59 O 0.09674 0.85532 0.42093 0.0
O60 O 0.10871 0.84692 0.43882 0.0
H61 H 0.17465 0.04499 0.45521 0.0
H62 H 0.24192 0.07674 0.45013 0.0
C63 C 0.21441 0.03639 0.45021 0.0
H64 H 0.23982 1.00005 0.45398 0.0
H65 H 0.09663 0.95254 0.45762 0.0
O66 O 0.17395 0.90283 0.40148 0.0
C67 C 0.08018 0.83554 0.43012 0.0
Co68 Co 0.35803 0.94945 0.66814 0.0
Co69 Co 0.35844 0.92528 0.69323 0.0
C70 C 0.44296 0.01144 0.68213 0.0
O71 O 0.41896 0.00773 0.67275 0.0
O72 O 0.42198 0.98355 0.69027 0.0
C73 C 0.37621 0.94102 0.64516 0.0
O74 O 0.42875 0.92289 0.64814 0.0
C75 C 0.34079 0.95704 0.71614 0.0
C76 C 0.35577 0.87192 0.72441 0.0
C77 C 0.34338 0.93068 0.72634 0.0
N78 N 0.35085 0.91563 0.70856 0.0
N79 N 0.35941 0.86479 0.71354 0.0
C80 C 0.33353 0.02101 0.71358 0.0
H81 H 0.34857 0.03065 0.70517 0.0
H82 H 0.28627 0.03291 0.7142 0.0
H83 H 0.35841 0.04823 0.71952 0.0
C84 C 0.22911 0.96326 0.67293 0.0
N85 N 0.28532 0.95407 0.67613 0.0
N86 N 0.28546 0.94097 0.68655 0.0
C87 C 0.22954 0.93866 0.69022 0.0
C88 C 0.19139 0.95329 0.68175 0.0
C89 C 0.21255 0.98381 0.66175 0.0
H90 H 0.24739 0.01294 0.65844 0.0
H91 H 0.17025 0.00822 0.66186 0.0
H92 H 0.20819 0.94511 0.6563 0.0
O93 O 0.39992 0.87211 0.66997 0.0
O94 O 0.3911 0.85298 0.68762 0.0
H95 H 0.16742 0.89867 0.70138 0.0
H96 H 0.21622 0.95273 0.70727 0.0
C97 C 0.21298 0.9163 0.70129 0.0
H98 H 0.24358 0.88084 0.70381 0.0
H99 H 0.36901 0.82543 0.70954 0.0
O100 O 0.33971 0.95694 0.65242 0.0
C101 C 0.41018 0.83952 0.67822 0.0
Co102 Co 0.32104 0.10433 0.91795 0.0
Co103 Co 0.31081 0.10766 0.94346 0.0
C104 C 0.24003 0.18913 0.93038 0.0
O105 O 0.26352 0.16762 0.9218 0.0
O106 O 0.24901 0.16612 0.93972 0.0
C107 C 0.34076 0.11886 0.89491 0.0
O108 O 0.36743 0.16764 0.89785 0.0
C109 C 0.2767 0.10869 0.96672 0.0
C110 C 0.34865 0.05605 0.97396 0.0
C111 C 0.29675 0.08496 0.97645 0.0
N112 N 0.31513 0.09437 0.95881 0.0
N113 N 0.35838 0.06357 0.96323 0.0
C114 C 0.21985 0.1402 0.96476 0.0
H115 H 0.22934 0.18667 0.96261 0.0
H116 H 0.19674 0.11986 0.95774 0.0
H117 H 0.19087 0.13899 0.97204 0.0
C118 C 0.31351 0.97687 0.92208 0.0
N119 N 0.31202 0.03294 0.92562 0.0
N120 N 0.30272 0.03359 0.93617 0.0
C121 C 0.29489 0.97755 0.93962 0.0
C122 C 0.30199 0.93927 0.93079 0.0
C123 C 0.33125 0.96 0.91074 0.0
H124 H 0.36553 0.99061 0.90769 0.0
H125 H 0.29235 0.96316 0.90531 0.0
H126 H 0.34893 0.91452 0.91045 0.0
O127 O 0.39647 0.141 0.92133 0.0
O128 O 0.38476 0.15002 0.93924 0.0
H129 H 0.3171 0.95285 0.9559 0.0
H130 H 0.24948 0.92109 0.95099 0.0
C131 C 0.27706 0.9614 0.95097 0.0
H132 H 0.25191 0.99782 0.95477 0.0
H133 H 0.39369 0.04616 0.95884 0.0
O134 O 0.31661 0.087 0.90214 0.0
C135 C 0.41322 0.16107 0.9305 0.0
Co136 Co 0.1553 0.92731 0.32824 0.0
Co137 Co 0.15488 0.94189 0.30289 0.0
C138 C 0.07285 0.01177 0.3162 0.0
O139 O 0.09406 0.98722 0.32469 0.0
O140 O 0.09574 0.00312 0.30684 0.0
C141 C 0.18793 0.96492 0.35 0.0
O142 O 0.20689 0.01319 0.34526 0.0
C143 C 0.16249 0.98301 0.28023 0.0
C144 C 0.1885 0.90123 0.27173 0.0
C145 C 0.17477 0.95988 0.26997 0.0
N146 N 0.16819 0.93978 0.28761 0.0
N147 N 0.1838 0.89108 0.28249 0.0
C148 C 0.14975 0.04557 0.28322 0.0
H149 H 0.16446 0.05451 0.29168 0.0
H150 H 0.17218 0.07634 0.27755 0.0
H151 H 0.10153 0.05322 0.28282 0.0
C152 C 0.28449 0.9319 0.32456 0.0
N153 N 0.22846 0.93626 0.32102 0.0
N154 N 0.22852 0.94714 0.31051 0.0
C155 C 0.28489 0.95334 0.30713 0.0
C156 C 0.32272 0.94349 0.31593 0.0
C157 C 0.30092 0.9096 0.33564 0.0
H158 H 0.2664 0.87949 0.33876 0.0
H159 H 0.30525 0.9472 0.34133 0.0
H160 H 0.34358 0.88578 0.33538 0.0
O161 O 0.11769 0.8543 0.32394 0.0
O162 O 0.11164 0.86755 0.30606 0.0
H163 H 0.30469 0.9313 0.2906 0.0
H164 H 0.34464 0.99432 0.29569 0.0
C165 C 0.30167 0.97114 0.2958 0.0
H166 H 0.26769 1.00069 0.29235 0.0
H167 H 0.19104 0.85082 0.28636 0.0
O168 O 0.1652 0.92435 0.34426 0.0
C169 C 0.09909 0.83848 0.31463 0.0
Co170 Co 0.33065 0.89318 0.5772 0.0
Co171 Co 0.31131 0.89238 0.55186 0.0
C172 C 0.24523 0.80937 0.56572 0.0
O173 O 0.27103 0.83069 0.57409 0.0
O174 O 0.25171 0.83256 0.55631 0.0
C175 C 0.30348 0.91766 0.60018 0.0
O176 O 0.24872 0.92681 0.59716 0.0
C177 C 0.2728 0.89171 0.5287 0.0
C178 C 0.34163 0.94812 0.52137 0.0
C179 C 0.29117 0.91669 0.51895 0.0
N180 N 0.31085 0.90786 0.53656 0.0
N181 N 0.35221 0.9409 0.53207 0.0
C182 C 0.21842 0.8562 0.53071 0.0
H183 H 0.19536 0.87316 0.53804 0.0
H184 H 0.18823 0.85738 0.52361 0.0
H185 H 0.23121 0.80993 0.53238 0.0
C186 C 0.32062 0.02166 0.57378 0.0
N187 N 0.31816 0.96579 0.57012 0.0
N188 N 0.30576 0.96585 0.55967 0.0
C189 C 0.29664 0.02212 0.55647 0.0
C190 C 0.30645 0.05979 0.56529 0.0
C191 C 0.34222 0.03813 0.5849 0.0
H192 H 0.37624 0.00647 0.58765 0.0
H193 H 0.30487 0.03681 0.59072 0.0
H194 H 0.36147 0.083 0.58493 0.0
O195 O 0.40307 0.85779 0.57225 0.0
O196 O 0.38684 0.84948 0.55451 0.0
H197 H 0.31285 0.04899 0.54005 0.0
H198 H 0.24661 0.07899 0.54588 0.0
C199 C 0.27474 0.03914 0.5454 0.0
H200 H 0.24888 0.00273 0.54177 0.0
H201 H 0.38714 0.95953 0.53639 0.0
O202 O 0.34165 0.90343 0.59309 0.0
C203 C 0.41761 0.83835 0.56294 0.0
Co204 Co 0.36771 0.0676 0.8267 0.0
Co205 Co 0.35785 0.06661 0.80119 0.0
C206 C 0.4454 0.9906 0.81334 0.0
O207 O 0.42497 0.00388 0.82272 0.0
O208 O 0.42175 0.01019 0.80464 0.0
C209 C 0.34976 0.0411 0.85002 0.0
O210 O 0.33612 0.98696 0.84725 0.0
C211 C 0.34665 0.02142 0.77889 0.0
C212 C 0.31689 0.10073 0.77004 0.0
C213 C 0.33202 0.04216 0.76857 0.0
N214 N 0.34091 0.06587 0.78602 0.0
N215 N 0.32302 0.11309 0.78069 0.0
C216 C 0.36189 0.95992 0.7822 0.0
H217 H 0.34837 0.95203 0.79078 0.0
H218 H 0.34 0.9274 0.77681 0.0
H219 H 0.4103 0.95388 0.78166 0.0
C220 C 0.23661 0.06431 0.82451 0.0
N221 N 0.29145 0.06197 0.82027 0.0
N222 N 0.28767 0.05718 0.80963 0.0
C223 C 0.23033 0.05313 0.80679 0.0
C224 C 0.19552 0.05827 0.81612 0.0
C225 C 0.22406 0.07883 0.83619 0.0
H226 H 0.25723 0.11043 0.83928 0.0
H227 H 0.22653 0.03806 0.84113 0.0
H228 H 0.1797 0.09861 0.83716 0.0
O229 O 0.40765 0.13853 0.82179 0.0
O230 O 0.39686 0.14301 0.80387 0.0
H231 H 0.20755 0.08313 0.79083 0.0
H232 H 0.16599 0.01974 0.79533 0.0
C233 C 0.2099 0.0411 0.79541 0.0
H234 H 0.2415 0.0116 0.79123 0.0
H235 H 0.31536 0.15388 0.78433 0.0
O236 O 0.36338 0.07811 0.84269 0.0
C237 C 0.41748 0.16355 0.81272 0.0
Co238 Co 0.19293 0.10878 0.07777 0.0
Co239 Co 0.18769 0.10568 0.05215 0.0
C240 C 0.2668 0.18973 0.06346 0.0
O241 O 0.25158 0.17036 0.07284 0.0
O242 O 0.24895 0.16515 0.05474 0.0
C243 C 0.18671 0.12774 0.10113 0.0
O244 O 0.16858 0.18085 0.09856 0.0
C245 C 0.21428 0.10582 0.02862 0.0
C246 C 0.13958 0.05463 0.02203 0.0
C247 C 0.19094 0.08325 0.01906 0.0
N248 N 0.17818 0.09139 0.03689 0.0
N249 N 0.13328 0.06139 0.03287 0.0
C250 C 0.27215 0.13635 0.03004 0.0
H251 H 0.29617 0.11667 0.03702 0.0
H252 H 0.29973 0.13325 0.0226 0.0
H253 H 0.26406 0.18339 0.03194 0.0
C254 C 0.19525 0.97945 0.07417 0.0
N255 N 0.1963 0.03508 0.07035 0.0
N256 N 0.19983 0.03369 0.05968 0.0
C257 C 0.20467 0.97711 0.05639 0.0
C258 C 0.20125 0.94023 0.06549 0.0
C259 C 0.18227 0.96455 0.08582 0.0
H260 H 0.15 0.99629 0.0892 0.0
H261 H 0.22352 0.96761 0.09063 0.0
H262 H 0.16375 0.91959 0.08662 0.0
O263 O 0.11692 0.14796 0.07533 0.0
O264 O 0.11582 0.14727 0.05721 0.0
H265 H 0.17389 0.95115 0.04066 0.0
H266 H 0.24305 0.91835 0.04454 0.0
C267 C 0.21639 0.95923 0.04486 0.0
H268 H 0.24038 0.99458 0.04049 0.0
H269 H 0.09906 0.04424 0.03758 0.0
O270 O 0.20134 0.09235 0.0936 0.0
C271 C 0.0937 0.16308 0.06632 0.0
Co272 Co 0.85927 0.93666 0.82893 0.0
Co273 Co 0.86772 0.93795 0.80328 0.0
C274 C 0.9451 0.01469 0.81718 0.0
O275 O 0.92076 0.99637 0.82592 0.0
O276 O 0.92593 0.9994 0.80782 0.0
C277 C 0.83262 0.97663 0.85103 0.0
O278 O 0.8312 0.03016 0.847 0.0
C279 C 0.8551 0.97934 0.78047 0.0
C280 C 0.86529 0.8957 0.77149 0.0
C281 C 0.85656 0.95551 0.77001 0.0
N282 N 0.86229 0.93544 0.78771 0.0
N283 N 0.86819 0.88562 0.78227 0.0
C284 C 0.85057 0.04279 0.78361 0.0
H285 H 0.86688 0.04967 0.79203 0.0
H286 H 0.80369 0.05647 0.78334 0.0
H287 H 0.87585 0.07065 0.77784 0.0
C288 C 0.73095 0.94789 0.82355 0.0
N289 N 0.7883 0.94517 0.82061 0.0
N290 N 0.79178 0.94279 0.80992 0.0
C291 C 0.73681 0.94159 0.80573 0.0
C292 C 0.69593 0.94521 0.81421 0.0
C293 C 0.71091 0.95703 0.83505 0.0
H294 H 0.73422 0.99549 0.83848 0.0
H295 H 0.66315 0.96599 0.83568 0.0
H296 H 0.72236 0.91783 0.84 0.0
O297 O 0.90084 0.86213 0.82557 0.0
O298 O 0.90728 0.86507 0.80753 0.0
H299 H 0.67799 0.91626 0.79263 0.0
H300 H 0.73115 0.97282 0.78933 0.0
C301 C 0.72391 0.93138 0.79392 0.0
H302 H 0.75412 0.89745 0.79064 0.0
H303 H 0.87485 0.84469 0.78592 0.0
O304 O 0.84292 0.93314 0.84482 0.0
C305 C 0.91936 0.84085 0.8166 0.0
Co306 Co 0.82051 0.08732 0.57782 0.0
Co307 Co 0.82017 0.0953 0.55228 0.0
C308 C 0.74461 0.17478 0.56631 0.0
O309 O 0.76139 0.14956 0.57506 0.0
O310 O 0.76068 0.15595 0.55696 0.0
C311 C 0.81549 0.10453 0.601 0.0
O312 O 0.80247 0.15902 0.59835 0.0
C313 C 0.77963 0.08483 0.52949 0.0
C314 C 0.86457 0.09057 0.52073 0.0
C315 C 0.80444 0.08528 0.51912 0.0
N316 N 0.82332 0.08943 0.53683 0.0
N317 N 0.87391 0.09258 0.53153 0.0
C318 C 0.71574 0.08384 0.53247 0.0
H319 H 0.70912 0.10044 0.54088 0.0
H320 H 0.69952 0.03782 0.53216 0.0
H321 H 0.68972 0.11064 0.52664 0.0
C322 C 0.80298 0.96076 0.5727 0.0
N323 N 0.80901 0.01738 0.56957 0.0
N324 N 0.81264 0.0198 0.55891 0.0
C325 C 0.81188 0.96446 0.5549 0.0
C326 C 0.80536 0.92465 0.56351 0.0
C327 C 0.79147 0.94253 0.58423 0.0
H328 H 0.76481 0.97652 0.58844 0.0
H329 H 0.7674 0.90011 0.5846 0.0
H330 H 0.83405 0.93798 0.58859 0.0
O331 O 0.89552 0.12794 0.5743 0.0
O332 O 0.8944 0.13218 0.55625 0.0
H333 H 0.83815 0.9041 0.54211 0.0
H334 H 0.78202 0.95708 0.53844 0.0
C335 C 0.82308 0.95016 0.54317 0.0
H336 H 0.85743 0.97981 0.53986 0.0
H337 H 0.91489 0.09687 0.53529 0.0
O338 O 0.82406 0.06703 0.5935 0.0
C339 C 0.91798 0.1449 0.56532 0.0
Co340 Co 0.65543 0.07492 0.32878 0.0
Co341 Co 0.65441 0.06367 0.3033 0.0
C342 C 0.57285 0.99213 0.31632 0.0
O343 O 0.59401 0.01582 0.3249 0.0
O344 O 0.59576 1.00172 0.307 0.0
C345 C 0.69075 0.03462 0.35028 0.0
O346 O 0.71385 0.98925 0.34521 0.0
C347 C 0.66127 0.02458 0.28046 0.0
C348 C 0.68626 0.10711 0.27212 0.0
C349 C 0.67287 0.04849 0.27022 0.0
N350 N 0.66701 0.06731 0.28795 0.0
N351 N 0.68201 0.11647 0.28292 0.0
C352 C 0.64915 0.9617 0.28331 0.0
H353 H 0.66427 0.95224 0.29173 0.0
H354 H 0.67161 0.93154 0.27754 0.0
H355 H 0.60098 0.95369 0.28295 0.0
C356 C 0.78468 0.07167 0.32488 0.0
N357 N 0.72852 0.06728 0.3214 0.0
N358 N 0.72827 0.05747 0.31085 0.0
C359 C 0.78455 0.05181 0.30739 0.0
C360 C 0.82267 0.06097 0.31617 0.0
C361 C 0.80147 0.09382 0.33595 0.0
H362 H 0.7662 0.12239 0.33929 0.0
H363 H 0.808 0.0561 0.34155 0.0
H364 H 0.84321 0.11919 0.33557 0.0
O365 O 0.61779 0.14867 0.32493 0.0
O366 O 0.61097 0.13751 0.307 0.0
H367 H 0.80402 0.0757 0.29094 0.0
H368 H 0.84384 0.01194 0.29574 0.0
C369 C 0.80097 0.03528 0.29598 0.0
H370 H 0.7668 0.00627 0.29244 0.0
H371 H 0.68916 0.1565 0.28686 0.0
O372 O 0.66502 0.07462 0.34484 0.0
C373 C 0.59876 0.16559 0.31571 0.0
Co374 Co 0.69499 0.90615 0.0776 0.0
Co375 Co 0.67212 0.90531 0.05241 0.0
C376 C 0.75775 0.82105 0.06371 0.0
O377 O 0.75349 0.84508 0.07309 0.0
O378 O 0.73023 0.84189 0.05551 0.0
C379 C 0.69232 0.88898 0.10092 0.0
O380 O 0.68195 0.8337 0.09843 0.0
C381 C 0.70411 0.92032 0.02941 0.0
C382 C 0.61747 0.91251 0.02133 0.0
C383 C 0.67695 0.92036 0.01925 0.0
N384 N 0.66246 0.91318 0.03707 0.0
N385 N 0.61076 0.90882 0.0322 0.0
C386 C 0.7686 0.92292 0.03189 0.0
H387 H 0.77759 0.90607 0.0402 0.0
H388 H 0.78351 0.96936 0.03154 0.0
H389 H 0.79399 0.89717 0.0258 0.0
C390 C 0.70919 0.03457 0.07273 0.0
N391 N 0.70014 0.97841 0.06954 0.0
N392 N 0.68771 0.97813 0.05909 0.0
C393 C 0.68584 0.03393 0.05538 0.0
C394 C 0.69985 0.07209 0.06389 0.0
C395 C 0.72911 0.05134 0.08394 0.0
H396 H 0.75836 0.01676 0.0873 0.0
H397 H 0.75329 0.09375 0.08386 0.0
H398 H 0.69007 0.05553 0.08932 0.0
O399 O 0.61778 0.86443 0.07563 0.0
O400 O 0.59956 0.8729 0.05793 0.0
H401 H 0.64889 0.09642 0.04393 0.0
H402 H 0.70138 0.04484 0.03832 0.0
C403 C 0.66477 0.0503 0.04422 0.0
H404 H 0.62819 0.02092 0.04175 0.0
H405 H 0.57098 0.90232 0.03629 0.0
O406 O 0.70114 0.9258 0.09331 0.0
C407 C 0.58556 0.85417 0.06733 0.0
Co408 Co 0.8586 0.07514 0.66932 0.0
Co409 Co 0.85952 0.08872 0.69478 0.0
C410 C 0.9419 0.0055 0.68235 0.0
O411 O 0.91803 0.01381 0.67305 0.0
O412 O 0.92144 0.03003 0.69092 0.0
C413 C 0.85399 0.04234 0.64616 0.0
O414 O 0.87874 0.99218 0.64887 0.0
C415 C 0.851 0.04712 0.71739 0.0
C416 C 0.84411 0.1306 0.72653 0.0
C417 C 0.84678 0.0701 0.72788 0.0
N418 N 0.85123 0.09198 0.71026 0.0
N419 N 0.84717 0.14176 0.71577 0.0
C420 C 0.85208 0.98391 0.71402 0.0
H421 H 0.83374 0.9791 0.70568 0.0
H422 H 0.82662 0.95639 0.71982 0.0
H423 H 0.89838 0.96829 0.71387 0.0
C424 C 0.72992 0.06074 0.67381 0.0
N425 N 0.786 0.06869 0.67717 0.0
N426 N 0.78615 0.07718 0.68775 0.0
C427 C 0.73017 0.07706 0.69144 0.0
C428 C 0.69211 0.06627 0.68274 0.0
C429 C 0.7137 0.04478 0.66237 0.0
H430 H 0.74859 0.01688 0.65873 0.0
H431 H 0.6713 0.0206 0.66207 0.0
H432 H 0.70984 0.08555 0.65744 0.0
O433 O 0.90186 0.14936 0.67243 0.0
O434 O 0.89555 0.16249 0.6903 0.0
H435 H 0.66671 0.10507 0.7036 0.0
H436 H 0.7222 0.05359 0.70824 0.0
C437 C 0.71366 0.09213 0.70292 0.0
H438 H 0.74115 0.1292 0.70582 0.0
H439 H 0.84674 0.1834 0.71219 0.0
O440 O 0.84223 0.0799 0.6535 0.0
C441 C 0.91419 0.17844 0.68099 0.0
Co442 Co 0.67511 0.09103 0.41846 0.0
Co443 Co 0.674 0.0989 0.444 0.0
C444 C 0.7506 0.17793 0.43042 0.0
O445 O 0.7335 0.15319 0.42165 0.0
O446 O 0.73477 0.15867 0.43974 0.0
C447 C 0.71896 0.06974 0.39655 0.0
O448 O 0.7717 0.07217 0.40093 0.0
C449 C 0.71501 0.09008 0.46658 0.0
C450 C 0.63075 0.08766 0.47562 0.0
C451 C 0.69129 0.08691 0.47701 0.0
N452 N 0.67047 0.09278 0.45942 0.0
N453 N 0.62024 0.09153 0.46486 0.0
C454 C 0.77838 0.08731 0.46328 0.0
H455 H 0.7824 0.06938 0.4549 0.0
H456 H 0.80394 0.0597 0.46905 0.0
H457 H 0.79702 0.13245 0.4633 0.0
C458 C 0.68947 0.96318 0.42371 0.0
N459 N 0.68482 0.02023 0.42668 0.0
N460 N 0.68155 0.02336 0.43736 0.0
C461 C 0.68183 0.96834 0.44151 0.0
C462 C 0.68718 0.9279 0.43302 0.0
C463 C 0.69966 0.94377 0.4122 0.0
H464 H 0.73576 0.97019 0.40864 0.0
H465 H 0.71246 0.89688 0.41164 0.0
H466 H 0.65925 0.95168 0.40734 0.0
O467 O 0.59965 0.13105 0.42181 0.0
O468 O 0.60026 0.13639 0.43985 0.0
H469 H 0.635 0.98259 0.45642 0.0
H470 H 0.65939 0.90815 0.45462 0.0
C471 C 0.67141 0.9549 0.45331 0.0
H472 H 0.71175 0.96535 0.45802 0.0
H473 H 0.57875 0.09311 0.46122 0.0
O474 O 0.6737 0.07553 0.40255 0.0
C475 C 0.57684 0.1484 0.43073 0.0
Co476 Co 0.65359 0.93887 0.16905 0.0
Co477 Co 0.65407 0.92475 0.19449 0.0
C478 C 0.57017 0.00741 0.18206 0.0
O479 O 0.59426 1.00066 0.17272 0.0
O480 O 0.59087 0.98197 0.19051 0.0
C481 C 0.66563 0.96764 0.14552 0.0
O482 O 0.65319 0.02277 0.14778 0.0
C483 C 0.66869 0.96407 0.21731 0.0
C484 C 0.65819 0.87965 0.22606 0.0
C485 C 0.66648 0.93936 0.22767 0.0
N486 N 0.66203 0.92075 0.20995 0.0
N487 N 0.65622 0.87042 0.21525 0.0
C488 C 0.67263 0.02784 0.2144 0.0
H489 H 0.65733 0.03525 0.20592 0.0
H490 H 0.71923 0.0422 0.21496 0.0
H491 H 0.64622 0.05471 0.22016 0.0
C492 C 0.78288 0.95405 0.1734 0.0
N493 N 0.72684 0.94571 0.17679 0.0
N494 N 0.72703 0.93681 0.18737 0.0
C495 C 0.78306 0.93678 0.191 0.0
C496 C 0.82094 0.94824 0.18229 0.0
C497 C 0.79879 0.97061 0.16198 0.0
H498 H 0.7636 0.99834 0.15841 0.0
H499 H 0.84095 0.99523 0.16169 0.0
H500 H 0.80295 0.93009 0.15699 0.0
O501 O 0.60996 0.86535 0.17257 0.0
O502 O 0.6199 0.85011 0.19028 0.0
H503 H 0.84599 0.9048 0.20287 0.0
H504 H 0.79471 0.95971 0.20775 0.0
C505 C 0.79983 0.92064 0.20242 0.0
H506 H 0.77036 0.88547 0.20549 0.0
H507 H 0.64955 0.82981 0.21148 0.0
O508 O 0.66825 0.93012 0.15318 0.0
C509 C 0.5995 0.83511 0.18107 0.0
Co510 Co 0.81508 0.90776 0.91861 0.0
Co511 Co 0.81191 0.90245 0.94419 0.0
C512 C 0.7363 0.82324 0.93031 0.0
O513 O 0.75426 0.84762 0.92155 0.0
O514 O 0.75158 0.84263 0.93966 0.0
C515 C 0.77944 0.93109 0.89616 0.0
O516 O 0.72515 0.933 0.89985 0.0
C517 C 0.76673 0.91404 0.96653 0.0
C518 C 0.84968 0.91844 0.97594 0.0
C519 C 0.78897 0.91913 0.97705 0.0
N520 N 0.81232 0.91049 0.95959 0.0
N521 N 0.86173 0.91287 0.96526 0.0
C522 C 0.70381 0.91572 0.96296 0.0
H523 H 0.70073 0.93231 0.95446 0.0
H524 H 0.67728 0.94394 0.96848 0.0
H525 H 0.68557 0.87043 0.96314 0.0
C526 C 0.80269 0.03646 0.92329 0.0
N527 N 0.80572 0.97962 0.92649 0.0
N528 N 0.80711 0.97747 0.9372 0.0
C529 C 0.80709 0.0329 0.94115 0.0
C530 C 0.80392 0.07259 0.93249 0.0
C531 C 0.79457 0.0549 0.91168 0.0
H532 H 0.7563 0.03122 0.90825 0.0
H533 H 0.78585 0.10255 0.9108 0.0
H534 H 0.83419 0.04267 0.90689 0.0
O535 O 0.88825 0.86595 0.92272 0.0
O536 O 0.88602 0.86338 0.94078 0.0
H537 H 0.82707 0.09425 0.9542 0.0
H538 H 0.77435 0.03708 0.95747 0.0
C539 C 0.81542 0.04736 0.95295 0.0
H540 H 0.85141 0.02007 0.95634 0.0
H541 H 0.90374 0.91101 0.96183 0.0
O542 O 0.82181 0.92171 0.90269 0.0
C543 C 0.90986 0.8494 0.93179 0.0
Co544 Co 0.66147 0.56947 0.66848 0.0
Co545 Co 0.65925 0.59217 0.69365 0.0
C546 C 0.57723 0.50514 0.68221 0.0
O547 O 0.60155 0.5097 0.67287 0.0
O548 O 0.59752 0.53282 0.69043 0.0
C549 C 0.64195 0.56722 0.6454 0.0
O550 O 0.5865 0.574 0.64821 0.0
C551 C 0.67627 0.55706 0.71639 0.0
C552 C 0.65848 0.64007 0.72517 0.0
C553 C 0.67223 0.58128 0.72675 0.0
N554 N 0.66576 0.59968 0.70906 0.0
N555 N 0.65548 0.64927 0.71435 0.0
C556 C 0.68518 0.49381 0.71343 0.0
H557 H 0.67106 0.4855 0.70491 0.0
H558 H 0.73264 0.48282 0.71408 0.0
H559 H 0.66043 0.46489 0.7191 0.0
C560 C 0.79013 0.5577 0.67346 0.0
N561 N 0.73369 0.56608 0.67659 0.0
N562 N 0.73283 0.57858 0.68703 0.0
C563 C 0.78853 0.58115 0.69081 0.0
C564 C 0.82724 0.5675 0.68236 0.0
C565 C 0.80749 0.53773 0.66229 0.0
H566 H 0.77333 0.508 0.65892 0.0
H567 H 0.85024 0.51411 0.66242 0.0
H568 H 0.81129 0.57662 0.65687 0.0
O569 O 0.61724 0.64529 0.67039 0.0
O570 O 0.62418 0.6638 0.68813 0.0
H571 H 0.84962 0.62046 0.70221 0.0
H572 H 0.80139 0.56499 0.7078 0.0
C573 C 0.80429 0.60226 0.70199 0.0
H574 H 0.77305 0.6369 0.70464 0.0
H575 H 0.64506 0.68909 0.71058 0.0
O576 O 0.68075 0.56278 0.6528 0.0
C577 C 0.60489 0.67668 0.6787 0.0
Co578 Co 0.6839 0.40355 0.91857 0.0
Co579 Co 0.67647 0.40771 0.94417 0.0
C580 C 0.75585 0.32255 0.93254 0.0
O581 O 0.74418 0.34341 0.92312 0.0
O582 O 0.73485 0.34581 0.94114 0.0
C583 C 0.67245 0.38388 0.89526 0.0
O584 O 0.64953 0.33302 0.89809 0.0
C585 C 0.71726 0.41463 0.96667 0.0
C586 C 0.63625 0.43821 0.97565 0.0
C587 C 0.69549 0.42544 0.97707 0.0
N588 N 0.6729 0.42017 0.95951 0.0
N589 N 0.62456 0.43428 0.96491 0.0
C590 C 0.77979 0.40387 0.96335 0.0
H591 H 0.78743 0.42049 0.95496 0.0
H592 H 0.81082 0.42573 0.96904 0.0
H593 H 0.78848 0.35582 0.96339 0.0
C594 C 0.68716 0.53306 0.92198 0.0
N595 N 0.68759 0.4776 0.92589 0.0
N596 N 0.68902 0.47947 0.93658 0.0
C597 C 0.69256 0.5362 0.93982 0.0
C598 C 0.691 0.57264 0.93065 0.0
C599 C 0.67665 0.54745 0.91022 0.0
H600 H 0.64377 0.51663 0.90676 0.0
H601 H 0.71847 0.54232 0.90564 0.0
H602 H 0.65993 0.59295 0.90918 0.0
O603 O 0.60879 0.36319 0.92167 0.0
O604 O 0.60222 0.36879 0.93974 0.0
H605 H 0.65666 0.55594 0.9555 0.0
H606 H 0.72153 0.59834 0.95207 0.0
C607 C 0.70034 0.55452 0.95144 0.0
H608 H 0.7283 0.52222 0.95577 0.0
H609 H 0.5836 0.44108 0.96127 0.0
O610 O 0.69083 0.41855 0.90263 0.0
C611 C 0.58271 0.35077 0.93059 0.0
Co612 Co 0.85641 0.43775 0.16836 0.0
Co613 Co 0.84768 0.43568 0.19398 0.0
C614 C 0.93532 0.51245 0.1825 0.0
O615 O 0.91628 0.49838 0.17304 0.0
O616 O 0.91029 0.49382 0.19114 0.0
C617 C 0.83792 0.46878 0.14498 0.0
O618 O 0.82557 0.52319 0.14778 0.0
C619 C 0.84545 0.46596 0.21737 0.0
C620 C 0.79086 0.39373 0.224 0.0
C621 C 0.82129 0.44403 0.22693 0.0
N622 N 0.83006 0.43006 0.20915 0.0
N623 N 0.79806 0.38663 0.2132 0.0
C624 C 0.87947 0.52178 0.21593 0.0
H625 H 0.86292 0.54573 0.20866 0.0
H626 H 0.87607 0.55053 0.22321 0.0
H627 H 0.92647 0.51086 0.21447 0.0
C628 C 0.72535 0.44272 0.17095 0.0
N629 N 0.78055 0.44354 0.17504 0.0
N630 N 0.77757 0.44778 0.18571 0.0
C631 C 0.72059 0.45333 0.1887 0.0
C632 C 0.68499 0.44922 0.17947 0.0
C633 C 0.71174 0.42979 0.15925 0.0
H634 H 0.7445 0.39847 0.15591 0.0
H635 H 0.71408 0.4712 0.15449 0.0
H636 H 0.66716 0.41044 0.15834 0.0
O637 O 0.89446 0.36417 0.17231 0.0
O638 O 0.8874 0.36102 0.19031 0.0
H639 H 0.69219 0.42562 0.2045 0.0
H640 H 0.66032 0.49405 0.20003 0.0
C641 C 0.70113 0.4672 0.20007 0.0
H642 H 0.73594 0.49193 0.20444 0.0
H643 H 0.78034 0.35257 0.20853 0.0
O644 O 0.85085 0.43135 0.15228 0.0
C645 C 0.90576 0.33962 0.18135 0.0
Co646 Co 0.806 0.59764 0.41894 0.0
Co647 Co 0.8164 0.59204 0.44435 0.0
C648 C 0.73618 0.67844 0.43352 0.0
O649 O 0.74737 0.65798 0.42404 0.0
O650 O 0.75759 0.6548 0.44206 0.0
C651 C 0.81694 0.62025 0.39606 0.0
O652 O 0.84115 0.66967 0.39935 0.0
C653 C 0.79052 0.58879 0.4677 0.0
C654 C 0.86595 0.53752 0.47403 0.0
C655 C 0.81427 0.56513 0.47711 0.0
N656 N 0.82669 0.57593 0.45939 0.0
N657 N 0.87207 0.54597 0.46323 0.0
C658 C 0.73224 0.61873 0.46642 0.0
H659 H 0.70896 0.60055 0.45922 0.0
H660 H 0.70429 0.61331 0.47377 0.0
H661 H 0.73969 0.66634 0.46496 0.0
C662 C 0.80171 0.46798 0.42202 0.0
N663 N 0.80233 0.52326 0.42601 0.0
N664 N 0.80107 0.52105 0.43669 0.0
C665 C 0.79614 0.46431 0.43986 0.0
C666 C 0.79719 0.42819 0.43066 0.0
C667 C 0.81166 0.45397 0.41024 0.0
H668 H 0.84393 0.48525 0.40671 0.0
H669 H 0.76951 0.45868 0.40575 0.0
H670 H 0.82879 0.40865 0.40913 0.0
O671 O 0.88222 0.63614 0.42154 0.0
O672 O 0.88995 0.63024 0.43955 0.0
H673 H 0.82958 0.43759 0.45537 0.0
H674 H 0.76 0.40459 0.45181 0.0
C675 C 0.78639 0.44562 0.45142 0.0
H676 H 0.76283 0.48051 0.45598 0.0
H677 H 0.9064 0.52991 0.45842 0.0
O678 O 0.79691 0.58453 0.4031 0.0
C679 C 0.90921 0.64787 0.43037 0.0
Co680 Co 0.65344 0.43087 0.82659 0.0
Co681 Co 0.66144 0.43364 0.80094 0.0
C682 C 0.57414 0.50789 0.81343 0.0
O683 O 0.59456 0.49357 0.82277 0.0
O684 O 0.59794 0.48951 0.80466 0.0
C685 C 0.67021 0.45748 0.85001 0.0
O686 O 0.68047 0.5124 0.84725 0.0
C687 C 0.67034 0.48144 0.77877 0.0
C688 C 0.70022 0.40365 0.76949 0.0
C689 C 0.68444 0.46225 0.76832 0.0
N690 N 0.67703 0.43612 0.78569 0.0
N691 N 0.69493 0.38979 0.7801 0.0
C692 C 0.65487 0.54239 0.78239 0.0
H693 H 0.66912 0.54938 0.79094 0.0
H694 H 0.67597 0.57576 0.77706 0.0
H695 H 0.60636 0.54804 0.78202 0.0
C696 C 0.78415 0.43708 0.82397 0.0
N697 N 0.72897 0.43829 0.81989 0.0
N698 N 0.73188 0.44345 0.80923 0.0
C699 C 0.78886 0.44878 0.80623 0.0
C700 C 0.82445 0.44413 0.81546 0.0
C701 C 0.79775 0.42312 0.83562 0.0
H702 H 0.76572 0.39055 0.8388 0.0
H703 H 0.7941 0.46385 0.84056 0.0
H704 H 0.84276 0.40477 0.83653 0.0
O705 O 0.61466 0.3594 0.82162 0.0
O706 O 0.62317 0.35682 0.80363 0.0
H707 H 0.81051 0.42024 0.79012 0.0
H708 H 0.85173 0.48382 0.79464 0.0
C709 C 0.80812 0.4619 0.79482 0.0
H710 H 0.7758 0.49133 0.79083 0.0
H711 H 0.70327 0.34861 0.78354 0.0
O712 O 0.659 0.41982 0.84264 0.0
C713 C 0.60409 0.3351 0.81251 0.0
Co714 Co 0.81716 0.40627 0.07681 0.0
Co715 Co 0.83456 0.40453 0.05146 0.0
C716 C 0.75099 0.32139 0.06354 0.0
O717 O 0.75751 0.34565 0.07284 0.0
O718 O 0.77664 0.34188 0.0551 0.0
C719 C 0.83021 0.39137 0.10002 0.0
O720 O 0.85055 0.3392 0.09734 0.0
C721 C 0.79433 0.42071 0.02897 0.0
C722 C 0.87632 0.40544 0.01967 0.0
C723 C 0.81678 0.41717 0.01845 0.0
N724 N 0.83864 0.41167 0.03603 0.0
N725 N 0.88759 0.40298 0.03042 0.0
C726 C 0.73139 0.42789 0.03232 0.0
H727 H 0.72504 0.41385 0.0409 0.0
H728 H 0.71897 0.47497 0.03169 0.0
H729 H 0.70212 0.40217 0.02687 0.0
C730 C 0.8025 0.53439 0.07204 0.0
N731 N 0.81078 0.47825 0.06877 0.0
N732 N 0.82133 0.47789 0.05826 0.0
C733 C 0.82264 0.53376 0.05455 0.0
C734 C 0.81039 0.57197 0.06316 0.0
C735 C 0.78424 0.55099 0.08336 0.0
H736 H 0.75488 0.5167 0.08679 0.0
H737 H 0.76064 0.59371 0.08346 0.0
H738 H 0.82398 0.55427 0.08858 0.0
O739 O 0.89374 0.36425 0.07421 0.0
O740 O 0.90829 0.37038 0.05634 0.0
H741 H 0.85863 0.59567 0.04291 0.0
H742 H 0.80263 0.54673 0.03771 0.0
C743 C 0.84112 0.55012 0.04323 0.0
H744 H 0.87564 0.51947 0.0403 0.0
H745 H 0.92844 0.39391 0.03394 0.0
O746 O 0.81241 0.42574 0.09256 0.0
C747 C 0.92394 0.35238 0.06571 0.0
Co748 Co 0.85362 0.58267 0.32774 0.0
Co749 Co 0.85386 0.56694 0.30238 0.0
C750 C 0.93698 0.49859 0.31583 0.0
O751 O 0.91575 0.52317 0.32434 0.0
O752 O 0.91397 0.50687 0.30646 0.0
C753 C 0.83005 0.55358 0.35064 0.0
O754 O 0.81874 0.49958 0.34745 0.0
C755 C 0.85155 0.52895 0.27928 0.0
C756 C 0.79701 0.59968 0.27209 0.0
C757 C 0.82622 0.548 0.26961 0.0
N758 N 0.83771 0.56775 0.28714 0.0
N759 N 0.80579 0.61024 0.28275 0.0
C760 C 0.88471 0.47308 0.28122 0.0
H761 H 0.86749 0.45116 0.28866 0.0
H762 H 0.88128 0.44271 0.27417 0.0
H763 H 0.93175 0.4837 0.28269 0.0
C764 C 0.72475 0.57259 0.32442 0.0
N765 N 0.78065 0.571 0.32073 0.0
N766 N 0.78052 0.56001 0.31022 0.0
C767 C 0.72423 0.55093 0.30701 0.0
C768 C 0.68655 0.55933 0.31588 0.0
C769 C 0.7083 0.59241 0.33566 0.0
H770 H 0.7401 0.62584 0.3386 0.0
H771 H 0.7095 0.55418 0.34127 0.0
H772 H 0.66342 0.61172 0.3358 0.0
O773 O 0.88888 0.65554 0.32306 0.0
O774 O 0.89636 0.64255 0.30522 0.0
H775 H 0.69799 0.56885 0.29062 0.0
H776 H 0.66719 0.50236 0.2962 0.0
C777 C 0.7073 0.53021 0.29586 0.0
H778 H 0.74362 0.50437 0.29218 0.0
H779 H 0.78876 0.64579 0.28712 0.0
O780 O 0.84466 0.59211 0.34366 0.0
C781 C 0.90768 0.67192 0.31381 0.0
Co782 Co 0.67971 0.59551 0.5769 0.0
Co783 Co 0.67956 0.58709 0.55144 0.0
C784 C 0.75535 0.67479 0.56355 0.0
O785 O 0.74269 0.65395 0.57295 0.0
O786 O 0.73552 0.65124 0.55487 0.0
C787 C 0.71038 0.58247 0.60005 0.0
O788 O 0.76591 0.58085 0.59704 0.0
C789 C 0.72007 0.58344 0.52876 0.0
C790 C 0.64997 0.53022 0.52104 0.0
C791 C 0.70246 0.55901 0.51897 0.0
N792 N 0.67973 0.56962 0.53634 0.0
N793 N 0.63763 0.5384 0.53166 0.0
C794 C 0.77595 0.61595 0.53109 0.0
H795 H 0.79558 0.59937 0.53878 0.0
H796 H 0.80822 0.61108 0.52436 0.0
H797 H 0.76575 0.66332 0.53222 0.0
C798 C 0.68706 0.46478 0.5745 0.0
N799 N 0.68665 0.5198 0.57034 0.0
N800 N 0.69129 0.51673 0.55969 0.0
C801 C 0.69822 0.45982 0.55676 0.0
C802 C 0.69471 0.4244 0.56603 0.0
C803 C 0.6748 0.45133 0.58623 0.0
H804 H 0.6412 0.48214 0.58944 0.0
H805 H 0.71585 0.45707 0.59101 0.0
H806 H 0.65839 0.40572 0.5873 0.0
O807 O 0.60814 0.63542 0.57217 0.0
O808 O 0.60273 0.62508 0.55425 0.0
H809 H 0.67196 0.43212 0.54084 0.0
H810 H 0.73952 0.3992 0.54555 0.0
C811 C 0.71318 0.44031 0.54544 0.0
H812 H 0.73901 0.47475 0.5412 0.0
H813 H 0.601 0.52175 0.53577 0.0
O814 O 0.67051 0.58849 0.59288 0.0
C815 C 0.58273 0.64568 0.56314 0.0
Co816 Co 0.35251 0.42508 0.32863 0.0
Co817 Co 0.35475 0.43621 0.30319 0.0
C818 C 0.43694 0.50667 0.31632 0.0
O819 O 0.41533 0.48335 0.32491 0.0
O820 O 0.41412 0.49725 0.30699 0.0
C821 C 0.31776 0.4658 0.35013 0.0
O822 O 0.30028 0.51393 0.34515 0.0
C823 C 0.35049 0.47381 0.28024 0.0
C824 C 0.32237 0.3916 0.27214 0.0
C825 C 0.33835 0.4494 0.27007 0.0
N826 N 0.3426 0.43209 0.28785 0.0
N827 N 0.32573 0.38313 0.28297 0.0
C828 C 0.36518 0.53638 0.28289 0.0
H829 H 0.3497 0.54743 0.29122 0.0
H830 H 0.34468 0.56689 0.27694 0.0
H831 H 0.4137 0.54217 0.28266 0.0
C832 C 0.22355 0.43205 0.32461 0.0
N833 N 0.27992 0.43439 0.32117 0.0
N834 N 0.28077 0.44393 0.31062 0.0
C835 C 0.22481 0.45134 0.3071 0.0
C836 C 0.18618 0.44376 0.31587 0.0
C837 C 0.20568 0.41145 0.33573 0.0
H838 H 0.23921 0.38093 0.33908 0.0
H839 H 0.20162 0.44979 0.34126 0.0
H840 H 0.1625 0.38858 0.33544 0.0
O841 O 0.38905 0.35061 0.32484 0.0
O842 O 0.39677 0.3618 0.30694 0.0
H843 H 0.20507 0.4278 0.29065 0.0
H844 H 0.16712 0.49284 0.29538 0.0
C845 C 0.20926 0.4682 0.29567 0.0
H846 H 0.24446 0.49604 0.29213 0.0
H847 H 0.31673 0.34382 0.28704 0.0
O848 O 0.34081 0.42444 0.34462 0.0
C849 C 0.40817 0.33345 0.31564 0.0
Co850 Co 0.32036 0.60222 0.07791 0.0
Co851 Co 0.32506 0.61167 0.0525 0.0
C852 C 0.24571 0.68929 0.06582 0.0
O853 O 0.26207 0.66458 0.07465 0.0
O854 O 0.26234 0.66993 0.05655 0.0
C855 C 0.29715 0.61099 0.10099 0.0
O856 O 0.27099 0.66094 0.09861 0.0
C857 C 0.28952 0.59757 0.0296 0.0
C858 C 0.37327 0.61604 0.02106 0.0
C859 C 0.31457 0.60243 0.0193 0.0
N860 N 0.33167 0.60757 0.03706 0.0
N861 N 0.38164 0.61828 0.0319 0.0
C862 C 0.22609 0.5879 0.03239 0.0
H863 H 0.21691 0.60198 0.04088 0.0
H864 H 0.21577 0.54034 0.03172 0.0
H865 H 0.1973 0.6122 0.02663 0.0
C866 C 0.30694 0.47569 0.07249 0.0
N867 N 0.31215 0.53253 0.06946 0.0
N868 N 0.31825 0.53542 0.05884 0.0
C869 C 0.3203 0.48016 0.05479 0.0
C870 C 0.31286 0.43992 0.06331 0.0
C871 C 0.29256 0.45681 0.08388 0.0
H872 H 0.26338 0.4897 0.0878 0.0
H873 H 0.26991 0.41359 0.08399 0.0
H874 H 0.33386 0.45372 0.08868 0.0
O875 O 0.39633 0.64349 0.07555 0.0
O876 O 0.39613 0.65125 0.05754 0.0
H877 H 0.36736 0.49883 0.04001 0.0
H878 H 0.35438 0.42171 0.04238 0.0
C879 C 0.33519 0.46639 0.04318 0.0
H880 H 0.29467 0.46904 0.03816 0.0
H881 H 0.42132 0.62812 0.03578 0.0
O882 O 0.31964 0.58046 0.09341 0.0
C883 C 0.41863 0.66316 0.06676 0.0
Co884 Co 0.16125 0.56633 0.82796 0.0
Co885 Co 0.15287 0.57009 0.80261 0.0
C886 C 0.07434 0.49171 0.81599 0.0
O887 O 0.09899 0.50824 0.82479 0.0
O888 O 0.09347 0.50852 0.80671 0.0
C889 C 0.14111 0.56722 0.8507 0.0
O890 O 0.0858 0.57069 0.84761 0.0
C891 C 0.16401 0.52959 0.78012 0.0
C892 C 0.16405 0.61344 0.77098 0.0
C893 C 0.16733 0.55297 0.76968 0.0
N894 N 0.15884 0.57421 0.78721 0.0
N895 N 0.15867 0.62421 0.78171 0.0
C896 C 0.16923 0.46658 0.7835 0.0
H897 H 0.18661 0.46362 0.79194 0.0
H898 H 0.19841 0.44206 0.77784 0.0
H899 H 0.12489 0.44604 0.78338 0.0
C900 C 0.288 0.55083 0.82277 0.0
N901 N 0.23126 0.55663 0.8197 0.0
N902 N 0.22867 0.56203 0.80906 0.0
C903 C 0.28403 0.56271 0.80503 0.0
C904 C 0.32398 0.55531 0.81359 0.0
C905 C 0.30652 0.5376 0.83422 0.0
H906 H 0.27337 0.50898 0.83821 0.0
H907 H 0.34973 0.51488 0.83445 0.0
H908 H 0.30956 0.57934 0.83888 0.0
O909 O 0.12139 0.64278 0.82523 0.0
O910 O 0.11534 0.64315 0.80718 0.0
H911 H 0.34422 0.59155 0.79239 0.0
H912 H 0.29117 0.53617 0.78837 0.0
C913 C 0.29816 0.57622 0.79338 0.0
H914 H 0.26842 0.61116 0.79034 0.0
H915 H 0.15531 0.6657 0.7853 0.0
O916 O 0.18113 0.56408 0.84352 0.0
C917 C 0.10366 0.6661 0.81637 0.0
Co918 Co 0.1732 0.39308 0.57821 0.0
Co919 Co 0.18628 0.39197 0.55272 0.0
C920 C 0.25605 0.30955 0.56594 0.0
O921 O 0.23198 0.33054 0.57452 0.0
O922 O 0.24752 0.33301 0.55661 0.0
C923 C 0.20586 0.41764 0.60099 0.0
O924 O 0.26002 0.42714 0.59764 0.0
C925 C 0.21901 0.39074 0.52924 0.0
C926 C 0.14797 0.44607 0.5224 0.0
C927 C 0.19819 0.41511 0.51961 0.0
N928 N 0.18256 0.40672 0.53738 0.0
N929 N 0.13985 0.43911 0.53318 0.0
C930 C 0.27438 0.35622 0.53087 0.0
H931 H 0.29903 0.37425 0.53793 0.0
H932 H 0.30273 0.35715 0.5235 0.0
H933 H 0.26276 0.30995 0.53281 0.0
C934 C 0.18195 0.52173 0.57455 0.0
N935 N 0.18351 0.46573 0.57094 0.0
N936 N 0.19339 0.46553 0.56039 0.0
C937 C 0.20164 0.52168 0.55705 0.0
C938 C 0.19397 0.55964 0.5659 0.0
C939 C 0.16349 0.53846 0.58585 0.0
H940 H 0.13036 0.50681 0.58896 0.0
H941 H 0.20243 0.5373 0.5913 0.0
H942 H 0.14423 0.58332 0.58603 0.0
O943 O 0.09943 0.35708 0.57413 0.0
O944 O 0.11216 0.34856 0.55629 0.0
H945 H 0.18144 0.54775 0.54074 0.0
H946 H 0.24897 0.57816 0.54596 0.0
C947 C 0.22082 0.53825 0.54579 0.0
H948 H 0.24585 0.50171 0.54199 0.0
H949 H 0.10576 0.4576 0.53775 0.0
O950 O 0.16646 0.4035 0.59414 0.0
C951 C 0.08328 0.33721 0.56495 0.0
Co952 Co 0.34772 0.57412 0.16862 0.0
Co953 Co 0.35749 0.57035 0.19406 0.0
C954 C 0.43477 0.49541 0.1797 0.0
O955 O 0.4099 0.51473 0.1711 0.0
O956 O 0.41589 0.50927 0.18918 0.0
C957 C 0.34141 0.5455 0.14563 0.0
O958 O 0.37189 0.49814 0.14805 0.0
C959 C 0.34608 0.53051 0.21695 0.0
C960 C 0.36155 0.61431 0.22564 0.0
C961 C 0.35078 0.55503 0.2273 0.0
N962 N 0.35366 0.57357 0.20956 0.0
N963 N 0.36254 0.62351 0.21483 0.0
C964 C 0.33857 0.46703 0.21406 0.0
H965 H 0.3529 0.45886 0.20555 0.0
H966 H 0.29133 0.45511 0.21474 0.0
H967 H 0.36391 0.4388 0.21976 0.0
C968 C 0.22132 0.558 0.17389 0.0
N969 N 0.27814 0.56276 0.17696 0.0
N970 N 0.28105 0.56524 0.18764 0.0
C971 C 0.22573 0.5651 0.19171 0.0
C972 C 0.1855 0.56025 0.18312 0.0
C973 C 0.20267 0.54729 0.16235 0.0
H974 H 0.23586 0.51966 0.15815 0.0
H975 H 0.15956 0.52447 0.16196 0.0
H976 H 0.19949 0.59 0.15801 0.0
O977 O 0.38861 0.64866 0.17197 0.0
O978 O 0.3967 0.6433 0.18992 0.0
H979 H 0.16671 0.59259 0.2046 0.0
H980 H 0.21603 0.53284 0.20797 0.0
C981 C 0.21192 0.57506 0.2035 0.0
H982 H 0.24358 0.60681 0.20704 0.0
H983 H 0.37022 0.66388 0.21104 0.0
O984 O 0.32712 0.58115 0.15312 0.0
C985 C 0.40802 0.6687 0.18095 0.0
Co986 Co 0.16823 0.60509 0.91884 0.0
Co987 Co 0.18193 0.6066 0.94414 0.0
C988 C 0.25053 0.68961 0.93063 0.0
O989 O 0.22687 0.6679 0.92209 0.0
O990 O 0.24183 0.66672 0.93999 0.0
C991 C 0.20221 0.58754 0.89618 0.0
O992 O 0.25723 0.58844 0.89949 0.0
C993 C 0.22516 0.60124 0.96671 0.0
C994 C 0.14502 0.5727 0.97548 0.0
C995 C 0.2034 0.58836 0.97705 0.0
N996 N 0.18141 0.594 0.95947 0.0
N997 N 0.1337 0.57689 0.96476 0.0
C998 C 0.28709 0.61589 0.96353 0.0
H999 H 0.29606 0.60053 0.95511 0.0
H1000 H 0.31903 0.59532 0.96922 0.0
H1001 H 0.29297 0.66435 0.96373 0.0
C1002 C 0.17845 0.47697 0.9224 0.0
N1003 N 0.17976 0.5328 0.92606 0.0
N1004 N 0.18892 0.53281 0.93662 0.0
C1005 C 0.19643 0.47658 0.93997 0.0
C1006 C 0.18965 0.43886 0.93105 0.0
C1007 C 0.16073 0.46068 0.91103 0.0
H1008 H 0.12589 0.49095 0.9081 0.0
H1009 H 0.19942 0.46487 0.90556 0.0
H1010 H 0.14372 0.41497 0.91063 0.0
O1011 O 0.09442 0.64037 0.92306 0.0
O1012 O 0.10651 0.64823 0.94091 0.0
H1013 H 0.17205 0.45684 0.95638 0.0
H1014 H 0.23598 0.41705 0.95161 0.0
C1015 C 0.21266 0.45991 0.95137 0.0
H1016 H 0.24157 0.49402 0.95497 0.0
H1017 H 0.09333 0.56818 0.96103 0.0
O1018 O 0.16096 0.59365 0.90306 0.0
C1019 C 0.07754 0.6593 0.93226 0.0
Co1020 Co 0.16054 0.44998 0.66922 0.0
Co1021 Co 0.16048 0.43139 0.69447 0.0
C1022 C 0.07658 0.51578 0.68281 0.0
O1023 O 0.10074 0.50981 0.67348 0.0
O1024 O 0.09709 0.48947 0.69117 0.0
C1025 C 0.14033 0.43909 0.64638 0.0
O1026 O 0.08779 0.42221 0.64961 0.0
C1027 C 0.17494 0.4663 0.71734 0.0
C1028 C 0.16911 0.38032 0.7257 0.0
C1029 C 0.17522 0.44013 0.72759 0.0
N1030 N 0.16915 0.4238 0.70982 0.0
N1031 N 0.16607 0.37251 0.71486 0.0
C1032 C 0.17597 0.53052 0.71465 0.0
H1033 H 0.16001 0.53828 0.70624 0.0
H1034 H 0.22195 0.54681 0.71516 0.0
H1035 H 0.14864 0.55565 0.72054 0.0
C1036 C 0.2895 0.46321 0.67368 0.0
N1037 N 0.23336 0.45542 0.67704 0.0
N1038 N 0.23339 0.4449 0.68755 0.0
C1039 C 0.28941 0.4431 0.69117 0.0
C1040 C 0.3274 0.45509 0.68251 0.0
C1041 C 0.30582 0.48093 0.66232 0.0
H1042 H 0.27147 0.51021 0.65888 0.0
H1043 H 0.3487 0.5043 0.66214 0.0
H1044 H 0.3088 0.44101 0.65714 0.0
O1045 O 0.11796 0.37373 0.6717 0.0
O1046 O 0.12663 0.35837 0.68948 0.0
H1047 H 0.35227 0.40861 0.70283 0.0
H1048 H 0.30019 0.46167 0.70813 0.0
C1049 C 0.30601 0.42414 0.70245 0.0
H1050 H 0.27685 0.38785 0.70514 0.0
H1051 H 0.16067 0.33224 0.7109 0.0
O1052 O 0.17793 0.4548 0.65345 0.0
C1053 C 0.10724 0.34321 0.6802 0.0
Co1054 Co 0.31566 0.39232 0.41763 0.0
Co1055 Co 0.30376 0.3904 0.44313 0.0
C1056 C 0.2333 0.3087 0.43018 0.0
O1057 O 0.25752 0.33003 0.42165 0.0
O1058 O 0.24174 0.33181 0.43953 0.0
C1059 C 0.27587 0.42869 0.39606 0.0
O1060 O 0.22898 0.44977 0.40098 0.0
C1061 C 0.27369 0.38969 0.46672 0.0
C1062 C 0.34682 0.44311 0.47332 0.0
C1063 C 0.29611 0.4134 0.47629 0.0
N1064 N 0.30973 0.40474 0.45846 0.0
N1065 N 0.35368 0.43601 0.46251 0.0
C1066 C 0.21709 0.35696 0.46526 0.0
H1067 H 0.1928 0.37518 0.45818 0.0
H1068 H 0.18908 0.35953 0.47266 0.0
H1069 H 0.22705 0.31014 0.46347 0.0
C1070 C 0.31214 0.52083 0.42163 0.0
N1071 N 0.30753 0.46469 0.42507 0.0
N1072 N 0.29652 0.46411 0.43557 0.0
C1073 C 0.28993 0.52024 0.43903 0.0
C1074 C 0.30017 0.55851 0.43031 0.0
C1075 C 0.33554 0.5378 0.41065 0.0
H1076 H 0.36477 0.50277 0.40744 0.0
H1077 H 0.29841 0.54403 0.40491 0.0
H1078 H 0.36063 0.57964 0.41113 0.0
O1079 O 0.39011 0.35598 0.42122 0.0
O1080 O 0.37745 0.34733 0.43909 0.0
H1081 H 0.31014 0.54543 0.45539 0.0
H1082 H 0.24306 0.57679 0.45016 0.0
C1083 C 0.27074 0.53655 0.4503 0.0
H1084 H 0.24527 0.50013 0.45404 0.0
H1085 H 0.38771 0.45373 0.45782 0.0
O1086 O 0.31563 0.40333 0.40162 0.0
C1087 C 0.40635 0.33616 0.43041 0.0
C1088 C 0.21095 0.96937 0.25082 0.0
C1089 C 0.17337 0.98894 0.25918 0.0
H1090 H 0.23969 0.98062 0.23432 0.0
C1091 C 0.13322 0.03435 0.25696 0.0
H1092 H 0.24221 0.93423 0.25227 0.0
C1093 C 0.132 0.06091 0.24672 0.0
C1094 C 0.16979 0.04161 0.2384 0.0
H1095 H 0.10175 0.04873 0.26301 0.0
H1096 H 0.10068 0.096 0.24524 0.0
C1097 C 0.20924 0.99554 0.24051 0.0
C1098 C 0.22855 0.86022 0.49237 0.0
C1099 C 0.21459 0.91319 0.48707 0.0
H1100 H 0.26272 0.81982 0.5069 0.0
C1101 C 0.22429 0.9668 0.49243 0.0
H1102 H 0.22089 0.81841 0.48837 0.0
C1103 C 0.24904 0.96763 0.50284 0.0
C1104 C 0.26266 0.91481 0.50818 0.0
H1105 H 0.21369 0.00811 0.48848 0.0
H1106 H 0.25726 0.00958 0.50675 0.0
C1107 C 0.2519 0.86101 0.50293 0.0
C1108 C 0.37785 0.94091 0.74551 0.0
C1109 C 0.33933 0.95849 0.73718 0.0
H1110 H 0.40774 0.955 0.76177 0.0
C1111 C 0.2973 1.0022 0.73934 0.0
H1112 H 0.411 0.90757 0.74402 0.0
C1113 C 0.29451 0.02854 0.74961 0.0
C1114 C 0.33346 0.01144 0.75794 0.0
H1115 H 0.26606 0.01555 0.73316 0.0
H1116 H 0.26168 0.06226 0.75105 0.0
C1117 C 0.37544 0.9676 0.75574 0.0
C1118 C 0.25437 0.03164 0.99231 0.0
C1119 C 0.26779 0.08514 0.98718 0.0
H1120 H 0.21798 0.98945 0.00644 0.0
C1121 C 0.25531 0.1383 0.99252 0.0
H1122 H 0.26378 0.99019 0.98831 0.0
C1123 C 0.23061 0.13785 0.00297 0.0
C1124 C 0.21692 0.08426 0.00807 0.0
H1125 H 0.26576 0.17999 0.98869 0.0
H1126 H 0.22188 0.17922 0.00705 0.0
C1127 C 0.22823 0.03122 0.00262 0.0
C1128 C 0.88525 0.96237 0.7504 0.0
C1129 C 0.85332 0.98524 0.75926 0.0
H1130 H 0.90973 0.97179 0.73368 0.0
C1131 C 0.81779 0.03503 0.7576 0.0
H1132 H 0.91323 0.92415 0.75141 0.0
C1133 C 0.81533 0.06204 0.74736 0.0
C1134 C 0.84754 0.0393 0.73853 0.0
H1135 H 0.791 0.05267 0.76411 0.0
H1136 H 0.78774 0.10054 0.74633 0.0
C1137 C 0.88272 0.9893 0.74017 0.0
C1138 C 0.77331 0.11711 0.48946 0.0
C1139 C 0.72169 0.08466 0.48763 0.0
H1140 H 0.83951 0.14282 0.50089 0.0
C1141 C 0.69714 0.05219 0.49626 0.0
H1142 H 0.79225 0.14412 0.4831 0.0
C1143 C 0.72395 0.05183 0.5065 0.0
C1144 C 0.77529 0.08474 0.50835 0.0
H1145 H 0.65739 0.02664 0.49505 0.0
H1146 H 0.7049 0.025 0.51287 0.0
C1147 C 0.80003 0.11684 0.49969 0.0
C1148 C 0.63163 0.97436 0.25707 0.0
C1149 C 0.67131 0.02013 0.25935 0.0
H1150 H 0.59942 0.91303 0.24526 0.0
C1151 C 0.7083 0.04064 0.25096 0.0
H1152 H 0.60059 0.95918 0.26313 0.0
C1153 C 0.70656 0.01506 0.2406 0.0
C1154 C 0.66761 0.96861 0.23842 0.0
H1155 H 0.7392 0.07607 0.25245 0.0
H1156 H 0.73667 0.03071 0.23441 0.0
C1157 C 0.63035 0.94841 0.24676 0.0
C1158 C 0.78086 0.95689 0.99604 0.0
C1159 C 0.75733 0.92285 0.98754 0.0
H1160 H 0.77276 0.98494 0.01258 0.0
C1161 C 0.70623 0.88966 0.98945 0.0
H1162 H 0.82005 0.98322 0.99476 0.0
C1163 C 0.6797 0.88989 -0.00028 0.0
C1164 C 0.70411 0.92277 0.0083 0.0
H1165 H 0.68794 0.86174 0.98317 0.0
H1166 H 0.64105 0.86284 0.00103 0.0
C1167 C 0.75421 0.95729 0.00629 0.0
C1168 C 0.63738 0.56686 0.74584 0.0
C1169 C 0.67633 0.55142 0.73742 0.0
H1170 H 0.60749 0.54941 0.76202 0.0
C1171 C 0.71889 0.50786 0.73934 0.0
H1172 H 0.60383 0.60003 0.74455 0.0
C1173 C 0.72179 0.4796 0.74944 0.0
C1174 C 0.6825 0.49464 0.75785 0.0
H1175 H 0.75052 0.49614 0.73311 0.0
H1176 H 0.75506 0.4461 0.75069 0.0
C1177 C 0.63998 0.5383 0.75591 0.0
C1178 C 0.77217 0.38271 0.9895 0.0
C1179 C 0.72683 0.42355 0.98764 0.0
H1180 H 0.83615 0.34914 0.00069 0.0
C1181 C 0.71022 0.46168 0.99612 0.0
H1182 H 0.78447 0.35103 0.98333 0.0
C1183 C 0.73921 0.45983 0.00617 0.0
C1184 C 0.78501 0.41945 0.00795 0.0
H1185 H 0.67533 0.49355 0.99493 0.0
H1186 H 0.72655 0.49085 0.01243 0.0
C1187 C 0.80137 0.38116 -0.0005 0.0
C1188 C 0.87858 0.50604 0.25348 0.0
C1189 C 0.82574 0.51894 0.25891 0.0
H1190 H 0.91846 0.47294 0.23882 0.0
C1191 C 0.7718 0.50669 0.25383 0.0
H1192 H 0.9206 0.5157 0.25725 0.0
C1193 C 0.77058 0.48134 0.24348 0.0
C1194 C 0.82328 0.46971 0.23792 0.0
H1195 H 0.73059 0.51651 0.25791 0.0
H1196 H 0.72847 0.47197 0.23971 0.0
C1197 C 0.87734 0.48211 0.24297 0.0
C1198 C 0.74756 0.61499 0.50366 0.0
C1199 C 0.73304 0.56086 0.50845 0.0
H1200 H 0.78434 0.65859 0.4897 0.0
C1201 C 0.74637 0.50829 0.503 0.0
H1202 H 0.73712 0.65596 0.50774 0.0
C1203 C 0.77443 0.50977 0.49289 0.0
C1204 C 0.78775 0.56387 0.48799 0.0
H1205 H 0.73537 0.46616 0.50661 0.0
H1206 H 0.78442 0.46879 0.48877 0.0
C1207 C 0.77424 0.6165 0.49341 0.0
C1208 C 0.30389 0.45731 0.25077 0.0
C1209 C 0.34174 0.47657 0.25912 0.0
H1210 H 0.27622 0.46756 0.2342 0.0
C1211 C 0.38387 0.51993 0.25674 0.0
H1212 H 0.27111 0.42373 0.25235 0.0
C1213 C 0.38672 0.54494 0.24636 0.0
C1214 C 0.3485 0.52615 0.23807 0.0
H1215 H 0.4155 0.53396 0.26278 0.0
H1216 H 0.41944 0.5786 0.24478 0.0
C1217 C 0.30713 0.48197 0.24035 0.0
C1218 C 0.30311 0.63685 0.00014 0.0
C1219 C 0.286 0.59836 0.00852 0.0
H1220 H 0.28907 0.66569 0.9838 0.0
C1221 C 0.24269 0.55584 0.0064 0.0
H1222 H 0.33617 0.67033 0.00159 0.0
C1223 C 0.21647 0.5524 0.99612 0.0
C1224 C 0.23337 0.59107 0.98774 0.0
H1225 H 0.22977 0.52451 0.0126 0.0
H1226 H 0.18321 0.51908 0.99471 0.0
C1227 C 0.27662 0.63368 0.98989 0.0
C1228 C 0.1429 0.44297 0.747 0.0
C1229 C 0.1755 0.46823 0.73846 0.0
H1230 H 0.11344 0.45056 0.76348 0.0
C1231 C 0.20766 0.51988 0.74045 0.0
H1232 H 0.11754 0.4032 0.74571 0.0
C1233 C 0.20546 0.54689 0.75066 0.0
C1234 C 0.17204 0.52213 0.75913 0.0
H1235 H 0.235 0.53929 0.7342 0.0
H1236 H 0.23016 0.58708 0.75196 0.0
C1237 C 0.14093 0.46981 0.75722 0.0
C1238 C 0.23533 0.36008 0.5033 0.0
C1239 C 0.22473 0.41367 0.50865 0.0
H1240 H 0.26522 0.31803 0.4886 0.0
C1241 C 0.23706 0.46671 0.50326 0.0
H1242 H 0.22554 0.31872 0.5073 0.0
C1243 C 0.2606 0.4663 0.49275 0.0
C1244 C 0.27036 0.41289 0.48731 0.0
H1245 H 0.22899 0.50851 0.50724 0.0
H1246 H 0.27045 0.50779 0.48879 0.0
C1247 C 0.25744 0.3597 0.49263 0.0
C1248 C 0.03079 0.24468 0.1912 0.0
C1249 C 0.05192 0.2207 0.18138 0.0
H1250 H 0.9666 0.29905 0.19896 0.0
C1251 C 0.02207 0.23333 0.17164 0.0
H1252 H 0.05212 0.23514 0.19889 0.0
C1253 C 0.97238 0.26941 0.17171 0.0
C1254 C 0.9514 0.29351 0.18152 0.0
H1255 H 0.03661 0.21482 0.16396 0.0
H1256 H 0.951 0.27922 0.16403 0.0
C1257 C 0.98092 0.28039 0.19128 0.0
C1258 C 0.02063 0.75987 0.44006 0.0
C1259 C 0.03388 0.78982 0.43034 0.0
H1260 H 0.97241 0.69028 0.44765 0.0
C1261 C 0.00822 0.77036 0.42055 0.0
H1262 H 0.0403 0.77309 0.44772 0.0
C1263 C 0.97024 0.72215 0.42048 0.0
C1264 C 0.95663 0.69242 0.4302 0.0
H1265 H 0.01802 0.79183 0.41288 0.0
H1266 H 0.95058 0.70909 0.41281 0.0
C1267 C 0.98245 0.7117 0.43999 0.0
C1268 C 0.47366 0.76579 0.68735 0.0
C1269 C 0.45546 0.79274 0.67761 0.0
H1270 H 0.53572 0.71115 0.69535 0.0
C1271 C 0.48729 0.78124 0.66798 0.0
H1272 H 0.4506 0.77333 0.69495 0.0
C1273 C 0.53692 0.74427 0.6682 0.0
C1274 C 0.55618 0.71971 0.6781 0.0
H1275 H 0.47473 0.80175 0.66036 0.0
H1276 H 0.56048 0.73547 0.6607 0.0
C1277 C 0.52353 0.73067 0.68761 0.0
C1278 C 0.48407 0.22745 0.92084 0.0
C1279 C 0.4595 0.207 0.93066 0.0
H1280 H 0.54035 0.28992 0.91305 0.0
C1281 C 0.47364 0.23632 0.94041 0.0
H1282 H 0.47358 0.20655 0.91315 0.0
C1283 C 0.51143 0.28487 0.94033 0.0
C1284 C 0.53599 0.30528 0.9305 0.0
H1285 H 0.45489 0.22235 0.9481 0.0
H1286 H 0.52207 0.30579 0.94801 0.0
C1287 C 0.52166 0.27604 0.92076 0.0
C1288 C 0.02354 0.77708 0.32381 0.0
C1289 C 0.05243 0.79328 0.31415 0.0
H1290 H 0.95395 0.72913 0.33121 0.0
C1291 C 0.03088 0.77202 0.30414 0.0
H1292 H 0.03797 0.79349 0.33165 0.0
C1293 C 0.98196 0.73443 0.30388 0.0
C1294 C 0.95327 0.71836 0.3136 0.0
H1295 H 0.05168 0.78453 0.29654 0.0
H1296 H 0.96724 0.71733 0.2961 0.0
C1297 C 0.9744 0.74077 0.32353 0.0
C1298 C 0.51201 0.71137 0.55306 0.0
C1299 C 0.53724 0.69218 0.56291 0.0
H1300 H 0.45511 0.77378 0.54524 0.0
C1301 C 0.52518 0.72366 0.57251 0.0
H1302 H 0.5212 0.68864 0.54549 0.0
C1303 C 0.4894 0.77318 0.5723 0.0
C1304 C 0.46343 0.79219 0.56252 0.0
H1305 H 0.54439 0.71092 0.58024 0.0
H1306 H 0.48107 0.79569 0.57993 0.0
C1307 C 0.47513 0.7608 0.55288 0.0
C1308 C 0.48829 0.22908 0.82224 0.0
C1309 C 0.4625 0.21037 0.81243 0.0
H1310 H 0.55456 0.28052 0.82993 0.0
C1311 C 0.48586 0.23075 0.80251 0.0
H1312 H 0.47199 0.21384 0.83005 0.0
C1313 C 0.53402 0.26919 0.80244 0.0
C1314 C 0.55966 0.28772 0.81229 0.0
H1315 H 0.46758 0.21639 0.79481 0.0
H1316 H 0.55036 0.28521 0.79469 0.0
C1317 C 0.53638 0.26684 0.82217 0.0
C1318 C 0.02286 0.22997 0.07609 0.0
C1319 C 0.04755 0.2091 0.0663 0.0
H1320 H 0.96521 0.29255 0.08367 0.0
C1321 C 0.03371 0.23809 0.05652 0.0
H1322 H 0.03333 0.20919 0.0838 0.0
C1323 C 0.99638 0.28667 0.0565 0.0
C1324 C 0.97093 0.30725 0.06623 0.0
H1325 H 0.05262 0.22409 0.04884 0.0
H1326 H 0.98652 0.30723 0.04875 0.0
C1327 C 0.98466 0.2784 0.07605 0.0
C1328 C 0.03735 0.73661 0.80685 0.0
C1329 C 0.05982 0.71417 0.81668 0.0
H1330 H 0.97436 0.79197 0.7991 0.0
C1331 C 0.03413 0.73222 0.82656 0.0
H1332 H 0.05559 0.72335 0.79907 0.0
C1333 C 0.98677 0.77165 0.82657 0.0
C1334 C 0.96413 0.79361 0.81671 0.0
H1335 H 0.0498 0.71508 0.83427 0.0
H1336 H 0.96841 0.78538 0.83431 0.0
C1337 C 0.99002 0.77549 0.80686 0.0
C1338 C 0.97655 0.22176 0.57496 0.0
C1339 C 0.96431 0.19048 0.56536 0.0
H1340 H 0.02144 0.29403 0.58227 0.0
C1341 C 0.98957 0.20958 0.5555 0.0
H1342 H 0.95694 0.20902 0.58265 0.0
C1343 C 0.02604 0.25903 0.55523 0.0
C1344 C 0.03796 0.29053 0.56483 0.0
H1345 H 0.98045 0.18686 0.54792 0.0
H1346 H 0.04555 0.27195 0.54754 0.0
C1347 C 0.01267 0.27133 0.57468 0.0
C1348 C 0.47914 0.26832 0.30556 0.0
C1349 C 0.45389 0.28714 0.31543 0.0
H1350 H 0.54572 0.21591 0.29785 0.0
C1351 C 0.47843 0.26746 0.32529 0.0
H1352 H 0.46176 0.2833 0.29782 0.0
C1353 C 0.5273 0.23055 0.32531 0.0
C1354 C 0.55255 0.2114 0.31547 0.0
H1355 H 0.46081 0.2816 0.33307 0.0
H1356 H 0.54446 0.2161 0.3331 0.0
C1357 C 0.52782 0.23051 0.30558 0.0
C1358 C 0.5292 0.77516 0.0773 0.0
C1359 C 0.53822 0.80959 0.0679 0.0
H1360 H 0.48483 0.70069 0.08432 0.0
C1361 C 0.50815 0.79465 0.05829 0.0
H1362 H 0.55227 0.78506 0.0848 0.0
C1363 C 0.47189 0.74558 0.05791 0.0
C1364 C 0.46321 0.71049 0.0672 0.0
H1365 H 0.51391 0.81985 0.05087 0.0
H1366 H 0.44983 0.73591 0.05029 0.0
C1367 C 0.49155 0.72622 0.07697 0.0
C1368 C 0.98211 0.2455 0.67053 0.0
C1369 C 0.96119 0.22333 0.68052 0.0
H1370 H 0.04564 0.30049 0.6625 0.0
C1371 C 0.99117 0.23801 0.69014 0.0
H1372 H 0.96048 0.23414 0.66296 0.0
C1373 C 0.04078 0.27369 0.68984 0.0
C1374 C 0.06129 0.29709 0.67993 0.0
H1375 H 0.97728 0.22081 0.69797 0.0
H1376 H 0.06207 0.28411 0.6975 0.0
C1377 C 0.03147 0.28256 0.67025 0.0
C1378 C 0.47756 0.27022 0.42083 0.0
C1379 C 0.4526 0.29046 0.43064 0.0
H1380 H 0.53462 0.20822 0.4131 0.0
C1381 C 0.4664 0.26122 0.44039 0.0
H1382 H 0.46731 0.29117 0.41313 0.0
C1383 C 0.50444 0.21299 0.44034 0.0
C1384 C 0.52949 0.19289 0.43053 0.0
H1385 H 0.44729 0.27504 0.44806 0.0
H1386 H 0.51491 0.19204 0.44803 0.0
C1387 C 0.51535 0.22186 0.42077 0.0
C1388 C 0.52415 0.77555 0.17097 0.0
C1389 C 0.55333 0.78937 0.18075 0.0
H1390 H 0.45416 0.72761 0.16335 0.0
C1391 C 0.53229 0.76535 0.19056 0.0
H1392 H 0.53873 0.794 0.16329 0.0
C1393 C 0.4831 0.72891 0.19064 0.0
C1394 C 0.45399 0.71468 0.18088 0.0
H1395 H 0.55303 0.77563 0.19828 0.0
H1396 H 0.46869 0.71096 0.19837 0.0
C1397 C 0.47504 0.73839 0.17103 0.0
C1398 C 0.96923 0.77286 0.92228 0.0
C1399 C 0.95589 0.80357 0.93189 0.0
H1400 H 0.0157 0.70176 0.91494 0.0
C1401 C 0.98042 0.78424 0.94179 0.0
H1402 H 0.95022 0.78575 0.91454 0.0
C1403 C 0.01774 0.73539 0.94206 0.0
C1404 C 0.03105 0.70474 0.93242 0.0
H1405 H 0.97035 0.8065 0.94937 0.0
H1406 H 0.03694 0.72238 0.94977 0.0
C1407 C 0.00601 0.72387 0.92255 0.0
C1408 C 0.41243 0.0257 0.1913 0.0
C1409 C 0.38638 0.05567 0.18254 0.0
H1410 H 0.49043 0.98976 0.19827 0.0
C1411 C 0.42306 0.07583 0.17406 0.0
H1412 H 0.38574 0.00826 0.19786 0.0
C1413 C 0.48378 0.0634 0.17408 0.0
C1414 C 0.50937 0.03197 0.18276 0.0
H1415 H 0.40472 0.1002 0.16728 0.0
H1416 H 0.5103 0.07692 0.16718 0.0
C1417 C 0.47296 0.01494 0.19151 0.0
C1418 C 0.18235 0.22046 0.43853 0.0
C1419 C 0.20941 0.24772 0.42952 0.0
H1420 H 0.15174 0.13978 0.44567 0.0
C1421 C 0.22417 0.21259 0.42047 0.0
H1422 H 0.17065 0.24598 0.44567 0.0
C1423 C 0.21614 0.15173 0.42071 0.0
C1424 C 0.1911 0.12396 0.42983 0.0
H1425 H 0.24597 0.23137 0.41343 0.0
H1426 H 0.23236 0.12628 0.4139 0.0
C1427 C 0.1726 0.15934 0.43862 0.0
C1428 C 0.03869 0.9945 0.69184 0.0
C1429 C 1.00256 0.98055 0.68287 0.0
H1430 H 0.12592 1.00013 0.69822 0.0
C1431 C 0.02856 0.95285 0.67381 0.0
H1432 H 0.02081 0.0166 0.69893 0.0
C1433 C 0.08947 0.94175 0.67357 0.0
C1434 C 0.1259 0.95943 0.68226 0.0
H1435 H 1.00226 0.94167 0.66675 0.0
H1436 H 0.10815 0.92055 0.66646 0.0
C1437 C 0.09942 0.98497 0.69145 0.0
C1438 C 0.30406 0.77661 0.93883 0.0
C1439 C 0.27447 0.75053 0.92998 0.0
H1440 H 0.33787 0.85623 0.94589 0.0
C1441 C 0.25773 0.78666 0.92119 0.0
H1442 H 0.31716 0.75027 0.94577 0.0
C1443 C 0.26693 0.84737 0.92152 0.0
C1444 C 0.29509 0.87388 0.93044 0.0
H1445 H 0.23377 0.76876 0.91432 0.0
H1446 H 0.24963 0.87376 0.91491 0.0
C1447 C 0.31492 0.83754 0.93899 0.0
C1448 C 0.41539 0.97375 0.32552 0.0
C1449 C 0.38839 0.9482 0.31638 0.0
H1450 H 0.49441 0.00459 0.33291 0.0
C1451 C 0.42452 0.9295 0.30771 0.0
H1452 H 0.38931 0.98997 0.33226 0.0
C1453 C 0.48561 0.93983 0.3079 0.0
C1454 C 0.51207 0.96755 0.31692 0.0
H1455 H 0.40551 0.9082 0.30065 0.0
H1456 H 0.51171 0.92808 0.30084 0.0
C1457 C 0.47623 0.98231 0.32587 0.0
C1458 C 0.31815 0.16157 0.55709 0.0
C1459 C 0.30037 0.12525 0.56579 0.0
H1460 H 0.31908 0.24877 0.5503 0.0
C1461 C 0.27504 0.15185 0.575 0.0
H1462 H 0.33907 0.14282 0.54996 0.0
C1463 C 0.26607 0.21262 0.5754 0.0
C1464 C 0.28042 0.2487 0.56646 0.0
H1465 H 0.25962 0.12547 0.58176 0.0
H1466 H 0.24408 0.2306 0.5825 0.0
C1467 C 0.30771 0.22252 0.55736 0.0
C1468 C 0.09278 0.07967 0.80903 0.0
C1469 C 0.12989 0.05522 0.81705 0.0
H1470 H 0.00464 0.08615 0.80269 0.0
C1471 C 0.10383 0.02511 0.8258 0.0
H1472 H 0.11109 0.10466 0.80233 0.0
C1473 C 0.04283 0.01765 0.82635 0.0
C1474 C 0.00607 0.03813 0.81793 0.0
H1475 H 0.13069 0.00457 0.83201 0.0
H1476 H 0.02508 0.99158 0.83297 0.0
C1477 C 0.03163 0.07018 0.80934 0.0
C1478 C 0.24397 0.78685 0.075 0.0
C1479 C 0.22344 0.75071 0.0665 0.0
H1480 H 0.25693 0.87403 0.08093 0.0
C1481 C 0.19215 0.77701 0.0579 0.0
H1482 H 0.26978 0.76861 0.08161 0.0
C1483 C 0.18255 0.83817 0.05775 0.0
C1484 C 0.20612 0.87457 0.06597 0.0
H1485 H 0.17641 0.75053 0.05116 0.0
H1486 H 0.15769 0.85692 0.05109 0.0
C1487 C 0.23651 0.84779 0.07462 0.0
C1488 C 0.54445 0.99368 0.80472 0.0
C1489 C 0.50684 0.96847 0.81256 0.0
H1490 H 0.63288 0.00896 0.7995 0.0
C1491 C 0.53144 0.93137 0.82051 0.0
H1492 H 0.52737 0.02357 0.79861 0.0
C1493 C 0.59251 0.92091 0.82071 0.0
C1494 C 0.6304 0.9497 0.81332 0.0
H1495 H 0.50373 0.91161 0.8267 0.0
H1496 H 0.61019 0.89159 0.82685 0.0
C1497 C 0.6053 0.98532 0.80522 0.0
C1498 C 0.81231 0.76146 0.57107 0.0
C1499 C 0.77846 0.73589 0.56274 0.0
H1500 H 0.85032 0.84057 0.57754 0.0
C1501 C 0.75753 0.77237 0.55431 0.0
H1502 H 0.82874 0.73474 0.57772 0.0
C1503 C 0.76689 0.83309 0.55454 0.0
C1504 C 0.79945 0.85915 0.56297 0.0
H1505 H 0.73016 0.75467 0.54786 0.0
H1506 H 0.74625 0.85982 0.54832 0.0
C1507 C 0.8237 0.82229 0.57106 0.0
C1508 C 0.91567 0.0301 0.32561 0.0
C1509 C 0.8884 0.05625 0.31655 0.0
H1510 H 0.99484 0.99858 0.33285 0.0
C1511 C 0.92432 0.07535 0.30787 0.0
H1512 H 0.8898 0.01351 0.33234 0.0
C1513 C 0.9854 0.06481 0.30797 0.0
C1514 C 0.0121 0.03646 0.3169 0.0
H1515 H 0.90515 0.09714 0.30088 0.0
H1516 H 0.0113 0.07691 0.3009 0.0
C1517 C 0.97651 0.02132 0.32587 0.0
C1518 C 0.73273 0.16393 0.05434 0.0
C1519 C 0.70586 0.13744 0.0634 0.0
H1520 H 0.7652 0.24256 0.04704 0.0
C1521 C 0.68677 0.17371 0.07201 0.0
H1522 H 0.74894 0.13747 0.04765 0.0
C1523 C 0.69768 0.23457 0.07184 0.0
C1524 C 0.72664 0.26062 0.06291 0.0
H1525 H 0.66461 0.15492 0.07901 0.0
H1526 H 0.68532 0.26079 0.07884 0.0
C1527 C 0.7421 0.22461 0.05402 0.0
C1528 C 0.5903 0.08091 0.67472 0.0
C1529 C 0.62674 0.05888 0.68307 0.0
H1530 H 0.50325 0.08384 0.66784 0.0
C1531 C 0.60045 0.02752 0.69164 0.0
H1532 H 0.6089 0.10634 0.6681 0.0
C1533 C 0.53984 0.01695 0.69175 0.0
C1534 C 0.50371 0.03577 0.6831 0.0
H1535 H 0.62705 0.00884 0.69809 0.0
H1536 H 0.52209 0.99057 0.69833 0.0
C1537 C 0.52956 0.06887 0.67466 0.0
C1538 C 0.73757 0.7769 0.44237 0.0
C1539 C 0.71316 0.73942 0.43443 0.0
H1540 H 0.75143 0.86524 0.44773 0.0
C1541 C 0.676 0.7639 0.42648 0.0
H1542 H 0.76745 0.75992 0.44849 0.0
C1543 C 0.66486 0.82473 0.42633 0.0
C1544 C 0.69276 0.86256 0.43382 0.0
H1545 H 0.65686 0.73629 0.42022 0.0
H1546 H 0.63574 0.84234 0.42015 0.0
C1547 C 0.72841 0.83761 0.44194 0.0
C1548 C 0.9123 0.98614 0.19141 0.0
C1549 C 0.88633 0.95615 0.18264 0.0
H1550 H 0.99028 0.02208 0.1984 0.0
C1551 C 0.92313 0.93581 0.17419 0.0
H1552 H 0.88551 0.00367 0.19795 0.0
C1553 C 0.98387 0.94812 0.17425 0.0
C1554 C 0.00939 0.97965 0.18292 0.0
H1555 H 0.90487 0.91139 0.16742 0.0
H1556 H 0.01047 0.93446 0.16738 0.0
C1557 C 0.97286 0.99684 0.19164 0.0
C1558 C 0.81645 0.23649 0.92573 0.0
C1559 C 0.77776 0.26116 0.93342 0.0
H1560 H 0.85825 0.15779 0.91984 0.0
C1561 C 0.75136 0.2238 0.94116 0.0
H1562 H 0.83711 0.26401 0.91962 0.0
C1563 C 0.76045 0.16313 0.94085 0.0
C1564 C 0.79805 0.13798 0.93307 0.0
H1565 H 0.72021 0.2409 0.94706 0.0
H1566 H 0.73607 0.1357 0.94649 0.0
C1567 C 0.82762 0.17559 0.92574 0.0
C1568 C 0.99009 0.56979 0.67457 0.0
C1569 C 0.01594 0.54059 0.68348 0.0
H1570 H 0.9106 0.603 0.66735 0.0
C1571 C 0.97973 0.52533 0.69237 0.0
H1572 H 0.01647 0.58208 0.66757 0.0
C1573 C 0.91899 0.53501 0.69203 0.0
C1574 C 0.89268 0.56179 0.68294 0.0
H1575 H 0.99755 0.50215 0.69934 0.0
H1576 H 0.89235 0.51893 0.69871 0.0
C1577 C 0.92922 0.58085 0.67436 0.0
C1578 C 0.72936 0.66435 0.92176 0.0
C1579 C 0.69593 0.63823 0.93008 0.0
H1580 H 0.76538 0.74296 0.91502 0.0
C1581 C 0.6696 0.67518 0.93793 0.0
H1582 H 0.75174 0.63762 0.91575 0.0
C1583 C 0.67965 0.73628 0.9378 0.0
C1584 C 0.71403 0.7619 0.92954 0.0
H1585 H 0.64233 0.65684 0.94432 0.0
H1586 H 0.66176 0.76323 0.94429 0.0
C1587 C 0.73724 0.72521 0.92136 0.0
C1588 C 0.52211 0.43959 0.18713 0.0
C1589 C 0.49559 0.47179 0.17868 0.0
H1590 H 0.6021 0.40426 0.19371 0.0
C1591 C 0.53127 0.49164 0.17003 0.0
H1592 H 0.496 0.42398 0.19393 0.0
C1593 C 0.59226 0.48334 0.17022 0.0
C1594 C 0.6193 0.45309 0.17885 0.0
H1595 H 0.51279 0.5177 0.16348 0.0
H1596 H 0.61837 0.50336 0.16384 0.0
C1597 C 0.58314 0.42937 0.1871 0.0
C1598 C 0.75089 0.27567 0.42134 0.0
C1599 C 0.77307 0.23915 0.42964 0.0
H1600 H 0.73749 0.36316 0.41558 0.0
C1601 C 0.80678 0.2648 0.43798 0.0
H1602 H 0.7233 0.25783 0.41494 0.0
C1603 C 0.81713 0.3258 0.43807 0.0
C1604 C 0.79186 0.36266 0.43009 0.0
H1605 H 0.82389 0.23796 0.44455 0.0
H1606 H 0.84386 0.34411 0.44453 0.0
C1607 C 0.75912 0.3365 0.42169 0.0
C1608 C 0.91608 0.47926 0.82486 0.0
C1609 C 0.89002 0.44867 0.81618 0.0
H1610 H 0.99468 0.51407 0.83184 0.0
C1611 C 0.92698 0.42522 0.80802 0.0
H1612 H 0.88929 0.49914 0.83116 0.0
C1613 C 0.98793 0.43598 0.80816 0.0
C1614 C 0.01345 0.46818 0.81671 0.0
H1615 H 0.90866 0.39995 0.80136 0.0
H1616 H 0.01479 0.42059 0.80144 0.0
C1617 C 0.97692 0.48789 0.82523 0.0
C1618 C 0.76585 0.72501 0.05386 0.0
C1619 C 0.78241 0.76047 0.06277 0.0
H1620 H 0.75883 0.6383 0.04729 0.0
C1621 C 0.81327 0.734 0.07142 0.0
H1622 H 0.74143 0.74331 0.04708 0.0
C1623 C 0.8248 0.67325 0.07135 0.0
C1624 C 0.80444 0.63741 0.06278 0.0
H1625 H 0.82664 0.75978 0.07842 0.0
H1626 H 0.84833 0.65415 0.07816 0.0
C1627 C 0.77593 0.66437 0.05395 0.0
C1628 C 0.52371 0.55975 0.30792 0.0
C1629 C 0.49769 0.53135 0.31691 0.0
H1630 H 0.60322 0.59281 0.30068 0.0
C1631 C 0.53382 0.51652 0.32583 0.0
H1632 H 0.49739 0.57151 0.30089 0.0
C1633 C 0.59457 0.52619 0.32548 0.0
C1634 C 0.62105 0.55271 0.31637 0.0
H1635 H 0.51593 0.49366 0.33283 0.0
H1636 H 0.62103 0.51035 0.33219 0.0
C1637 C 0.5846 0.57096 0.30772 0.0
C1638 C 0.67701 0.32194 0.55856 0.0
C1639 C 0.70025 0.35889 0.56673 0.0
H1640 H 0.67279 0.23438 0.55192 0.0
C1641 C 0.73146 0.33286 0.57535 0.0
H1642 H 0.65141 0.34014 0.55194 0.0
C1643 C 0.74074 0.27207 0.57565 0.0
C1644 C 0.72092 0.2356 0.56713 0.0
H1645 H 0.75125 0.35966 0.58165 0.0
H1646 H 0.76735 0.25431 0.5822 0.0
C1647 C 0.68824 0.26113 0.55864 0.0
C1648 C 0.08434 0.43192 0.30757 0.0
C1649 C 0.12067 0.4507 0.31619 0.0
H1650 H 0.9973 0.4317 0.30064 0.0
C1651 C 0.09409 0.47836 0.32517 0.0
H1652 H 0.10299 0.40916 0.30063 0.0
C1653 C 0.03348 0.48862 0.32542 0.0
C1654 C 0.99749 0.47338 0.31653 0.0
H1655 H 0.12039 0.49476 0.33186 0.0
H1656 H 0.01565 0.5123 0.33234 0.0
C1657 C 0.02352 0.44384 0.30766 0.0
C1658 C 0.32158 0.27728 0.07113 0.0
C1659 C 0.29029 0.25066 0.06258 0.0
H1660 H 0.35646 0.35735 0.07777 0.0
C1661 C 0.27154 0.28619 0.05383 0.0
H1662 H 0.3364 0.25131 0.07801 0.0
C1663 C 0.27996 0.34709 0.054 0.0
C1664 C 0.30928 0.37425 0.06272 0.0
H1665 H 0.24621 0.26766 0.04718 0.0
H1666 H 0.26073 0.37307 0.04752 0.0
C1667 C 0.33205 0.33825 0.07108 0.0
C1668 C 0.4261 0.57411 0.82119 0.0
C1669 C 0.38954 0.55049 0.813 0.0
H1670 H 0.51361 0.57908 0.82789 0.0
C1671 C 0.41596 0.51945 0.80441 0.0
H1672 H 0.40745 0.5996 0.82779 0.0
C1673 C 0.4768 0.51079 0.80414 0.0
C1674 C 0.513 0.53087 0.81268 0.0
H1675 H 0.38944 0.49937 0.7981 0.0
H1676 H 0.49481 0.48447 0.79757 0.0
C1677 C 0.48707 0.56335 0.82116 0.0
C1678 C 0.19148 0.72201 0.5577 0.0
C1679 C 0.22092 0.74856 0.56652 0.0
H1680 H 0.15804 0.64208 0.55072 0.0
C1681 C 0.2371 0.71288 0.57541 0.0
H1682 H 0.17864 0.74793 0.55068 0.0
C1683 C 0.22776 0.65213 0.5752 0.0
C1684 C 0.20024 0.62513 0.56625 0.0
H1685 H 0.26073 0.73114 0.58229 0.0
H1686 H 0.24461 0.62606 0.58188 0.0
C1687 C 0.18066 0.6611 0.55763 0.0
C1688 C 0.09293 0.52296 0.19199 0.0
C1689 C 0.11982 0.55565 0.18365 0.0
H1690 H 0.01369 0.48626 0.19839 0.0
C1691 C 0.08358 0.58089 0.17557 0.0
H1692 H 0.11912 0.5017 0.19821 0.0
C1693 C 0.02266 0.56984 0.17538 0.0
C1694 C 0.99633 0.53552 0.18356 0.0
H1695 H 0.10246 0.60781 0.16919 0.0
H1696 H 0.99649 0.58682 0.16871 0.0
C1697 C 0.03206 0.51397 0.19206 0.0
C1698 C 0.17522 0.33657 0.93892 0.0
C1699 C 0.19625 0.37349 0.93055 0.0
H1700 H 0.17192 0.24878 0.94546 0.0
C1701 C 0.22526 0.3476 0.92166 0.0
H1702 H 0.15154 0.35484 0.94579 0.0
C1703 C 0.23423 0.2869 0.9212 0.0
C1704 C 0.21635 0.25015 0.92982 0.0
H1705 H 0.24331 0.37448 0.91519 0.0
H1706 H 0.25891 0.26945 0.91436 0.0
C1707 C 0.1859 0.27563 0.93863 0.0
C1708 C 0.48067 0.49811 0.6919 0.0
C1709 C 0.51636 0.48102 0.68305 0.0
H1710 H 0.39375 0.50657 0.69834 0.0
C1711 C 0.48979 0.45077 0.67433 0.0
H1712 H 0.49896 0.52223 0.69871 0.0
C1713 C 0.42879 0.44013 0.67431 0.0
C1714 C 0.39289 0.4608 0.68285 0.0
H1715 H 0.51572 0.4372 0.66736 0.0
H1716 H 0.40961 0.41693 0.66747 0.0
C1717 C 0.41988 0.48905 0.69171 0.0
C1718 C 0.30385 0.72064 0.4387 0.0
C1719 C 0.27756 0.74786 0.42962 0.0
H1720 H 0.33377 0.63997 0.44594 0.0
C1721 C 0.26364 0.71273 0.42053 0.0
H1722 H 0.31491 0.74618 0.44587 0.0
C1723 C 0.27161 0.65188 0.4208 0.0
C1724 C 0.29579 0.62414 0.42999 0.0
H1725 H 0.24249 0.73149 0.41342 0.0
H1726 H 0.25596 0.62643 0.41395 0.0
C1727 C 0.31356 0.65952 0.43883 0.0
C1728 C 0.17538 0.14725 0.12112 0.0
C1729 C 0.18486 0.1072 0.11259 0.0
H1730 H 0.16231 0.15952 0.13823 0.0
C1731 C 0.18972 0.0469 0.11508 0.0
H1732 H 0.17153 0.19394 0.1195 0.0
C1733 C 0.18366 0.02697 0.12581 0.0
C1734 C 0.17346 0.067 0.13431 0.0
H1735 H 0.19696 0.0148 0.1087 0.0
H1736 H 0.18679 0.98022 0.12743 0.0
C1737 C 0.17014 0.12743 0.13187 0.0
C1738 C 0.1625 0.91238 0.36723 0.0
C1739 C 0.1953 0.95602 0.36185 0.0
H1740 H 0.14307 0.86946 0.38232 0.0
C1741 C 0.23567 0.98987 0.36785 0.0
H1742 H 0.13101 0.8856 0.36284 0.0
C1743 C 0.24327 0.97996 0.37903 0.0
C1744 C 0.2099 0.93671 0.38441 0.0
H1745 H 0.26182 0.02357 0.3639 0.0
H1746 H 0.27456 0.00674 0.38347 0.0
C1747 C 0.16938 0.90316 0.3784 0.0
C1748 C 0.28154 0.94356 0.61967 0.0
C1749 C 0.32188 0.92536 0.61167 0.0
H1750 H 0.26711 0.96333 0.63653 0.0
C1751 C 0.38062 0.91454 0.61472 0.0
H1752 H 0.23607 0.95251 0.61758 0.0
C1753 C 0.39842 0.92075 0.62555 0.0
C1754 C 0.35798 0.9381 0.63359 0.0
H1755 H 0.41299 0.90073 0.60876 0.0
H1756 H 0.44382 0.91134 0.62762 0.0
C1757 C 0.29943 0.94995 0.63052 0.0
C1758 C 0.36472 0.13601 0.87526 0.0
C1759 C 0.34171 0.09926 0.88341 0.0
H1760 H 0.38527 0.14653 0.85838 0.0
C1761 C 0.32118 0.04296 0.8805 0.0
H1762 H 0.38091 0.17958 0.87721 0.0
C1763 C 0.32409 0.0237 0.86968 0.0
C1764 C 0.34718 0.06051 0.86153 0.0
H1765 H 0.30331 0.01346 0.88659 0.0
H1766 H 0.30804 0.98012 0.8677 0.0
C1767 C 0.36724 0.11696 0.86445 0.0
C1768 C 0.76087 0.98585 0.87882 0.0
C1769 C 0.79212 0.94255 0.88458 0.0
H1770 H 0.75064 0.03195 0.86365 0.0
C1771 C 0.83703 0.91117 0.87929 0.0
H1772 H 0.72636 0.0109 0.88278 0.0
C1773 C 0.8498 0.92209 0.86834 0.0
C1774 C 0.81931 0.96603 0.86261 0.0
H1775 H 0.8617 0.87757 0.88358 0.0
H1776 H 0.8841 0.89673 0.86438 0.0
C1777 C 0.77504 0.99819 0.86795 0.0
C1778 C 0.81105 0.12806 0.6209 0.0
C1779 C 0.82278 0.08745 0.61256 0.0
H1780 H 0.81126 0.14557 0.638 0.0
C1781 C 0.84299 0.0309 0.61538 0.0
H1782 H 0.79525 0.17188 0.61903 0.0
C1783 C 0.85251 0.01579 0.62629 0.0
C1784 C 0.84168 0.05681 0.63461 0.0
H1785 H 0.85233 0.99849 0.60914 0.0
H1786 H 0.86885 0.9722 0.62818 0.0
C1787 C 0.82022 0.11288 0.6318 0.0
C1788 C 0.7545 0.02858 0.37877 0.0
C1789 C 0.71176 0.0596 0.38474 0.0
H1790 H 0.78057 0.99501 0.36315 0.0
C1791 C 0.66164 0.08103 0.37934 0.0
H1792 H 0.79339 0.01133 0.38277 0.0
C1793 C 0.65493 0.07276 0.36814 0.0
C1794 C 0.69741 0.0415 0.36217 0.0
H1795 H 0.62809 0.10522 0.38375 0.0
H1796 H 0.61627 0.09056 0.36415 0.0
C1797 C 0.74698 0.01891 0.36759 0.0
C1798 C 0.67778 0.88762 0.13167 0.0
C1799 C 0.67516 0.94806 0.13414 0.0
H1800 H 0.68513 0.82164 0.1193 0.0
C1801 C 0.68065 0.98896 0.12561 0.0
H1802 H 0.67372 0.85484 0.13804 0.0
C1803 C 0.6878 0.96979 0.11485 0.0
C1804 C 0.68896 0.9093 0.11237 0.0
H1805 H 0.6791 0.03577 0.12724 0.0
H1806 H 0.69122 0.00244 0.10846 0.0
C1807 C 0.6843 0.86848 0.12092 0.0
C1808 C 0.63351 0.57658 0.61464 0.0
C1809 C 0.69337 0.57675 0.61166 0.0
H1810 H 0.57039 0.57313 0.62757 0.0
C1811 C 0.73622 0.57178 0.61986 0.0
H1812 H 0.59926 0.57998 0.60853 0.0
C1813 C 0.71953 0.56765 0.63081 0.0
C1814 C 0.65964 0.56848 0.63379 0.0
H1815 H 0.78267 0.57163 0.61784 0.0
H1816 H 0.75366 0.56459 0.63695 0.0
C1817 C 0.61686 0.57255 0.62557 0.0
C1818 C 0.65691 0.36298 0.8754 0.0
C1819 C 0.67386 0.40226 0.88366 0.0
H1820 H 0.64265 0.34944 0.85836 0.0
C1821 C 0.69053 0.45982 0.88074 0.0
H1822 H 0.64388 0.31835 0.87734 0.0
C1823 C 0.68946 0.47788 0.86983 0.0
C1824 C 0.67207 0.43867 0.86158 0.0
H1825 H 0.70378 0.49128 0.88689 0.0
H1826 H 0.70216 0.52259 0.86787 0.0
C1827 C 0.6562 0.38089 0.8645 0.0
C1828 C 0.81487 0.46915 0.11431 0.0
C1829 C 0.83068 0.41115 0.11153 0.0
H1830 H 0.80502 0.53311 0.12703 0.0
C1831 C 0.84841 0.37254 0.11983 0.0
H1832 H 0.80108 0.50009 0.1081 0.0
C1833 C 0.8506 0.39144 0.13065 0.0
C1834 C 0.83531 0.44954 0.13344 0.0
H1835 H 0.86084 0.32761 0.11798 0.0
H1836 H 0.86459 0.36035 0.13682 0.0
C1837 C 0.81727 0.48818 0.12516 0.0
C1838 C 0.84177 0.62743 0.3656 0.0
C1839 C 0.82499 0.57064 0.36225 0.0
H1840 H 0.85221 0.68763 0.37885 0.0
C1841 C 0.80356 0.53091 0.37007 0.0
H1842 H 0.85836 0.65924 0.35978 0.0
C1843 C 0.79966 0.54745 0.38102 0.0
C1844 C 0.81745 0.60393 0.38439 0.0
H1845 H 0.79 0.48698 0.36774 0.0
H1846 H 0.78353 0.5156 0.38687 0.0
C1847 C 0.83819 0.64381 0.37654 0.0
C1848 C 0.33755 0.4132 0.36759 0.0
C1849 C 0.3071 0.45736 0.3619 0.0
H1850 H 0.3516 0.36974 0.38282 0.0
C1851 C 0.26545 0.49174 0.3675 0.0
H1852 H 0.36991 0.38596 0.36351 0.0
C1853 C 0.25423 0.48178 0.37857 0.0
C1854 C 0.28518 0.43791 0.38426 0.0
H1855 H 0.241 0.52582 0.3633 0.0
H1856 H 0.22202 0.50897 0.3827 0.0
C1857 C 0.32704 0.40389 0.37866 0.0
C1858 C 0.3455 0.52354 0.12565 0.0
C1859 C 0.32625 0.55961 0.13422 0.0
H1860 H 0.35107 0.51133 0.10842 0.0
C1861 C 0.29421 0.61097 0.13178 0.0
H1862 H 0.37001 0.48359 0.12726 0.0
C1863 C 0.28343 0.62699 0.12099 0.0
C1864 C 0.30437 0.59195 0.11241 0.0
H1865 H 0.27836 0.63955 0.13821 0.0
H1866 H 0.25972 0.66743 0.11938 0.0
C1867 C 0.33464 0.53953 0.11485 0.0
C1868 C 0.11292 0.5736 0.87033 0.0
C1869 C 0.15702 0.56982 0.86235 0.0
H1870 H 0.09262 0.58193 0.88723 0.0
C1871 C 0.21648 0.57014 0.8656 0.0
H1872 H 0.06676 0.57328 0.8681 0.0
C1873 C 0.23146 0.57525 0.8766 0.0
C1874 C 0.18726 0.58007 0.88456 0.0
H1875 H 0.25154 0.56718 0.85963 0.0
H1876 H 0.27757 0.57605 0.87886 0.0
C1877 C 0.12785 0.57862 0.8813 0.0
C1878 C 0.21481 0.44855 0.63134 0.0
C1879 C 0.15689 0.43603 0.63473 0.0
H1880 H 0.27594 0.45237 0.61803 0.0
C1881 C 0.11535 0.41847 0.62691 0.0
H1882 H 0.24793 0.46215 0.63717 0.0
C1883 C 0.13141 0.41286 0.61599 0.0
C1884 C 0.18947 0.42455 0.6126 0.0
H1885 H 0.0704 0.40851 0.62924 0.0
H1886 H 0.09819 0.39889 0.61021 0.0
C1887 C 0.23095 0.44279 0.62038 0.0
loop_
_geom_bond_atom_site_label_1
_geom_bond_atom_site_label_2
_geom_bond_distance
_geom_bond_site_symmetry_2
_ccdc_geom_bond_type
Co0 O3 1.970 . S
Co0 N17 1.989 . S
Co0 O25 1.967 . S
Co0 O32 1.920 . S
Co1 O4 1.966 . S
Co1 N10 2.022 . S
Co1 N18 1.993 . S
Co1 O26 1.941 . S
C2 O3 1.258 . S
C2 O4 1.263 . S
O3 Co0 1.970 . S
O3 C2 1.258 . S
O4 Co1 1.966 . S
O4 C2 1.263 . S
C5 O6 1.235 1_545 S
C5 O32 1.289 . S
O6 C5 1.235 1_565 S
C7 C9 1.400 . S
C7 N10 1.351 . S
C7 C12 1.501 1_545 S
C8 C9 1.387 . S
C8 N11 1.341 . S
C9 C7 1.400 . S
C9 C8 1.387 . S
N10 Co1 2.022 . S
N10 C7 1.351 . S
N10 N11 1.365 . S
N11 C8 1.341 . S
N11 N10 1.365 . S
N11 H31 0.862 . S
C12 C7 1.501 1_565 S
C12 H13 0.961 . S
C12 H14 0.961 . S
C12 H15 0.960 . S
H13 C12 0.961 . S
H14 C12 0.961 . S
H15 C12 0.960 . S
C16 N17 1.342 . S
C16 C20 1.401 . S
C16 C21 1.499 . S
N17 Co0 1.989 . S
N17 C16 1.342 . S
N17 N18 1.388 . S
N18 Co1 1.993 . S
N18 N17 1.388 . S
N18 C19 1.346 . S
C19 N18 1.346 . S
C19 C20 1.396 . S
C19 C29 1.510 . S
C20 C16 1.401 . S
C20 C19 1.396 . S
C21 C16 1.499 . S
C21 H22 0.959 . S
C21 H23 0.960 . S
C21 H24 0.961 . S
H22 C21 0.959 . S
H23 C21 0.960 . S
H24 C21 0.961 . S
O25 Co0 1.967 . S
O25 C33 1.258 . S
O26 Co1 1.941 . S
O26 C33 1.266 . S
H27 C29 0.959 . S
H28 C29 0.961 1_565 S
C29 C19 1.510 . S
C29 H27 0.959 . S
C29 H28 0.961 1_545 S
C29 H30 0.960 . S
H30 C29 0.960 . S
H31 N11 0.862 . S
O32 Co0 1.920 . S
O32 C5 1.289 . S
C33 O25 1.258 . S
C33 O26 1.266 . S
Co34 O37 1.970 . S
Co34 N51 1.989 . S
Co34 O59 1.967 . S
Co34 O66 1.920 . S
Co35 O38 1.966 . S
Co35 N44 2.022 . S
Co35 N52 1.993 . S
Co35 O60 1.941 . S
C36 O37 1.258 . S
C36 O38 1.263 . S
O37 Co34 1.970 . S
O37 C36 1.258 . S
O38 Co35 1.966 . S
O38 C36 1.263 . S
C39 O40 1.235 . S
C39 O66 1.289 . S
O40 C39 1.235 . S
C41 C43 1.400 . S
C41 N44 1.351 . S
C41 C46 1.501 . S
C42 C43 1.387 . S
C42 N45 1.341 . S
C43 C41 1.400 . S
C43 C42 1.387 . S
N44 Co35 2.022 . S
N44 C41 1.351 . S
N44 N45 1.365 . S
N45 C42 1.341 . S
N45 N44 1.365 . S
N45 H65 0.862 . S
C46 C41 1.501 . S
C46 H47 0.961 . S
C46 H48 0.961 . S
C46 H49 0.960 . S
H47 C46 0.961 . S
H48 C46 0.961 . S
H49 C46 0.960 . S
C50 N51 1.342 . S
C50 C54 1.401 1_565 S
C50 C55 1.499 1_565 S
N51 Co34 1.989 . S
N51 C50 1.342 . S
N51 N52 1.388 . S
N52 Co35 1.993 . S
N52 N51 1.388 . S
N52 C53 1.346 . S
C53 N52 1.346 . S
C53 C54 1.396 1_565 S
C53 C63 1.510 . S
C54 C50 1.401 1_545 S
C54 C53 1.396 1_545 S
C55 C50 1.499 1_545 S
C55 H56 0.959 1_545 S
C55 H57 0.960 . S
C55 H58 0.961 . S
H56 C55 0.959 1_565 S
H57 C55 0.960 . S
H58 C55 0.961 . S
O59 Co34 1.967 . S
O59 C67 1.258 . S
O60 Co35 1.941 . S
O60 C67 1.266 . S
H61 C63 0.959 1_545 S
H62 C63 0.961 1_545 S
C63 C53 1.510 . S
C63 H61 0.959 1_565 S
C63 H62 0.961 1_565 S
C63 H64 0.960 . S
H64 C63 0.960 . S
H65 N45 0.862 . S
O66 Co34 1.920 . S
O66 C39 1.289 . S
C67 O59 1.258 . S
C67 O60 1.266 . S
Co68 O71 1.970 . S
Co68 N85 1.989 . S
Co68 O93 1.967 . S
Co68 O100 1.920 . S
Co69 O72 1.966 . S
Co69 N78 2.022 . S
Co69 N86 1.993 . S
Co69 O94 1.941 . S
C70 O71 1.258 . S
C70 O72 1.263 . S
O71 Co68 1.970 . S
O71 C70 1.258 . S
O72 Co69 1.966 . S
O72 C70 1.263 . S
C73 O74 1.235 1_565 S
C73 O100 1.289 . S
O74 C73 1.235 1_545 S
C75 C77 1.400 . S
C75 N78 1.351 . S
C75 C80 1.501 1_565 S
C76 C77 1.387 . S
C76 N79 1.341 . S
C77 C75 1.400 . S
C77 C76 1.387 . S
N78 Co69 2.022 . S
N78 C75 1.351 . S
N78 N79 1.365 . S
N79 C76 1.341 . S
N79 N78 1.365 . S
N79 H99 0.862 . S
C80 C75 1.501 1_545 S
C80 H81 0.961 . S
C80 H82 0.961 . S
C80 H83 0.960 . S
H81 C80 0.961 . S
H82 C80 0.961 . S
H83 C80 0.960 . S
C84 N85 1.342 . S
C84 C88 1.401 . S
C84 C89 1.499 . S
N85 Co68 1.989 . S
N85 C84 1.342 . S
N85 N86 1.388 . S
N86 Co69 1.993 . S
N86 N85 1.388 . S
N86 C87 1.346 . S
C87 N86 1.346 . S
C87 C88 1.396 . S
C87 C97 1.510 . S
C88 C84 1.401 . S
C88 C87 1.396 . S
C89 C84 1.499 . S
C89 H90 0.959 . S
C89 H91 0.960 . S
C89 H92 0.961 . S
H90 C89 0.959 . S
H91 C89 0.960 . S
H92 C89 0.961 . S
O93 Co68 1.967 . S
O93 C101 1.258 . S
O94 Co69 1.941 . S
O94 C101 1.266 . S
H95 C97 0.959 . S
H96 C97 0.961 1_545 S
C97 C87 1.510 . S
C97 H95 0.959 . S
C97 H96 0.961 1_565 S
C97 H98 0.960 . S
H98 C97 0.960 . S
H99 N79 0.862 . S
O100 Co68 1.920 . S
O100 C73 1.289 . S
C101 O93 1.258 . S
C101 O94 1.266 . S
Co102 O105 1.970 . S
Co102 N119 1.989 . S
Co102 O127 1.967 . S
Co102 O134 1.920 . S
Co103 O106 1.966 . S
Co103 N112 2.022 . S
Co103 N120 1.993 . S
Co103 O128 1.941 . S
C104 O105 1.258 . S
C104 O106 1.263 . S
O105 Co102 1.970 . S
O105 C104 1.258 . S
O106 Co103 1.966 . S
O106 C104 1.263 . S
C107 O108 1.235 . S
C107 O134 1.289 . S
O108 C107 1.235 . S
C109 C111 1.400 . S
C109 N112 1.351 . S
C109 C114 1.501 . S
C110 C111 1.387 . S
C110 N113 1.341 . S
C111 C109 1.400 . S
C111 C110 1.387 . S
N112 Co103 2.022 . S
N112 C109 1.351 . S
N112 N113 1.365 . S
N113 C110 1.341 . S
N113 N112 1.365 . S
N113 H133 0.862 . S
C114 C109 1.501 . S
C114 H115 0.961 . S
C114 H116 0.961 . S
C114 H117 0.960 . S
H115 C114 0.961 . S
H116 C114 0.961 . S
H117 C114 0.960 . S
C118 N119 1.342 . S
C118 C122 1.401 1_545 S
C118 C123 1.499 1_545 S
N119 Co102 1.989 . S
N119 C118 1.342 . S
N119 N120 1.388 . S
N120 Co103 1.993 . S
N120 N119 1.388 . S
N120 C121 1.346 . S
C121 N120 1.346 . S
C121 C122 1.396 1_545 S
C121 C131 1.510 . S
C122 C118 1.401 1_565 S
C122 C121 1.396 1_565 S
C123 C118 1.499 1_565 S
C123 H124 0.959 1_565 S
C123 H125 0.960 . S
C123 H126 0.961 . S
H124 C123 0.959 1_545 S
H125 C123 0.960 . S
H126 C123 0.961 . S
O127 Co102 1.967 . S
O127 C135 1.258 . S
O128 Co103 1.941 . S
O128 C135 1.266 . S
H129 C131 0.959 1_565 S
H130 C131 0.961 1_565 S
C131 C121 1.510 . S
C131 H129 0.959 1_545 S
C131 H130 0.961 1_545 S
C131 H132 0.960 . S
H132 C131 0.960 . S
H133 N113 0.862 . S
O134 Co102 1.920 . S
O134 C107 1.289 . S
C135 O127 1.258 . S
C135 O128 1.266 . S
Co136 O139 1.970 . S
Co136 N153 1.989 . S
Co136 O161 1.967 . S
Co136 O168 1.920 . S
Co137 O140 1.966 . S
Co137 N146 2.022 . S
Co137 N154 1.993 . S
Co137 O162 1.941 . S
C138 O139 1.258 . S
C138 O140 1.263 . S
O139 Co136 1.970 . S
O139 C138 1.258 . S
O140 Co137 1.966 . S
O140 C138 1.263 . S
C141 O142 1.235 1_565 S
C141 O168 1.289 . S
O142 C141 1.235 1_545 S
C143 C145 1.400 . S
C143 N146 1.351 . S
C143 C148 1.501 1_565 S
C144 C145 1.387 . S
C144 N147 1.341 . S
C145 C143 1.400 . S
C145 C144 1.387 . S
N146 Co137 2.022 . S
N146 C143 1.351 . S
N146 N147 1.365 . S
N147 C144 1.341 . S
N147 N146 1.365 . S
N147 H167 0.862 . S
C148 C143 1.501 1_545 S
C148 H149 0.961 . S
C148 H150 0.961 . S
C148 H151 0.960 . S
H149 C148 0.961 . S
H150 C148 0.961 . S
H151 C148 0.960 . S
C152 N153 1.342 . S
C152 C156 1.401 . S
C152 C157 1.499 . S
N153 Co136 1.989 . S
N153 C152 1.342 . S
N153 N154 1.388 . S
N154 Co137 1.993 . S
N154 N153 1.388 . S
N154 C155 1.346 . S
C155 N154 1.346 . S
C155 C156 1.396 . S
C155 C165 1.510 . S
C156 C152 1.401 . S
C156 C155 1.396 . S
C157 C152 1.499 . S
C157 H158 0.959 . S
C157 H159 0.960 . S
C157 H160 0.961 . S
H158 C157 0.959 . S
H159 C157 0.960 . S
H160 C157 0.961 . S
O161 Co136 1.967 . S
O161 C169 1.258 . S
O162 Co137 1.941 . S
O162 C169 1.266 . S
H163 C165 0.959 . S
H164 C165 0.961 1_545 S
C165 C155 1.510 . S
C165 H163 0.959 . S
C165 H164 0.961 1_565 S
C165 H166 0.960 . S
H166 C165 0.960 . S
H167 N147 0.862 . S
O168 Co136 1.920 . S
O168 C141 1.289 . S
C169 O161 1.258 . S
C169 O162 1.266 . S
Co170 O173 1.970 . S
Co170 N187 1.989 . S
Co170 O195 1.967 . S
Co170 O202 1.920 . S
Co171 O174 1.966 . S
Co171 N180 2.022 . S
Co171 N188 1.993 . S
Co171 O196 1.941 . S
C172 O173 1.258 . S
C172 O174 1.263 . S
O173 Co170 1.970 . S
O173 C172 1.258 . S
O174 Co171 1.966 . S
O174 C172 1.263 . S
C175 O176 1.235 . S
C175 O202 1.289 . S
O176 C175 1.235 . S
C177 C179 1.400 . S
C177 N180 1.351 . S
C177 C182 1.501 . S
C178 C179 1.387 . S
C178 N181 1.341 . S
C179 C177 1.400 . S
C179 C178 1.387 . S
N180 Co171 2.022 . S
N180 C177 1.351 . S
N180 N181 1.365 . S
N181 C178 1.341 . S
N181 N180 1.365 . S
N181 H201 0.862 . S
C182 C177 1.501 . S
C182 H183 0.961 . S
C182 H184 0.961 . S
C182 H185 0.960 . S
H183 C182 0.961 . S
H184 C182 0.961 . S
H185 C182 0.960 . S
C186 N187 1.342 . S
C186 C190 1.401 1_565 S
C186 C191 1.499 1_565 S
N187 Co170 1.989 . S
N187 C186 1.342 . S
N187 N188 1.388 . S
N188 Co171 1.993 . S
N188 N187 1.388 . S
N188 C189 1.346 . S
C189 N188 1.346 . S
C189 C190 1.396 1_565 S
C189 C199 1.510 . S
C190 C186 1.401 1_545 S
C190 C189 1.396 1_545 S
C191 C186 1.499 1_545 S
C191 H192 0.959 1_545 S
C191 H193 0.960 . S
C191 H194 0.961 . S
H192 C191 0.959 1_565 S
H193 C191 0.960 . S
H194 C191 0.961 . S
O195 Co170 1.967 . S
O195 C203 1.258 . S
O196 Co171 1.941 . S
O196 C203 1.266 . S
H197 C199 0.959 1_545 S
H198 C199 0.961 1_545 S
C199 C189 1.510 . S
C199 H197 0.959 1_565 S
C199 H198 0.961 1_565 S
C199 H200 0.960 . S
H200 C199 0.960 . S
H201 N181 0.862 . S
O202 Co170 1.920 . S
O202 C175 1.289 . S
C203 O195 1.258 . S
C203 O196 1.266 . S
Co204 O207 1.970 . S
Co204 N221 1.989 . S
Co204 O229 1.967 . S
Co204 O236 1.920 . S
Co205 O208 1.966 . S
Co205 N214 2.022 . S
Co205 N222 1.993 . S
Co205 O230 1.941 . S
C206 O207 1.258 . S
C206 O208 1.263 . S
O207 Co204 1.970 . S
O207 C206 1.258 . S
O208 Co205 1.966 . S
O208 C206 1.263 . S
C209 O210 1.235 1_545 S
C209 O236 1.289 . S
O210 C209 1.235 1_565 S
C211 C213 1.400 . S
C211 N214 1.351 . S
C211 C216 1.501 1_545 S
C212 C213 1.387 . S
C212 N215 1.341 . S
C213 C211 1.400 . S
C213 C212 1.387 . S
N214 Co205 2.022 . S
N214 C211 1.351 . S
N214 N215 1.365 . S
N215 C212 1.341 . S
N215 N214 1.365 . S
N215 H235 0.862 . S
C216 C211 1.501 1_565 S
C216 H217 0.961 . S
C216 H218 0.961 . S
C216 H219 0.960 . S
H217 C216 0.961 . S
H218 C216 0.961 . S
H219 C216 0.960 . S
C220 N221 1.342 . S
C220 C224 1.401 . S
C220 C225 1.499 . S
N221 Co204 1.989 . S
N221 C220 1.342 . S
N221 N222 1.388 . S
N222 Co205 1.993 . S
N222 N221 1.388 . S
N222 C223 1.346 . S
C223 N222 1.346 . S
C223 C224 1.396 . S
C223 C233 1.510 . S
C224 C220 1.401 . S
C224 C223 1.396 . S
C225 C220 1.499 . S
C225 H226 0.959 . S
C225 H227 0.960 . S
C225 H228 0.961 . S
H226 C225 0.959 . S
H227 C225 0.960 . S
H228 C225 0.961 . S
O229 Co204 1.967 . S
O229 C237 1.258 . S
O230 Co205 1.941 . S
O230 C237 1.266 . S
H231 C233 0.959 . S
H232 C233 0.961 1_565 S
C233 C223 1.510 . S
C233 H231 0.959 . S
C233 H232 0.961 1_545 S
C233 H234 0.960 . S
H234 C233 0.960 . S
H235 N215 0.862 . S
O236 Co204 1.920 . S
O236 C209 1.289 . S
C237 O229 1.258 . S
C237 O230 1.266 . S
Co238 O241 1.970 . S
Co238 N255 1.989 . S
Co238 O263 1.967 . S
Co238 O270 1.920 . S
Co239 O242 1.966 . S
Co239 N248 2.022 . S
Co239 N256 1.993 . S
Co239 O264 1.941 . S
C240 O241 1.258 . S
C240 O242 1.263 . S
O241 Co238 1.970 . S
O241 C240 1.258 . S
O242 Co239 1.966 . S
O242 C240 1.263 . S
C243 O244 1.235 . S
C243 O270 1.289 . S
O244 C243 1.235 . S
C245 C247 1.400 . S
C245 N248 1.351 . S
C245 C250 1.501 . S
C246 C247 1.387 . S
C246 N249 1.341 . S
C247 C245 1.400 . S
C247 C246 1.387 . S
N248 Co239 2.022 . S
N248 C245 1.351 . S
N248 N249 1.365 . S
N249 C246 1.341 . S
N249 N248 1.365 . S
N249 H269 0.862 . S
C250 C245 1.501 . S
C250 H251 0.961 . S
C250 H252 0.961 . S
C250 H253 0.960 . S
H251 C250 0.961 . S
H252 C250 0.961 . S
H253 C250 0.960 . S
C254 N255 1.342 . S
C254 C258 1.401 1_545 S
C254 C259 1.499 1_545 S
N255 Co238 1.989 . S
N255 C254 1.342 . S
N255 N256 1.388 . S
N256 Co239 1.993 . S
N256 N255 1.388 . S
N256 C257 1.346 . S
C257 N256 1.346 . S
C257 C258 1.396 1_545 S
C257 C267 1.510 . S
C258 C254 1.401 1_565 S
C258 C257 1.396 1_565 S
C259 C254 1.499 1_565 S
C259 H260 0.959 1_565 S
C259 H261 0.960 . S
C259 H262 0.961 . S
H260 C259 0.959 1_545 S
H261 C259 0.960 . S
H262 C259 0.961 . S
O263 Co238 1.967 . S
O263 C271 1.258 . S
O264 Co239 1.941 . S
O264 C271 1.266 . S
H265 C267 0.959 1_565 S
H266 C267 0.961 1_565 S
C267 C257 1.510 . S
C267 H265 0.959 1_545 S
C267 H266 0.961 1_545 S
C267 H268 0.960 . S
H268 C267 0.960 . S
H269 N249 0.862 . S
O270 Co238 1.920 . S
O270 C243 1.289 . S
C271 O263 1.258 . S
C271 O264 1.266 . S
Co272 O275 1.970 . S
Co272 N289 1.989 . S
Co272 O297 1.967 . S
Co272 O304 1.920 . S
Co273 O276 1.966 . S
Co273 N282 2.022 . S
Co273 N290 1.993 . S
Co273 O298 1.941 . S
C274 O275 1.258 . S
C274 O276 1.263 . S
O275 Co272 1.970 . S
O275 C274 1.258 . S
O276 Co273 1.966 . S
O276 C274 1.263 . S
C277 O278 1.235 1_565 S
C277 O304 1.289 . S
O278 C277 1.235 1_545 S
C279 C281 1.400 . S
C279 N282 1.351 . S
C279 C284 1.501 1_565 S
C280 C281 1.387 . S
C280 N283 1.341 . S
C281 C279 1.400 . S
C281 C280 1.387 . S
N282 Co273 2.022 . S
N282 C279 1.351 . S
N282 N283 1.365 . S
N283 C280 1.341 . S
N283 N282 1.365 . S
N283 H303 0.862 . S
C284 C279 1.501 1_545 S
C284 H285 0.961 . S
C284 H286 0.961 . S
C284 H287 0.960 . S
H285 C284 0.961 . S
H286 C284 0.961 . S
H287 C284 0.960 . S
C288 N289 1.342 . S
C288 C292 1.401 . S
C288 C293 1.499 . S
N289 Co272 1.989 . S
N289 C288 1.342 . S
N289 N290 1.388 . S
N290 Co273 1.993 . S
N290 N289 1.388 . S
N290 C291 1.346 . S
C291 N290 1.346 . S
C291 C292 1.396 . S
C291 C301 1.510 . S
C292 C288 1.401 . S
C292 C291 1.396 . S
C293 C288 1.499 . S
C293 H294 0.959 . S
C293 H295 0.960 . S
C293 H296 0.961 . S
H294 C293 0.959 . S
H295 C293 0.960 . S
H296 C293 0.961 . S
O297 Co272 1.967 . S
O297 C305 1.258 . S
O298 Co273 1.941 . S
O298 C305 1.266 . S
H299 C301 0.959 . S
H300 C301 0.961 1_545 S
C301 C291 1.510 . S
C301 H299 0.959 . S
C301 H300 0.961 1_565 S
C301 H302 0.960 . S
H302 C301 0.960 . S
H303 N283 0.862 . S
O304 Co272 1.920 . S
O304 C277 1.289 . S
C305 O297 1.258 . S
C305 O298 1.266 . S
Co306 O309 1.970 . S
Co306 N323 1.989 . S
Co306 O331 1.967 . S
Co306 O338 1.920 . S
Co307 O310 1.966 . S
Co307 N316 2.022 . S
Co307 N324 1.993 . S
Co307 O332 1.941 . S
C308 O309 1.258 . S
C308 O310 1.263 . S
O309 Co306 1.970 . S
O309 C308 1.258 . S
O310 Co307 1.966 . S
O310 C308 1.263 . S
C311 O312 1.235 . S
C311 O338 1.289 . S
O312 C311 1.235 . S
C313 C315 1.400 . S
C313 N316 1.351 . S
C313 C318 1.501 . S
C314 C315 1.387 . S
C314 N317 1.341 . S
C315 C313 1.400 . S
C315 C314 1.387 . S
N316 Co307 2.022 . S
N316 C313 1.351 . S
N316 N317 1.365 . S
N317 C314 1.341 . S
N317 N316 1.365 . S
N317 H337 0.862 . S
C318 C313 1.501 . S
C318 H319 0.961 . S
C318 H320 0.961 . S
C318 H321 0.960 . S
H319 C318 0.961 . S
H320 C318 0.961 . S
H321 C318 0.960 . S
C322 N323 1.342 . S
C322 C326 1.401 1_545 S
C322 C327 1.499 1_545 S
N323 Co306 1.989 . S
N323 C322 1.342 . S
N323 N324 1.388 . S
N324 Co307 1.993 . S
N324 N323 1.388 . S
N324 C325 1.346 . S
C325 N324 1.346 . S
C325 C326 1.396 1_545 S
C325 C335 1.510 . S
C326 C322 1.401 1_565 S
C326 C325 1.396 1_565 S
C327 C322 1.499 1_565 S
C327 H328 0.959 1_565 S
C327 H329 0.960 . S
C327 H330 0.961 . S
H328 C327 0.959 1_545 S
H329 C327 0.960 . S
H330 C327 0.961 . S
O331 Co306 1.967 . S
O331 C339 1.258 . S
O332 Co307 1.941 . S
O332 C339 1.266 . S
H333 C335 0.959 1_565 S
H334 C335 0.961 1_565 S
C335 C325 1.510 . S
C335 H333 0.959 1_545 S
C335 H334 0.961 1_545 S
C335 H336 0.960 . S
H336 C335 0.960 . S
H337 N317 0.862 . S
O338 Co306 1.920 . S
O338 C311 1.289 . S
C339 O331 1.258 . S
C339 O332 1.266 . S
Co340 O343 1.970 . S
Co340 N357 1.989 . S
Co340 O365 1.967 . S
Co340 O372 1.920 . S
Co341 O344 1.966 . S
Co341 N350 2.022 . S
Co341 N358 1.993 . S
Co341 O366 1.941 . S
C342 O343 1.258 . S
C342 O344 1.263 . S
O343 Co340 1.970 . S
O343 C342 1.258 . S
O344 Co341 1.966 . S
O344 C342 1.263 . S
C345 O346 1.235 1_545 S
C345 O372 1.289 . S
O346 C345 1.235 1_565 S
C347 C349 1.400 . S
C347 N350 1.351 . S
C347 C352 1.501 1_545 S
C348 C349 1.387 . S
C348 N351 1.341 . S
C349 C347 1.400 . S
C349 C348 1.387 . S
N350 Co341 2.022 . S
N350 C347 1.351 . S
N350 N351 1.365 . S
N351 C348 1.341 . S
N351 N350 1.365 . S
N351 H371 0.862 . S
C352 C347 1.501 1_565 S
C352 H353 0.961 . S
C352 H354 0.961 . S
C352 H355 0.960 . S
H353 C352 0.961 . S
H354 C352 0.961 . S
H355 C352 0.960 . S
C356 N357 1.342 . S
C356 C360 1.401 . S
C356 C361 1.499 . S
N357 Co340 1.989 . S
N357 C356 1.342 . S
N357 N358 1.388 . S
N358 Co341 1.993 . S
N358 N357 1.388 . S
N358 C359 1.346 . S
C359 N358 1.346 . S
C359 C360 1.396 . S
C359 C369 1.510 . S
C360 C356 1.401 . S
C360 C359 1.396 . S
C361 C356 1.499 . S
C361 H362 0.959 . S
C361 H363 0.960 . S
C361 H364 0.961 . S
H362 C361 0.959 . S
H363 C361 0.960 . S
H364 C361 0.961 . S
O365 Co340 1.967 . S
O365 C373 1.258 . S
O366 Co341 1.941 . S
O366 C373 1.266 . S
H367 C369 0.959 . S
H368 C369 0.961 1_565 S
C369 C359 1.510 . S
C369 H367 0.959 . S
C369 H368 0.961 1_545 S
C369 H370 0.960 . S
H370 C369 0.960 . S
H371 N351 0.862 . S
O372 Co340 1.920 . S
O372 C345 1.289 . S
C373 O365 1.258 . S
C373 O366 1.266 . S
Co374 O377 1.970 . S
Co374 N391 1.989 . S
Co374 O399 1.967 . S
Co374 O406 1.920 . S
Co375 O378 1.966 . S
Co375 N384 2.022 . S
Co375 N392 1.993 . S
Co375 O400 1.941 . S
C376 O377 1.258 . S
C376 O378 1.263 . S
O377 Co374 1.970 . S
O377 C376 1.258 . S
O378 Co375 1.966 . S
O378 C376 1.263 . S
C379 O380 1.235 . S
C379 O406 1.289 . S
O380 C379 1.235 . S
C381 C383 1.400 . S
C381 N384 1.351 . S
C381 C386 1.501 . S
C382 C383 1.387 . S
C382 N385 1.341 . S
C383 C381 1.400 . S
C383 C382 1.387 . S
N384 Co375 2.022 . S
N384 C381 1.351 . S
N384 N385 1.365 . S
N385 C382 1.341 . S
N385 N384 1.365 . S
N385 H405 0.862 . S
C386 C381 1.501 . S
C386 H387 0.961 . S
C386 H388 0.961 . S
C386 H389 0.960 . S
H387 C386 0.961 . S
H388 C386 0.961 . S
H389 C386 0.960 . S
C390 N391 1.342 . S
C390 C394 1.401 1_565 S
C390 C395 1.499 1_565 S
N391 Co374 1.989 . S
N391 C390 1.342 . S
N391 N392 1.388 . S
N392 Co375 1.993 . S
N392 N391 1.388 . S
N392 C393 1.346 . S
C393 N392 1.346 . S
C393 C394 1.396 1_565 S
C393 C403 1.510 . S
C394 C390 1.401 1_545 S
C394 C393 1.396 1_545 S
C395 C390 1.499 1_545 S
C395 H396 0.959 1_545 S
C395 H397 0.960 . S
C395 H398 0.961 . S
H396 C395 0.959 1_565 S
H397 C395 0.960 . S
H398 C395 0.961 . S
O399 Co374 1.967 . S
O399 C407 1.258 . S
O400 Co375 1.941 . S
O400 C407 1.266 . S
H401 C403 0.959 1_545 S
H402 C403 0.961 1_545 S
C403 C393 1.510 . S
C403 H401 0.959 1_565 S
C403 H402 0.961 1_565 S
C403 H404 0.960 . S
H404 C403 0.960 . S
H405 N385 0.862 . S
O406 Co374 1.920 . S
O406 C379 1.289 . S
C407 O399 1.258 . S
C407 O400 1.266 . S
Co408 O411 1.970 . S
Co408 N425 1.989 . S
Co408 O433 1.967 . S
Co408 O440 1.920 . S
Co409 O412 1.966 . S
Co409 N418 2.022 . S
Co409 N426 1.993 . S
Co409 O434 1.941 . S
C410 O411 1.258 . S
C410 O412 1.263 . S
O411 Co408 1.970 . S
O411 C410 1.258 . S
O412 Co409 1.966 . S
O412 C410 1.263 . S
C413 O414 1.235 1_545 S
C413 O440 1.289 . S
O414 C413 1.235 1_565 S
C415 C417 1.400 . S
C415 N418 1.351 . S
C415 C420 1.501 1_545 S
C416 C417 1.387 . S
C416 N419 1.341 . S
C417 C415 1.400 . S
C417 C416 1.387 . S
N418 Co409 2.022 . S
N418 C415 1.351 . S
N418 N419 1.365 . S
N419 C416 1.341 . S
N419 N418 1.365 . S
N419 H439 0.862 . S
C420 C415 1.501 1_565 S
C420 H421 0.961 . S
C420 H422 0.961 . S
C420 H423 0.960 . S
H421 C420 0.961 . S
H422 C420 0.961 . S
H423 C420 0.960 . S
C424 N425 1.342 . S
C424 C428 1.401 . S
C424 C429 1.499 . S
N425 Co408 1.989 . S
N425 C424 1.342 . S
N425 N426 1.388 . S
N426 Co409 1.993 . S
N426 N425 1.388 . S
N426 C427 1.346 . S
C427 N426 1.346 . S
C427 C428 1.396 . S
C427 C437 1.510 . S
C428 C424 1.401 . S
C428 C427 1.396 . S
C429 C424 1.499 . S
C429 H430 0.959 . S
C429 H431 0.960 . S
C429 H432 0.961 . S
H430 C429 0.959 . S
H431 C429 0.960 . S
H432 C429 0.961 . S
O433 Co408 1.967 . S
O433 C441 1.258 . S
O434 Co409 1.941 . S
O434 C441 1.266 . S
H435 C437 0.959 . S
H436 C437 0.961 1_565 S
C437 C427 1.510 . S
C437 H435 0.959 . S
C437 H436 0.961 1_545 S
C437 H438 0.960 . S
H438 C437 0.960 . S
H439 N419 0.862 . S
O440 Co408 1.920 . S
O440 C413 1.289 . S
C441 O433 1.258 . S
C441 O434 1.266 . S
Co442 O445 1.970 . S
Co442 N459 1.989 . S
Co442 O467 1.967 . S
Co442 O474 1.920 . S
Co443 O446 1.966 . S
Co443 N452 2.022 . S
Co443 N460 1.993 . S
Co443 O468 1.941 . S
C444 O445 1.258 . S
C444 O446 1.263 . S
O445 Co442 1.970 . S
O445 C444 1.258 . S
O446 Co443 1.966 . S
O446 C444 1.263 . S
C447 O448 1.235 . S
C447 O474 1.289 . S
O448 C447 1.235 . S
C449 C451 1.400 . S
C449 N452 1.351 . S
C449 C454 1.501 . S
C450 C451 1.387 . S
C450 N453 1.341 . S
C451 C449 1.400 . S
C451 C450 1.387 . S
N452 Co443 2.022 . S
N452 C449 1.351 . S
N452 N453 1.365 . S
N453 C450 1.341 . S
N453 N452 1.365 . S
N453 H473 0.862 . S
C454 C449 1.501 . S
C454 H455 0.961 . S
C454 H456 0.961 . S
C454 H457 0.960 . S
H455 C454 0.961 . S
H456 C454 0.961 . S
H457 C454 0.960 . S
C458 N459 1.342 . S
C458 C462 1.401 1_545 S
C458 C463 1.499 1_545 S
N459 Co442 1.989 . S
N459 C458 1.342 . S
N459 N460 1.388 . S
N460 Co443 1.993 . S
N460 N459 1.388 . S
N460 C461 1.346 . S
C461 N460 1.346 . S
C461 C462 1.396 1_545 S
C461 C471 1.510 . S
C462 C458 1.401 1_565 S
C462 C461 1.396 1_565 S
C463 C458 1.499 1_565 S
C463 H464 0.959 1_565 S
C463 H465 0.960 . S
C463 H466 0.961 . S
H464 C463 0.959 1_545 S
H465 C463 0.960 . S
H466 C463 0.961 . S
O467 Co442 1.967 . S
O467 C475 1.258 . S
O468 Co443 1.941 . S
O468 C475 1.266 . S
H469 C471 0.959 1_565 S
H470 C471 0.961 1_565 S
C471 C461 1.510 . S
C471 H469 0.959 1_545 S
C471 H470 0.961 1_545 S
C471 H472 0.960 . S
H472 C471 0.960 . S
H473 N453 0.862 . S
O474 Co442 1.920 . S
O474 C447 1.289 . S
C475 O467 1.258 . S
C475 O468 1.266 . S
Co476 O479 1.970 . S
Co476 N493 1.989 . S
Co476 O501 1.967 . S
Co476 O508 1.920 . S
Co477 O480 1.966 . S
Co477 N486 2.022 . S
Co477 N494 1.993 . S
Co477 O502 1.941 . S
C478 O479 1.258 . S
C478 O480 1.263 . S
O479 Co476 1.970 . S
O479 C478 1.258 . S
O480 Co477 1.966 . S
O480 C478 1.263 . S
C481 O482 1.235 1_565 S
C481 O508 1.289 . S
O482 C481 1.235 1_545 S
C483 C485 1.400 . S
C483 N486 1.351 . S
C483 C488 1.501 1_565 S
C484 C485 1.387 . S
C484 N487 1.341 . S
C485 C483 1.400 . S
C485 C484 1.387 . S
N486 Co477 2.022 . S
N486 C483 1.351 . S
N486 N487 1.365 . S
N487 C484 1.341 . S
N487 N486 1.365 . S
N487 H507 0.862 . S
C488 C483 1.501 1_545 S
C488 H489 0.961 . S
C488 H490 0.961 . S
C488 H491 0.960 . S
H489 C488 0.961 . S
H490 C488 0.961 . S
H491 C488 0.960 . S
C492 N493 1.342 . S
C492 C496 1.401 . S
C492 C497 1.499 . S
N493 Co476 1.989 . S
N493 C492 1.342 . S
N493 N494 1.388 . S
N494 Co477 1.993 . S
N494 N493 1.388 . S
N494 C495 1.346 . S
C495 N494 1.346 . S
C495 C496 1.396 . S
C495 C505 1.510 . S
C496 C492 1.401 . S
C496 C495 1.396 . S
C497 C492 1.499 . S
C497 H498 0.959 . S
C497 H499 0.960 . S
C497 H500 0.961 . S
H498 C497 0.959 . S
H499 C497 0.960 . S
H500 C497 0.961 . S
O501 Co476 1.967 . S
O501 C509 1.258 . S
O502 Co477 1.941 . S
O502 C509 1.266 . S
H503 C505 0.959 . S
H504 C505 0.961 1_545 S
C505 C495 1.510 . S
C505 H503 0.959 . S
C505 H504 0.961 1_565 S
C505 H506 0.960 . S
H506 C505 0.960 . S
H507 N487 0.862 . S
O508 Co476 1.920 . S
O508 C481 1.289 . S
C509 O501 1.258 . S
C509 O502 1.266 . S
Co510 O513 1.970 . S
Co510 N527 1.989 . S
Co510 O535 1.967 . S
Co510 O542 1.920 . S
Co511 O514 1.966 . S
Co511 N520 2.022 . S
Co511 N528 1.993 . S
Co511 O536 1.941 . S
C512 O513 1.258 . S
C512 O514 1.263 . S
O513 Co510 1.970 . S
O513 C512 1.258 . S
O514 Co511 1.966 . S
O514 C512 1.263 . S
C515 O516 1.235 . S
C515 O542 1.289 . S
O516 C515 1.235 . S
C517 C519 1.400 . S
C517 N520 1.351 . S
C517 C522 1.501 . S
C518 C519 1.387 . S
C518 N521 1.341 . S
C519 C517 1.400 . S
C519 C518 1.387 . S
N520 Co511 2.022 . S
N520 C517 1.351 . S
N520 N521 1.365 . S
N521 C518 1.341 . S
N521 N520 1.365 . S
N521 H541 0.862 . S
C522 C517 1.501 . S
C522 H523 0.961 . S
C522 H524 0.961 . S
C522 H525 0.960 . S
H523 C522 0.961 . S
H524 C522 0.961 . S
H525 C522 0.960 . S
C526 N527 1.342 . S
C526 C530 1.401 1_565 S
C526 C531 1.499 1_565 S
N527 Co510 1.989 . S
N527 C526 1.342 . S
N527 N528 1.388 . S
N528 Co511 1.993 . S
N528 N527 1.388 . S
N528 C529 1.346 . S
C529 N528 1.346 . S
C529 C530 1.396 1_565 S
C529 C539 1.510 . S
C530 C526 1.401 1_545 S
C530 C529 1.396 1_545 S
C531 C526 1.499 1_545 S
C531 H532 0.959 1_545 S
C531 H533 0.960 . S
C531 H534 0.961 . S
H532 C531 0.959 1_565 S
H533 C531 0.960 . S
H534 C531 0.961 . S
O535 Co510 1.967 . S
O535 C543 1.258 . S
O536 Co511 1.941 . S
O536 C543 1.266 . S
H537 C539 0.959 1_545 S
H538 C539 0.961 1_545 S
C539 C529 1.510 . S
C539 H537 0.959 1_565 S
C539 H538 0.961 1_565 S
C539 H540 0.960 . S
H540 C539 0.960 . S
H541 N521 0.862 . S
O542 Co510 1.920 . S
O542 C515 1.289 . S
C543 O535 1.258 . S
C543 O536 1.266 . S
Co544 O547 1.970 . S
Co544 N561 1.989 . S
Co544 O569 1.967 . S
Co544 O576 1.920 . S
Co545 O548 1.966 . S
Co545 N554 2.022 . S
Co545 N562 1.993 . S
Co545 O570 1.941 . S
C546 O547 1.258 . S
C546 O548 1.263 . S
O547 Co544 1.970 . S
O547 C546 1.258 . S
O548 Co545 1.966 . S
O548 C546 1.263 . S
C549 O550 1.235 . S
C549 O576 1.289 . S
O550 C549 1.235 . S
C551 C553 1.400 . S
C551 N554 1.351 . S
C551 C556 1.501 . S
C552 C553 1.387 . S
C552 N555 1.341 . S
C553 C551 1.400 . S
C553 C552 1.387 . S
N554 Co545 2.022 . S
N554 C551 1.351 . S
N554 N555 1.365 . S
N555 C552 1.341 . S
N555 N554 1.365 . S
N555 H575 0.862 . S
C556 C551 1.501 . S
C556 H557 0.961 . S
C556 H558 0.961 . S
C556 H559 0.960 . S
H557 C556 0.961 . S
H558 C556 0.961 . S
H559 C556 0.960 . S
C560 N561 1.342 . S
C560 C564 1.401 . S
C560 C565 1.499 . S
N561 Co544 1.989 . S
N561 C560 1.342 . S
N561 N562 1.388 . S
N562 Co545 1.993 . S
N562 N561 1.388 . S
N562 C563 1.346 . S
C563 N562 1.346 . S
C563 C564 1.396 . S
C563 C573 1.510 . S
C564 C560 1.401 . S
C564 C563 1.396 . S
C565 C560 1.499 . S
C565 H566 0.959 . S
C565 H567 0.960 . S
C565 H568 0.961 . S
H566 C565 0.959 . S
H567 C565 0.960 . S
H568 C565 0.961 . S
O569 Co544 1.967 . S
O569 C577 1.258 . S
O570 Co545 1.941 . S
O570 C577 1.266 . S
H571 C573 0.959 . S
H572 C573 0.961 . S
C573 C563 1.510 . S
C573 H571 0.959 . S
C573 H572 0.961 . S
C573 H574 0.960 . S
H574 C573 0.960 . S
H575 N555 0.862 . S
O576 Co544 1.920 . S
O576 C549 1.289 . S
C577 O569 1.258 . S
C577 O570 1.266 . S
Co578 O581 1.970 . S
Co578 N595 1.989 . S
Co578 O603 1.967 . S
Co578 O610 1.920 . S
Co579 O582 1.966 . S
Co579 N588 2.022 . S
Co579 N596 1.993 . S
Co579 O604 1.941 . S
C580 O581 1.258 . S
C580 O582 1.263 . S
O581 Co578 1.970 . S
O581 C580 1.258 . S
O582 Co579 1.966 . S
O582 C580 1.263 . S
C583 O584 1.235 . S
C583 O610 1.289 . S
O584 C583 1.235 . S
C585 C587 1.400 . S
C585 N588 1.351 . S
C585 C590 1.501 . S
C586 C587 1.387 . S
C586 N589 1.341 . S
C587 C585 1.400 . S
C587 C586 1.387 . S
N588 Co579 2.022 . S
N588 C585 1.351 . S
N588 N589 1.365 . S
N589 C586 1.341 . S
N589 N588 1.365 . S
N589 H609 0.862 . S
C590 C585 1.501 . S
C590 H591 0.961 . S
C590 H592 0.961 . S
C590 H593 0.960 . S
H591 C590 0.961 . S
H592 C590 0.961 . S
H593 C590 0.960 . S
C594 N595 1.342 . S
C594 C598 1.401 . S
C594 C599 1.499 . S
N595 Co578 1.989 . S
N595 C594 1.342 . S
N595 N596 1.388 . S
N596 Co579 1.993 . S
N596 N595 1.388 . S
N596 C597 1.346 . S
C597 N596 1.346 . S
C597 C598 1.396 . S
C597 C607 1.510 . S
C598 C594 1.401 . S
C598 C597 1.396 . S
C599 C594 1.499 . S
C599 H600 0.959 . S
C599 H601 0.960 . S
C599 H602 0.961 . S
H600 C599 0.959 . S
H601 C599 0.960 . S
H602 C599 0.961 . S
O603 Co578 1.967 . S
O603 C611 1.258 . S
O604 Co579 1.941 . S
O604 C611 1.266 . S
H605 C607 0.959 . S
H606 C607 0.961 . S
C607 C597 1.510 . S
C607 H605 0.959 . S
C607 H606 0.961 . S
C607 H608 0.960 . S
H608 C607 0.960 . S
H609 N589 0.862 . S
O610 Co578 1.920 . S
O610 C583 1.289 . S
C611 O603 1.258 . S
C611 O604 1.266 . S
Co612 O615 1.970 . S
Co612 N629 1.989 . S
Co612 O637 1.967 . S
Co612 O644 1.920 . S
Co613 O616 1.966 . S
Co613 N622 2.022 . S
Co613 N630 1.993 . S
Co613 O638 1.941 . S
C614 O615 1.258 . S
C614 O616 1.263 . S
O615 Co612 1.970 . S
O615 C614 1.258 . S
O616 Co613 1.966 . S
O616 C614 1.263 . S
C617 O618 1.235 . S
C617 O644 1.289 . S
O618 C617 1.235 . S
C619 C621 1.400 . S
C619 N622 1.351 . S
C619 C624 1.501 . S
C620 C621 1.387 . S
C620 N623 1.341 . S
C621 C619 1.400 . S
C621 C620 1.387 . S
N622 Co613 2.022 . S
N622 C619 1.351 . S
N622 N623 1.365 . S
N623 C620 1.341 . S
N623 N622 1.365 . S
N623 H643 0.862 . S
C624 C619 1.501 . S
C624 H625 0.961 . S
C624 H626 0.961 . S
C624 H627 0.960 . S
H625 C624 0.961 . S
H626 C624 0.961 . S
H627 C624 0.960 . S
C628 N629 1.342 . S
C628 C632 1.401 . S
C628 C633 1.499 . S
N629 Co612 1.989 . S
N629 C628 1.342 . S
N629 N630 1.388 . S
N630 Co613 1.993 . S
N630 N629 1.388 . S
N630 C631 1.346 . S
C631 N630 1.346 . S
C631 C632 1.396 . S
C631 C641 1.510 . S
C632 C628 1.401 . S
C632 C631 1.396 . S
C633 C628 1.499 . S
C633 H634 0.959 . S
C633 H635 0.960 . S
C633 H636 0.961 . S
H634 C633 0.959 . S
H635 C633 0.960 . S
H636 C633 0.961 . S
O637 Co612 1.967 . S
O637 C645 1.258 . S
O638 Co613 1.941 . S
O638 C645 1.266 . S
H639 C641 0.959 . S
H640 C641 0.961 . S
C641 C631 1.510 . S
C641 H639 0.959 . S
C641 H640 0.961 . S
C641 H642 0.960 . S
H642 C641 0.960 . S
H643 N623 0.862 . S
O644 Co612 1.920 . S
O644 C617 1.289 . S
C645 O637 1.258 . S
C645 O638 1.266 . S
Co646 O649 1.970 . S
Co646 N663 1.989 . S
Co646 O671 1.967 . S
Co646 O678 1.920 . S
Co647 O650 1.966 . S
Co647 N656 2.022 . S
Co647 N664 1.993 . S
Co647 O672 1.941 . S
C648 O649 1.258 . S
C648 O650 1.263 . S
O649 Co646 1.970 . S
O649 C648 1.258 . S
O650 Co647 1.966 . S
O650 C648 1.263 . S
C651 O652 1.235 . S
C651 O678 1.289 . S
O652 C651 1.235 . S
C653 C655 1.400 . S
C653 N656 1.351 . S
C653 C658 1.501 . S
C654 C655 1.387 . S
C654 N657 1.341 . S
C655 C653 1.400 . S
C655 C654 1.387 . S
N656 Co647 2.022 . S
N656 C653 1.351 . S
N656 N657 1.365 . S
N657 C654 1.341 . S
N657 N656 1.365 . S
N657 H677 0.862 . S
C658 C653 1.501 . S
C658 H659 0.961 . S
C658 H660 0.961 . S
C658 H661 0.960 . S
H659 C658 0.961 . S
H660 C658 0.961 . S
H661 C658 0.960 . S
C662 N663 1.342 . S
C662 C666 1.401 . S
C662 C667 1.499 . S
N663 Co646 1.989 . S
N663 C662 1.342 . S
N663 N664 1.388 . S
N664 Co647 1.993 . S
N664 N663 1.388 . S
N664 C665 1.346 . S
C665 N664 1.346 . S
C665 C666 1.396 . S
C665 C675 1.510 . S
C666 C662 1.401 . S
C666 C665 1.396 . S
C667 C662 1.499 . S
C667 H668 0.959 . S
C667 H669 0.960 . S
C667 H670 0.961 . S
H668 C667 0.959 . S
H669 C667 0.960 . S
H670 C667 0.961 . S
O671 Co646 1.967 . S
O671 C679 1.258 . S
O672 Co647 1.941 . S
O672 C679 1.266 . S
H673 C675 0.959 . S
H674 C675 0.961 . S
C675 C665 1.510 . S
C675 H673 0.959 . S
C675 H674 0.961 . S
C675 H676 0.960 . S
H676 C675 0.960 . S
H677 N657 0.862 . S
O678 Co646 1.920 . S
O678 C651 1.289 . S
C679 O671 1.258 . S
C679 O672 1.266 . S
Co680 O683 1.970 . S
Co680 N697 1.989 . S
Co680 O705 1.967 . S
Co680 O712 1.920 . S
Co681 O684 1.966 . S
Co681 N690 2.022 . S
Co681 N698 1.993 . S
Co681 O706 1.941 . S
C682 O683 1.258 . S
C682 O684 1.263 . S
O683 Co680 1.970 . S
O683 C682 1.258 . S
O684 Co681 1.966 . S
O684 C682 1.263 . S
C685 O686 1.235 . S
C685 O712 1.289 . S
O686 C685 1.235 . S
C687 C689 1.400 . S
C687 N690 1.351 . S
C687 C692 1.501 . S
C688 C689 1.387 . S
C688 N691 1.341 . S
C689 C687 1.400 . S
C689 C688 1.387 . S
N690 Co681 2.022 . S
N690 C687 1.351 . S
N690 N691 1.365 . S
N691 C688 1.341 . S
N691 N690 1.365 . S
N691 H711 0.862 . S
C692 C687 1.501 . S
C692 H693 0.961 . S
C692 H694 0.961 . S
C692 H695 0.960 . S
H693 C692 0.961 . S
H694 C692 0.961 . S
H695 C692 0.960 . S
C696 N697 1.342 . S
C696 C700 1.401 . S
C696 C701 1.499 . S
N697 Co680 1.989 . S
N697 C696 1.342 . S
N697 N698 1.388 . S
N698 Co681 1.993 . S
N698 N697 1.388 . S
N698 C699 1.346 . S
C699 N698 1.346 . S
C699 C700 1.396 . S
C699 C709 1.510 . S
C700 C696 1.401 . S
C700 C699 1.396 . S
C701 C696 1.499 . S
C701 H702 0.959 . S
C701 H703 0.960 . S
C701 H704 0.961 . S
H702 C701 0.959 . S
H703 C701 0.960 . S
H704 C701 0.961 . S
O705 Co680 1.967 . S
O705 C713 1.258 . S
O706 Co681 1.941 . S
O706 C713 1.266 . S
H707 C709 0.959 . S
H708 C709 0.961 . S
C709 C699 1.510 . S
C709 H707 0.959 . S
C709 H708 0.961 . S
C709 H710 0.960 . S
H710 C709 0.960 . S
H711 N691 0.862 . S
O712 Co680 1.920 . S
O712 C685 1.289 . S
C713 O705 1.258 . S
C713 O706 1.266 . S
Co714 O717 1.970 . S
Co714 N731 1.989 . S
Co714 O739 1.967 . S
Co714 O746 1.920 . S
Co715 O718 1.966 . S
Co715 N724 2.022 . S
Co715 N732 1.993 . S
Co715 O740 1.941 . S
C716 O717 1.258 . S
C716 O718 1.263 . S
O717 Co714 1.970 . S
O717 C716 1.258 . S
O718 Co715 1.966 . S
O718 C716 1.263 . S
C719 O720 1.235 . S
C719 O746 1.289 . S
O720 C719 1.235 . S
C721 C723 1.400 . S
C721 N724 1.351 . S
C721 C726 1.501 . S
C722 C723 1.387 . S
C722 N725 1.341 . S
C723 C721 1.400 . S
C723 C722 1.387 . S
N724 Co715 2.022 . S
N724 C721 1.351 . S
N724 N725 1.365 . S
N725 C722 1.341 . S
N725 N724 1.365 . S
N725 H745 0.862 . S
C726 C721 1.501 . S
C726 H727 0.961 . S
C726 H728 0.961 . S
C726 H729 0.960 . S
H727 C726 0.961 . S
H728 C726 0.961 . S
H729 C726 0.960 . S
C730 N731 1.342 . S
C730 C734 1.401 . S
C730 C735 1.499 . S
N731 Co714 1.989 . S
N731 C730 1.342 . S
N731 N732 1.388 . S
N732 Co715 1.993 . S
N732 N731 1.388 . S
N732 C733 1.346 . S
C733 N732 1.346 . S
C733 C734 1.396 . S
C733 C743 1.510 . S
C734 C730 1.401 . S
C734 C733 1.396 . S
C735 C730 1.499 . S
C735 H736 0.959 . S
C735 H737 0.960 . S
C735 H738 0.961 . S
H736 C735 0.959 . S
H737 C735 0.960 . S
H738 C735 0.961 . S
O739 Co714 1.967 . S
O739 C747 1.258 . S
O740 Co715 1.941 . S
O740 C747 1.266 . S
H741 C743 0.959 . S
H742 C743 0.961 . S
C743 C733 1.510 . S
C743 H741 0.959 . S
C743 H742 0.961 . S
C743 H744 0.960 . S
H744 C743 0.960 . S
H745 N725 0.862 . S
O746 Co714 1.920 . S
O746 C719 1.289 . S
C747 O739 1.258 . S
C747 O740 1.266 . S
Co748 O751 1.970 . S
Co748 N765 1.989 . S
Co748 O773 1.967 . S
Co748 O780 1.920 . S
Co749 O752 1.966 . S
Co749 N758 2.022 . S
Co749 N766 1.993 . S
Co749 O774 1.941 . S
C750 O751 1.258 . S
C750 O752 1.263 . S
O751 Co748 1.970 . S
O751 C750 1.258 . S
O752 Co749 1.966 . S
O752 C750 1.263 . S
C753 O754 1.235 . S
C753 O780 1.289 . S
O754 C753 1.235 . S
C755 C757 1.400 . S
C755 N758 1.351 . S
C755 C760 1.501 . S
C756 C757 1.387 . S
C756 N759 1.341 . S
C757 C755 1.400 . S
C757 C756 1.387 . S
N758 Co749 2.022 . S
N758 C755 1.351 . S
N758 N759 1.365 . S
N759 C756 1.341 . S
N759 N758 1.365 . S
N759 H779 0.862 . S
C760 C755 1.501 . S
C760 H761 0.961 . S
C760 H762 0.961 . S
C760 H763 0.960 . S
H761 C760 0.961 . S
H762 C760 0.961 . S
H763 C760 0.960 . S
C764 N765 1.342 . S
C764 C768 1.401 . S
C764 C769 1.499 . S
N765 Co748 1.989 . S
N765 C764 1.342 . S
N765 N766 1.388 . S
N766 Co749 1.993 . S
N766 N765 1.388 . S
N766 C767 1.346 . S
C767 N766 1.346 . S
C767 C768 1.396 . S
C767 C777 1.510 . S
C768 C764 1.401 . S
C768 C767 1.396 . S
C769 C764 1.499 . S
C769 H770 0.959 . S
C769 H771 0.960 . S
C769 H772 0.961 . S
H770 C769 0.959 . S
H771 C769 0.960 . S
H772 C769 0.961 . S
O773 Co748 1.967 . S
O773 C781 1.258 . S
O774 Co749 1.941 . S
O774 C781 1.266 . S
H775 C777 0.959 . S
H776 C777 0.961 . S
C777 C767 1.510 . S
C777 H775 0.959 . S
C777 H776 0.961 . S
C777 H778 0.960 . S
H778 C777 0.960 . S
H779 N759 0.862 . S
O780 Co748 1.920 . S
O780 C753 1.289 . S
C781 O773 1.258 . S
C781 O774 1.266 . S
Co782 O785 1.970 . S
Co782 N799 1.989 . S
Co782 O807 1.967 . S
Co782 O814 1.920 . S
Co783 O786 1.966 . S
Co783 N792 2.022 . S
Co783 N800 1.993 . S
Co783 O808 1.941 . S
C784 O785 1.258 . S
C784 O786 1.263 . S
O785 Co782 1.970 . S
O785 C784 1.258 . S
O786 Co783 1.966 . S
O786 C784 1.263 . S
C787 O788 1.235 . S
C787 O814 1.289 . S
O788 C787 1.235 . S
C789 C791 1.400 . S
C789 N792 1.351 . S
C789 C794 1.501 . S
C790 C791 1.387 . S
C790 N793 1.341 . S
C791 C789 1.400 . S
C791 C790 1.387 . S
N792 Co783 2.022 . S
N792 C789 1.351 . S
N792 N793 1.365 . S
N793 C790 1.341 . S
N793 N792 1.365 . S
N793 H813 0.862 . S
C794 C789 1.501 . S
C794 H795 0.961 . S
C794 H796 0.961 . S
C794 H797 0.960 . S
H795 C794 0.961 . S
H796 C794 0.961 . S
H797 C794 0.960 . S
C798 N799 1.342 . S
C798 C802 1.401 . S
C798 C803 1.499 . S
N799 Co782 1.989 . S
N799 C798 1.342 . S
N799 N800 1.388 . S
N800 Co783 1.993 . S
N800 N799 1.388 . S
N800 C801 1.346 . S
C801 N800 1.346 . S
C801 C802 1.396 . S
C801 C811 1.510 . S
C802 C798 1.401 . S
C802 C801 1.396 . S
C803 C798 1.499 . S
C803 H804 0.959 . S
C803 H805 0.960 . S
C803 H806 0.961 . S
H804 C803 0.959 . S
H805 C803 0.960 . S
H806 C803 0.961 . S
O807 Co782 1.967 . S
O807 C815 1.258 . S
O808 Co783 1.941 . S
O808 C815 1.266 . S
H809 C811 0.959 . S
H810 C811 0.961 . S
C811 C801 1.510 . S
C811 H809 0.959 . S
C811 H810 0.961 . S
C811 H812 0.960 . S
H812 C811 0.960 . S
H813 N793 0.862 . S
O814 Co782 1.920 . S
O814 C787 1.289 . S
C815 O807 1.258 . S
C815 O808 1.266 . S
Co816 O819 1.970 . S
Co816 N833 1.989 . S
Co816 O841 1.967 . S
Co816 O848 1.920 . S
Co817 O820 1.966 . S
Co817 N826 2.022 . S
Co817 N834 1.993 . S
Co817 O842 1.941 . S
C818 O819 1.258 . S
C818 O820 1.263 . S
O819 Co816 1.970 . S
O819 C818 1.258 . S
O820 Co817 1.966 . S
O820 C818 1.263 . S
C821 O822 1.235 . S
C821 O848 1.289 . S
O822 C821 1.235 . S
C823 C825 1.400 . S
C823 N826 1.351 . S
C823 C828 1.501 . S
C824 C825 1.387 . S
C824 N827 1.341 . S
C825 C823 1.400 . S
C825 C824 1.387 . S
N826 Co817 2.022 . S
N826 C823 1.351 . S
N826 N827 1.365 . S
N827 C824 1.341 . S
N827 N826 1.365 . S
N827 H847 0.862 . S
C828 C823 1.501 . S
C828 H829 0.961 . S
C828 H830 0.961 . S
C828 H831 0.960 . S
H829 C828 0.961 . S
H830 C828 0.961 . S
H831 C828 0.960 . S
C832 N833 1.342 . S
C832 C836 1.401 . S
C832 C837 1.499 . S
N833 Co816 1.989 . S
N833 C832 1.342 . S
N833 N834 1.388 . S
N834 Co817 1.993 . S
N834 N833 1.388 . S
N834 C835 1.346 . S
C835 N834 1.346 . S
C835 C836 1.396 . S
C835 C845 1.510 . S
C836 C832 1.401 . S
C836 C835 1.396 . S
C837 C832 1.499 . S
C837 H838 0.959 . S
C837 H839 0.960 . S
C837 H840 0.961 . S
H838 C837 0.959 . S
H839 C837 0.960 . S
H840 C837 0.961 . S
O841 Co816 1.967 . S
O841 C849 1.258 . S
O842 Co817 1.941 . S
O842 C849 1.266 . S
H843 C845 0.959 . S
H844 C845 0.961 . S
C845 C835 1.510 . S
C845 H843 0.959 . S
C845 H844 0.961 . S
C845 H846 0.960 . S
H846 C845 0.960 . S
H847 N827 0.862 . S
O848 Co816 1.920 . S
O848 C821 1.289 . S
C849 O841 1.258 . S
C849 O842 1.266 . S
Co850 O853 1.970 . S
Co850 N867 1.989 . S
Co850 O875 1.967 . S
Co850 O882 1.920 . S
Co851 O854 1.966 . S
Co851 N860 2.022 . S
Co851 N868 1.993 . S
Co851 O876 1.941 . S
C852 O853 1.258 . S
C852 O854 1.263 . S
O853 Co850 1.970 . S
O853 C852 1.258 . S
O854 Co851 1.966 . S
O854 C852 1.263 . S
C855 O856 1.235 . S
C855 O882 1.289 . S
O856 C855 1.235 . S
C857 C859 1.400 . S
C857 N860 1.351 . S
C857 C862 1.501 . S
C858 C859 1.387 . S
C858 N861 1.341 . S
C859 C857 1.400 . S
C859 C858 1.387 . S
N860 Co851 2.022 . S
N860 C857 1.351 . S
N860 N861 1.365 . S
N861 C858 1.341 . S
N861 N860 1.365 . S
N861 H881 0.862 . S
C862 C857 1.501 . S
C862 H863 0.961 . S
C862 H864 0.961 . S
C862 H865 0.960 . S
H863 C862 0.961 . S
H864 C862 0.961 . S
H865 C862 0.960 . S
C866 N867 1.342 . S
C866 C870 1.401 . S
C866 C871 1.499 . S
N867 Co850 1.989 . S
N867 C866 1.342 . S
N867 N868 1.388 . S
N868 Co851 1.993 . S
N868 N867 1.388 . S
N868 C869 1.346 . S
C869 N868 1.346 . S
C869 C870 1.396 . S
C869 C879 1.510 . S
C870 C866 1.401 . S
C870 C869 1.396 . S
C871 C866 1.499 . S
C871 H872 0.959 . S
C871 H873 0.960 . S
C871 H874 0.961 . S
H872 C871 0.959 . S
H873 C871 0.960 . S
H874 C871 0.961 . S
O875 Co850 1.967 . S
O875 C883 1.258 . S
O876 Co851 1.941 . S
O876 C883 1.266 . S
H877 C879 0.959 . S
H878 C879 0.961 . S
C879 C869 1.510 . S
C879 H877 0.959 . S
C879 H878 0.961 . S
C879 H880 0.960 . S
H880 C879 0.960 . S
H881 N861 0.862 . S
O882 Co850 1.920 . S
O882 C855 1.289 . S
C883 O875 1.258 . S
C883 O876 1.266 . S
Co884 O887 1.970 . S
Co884 N901 1.989 . S
Co884 O909 1.967 . S
Co884 O916 1.920 . S
Co885 O888 1.966 . S
Co885 N894 2.022 . S
Co885 N902 1.993 . S
Co885 O910 1.941 . S
C886 O887 1.258 . S
C886 O888 1.263 . S
O887 Co884 1.970 . S
O887 C886 1.258 . S
O888 Co885 1.966 . S
O888 C886 1.263 . S
C889 O890 1.235 . S
C889 O916 1.289 . S
O890 C889 1.235 . S
C891 C893 1.400 . S
C891 N894 1.351 . S
C891 C896 1.501 . S
C892 C893 1.387 . S
C892 N895 1.341 . S
C893 C891 1.400 . S
C893 C892 1.387 . S
N894 Co885 2.022 . S
N894 C891 1.351 . S
N894 N895 1.365 . S
N895 C892 1.341 . S
N895 N894 1.365 . S
N895 H915 0.862 . S
C896 C891 1.501 . S
C896 H897 0.961 . S
C896 H898 0.961 . S
C896 H899 0.960 . S
H897 C896 0.961 . S
H898 C896 0.961 . S
H899 C896 0.960 . S
C900 N901 1.342 . S
C900 C904 1.401 . S
C900 C905 1.499 . S
N901 Co884 1.989 . S
N901 C900 1.342 . S
N901 N902 1.388 . S
N902 Co885 1.993 . S
N902 N901 1.388 . S
N902 C903 1.346 . S
C903 N902 1.346 . S
C903 C904 1.396 . S
C903 C913 1.510 . S
C904 C900 1.401 . S
C904 C903 1.396 . S
C905 C900 1.499 . S
C905 H906 0.959 . S
C905 H907 0.960 . S
C905 H908 0.961 . S
H906 C905 0.959 . S
H907 C905 0.960 . S
H908 C905 0.961 . S
O909 Co884 1.967 . S
O909 C917 1.258 . S
O910 Co885 1.941 . S
O910 C917 1.266 . S
H911 C913 0.959 . S
H912 C913 0.961 . S
C913 C903 1.510 . S
C913 H911 0.959 . S
C913 H912 0.961 . S
C913 H914 0.960 . S
H914 C913 0.960 . S
H915 N895 0.862 . S
O916 Co884 1.920 . S
O916 C889 1.289 . S
C917 O909 1.258 . S
C917 O910 1.266 . S
Co918 O921 1.970 . S
Co918 N935 1.989 . S
Co918 O943 1.967 . S
Co918 O950 1.920 . S
Co919 O922 1.966 . S
Co919 N928 2.022 . S
Co919 N936 1.993 . S
Co919 O944 1.941 . S
C920 O921 1.258 . S
C920 O922 1.263 . S
O921 Co918 1.970 . S
O921 C920 1.258 . S
O922 Co919 1.966 . S
O922 C920 1.263 . S
C923 O924 1.235 . S
C923 O950 1.289 . S
O924 C923 1.235 . S
C925 C927 1.400 . S
C925 N928 1.351 . S
C925 C930 1.501 . S
C926 C927 1.387 . S
C926 N929 1.341 . S
C927 C925 1.400 . S
C927 C926 1.387 . S
N928 Co919 2.022 . S
N928 C925 1.351 . S
N928 N929 1.365 . S
N929 C926 1.341 . S
N929 N928 1.365 . S
N929 H949 0.862 . S
C930 C925 1.501 . S
C930 H931 0.961 . S
C930 H932 0.961 . S
C930 H933 0.960 . S
H931 C930 0.961 . S
H932 C930 0.961 . S
H933 C930 0.960 . S
C934 N935 1.342 . S
C934 C938 1.401 . S
C934 C939 1.499 . S
N935 Co918 1.989 . S
N935 C934 1.342 . S
N935 N936 1.388 . S
N936 Co919 1.993 . S
N936 N935 1.388 . S
N936 C937 1.346 . S
C937 N936 1.346 . S
C937 C938 1.396 . S
C937 C947 1.510 . S
C938 C934 1.401 . S
C938 C937 1.396 . S
C939 C934 1.499 . S
C939 H940 0.959 . S
C939 H941 0.960 . S
C939 H942 0.961 . S
H940 C939 0.959 . S
H941 C939 0.960 . S
H942 C939 0.961 . S
O943 Co918 1.967 . S
O943 C951 1.258 . S
O944 Co919 1.941 . S
O944 C951 1.266 . S
H945 C947 0.959 . S
H946 C947 0.961 . S
C947 C937 1.510 . S
C947 H945 0.959 . S
C947 H946 0.961 . S
C947 H948 0.960 . S
H948 C947 0.960 . S
H949 N929 0.862 . S
O950 Co918 1.920 . S
O950 C923 1.289 . S
C951 O943 1.258 . S
C951 O944 1.266 . S
Co952 O955 1.970 . S
Co952 N969 1.989 . S
Co952 O977 1.967 . S
Co952 O984 1.920 . S
Co953 O956 1.966 . S
Co953 N962 2.022 . S
Co953 N970 1.993 . S
Co953 O978 1.941 . S
C954 O955 1.258 . S
C954 O956 1.263 . S
O955 Co952 1.970 . S
O955 C954 1.258 . S
O956 Co953 1.966 . S
O956 C954 1.263 . S
C957 O958 1.235 . S
C957 O984 1.289 . S
O958 C957 1.235 . S
C959 C961 1.400 . S
C959 N962 1.351 . S
C959 C964 1.501 . S
C960 C961 1.387 . S
C960 N963 1.341 . S
C961 C959 1.400 . S
C961 C960 1.387 . S
N962 Co953 2.022 . S
N962 C959 1.351 . S
N962 N963 1.365 . S
N963 C960 1.341 . S
N963 N962 1.365 . S
N963 H983 0.862 . S
C964 C959 1.501 . S
C964 H965 0.961 . S
C964 H966 0.961 . S
C964 H967 0.960 . S
H965 C964 0.961 . S
H966 C964 0.961 . S
H967 C964 0.960 . S
C968 N969 1.342 . S
C968 C972 1.401 . S
C968 C973 1.499 . S
N969 Co952 1.989 . S
N969 C968 1.342 . S
N969 N970 1.388 . S
N970 Co953 1.993 . S
N970 N969 1.388 . S
N970 C971 1.346 . S
C971 N970 1.346 . S
C971 C972 1.396 . S
C971 C981 1.510 . S
C972 C968 1.401 . S
C972 C971 1.396 . S
C973 C968 1.499 . S
C973 H974 0.959 . S
C973 H975 0.960 . S
C973 H976 0.961 . S
H974 C973 0.959 . S
H975 C973 0.960 . S
H976 C973 0.961 . S
O977 Co952 1.967 . S
O977 C985 1.258 . S
O978 Co953 1.941 . S
O978 C985 1.266 . S
H979 C981 0.959 . S
H980 C981 0.961 . S
C981 C971 1.510 . S
C981 H979 0.959 . S
C981 H980 0.961 . S
C981 H982 0.960 . S
H982 C981 0.960 . S
H983 N963 0.862 . S
O984 Co952 1.920 . S
O984 C957 1.289 . S
C985 O977 1.258 . S
C985 O978 1.266 . S
Co986 O989 1.970 . S
Co986 N1003 1.989 . S
Co986 O1011 1.967 . S
Co986 O1018 1.920 . S
Co987 O990 1.966 . S
Co987 N996 2.022 . S
Co987 N1004 1.993 . S
Co987 O1012 1.941 . S
C988 O989 1.258 . S
C988 O990 1.263 . S
O989 Co986 1.970 . S
O989 C988 1.258 . S
O990 Co987 1.966 . S
O990 C988 1.263 . S
C991 O992 1.235 . S
C991 O1018 1.289 . S
O992 C991 1.235 . S
C993 C995 1.400 . S
C993 N996 1.351 . S
C993 C998 1.501 . S
C994 C995 1.387 . S
C994 N997 1.341 . S
C995 C993 1.400 . S
C995 C994 1.387 . S
N996 Co987 2.022 . S
N996 C993 1.351 . S
N996 N997 1.365 . S
N997 C994 1.341 . S
N997 N996 1.365 . S
N997 H1017 0.862 . S
C998 C993 1.501 . S
C998 H999 0.961 . S
C998 H1000 0.961 . S
C998 H1001 0.960 . S
H999 C998 0.961 . S
H1000 C998 0.961 . S
H1001 C998 0.960 . S
C1002 N1003 1.342 . S
C1002 C1006 1.401 . S
C1002 C1007 1.499 . S
N1003 Co986 1.989 . S
N1003 C1002 1.342 . S
N1003 N1004 1.388 . S
N1004 Co987 1.993 . S
N1004 N1003 1.388 . S
N1004 C1005 1.346 . S
C1005 N1004 1.346 . S
C1005 C1006 1.396 . S
C1005 C1015 1.510 . S
C1006 C1002 1.401 . S
C1006 C1005 1.396 . S
C1007 C1002 1.499 . S
C1007 H1008 0.959 . S
C1007 H1009 0.960 . S
C1007 H1010 0.961 . S
H1008 C1007 0.959 . S
H1009 C1007 0.960 . S
H1010 C1007 0.961 . S
O1011 Co986 1.967 . S
O1011 C1019 1.258 . S
O1012 Co987 1.941 . S
O1012 C1019 1.266 . S
H1013 C1015 0.959 . S
H1014 C1015 0.961 . S
C1015 C1005 1.510 . S
C1015 H1013 0.959 . S
C1015 H1014 0.961 . S
C1015 H1016 0.960 . S
H1016 C1015 0.960 . S
H1017 N997 0.862 . S
O1018 Co986 1.920 . S
O1018 C991 1.289 . S
C1019 O1011 1.258 . S
C1019 O1012 1.266 . S
Co1020 O1023 1.970 . S
Co1020 N1037 1.989 . S
Co1020 O1045 1.967 . S
Co1020 O1052 1.920 . S
Co1021 O1024 1.966 . S
Co1021 N1030 2.022 . S
Co1021 N1038 1.993 . S
Co1021 O1046 1.941 . S
C1022 O1023 1.258 . S
C1022 O1024 1.263 . S
O1023 Co1020 1.970 . S
O1023 C1022 1.258 . S
O1024 Co1021 1.966 . S
O1024 C1022 1.263 . S
C1025 O1026 1.235 . S
C1025 O1052 1.289 . S
O1026 C1025 1.235 . S
C1027 C1029 1.400 . S
C1027 N1030 1.351 . S
C1027 C1032 1.501 . S
C1028 C1029 1.387 . S
C1028 N1031 1.341 . S
C1029 C1027 1.400 . S
C1029 C1028 1.387 . S
N1030 Co1021 2.022 . S
N1030 C1027 1.351 . S
N1030 N1031 1.365 . S
N1031 C1028 1.341 . S
N1031 N1030 1.365 . S
N1031 H1051 0.862 . S
C1032 C1027 1.501 . S
C1032 H1033 0.961 . S
C1032 H1034 0.961 . S
C1032 H1035 0.960 . S
H1033 C1032 0.961 . S
H1034 C1032 0.961 . S
H1035 C1032 0.960 . S
C1036 N1037 1.342 . S
C1036 C1040 1.401 . S
C1036 C1041 1.499 . S
N1037 Co1020 1.989 . S
N1037 C1036 1.342 . S
N1037 N1038 1.388 . S
N1038 Co1021 1.993 . S
N1038 N1037 1.388 . S
N1038 C1039 1.346 . S
C1039 N1038 1.346 . S
C1039 C1040 1.396 . S
C1039 C1049 1.510 . S
C1040 C1036 1.401 . S
C1040 C1039 1.396 . S
C1041 C1036 1.499 . S
C1041 H1042 0.959 . S
C1041 H1043 0.960 . S
C1041 H1044 0.961 . S
H1042 C1041 0.959 . S
H1043 C1041 0.960 . S
H1044 C1041 0.961 . S
O1045 Co1020 1.967 . S
O1045 C1053 1.258 . S
O1046 Co1021 1.941 . S
O1046 C1053 1.266 . S
H1047 C1049 0.959 . S
H1048 C1049 0.961 . S
C1049 C1039 1.510 . S
C1049 H1047 0.959 . S
C1049 H1048 0.961 . S
C1049 H1050 0.960 . S
H1050 C1049 0.960 . S
H1051 N1031 0.862 . S
O1052 Co1020 1.920 . S
O1052 C1025 1.289 . S
C1053 O1045 1.258 . S
C1053 O1046 1.266 . S
Co1054 O1057 1.970 . S
Co1054 N1071 1.989 . S
Co1054 O1079 1.967 . S
Co1054 O1086 1.920 . S
Co1055 O1058 1.966 . S
Co1055 N1064 2.022 . S
Co1055 N1072 1.993 . S
Co1055 O1080 1.941 . S
C1056 O1057 1.258 . S
C1056 O1058 1.263 . S
O1057 Co1054 1.970 . S
O1057 C1056 1.258 . S
O1058 Co1055 1.966 . S
O1058 C1056 1.263 . S
C1059 O1060 1.235 . S
C1059 O1086 1.289 . S
O1060 C1059 1.235 . S
C1061 C1063 1.400 . S
C1061 N1064 1.351 . S
C1061 C1066 1.501 . S
C1062 C1063 1.387 . S
C1062 N1065 1.341 . S
C1063 C1061 1.400 . S
C1063 C1062 1.387 . S
N1064 Co1055 2.022 . S
N1064 C1061 1.351 . S
N1064 N1065 1.365 . S
N1065 C1062 1.341 . S
N1065 N1064 1.365 . S
N1065 H1085 0.862 . S
C1066 C1061 1.501 . S
C1066 H1067 0.961 . S
C1066 H1068 0.961 . S
C1066 H1069 0.960 . S
H1067 C1066 0.961 . S
H1068 C1066 0.961 . S
H1069 C1066 0.960 . S
C1070 N1071 1.342 . S
C1070 C1074 1.401 . S
C1070 C1075 1.499 . S
N1071 Co1054 1.989 . S
N1071 C1070 1.342 . S
N1071 N1072 1.388 . S
N1072 Co1055 1.993 . S
N1072 N1071 1.388 . S
N1072 C1073 1.346 . S
C1073 N1072 1.346 . S
C1073 C1074 1.396 . S
C1073 C1083 1.510 . S
C1074 C1070 1.401 . S
C1074 C1073 1.396 . S
C1075 C1070 1.499 . S
C1075 H1076 0.959 . S
C1075 H1077 0.960 . S
C1075 H1078 0.961 . S
H1076 C1075 0.959 . S
H1077 C1075 0.960 . S
H1078 C1075 0.961 . S
O1079 Co1054 1.967 . S
O1079 C1087 1.258 . S
O1080 Co1055 1.941 . S
O1080 C1087 1.266 . S
H1081 C1083 0.959 . S
H1082 C1083 0.961 . S
C1083 C1073 1.510 . S
C1083 H1081 0.959 . S
C1083 H1082 0.961 . S
C1083 H1084 0.960 . S
H1084 C1083 0.960 . S
H1085 N1065 0.862 . S
O1086 Co1054 1.920 . S
O1086 C1059 1.289 . S
C1087 O1079 1.258 . S
C1087 O1080 1.266 . S
C1088 C1089 1.387 . S
C1088 H1092 0.950 . S
C1088 C1097 1.390 1_545 S
C1089 C1088 1.387 . S
C1089 C1091 1.387 . S
H1090 C1097 0.950 . S
C1091 C1089 1.387 . S
C1091 C1093 1.390 1_545 S
C1091 H1095 0.950 . S
H1092 C1088 0.950 . S
C1093 C1091 1.390 1_565 S
C1093 C1094 1.387 . S
C1093 H1096 0.950 . S
C1094 C1093 1.387 . S
C1094 C1097 1.387 . S
H1095 C1091 0.950 . S
H1096 C1093 0.950 . S
C1097 C1088 1.390 1_565 S
C1097 H1090 0.950 . S
C1097 C1094 1.387 . S
C1098 C1099 1.387 . S
C1098 H1102 0.950 . S
C1098 C1107 1.390 . S
C1099 C1098 1.387 . S
C1099 C1101 1.387 . S
H1100 C1107 0.950 . S
C1101 C1099 1.387 . S
C1101 C1103 1.390 . S
C1101 H1105 0.950 . S
H1102 C1098 0.950 . S
C1103 C1101 1.390 . S
C1103 C1104 1.387 . S
C1103 H1106 0.950 . S
C1104 C1103 1.387 . S
C1104 C1107 1.387 . S
H1105 C1101 0.950 . S
H1106 C1103 0.950 . S
C1107 C1098 1.390 . S
C1107 H1100 0.950 . S
C1107 C1104 1.387 . S
C1108 C1109 1.387 . S
C1108 H1112 0.950 . S
C1108 C1117 1.390 1_545 S
C1109 C1108 1.387 . S
C1109 C1111 1.387 . S
H1110 C1117 0.950 . S
C1111 C1109 1.387 . S
C1111 C1113 1.390 1_545 S
C1111 H1115 0.950 . S
H1112 C1108 0.950 . S
C1113 C1111 1.390 1_565 S
C1113 C1114 1.387 . S
C1113 H1116 0.950 . S
C1114 C1113 1.387 . S
C1114 C1117 1.387 . S
H1115 C1111 0.950 . S
H1116 C1113 0.950 . S
C1117 C1108 1.390 1_565 S
C1117 H1110 0.950 . S
C1117 C1114 1.387 . S
C1118 C1119 1.387 . S
C1118 H1122 0.950 . S
C1118 C1127 1.390 1_556 S
C1119 C1118 1.387 . S
C1119 C1121 1.387 . S
H1120 C1127 0.950 . S
C1121 C1119 1.387 . S
C1121 C1123 1.390 1_556 S
C1121 H1125 0.950 . S
H1122 C1118 0.950 . S
C1123 C1121 1.390 1_554 S
C1123 C1124 1.387 . S
C1123 H1126 0.950 . S
C1124 C1123 1.387 . S
C1124 C1127 1.387 . S
H1125 C1121 0.950 . S
H1126 C1123 0.950 . S
C1127 C1118 1.390 1_554 S
C1127 H1120 0.950 . S
C1127 C1124 1.387 . S
C1128 C1129 1.387 . S
C1128 H1132 0.950 . S
C1128 C1137 1.390 1_545 S
C1129 C1128 1.387 . S
C1129 C1131 1.387 . S
H1130 C1137 0.950 . S
C1131 C1129 1.387 . S
C1131 C1133 1.390 1_545 S
C1131 H1135 0.950 . S
H1132 C1128 0.950 . S
C1133 C1131 1.390 1_565 S
C1133 C1134 1.387 . S
C1133 H1136 0.950 . S
C1134 C1133 1.387 . S
C1134 C1137 1.387 . S
H1135 C1131 0.950 . S
H1136 C1133 0.950 . S
C1137 C1128 1.390 1_565 S
C1137 H1130 0.950 . S
C1137 C1134 1.387 . S
C1138 C1139 1.387 . S
C1138 H1142 0.950 . S
C1138 C1147 1.390 . S
C1139 C1138 1.387 . S
C1139 C1141 1.387 . S
H1140 C1147 0.950 . S
C1141 C1139 1.387 . S
C1141 C1143 1.390 . S
C1141 H1145 0.950 . S
H1142 C1138 0.950 . S
C1143 C1141 1.390 . S
C1143 C1144 1.387 . S
C1143 H1146 0.950 . S
C1144 C1143 1.387 . S
C1144 C1147 1.387 . S
H1145 C1141 0.950 . S
H1146 C1143 0.950 . S
C1147 C1138 1.390 . S
C1147 H1140 0.950 . S
C1147 C1144 1.387 . S
C1148 C1149 1.387 . S
C1148 H1152 0.950 . S
C1148 C1157 1.390 1_565 S
C1149 C1148 1.387 . S
C1149 C1151 1.387 . S
H1150 C1157 0.950 . S
C1151 C1149 1.387 . S
C1151 C1153 1.390 1_565 S
C1151 H1155 0.950 . S
H1152 C1148 0.950 . S
C1153 C1151 1.390 1_545 S
C1153 C1154 1.387 . S
C1153 H1156 0.950 . S
C1154 C1153 1.387 . S
C1154 C1157 1.387 . S
H1155 C1151 0.950 . S
H1156 C1153 0.950 . S
C1157 C1148 1.390 1_545 S
C1157 H1150 0.950 . S
C1157 C1154 1.387 . S
C1158 C1159 1.387 . S
C1158 H1162 0.950 . S
C1158 C1167 1.390 1_556 S
C1159 C1158 1.387 . S
C1159 C1161 1.387 . S
H1160 C1167 0.950 . S
C1161 C1159 1.387 . S
C1161 C1163 1.390 1_556 S
C1161 H1165 0.950 . S
H1162 C1158 0.950 . S
C1163 C1161 1.390 1_554 S
C1163 C1164 1.387 . S
C1163 H1166 0.950 . S
C1164 C1163 1.387 . S
C1164 C1167 1.387 . S
H1165 C1161 0.950 . S
H1166 C1163 0.950 . S
C1167 C1158 1.390 1_554 S
C1167 H1160 0.950 . S
C1167 C1164 1.387 . S
C1168 C1169 1.387 . S
C1168 H1172 0.950 . S
C1168 C1177 1.390 . S
C1169 C1168 1.387 . S
C1169 C1171 1.387 . S
H1170 C1177 0.950 . S
C1171 C1169 1.387 . S
C1171 C1173 1.390 . S
C1171 H1175 0.950 . S
H1172 C1168 0.950 . S
C1173 C1171 1.390 . S
C1173 C1174 1.387 . S
C1173 H1176 0.950 . S
C1174 C1173 1.387 . S
C1174 C1177 1.387 . S
H1175 C1171 0.950 . S
H1176 C1173 0.950 . S
C1177 C1168 1.390 . S
C1177 H1170 0.950 . S
C1177 C1174 1.387 . S
C1178 C1179 1.387 . S
C1178 H1182 0.950 . S
C1178 C1187 1.390 1_556 S
C1179 C1178 1.387 . S
C1179 C1181 1.387 . S
H1180 C1187 0.950 . S
C1181 C1179 1.387 . S
C1181 C1183 1.390 1_556 S
C1181 H1185 0.950 . S
H1182 C1178 0.950 . S
C1183 C1181 1.390 1_554 S
C1183 C1184 1.387 . S
C1183 H1186 0.950 . S
C1184 C1183 1.387 . S
C1184 C1187 1.387 . S
H1185 C1181 0.950 . S
H1186 C1183 0.950 . S
C1187 C1178 1.390 1_554 S
C1187 H1180 0.950 . S
C1187 C1184 1.387 . S
C1188 C1189 1.387 . S
C1188 H1192 0.950 . S
C1188 C1197 1.390 . S
C1189 C1188 1.387 . S
C1189 C1191 1.387 . S
H1190 C1197 0.950 . S
C1191 C1189 1.387 . S
C1191 C1193 1.390 . S
C1191 H1195 0.950 . S
H1192 C1188 0.950 . S
C1193 C1191 1.390 . S
C1193 C1194 1.387 . S
C1193 H1196 0.950 . S
C1194 C1193 1.387 . S
C1194 C1197 1.387 . S
H1195 C1191 0.950 . S
H1196 C1193 0.950 . S
C1197 C1188 1.390 . S
C1197 H1190 0.950 . S
C1197 C1194 1.387 . S
C1198 C1199 1.387 . S
C1198 H1202 0.950 . S
C1198 C1207 1.390 . S
C1199 C1198 1.387 . S
C1199 C1201 1.387 . S
H1200 C1207 0.950 . S
C1201 C1199 1.387 . S
C1201 C1203 1.390 . S
C1201 H1205 0.950 . S
H1202 C1198 0.950 . S
C1203 C1201 1.390 . S
C1203 C1204 1.387 . S
C1203 H1206 0.950 . S
C1204 C1203 1.387 . S
C1204 C1207 1.387 . S
H1205 C1201 0.950 . S
H1206 C1203 0.950 . S
C1207 C1198 1.390 . S
C1207 H1200 0.950 . S
C1207 C1204 1.387 . S
C1208 C1209 1.387 . S
C1208 H1212 0.950 . S
C1208 C1217 1.390 . S
C1209 C1208 1.387 . S
C1209 C1211 1.387 . S
H1210 C1217 0.950 . S
C1211 C1209 1.387 . S
C1211 C1213 1.390 . S
C1211 H1215 0.950 . S
H1212 C1208 0.950 . S
C1213 C1211 1.390 . S
C1213 C1214 1.387 . S
C1213 H1216 0.950 . S
C1214 C1213 1.387 . S
C1214 C1217 1.387 . S
H1215 C1211 0.950 . S
H1216 C1213 0.950 . S
C1217 C1208 1.390 . S
C1217 H1210 0.950 . S
C1217 C1214 1.387 . S
C1218 C1219 1.387 . S
C1218 H1222 0.950 . S
C1218 C1227 1.390 1_554 S
C1219 C1218 1.387 . S
C1219 C1221 1.387 . S
H1220 C1227 0.950 . S
C1221 C1219 1.387 . S
C1221 C1223 1.390 1_554 S
C1221 H1225 0.950 . S
H1222 C1218 0.950 . S
C1223 C1221 1.390 1_556 S
C1223 C1224 1.387 . S
C1223 H1226 0.950 . S
C1224 C1223 1.387 . S
C1224 C1227 1.387 . S
H1225 C1221 0.950 . S
H1226 C1223 0.950 . S
C1227 C1218 1.390 1_556 S
C1227 H1220 0.950 . S
C1227 C1224 1.387 . S
C1228 C1229 1.387 . S
C1228 H1232 0.950 . S
C1228 C1237 1.390 . S
C1229 C1228 1.387 . S
C1229 C1231 1.387 . S
H1230 C1237 0.950 . S
C1231 C1229 1.387 . S
C1231 C1233 1.390 . S
C1231 H1235 0.950 . S
H1232 C1228 0.950 . S
C1233 C1231 1.390 . S
C1233 C1234 1.387 . S
C1233 H1236 0.950 . S
C1234 C1233 1.387 . S
C1234 C1237 1.387 . S
H1235 C1231 0.950 . S
H1236 C1233 0.950 . S
C1237 C1228 1.390 . S
C1237 H1230 0.950 . S
C1237 C1234 1.387 . S
C1238 C1239 1.387 . S
C1238 H1242 0.950 . S
C1238 C1247 1.390 . S
C1239 C1238 1.387 . S
C1239 C1241 1.387 . S
H1240 C1247 0.950 . S
C1241 C1239 1.387 . S
C1241 C1243 1.390 . S
C1241 H1245 0.950 . S
H1242 C1238 0.950 . S
C1243 C1241 1.390 . S
C1243 C1244 1.387 . S
C1243 H1246 0.950 . S
C1244 C1243 1.387 . S
C1244 C1247 1.387 . S
H1245 C1241 0.950 . S
H1246 C1243 0.950 . S
C1247 C1238 1.390 . S
C1247 H1240 0.950 . S
C1247 C1244 1.387 . S
C1248 C1249 1.387 . S
C1248 H1252 0.950 . S
C1248 C1257 1.390 1_455 S
C1249 C1248 1.387 . S
C1249 C1251 1.387 . S
H1250 C1257 0.950 . S
C1251 C1249 1.387 . S
C1251 C1253 1.390 1_455 S
C1251 H1255 0.950 . S
H1252 C1248 0.950 . S
C1253 C1251 1.390 1_655 S
C1253 C1254 1.387 . S
C1253 H1256 0.950 . S
C1254 C1253 1.387 . S
C1254 C1257 1.387 . S
H1255 C1251 0.950 . S
H1256 C1253 0.950 . S
C1257 C1248 1.390 1_655 S
C1257 H1250 0.950 . S
C1257 C1254 1.387 . S
C1258 C1259 1.387 . S
C1258 H1262 0.950 . S
C1258 C1267 1.390 1_455 S
C1259 C1258 1.387 . S
C1259 C1261 1.387 . S
H1260 C1267 0.950 . S
C1261 C1259 1.387 . S
C1261 C1263 1.390 1_455 S
C1261 H1265 0.950 . S
H1262 C1258 0.950 . S
C1263 C1261 1.390 1_655 S
C1263 C1264 1.387 . S
C1263 H1266 0.950 . S
C1264 C1263 1.387 . S
C1264 C1267 1.387 . S
H1265 C1261 0.950 . S
H1266 C1263 0.950 . S
C1267 C1258 1.390 1_655 S
C1267 H1260 0.950 . S
C1267 C1264 1.387 . S
C1268 C1269 1.387 . S
C1268 H1272 0.950 . S
C1268 C1277 1.390 . S
C1269 C1268 1.387 . S
C1269 C1271 1.387 . S
H1270 C1277 0.950 . S
C1271 C1269 1.387 . S
C1271 C1273 1.390 . S
C1271 H1275 0.950 . S
H1272 C1268 0.950 . S
C1273 C1271 1.390 . S
C1273 C1274 1.387 . S
C1273 H1276 0.950 . S
C1274 C1273 1.387 . S
C1274 C1277 1.387 . S
H1275 C1271 0.950 . S
H1276 C1273 0.950 . S
C1277 C1268 1.390 . S
C1277 H1270 0.950 . S
C1277 C1274 1.387 . S
C1278 C1279 1.387 . S
C1278 H1282 0.950 . S
C1278 C1287 1.390 . S
C1279 C1278 1.387 . S
C1279 C1281 1.387 . S
H1280 C1287 0.950 . S
C1281 C1279 1.387 . S
C1281 C1283 1.390 . S
C1281 H1285 0.950 . S
H1282 C1278 0.950 . S
C1283 C1281 1.390 . S
C1283 C1284 1.387 . S
C1283 H1286 0.950 . S
C1284 C1283 1.387 . S
C1284 C1287 1.387 . S
H1285 C1281 0.950 . S
H1286 C1283 0.950 . S
C1287 C1278 1.390 . S
C1287 H1280 0.950 . S
C1287 C1284 1.387 . S
C1288 C1289 1.387 . S
C1288 H1292 0.950 . S
C1288 C1297 1.390 1_455 S
C1289 C1288 1.387 . S
C1289 C1291 1.387 . S
H1290 C1297 0.950 . S
C1291 C1289 1.387 . S
C1291 C1293 1.390 1_455 S
C1291 H1295 0.950 . S
H1292 C1288 0.950 . S
C1293 C1291 1.390 1_655 S
C1293 C1294 1.387 . S
C1293 H1296 0.950 . S
C1294 C1293 1.387 . S
C1294 C1297 1.387 . S
H1295 C1291 0.950 . S
H1296 C1293 0.950 . S
C1297 C1288 1.390 1_655 S
C1297 H1290 0.950 . S
C1297 C1294 1.387 . S
C1298 C1299 1.387 . S
C1298 H1302 0.950 . S
C1298 C1307 1.390 . S
C1299 C1298 1.387 . S
C1299 C1301 1.387 . S
H1300 C1307 0.950 . S
C1301 C1299 1.387 . S
C1301 C1303 1.390 . S
C1301 H1305 0.950 . S
H1302 C1298 0.950 . S
C1303 C1301 1.390 . S
C1303 C1304 1.387 . S
C1303 H1306 0.950 . S
C1304 C1303 1.387 . S
C1304 C1307 1.387 . S
H1305 C1301 0.950 . S
H1306 C1303 0.950 . S
C1307 C1298 1.390 . S
C1307 H1300 0.950 . S
C1307 C1304 1.387 . S
C1308 C1309 1.387 . S
C1308 H1312 0.950 . S
C1308 C1317 1.390 . S
C1309 C1308 1.387 . S
C1309 C1311 1.387 . S
H1310 C1317 0.950 . S
C1311 C1309 1.387 . S
C1311 C1313 1.390 . S
C1311 H1315 0.950 . S
H1312 C1308 0.950 . S
C1313 C1311 1.390 . S
C1313 C1314 1.387 . S
C1313 H1316 0.950 . S
C1314 C1313 1.387 . S
C1314 C1317 1.387 . S
H1315 C1311 0.950 . S
H1316 C1313 0.950 . S
C1317 C1308 1.390 . S
C1317 H1310 0.950 . S
C1317 C1314 1.387 . S
C1318 C1319 1.387 . S
C1318 H1322 0.950 . S
C1318 C1327 1.390 1_455 S
C1319 C1318 1.387 . S
C1319 C1321 1.387 . S
H1320 C1327 0.950 . S
C1321 C1319 1.387 . S
C1321 C1323 1.390 1_455 S
C1321 H1325 0.950 . S
H1322 C1318 0.950 . S
C1323 C1321 1.390 1_655 S
C1323 C1324 1.387 . S
C1323 H1326 0.950 . S
C1324 C1323 1.387 . S
C1324 C1327 1.387 . S
H1325 C1321 0.950 . S
H1326 C1323 0.950 . S
C1327 C1318 1.390 1_655 S
C1327 H1320 0.950 . S
C1327 C1324 1.387 . S
C1328 C1329 1.387 . S
C1328 H1332 0.950 . S
C1328 C1337 1.390 1_455 S
C1329 C1328 1.387 . S
C1329 C1331 1.387 . S
H1330 C1337 0.950 . S
C1331 C1329 1.387 . S
C1331 C1333 1.390 1_455 S
C1331 H1335 0.950 . S
H1332 C1328 0.950 . S
C1333 C1331 1.390 1_655 S
C1333 C1334 1.387 . S
C1333 H1336 0.950 . S
C1334 C1333 1.387 . S
C1334 C1337 1.387 . S
H1335 C1331 0.950 . S
H1336 C1333 0.950 . S
C1337 C1328 1.390 1_655 S
C1337 H1330 0.950 . S
C1337 C1334 1.387 . S
C1338 C1339 1.387 . S
C1338 H1342 0.950 . S
C1338 C1347 1.390 1_655 S
C1339 C1338 1.387 . S
C1339 C1341 1.387 . S
H1340 C1347 0.950 . S
C1341 C1339 1.387 . S
C1341 C1343 1.390 1_655 S
C1341 H1345 0.950 . S
H1342 C1338 0.950 . S
C1343 C1341 1.390 1_455 S
C1343 C1344 1.387 . S
C1343 H1346 0.950 . S
C1344 C1343 1.387 . S
C1344 C1347 1.387 . S
H1345 C1341 0.950 . S
H1346 C1343 0.950 . S
C1347 C1338 1.390 1_455 S
C1347 H1340 0.950 . S
C1347 C1344 1.387 . S
C1348 C1349 1.387 . S
C1348 H1352 0.950 . S
C1348 C1357 1.390 . S
C1349 C1348 1.387 . S
C1349 C1351 1.387 . S
H1350 C1357 0.950 . S
C1351 C1349 1.387 . S
C1351 C1353 1.390 . S
C1351 H1355 0.950 . S
H1352 C1348 0.950 . S
C1353 C1351 1.390 . S
C1353 C1354 1.387 . S
C1353 H1356 0.950 . S
C1354 C1353 1.387 . S
C1354 C1357 1.387 . S
H1355 C1351 0.950 . S
H1356 C1353 0.950 . S
C1357 C1348 1.390 . S
C1357 H1350 0.950 . S
C1357 C1354 1.387 . S
C1358 C1359 1.387 . S
C1358 H1362 0.950 . S
C1358 C1367 1.390 . S
C1359 C1358 1.387 . S
C1359 C1361 1.387 . S
H1360 C1367 0.950 . S
C1361 C1359 1.387 . S
C1361 C1363 1.390 . S
C1361 H1365 0.950 . S
H1362 C1358 0.950 . S
C1363 C1361 1.390 . S
C1363 C1364 1.387 . S
C1363 H1366 0.950 . S
C1364 C1363 1.387 . S
C1364 C1367 1.387 . S
H1365 C1361 0.950 . S
H1366 C1363 0.950 . S
C1367 C1358 1.390 . S
C1367 H1360 0.950 . S
C1367 C1364 1.387 . S
C1368 C1369 1.387 . S
C1368 H1372 0.950 . S
C1368 C1377 1.390 1_655 S
C1369 C1368 1.387 . S
C1369 C1371 1.387 . S
H1370 C1377 0.950 . S
C1371 C1369 1.387 . S
C1371 C1373 1.390 1_655 S
C1371 H1375 0.950 . S
H1372 C1368 0.950 . S
C1373 C1371 1.390 1_455 S
C1373 C1374 1.387 . S
C1373 H1376 0.950 . S
C1374 C1373 1.387 . S
C1374 C1377 1.387 . S
H1375 C1371 0.950 . S
H1376 C1373 0.950 . S
C1377 C1368 1.390 1_455 S
C1377 H1370 0.950 . S
C1377 C1374 1.387 . S
C1378 C1379 1.387 . S
C1378 H1382 0.950 . S
C1378 C1387 1.390 . S
C1379 C1378 1.387 . S
C1379 C1381 1.387 . S
H1380 C1387 0.950 . S
C1381 C1379 1.387 . S
C1381 C1383 1.390 . S
C1381 H1385 0.950 . S
H1382 C1378 0.950 . S
C1383 C1381 1.390 . S
C1383 C1384 1.387 . S
C1383 H1386 0.950 . S
C1384 C1383 1.387 . S
C1384 C1387 1.387 . S
H1385 C1381 0.950 . S
H1386 C1383 0.950 . S
C1387 C1378 1.390 . S
C1387 H1380 0.950 . S
C1387 C1384 1.387 . S
C1388 C1389 1.387 . S
C1388 H1392 0.950 . S
C1388 C1397 1.390 . S
C1389 C1388 1.387 . S
C1389 C1391 1.387 . S
H1390 C1397 0.950 . S
C1391 C1389 1.387 . S
C1391 C1393 1.390 . S
C1391 H1395 0.950 . S
H1392 C1388 0.950 . S
C1393 C1391 1.390 . S
C1393 C1394 1.387 . S
C1393 H1396 0.950 . S
C1394 C1393 1.387 . S
C1394 C1397 1.387 . S
H1395 C1391 0.950 . S
H1396 C1393 0.950 . S
C1397 C1388 1.390 . S
C1397 H1390 0.950 . S
C1397 C1394 1.387 . S
C1398 C1399 1.387 . S
C1398 H1402 0.950 . S
C1398 C1407 1.390 1_655 S
C1399 C1398 1.387 . S
C1399 C1401 1.387 . S
H1400 C1407 0.950 . S
C1401 C1399 1.387 . S
C1401 C1403 1.390 1_655 S
C1401 H1405 0.950 . S
H1402 C1398 0.950 . S
C1403 C1401 1.390 1_455 S
C1403 C1404 1.387 . S
C1403 H1406 0.950 . S
C1404 C1403 1.387 . S
C1404 C1407 1.387 . S
H1405 C1401 0.950 . S
H1406 C1403 0.950 . S
C1407 C1398 1.390 1_455 S
C1407 H1400 0.950 . S
C1407 C1404 1.387 . S
C1408 C1409 1.387 . S
C1408 H1412 0.951 . S
C1408 C1417 1.390 1_545 S
C1409 C1408 1.387 . S
C1409 C1411 1.387 . S
H1410 C1417 0.950 . S
C1411 C1409 1.387 . S
C1411 C1413 1.390 . S
C1411 H1415 0.950 . S
H1412 C1408 0.951 . S
C1413 C1411 1.390 . S
C1413 C1414 1.388 . S
C1413 H1416 0.950 . S
C1414 C1413 1.388 . S
C1414 C1417 1.387 1_545 S
H1415 C1411 0.950 . S
H1416 C1413 0.950 . S
C1417 C1408 1.390 1_565 S
C1417 H1410 0.950 . S
C1417 C1414 1.387 1_565 S
C1418 C1419 1.387 . S
C1418 H1422 0.950 . S
C1418 C1427 1.390 . S
C1419 C1418 1.387 . S
C1419 C1421 1.387 . S
H1420 C1427 0.950 . S
C1421 C1419 1.387 . S
C1421 C1423 1.390 . S
C1421 H1425 0.950 . S
H1422 C1418 0.950 . S
C1423 C1421 1.390 . S
C1423 C1424 1.387 . S
C1423 H1426 0.950 . S
C1424 C1423 1.387 . S
C1424 C1427 1.387 . S
H1425 C1421 0.950 . S
H1426 C1423 0.950 . S
C1427 C1418 1.390 . S
C1427 H1420 0.950 . S
C1427 C1424 1.387 . S
C1428 C1429 1.387 1_545 S
C1428 H1432 0.950 . S
C1428 C1437 1.390 1_545 S
C1429 C1428 1.387 1_565 S
C1429 C1431 1.388 . S
H1430 C1437 0.950 . S
C1431 C1429 1.388 . S
C1431 C1433 1.390 . S
C1431 H1435 0.950 . S
H1432 C1428 0.950 . S
C1433 C1431 1.390 . S
C1433 C1434 1.387 . S
C1433 H1436 0.950 . S
C1434 C1433 1.387 . S
C1434 C1437 1.387 . S
H1435 C1431 0.950 . S
H1436 C1433 0.950 . S
C1437 C1428 1.390 1_565 S
C1437 H1430 0.950 . S
C1437 C1434 1.387 . S
C1438 C1439 1.387 . S
C1438 H1442 0.950 . S
C1438 C1447 1.390 . S
C1439 C1438 1.387 . S
C1439 C1441 1.387 . S
H1440 C1447 0.950 . S
C1441 C1439 1.387 . S
C1441 C1443 1.390 . S
C1441 H1445 0.950 . S
H1442 C1438 0.950 . S
C1443 C1441 1.390 . S
C1443 C1444 1.387 . S
C1443 H1446 0.950 . S
C1444 C1443 1.387 . S
C1444 C1447 1.387 . S
H1445 C1441 0.950 . S
H1446 C1443 0.950 . S
C1447 C1438 1.390 . S
C1447 H1440 0.950 . S
C1447 C1444 1.387 . S
C1448 C1449 1.387 . S
C1448 H1452 0.950 . S
C1448 C1457 1.390 . S
C1449 C1448 1.387 . S
C1449 C1451 1.387 . S
H1450 C1457 0.950 . S
C1451 C1449 1.387 . S
C1451 C1453 1.390 1_565 S
C1451 H1455 0.950 1_565 S
H1452 C1448 0.950 . S
C1453 C1451 1.390 1_545 S
C1453 C1454 1.386 1_545 S
C1453 H1456 0.950 . S
C1454 C1453 1.386 1_565 S
C1454 C1457 1.391 . S
H1455 C1451 0.950 1_545 S
H1456 C1453 0.950 . S
C1457 C1448 1.390 . S
C1457 H1450 0.950 . S
C1457 C1454 1.391 . S
C1458 C1459 1.387 . S
C1458 H1462 0.950 . S
C1458 C1467 1.390 . S
C1459 C1458 1.387 . S
C1459 C1461 1.387 . S
H1460 C1467 0.950 . S
C1461 C1459 1.387 . S
C1461 C1463 1.390 . S
C1461 H1465 0.950 . S
H1462 C1458 0.950 . S
C1463 C1461 1.390 . S
C1463 C1464 1.387 . S
C1463 H1466 0.950 . S
C1464 C1463 1.387 . S
C1464 C1467 1.387 . S
H1465 C1461 0.950 . S
H1466 C1463 0.950 . S
C1467 C1458 1.390 . S
C1467 H1460 0.950 . S
C1467 C1464 1.387 . S
C1468 C1469 1.387 . S
C1468 H1472 0.950 . S
C1468 C1477 1.390 . S
C1469 C1468 1.387 . S
C1469 C1471 1.387 1_545 S
H1470 C1477 0.950 . S
C1471 C1469 1.387 1_565 S
C1471 C1473 1.390 . S
C1471 H1475 0.950 . S
H1472 C1468 0.950 . S
C1473 C1471 1.390 . S
C1473 C1474 1.382 1_565 S
C1473 H1476 0.950 . S
C1474 C1473 1.382 1_545 S
C1474 C1477 1.394 . S
H1475 C1471 0.950 . S
H1476 C1473 0.950 . S
C1477 C1468 1.390 . S
C1477 H1470 0.950 . S
C1477 C1474 1.394 . S
C1478 C1479 1.387 . S
C1478 H1482 0.950 . S
C1478 C1487 1.390 . S
C1479 C1478 1.387 . S
C1479 C1481 1.387 . S
H1480 C1487 0.950 . S
C1481 C1479 1.387 . S
C1481 C1483 1.390 . S
C1481 H1485 0.950 . S
H1482 C1478 0.950 . S
C1483 C1481 1.390 . S
C1483 C1484 1.387 . S
C1483 H1486 0.950 . S
C1484 C1483 1.387 . S
C1484 C1487 1.387 . S
H1485 C1481 0.950 . S
H1486 C1483 0.950 . S
C1487 C1478 1.390 . S
C1487 H1480 0.950 . S
C1487 C1484 1.387 . S
C1488 C1489 1.385 1_545 S
C1488 H1492 0.950 . S
C1488 C1497 1.387 1_545 S
C1489 C1488 1.385 1_565 S
C1489 C1491 1.392 . S
H1490 C1497 0.946 1_545 S
C1491 C1489 1.392 . S
C1491 C1493 1.390 . S
C1491 H1495 0.950 . S
H1492 C1488 0.950 . S
C1493 C1491 1.390 . S
C1493 C1494 1.387 . S
C1493 H1496 0.950 . S
C1494 C1493 1.387 . S
C1494 C1497 1.394 . S
H1495 C1491 0.950 . S
H1496 C1493 0.950 . S
C1497 C1488 1.387 1_565 S
C1497 H1490 0.946 1_565 S
C1497 C1494 1.394 . S
C1498 C1499 1.387 . S
C1498 H1502 0.950 . S
C1498 C1507 1.390 . S
C1499 C1498 1.387 . S
C1499 C1501 1.387 . S
H1500 C1507 0.950 . S
C1501 C1499 1.387 . S
C1501 C1503 1.390 . S
C1501 H1505 0.950 . S
H1502 C1498 0.950 . S
C1503 C1501 1.390 . S
C1503 C1504 1.387 . S
C1503 H1506 0.950 . S
C1504 C1503 1.387 . S
C1504 C1507 1.387 . S
H1505 C1501 0.950 . S
H1506 C1503 0.950 . S
C1507 C1498 1.390 . S
C1507 H1500 0.950 . S
C1507 C1504 1.387 . S
C1508 C1509 1.387 . S
C1508 H1512 0.950 . S
C1508 C1517 1.390 . S
C1509 C1508 1.387 . S
C1509 C1511 1.387 . S
H1510 C1517 0.950 . S
C1511 C1509 1.387 . S
C1511 C1513 1.390 . S
C1511 H1515 0.950 . S
H1512 C1508 0.950 . S
C1513 C1511 1.390 . S
C1513 C1514 1.387 . S
C1513 H1516 0.950 1_545 S
C1514 C1513 1.387 . S
C1514 C1517 1.388 . S
H1515 C1511 0.950 . S
H1516 C1513 0.950 1_565 S
C1517 C1508 1.390 . S
C1517 H1510 0.950 . S
C1517 C1514 1.388 . S
C1518 C1519 1.387 . S
C1518 H1522 0.950 . S
C1518 C1527 1.390 . S
C1519 C1518 1.387 . S
C1519 C1521 1.387 . S
H1520 C1527 0.950 . S
C1521 C1519 1.387 . S
C1521 C1523 1.390 . S
C1521 H1525 0.950 . S
H1522 C1518 0.950 . S
C1523 C1521 1.390 . S
C1523 C1524 1.387 . S
C1523 H1526 0.950 . S
C1524 C1523 1.387 . S
C1524 C1527 1.387 . S
H1525 C1521 0.950 . S
H1526 C1523 0.950 . S
C1527 C1518 1.390 . S
C1527 H1520 0.950 . S
C1527 C1524 1.387 . S
C1528 C1529 1.387 . S
C1528 H1532 0.950 . S
C1528 C1537 1.390 . S
C1529 C1528 1.387 . S
C1529 C1531 1.387 1_545 S
H1530 C1537 0.950 . S
C1531 C1529 1.387 1_565 S
C1531 C1533 1.390 . S
C1531 H1535 0.950 . S
H1532 C1528 0.950 . S
C1533 C1531 1.390 . S
C1533 C1534 1.387 1_565 S
C1533 H1536 0.950 . S
C1534 C1533 1.387 1_545 S
C1534 C1537 1.388 . S
H1535 C1531 0.950 . S
H1536 C1533 0.950 . S
C1537 C1528 1.390 . S
C1537 H1530 0.950 . S
C1537 C1534 1.388 . S
C1538 C1539 1.387 . S
C1538 H1542 0.950 . S
C1538 C1547 1.390 . S
C1539 C1538 1.387 . S
C1539 C1541 1.387 . S
H1540 C1547 0.950 . S
C1541 C1539 1.387 . S
C1541 C1543 1.390 . S
C1541 H1545 0.950 . S
H1542 C1538 0.950 . S
C1543 C1541 1.390 . S
C1543 C1544 1.387 . S
C1543 H1546 0.950 . S
C1544 C1543 1.387 . S
C1544 C1547 1.387 . S
H1545 C1541 0.950 . S
H1546 C1543 0.950 . S
C1547 C1538 1.390 . S
C1547 H1540 0.950 . S
C1547 C1544 1.387 . S
C1548 C1549 1.387 1_545 S
C1548 H1552 0.950 . S
C1548 C1557 1.390 . S
C1549 C1548 1.387 1_565 S
C1549 C1551 1.387 . S
H1550 C1557 0.950 . S
C1551 C1549 1.387 . S
C1551 C1553 1.390 . S
C1551 H1555 0.950 . S
H1552 C1548 0.950 . S
C1553 C1551 1.390 . S
C1553 C1554 1.396 . S
C1553 H1556 0.950 . S
C1554 C1553 1.396 . S
C1554 C1557 1.381 1_565 S
H1555 C1551 0.950 . S
H1556 C1553 0.950 . S
C1557 C1548 1.390 . S
C1557 H1550 0.950 . S
C1557 C1554 1.381 1_545 S
C1558 C1559 1.387 . S
C1558 H1562 0.950 . S
C1558 C1567 1.390 . S
C1559 C1558 1.387 . S
C1559 C1561 1.387 . S
H1560 C1567 0.950 . S
C1561 C1559 1.387 . S
C1561 C1563 1.390 . S
C1561 H1565 0.950 . S
H1562 C1558 0.950 . S
C1563 C1561 1.390 . S
C1563 C1564 1.387 . S
C1563 H1566 0.950 . S
C1564 C1563 1.387 . S
C1564 C1567 1.387 . S
H1565 C1561 0.950 . S
H1566 C1563 0.950 . S
C1567 C1558 1.390 . S
C1567 H1560 0.950 . S
C1567 C1564 1.387 . S
C1568 C1569 1.387 . S
C1568 H1572 0.950 . S
C1568 C1577 1.390 . S
C1569 C1568 1.387 . S
C1569 C1571 1.387 . S
H1570 C1577 0.950 . S
C1571 C1569 1.387 . S
C1571 C1573 1.390 . S
C1571 H1575 0.950 . S
H1572 C1568 0.950 . S
C1573 C1571 1.390 . S
C1573 C1574 1.387 . S
C1573 H1576 0.950 . S
C1574 C1573 1.387 . S
C1574 C1577 1.387 . S
H1575 C1571 0.950 . S
H1576 C1573 0.950 . S
C1577 C1568 1.390 . S
C1577 H1570 0.950 . S
C1577 C1574 1.387 . S
C1578 C1579 1.387 . S
C1578 H1582 0.950 . S
C1578 C1587 1.390 . S
C1579 C1578 1.387 . S
C1579 C1581 1.387 . S
H1580 C1587 0.950 . S
C1581 C1579 1.387 . S
C1581 C1583 1.390 . S
C1581 H1585 0.950 . S
H1582 C1578 0.950 . S
C1583 C1581 1.390 . S
C1583 C1584 1.387 . S
C1583 H1586 0.950 . S
C1584 C1583 1.387 . S
C1584 C1587 1.387 . S
H1585 C1581 0.950 . S
H1586 C1583 0.950 . S
C1587 C1578 1.390 . S
C1587 H1580 0.950 . S
C1587 C1584 1.387 . S
C1588 C1589 1.387 . S
C1588 H1592 0.950 . S
C1588 C1597 1.390 . S
C1589 C1588 1.387 . S
C1589 C1591 1.387 . S
H1590 C1597 0.950 . S
C1591 C1589 1.387 . S
C1591 C1593 1.390 . S
C1591 H1595 0.950 . S
H1592 C1588 0.950 . S
C1593 C1591 1.390 . S
C1593 C1594 1.387 . S
C1593 H1596 0.950 . S
C1594 C1593 1.387 . S
C1594 C1597 1.387 . S
H1595 C1591 0.950 . S
H1596 C1593 0.950 . S
C1597 C1588 1.390 . S
C1597 H1590 0.950 . S
C1597 C1594 1.387 . S
C1598 C1599 1.387 . S
C1598 H1602 0.950 . S
C1598 C1607 1.390 . S
C1599 C1598 1.387 . S
C1599 C1601 1.387 . S
H1600 C1607 0.950 . S
C1601 C1599 1.387 . S
C1601 C1603 1.390 . S
C1601 H1605 0.950 . S
H1602 C1598 0.950 . S
C1603 C1601 1.390 . S
C1603 C1604 1.387 . S
C1603 H1606 0.950 . S
C1604 C1603 1.387 . S
C1604 C1607 1.387 . S
H1605 C1601 0.950 . S
H1606 C1603 0.950 . S
C1607 C1598 1.390 . S
C1607 H1600 0.950 . S
C1607 C1604 1.387 . S
C1608 C1609 1.387 . S
C1608 H1612 0.950 . S
C1608 C1617 1.390 . S
C1609 C1608 1.387 . S
C1609 C1611 1.387 . S
H1610 C1617 0.950 . S
C1611 C1609 1.387 . S
C1611 C1613 1.390 . S
C1611 H1615 0.950 . S
H1612 C1608 0.950 . S
C1613 C1611 1.390 . S
C1613 C1614 1.387 . S
C1613 H1616 0.950 . S
C1614 C1613 1.387 . S
C1614 C1617 1.387 . S
H1615 C1611 0.950 . S
H1616 C1613 0.950 . S
C1617 C1608 1.390 . S
C1617 H1610 0.950 . S
C1617 C1614 1.387 . S
C1618 C1619 1.387 . S
C1618 H1622 0.950 . S
C1618 C1627 1.390 . S
C1619 C1618 1.387 . S
C1619 C1621 1.387 . S
H1620 C1627 0.950 . S
C1621 C1619 1.387 . S
C1621 C1623 1.390 . S
C1621 H1625 0.950 . S
H1622 C1618 0.950 . S
C1623 C1621 1.390 . S
C1623 C1624 1.387 . S
C1623 H1626 0.950 . S
C1624 C1623 1.387 . S
C1624 C1627 1.387 . S
H1625 C1621 0.950 . S
H1626 C1623 0.950 . S
C1627 C1618 1.390 . S
C1627 H1620 0.950 . S
C1627 C1624 1.387 . S
C1628 C1629 1.387 . S
C1628 H1632 0.950 . S
C1628 C1637 1.390 . S
C1629 C1628 1.387 . S
C1629 C1631 1.387 . S
H1630 C1637 0.950 . S
C1631 C1629 1.387 . S
C1631 C1633 1.390 . S
C1631 H1635 0.950 . S
H1632 C1628 0.950 . S
C1633 C1631 1.390 . S
C1633 C1634 1.387 . S
C1633 H1636 0.950 . S
C1634 C1633 1.387 . S
C1634 C1637 1.387 . S
H1635 C1631 0.950 . S
H1636 C1633 0.950 . S
C1637 C1628 1.390 . S
C1637 H1630 0.950 . S
C1637 C1634 1.387 . S
C1638 C1639 1.387 . S
C1638 H1642 0.950 . S
C1638 C1647 1.390 . S
C1639 C1638 1.387 . S
C1639 C1641 1.387 . S
H1640 C1647 0.950 . S
C1641 C1639 1.387 . S
C1641 C1643 1.390 . S
C1641 H1645 0.950 . S
H1642 C1638 0.950 . S
C1643 C1641 1.390 . S
C1643 C1644 1.387 . S
C1643 H1646 0.950 . S
C1644 C1643 1.387 . S
C1644 C1647 1.387 . S
H1645 C1641 0.950 . S
H1646 C1643 0.950 . S
C1647 C1638 1.390 . S
C1647 H1640 0.950 . S
C1647 C1644 1.387 . S
C1648 C1649 1.387 . S
C1648 H1652 0.950 . S
C1648 C1657 1.390 . S
C1649 C1648 1.387 . S
C1649 C1651 1.387 . S
H1650 C1657 0.950 . S
C1651 C1649 1.387 . S
C1651 C1653 1.390 . S
C1651 H1655 0.950 . S
H1652 C1648 0.950 . S
C1653 C1651 1.390 . S
C1653 C1654 1.387 . S
C1653 H1656 0.950 . S
C1654 C1653 1.387 . S
C1654 C1657 1.387 . S
H1655 C1651 0.950 . S
H1656 C1653 0.950 . S
C1657 C1648 1.390 . S
C1657 H1650 0.950 . S
C1657 C1654 1.387 . S
C1658 C1659 1.387 . S
C1658 H1662 0.950 . S
C1658 C1667 1.390 . S
C1659 C1658 1.387 . S
C1659 C1661 1.387 . S
H1660 C1667 0.950 . S
C1661 C1659 1.387 . S
C1661 C1663 1.390 . S
C1661 H1665 0.950 . S
H1662 C1658 0.950 . S
C1663 C1661 1.390 . S
C1663 C1664 1.387 . S
C1663 H1666 0.950 . S
C1664 C1663 1.387 . S
C1664 C1667 1.387 . S
H1665 C1661 0.950 . S
H1666 C1663 0.950 . S
C1667 C1658 1.390 . S
C1667 H1660 0.950 . S
C1667 C1664 1.387 . S
C1668 C1669 1.387 . S
C1668 H1672 0.950 . S
C1668 C1677 1.390 . S
C1669 C1668 1.387 . S
C1669 C1671 1.387 . S
H1670 C1677 0.950 . S
C1671 C1669 1.387 . S
C1671 C1673 1.390 . S
C1671 H1675 0.950 . S
H1672 C1668 0.950 . S
C1673 C1671 1.390 . S
C1673 C1674 1.387 . S
C1673 H1676 0.950 . S
C1674 C1673 1.387 . S
C1674 C1677 1.387 . S
H1675 C1671 0.950 . S
H1676 C1673 0.950 . S
C1677 C1668 1.390 . S
C1677 H1670 0.950 . S
C1677 C1674 1.387 . S
C1678 C1679 1.387 . S
C1678 H1682 0.950 . S
C1678 C1687 1.390 . S
C1679 C1678 1.387 . S
C1679 C1681 1.387 . S
H1680 C1687 0.950 . S
C1681 C1679 1.387 . S
C1681 C1683 1.390 . S
C1681 H1685 0.950 . S
H1682 C1678 0.950 . S
C1683 C1681 1.390 . S
C1683 C1684 1.387 . S
C1683 H1686 0.950 . S
C1684 C1683 1.387 . S
C1684 C1687 1.387 . S
H1685 C1681 0.950 . S
H1686 C1683 0.950 . S
C1687 C1678 1.390 . S
C1687 H1680 0.950 . S
C1687 C1684 1.387 . S
C1688 C1689 1.387 . S
C1688 H1692 0.950 . S
C1688 C1697 1.390 . S
C1689 C1688 1.387 . S
C1689 C1691 1.387 . S
H1690 C1697 0.950 . S
C1691 C1689 1.387 . S
C1691 C1693 1.390 . S
C1691 H1695 0.950 . S
H1692 C1688 0.950 . S
C1693 C1691 1.390 . S
C1693 C1694 1.387 . S
C1693 H1696 0.950 . S
C1694 C1693 1.387 . S
C1694 C1697 1.387 . S
H1695 C1691 0.950 . S
H1696 C1693 0.950 . S
C1697 C1688 1.390 . S
C1697 H1690 0.950 . S
C1697 C1694 1.387 . S
C1698 C1699 1.387 . S
C1698 H1702 0.950 . S
C1698 C1707 1.390 . S
C1699 C1698 1.387 . S
C1699 C1701 1.387 . S
H1700 C1707 0.950 . S
C1701 C1699 1.387 . S
C1701 C1703 1.390 . S
C1701 H1705 0.950 . S
H1702 C1698 0.950 . S
C1703 C1701 1.390 . S
C1703 C1704 1.387 . S
C1703 H1706 0.950 . S
C1704 C1703 1.387 . S
C1704 C1707 1.387 . S
H1705 C1701 0.950 . S
H1706 C1703 0.950 . S
C1707 C1698 1.390 . S
C1707 H1700 0.950 . S
C1707 C1704 1.387 . S
C1708 C1709 1.387 . S
C1708 H1712 0.950 . S
C1708 C1717 1.390 . S
C1709 C1708 1.387 . S
C1709 C1711 1.387 . S
H1710 C1717 0.950 . S
C1711 C1709 1.387 . S
C1711 C1713 1.390 . S
C1711 H1715 0.950 . S
H1712 C1708 0.950 . S
C1713 C1711 1.390 . S
C1713 C1714 1.387 . S
C1713 H1716 0.950 . S
C1714 C1713 1.387 . S
C1714 C1717 1.387 . S
H1715 C1711 0.950 . S
H1716 C1713 0.950 . S
C1717 C1708 1.390 . S
C1717 H1710 0.950 . S
C1717 C1714 1.387 . S
C1718 C1719 1.387 . S
C1718 H1722 0.950 . S
C1718 C1727 1.390 . S
C1719 C1718 1.387 . S
C1719 C1721 1.387 . S
H1720 C1727 0.950 . S
C1721 C1719 1.387 . S
C1721 C1723 1.390 . S
C1721 H1725 0.950 . S
H1722 C1718 0.950 . S
C1723 C1721 1.390 . S
C1723 C1724 1.387 . S
C1723 H1726 0.950 . S
C1724 C1723 1.387 . S
C1724 C1727 1.387 . S
H1725 C1721 0.950 . S
H1726 C1723 0.950 . S
C1727 C1718 1.390 . S
C1727 H1720 0.950 . S
C1727 C1724 1.387 . S
C1728 C1729 1.387 . S
C1728 H1732 0.950 . S
C1728 C1737 1.390 . S
C1729 C1728 1.387 . S
C1729 C1731 1.387 . S
H1730 C1737 0.950 . S
C1731 C1729 1.387 . S
C1731 C1733 1.390 . S
C1731 H1735 0.950 . S
H1732 C1728 0.950 . S
C1733 C1731 1.390 . S
C1733 C1734 1.387 . S
C1733 H1736 0.950 . S
C1734 C1733 1.387 . S
C1734 C1737 1.387 . S
H1735 C1731 0.950 . S
H1736 C1733 0.950 . S
C1737 C1728 1.390 . S
C1737 H1730 0.950 . S
C1737 C1734 1.387 . S
C1738 C1739 1.387 . S
C1738 H1742 0.950 . S
C1738 C1747 1.390 . S
C1739 C1738 1.387 . S
C1739 C1741 1.387 . S
H1740 C1747 0.950 . S
C1741 C1739 1.387 . S
C1741 C1743 1.390 . S
C1741 H1745 0.950 . S
H1742 C1738 0.950 . S
C1743 C1741 1.390 . S
C1743 C1744 1.387 . S
C1743 H1746 0.950 . S
C1744 C1743 1.387 . S
C1744 C1747 1.387 . S
H1745 C1741 0.950 . S
H1746 C1743 0.950 . S
C1747 C1738 1.390 . S
C1747 H1740 0.950 . S
C1747 C1744 1.387 . S
C1748 C1749 1.387 . S
C1748 H1752 0.950 . S
C1748 C1757 1.390 . S
C1749 C1748 1.387 . S
C1749 C1751 1.387 . S
H1750 C1757 0.950 . S
C1751 C1749 1.387 . S
C1751 C1753 1.390 . S
C1751 H1755 0.950 . S
H1752 C1748 0.950 . S
C1753 C1751 1.390 . S
C1753 C1754 1.387 . S
C1753 H1756 0.950 . S
C1754 C1753 1.387 . S
C1754 C1757 1.387 . S
H1755 C1751 0.950 . S
H1756 C1753 0.950 . S
C1757 C1748 1.390 . S
C1757 H1750 0.950 . S
C1757 C1754 1.387 . S
C1758 C1759 1.387 . S
C1758 H1762 0.950 . S
C1758 C1767 1.390 . S
C1759 C1758 1.387 . S
C1759 C1761 1.387 . S
H1760 C1767 0.950 . S
C1761 C1759 1.387 . S
C1761 C1763 1.390 . S
C1761 H1765 0.950 . S
H1762 C1758 0.950 . S
C1763 C1761 1.390 . S
C1763 C1764 1.387 . S
C1763 H1766 0.950 . S
C1764 C1763 1.387 . S
C1764 C1767 1.387 . S
H1765 C1761 0.950 . S
H1766 C1763 0.950 . S
C1767 C1758 1.390 . S
C1767 H1760 0.950 . S
C1767 C1764 1.387 . S
C1768 C1769 1.387 . S
C1768 H1772 0.950 . S
C1768 C1777 1.390 . S
C1769 C1768 1.387 . S
C1769 C1771 1.387 . S
H1770 C1777 0.950 . S
C1771 C1769 1.387 . S
C1771 C1773 1.390 . S
C1771 H1775 0.950 . S
H1772 C1768 0.950 . S
C1773 C1771 1.390 . S
C1773 C1774 1.387 . S
C1773 H1776 0.950 . S
C1774 C1773 1.387 . S
C1774 C1777 1.387 . S
H1775 C1771 0.950 . S
H1776 C1773 0.950 . S
C1777 C1768 1.390 . S
C1777 H1770 0.950 . S
C1777 C1774 1.387 . S
C1778 C1779 1.387 . S
C1778 H1782 0.950 . S
C1778 C1787 1.390 . S
C1779 C1778 1.387 . S
C1779 C1781 1.387 . S
H1780 C1787 0.950 . S
C1781 C1779 1.387 . S
C1781 C1783 1.390 . S
C1781 H1785 0.950 . S
H1782 C1778 0.950 . S
C1783 C1781 1.390 . S
C1783 C1784 1.387 . S
C1783 H1786 0.950 1_545 S
C1784 C1783 1.387 . S
C1784 C1787 1.387 . S
H1785 C1781 0.950 . S
H1786 C1783 0.950 1_565 S
C1787 C1778 1.390 . S
C1787 H1780 0.950 . S
C1787 C1784 1.387 . S
C1788 C1789 1.387 . S
C1788 H1792 0.950 . S
C1788 C1797 1.390 . S
C1789 C1788 1.387 . S
C1789 C1791 1.387 . S
H1790 C1797 0.950 . S
C1791 C1789 1.387 . S
C1791 C1793 1.390 . S
C1791 H1795 0.950 . S
H1792 C1788 0.950 . S
C1793 C1791 1.390 . S
C1793 C1794 1.387 . S
C1793 H1796 0.950 . S
C1794 C1793 1.387 . S
C1794 C1797 1.387 . S
H1795 C1791 0.950 . S
H1796 C1793 0.950 . S
C1797 C1788 1.390 . S
C1797 H1790 0.950 . S
C1797 C1794 1.387 . S
C1798 C1799 1.387 . S
C1798 H1802 0.950 . S
C1798 C1807 1.390 . S
C1799 C1798 1.387 . S
C1799 C1801 1.387 . S
H1800 C1807 0.950 . S
C1801 C1799 1.387 . S
C1801 C1803 1.390 . S
C1801 H1805 0.949 1_565 S
H1802 C1798 0.950 . S
C1803 C1801 1.390 . S
C1803 C1804 1.387 . S
C1803 H1806 0.950 . S
C1804 C1803 1.387 . S
C1804 C1807 1.387 . S
H1805 C1801 0.949 1_545 S
H1806 C1803 0.950 . S
C1807 C1798 1.390 . S
C1807 H1800 0.950 . S
C1807 C1804 1.387 . S
C1808 C1809 1.387 . S
C1808 H1812 0.950 . S
C1808 C1817 1.390 . S
C1809 C1808 1.387 . S
C1809 C1811 1.387 . S
H1810 C1817 0.950 . S
C1811 C1809 1.387 . S
C1811 C1813 1.390 . S
C1811 H1815 0.950 . S
H1812 C1808 0.950 . S
C1813 C1811 1.390 . S
C1813 C1814 1.387 . S
C1813 H1816 0.950 . S
C1814 C1813 1.387 . S
C1814 C1817 1.387 . S
H1815 C1811 0.950 . S
H1816 C1813 0.950 . S
C1817 C1808 1.390 . S
C1817 H1810 0.950 . S
C1817 C1814 1.387 . S
C1818 C1819 1.387 . S
C1818 H1822 0.950 . S
C1818 C1827 1.390 . S
C1819 C1818 1.387 . S
C1819 C1821 1.387 . S
H1820 C1827 0.950 . S
C1821 C1819 1.387 . S
C1821 C1823 1.390 . S
C1821 H1825 0.950 . S
H1822 C1818 0.950 . S
C1823 C1821 1.390 . S
C1823 C1824 1.387 . S
C1823 H1826 0.950 . S
C1824 C1823 1.387 . S
C1824 C1827 1.387 . S
H1825 C1821 0.950 . S
H1826 C1823 0.950 . S
C1827 C1818 1.390 . S
C1827 H1820 0.950 . S
C1827 C1824 1.387 . S
C1828 C1829 1.387 . S
C1828 H1832 0.950 . S
C1828 C1837 1.390 . S
C1829 C1828 1.387 . S
C1829 C1831 1.387 . S
H1830 C1837 0.950 . S
C1831 C1829 1.387 . S
C1831 C1833 1.390 . S
C1831 H1835 0.950 . S
H1832 C1828 0.950 . S
C1833 C1831 1.390 . S
C1833 C1834 1.387 . S
C1833 H1836 0.950 . S
C1834 C1833 1.387 . S
C1834 C1837 1.387 . S
H1835 C1831 0.950 . S
H1836 C1833 0.950 . S
C1837 C1828 1.390 . S
C1837 H1830 0.950 . S
C1837 C1834 1.387 . S
C1838 C1839 1.387 . S
C1838 H1842 0.950 . S
C1838 C1847 1.390 . S
C1839 C1838 1.387 . S
C1839 C1841 1.387 . S
H1840 C1847 0.950 . S
C1841 C1839 1.387 . S
C1841 C1843 1.390 . S
C1841 H1845 0.950 . S
H1842 C1838 0.950 . S
C1843 C1841 1.390 . S
C1843 C1844 1.387 . S
C1843 H1846 0.950 . S
C1844 C1843 1.387 . S
C1844 C1847 1.387 . S
H1845 C1841 0.950 . S
H1846 C1843 0.950 . S
C1847 C1838 1.390 . S
C1847 H1840 0.950 . S
C1847 C1844 1.387 . S
C1848 C1849 1.387 . S
C1848 H1852 0.950 . S
C1848 C1857 1.390 . S
C1849 C1848 1.387 . S
C1849 C1851 1.387 . S
H1850 C1857 0.950 . S
C1851 C1849 1.387 . S
C1851 C1853 1.390 . S
C1851 H1855 0.950 . S
H1852 C1848 0.950 . S
C1853 C1851 1.390 . S
C1853 C1854 1.387 . S
C1853 H1856 0.950 . S
C1854 C1853 1.387 . S
C1854 C1857 1.387 . S
H1855 C1851 0.950 . S
H1856 C1853 0.950 . S
C1857 C1848 1.390 . S
C1857 H1850 0.950 . S
C1857 C1854 1.387 . S
C1858 C1859 1.387 . S
C1858 H1862 0.950 . S
C1858 C1867 1.390 . S
C1859 C1858 1.387 . S
C1859 C1861 1.387 . S
H1860 C1867 0.950 . S
C1861 C1859 1.387 . S
C1861 C1863 1.390 . S
C1861 H1865 0.950 . S
H1862 C1858 0.950 . S
C1863 C1861 1.390 . S
C1863 C1864 1.387 . S
C1863 H1866 0.950 . S
C1864 C1863 1.387 . S
C1864 C1867 1.387 . S
H1865 C1861 0.950 . S
H1866 C1863 0.950 . S
C1867 C1858 1.390 . S
C1867 H1860 0.950 . S
C1867 C1864 1.387 . S
C1868 C1869 1.387 . S
C1868 H1872 0.950 . S
C1868 C1877 1.390 . S
C1869 C1868 1.387 . S
C1869 C1871 1.387 . S
H1870 C1877 0.950 . S
C1871 C1869 1.387 . S
C1871 C1873 1.390 . S
C1871 H1875 0.950 . S
H1872 C1868 0.950 . S
C1873 C1871 1.390 . S
C1873 C1874 1.387 . S
C1873 H1876 0.950 . S
C1874 C1873 1.387 . S
C1874 C1877 1.387 . S
H1875 C1871 0.950 . S
H1876 C1873 0.950 . S
C1877 C1868 1.390 . S
C1877 H1870 0.950 . S
C1877 C1874 1.387 . S
C1878 C1879 1.387 . S
C1878 H1882 0.950 . S
C1878 C1887 1.390 . S
C1879 C1878 1.387 . S
C1879 C1881 1.387 . S
H1880 C1887 0.950 . S
C1881 C1879 1.387 . S
C1881 C1883 1.390 . S
C1881 H1885 0.950 . S
H1882 C1878 0.950 . S
C1883 C1881 1.390 . S
C1883 C1884 1.387 . S
C1883 H1886 0.950 . S
C1884 C1883 1.387 . S
C1884 C1887 1.387 . S
H1885 C1881 0.950 . S
H1886 C1883 0.950 . S
C1887 C1878 1.390 . S
C1887 H1880 0.950 . S
C1887 C1884 1.387 . S
C1089 C145 1.414 1_545 S
C1094 C9 1.414 1_565 S
C1099 C43 1.410 . S
C1104 C179 1.410 . S
C1109 C77 1.410 1_545 S
C1114 C213 1.410 1_565 S
C1119 C111 1.414 . S
C1124 C247 1.414 . S
C1129 C281 1.414 1_545 S
C1134 C417 1.414 1_565 S
C1139 C451 1.414 . S
C1144 C315 1.414 . S
C1149 C349 1.414 1_565 S
C1154 C485 1.414 1_545 S
C1159 C519 1.409 . S
C1164 C383 1.409 . S
C1169 C553 1.409 . S
C1174 C689 1.409 . S
C1179 C587 1.410 . S
C1184 C723 1.410 . S
C1189 C757 1.410 . S
C1194 C621 1.410 . S
C1199 C791 1.409 . S
C1204 C655 1.409 . S
C1209 C825 1.409 . S
C1214 C961 1.409 . S
C1219 C859 1.414 . S
C1224 C995 1.414 . S
C1229 C1029 1.414 . S
C1234 C893 1.414 . S
C1239 C927 1.414 . S
C1244 C1063 1.414 . S
C1249 C33 0.961 . S
C1254 C645 0.961 . S
C1259 C67 0.961 . S
C1264 C679 0.961 . S
C1269 C101 0.961 . S
C1274 C577 0.961 . S
C1279 C135 0.967 . S
C1284 C611 0.967 . S
C1289 C169 0.968 . S
C1294 C781 0.968 . S
C1299 C815 0.961 . S
C1304 C203 0.961 . S
C1309 C237 0.968 . S
C1314 C713 0.968 . S
C1319 C271 0.967 . S
C1324 C747 0.967 . S
C1329 C917 0.968 . S
C1334 C305 0.968 . S
C1339 C339 0.961 . S
C1344 C951 0.961 . S
C1349 C849 0.968 . S
C1354 C373 0.968 . S
C1359 C407 0.961 . S
C1364 C883 0.961 . S
C1369 C441 0.961 . S
C1374 C1053 0.961 . S
C1379 C1087 0.961 . S
C1384 C475 0.961 . S
C1389 C509 0.961 . S
C1394 C985 0.961 . S
C1399 C543 0.961 . S
C1404 C1019 0.961 . S
C1409 C20 1.482 . S
C1414 C478 1.470 1_545 S
C1419 C1056 1.471 . S
C1424 C54 1.482 . S
C1429 C410 1.470 1_465 S
C1434 C88 1.482 . S
C1439 C988 1.471 . S
C1444 C122 1.482 . S
C1449 C156 1.481 . S
C1454 C342 1.469 1_565 S
C1459 C190 1.481 . S
C1464 C920 1.471 . S
C1469 C224 1.481 . S
C1474 C274 1.469 1_445 S
C1479 C852 1.473 . S
C1484 C258 1.482 . S
C1489 C206 1.468 1_565 S
C1494 C292 1.481 . S
C1499 C784 1.471 . S
C1504 C326 1.482 . S
C1509 C360 1.482 . S
C1514 C138 1.470 1_645 S
C1519 C394 1.481 . S
C1524 C716 1.472 . S
C1529 C428 1.482 . S
C1534 C70 1.471 1_545 S
C1539 C648 1.472 . S
C1544 C462 1.481 . S
C1549 C496 1.481 . S
C1554 C2 1.468 1_665 S
C1559 C580 1.471 . S
C1564 C530 1.482 . S
C1569 C1022 1.472 1_655 S
C1574 C564 1.481 . S
C1579 C598 1.481 . S
C1584 C512 1.473 . S
C1589 C954 1.471 . S
C1594 C632 1.481 . S
C1599 C444 1.473 . S
C1604 C666 1.482 . S
C1609 C700 1.482 . S
C1614 C886 1.473 1_655 S
C1619 C376 1.471 . S
C1624 C734 1.482 . S
C1629 C818 1.471 . S
C1634 C768 1.482 . S
C1639 C802 1.482 . S
C1644 C308 1.471 . S
C1649 C836 1.481 . S
C1654 C750 1.472 1_455 S
C1659 C240 1.471 . S
C1664 C870 1.482 . S
C1669 C904 1.482 . S
C1674 C682 1.471 . S
C1679 C172 1.473 . S
C1684 C938 1.482 . S
C1689 C972 1.481 . S
C1694 C614 1.472 1_455 S
C1699 C1006 1.482 . S
C1704 C104 1.472 . S
C1709 C546 1.472 . S
C1714 C1040 1.481 . S
C1719 C36 1.472 . S
C1724 C1074 1.481 . S
C1729 C243 1.641 . S
C1734 C5 1.642 . S
C1739 C141 1.642 . S
C1744 C39 1.642 . S
C1749 C175 1.641 . S
C1754 C73 1.641 . S
C1759 C107 1.641 . S
C1764 C209 1.642 . S
C1769 C515 1.642 . S
C1774 C277 1.642 . S
C1779 C311 1.641 . S
C1784 C413 1.640 . S
C1789 C447 1.642 . S
C1794 C345 1.642 . S
C1799 C481 1.640 . S
C1804 C379 1.640 . S
C1809 C787 1.641 . S
C1814 C549 1.640 . S
C1819 C583 1.641 . S
C1824 C685 1.642 . S
C1829 C719 1.641 . S
C1834 C617 1.640 . S
C1839 C753 1.642 . S
C1844 C651 1.641 . S
C1849 C821 1.640 . S
C1854 C1059 1.641 . S
C1859 C957 1.642 . S
C1864 C855 1.641 . S
C1869 C889 1.641 . S
C1874 C991 1.640 . S
C1879 C1025 1.641 . S
C1884 C923 1.642 . S
