# Generated by pormake.
# Topology pem, (4)-cn, num edge types: 1
# Building blocks:
#     Node 0, Type 0, BuildingBlock: QUQFOY_clean_sbu_1, # of connection points: 4
#     Node 1, Type 0, BuildingBlock: QUQFOY_clean_sbu_1, # of connection points: 4
#     Node 2, Type 0, BuildingBlock: QUQFOY_clean_sbu_1, # of connection points: 4
#     Node 3, Type 0, BuildingBlock: QUQFOY_clean_sbu_1, # of connection points: 4
#     Node 4, Type 0, BuildingBlock: QUQFOY_clean_sbu_1, # of connection points: 4
#     Node 5, Type 0, BuildingBlock: QUQFOY_clean_sbu_1, # of connection points: 4
#     Node 6, Type 0, BuildingBlock: QUQFOY_clean_sbu_1, # of connection points: 4
#     Node 7, Type 0, BuildingBlock: QUQFOY_clean_sbu_1, # of connection points: 4
#     Node 8, Type 0, BuildingBlock: QUQFOY_clean_sbu_1, # of connection points: 4
#     Node 9, Type 0, BuildingBlock: QUQFOY_clean_sbu_1, # of connection points: 4
#     Node 10, Type 0, BuildingBlock: QUQFOY_clean_sbu_1, # of connection points: 4
#     Node 11, Type 0, BuildingBlock: QUQFOY_clean_sbu_1, # of connection points: 4
#     Node 12, Type 0, BuildingBlock: QUQFOY_clean_sbu_1, # of connection points: 4
#     Node 13, Type 0, BuildingBlock: QUQFOY_clean_sbu_1, # of connection points: 4
#     Node 14, Type 0, BuildingBlock: QUQFOY_clean_sbu_1, # of connection points: 4
#     Node 15, Type 0, BuildingBlock: QUQFOY_clean_sbu_1, # of connection points: 4
#     Node 16, Type 0, BuildingBlock: QUQFOY_clean_sbu_1, # of connection points: 4
#     Node 17, Type 0, BuildingBlock: QUQFOY_clean_sbu_1, # of connection points: 4
#     Node 18, Type 0, BuildingBlock: QUQFOY_clean_sbu_1, # of connection points: 4
#     Node 19, Type 0, BuildingBlock: QUQFOY_clean_sbu_1, # of connection points: 4
#     Node 20, Type 0, BuildingBlock: QUQFOY_clean_sbu_1, # of connection points: 4
#     Node 21, Type 0, BuildingBlock: QUQFOY_clean_sbu_1, # of connection points: 4
#     Node 22, Type 0, BuildingBlock: QUQFOY_clean_sbu_1, # of connection points: 4
#     Node 23, Type 0, BuildingBlock: QUQFOY_clean_sbu_1, # of connection points: 4
#     Node 24, Type 0, BuildingBlock: QUQFOY_clean_sbu_1, # of connection points: 4
#     Node 25, Type 0, BuildingBlock: QUQFOY_clean_sbu_1, # of connection points: 4
#     Node 26, Type 0, BuildingBlock: QUQFOY_clean_sbu_1, # of connection points: 4
#     Node 27, Type 0, BuildingBlock: QUQFOY_clean_sbu_1, # of connection points: 4
#     Node 28, Type 0, BuildingBlock: QUQFOY_clean_sbu_1, # of connection points: 4
#     Node 29, Type 0, BuildingBlock: QUQFOY_clean_sbu_1, # of connection points: 4
#     Node 30, Type 0, BuildingBlock: QUQFOY_clean_sbu_1, # of connection points: 4
#     Node 31, Type 0, BuildingBlock: QUQFOY_clean_sbu_1, # of connection points: 4
#     Edge 32, Type (0, 0), BuildingBlock: OJICUG_clean_linker_0, # of connection points: 2
#     Edge 33, Type (0, 0), BuildingBlock: OJICUG_clean_linker_0, # of connection points: 2
#     Edge 34, Type (0, 0), BuildingBlock: OJICUG_clean_linker_0, # of connection points: 2
#     Edge 35, Type (0, 0), BuildingBlock: OJICUG_clean_linker_0, # of connection points: 2
#     Edge 36, Type (0, 0), BuildingBlock: OJICUG_clean_linker_0, # of connection points: 2
#     Edge 37, Type (0, 0), BuildingBlock: OJICUG_clean_linker_0, # of connection points: 2
#     Edge 38, Type (0, 0), BuildingBlock: OJICUG_clean_linker_0, # of connection points: 2
#     Edge 39, Type (0, 0), BuildingBlock: OJICUG_clean_linker_0, # of connection points: 2
#     Edge 40, Type (0, 0), BuildingBlock: OJICUG_clean_linker_0, # of connection points: 2
#     Edge 41, Type (0, 0), BuildingBlock: OJICUG_clean_linker_0, # of connection points: 2
#     Edge 42, Type (0, 0), BuildingBlock: OJICUG_clean_linker_0, # of connection points: 2
#     Edge 43, Type (0, 0), BuildingBlock: OJICUG_clean_linker_0, # of connection points: 2
#     Edge 44, Type (0, 0), BuildingBlock: OJICUG_clean_linker_0, # of connection points: 2
#     Edge 45, Type (0, 0), BuildingBlock: OJICUG_clean_linker_0, # of connection points: 2
#     Edge 46, Type (0, 0), BuildingBlock: OJICUG_clean_linker_0, # of connection points: 2
#     Edge 47, Type (0, 0), BuildingBlock: OJICUG_clean_linker_0, # of connection points: 2
#     Edge 48, Type (0, 0), BuildingBlock: OJICUG_clean_linker_0, # of connection points: 2
#     Edge 49, Type (0, 0), BuildingBlock: OJICUG_clean_linker_0, # of connection points: 2
#     Edge 50, Type (0, 0), BuildingBlock: OJICUG_clean_linker_0, # of connection points: 2
#     Edge 51, Type (0, 0), BuildingBlock: OJICUG_clean_linker_0, # of connection points: 2
#     Edge 52, Type (0, 0), BuildingBlock: OJICUG_clean_linker_0, # of connection points: 2
#     Edge 53, Type (0, 0), BuildingBlock: OJICUG_clean_linker_0, # of connection points: 2
#     Edge 54, Type (0, 0), BuildingBlock: OJICUG_clean_linker_0, # of connection points: 2
#     Edge 55, Type (0, 0), BuildingBlock: OJICUG_clean_linker_0, # of connection points: 2
#     Edge 56, Type (0, 0), BuildingBlock: OJICUG_clean_linker_0, # of connection points: 2
#     Edge 57, Type (0, 0), BuildingBlock: OJICUG_clean_linker_0, # of connection points: 2
#     Edge 58, Type (0, 0), BuildingBlock: OJICUG_clean_linker_0, # of connection points: 2
#     Edge 59, Type (0, 0), BuildingBlock: OJICUG_clean_linker_0, # of connection points: 2
#     Edge 60, Type (0, 0), BuildingBlock: OJICUG_clean_linker_0, # of connection points: 2
#     Edge 61, Type (0, 0), BuildingBlock: OJICUG_clean_linker_0, # of connection points: 2
#     Edge 62, Type (0, 0), BuildingBlock: OJICUG_clean_linker_0, # of connection points: 2
#     Edge 63, Type (0, 0), BuildingBlock: OJICUG_clean_linker_0, # of connection points: 2
#     Edge 64, Type (0, 0), BuildingBlock: OJICUG_clean_linker_0, # of connection points: 2
#     Edge 65, Type (0, 0), BuildingBlock: OJICUG_clean_linker_0, # of connection points: 2
#     Edge 66, Type (0, 0), BuildingBlock: OJICUG_clean_linker_0, # of connection points: 2
#     Edge 67, Type (0, 0), BuildingBlock: OJICUG_clean_linker_0, # of connection points: 2
#     Edge 68, Type (0, 0), BuildingBlock: OJICUG_clean_linker_0, # of connection points: 2
#     Edge 69, Type (0, 0), BuildingBlock: OJICUG_clean_linker_0, # of connection points: 2
#     Edge 70, Type (0, 0), BuildingBlock: OJICUG_clean_linker_0, # of connection points: 2
#     Edge 71, Type (0, 0), BuildingBlock: OJICUG_clean_linker_0, # of connection points: 2
#     Edge 72, Type (0, 0), BuildingBlock: OJICUG_clean_linker_0, # of connection points: 2
#     Edge 73, Type (0, 0), BuildingBlock: OJICUG_clean_linker_0, # of connection points: 2
#     Edge 74, Type (0, 0), BuildingBlock: OJICUG_clean_linker_0, # of connection points: 2
#     Edge 75, Type (0, 0), BuildingBlock: OJICUG_clean_linker_0, # of connection points: 2
#     Edge 76, Type (0, 0), BuildingBlock: OJICUG_clean_linker_0, # of connection points: 2
#     Edge 77, Type (0, 0), BuildingBlock: OJICUG_clean_linker_0, # of connection points: 2
#     Edge 78, Type (0, 0), BuildingBlock: OJICUG_clean_linker_0, # of connection points: 2
#     Edge 79, Type (0, 0), BuildingBlock: OJICUG_clean_linker_0, # of connection points: 2
#     Edge 80, Type (0, 0), BuildingBlock: OJICUG_clean_linker_0, # of connection points: 2
#     Edge 81, Type (0, 0), BuildingBlock: OJICUG_clean_linker_0, # of connection points: 2
#     Edge 82, Type (0, 0), BuildingBlock: OJICUG_clean_linker_0, # of connection points: 2
#     Edge 83, Type (0, 0), BuildingBlock: OJICUG_clean_linker_0, # of connection points: 2
#     Edge 84, Type (0, 0), BuildingBlock: OJICUG_clean_linker_0, # of connection points: 2
#     Edge 85, Type (0, 0), BuildingBlock: OJICUG_clean_linker_0, # of connection points: 2
#     Edge 86, Type (0, 0), BuildingBlock: OJICUG_clean_linker_0, # of connection points: 2
#     Edge 87, Type (0, 0), BuildingBlock: OJICUG_clean_linker_0, # of connection points: 2
#     Edge 88, Type (0, 0), BuildingBlock: OJICUG_clean_linker_0, # of connection points: 2
#     Edge 89, Type (0, 0), BuildingBlock: OJICUG_clean_linker_0, # of connection points: 2
#     Edge 90, Type (0, 0), BuildingBlock: OJICUG_clean_linker_0, # of connection points: 2
#     Edge 91, Type (0, 0), BuildingBlock: OJICUG_clean_linker_0, # of connection points: 2
#     Edge 92, Type (0, 0), BuildingBlock: OJICUG_clean_linker_0, # of connection points: 2
#     Edge 93, Type (0, 0), BuildingBlock: OJICUG_clean_linker_0, # of connection points: 2
#     Edge 94, Type (0, 0), BuildingBlock: OJICUG_clean_linker_0, # of connection points: 2
#     Edge 95, Type (0, 0), BuildingBlock: OJICUG_clean_linker_0, # of connection points: 2
# Relax obj value: 0.275
# Max RMSD: 0.271
# Mean RMSD: 0.234
data_MOF--net-pem--node1-QUQFOY_clean_sbu_1--edge1-OJICUG_clean_linker_0
_symmetry_space_group_name_H-M    P1
_symmetry_Int_Tables_number       1
_symmetry_cell_setting            triclinic
loop_
_symmetry_equiv_pos_as_xyz
'x, y, z'
_cell_length_a     33.102657
_cell_length_b     33.409361
_cell_length_c     32.90122
_cell_angle_alpha  89.743696
_cell_angle_beta   89.253175
_cell_angle_gamma 96.023376
loop_
_atom_site_label
_atom_site_type_symbol
_atom_site_fract_x
_atom_site_fract_y
_atom_site_fract_z
_atom_type_partial_charge
O0 O 0.18419 0.05449 0.07915 0.0
Cd1 Cd 0.16998 0.06172 0.01899 0.0
Cd2 Cd 0.1001 0.09775 0.0519 0.0
O3 O 0.12166 0.06361 0.09895 0.0
O4 O 0.21481 0.04197 0.9864 0.0
O5 O 0.19592 0.10304 0.97891 0.0
C6 C 0.21814 0.07568 0.96688 0.0
C7 C 0.05859 0.14819 0.07027 0.0
C8 C 0.15603 0.05118 0.10598 0.0
C9 C 0.088 0.03436 0.98995 0.0
O10 O 0.07738 0.06772 0.00183 0.0
O11 O 0.12202 0.02339 -0.00025 0.0
O12 O 0.04824 0.11092 0.07852 0.0
O13 O 0.09334 0.15762 0.05271 0.0
O14 O 0.15403 0.92023 0.25353 0.0
Cd15 Cd 0.15245 0.86918 0.29208 0.0
Cd16 Cd 0.24785 0.92442 0.30119 0.0
O17 O 0.21278 0.95847 0.26573 0.0
O18 O 0.10663 0.84814 0.32847 0.0
O19 O 0.12323 0.81764 0.27166 0.0
C20 C 0.10211 0.81697 0.30505 0.0
C21 C 0.28032 0.93677 0.36176 0.0
C22 C 0.17893 0.95199 0.24718 0.0
C23 C 0.23006 0.84524 0.29031 0.0
O24 O 0.25767 0.87062 0.27619 0.0
O25 O 0.20581 0.85791 0.31593 0.0
O26 O 0.29725 0.94997 0.32787 0.0
O27 O 0.24302 0.92063 0.36141 0.0
O28 O 0.44538 0.92752 0.58864 0.0
Cd29 Cd 0.44194 0.89672 0.53506 0.0
Cd30 Cd 0.53609 0.87899 0.58909 0.0
O31 O 0.5027 0.91952 0.62225 0.0
O32 O 0.38772 0.87722 0.51098 0.0
O33 O 0.4238 0.93446 0.49402 0.0
C34 C 0.39156 0.90994 0.48945 0.0
C35 C 0.56714 0.82597 0.61495 0.0
C36 C 0.46926 0.93544 0.61833 0.0
C37 C 0.52544 0.89989 0.51095 0.0
O38 O 0.55645 0.8957 0.53176 0.0
O39 O 0.4946 0.87484 0.51807 0.0
O40 O 0.58248 0.86264 0.62075 0.0
O41 O 0.53267 0.8197 0.59683 0.0
O42 O 0.44574 0.09985 0.71953 0.0
Cd43 Cd 0.42684 0.15252 0.74327 0.0
Cd44 Cd 0.35816 0.10474 0.76313 0.0
O45 O 0.38869 0.06204 0.73447 0.0
O46 O 0.47656 0.19016 0.74807 0.0
O47 O 0.43557 0.172 0.80045 0.0
C48 C 0.46714 0.19362 0.78591 0.0
C49 C 0.32195 0.09558 0.82434 0.0
C50 C 0.42397 0.06622 0.71827 0.0
C51 C 0.35005 0.17303 0.70721 0.0
O52 O 0.33322 0.14179 0.72479 0.0
O53 O 0.38769 0.18378 0.71078 0.0
O54 O 0.3102 0.07603 0.79222 0.0
O55 O 0.35544 0.11915 0.82245 0.0
O56 O 0.10678 0.9595 0.36526 0.0
Cd57 Cd 0.09854 0.92367 0.41705 0.0
Cd58 Cd 0.02639 0.89578 0.36977 0.0
O59 O 0.0556 0.93414 0.32745 0.0
O60 O 0.14776 0.94105 0.45037 0.0
O61 O 0.1328 0.87842 0.43077 0.0
C62 C 0.15638 0.90438 0.4507 0.0
C63 C 0.99386 0.83373 0.35136 0.0
C64 C 0.08653 0.9594 0.33258 0.0
C65 C 0.01371 0.93502 0.4494 0.0
O66 O 0.99836 0.92202 0.41628 0.0
O67 O 0.05165 0.93589 0.4556 0.0
O68 O 0.98139 0.86658 0.33829 0.0
O69 O 0.02552 0.83607 0.374 0.0
O70 O 0.37381 0.81033 0.60157 0.0
Cd71 Cd 0.32008 0.8365 0.61316 0.0
Cd72 Cd 0.37234 0.86619 0.68015 0.0
O73 O 0.41554 0.84493 0.64385 0.0
O74 O 0.28272 0.81987 0.56703 0.0
O75 O 0.30149 0.88338 0.5815 0.0
C76 C 0.27992 0.85736 0.55966 0.0
C77 C 0.38702 0.92121 0.72263 0.0
C78 C 0.40907 0.81833 0.61657 0.0
C79 C 0.29957 0.80934 0.69932 0.0
O80 O 0.33496 0.82344 0.70942 0.0
O81 O 0.28652 0.81497 0.66377 0.0
O82 O 0.40603 0.88977 0.72598 0.0
O83 O 0.3613 0.92247 0.69363 0.0
O84 O 0.40952 0.17309 0.94927 0.0
Cd85 Cd 0.46698 0.16056 0.93056 0.0
Cd86 Cd 0.41772 0.09485 0.89369 0.0
O87 O 0.37219 0.12746 0.91328 0.0
O88 O 0.50454 0.21154 0.93225 0.0
O89 O 0.49007 0.17721 0.8761 0.0
C90 C 0.50831 0.20872 0.89331 0.0
C91 C 0.40752 0.04762 0.84109 0.0
C92 C 0.37506 0.15638 0.9384 0.0
C93 C 0.4733 0.08014 0.96368 0.0
O94 O 0.44446 0.069 0.94013 0.0
O95 O 0.49063 0.1159 0.96278 0.0
O96 O 0.38489 0.04547 0.87313 0.0
O97 O 0.43462 0.0781 0.83723 0.0
O98 O 0.14567 0.21242 0.10158 0.0
Cd99 Cd 0.19892 0.18634 0.10245 0.0
Cd100 Cd 0.14951 0.14046 0.17511 0.0
O101 O 0.12291 0.19297 0.16328 0.0
O102 O 0.23568 0.21361 0.05972 0.0
O103 O 0.21948 0.14768 0.06284 0.0
C104 C 0.24079 0.17829 0.0463 0.0
C105 C 0.11799 0.09301 0.22064 0.0
C106 C 0.12215 0.21567 0.13209 0.0
C107 C 0.23485 0.17037 0.18024 0.0
O108 O 0.211 0.13826 0.18035 0.0
O109 O 0.23114 0.19719 0.15376 0.0
O110 O 0.13536 0.1269 0.23301 0.0
O111 O 0.11449 0.08774 0.18203 0.0
O112 O 0.64392 0.47596 0.92376 0.0
Cd113 Cd 0.63321 0.43501 0.97064 0.0
Cd114 Cd 0.56429 0.40924 0.9244 0.0
O115 O 0.58893 0.45674 0.88849 0.0
O116 O 0.68416 0.44024 0.00322 0.0
O117 O 0.66105 0.38406 0.97233 0.0
C118 C 0.68839 0.40331 0.99464 0.0
C119 C 0.54692 0.34674 0.89415 0.0
C120 C 0.62105 0.48051 0.89372 0.0
C121 C 0.54947 0.44133 0.00682 0.0
O122 O 0.53417 0.42507 0.97496 0.0
O123 O 0.58779 0.44712 0.01109 0.0
O124 O 0.52479 0.37587 0.88928 0.0
O125 O 0.57759 0.35285 0.91812 0.0
O126 O 0.91226 0.26217 0.08756 0.0
Cd127 Cd 0.85741 0.28439 0.10299 0.0
Cd128 Cd 0.89811 0.30347 0.1758 0.0
O129 O 0.94112 0.2725 0.14753 0.0
O130 O 0.82327 0.28687 0.05366 0.0
O131 O 0.84165 0.33989 0.09179 0.0
C132 C 0.82002 0.32402 0.06237 0.0
C133 C 0.91252 0.36321 0.21109 0.0
C134 C 0.9414 0.2582 0.11175 0.0
C135 C 0.81953 0.2505 0.18082 0.0
O136 O 0.84863 0.26962 0.19955 0.0
O137 O 0.81848 0.25098 0.14231 0.0
O138 O 0.92387 0.33 0.22466 0.0
O139 O 0.89533 0.36313 0.17606 0.0
O140 O 0.90748 0.62663 0.41766 0.0
Cd141 Cd 0.9637 0.61769 0.39159 0.0
Cd142 Cd 0.91709 0.5422 0.37528 0.0
O143 O 0.86994 0.5715 0.39793 0.0
O144 O 0.99777 0.66959 0.40167 0.0
O145 O 0.98762 0.64565 0.34004 0.0
C146 C 0.00503 0.67314 0.36326 0.0
C147 C 0.91151 0.49522 0.3228 0.0
C148 C 0.87349 0.60478 0.41691 0.0
C149 C 0.98571 0.54309 0.43325 0.0
O150 O 0.95387 0.52433 0.41897 0.0
O151 O 0.99644 0.57945 0.42344 0.0
O152 O 0.89049 0.48948 0.35588 0.0
O153 O 0.93348 0.52923 0.31796 0.0
O154 O 0.86742 0.58465 0.2614 0.0
Cd155 Cd 0.85075 0.63073 0.29878 0.0
Cd156 Cd 0.78443 0.57023 0.30374 0.0
O157 O 0.82194 0.53351 0.2775 0.0
O158 O 0.88571 0.67853 0.27703 0.0
O159 O 0.8884 0.65742 0.34041 0.0
C160 C 0.89985 0.68408 0.31302 0.0
C161 C 0.75494 0.56891 0.36702 0.0
C162 C 0.85352 0.5478 0.25795 0.0
C163 C 0.76463 0.64323 0.27692 0.0
O164 O 0.75781 0.60703 0.26579 0.0
O165 O 0.79621 0.65478 0.2967 0.0
O166 O 0.74148 0.54332 0.33971 0.0
O167 O 0.78815 0.59201 0.35964 0.0
O168 O 0.66166 0.46048 0.77176 0.0
Cd169 Cd 0.67938 0.41813 0.81391 0.0
Cd170 Cd 0.74912 0.47735 0.79902 0.0
O171 O 0.71155 0.51017 0.7679 0.0
O172 O 0.64815 0.36875 0.7927 0.0
O173 O 0.63939 0.39185 0.85484 0.0
C174 C 0.63088 0.3645 0.82784 0.0
C175 C 0.77635 0.48406 0.8629 0.0
C176 C 0.67665 0.49444 0.75738 0.0
C177 C 0.75856 0.39658 0.78941 0.0
O178 O 0.76493 0.42833 0.76822 0.0
O179 O 0.73484 0.39614 0.81978 0.0
O180 O 0.79499 0.50229 0.83208 0.0
O181 O 0.73998 0.4666 0.85795 0.0
O182 O 0.82876 0.90531 0.97763 0.0
Cd183 Cd 0.86465 0.93077 0.92922 0.0
Cd184 Cd 0.90481 0.85376 0.96457 0.0
O185 O 0.84603 0.84314 0.98677 0.0
O186 O 0.86075 0.99034 0.92961 0.0
O187 O 0.83682 0.95082 0.88 0.0
C188 C 0.84463 0.98669 0.89422 0.0
C189 C 0.94814 0.80828 0.94023 0.0
C190 C 0.82267 0.87039 0.99395 0.0
C191 C 0.94944 0.92826 0.95287 0.0
O192 O 0.93794 0.90482 0.98197 0.0
O193 O 0.92673 0.93147 0.92263 0.0
O194 O 0.93948 0.80983 0.97855 0.0
O195 O 0.92894 0.82969 0.91561 0.0
O196 O 0.89919 0.2013 0.70778 0.0
Cd197 Cd 0.84654 0.17571 0.73686 0.0
Cd198 Cd 0.81527 0.19326 0.65942 0.0
O199 O 0.87587 0.20965 0.6458 0.0
O200 O 0.86573 0.15424 0.7894 0.0
O201 O 0.82663 0.11689 0.74749 0.0
C202 C 0.84523 0.12028 0.78175 0.0
C203 C 0.76582 0.169 0.61177 0.0
C204 C 0.9044 0.21483 0.67158 0.0
C205 C 0.79591 0.24309 0.73227 0.0
O206 O 0.79417 0.23659 0.69442 0.0
O207 O 0.81248 0.21979 0.75593 0.0
O208 O 0.7857 0.20404 0.60822 0.0
O209 O 0.77623 0.146 0.6406 0.0
O210 O 0.6231 0.09421 0.49173 0.0
Cd211 Cd 0.58472 0.06454 0.44918 0.0
Cd212 Cd 0.53263 0.14216 0.49857 0.0
O213 O 0.59413 0.14768 0.51602 0.0
O214 O 0.58823 0.00513 0.44542 0.0
O215 O 0.60759 0.04821 0.39574 0.0
C216 C 0.60242 0.01152 0.40894 0.0
C217 C 0.49438 0.18887 0.47078 0.0
C218 C 0.62388 0.12596 0.51352 0.0
C219 C 0.50539 0.0647 0.47889 0.0
O220 O 0.4999 0.08786 0.50824 0.0
O221 O 0.52679 0.0797 0.44934 0.0
O222 O 0.49831 0.18668 0.50981 0.0
O223 O 0.51551 0.16717 0.44794 0.0
O224 O 0.56466 0.80693 0.21792 0.0
Cd225 Cd 0.61764 0.83353 0.24369 0.0
Cd226 Cd 0.64204 0.81616 0.16085 0.0
O227 O 0.58059 0.80409 0.15247 0.0
O228 O 0.59872 0.84883 0.29907 0.0
O229 O 0.63279 0.89212 0.25728 0.0
C230 C 0.61558 0.88473 0.29232 0.0
C231 C 0.68915 0.83676 0.10873 0.0
C232 C 0.55517 0.79689 0.18167 0.0
C233 C 0.66984 0.76846 0.23166 0.0
O234 O 0.66426 0.77233 0.19395 0.0
O235 O 0.65759 0.79304 0.25708 0.0
O236 O 0.66675 0.80297 0.10737 0.0
O237 O 0.68235 0.86089 0.13799 0.0
O238 O 0.87671 0.05785 0.67216 0.0
Cd239 Cd 0.90844 0.08093 0.62144 0.0
Cd240 Cd 0.83493 0.04737 0.58345 0.0
O241 O 0.82093 0.03019 0.64282 0.0
O242 O 0.95962 0.10476 0.64651 0.0
O243 O 0.92388 0.13953 0.60576 0.0
C244 C 0.95605 0.13761 0.62709 0.0
C245 C 0.78511 0.0676 0.54039 0.0
C246 C 0.84247 0.03672 0.67433 0.0
C247 C 0.91375 0.01629 0.55889 0.0
O248 O 0.87587 0.0157 0.55316 0.0
O249 O 0.93139 0.03948 0.58499 0.0
O250 O 0.78441 0.03099 0.55295 0.0
O251 O 0.8131 0.09368 0.55419 0.0
O252 O 0.63388 0.06573 0.30851 0.0
Cd253 Cd 0.6594 0.11449 0.34142 0.0
Cd254 Cd 0.60083 0.14729 0.2989 0.0
O255 O 0.57821 0.08831 0.2855 0.0
O256 O 0.70127 0.08831 0.37181 0.0
O257 O 0.65657 0.12299 0.40245 0.0
C258 C 0.68744 0.10259 0.40471 0.0
C259 C 0.56632 0.19565 0.33209 0.0
C260 C 0.60076 0.05993 0.28928 0.0
C261 C 0.68656 0.17287 0.27577 0.0
O262 O 0.65006 0.1705 0.26383 0.0
O263 O 0.69542 0.15584 0.30844 0.0
O264 O 0.55897 0.18608 0.2947 0.0
O265 O 0.59151 0.17572 0.35155 0.0
O266 O 0.53356 0.91228 0.17299 0.0
Cd267 Cd 0.50709 0.8856 0.12135 0.0
Cd268 Cd 0.58832 0.90776 0.09415 0.0
O269 O 0.59856 0.92023 0.15483 0.0
O270 O 0.45233 0.86159 0.14183 0.0
O271 O 0.49342 0.82682 0.10646 0.0
C272 C 0.45898 0.82821 0.12492 0.0
C273 C 0.63418 0.88507 0.04637 0.0
C274 C 0.57033 0.92505 0.18057 0.0
C275 C 0.52147 0.95371 0.06357 0.0
O276 O 0.55905 0.95119 0.06782 0.0
O277 O 0.49503 0.92788 0.07951 0.0
O278 O 0.64209 0.91858 0.06528 0.0
O279 O 0.60204 0.8622 0.0576 0.0
O280 O 0.77609 0.89636 0.80303 0.0
Cd281 Cd 0.76191 0.84545 0.84066 0.0
Cd282 Cd 0.83436 0.83877 0.81321 0.0
O283 O 0.84253 0.89961 0.80924 0.0
O284 O 0.70813 0.84881 0.86841 0.0
O285 O 0.76648 0.85374 0.9012 0.0
C286 C 0.72742 0.85354 0.90214 0.0
C287 C 0.87551 0.79389 0.84009 0.0
C288 C 0.81133 0.91527 0.79741 0.0
C289 C 0.77451 0.78524 0.78011 0.0
O290 O 0.80073 0.8128 0.76762 0.0
O291 O 0.75898 0.78797 0.81534 0.0
O292 O 0.88589 0.81386 0.80722 0.0
O293 O 0.84385 0.8029 0.86018 0.0
O294 O 0.38817 0.55483 0.20676 0.0
Cd295 Cd 0.41984 0.58825 0.16188 0.0
Cd296 Cd 0.35828 0.5548 0.11548 0.0
O297 O 0.33728 0.52828 0.1695 0.0
O298 O 0.45755 0.62834 0.19095 0.0
O299 O 0.415 0.64528 0.14393 0.0
C300 C 0.44375 0.65581 0.1691 0.0
C301 C 0.31413 0.57748 0.06714 0.0
C302 C 0.3561 0.53072 0.20301 0.0
C303 C 0.44274 0.53089 0.10009 0.0
O304 O 0.40553 0.52783 0.09049 0.0
O305 O 0.45597 0.55484 0.12785 0.0
O306 O 0.31436 0.53987 0.07563 0.0
O307 O 0.33774 0.60289 0.08769 0.0
O308 O 0.16489 0.59675 0.83383 0.0
Cd309 Cd 0.19086 0.64227 0.87027 0.0
Cd310 Cd 0.11875 0.67489 0.84523 0.0
O311 O 0.10649 0.61911 0.81789 0.0
O312 O 0.23751 0.61684 0.89388 0.0
O313 O 0.19106 0.64258 0.93162 0.0
C314 C 0.22381 0.62491 0.92931 0.0
C315 C 0.06875 0.71026 0.87622 0.0
C316 C 0.1315 0.59271 0.81482 0.0
C317 C 0.20054 0.71436 0.81617 0.0
O318 O 0.16211 0.71197 0.81448 0.0
O319 O 0.21807 0.69084 0.83881 0.0
O320 O 0.07018 0.70495 0.83751 0.0
O321 O 0.09426 0.69327 0.89812 0.0
O322 O 0.07525 0.45702 0.67811 0.0
Cd323 Cd 0.06142 0.41369 0.6333 0.0
Cd324 Cd 0.13286 0.44953 0.60867 0.0
O325 O 0.14171 0.46492 0.66852 0.0
O326 O 0.00691 0.38521 0.64775 0.0
O327 O 0.06209 0.35355 0.64284 0.0
C328 C 0.02332 0.35199 0.64866 0.0
C329 C 0.17052 0.41575 0.56327 0.0
C330 C 0.11045 0.47175 0.68921 0.0
C331 C 0.06582 0.46815 0.56212 0.0
O332 O 0.09785 0.48521 0.5776 0.0
O333 O 0.04999 0.43465 0.57624 0.0
O334 O 0.18353 0.45145 0.57553 0.0
O335 O 0.13853 0.39739 0.58088 0.0
O336 O 0.10803 0.26695 0.66948 0.0
Cd337 Cd 0.15463 0.3087 0.68907 0.0
Cd338 Cd 0.17087 0.28865 0.61114 0.0
O339 O 0.1094 0.27648 0.60298 0.0
O340 O 0.14249 0.31691 0.74827 0.0
O341 O 0.13906 0.36389 0.70114 0.0
C342 C 0.13431 0.35256 0.73867 0.0
C343 C 0.22492 0.31902 0.5725 0.0
C344 C 0.09183 0.26081 0.63479 0.0
C345 C 0.21912 0.26115 0.67006 0.0
O346 O 0.19261 0.2463 0.64567 0.0
O347 O 0.21412 0.29417 0.68737 0.0
O348 O 0.20493 0.28577 0.56102 0.0
O349 O 0.21058 0.33777 0.60296 0.0
O350 O 0.32389 0.68087 0.17501 0.0
Cd351 Cd 0.27704 0.64491 0.20401 0.0
Cd352 Cd 0.24504 0.66872 0.12101 0.0
O353 O 0.30577 0.6904 0.11123 0.0
O354 O 0.3034 0.64195 0.25868 0.0
O355 O 0.27928 0.58782 0.22576 0.0
C356 C 0.29643 0.6035 0.25774 0.0
C357 C 0.20024 0.64342 0.06932 0.0
C358 C 0.33148 0.69601 0.13974 0.0
C359 C 0.21402 0.70205 0.20046 0.0
O360 O 0.21874 0.70404 0.16214 0.0
O361 O 0.22913 0.67528 0.22111 0.0
O362 O 0.21437 0.68078 0.07062 0.0
O363 O 0.21327 0.61959 0.09604 0.0
O364 O 0.60676 0.58262 0.60114 0.0
Cd365 Cd 0.59417 0.60856 0.5458 0.0
Cd366 Cd 0.52563 0.62154 0.60579 0.0
O367 O 0.56133 0.59663 0.64748 0.0
O368 O 0.61687 0.56958 0.5086 0.0
O369 O 0.64288 0.63295 0.51338 0.0
C370 C 0.64392 0.59796 0.49711 0.0
C371 C 0.50313 0.68456 0.6086 0.0
C372 C 0.59291 0.58027 0.63739 0.0
C373 C 0.50705 0.58811 0.52839 0.0
O374 O 0.49781 0.58211 0.56554 0.0
O375 O 0.53819 0.61193 0.51894 0.0
O376 O 0.48652 0.65537 0.63107 0.0
O377 O 0.5339 0.67845 0.58569 0.0
O378 O 0.90437 0.44333 0.10581 0.0
Cd379 Cd 0.91443 0.42042 0.04888 0.0
Cd380 Cd 0.99872 0.40555 0.11237 0.0
O381 O 0.95912 0.43831 0.1445 0.0
O382 O 0.90635 0.46288 0.00754 0.0
O383 O 0.86617 0.40582 0.0143 0.0
C384 C 0.87457 0.44018 0.9962 0.0
C385 C 0.02326 0.34696 0.13089 0.0
C386 C 0.92411 0.44999 0.13855 0.0
C387 C 0.99695 0.41633 0.02976 0.0
O388 O 0.02076 0.4279 0.0581 0.0
O389 O 0.96586 0.39268 0.03942 0.0
O390 O 0.04057 0.38104 0.14361 0.0
O391 O 0.99002 0.34624 0.11054 0.0
O392 O 0.68824 0.68563 0.62403 0.0
Cd393 Cd 0.73574 0.649 0.60944 0.0
Cd394 Cd 0.68814 0.64141 0.7204 0.0
O395 O 0.66517 0.68692 0.68921 0.0
O396 O 0.76697 0.67418 0.56172 0.0
O397 O 0.73713 0.61185 0.56139 0.0
C398 C 0.76084 0.64 0.54358 0.0
C399 C 0.66046 0.60843 0.77785 0.0
C400 C 0.6659 0.69901 0.65223 0.0
C401 C 0.7656 0.64117 0.68573 0.0
O402 O 0.73298 0.61809 0.68955 0.0
O403 O 0.78115 0.64402 0.65065 0.0
O404 O 0.69006 0.63659 0.78124 0.0
O405 O 0.64493 0.60176 0.74249 0.0
O406 O 0.36022 0.41952 0.4669 0.0
Cd407 Cd 0.38511 0.45774 0.42167 0.0
Cd408 Cd 0.45469 0.37539 0.43796 0.0
O409 O 0.39723 0.36622 0.47012 0.0
O410 O 0.3735 0.51509 0.4138 0.0
O411 O 0.34626 0.46378 0.37725 0.0
C412 C 0.35067 0.50203 0.38401 0.0
C413 C 0.49001 0.32633 0.40699 0.0
C414 C 0.36646 0.38479 0.48066 0.0
C415 C 0.46969 0.45666 0.4247 0.0
O416 O 0.48762 0.43025 0.44251 0.0
O417 O 0.43983 0.44408 0.40301 0.0
O418 O 0.492 0.33231 0.44576 0.0
O419 O 0.46669 0.3473 0.3863 0.0
O420 O 0.08511 0.55343 0.931 0.0
Cd421 Cd 0.05322 0.51694 0.88869 0.0
Cd422 Cd 0.99491 0.60591 0.9091 0.0
O423 O 0.05092 0.60767 0.9412 0.0
O424 O 0.06072 0.45777 0.88707 0.0
O425 O 0.08211 0.50237 0.8392 0.0
C426 C 0.07791 0.46563 0.85199 0.0
C427 C 0.96383 0.66157 0.8889 0.0
C428 C 0.08102 0.58717 0.94818 0.0
C429 C 0.97094 0.52616 0.9021 0.0
O430 O 0.95369 0.55579 0.91416 0.0
O431 O 0.99823 0.53365 0.87518 0.0
O432 O 0.96297 0.65008 0.92645 0.0
O433 O 0.98526 0.64315 0.86326 0.0
O434 O 0.28847 0.37839 0.3179 0.0
Cd435 Cd 0.27108 0.33261 0.35936 0.0
Cd436 Cd 0.34618 0.32455 0.35232 0.0
O437 O 0.3534 0.38374 0.33343 0.0
O438 O 0.22009 0.34394 0.38815 0.0
O439 O 0.28034 0.34703 0.4176 0.0
C440 C 0.24206 0.35149 0.41987 0.0
C441 C 0.38742 0.29062 0.39363 0.0
C442 C 0.32399 0.39703 0.31482 0.0
C443 C 0.29075 0.26473 0.31207 0.0
O444 O 0.32424 0.28638 0.30876 0.0
O445 O 0.26418 0.27425 0.33742 0.0
O446 O 0.39918 0.30332 0.35793 0.0
O447 O 0.35351 0.30085 0.40787 0.0
C448 C 0.02562 0.01927 0.94956 0.0
C449 C 0.05727 0.00549 0.9719 0.0
H450 H 0.9663 0.00472 0.92521 0.0
C451 C 0.0556 0.96471 0.98284 0.0
H452 H 0.02649 0.05065 0.94079 0.0
C453 C 0.02087 0.93888 0.97502 0.0
C454 C 0.98809 0.95337 0.9552 0.0
H455 H 0.07965 0.95351 0.00024 0.0
H456 H 0.01896 0.90805 0.98585 0.0
C457 C 0.99134 0.99313 0.94075 0.0
C458 C 0.21087 0.77567 0.20193 0.0
C459 C 0.20376 0.73825 0.22197 0.0
H460 H 0.22648 0.83908 0.2083 0.0
C461 C 0.19828 0.73736 0.26443 0.0
H462 H 0.21496 0.77755 0.16923 0.0
C463 C 0.20456 0.77289 0.2867 0.0
C464 C 0.21708 0.80933 0.26675 0.0
H465 H 0.19248 0.709 0.28064 0.0
H466 H 0.20249 0.77149 0.31959 0.0
C467 C 0.21823 0.81089 0.22423 0.0
C468 C 0.50348 0.95282 0.46505 0.0
C469 C 0.51857 0.94162 0.50252 0.0
H470 H 0.48713 0.00166 0.42814 0.0
C471 C 0.52696 0.97068 0.53276 0.0
H472 H 0.4963 0.93058 0.44166 0.0
C473 C 0.52038 0.01041 0.52578 0.0
C474 C 0.50633 0.02198 0.48797 0.0
H475 H 0.53892 0.96274 0.56183 0.0
H476 H 0.52798 0.03234 0.54937 0.0
C477 C 0.49769 0.99304 0.45762 0.0
C478 C 0.32347 0.23906 0.7023 0.0
C479 C 0.32343 0.19941 0.68846 0.0
H480 H 0.28931 0.28984 0.70821 0.0
C481 C 0.29121 0.18197 0.6653 0.0
H482 H 0.34794 0.25259 0.72091 0.0
C483 C 0.25788 0.2028 0.65841 0.0
C484 C 0.25609 0.24124 0.67506 0.0
H485 H 0.29065 0.15119 0.65483 0.0
H486 H 0.23271 0.18789 0.64165 0.0
C487 C 0.2897 0.2599 0.69581 0.0
C488 C 0.94533 0.95075 0.47354 0.0
C489 C 0.98735 0.95178 0.47995 0.0
H490 H 0.88896 0.97016 0.49366 0.0
C491 C 0.00421 0.97122 0.51445 0.0
H492 H 0.93134 0.9357 0.44738 0.0
C493 C 0.97992 0.991 0.5409 0.0
C494 C 0.93827 0.99161 0.53343 0.0
H495 H 0.03642 0.97234 0.52037 0.0
H496 H 0.99407 0.00673 0.56661 0.0
C497 C 0.921 0.97044 0.50008 0.0
C498 C 0.23157 0.7789 0.72437 0.0
C499 C 0.27362 0.78645 0.72981 0.0
H500 H 0.17516 0.75081 0.74815 0.0
C501 C 0.29102 0.77231 0.76515 0.0
H502 H 0.21733 0.7898 0.69761 0.0
C503 C 0.26702 0.74996 0.79395 0.0
C504 C 0.22509 0.74174 0.7882 0.0
H505 H 0.32339 0.77779 0.77026 0.0
H506 H 0.28143 0.73861 0.82039 0.0
C507 C 0.20743 0.75695 0.7535 0.0
C508 C 0.45704 0.0178 0.00369 0.0
C509 C 0.48551 0.05021 0.99222 0.0
H510 H 0.44611 0.96183 0.03537 0.0
C511 C 0.52541 0.0519 0.00608 0.0
H512 H 0.42584 0.01613 0.9937 0.0
C513 C 0.53711 0.02048 0.02969 0.0
C514 C 0.50883 0.98742 0.04006 0.0
H515 H 0.54777 0.07664 0.99754 0.0
H516 H 0.56836 0.02192 0.03945 0.0
C517 C 0.46855 0.98675 0.02756 0.0
C518 C 0.30572 0.23169 0.24709 0.0
C519 C 0.28155 0.23235 0.28255 0.0
H520 H 0.30946 0.21054 0.18605 0.0
C521 C 0.24683 0.20474 0.28696 0.0
H522 H 0.33306 0.25222 0.24301 0.0
C523 C 0.23429 0.17975 0.25466 0.0
C524 C 0.25579 0.18305 0.21749 0.0
H525 H 0.22813 0.20418 0.31427 0.0
H526 H 0.20569 0.16099 0.25746 0.0
C527 C 0.29258 0.2076 0.21455 0.0
C528 C 0.45436 0.47564 0.05223 0.0
C529 C 0.47024 0.50544 0.07932 0.0
H530 H 0.46689 0.43107 0.00905 0.0
C531 C 0.51227 0.51038 0.08621 0.0
H532 H 0.42202 0.47049 0.04683 0.0
C533 C 0.53814 0.48748 0.06459 0.0
C534 C 0.52233 0.45929 0.03578 0.0
H535 H 0.52532 0.53275 0.10734 0.0
H536 H 0.57058 0.49324 0.06907 0.0
C537 C 0.48009 0.45276 0.0308 0.0
C538 C 0.74784 0.21849 0.18622 0.0
C539 C 0.78552 0.22968 0.20442 0.0
H540 H 0.68637 0.1923 0.19487 0.0
C541 C 0.78989 0.22289 0.24616 0.0
H542 H 0.74353 0.22377 0.15414 0.0
C543 C 0.75741 0.20501 0.26926 0.0
C544 C 0.71971 0.19386 0.25122 0.0
H545 H 0.81849 0.23134 0.26108 0.0
H546 H 0.76187 0.19996 0.30137 0.0
C547 C 0.71505 0.20093 0.20955 0.0
C548 C 0.06153 0.52569 0.51434 0.0
C549 C 0.04706 0.48676 0.52766 0.0
H550 H 0.05351 0.57419 0.47362 0.0
C551 C 0.01408 0.46568 0.508 0.0
H552 H 0.0871 0.54252 0.52884 0.0
C553 C 0.99511 0.48362 0.47634 0.0
C554 C 0.00862 0.52306 0.46385 0.0
H555 H 0.00252 0.43545 0.51734 0.0
H556 H 0.96924 0.46678 0.46233 0.0
C557 C 0.0424 0.54376 0.48268 0.0
C558 C 0.73458 0.70599 0.29313 0.0
C559 C 0.73649 0.67261 0.26761 0.0
H560 H 0.7113 0.76269 0.30183 0.0
C561 C 0.71382 0.66936 0.232 0.0
H562 H 0.75158 0.70872 0.32109 0.0
C563 C 0.69136 0.70044 0.22076 0.0
C564 C 0.69081 0.73465 0.24542 0.0
H565 H 0.71491 0.64379 0.21202 0.0
H566 H 0.67499 0.69798 0.19242 0.0
C567 C 0.71156 0.73671 0.28226 0.0
C568 C 0.77905 0.28805 0.78894 0.0
C569 C 0.78492 0.28179 0.74729 0.0
H570 H 0.76647 0.33005 0.83508 0.0
C571 C 0.7844 0.31421 0.71994 0.0
H572 H 0.77985 0.26367 0.81064 0.0
C573 C 0.77802 0.35225 0.73395 0.0
C574 C 0.77129 0.35832 0.77543 0.0
H575 H 0.78964 0.31045 0.68768 0.0
H576 H 0.77712 0.37656 0.71217 0.0
C577 C 0.77188 0.32602 0.80288 0.0
C578 C 0.76771 0.71045 0.77594 0.0
C579 C 0.76881 0.74808 0.75658 0.0
H580 H 0.76834 0.6467 0.76805 0.0
C581 C 0.77038 0.7504 0.71404 0.0
H582 H 0.76769 0.7082 0.8088 0.0
C583 C 0.77043 0.71559 0.69105 0.0
C584 C 0.76944 0.67788 0.71028 0.0
H585 H 0.77178 0.77923 0.69857 0.0
H586 H 0.7706 0.71817 0.65821 0.0
C587 C 0.76856 0.67554 0.75282 0.0
C588 C 0.44945 0.49693 0.48274 0.0
C589 C 0.47012 0.49516 0.44545 0.0
H590 H 0.44421 0.5289 0.53832 0.0
C591 C 0.49708 0.5278 0.43235 0.0
H592 H 0.42867 0.47168 0.49327 0.0
C593 C 0.5061 0.56056 0.45801 0.0
C594 C 0.48861 0.56058 0.49727 0.0
H595 H 0.51337 0.52664 0.40367 0.0
H596 H 0.52923 0.58415 0.44834 0.0
C597 C 0.45846 0.52959 0.50846 0.0
C598 C 0.99649 0.51151 0.9697 0.0
C599 C 0.9785 0.49719 0.93354 0.0
H600 H 0.01789 0.49688 0.02806 0.0
C601 C 0.96944 0.4558 0.9276 0.0
H602 H 0.00375 0.54346 0.97463 0.0
C603 C 0.97683 0.42893 0.95863 0.0
C604 C 0.99429 0.44344 0.99513 0.0
H605 H 0.95587 0.44447 0.89957 0.0
H606 H 0.96823 0.39704 0.95453 0.0
C607 C 0.0049 0.48485 4e-05 0.0
C608 C 0.13036 -0.00192 0.15635 0.0
C609 C 0.16113 0.02788 0.14359 0.0
H610 H 0.11187 0.95038 0.19852 0.0
C611 C 0.19674 0.03404 0.16628 0.0
H612 H 0.10263 0.9926 0.1392 0.0
C613 C 0.20148 0.01085 0.20116 0.0
C614 C 0.17122 0.98003 0.21341 0.0
H615 H 0.22089 0.0568 0.15704 0.0
H616 H 0.22954 0.0163 0.21773 0.0
C617 C 0.13562 0.97398 0.19043 0.0
C618 C 0.32456 0.89371 0.45531 0.0
C619 C 0.36079 0.91908 0.45952 0.0
H620 H 0.2698 0.88043 0.42182 0.0
C621 C 0.36824 0.95285 0.43372 0.0
H622 H 0.31825 0.86723 0.47435 0.0
C623 C 0.34093 0.96 0.40316 0.0
C624 C 0.30519 0.93406 0.39836 0.0
H625 H 0.39591 0.97306 0.43614 0.0
H626 H 0.34834 0.98514 0.38252 0.0
C627 C 0.29674 0.90143 0.42536 0.0
C628 C 0.47713 0.02255 0.69358 0.0
C629 C 0.43702 0.03292 0.69359 0.0
H630 H 0.51869 0.98208 0.67114 0.0
C631 C 0.40824 0.01099 0.66932 0.0
H632 H 0.49993 0.03926 0.71195 0.0
C633 C 0.41898 0.9793 0.6456 0.0
C634 C 0.45856 0.96758 0.64638 0.0
H635 H 0.37725 0.01864 0.66831 0.0
H636 H 0.39584 0.96369 0.62678 0.0
C637 C 0.48768 0.98963 0.67064 0.0
C638 C 0.28113 0.12469 0.87905 0.0
C639 C 0.29712 0.09125 0.86184 0.0
H640 H 0.24246 0.14597 0.92534 0.0
C641 C 0.28715 0.05313 0.87929 0.0
H642 H 0.28814 0.15436 0.86571 0.0
C643 C 0.2623 0.04849 0.91392 0.0
C644 C 0.24568 0.08169 0.93104 0.0
H645 H 0.29867 0.02682 0.86639 0.0
H646 H 0.25546 0.0186 0.92677 0.0
C647 C 0.25493 0.11985 0.91295 0.0
C648 C 0.13177 0.05737 0.28457 0.0
C649 C 0.10819 0.0595 0.24959 0.0
H650 H 0.14449 0.02362 0.33732 0.0
C651 C 0.07831 0.02781 0.24116 0.0
H652 H 0.15558 0.08108 0.29141 0.0
C653 C 0.07198 0.99463 0.2675 0.0
C654 C 0.09573 0.9924 0.30252 0.0
H655 H 0.06008 0.02856 0.21412 0.0
H656 H 0.04836 0.97084 0.26045 0.0
C657 C 0.12582 0.02412 0.31058 0.0
C658 C 0.24534 0.91049 0.52323 0.0
C659 C 0.25094 0.86974 0.52892 0.0
H660 H 0.21153 0.95336 0.49389 0.0
C661 C 0.22703 0.84063 0.50633 0.0
H662 H 0.26334 0.93373 0.53987 0.0
C663 C 0.19727 0.85187 0.47986 0.0
C664 C 0.19064 0.89251 0.47535 0.0
H665 H 0.23066 0.80895 0.50974 0.0
H666 H 0.17876 0.8286 0.46375 0.0
C667 C 0.21558 0.92173 0.49679 0.0
C668 C 0.43678 -0.00104 0.79447 0.0
C669 C 0.40275 0.01542 0.8106 0.0
H670 H 0.45821 0.95442 0.75497 0.0
C671 C 0.36379 -0.00042 0.79871 0.0
H672 H 0.46711 0.01004 0.80395 0.0
C673 C 0.35889 0.96995 0.76895 0.0
C674 C 0.3928 0.95362 0.75267 0.0
H675 H 0.33709 0.01063 0.8117 0.0
H676 H 0.32851 0.95902 0.75946 0.0
C677 C 0.43171 0.96729 0.76662 0.0
C678 C 0.31957 0.12997 0.98499 0.0
C679 C 0.33899 0.16278 0.96307 0.0
H680 H 0.27372 0.10927 0.02869 0.0
C681 C 0.32565 0.20093 0.96793 0.0
H682 H 0.33005 0.1004 0.98238 0.0
C683 C 0.29261 0.2059 0.99393 0.0
C684 C 0.27305 0.17288 0.01587 0.0
H685 H 0.34078 0.22674 0.95184 0.0
H686 H 0.28286 0.23566 0.99739 0.0
C687 C 0.28718 0.13501 0.01132 0.0
C688 C 0.98767 0.20717 0.13048 0.0
C689 C 0.97334 0.23219 0.10062 0.0
H690 H 0.02528 0.16042 0.14385 0.0
C691 C 0.98825 0.23022 0.06055 0.0
H692 H 0.97642 0.20769 0.16153 0.0
C693 C 0.01743 0.20401 0.0508 0.0
C694 C 0.0309 0.17849 0.08068 0.0
H695 H 0.97758 0.24907 0.03696 0.0
H696 H 0.02861 0.20287 0.01979 0.0
C697 C 0.01549 0.18003 0.12043 0.0
C698 C 0.48593 0.29155 0.87147 0.0
C699 C 0.53698 0.30788 0.87061 0.0
H700 H 0.43367 0.24505 0.84501 0.0
C701 C 0.57503 0.26214 0.82118 0.0
H702 H 0.46545 0.30743 0.88975 0.0
C703 C 0.54201 0.22619 0.80036 0.0
C704 C 0.49164 0.22273 0.81084 0.0
H705 H 0.6068 0.2629 0.81122 0.0
H706 H 0.55353 0.20576 0.77871 0.0
C707 C 0.46631 0.25197 0.84306 0.0
C708 C 0.05201 0.73548 0.37438 0.0
C709 C 0.03133 0.70859 0.3471 0.0
H710 H 0.09044 0.79032 0.38233 0.0
C711 C 0.0351 0.71696 0.30516 0.0
H712 H 0.05024 0.72986 0.40684 0.0
C713 C 0.0581 0.7522 0.29107 0.0
C714 C 0.07732 0.77973 0.31873 0.0
H715 H 0.01965 0.69678 0.28335 0.0
H716 H 0.06022 0.75828 0.25871 0.0
C717 C 0.07481 0.7704 0.36037 0.0
C718 C 0.06208 0.29857 0.09549 0.0
C719 C 0.04543 0.31141 0.13192 0.0
H720 H 0.09984 0.25854 0.067 0.0
C721 C 0.05318 0.29235 0.16853 0.0
H722 H 0.05666 0.31338 0.06699 0.0
C723 C 0.07725 0.26031 0.16854 0.0
C724 C 0.09472 0.24783 0.13205 0.0
H725 H 0.04083 0.30232 0.19694 0.0
H726 H 0.08297 0.246 0.1972 0.0
C727 C 0.08692 0.26741 0.09558 0.0
C728 C 0.61833 0.73047 0.60625 0.0
C729 C 0.64042 0.73126 0.64238 0.0
H730 H 0.57625 0.75944 0.57007 0.0
C731 C 0.63714 0.76271 0.67009 0.0
H732 H 0.6202 0.70637 0.5846 0.0
C733 C 0.61287 0.79336 0.66142 0.0
C734 C 0.59037 0.7923 0.62559 0.0
H735 H 0.65401 0.76401 0.69814 0.0
H736 H 0.6116 0.81783 0.68275 0.0
C737 C 0.59295 0.76047 0.59822 0.0
C738 C 0.93576 0.73095 0.36334 0.0
C739 C 0.92579 0.72143 0.32286 0.0
H740 H 0.9666 0.77376 0.40387 0.0
C741 C 0.93858 0.7493 0.29194 0.0
H742 H 0.92564 0.71049 0.38791 0.0
C743 C 0.96085 0.78586 0.30128 0.0
C744 C 0.97156 0.79476 0.34153 0.0
H745 H 0.93099 0.74313 0.2605 0.0
H746 H 0.97003 0.80704 0.27702 0.0
C747 C 0.95906 0.76707 0.37251 0.0
C748 C 0.52114 0.29127 0.80883 0.0
C749 C 0.53269 0.24263 0.86983 0.0
H750 H 0.55937 0.35039 0.78054 0.0
C751 C 0.57806 0.2583 0.89251 0.0
H752 H 0.4961 0.2927 0.78761 0.0
C753 C 0.6087 0.29887 0.87515 0.0
C754 C 0.60053 0.33043 0.83558 0.0
H755 H 0.58738 0.24214 0.91876 0.0
H756 H 0.63667 0.30588 0.89154 0.0
C757 C 0.56038 0.32786 0.80412 0.0
C758 C 0.81247 0.05429 0.81008 0.0
C759 C 0.84294 0.08688 0.8119 0.0
H760 H 0.78806 -0.00259 0.83591 0.0
C761 C 0.87108 0.08789 0.84361 0.0
H762 H 0.78971 0.05313 0.78664 0.0
C763 C 0.87008 0.05616 0.87158 0.0
C764 C 0.84094 0.02263 0.86854 0.0
H765 H 0.89465 0.11277 0.84625 0.0
H766 H 0.8933 0.05714 0.89457 0.0
C767 C 0.81141 0.0225 0.83828 0.0
C768 C 0.67658 0.10761 0.56211 0.0
C769 C 0.66031 0.13692 0.53829 0.0
H770 H 0.72227 0.09476 0.60459 0.0
C771 C 0.67911 0.17651 0.53846 0.0
H772 H 0.66249 0.07684 0.56256 0.0
C773 C 0.71402 0.1865 0.56144 0.0
C774 C 0.73025 0.15733 0.58565 0.0
H775 H 0.66717 0.1996 0.52031 0.0
H776 H 0.72791 0.21733 0.56071 0.0
C777 C 0.7108 0.11785 0.5861 0.0
C778 C 0.64183 0.95144 0.32217 0.0
C779 C 0.61474 0.91615 0.32386 0.0
H780 H 0.66006 0.00899 0.34874 0.0
C781 C 0.58672 0.91086 0.35637 0.0
H782 H 0.66493 0.95561 0.29849 0.0
C783 C 0.58427 0.94115 0.38517 0.0
C784 C 0.60936 0.97759 0.38186 0.0
H785 H 0.56591 0.88368 0.35906 0.0
H786 H 0.56171 0.93655 0.40915 0.0
C787 C 0.63906 0.98197 0.35085 0.0
C788 C 0.76604 0.82392 0.02448 0.0
C789 C 0.7884 0.86196 0.02307 0.0
H790 H 0.71655 0.78656 0.05182 0.0
C791 C 0.77791 0.89193 0.04996 0.0
H792 H 0.77341 0.80036 0.004 0.0
C793 C 0.74579 0.88389 0.07798 0.0
C794 C 0.72289 0.84601 0.0789 0.0
H795 H 0.79484 0.92149 0.04961 0.0
H796 H 0.73861 0.90745 0.09851 0.0
C797 C 0.73338 0.81616 0.05178 0.0
C798 C 0.79261 0.99214 0.71676 0.0
C799 C 0.83161 0.01275 0.71161 0.0
H800 H 0.75528 0.94563 0.74861 0.0
C801 C 0.86226 0.00469 0.73877 0.0
H802 H 0.76835 -0.00229 0.69638 0.0
C803 C 0.85506 0.97428 0.76803 0.0
C804 C 0.81678 0.95187 0.77148 0.0
H805 H 0.89267 0.01999 0.73576 0.0
H806 H 0.87993 0.96743 0.78706 0.0
C807 C 0.78516 0.96223 0.74665 0.0
C808 C 0.75766 0.11767 0.49358 0.0
C809 C 0.75645 0.07816 0.50888 0.0
H810 H 0.73513 0.15667 0.44899 0.0
C811 C 0.72922 0.04783 0.49182 0.0
H812 H 0.77833 0.14165 0.50601 0.0
C813 C 0.70523 0.05635 0.45897 0.0
C814 C 0.70718 0.09552 0.44329 0.0
H815 H 0.72751 0.01708 0.50279 0.0
H816 H 0.68598 0.03211 0.44507 0.0
C817 C 0.73286 0.12634 0.46122 0.0
C818 C 0.61815 0.9733 0.2198 0.0
C819 C 0.57869 0.9542 0.21445 0.0
H820 H 0.65566 0.02127 0.24769 0.0
C821 C 0.54645 0.96868 0.23662 0.0
H822 H 0.6437 0.96348 0.2031 0.0
C823 C 0.55329 0.00263 0.26166 0.0
C824 C 0.59261 0.02221 0.26581 0.0
H825 H 0.51554 0.95514 0.233 0.0
H826 H 0.52781 0.01396 0.27719 0.0
C827 C 0.62498 0.00667 0.24524 0.0
C828 C 0.64913 0.84053 0.98759 0.0
C829 C 0.65963 0.87512 0.01097 0.0
H830 H 0.66225 0.80691 0.93429 0.0
C831 C 0.69331 0.90186 -0.00147 0.0
H832 H 0.62316 0.81954 0.99599 0.0
C833 C 0.71626 0.89397 0.96401 0.0
C834 C 0.70523 0.8599 0.94038 0.0
H835 H 0.70197 0.92909 0.01542 0.0
H836 H 0.74193 0.91515 0.95511 0.0
C837 C 0.67142 0.8333 0.9523 0.0
C838 C 0.99692 0.75579 0.95009 0.0
C839 C 0.98031 0.784 0.925 0.0
H840 H 0.03812 0.71026 0.95448 0.0
C841 C 0.99527 0.78949 0.88501 0.0
H842 H 0.9865 0.75124 0.98127 0.0
C843 C 0.02437 0.76589 0.8697 0.0
C844 C 0.0397 0.73647 0.89409 0.0
H845 H 0.98393 0.81157 0.86513 0.0
H846 H 0.03447 0.77035 0.8384 0.0
C847 C 0.02654 0.7324 0.93484 0.0
C848 C 0.468 0.71808 0.20654 0.0
C849 C 0.46416 0.69699 0.16986 0.0
H850 H 0.49807 0.76798 0.23847 0.0
C851 C 0.48594 0.71241 0.13544 0.0
H852 H 0.45168 0.70635 0.23353 0.0
C853 C 0.51347 0.74698 0.13837 0.0
C854 C 0.51896 0.76736 0.17561 0.0
H855 H 0.4838 0.69617 0.10699 0.0
H856 H 0.532 0.75641 0.11197 0.0
C857 C 0.49457 0.75337 0.20923 0.0
C858 C 0.96827 0.30315 0.62255 0.0
C859 C 0.99737 0.31344 0.65236 0.0
H860 H 0.91735 0.26298 0.60421 0.0
C861 C 0.99877 0.28852 0.6866 0.0
H862 H 0.96669 0.32205 0.59589 0.0
C863 C 0.97001 0.25481 0.69184 0.0
C864 C 0.93986 0.24501 0.66252 0.0
H865 H 0.02095 0.29605 0.71002 0.0
H866 H 0.97061 0.23719 0.71949 0.0
C867 C 0.94014 0.26914 0.62731 0.0
C868 C 0.91144 0.70895 0.90221 0.0
C869 C 0.94028 0.6945 0.8758 0.0
H870 H 0.86822 0.75157 0.91165 0.0
C871 C 0.94623 0.71177 0.83692 0.0
H872 H 0.90563 0.6958 0.93214 0.0
C873 C 0.92548 0.74434 0.82558 0.0
C874 C 0.89767 0.75971 0.85254 0.0
H875 H 0.96785 0.70097 0.8157 0.0
H876 H 0.93138 0.75753 0.79568 0.0
C877 C 0.89002 0.74093 0.89052 0.0
C878 C 0.41786 0.26524 0.45733 0.0
C879 C 0.41102 0.26244 0.41537 0.0
H880 H 0.45094 0.24491 0.50784 0.0
C881 C 0.42886 0.23321 0.39287 0.0
H882 H 0.40388 0.2871 0.47544 0.0
C883 C 0.45523 0.20897 0.41121 0.0
C884 C 0.46475 0.21368 0.45249 0.0
H885 H 0.42324 0.22979 0.36063 0.0
H886 H 0.46896 0.18722 0.39266 0.0
C887 C 0.44493 0.24126 0.47572 0.0
C888 C 0.0143 0.17384 0.66268 0.0
C889 C 0.98893 0.17098 0.62884 0.0
H890 H 0.06582 0.20454 0.69116 0.0
C891 C 0.99709 0.19839 0.59643 0.0
H892 H 0.00883 0.1531 0.68805 0.0
C893 C 0.03051 0.22799 0.5979 0.0
C894 C 0.05566 0.23089 0.63212 0.0
H895 H 0.97814 0.1965 0.56978 0.0
H896 H 0.03652 0.24861 0.57254 0.0
C897 C 0.04697 0.20352 0.66444 0.0
C898 C 0.38756 0.73523 0.09811 0.0
C899 C 0.36671 0.72726 0.13528 0.0
H900 H 0.43441 0.77296 0.06591 0.0
C901 C 0.37746 0.75209 0.16872 0.0
H902 H 0.37978 0.71679 0.07179 0.0
C903 C 0.40727 0.78473 0.16496 0.0
C904 C 0.42827 0.79269 0.12809 0.0
H905 H 0.36174 0.7472 0.19769 0.0
H906 H 0.41414 0.80366 0.19115 0.0
C907 C 0.41866 0.76731 0.09475 0.0
C908 C 0.67632 0.53581 0.69416 0.0
C909 C 0.65455 0.51438 0.72568 0.0
H910 H 0.6737 0.57308 0.64126 0.0
C911 C 0.61192 0.51227 0.72628 0.0
H912 H 0.7091 0.53677 0.6922 0.0
C913 C 0.59172 0.5343 0.69803 0.0
C914 C 0.61375 0.55706 0.66749 0.0
H915 H 0.59436 0.49496 0.74956 0.0
H916 H 0.55895 0.53337 0.69991 0.0
C917 C 0.65608 0.55645 0.66499 0.0
C918 C 0.85905 0.48922 0.94181 0.0
C919 C 0.84827 0.45332 0.96369 0.0
H920 H 0.84463 0.5274 0.89252 0.0
C921 C 0.81204 0.42984 0.95411 0.0
H922 H 0.88673 0.50808 0.94857 0.0
C923 C 0.78715 0.44172 0.92336 0.0
C924 C 0.79867 0.47671 0.90036 0.0
H925 H 0.80331 0.40172 0.96975 0.0
H926 H 0.75998 0.42219 0.91616 0.0
C927 C 0.83476 0.50053 0.91003 0.0
C928 C 0.84832 0.49012 0.20985 0.0
C929 C 0.8721 0.52229 0.22813 0.0
H930 H 0.84631 0.44219 0.16657 0.0
C931 C 0.91308 0.53064 0.21646 0.0
H932 H 0.81648 0.48338 0.21785 0.0
C933 C 0.93028 0.50641 0.18791 0.0
C934 C 0.90644 0.4743 0.1698 0.0
H935 H 0.93196 0.55543 0.22988 0.0
H936 H 0.96206 0.51307 0.17958 0.0
C937 C 0.86523 0.46668 0.18047 0.0
C938 C 0.72873 0.61446 0.41851 0.0
C939 C 0.72975 0.57541 0.40309 0.0
H940 H 0.70075 0.65233 0.46047 0.0
C941 C 0.70315 0.54383 0.41936 0.0
H942 H 0.74849 0.6395 0.40591 0.0
C943 C 0.6759 0.55114 0.45053 0.0
C944 C 0.67438 0.5903 0.46565 0.0
H945 H 0.70303 0.51358 0.4076 0.0
H946 H 0.65554 0.52614 0.46227 0.0
C947 C 0.70125 0.62186 0.44953 0.0
C948 C 0.66829 0.53876 0.86713 0.0
C949 C 0.63053 0.5152 0.86583 0.0
H950 H 0.70717 0.5875 0.84048 0.0
C951 C 0.60118 0.52591 0.83846 0.0
H952 H 0.69141 0.53157 0.88816 0.0
C953 C 0.60993 0.55843 0.8119 0.0
C954 C 0.64835 0.58055 0.8117 0.0
H955 H 0.5715 0.50893 0.83718 0.0
H956 H 0.58711 0.56534 0.7904 0.0
C957 C 0.67712 0.57117 0.84027 0.0
C958 C 0.76387 0.32706 0.01223 0.0
C959 C 0.78888 0.34596 0.04234 0.0
H960 H 0.71249 0.33013 0.97373 0.0
C961 C 0.78111 0.38433 0.05579 0.0
H962 H 0.7688 0.2974 0.00133 0.0
C963 C 0.74882 0.40309 0.0399 0.0
C964 C 0.7233 0.38378 0.01044 0.0
H965 H 0.79954 0.39963 0.07913 0.0
H966 H 0.74352 0.43251 0.05119 0.0
C967 C 0.73139 0.34569 0.99656 0.0
C968 C 0.87684 0.43569 0.28731 0.0
C969 C 0.91181 0.46262 0.29271 0.0
H970 H 0.84974 0.38375 0.25588 0.0
C971 C 0.94752 0.45662 0.27094 0.0
H972 H 0.84906 0.43947 0.30397 0.0
C973 C 0.94813 0.42416 0.24415 0.0
C974 C 0.91274 0.39808 0.23807 0.0
H975 H 0.97507 0.47661 0.27515 0.0
H976 H 0.976 0.4196 0.22803 0.0
C977 C 0.87718 0.404 0.25983 0.0
C978 C 0.81263 0.58419 0.46107 0.0
C979 C 0.83976 0.61506 0.44376 0.0
H980 H 0.76636 0.56779 0.50602 0.0
C981 C 0.83765 0.65478 0.45676 0.0
H982 H 0.81366 0.55318 0.45199 0.0
C983 C 0.81019 0.66322 0.48754 0.0
C984 C 0.78458 0.63205 0.50638 0.0
H985 H 0.85821 0.67918 0.4441 0.0
H986 H 0.81028 0.694 0.49775 0.0
C987 C 0.78556 0.59254 0.4922 0.0
C988 C 0.48306 0.74486 0.64399 0.0
C989 C 0.4856 0.72316 0.60797 0.0
H990 H 0.45813 0.79323 0.67419 0.0
C991 C 0.4666 0.73577 0.57289 0.0
H992 H 0.49732 0.7354 0.67137 0.0
C993 C 0.44306 0.76832 0.57461 0.0
C994 C 0.43947 0.78936 0.61112 0.0
H995 H 0.4679 0.71895 0.54491 0.0
H996 H 0.42663 0.77615 0.54796 0.0
C997 C 0.46076 0.77803 0.6454 0.0
C998 C 0.34022 0.593 0.31755 0.0
C999 C 0.30795 0.57871 0.29232 0.0
H1000 H 0.37892 0.57997 0.36661 0.0
C1001 C 0.28688 0.54084 0.30067 0.0
H1002 H 0.35672 0.62233 0.31216 0.0
C1003 C 0.2994 0.51672 0.33208 0.0
C1004 C 0.3332 0.53002 0.35574 0.0
H1005 H 0.26122 0.52953 0.28241 0.0
H1006 H 0.28333 0.48714 0.33712 0.0
C1007 C 0.35275 0.56888 0.34893 0.0
C1008 C 0.14646 0.65609 0.01893 0.0
C1009 C 0.16964 0.62889 0.03852 0.0
H1010 H 0.09969 0.66431 0.97602 0.0
C1011 C 0.16291 0.58792 0.02863 0.0
H1012 H 0.15056 0.68783 0.02617 0.0
C1013 C 0.1347 0.57464 -0.00112 0.0
C1014 C 0.11143 0.6018 0.97925 0.0
H1015 H 0.18003 0.56617 0.04332 0.0
H1016 H 0.13075 0.54288 0.99167 0.0
C1017 C 0.11723 0.64262 0.99018 0.0
C1018 C 0.07349 0.42972 0.78633 0.0
C1019 C 0.08993 0.43357 0.82533 0.0
H1020 H 0.07366 0.39936 0.72908 0.0
C1021 C 0.11914 0.40839 0.83708 0.0
H1022 H 0.05016 0.44817 0.77704 0.0
C1023 C 0.13331 0.38124 0.80916 0.0
C1024 C 0.11831 0.37907 0.76934 0.0
H1025 H 0.13201 0.41078 0.86719 0.0
H1026 H 0.15678 0.36288 0.81825 0.0
C1027 C 0.08727 0.4024 0.75876 0.0
C1028 C 0.28355 0.37245 0.56136 0.0
C1029 C 0.26381 0.33437 0.55199 0.0
H1030 H 0.3311 0.41867 0.54518 0.0
C1031 C 0.28204 0.31067 0.52316 0.0
H1032 H 0.27096 0.39112 0.5841 0.0
C1033 C 0.3177 0.32571 0.50241 0.0
C1034 C 0.33502 0.36527 0.50888 0.0
H1035 H 0.26837 0.28068 0.51605 0.0
H1036 H 0.33026 0.30715 0.47973 0.0
C1037 C 0.31818 0.38812 0.53932 0.0
C1038 C 0.30129 0.44219 0.26043 0.0
C1039 C 0.33114 0.43292 0.28802 0.0
H1040 H 0.28559 0.48052 0.21197 0.0
C1041 C 0.36816 0.45762 0.28887 0.0
H1042 H 0.27252 0.42361 0.25876 0.0
C1043 C 0.37499 0.49108 0.26313 0.0
C1044 C 0.34559 0.49975 0.2348 0.0
H1045 H 0.39194 0.45118 0.30947 0.0
H1046 H 0.40409 0.50914 0.26435 0.0
C1047 C 0.30866 0.47491 0.23372 0.0
C1048 C 0.28811 0.63125 0.02362 0.0
C1049 C 0.28925 0.59031 0.03322 0.0
H1050 H 0.2652 0.67439 0.98353 0.0
C1051 C 0.26793 0.56116 0.00858 0.0
H1052 H 0.30478 0.6544 0.04143 0.0
C1053 C 0.2465 0.57261 0.97489 0.0
C1054 C 0.24495 0.61339 0.96584 0.0
H1055 H 0.26841 0.52935 0.01478 0.0
H1056 H 0.23091 0.54958 0.95599 0.0
C1057 C 0.26566 0.64271 0.99046 0.0
C1058 C 0.08295 0.52365 0.73346 0.0
C1059 C 0.11453 0.50009 0.72376 0.0
H1060 H 0.06351 0.57162 0.76944 0.0
C1061 C 0.1507 0.50571 0.7457 0.0
H1062 H 0.05473 0.52007 0.71692 0.0
C1063 C 0.1555 0.53475 0.77624 0.0
C1064 C 0.12449 0.55941 0.78507 0.0
H1065 H 0.17544 0.48785 0.73903 0.0
H1066 H 0.18404 0.53853 0.7922 0.0
C1067 C 0.08802 0.55329 0.76345 0.0
C1068 C 0.22507 0.41797 0.50952 0.0
C1069 C 0.18953 0.39824 0.52738 0.0
H1070 H 0.27021 0.41763 0.46212 0.0
C1071 C 0.17088 0.36331 0.50884 0.0
H1072 H 0.23981 0.44534 0.52252 0.0
C1073 C 0.18792 0.34803 0.47374 0.0
C1074 C 0.2242 0.36701 0.45702 0.0
H1075 H 0.14301 0.34788 0.52129 0.0
H1076 H 0.17303 0.32113 0.45992 0.0
C1077 C 0.24258 0.40212 0.47504 0.0
C1078 C 0.53898 0.27351 0.40923 0.0
C1079 C 0.51194 0.29484 0.38718 0.0
H1080 H 0.57705 0.22533 0.4094 0.0
C1081 C 0.50437 0.28427 0.34645 0.0
H1082 H 0.5457 0.28098 0.44058 0.0
C1083 C 0.52177 0.25197 0.32883 0.0
C1084 C 0.54774 0.22974 0.35124 0.0
H1085 H 0.4839 0.30013 0.32847 0.0
H1086 H 0.51458 0.24428 0.29762 0.0
C1087 C 0.55672 0.24137 0.39144 0.0
loop_
_geom_bond_atom_site_label_1
_geom_bond_atom_site_label_2
_geom_bond_distance
_geom_bond_site_symmetry_2
_ccdc_geom_bond_type
O0 Cd1 2.223 1_565 S
O0 C8 1.315 1_565 S
Cd1 O0 2.223 1_545 S
Cd1 O4 2.297 . S
Cd1 O5 2.439 . S
Cd1 O11 2.240 . S
Cd2 O3 2.240 . S
Cd2 O10 2.223 1_455 S
Cd2 O12 2.297 1_455 S
Cd2 O13 2.439 . S
O3 Cd2 2.240 . S
O3 C8 1.279 . S
O4 Cd1 2.297 . S
O4 C6 1.247 . S
O5 Cd1 2.439 . S
O5 C6 1.208 . S
C6 O4 1.247 . S
C6 O5 1.208 . S
C7 O12 1.247 . S
C7 O13 1.208 1_655 S
C8 O0 1.315 1_545 S
C8 O3 1.279 . S
C9 O10 1.315 . S
C9 O11 1.279 1_655 S
O10 Cd2 2.223 1_655 S
O10 C9 1.315 . S
O11 Cd1 2.240 . S
O11 C9 1.279 1_455 S
O12 Cd2 2.297 1_655 S
O12 C7 1.247 . S
O13 Cd2 2.439 . S
O13 C7 1.208 1_455 S
O14 Cd15 2.223 . S
O14 C22 1.315 . S
Cd15 O14 2.223 . S
Cd15 O18 2.297 . S
Cd15 O19 2.439 . S
Cd15 O25 2.240 . S
Cd16 O17 2.240 . S
Cd16 O24 2.223 . S
Cd16 O26 2.297 . S
Cd16 O27 2.439 . S
O17 Cd16 2.240 . S
O17 C22 1.279 . S
O18 Cd15 2.297 . S
O18 C20 1.247 . S
O19 Cd15 2.439 . S
O19 C20 1.208 . S
C20 O18 1.247 . S
C20 O19 1.208 . S
C21 O26 1.247 . S
C21 O27 1.208 . S
C22 O14 1.315 . S
C22 O17 1.279 . S
C23 O24 1.315 . S
C23 O25 1.279 . S
O24 Cd16 2.223 . S
O24 C23 1.315 . S
O25 Cd15 2.240 . S
O25 C23 1.279 . S
O26 Cd16 2.297 . S
O26 C21 1.247 . S
O27 Cd16 2.439 . S
O27 C21 1.208 . S
O28 Cd29 2.223 1_545 S
O28 C36 1.315 1_545 S
Cd29 O28 2.223 1_565 S
Cd29 O32 2.297 . S
Cd29 O33 2.439 . S
Cd29 O39 2.240 . S
Cd30 O31 2.240 . S
Cd30 O38 2.223 . S
Cd30 O40 2.297 . S
Cd30 O41 2.439 . S
O31 Cd30 2.240 . S
O31 C36 1.279 . S
O32 Cd29 2.297 . S
O32 C34 1.247 . S
O33 Cd29 2.439 . S
O33 C34 1.208 . S
C34 O32 1.247 . S
C34 O33 1.208 . S
C35 O40 1.247 . S
C35 O41 1.208 . S
C36 O28 1.315 1_565 S
C36 O31 1.279 . S
C37 O38 1.315 . S
C37 O39 1.279 . S
O38 Cd30 2.223 . S
O38 C37 1.315 . S
O39 Cd29 2.240 . S
O39 C37 1.279 . S
O40 Cd30 2.297 . S
O40 C35 1.247 . S
O41 Cd30 2.439 . S
O41 C35 1.208 . S
O42 Cd43 2.223 . S
O42 C50 1.315 . S
Cd43 O42 2.223 . S
Cd43 O46 2.297 . S
Cd43 O47 2.439 . S
Cd43 O53 2.240 . S
Cd44 O45 2.240 . S
Cd44 O52 2.223 . S
Cd44 O54 2.297 . S
Cd44 O55 2.439 . S
O45 Cd44 2.240 . S
O45 C50 1.279 . S
O46 Cd43 2.297 . S
O46 C48 1.247 . S
O47 Cd43 2.439 . S
O47 C48 1.208 . S
C48 O46 1.247 . S
C48 O47 1.208 . S
C49 O54 1.247 . S
C49 O55 1.208 . S
C50 O42 1.315 . S
C50 O45 1.279 . S
C51 O52 1.315 . S
C51 O53 1.279 . S
O52 Cd44 2.223 . S
O52 C51 1.315 . S
O53 Cd43 2.240 . S
O53 C51 1.279 . S
O54 Cd44 2.297 . S
O54 C49 1.247 . S
O55 Cd44 2.439 . S
O55 C49 1.208 . S
O56 Cd57 2.223 . S
O56 C64 1.315 . S
Cd57 O56 2.223 . S
Cd57 O60 2.297 . S
Cd57 O61 2.439 . S
Cd57 O67 2.240 . S
Cd58 O59 2.240 . S
Cd58 O66 2.223 . S
Cd58 O68 2.297 . S
Cd58 O69 2.439 . S
O59 Cd58 2.240 . S
O59 C64 1.279 . S
O60 Cd57 2.297 . S
O60 C62 1.247 . S
O61 Cd57 2.439 . S
O61 C62 1.208 . S
C62 O60 1.247 . S
C62 O61 1.208 . S
C63 O68 1.247 . S
C63 O69 1.208 . S
C64 O56 1.315 . S
C64 O59 1.279 . S
C65 O66 1.315 . S
C65 O67 1.279 . S
O66 Cd58 2.223 . S
O66 C65 1.315 . S
O67 Cd57 2.240 . S
O67 C65 1.279 . S
O68 Cd58 2.297 . S
O68 C63 1.247 . S
O69 Cd58 2.439 . S
O69 C63 1.208 . S
O70 Cd71 2.223 . S
O70 C78 1.315 . S
Cd71 O70 2.223 . S
Cd71 O74 2.297 . S
Cd71 O75 2.439 . S
Cd71 O81 2.240 . S
Cd72 O73 2.240 . S
Cd72 O80 2.223 . S
Cd72 O82 2.297 . S
Cd72 O83 2.439 . S
O73 Cd72 2.240 . S
O73 C78 1.279 . S
O74 Cd71 2.297 . S
O74 C76 1.247 . S
O75 Cd71 2.439 . S
O75 C76 1.208 . S
C76 O74 1.247 . S
C76 O75 1.208 . S
C77 O82 1.247 . S
C77 O83 1.208 . S
C78 O70 1.315 . S
C78 O73 1.279 . S
C79 O80 1.315 . S
C79 O81 1.279 . S
O80 Cd72 2.223 . S
O80 C79 1.315 . S
O81 Cd71 2.240 . S
O81 C79 1.279 . S
O82 Cd72 2.297 . S
O82 C77 1.247 . S
O83 Cd72 2.439 . S
O83 C77 1.208 . S
O84 Cd85 2.223 . S
O84 C92 1.315 . S
Cd85 O84 2.223 . S
Cd85 O88 2.297 . S
Cd85 O89 2.439 . S
Cd85 O95 2.240 . S
Cd86 O87 2.240 . S
Cd86 O94 2.223 . S
Cd86 O96 2.297 . S
Cd86 O97 2.439 . S
O87 Cd86 2.240 . S
O87 C92 1.279 . S
O88 Cd85 2.297 . S
O88 C90 1.247 . S
O89 Cd85 2.439 . S
O89 C90 1.208 . S
C90 O88 1.247 . S
C90 O89 1.208 . S
C91 O96 1.247 . S
C91 O97 1.208 . S
C92 O84 1.315 . S
C92 O87 1.279 . S
C93 O94 1.315 . S
C93 O95 1.279 . S
O94 Cd86 2.223 . S
O94 C93 1.315 . S
O95 Cd85 2.240 . S
O95 C93 1.279 . S
O96 Cd86 2.297 . S
O96 C91 1.247 . S
O97 Cd86 2.439 . S
O97 C91 1.208 . S
O98 Cd99 2.223 . S
O98 C106 1.315 . S
Cd99 O98 2.223 . S
Cd99 O102 2.297 . S
Cd99 O103 2.439 . S
Cd99 O109 2.240 . S
Cd100 O101 2.240 . S
Cd100 O108 2.223 . S
Cd100 O110 2.297 . S
Cd100 O111 2.439 . S
O101 Cd100 2.240 . S
O101 C106 1.279 . S
O102 Cd99 2.297 . S
O102 C104 1.247 . S
O103 Cd99 2.439 . S
O103 C104 1.208 . S
C104 O102 1.247 . S
C104 O103 1.208 . S
C105 O110 1.247 . S
C105 O111 1.208 . S
C106 O98 1.315 . S
C106 O101 1.279 . S
C107 O108 1.315 . S
C107 O109 1.279 . S
O108 Cd100 2.223 . S
O108 C107 1.315 . S
O109 Cd99 2.240 . S
O109 C107 1.279 . S
O110 Cd100 2.297 . S
O110 C105 1.247 . S
O111 Cd100 2.439 . S
O111 C105 1.208 . S
O112 Cd113 2.223 . S
O112 C120 1.315 . S
Cd113 O112 2.223 . S
Cd113 O116 2.297 . S
Cd113 O117 2.439 . S
Cd113 O123 2.240 . S
Cd114 O115 2.240 . S
Cd114 O122 2.223 . S
Cd114 O124 2.297 . S
Cd114 O125 2.439 . S
O115 Cd114 2.240 . S
O115 C120 1.279 . S
O116 Cd113 2.297 . S
O116 C118 1.247 . S
O117 Cd113 2.439 . S
O117 C118 1.208 . S
C118 O116 1.247 . S
C118 O117 1.208 . S
C119 O124 1.247 . S
C119 O125 1.208 . S
C120 O112 1.315 . S
C120 O115 1.279 . S
C121 O122 1.315 . S
C121 O123 1.279 . S
O122 Cd114 2.223 . S
O122 C121 1.315 . S
O123 Cd113 2.240 . S
O123 C121 1.279 . S
O124 Cd114 2.297 . S
O124 C119 1.247 . S
O125 Cd114 2.439 . S
O125 C119 1.208 . S
O126 Cd127 2.223 . S
O126 C134 1.315 . S
Cd127 O126 2.223 . S
Cd127 O130 2.297 . S
Cd127 O131 2.439 . S
Cd127 O137 2.240 . S
Cd128 O129 2.240 . S
Cd128 O136 2.223 . S
Cd128 O138 2.297 . S
Cd128 O139 2.439 . S
O129 Cd128 2.240 . S
O129 C134 1.279 . S
O130 Cd127 2.297 . S
O130 C132 1.247 . S
O131 Cd127 2.439 . S
O131 C132 1.208 . S
C132 O130 1.247 . S
C132 O131 1.208 . S
C133 O138 1.247 . S
C133 O139 1.208 . S
C134 O126 1.315 . S
C134 O129 1.279 . S
C135 O136 1.315 . S
C135 O137 1.279 . S
O136 Cd128 2.223 . S
O136 C135 1.315 . S
O137 Cd127 2.240 . S
O137 C135 1.279 . S
O138 Cd128 2.297 . S
O138 C133 1.247 . S
O139 Cd128 2.439 . S
O139 C133 1.208 . S
O140 Cd141 2.223 . S
O140 C148 1.315 . S
Cd141 O140 2.223 . S
Cd141 O144 2.297 . S
Cd141 O145 2.439 . S
Cd141 O151 2.240 . S
Cd142 O143 2.240 . S
Cd142 O150 2.223 . S
Cd142 O152 2.297 . S
Cd142 O153 2.439 . S
O143 Cd142 2.240 . S
O143 C148 1.279 . S
O144 Cd141 2.297 . S
O144 C146 1.247 . S
O145 Cd141 2.439 . S
O145 C146 1.208 . S
C146 O144 1.247 . S
C146 O145 1.208 . S
C147 O152 1.247 . S
C147 O153 1.208 . S
C148 O140 1.315 . S
C148 O143 1.279 . S
C149 O150 1.315 . S
C149 O151 1.279 . S
O150 Cd142 2.223 . S
O150 C149 1.315 . S
O151 Cd141 2.240 . S
O151 C149 1.279 . S
O152 Cd142 2.297 . S
O152 C147 1.247 . S
O153 Cd142 2.439 . S
O153 C147 1.208 . S
O154 Cd155 2.223 . S
O154 C162 1.315 . S
Cd155 O154 2.223 . S
Cd155 O158 2.297 . S
Cd155 O159 2.439 . S
Cd155 O165 2.240 . S
Cd156 O157 2.240 . S
Cd156 O164 2.223 . S
Cd156 O166 2.297 . S
Cd156 O167 2.439 . S
O157 Cd156 2.240 . S
O157 C162 1.279 . S
O158 Cd155 2.297 . S
O158 C160 1.247 . S
O159 Cd155 2.439 . S
O159 C160 1.208 . S
C160 O158 1.247 . S
C160 O159 1.208 . S
C161 O166 1.247 . S
C161 O167 1.208 . S
C162 O154 1.315 . S
C162 O157 1.279 . S
C163 O164 1.315 . S
C163 O165 1.279 . S
O164 Cd156 2.223 . S
O164 C163 1.315 . S
O165 Cd155 2.240 . S
O165 C163 1.279 . S
O166 Cd156 2.297 . S
O166 C161 1.247 . S
O167 Cd156 2.439 . S
O167 C161 1.208 . S
O168 Cd169 2.223 . S
O168 C176 1.315 . S
Cd169 O168 2.223 . S
Cd169 O172 2.297 . S
Cd169 O173 2.439 . S
Cd169 O179 2.240 . S
Cd170 O171 2.240 . S
Cd170 O178 2.223 . S
Cd170 O180 2.297 . S
Cd170 O181 2.439 . S
O171 Cd170 2.240 . S
O171 C176 1.279 . S
O172 Cd169 2.297 . S
O172 C174 1.247 . S
O173 Cd169 2.439 . S
O173 C174 1.208 . S
C174 O172 1.247 . S
C174 O173 1.208 . S
C175 O180 1.247 . S
C175 O181 1.208 . S
C176 O168 1.315 . S
C176 O171 1.279 . S
C177 O178 1.315 . S
C177 O179 1.279 . S
O178 Cd170 2.223 . S
O178 C177 1.315 . S
O179 Cd169 2.240 . S
O179 C177 1.279 . S
O180 Cd170 2.297 . S
O180 C175 1.247 . S
O181 Cd170 2.439 . S
O181 C175 1.208 . S
O182 Cd183 2.223 . S
O182 C190 1.315 . S
Cd183 O182 2.223 . S
Cd183 O186 2.297 . S
Cd183 O187 2.439 . S
Cd183 O193 2.240 . S
Cd184 O185 2.240 . S
Cd184 O192 2.223 1_556 S
Cd184 O194 2.297 . S
Cd184 O195 2.439 . S
O185 Cd184 2.240 . S
O185 C190 1.279 . S
O186 Cd183 2.297 . S
O186 C188 1.247 . S
O187 Cd183 2.439 . S
O187 C188 1.208 . S
C188 O186 1.247 . S
C188 O187 1.208 . S
C189 O194 1.247 . S
C189 O195 1.208 . S
C190 O182 1.315 . S
C190 O185 1.279 . S
C191 O192 1.315 1_556 S
C191 O193 1.279 . S
O192 Cd184 2.223 1_554 S
O192 C191 1.315 1_554 S
O193 Cd183 2.240 . S
O193 C191 1.279 . S
O194 Cd184 2.297 . S
O194 C189 1.247 . S
O195 Cd184 2.439 . S
O195 C189 1.208 . S
O196 Cd197 2.223 . S
O196 C204 1.315 . S
Cd197 O196 2.223 . S
Cd197 O200 2.297 . S
Cd197 O201 2.439 . S
Cd197 O207 2.240 . S
Cd198 O199 2.240 . S
Cd198 O206 2.223 . S
Cd198 O208 2.297 . S
Cd198 O209 2.439 . S
O199 Cd198 2.240 . S
O199 C204 1.279 . S
O200 Cd197 2.297 . S
O200 C202 1.247 . S
O201 Cd197 2.439 . S
O201 C202 1.208 . S
C202 O200 1.247 . S
C202 O201 1.208 . S
C203 O208 1.247 . S
C203 O209 1.208 . S
C204 O196 1.315 . S
C204 O199 1.279 . S
C205 O206 1.315 . S
C205 O207 1.279 . S
O206 Cd198 2.223 . S
O206 C205 1.315 . S
O207 Cd197 2.240 . S
O207 C205 1.279 . S
O208 Cd198 2.297 . S
O208 C203 1.247 . S
O209 Cd198 2.439 . S
O209 C203 1.208 . S
O210 Cd211 2.223 . S
O210 C218 1.315 . S
Cd211 O210 2.223 . S
Cd211 O214 2.297 . S
Cd211 O215 2.439 . S
Cd211 O221 2.240 . S
Cd212 O213 2.240 . S
Cd212 O220 2.223 . S
Cd212 O222 2.297 . S
Cd212 O223 2.439 . S
O213 Cd212 2.240 . S
O213 C218 1.279 . S
O214 Cd211 2.297 . S
O214 C216 1.247 . S
O215 Cd211 2.439 . S
O215 C216 1.208 . S
C216 O214 1.247 . S
C216 O215 1.208 . S
C217 O222 1.247 . S
C217 O223 1.208 . S
C218 O210 1.315 . S
C218 O213 1.279 . S
C219 O220 1.315 . S
C219 O221 1.279 . S
O220 Cd212 2.223 . S
O220 C219 1.315 . S
O221 Cd211 2.240 . S
O221 C219 1.279 . S
O222 Cd212 2.297 . S
O222 C217 1.247 . S
O223 Cd212 2.439 . S
O223 C217 1.208 . S
O224 Cd225 2.223 . S
O224 C232 1.315 . S
Cd225 O224 2.223 . S
Cd225 O228 2.297 . S
Cd225 O229 2.439 . S
Cd225 O235 2.240 . S
Cd226 O227 2.240 . S
Cd226 O234 2.223 . S
Cd226 O236 2.297 . S
Cd226 O237 2.439 . S
O227 Cd226 2.240 . S
O227 C232 1.279 . S
O228 Cd225 2.297 . S
O228 C230 1.247 . S
O229 Cd225 2.439 . S
O229 C230 1.208 . S
C230 O228 1.247 . S
C230 O229 1.208 . S
C231 O236 1.247 . S
C231 O237 1.208 . S
C232 O224 1.315 . S
C232 O227 1.279 . S
C233 O234 1.315 . S
C233 O235 1.279 . S
O234 Cd226 2.223 . S
O234 C233 1.315 . S
O235 Cd225 2.240 . S
O235 C233 1.279 . S
O236 Cd226 2.297 . S
O236 C231 1.247 . S
O237 Cd226 2.439 . S
O237 C231 1.208 . S
O238 Cd239 2.223 . S
O238 C246 1.315 . S
Cd239 O238 2.223 . S
Cd239 O242 2.297 . S
Cd239 O243 2.439 . S
Cd239 O249 2.240 . S
Cd240 O241 2.240 . S
Cd240 O248 2.223 1_545 S
Cd240 O250 2.297 . S
Cd240 O251 2.439 . S
O241 Cd240 2.240 . S
O241 C246 1.279 . S
O242 Cd239 2.297 . S
O242 C244 1.247 . S
O243 Cd239 2.439 . S
O243 C244 1.208 . S
C244 O242 1.247 . S
C244 O243 1.208 . S
C245 O250 1.247 . S
C245 O251 1.208 . S
C246 O238 1.315 . S
C246 O241 1.279 . S
C247 O248 1.315 1_545 S
C247 O249 1.279 . S
O248 Cd240 2.223 1_565 S
O248 C247 1.315 1_565 S
O249 Cd239 2.240 . S
O249 C247 1.279 . S
O250 Cd240 2.297 . S
O250 C245 1.247 . S
O251 Cd240 2.439 . S
O251 C245 1.208 . S
O252 Cd253 2.223 . S
O252 C260 1.315 . S
Cd253 O252 2.223 . S
Cd253 O256 2.297 . S
Cd253 O257 2.439 . S
Cd253 O263 2.240 . S
Cd254 O255 2.240 . S
Cd254 O262 2.223 . S
Cd254 O264 2.297 . S
Cd254 O265 2.439 . S
O255 Cd254 2.240 . S
O255 C260 1.279 . S
O256 Cd253 2.297 . S
O256 C258 1.247 . S
O257 Cd253 2.439 . S
O257 C258 1.208 . S
C258 O256 1.247 . S
C258 O257 1.208 . S
C259 O264 1.247 . S
C259 O265 1.208 . S
C260 O252 1.315 . S
C260 O255 1.279 . S
C261 O262 1.315 . S
C261 O263 1.279 . S
O262 Cd254 2.223 . S
O262 C261 1.315 . S
O263 Cd253 2.240 . S
O263 C261 1.279 . S
O264 Cd254 2.297 . S
O264 C259 1.247 . S
O265 Cd254 2.439 . S
O265 C259 1.208 . S
O266 Cd267 2.223 . S
O266 C274 1.315 . S
Cd267 O266 2.223 . S
Cd267 O270 2.297 . S
Cd267 O271 2.439 . S
Cd267 O277 2.240 . S
Cd268 O269 2.240 . S
Cd268 O276 2.223 . S
Cd268 O278 2.297 . S
Cd268 O279 2.439 . S
O269 Cd268 2.240 . S
O269 C274 1.279 . S
O270 Cd267 2.297 . S
O270 C272 1.247 . S
O271 Cd267 2.439 . S
O271 C272 1.208 . S
C272 O270 1.247 . S
C272 O271 1.208 . S
C273 O278 1.247 . S
C273 O279 1.208 . S
C274 O266 1.315 . S
C274 O269 1.279 . S
C275 O276 1.315 . S
C275 O277 1.279 . S
O276 Cd268 2.223 . S
O276 C275 1.315 . S
O277 Cd267 2.240 . S
O277 C275 1.279 . S
O278 Cd268 2.297 . S
O278 C273 1.247 . S
O279 Cd268 2.439 . S
O279 C273 1.208 . S
O280 Cd281 2.223 . S
O280 C288 1.315 . S
Cd281 O280 2.223 . S
Cd281 O284 2.297 . S
Cd281 O285 2.439 . S
Cd281 O291 2.240 . S
Cd282 O283 2.240 . S
Cd282 O290 2.223 . S
Cd282 O292 2.297 . S
Cd282 O293 2.439 . S
O283 Cd282 2.240 . S
O283 C288 1.279 . S
O284 Cd281 2.297 . S
O284 C286 1.247 . S
O285 Cd281 2.439 . S
O285 C286 1.208 . S
C286 O284 1.247 . S
C286 O285 1.208 . S
C287 O292 1.247 . S
C287 O293 1.208 . S
C288 O280 1.315 . S
C288 O283 1.279 . S
C289 O290 1.315 . S
C289 O291 1.279 . S
O290 Cd282 2.223 . S
O290 C289 1.315 . S
O291 Cd281 2.240 . S
O291 C289 1.279 . S
O292 Cd282 2.297 . S
O292 C287 1.247 . S
O293 Cd282 2.439 . S
O293 C287 1.208 . S
O294 Cd295 2.223 . S
O294 C302 1.315 . S
Cd295 O294 2.223 . S
Cd295 O298 2.297 . S
Cd295 O299 2.439 . S
Cd295 O305 2.240 . S
Cd296 O297 2.240 . S
Cd296 O304 2.223 . S
Cd296 O306 2.297 . S
Cd296 O307 2.439 . S
O297 Cd296 2.240 . S
O297 C302 1.279 . S
O298 Cd295 2.297 . S
O298 C300 1.247 . S
O299 Cd295 2.439 . S
O299 C300 1.208 . S
C300 O298 1.247 . S
C300 O299 1.208 . S
C301 O306 1.247 . S
C301 O307 1.208 . S
C302 O294 1.315 . S
C302 O297 1.279 . S
C303 O304 1.315 . S
C303 O305 1.279 . S
O304 Cd296 2.223 . S
O304 C303 1.315 . S
O305 Cd295 2.240 . S
O305 C303 1.279 . S
O306 Cd296 2.297 . S
O306 C301 1.247 . S
O307 Cd296 2.439 . S
O307 C301 1.208 . S
O308 Cd309 2.223 . S
O308 C316 1.315 . S
Cd309 O308 2.223 . S
Cd309 O312 2.297 . S
Cd309 O313 2.439 . S
Cd309 O319 2.240 . S
Cd310 O311 2.240 . S
Cd310 O318 2.223 . S
Cd310 O320 2.297 . S
Cd310 O321 2.439 . S
O311 Cd310 2.240 . S
O311 C316 1.279 . S
O312 Cd309 2.297 . S
O312 C314 1.247 . S
O313 Cd309 2.439 . S
O313 C314 1.208 . S
C314 O312 1.247 . S
C314 O313 1.208 . S
C315 O320 1.247 . S
C315 O321 1.208 . S
C316 O308 1.315 . S
C316 O311 1.279 . S
C317 O318 1.315 . S
C317 O319 1.279 . S
O318 Cd310 2.223 . S
O318 C317 1.315 . S
O319 Cd309 2.240 . S
O319 C317 1.279 . S
O320 Cd310 2.297 . S
O320 C315 1.247 . S
O321 Cd310 2.439 . S
O321 C315 1.208 . S
O322 Cd323 2.223 . S
O322 C330 1.315 . S
Cd323 O322 2.223 . S
Cd323 O326 2.297 . S
Cd323 O327 2.439 . S
Cd323 O333 2.240 . S
Cd324 O325 2.240 . S
Cd324 O332 2.223 . S
Cd324 O334 2.297 . S
Cd324 O335 2.439 . S
O325 Cd324 2.240 . S
O325 C330 1.279 . S
O326 Cd323 2.297 . S
O326 C328 1.247 . S
O327 Cd323 2.439 . S
O327 C328 1.208 . S
C328 O326 1.247 . S
C328 O327 1.208 . S
C329 O334 1.247 . S
C329 O335 1.208 . S
C330 O322 1.315 . S
C330 O325 1.279 . S
C331 O332 1.315 . S
C331 O333 1.279 . S
O332 Cd324 2.223 . S
O332 C331 1.315 . S
O333 Cd323 2.240 . S
O333 C331 1.279 . S
O334 Cd324 2.297 . S
O334 C329 1.247 . S
O335 Cd324 2.439 . S
O335 C329 1.208 . S
O336 Cd337 2.223 . S
O336 C344 1.315 . S
Cd337 O336 2.223 . S
Cd337 O340 2.297 . S
Cd337 O341 2.439 . S
Cd337 O347 2.240 . S
Cd338 O339 2.240 . S
Cd338 O346 2.223 . S
Cd338 O348 2.297 . S
Cd338 O349 2.439 . S
O339 Cd338 2.240 . S
O339 C344 1.279 . S
O340 Cd337 2.297 . S
O340 C342 1.247 . S
O341 Cd337 2.439 . S
O341 C342 1.208 . S
C342 O340 1.247 . S
C342 O341 1.208 . S
C343 O348 1.247 . S
C343 O349 1.208 . S
C344 O336 1.315 . S
C344 O339 1.279 . S
C345 O346 1.315 . S
C345 O347 1.279 . S
O346 Cd338 2.223 . S
O346 C345 1.315 . S
O347 Cd337 2.240 . S
O347 C345 1.279 . S
O348 Cd338 2.297 . S
O348 C343 1.247 . S
O349 Cd338 2.439 . S
O349 C343 1.208 . S
O350 Cd351 2.223 . S
O350 C358 1.315 . S
Cd351 O350 2.223 . S
Cd351 O354 2.297 . S
Cd351 O355 2.439 . S
Cd351 O361 2.240 . S
Cd352 O353 2.240 . S
Cd352 O360 2.223 . S
Cd352 O362 2.297 . S
Cd352 O363 2.439 . S
O353 Cd352 2.240 . S
O353 C358 1.279 . S
O354 Cd351 2.297 . S
O354 C356 1.247 . S
O355 Cd351 2.439 . S
O355 C356 1.208 . S
C356 O354 1.247 . S
C356 O355 1.208 . S
C357 O362 1.247 . S
C357 O363 1.208 . S
C358 O350 1.315 . S
C358 O353 1.279 . S
C359 O360 1.315 . S
C359 O361 1.279 . S
O360 Cd352 2.223 . S
O360 C359 1.315 . S
O361 Cd351 2.240 . S
O361 C359 1.279 . S
O362 Cd352 2.297 . S
O362 C357 1.247 . S
O363 Cd352 2.439 . S
O363 C357 1.208 . S
O364 Cd365 2.223 . S
O364 C372 1.315 . S
Cd365 O364 2.223 . S
Cd365 O368 2.297 . S
Cd365 O369 2.439 . S
Cd365 O375 2.240 . S
Cd366 O367 2.240 . S
Cd366 O374 2.223 . S
Cd366 O376 2.297 . S
Cd366 O377 2.439 . S
O367 Cd366 2.240 . S
O367 C372 1.279 . S
O368 Cd365 2.297 . S
O368 C370 1.247 . S
O369 Cd365 2.439 . S
O369 C370 1.208 . S
C370 O368 1.247 . S
C370 O369 1.208 . S
C371 O376 1.247 . S
C371 O377 1.208 . S
C372 O364 1.315 . S
C372 O367 1.279 . S
C373 O374 1.315 . S
C373 O375 1.279 . S
O374 Cd366 2.223 . S
O374 C373 1.315 . S
O375 Cd365 2.240 . S
O375 C373 1.279 . S
O376 Cd366 2.297 . S
O376 C371 1.247 . S
O377 Cd366 2.439 . S
O377 C371 1.208 . S
O378 Cd379 2.223 . S
O378 C386 1.315 . S
Cd379 O378 2.223 . S
Cd379 O382 2.297 . S
Cd379 O383 2.439 . S
Cd379 O389 2.240 . S
Cd380 O381 2.240 . S
Cd380 O388 2.223 1_655 S
Cd380 O390 2.297 1_655 S
Cd380 O391 2.439 . S
O381 Cd380 2.240 . S
O381 C386 1.279 . S
O382 Cd379 2.297 . S
O382 C384 1.247 . S
O383 Cd379 2.439 . S
O383 C384 1.208 . S
C384 O382 1.247 . S
C384 O383 1.208 . S
C385 O390 1.247 . S
C385 O391 1.208 1_455 S
C386 O378 1.315 . S
C386 O381 1.279 . S
C387 O388 1.315 . S
C387 O389 1.279 1_455 S
O388 Cd380 2.223 1_455 S
O388 C387 1.315 . S
O389 Cd379 2.240 . S
O389 C387 1.279 1_655 S
O390 Cd380 2.297 1_455 S
O390 C385 1.247 . S
O391 Cd380 2.439 . S
O391 C385 1.208 1_655 S
O392 Cd393 2.223 . S
O392 C400 1.315 . S
Cd393 O392 2.223 . S
Cd393 O396 2.297 . S
Cd393 O397 2.439 . S
Cd393 O403 2.240 . S
Cd394 O395 2.240 . S
Cd394 O402 2.223 . S
Cd394 O404 2.297 . S
Cd394 O405 2.439 . S
O395 Cd394 2.240 . S
O395 C400 1.279 . S
O396 Cd393 2.297 . S
O396 C398 1.247 . S
O397 Cd393 2.439 . S
O397 C398 1.208 . S
C398 O396 1.247 . S
C398 O397 1.208 . S
C399 O404 1.247 . S
C399 O405 1.208 . S
C400 O392 1.315 . S
C400 O395 1.279 . S
C401 O402 1.315 . S
C401 O403 1.279 . S
O402 Cd394 2.223 . S
O402 C401 1.315 . S
O403 Cd393 2.240 . S
O403 C401 1.279 . S
O404 Cd394 2.297 . S
O404 C399 1.247 . S
O405 Cd394 2.439 . S
O405 C399 1.208 . S
O406 Cd407 2.223 . S
O406 C414 1.315 . S
Cd407 O406 2.223 . S
Cd407 O410 2.297 . S
Cd407 O411 2.439 . S
Cd407 O417 2.240 . S
Cd408 O409 2.240 . S
Cd408 O416 2.223 . S
Cd408 O418 2.297 . S
Cd408 O419 2.439 . S
O409 Cd408 2.240 . S
O409 C414 1.279 . S
O410 Cd407 2.297 . S
O410 C412 1.247 . S
O411 Cd407 2.439 . S
O411 C412 1.208 . S
C412 O410 1.247 . S
C412 O411 1.208 . S
C413 O418 1.247 . S
C413 O419 1.208 . S
C414 O406 1.315 . S
C414 O409 1.279 . S
C415 O416 1.315 . S
C415 O417 1.279 . S
O416 Cd408 2.223 . S
O416 C415 1.315 . S
O417 Cd407 2.240 . S
O417 C415 1.279 . S
O418 Cd408 2.297 . S
O418 C413 1.247 . S
O419 Cd408 2.439 . S
O419 C413 1.208 . S
O420 Cd421 2.223 . S
O420 C428 1.315 . S
Cd421 O420 2.223 . S
Cd421 O424 2.297 . S
Cd421 O425 2.439 . S
Cd421 O431 2.240 . S
Cd422 O423 2.240 . S
Cd422 O430 2.223 1_556 S
Cd422 O432 2.297 . S
Cd422 O433 2.439 . S
O423 Cd422 2.240 . S
O423 C428 1.279 . S
O424 Cd421 2.297 . S
O424 C426 1.247 . S
O425 Cd421 2.439 . S
O425 C426 1.208 . S
C426 O424 1.247 . S
C426 O425 1.208 . S
C427 O432 1.247 . S
C427 O433 1.208 . S
C428 O420 1.315 . S
C428 O423 1.279 . S
C429 O430 1.315 1_556 S
C429 O431 1.279 . S
O430 Cd422 2.223 1_554 S
O430 C429 1.315 1_554 S
O431 Cd421 2.240 . S
O431 C429 1.279 . S
O432 Cd422 2.297 . S
O432 C427 1.247 . S
O433 Cd422 2.439 . S
O433 C427 1.208 . S
O434 Cd435 2.223 . S
O434 C442 1.315 . S
Cd435 O434 2.223 . S
Cd435 O438 2.297 . S
Cd435 O439 2.439 . S
Cd435 O445 2.240 . S
Cd436 O437 2.240 . S
Cd436 O444 2.223 . S
Cd436 O446 2.297 . S
Cd436 O447 2.439 . S
O437 Cd436 2.240 . S
O437 C442 1.279 . S
O438 Cd435 2.297 . S
O438 C440 1.247 . S
O439 Cd435 2.439 . S
O439 C440 1.208 . S
C440 O438 1.247 . S
C440 O439 1.208 . S
C441 O446 1.247 . S
C441 O447 1.208 . S
C442 O434 1.315 . S
C442 O437 1.279 . S
C443 O444 1.315 . S
C443 O445 1.279 . S
O444 Cd436 2.223 . S
O444 C443 1.315 . S
O445 Cd435 2.240 . S
O445 C443 1.279 . S
O446 Cd436 2.297 . S
O446 C441 1.247 . S
O447 Cd436 2.439 . S
O447 C441 1.208 . S
C448 C449 1.387 . S
C448 H452 0.950 . S
C448 C457 1.390 . S
C449 C448 1.387 . S
C449 C451 1.387 1_655 S
H450 C457 0.950 . S
C451 C449 1.387 1_455 S
C451 C453 1.391 . S
C451 H455 0.950 1_565 S
H452 C448 0.950 . S
C453 C451 1.391 . S
C453 C454 1.381 1_455 S
C453 H456 0.954 1_554 S
C454 C453 1.381 1_655 S
C454 C457 1.387 . S
H455 C451 0.950 1_545 S
H456 C453 0.954 1_556 S
C457 C448 1.390 . S
C457 H450 0.950 . S
C457 C454 1.387 . S
C458 C459 1.387 . S
C458 H462 0.950 . S
C458 C467 1.390 . S
C459 C458 1.387 . S
C459 C461 1.387 . S
H460 C467 0.950 . S
C461 C459 1.387 . S
C461 C463 1.390 . S
C461 H465 0.950 . S
H462 C458 0.950 . S
C463 C461 1.390 . S
C463 C464 1.387 . S
C463 H466 0.950 . S
C464 C463 1.387 . S
C464 C467 1.387 . S
H465 C461 0.950 . S
H466 C463 0.950 . S
C467 C458 1.390 . S
C467 H460 0.950 . S
C467 C464 1.387 . S
C468 C469 1.387 . S
C468 H472 0.950 1_545 S
C468 C477 1.390 . S
C469 C468 1.387 . S
C469 C471 1.387 . S
H470 C477 0.950 . S
C471 C469 1.387 . S
C471 C473 1.390 . S
C471 H475 0.950 . S
H472 C468 0.950 1_565 S
C473 C471 1.390 . S
C473 C474 1.387 . S
C473 H476 0.950 . S
C474 C473 1.387 . S
C474 C477 1.387 . S
H475 C471 0.950 . S
H476 C473 0.950 . S
C477 C468 1.390 . S
C477 H470 0.950 . S
C477 C474 1.387 . S
C478 C479 1.387 . S
C478 H482 0.950 . S
C478 C487 1.390 . S
C479 C478 1.387 . S
C479 C481 1.387 . S
H480 C487 0.950 . S
C481 C479 1.387 . S
C481 C483 1.390 . S
C481 H485 0.950 . S
H482 C478 0.950 . S
C483 C481 1.390 . S
C483 C484 1.387 . S
C483 H486 0.950 . S
C484 C483 1.387 . S
C484 C487 1.387 . S
H485 C481 0.950 . S
H486 C483 0.950 . S
C487 C478 1.390 . S
C487 H480 0.950 . S
C487 C484 1.387 . S
C488 C489 1.387 . S
C488 H492 0.950 . S
C488 C497 1.390 . S
C489 C488 1.387 . S
C489 C491 1.387 1_655 S
H490 C497 0.950 1_545 S
C491 C489 1.387 1_455 S
C491 C493 1.390 1_455 S
C491 H495 0.950 . S
H492 C488 0.950 . S
C493 C491 1.390 1_655 S
C493 C494 1.387 . S
C493 H496 0.950 . S
C494 C493 1.387 . S
C494 C497 1.387 . S
H495 C491 0.950 . S
H496 C493 0.950 . S
C497 C488 1.390 . S
C497 H490 0.950 1_565 S
C497 C494 1.387 . S
C498 C499 1.387 . S
C498 H502 0.950 . S
C498 C507 1.390 . S
C499 C498 1.387 . S
C499 C501 1.387 . S
H500 C507 0.950 . S
C501 C499 1.387 . S
C501 C503 1.390 . S
C501 H505 0.950 . S
H502 C498 0.950 . S
C503 C501 1.390 . S
C503 C504 1.387 . S
C503 H506 0.950 . S
C504 C503 1.387 . S
C504 C507 1.387 . S
H505 C501 0.950 . S
H506 C503 0.950 . S
C507 C498 1.390 . S
C507 H500 0.950 . S
C507 C504 1.387 . S
C508 C509 1.387 1_554 S
C508 H512 0.950 . S
C508 C517 1.390 . S
C509 C508 1.387 1_556 S
C509 C511 1.387 . S
H510 C517 0.950 . S
C511 C509 1.387 . S
C511 C513 1.390 . S
C511 H515 0.950 . S
H512 C508 0.950 . S
C513 C511 1.390 . S
C513 C514 1.387 1_556 S
C513 H516 0.950 1_545 S
C514 C513 1.387 1_554 S
C514 C517 1.387 . S
H515 C511 0.950 . S
H516 C513 0.950 1_565 S
C517 C508 1.390 . S
C517 H510 0.950 . S
C517 C514 1.387 . S
C518 C519 1.387 . S
C518 H522 0.950 . S
C518 C527 1.390 . S
C519 C518 1.387 . S
C519 C521 1.387 . S
H520 C527 0.950 . S
C521 C519 1.387 . S
C521 C523 1.390 . S
C521 H525 0.950 . S
H522 C518 0.950 . S
C523 C521 1.390 . S
C523 C524 1.387 . S
C523 H526 0.950 . S
C524 C523 1.387 . S
C524 C527 1.387 . S
H525 C521 0.950 . S
H526 C523 0.950 . S
C527 C518 1.390 . S
C527 H520 0.950 . S
C527 C524 1.387 . S
C528 C529 1.387 . S
C528 H532 0.950 . S
C528 C537 1.390 1_554 S
C529 C528 1.387 . S
C529 C531 1.387 1_554 S
H530 C537 0.950 . S
C531 C529 1.387 1_556 S
C531 C533 1.390 . S
C531 H535 0.950 . S
H532 C528 0.950 . S
C533 C531 1.390 . S
C533 C534 1.387 . S
C533 H536 0.950 . S
C534 C533 1.387 . S
C534 C537 1.387 . S
H535 C531 0.950 . S
H536 C533 0.950 . S
C537 C528 1.390 1_556 S
C537 H530 0.950 . S
C537 C534 1.387 . S
C538 C539 1.387 . S
C538 H542 0.950 . S
C538 C547 1.390 . S
C539 C538 1.387 . S
C539 C541 1.387 . S
H540 C547 0.950 . S
C541 C539 1.387 . S
C541 C543 1.390 . S
C541 H545 0.950 . S
H542 C538 0.950 . S
C543 C541 1.390 . S
C543 C544 1.387 . S
C543 H546 0.950 . S
C544 C543 1.387 . S
C544 C547 1.387 . S
H545 C541 0.950 . S
H546 C543 0.950 . S
C547 C538 1.390 . S
C547 H540 0.950 . S
C547 C544 1.387 . S
C548 C549 1.387 . S
C548 H552 0.950 . S
C548 C557 1.390 1_455 S
C549 C548 1.387 . S
C549 C551 1.387 . S
H550 C557 0.950 . S
C551 C549 1.387 . S
C551 C553 1.390 1_455 S
C551 H555 0.950 . S
H552 C548 0.950 . S
C553 C551 1.390 1_655 S
C553 C554 1.387 . S
C553 H556 0.950 . S
C554 C553 1.387 . S
C554 C557 1.387 . S
H555 C551 0.950 . S
H556 C553 0.950 . S
C557 C548 1.390 1_655 S
C557 H550 0.950 . S
C557 C554 1.387 . S
C558 C559 1.387 . S
C558 H562 0.950 . S
C558 C567 1.390 . S
C559 C558 1.387 . S
C559 C561 1.387 . S
H560 C567 0.950 . S
C561 C559 1.387 . S
C561 C563 1.390 . S
C561 H565 0.950 . S
H562 C558 0.950 . S
C563 C561 1.390 . S
C563 C564 1.387 . S
C563 H566 0.950 . S
C564 C563 1.387 . S
C564 C567 1.387 . S
H565 C561 0.950 . S
H566 C563 0.950 . S
C567 C558 1.390 . S
C567 H560 0.950 . S
C567 C564 1.387 . S
C568 C569 1.387 . S
C568 H572 0.950 . S
C568 C577 1.390 . S
C569 C568 1.387 . S
C569 C571 1.387 . S
H570 C577 0.950 . S
C571 C569 1.387 . S
C571 C573 1.390 . S
C571 H575 0.950 . S
H572 C568 0.950 . S
C573 C571 1.390 . S
C573 C574 1.387 . S
C573 H576 0.950 . S
C574 C573 1.387 . S
C574 C577 1.387 . S
H575 C571 0.950 . S
H576 C573 0.950 . S
C577 C568 1.390 . S
C577 H570 0.950 . S
C577 C574 1.387 . S
C578 C579 1.387 . S
C578 H582 0.950 . S
C578 C587 1.390 . S
C579 C578 1.387 . S
C579 C581 1.387 . S
H580 C587 0.950 . S
C581 C579 1.387 . S
C581 C583 1.390 . S
C581 H585 0.950 . S
H582 C578 0.950 . S
C583 C581 1.390 . S
C583 C584 1.387 . S
C583 H586 0.950 . S
C584 C583 1.387 . S
C584 C587 1.387 . S
H585 C581 0.950 . S
H586 C583 0.950 . S
C587 C578 1.390 . S
C587 H580 0.950 . S
C587 C584 1.387 . S
C588 C589 1.387 . S
C588 H592 0.950 . S
C588 C597 1.390 . S
C589 C588 1.387 . S
C589 C591 1.387 . S
H590 C597 0.950 . S
C591 C589 1.387 . S
C591 C593 1.390 . S
C591 H595 0.950 . S
H592 C588 0.950 . S
C593 C591 1.390 . S
C593 C594 1.387 . S
C593 H596 0.950 . S
C594 C593 1.387 . S
C594 C597 1.387 . S
H595 C591 0.950 . S
H596 C593 0.950 . S
C597 C588 1.390 . S
C597 H590 0.950 . S
C597 C594 1.387 . S
C598 C599 1.387 1_655 S
C598 H602 0.950 1_554 S
C598 C607 1.390 . S
C599 C598 1.387 1_455 S
C599 C601 1.387 . S
H600 C607 0.950 . S
C601 C599 1.387 . S
C601 C603 1.390 . S
C601 H605 0.950 . S
H602 C598 0.950 1_556 S
C603 C601 1.390 . S
C603 C604 1.387 . S
C603 H606 0.950 . S
C604 C603 1.387 . S
C604 C607 1.387 1_455 S
H605 C601 0.950 . S
H606 C603 0.950 . S
C607 C598 1.390 . S
C607 H600 0.950 . S
C607 C604 1.387 1_655 S
C608 C609 1.387 . S
C608 H612 0.950 1_565 S
C608 C617 1.390 . S
C609 C608 1.387 . S
C609 C611 1.387 . S
H610 C617 0.950 . S
C611 C609 1.387 . S
C611 C613 1.390 . S
C611 H615 0.950 . S
H612 C608 0.950 1_545 S
C613 C611 1.390 . S
C613 C614 1.387 . S
C613 H616 0.950 . S
C614 C613 1.387 . S
C614 C617 1.387 . S
H615 C611 0.950 . S
H616 C613 0.950 . S
C617 C608 1.390 . S
C617 H610 0.950 . S
C617 C614 1.387 . S
C618 C619 1.387 . S
C618 H622 0.950 . S
C618 C627 1.390 . S
C619 C618 1.387 . S
C619 C621 1.387 . S
H620 C627 0.950 . S
C621 C619 1.387 . S
C621 C623 1.390 . S
C621 H625 0.950 . S
H622 C618 0.950 . S
C623 C621 1.390 . S
C623 C624 1.387 . S
C623 H626 0.950 . S
C624 C623 1.387 . S
C624 C627 1.387 . S
H625 C621 0.950 . S
H626 C623 0.950 . S
C627 C618 1.390 . S
C627 H620 0.950 . S
C627 C624 1.387 . S
C628 C629 1.387 . S
C628 H632 0.950 . S
C628 C637 1.390 . S
C629 C628 1.387 . S
C629 C631 1.387 . S
H630 C637 0.950 . S
C631 C629 1.387 . S
C631 C633 1.390 . S
C631 H635 0.950 . S
H632 C628 0.950 . S
C633 C631 1.390 . S
C633 C634 1.387 . S
C633 H636 0.950 1_545 S
C634 C633 1.387 . S
C634 C637 1.387 . S
H635 C631 0.950 . S
H636 C633 0.950 1_565 S
C637 C628 1.390 . S
C637 H630 0.950 . S
C637 C634 1.387 . S
C638 C639 1.387 . S
C638 H642 0.950 . S
C638 C647 1.390 . S
C639 C638 1.387 . S
C639 C641 1.387 . S
H640 C647 0.950 1_554 S
C641 C639 1.387 . S
C641 C643 1.390 . S
C641 H645 0.950 . S
H642 C638 0.950 . S
C643 C641 1.390 . S
C643 C644 1.387 1_556 S
C643 H646 0.950 1_556 S
C644 C643 1.387 1_554 S
C644 C647 1.387 1_554 S
H645 C641 0.950 . S
H646 C643 0.950 1_554 S
C647 C638 1.390 . S
C647 H640 0.950 1_556 S
C647 C644 1.387 1_556 S
C648 C649 1.387 . S
C648 H652 0.950 . S
C648 C657 1.390 1_545 S
C649 C648 1.387 . S
C649 C651 1.387 . S
H650 C657 0.950 . S
C651 C649 1.387 . S
C651 C653 1.390 . S
C651 H655 0.950 . S
H652 C648 0.950 . S
C653 C651 1.390 . S
C653 C654 1.387 1_545 S
C653 H656 0.950 . S
C654 C653 1.387 1_565 S
C654 C657 1.387 . S
H655 C651 0.950 . S
H656 C653 0.950 . S
C657 C648 1.390 1_565 S
C657 H650 0.950 . S
C657 C654 1.387 . S
C658 C659 1.387 . S
C658 H662 0.950 . S
C658 C667 1.390 . S
C659 C658 1.387 . S
C659 C661 1.387 . S
H660 C667 0.950 . S
C661 C659 1.387 . S
C661 C663 1.390 . S
C661 H665 0.950 . S
H662 C658 0.950 . S
C663 C661 1.390 . S
C663 C664 1.387 . S
C663 H666 0.950 . S
C664 C663 1.387 . S
C664 C667 1.387 . S
H665 C661 0.950 . S
H666 C663 0.950 . S
C667 C658 1.390 . S
C667 H660 0.950 . S
C667 C664 1.387 . S
C668 C669 1.387 1_565 S
C668 H672 0.950 . S
C668 C677 1.390 . S
C669 C668 1.387 1_545 S
C669 C671 1.387 . S
H670 C677 0.950 . S
C671 C669 1.387 . S
C671 C673 1.390 1_545 S
C671 H675 0.950 . S
H672 C668 0.950 . S
C673 C671 1.390 1_565 S
C673 C674 1.387 . S
C673 H676 0.950 1_565 S
C674 C673 1.387 . S
C674 C677 1.387 . S
H675 C671 0.950 . S
H676 C673 0.950 1_545 S
C677 C668 1.390 . S
C677 H670 0.950 . S
C677 C674 1.387 . S
C678 C679 1.387 1_554 S
C678 H682 0.950 1_554 S
C678 C687 1.390 . S
C679 C678 1.387 1_556 S
C679 C681 1.387 . S
H680 C687 0.950 . S
C681 C679 1.387 . S
C681 C683 1.390 1_556 S
C681 H685 0.950 . S
H682 C678 0.950 1_556 S
C683 C681 1.390 1_554 S
C683 C684 1.387 . S
C683 H686 0.950 . S
C684 C683 1.387 . S
C684 C687 1.387 . S
H685 C681 0.950 . S
H686 C683 0.950 . S
C687 C678 1.390 . S
C687 H680 0.950 . S
C687 C684 1.387 . S
C688 C689 1.387 . S
C688 H692 0.950 . S
C688 C697 1.390 . S
C689 C688 1.387 . S
C689 C691 1.387 . S
H690 C697 0.950 . S
C691 C689 1.387 . S
C691 C693 1.390 . S
C691 H695 0.950 . S
H692 C688 0.950 . S
C693 C691 1.390 . S
C693 C694 1.387 . S
C693 H696 0.950 . S
C694 C693 1.387 . S
C694 C697 1.387 . S
H695 C691 0.950 . S
H696 C693 0.950 . S
C697 C688 1.390 . S
C697 H690 0.950 . S
C697 C694 1.387 . S
C698 C699 1.387 . S
C698 H702 0.950 . S
C698 C707 1.390 . S
C699 C698 1.387 . S
C699 C701 1.387 . S
H700 C707 0.950 . S
C701 C699 1.387 . S
C701 C703 1.390 . S
C701 H705 0.950 . S
H702 C698 0.950 . S
C703 C701 1.390 . S
C703 C704 1.387 . S
C703 H706 0.950 . S
C704 C703 1.387 . S
C704 C707 1.387 . S
H705 C701 0.950 . S
H706 C703 0.950 . S
C707 C698 1.390 . S
C707 H700 0.950 . S
C707 C704 1.387 . S
C708 C709 1.387 . S
C708 H712 0.950 . S
C708 C717 1.390 1_655 S
C709 C708 1.387 . S
C709 C711 1.387 . S
H710 C717 0.950 . S
C711 C709 1.387 . S
C711 C713 1.390 1_655 S
C711 H715 0.950 . S
H712 C708 0.950 . S
C713 C711 1.390 1_455 S
C713 C714 1.387 . S
C713 H716 0.950 . S
C714 C713 1.387 . S
C714 C717 1.387 . S
H715 C711 0.950 . S
H716 C713 0.950 . S
C717 C708 1.390 1_455 S
C717 H710 0.950 . S
C717 C714 1.387 . S
C718 C719 1.387 . S
C718 H722 0.950 . S
C718 C727 1.390 . S
C719 C718 1.387 . S
C719 C721 1.387 . S
H720 C727 0.950 . S
C721 C719 1.387 . S
C721 C723 1.390 . S
C721 H725 0.950 . S
H722 C718 0.950 . S
C723 C721 1.390 . S
C723 C724 1.387 . S
C723 H726 0.950 . S
C724 C723 1.387 . S
C724 C727 1.387 . S
H725 C721 0.950 . S
H726 C723 0.950 . S
C727 C718 1.390 . S
C727 H720 0.950 . S
C727 C724 1.387 . S
C728 C729 1.387 . S
C728 H732 0.950 . S
C728 C737 1.390 . S
C729 C728 1.387 . S
C729 C731 1.387 . S
H730 C737 0.950 . S
C731 C729 1.387 . S
C731 C733 1.390 . S
C731 H735 0.950 . S
H732 C728 0.950 . S
C733 C731 1.390 . S
C733 C734 1.387 . S
C733 H736 0.950 . S
C734 C733 1.387 . S
C734 C737 1.387 . S
H735 C731 0.950 . S
H736 C733 0.950 . S
C737 C728 1.390 . S
C737 H730 0.950 . S
C737 C734 1.387 . S
C738 C739 1.387 . S
C738 H742 0.950 . S
C738 C747 1.390 . S
C739 C738 1.387 . S
C739 C741 1.387 . S
H740 C747 0.950 . S
C741 C739 1.387 . S
C741 C743 1.390 . S
C741 H745 0.950 . S
H742 C738 0.950 . S
C743 C741 1.390 . S
C743 C744 1.387 . S
C743 H746 0.950 . S
C744 C743 1.387 . S
C744 C747 1.387 . S
H745 C741 0.950 . S
H746 C743 0.950 . S
C747 C738 1.390 . S
C747 H740 0.950 . S
C747 C744 1.387 . S
C748 C749 1.387 . S
C748 H752 0.950 . S
C748 C757 1.390 . S
C749 C748 1.387 . S
C749 C751 1.387 . S
H750 C757 0.950 . S
C751 C749 1.387 . S
C751 C753 1.390 . S
C751 H755 0.950 . S
H752 C748 0.950 . S
C753 C751 1.390 . S
C753 C754 1.387 . S
C753 H756 0.950 . S
C754 C753 1.387 . S
C754 C757 1.387 . S
H755 C751 0.950 . S
H756 C753 0.950 . S
C757 C748 1.390 . S
C757 H750 0.950 . S
C757 C754 1.387 . S
C758 C759 1.387 . S
C758 H762 0.950 . S
C758 C767 1.390 1_545 S
C759 C758 1.387 . S
C759 C761 1.387 . S
H760 C767 0.950 . S
C761 C759 1.387 . S
C761 C763 1.390 . S
C761 H765 0.950 . S
H762 C758 0.950 . S
C763 C761 1.390 . S
C763 C764 1.387 1_545 S
C763 H766 0.950 . S
C764 C763 1.387 1_565 S
C764 C767 1.387 . S
H765 C761 0.950 . S
H766 C763 0.950 . S
C767 C758 1.390 1_565 S
C767 H760 0.950 . S
C767 C764 1.387 . S
C768 C769 1.387 . S
C768 H772 0.950 . S
C768 C777 1.390 . S
C769 C768 1.387 . S
C769 C771 1.387 . S
H770 C777 0.950 . S
C771 C769 1.387 . S
C771 C773 1.390 . S
C771 H775 0.950 . S
H772 C768 0.950 . S
C773 C771 1.390 . S
C773 C774 1.387 . S
C773 H776 0.950 . S
C774 C773 1.387 . S
C774 C777 1.387 . S
H775 C771 0.950 . S
H776 C773 0.950 . S
C777 C768 1.390 . S
C777 H770 0.950 . S
C777 C774 1.387 . S
C778 C779 1.387 . S
C778 H782 0.950 . S
C778 C787 1.400 . S
C779 C778 1.387 . S
C779 C781 1.387 . S
H780 C787 0.947 1_545 S
C781 C779 1.387 . S
C781 C783 1.390 1_565 S
C781 H785 0.950 . S
H782 C778 0.950 . S
C783 C781 1.390 1_545 S
C783 C784 1.387 . S
C783 H786 0.950 . S
C784 C783 1.387 . S
C784 C787 1.380 1_545 S
H785 C781 0.950 . S
H786 C783 0.950 . S
C787 C778 1.400 . S
C787 H780 0.947 1_565 S
C787 C784 1.380 1_565 S
C788 C789 1.387 . S
C788 H792 0.950 . S
C788 C797 1.390 . S
C789 C788 1.387 . S
C789 C791 1.387 . S
H790 C797 0.950 . S
C791 C789 1.387 . S
C791 C793 1.390 . S
C791 H795 0.950 . S
H792 C788 0.950 . S
C793 C791 1.390 . S
C793 C794 1.387 . S
C793 H796 0.950 . S
C794 C793 1.387 . S
C794 C797 1.387 . S
H795 C791 0.950 . S
H796 C793 0.950 . S
C797 C788 1.390 . S
C797 H790 0.950 . S
C797 C794 1.387 . S
C798 C799 1.387 . S
C798 H802 0.950 . S
C798 C807 1.390 . S
C799 C798 1.387 . S
C799 C801 1.387 . S
H800 C807 0.950 . S
C801 C799 1.387 . S
C801 C803 1.390 . S
C801 H805 0.950 1_565 S
H802 C798 0.950 . S
C803 C801 1.390 . S
C803 C804 1.387 . S
C803 H806 0.950 . S
C804 C803 1.387 . S
C804 C807 1.387 . S
H805 C801 0.950 1_545 S
H806 C803 0.950 . S
C807 C798 1.390 . S
C807 H800 0.950 . S
C807 C804 1.387 . S
C808 C809 1.387 . S
C808 H812 0.950 . S
C808 C817 1.390 . S
C809 C808 1.387 . S
C809 C811 1.387 . S
H810 C817 0.950 . S
C811 C809 1.387 . S
C811 C813 1.390 . S
C811 H815 0.950 . S
H812 C808 0.950 . S
C813 C811 1.390 . S
C813 C814 1.387 . S
C813 H816 0.950 . S
C814 C813 1.387 . S
C814 C817 1.387 . S
H815 C811 0.950 . S
H816 C813 0.950 . S
C817 C808 1.390 . S
C817 H810 0.950 . S
C817 C814 1.387 . S
C818 C819 1.384 1_565 S
C818 H822 0.950 . S
C818 C827 1.390 1_565 S
C819 C818 1.384 1_545 S
C819 C821 1.402 . S
H820 C827 0.950 . S
C821 C819 1.402 . S
C821 C823 1.390 . S
C821 H825 0.950 . S
H822 C818 0.950 . S
C823 C821 1.390 . S
C823 C824 1.387 . S
C823 H826 0.950 . S
C824 C823 1.387 . S
C824 C827 1.387 . S
H825 C821 0.950 . S
H826 C823 0.950 . S
C827 C818 1.390 1_545 S
C827 H820 0.950 . S
C827 C824 1.387 . S
C828 C829 1.387 1_556 S
C828 H832 0.950 . S
C828 C837 1.390 . S
C829 C828 1.387 1_554 S
C829 C831 1.387 . S
H830 C837 0.950 . S
C831 C829 1.387 . S
C831 C833 1.390 1_554 S
C831 H835 0.950 . S
H832 C828 0.950 . S
C833 C831 1.390 1_556 S
C833 C834 1.387 . S
C833 H836 0.950 . S
C834 C833 1.387 . S
C834 C837 1.387 . S
H835 C831 0.950 . S
H836 C833 0.950 . S
C837 C828 1.390 . S
C837 H830 0.950 . S
C837 C834 1.387 . S
C838 C839 1.387 . S
C838 H842 0.950 . S
C838 C847 1.390 . S
C839 C838 1.387 . S
C839 C841 1.387 . S
H840 C847 0.950 . S
C841 C839 1.387 . S
C841 C843 1.390 . S
C841 H845 0.950 . S
H842 C838 0.950 . S
C843 C841 1.390 . S
C843 C844 1.387 . S
C843 H846 0.950 . S
C844 C843 1.387 . S
C844 C847 1.387 . S
H845 C841 0.950 . S
H846 C843 0.950 . S
C847 C838 1.390 . S
C847 H840 0.950 . S
C847 C844 1.387 . S
C848 C849 1.387 . S
C848 H852 0.950 . S
C848 C857 1.390 . S
C849 C848 1.387 . S
C849 C851 1.387 . S
H850 C857 0.950 . S
C851 C849 1.387 . S
C851 C853 1.390 . S
C851 H855 0.950 . S
H852 C848 0.950 . S
C853 C851 1.390 . S
C853 C854 1.387 . S
C853 H856 0.950 . S
C854 C853 1.387 . S
C854 C857 1.387 . S
H855 C851 0.950 . S
H856 C853 0.950 . S
C857 C848 1.390 . S
C857 H850 0.950 . S
C857 C854 1.387 . S
C858 C859 1.387 1_655 S
C858 H862 0.950 . S
C858 C867 1.390 . S
C859 C858 1.387 1_455 S
C859 C861 1.387 1_455 S
H860 C867 0.950 . S
C861 C859 1.387 1_655 S
C861 C863 1.390 . S
C861 H865 0.950 1_655 S
H862 C858 0.950 . S
C863 C861 1.390 . S
C863 C864 1.387 . S
C863 H866 0.950 . S
C864 C863 1.387 . S
C864 C867 1.387 . S
H865 C861 0.950 1_455 S
H866 C863 0.950 . S
C867 C858 1.390 . S
C867 H860 0.950 . S
C867 C864 1.387 . S
C868 C869 1.387 . S
C868 H872 0.950 . S
C868 C877 1.390 . S
C869 C868 1.387 . S
C869 C871 1.387 . S
H870 C877 0.950 . S
C871 C869 1.387 . S
C871 C873 1.390 . S
C871 H875 0.950 . S
H872 C868 0.950 . S
C873 C871 1.390 . S
C873 C874 1.387 . S
C873 H876 0.950 . S
C874 C873 1.387 . S
C874 C877 1.387 . S
H875 C871 0.950 . S
H876 C873 0.950 . S
C877 C868 1.390 . S
C877 H870 0.950 . S
C877 C874 1.387 . S
C878 C879 1.387 . S
C878 H882 0.950 . S
C878 C887 1.390 . S
C879 C878 1.387 . S
C879 C881 1.387 . S
H880 C887 0.950 . S
C881 C879 1.387 . S
C881 C883 1.390 . S
C881 H885 0.950 . S
H882 C878 0.950 . S
C883 C881 1.390 . S
C883 C884 1.387 . S
C883 H886 0.950 . S
C884 C883 1.387 . S
C884 C887 1.387 . S
H885 C881 0.950 . S
H886 C883 0.950 . S
C887 C878 1.390 . S
C887 H880 0.950 . S
C887 C884 1.387 . S
C888 C889 1.387 . S
C888 H892 0.950 . S
C888 C897 1.390 1_655 S
C889 C888 1.387 . S
C889 C891 1.387 . S
H890 C897 0.950 . S
C891 C889 1.387 . S
C891 C893 1.390 1_655 S
C891 H895 0.950 . S
H892 C888 0.950 . S
C893 C891 1.390 1_455 S
C893 C894 1.387 . S
C893 H896 0.950 . S
C894 C893 1.387 . S
C894 C897 1.387 . S
H895 C891 0.950 . S
H896 C893 0.950 . S
C897 C888 1.390 1_455 S
C897 H890 0.950 . S
C897 C894 1.387 . S
C898 C899 1.387 . S
C898 H902 0.950 . S
C898 C907 1.390 . S
C899 C898 1.387 . S
C899 C901 1.387 . S
H900 C907 0.950 . S
C901 C899 1.387 . S
C901 C903 1.390 . S
C901 H905 0.950 . S
H902 C898 0.950 . S
C903 C901 1.390 . S
C903 C904 1.387 . S
C903 H906 0.950 . S
C904 C903 1.387 . S
C904 C907 1.387 . S
H905 C901 0.950 . S
H906 C903 0.950 . S
C907 C898 1.390 . S
C907 H900 0.950 . S
C907 C904 1.387 . S
C908 C909 1.387 . S
C908 H912 0.950 . S
C908 C917 1.390 . S
C909 C908 1.387 . S
C909 C911 1.387 . S
H910 C917 0.950 . S
C911 C909 1.387 . S
C911 C913 1.390 . S
C911 H915 0.950 . S
H912 C908 0.950 . S
C913 C911 1.390 . S
C913 C914 1.387 . S
C913 H916 0.950 . S
C914 C913 1.387 . S
C914 C917 1.387 . S
H915 C911 0.950 . S
H916 C913 0.950 . S
C917 C908 1.390 . S
C917 H910 0.950 . S
C917 C914 1.387 . S
C918 C919 1.380 1_556 S
C918 H922 0.940 1_556 S
C918 C927 1.408 . S
C919 C918 1.380 1_554 S
C919 C921 1.387 1_554 S
H920 C927 0.950 . S
C921 C919 1.387 1_556 S
C921 C923 1.390 . S
C921 H925 0.950 1_556 S
H922 C918 0.940 1_554 S
C923 C921 1.390 . S
C923 C924 1.387 . S
C923 H926 0.950 . S
C924 C923 1.387 . S
C924 C927 1.387 . S
H925 C921 0.950 1_554 S
H926 C923 0.950 . S
C927 C918 1.408 . S
C927 H920 0.950 . S
C927 C924 1.387 . S
C928 C929 1.387 . S
C928 H932 0.950 . S
C928 C937 1.390 . S
C929 C928 1.387 . S
C929 C931 1.387 . S
H930 C937 0.950 . S
C931 C929 1.387 . S
C931 C933 1.390 . S
C931 H935 0.950 . S
H932 C928 0.950 . S
C933 C931 1.390 . S
C933 C934 1.387 . S
C933 H936 0.950 . S
C934 C933 1.387 . S
C934 C937 1.387 . S
H935 C931 0.950 . S
H936 C933 0.950 . S
C937 C928 1.390 . S
C937 H930 0.950 . S
C937 C934 1.387 . S
C938 C939 1.387 . S
C938 H942 0.950 . S
C938 C947 1.390 . S
C939 C938 1.387 . S
C939 C941 1.387 . S
H940 C947 0.950 . S
C941 C939 1.387 . S
C941 C943 1.390 . S
C941 H945 0.950 . S
H942 C938 0.950 . S
C943 C941 1.390 . S
C943 C944 1.387 . S
C943 H946 0.950 . S
C944 C943 1.387 . S
C944 C947 1.387 . S
H945 C941 0.950 . S
H946 C943 0.950 . S
C947 C938 1.390 . S
C947 H940 0.950 . S
C947 C944 1.387 . S
C948 C949 1.387 . S
C948 H952 0.950 . S
C948 C957 1.390 . S
C949 C948 1.387 . S
C949 C951 1.387 . S
H950 C957 0.950 . S
C951 C949 1.387 . S
C951 C953 1.390 . S
C951 H955 0.950 . S
H952 C948 0.950 . S
C953 C951 1.390 . S
C953 C954 1.387 . S
C953 H956 0.950 . S
C954 C953 1.387 . S
C954 C957 1.387 . S
H955 C951 0.950 . S
H956 C953 0.950 . S
C957 C948 1.390 . S
C957 H950 0.950 . S
C957 C954 1.387 . S
C958 C959 1.387 . S
C958 H962 0.950 . S
C958 C967 1.390 . S
C959 C958 1.387 . S
C959 C961 1.387 . S
H960 C967 0.950 . S
C961 C959 1.387 . S
C961 C963 1.390 . S
C961 H965 0.950 . S
H962 C958 0.950 . S
C963 C961 1.390 . S
C963 C964 1.387 . S
C963 H966 0.950 . S
C964 C963 1.387 . S
C964 C967 1.387 . S
H965 C961 0.950 . S
H966 C963 0.950 . S
C967 C958 1.390 . S
C967 H960 0.950 . S
C967 C964 1.387 . S
C968 C969 1.387 . S
C968 H972 0.950 . S
C968 C977 1.390 . S
C969 C968 1.387 . S
C969 C971 1.387 . S
H970 C977 0.950 . S
C971 C969 1.387 . S
C971 C973 1.390 . S
C971 H975 0.950 . S
H972 C968 0.950 . S
C973 C971 1.390 . S
C973 C974 1.387 . S
C973 H976 0.950 . S
C974 C973 1.387 . S
C974 C977 1.387 . S
H975 C971 0.950 . S
H976 C973 0.950 . S
C977 C968 1.390 . S
C977 H970 0.950 . S
C977 C974 1.387 . S
C978 C979 1.387 . S
C978 H982 0.950 . S
C978 C987 1.390 . S
C979 C978 1.387 . S
C979 C981 1.387 . S
H980 C987 0.950 . S
C981 C979 1.387 . S
C981 C983 1.390 . S
C981 H985 0.950 . S
H982 C978 0.950 . S
C983 C981 1.390 . S
C983 C984 1.387 . S
C983 H986 0.950 . S
C984 C983 1.387 . S
C984 C987 1.387 . S
H985 C981 0.950 . S
H986 C983 0.950 . S
C987 C978 1.390 . S
C987 H980 0.950 . S
C987 C984 1.387 . S
C988 C989 1.387 . S
C988 H992 0.950 . S
C988 C997 1.390 . S
C989 C988 1.387 . S
C989 C991 1.387 . S
H990 C997 0.950 . S
C991 C989 1.387 . S
C991 C993 1.390 . S
C991 H995 0.950 . S
H992 C988 0.950 . S
C993 C991 1.390 . S
C993 C994 1.387 . S
C993 H996 0.950 . S
C994 C993 1.387 . S
C994 C997 1.387 . S
H995 C991 0.950 . S
H996 C993 0.950 . S
C997 C988 1.390 . S
C997 H990 0.950 . S
C997 C994 1.387 . S
C998 C999 1.387 . S
C998 H1002 0.950 . S
C998 C1007 1.390 . S
C999 C998 1.387 . S
C999 C1001 1.387 . S
H1000 C1007 0.950 . S
C1001 C999 1.387 . S
C1001 C1003 1.390 . S
C1001 H1005 0.950 . S
H1002 C998 0.950 . S
C1003 C1001 1.390 . S
C1003 C1004 1.387 . S
C1003 H1006 0.950 . S
C1004 C1003 1.387 . S
C1004 C1007 1.387 . S
H1005 C1001 0.950 . S
H1006 C1003 0.950 . S
C1007 C998 1.390 . S
C1007 H1000 0.950 . S
C1007 C1004 1.387 . S
C1008 C1009 1.387 . S
C1008 H1012 0.950 . S
C1008 C1017 1.390 . S
C1009 C1008 1.387 . S
C1009 C1011 1.387 . S
H1010 C1017 0.945 1_556 S
C1011 C1009 1.387 . S
C1011 C1013 1.390 . S
C1011 H1015 0.950 . S
H1012 C1008 0.950 . S
C1013 C1011 1.390 . S
C1013 C1014 1.387 . S
C1013 H1016 0.950 . S
C1014 C1013 1.387 . S
C1014 C1017 1.387 . S
H1015 C1011 0.950 . S
H1016 C1013 0.950 . S
C1017 C1008 1.390 . S
C1017 H1010 0.945 1_554 S
C1017 C1014 1.387 . S
C1018 C1019 1.387 . S
C1018 H1022 0.950 . S
C1018 C1027 1.390 . S
C1019 C1018 1.387 . S
C1019 C1021 1.387 . S
H1020 C1027 0.950 . S
C1021 C1019 1.387 . S
C1021 C1023 1.390 . S
C1021 H1025 0.950 . S
H1022 C1018 0.950 . S
C1023 C1021 1.390 . S
C1023 C1024 1.387 . S
C1023 H1026 0.950 . S
C1024 C1023 1.387 . S
C1024 C1027 1.387 . S
H1025 C1021 0.950 . S
H1026 C1023 0.950 . S
C1027 C1018 1.390 . S
C1027 H1020 0.950 . S
C1027 C1024 1.387 . S
C1028 C1029 1.387 . S
C1028 H1032 0.950 . S
C1028 C1037 1.390 . S
C1029 C1028 1.387 . S
C1029 C1031 1.387 . S
H1030 C1037 0.950 . S
C1031 C1029 1.387 . S
C1031 C1033 1.390 . S
C1031 H1035 0.950 . S
H1032 C1028 0.950 . S
C1033 C1031 1.390 . S
C1033 C1034 1.387 . S
C1033 H1036 0.950 . S
C1034 C1033 1.387 . S
C1034 C1037 1.387 . S
H1035 C1031 0.950 . S
H1036 C1033 0.950 . S
C1037 C1028 1.390 . S
C1037 H1030 0.950 . S
C1037 C1034 1.387 . S
C1038 C1039 1.387 . S
C1038 H1042 0.950 . S
C1038 C1047 1.390 . S
C1039 C1038 1.387 . S
C1039 C1041 1.387 . S
H1040 C1047 0.950 . S
C1041 C1039 1.387 . S
C1041 C1043 1.390 . S
C1041 H1045 0.950 . S
H1042 C1038 0.950 . S
C1043 C1041 1.390 . S
C1043 C1044 1.387 . S
C1043 H1046 0.950 . S
C1044 C1043 1.387 . S
C1044 C1047 1.387 . S
H1045 C1041 0.950 . S
H1046 C1043 0.950 . S
C1047 C1038 1.390 . S
C1047 H1040 0.950 . S
C1047 C1044 1.387 . S
C1048 C1049 1.387 . S
C1048 H1052 0.950 . S
C1048 C1057 1.390 . S
C1049 C1048 1.387 . S
C1049 C1051 1.387 . S
H1050 C1057 0.950 . S
C1051 C1049 1.387 . S
C1051 C1053 1.390 . S
C1051 H1055 0.950 . S
H1052 C1048 0.950 . S
C1053 C1051 1.390 . S
C1053 C1054 1.387 . S
C1053 H1056 0.950 . S
C1054 C1053 1.387 . S
C1054 C1057 1.387 . S
H1055 C1051 0.950 . S
H1056 C1053 0.950 . S
C1057 C1048 1.390 . S
C1057 H1050 0.950 . S
C1057 C1054 1.387 . S
C1058 C1059 1.387 . S
C1058 H1062 0.950 . S
C1058 C1067 1.390 . S
C1059 C1058 1.387 . S
C1059 C1061 1.387 . S
H1060 C1067 0.950 . S
C1061 C1059 1.387 . S
C1061 C1063 1.390 . S
C1061 H1065 0.950 . S
H1062 C1058 0.950 . S
C1063 C1061 1.390 . S
C1063 C1064 1.387 . S
C1063 H1066 0.950 . S
C1064 C1063 1.387 . S
C1064 C1067 1.387 . S
H1065 C1061 0.950 . S
H1066 C1063 0.950 . S
C1067 C1058 1.390 . S
C1067 H1060 0.950 . S
C1067 C1064 1.387 . S
C1068 C1069 1.387 . S
C1068 H1072 0.950 . S
C1068 C1077 1.390 . S
C1069 C1068 1.387 . S
C1069 C1071 1.387 . S
H1070 C1077 0.950 . S
C1071 C1069 1.387 . S
C1071 C1073 1.390 . S
C1071 H1075 0.950 . S
H1072 C1068 0.950 . S
C1073 C1071 1.390 . S
C1073 C1074 1.387 . S
C1073 H1076 0.950 . S
C1074 C1073 1.387 . S
C1074 C1077 1.387 . S
H1075 C1071 0.950 . S
H1076 C1073 0.950 . S
C1077 C1068 1.390 . S
C1077 H1070 0.950 . S
C1077 C1074 1.387 . S
C1078 C1079 1.387 . S
C1078 H1082 0.950 . S
C1078 C1087 1.390 . S
C1079 C1078 1.387 . S
C1079 C1081 1.387 . S
H1080 C1087 0.950 . S
C1081 C1079 1.387 . S
C1081 C1083 1.390 . S
C1081 H1085 0.950 . S
H1082 C1078 0.950 . S
C1083 C1081 1.390 . S
C1083 C1084 1.387 . S
C1083 H1086 0.950 . S
C1084 C1083 1.387 . S
C1084 C1087 1.387 . S
H1085 C1081 0.950 . S
H1086 C1083 0.950 . S
C1087 C1078 1.390 . S
C1087 H1080 0.950 . S
C1087 C1084 1.387 . S
C449 C9 0.787 1_565 S
C454 C191 0.788 1_554 S
C459 C359 1.687 . S
C464 C23 1.670 . S
C469 C37 0.739 1_545 S
C474 C219 0.739 . S
C479 C51 1.677 . S
C484 C345 1.692 . S
C489 C65 2.267 1_655 S
C494 C247 2.261 1_565 S
C499 C79 1.706 . S
C504 C317 1.718 . S
C509 C93 2.225 . S
C514 C275 2.217 1_545 S
C519 C443 1.097 . S
C524 C107 1.097 . S
C529 C303 2.261 . S
C534 C121 2.266 . S
C539 C135 1.706 . S
C544 C261 1.718 . S
C549 C331 2.218 . S
C554 C149 2.225 . S
C559 C163 1.678 . S
C564 C233 1.692 . S
C569 C205 1.687 . S
C574 C177 1.672 . S
C579 C289 1.098 . S
C584 C401 1.100 . S
C589 C415 0.788 . S
C594 C373 0.784 . S
C599 C429 0.738 1_554 S
C604 C387 0.738 . S
C609 C8 1.572 1_565 S
C614 C22 1.565 . S
C619 C34 1.659 . S
C624 C21 1.890 . S
C629 C50 1.639 . S
C634 C36 1.643 1_545 S
C639 C49 1.620 . S
C644 C6 1.444 . S
C649 C105 1.841 . S
C654 C64 1.900 . S
C659 C76 1.314 . S
C664 C62 1.383 . S
C669 C91 1.661 . S
C674 C77 1.634 . S
C679 C92 1.615 . S
C684 C104 1.432 . S
C689 C134 1.758 . S
C694 C7 1.766 . S
C699 C119 1.391 . S
C704 C48 1.239 . S
C709 C146 1.327 . S
C714 C20 1.317 . S
C719 C385 2.038 . S
C724 C106 2.095 . S
C729 C400 2.095 . S
C734 C35 2.038 . S
C739 C160 1.239 . S
C744 C63 1.391 1_655 S
C749 C90 1.324 . S
C754 C174 1.321 . S
C759 C202 1.707 . S
C764 C188 1.699 . S
C769 C218 1.481 . S
C774 C203 1.426 . S
C779 C230 1.832 . S
C784 C216 1.820 . S
C789 C190 1.525 1_554 S
C794 C231 1.471 . S
C799 C246 1.723 1_565 S
C804 C288 1.723 . S
C809 C245 1.321 . S
C814 C258 1.264 . S
C819 C274 1.720 1_545 S
C824 C260 1.731 . S
C829 C273 1.522 . S
C834 C286 1.458 . S
C839 C189 1.450 1_455 S
C844 C315 1.436 . S
C849 C300 1.733 . S
C854 C232 1.887 . S
C859 C328 1.519 . S
C864 C204 1.659 . S
C869 C427 1.415 1_655 S
C874 C287 1.423 . S
C879 C441 1.423 . S
C884 C217 1.415 . S
C889 C244 1.733 . S
C894 C344 1.887 . S
C899 C358 1.659 . S
C904 C272 1.519 . S
C909 C176 1.566 . S
C914 C372 1.572 . S
C919 C384 1.662 . S
C924 C175 1.890 . S
C929 C162 1.639 . S
C934 C386 1.642 . S
C939 C161 1.620 . S
C944 C370 1.443 . S
C949 C120 1.900 . S
C954 C399 1.842 . S
C959 C132 1.318 1_556 S
C964 C118 1.380 . S
C969 C147 1.660 . S
C974 C133 1.635 . S
C979 C148 1.616 . S
C984 C398 1.433 . S
C989 C371 1.766 . S
C994 C78 1.758 . S
C999 C356 1.711 . S
C1004 C412 1.700 . S
C1009 C357 1.427 . S
C1014 C428 1.481 1_554 S
C1019 C426 1.817 . S
C1024 C342 1.832 . S
C1029 C343 1.470 . S
C1034 C414 1.525 . S
C1039 C442 1.723 . S
C1044 C302 1.724 . S
C1049 C301 1.321 1_556 S
C1054 C314 1.264 . S
C1059 C330 1.730 . S
C1064 C316 1.731 . S
C1069 C329 1.521 . S
C1074 C440 1.458 . S
C1079 C413 1.450 . S
C1084 C259 1.436 . S
