# Generated by pormake.
# Topology sqp, (5)-cn, num edge types: 1
# Building blocks:
#     Node 0, Type 0, BuildingBlock: XOMCOT_clean_sbu_0, # of connection points: 5
#     Node 1, Type 0, BuildingBlock: XOMCOT_clean_sbu_0, # of connection points: 5
#     Node 2, Type 0, BuildingBlock: XOMCOT_clean_sbu_0, # of connection points: 5
#     Node 3, Type 0, BuildingBlock: XOMCOT_clean_sbu_0, # of connection points: 5
#     Edge 4, Type (0, 0), BuildingBlock: FUNLAD_clean_linker_0, # of connection points: 2
#     Edge 5, Type (0, 0), BuildingBlock: FUNLAD_clean_linker_0, # of connection points: 2
#     Edge 6, Type (0, 0), BuildingBlock: FUNLAD_clean_linker_0, # of connection points: 2
#     Edge 7, Type (0, 0), BuildingBlock: FUNLAD_clean_linker_0, # of connection points: 2
#     Edge 8, Type (0, 0), BuildingBlock: FUNLAD_clean_linker_0, # of connection points: 2
#     Edge 9, Type (0, 0), BuildingBlock: FUNLAD_clean_linker_0, # of connection points: 2
#     Edge 10, Type (0, 0), BuildingBlock: FUNLAD_clean_linker_0, # of connection points: 2
#     Edge 11, Type (0, 0), BuildingBlock: FUNLAD_clean_linker_0, # of connection points: 2
#     Edge 12, Type (0, 0), BuildingBlock: FUNLAD_clean_linker_0, # of connection points: 2
#     Edge 13, Type (0, 0), BuildingBlock: FUNLAD_clean_linker_0, # of connection points: 2
# Relax obj value: 0.120
# Max RMSD: 0.202
# Mean RMSD: 0.202
data_MOF--net-sqp--node1-XOMCOT_clean_sbu_0--edge1-FUNLAD_clean_linker_0
_symmetry_space_group_name_H-M    P1
_symmetry_Int_Tables_number       1
_symmetry_cell_setting            triclinic
loop_
_symmetry_equiv_pos_as_xyz
'x, y, z'
_cell_length_a     27.65269
_cell_length_b     22.362741
_cell_length_c     53.672141
_cell_angle_alpha  90.48723
_cell_angle_beta   89.072158
_cell_angle_gamma 90.165324
loop_
_atom_site_label
_atom_site_type_symbol
_atom_site_fract_x
_atom_site_fract_y
_atom_site_fract_z
_atom_type_partial_charge
Co0 Co 0.01797 0.98482 0.30242 0.0
C1 C 0.93758 0.0718 0.29434 0.0
C2 C 1.0001 0.08844 0.27136 0.0
C3 C 0.96372 0.12526 0.26384 0.0
N4 N 0.98445 0.05566 0.29095 0.0
N5 N 0.92449 0.11465 0.27826 0.0
H6 H 0.91186 0.04863 0.30612 0.0
H7 H 0.0344 0.08258 0.26172 0.0
C8 C 0.09453 0.07844 0.30128 0.0
O9 O 0.06405 0.11263 0.31386 0.0
N10 N 0.05149 0.91378 0.31221 0.0
C11 C 0.03902 0.87456 0.33012 0.0
C12 C 0.06959 0.82598 0.3282 0.0
C13 C 0.08894 0.88896 0.29968 0.0
N14 N 0.10086 0.83525 0.30901 0.0
C15 C 0.97376 0.01813 0.34917 0.0
C16 C 0.05778 0.02391 0.37627 0.0
C17 C 1.01319 0.03022 0.38881 0.0
C18 C 0.97092 0.02816 0.37481 0.0
C19 C 0.059 0.01385 0.35047 0.0
N20 N 0.01728 0.01195 0.3371 0.0
H21 H 0.94057 0.01145 0.33943 0.0
H22 H 0.09344 1.00452 0.34151 0.0
H23 H 1.00891 0.88001 0.34304 0.0
H24 H 0.1053 0.90847 0.28319 0.0
O25 O 0.95796 0.94128 0.30294 0.0
O26 O 1.00691 0.94833 0.26997 0.0
O27 O 0.08249 0.02492 0.2954 0.0
C28 C 0.96677 0.92774 0.27974 0.0
H29 H 0.96499 0.15483 0.24797 0.0
H30 H 0.0683 0.7865 0.33972 0.0
H31 H 0.09129 0.02346 0.38644 0.0
H32 H 0.93564 0.0322 0.38372 0.0
Co33 Co 0.02067 0.01964 0.706 0.0
C34 C 0.10141 0.1032 0.71952 0.0
C35 C 0.0393 0.14844 0.70553 0.0
C36 C 0.07442 0.1903 0.71048 0.0
N37 N 0.05606 0.09376 0.7112 0.0
N38 N 0.11349 0.16188 0.71925 0.0
H39 H 0.12561 0.06814 0.72514 0.0
H40 H 1.00406 0.1573 0.69795 0.0
C41 C 0.91441 0.05188 0.71722 0.0
O42 O 0.8987 1.00203 0.70712 0.0
N43 N 0.9858 0.94539 0.70079 0.0
C44 C 0.98421 0.91216 0.67974 0.0
C45 C 0.95684 0.86173 0.68433 0.0
C46 C 0.96136 0.91341 0.71814 0.0
N47 N 0.94207 0.863 0.70841 0.0
C48 C 0.05535 0.04872 0.65765 0.0
C49 C 0.96763 0.05846 0.63419 0.0
C50 C 1.0104 0.06418 0.61995 0.0
C51 C 0.05465 0.05998 0.63215 0.0
C52 C 0.96995 0.04727 0.65976 0.0
N53 N 1.01349 0.04157 0.67115 0.0
H54 H 0.08989 0.04479 0.6666 0.0
H55 H 0.93666 0.0415 0.6699 0.0
H56 H 1.00156 0.92366 0.66223 0.0
H57 H 0.95658 0.92786 0.73732 0.0
O58 O 0.07983 0.97477 0.70235 0.0
O59 O 0.04105 0.99037 0.73822 0.0
O60 O 0.95972 0.06441 0.7172 0.0
C61 C 0.07716 0.96538 0.72619 0.0
H62 H 0.07116 0.2381 0.70803 0.0
H63 H 0.94739 0.82771 0.67078 0.0
H64 H 0.93257 0.06204 0.62564 0.0
H65 H 0.08867 0.06339 0.62197 0.0
Co66 Co 0.51166 0.52198 0.81407 0.0
C67 C 0.43112 0.60456 0.79994 0.0
C68 C 0.49329 0.65073 0.81391 0.0
C69 C 0.45837 0.69223 0.80876 0.0
N70 N 0.47641 0.59566 0.80839 0.0
N71 N 0.41924 0.66327 0.80001 0.0
H72 H 0.40681 0.56913 0.7944 0.0
H73 H 0.52848 0.66012 0.82156 0.0
C74 C 0.61807 0.55394 0.80375 0.0
O75 O 0.63333 0.50508 0.8144 0.0
N76 N 0.54651 0.44819 0.81967 0.0
C77 C 0.54837 0.41652 0.84088 0.0
C78 C 0.57623 0.36634 0.83658 0.0
C79 C 0.57142 0.41551 0.80251 0.0
N80 N 0.59117 0.36619 0.81251 0.0
C81 C 0.47548 0.55417 0.86199 0.0
C82 C 0.56236 0.57011 0.88582 0.0
C83 C 0.51915 0.57771 0.89955 0.0
C84 C 0.47532 0.56985 0.8872 0.0
C85 C 0.5609 0.55443 0.86054 0.0
N86 N 0.51777 0.54617 0.84892 0.0
H87 H 0.44124 0.54825 0.85288 0.0
H88 H 0.59454 0.54799 0.85079 0.0
H89 H 0.53098 0.42901 0.85834 0.0
H90 H 0.57634 0.42881 0.78329 0.0
O91 O 0.45244 0.47702 0.81741 0.0
O92 O 0.49228 0.4909 0.78178 0.0
O93 O 0.57285 0.56628 0.80321 0.0
C94 C 0.45577 0.46649 0.7936 0.0
H95 H 0.46182 0.74016 0.81108 0.0
H96 H 0.58595 0.33353 0.85032 0.0
H97 H 0.59713 0.57619 0.89451 0.0
H98 H 0.44098 0.57434 0.89701 0.0
Co99 Co 0.5313 0.48872 0.2098 0.0
C100 C 0.60852 0.58233 0.2105 0.0
C101 C 0.55727 0.59023 0.24092 0.0
C102 C 0.58966 0.63656 0.24257 0.0
N103 N 0.56859 0.55675 0.2207 0.0
N104 N 0.62173 0.63162 0.22351 0.0
H105 H 0.62683 0.56608 0.19381 0.0
H106 H 0.5274 0.58152 0.25363 0.0
C107 C 0.42799 0.53134 0.21285 0.0
O108 O 0.41739 0.49977 0.19291 0.0
N109 N 0.49257 0.41986 0.20004 0.0
C110 C 0.48621 0.3937 0.17754 0.0
C111 C 0.45113 0.35009 0.17979 0.0
C112 C 0.46199 0.39068 0.21566 0.0
N113 N 0.43604 0.34839 0.20375 0.0
C114 C 0.55976 0.49664 0.15869 0.0
C115 C 0.50712 0.59666 0.14648 0.0
C116 C 0.53595 0.56878 0.12808 0.0
C117 C 0.56285 0.51864 0.13457 0.0
C118 C 0.50568 0.57357 0.17073 0.0
N119 N 0.53006 0.52232 0.1763 0.0
H120 H 0.58066 0.4575 0.1629 0.0
H121 H 0.4858 0.59794 0.18493 0.0
H122 H 0.50399 0.40583 0.16033 0.0
H123 H 0.45668 0.40279 0.23508 0.0
O124 O 0.58919 0.44222 0.20603 0.0
O125 O 0.54571 0.44868 0.24091 0.0
O126 O 0.47104 0.53216 0.22109 0.0
C127 C 0.58316 0.42655 0.22907 0.0
H128 H 0.5901 0.67097 0.25688 0.0
H129 H 0.437 0.32268 0.16485 0.0
H130 H 0.4868 0.63658 0.14231 0.0
H131 H 0.58557 0.49568 0.12094 0.0
C132 C 0.04199 0.07006 0.4301 0.0
C133 C 1.01018 0.03371 0.41647 0.0
C134 C 0.03896 0.07231 0.4562 0.0
C135 C 1.00409 0.03794 0.46916 0.0
C136 C 0.97285 1.00119 0.45546 0.0
C137 C 0.97566 0.99926 0.42949 0.0
C138 C 1.00016 0.0367 0.49684 0.0
C139 C 0.01586 0.08078 0.51202 0.0
C140 C 1.01191 0.07794 0.53972 0.0
C141 C 0.04402 0.11202 0.55408 0.0
C142 C 0.04286 0.10871 0.58009 0.0
C143 C 1.00923 0.07151 0.59241 0.0
H144 H 0.95029 0.01725 0.54188 0.0
C145 C 0.97584 0.03916 0.57809 0.0
C146 C 0.97698 0.0425 0.55209 0.0
H147 H 0.94951 0.00994 0.58692 0.0
H148 H 0.06907 0.09694 0.42059 0.0
H149 H 0.06465 0.09996 0.46603 0.0
H150 H 0.94605 0.97371 0.4649 0.0
H151 H 0.95127 0.9698 0.41961 0.0
H152 H 0.98304 0.99745 0.50486 0.0
H153 H 0.0334 0.11987 0.50409 0.0
H154 H 0.07078 0.14046 0.54513 0.0
H155 H 0.06852 0.13513 0.59056 0.0
C156 C 0.49544 0.59826 0.08854 0.0
C157 C 0.53801 0.59004 0.10198 0.0
C158 C 0.49761 0.60767 0.06276 0.0
C159 C 0.54262 0.60971 0.04999 0.0
C160 C 0.58505 0.60507 0.06387 0.0
C161 C 0.58282 0.59525 0.08951 0.0
C162 C 0.54752 0.61086 0.02226 0.0
C163 C 0.51072 0.6189 1.00647 0.0
C164 C 0.51612 0.61141 0.97895 0.0
C165 C 0.48316 0.63981 0.96337 0.0
C166 C 0.48496 0.63028 0.93758 0.0
C167 C 0.51949 0.59149 0.92675 0.0
H168 H 0.57611 0.54867 0.97943 0.0
C169 C 0.55284 0.56355 0.94232 0.0
C170 C 0.55111 0.57317 0.96809 0.0
H171 H 0.57923 0.5324 0.93471 0.0
H172 H 0.46042 0.59394 0.0977 0.0
H173 H 0.46385 0.61044 0.05301 0.0
H174 H 0.62024 0.6067 0.05471 0.0
H175 H 0.61624 0.58962 0.09947 0.0
H176 H 0.58352 0.60319 0.01452 0.0
H177 H 0.47525 0.63138 0.01361 0.0
H178 H 0.45564 0.66915 0.9712 0.0
H179 H 0.45904 0.65308 0.92614 0.0
C180 C 0.14595 0.16633 0.28983 0.0
C181 C 0.14073 0.10404 0.29197 0.0
C182 C 0.18841 0.19105 0.27988 0.0
C183 C 0.22691 0.15404 0.27216 0.0
C184 C 0.22242 0.09191 0.27503 0.0
C185 C 0.17943 0.06699 0.28451 0.0
C186 C 0.27209 0.17982 0.2614 0.0
C187 C 0.27133 0.22615 0.24555 0.0
C188 C 0.31558 0.25365 0.23458 0.0
C189 C 0.3138 0.27715 0.21045 0.0
C190 C 0.35386 0.30656 0.20007 0.0
C191 C 0.39612 0.31452 0.21388 0.0
H192 H 0.36035 0.24397 0.26713 0.0
C193 C 0.39798 0.29121 0.23807 0.0
C194 C 0.35823 0.26051 0.24827 0.0
H195 H 0.43018 0.29695 0.24907 0.0
H196 H 0.11681 0.19609 0.2954 0.0
H197 H 0.19122 0.23922 0.27843 0.0
H198 H 0.2518 0.06255 0.26942 0.0
H199 H 0.17652 0.01884 0.28608 0.0
H200 H 0.3062 0.15839 0.26557 0.0
H201 H 0.2367 0.24316 0.23947 0.0
H202 H 0.28119 0.27298 0.19963 0.0
H203 H 0.35127 0.32486 0.18153 0.0
C204 C 0.84687 0.15576 0.294 0.0
C205 C 0.87661 0.13662 0.27405 0.0
C206 C 0.8018 0.18177 0.28944 0.0
C207 C 0.78574 0.18788 0.26482 0.0
C208 C 0.81466 0.16573 0.24512 0.0
C209 C 0.85976 0.14098 0.24965 0.0
C210 C 0.7405 0.21913 0.25833 0.0
C211 C 0.72048 0.2638 0.27195 0.0
C212 C 0.68398 0.30422 0.26109 0.0
C213 C 0.6478 0.33055 0.27621 0.0
C214 C 0.61436 0.37017 0.26598 0.0
C215 C 0.61735 0.38478 0.24057 0.0
H216 H 0.71561 0.3024 0.22374 0.0
C217 C 0.65412 0.35918 0.22568 0.0
C218 C 0.68704 0.31967 0.23578 0.0
H219 H 0.6578 0.36985 0.20608 0.0
H220 H 0.85924 0.15232 0.31297 0.0
H221 H 0.77996 0.19717 0.30511 0.0
H222 H 0.80306 0.16944 0.22601 0.0
H223 H 0.88174 0.1255 0.23402 0.0
H224 H 0.72614 0.20936 0.24 0.0
H225 H 0.73304 0.27383 0.29058 0.0
H226 H 0.64525 0.32017 0.29587 0.0
H227 H 0.58654 0.38959 0.27792 0.0
C228 C 0.70878 0.64971 0.2155 0.0
C229 C 0.66164 0.67159 0.21908 0.0
C230 C 0.74855 0.68878 0.21664 0.0
C231 C 0.74145 0.75049 0.22104 0.0
C232 C 0.69391 0.77229 0.22257 0.0
C233 C 0.65455 0.73333 0.22176 0.0
C234 C 0.78117 0.79278 0.22748 0.0
C235 C 0.82875 0.77975 0.22746 0.0
C236 C 0.86395 0.81991 0.24001 0.0
C237 C 0.9114 0.8262 0.2306 0.0
C238 C 0.94499 0.86239 0.24308 0.0
C239 C 0.93184 0.89149 0.2655 0.0
H240 H 0.81532 0.84408 0.27064 0.0
C241 C 0.88454 0.88461 0.27494 0.0
C242 C 0.85104 0.84939 0.26238 0.0
H243 H 0.87329 0.9063 0.2922 0.0
H244 H 0.71494 0.60208 0.21356 0.0
H245 H 0.78441 0.6698 0.2154 0.0
H246 H 0.68708 0.81944 0.22582 0.0
H247 H 0.61842 0.75112 0.22437 0.0
H248 H 0.77009 0.83662 0.23435 0.0
H249 H 0.84227 0.73874 0.21902 0.0
H250 H 0.92241 0.80327 0.21359 0.0
H251 H 0.98136 0.86661 0.2355 0.0
C252 C 0.17747 0.81681 0.28602 0.0
C253 C 0.13669 0.79467 0.29893 0.0
C254 C 0.21106 0.77778 0.27506 0.0
C255 C 0.20478 0.71547 0.27686 0.0
C256 C 0.16401 0.69331 0.28974 0.0
C257 C 0.13048 0.73245 0.30082 0.0
C258 C 0.23909 0.67274 0.26474 0.0
C259 C 0.28615 0.68577 0.26076 0.0
C260 C 0.32113 0.64402 0.24863 0.0
C261 C 0.37033 0.65041 0.254 0.0
C262 C 0.40478 0.61346 0.24254 0.0
C263 C 0.39092 0.56967 0.22509 0.0
H264 H 0.26958 0.59508 0.22601 0.0
C265 C 0.34169 0.5635 0.21946 0.0
C266 C 0.30705 0.60025 0.23114 0.0
H267 H 0.32989 0.53034 0.20603 0.0
H268 H 0.18338 0.86448 0.28431 0.0
H269 H 0.24121 0.79674 0.26471 0.0
H270 H 0.15804 0.64556 0.2912 0.0
H271 H 0.09907 0.71397 0.3103 0.0
H272 H 0.22553 0.6285 0.26004 0.0
H273 H 0.30055 0.72781 0.26774 0.0
H274 H 0.38223 0.68411 0.26719 0.0
H275 H 0.4424 0.61985 0.24718 0.0
C276 C 0.35966 0.7457 0.80214 0.0
C277 C 0.37463 0.69026 0.79215 0.0
C278 C 0.31828 0.77408 0.79344 0.0
C279 C 0.29058 0.74755 0.77453 0.0
C280 C 0.30506 0.69164 0.76487 0.0
C281 C 0.34639 0.66312 0.77366 0.0
C282 C 0.24889 0.77874 0.7631 0.0
C283 C 0.22383 0.8236 0.77426 0.0
C284 C 0.18528 0.85794 0.7616 0.0
C285 C 0.14949 0.88734 0.77599 0.0
C286 C 0.11396 0.92194 0.76463 0.0
C287 C 0.11396 0.92851 0.73862 0.0
H288 H 0.21299 0.84472 0.72381 0.0
C289 C 0.14998 0.89953 0.72426 0.0
C290 C 0.18522 0.8648 0.73556 0.0
H291 H 0.15125 0.90393 0.70418 0.0
H292 H 0.38023 0.76761 0.81659 0.0
H293 H 0.30927 0.81764 0.80105 0.0
H294 H 0.28474 0.67031 0.75015 0.0
H295 H 0.35707 0.62079 0.76539 0.0
H296 H 0.23835 0.76347 0.74471 0.0
H297 H 0.231 0.83531 0.79352 0.0
H298 H 0.14897 0.88349 0.7961 0.0
H299 H 0.0868 0.94388 0.77621 0.0
C300 C 0.17345 0.24413 0.71699 0.0
C301 C 0.15822 0.18918 0.72704 0.0
C302 C 0.21507 0.27273 0.72561 0.0
C303 C 0.24268 0.24688 0.74448 0.0
C304 C 0.22791 0.19146 0.7542 0.0
C305 C 0.18636 0.16274 0.7455 0.0
C306 C 0.2845 0.2784 0.75589 0.0
C307 C 0.30969 0.32287 0.74477 0.0
C308 C 0.34809 0.35775 0.75759 0.0
C309 C 0.38449 0.38618 0.7434 0.0
C310 C 0.41993 0.4212 0.75497 0.0
C311 C 0.41917 0.42911 0.78096 0.0
H312 H 0.31909 0.34675 0.79518 0.0
C313 C 0.38252 0.40112 0.79511 0.0
C314 C 0.34739 0.36601 0.78361 0.0
H315 H 0.38067 0.40661 0.81517 0.0
H316 H 0.15293 0.26545 0.70257 0.0
H317 H 0.22432 0.31594 0.71797 0.0
H318 H 0.24817 0.1707 0.76891 0.0
H319 H 0.17545 0.12082 0.75384 0.0
H320 H 0.29497 0.26385 0.77429 0.0
H321 H 0.3027 0.33386 0.7255 0.0
H322 H 0.38556 0.38123 0.7233 0.0
H323 H 0.4476 0.44241 0.74356 0.0
C324 C 0.82924 0.07943 0.72907 0.0
C325 C 0.87859 0.09486 0.72784 0.0
C326 C 0.79505 0.11927 0.73903 0.0
C327 C 0.80931 0.17567 0.74817 0.0
C328 C 0.85852 0.19148 0.74663 0.0
C329 C 0.89285 0.15145 0.73673 0.0
C330 C 0.77367 0.21956 0.75863 0.0
C331 C 0.73093 0.20337 0.76911 0.0
C332 C 0.69509 0.24659 0.77981 0.0
C333 C 0.66225 0.22677 0.79822 0.0
C334 C 0.62795 0.26573 0.80875 0.0
C335 C 0.6251 0.32531 0.80083 0.0
H336 H 0.71554 0.32265 0.75695 0.0
C337 C 0.6572 0.34489 0.78197 0.0
C338 C 0.69184 0.30604 0.77158 0.0
H339 H 0.65622 0.39063 0.77557 0.0
H340 H 0.81679 0.03643 0.72226 0.0
H341 H 0.75741 0.10594 0.73907 0.0
H342 H 0.87053 0.23483 0.75329 0.0
H343 H 0.93048 0.16498 0.73597 0.0
H344 H 0.7842 0.26637 0.75868 0.0
H345 H 0.72255 0.1562 0.7712 0.0
H346 H 0.66346 0.18106 0.80471 0.0
H347 H 0.60343 0.2491 0.82302 0.0
C348 C 0.70361 0.58121 0.79276 0.0
C349 C 0.65424 0.59622 0.79321 0.0
C350 C 0.73812 0.62044 0.78283 0.0
C351 C 0.72409 0.67569 0.77294 0.0
C352 C 0.67486 0.69114 0.77373 0.0
C353 C 0.64022 0.65173 0.78361 0.0
C354 C 0.75999 0.71877 0.76243 0.0
C355 C 0.80299 0.70185 0.75248 0.0
C356 C 0.83893 0.74442 0.74171 0.0
C357 C 0.87184 0.72364 0.72343 0.0
C358 C 0.906 0.76227 0.71272 0.0
C359 C 0.90853 0.82243 0.72034 0.0
H360 H 0.81826 0.82172 0.76424 0.0
C361 C 0.87645 0.84292 0.73911 0.0
C362 C 0.84201 0.80441 0.74969 0.0
H363 H 0.87723 0.88912 0.74528 0.0
H364 H 0.71583 0.53904 0.80015 0.0
H365 H 0.77577 0.60759 0.78338 0.0
H366 H 0.66307 0.73366 0.76648 0.0
H367 H 0.60255 0.66488 0.78378 0.0
H368 H 0.74946 0.76547 0.76182 0.0
H369 H 0.81144 0.65457 0.75087 0.0
H370 H 0.87073 0.67747 0.71716 0.0
H371 H 0.93057 0.745 0.69852 0.0
loop_
_geom_bond_atom_site_label_1
_geom_bond_atom_site_label_2
_geom_bond_distance
_geom_bond_site_symmetry_2
_ccdc_geom_bond_type
Co0 N4 2.148 1_465 S
Co0 N10 2.128 . S
Co0 N20 2.194 1_465 S
Co0 O25 2.351 1_455 S
Co0 O26 2.155 1_455 S
Co0 O27 2.096 1_565 S
C1 N4 1.301 . S
C1 N5 1.328 . S
C1 H6 0.930 . S
C2 C3 1.333 . S
C2 N4 1.317 . S
C2 H7 0.930 . S
C3 C2 1.333 . S
C3 N5 1.350 . S
C3 H29 0.931 . S
N4 Co0 2.148 1_645 S
N4 C1 1.301 . S
N4 C2 1.317 . S
N5 C1 1.328 . S
N5 C3 1.350 . S
H6 C1 0.930 . S
H7 C2 0.930 . S
C8 O9 1.224 . S
C8 O27 1.247 . S
O9 C8 1.224 . S
N10 Co0 2.128 . S
N10 C11 1.355 . S
N10 C13 1.311 . S
C11 N10 1.355 . S
C11 C12 1.363 . S
C11 H23 0.929 . S
C12 C11 1.363 . S
C12 N14 1.375 . S
C12 H30 0.931 . S
C13 N10 1.311 . S
C13 N14 1.347 . S
C13 H24 0.929 . S
N14 C12 1.375 . S
N14 C13 1.347 . S
C15 C18 1.365 . S
C15 N20 1.328 1_565 S
C15 H21 0.929 . S
C16 C17 1.362 . S
C16 C19 1.378 . S
C16 H31 0.929 . S
C17 C16 1.362 . S
C17 C18 1.366 1_445 S
C18 C15 1.365 . S
C18 C17 1.366 1_665 S
C18 H32 0.930 . S
C19 C16 1.378 . S
C19 N20 1.315 1_455 S
C19 H22 0.930 . S
N20 Co0 2.194 1_645 S
N20 C15 1.328 1_545 S
N20 C19 1.315 1_655 S
H21 C15 0.929 . S
H22 C19 0.930 . S
H23 C11 0.929 . S
H24 C13 0.929 . S
O25 Co0 2.351 1_655 S
O25 C28 1.244 . S
O26 Co0 2.155 1_655 S
O26 C28 1.240 . S
O27 Co0 2.096 1_545 S
O27 C8 1.247 . S
C28 O25 1.244 . S
C28 O26 1.240 . S
H29 C3 0.931 . S
H30 C12 0.931 . S
H31 C16 0.929 . S
H32 C18 0.930 . S
Co33 N37 2.148 1_565 S
Co33 N43 2.128 1_455 S
Co33 N53 2.194 1_565 S
Co33 O58 2.351 . S
Co33 O59 2.155 . S
Co33 O60 2.096 1_465 S
C34 N37 1.301 . S
C34 N38 1.328 . S
C34 H39 0.930 . S
C35 C36 1.333 . S
C35 N37 1.317 . S
C35 H40 0.930 . S
C36 C35 1.333 . S
C36 N38 1.350 . S
C36 H62 0.931 . S
N37 Co33 2.148 1_545 S
N37 C34 1.301 . S
N37 C35 1.317 . S
N38 C34 1.328 . S
N38 C36 1.350 . S
H39 C34 0.930 . S
H40 C35 0.930 . S
C41 O42 1.224 . S
C41 O60 1.247 . S
O42 C41 1.224 . S
N43 Co33 2.128 1_655 S
N43 C44 1.355 . S
N43 C46 1.311 . S
C44 N43 1.355 . S
C44 C45 1.363 . S
C44 H56 0.929 . S
C45 C44 1.363 . S
C45 N47 1.375 . S
C45 H63 0.931 . S
C46 N43 1.311 . S
C46 N47 1.347 . S
C46 H57 0.929 . S
N47 C45 1.375 . S
N47 C46 1.347 . S
C48 C51 1.365 . S
C48 N53 1.328 1_565 S
C48 H54 0.929 . S
C49 C50 1.362 1_655 S
C49 C52 1.378 . S
C49 H64 0.929 . S
C50 C49 1.362 1_455 S
C50 C51 1.366 1_545 S
C51 C48 1.365 . S
C51 C50 1.366 1_565 S
C51 H65 0.930 . S
C52 C49 1.378 . S
C52 N53 1.315 1_655 S
C52 H55 0.930 . S
N53 Co33 2.194 1_545 S
N53 C48 1.328 1_545 S
N53 C52 1.315 1_455 S
H54 C48 0.929 . S
H55 C52 0.930 . S
H56 C44 0.929 . S
H57 C46 0.929 . S
O58 Co33 2.351 . S
O58 C61 1.244 . S
O59 Co33 2.155 . S
O59 C61 1.240 . S
O60 Co33 2.096 1_645 S
O60 C41 1.247 . S
C61 O58 1.244 . S
C61 O59 1.240 . S
H62 C36 0.931 . S
H63 C45 0.931 . S
H64 C49 0.929 . S
H65 C51 0.930 . S
Co66 N70 2.148 . S
Co66 N76 2.128 . S
Co66 N86 2.194 . S
Co66 O91 2.351 . S
Co66 O92 2.155 . S
Co66 O93 2.096 . S
C67 N70 1.301 . S
C67 N71 1.328 . S
C67 H72 0.930 . S
C68 C69 1.333 . S
C68 N70 1.317 . S
C68 H73 0.930 . S
C69 C68 1.333 . S
C69 N71 1.350 . S
C69 H95 0.931 . S
N70 Co66 2.148 . S
N70 C67 1.301 . S
N70 C68 1.317 . S
N71 C67 1.328 . S
N71 C69 1.350 . S
H72 C67 0.930 . S
H73 C68 0.930 . S
C74 O75 1.224 . S
C74 O93 1.247 . S
O75 C74 1.224 . S
N76 Co66 2.128 . S
N76 C77 1.355 . S
N76 C79 1.311 . S
C77 N76 1.355 . S
C77 C78 1.363 . S
C77 H89 0.929 . S
C78 C77 1.363 . S
C78 N80 1.375 . S
C78 H96 0.931 . S
C79 N76 1.311 . S
C79 N80 1.347 . S
C79 H90 0.929 . S
N80 C78 1.375 . S
N80 C79 1.347 . S
C81 C84 1.365 . S
C81 N86 1.328 . S
C81 H87 0.929 . S
C82 C83 1.362 . S
C82 C85 1.378 . S
C82 H97 0.929 . S
C83 C82 1.362 . S
C83 C84 1.366 . S
C84 C81 1.365 . S
C84 C83 1.366 . S
C84 H98 0.930 . S
C85 C82 1.378 . S
C85 N86 1.315 . S
C85 H88 0.930 . S
N86 Co66 2.194 . S
N86 C81 1.328 . S
N86 C85 1.315 . S
H87 C81 0.929 . S
H88 C85 0.930 . S
H89 C77 0.929 . S
H90 C79 0.929 . S
O91 Co66 2.351 . S
O91 C94 1.244 . S
O92 Co66 2.155 . S
O92 C94 1.240 . S
O93 Co66 2.096 . S
O93 C74 1.247 . S
C94 O91 1.244 . S
C94 O92 1.240 . S
H95 C69 0.931 . S
H96 C78 0.931 . S
H97 C82 0.929 . S
H98 C84 0.930 . S
Co99 N103 2.148 . S
Co99 N109 2.128 . S
Co99 N119 2.194 . S
Co99 O124 2.351 . S
Co99 O125 2.155 . S
Co99 O126 2.096 . S
C100 N103 1.301 . S
C100 N104 1.328 . S
C100 H105 0.930 . S
C101 C102 1.333 . S
C101 N103 1.317 . S
C101 H106 0.930 . S
C102 C101 1.333 . S
C102 N104 1.350 . S
C102 H128 0.931 . S
N103 Co99 2.148 . S
N103 C100 1.301 . S
N103 C101 1.317 . S
N104 C100 1.328 . S
N104 C102 1.350 . S
H105 C100 0.930 . S
H106 C101 0.930 . S
C107 O108 1.224 . S
C107 O126 1.247 . S
O108 C107 1.224 . S
N109 Co99 2.128 . S
N109 C110 1.355 . S
N109 C112 1.311 . S
C110 N109 1.355 . S
C110 C111 1.363 . S
C110 H122 0.929 . S
C111 C110 1.363 . S
C111 N113 1.375 . S
C111 H129 0.931 . S
C112 N109 1.311 . S
C112 N113 1.347 . S
C112 H123 0.929 . S
N113 C111 1.375 . S
N113 C112 1.347 . S
C114 C117 1.365 . S
C114 N119 1.328 . S
C114 H120 0.929 . S
C115 C116 1.362 . S
C115 C118 1.378 . S
C115 H130 0.929 . S
C116 C115 1.362 . S
C116 C117 1.366 . S
C117 C114 1.365 . S
C117 C116 1.366 . S
C117 H131 0.930 . S
C118 C115 1.378 . S
C118 N119 1.315 . S
C118 H121 0.930 . S
N119 Co99 2.194 . S
N119 C114 1.328 . S
N119 C118 1.315 . S
H120 C114 0.929 . S
H121 C118 0.930 . S
H122 C110 0.929 . S
H123 C112 0.929 . S
O124 Co99 2.351 . S
O124 C127 1.244 . S
O125 Co99 2.155 . S
O125 C127 1.240 . S
O126 Co99 2.096 . S
O126 C107 1.247 . S
C127 O124 1.244 . S
C127 O125 1.240 . S
H128 C102 0.931 . S
H129 C111 0.931 . S
H130 C115 0.929 . S
H131 C117 0.930 . S
C132 C133 1.386 . S
C132 C134 1.383 . S
C132 H148 0.951 . S
C133 C132 1.386 . S
C133 C137 1.383 1_445 S
C134 C132 1.383 . S
C134 C135 1.402 1_455 S
C134 H149 0.951 . S
C135 C134 1.402 1_655 S
C135 C136 1.375 1_545 S
C135 C138 1.481 . S
C136 C135 1.375 1_565 S
C136 C137 1.367 . S
C136 H150 0.951 . S
C137 C133 1.383 1_665 S
C137 C136 1.367 . S
C137 H151 0.950 . S
C138 C135 1.481 . S
C138 C139 1.297 1_655 S
C138 H152 0.950 1_545 S
C139 C138 1.297 1_455 S
C139 C140 1.479 . S
C139 H153 0.950 . S
C140 C139 1.479 . S
C140 C141 1.375 . S
C140 C146 1.404 1_455 S
C141 C140 1.375 . S
C141 C142 1.369 . S
C141 H154 0.950 . S
C142 C141 1.369 . S
C142 C143 1.392 . S
C142 H155 0.951 . S
C143 C142 1.392 . S
C143 C145 1.384 1_455 S
H144 C146 0.949 . S
C145 C143 1.384 1_655 S
C145 C146 1.385 . S
C145 H147 0.950 1_545 S
C146 C140 1.404 1_655 S
C146 H144 0.949 . S
C146 C145 1.385 . S
H147 C145 0.950 1_565 S
H148 C132 0.951 . S
H149 C134 0.951 . S
H150 C136 0.951 . S
H151 C137 0.950 . S
H152 C138 0.950 1_565 S
H153 C139 0.950 . S
H154 C141 0.950 . S
H155 C142 0.951 . S
C156 C157 1.386 . S
C156 C158 1.383 . S
C156 H172 0.951 . S
C157 C156 1.386 . S
C157 C161 1.383 . S
C158 C156 1.383 . S
C158 C159 1.402 . S
C158 H173 0.951 . S
C159 C158 1.402 . S
C159 C160 1.375 . S
C159 C162 1.481 . S
C160 C159 1.375 . S
C160 C161 1.367 . S
C160 H174 0.951 . S
C161 C157 1.383 . S
C161 C160 1.367 . S
C161 H175 0.950 . S
C162 C159 1.481 . S
C162 C163 1.297 1_554 S
C162 H176 0.950 . S
C163 C162 1.297 1_556 S
C163 C164 1.479 . S
C163 H177 0.950 . S
C164 C163 1.479 . S
C164 C165 1.375 . S
C164 C170 1.404 . S
C165 C164 1.375 . S
C165 C166 1.369 . S
C165 H178 0.950 . S
C166 C165 1.369 . S
C166 C167 1.392 . S
C166 H179 0.951 . S
C167 C166 1.392 . S
C167 C169 1.384 . S
H168 C170 0.949 . S
C169 C167 1.384 . S
C169 C170 1.385 . S
C169 H171 0.950 . S
C170 C164 1.404 . S
C170 H168 0.949 . S
C170 C169 1.385 . S
H171 C169 0.950 . S
H172 C156 0.951 . S
H173 C158 0.951 . S
H174 C160 0.951 . S
H175 C161 0.950 . S
H176 C162 0.950 . S
H177 C163 0.950 . S
H178 C165 0.950 . S
H179 C166 0.951 . S
C180 C181 1.386 . S
C180 C182 1.383 . S
C180 H196 0.951 . S
C181 C180 1.386 . S
C181 C185 1.383 . S
C182 C180 1.383 . S
C182 C183 1.402 . S
C182 H197 0.951 . S
C183 C182 1.402 . S
C183 C184 1.375 . S
C183 C186 1.481 . S
C184 C183 1.375 . S
C184 C185 1.367 . S
C184 H198 0.951 . S
C185 C181 1.383 . S
C185 C184 1.367 . S
C185 H199 0.950 . S
C186 C183 1.481 . S
C186 C187 1.297 . S
C186 H200 0.950 . S
C187 C186 1.297 . S
C187 C188 1.479 . S
C187 H201 0.950 . S
C188 C187 1.479 . S
C188 C189 1.375 . S
C188 C194 1.404 . S
C189 C188 1.375 . S
C189 C190 1.369 . S
C189 H202 0.950 . S
C190 C189 1.369 . S
C190 C191 1.392 . S
C190 H203 0.951 . S
C191 C190 1.392 . S
C191 C193 1.384 . S
H192 C194 0.949 . S
C193 C191 1.384 . S
C193 C194 1.385 . S
C193 H195 0.950 . S
C194 C188 1.404 . S
C194 H192 0.949 . S
C194 C193 1.385 . S
H195 C193 0.950 . S
H196 C180 0.951 . S
H197 C182 0.951 . S
H198 C184 0.951 . S
H199 C185 0.950 . S
H200 C186 0.950 . S
H201 C187 0.950 . S
H202 C189 0.950 . S
H203 C190 0.951 . S
C204 C205 1.386 . S
C204 C206 1.383 . S
C204 H220 0.951 . S
C205 C204 1.386 . S
C205 C209 1.383 . S
C206 C204 1.383 . S
C206 C207 1.402 . S
C206 H221 0.951 . S
C207 C206 1.402 . S
C207 C208 1.375 . S
C207 C210 1.481 . S
C208 C207 1.375 . S
C208 C209 1.367 . S
C208 H222 0.951 . S
C209 C205 1.383 . S
C209 C208 1.367 . S
C209 H223 0.950 . S
C210 C207 1.481 . S
C210 C211 1.297 . S
C210 H224 0.950 . S
C211 C210 1.297 . S
C211 C212 1.479 . S
C211 H225 0.950 . S
C212 C211 1.479 . S
C212 C213 1.375 . S
C212 C218 1.404 . S
C213 C212 1.375 . S
C213 C214 1.369 . S
C213 H226 0.950 . S
C214 C213 1.369 . S
C214 C215 1.392 . S
C214 H227 0.951 . S
C215 C214 1.392 . S
C215 C217 1.384 . S
H216 C218 0.949 . S
C217 C215 1.384 . S
C217 C218 1.385 . S
C217 H219 0.950 . S
C218 C212 1.404 . S
C218 H216 0.949 . S
C218 C217 1.385 . S
H219 C217 0.950 . S
H220 C204 0.951 . S
H221 C206 0.951 . S
H222 C208 0.951 . S
H223 C209 0.950 . S
H224 C210 0.950 . S
H225 C211 0.950 . S
H226 C213 0.950 . S
H227 C214 0.951 . S
C228 C229 1.386 . S
C228 C230 1.383 . S
C228 H244 0.951 . S
C229 C228 1.386 . S
C229 C233 1.383 . S
C230 C228 1.383 . S
C230 C231 1.402 . S
C230 H245 0.951 . S
C231 C230 1.402 . S
C231 C232 1.375 . S
C231 C234 1.481 . S
C232 C231 1.375 . S
C232 C233 1.367 . S
C232 H246 0.951 . S
C233 C229 1.383 . S
C233 C232 1.367 . S
C233 H247 0.950 . S
C234 C231 1.481 . S
C234 C235 1.297 . S
C234 H248 0.950 . S
C235 C234 1.297 . S
C235 C236 1.479 . S
C235 H249 0.950 . S
C236 C235 1.479 . S
C236 C237 1.375 . S
C236 C242 1.404 . S
C237 C236 1.375 . S
C237 C238 1.369 . S
C237 H250 0.950 . S
C238 C237 1.369 . S
C238 C239 1.392 . S
C238 H251 0.951 . S
C239 C238 1.392 . S
C239 C241 1.384 . S
H240 C242 0.949 . S
C241 C239 1.384 . S
C241 C242 1.385 . S
C241 H243 0.950 . S
C242 C236 1.404 . S
C242 H240 0.949 . S
C242 C241 1.385 . S
H243 C241 0.950 . S
H244 C228 0.951 . S
H245 C230 0.951 . S
H246 C232 0.951 . S
H247 C233 0.950 . S
H248 C234 0.950 . S
H249 C235 0.950 . S
H250 C237 0.950 . S
H251 C238 0.951 . S
C252 C253 1.386 . S
C252 C254 1.383 . S
C252 H268 0.951 . S
C253 C252 1.386 . S
C253 C257 1.383 . S
C254 C252 1.383 . S
C254 C255 1.402 . S
C254 H269 0.951 . S
C255 C254 1.402 . S
C255 C256 1.375 . S
C255 C258 1.481 . S
C256 C255 1.375 . S
C256 C257 1.367 . S
C256 H270 0.951 . S
C257 C253 1.383 . S
C257 C256 1.367 . S
C257 H271 0.950 . S
C258 C255 1.481 . S
C258 C259 1.297 . S
C258 H272 0.950 . S
C259 C258 1.297 . S
C259 C260 1.479 . S
C259 H273 0.950 . S
C260 C259 1.479 . S
C260 C261 1.375 . S
C260 C266 1.404 . S
C261 C260 1.375 . S
C261 C262 1.369 . S
C261 H274 0.950 . S
C262 C261 1.369 . S
C262 C263 1.392 . S
C262 H275 0.951 . S
C263 C262 1.392 . S
C263 C265 1.384 . S
H264 C266 0.949 . S
C265 C263 1.384 . S
C265 C266 1.385 . S
C265 H267 0.950 . S
C266 C260 1.404 . S
C266 H264 0.949 . S
C266 C265 1.385 . S
H267 C265 0.950 . S
H268 C252 0.951 . S
H269 C254 0.951 . S
H270 C256 0.951 . S
H271 C257 0.950 . S
H272 C258 0.950 . S
H273 C259 0.950 . S
H274 C261 0.950 . S
H275 C262 0.951 . S
C276 C277 1.386 . S
C276 C278 1.383 . S
C276 H292 0.951 . S
C277 C276 1.386 . S
C277 C281 1.383 . S
C278 C276 1.383 . S
C278 C279 1.402 . S
C278 H293 0.951 . S
C279 C278 1.402 . S
C279 C280 1.375 . S
C279 C282 1.481 . S
C280 C279 1.375 . S
C280 C281 1.367 . S
C280 H294 0.951 . S
C281 C277 1.383 . S
C281 C280 1.367 . S
C281 H295 0.950 . S
C282 C279 1.481 . S
C282 C283 1.297 . S
C282 H296 0.950 . S
C283 C282 1.297 . S
C283 C284 1.479 . S
C283 H297 0.950 . S
C284 C283 1.479 . S
C284 C285 1.375 . S
C284 C290 1.404 . S
C285 C284 1.375 . S
C285 C286 1.369 . S
C285 H298 0.950 . S
C286 C285 1.369 . S
C286 C287 1.392 . S
C286 H299 0.951 . S
C287 C286 1.392 . S
C287 C289 1.384 . S
H288 C290 0.949 . S
C289 C287 1.384 . S
C289 C290 1.385 . S
C289 H291 0.950 . S
C290 C284 1.404 . S
C290 H288 0.949 . S
C290 C289 1.385 . S
H291 C289 0.950 . S
H292 C276 0.951 . S
H293 C278 0.951 . S
H294 C280 0.951 . S
H295 C281 0.950 . S
H296 C282 0.950 . S
H297 C283 0.950 . S
H298 C285 0.950 . S
H299 C286 0.951 . S
C300 C301 1.386 . S
C300 C302 1.383 . S
C300 H316 0.951 . S
C301 C300 1.386 . S
C301 C305 1.383 . S
C302 C300 1.383 . S
C302 C303 1.402 . S
C302 H317 0.951 . S
C303 C302 1.402 . S
C303 C304 1.375 . S
C303 C306 1.481 . S
C304 C303 1.375 . S
C304 C305 1.367 . S
C304 H318 0.951 . S
C305 C301 1.383 . S
C305 C304 1.367 . S
C305 H319 0.950 . S
C306 C303 1.481 . S
C306 C307 1.297 . S
C306 H320 0.950 . S
C307 C306 1.297 . S
C307 C308 1.479 . S
C307 H321 0.950 . S
C308 C307 1.479 . S
C308 C309 1.375 . S
C308 C314 1.404 . S
C309 C308 1.375 . S
C309 C310 1.369 . S
C309 H322 0.950 . S
C310 C309 1.369 . S
C310 C311 1.392 . S
C310 H323 0.951 . S
C311 C310 1.392 . S
C311 C313 1.384 . S
H312 C314 0.949 . S
C313 C311 1.384 . S
C313 C314 1.385 . S
C313 H315 0.950 . S
C314 C308 1.404 . S
C314 H312 0.949 . S
C314 C313 1.385 . S
H315 C313 0.950 . S
H316 C300 0.951 . S
H317 C302 0.951 . S
H318 C304 0.951 . S
H319 C305 0.950 . S
H320 C306 0.950 . S
H321 C307 0.950 . S
H322 C309 0.950 . S
H323 C310 0.951 . S
C324 C325 1.386 . S
C324 C326 1.383 . S
C324 H340 0.951 . S
C325 C324 1.386 . S
C325 C329 1.383 . S
C326 C324 1.383 . S
C326 C327 1.402 . S
C326 H341 0.951 . S
C327 C326 1.402 . S
C327 C328 1.375 . S
C327 C330 1.481 . S
C328 C327 1.375 . S
C328 C329 1.367 . S
C328 H342 0.951 . S
C329 C325 1.383 . S
C329 C328 1.367 . S
C329 H343 0.950 . S
C330 C327 1.481 . S
C330 C331 1.297 . S
C330 H344 0.950 . S
C331 C330 1.297 . S
C331 C332 1.479 . S
C331 H345 0.950 . S
C332 C331 1.479 . S
C332 C333 1.375 . S
C332 C338 1.404 . S
C333 C332 1.375 . S
C333 C334 1.369 . S
C333 H346 0.950 . S
C334 C333 1.369 . S
C334 C335 1.392 . S
C334 H347 0.951 . S
C335 C334 1.392 . S
C335 C337 1.384 . S
H336 C338 0.949 . S
C337 C335 1.384 . S
C337 C338 1.385 . S
C337 H339 0.950 . S
C338 C332 1.404 . S
C338 H336 0.949 . S
C338 C337 1.385 . S
H339 C337 0.950 . S
H340 C324 0.951 . S
H341 C326 0.951 . S
H342 C328 0.951 . S
H343 C329 0.950 . S
H344 C330 0.950 . S
H345 C331 0.950 . S
H346 C333 0.950 . S
H347 C334 0.951 . S
C348 C349 1.386 . S
C348 C350 1.383 . S
C348 H364 0.951 . S
C349 C348 1.386 . S
C349 C353 1.383 . S
C350 C348 1.383 . S
C350 C351 1.402 . S
C350 H365 0.951 . S
C351 C350 1.402 . S
C351 C352 1.375 . S
C351 C354 1.481 . S
C352 C351 1.375 . S
C352 C353 1.367 . S
C352 H366 0.951 . S
C353 C349 1.383 . S
C353 C352 1.367 . S
C353 H367 0.950 . S
C354 C351 1.481 . S
C354 C355 1.297 . S
C354 H368 0.950 . S
C355 C354 1.297 . S
C355 C356 1.479 . S
C355 H369 0.950 . S
C356 C355 1.479 . S
C356 C357 1.375 . S
C356 C362 1.404 . S
C357 C356 1.375 . S
C357 C358 1.369 . S
C357 H370 0.950 . S
C358 C357 1.369 . S
C358 C359 1.392 . S
C358 H371 0.951 . S
C359 C358 1.392 . S
C359 C361 1.384 . S
H360 C362 0.949 . S
C361 C359 1.384 . S
C361 C362 1.385 . S
C361 H363 0.950 . S
C362 C356 1.404 . S
C362 H360 0.949 . S
C362 C361 1.385 . S
H363 C361 0.950 . S
H364 C348 0.951 . S
H365 C350 0.951 . S
H366 C352 0.951 . S
H367 C353 0.950 . S
H368 C354 0.950 . S
H369 C355 0.950 . S
H370 C357 0.950 . S
H371 C358 0.951 . S
C133 C17 1.477 . S
C143 C50 1.473 . S
C157 C116 1.478 . S
C167 C83 1.467 . S
C181 C8 1.494 . S
C191 N113 1.486 . S
C205 N5 1.345 . S
C215 C127 1.435 . S
C229 N104 1.364 . S
C239 C28 1.437 . S
C253 N14 1.471 . S
C263 C107 1.516 . S
C277 N71 1.356 . S
C287 C61 1.419 . S
C301 N38 1.343 . S
C311 C94 1.419 . S
C325 C41 1.506 . S
C335 N80 1.499 . S
C349 C74 1.504 . S
C359 N47 1.505 . S
