# Generated by pormake.
# Topology wir, (6)-cn, num edge types: 1
# Building blocks:
#     Node 0, Type 0, BuildingBlock: CIFDUS_clean_sbu_1, # of connection points: 6
#     Node 1, Type 0, BuildingBlock: CIFDUS_clean_sbu_1, # of connection points: 6
#     Node 2, Type 0, BuildingBlock: CIFDUS_clean_sbu_1, # of connection points: 6
#     Node 3, Type 0, BuildingBlock: CIFDUS_clean_sbu_1, # of connection points: 6
#     Node 4, Type 0, BuildingBlock: CIFDUS_clean_sbu_1, # of connection points: 6
#     Node 5, Type 0, BuildingBlock: CIFDUS_clean_sbu_1, # of connection points: 6
#     Node 6, Type 0, BuildingBlock: CIFDUS_clean_sbu_1, # of connection points: 6
#     Node 7, Type 0, BuildingBlock: CIFDUS_clean_sbu_1, # of connection points: 6
#     Node 8, Type 0, BuildingBlock: CIFDUS_clean_sbu_1, # of connection points: 6
#     Node 9, Type 0, BuildingBlock: CIFDUS_clean_sbu_1, # of connection points: 6
#     Node 10, Type 0, BuildingBlock: CIFDUS_clean_sbu_1, # of connection points: 6
#     Node 11, Type 0, BuildingBlock: CIFDUS_clean_sbu_1, # of connection points: 6
#     Node 12, Type 0, BuildingBlock: CIFDUS_clean_sbu_1, # of connection points: 6
#     Node 13, Type 0, BuildingBlock: CIFDUS_clean_sbu_1, # of connection points: 6
#     Node 14, Type 0, BuildingBlock: CIFDUS_clean_sbu_1, # of connection points: 6
#     Node 15, Type 0, BuildingBlock: CIFDUS_clean_sbu_1, # of connection points: 6
#     Node 16, Type 0, BuildingBlock: CIFDUS_clean_sbu_1, # of connection points: 6
#     Node 17, Type 0, BuildingBlock: CIFDUS_clean_sbu_1, # of connection points: 6
#     Node 18, Type 0, BuildingBlock: CIFDUS_clean_sbu_1, # of connection points: 6
#     Node 19, Type 0, BuildingBlock: CIFDUS_clean_sbu_1, # of connection points: 6
#     Node 20, Type 0, BuildingBlock: CIFDUS_clean_sbu_1, # of connection points: 6
#     Node 21, Type 0, BuildingBlock: CIFDUS_clean_sbu_1, # of connection points: 6
#     Node 22, Type 0, BuildingBlock: CIFDUS_clean_sbu_1, # of connection points: 6
#     Node 23, Type 0, BuildingBlock: CIFDUS_clean_sbu_1, # of connection points: 6
#     Node 24, Type 0, BuildingBlock: CIFDUS_clean_sbu_1, # of connection points: 6
#     Node 25, Type 0, BuildingBlock: CIFDUS_clean_sbu_1, # of connection points: 6
#     Node 26, Type 0, BuildingBlock: CIFDUS_clean_sbu_1, # of connection points: 6
#     Node 27, Type 0, BuildingBlock: CIFDUS_clean_sbu_1, # of connection points: 6
#     Node 28, Type 0, BuildingBlock: CIFDUS_clean_sbu_1, # of connection points: 6
#     Node 29, Type 0, BuildingBlock: CIFDUS_clean_sbu_1, # of connection points: 6
#     Node 30, Type 0, BuildingBlock: CIFDUS_clean_sbu_1, # of connection points: 6
#     Node 31, Type 0, BuildingBlock: CIFDUS_clean_sbu_1, # of connection points: 6
#     Edge 32, Type (0, 0), BuildingBlock: CIFDUS_clean_linker_0, # of connection points: 2
#     Edge 33, Type (0, 0), BuildingBlock: CIFDUS_clean_linker_0, # of connection points: 2
#     Edge 34, Type (0, 0), BuildingBlock: CIFDUS_clean_linker_0, # of connection points: 2
#     Edge 35, Type (0, 0), BuildingBlock: CIFDUS_clean_linker_0, # of connection points: 2
#     Edge 36, Type (0, 0), BuildingBlock: CIFDUS_clean_linker_0, # of connection points: 2
#     Edge 37, Type (0, 0), BuildingBlock: CIFDUS_clean_linker_0, # of connection points: 2
#     Edge 38, Type (0, 0), BuildingBlock: CIFDUS_clean_linker_0, # of connection points: 2
#     Edge 39, Type (0, 0), BuildingBlock: CIFDUS_clean_linker_0, # of connection points: 2
#     Edge 40, Type (0, 0), BuildingBlock: CIFDUS_clean_linker_0, # of connection points: 2
#     Edge 41, Type (0, 0), BuildingBlock: CIFDUS_clean_linker_0, # of connection points: 2
#     Edge 42, Type (0, 0), BuildingBlock: CIFDUS_clean_linker_0, # of connection points: 2
#     Edge 43, Type (0, 0), BuildingBlock: CIFDUS_clean_linker_0, # of connection points: 2
#     Edge 44, Type (0, 0), BuildingBlock: CIFDUS_clean_linker_0, # of connection points: 2
#     Edge 45, Type (0, 0), BuildingBlock: CIFDUS_clean_linker_0, # of connection points: 2
#     Edge 46, Type (0, 0), BuildingBlock: CIFDUS_clean_linker_0, # of connection points: 2
#     Edge 47, Type (0, 0), BuildingBlock: CIFDUS_clean_linker_0, # of connection points: 2
#     Edge 48, Type (0, 0), BuildingBlock: CIFDUS_clean_linker_0, # of connection points: 2
#     Edge 49, Type (0, 0), BuildingBlock: CIFDUS_clean_linker_0, # of connection points: 2
#     Edge 50, Type (0, 0), BuildingBlock: CIFDUS_clean_linker_0, # of connection points: 2
#     Edge 51, Type (0, 0), BuildingBlock: CIFDUS_clean_linker_0, # of connection points: 2
#     Edge 52, Type (0, 0), BuildingBlock: CIFDUS_clean_linker_0, # of connection points: 2
#     Edge 53, Type (0, 0), BuildingBlock: CIFDUS_clean_linker_0, # of connection points: 2
#     Edge 54, Type (0, 0), BuildingBlock: CIFDUS_clean_linker_0, # of connection points: 2
#     Edge 55, Type (0, 0), BuildingBlock: CIFDUS_clean_linker_0, # of connection points: 2
#     Edge 56, Type (0, 0), BuildingBlock: CIFDUS_clean_linker_0, # of connection points: 2
#     Edge 57, Type (0, 0), BuildingBlock: CIFDUS_clean_linker_0, # of connection points: 2
#     Edge 58, Type (0, 0), BuildingBlock: CIFDUS_clean_linker_0, # of connection points: 2
#     Edge 59, Type (0, 0), BuildingBlock: CIFDUS_clean_linker_0, # of connection points: 2
#     Edge 60, Type (0, 0), BuildingBlock: CIFDUS_clean_linker_0, # of connection points: 2
#     Edge 61, Type (0, 0), BuildingBlock: CIFDUS_clean_linker_0, # of connection points: 2
#     Edge 62, Type (0, 0), BuildingBlock: CIFDUS_clean_linker_0, # of connection points: 2
#     Edge 63, Type (0, 0), BuildingBlock: CIFDUS_clean_linker_0, # of connection points: 2
#     Edge 64, Type (0, 0), BuildingBlock: CIFDUS_clean_linker_0, # of connection points: 2
#     Edge 65, Type (0, 0), BuildingBlock: CIFDUS_clean_linker_0, # of connection points: 2
#     Edge 66, Type (0, 0), BuildingBlock: CIFDUS_clean_linker_0, # of connection points: 2
#     Edge 67, Type (0, 0), BuildingBlock: CIFDUS_clean_linker_0, # of connection points: 2
#     Edge 68, Type (0, 0), BuildingBlock: CIFDUS_clean_linker_0, # of connection points: 2
#     Edge 69, Type (0, 0), BuildingBlock: CIFDUS_clean_linker_0, # of connection points: 2
#     Edge 70, Type (0, 0), BuildingBlock: CIFDUS_clean_linker_0, # of connection points: 2
#     Edge 71, Type (0, 0), BuildingBlock: CIFDUS_clean_linker_0, # of connection points: 2
#     Edge 72, Type (0, 0), BuildingBlock: CIFDUS_clean_linker_0, # of connection points: 2
#     Edge 73, Type (0, 0), BuildingBlock: CIFDUS_clean_linker_0, # of connection points: 2
#     Edge 74, Type (0, 0), BuildingBlock: CIFDUS_clean_linker_0, # of connection points: 2
#     Edge 75, Type (0, 0), BuildingBlock: CIFDUS_clean_linker_0, # of connection points: 2
#     Edge 76, Type (0, 0), BuildingBlock: CIFDUS_clean_linker_0, # of connection points: 2
#     Edge 77, Type (0, 0), BuildingBlock: CIFDUS_clean_linker_0, # of connection points: 2
#     Edge 78, Type (0, 0), BuildingBlock: CIFDUS_clean_linker_0, # of connection points: 2
#     Edge 79, Type (0, 0), BuildingBlock: CIFDUS_clean_linker_0, # of connection points: 2
#     Edge 80, Type (0, 0), BuildingBlock: CIFDUS_clean_linker_0, # of connection points: 2
#     Edge 81, Type (0, 0), BuildingBlock: CIFDUS_clean_linker_0, # of connection points: 2
#     Edge 82, Type (0, 0), BuildingBlock: CIFDUS_clean_linker_0, # of connection points: 2
#     Edge 83, Type (0, 0), BuildingBlock: CIFDUS_clean_linker_0, # of connection points: 2
#     Edge 84, Type (0, 0), BuildingBlock: CIFDUS_clean_linker_0, # of connection points: 2
#     Edge 85, Type (0, 0), BuildingBlock: CIFDUS_clean_linker_0, # of connection points: 2
#     Edge 86, Type (0, 0), BuildingBlock: CIFDUS_clean_linker_0, # of connection points: 2
#     Edge 87, Type (0, 0), BuildingBlock: CIFDUS_clean_linker_0, # of connection points: 2
#     Edge 88, Type (0, 0), BuildingBlock: CIFDUS_clean_linker_0, # of connection points: 2
#     Edge 89, Type (0, 0), BuildingBlock: CIFDUS_clean_linker_0, # of connection points: 2
#     Edge 90, Type (0, 0), BuildingBlock: CIFDUS_clean_linker_0, # of connection points: 2
#     Edge 91, Type (0, 0), BuildingBlock: CIFDUS_clean_linker_0, # of connection points: 2
#     Edge 92, Type (0, 0), BuildingBlock: CIFDUS_clean_linker_0, # of connection points: 2
#     Edge 93, Type (0, 0), BuildingBlock: CIFDUS_clean_linker_0, # of connection points: 2
#     Edge 94, Type (0, 0), BuildingBlock: CIFDUS_clean_linker_0, # of connection points: 2
#     Edge 95, Type (0, 0), BuildingBlock: CIFDUS_clean_linker_0, # of connection points: 2
#     Edge 96, Type (0, 0), BuildingBlock: CIFDUS_clean_linker_0, # of connection points: 2
#     Edge 97, Type (0, 0), BuildingBlock: CIFDUS_clean_linker_0, # of connection points: 2
#     Edge 98, Type (0, 0), BuildingBlock: CIFDUS_clean_linker_0, # of connection points: 2
#     Edge 99, Type (0, 0), BuildingBlock: CIFDUS_clean_linker_0, # of connection points: 2
#     Edge 100, Type (0, 0), BuildingBlock: CIFDUS_clean_linker_0, # of connection points: 2
#     Edge 101, Type (0, 0), BuildingBlock: CIFDUS_clean_linker_0, # of connection points: 2
#     Edge 102, Type (0, 0), BuildingBlock: CIFDUS_clean_linker_0, # of connection points: 2
#     Edge 103, Type (0, 0), BuildingBlock: CIFDUS_clean_linker_0, # of connection points: 2
#     Edge 104, Type (0, 0), BuildingBlock: CIFDUS_clean_linker_0, # of connection points: 2
#     Edge 105, Type (0, 0), BuildingBlock: CIFDUS_clean_linker_0, # of connection points: 2
#     Edge 106, Type (0, 0), BuildingBlock: CIFDUS_clean_linker_0, # of connection points: 2
#     Edge 107, Type (0, 0), BuildingBlock: CIFDUS_clean_linker_0, # of connection points: 2
#     Edge 108, Type (0, 0), BuildingBlock: CIFDUS_clean_linker_0, # of connection points: 2
#     Edge 109, Type (0, 0), BuildingBlock: CIFDUS_clean_linker_0, # of connection points: 2
#     Edge 110, Type (0, 0), BuildingBlock: CIFDUS_clean_linker_0, # of connection points: 2
#     Edge 111, Type (0, 0), BuildingBlock: CIFDUS_clean_linker_0, # of connection points: 2
#     Edge 112, Type (0, 0), BuildingBlock: CIFDUS_clean_linker_0, # of connection points: 2
#     Edge 113, Type (0, 0), BuildingBlock: CIFDUS_clean_linker_0, # of connection points: 2
#     Edge 114, Type (0, 0), BuildingBlock: CIFDUS_clean_linker_0, # of connection points: 2
#     Edge 115, Type (0, 0), BuildingBlock: CIFDUS_clean_linker_0, # of connection points: 2
#     Edge 116, Type (0, 0), BuildingBlock: CIFDUS_clean_linker_0, # of connection points: 2
#     Edge 117, Type (0, 0), BuildingBlock: CIFDUS_clean_linker_0, # of connection points: 2
#     Edge 118, Type (0, 0), BuildingBlock: CIFDUS_clean_linker_0, # of connection points: 2
#     Edge 119, Type (0, 0), BuildingBlock: CIFDUS_clean_linker_0, # of connection points: 2
#     Edge 120, Type (0, 0), BuildingBlock: CIFDUS_clean_linker_0, # of connection points: 2
#     Edge 121, Type (0, 0), BuildingBlock: CIFDUS_clean_linker_0, # of connection points: 2
#     Edge 122, Type (0, 0), BuildingBlock: CIFDUS_clean_linker_0, # of connection points: 2
#     Edge 123, Type (0, 0), BuildingBlock: CIFDUS_clean_linker_0, # of connection points: 2
#     Edge 124, Type (0, 0), BuildingBlock: CIFDUS_clean_linker_0, # of connection points: 2
#     Edge 125, Type (0, 0), BuildingBlock: CIFDUS_clean_linker_0, # of connection points: 2
#     Edge 126, Type (0, 0), BuildingBlock: CIFDUS_clean_linker_0, # of connection points: 2
#     Edge 127, Type (0, 0), BuildingBlock: CIFDUS_clean_linker_0, # of connection points: 2
# Relax obj value: 0.204
# Max RMSD: 0.167
# Mean RMSD: 0.167
data_MOF--net-wir--node1-CIFDUS_clean_sbu_1--edge1-CIFDUS_clean_linker_0
_symmetry_space_group_name_H-M    P1
_symmetry_Int_Tables_number       1
_symmetry_cell_setting            triclinic
loop_
_symmetry_equiv_pos_as_xyz
'x, y, z'
_cell_length_a     35.43915
_cell_length_b     35.546495
_cell_length_c     69.714562
_cell_angle_alpha  89.973008
_cell_angle_beta   89.949963
_cell_angle_gamma 89.945396
loop_
_atom_site_label
_atom_site_type_symbol
_atom_site_fract_x
_atom_site_fract_y
_atom_site_fract_z
_atom_type_partial_charge
O0 O 0.19398 0.12622 0.28045 0.0
Mn1 Mn 0.18376 0.16068 0.3045 0.0
O2 O 0.19151 0.06738 0.29306 0.0
Mn3 Mn 0.17608 0.07718 0.31773 0.0
O4 O 0.16939 0.1871 0.33002 0.0
O5 O 0.21586 0.20338 0.29041 0.0
Mn6 Mn 0.19762 0.23472 0.30837 0.0
O7 O 0.13457 0.18479 0.29295 0.0
O8 O 0.21385 0.22692 0.33321 0.0
O9 O 0.23339 0.1391 0.31855 0.0
O10 O 0.21394 0.08777 0.33481 0.0
O11 O 0.22678 0.2655 0.29533 0.0
O12 O 0.14601 0.24248 0.30433 0.0
C13 C 0.12186 0.10357 0.32024 0.0
C14 C 0.19668 0.08992 0.27903 0.0
C15 C 0.18913 0.20708 0.34105 0.0
C16 C 0.23193 0.23556 0.28504 0.0
C17 C 0.12375 0.21884 0.29647 0.0
C18 C 0.23824 0.11324 0.33151 0.0
O19 O 0.15255 0.11985 0.31536 0.0
O20 O 0.12631 0.06848 0.32463 0.0
O21 O 0.10922 0.87607 0.54389 0.0
Mn22 Mn 0.1322 0.9253 0.55559 0.0
O23 O 0.05054 0.88722 0.55425 0.0
Mn24 Mn 0.05781 0.93856 0.55852 0.0
O25 O 0.15311 0.97567 0.5689 0.0
O26 O 0.17325 0.89467 0.56694 0.0
Mn27 Mn 0.21374 0.92086 0.57126 0.0
O28 O 0.16794 0.93544 0.53227 0.0
O29 O 0.19831 0.95609 0.58892 0.0
O30 O 0.10466 0.91046 0.58091 0.0
O31 O 0.0641 0.95455 0.58347 0.0
O32 O 0.22576 0.87156 0.5772 0.0
O33 O 0.22509 0.93872 0.54697 0.0
C34 C 0.05757 0.97302 0.53537 0.0
C35 C 0.07491 0.86521 0.54677 0.0
C36 C 0.17542 0.98127 0.58335 0.0
C37 C 0.19177 0.86497 0.57137 0.0
C38 C 0.20411 0.94086 0.53205 0.0
C39 C 0.08353 0.9299 0.59159 0.0
O40 O 0.08983 0.95721 0.54099 0.0
O41 O 0.02714 0.9674 0.54529 0.0
O42 O 0.40867 0.86071 0.79464 0.0
Mn43 Mn 0.35868 0.88461 0.80515 0.0
O44 O 0.3968 0.8034 0.80628 0.0
Mn45 Mn 0.34478 0.81107 0.80882 0.0
O46 O 0.30762 0.9064 0.81809 0.0
O47 O 0.38883 0.92648 0.81615 0.0
Mn48 Mn 0.36345 0.96827 0.81789 0.0
O49 O 0.35067 0.91794 0.78066 0.0
O50 O 0.32606 0.95716 0.835 0.0
O51 O 0.37052 0.85873 0.83142 0.0
O52 O 0.32485 0.81966 0.83284 0.0
O53 O 0.41254 0.97999 0.82441 0.0
O54 O 0.34805 0.97683 0.79305 0.0
C55 C 0.31294 0.809 0.78469 0.0
C56 C 0.41936 0.82682 0.79848 0.0
C57 C 0.30198 0.93185 0.83122 0.0
C58 C 0.41878 0.94512 0.82015 0.0
C59 C 0.34618 0.95393 0.77897 0.0
C60 C 0.34765 0.84015 0.84162 0.0
O61 O 0.32782 0.84166 0.79025 0.0
O62 O 0.31781 0.77936 0.79523 0.0
O63 O 0.42588 0.17019 0.04459 0.0
Mn64 Mn 0.40989 0.11479 0.05461 0.0
O65 O 0.47344 0.16134 0.02516 0.0
Mn66 Mn 0.48307 0.12473 0.04254 0.0
O67 O 0.39228 0.06185 0.06717 0.0
O68 O 0.36932 0.14157 0.06868 0.0
Mn69 Mn 0.32794 0.11595 0.07129 0.0
O70 O 0.37211 0.10755 0.03168 0.0
O71 O 0.34286 0.07658 0.08629 0.0
O72 O 0.44218 0.12229 0.07905 0.0
O73 O 0.49427 0.14436 0.06632 0.0
O74 O 0.31712 0.16404 0.07975 0.0
O75 O 0.3151 0.10404 0.04642 0.0
C76 C 0.48565 0.07294 0.03186 0.0
C77 C 0.45021 0.18358 0.0326 0.0
C78 C 0.36845 0.0539 0.08086 0.0
C79 C 0.35115 0.17093 0.07402 0.0
C80 C 0.3358 0.10341 0.03142 0.0
C81 C 0.47325 0.13967 0.08065 0.0
O82 O 0.45238 0.08509 0.03862 0.0
O83 O 0.51634 0.09169 0.03523 0.0
O84 O 0.13395 0.86053 0.17615 0.0
Mn85 Mn 0.18266 0.88422 0.16385 0.0
O86 O 0.14451 0.80247 0.16467 0.0
Mn87 Mn 0.19574 0.8093 0.15937 0.0
O88 O 0.23221 0.90427 0.14899 0.0
O89 O 0.15179 0.92651 0.1539 0.0
Mn90 Mn 0.178 0.96737 0.1505 0.0
O91 O 0.19521 0.91805 0.18775 0.0
O92 O 0.2127 0.95457 0.13212 0.0
O93 O 0.16528 0.85855 0.13862 0.0
O94 O 0.2092 0.81832 0.13415 0.0
O95 O 0.12836 0.97997 0.14539 0.0
O96 O 0.19704 0.97646 0.17463 0.0
C97 C 0.23137 0.8087 0.18234 0.0
C98 C 0.12294 0.82637 0.17291 0.0
C99 C 0.23673 0.92885 0.13537 0.0
C100 C 0.12186 0.94544 0.15023 0.0
C101 C 0.2004 0.9541 0.18888 0.0
C102 C 0.18365 0.83831 0.12706 0.0
O103 O 0.21451 0.84052 0.1771 0.0
O104 O 0.22652 0.77889 0.17193 0.0
O105 O 0.43496 0.88217 0.42861 0.0
Mn106 Mn 0.41125 0.93083 0.41669 0.0
O107 O 0.49316 0.89293 0.41723 0.0
Mn108 Mn 0.48618 0.9442 0.41248 0.0
O109 O 0.39067 0.9805 0.40228 0.0
O110 O 0.36881 0.89999 0.40661 0.0
Mn111 Mn 0.32747 0.92618 0.40415 0.0
O112 O 0.37787 0.94241 0.44091 0.0
O113 O 0.33884 0.96205 0.38623 0.0
O114 O 0.43731 0.91457 0.39117 0.0
O115 O 0.47729 0.95896 0.3875 0.0
O116 O 0.31483 0.87726 0.39809 0.0
O117 O 0.31867 0.94351 0.42862 0.0
C118 C 0.48674 0.97908 0.43565 0.0
C119 C 0.46916 0.87126 0.4253 0.0
C120 C 0.36501 0.98564 0.38924 0.0
C121 C 0.3497 0.87047 0.40238 0.0
C122 C 0.34176 0.94709 0.44256 0.0
C123 C 0.45763 0.93376 0.37996 0.0
O124 O 0.45478 0.96253 0.43029 0.0
O125 O 0.51675 0.97422 0.4253 0.0
O126 O 0.41187 0.18617 0.67366 0.0
Mn127 Mn 0.36265 0.16002 0.66395 0.0
O128 O 0.39666 0.24249 0.66178 0.0
Mn129 Mn 0.34489 0.23228 0.66026 0.0
O130 O 0.31171 0.13593 0.65263 0.0
O131 O 0.39412 0.12007 0.65217 0.0
Mn132 Mn 0.36896 0.07869 0.6488 0.0
O133 O 0.35747 0.1253 0.6879 0.0
O134 O 0.33189 0.09262 0.63179 0.0
O135 O 0.37137 0.18612 0.63755 0.0
O136 O 0.32329 0.22213 0.63676 0.0
O137 O 0.41841 0.06798 0.64228 0.0
O138 O 0.35327 0.06797 0.67361 0.0
C139 C 0.31488 0.23346 0.68501 0.0
C140 C 0.42066 0.22043 0.66953 0.0
C141 C 0.30602 0.11404 0.63805 0.0
C142 C 0.42433 0.10218 0.64784 0.0
C143 C 0.3526 0.08921 0.68846 0.0
C144 C 0.3462 0.20216 0.6277 0.0
O145 O 0.33083 0.20138 0.67937 0.0
O146 O 0.31752 0.26306 0.67424 0.0
O147 O 0.10223 0.16371 0.9275 0.0
Mn148 Mn 0.12971 0.1162 0.91598 0.0
O149 O 0.04545 0.15145 0.91434 0.0
Mn150 Mn 0.05358 0.1006 0.9089 0.0
O151 O 0.1524 0.06735 0.9017 0.0
O152 O 0.17313 0.1478 0.90797 0.0
Mn153 Mn 0.21414 0.12113 0.90534 0.0
O154 O 0.16031 0.1038 0.94101 0.0
O155 O 0.20357 0.08796 0.88597 0.0
O156 O 0.10695 0.13313 0.89 0.0
O157 O 0.0676 0.08874 0.88407 0.0
O158 O 0.22809 0.1706 0.90143 0.0
O159 O 0.22006 0.10034 0.92936 0.0
C160 C 0.05478 0.06473 0.93222 0.0
C161 C 0.06788 0.17355 0.92328 0.0
C162 C 0.17785 0.06366 0.88844 0.0
C163 C 0.19303 0.17746 0.9053 0.0
C164 C 0.19614 0.09747 0.94302 0.0
C165 C 0.08838 0.11457 0.8778 0.0
O166 O 0.08498 0.08397 0.92696 0.0
O167 O 0.02508 0.06724 0.92146 0.0
O168 O 0.91085 0.84833 0.67472 0.0
Mn169 Mn 0.86147 0.87431 0.6648 0.0
O170 O 0.89981 0.79014 0.66327 0.0
Mn171 Mn 0.84806 0.79604 0.65882 0.0
O172 O 0.811 0.89761 0.65232 0.0
O173 O 0.89158 0.91875 0.6566 0.0
Mn174 Mn 0.86522 0.9602 0.65702 0.0
O175 O 0.85191 0.90158 0.69089 0.0
O176 O 0.82883 0.95247 0.63893 0.0
O177 O 0.87387 0.85296 0.63762 0.0
O178 O 0.83217 0.80882 0.63454 0.0
O179 O 0.91423 0.97422 0.65156 0.0
O180 O 0.84833 0.96275 0.68195 0.0
C181 C 0.81288 0.79901 0.68256 0.0
C182 C 0.92161 0.81423 0.67123 0.0
C183 C 0.80551 0.92562 0.64067 0.0
C184 C 0.92117 0.93872 0.65366 0.0
C185 C 0.84609 0.93669 0.69453 0.0
C186 C 0.85294 0.8332 0.62687 0.0
O187 O 0.83138 0.82869 0.67615 0.0
O188 O 0.8162 0.76819 0.67279 0.0
O189 O 0.93897 0.1586 0.42449 0.0
Mn190 Mn 0.91448 0.10914 0.4139 0.0
O191 O 0.99624 0.14517 0.41321 0.0
Mn192 Mn 0.98705 0.09333 0.4113 0.0
O193 O 0.892 0.05899 0.40102 0.0
O194 O 0.87549 0.14025 0.40142 0.0
Mn195 Mn 0.83217 0.11834 0.39856 0.0
O196 O 0.87787 0.10294 0.43746 0.0
O197 O 0.84374 0.07913 0.38257 0.0
O198 O 0.94231 0.11883 0.38813 0.0
O199 O 0.97952 0.07185 0.3875 0.0
O200 O 0.82587 0.16779 0.39065 0.0
O201 O 0.8201 0.10538 0.42335 0.0
C202 C 0.98806 0.0624 0.43562 0.0
C203 C 0.97318 0.16849 0.42072 0.0
C204 C 0.86782 0.05424 0.38723 0.0
C205 C 0.86074 0.1711 0.39581 0.0
C206 C 0.84129 0.10158 0.43805 0.0
C207 C 0.95914 0.09417 0.37834 0.0
O208 O 0.95542 0.07719 0.42979 0.0
O209 O 1.01825 0.067 0.4254 0.0
O210 O 0.63222 0.18401 0.17481 0.0
Mn211 Mn 0.6818 0.15916 0.16444 0.0
O212 O 0.64511 0.24121 0.16337 0.0
Mn213 Mn 0.69693 0.23237 0.16078 0.0
O214 O 0.73267 0.13601 0.15245 0.0
O215 O 0.65054 0.11826 0.15321 0.0
Mn216 Mn 0.67605 0.07699 0.15006 0.0
O217 O 0.68878 0.12478 0.18854 0.0
O218 O 0.71279 0.0905 0.13275 0.0
O219 O 0.67116 0.18517 0.13813 0.0
O220 O 0.71691 0.22408 0.13674 0.0
O221 O 0.62677 0.06585 0.1434 0.0
O222 O 0.69219 0.06696 0.17475 0.0
C223 C 0.72901 0.23395 0.18476 0.0
C224 C 0.62219 0.21814 0.17116 0.0
C225 C 0.73822 0.11317 0.13822 0.0
C226 C 0.62063 0.10038 0.14834 0.0
C227 C 0.69355 0.08866 0.18938 0.0
C228 C 0.69426 0.20344 0.12796 0.0
O229 O 0.71364 0.20142 0.17932 0.0
O230 O 0.72429 0.2637 0.17429 0.0
O231 O 0.6107 0.88101 0.92667 0.0
Mn232 Mn 0.63359 0.92934 0.91471 0.0
O233 O 0.55313 0.89251 0.9155 0.0
Mn234 Mn 0.56173 0.94399 0.91218 0.0
O235 O 0.65609 0.9786 0.90107 0.0
O236 O 0.67225 0.89704 0.90253 0.0
Mn237 Mn 0.71551 0.91898 0.8992 0.0
O238 O 0.67031 0.9376 0.93781 0.0
O239 O 0.70379 0.95757 0.88259 0.0
O240 O 0.60483 0.91629 0.88955 0.0
O241 O 0.5666 0.96209 0.88747 0.0
O242 O 0.72154 0.86918 0.89164 0.0
O243 O 0.72811 0.93315 0.92391 0.0
C244 C 0.55917 0.9755 0.93608 0.0
C245 C 0.57678 0.87031 0.92333 0.0
C246 C 0.68039 0.98311 0.8873 0.0
C247 C 0.68666 0.86599 0.89681 0.0
C248 C 0.7068 0.93877 0.93847 0.0
C249 C 0.5845 0.93678 0.87903 0.0
O250 O 0.59272 0.96223 0.93045 0.0
O251 O 0.52951 0.97014 0.92558 0.0
O252 O 0.91897 0.17364 0.78959 0.0
Mn253 Mn 0.86683 0.15126 0.80028 0.0
O254 O 0.90531 0.23438 0.7874 0.0
Mn255 Mn 0.85541 0.22729 0.78063 0.0
O256 O 0.81626 0.12879 0.81299 0.0
O257 O 0.89775 0.11892 0.81712 0.0
Mn258 Mn 0.87697 0.07552 0.82215 0.0
O259 O 0.86596 0.1087 0.78032 0.0
O260 O 0.83603 0.09023 0.83652 0.0
O261 O 0.86659 0.19218 0.82061 0.0
O262 O 0.84144 0.24243 0.80561 0.0
O263 O 0.92664 0.07233 0.83023 0.0
O264 O 0.86557 0.05545 0.79815 0.0
C265 C 0.84211 0.20878 0.77018 0.0
C266 C 0.92941 0.20841 0.78859 0.0
C267 C 0.81013 0.10937 0.82849 0.0
C268 C 0.92935 0.10532 0.82254 0.0
C269 C 0.86322 0.07282 0.78212 0.0
C270 C 0.85291 0.22532 0.82071 0.0
O271 O 0.83269 0.18306 0.78302 0.0
O272 O 0.86966 0.20157 0.75856 0.0
O273 O 0.61147 0.15974 0.54378 0.0
Mn274 Mn 0.63543 0.11058 0.55509 0.0
O275 O 0.55313 0.14884 0.55503 0.0
Mn276 Mn 0.55999 0.09753 0.55966 0.0
O277 O 0.65616 0.06087 0.56877 0.0
O278 O 0.67812 0.14051 0.56564 0.0
Mn279 Mn 0.72118 0.11667 0.56486 0.0
O280 O 0.66759 0.09965 0.53009 0.0
O281 O 0.71445 0.07447 0.57977 0.0
O282 O 0.61032 0.12615 0.58089 0.0
O283 O 0.56937 0.08261 0.5846 0.0
O284 O 0.73103 0.16244 0.57624 0.0
O285 O 0.72836 0.10796 0.53938 0.0
C286 C 0.55941 0.06292 0.5363 0.0
C287 C 0.57722 0.17058 0.54708 0.0
C288 C 0.68588 0.05295 0.5788 0.0
C289 C 0.69506 0.16742 0.57437 0.0
C290 C 0.70361 0.09995 0.5268 0.0
C291 C 0.58974 0.10729 0.59211 0.0
O292 O 0.59129 0.07955 0.5417 0.0
O293 O 0.5295 0.06746 0.54676 0.0
O294 O 0.6322 0.85904 0.29457 0.0
Mn295 Mn 0.68155 0.88307 0.30543 0.0
O296 O 0.64419 0.80176 0.30631 0.0
Mn297 Mn 0.69612 0.8094 0.30918 0.0
O298 O 0.73204 0.90449 0.31861 0.0
O299 O 0.65073 0.92461 0.31633 0.0
Mn300 Mn 0.6761 0.96627 0.31866 0.0
O301 O 0.69019 0.91682 0.28115 0.0
O302 O 0.71275 0.95418 0.33606 0.0
O303 O 0.66943 0.85711 0.33163 0.0
O304 O 0.7156 0.81851 0.33322 0.0
O305 O 0.62676 0.97774 0.325 0.0
O306 O 0.69243 0.97539 0.29398 0.0
C307 C 0.72862 0.80811 0.28524 0.0
C308 C 0.62174 0.82508 0.29831 0.0
C309 C 0.73692 0.9289 0.33223 0.0
C310 C 0.62067 0.94297 0.32051 0.0
C311 C 0.69481 0.95285 0.27976 0.0
C312 C 0.69294 0.83946 0.34187 0.0
O313 O 0.71301 0.84039 0.29081 0.0
O314 O 0.72391 0.7782 0.2956 0.0
O315 O 0.94132 0.88249 0.0419 0.0
Mn316 Mn 0.91474 0.93017 0.05311 0.0
O317 O 0.9989 0.89648 0.0532 0.0
Mn318 Mn 0.98933 0.94742 0.05752 0.0
O319 O 0.89112 0.97971 0.06608 0.0
O320 O 0.87388 0.89747 0.06338 0.0
Mn321 Mn 0.8327 0.92334 0.06698 0.0
O322 O 0.88092 0.939 0.029 0.0
O323 O 0.84529 0.95851 0.08519 0.0
O324 O 0.9408 0.9164 0.07889 0.0
O325 O 0.97946 0.96205 0.08244 0.0
O326 O 0.82068 0.8742 0.07285 0.0
O327 O 0.82268 0.94129 0.04255 0.0
C328 C 0.98769 0.98154 0.03395 0.0
C329 C 0.97601 0.87345 0.04532 0.0
C330 C 0.86801 0.98429 0.08029 0.0
C331 C 0.8552 0.86774 0.06777 0.0
C332 C 0.84474 0.94379 0.02804 0.0
C333 C 0.96036 0.93642 0.09002 0.0
O334 O 0.95692 0.96325 0.03954 0.0
O335 O 1.01793 0.97888 0.04432 0.0
O336 O 0.68906 0.63973 0.77517 0.0
Mn337 Mn 0.68199 0.66395 0.80244 0.0
O338 O 0.69517 0.57754 0.78153 0.0
Mn339 Mn 0.68177 0.57711 0.80706 0.0
O340 O 0.67132 0.6829 0.83041 0.0
O341 O 0.71055 0.71106 0.79193 0.0
Mn342 Mn 0.69434 0.74307 0.80957 0.0
O343 O 0.63119 0.69006 0.79414 0.0
O344 O 0.71097 0.72927 0.83353 0.0
O345 O 0.73373 0.64097 0.81382 0.0
O346 O 0.71964 0.58289 0.82454 0.0
O347 O 0.72547 0.77145 0.79531 0.0
O348 O 0.64243 0.74818 0.80576 0.0
C349 C 0.6255 0.59588 0.81285 0.0
C350 C 0.69363 0.60523 0.7699 0.0
C351 C 0.6913 0.70386 0.84112 0.0
C352 C 0.72856 0.74084 0.78533 0.0
C353 C 0.62034 0.72401 0.79809 0.0
C354 C 0.74102 0.61146 0.82422 0.0
O355 O 0.6539 0.61755 0.80984 0.0
O356 O 0.63409 0.56051 0.81346 0.0
O357 O 0.5953 0.38652 0.04616 0.0
Mn358 Mn 0.62379 0.43361 0.05688 0.0
O359 O 0.53767 0.40109 0.05746 0.0
Mn360 Mn 0.54744 0.45205 0.06208 0.0
O361 O 0.65002 0.48248 0.06925 0.0
O362 O 0.66432 0.4002 0.06655 0.0
Mn363 Mn 0.70748 0.42318 0.0684 0.0
O364 O 0.65546 0.4412 0.03193 0.0
O365 O 0.69882 0.46029 0.08627 0.0
O366 O 0.59923 0.42157 0.08312 0.0
O367 O 0.55876 0.46604 0.08691 0.0
O368 O 0.71628 0.37336 0.0748 0.0
O369 O 0.71534 0.43938 0.0435 0.0
C370 C 0.55186 0.48649 0.03834 0.0
C371 C 0.56043 0.3779 0.04947 0.0
C372 C 0.67574 0.48649 0.08233 0.0
C373 C 0.68074 0.36937 0.07113 0.0
C374 C 0.69162 0.44391 0.02984 0.0
C375 C 0.57942 0.44133 0.09431 0.0
O376 O 0.58106 0.46665 0.04447 0.0
O377 O 0.52117 0.48538 0.04845 0.0
O378 O 0.91299 0.35697 0.29512 0.0
Mn379 Mn 0.86344 0.38175 0.30555 0.0
O380 O 0.89964 0.2999 0.30632 0.0
Mn381 Mn 0.84771 0.30959 0.30837 0.0
O382 O 0.81291 0.40564 0.31762 0.0
O383 O 0.895 0.42027 0.31805 0.0
Mn384 Mn 0.87252 0.46306 0.32141 0.0
O385 O 0.85796 0.418 0.28206 0.0
O386 O 0.83346 0.45069 0.33761 0.0
O387 O 0.8729 0.35451 0.33142 0.0
O388 O 0.82645 0.3168 0.33229 0.0
O389 O 0.92212 0.46953 0.3293 0.0
O390 O 0.85907 0.47531 0.29657 0.0
C391 C 0.81647 0.30811 0.28413 0.0
C392 C 0.92296 0.32287 0.29879 0.0
C393 C 0.8076 0.42879 0.33178 0.0
C394 C 0.92578 0.43492 0.32391 0.0
C395 C 0.85584 0.45442 0.28171 0.0
C396 C 0.84894 0.33709 0.34136 0.0
O397 O 0.8312 0.34085 0.28976 0.0
O398 O 0.82125 0.27827 0.29452 0.0
O399 O 0.9385 0.65466 0.54468 0.0
Mn400 Mn 0.9142 0.60639 0.55666 0.0
O401 O 0.99655 0.64282 0.55551 0.0
Mn402 Mn 0.98785 0.5916 0.55977 0.0
O403 O 0.89143 0.55741 0.57071 0.0
O404 O 0.87471 0.63859 0.56801 0.0
Mn405 Mn 0.83154 0.61631 0.57119 0.0
O406 O 0.87844 0.59765 0.5331 0.0
O407 O 0.84297 0.57883 0.58853 0.0
O408 O 0.94186 0.62018 0.5819 0.0
O409 O 0.9816 0.5756 0.58477 0.0
O410 O 0.82473 0.66655 0.57789 0.0
O411 O 0.8201 0.60092 0.54651 0.0
C412 C 0.98816 0.5573 0.53659 0.0
C413 C 0.97282 0.66508 0.54772 0.0
C414 C 0.86703 0.55344 0.58451 0.0
C415 C 0.85976 0.6698 0.57298 0.0
C416 C 0.84195 0.59596 0.5321 0.0
C417 C 0.96225 0.60046 0.59275 0.0
O418 O 0.95582 0.57325 0.54206 0.0
O419 O 1.0184 0.56251 0.54669 0.0
O420 O 0.62662 0.36618 0.67955 0.0
Mn421 Mn 0.68129 0.38535 0.67116 0.0
O422 O 0.6386 0.30857 0.68957 0.0
Mn423 Mn 0.68702 0.31889 0.69783 0.0
O424 O 0.73488 0.40607 0.66019 0.0
O425 O 0.65598 0.40946 0.64912 0.0
Mn426 Mn 0.67603 0.45281 0.64274 0.0
O427 O 0.6737 0.43406 0.68657 0.0
O428 O 0.72041 0.43589 0.63261 0.0
O429 O 0.6884 0.33593 0.65578 0.0
O430 O 0.71011 0.29365 0.67716 0.0
O431 O 0.62856 0.45173 0.63187 0.0
O432 O 0.67992 0.48139 0.66528 0.0
C433 C 0.70052 0.3372 0.7073 0.0
C434 C 0.61557 0.33261 0.68351 0.0
C435 C 0.74456 0.42126 0.64382 0.0
C436 C 0.62504 0.42133 0.64191 0.0
C437 C 0.67567 0.4691 0.68237 0.0
C438 C 0.70125 0.3031 0.66001 0.0
O439 O 0.70976 0.36256 0.69401 0.0
O440 O 0.67436 0.34513 0.71973 0.0
O441 O 0.92537 0.38311 0.92995 0.0
Mn442 Mn 0.90519 0.43559 0.91818 0.0
O443 O 0.98531 0.39368 0.93769 0.0
Mn444 Mn 0.97894 0.44463 0.94097 0.0
O445 O 0.88534 0.48472 0.9033 0.0
O446 O 0.87106 0.40437 0.90252 0.0
Mn447 Mn 0.82521 0.42267 0.90065 0.0
O448 O 0.86306 0.44052 0.93907 0.0
O449 O 0.83154 0.46776 0.8881 0.0
O450 O 0.94727 0.43023 0.89845 0.0
O451 O 0.99802 0.44852 0.9157 0.0
O452 O 0.82507 0.37758 0.88754 0.0
O453 O 0.8075 0.42576 0.92536 0.0
C454 C 0.95804 0.46033 0.94939 0.0
C455 C 0.95907 0.37108 0.93381 0.0
C456 C 0.85772 0.49134 0.8915 0.0
C457 C 0.86015 0.37619 0.89266 0.0
C458 C 0.82715 0.43523 0.93984 0.0
C459 C 0.98258 0.43658 0.90021 0.0
O460 O 0.93831 0.47049 0.93426 0.0
O461 O 0.94402 0.43464 0.96039 0.0
O462 O 0.91317 0.68753 0.17686 0.0
Mn463 Mn 0.86407 0.66205 0.16616 0.0
O464 O 0.90075 0.74547 0.16588 0.0
Mn465 Mn 0.84939 0.73708 0.16167 0.0
O466 O 0.81408 0.63827 0.15369 0.0
O467 O 0.89549 0.62085 0.15582 0.0
Mn468 Mn 0.87262 0.57785 0.15414 0.0
O469 O 0.85549 0.62915 0.19087 0.0
O470 O 0.83348 0.58718 0.1374 0.0
O471 O 0.87744 0.68728 0.14007 0.0
O472 O 0.834 0.72862 0.13677 0.0
O473 O 0.9218 0.56998 0.14586 0.0
O474 O 0.85885 0.56951 0.1792 0.0
C475 C 0.81469 0.73681 0.18499 0.0
C476 C 0.92336 0.72182 0.17351 0.0
C477 C 0.80855 0.61183 0.14117 0.0
C478 C 0.92555 0.60544 0.14944 0.0
C479 C 0.85346 0.59292 0.19285 0.0
C480 C 0.85842 0.70816 0.12906 0.0
O481 O 0.83189 0.70526 0.17959 0.0
O482 O 0.81899 0.76688 0.17469 0.0
O483 O 0.60751 0.66198 0.42854 0.0
Mn484 Mn 0.63252 0.61345 0.41721 0.0
O485 O 0.54935 0.64929 0.41805 0.0
Mn486 Mn 0.55836 0.59808 0.41406 0.0
O487 O 0.65609 0.56401 0.40418 0.0
O488 O 0.67194 0.64568 0.40571 0.0
Mn489 Mn 0.7151 0.62312 0.40288 0.0
O490 O 0.66792 0.60547 0.44104 0.0
O491 O 0.70432 0.58464 0.38607 0.0
O492 O 0.60508 0.62598 0.39166 0.0
O493 O 0.56465 0.58185 0.38914 0.0
O494 O 0.72216 0.67272 0.39534 0.0
O495 O 0.72636 0.60879 0.42773 0.0
C496 C 0.5591 0.56404 0.43739 0.0
C497 C 0.57304 0.67199 0.4255 0.0
C498 C 0.68085 0.55916 0.39067 0.0
C499 C 0.68707 0.67642 0.40008 0.0
C500 C 0.70441 0.60371 0.44209 0.0
C501 C 0.58415 0.60639 0.381 0.0
O502 O 0.59094 0.5806 0.43174 0.0
O503 O 0.52859 0.56863 0.42742 0.0
O504 O 0.41356 0.35962 0.17671 0.0
Mn505 Mn 0.36412 0.38402 0.1656 0.0
O506 O 0.40145 0.30198 0.16527 0.0
Mn507 Mn 0.34997 0.30984 0.16118 0.0
O508 O 0.31372 0.40586 0.15215 0.0
O509 O 0.39375 0.42607 0.15434 0.0
Mn510 Mn 0.36571 0.46659 0.15284 0.0
O511 O 0.35429 0.41655 0.18999 0.0
O512 O 0.33437 0.45249 0.13321 0.0
O513 O 0.37891 0.35849 0.13983 0.0
O514 O 0.33403 0.31913 0.13642 0.0
O515 O 0.4152 0.48266 0.15352 0.0
O516 O 0.34144 0.47237 0.17618 0.0
C517 C 0.31616 0.30877 0.18474 0.0
C518 C 0.42387 0.32536 0.17323 0.0
C519 C 0.30926 0.42846 0.13762 0.0
C520 C 0.42225 0.44764 0.15707 0.0
C521 C 0.34388 0.45126 0.19091 0.0
C522 C 0.35923 0.3386 0.12872 0.0
O523 O 0.33264 0.34075 0.17946 0.0
O524 O 0.32035 0.27913 0.17412 0.0
O525 O 0.44446 0.65902 0.92444 0.0
Mn526 Mn 0.41886 0.61039 0.91427 0.0
O527 O 0.50361 0.64671 0.91472 0.0
Mn528 Mn 0.49642 0.59531 0.91043 0.0
O529 O 0.39421 0.56032 0.90246 0.0
O530 O 0.37749 0.64198 0.9039 0.0
Mn531 Mn 0.33432 0.61883 0.90336 0.0
O532 O 0.38792 0.60332 0.9394 0.0
O533 O 0.34263 0.57987 0.88654 0.0
O534 O 0.44385 0.62179 0.88794 0.0
O535 O 0.48767 0.58003 0.88559 0.0
O536 O 0.32512 0.66781 0.89549 0.0
O537 O 0.32749 0.60557 0.92878 0.0
C538 C 0.49217 0.56089 0.93406 0.0
C539 C 0.47892 0.66914 0.9217 0.0
C540 C 0.36732 0.55491 0.89013 0.0
C541 C 0.36083 0.67221 0.89854 0.0
C542 C 0.35198 0.60132 0.9421 0.0
C543 C 0.46617 0.6031 0.8775 0.0
O544 O 0.46235 0.57929 0.92746 0.0
O545 O 0.52349 0.56367 0.92455 0.0
O546 O 0.13416 0.67949 0.67778 0.0
Mn547 Mn 0.18338 0.65654 0.66581 0.0
O548 O 0.14402 0.73735 0.66599 0.0
Mn549 Mn 0.19553 0.73109 0.66123 0.0
O550 O 0.23334 0.63666 0.65139 0.0
O551 O 0.15351 0.61359 0.65593 0.0
Mn552 Mn 0.18018 0.57296 0.65283 0.0
O553 O 0.19585 0.62339 0.68984 0.0
O554 O 0.21442 0.58631 0.63441 0.0
O555 O 0.16634 0.68182 0.64031 0.0
O556 O 0.21043 0.72192 0.63627 0.0
O557 O 0.1306 0.55956 0.64816 0.0
O558 O 0.19977 0.56489 0.67695 0.0
C559 C 0.23043 0.733 0.68437 0.0
C560 C 0.12267 0.71335 0.67427 0.0
C561 C 0.23819 0.61215 0.6378 0.0
C562 C 0.12376 0.59413 0.65279 0.0
C563 C 0.20231 0.5876 0.6911 0.0
C564 C 0.18535 0.70183 0.6289 0.0
O565 O 0.2145 0.70064 0.67925 0.0
O566 O 0.22501 0.76253 0.67381 0.0
O567 O 0.11339 0.37819 0.42476 0.0
Mn568 Mn 0.13706 0.42879 0.41486 0.0
O569 O 0.05588 0.39093 0.41348 0.0
Mn570 Mn 0.06376 0.44291 0.41171 0.0
O571 O 0.15861 0.48059 0.40315 0.0
O572 O 0.17829 0.39959 0.40279 0.0
Mn573 Mn 0.21876 0.42606 0.39914 0.0
O574 O 0.1724 0.4356 0.43856 0.0
O575 O 0.20271 0.46222 0.38217 0.0
O576 O 0.11063 0.41847 0.38873 0.0
O577 O 0.07196 0.46436 0.38796 0.0
O578 O 0.23116 0.377 0.39279 0.0
O579 O 0.22932 0.44225 0.42383 0.0
C580 C 0.06161 0.47333 0.43625 0.0
C581 C 0.07931 0.36786 0.42091 0.0
C582 C 0.1801 0.48705 0.38842 0.0
C583 C 0.19716 0.37007 0.39852 0.0
C584 C 0.20844 0.44179 0.43884 0.0
C585 C 0.09273 0.44225 0.37886 0.0
O586 O 0.09447 0.4589 0.43051 0.0
O587 O 0.03185 0.46885 0.42572 0.0
O588 O 0.4124 0.68612 0.29227 0.0
Mn589 Mn 0.36315 0.66233 0.30361 0.0
O590 O 0.40001 0.7442 0.3029 0.0
Mn591 Mn 0.34851 0.73613 0.30677 0.0
O592 O 0.3126 0.6407 0.31676 0.0
O593 O 0.39436 0.62151 0.31487 0.0
Mn594 Mn 0.36817 0.58099 0.319 0.0
O595 O 0.354 0.62695 0.28009 0.0
O596 O 0.3328 0.59579 0.33673 0.0
O597 O 0.37714 0.6896 0.32909 0.0
O598 O 0.33211 0.72915 0.33166 0.0
O599 O 0.41743 0.56896 0.3251 0.0
O600 O 0.35056 0.56987 0.29466 0.0
C601 C 0.31502 0.73651 0.28317 0.0
C602 C 0.42266 0.7204 0.29544 0.0
C603 C 0.30733 0.61845 0.33128 0.0
C604 C 0.42407 0.60298 0.31945 0.0
C605 C 0.3488 0.59087 0.27976 0.0
C606 C 0.35713 0.71016 0.3398 0.0
O607 O 0.33108 0.70443 0.28881 0.0
O608 O 0.31952 0.76656 0.29343 0.0
O609 O 0.11819 0.66518 0.0394 0.0
Mn610 Mn 0.13865 0.61259 0.05046 0.0
O611 O 0.05872 0.65339 0.0314 0.0
Mn612 Mn 0.06652 0.60316 0.02653 0.0
O613 O 0.1598 0.56199 0.06376 0.0
O614 O 0.17077 0.64316 0.06768 0.0
Mn615 Mn 0.21466 0.62232 0.07233 0.0
O616 O 0.18207 0.61093 0.03106 0.0
O617 O 0.20079 0.58098 0.08645 0.0
O618 O 0.09481 0.6143 0.06943 0.0
O619 O 0.04614 0.59429 0.05116 0.0
O620 O 0.21759 0.67123 0.08116 0.0
O621 O 0.23583 0.61219 0.04831 0.0
C622 C 0.08772 0.58873 0.01784 0.0
C623 C 0.08429 0.67643 0.03568 0.0
C624 C 0.1805 0.55558 0.07882 0.0
C625 C 0.18448 0.6744 0.07353 0.0
C626 C 0.21807 0.60924 0.03243 0.0
C627 C 0.06006 0.60571 0.06712 0.0
O628 O 0.10804 0.57836 0.03277 0.0
O629 O 0.10065 0.6154 0.0071 0.0
O630 O 0.13592 0.35193 0.7936 0.0
Mn631 Mn 0.18349 0.37866 0.80502 0.0
O632 O 0.14977 0.29476 0.80523 0.0
Mn633 Mn 0.20073 0.30486 0.80975 0.0
O634 O 0.2323 0.40307 0.81815 0.0
O635 O 0.15035 0.41839 0.81545 0.0
Mn636 Mn 0.1726 0.4613 0.81876 0.0
O637 O 0.19244 0.41323 0.78095 0.0
O638 O 0.21046 0.45073 0.8361 0.0
O639 O 0.16953 0.3526 0.83067 0.0
O640 O 0.21515 0.31419 0.83477 0.0
O641 O 0.12255 0.46807 0.82589 0.0
O642 O 0.1884 0.47159 0.7942 0.0
C643 C 0.23533 0.30555 0.78643 0.0
C644 C 0.12679 0.31738 0.79708 0.0
C645 C 0.23656 0.42781 0.83161 0.0
C646 C 0.11945 0.43302 0.82124 0.0
C647 C 0.19419 0.44968 0.77995 0.0
C648 C 0.18942 0.33356 0.84209 0.0
O649 O 0.21723 0.33673 0.79159 0.0
O650 O 0.23226 0.27573 0.79703 0.0
O651 O 0.43914 0.38036 0.54365 0.0
Mn652 Mn 0.41363 0.42855 0.55522 0.0
O653 O 0.49705 0.39153 0.55539 0.0
Mn654 Mn 0.48952 0.44256 0.56063 0.0
O655 O 0.39126 0.47762 0.5691 0.0
O656 O 0.37141 0.39678 0.56465 0.0
Mn657 Mn 0.32912 0.42147 0.56657 0.0
O658 O 0.38162 0.43959 0.53046 0.0
O659 O 0.33886 0.45815 0.58441 0.0
O660 O 0.43796 0.41337 0.58109 0.0
O661 O 0.47957 0.45599 0.58572 0.0
O662 O 0.31831 0.37199 0.57279 0.0
O663 O 0.32164 0.43821 0.54191 0.0
C664 C 0.48901 0.4785 0.53773 0.0
C665 C 0.47342 0.3698 0.54708 0.0
C666 C 0.36479 0.48225 0.58173 0.0
C667 C 0.35368 0.36656 0.5691 0.0
C668 C 0.34545 0.44311 0.52837 0.0
C669 C 0.45859 0.43116 0.59269 0.0
O670 O 0.45776 0.46064 0.54293 0.0
O671 O 0.5191 0.47418 0.54807 0.0
H672 H 0.21882 0.21236 0.37653 0.0
H673 H 0.11979 0.23808 0.34324 0.0
H674 H 0.10428 0.28991 0.3646 0.0
H675 H 0.13331 0.33963 0.38427 0.0
H676 H 0.23333 0.31448 0.41685 0.0
H677 H 0.23304 0.24998 0.40515 0.0
C678 C 0.19275 0.22801 0.3747 0.0
C679 C 0.17119 0.2226 0.35819 0.0
C680 C 0.18454 0.25837 0.38677 0.0
C681 C 0.13707 0.24231 0.35587 0.0
C682 C 0.12838 0.27228 0.36796 0.0
C683 C 0.15354 0.31928 0.38966 0.0
C684 C 0.1841 0.33149 0.40068 0.0
C685 C 0.15398 0.28263 0.38227 0.0
C686 C 0.21004 0.30529 0.40794 0.0
C687 C 0.21013 0.26857 0.4011 0.0
H688 H 0.07949 0.95735 0.62758 0.0
H689 H 0.04846 0.86271 0.59249 0.0
H690 H 0.99588 0.8483 0.61386 0.0
H691 H 0.94856 0.8768 0.63551 0.0
H692 H 0.98057 0.97124 0.67058 0.0
H693 H 0.04387 0.97035 0.65707 0.0
C694 C 0.06244 0.9324 0.6253 0.0
C695 C 0.06665 0.91187 0.60836 0.0
C696 C 0.0321 0.92456 0.63752 0.0
C697 C 0.04503 0.87923 0.60543 0.0
C698 C 1.01476 0.87116 0.61754 0.0
C699 C 0.97009 0.89568 0.64092 0.0
C700 C 0.96001 0.92496 0.65333 0.0
C701 C 1.00622 0.89567 0.63265 0.0
C702 C 0.98792 0.94906 0.66058 0.0
C703 C 0.02399 0.9488 0.65275 0.0
H704 H 0.41137 0.80438 0.85088 0.0
H705 H 0.3066 0.84532 0.87426 0.0
H706 H 0.31098 0.80052 0.90064 0.0
H707 H 0.33193 0.73771 0.90928 0.0
H708 H 0.42823 0.68882 0.8811 0.0
H709 H 0.44105 0.74827 0.86489 0.0
C710 C 0.39067 0.80464 0.86238 0.0
C711 C 0.35862 0.8277 0.86078 0.0
C712 C 0.3915 0.77627 0.87632 0.0
C713 C 0.33153 0.82787 0.87541 0.0
C714 C 0.3338 0.80183 0.89029 0.0
C715 C 0.35665 0.74074 0.9002 0.0
C716 C 0.3786 0.70903 0.89594 0.0
C717 C 0.36174 0.77391 0.8898 0.0
C718 C 0.41088 0.71286 0.88448 0.0
C719 C 0.41784 0.74681 0.875 0.0
H720 H 0.60008 0.1688 0.13517 0.0
H721 H 0.55635 0.06599 0.15903 0.0
H722 H 0.49578 0.07676 0.14346 0.0
H723 H 0.46645 0.10278 0.11447 0.0
H724 H 0.5134 0.20232 0.08852 0.0
H725 H 0.56042 0.20675 0.11391 0.0
C726 C 0.57662 0.14997 0.13779 0.0
C727 C 0.58261 0.11616 0.14756 0.0
C728 C 0.54261 0.1554 0.12797 0.0
C729 C 0.55216 0.09189 0.1511 0.0
C730 C 0.51766 0.09787 0.14208 0.0
C731 C 0.48583 0.12639 0.11497 0.0
C732 C 0.48803 0.15109 0.09938 0.0
C733 C 0.51399 0.12758 0.12905 0.0
C734 C 0.51247 0.18217 0.10019 0.0
C735 C 0.53942 0.18463 0.11463 0.0
H736 H 0.20933 0.83067 0.09074 0.0
H737 H 0.11311 0.80992 0.12699 0.0
H738 H 0.09417 0.75727 0.10689 0.0
H739 H 0.12045 0.70547 0.08742 0.0
H740 H 0.21659 0.72669 0.05131 0.0
H741 H 0.21871 0.79185 0.06189 0.0
C742 C 0.18305 0.81596 0.09349 0.0
C743 C 0.16351 0.82274 0.11056 0.0
C744 C 0.17254 0.78547 0.08197 0.0
C745 C 0.12904 0.80436 0.11401 0.0
C746 C 0.11831 0.77402 0.10261 0.0
C747 C 0.1401 0.72515 0.08094 0.0
C748 C 0.16934 0.71156 0.06938 0.0
C749 C 0.14202 0.76224 0.08772 0.0
C750 C 0.1944 0.73691 0.06067 0.0
C751 C 0.19599 0.77401 0.06693 0.0
H752 H 0.59234 0.87972 0.33688 0.0
H753 H 0.56286 0.97585 0.30239 0.0
H754 H 0.49878 0.97483 0.31491 0.0
H755 H 0.46199 0.96146 0.344 0.0
H756 H 0.49077 0.86546 0.37871 0.0
H757 H 0.54371 0.85081 0.35762 0.0
C758 C 0.57117 0.89888 0.33129 0.0
C759 C 0.58213 0.92867 0.3194 0.0
C760 C 0.53462 0.89889 0.33909 0.0
C761 C 0.55476 0.9532 0.31196 0.0
C762 C 0.51825 0.9529 0.31926 0.0
C763 C 0.47857 0.93613 0.34622 0.0
C764 C 0.4737 0.91534 0.36305 0.0
C765 C 0.50922 0.92822 0.33419 0.0
C766 C 0.49469 0.88221 0.36587 0.0
C767 C 0.52522 0.87401 0.35393 0.0
H768 H 0.32007 0.30187 0.56032 0.0
H769 H 0.42366 0.34717 0.58217 0.0
H770 H 0.43807 0.28786 0.59803 0.0
H771 H 0.40928 0.23401 0.61443 0.0
H772 H 0.29898 0.19589 0.59739 0.0
H773 H 0.29924 0.23971 0.57038 0.0
C774 C 0.34653 0.29804 0.56791 0.0
C775 C 0.37035 0.32897 0.57075 0.0
C776 C 0.35279 0.26484 0.57813 0.0
C777 C 0.40485 0.32391 0.58013 0.0
C778 C 0.41277 0.28997 0.58936 0.0
C779 C 0.3863 0.23405 0.60413 0.0
C780 C 0.3538 0.21273 0.60786 0.0
C781 C 0.38523 0.26167 0.58985 0.0
C782 C 0.32398 0.21262 0.5947 0.0
C783 C 0.32401 0.23794 0.57945 0.0
H784 H 0.08632 0.08851 0.84145 0.0
H785 H 0.05918 0.18463 0.87641 0.0
H786 H 1.00698 0.20075 0.85528 0.0
H787 H 0.95704 0.17099 0.83583 0.0
H788 H 0.98421 0.07419 0.80145 0.0
H789 H 0.04938 0.07617 0.81233 0.0
C790 C 0.07043 0.11427 0.84366 0.0
C791 C 0.07504 0.13437 0.86071 0.0
C792 C 0.04002 0.12292 0.83166 0.0
C793 C 0.05522 0.16824 0.86346 0.0
C794 C 0.02508 0.17729 0.85149 0.0
C795 C 0.97795 0.15204 0.8298 0.0
C796 C 0.96621 0.12153 0.81866 0.0
C797 C 1.01502 0.15244 0.8368 0.0
C798 C 0.99307 0.09735 0.8105 0.0
C799 C 0.03019 0.09817 0.81691 0.0
H800 H 0.91809 0.80358 0.61531 0.0
H801 H 0.81035 0.84261 0.59496 0.0
H802 H 0.81281 0.79856 0.56841 0.0
H803 H 0.83146 0.73461 0.56072 0.0
H804 H 0.92961 0.68652 0.5874 0.0
H805 H 0.94604 0.74709 0.60116 0.0
C806 C 0.8964 0.8038 0.60432 0.0
C807 C 0.86394 0.8258 0.60705 0.0
C808 C 0.89575 0.77502 0.59062 0.0
C809 C 0.83571 0.82614 0.59299 0.0
C810 C 0.83675 0.80021 0.57804 0.0
C811 C 0.85737 0.73804 0.56883 0.0
C812 C 0.87885 0.70627 0.57349 0.0
C813 C 0.86446 0.77209 0.5781 0.0
C814 C 0.91262 0.71054 0.5837 0.0
C815 C 0.92168 0.74526 0.59181 0.0
H816 H 0.98982 0.15772 0.36541 0.0
H817 H 0.95475 0.04693 0.34801 0.0
H818 H 0.99624 0.04986 0.3202 0.0
H819 H 0.05738 0.07225 0.30974 0.0
H820 H 0.10325 0.17355 0.33394 0.0
H821 H 0.0434 0.18745 0.34938 0.0
C822 C 0.98999 0.13519 0.35489 0.0
C823 C 0.96971 0.1021 0.35856 0.0
C824 C 1.01722 0.13525 0.34039 0.0
C825 C 0.97005 0.07269 0.34522 0.0
C826 C 0.99424 0.07419 0.32952 0.0
C827 C 0.05352 0.09818 0.31774 0.0
C828 C 0.08469 0.12128 0.32128 0.0
C829 C 1.02042 0.10357 0.32819 0.0
C830 C 0.07979 0.15517 0.33123 0.0
C831 C 0.04554 0.16278 0.3403 0.0
H832 H 0.71037 0.30444 0.05989 0.0
H833 H 0.61184 0.3519 0.08663 0.0
H834 H 0.59944 0.29247 0.10299 0.0
H835 H 0.63018 0.23778 0.11792 0.0
H836 H 0.73622 0.1977 0.09564 0.0
H837 H 0.73199 0.24201 0.06892 0.0
C838 C 0.68522 0.30102 0.06863 0.0
C839 C 0.6627 0.33245 0.07267 0.0
C840 C 0.68037 0.26794 0.07914 0.0
C841 C 0.62975 0.32808 0.08356 0.0
C842 C 0.62306 0.29418 0.09314 0.0
C843 C 0.65122 0.23755 0.10659 0.0
C844 C 0.68371 0.21526 0.10864 0.0
C845 C 0.65016 0.26534 0.09235 0.0
C846 C 0.71117 0.21499 0.0942 0.0
C847 C 0.70889 0.24057 0.0791 0.0
H848 H 0.44767 0.88239 0.83667 0.0
H849 H 0.47615 0.97806 0.80167 0.0
H850 H 0.54018 0.978 0.81422 0.0
H851 H 0.57736 0.96528 0.84328 0.0
H852 H 0.54932 0.86952 0.87836 0.0
H853 H 0.49643 0.85439 0.85752 0.0
C854 C 0.46864 0.90165 0.83099 0.0
C855 C 0.45739 0.93107 0.81895 0.0
C856 C 0.50511 0.90221 0.83879 0.0
C857 C 0.4845 0.9557 0.81136 0.0
C858 C 0.52096 0.95598 0.81869 0.0
C859 C 0.56081 0.94004 0.8457 0.0
C860 C 0.56611 0.91931 0.8625 0.0
C861 C 0.5302 0.93171 0.83375 0.0
C862 C 0.54516 0.88625 0.86555 0.0
C863 C 0.51469 0.87769 0.85372 0.0
H864 H 0.89801 0.2843 0.82564 0.0
H865 H 0.82179 0.2097 0.85516 0.0
H866 H 0.8308 0.24496 0.88503 0.0
H867 H 0.84976 0.30397 0.89998 0.0
H868 H 0.92153 0.3812 0.86961 0.0
H869 H 0.92818 0.33633 0.84327 0.0
C870 C 0.88337 0.27611 0.83868 0.0
C871 C 0.85761 0.24631 0.83833 0.0
C872 C 0.88916 0.29607 0.85564 0.0
C873 C 0.84032 0.23394 0.85524 0.0
C874 C 0.84595 0.2536 0.87226 0.0
C875 C 0.86852 0.30984 0.88802 0.0
C876 C 0.88413 0.34574 0.88616 0.0
C877 C 0.86906 0.28558 0.87236 0.0
C878 C 0.90907 0.35353 0.87108 0.0
C879 C 0.91186 0.32839 0.85579 0.0
H880 H 0.58302 0.07918 0.62795 0.0
H881 H 0.56039 0.17725 0.59357 0.0
H882 H 0.50704 0.19365 0.61399 0.0
H883 H 0.45572 0.16569 0.63336 0.0
H884 H 0.47902 0.06755 0.66756 0.0
H885 H 0.54411 0.06678 0.65646 0.0
C886 C 0.56775 0.1053 0.6257 0.0
C887 C 0.57429 0.12617 0.60905 0.0
C888 C 0.53681 0.11425 0.63735 0.0
C889 C 0.55509 0.16037 0.60624 0.0
C890 C 0.52431 0.1696 0.6178 0.0
C891 C 0.47579 0.14571 0.63925 0.0
C892 C 0.46281 0.1158 0.65051 0.0
C893 C 0.51292 0.14469 0.63224 0.0
C894 C 0.48872 0.09028 0.65843 0.0
C895 C 0.5258 0.08954 0.65192 0.0
H896 H 0.62963 0.80609 0.35379 0.0
H897 H 0.73761 0.84656 0.37301 0.0
H898 H 0.73552 0.80445 0.40046 0.0
H899 H 0.7158 0.74215 0.41039 0.0
H900 H 0.61705 0.69215 0.38537 0.0
H901 H 0.60152 0.75104 0.36947 0.0
C902 C 0.65157 0.80694 0.36464 0.0
C903 C 0.68371 0.82917 0.36158 0.0
C904 C 0.65218 0.77951 0.37906 0.0
C905 C 0.71242 0.83005 0.37536 0.0
C906 C 0.71151 0.80537 0.39085 0.0
C907 C 0.68996 0.74489 0.40213 0.0
C908 C 0.66809 0.71289 0.39857 0.0
C909 C 0.68345 0.77769 0.39165 0.0
C910 C 0.63438 0.71633 0.38821 0.0
C911 C 0.62587 0.75002 0.37886 0.0
H912 H 0.09312 0.88178 0.13462 0.0
H913 H 0.06415 0.97949 0.168 0.0
H914 H 1.00042 0.97895 0.15506 0.0
H915 H 0.96457 0.96539 0.12572 0.0
H916 H 0.99324 0.86804 0.09197 0.0
H917 H 0.04498 0.85304 0.11371 0.0
C918 C 0.07211 0.9014 0.13991 0.0
C919 C 0.0832 0.93151 0.15153 0.0
C920 C 0.03589 0.90174 0.1318 0.0
C921 C 0.05598 0.95661 0.15861 0.0
C922 C 1.01969 0.95659 0.15105 0.0
C923 C 0.98087 0.93979 0.12383 0.0
C924 C 0.97636 0.91863 0.10711 0.0
C925 C 1.01082 0.93164 0.13623 0.0
C926 C 0.99693 0.8851 0.10472 0.0
C927 C 0.02673 0.87665 0.11704 0.0
H928 H 0.71445 0.80025 0.90808 0.0
H929 H 0.61667 0.85053 0.88209 0.0
H930 H 0.59962 0.79074 0.86763 0.0
H931 H 0.62665 0.73418 0.85297 0.0
H932 H 0.73371 0.69266 0.87301 0.0
H933 H 0.73219 0.73627 0.89977 0.0
C934 C 0.68847 0.79746 0.89996 0.0
C935 C 0.66722 0.82967 0.89578 0.0
C936 C 0.68095 0.76384 0.89033 0.0
C937 C 0.63343 0.82618 0.88551 0.0
C938 C 0.62403 0.79191 0.87697 0.0
C939 C 0.64838 0.73329 0.86394 0.0
C940 C 0.68035 0.71061 0.86105 0.0
C941 C 0.64958 0.76176 0.87783 0.0
C942 C 0.70864 0.70955 0.87509 0.0
C943 C 0.70819 0.73526 0.89015 0.0
H944 H 0.45172 0.38457 0.14128 0.0
H945 H 0.48032 0.4831 0.1741 0.0
H946 H 0.54324 0.48383 0.16006 0.0
H947 H 0.57739 0.47077 0.13001 0.0
H948 H 0.54825 0.3726 0.09701 0.0
H949 H 0.49892 0.35653 0.11986 0.0
C950 C 0.4725 0.40474 0.14621 0.0
C951 C 0.46135 0.43474 0.15792 0.0
C952 C 0.50818 0.40565 0.1376 0.0
C953 C 0.48844 0.46034 0.16461 0.0
C954 C 0.52425 0.46103 0.15643 0.0
C955 C 0.5616 0.44479 0.12851 0.0
C956 C 0.5653 0.42353 0.11177 0.0
C957 C 0.53278 0.43613 0.14151 0.0
C958 C 0.54539 0.38955 0.10985 0.0
C959 C 0.51686 0.38053 0.12279 0.0
H960 H 0.83252 0.23513 0.40871 0.0
H961 H 0.9299 0.188 0.38071 0.0
H962 H 0.94346 0.24847 0.36571 0.0
H963 H 0.91302 0.30354 0.35151 0.0
H964 H 0.80624 0.3421 0.37357 0.0
H965 H 0.81096 0.29784 0.40031 0.0
C966 C 0.8577 0.23888 0.40003 0.0
C967 C 0.87962 0.20747 0.39527 0.0
C968 C 0.86277 0.2724 0.39 0.0
C969 C 0.91253 0.21194 0.38437 0.0
C970 C 0.91987 0.24643 0.37557 0.0
C971 C 0.89188 0.30345 0.36279 0.0
C972 C 0.85902 0.32508 0.36066 0.0
C973 C 0.89303 0.27542 0.37682 0.0
C974 C 0.83147 0.3251 0.37505 0.0
C975 C 0.83408 0.29961 0.39016 0.0
H976 H 0.96688 0.57225 0.62861 0.0
H977 H 0.99552 0.66851 0.59401 0.0
H978 H 0.04643 0.68482 0.61587 0.0
H979 H 0.09448 0.65718 0.63706 0.0
H980 H 0.06658 0.55987 0.67096 0.0
H981 H 1.00279 0.55965 0.65806 0.0
C982 C 0.98303 0.59787 0.62653 0.0
C983 C 0.9786 0.61848 0.60963 0.0
C984 C 1.01276 0.60661 0.63894 0.0
C985 C 0.99899 0.652 0.60696 0.0
C986 C 0.02837 0.66118 0.61935 0.0
C987 C 0.07367 0.63749 0.64246 0.0
C988 C 0.08505 0.6077 0.65422 0.0
C989 C 0.03753 0.63663 0.63434 0.0
C990 C 0.05813 0.58251 0.66147 0.0
C991 C 1.02183 0.58209 0.65393 0.0
H992 H 0.67621 0.1582 0.61045 0.0
H993 H 0.67829 0.23964 0.56484 0.0
H994 H 0.67888 0.29102 0.58831 0.0
H995 H 0.69087 0.31136 0.62155 0.0
H996 H 0.69899 0.22771 0.66639 0.0
H997 H 0.68421 0.17838 0.64349 0.0
C998 C 0.67502 0.18734 0.60577 0.0
C999 C 0.67648 0.19555 0.58616 0.0
C1000 C 0.67952 0.21609 0.6192 0.0
C1001 C 0.67605 0.23303 0.57997 0.0
C1002 C 0.6775 0.26223 0.59338 0.0
C1003 C 0.68966 0.2823 0.62627 0.0
C1004 C 0.69692 0.27318 0.64557 0.0
C1005 C 0.68154 0.25389 0.61297 0.0
C1006 C 0.69466 0.23546 0.65153 0.0
C1007 C 0.68555 0.20725 0.63852 0.0
H1008 H 0.11539 0.38391 0.84945 0.0
H1009 H 0.04905 0.43953 0.80637 0.0
H1010 H 0.99435 0.43996 0.82778 0.0
H1011 H 0.97323 0.44188 0.8616 0.0
H1012 H 0.04593 0.3967 0.90554 0.0
H1013 H 0.09044 0.37496 0.88134 0.0
C1014 C 0.08823 0.39374 0.84434 0.0
C1015 C 0.08598 0.41198 0.82665 0.0
C1016 C 0.05878 0.39783 0.85745 0.0
C1017 C 0.05106 0.42539 0.82011 0.0
C1018 C 1.02017 0.42652 0.83253 0.0
C1019 C 0.99875 0.42706 0.86571 0.0
C1020 C 1.00754 0.42249 0.88517 0.0
C1021 C 0.02495 0.41594 0.85175 0.0
C1022 C 0.03983 0.40218 0.89056 0.0
C1023 C 0.06492 0.38922 0.87677 0.0
H1024 H 0.91833 0.8381 0.08386 0.0
H1025 H 0.8212 0.81081 0.04957 0.0
H1026 H 0.81922 0.74784 0.06318 0.0
H1027 H 0.83043 0.7127 0.09306 0.0
H1028 H 0.92774 0.73907 0.12742 0.0
H1029 H 0.94491 0.78977 0.10551 0.0
C1030 C 0.89835 0.81749 0.07852 0.0
C1031 C 0.86897 0.82906 0.06646 0.0
C1032 C 0.89655 0.78168 0.087 0.0
C1033 C 0.8435 0.80233 0.05929 0.0
C1034 C 0.84201 0.7665 0.06727 0.0
C1035 C 0.85648 0.72822 0.09507 0.0
C1036 C 0.87705 0.72342 0.11199 0.0
C1037 C 0.86602 0.75745 0.08249 0.0
C1038 C 0.91113 0.74302 0.11453 0.0
C1039 C 0.92084 0.77221 0.10209 0.0
H1040 H 0.57936 0.57855 0.34502 0.0
H1041 H 0.5505 0.67431 0.37992 0.0
H1042 H 0.5004 0.69167 0.35775 0.0
H1043 H 0.45307 0.66566 0.3356 0.0
H1044 H 0.48143 0.56909 0.30127 0.0
H1045 H 0.54447 0.5673 0.31507 0.0
C1046 C 0.56333 0.60424 0.34713 0.0
C1047 C 0.56758 0.62452 0.36415 0.0
C1048 C 0.53417 0.61374 0.33447 0.0
C1049 C 0.54724 0.65808 0.36687 0.0
C1050 C 0.51835 0.6679 0.35428 0.0
C1051 C 0.47394 0.64584 0.33031 0.0
C1052 C 0.46274 0.61666 0.31814 0.0
C1053 C 0.50958 0.644 0.33898 0.0
C1054 C 0.48972 0.59131 0.31104 0.0
C1055 C 0.52555 0.58991 0.31914 0.0
H1056 H 0.32985 0.33103 0.09329 0.0
H1057 H 0.42918 0.30854 0.12692 0.0
H1058 H 0.44399 0.25411 0.10704 0.0
H1059 H 0.41451 0.20254 0.08857 0.0
H1060 H 0.31482 0.2256 0.0553 0.0
H1061 H 0.31536 0.29095 0.06565 0.0
C1062 C 0.35589 0.31549 0.09546 0.0
C1063 C 0.37752 0.32243 0.1118 0.0
C1064 C 0.3638 0.28389 0.0842 0.0
C1065 C 0.41166 0.30292 0.11451 0.0
C1066 C 0.41996 0.27151 0.10328 0.0
C1067 C 0.39439 0.22253 0.08276 0.0
C1068 C 0.36392 0.20961 0.07186 0.0
C1069 C 0.39416 0.25984 0.08931 0.0
C1070 C 0.33801 0.23533 0.06412 0.0
C1071 C 0.33811 0.27257 0.07015 0.0
H1072 H 0.46831 0.57434 0.84176 0.0
H1073 H 0.49892 0.6712 0.87531 0.0
H1074 H 0.55017 0.68571 0.85316 0.0
H1075 H 0.59723 0.65713 0.83139 0.0
H1076 H 0.56581 0.5602 0.79794 0.0
H1077 H 0.50316 0.56036 0.81219 0.0
C1078 C 0.48488 0.59977 0.84351 0.0
C1079 C 0.48098 0.62102 0.86022 0.0
C1080 C 0.51467 0.60749 0.83093 0.0
C1081 C 0.50202 0.65423 0.8625 0.0
C1082 C 0.53163 0.6623 0.84997 0.0
C1083 C 0.57597 0.63739 0.82654 0.0
C1084 C 0.58613 0.60778 0.81436 0.0
C1085 C 0.54015 0.63712 0.83515 0.0
C1086 C 0.55849 0.58259 0.80782 0.0
C1087 C 0.52275 0.58252 0.81601 0.0
H1088 H 0.2137 0.70707 0.5931 0.0
H1089 H 0.11556 0.73208 0.62725 0.0
H1090 H 0.09971 0.78464 0.60627 0.0
H1091 H 0.12821 0.83459 0.58634 0.0
H1092 H 0.22689 0.8093 0.55266 0.0
H1093 H 0.22694 0.74481 0.56438 0.0
C1094 C 0.18768 0.72269 0.59519 0.0
C1095 C 0.16662 0.71702 0.61189 0.0
C1096 C 0.17916 0.75322 0.58327 0.0
C1097 C 0.13256 0.73669 0.61453 0.0
C1098 C 0.12366 0.76701 0.60265 0.0
C1099 C 0.14818 0.81422 0.58072 0.0
C1100 C 0.17834 0.82644 0.56934 0.0
C1101 C 0.14883 0.77752 0.58812 0.0
C1102 C 0.20393 0.80016 0.56183 0.0
C1103 C 0.20423 0.76344 0.56869 0.0
H1104 H 0.05849 0.37907 0.36801 0.0
H1105 H 0.09905 0.48559 0.34704 0.0
H1106 H 0.05415 0.48321 0.3205 0.0
H1107 H 0.99069 0.46346 0.31204 0.0
H1108 H 0.94222 0.3654 0.33852 0.0
H1109 H 1.00255 0.35044 0.35349 0.0
C1110 C 0.05866 0.40064 0.35698 0.0
C1111 C 0.08112 0.43278 0.3594 0.0
C1112 C 0.03032 0.4008 0.34303 0.0
C1113 C 0.08151 0.46086 0.34533 0.0
C1114 C 0.05559 0.45962 0.33034 0.0
C1115 C 0.99408 0.43787 0.32038 0.0
C1116 C 0.96233 0.41606 0.32469 0.0
C1117 C 0.02769 0.43168 0.33028 0.0
C1118 C 0.9664 0.38267 0.33518 0.0
C1119 C 1.00083 0.37449 0.34396 0.0
H1120 H 0.41261 0.84247 0.3853 0.0
H1121 H 0.31617 0.81196 0.41951 0.0
H1122 H 0.31569 0.74934 0.40545 0.0
H1123 H 0.32832 0.71466 0.3756 0.0
H1124 H 0.42492 0.74438 0.34132 0.0
H1125 H 0.44029 0.79551 0.36329 0.0
C1126 C 0.39306 0.82131 0.39047 0.0
C1127 C 0.36358 0.83177 0.40275 0.0
C1128 C 0.39215 0.7857 0.38178 0.0
C1129 C 0.33858 0.80431 0.40965 0.0
C1130 C 0.33798 0.76867 0.40145 0.0
C1131 C 0.3538 0.73111 0.37359 0.0
C1132 C 0.37473 0.72694 0.35674 0.0
C1133 C 0.36231 0.76056 0.38621 0.0
C1134 C 0.40807 0.74779 0.35418 0.0
C1135 C 0.41675 0.7772 0.36665 0.0
H1136 H 0.92517 0.64973 0.11923 0.0
H1137 H 0.99771 0.60166 0.16213 0.0
H1138 H 0.05073 0.60223 0.13961 0.0
H1139 H 0.07033 0.60068 0.10561 0.0
H1140 H 0.99243 0.63843 0.06213 0.0
H1141 H 0.94735 0.65735 0.08668 0.0
C1142 C 0.9532 0.64172 0.12396 0.0
C1143 C 0.95795 0.62578 0.1421 0.0
C1144 C 0.9819 0.63822 0.11038 0.0
C1145 C 0.99389 0.6143 0.14812 0.0
C1146 C 0.02383 0.61376 0.13511 0.0
C1147 C 0.04347 0.61311 0.10165 0.0
C1148 C 0.03372 0.61661 0.08224 0.0
C1149 C 1.01717 0.62277 0.11582 0.0
C1150 C 0.99952 0.63378 0.07706 0.0
C1151 C 0.97407 0.64519 0.09105 0.0
H1152 H 0.21786 0.33063 0.87798 0.0
H1153 H 0.12035 0.30204 0.8442 0.0
H1154 H 0.1029 0.25326 0.86713 0.0
H1155 H 0.12944 0.20649 0.88951 0.0
H1156 H 0.22751 0.23516 0.9228 0.0
H1157 H 0.22927 0.29744 0.90838 0.0
C1158 C 0.19179 0.315 0.87627 0.0
C1159 C 0.1712 0.31855 0.8593 0.0
C1160 C 0.18216 0.28679 0.8894 0.0
C1161 C 0.13701 0.29896 0.85714 0.0
C1162 C 0.1271 0.27091 0.87018 0.0
C1163 C 0.14961 0.22726 0.89445 0.0
C1164 C 0.1794 0.21619 0.90635 0.0
C1165 C 0.15144 0.26247 0.8854 0.0
C1166 C 0.20501 0.2432 0.9131 0.0
C1167 C 0.20636 0.27862 0.90467 0.0
H1168 H 0.46983 0.45708 0.62872 0.0
H1169 H 0.4829 0.35934 0.59277 0.0
H1170 H 0.5338 0.33651 0.61263 0.0
H1171 H 0.58843 0.35912 0.63071 0.0
H1172 H 0.57817 0.45868 0.66531 0.0
H1173 H 0.51199 0.46504 0.65649 0.0
C1174 C 0.48242 0.42975 0.62602 0.0
C1175 C 0.47338 0.4104 0.60919 0.0
C1176 C 0.51296 0.41745 0.63711 0.0
C1177 C 0.48928 0.37474 0.60574 0.0
C1178 C 0.51901 0.36185 0.61695 0.0
C1179 C 0.57084 0.38056 0.6373 0.0
C1180 C 0.58773 0.4093 0.64785 0.0
C1181 C 0.53342 0.38502 0.63136 0.0
C1182 C 0.56526 0.43677 0.65673 0.0
C1183 C 0.52761 0.44075 0.65144 0.0
H1184 H 0.0984 0.29086 0.29355 0.0
H1185 H 0.0593 0.17599 0.29218 0.0
H1186 H 0.9938 0.19817 0.29272 0.0
H1187 H 0.94776 0.25033 0.29552 0.0
H1188 H 0.98729 0.3651 0.29432 0.0
H1189 H 0.05252 0.3428 0.29282 0.0
C1190 C 0.07562 0.27053 0.29312 0.0
C1191 C 0.08402 0.2316 0.29318 0.0
C1192 C 0.03806 0.28356 0.29308 0.0
C1193 C 0.05392 0.20596 0.29232 0.0
C1194 C 1.01638 0.2187 0.29267 0.0
C1195 C 0.9706 0.27055 0.29474 0.0
C1196 C 0.96243 0.30952 0.29538 0.0
C1197 C 1.00813 0.25744 0.29339 0.0
C1198 C 0.99252 0.3351 0.29405 0.0
C1199 C 0.02991 0.3223 0.29318 0.0
H1200 H 0.04511 0.69015 0.54442 0.0
H1201 H 0.92961 0.72855 0.54228 0.0
H1202 H 0.9514 0.7938 0.54098 0.0
H1203 H 1.00309 0.83984 0.54259 0.0
H1204 H 0.11867 0.80156 0.54276 0.0
H1205 H 0.09698 0.73617 0.5425 0.0
C1206 C 0.02459 0.71272 0.54342 0.0
C1207 C 0.9856 0.7043 0.54376 0.0
C1208 C 0.0374 0.75015 0.54236 0.0
C1209 C 0.95964 0.73403 0.54219 0.0
C1210 C 0.97215 0.77141 0.54148 0.0
C1211 C 0.02367 0.81725 0.54231 0.0
C1212 C 0.06263 0.82576 0.54306 0.0
C1213 C 1.01094 0.77978 0.54187 0.0
C1214 C 0.08868 0.79601 0.54241 0.0
C1215 C 0.07621 0.75856 0.54228 0.0
H1216 H 0.44454 0.75464 0.79569 0.0
H1217 H 0.48336 0.8696 0.79345 0.0
H1218 H 0.54881 0.84757 0.79253 0.0
H1219 H 0.59487 0.79581 0.79428 0.0
H1220 H 0.55619 0.68074 0.79434 0.0
H1221 H 0.49064 0.70268 0.79399 0.0
C1222 C 0.46726 0.77498 0.7948 0.0
C1223 C 0.45889 0.81392 0.79502 0.0
C1224 C 0.50481 0.76202 0.79392 0.0
C1225 C 0.4888 0.83964 0.79354 0.0
C1226 C 0.52628 0.82698 0.79301 0.0
C1227 C 0.57217 0.77539 0.79403 0.0
C1228 C 0.58063 0.7365 0.79475 0.0
C1229 C 0.5346 0.78827 0.7935 0.0
C1230 C 0.5507 0.71068 0.79405 0.0
C1231 C 0.51316 0.72329 0.79386 0.0
H1232 H 0.52002 0.21151 0.02488 0.0
H1233 H 0.40949 0.2461 0.04398 0.0
H1234 H 0.4343 0.30884 0.05139 0.0
H1235 H 0.48783 0.35297 0.05311 0.0
H1236 H 0.59844 0.31725 0.03432 0.0
H1237 H 0.57287 0.25547 0.02605 0.0
C1238 C 0.50087 0.23281 0.03032 0.0
C1239 C 0.46256 0.22374 0.03393 0.0
C1240 C 0.51553 0.26852 0.03468 0.0
C1241 C 0.4389 0.25195 0.04127 0.0
C1242 C 0.45319 0.28785 0.04547 0.0
C1243 C 0.50649 0.33183 0.04712 0.0
C1244 C 0.54518 0.34012 0.04422 0.0
C1245 C 0.49157 0.29629 0.04243 0.0
C1246 C 0.56866 0.31201 0.03658 0.0
C1247 C 0.55399 0.27662 0.03185 0.0
H1248 H 0.94771 0.794 0.17774 0.0
H1249 H 0.98794 0.67938 0.17661 0.0
H1250 H 0.05316 0.70204 0.17765 0.0
H1251 H 0.0985 0.7543 0.17657 0.0
H1252 H 0.0586 0.86901 0.17821 0.0
H1253 H 0.99333 0.84635 0.17942 0.0
C1254 C 0.9707 0.77386 0.17797 0.0
C1255 C 0.96277 0.73487 0.17704 0.0
C1256 C 1.00814 0.78716 0.17859 0.0
C1257 C 0.99304 0.70937 0.17744 0.0
C1258 C 0.03038 0.72239 0.17793 0.0
C1259 C 0.07561 0.77451 0.17745 0.0
C1260 C 0.08365 0.81351 0.17709 0.0
C1261 C 0.03823 0.76121 0.17819 0.0
C1262 C 0.05347 0.839 0.17843 0.0
C1263 C 1.01608 0.82598 0.17904 0.0
H1264 H 0.54115 0.84659 0.42955 0.0
H1265 H 0.42592 0.80741 0.42936 0.0
H1266 H 0.44828 0.74218 0.4303 0.0
H1267 H 0.50059 0.69655 0.42887 0.0
H1268 H 0.61575 0.73595 0.42992 0.0
H1269 H 0.59331 0.80104 0.43101 0.0
C1270 C 0.52079 0.82383 0.42997 0.0
C1271 C 0.48176 0.83201 0.42922 0.0
C1272 C 0.5339 0.78649 0.43056 0.0
C1273 C 0.45598 0.80208 0.42994 0.0
C1274 C 0.46882 0.76475 0.43038 0.0
C1275 C 0.52089 0.71931 0.42958 0.0
C1276 C 0.55996 0.71121 0.42912 0.0
C1277 C 0.50772 0.75665 0.43036 0.0
C1278 C 0.58566 0.74118 0.43023 0.0
C1279 C 0.57278 0.77846 0.43079 0.0
H1280 H 0.59225 0.2601 0.68312 0.0
H1281 H 0.54925 0.37337 0.67872 0.0
H1282 H 0.4857 0.34835 0.67303 0.0
H1283 H 0.44255 0.29403 0.66993 0.0
H1284 H 0.48567 0.18133 0.67765 0.0
H1285 H 0.54924 0.20663 0.68197 0.0
C1286 C 0.56911 0.27967 0.68105 0.0
C1287 C 0.57601 0.31896 0.68081 0.0
C1288 C 0.53265 0.26502 0.67864 0.0
C1289 C 0.54526 0.34328 0.67824 0.0
C1290 C 0.50881 0.32885 0.67526 0.0
C1291 C 0.4658 0.27488 0.6726 0.0
C1292 C 0.45919 0.2356 0.67329 0.0
C1293 C 0.50222 0.28975 0.67544 0.0
C1294 C 0.48974 0.21149 0.67697 0.0
C1295 C 0.52614 0.226 0.67942 0.0
H1296 H 0.99601 0.19931 0.91767 0.0
H1297 H 0.10499 0.23459 0.93885 0.0
H1298 H 0.07942 0.29749 0.94501 0.0
H1299 H 0.02731 0.34216 0.9437 0.0
H1300 H 0.91871 0.30856 0.92144 0.0
H1301 H 0.94319 0.24451 0.91659 0.0
C1302 C 1.01436 0.22055 0.92376 0.0
C1303 C 0.05262 0.21178 0.92794 0.0
C1304 C 0.99948 0.25674 0.92712 0.0
C1305 C 0.07558 0.2401 0.93568 0.0
C1306 C 0.06091 0.27613 0.93915 0.0
C1307 C 1.00848 0.32099 0.93791 0.0
C1308 C 0.97077 0.33057 0.93296 0.0
C1309 C 0.02299 0.28468 0.93489 0.0
C1310 C 0.94749 0.30226 0.92548 0.0
C1311 C 0.96167 0.26568 0.92263 0.0
H1312 H 0.09683 0.78492 0.67766 0.0
H1313 H 0.05913 0.66958 0.67921 0.0
H1314 H 0.99339 0.69096 0.67887 0.0
H1315 H 0.94698 0.74241 0.67573 0.0
H1316 H 0.98494 0.85774 0.67624 0.0
H1317 H 0.05043 0.83632 0.67828 0.0
C1318 C 0.07429 0.76432 0.6782 0.0
C1319 C 0.08307 0.7255 0.67804 0.0
C1320 C 0.03665 0.7769 0.67825 0.0
C1321 C 0.05337 0.69946 0.67907 0.0
C1322 C 1.01573 0.71175 0.67884 0.0
C1323 C 0.96952 0.76297 0.67649 0.0
C1324 C 0.96094 0.80179 0.67542 0.0
C1325 C 1.00709 0.75039 0.67803 0.0
C1326 C 0.99057 0.82784 0.67678 0.0
C1327 C 0.02808 0.81554 0.67796 0.0
H1328 H 0.04597 0.19272 0.42385 0.0
H1329 H 0.93118 0.23325 0.42459 0.0
H1330 H 0.95408 0.29817 0.42488 0.0
H1331 H 1.00667 0.34336 0.42329 0.0
H1332 H 0.12147 0.30315 0.42573 0.0
H1333 H 0.09862 0.23812 0.42596 0.0
C1334 C 0.02585 0.21571 0.42427 0.0
C1335 C 0.9867 0.20789 0.4238 0.0
C1336 C 0.03932 0.25304 0.42495 0.0
C1337 C 0.96129 0.2382 0.4247 0.0
C1338 C 0.97445 0.27541 0.42487 0.0
C1339 C 0.02684 0.32044 0.42404 0.0
C1340 C 0.06598 0.32836 0.42398 0.0
C1341 C 1.01339 0.28315 0.42473 0.0
C1342 C 0.09138 0.29812 0.42538 0.0
C1343 C 0.07824 0.26086 0.42556 0.0
H1344 H 0.59883 0.29057 0.17588 0.0
H1345 H 0.55724 0.17653 0.17499 0.0
H1346 H 0.49234 0.19996 0.17617 0.0
H1347 H 0.44763 0.2528 0.17546 0.0
H1348 H 0.48877 0.36672 0.17953 0.0
H1349 H 0.55382 0.34334 0.17931 0.0
C1350 C 0.5756 0.27074 0.17615 0.0
C1351 C 0.58302 0.2317 0.17489 0.0
C1352 C 0.53835 0.28446 0.17736 0.0
C1353 C 0.55251 0.20657 0.17564 0.0
C1354 C 0.51534 0.22003 0.17634 0.0
C1355 C 0.47073 0.27268 0.17652 0.0
C1356 C 0.46312 0.31177 0.17688 0.0
C1357 C 0.50796 0.25891 0.17689 0.0
C1358 C 0.49359 0.33673 0.17872 0.0
C1359 C 0.53085 0.32328 0.17865 0.0
H1360 H 0.50515 0.84409 0.92545 0.0
H1361 H 0.62126 0.80795 0.92879 0.0
H1362 H 0.60087 0.74223 0.92921 0.0
H1363 H 0.55024 0.6953 0.92653 0.0
H1364 H 0.43403 0.73166 0.92483 0.0
H1365 H 0.45433 0.79729 0.926 0.0
C1366 C 0.52606 0.82188 0.92652 0.0
C1367 C 0.56478 0.83094 0.92679 0.0
C1368 C 0.51408 0.78429 0.92699 0.0
C1369 C 0.59137 0.80181 0.92843 0.0
C1370 C 0.57969 0.76422 0.92863 0.0
C1371 C 0.52928 0.71755 0.92663 0.0
C1372 C 0.49062 0.70854 0.9253 0.0
C1373 C 0.54116 0.75517 0.92758 0.0
C1374 C 0.4639 0.73773 0.92571 0.0
C1375 C 0.47552 0.77529 0.92636 0.0
H1376 H 0.10469 0.24405 0.79454 0.0
H1377 H 0.06189 0.35765 0.79083 0.0
H1378 H 0.99771 0.3332 0.78767 0.0
H1379 H 0.95419 0.2805 0.78746 0.0
H1380 H 0.9958 0.16632 0.78909 0.0
H1381 H 0.06052 0.19031 0.79199 0.0
C1382 C 0.08138 0.26355 0.79287 0.0
C1383 C 0.08824 0.30283 0.79294 0.0
C1384 C 0.04452 0.24922 0.791 0.0
C1385 C 0.05763 0.32748 0.79068 0.0
C1386 C 1.02089 0.31346 0.78899 0.0
C1387 C 0.97718 0.26041 0.78832 0.0
C1388 C 0.96965 0.22121 0.78866 0.0
C1389 C 1.01407 0.27446 0.78934 0.0
C1390 C 1.00036 0.19635 0.78947 0.0
C1391 C 0.03741 0.21019 0.79092 0.0
H1392 H 0.54585 0.34524 0.544 0.0
H1393 H 0.43072 0.30609 0.54124 0.0
H1394 H 0.45317 0.24096 0.53997 0.0
H1395 H 0.50532 0.19524 0.54198 0.0
H1396 H 0.62044 0.23444 0.54398 0.0
H1397 H 0.59812 0.29969 0.54292 0.0
C1398 C 0.52555 0.32254 0.54286 0.0
C1399 C 0.48647 0.33071 0.54297 0.0
C1400 C 0.53872 0.28521 0.542 0.0
C1401 C 0.46081 0.30081 0.54126 0.0
C1402 C 0.4737 0.26351 0.54059 0.0
C1403 C 0.52566 0.21802 0.54192 0.0
C1404 C 0.56466 0.20985 0.54318 0.0
C1405 C 0.51255 0.2554 0.54131 0.0
C1406 C 0.59044 0.2398 0.54294 0.0
C1407 C 0.57761 0.27712 0.54245 0.0
H1408 H 0.59774 0.75281 0.29482 0.0
H1409 H 0.55754 0.86741 0.293 0.0
H1410 H 0.49246 0.84471 0.291 0.0
H1411 H 0.44708 0.79242 0.29177 0.0
H1412 H 0.48727 0.67778 0.29208 0.0
H1413 H 0.55251 0.70044 0.29243 0.0
C1414 C 0.5748 0.77293 0.29379 0.0
C1415 C 0.5826 0.81192 0.29438 0.0
C1416 C 0.53753 0.75961 0.29236 0.0
C1417 C 0.55248 0.8374 0.29274 0.0
C1418 C 0.51523 0.82436 0.29161 0.0
C1419 C 0.47007 0.77226 0.29166 0.0
C1420 C 0.46214 0.73329 0.29217 0.0
C1421 C 0.50744 0.78555 0.2917 0.0
C1422 C 0.4924 0.70778 0.29179 0.0
C1423 C 0.52974 0.72079 0.29205 0.0
H1424 H 0.04945 0.85067 0.04449 0.0
H1425 H 0.93558 0.80943 0.0376 0.0
H1426 H 0.95989 0.74542 0.03409 0.0
H1427 H 1.01241 0.70171 0.03407 0.0
H1428 H 0.12695 0.7418 0.03911 0.0
H1429 H 0.10311 0.80632 0.04277 0.0
C1430 C 0.02984 0.82776 0.04208 0.0
C1431 C 0.99055 0.83499 0.0413 0.0
C1432 C 0.04408 0.79104 0.04002 0.0
C1433 C 0.96578 0.80487 0.03812 0.0
C1434 C 0.97971 0.76824 0.03622 0.0
C1435 C 0.03262 0.72435 0.03577 0.0
C1436 C 0.07182 0.71651 0.0367 0.0
C1437 C 1.01871 0.76109 0.03727 0.0
C1438 C 0.09688 0.74666 0.03891 0.0
C1439 C 0.08315 0.78359 0.04078 0.0
H1440 H 0.2649 0.29943 0.27165 0.0
H1441 H 0.23794 0.1857 0.25471 0.0
H1442 H 0.25936 0.19978 0.222 0.0
H1443 H 0.28392 0.24462 0.19828 0.0
H1444 H 0.31071 0.35841 0.2152 0.0
H1445 H 0.28958 0.34424 0.24795 0.0
C1446 C 0.26389 0.27739 0.26092 0.0
C1447 C 0.24987 0.24126 0.26583 0.0
C1448 C 0.27535 0.28601 0.24208 0.0
C1449 C 0.24889 0.21345 0.25154 0.0
C1450 C 0.26078 0.2217 0.23277 0.0
C1451 C 0.28497 0.26665 0.20901 0.0
C1452 C 0.29882 0.30283 0.20408 0.0
C1453 C 0.2736 0.25799 0.22786 0.0
C1454 C 0.2999 0.3306 0.21838 0.0
C1455 C 0.28816 0.32232 0.23717 0.0
H1456 H 0.05235 0.03088 0.44958 0.0
H1457 H 0.93698 0.05506 0.46545 0.0
H1458 H 0.94982 0.03202 0.498 0.0
H1459 H 0.9938 1.00606 0.52175 0.0
H1460 H 0.10905 0.98155 0.50582 0.0
H1461 H 0.09641 1.00524 0.47337 0.0
C1462 C 0.02969 0.03102 0.46004 0.0
C1463 C 0.99344 0.04464 0.45488 0.0
C1464 C 0.03755 1.01844 0.47876 0.0
C1465 C 0.96485 0.04449 0.46883 0.0
C1466 C 0.97237 0.03161 0.4875 0.0
C1467 C 1.01647 1.00605 0.51131 0.0
C1468 C 0.0526 0.99201 0.5164 0.0
C1469 C 1.00868 1.01884 0.49262 0.0
C1470 C 0.08125 0.9924 0.50249 0.0
C1471 C 0.07384 1.00562 0.48388 0.0
H1472 H 0.28214 0.74414 0.77117 0.0
H1473 H 0.30675 0.85829 0.75397 0.0
H1474 H 0.28583 0.84344 0.72126 0.0
H1475 H 0.26183 0.7979 0.69765 0.0
H1476 H 0.23733 0.68379 0.71497 0.0
H1477 H 0.25845 0.69865 0.7476 0.0
C1478 C 0.2828 0.76611 0.76039 0.0
C1479 C 0.29593 0.80261 0.76526 0.0
C1480 C 0.27155 0.75708 0.74157 0.0
C1481 C 0.29648 0.83026 0.75087 0.0
C1482 C 0.28484 0.82158 0.73209 0.0
C1483 C 0.26133 0.77595 0.70844 0.0
C1484 C 0.2481 0.73945 0.70363 0.0
C1485 C 0.2727 0.78499 0.72726 0.0
C1486 C 0.24768 0.71181 0.71802 0.0
C1487 C 0.25942 0.72049 0.73676 0.0
H1488 H 0.549 0.03505 0.02177 0.0
H1489 H 0.43237 0.04972 0.00558 0.0
H1490 H 0.44594 0.02125 0.97429 0.0
H1491 H 0.49197 0.99927 0.95057 0.0
H1492 H 0.60944 0.98717 0.966 0.0
H1493 H 0.59465 1.00951 -0.00151 0.0
C1494 C 0.52621 0.03129 0.01158 0.0
C1495 C 0.48952 0.04463 0.01616 0.0
C1496 C 0.53475 1.01689 -0.00673 0.0
C1497 C 0.46055 0.03931 0.00272 0.0
C1498 C 0.46858 0.02374 0.98465 0.0
C1499 C 0.51468 1.00154 0.9609 0.0
C1500 C 0.55216 0.99199 0.95554 0.0
C1501 C 0.50581 1.01379 0.97956 0.0
C1502 C 0.58064 0.99486 0.96945 0.0
C1503 C 0.57203 1.00725 -0.01189 0.0
H1504 H 0.28252 0.80034 0.2693 0.0
H1505 H 0.30955 0.6863 0.25287 0.0
H1506 H 0.2885 0.69999 0.22004 0.0
H1507 H 0.2639 0.74461 0.19607 0.0
H1508 H 0.23715 0.85866 0.21262 0.0
H1509 H 0.25815 0.84487 0.2454 0.0
C1510 C 0.28366 0.77813 0.25866 0.0
C1511 C 0.29757 0.74202 0.26377 0.0
C1512 C 0.27239 0.78654 0.23976 0.0
C1513 C 0.2987 0.71405 0.24957 0.0
C1514 C 0.287 0.72208 0.23072 0.0
C1515 C 0.2629 0.76678 0.20673 0.0
C1516 C 0.24905 0.80296 0.20165 0.0
C1517 C 0.27422 0.75834 0.22563 0.0
C1518 C 0.24797 0.83088 0.21588 0.0
C1519 C 0.25964 0.82281 0.2347 0.0
H1520 H 0.49537 0.03027 0.52266 0.0
H1521 H 0.60938 0.0578 0.5058 0.0
H1522 H 0.59544 0.03676 0.47303 0.0
H1523 H 0.55071 1.01202 0.44923 0.0
H1524 H 0.4367 0.98449 0.46609 0.0
H1525 H 0.45062 1.00561 0.49884 0.0
C1526 C 0.51751 0.03149 0.51193 0.0
C1527 C 0.5537 0.04552 0.51692 0.0
C1528 C 0.50896 1.02019 0.49305 0.0
C1529 C 0.58158 0.04682 0.50261 0.0
C1530 C 0.57341 0.03514 0.4838 0.0
C1531 C 0.52856 1.01083 0.45995 0.0
C1532 C 0.49238 0.99675 0.45497 0.0
C1533 C 0.5371 0.02218 0.47883 0.0
C1534 C 0.46448 0.9955 0.46927 0.0
C1535 C 0.47264 1.00723 0.48808 0.0
H1536 H 0.28211 0.29703 0.69895 0.0
H1537 H 0.31304 0.18414 0.71569 0.0
H1538 H 0.29386 0.19811 0.74877 0.0
H1539 H 0.26952 0.24252 0.77275 0.0
H1540 H 0.23802 0.35522 0.75593 0.0
H1541 H 0.2578 0.34143 0.72293 0.0
C1542 C 0.28452 0.27516 0.70973 0.0
C1543 C 0.29897 0.23928 0.70466 0.0
C1544 C 0.27417 0.28371 0.72873 0.0
C1545 C 0.30177 0.21169 0.71901 0.0
C1546 C 0.29112 0.21988 0.73797 0.0
C1547 C 0.2672 0.26441 0.76198 0.0
C1548 C 0.2524 0.30018 0.76701 0.0
C1549 C 0.27767 0.2559 0.74299 0.0
C1550 C 0.24964 0.32778 0.75266 0.0
C1551 C 0.26059 0.31968 0.73374 0.0
H1552 H 0.99209 0.03041 0.94648 0.0
H1553 H 0.10537 0.06246 0.96237 0.0
H1554 H 0.093 0.04195 -0.00464 0.0
H1555 H 0.04992 1.0163 0.01962 0.0
H1556 H 0.93669 0.98385 0.00387 0.0
H1557 H 0.94889 1.00456 0.97084 0.0
C1558 C 1.01439 0.03267 0.95705 0.0
C1559 C 0.04992 0.04784 0.95174 0.0
C1560 C 1.00675 0.02156 0.97608 0.0
C1561 C 0.07806 0.05062 0.96583 0.0
C1562 C 0.0708 0.0392 0.98477 0.0
C1563 C 0.02757 1.01393 0.00908 0.0
C1564 C 0.99213 0.99862 0.01443 0.0
C1565 C 0.03515 0.02503 -0.00993 0.0
C1566 C 0.96393 0.99582 0.00037 0.0
C1567 C 0.97111 1.00733 0.98141 0.0
H1568 H 0.7626 0.80204 0.76975 0.0
H1569 H 0.7311 0.68778 0.75633 0.0
H1570 H 0.75202 0.69723 0.72315 0.0
H1571 H 0.77813 0.73816 0.69806 0.0
H1572 H 0.81012 0.85235 0.7115 0.0
H1573 H 0.78882 0.84298 0.74464 0.0
C1574 C 0.76045 0.77892 0.75967 0.0
C1575 C 0.74525 0.74396 0.7657 0.0
C1576 C 0.77193 0.78488 0.74057 0.0
C1577 C 0.7428 0.71469 0.75227 0.0
C1578 C 0.75452 0.72028 0.73323 0.0
C1579 C 0.78028 0.76131 0.70812 0.0
C1580 C 0.79568 0.79618 0.7021 0.0
C1581 C 0.76877 0.75537 0.72721 0.0
C1582 C 0.79817 0.82548 0.71553 0.0
C1583 C 0.78627 0.81994 0.73455 0.0
H1584 H 0.7837 0.24395 0.27104 0.0
H1585 H 0.81003 0.35757 0.25356 0.0
H1586 H 0.78744 0.34317 0.2211 0.0
H1587 H 0.76178 0.29816 0.19781 0.0
H1588 H 0.7355 0.18455 0.21532 0.0
H1589 H 0.75808 0.19897 0.24778 0.0
C1590 C 0.78441 0.2659 0.26025 0.0
C1591 C 0.79856 0.30211 0.26494 0.0
C1592 C 0.77217 0.25712 0.24158 0.0
C1593 C 0.79905 0.32977 0.25057 0.0
C1594 C 0.78645 0.32134 0.23194 0.0
C1595 C 0.76111 0.27622 0.20861 0.0
C1596 C 0.74696 0.24001 0.20394 0.0
C1597 C 0.77335 0.28502 0.22728 0.0
C1598 C 0.74647 0.21236 0.21831 0.0
C1599 C 0.75907 0.22079 0.23693 0.0
H1600 H 0.69533 0.28685 0.73635 0.0
H1601 H 0.77864 0.34169 0.70087 0.0
H1602 H 0.82862 0.30565 0.71688 0.0
H1603 H 0.84808 0.25915 0.74103 0.0
H1604 H 0.76443 0.2046 0.77646 0.0
H1605 H 0.71465 0.24056 0.76039 0.0
C1606 C 0.72452 0.29158 0.73235 0.0
C1607 C 0.73335 0.31787 0.71781 0.0
C1608 C 0.75275 0.2706 0.74144 0.0
C1609 C 0.77114 0.32242 0.71228 0.0
C1610 C 0.79961 0.30163 0.72136 0.0
C1611 C 0.81887 0.2546 0.74505 0.0
C1612 C 0.80988 0.22846 0.75964 0.0
C1613 C 0.79064 0.27563 0.73591 0.0
C1614 C 0.77206 0.2239 0.76509 0.0
C1615 C 0.74368 0.24461 0.75596 0.0
H1616 H 0.76207 0.7445 0.27174 0.0
H1617 H 0.73345 0.85794 0.25484 0.0
H1618 H 0.75499 0.84422 0.22212 0.0
H1619 H 0.78048 0.79993 0.19844 0.0
H1620 H 0.80975 0.68665 0.21533 0.0
H1621 H 0.78779 0.70018 0.24802 0.0
C1622 C 0.7607 0.76654 0.261 0.0
C1623 C 0.7462 0.8025 0.26593 0.0
C1624 C 0.7724 0.75816 0.24218 0.0
C1625 C 0.74476 0.83032 0.25165 0.0
C1626 C 0.75674 0.82228 0.23288 0.0
C1627 C 0.7819 0.77786 0.20915 0.0
C1628 C 0.79668 0.74202 0.20423 0.0
C1629 C 0.77021 0.78621 0.22797 0.0
C1630 C 0.7982 0.71418 0.2185 0.0
C1631 C 0.786 0.72212 0.23726 0.0
H1632 H 0.49159 0.5224 0.02265 0.0
H1633 H 0.60382 0.4834 0.00876 0.0
H1634 H 0.59325 0.50011 0.97506 0.0
H1635 H 0.55184 0.52422 0.94968 0.0
H1636 H 0.43971 0.56353 0.9635 0.0
H1637 H 0.45008 0.5465 -0.0028 0.0
C1638 C 0.51407 0.51779 0.01236 0.0
C1639 C 0.54874 0.50177 0.01842 0.0
C1640 C 0.50737 0.52655 -0.00704 0.0
C1641 C 0.57717 0.496 0.00469 0.0
C1642 C 0.5709 0.50518 -0.01464 0.0
C1643 C 0.52933 0.52885 0.95995 0.0
C1644 C 0.49478 0.54507 0.95388 0.0
C1645 C 0.53596 0.52001 0.97933 0.0
C1646 C 0.46626 0.55075 0.96757 0.0
C1647 C 0.47244 0.54141 -0.01309 0.0
H1648 H 0.05217 0.5243 0.52316 0.0
H1649 H 0.93785 0.55079 0.50638 0.0
H1650 H 0.95184 0.52901 0.47372 0.0
H1651 H 0.99684 0.50449 0.44997 0.0
H1652 H 0.11136 0.47885 0.46669 0.0
H1653 H 0.09713 0.49984 0.49945 0.0
C1654 C 0.02996 0.52513 0.51249 0.0
C1655 C 0.9937 0.5391 0.51743 0.0
C1656 C 0.03856 0.51357 0.49368 0.0
C1657 C 0.9657 0.53985 0.5032 0.0
C1658 C 0.9739 0.52776 0.48445 0.0
C1659 C 1.019 0.5036 0.46068 0.0
C1660 C 0.05543 0.49012 0.45569 0.0
C1661 C 1.01034 0.51504 0.47951 0.0
C1662 C 0.08337 0.48933 0.46993 0.0
C1663 C 0.07505 0.50102 0.48872 0.0
H1664 H 0.04979 0.5973 0.98433 0.0
H1665 H 0.07947 0.51229 0.02591 0.0
H1666 H 0.03994 0.46666 0.0089 0.0
H1667 H 0.99677 0.45163 0.98255 0.0
H1668 H 0.96704 0.53663 0.94099 0.0
H1669 H 1.00685 0.58219 0.9579 0.0
C1670 C 0.04841 0.56851 -0.01056 0.0
C1671 C 0.06849 0.55786 0.00607 0.0
C1672 C 0.02503 0.54293 0.97988 0.0
C1673 C 0.06516 0.5209 0.01291 0.0
C1674 C 0.04223 0.49502 0.0033 0.0
C1675 C 0.9983 0.48039 0.9774 0.0
C1676 C 0.97808 0.49109 0.96083 0.0
C1677 C 1.02179 0.50592 -0.01308 0.0
C1678 C 0.98152 0.52798 0.95394 0.0
C1679 C 1.00458 0.55383 0.9635 0.0
H1680 H 0.55191 0.51345 0.52432 0.0
H1681 H 0.43899 0.48211 0.50738 0.0
H1682 H 0.45254 0.50311 0.47458 0.0
H1683 H 0.49663 0.52864 0.45083 0.0
H1684 H 0.60951 0.5603 0.46766 0.0
H1685 H 0.59612 0.53909 0.50049 0.0
C1686 C 0.52993 0.51143 0.51356 0.0
C1687 C 0.49418 0.49632 0.51849 0.0
C1688 C 0.5383 0.52266 0.49467 0.0
C1689 C 0.46643 0.49397 0.50419 0.0
C1690 C 0.47439 0.50559 0.48537 0.0
C1691 C 0.51865 0.53075 0.46156 0.0
C1692 C 0.5543 0.54602 0.4566 0.0
C1693 C 0.51034 0.51952 0.48044 0.0
C1694 C 0.58212 0.54835 0.47088 0.0
C1695 C 0.57424 0.53662 0.48971 0.0
H1696 H 0.30399 0.07868 0.32188 0.0
H1697 H 0.24736 0.13549 0.36816 0.0
H1698 H 0.28926 0.10536 0.3914 0.0
H1699 H 0.33182 0.05198 0.39872 0.0
H1700 H 0.38706 0.99379 0.35245 0.0
H1701 H 0.35705 0.0356 0.32915 0.0
C1702 C 0.30237 0.08616 0.33694 0.0
C1703 C 0.27307 0.11005 0.3432 0.0
C1704 C 0.32603 0.0677 0.35033 0.0
C1705 C 0.27028 0.11811 0.3629 0.0
C1706 C 0.2939 0.1003 0.37625 0.0
C1707 C 0.33904 0.04998 0.38363 0.0
C1708 C 0.36241 1.02026 0.37741 0.0
C1709 C 0.3206 0.07357 0.37021 0.0
C1710 C 0.37009 1.01701 0.35768 0.0
C1711 C 0.35234 0.04058 0.3443 0.0
H1712 H 0.27821 0.11639 0.60178 0.0
H1713 H 0.2501 0.08396 0.65955 0.0
H1714 H 0.20021 0.04274 0.64749 0.0
H1715 H 0.17447 1.00628 0.62018 0.0
H1716 H 0.20117 0.04001 0.56243 0.0
H1717 H 0.24092 0.09086 0.57467 0.0
C1718 C 0.25979 0.1018 0.61175 0.0
C1719 C 0.26757 0.10362 0.63158 0.0
C1720 C 0.23127 0.07784 0.60464 0.0
C1721 C 0.24414 0.08381 0.6443 0.0
C1722 C 0.21599 0.05969 0.63736 0.0
C1723 C 0.1874 0.02605 0.6103 0.0
C1724 C 0.18444 1.01962 0.59039 0.0
C1725 C 0.21053 0.05514 0.61751 0.0
C1726 C 0.20217 0.04486 0.57776 0.0
C1727 C 0.22548 0.07359 0.5848 0.0
H1728 H 0.20797 0.9954 0.89753 0.0
H1729 H 0.1596 0.05864 0.851 0.0
H1730 H 0.18827 1.01578 0.82776 0.0
H1731 H 0.23855 0.96941 0.82082 0.0
H1732 H 0.2894 0.90847 0.86737 0.0
H1733 H 0.24787 0.9399 0.89027 0.0
C1734 C 0.202 0.99847 0.88235 0.0
C1735 C 0.18093 0.02978 0.87605 0.0
C1736 C 0.21968 0.97417 0.86897 0.0
C1737 C 0.17486 0.03429 0.85626 0.0
C1738 C 0.19178 1.01003 0.84292 0.0
C1739 C 0.23883 0.96132 0.83582 0.0
C1740 C 0.26633 0.93552 0.84224 0.0
C1741 C 0.21577 0.98096 0.84907 0.0
C1742 C 0.26755 0.92686 0.86192 0.0
C1743 C 0.2443 0.94563 0.87511 0.0
H1744 H 0.30615 0.95604 0.14508 0.0
H1745 H 0.24208 0.91149 0.09789 0.0
H1746 H 0.28543 0.94072 0.07507 0.0
H1747 H 0.33188 0.99117 0.06893 0.0
H1748 H 0.39494 0.03713 0.11608 0.0
H1749 H 0.36293 0.99468 0.13833 0.0
C1750 C 0.30303 0.9509 0.12983 0.0
C1751 C 0.2712 0.93093 0.12325 0.0
C1752 C 0.32772 0.96882 0.11668 0.0
C1753 C 0.26676 0.92592 0.10336 0.0
C1754 C 0.29129 0.94319 0.09027 0.0
C1755 C 0.34042 0.99011 0.08387 0.0
C1756 C 0.36652 1.0169 0.09069 0.0
C1757 C 0.32072 0.96635 0.09675 0.0
C1758 C 0.37591 1.01617 0.1103 0.0
C1759 C 0.35689 0.99236 0.12314 0.0
H1760 H 0.73917 0.96077 0.64847 0.0
H1761 H 0.80077 0.90382 0.60401 0.0
H1762 H 0.76146 0.93329 0.57955 0.0
H1763 H 0.7204 0.98675 0.57088 0.0
H1764 H 0.66082 0.04645 0.61521 0.0
H1765 H 0.68777 1.00472 0.63955 0.0
C1766 C 0.74234 0.95309 0.63349 0.0
C1767 C 0.77196 0.92876 0.62813 0.0
C1768 C 0.72054 0.97176 0.6194 0.0
C1769 C 0.77699 0.92067 0.60857 0.0
C1770 C 0.75507 0.93845 0.59453 0.0
C1771 C 0.71167 0.98917 0.58574 0.0
C1772 C 0.68796 1.01914 0.59117 0.0
C1773 C 0.72811 0.96553 0.59973 0.0
C1774 C 0.67811 0.02296 0.61061 0.0
C1775 C 0.69406 0.99942 0.62458 0.0
H1776 H 0.83315 0.98983 0.39823 0.0
H1777 H 0.88907 0.04306 0.35073 0.0
H1778 H 0.85898 0.99982 0.32837 0.0
H1779 H 0.80476 0.95814 0.32191 0.0
H1780 H 0.74358 0.91081 0.36937 0.0
H1781 H 0.78768 0.93889 0.39197 0.0
C1782 C 0.84049 0.99031 0.38312 0.0
C1783 C 0.86456 1.01877 0.37626 0.0
C1784 C 0.82115 0.96657 0.37017 0.0
C1785 C 0.87222 1.02033 0.35648 0.0
C1786 C 0.85415 0.99611 0.3436 0.0
C1787 C 0.80259 0.95214 0.33713 0.0
C1788 C 0.77175 0.93099 0.34388 0.0
C1789 C 0.82696 0.9705 0.35017 0.0
C1790 C 0.76811 0.92519 0.36375 0.0
C1791 C 0.79287 0.94218 0.37674 0.0
H1792 H 0.87006 1.00771 0.11739 0.0
H1793 H 0.83992 0.0433 0.06039 0.0
H1794 H 0.80017 0.09323 0.0737 0.0
H1795 H 0.76408 0.11743 0.10159 0.0
H1796 H 0.79573 0.08327 0.1586 0.0
H1797 H 0.84538 0.04295 0.14542 0.0
C1798 C 0.85634 0.02768 0.1079 0.0
C1799 C 0.85837 0.02209 0.08789 0.0
C1800 C 0.83328 0.05629 0.11573 0.0
C1801 C 0.83961 0.04754 0.07578 0.0
C1802 C 0.81634 0.07576 0.08343 0.0
C1803 C 0.78323 0.10272 0.11114 0.0
C1804 C 0.77653 0.10379 0.1311 0.0
C1805 C 0.8116 0.07926 0.10338 0.0
C1806 C 0.80087 0.08373 0.14327 0.0
C1807 C 0.82888 0.06011 0.13568 0.0
H1808 H 0.67959 1.00283 0.84969 0.0
H1809 H 0.70448 0.04522 0.9061 0.0
H1810 H 0.74343 0.09501 0.8921 0.0
H1811 H 0.7809 0.11711 0.86427 0.0
H1812 H 0.7551 0.07559 0.80779 0.0
H1813 H 0.70539 0.0356 0.82115 0.0
C1814 C 0.69193 0.02422 0.85883 0.0
C1815 C 0.68873 1.02059 0.87894 0.0
C1816 C 0.71469 0.05259 0.85061 0.0
C1817 C 0.7057 0.04789 0.89063 0.0
C1818 C 0.72854 0.07602 0.8826 0.0
C1819 C 0.76301 0.1008 0.85479 0.0
C1820 C 0.77146 0.09966 0.835 0.0
C1821 C 0.7347 0.07748 0.86267 0.0
C1822 C 0.74866 0.07768 0.82295 0.0
C1823 C 0.72062 0.05427 0.83067 0.0
H1824 H 0.8109 0.58029 0.81972 0.0
H1825 H 0.7376 0.63263 0.86094 0.0
H1826 H 0.77412 0.60569 0.88723 0.0
H1827 H 0.81724 0.55512 0.89795 0.0
H1828 H 0.88958 0.50104 0.85675 0.0
H1829 H 0.86391 0.5406 0.83119 0.0
C1830 C 0.80443 0.58763 0.83446 0.0
C1831 C 0.77239 0.60997 0.83832 0.0
C1832 C 0.82497 0.57063 0.8496 0.0
C1833 C 0.76325 0.6175 0.85756 0.0
C1834 C 0.78363 0.60112 0.87264 0.0
C1835 C 0.82898 0.55364 0.88359 0.0
C1836 C 0.85601 0.52569 0.87941 0.0
C1837 C 0.81339 0.57611 0.86882 0.0
C1838 C 0.86971 0.52303 0.86051 0.0
C1839 C 0.85447 0.54527 0.84578 0.0
H1840 H 0.67362 0.5104 0.1194 0.0
H1841 H 0.70708 0.54387 0.06254 0.0
H1842 H 0.74863 0.59206 0.07599 0.0
H1843 H 0.78466 0.61537 0.1041 0.0
H1844 H 0.74949 0.58365 0.16095 0.0
H1845 H 0.69897 0.54491 0.14751 0.0
C1846 C 0.68848 0.52961 0.10996 0.0
C1847 C 0.6867 0.52393 0.08994 0.0
C1848 C 0.71257 0.55726 0.11787 0.0
C1849 C 0.70709 0.54829 0.07793 0.0
C1850 C 0.7314 0.57548 0.08566 0.0
C1851 C 0.76463 0.60157 0.11354 0.0
C1852 C 0.77046 0.60298 0.13356 0.0
C1853 C 0.73563 0.57909 0.10563 0.0
C1854 C 0.74503 0.58392 0.14558 0.0
C1855 C 0.71646 0.56121 0.13784 0.0
H1856 H 0.78137 0.42391 0.3683 0.0
H1857 H 0.75095 0.4608 0.31157 0.0
H1858 H 0.7024 0.50206 0.32505 0.0
H1859 H 0.67849 0.53701 0.35337 0.0
H1860 H 0.7076 0.4989 0.41008 0.0
H1861 H 0.74604 0.44835 0.39638 0.0
C1862 C 0.76267 0.43943 0.35886 0.0
C1863 C 0.76941 0.43878 0.3389 0.0
C1864 C 0.73499 0.46349 0.3668 0.0
C1865 C 0.74572 0.45995 0.32688 0.0
C1866 C 0.71836 0.48413 0.33465 0.0
C1867 C 0.69167 0.5164 0.36269 0.0
C1868 C 0.68969 0.5214 0.38276 0.0
C1869 C 0.71399 0.48744 0.35464 0.0
C1870 C 0.70783 0.49513 0.39466 0.0
C1871 C 0.73035 0.46654 0.38678 0.0
H1872 H 0.78296 0.40909 0.61076 0.0
H1873 H 0.79084 0.46491 0.66539 0.0
H1874 H 0.83615 0.50962 0.65192 0.0
H1875 H 0.86187 0.54074 0.62286 0.0
H1876 H 0.85371 0.48512 0.56816 0.0
H1877 H 0.82074 0.4323 0.5833 0.0
C1878 C 0.79633 0.42967 0.62001 0.0
C1879 C 0.78377 0.43318 0.63921 0.0
C1880 C 0.8216 0.45607 0.61193 0.0
C1881 C 0.80059 0.46077 0.65081 0.0
C1882 C 0.82594 0.48697 0.64293 0.0
C1883 C 0.85439 0.51623 0.61442 0.0
C1884 C 0.8606 0.51678 0.59437 0.0
C1885 C 0.83505 0.48606 0.62327 0.0
C1886 C 0.85006 0.48515 0.58359 0.0
C1887 C 0.83069 0.45513 0.59226 0.0
H1888 H 0.2892 0.42724 0.09998 0.0
H1889 H 0.2468 0.45214 0.15646 0.0
H1890 H 0.19607 0.48999 0.14251 0.0
H1891 H 0.17289 0.52658 0.11464 0.0
H1892 H 0.21418 0.50061 0.05809 0.0
H1893 H 0.25536 0.45192 0.07146 0.0
C1894 C 0.26764 0.43934 0.10916 0.0
C1895 C 0.27154 0.43644 0.12927 0.0
C1896 C 0.2386 0.46139 0.10097 0.0
C1897 C 0.24397 0.45311 0.14099 0.0
C1898 C 0.21526 0.47532 0.13298 0.0
C1899 C 0.18934 0.50878 0.10515 0.0
C1900 C 0.19002 0.51694 0.08533 0.0
C1901 C 0.21339 0.48109 0.11304 0.0
C1902 C 0.21233 0.49434 0.07328 0.0
C1903 C 0.23647 0.46692 0.08101 0.0
H1904 H 0.37055 0.53085 0.85318 0.0
H1905 H 0.33778 0.49696 0.91007 0.0
H1906 H 0.29668 0.44836 0.89668 0.0
H1907 H 0.26057 0.42497 0.86865 0.0
H1908 H 0.29496 0.45716 0.81174 0.0
H1909 H 0.34532 0.49625 0.82509 0.0
C1910 C 0.35603 0.5114 0.86263 0.0
C1911 C 0.35781 0.51708 0.88264 0.0
C1912 C 0.3321 0.48362 0.85475 0.0
C1913 C 0.33779 0.4925 0.89469 0.0
C1914 C 0.3137 0.4651 0.88699 0.0
C1915 C 0.28035 0.43903 0.85919 0.0
C1916 C 0.27436 0.43772 0.8392 0.0
C1917 C 0.30931 0.4616 0.86703 0.0
C1918 C 0.29954 0.45694 0.82711 0.0
C1919 C 0.32802 0.47979 0.83479 0.0
H1920 H 0.33258 0.54877 0.57176 0.0
H1921 H 0.3847 0.49013 0.6188 0.0
H1922 H 0.35519 0.5333 0.64163 0.0
H1923 H 0.30321 0.57786 0.64822 0.0
H1924 H 0.24884 0.63447 0.60121 0.0
H1925 H 0.29099 0.60322 0.57845 0.0
C1926 C 0.33914 0.54687 0.58693 0.0
C1927 C 0.36147 0.51673 0.59354 0.0
C1928 C 0.32097 0.57124 0.60005 0.0
C1929 C 0.36844 0.51363 0.61332 0.0
C1930 C 0.35105 0.53803 0.62642 0.0
C1931 C 0.30221 0.58507 0.63311 0.0
C1932 C 0.27343 0.60916 0.62648 0.0
C1933 C 0.32573 0.56573 0.62001 0.0
C1934 C 0.27137 0.61691 0.60673 0.0
C1935 C 0.29508 0.59842 0.59366 0.0
H1936 H 0.17501 0.51374 0.352 0.0
H1937 H 0.20894 0.54455 0.40915 0.0
H1938 H 0.24831 0.59507 0.39619 0.0
H1939 H 0.28323 0.62068 0.36826 0.0
H1940 H 0.24821 0.59099 0.31114 0.0
H1941 H 0.1986 0.55064 0.32428 0.0
C1942 C 0.18942 0.53288 0.36165 0.0
C1943 C 0.1886 0.52567 0.38157 0.0
C1944 C 0.2124 0.56172 0.35401 0.0
C1945 C 0.20827 0.55003 0.39386 0.0
C1946 C 0.23137 0.57855 0.38639 0.0
C1947 C 0.26338 0.60699 0.35871 0.0
C1948 C 0.26914 0.60931 0.3387 0.0
C1949 C 0.23506 0.58345 0.36645 0.0
C1950 C 0.24385 0.59052 0.32652 0.0
C1951 C 0.21584 0.56686 0.33408 0.0
H1952 H 0.20642 1.01528 0.27314 0.0
H1953 H 0.20283 0.12164 0.24295 0.0
H1954 H 0.20811 0.08788 0.21241 0.0
H1955 H 0.20883 0.02894 0.19481 0.0
H1956 H 0.20585 0.92255 0.22499 0.0
H1957 H 0.2084 0.9564 0.25556 0.0
C1958 C 0.20694 0.03149 0.25996 0.0
C1959 C 0.20395 0.07122 0.2604 0.0
C1960 C 0.20874 1.01196 0.24263 0.0
C1961 C 0.20509 0.09125 0.24308 0.0
C1962 C 0.20796 0.07192 0.22566 0.0
C1963 C 0.20904 1.01274 0.20799 0.0
C1964 C 0.207 0.97296 0.20753 0.0
C1965 C 0.20908 0.03232 0.22534 0.0
C1966 C 0.20749 0.95297 0.22487 0.0
C1967 C 0.20874 0.97236 0.24231 0.0
H1968 H 0.27974 0.93969 0.52659 0.0
H1969 H 0.17446 0.957 0.49648 0.0
H1970 H 0.20945 0.96565 0.46652 0.0
H1971 H 0.26875 0.96486 0.44908 0.0
H1972 H 0.37352 0.94165 0.4786 0.0
H1973 H 0.33937 0.9402 0.50918 0.0
C1974 C 0.26417 0.94576 0.51357 0.0
C1975 C 0.22431 0.94789 0.51383 0.0
C1976 C 0.28433 0.94995 0.49648 0.0
C1977 C 0.20496 0.9553 0.49671 0.0
C1978 C 0.22499 0.96028 0.47962 0.0
C1979 C 0.28448 0.95971 0.46216 0.0
C1980 C 0.32379 0.95302 0.46149 0.0
C1981 C 0.26456 0.95723 0.47938 0.0
C1982 C 0.34343 0.94699 0.47868 0.0
C1983 C 0.32383 0.9458 0.4961 0.0
H1984 H 0.35463 1.01399 0.69447 0.0
H1985 H 0.33948 0.11989 0.72406 0.0
H1986 H 0.33211 0.08596 0.75436 0.0
H1987 H 0.3321 0.02737 0.77209 0.0
H1988 H 0.35191 0.92162 0.74307 0.0
H1989 H 0.35405 0.95498 0.7123 0.0
C1990 C 0.34937 0.02991 0.70746 0.0
C1991 C 0.34733 0.06961 0.70695 0.0
C1992 C 0.34569 1.01033 0.72473 0.0
C1993 C 0.34105 0.08947 0.72403 0.0
C1994 C 0.33678 0.07006 0.74131 0.0
C1995 C 0.33671 1.01123 0.7591 0.0
C1996 C 0.34205 0.97186 0.75994 0.0
C1997 C 0.33929 0.0306 0.74176 0.0
C1998 C 0.34757 0.95178 0.74285 0.0
C1999 C 0.34911 0.9709 0.72532 0.0
H2000 H 0.26643 0.07183 0.9501 0.0
H2001 H 0.16573 0.11156 0.97872 0.0
H2002 H 0.20118 0.11644 0.00881 0.0
H2003 H 0.26142 0.11518 0.0257 0.0
H2004 H 0.3632 0.08071 -0.00371 0.0
H2005 H 0.32642 0.06999 0.96702 0.0
C2006 C 0.25189 0.08127 0.96293 0.0
C2007 C 0.21338 0.09163 0.96211 0.0
C2008 C 0.27282 0.08604 0.9797 0.0
C2009 C 0.19512 0.10316 0.97896 0.0
C2010 C 0.21555 0.1065 -0.00395 0.0
C2011 C 0.27576 0.10498 0.01296 0.0
C2012 C 0.31511 0.09836 0.01322 0.0
C2013 C 0.25456 0.09902 -0.00364 0.0
C2014 C 0.33309 0.086 -0.00354 0.0
C2015 C 0.31201 0.07961 0.97983 0.0
H2016 H 0.81198 1.00045 0.70483 0.0
H2017 H 0.87068 0.90451 0.7283 0.0
H2018 H 0.87968 0.93861 0.7586 0.0
H2019 H 0.87831 0.99883 0.77632 0.0
H2020 H 0.8278 0.09664 0.74988 0.0
H2021 H 0.80999 0.05909 0.72214 0.0
C2022 C 0.82634 0.98667 0.71667 0.0
C2023 C 0.84114 0.95027 0.7143 0.0
C2024 C 0.83413 1.00732 0.73312 0.0
C2025 C 0.8589 0.93247 0.72983 0.0
C2026 C 0.86466 0.95223 0.74697 0.0
C2027 C 0.86331 1.0118 0.76448 0.0
C2028 C 0.85447 0.0504 0.76504 0.0
C2029 C 0.85378 0.9902 0.74841 0.0
C2030 C 0.83529 0.06708 0.74964 0.0
C2031 C 0.82474 0.04558 0.7339 0.0
H2032 H 0.77159 0.07048 0.51945 0.0
H2033 H 0.67233 0.11461 0.49141 0.0
H2034 H 0.7074 0.11789 0.46106 0.0
H2035 H 0.76732 0.11512 0.44411 0.0
H2036 H 0.86819 0.07612 0.47286 0.0
H2037 H 0.83125 0.06581 0.50217 0.0
C2038 C 0.75738 0.08045 0.50663 0.0
C2039 C 0.71951 0.09274 0.50764 0.0
C2040 C 0.77821 0.0843 0.48978 0.0
C2041 C 0.70128 0.10483 0.49093 0.0
C2042 C 0.72153 0.10726 0.47374 0.0
C2043 C 0.7815 0.10397 0.45667 0.0
C2044 C 0.82065 0.09614 0.45625 0.0
C2045 C 0.76024 0.09826 0.47326 0.0
C2046 C 0.83829 0.08243 0.47282 0.0
C2047 C 0.81711 0.07629 0.48946 0.0
H2048 H 0.70747 0.02684 0.27342 0.0
H2049 H 0.69318 0.92097 0.24369 0.0
H2050 H 0.69389 0.95455 0.21299 0.0
H2051 H 0.69419 1.01344 0.19532 0.0
H2052 H 0.70372 0.11963 0.22526 0.0
H2053 H 0.70874 0.08563 0.25572 0.0
C2054 C 0.7047 1.01072 0.26029 0.0
C2055 C 0.70008 0.97123 0.26091 0.0
C2056 C 0.70389 0.0302 0.24292 0.0
C2057 C 0.69688 0.95122 0.24366 0.0
C2058 C 0.69704 0.97045 0.22615 0.0
C2059 C 0.69772 0.0295 0.20842 0.0
C2060 C 0.69871 0.06927 0.20796 0.0
C2061 C 0.69986 1.00992 0.22573 0.0
C2062 C 0.70295 0.08917 0.22518 0.0
C2063 C 0.7058 0.06972 0.24255 0.0
H2064 H 0.77013 0.95557 0.02214 0.0
H2065 H 0.87596 0.943 -0.00817 0.0
H2066 H 0.84182 0.94302 0.96132 0.0
H2067 H 0.78242 0.94189 0.9439 0.0
H2068 H 0.67635 0.94993 0.97441 0.0
H2069 H 0.71081 0.95617 0.00465 0.0
C2070 C 0.78607 0.95311 0.00892 0.0
C2071 C 0.82575 0.94907 0.00933 0.0
C2072 C 0.76628 0.95196 -0.00838 0.0
C2073 C 0.84557 0.94623 -0.00804 0.0
C2074 C 0.82602 0.946 0.97455 0.0
C2075 C 0.76652 0.94522 0.95709 0.0
C2076 C 0.72663 0.94528 0.95684 0.0
C2077 C 0.78639 0.94809 0.97431 0.0
C2078 C 0.70691 0.94976 0.97415 0.0
C2079 C 0.72662 0.95329 -0.00859 0.0
H2080 H 0.64235 0.5577 0.75778 0.0
H2081 H 0.73485 0.62555 0.7376 0.0
H2082 H 0.73443 0.59111 0.70689 0.0
H2083 H 0.71325 0.53522 0.68807 0.0
H2084 H 0.62686 0.46327 0.71173 0.0
H2085 H 0.61978 0.5052 0.7391 0.0
C2086 C 0.66197 0.56546 0.74647 0.0
C2087 C 0.68862 0.59389 0.7498 0.0
C2088 C 0.66318 0.54405 0.72976 0.0
C2089 C 0.71385 0.60398 0.73519 0.0
C2090 C 0.71392 0.58387 0.71782 0.0
C2091 C 0.69264 0.5292 0.69916 0.0
C2092 C 0.67071 0.49624 0.69805 0.0
C2093 C 0.68966 0.55285 0.71528 0.0
C2094 C 0.64427 0.48829 0.71246 0.0
C2095 C 0.64007 0.51231 0.72803 0.0
H2096 H 0.75193 0.42798 0.94593 0.0
H2097 H 0.85623 0.45672 0.97457 0.0
H2098 H 0.82154 0.46723 0.00436 0.0
H2099 H 0.76286 0.46545 0.02227 0.0
H2100 H 0.65906 0.4326 -0.00553 0.0
H2101 H 0.69253 0.42821 0.96377 0.0
C2102 C 0.76725 0.43662 0.95864 0.0
C2103 C 0.80675 0.44138 0.95802 0.0
C2104 C 0.74723 0.44246 0.97566 0.0
C2105 C 0.82593 0.45269 0.97465 0.0
C2106 C 0.80611 0.45886 -0.00835 0.0
C2107 C 0.74729 0.45756 0.0095 0.0
C2108 C 0.70856 0.44886 0.01068 0.0
C2109 C 0.76689 0.45353 -0.00772 0.0
C2110 C 0.68881 0.43949 -0.00607 0.0
C2111 C 0.70803 0.43655 0.97646 0.0
H2112 H 0.86192 0.52954 0.27635 0.0
H2113 H 0.83799 0.42601 0.2461 0.0
H2114 H 0.83 0.4618 0.21634 0.0
H2115 H 0.83241 0.52123 0.19921 0.0
H2116 H 0.86157 0.62397 0.22888 0.0
H2117 H 0.86307 0.58925 0.25929 0.0
C2118 C 0.85463 0.5145 0.26334 0.0
C2119 C 0.85043 0.47494 0.26348 0.0
C2120 C 0.85052 0.53509 0.24643 0.0
C2121 C 0.84141 0.45628 0.24639 0.0
C2122 C 0.83671 0.47676 0.22944 0.0
C2123 C 0.83898 0.53634 0.21231 0.0
C2124 C 0.8474 0.57519 0.21175 0.0
C2125 C 0.84151 0.51603 0.22936 0.0
C2126 C 0.85496 0.59422 0.22892 0.0
C2127 C 0.85622 0.57428 0.24621 0.0
H2128 H 0.77974 0.59665 0.4478 0.0
H2129 H 0.67327 0.59606 0.47821 0.0
H2130 H 0.70732 0.58987 0.50862 0.0
H2131 H 0.76667 0.5885 0.52623 0.0
H2132 H 0.87305 0.59335 0.49585 0.0
H2133 H 0.83895 0.59352 0.46532 0.0
C2134 C 0.76361 0.59501 0.461 0.0
C2135 C 0.72374 0.59703 0.46065 0.0
C2136 C 0.7833 0.5922 0.47831 0.0
C2137 C 0.70379 0.59459 0.478 0.0
C2138 C 0.72329 0.59113 0.49536 0.0
C2139 C 0.78272 0.58933 0.51299 0.0
C2140 C 0.8226 0.59112 0.51341 0.0
C2141 C 0.76299 0.59046 0.49564 0.0
C2142 C 0.84252 0.59188 0.49601 0.0
C2143 C 0.823 0.59219 0.47858 0.0
H2144 H 0.34814 0.51542 0.27463 0.0
H2145 H 0.33706 0.62032 0.24363 0.0
H2146 H 0.33067 0.5851 0.21362 0.0
H2147 H 0.33122 0.52554 0.19653 0.0
H2148 H 0.34724 0.421 0.22729 0.0
H2149 H 0.34791 0.45582 0.25759 0.0
C2150 C 0.34393 0.53092 0.2614 0.0
C2151 C 0.34283 0.5707 0.26145 0.0
C2152 C 0.34103 0.51064 0.24433 0.0
C2153 C 0.33784 0.58988 0.24405 0.0
C2154 C 0.33421 0.56973 0.22693 0.0
C2155 C 0.33442 0.50997 0.20981 0.0
C2156 C 0.33907 0.47045 0.20959 0.0
C2157 C 0.3361 0.53019 0.22696 0.0
C2158 C 0.34337 0.45122 0.22702 0.0
C2159 C 0.344 0.47117 0.2443 0.0
H2160 H 0.28287 0.57655 0.95076 0.0
H2161 H 0.38563 0.61643 0.97697 0.0
H2162 H 0.35318 0.62059 0.00806 0.0
H2163 H 0.29366 0.61886 0.02667 0.0
H2164 H 0.19077 0.58407 -0.00154 0.0
H2165 H 0.2253 0.5732 0.96893 0.0
C2166 C 0.29844 0.58597 0.96327 0.0
C2167 C 0.33642 0.59669 0.96155 0.0
C2168 C 0.27937 0.59 0.98058 0.0
C2169 C 0.35634 0.60798 0.97797 0.0
C2170 C 0.33768 0.61078 -0.00435 0.0
C2171 C 0.27891 0.60868 0.01408 0.0
C2172 C 0.2397 0.60248 0.01475 0.0
C2173 C 0.29888 0.60289 -0.00305 0.0
C2174 C 0.22087 0.58943 -0.00168 0.0
C2175 C 0.24058 0.58296 0.98144 0.0
H2176 H 0.2205 0.5146 0.69719 0.0
H2177 H 0.19699 0.61863 0.72716 0.0
H2178 H 0.19508 0.58409 0.75751 0.0
H2179 H 0.19399 0.52489 0.77445 0.0
H2180 H 0.21129 0.41979 0.74433 0.0
H2181 H 0.22095 0.45503 0.71445 0.0
C2182 C 0.21525 0.53007 0.71033 0.0
C2183 C 0.20853 0.56931 0.70985 0.0
C2184 C 0.21243 0.50989 0.72743 0.0
C2185 C 0.20235 0.58862 0.72709 0.0
C2186 C 0.20089 0.5688 0.74438 0.0
C2187 C 0.20012 0.50921 0.76147 0.0
C2188 C 0.20186 0.46943 0.76168 0.0
C2189 C 0.20486 0.52943 0.74454 0.0
C2190 C 0.20976 0.45021 0.7446 0.0
C2191 C 0.21531 0.47038 0.72758 0.0
H2192 H 0.28364 0.43571 0.44442 0.0
H2193 H 0.17921 0.45866 0.47438 0.0
H2194 H 0.21448 0.46648 0.5043 0.0
H2195 H 0.27372 0.46442 0.52164 0.0
H2196 H 0.37746 0.43552 0.49244 0.0
H2197 H 0.34333 0.43435 0.46183 0.0
C2198 C 0.26838 0.44286 0.45741 0.0
C2199 C 0.22869 0.44696 0.45714 0.0
C2200 C 0.2887 0.44676 0.47445 0.0
C2201 C 0.20959 0.45545 0.4742 0.0
C2202 C 0.22978 0.46005 0.49124 0.0
C2203 C 0.28922 0.45801 0.50862 0.0
C2204 C 0.32818 0.44966 0.50937 0.0
C2205 C 0.26921 0.45552 0.49146 0.0
C2206 C 0.34763 0.44219 0.49226 0.0
C2207 C 0.32801 0.44108 0.47485 0.0
loop_
_geom_bond_atom_site_label_1
_geom_bond_atom_site_label_2
_geom_bond_distance
_geom_bond_site_symmetry_2
_ccdc_geom_bond_type
O0 Mn1 2.163 . S
O0 C14 1.244 . S
Mn1 O0 2.163 . S
Mn1 O4 2.160 . S
Mn1 O5 2.221 . S
Mn1 O7 2.163 . S
Mn1 O9 2.160 . S
Mn1 O19 2.221 . S
O2 Mn3 2.087 . S
O2 C14 1.256 . S
Mn3 O2 2.087 . S
Mn3 O10 2.089 . S
Mn3 O19 2.290 . S
Mn3 O20 2.251 . S
O4 Mn1 2.160 . S
O4 C15 1.239 . S
O5 Mn1 2.221 . S
O5 Mn6 2.290 . S
O5 C16 1.278 . S
Mn6 O5 2.290 . S
Mn6 O8 2.089 . S
Mn6 O11 2.251 . S
Mn6 O12 2.087 . S
O7 Mn1 2.163 . S
O7 C17 1.244 . S
O8 Mn6 2.089 . S
O8 C15 1.256 . S
O9 Mn1 2.160 . S
O9 C18 1.239 . S
O10 Mn3 2.089 . S
O10 C18 1.256 . S
O11 Mn6 2.251 . S
O11 C16 1.241 . S
O12 Mn6 2.087 . S
O12 C17 1.256 . S
C13 O19 1.278 . S
C13 O20 1.241 . S
C14 O0 1.244 . S
C14 O2 1.256 . S
C15 O4 1.239 . S
C15 O8 1.256 . S
C16 O5 1.278 . S
C16 O11 1.241 . S
C17 O7 1.244 . S
C17 O12 1.256 . S
C18 O9 1.239 . S
C18 O10 1.256 . S
O19 Mn1 2.221 . S
O19 Mn3 2.290 . S
O19 C13 1.278 . S
O20 Mn3 2.251 . S
O20 C13 1.241 . S
O21 Mn22 2.163 . S
O21 C35 1.244 . S
Mn22 O21 2.163 . S
Mn22 O25 2.160 . S
Mn22 O26 2.221 . S
Mn22 O28 2.163 . S
Mn22 O30 2.160 . S
Mn22 O40 2.221 . S
O23 Mn24 2.087 . S
O23 C35 1.256 . S
Mn24 O23 2.087 . S
Mn24 O31 2.089 . S
Mn24 O40 2.290 . S
Mn24 O41 2.251 . S
O25 Mn22 2.160 . S
O25 C36 1.239 . S
O26 Mn22 2.221 . S
O26 Mn27 2.290 . S
O26 C37 1.278 . S
Mn27 O26 2.290 . S
Mn27 O29 2.089 . S
Mn27 O32 2.251 . S
Mn27 O33 2.087 . S
O28 Mn22 2.163 . S
O28 C38 1.244 . S
O29 Mn27 2.089 . S
O29 C36 1.256 . S
O30 Mn22 2.160 . S
O30 C39 1.239 . S
O31 Mn24 2.089 . S
O31 C39 1.255 . S
O32 Mn27 2.251 . S
O32 C37 1.241 . S
O33 Mn27 2.087 . S
O33 C38 1.256 . S
C34 O40 1.278 . S
C34 O41 1.241 . S
C35 O21 1.244 . S
C35 O23 1.256 . S
C36 O25 1.239 . S
C36 O29 1.256 . S
C37 O26 1.278 . S
C37 O32 1.241 . S
C38 O28 1.244 . S
C38 O33 1.256 . S
C39 O30 1.239 . S
C39 O31 1.255 . S
O40 Mn22 2.221 . S
O40 Mn24 2.290 . S
O40 C34 1.278 . S
O41 Mn24 2.251 . S
O41 C34 1.241 . S
O42 Mn43 2.163 . S
O42 C56 1.244 . S
Mn43 O42 2.163 . S
Mn43 O46 2.160 . S
Mn43 O47 2.221 . S
Mn43 O49 2.163 . S
Mn43 O51 2.160 . S
Mn43 O61 2.221 . S
O44 Mn45 2.087 . S
O44 C56 1.256 . S
Mn45 O44 2.087 . S
Mn45 O52 2.089 . S
Mn45 O61 2.290 . S
Mn45 O62 2.251 . S
O46 Mn43 2.160 . S
O46 C57 1.239 . S
O47 Mn43 2.221 . S
O47 Mn48 2.290 . S
O47 C58 1.278 . S
Mn48 O47 2.290 . S
Mn48 O50 2.089 . S
Mn48 O53 2.251 . S
Mn48 O54 2.087 . S
O49 Mn43 2.163 . S
O49 C59 1.244 . S
O50 Mn48 2.089 . S
O50 C57 1.256 . S
O51 Mn43 2.160 . S
O51 C60 1.239 . S
O52 Mn45 2.089 . S
O52 C60 1.256 . S
O53 Mn48 2.251 . S
O53 C58 1.241 . S
O54 Mn48 2.087 . S
O54 C59 1.256 . S
C55 O61 1.278 . S
C55 O62 1.241 . S
C56 O42 1.244 . S
C56 O44 1.256 . S
C57 O46 1.239 . S
C57 O50 1.256 . S
C58 O47 1.278 . S
C58 O53 1.241 . S
C59 O49 1.244 . S
C59 O54 1.256 . S
C60 O51 1.239 . S
C60 O52 1.256 . S
O61 Mn43 2.221 . S
O61 Mn45 2.290 . S
O61 C55 1.278 . S
O62 Mn45 2.251 . S
O62 C55 1.241 . S
O63 Mn64 2.163 . S
O63 C77 1.244 . S
Mn64 O63 2.163 . S
Mn64 O67 2.160 . S
Mn64 O68 2.221 . S
Mn64 O70 2.163 . S
Mn64 O72 2.160 . S
Mn64 O82 2.221 . S
O65 Mn66 2.087 . S
O65 C77 1.256 . S
Mn66 O65 2.087 . S
Mn66 O73 2.089 . S
Mn66 O82 2.290 . S
Mn66 O83 2.251 . S
O67 Mn64 2.160 . S
O67 C78 1.239 . S
O68 Mn64 2.221 . S
O68 Mn69 2.290 . S
O68 C79 1.278 . S
Mn69 O68 2.290 . S
Mn69 O71 2.089 . S
Mn69 O74 2.251 . S
Mn69 O75 2.087 . S
O70 Mn64 2.163 . S
O70 C80 1.244 . S
O71 Mn69 2.089 . S
O71 C78 1.256 . S
O72 Mn64 2.160 . S
O72 C81 1.239 . S
O73 Mn66 2.089 . S
O73 C81 1.256 . S
O74 Mn69 2.251 . S
O74 C79 1.241 . S
O75 Mn69 2.087 . S
O75 C80 1.256 . S
C76 O82 1.278 . S
C76 O83 1.241 . S
C77 O63 1.244 . S
C77 O65 1.256 . S
C78 O67 1.239 . S
C78 O71 1.256 . S
C79 O68 1.278 . S
C79 O74 1.241 . S
C80 O70 1.244 . S
C80 O75 1.256 . S
C81 O72 1.239 . S
C81 O73 1.256 . S
O82 Mn64 2.221 . S
O82 Mn66 2.290 . S
O82 C76 1.278 . S
O83 Mn66 2.251 . S
O83 C76 1.241 . S
O84 Mn85 2.163 . S
O84 C98 1.244 . S
Mn85 O84 2.163 . S
Mn85 O88 2.160 . S
Mn85 O89 2.221 . S
Mn85 O91 2.163 . S
Mn85 O93 2.160 . S
Mn85 O103 2.221 . S
O86 Mn87 2.087 . S
O86 C98 1.256 . S
Mn87 O86 2.087 . S
Mn87 O94 2.089 . S
Mn87 O103 2.290 . S
Mn87 O104 2.251 . S
O88 Mn85 2.160 . S
O88 C99 1.239 . S
O89 Mn85 2.221 . S
O89 Mn90 2.290 . S
O89 C100 1.278 . S
Mn90 O89 2.290 . S
Mn90 O92 2.089 . S
Mn90 O95 2.251 . S
Mn90 O96 2.087 . S
O91 Mn85 2.163 . S
O91 C101 1.244 . S
O92 Mn90 2.089 . S
O92 C99 1.256 . S
O93 Mn85 2.160 . S
O93 C102 1.239 . S
O94 Mn87 2.089 . S
O94 C102 1.256 . S
O95 Mn90 2.251 . S
O95 C100 1.241 . S
O96 Mn90 2.087 . S
O96 C101 1.256 . S
C97 O103 1.278 . S
C97 O104 1.241 . S
C98 O84 1.244 . S
C98 O86 1.256 . S
C99 O88 1.239 . S
C99 O92 1.256 . S
C100 O89 1.278 . S
C100 O95 1.241 . S
C101 O91 1.244 . S
C101 O96 1.256 . S
C102 O93 1.239 . S
C102 O94 1.256 . S
O103 Mn85 2.221 . S
O103 Mn87 2.290 . S
O103 C97 1.278 . S
O104 Mn87 2.251 . S
O104 C97 1.241 . S
O105 Mn106 2.163 . S
O105 C119 1.244 . S
Mn106 O105 2.163 . S
Mn106 O109 2.160 . S
Mn106 O110 2.221 . S
Mn106 O112 2.163 . S
Mn106 O114 2.160 . S
Mn106 O124 2.221 . S
O107 Mn108 2.087 . S
O107 C119 1.256 . S
Mn108 O107 2.087 . S
Mn108 O115 2.089 . S
Mn108 O124 2.290 . S
Mn108 O125 2.251 . S
O109 Mn106 2.160 . S
O109 C120 1.239 . S
O110 Mn106 2.221 . S
O110 Mn111 2.290 . S
O110 C121 1.278 . S
Mn111 O110 2.290 . S
Mn111 O113 2.089 . S
Mn111 O116 2.251 . S
Mn111 O117 2.087 . S
O112 Mn106 2.163 . S
O112 C122 1.244 . S
O113 Mn111 2.089 . S
O113 C120 1.256 . S
O114 Mn106 2.160 . S
O114 C123 1.239 . S
O115 Mn108 2.089 . S
O115 C123 1.256 . S
O116 Mn111 2.251 . S
O116 C121 1.241 . S
O117 Mn111 2.087 . S
O117 C122 1.256 . S
C118 O124 1.278 . S
C118 O125 1.241 . S
C119 O105 1.244 . S
C119 O107 1.256 . S
C120 O109 1.239 . S
C120 O113 1.256 . S
C121 O110 1.278 . S
C121 O116 1.241 . S
C122 O112 1.244 . S
C122 O117 1.256 . S
C123 O114 1.239 . S
C123 O115 1.256 . S
O124 Mn106 2.221 . S
O124 Mn108 2.290 . S
O124 C118 1.278 . S
O125 Mn108 2.251 . S
O125 C118 1.241 . S
O126 Mn127 2.163 . S
O126 C140 1.244 . S
Mn127 O126 2.163 . S
Mn127 O130 2.160 . S
Mn127 O131 2.221 . S
Mn127 O133 2.163 . S
Mn127 O135 2.160 . S
Mn127 O145 2.221 . S
O128 Mn129 2.087 . S
O128 C140 1.256 . S
Mn129 O128 2.087 . S
Mn129 O136 2.089 . S
Mn129 O145 2.290 . S
Mn129 O146 2.251 . S
O130 Mn127 2.160 . S
O130 C141 1.239 . S
O131 Mn127 2.221 . S
O131 Mn132 2.290 . S
O131 C142 1.278 . S
Mn132 O131 2.290 . S
Mn132 O134 2.089 . S
Mn132 O137 2.251 . S
Mn132 O138 2.087 . S
O133 Mn127 2.163 . S
O133 C143 1.244 . S
O134 Mn132 2.089 . S
O134 C141 1.256 . S
O135 Mn127 2.160 . S
O135 C144 1.239 . S
O136 Mn129 2.089 . S
O136 C144 1.256 . S
O137 Mn132 2.251 . S
O137 C142 1.241 . S
O138 Mn132 2.087 . S
O138 C143 1.256 . S
C139 O145 1.278 . S
C139 O146 1.241 . S
C140 O126 1.244 . S
C140 O128 1.256 . S
C141 O130 1.239 . S
C141 O134 1.256 . S
C142 O131 1.278 . S
C142 O137 1.241 . S
C143 O133 1.244 . S
C143 O138 1.256 . S
C144 O135 1.239 . S
C144 O136 1.256 . S
O145 Mn127 2.221 . S
O145 Mn129 2.290 . S
O145 C139 1.278 . S
O146 Mn129 2.251 . S
O146 C139 1.241 . S
O147 Mn148 2.163 . S
O147 C161 1.244 . S
Mn148 O147 2.163 . S
Mn148 O151 2.160 . S
Mn148 O152 2.221 . S
Mn148 O154 2.163 . S
Mn148 O156 2.160 . S
Mn148 O166 2.221 . S
O149 Mn150 2.087 . S
O149 C161 1.256 . S
Mn150 O149 2.087 . S
Mn150 O157 2.089 . S
Mn150 O166 2.290 . S
Mn150 O167 2.251 . S
O151 Mn148 2.160 . S
O151 C162 1.239 . S
O152 Mn148 2.221 . S
O152 Mn153 2.290 . S
O152 C163 1.278 . S
Mn153 O152 2.290 . S
Mn153 O155 2.089 . S
Mn153 O158 2.251 . S
Mn153 O159 2.087 . S
O154 Mn148 2.163 . S
O154 C164 1.244 . S
O155 Mn153 2.089 . S
O155 C162 1.256 . S
O156 Mn148 2.160 . S
O156 C165 1.239 . S
O157 Mn150 2.089 . S
O157 C165 1.255 . S
O158 Mn153 2.251 . S
O158 C163 1.241 . S
O159 Mn153 2.087 . S
O159 C164 1.256 . S
C160 O166 1.278 . S
C160 O167 1.241 . S
C161 O147 1.244 . S
C161 O149 1.256 . S
C162 O151 1.239 . S
C162 O155 1.256 . S
C163 O152 1.278 . S
C163 O158 1.241 . S
C164 O154 1.244 . S
C164 O159 1.256 . S
C165 O156 1.239 . S
C165 O157 1.255 . S
O166 Mn148 2.221 . S
O166 Mn150 2.290 . S
O166 C160 1.278 . S
O167 Mn150 2.251 . S
O167 C160 1.241 . S
O168 Mn169 2.163 . S
O168 C182 1.244 . S
Mn169 O168 2.163 . S
Mn169 O172 2.160 . S
Mn169 O173 2.221 . S
Mn169 O175 2.163 . S
Mn169 O177 2.160 . S
Mn169 O187 2.221 . S
O170 Mn171 2.087 . S
O170 C182 1.256 . S
Mn171 O170 2.087 . S
Mn171 O178 2.089 . S
Mn171 O187 2.290 . S
Mn171 O188 2.251 . S
O172 Mn169 2.160 . S
O172 C183 1.239 . S
O173 Mn169 2.221 . S
O173 Mn174 2.290 . S
O173 C184 1.278 . S
Mn174 O173 2.290 . S
Mn174 O176 2.089 . S
Mn174 O179 2.251 . S
Mn174 O180 2.087 . S
O175 Mn169 2.163 . S
O175 C185 1.244 . S
O176 Mn174 2.089 . S
O176 C183 1.256 . S
O177 Mn169 2.160 . S
O177 C186 1.239 . S
O178 Mn171 2.089 . S
O178 C186 1.256 . S
O179 Mn174 2.251 . S
O179 C184 1.241 . S
O180 Mn174 2.087 . S
O180 C185 1.256 . S
C181 O187 1.278 . S
C181 O188 1.241 . S
C182 O168 1.244 . S
C182 O170 1.256 . S
C183 O172 1.239 . S
C183 O176 1.256 . S
C184 O173 1.278 . S
C184 O179 1.241 . S
C185 O175 1.244 . S
C185 O180 1.256 . S
C186 O177 1.239 . S
C186 O178 1.256 . S
O187 Mn169 2.221 . S
O187 Mn171 2.290 . S
O187 C181 1.278 . S
O188 Mn171 2.251 . S
O188 C181 1.241 . S
O189 Mn190 2.163 . S
O189 C203 1.244 . S
Mn190 O189 2.163 . S
Mn190 O193 2.160 . S
Mn190 O194 2.221 . S
Mn190 O196 2.163 . S
Mn190 O198 2.160 . S
Mn190 O208 2.221 . S
O191 Mn192 2.087 . S
O191 C203 1.256 . S
Mn192 O191 2.087 . S
Mn192 O199 2.089 . S
Mn192 O208 2.290 . S
Mn192 O209 2.251 . S
O193 Mn190 2.160 . S
O193 C204 1.239 . S
O194 Mn190 2.221 . S
O194 Mn195 2.290 . S
O194 C205 1.278 . S
Mn195 O194 2.290 . S
Mn195 O197 2.089 . S
Mn195 O200 2.251 . S
Mn195 O201 2.087 . S
O196 Mn190 2.163 . S
O196 C206 1.244 . S
O197 Mn195 2.089 . S
O197 C204 1.256 . S
O198 Mn190 2.160 . S
O198 C207 1.239 . S
O199 Mn192 2.089 . S
O199 C207 1.255 . S
O200 Mn195 2.251 . S
O200 C205 1.241 . S
O201 Mn195 2.087 . S
O201 C206 1.256 . S
C202 O208 1.278 . S
C202 O209 1.241 . S
C203 O189 1.244 . S
C203 O191 1.256 . S
C204 O193 1.239 . S
C204 O197 1.256 . S
C205 O194 1.278 . S
C205 O200 1.241 . S
C206 O196 1.244 . S
C206 O201 1.256 . S
C207 O198 1.239 . S
C207 O199 1.255 . S
O208 Mn190 2.221 . S
O208 Mn192 2.290 . S
O208 C202 1.278 . S
O209 Mn192 2.251 . S
O209 C202 1.241 . S
O210 Mn211 2.163 . S
O210 C224 1.244 . S
Mn211 O210 2.163 . S
Mn211 O214 2.160 . S
Mn211 O215 2.221 . S
Mn211 O217 2.163 . S
Mn211 O219 2.160 . S
Mn211 O229 2.221 . S
O212 Mn213 2.087 . S
O212 C224 1.256 . S
Mn213 O212 2.087 . S
Mn213 O220 2.089 . S
Mn213 O229 2.290 . S
Mn213 O230 2.251 . S
O214 Mn211 2.160 . S
O214 C225 1.239 . S
O215 Mn211 2.221 . S
O215 Mn216 2.290 . S
O215 C226 1.278 . S
Mn216 O215 2.290 . S
Mn216 O218 2.089 . S
Mn216 O221 2.251 . S
Mn216 O222 2.087 . S
O217 Mn211 2.163 . S
O217 C227 1.244 . S
O218 Mn216 2.089 . S
O218 C225 1.256 . S
O219 Mn211 2.160 . S
O219 C228 1.239 . S
O220 Mn213 2.089 . S
O220 C228 1.256 . S
O221 Mn216 2.251 . S
O221 C226 1.241 . S
O222 Mn216 2.087 . S
O222 C227 1.256 . S
C223 O229 1.278 . S
C223 O230 1.241 . S
C224 O210 1.244 . S
C224 O212 1.256 . S
C225 O214 1.239 . S
C225 O218 1.256 . S
C226 O215 1.278 . S
C226 O221 1.241 . S
C227 O217 1.244 . S
C227 O222 1.256 . S
C228 O219 1.239 . S
C228 O220 1.256 . S
O229 Mn211 2.221 . S
O229 Mn213 2.290 . S
O229 C223 1.278 . S
O230 Mn213 2.251 . S
O230 C223 1.241 . S
O231 Mn232 2.163 . S
O231 C245 1.244 . S
Mn232 O231 2.163 . S
Mn232 O235 2.160 . S
Mn232 O236 2.221 . S
Mn232 O238 2.163 . S
Mn232 O240 2.160 . S
Mn232 O250 2.221 . S
O233 Mn234 2.087 . S
O233 C245 1.256 . S
Mn234 O233 2.087 . S
Mn234 O241 2.089 . S
Mn234 O250 2.290 . S
Mn234 O251 2.251 . S
O235 Mn232 2.160 . S
O235 C246 1.239 . S
O236 Mn232 2.221 . S
O236 Mn237 2.290 . S
O236 C247 1.278 . S
Mn237 O236 2.290 . S
Mn237 O239 2.089 . S
Mn237 O242 2.251 . S
Mn237 O243 2.087 . S
O238 Mn232 2.163 . S
O238 C248 1.244 . S
O239 Mn237 2.089 . S
O239 C246 1.256 . S
O240 Mn232 2.160 . S
O240 C249 1.239 . S
O241 Mn234 2.089 . S
O241 C249 1.256 . S
O242 Mn237 2.251 . S
O242 C247 1.241 . S
O243 Mn237 2.087 . S
O243 C248 1.256 . S
C244 O250 1.278 . S
C244 O251 1.241 . S
C245 O231 1.244 . S
C245 O233 1.256 . S
C246 O235 1.239 . S
C246 O239 1.256 . S
C247 O236 1.278 . S
C247 O242 1.241 . S
C248 O238 1.244 . S
C248 O243 1.256 . S
C249 O240 1.239 . S
C249 O241 1.256 . S
O250 Mn232 2.221 . S
O250 Mn234 2.290 . S
O250 C244 1.278 . S
O251 Mn234 2.251 . S
O251 C244 1.241 . S
O252 Mn253 2.163 . S
O252 C266 1.244 . S
Mn253 O252 2.163 . S
Mn253 O256 2.160 . S
Mn253 O257 2.221 . S
Mn253 O259 2.163 . S
Mn253 O261 2.160 . S
Mn253 O271 2.221 . S
O254 Mn255 2.087 . S
O254 C266 1.256 . S
Mn255 O254 2.087 . S
Mn255 O262 2.089 . S
Mn255 O271 2.290 . S
Mn255 O272 2.251 . S
O256 Mn253 2.160 . S
O256 C267 1.239 . S
O257 Mn253 2.221 . S
O257 Mn258 2.290 . S
O257 C268 1.278 . S
Mn258 O257 2.290 . S
Mn258 O260 2.089 . S
Mn258 O263 2.251 . S
Mn258 O264 2.087 . S
O259 Mn253 2.163 . S
O259 C269 1.244 . S
O260 Mn258 2.089 . S
O260 C267 1.256 . S
O261 Mn253 2.160 . S
O261 C270 1.239 . S
O262 Mn255 2.089 . S
O262 C270 1.256 . S
O263 Mn258 2.251 . S
O263 C268 1.241 . S
O264 Mn258 2.087 . S
O264 C269 1.256 . S
C265 O271 1.278 . S
C265 O272 1.241 . S
C266 O252 1.244 . S
C266 O254 1.256 . S
C267 O256 1.239 . S
C267 O260 1.256 . S
C268 O257 1.278 . S
C268 O263 1.241 . S
C269 O259 1.244 . S
C269 O264 1.256 . S
C270 O261 1.239 . S
C270 O262 1.256 . S
O271 Mn253 2.221 . S
O271 Mn255 2.290 . S
O271 C265 1.278 . S
O272 Mn255 2.251 . S
O272 C265 1.241 . S
O273 Mn274 2.163 . S
O273 C287 1.244 . S
Mn274 O273 2.163 . S
Mn274 O277 2.160 . S
Mn274 O278 2.221 . S
Mn274 O280 2.163 . S
Mn274 O282 2.160 . S
Mn274 O292 2.221 . S
O275 Mn276 2.087 . S
O275 C287 1.256 . S
Mn276 O275 2.087 . S
Mn276 O283 2.089 . S
Mn276 O292 2.290 . S
Mn276 O293 2.251 . S
O277 Mn274 2.160 . S
O277 C288 1.239 . S
O278 Mn274 2.221 . S
O278 Mn279 2.290 . S
O278 C289 1.278 . S
Mn279 O278 2.290 . S
Mn279 O281 2.089 . S
Mn279 O284 2.251 . S
Mn279 O285 2.087 . S
O280 Mn274 2.163 . S
O280 C290 1.244 . S
O281 Mn279 2.089 . S
O281 C288 1.256 . S
O282 Mn274 2.160 . S
O282 C291 1.239 . S
O283 Mn276 2.089 . S
O283 C291 1.256 . S
O284 Mn279 2.251 . S
O284 C289 1.241 . S
O285 Mn279 2.087 . S
O285 C290 1.256 . S
C286 O292 1.278 . S
C286 O293 1.241 . S
C287 O273 1.244 . S
C287 O275 1.256 . S
C288 O277 1.239 . S
C288 O281 1.256 . S
C289 O278 1.278 . S
C289 O284 1.241 . S
C290 O280 1.244 . S
C290 O285 1.256 . S
C291 O282 1.239 . S
C291 O283 1.256 . S
O292 Mn274 2.221 . S
O292 Mn276 2.290 . S
O292 C286 1.278 . S
O293 Mn276 2.251 . S
O293 C286 1.241 . S
O294 Mn295 2.163 . S
O294 C308 1.244 . S
Mn295 O294 2.163 . S
Mn295 O298 2.160 . S
Mn295 O299 2.221 . S
Mn295 O301 2.163 . S
Mn295 O303 2.160 . S
Mn295 O313 2.221 . S
O296 Mn297 2.087 . S
O296 C308 1.256 . S
Mn297 O296 2.087 . S
Mn297 O304 2.089 . S
Mn297 O313 2.290 . S
Mn297 O314 2.251 . S
O298 Mn295 2.160 . S
O298 C309 1.239 . S
O299 Mn295 2.221 . S
O299 Mn300 2.290 . S
O299 C310 1.278 . S
Mn300 O299 2.290 . S
Mn300 O302 2.089 . S
Mn300 O305 2.251 . S
Mn300 O306 2.087 . S
O301 Mn295 2.163 . S
O301 C311 1.244 . S
O302 Mn300 2.089 . S
O302 C309 1.256 . S
O303 Mn295 2.160 . S
O303 C312 1.239 . S
O304 Mn297 2.089 . S
O304 C312 1.256 . S
O305 Mn300 2.251 . S
O305 C310 1.241 . S
O306 Mn300 2.087 . S
O306 C311 1.256 . S
C307 O313 1.278 . S
C307 O314 1.241 . S
C308 O294 1.244 . S
C308 O296 1.256 . S
C309 O298 1.239 . S
C309 O302 1.256 . S
C310 O299 1.278 . S
C310 O305 1.241 . S
C311 O301 1.244 . S
C311 O306 1.256 . S
C312 O303 1.239 . S
C312 O304 1.256 . S
O313 Mn295 2.221 . S
O313 Mn297 2.290 . S
O313 C307 1.278 . S
O314 Mn297 2.251 . S
O314 C307 1.241 . S
O315 Mn316 2.163 . S
O315 C329 1.244 . S
Mn316 O315 2.163 . S
Mn316 O319 2.160 . S
Mn316 O320 2.221 . S
Mn316 O322 2.163 . S
Mn316 O324 2.160 . S
Mn316 O334 2.221 . S
O317 Mn318 2.087 . S
O317 C329 1.256 . S
Mn318 O317 2.087 . S
Mn318 O325 2.089 . S
Mn318 O334 2.290 . S
Mn318 O335 2.251 . S
O319 Mn316 2.160 . S
O319 C330 1.239 . S
O320 Mn316 2.221 . S
O320 Mn321 2.290 . S
O320 C331 1.278 . S
Mn321 O320 2.290 . S
Mn321 O323 2.089 . S
Mn321 O326 2.251 . S
Mn321 O327 2.087 . S
O322 Mn316 2.163 . S
O322 C332 1.244 . S
O323 Mn321 2.089 . S
O323 C330 1.256 . S
O324 Mn316 2.160 . S
O324 C333 1.239 . S
O325 Mn318 2.089 . S
O325 C333 1.255 . S
O326 Mn321 2.251 . S
O326 C331 1.241 . S
O327 Mn321 2.087 . S
O327 C332 1.256 . S
C328 O334 1.278 . S
C328 O335 1.241 . S
C329 O315 1.244 . S
C329 O317 1.256 . S
C330 O319 1.239 . S
C330 O323 1.256 . S
C331 O320 1.278 . S
C331 O326 1.241 . S
C332 O322 1.244 . S
C332 O327 1.256 . S
C333 O324 1.239 . S
C333 O325 1.255 . S
O334 Mn316 2.221 . S
O334 Mn318 2.290 . S
O334 C328 1.278 . S
O335 Mn318 2.251 . S
O335 C328 1.241 . S
O336 Mn337 2.163 . S
O336 C350 1.244 . S
Mn337 O336 2.163 . S
Mn337 O340 2.160 . S
Mn337 O341 2.221 . S
Mn337 O343 2.163 . S
Mn337 O345 2.160 . S
Mn337 O355 2.221 . S
O338 Mn339 2.087 . S
O338 C350 1.256 . S
Mn339 O338 2.087 . S
Mn339 O346 2.089 . S
Mn339 O355 2.290 . S
Mn339 O356 2.251 . S
O340 Mn337 2.160 . S
O340 C351 1.239 . S
O341 Mn337 2.221 . S
O341 Mn342 2.290 . S
O341 C352 1.278 . S
Mn342 O341 2.290 . S
Mn342 O344 2.089 . S
Mn342 O347 2.251 . S
Mn342 O348 2.087 . S
O343 Mn337 2.163 . S
O343 C353 1.244 . S
O344 Mn342 2.089 . S
O344 C351 1.256 . S
O345 Mn337 2.160 . S
O345 C354 1.239 . S
O346 Mn339 2.089 . S
O346 C354 1.256 . S
O347 Mn342 2.251 . S
O347 C352 1.241 . S
O348 Mn342 2.087 . S
O348 C353 1.256 . S
C349 O355 1.278 . S
C349 O356 1.241 . S
C350 O336 1.244 . S
C350 O338 1.256 . S
C351 O340 1.239 . S
C351 O344 1.256 . S
C352 O341 1.278 . S
C352 O347 1.241 . S
C353 O343 1.244 . S
C353 O348 1.256 . S
C354 O345 1.239 . S
C354 O346 1.256 . S
O355 Mn337 2.221 . S
O355 Mn339 2.290 . S
O355 C349 1.278 . S
O356 Mn339 2.251 . S
O356 C349 1.241 . S
O357 Mn358 2.163 . S
O357 C371 1.244 . S
Mn358 O357 2.163 . S
Mn358 O361 2.160 . S
Mn358 O362 2.221 . S
Mn358 O364 2.163 . S
Mn358 O366 2.160 . S
Mn358 O376 2.221 . S
O359 Mn360 2.087 . S
O359 C371 1.256 . S
Mn360 O359 2.087 . S
Mn360 O367 2.089 . S
Mn360 O376 2.290 . S
Mn360 O377 2.251 . S
O361 Mn358 2.160 . S
O361 C372 1.239 . S
O362 Mn358 2.221 . S
O362 Mn363 2.290 . S
O362 C373 1.278 . S
Mn363 O362 2.290 . S
Mn363 O365 2.089 . S
Mn363 O368 2.251 . S
Mn363 O369 2.087 . S
O364 Mn358 2.163 . S
O364 C374 1.244 . S
O365 Mn363 2.089 . S
O365 C372 1.256 . S
O366 Mn358 2.160 . S
O366 C375 1.239 . S
O367 Mn360 2.089 . S
O367 C375 1.256 . S
O368 Mn363 2.251 . S
O368 C373 1.241 . S
O369 Mn363 2.087 . S
O369 C374 1.256 . S
C370 O376 1.278 . S
C370 O377 1.241 . S
C371 O357 1.244 . S
C371 O359 1.256 . S
C372 O361 1.239 . S
C372 O365 1.256 . S
C373 O362 1.278 . S
C373 O368 1.241 . S
C374 O364 1.244 . S
C374 O369 1.256 . S
C375 O366 1.239 . S
C375 O367 1.256 . S
O376 Mn358 2.221 . S
O376 Mn360 2.290 . S
O376 C370 1.278 . S
O377 Mn360 2.251 . S
O377 C370 1.241 . S
O378 Mn379 2.163 . S
O378 C392 1.244 . S
Mn379 O378 2.163 . S
Mn379 O382 2.160 . S
Mn379 O383 2.221 . S
Mn379 O385 2.163 . S
Mn379 O387 2.160 . S
Mn379 O397 2.221 . S
O380 Mn381 2.087 . S
O380 C392 1.256 . S
Mn381 O380 2.087 . S
Mn381 O388 2.089 . S
Mn381 O397 2.290 . S
Mn381 O398 2.251 . S
O382 Mn379 2.160 . S
O382 C393 1.239 . S
O383 Mn379 2.221 . S
O383 Mn384 2.290 . S
O383 C394 1.278 . S
Mn384 O383 2.290 . S
Mn384 O386 2.089 . S
Mn384 O389 2.251 . S
Mn384 O390 2.087 . S
O385 Mn379 2.163 . S
O385 C395 1.244 . S
O386 Mn384 2.089 . S
O386 C393 1.256 . S
O387 Mn379 2.160 . S
O387 C396 1.239 . S
O388 Mn381 2.089 . S
O388 C396 1.256 . S
O389 Mn384 2.251 . S
O389 C394 1.241 . S
O390 Mn384 2.087 . S
O390 C395 1.256 . S
C391 O397 1.278 . S
C391 O398 1.241 . S
C392 O378 1.244 . S
C392 O380 1.256 . S
C393 O382 1.239 . S
C393 O386 1.256 . S
C394 O383 1.278 . S
C394 O389 1.241 . S
C395 O385 1.244 . S
C395 O390 1.256 . S
C396 O387 1.239 . S
C396 O388 1.256 . S
O397 Mn379 2.221 . S
O397 Mn381 2.290 . S
O397 C391 1.278 . S
O398 Mn381 2.251 . S
O398 C391 1.241 . S
O399 Mn400 2.163 . S
O399 C413 1.244 . S
Mn400 O399 2.163 . S
Mn400 O403 2.160 . S
Mn400 O404 2.221 . S
Mn400 O406 2.163 . S
Mn400 O408 2.160 . S
Mn400 O418 2.221 . S
O401 Mn402 2.087 . S
O401 C413 1.256 . S
Mn402 O401 2.087 . S
Mn402 O409 2.089 . S
Mn402 O418 2.290 . S
Mn402 O419 2.251 . S
O403 Mn400 2.160 . S
O403 C414 1.239 . S
O404 Mn400 2.221 . S
O404 Mn405 2.290 . S
O404 C415 1.278 . S
Mn405 O404 2.290 . S
Mn405 O407 2.089 . S
Mn405 O410 2.251 . S
Mn405 O411 2.087 . S
O406 Mn400 2.163 . S
O406 C416 1.244 . S
O407 Mn405 2.089 . S
O407 C414 1.256 . S
O408 Mn400 2.160 . S
O408 C417 1.239 . S
O409 Mn402 2.089 . S
O409 C417 1.255 . S
O410 Mn405 2.251 . S
O410 C415 1.241 . S
O411 Mn405 2.087 . S
O411 C416 1.256 . S
C412 O418 1.278 . S
C412 O419 1.241 . S
C413 O399 1.244 . S
C413 O401 1.256 . S
C414 O403 1.239 . S
C414 O407 1.256 . S
C415 O404 1.278 . S
C415 O410 1.241 . S
C416 O406 1.244 . S
C416 O411 1.256 . S
C417 O408 1.239 . S
C417 O409 1.255 . S
O418 Mn400 2.221 . S
O418 Mn402 2.290 . S
O418 C412 1.278 . S
O419 Mn402 2.251 . S
O419 C412 1.241 . S
O420 Mn421 2.163 . S
O420 C434 1.244 . S
Mn421 O420 2.163 . S
Mn421 O424 2.160 . S
Mn421 O425 2.221 . S
Mn421 O427 2.163 . S
Mn421 O429 2.160 . S
Mn421 O439 2.221 . S
O422 Mn423 2.087 . S
O422 C434 1.256 . S
Mn423 O422 2.087 . S
Mn423 O430 2.089 . S
Mn423 O439 2.290 . S
Mn423 O440 2.251 . S
O424 Mn421 2.160 . S
O424 C435 1.239 . S
O425 Mn421 2.221 . S
O425 Mn426 2.290 . S
O425 C436 1.278 . S
Mn426 O425 2.290 . S
Mn426 O428 2.089 . S
Mn426 O431 2.251 . S
Mn426 O432 2.087 . S
O427 Mn421 2.163 . S
O427 C437 1.244 . S
O428 Mn426 2.089 . S
O428 C435 1.256 . S
O429 Mn421 2.160 . S
O429 C438 1.239 . S
O430 Mn423 2.089 . S
O430 C438 1.256 . S
O431 Mn426 2.251 . S
O431 C436 1.241 . S
O432 Mn426 2.087 . S
O432 C437 1.256 . S
C433 O439 1.278 . S
C433 O440 1.241 . S
C434 O420 1.244 . S
C434 O422 1.256 . S
C435 O424 1.239 . S
C435 O428 1.256 . S
C436 O425 1.278 . S
C436 O431 1.241 . S
C437 O427 1.244 . S
C437 O432 1.256 . S
C438 O429 1.239 . S
C438 O430 1.256 . S
O439 Mn421 2.221 . S
O439 Mn423 2.290 . S
O439 C433 1.278 . S
O440 Mn423 2.251 . S
O440 C433 1.241 . S
O441 Mn442 2.163 . S
O441 C455 1.244 . S
Mn442 O441 2.163 . S
Mn442 O445 2.160 . S
Mn442 O446 2.221 . S
Mn442 O448 2.163 . S
Mn442 O450 2.160 . S
Mn442 O460 2.221 . S
O443 Mn444 2.087 . S
O443 C455 1.256 . S
Mn444 O443 2.087 . S
Mn444 O451 2.089 . S
Mn444 O460 2.290 . S
Mn444 O461 2.251 . S
O445 Mn442 2.160 . S
O445 C456 1.239 . S
O446 Mn442 2.221 . S
O446 Mn447 2.290 . S
O446 C457 1.278 . S
Mn447 O446 2.290 . S
Mn447 O449 2.089 . S
Mn447 O452 2.251 . S
Mn447 O453 2.087 . S
O448 Mn442 2.163 . S
O448 C458 1.244 . S
O449 Mn447 2.089 . S
O449 C456 1.256 . S
O450 Mn442 2.160 . S
O450 C459 1.239 . S
O451 Mn444 2.089 . S
O451 C459 1.255 . S
O452 Mn447 2.251 . S
O452 C457 1.241 . S
O453 Mn447 2.087 . S
O453 C458 1.256 . S
C454 O460 1.278 . S
C454 O461 1.241 . S
C455 O441 1.244 . S
C455 O443 1.256 . S
C456 O445 1.239 . S
C456 O449 1.256 . S
C457 O446 1.278 . S
C457 O452 1.241 . S
C458 O448 1.244 . S
C458 O453 1.256 . S
C459 O450 1.239 . S
C459 O451 1.255 . S
O460 Mn442 2.221 . S
O460 Mn444 2.290 . S
O460 C454 1.278 . S
O461 Mn444 2.251 . S
O461 C454 1.241 . S
O462 Mn463 2.163 . S
O462 C476 1.244 . S
Mn463 O462 2.163 . S
Mn463 O466 2.160 . S
Mn463 O467 2.221 . S
Mn463 O469 2.163 . S
Mn463 O471 2.160 . S
Mn463 O481 2.221 . S
O464 Mn465 2.087 . S
O464 C476 1.256 . S
Mn465 O464 2.087 . S
Mn465 O472 2.089 . S
Mn465 O481 2.290 . S
Mn465 O482 2.251 . S
O466 Mn463 2.160 . S
O466 C477 1.239 . S
O467 Mn463 2.221 . S
O467 Mn468 2.290 . S
O467 C478 1.278 . S
Mn468 O467 2.290 . S
Mn468 O470 2.089 . S
Mn468 O473 2.251 . S
Mn468 O474 2.087 . S
O469 Mn463 2.163 . S
O469 C479 1.244 . S
O470 Mn468 2.089 . S
O470 C477 1.256 . S
O471 Mn463 2.160 . S
O471 C480 1.239 . S
O472 Mn465 2.089 . S
O472 C480 1.256 . S
O473 Mn468 2.251 . S
O473 C478 1.241 . S
O474 Mn468 2.087 . S
O474 C479 1.256 . S
C475 O481 1.278 . S
C475 O482 1.241 . S
C476 O462 1.244 . S
C476 O464 1.256 . S
C477 O466 1.239 . S
C477 O470 1.256 . S
C478 O467 1.278 . S
C478 O473 1.241 . S
C479 O469 1.244 . S
C479 O474 1.256 . S
C480 O471 1.239 . S
C480 O472 1.256 . S
O481 Mn463 2.221 . S
O481 Mn465 2.290 . S
O481 C475 1.278 . S
O482 Mn465 2.251 . S
O482 C475 1.241 . S
O483 Mn484 2.163 . S
O483 C497 1.244 . S
Mn484 O483 2.163 . S
Mn484 O487 2.160 . S
Mn484 O488 2.221 . S
Mn484 O490 2.163 . S
Mn484 O492 2.160 . S
Mn484 O502 2.221 . S
O485 Mn486 2.087 . S
O485 C497 1.256 . S
Mn486 O485 2.087 . S
Mn486 O493 2.089 . S
Mn486 O502 2.290 . S
Mn486 O503 2.251 . S
O487 Mn484 2.160 . S
O487 C498 1.239 . S
O488 Mn484 2.221 . S
O488 Mn489 2.290 . S
O488 C499 1.278 . S
Mn489 O488 2.290 . S
Mn489 O491 2.089 . S
Mn489 O494 2.251 . S
Mn489 O495 2.087 . S
O490 Mn484 2.163 . S
O490 C500 1.244 . S
O491 Mn489 2.089 . S
O491 C498 1.256 . S
O492 Mn484 2.160 . S
O492 C501 1.239 . S
O493 Mn486 2.089 . S
O493 C501 1.256 . S
O494 Mn489 2.251 . S
O494 C499 1.241 . S
O495 Mn489 2.087 . S
O495 C500 1.256 . S
C496 O502 1.278 . S
C496 O503 1.241 . S
C497 O483 1.244 . S
C497 O485 1.256 . S
C498 O487 1.239 . S
C498 O491 1.256 . S
C499 O488 1.278 . S
C499 O494 1.241 . S
C500 O490 1.244 . S
C500 O495 1.256 . S
C501 O492 1.239 . S
C501 O493 1.256 . S
O502 Mn484 2.221 . S
O502 Mn486 2.290 . S
O502 C496 1.278 . S
O503 Mn486 2.251 . S
O503 C496 1.241 . S
O504 Mn505 2.163 . S
O504 C518 1.244 . S
Mn505 O504 2.163 . S
Mn505 O508 2.160 . S
Mn505 O509 2.221 . S
Mn505 O511 2.163 . S
Mn505 O513 2.160 . S
Mn505 O523 2.221 . S
O506 Mn507 2.087 . S
O506 C518 1.256 . S
Mn507 O506 2.087 . S
Mn507 O514 2.089 . S
Mn507 O523 2.290 . S
Mn507 O524 2.251 . S
O508 Mn505 2.160 . S
O508 C519 1.239 . S
O509 Mn505 2.221 . S
O509 Mn510 2.290 . S
O509 C520 1.278 . S
Mn510 O509 2.290 . S
Mn510 O512 2.089 . S
Mn510 O515 2.251 . S
Mn510 O516 2.087 . S
O511 Mn505 2.163 . S
O511 C521 1.244 . S
O512 Mn510 2.089 . S
O512 C519 1.256 . S
O513 Mn505 2.160 . S
O513 C522 1.239 . S
O514 Mn507 2.089 . S
O514 C522 1.256 . S
O515 Mn510 2.251 . S
O515 C520 1.241 . S
O516 Mn510 2.087 . S
O516 C521 1.256 . S
C517 O523 1.278 . S
C517 O524 1.241 . S
C518 O504 1.244 . S
C518 O506 1.256 . S
C519 O508 1.239 . S
C519 O512 1.256 . S
C520 O509 1.278 . S
C520 O515 1.241 . S
C521 O511 1.244 . S
C521 O516 1.256 . S
C522 O513 1.239 . S
C522 O514 1.256 . S
O523 Mn505 2.221 . S
O523 Mn507 2.290 . S
O523 C517 1.278 . S
O524 Mn507 2.251 . S
O524 C517 1.241 . S
O525 Mn526 2.163 . S
O525 C539 1.244 . S
Mn526 O525 2.163 . S
Mn526 O529 2.160 . S
Mn526 O530 2.221 . S
Mn526 O532 2.163 . S
Mn526 O534 2.160 . S
Mn526 O544 2.221 . S
O527 Mn528 2.087 . S
O527 C539 1.256 . S
Mn528 O527 2.087 . S
Mn528 O535 2.089 . S
Mn528 O544 2.290 . S
Mn528 O545 2.251 . S
O529 Mn526 2.160 . S
O529 C540 1.239 . S
O530 Mn526 2.221 . S
O530 Mn531 2.290 . S
O530 C541 1.278 . S
Mn531 O530 2.290 . S
Mn531 O533 2.089 . S
Mn531 O536 2.251 . S
Mn531 O537 2.087 . S
O532 Mn526 2.163 . S
O532 C542 1.244 . S
O533 Mn531 2.089 . S
O533 C540 1.256 . S
O534 Mn526 2.160 . S
O534 C543 1.239 . S
O535 Mn528 2.089 . S
O535 C543 1.256 . S
O536 Mn531 2.251 . S
O536 C541 1.241 . S
O537 Mn531 2.087 . S
O537 C542 1.256 . S
C538 O544 1.278 . S
C538 O545 1.241 . S
C539 O525 1.244 . S
C539 O527 1.256 . S
C540 O529 1.239 . S
C540 O533 1.256 . S
C541 O530 1.278 . S
C541 O536 1.241 . S
C542 O532 1.244 . S
C542 O537 1.256 . S
C543 O534 1.239 . S
C543 O535 1.256 . S
O544 Mn526 2.221 . S
O544 Mn528 2.290 . S
O544 C538 1.278 . S
O545 Mn528 2.251 . S
O545 C538 1.241 . S
O546 Mn547 2.163 . S
O546 C560 1.244 . S
Mn547 O546 2.163 . S
Mn547 O550 2.160 . S
Mn547 O551 2.221 . S
Mn547 O553 2.163 . S
Mn547 O555 2.160 . S
Mn547 O565 2.221 . S
O548 Mn549 2.087 . S
O548 C560 1.256 . S
Mn549 O548 2.087 . S
Mn549 O556 2.089 . S
Mn549 O565 2.290 . S
Mn549 O566 2.251 . S
O550 Mn547 2.160 . S
O550 C561 1.239 . S
O551 Mn547 2.221 . S
O551 Mn552 2.290 . S
O551 C562 1.278 . S
Mn552 O551 2.290 . S
Mn552 O554 2.089 . S
Mn552 O557 2.251 . S
Mn552 O558 2.087 . S
O553 Mn547 2.163 . S
O553 C563 1.244 . S
O554 Mn552 2.089 . S
O554 C561 1.256 . S
O555 Mn547 2.160 . S
O555 C564 1.239 . S
O556 Mn549 2.089 . S
O556 C564 1.256 . S
O557 Mn552 2.251 . S
O557 C562 1.241 . S
O558 Mn552 2.087 . S
O558 C563 1.256 . S
C559 O565 1.278 . S
C559 O566 1.241 . S
C560 O546 1.244 . S
C560 O548 1.256 . S
C561 O550 1.239 . S
C561 O554 1.256 . S
C562 O551 1.278 . S
C562 O557 1.241 . S
C563 O553 1.244 . S
C563 O558 1.256 . S
C564 O555 1.239 . S
C564 O556 1.256 . S
O565 Mn547 2.221 . S
O565 Mn549 2.290 . S
O565 C559 1.278 . S
O566 Mn549 2.251 . S
O566 C559 1.241 . S
O567 Mn568 2.163 . S
O567 C581 1.244 . S
Mn568 O567 2.163 . S
Mn568 O571 2.160 . S
Mn568 O572 2.221 . S
Mn568 O574 2.163 . S
Mn568 O576 2.160 . S
Mn568 O586 2.221 . S
O569 Mn570 2.087 . S
O569 C581 1.256 . S
Mn570 O569 2.087 . S
Mn570 O577 2.089 . S
Mn570 O586 2.290 . S
Mn570 O587 2.251 . S
O571 Mn568 2.160 . S
O571 C582 1.239 . S
O572 Mn568 2.221 . S
O572 Mn573 2.290 . S
O572 C583 1.278 . S
Mn573 O572 2.290 . S
Mn573 O575 2.089 . S
Mn573 O578 2.251 . S
Mn573 O579 2.087 . S
O574 Mn568 2.163 . S
O574 C584 1.244 . S
O575 Mn573 2.089 . S
O575 C582 1.256 . S
O576 Mn568 2.160 . S
O576 C585 1.239 . S
O577 Mn570 2.089 . S
O577 C585 1.255 . S
O578 Mn573 2.251 . S
O578 C583 1.241 . S
O579 Mn573 2.087 . S
O579 C584 1.256 . S
C580 O586 1.278 . S
C580 O587 1.241 . S
C581 O567 1.244 . S
C581 O569 1.256 . S
C582 O571 1.239 . S
C582 O575 1.256 . S
C583 O572 1.278 . S
C583 O578 1.241 . S
C584 O574 1.244 . S
C584 O579 1.256 . S
C585 O576 1.239 . S
C585 O577 1.255 . S
O586 Mn568 2.221 . S
O586 Mn570 2.290 . S
O586 C580 1.278 . S
O587 Mn570 2.251 . S
O587 C580 1.241 . S
O588 Mn589 2.163 . S
O588 C602 1.244 . S
Mn589 O588 2.163 . S
Mn589 O592 2.160 . S
Mn589 O593 2.221 . S
Mn589 O595 2.163 . S
Mn589 O597 2.160 . S
Mn589 O607 2.221 . S
O590 Mn591 2.087 . S
O590 C602 1.256 . S
Mn591 O590 2.087 . S
Mn591 O598 2.089 . S
Mn591 O607 2.290 . S
Mn591 O608 2.251 . S
O592 Mn589 2.160 . S
O592 C603 1.239 . S
O593 Mn589 2.221 . S
O593 Mn594 2.290 . S
O593 C604 1.278 . S
Mn594 O593 2.290 . S
Mn594 O596 2.089 . S
Mn594 O599 2.251 . S
Mn594 O600 2.087 . S
O595 Mn589 2.163 . S
O595 C605 1.244 . S
O596 Mn594 2.089 . S
O596 C603 1.256 . S
O597 Mn589 2.160 . S
O597 C606 1.239 . S
O598 Mn591 2.089 . S
O598 C606 1.256 . S
O599 Mn594 2.251 . S
O599 C604 1.241 . S
O600 Mn594 2.087 . S
O600 C605 1.256 . S
C601 O607 1.278 . S
C601 O608 1.241 . S
C602 O588 1.244 . S
C602 O590 1.256 . S
C603 O592 1.239 . S
C603 O596 1.256 . S
C604 O593 1.278 . S
C604 O599 1.241 . S
C605 O595 1.244 . S
C605 O600 1.256 . S
C606 O597 1.239 . S
C606 O598 1.256 . S
O607 Mn589 2.221 . S
O607 Mn591 2.290 . S
O607 C601 1.278 . S
O608 Mn591 2.251 . S
O608 C601 1.241 . S
O609 Mn610 2.163 . S
O609 C623 1.244 . S
Mn610 O609 2.163 . S
Mn610 O613 2.160 . S
Mn610 O614 2.221 . S
Mn610 O616 2.163 . S
Mn610 O618 2.160 . S
Mn610 O628 2.221 . S
O611 Mn612 2.087 . S
O611 C623 1.256 . S
Mn612 O611 2.087 . S
Mn612 O619 2.089 . S
Mn612 O628 2.290 . S
Mn612 O629 2.251 . S
O613 Mn610 2.160 . S
O613 C624 1.239 . S
O614 Mn610 2.221 . S
O614 Mn615 2.290 . S
O614 C625 1.278 . S
Mn615 O614 2.290 . S
Mn615 O617 2.089 . S
Mn615 O620 2.251 . S
Mn615 O621 2.087 . S
O616 Mn610 2.163 . S
O616 C626 1.244 . S
O617 Mn615 2.089 . S
O617 C624 1.256 . S
O618 Mn610 2.160 . S
O618 C627 1.239 . S
O619 Mn612 2.089 . S
O619 C627 1.255 . S
O620 Mn615 2.251 . S
O620 C625 1.241 . S
O621 Mn615 2.087 . S
O621 C626 1.256 . S
C622 O628 1.278 . S
C622 O629 1.241 . S
C623 O609 1.244 . S
C623 O611 1.256 . S
C624 O613 1.239 . S
C624 O617 1.256 . S
C625 O614 1.278 . S
C625 O620 1.241 . S
C626 O616 1.244 . S
C626 O621 1.256 . S
C627 O618 1.239 . S
C627 O619 1.255 . S
O628 Mn610 2.221 . S
O628 Mn612 2.290 . S
O628 C622 1.278 . S
O629 Mn612 2.251 . S
O629 C622 1.241 . S
O630 Mn631 2.163 . S
O630 C644 1.244 . S
Mn631 O630 2.163 . S
Mn631 O634 2.160 . S
Mn631 O635 2.221 . S
Mn631 O637 2.163 . S
Mn631 O639 2.160 . S
Mn631 O649 2.221 . S
O632 Mn633 2.087 . S
O632 C644 1.256 . S
Mn633 O632 2.087 . S
Mn633 O640 2.089 . S
Mn633 O649 2.290 . S
Mn633 O650 2.251 . S
O634 Mn631 2.160 . S
O634 C645 1.239 . S
O635 Mn631 2.221 . S
O635 Mn636 2.290 . S
O635 C646 1.278 . S
Mn636 O635 2.290 . S
Mn636 O638 2.089 . S
Mn636 O641 2.251 . S
Mn636 O642 2.087 . S
O637 Mn631 2.163 . S
O637 C647 1.244 . S
O638 Mn636 2.089 . S
O638 C645 1.256 . S
O639 Mn631 2.160 . S
O639 C648 1.239 . S
O640 Mn633 2.089 . S
O640 C648 1.256 . S
O641 Mn636 2.251 . S
O641 C646 1.241 . S
O642 Mn636 2.087 . S
O642 C647 1.256 . S
C643 O649 1.278 . S
C643 O650 1.241 . S
C644 O630 1.244 . S
C644 O632 1.256 . S
C645 O634 1.239 . S
C645 O638 1.256 . S
C646 O635 1.278 . S
C646 O641 1.241 . S
C647 O637 1.244 . S
C647 O642 1.256 . S
C648 O639 1.239 . S
C648 O640 1.256 . S
O649 Mn631 2.221 . S
O649 Mn633 2.290 . S
O649 C643 1.278 . S
O650 Mn633 2.251 . S
O650 C643 1.241 . S
O651 Mn652 2.163 . S
O651 C665 1.244 . S
Mn652 O651 2.163 . S
Mn652 O655 2.160 . S
Mn652 O656 2.221 . S
Mn652 O658 2.163 . S
Mn652 O660 2.160 . S
Mn652 O670 2.221 . S
O653 Mn654 2.087 . S
O653 C665 1.256 . S
Mn654 O653 2.087 . S
Mn654 O661 2.089 . S
Mn654 O670 2.290 . S
Mn654 O671 2.251 . S
O655 Mn652 2.160 . S
O655 C666 1.239 . S
O656 Mn652 2.221 . S
O656 Mn657 2.290 . S
O656 C667 1.278 . S
Mn657 O656 2.290 . S
Mn657 O659 2.089 . S
Mn657 O662 2.251 . S
Mn657 O663 2.087 . S
O658 Mn652 2.163 . S
O658 C668 1.244 . S
O659 Mn657 2.089 . S
O659 C666 1.256 . S
O660 Mn652 2.160 . S
O660 C669 1.239 . S
O661 Mn654 2.089 . S
O661 C669 1.256 . S
O662 Mn657 2.251 . S
O662 C667 1.241 . S
O663 Mn657 2.087 . S
O663 C668 1.256 . S
C664 O670 1.278 . S
C664 O671 1.241 . S
C665 O651 1.244 . S
C665 O653 1.256 . S
C666 O655 1.239 . S
C666 O659 1.256 . S
C667 O656 1.278 . S
C667 O662 1.241 . S
C668 O658 1.244 . S
C668 O663 1.256 . S
C669 O660 1.239 . S
C669 O661 1.256 . S
O670 Mn652 2.221 . S
O670 Mn654 2.290 . S
O670 C664 1.278 . S
O671 Mn654 2.251 . S
O671 C664 1.241 . S
H672 C678 0.930 . S
H673 C681 0.930 . S
H674 C682 0.930 . S
H675 C683 0.930 . S
H676 C686 0.930 . S
H677 C687 0.930 . S
C678 H672 0.930 . S
C678 C679 1.355 . S
C678 C680 1.415 . S
C679 C678 1.355 . S
C679 C681 1.419 . S
C680 C678 1.415 . S
C680 C685 1.425 . S
C680 C687 1.409 . S
C681 H673 0.930 . S
C681 C679 1.419 . S
C681 C682 1.362 . S
C682 H674 0.930 . S
C682 C681 1.362 . S
C682 C685 1.409 . S
C683 H675 0.930 . S
C683 C684 1.355 . S
C683 C685 1.415 . S
C684 C683 1.355 . S
C684 C686 1.419 . S
C685 C680 1.425 . S
C685 C682 1.409 . S
C685 C683 1.415 . S
C686 H676 0.930 . S
C686 C684 1.419 . S
C686 C687 1.362 . S
C687 H677 0.930 . S
C687 C680 1.409 . S
C687 C686 1.362 . S
H688 C694 0.930 . S
H689 C697 0.930 . S
H690 C698 0.930 . S
H691 C699 0.930 . S
H692 C702 0.930 . S
H693 C703 0.930 1_455 S
C694 H688 0.930 . S
C694 C695 1.355 . S
C694 C696 1.415 1_455 S
C695 C694 1.355 . S
C695 C697 1.419 1_455 S
C696 C694 1.415 1_655 S
C696 C701 1.425 . S
C696 C703 1.409 . S
C697 H689 0.930 . S
C697 C695 1.419 1_655 S
C697 C698 1.362 . S
C698 H690 0.930 . S
C698 C697 1.362 . S
C698 C701 1.409 . S
C699 H691 0.930 . S
C699 C700 1.355 . S
C699 C701 1.415 . S
C700 C699 1.355 . S
C700 C702 1.419 . S
C701 C696 1.425 . S
C701 C698 1.409 . S
C701 C699 1.415 . S
C702 H692 0.930 . S
C702 C700 1.419 . S
C702 C703 1.362 . S
C703 H693 0.930 1_655 S
C703 C696 1.409 . S
C703 C702 1.362 . S
H704 C710 0.930 . S
H705 C713 0.930 . S
H706 C714 0.930 . S
H707 C715 0.930 . S
H708 C718 0.930 . S
H709 C719 0.930 . S
C710 H704 0.930 . S
C710 C711 1.355 . S
C710 C712 1.415 . S
C711 C710 1.355 . S
C711 C713 1.419 . S
C712 C710 1.415 . S
C712 C717 1.425 . S
C712 C719 1.409 . S
C713 H705 0.930 . S
C713 C711 1.419 . S
C713 C714 1.362 . S
C714 H706 0.930 . S
C714 C713 1.362 . S
C714 C717 1.409 . S
C715 H707 0.930 . S
C715 C716 1.355 . S
C715 C717 1.415 . S
C716 C715 1.355 . S
C716 C718 1.419 . S
C717 C712 1.425 . S
C717 C714 1.409 . S
C717 C715 1.415 . S
C718 H708 0.930 . S
C718 C716 1.419 . S
C718 C719 1.362 . S
C719 H709 0.930 . S
C719 C712 1.409 . S
C719 C718 1.362 . S
H720 C726 0.930 . S
H721 C729 0.930 . S
H722 C730 0.930 . S
H723 C731 0.930 . S
H724 C734 0.930 . S
H725 C735 0.930 . S
C726 H720 0.930 . S
C726 C727 1.355 . S
C726 C728 1.415 . S
C727 C726 1.355 . S
C727 C729 1.419 . S
C728 C726 1.415 . S
C728 C733 1.425 . S
C728 C735 1.409 . S
C729 H721 0.930 . S
C729 C727 1.419 . S
C729 C730 1.362 . S
C730 H722 0.930 . S
C730 C729 1.362 . S
C730 C733 1.409 . S
C731 H723 0.930 . S
C731 C732 1.355 . S
C731 C733 1.415 . S
C732 C731 1.355 . S
C732 C734 1.419 . S
C733 C728 1.425 . S
C733 C730 1.409 . S
C733 C731 1.415 . S
C734 H724 0.930 . S
C734 C732 1.419 . S
C734 C735 1.362 . S
C735 H725 0.930 . S
C735 C728 1.409 . S
C735 C734 1.362 . S
H736 C742 0.930 . S
H737 C745 0.930 . S
H738 C746 0.930 . S
H739 C747 0.930 . S
H740 C750 0.930 . S
H741 C751 0.930 . S
C742 H736 0.930 . S
C742 C743 1.355 . S
C742 C744 1.415 . S
C743 C742 1.355 . S
C743 C745 1.419 . S
C744 C742 1.415 . S
C744 C749 1.425 . S
C744 C751 1.409 . S
C745 H737 0.930 . S
C745 C743 1.419 . S
C745 C746 1.362 . S
C746 H738 0.930 . S
C746 C745 1.362 . S
C746 C749 1.409 . S
C747 H739 0.930 . S
C747 C748 1.355 . S
C747 C749 1.415 . S
C748 C747 1.355 . S
C748 C750 1.419 . S
C749 C744 1.425 . S
C749 C746 1.409 . S
C749 C747 1.415 . S
C750 H740 0.930 . S
C750 C748 1.419 . S
C750 C751 1.362 . S
C751 H741 0.930 . S
C751 C744 1.409 . S
C751 C750 1.362 . S
H752 C758 0.930 . S
H753 C761 0.930 . S
H754 C762 0.930 . S
H755 C763 0.930 . S
H756 C766 0.930 . S
H757 C767 0.930 . S
C758 H752 0.930 . S
C758 C759 1.355 . S
C758 C760 1.415 . S
C759 C758 1.355 . S
C759 C761 1.419 . S
C760 C758 1.415 . S
C760 C765 1.425 . S
C760 C767 1.409 . S
C761 H753 0.930 . S
C761 C759 1.419 . S
C761 C762 1.362 . S
C762 H754 0.930 . S
C762 C761 1.362 . S
C762 C765 1.409 . S
C763 H755 0.930 . S
C763 C764 1.355 . S
C763 C765 1.415 . S
C764 C763 1.355 . S
C764 C766 1.419 . S
C765 C760 1.425 . S
C765 C762 1.409 . S
C765 C763 1.415 . S
C766 H756 0.930 . S
C766 C764 1.419 . S
C766 C767 1.362 . S
C767 H757 0.930 . S
C767 C760 1.409 . S
C767 C766 1.362 . S
H768 C774 0.930 . S
H769 C777 0.930 . S
H770 C778 0.930 . S
H771 C779 0.930 . S
H772 C782 0.930 . S
H773 C783 0.930 . S
C774 H768 0.930 . S
C774 C775 1.355 . S
C774 C776 1.415 . S
C775 C774 1.355 . S
C775 C777 1.419 . S
C776 C774 1.415 . S
C776 C781 1.425 . S
C776 C783 1.409 . S
C777 H769 0.930 . S
C777 C775 1.419 . S
C777 C778 1.362 . S
C778 H770 0.930 . S
C778 C777 1.362 . S
C778 C781 1.409 . S
C779 H771 0.930 . S
C779 C780 1.355 . S
C779 C781 1.415 . S
C780 C779 1.355 . S
C780 C782 1.419 . S
C781 C776 1.425 . S
C781 C778 1.409 . S
C781 C779 1.415 . S
C782 H772 0.930 . S
C782 C780 1.419 . S
C782 C783 1.362 . S
C783 H773 0.930 . S
C783 C776 1.409 . S
C783 C782 1.362 . S
H784 C790 0.930 . S
H785 C793 0.930 . S
H786 C794 0.930 . S
H787 C795 0.930 . S
H788 C798 0.930 . S
H789 C799 0.930 . S
C790 H784 0.930 . S
C790 C791 1.355 . S
C790 C792 1.415 1_455 S
C791 C790 1.355 . S
C791 C793 1.419 1_455 S
C792 C790 1.415 1_655 S
C792 C797 1.425 . S
C792 C799 1.409 . S
C793 H785 0.930 . S
C793 C791 1.419 1_655 S
C793 C794 1.362 . S
C794 H786 0.930 . S
C794 C793 1.362 . S
C794 C797 1.409 . S
C795 H787 0.930 . S
C795 C796 1.355 . S
C795 C797 1.415 . S
C796 C795 1.355 . S
C796 C798 1.419 . S
C797 C792 1.425 . S
C797 C794 1.409 . S
C797 C795 1.415 . S
C798 H788 0.930 . S
C798 C796 1.419 . S
C798 C799 1.362 . S
C799 H789 0.930 . S
C799 C792 1.409 . S
C799 C798 1.362 . S
H800 C806 0.930 . S
H801 C809 0.930 . S
H802 C810 0.930 . S
H803 C811 0.930 . S
H804 C814 0.930 . S
H805 C815 0.930 . S
C806 H800 0.930 . S
C806 C807 1.355 . S
C806 C808 1.415 . S
C807 C806 1.355 . S
C807 C809 1.419 . S
C808 C806 1.415 . S
C808 C813 1.425 . S
C808 C815 1.409 . S
C809 H801 0.930 . S
C809 C807 1.419 . S
C809 C810 1.362 . S
C810 H802 0.930 . S
C810 C809 1.362 . S
C810 C813 1.409 . S
C811 H803 0.930 . S
C811 C812 1.355 . S
C811 C813 1.415 . S
C812 C811 1.355 . S
C812 C814 1.419 . S
C813 C808 1.425 . S
C813 C810 1.409 . S
C813 C811 1.415 . S
C814 H804 0.930 . S
C814 C812 1.419 . S
C814 C815 1.362 . S
C815 H805 0.930 . S
C815 C808 1.409 . S
C815 C814 1.362 . S
H816 C822 0.930 . S
H817 C825 0.930 . S
H818 C826 0.930 . S
H819 C827 0.930 . S
H820 C830 0.930 . S
H821 C831 0.930 . S
C822 H816 0.930 . S
C822 C823 1.355 1_455 S
C822 C824 1.415 . S
C823 C822 1.355 1_655 S
C823 C825 1.419 . S
C824 C822 1.415 . S
C824 C829 1.425 . S
C824 C831 1.409 . S
C825 H817 0.930 . S
C825 C823 1.419 . S
C825 C826 1.362 . S
C826 H818 0.930 . S
C826 C825 1.362 . S
C826 C829 1.409 1_655 S
C827 H819 0.930 . S
C827 C828 1.355 . S
C827 C829 1.415 . S
C828 C827 1.355 . S
C828 C830 1.419 . S
C829 C824 1.425 . S
C829 C826 1.409 1_455 S
C829 C827 1.415 . S
C830 H820 0.930 . S
C830 C828 1.419 . S
C830 C831 1.362 . S
C831 H821 0.930 . S
C831 C824 1.409 . S
C831 C830 1.362 . S
H832 C838 0.930 . S
H833 C841 0.930 . S
H834 C842 0.930 . S
H835 C843 0.930 . S
H836 C846 0.930 . S
H837 C847 0.930 . S
C838 H832 0.930 . S
C838 C839 1.355 . S
C838 C840 1.415 . S
C839 C838 1.355 . S
C839 C841 1.419 . S
C840 C838 1.415 . S
C840 C845 1.425 . S
C840 C847 1.409 . S
C841 H833 0.930 . S
C841 C839 1.419 . S
C841 C842 1.362 . S
C842 H834 0.930 . S
C842 C841 1.362 . S
C842 C845 1.409 . S
C843 H835 0.930 . S
C843 C844 1.355 . S
C843 C845 1.415 . S
C844 C843 1.355 . S
C844 C846 1.419 . S
C845 C840 1.425 . S
C845 C842 1.409 . S
C845 C843 1.415 . S
C846 H836 0.930 . S
C846 C844 1.419 . S
C846 C847 1.362 . S
C847 H837 0.930 . S
C847 C840 1.409 . S
C847 C846 1.362 . S
H848 C854 0.930 . S
H849 C857 0.930 . S
H850 C858 0.930 . S
H851 C859 0.930 . S
H852 C862 0.930 . S
H853 C863 0.930 . S
C854 H848 0.930 . S
C854 C855 1.355 . S
C854 C856 1.415 . S
C855 C854 1.355 . S
C855 C857 1.419 . S
C856 C854 1.415 . S
C856 C861 1.425 . S
C856 C863 1.409 . S
C857 H849 0.930 . S
C857 C855 1.419 . S
C857 C858 1.362 . S
C858 H850 0.930 . S
C858 C857 1.362 . S
C858 C861 1.409 . S
C859 H851 0.930 . S
C859 C860 1.355 . S
C859 C861 1.415 . S
C860 C859 1.355 . S
C860 C862 1.419 . S
C861 C856 1.425 . S
C861 C858 1.409 . S
C861 C859 1.415 . S
C862 H852 0.930 . S
C862 C860 1.419 . S
C862 C863 1.362 . S
C863 H853 0.930 . S
C863 C856 1.409 . S
C863 C862 1.362 . S
H864 C870 0.930 . S
H865 C873 0.930 . S
H866 C874 0.930 . S
H867 C875 0.930 . S
H868 C878 0.930 . S
H869 C879 0.930 . S
C870 H864 0.930 . S
C870 C871 1.355 . S
C870 C872 1.415 . S
C871 C870 1.355 . S
C871 C873 1.419 . S
C872 C870 1.415 . S
C872 C877 1.425 . S
C872 C879 1.409 . S
C873 H865 0.930 . S
C873 C871 1.419 . S
C873 C874 1.362 . S
C874 H866 0.930 . S
C874 C873 1.362 . S
C874 C877 1.409 . S
C875 H867 0.930 . S
C875 C876 1.355 . S
C875 C877 1.415 . S
C876 C875 1.355 . S
C876 C878 1.419 . S
C877 C872 1.425 . S
C877 C874 1.409 . S
C877 C875 1.415 . S
C878 H868 0.930 . S
C878 C876 1.419 . S
C878 C879 1.362 . S
C879 H869 0.930 . S
C879 C872 1.409 . S
C879 C878 1.362 . S
H880 C886 0.930 . S
H881 C889 0.930 . S
H882 C890 0.930 . S
H883 C891 0.930 . S
H884 C894 0.930 . S
H885 C895 0.930 . S
C886 H880 0.930 . S
C886 C887 1.355 . S
C886 C888 1.415 . S
C887 C886 1.355 . S
C887 C889 1.419 . S
C888 C886 1.415 . S
C888 C893 1.425 . S
C888 C895 1.409 . S
C889 H881 0.930 . S
C889 C887 1.419 . S
C889 C890 1.362 . S
C890 H882 0.930 . S
C890 C889 1.362 . S
C890 C893 1.409 . S
C891 H883 0.930 . S
C891 C892 1.355 . S
C891 C893 1.415 . S
C892 C891 1.355 . S
C892 C894 1.419 . S
C893 C888 1.425 . S
C893 C890 1.409 . S
C893 C891 1.415 . S
C894 H884 0.930 . S
C894 C892 1.419 . S
C894 C895 1.362 . S
C895 H885 0.930 . S
C895 C888 1.409 . S
C895 C894 1.362 . S
H896 C902 0.930 . S
H897 C905 0.930 . S
H898 C906 0.930 . S
H899 C907 0.930 . S
H900 C910 0.930 . S
H901 C911 0.930 . S
C902 H896 0.930 . S
C902 C903 1.355 . S
C902 C904 1.415 . S
C903 C902 1.355 . S
C903 C905 1.419 . S
C904 C902 1.415 . S
C904 C909 1.425 . S
C904 C911 1.409 . S
C905 H897 0.930 . S
C905 C903 1.419 . S
C905 C906 1.362 . S
C906 H898 0.930 . S
C906 C905 1.362 . S
C906 C909 1.409 . S
C907 H899 0.930 . S
C907 C908 1.355 . S
C907 C909 1.415 . S
C908 C907 1.355 . S
C908 C910 1.419 . S
C909 C904 1.425 . S
C909 C906 1.409 . S
C909 C907 1.415 . S
C910 H900 0.930 . S
C910 C908 1.419 . S
C910 C911 1.362 . S
C911 H901 0.930 . S
C911 C904 1.409 . S
C911 C910 1.362 . S
H912 C918 0.930 . S
H913 C921 0.930 . S
H914 C922 0.930 1_655 S
H915 C923 0.930 . S
H916 C926 0.930 . S
H917 C927 0.930 . S
C918 H912 0.930 . S
C918 C919 1.355 . S
C918 C920 1.415 . S
C919 C918 1.355 . S
C919 C921 1.419 . S
C920 C918 1.415 . S
C920 C925 1.425 . S
C920 C927 1.409 . S
C921 H913 0.930 . S
C921 C919 1.419 . S
C921 C922 1.362 . S
C922 H914 0.930 1_455 S
C922 C921 1.362 . S
C922 C925 1.409 . S
C923 H915 0.930 . S
C923 C924 1.355 . S
C923 C925 1.415 1_655 S
C924 C923 1.355 . S
C924 C926 1.419 1_655 S
C925 C920 1.425 . S
C925 C922 1.409 . S
C925 C923 1.415 1_455 S
C926 H916 0.930 . S
C926 C924 1.419 1_455 S
C926 C927 1.362 . S
C927 H917 0.930 . S
C927 C920 1.409 . S
C927 C926 1.362 . S
H928 C934 0.930 . S
H929 C937 0.930 . S
H930 C938 0.930 . S
H931 C939 0.930 . S
H932 C942 0.930 . S
H933 C943 0.930 . S
C934 H928 0.930 . S
C934 C935 1.355 . S
C934 C936 1.415 . S
C935 C934 1.355 . S
C935 C937 1.419 . S
C936 C934 1.415 . S
C936 C941 1.425 . S
C936 C943 1.409 . S
C937 H929 0.930 . S
C937 C935 1.419 . S
C937 C938 1.362 . S
C938 H930 0.930 . S
C938 C937 1.362 . S
C938 C941 1.409 . S
C939 H931 0.930 . S
C939 C940 1.355 . S
C939 C941 1.415 . S
C940 C939 1.355 . S
C940 C942 1.419 . S
C941 C936 1.425 . S
C941 C938 1.409 . S
C941 C939 1.415 . S
C942 H932 0.930 . S
C942 C940 1.419 . S
C942 C943 1.362 . S
C943 H933 0.930 . S
C943 C936 1.409 . S
C943 C942 1.362 . S
H944 C950 0.930 . S
H945 C953 0.930 . S
H946 C954 0.930 . S
H947 C955 0.930 . S
H948 C958 0.930 . S
H949 C959 0.930 . S
C950 H944 0.930 . S
C950 C951 1.355 . S
C950 C952 1.415 . S
C951 C950 1.355 . S
C951 C953 1.419 . S
C952 C950 1.415 . S
C952 C957 1.425 . S
C952 C959 1.409 . S
C953 H945 0.930 . S
C953 C951 1.419 . S
C953 C954 1.362 . S
C954 H946 0.930 . S
C954 C953 1.362 . S
C954 C957 1.409 . S
C955 H947 0.930 . S
C955 C956 1.355 . S
C955 C957 1.415 . S
C956 C955 1.355 . S
C956 C958 1.419 . S
C957 C952 1.425 . S
C957 C954 1.409 . S
C957 C955 1.415 . S
C958 H948 0.930 . S
C958 C956 1.419 . S
C958 C959 1.362 . S
C959 H949 0.930 . S
C959 C952 1.409 . S
C959 C958 1.362 . S
H960 C966 0.930 . S
H961 C969 0.930 . S
H962 C970 0.930 . S
H963 C971 0.930 . S
H964 C974 0.930 . S
H965 C975 0.930 . S
C966 H960 0.930 . S
C966 C967 1.355 . S
C966 C968 1.415 . S
C967 C966 1.355 . S
C967 C969 1.419 . S
C968 C966 1.415 . S
C968 C973 1.425 . S
C968 C975 1.409 . S
C969 H961 0.930 . S
C969 C967 1.419 . S
C969 C970 1.362 . S
C970 H962 0.930 . S
C970 C969 1.362 . S
C970 C973 1.409 . S
C971 H963 0.930 . S
C971 C972 1.355 . S
C971 C973 1.415 . S
C972 C971 1.355 . S
C972 C974 1.419 . S
C973 C968 1.425 . S
C973 C970 1.409 . S
C973 C971 1.415 . S
C974 H964 0.930 . S
C974 C972 1.419 . S
C974 C975 1.362 . S
C975 H965 0.930 . S
C975 C968 1.409 . S
C975 C974 1.362 . S
H976 C982 0.930 . S
H977 C985 0.930 . S
H978 C986 0.930 . S
H979 C987 0.930 . S
H980 C990 0.930 . S
H981 C991 0.930 . S
C982 H976 0.930 . S
C982 C983 1.355 . S
C982 C984 1.415 1_655 S
C983 C982 1.355 . S
C983 C985 1.419 . S
C984 C982 1.415 1_455 S
C984 C989 1.425 . S
C984 C991 1.409 . S
C985 H977 0.930 . S
C985 C983 1.419 . S
C985 C986 1.362 1_655 S
C986 H978 0.930 . S
C986 C985 1.362 1_455 S
C986 C989 1.409 . S
C987 H979 0.930 . S
C987 C988 1.355 . S
C987 C989 1.415 . S
C988 C987 1.355 . S
C988 C990 1.419 . S
C989 C984 1.425 . S
C989 C986 1.409 . S
C989 C987 1.415 . S
C990 H980 0.930 . S
C990 C988 1.419 . S
C990 C991 1.362 . S
C991 H981 0.930 . S
C991 C984 1.409 . S
C991 C990 1.362 . S
H992 C998 0.930 . S
H993 C1001 0.930 . S
H994 C1002 0.930 . S
H995 C1003 0.930 . S
H996 C1006 0.930 . S
H997 C1007 0.930 . S
C998 H992 0.930 . S
C998 C999 1.355 . S
C998 C1000 1.415 . S
C999 C998 1.355 . S
C999 C1001 1.419 . S
C1000 C998 1.415 . S
C1000 C1005 1.425 . S
C1000 C1007 1.409 . S
C1001 H993 0.930 . S
C1001 C999 1.419 . S
C1001 C1002 1.362 . S
C1002 H994 0.930 . S
C1002 C1001 1.362 . S
C1002 C1005 1.409 . S
C1003 H995 0.930 . S
C1003 C1004 1.355 . S
C1003 C1005 1.415 . S
C1004 C1003 1.355 . S
C1004 C1006 1.419 . S
C1005 C1000 1.425 . S
C1005 C1002 1.409 . S
C1005 C1003 1.415 . S
C1006 H996 0.930 . S
C1006 C1004 1.419 . S
C1006 C1007 1.362 . S
C1007 H997 0.930 . S
C1007 C1000 1.409 . S
C1007 C1006 1.362 . S
H1008 C1014 0.930 . S
H1009 C1017 0.930 . S
H1010 C1018 0.919 1_655 S
H1011 C1019 0.930 . S
H1012 C1022 0.930 . S
H1013 C1023 0.930 . S
C1014 H1008 0.930 . S
C1014 C1015 1.355 . S
C1014 C1016 1.415 . S
C1015 C1014 1.355 . S
C1015 C1017 1.419 . S
C1016 C1014 1.415 . S
C1016 C1021 1.425 . S
C1016 C1023 1.409 . S
C1017 H1009 0.930 . S
C1017 C1015 1.419 . S
C1017 C1018 1.362 . S
C1018 H1010 0.919 1_455 S
C1018 C1017 1.362 . S
C1018 C1021 1.409 . S
C1019 H1011 0.930 . S
C1019 C1020 1.355 . S
C1019 C1021 1.415 1_655 S
C1020 C1019 1.355 . S
C1020 C1022 1.419 1_655 S
C1021 C1016 1.425 . S
C1021 C1018 1.409 . S
C1021 C1019 1.415 1_455 S
C1022 H1012 0.930 . S
C1022 C1020 1.419 1_455 S
C1022 C1023 1.362 . S
C1023 H1013 0.930 . S
C1023 C1016 1.409 . S
C1023 C1022 1.362 . S
H1024 C1030 0.930 . S
H1025 C1033 0.930 . S
H1026 C1034 0.930 . S
H1027 C1035 0.930 . S
H1028 C1038 0.930 . S
H1029 C1039 0.930 . S
C1030 H1024 0.930 . S
C1030 C1031 1.355 . S
C1030 C1032 1.415 . S
C1031 C1030 1.355 . S
C1031 C1033 1.419 . S
C1032 C1030 1.415 . S
C1032 C1037 1.425 . S
C1032 C1039 1.409 . S
C1033 H1025 0.930 . S
C1033 C1031 1.419 . S
C1033 C1034 1.362 . S
C1034 H1026 0.930 . S
C1034 C1033 1.362 . S
C1034 C1037 1.409 . S
C1035 H1027 0.930 . S
C1035 C1036 1.355 . S
C1035 C1037 1.415 . S
C1036 C1035 1.355 . S
C1036 C1038 1.419 . S
C1037 C1032 1.425 . S
C1037 C1034 1.409 . S
C1037 C1035 1.415 . S
C1038 H1028 0.930 . S
C1038 C1036 1.419 . S
C1038 C1039 1.362 . S
C1039 H1029 0.930 . S
C1039 C1032 1.409 . S
C1039 C1038 1.362 . S
H1040 C1046 0.930 . S
H1041 C1049 0.930 . S
H1042 C1050 0.930 . S
H1043 C1051 0.930 . S
H1044 C1054 0.930 . S
H1045 C1055 0.930 . S
C1046 H1040 0.930 . S
C1046 C1047 1.355 . S
C1046 C1048 1.415 . S
C1047 C1046 1.355 . S
C1047 C1049 1.419 . S
C1048 C1046 1.415 . S
C1048 C1053 1.425 . S
C1048 C1055 1.409 . S
C1049 H1041 0.930 . S
C1049 C1047 1.419 . S
C1049 C1050 1.362 . S
C1050 H1042 0.930 . S
C1050 C1049 1.362 . S
C1050 C1053 1.409 . S
C1051 H1043 0.930 . S
C1051 C1052 1.355 . S
C1051 C1053 1.415 . S
C1052 C1051 1.355 . S
C1052 C1054 1.419 . S
C1053 C1048 1.425 . S
C1053 C1050 1.409 . S
C1053 C1051 1.415 . S
C1054 H1044 0.930 . S
C1054 C1052 1.419 . S
C1054 C1055 1.362 . S
C1055 H1045 0.930 . S
C1055 C1048 1.409 . S
C1055 C1054 1.362 . S
H1056 C1062 0.930 . S
H1057 C1065 0.930 . S
H1058 C1066 0.930 . S
H1059 C1067 0.930 . S
H1060 C1070 0.930 . S
H1061 C1071 0.930 . S
C1062 H1056 0.930 . S
C1062 C1063 1.355 . S
C1062 C1064 1.415 . S
C1063 C1062 1.355 . S
C1063 C1065 1.419 . S
C1064 C1062 1.415 . S
C1064 C1069 1.425 . S
C1064 C1071 1.409 . S
C1065 H1057 0.930 . S
C1065 C1063 1.419 . S
C1065 C1066 1.362 . S
C1066 H1058 0.930 . S
C1066 C1065 1.362 . S
C1066 C1069 1.409 . S
C1067 H1059 0.930 . S
C1067 C1068 1.355 . S
C1067 C1069 1.415 . S
C1068 C1067 1.355 . S
C1068 C1070 1.419 . S
C1069 C1064 1.425 . S
C1069 C1066 1.409 . S
C1069 C1067 1.415 . S
C1070 H1060 0.930 . S
C1070 C1068 1.419 . S
C1070 C1071 1.362 . S
C1071 H1061 0.930 . S
C1071 C1064 1.409 . S
C1071 C1070 1.362 . S
H1072 C1078 0.930 . S
H1073 C1081 0.930 . S
H1074 C1082 0.930 . S
H1075 C1083 0.930 . S
H1076 C1086 0.930 . S
H1077 C1087 0.930 . S
C1078 H1072 0.930 . S
C1078 C1079 1.355 . S
C1078 C1080 1.415 . S
C1079 C1078 1.355 . S
C1079 C1081 1.419 . S
C1080 C1078 1.415 . S
C1080 C1085 1.425 . S
C1080 C1087 1.409 . S
C1081 H1073 0.930 . S
C1081 C1079 1.419 . S
C1081 C1082 1.362 . S
C1082 H1074 0.930 . S
C1082 C1081 1.362 . S
C1082 C1085 1.409 . S
C1083 H1075 0.930 . S
C1083 C1084 1.355 . S
C1083 C1085 1.415 . S
C1084 C1083 1.355 . S
C1084 C1086 1.419 . S
C1085 C1080 1.425 . S
C1085 C1082 1.409 . S
C1085 C1083 1.415 . S
C1086 H1076 0.930 . S
C1086 C1084 1.419 . S
C1086 C1087 1.362 . S
C1087 H1077 0.930 . S
C1087 C1080 1.409 . S
C1087 C1086 1.362 . S
H1088 C1094 0.930 . S
H1089 C1097 0.930 . S
H1090 C1098 0.930 . S
H1091 C1099 0.930 . S
H1092 C1102 0.930 . S
H1093 C1103 0.930 . S
C1094 H1088 0.930 . S
C1094 C1095 1.355 . S
C1094 C1096 1.415 . S
C1095 C1094 1.355 . S
C1095 C1097 1.419 . S
C1096 C1094 1.415 . S
C1096 C1101 1.425 . S
C1096 C1103 1.409 . S
C1097 H1089 0.930 . S
C1097 C1095 1.419 . S
C1097 C1098 1.362 . S
C1098 H1090 0.930 . S
C1098 C1097 1.362 . S
C1098 C1101 1.409 . S
C1099 H1091 0.930 . S
C1099 C1100 1.355 . S
C1099 C1101 1.415 . S
C1100 C1099 1.355 . S
C1100 C1102 1.419 . S
C1101 C1096 1.425 . S
C1101 C1098 1.409 . S
C1101 C1099 1.415 . S
C1102 H1092 0.930 . S
C1102 C1100 1.419 . S
C1102 C1103 1.362 . S
C1103 H1093 0.930 . S
C1103 C1096 1.409 . S
C1103 C1102 1.362 . S
H1104 C1110 0.930 . S
H1105 C1113 0.924 1_455 S
H1106 C1114 0.930 . S
H1107 C1115 0.930 . S
H1108 C1118 0.930 . S
H1109 C1119 0.930 . S
C1110 H1104 0.930 . S
C1110 C1111 1.355 . S
C1110 C1112 1.415 1_455 S
C1111 C1110 1.355 . S
C1111 C1113 1.408 1_455 S
C1112 C1110 1.415 1_655 S
C1112 C1117 1.425 . S
C1112 C1119 1.409 . S
C1113 H1105 0.924 1_655 S
C1113 C1111 1.408 1_655 S
C1113 C1114 1.380 . S
C1114 H1106 0.930 . S
C1114 C1113 1.380 . S
C1114 C1117 1.409 . S
C1115 H1107 0.930 . S
C1115 C1116 1.355 . S
C1115 C1117 1.415 . S
C1116 C1115 1.355 . S
C1116 C1118 1.419 . S
C1117 C1112 1.425 . S
C1117 C1114 1.409 . S
C1117 C1115 1.415 . S
C1118 H1108 0.930 . S
C1118 C1116 1.419 . S
C1118 C1119 1.362 . S
C1119 H1109 0.930 . S
C1119 C1112 1.409 . S
C1119 C1118 1.362 . S
H1120 C1126 0.930 . S
H1121 C1129 0.930 . S
H1122 C1130 0.930 . S
H1123 C1131 0.930 . S
H1124 C1134 0.930 . S
H1125 C1135 0.930 . S
C1126 H1120 0.930 . S
C1126 C1127 1.355 . S
C1126 C1128 1.415 . S
C1127 C1126 1.355 . S
C1127 C1129 1.419 . S
C1128 C1126 1.415 . S
C1128 C1133 1.425 . S
C1128 C1135 1.409 . S
C1129 H1121 0.930 . S
C1129 C1127 1.419 . S
C1129 C1130 1.362 . S
C1130 H1122 0.930 . S
C1130 C1129 1.362 . S
C1130 C1133 1.409 . S
C1131 H1123 0.930 . S
C1131 C1132 1.355 . S
C1131 C1133 1.415 . S
C1132 C1131 1.355 . S
C1132 C1134 1.419 . S
C1133 C1128 1.425 . S
C1133 C1130 1.409 . S
C1133 C1131 1.415 . S
C1134 H1124 0.930 . S
C1134 C1132 1.419 . S
C1134 C1135 1.362 . S
C1135 H1125 0.930 . S
C1135 C1128 1.409 . S
C1135 C1134 1.362 . S
H1136 C1142 0.930 . S
H1137 C1145 0.930 . S
H1138 C1146 0.930 . S
H1139 C1147 0.930 . S
H1140 C1150 0.930 . S
H1141 C1151 0.930 . S
C1142 H1136 0.930 . S
C1142 C1143 1.355 . S
C1142 C1144 1.415 . S
C1143 C1142 1.355 . S
C1143 C1145 1.419 . S
C1144 C1142 1.415 . S
C1144 C1149 1.425 . S
C1144 C1151 1.409 . S
C1145 H1137 0.930 . S
C1145 C1143 1.419 . S
C1145 C1146 1.362 . S
C1146 H1138 0.930 . S
C1146 C1145 1.362 . S
C1146 C1149 1.409 . S
C1147 H1139 0.930 . S
C1147 C1148 1.355 . S
C1147 C1149 1.415 1_455 S
C1148 C1147 1.355 . S
C1148 C1150 1.419 1_455 S
C1149 C1144 1.425 . S
C1149 C1146 1.409 . S
C1149 C1147 1.415 1_655 S
C1150 H1140 0.930 . S
C1150 C1148 1.419 1_655 S
C1150 C1151 1.362 . S
C1151 H1141 0.930 . S
C1151 C1144 1.409 . S
C1151 C1150 1.362 . S
H1152 C1158 0.930 . S
H1153 C1161 0.930 . S
H1154 C1162 0.930 . S
H1155 C1163 0.930 . S
H1156 C1166 0.930 . S
H1157 C1167 0.930 . S
C1158 H1152 0.930 . S
C1158 C1159 1.355 . S
C1158 C1160 1.415 . S
C1159 C1158 1.355 . S
C1159 C1161 1.419 . S
C1160 C1158 1.415 . S
C1160 C1165 1.425 . S
C1160 C1167 1.409 . S
C1161 H1153 0.930 . S
C1161 C1159 1.419 . S
C1161 C1162 1.362 . S
C1162 H1154 0.930 . S
C1162 C1161 1.362 . S
C1162 C1165 1.409 . S
C1163 H1155 0.930 . S
C1163 C1164 1.355 . S
C1163 C1165 1.415 . S
C1164 C1163 1.355 . S
C1164 C1166 1.419 . S
C1165 C1160 1.425 . S
C1165 C1162 1.409 . S
C1165 C1163 1.415 . S
C1166 H1156 0.930 . S
C1166 C1164 1.419 . S
C1166 C1167 1.362 . S
C1167 H1157 0.930 . S
C1167 C1160 1.409 . S
C1167 C1166 1.362 . S
H1168 C1174 0.930 . S
H1169 C1177 0.930 . S
H1170 C1178 0.930 . S
H1171 C1179 0.930 . S
H1172 C1182 0.930 . S
H1173 C1183 0.930 . S
C1174 H1168 0.930 . S
C1174 C1175 1.355 . S
C1174 C1176 1.415 . S
C1175 C1174 1.355 . S
C1175 C1177 1.419 . S
C1176 C1174 1.415 . S
C1176 C1181 1.425 . S
C1176 C1183 1.409 . S
C1177 H1169 0.930 . S
C1177 C1175 1.419 . S
C1177 C1178 1.362 . S
C1178 H1170 0.930 . S
C1178 C1177 1.362 . S
C1178 C1181 1.409 . S
C1179 H1171 0.930 . S
C1179 C1180 1.355 . S
C1179 C1181 1.415 . S
C1180 C1179 1.355 . S
C1180 C1182 1.419 . S
C1181 C1176 1.425 . S
C1181 C1178 1.409 . S
C1181 C1179 1.415 . S
C1182 H1172 0.930 . S
C1182 C1180 1.419 . S
C1182 C1183 1.362 . S
C1183 H1173 0.930 . S
C1183 C1176 1.409 . S
C1183 C1182 1.362 . S
H1184 C1190 0.930 . S
H1185 C1193 0.930 . S
H1186 C1194 0.930 . S
H1187 C1195 0.930 . S
H1188 C1198 0.930 . S
H1189 C1199 0.930 . S
C1190 H1184 0.930 . S
C1190 C1191 1.355 . S
C1190 C1192 1.415 1_455 S
C1191 C1190 1.355 . S
C1191 C1193 1.419 . S
C1192 C1190 1.415 1_655 S
C1192 C1197 1.425 1_655 S
C1192 C1199 1.409 . S
C1193 H1185 0.930 . S
C1193 C1191 1.419 . S
C1193 C1194 1.362 . S
C1194 H1186 0.930 . S
C1194 C1193 1.362 . S
C1194 C1197 1.409 . S
C1195 H1187 0.930 . S
C1195 C1196 1.355 . S
C1195 C1197 1.415 1_655 S
C1196 C1195 1.355 . S
C1196 C1198 1.419 . S
C1197 C1192 1.425 1_455 S
C1197 C1194 1.409 . S
C1197 C1195 1.415 1_455 S
C1198 H1188 0.930 . S
C1198 C1196 1.419 . S
C1198 C1199 1.362 . S
C1199 H1189 0.930 . S
C1199 C1192 1.409 . S
C1199 C1198 1.362 . S
H1200 C1206 0.930 . S
H1201 C1209 0.930 . S
H1202 C1210 0.930 . S
H1203 C1211 0.930 . S
H1204 C1214 0.930 . S
H1205 C1215 0.930 . S
C1206 H1200 0.930 . S
C1206 C1207 1.355 . S
C1206 C1208 1.415 1_655 S
C1207 C1206 1.355 . S
C1207 C1209 1.419 . S
C1208 C1206 1.415 1_455 S
C1208 C1213 1.425 1_455 S
C1208 C1215 1.409 . S
C1209 H1201 0.930 . S
C1209 C1207 1.419 . S
C1209 C1210 1.362 . S
C1210 H1202 0.930 . S
C1210 C1209 1.362 . S
C1210 C1213 1.409 . S
C1211 H1203 0.930 . S
C1211 C1212 1.355 . S
C1211 C1213 1.415 1_455 S
C1212 C1211 1.355 . S
C1212 C1214 1.419 . S
C1213 C1208 1.425 1_655 S
C1213 C1210 1.409 . S
C1213 C1211 1.415 1_655 S
C1214 H1204 0.930 . S
C1214 C1212 1.419 . S
C1214 C1215 1.362 . S
C1215 H1205 0.930 . S
C1215 C1208 1.409 . S
C1215 C1214 1.362 . S
H1216 C1222 0.930 . S
H1217 C1225 0.930 . S
H1218 C1226 0.930 . S
H1219 C1227 0.930 . S
H1220 C1230 0.930 . S
H1221 C1231 0.930 . S
C1222 H1216 0.930 . S
C1222 C1223 1.355 . S
C1222 C1224 1.415 . S
C1223 C1222 1.355 . S
C1223 C1225 1.419 . S
C1224 C1222 1.415 . S
C1224 C1229 1.425 . S
C1224 C1231 1.409 . S
C1225 H1217 0.930 . S
C1225 C1223 1.419 . S
C1225 C1226 1.362 . S
C1226 H1218 0.930 . S
C1226 C1225 1.362 . S
C1226 C1229 1.409 . S
C1227 H1219 0.930 . S
C1227 C1228 1.355 . S
C1227 C1229 1.415 . S
C1228 C1227 1.355 . S
C1228 C1230 1.419 . S
C1229 C1224 1.425 . S
C1229 C1226 1.409 . S
C1229 C1227 1.415 . S
C1230 H1220 0.930 . S
C1230 C1228 1.419 . S
C1230 C1231 1.362 . S
C1231 H1221 0.930 . S
C1231 C1224 1.409 . S
C1231 C1230 1.362 . S
H1232 C1238 0.930 . S
H1233 C1241 0.930 . S
H1234 C1242 0.930 . S
H1235 C1243 0.930 . S
H1236 C1246 0.930 . S
H1237 C1247 0.930 . S
C1238 H1232 0.930 . S
C1238 C1239 1.355 . S
C1238 C1240 1.415 . S
C1239 C1238 1.355 . S
C1239 C1241 1.419 . S
C1240 C1238 1.415 . S
C1240 C1245 1.425 . S
C1240 C1247 1.409 . S
C1241 H1233 0.930 . S
C1241 C1239 1.419 . S
C1241 C1242 1.362 . S
C1242 H1234 0.930 . S
C1242 C1241 1.362 . S
C1242 C1245 1.409 . S
C1243 H1235 0.930 . S
C1243 C1244 1.355 . S
C1243 C1245 1.415 . S
C1244 C1243 1.355 . S
C1244 C1246 1.419 . S
C1245 C1240 1.425 . S
C1245 C1242 1.409 . S
C1245 C1243 1.415 . S
C1246 H1236 0.930 . S
C1246 C1244 1.419 . S
C1246 C1247 1.362 . S
C1247 H1237 0.930 . S
C1247 C1240 1.409 . S
C1247 C1246 1.362 . S
H1248 C1254 0.930 . S
H1249 C1257 0.930 . S
H1250 C1258 0.930 . S
H1251 C1259 0.930 . S
H1252 C1262 0.930 . S
H1253 C1263 0.930 . S
C1254 H1248 0.930 . S
C1254 C1255 1.355 . S
C1254 C1256 1.415 . S
C1255 C1254 1.355 . S
C1255 C1257 1.419 . S
C1256 C1254 1.415 . S
C1256 C1261 1.425 1_655 S
C1256 C1263 1.409 . S
C1257 H1249 0.930 . S
C1257 C1255 1.419 . S
C1257 C1258 1.362 1_655 S
C1258 H1250 0.930 . S
C1258 C1257 1.362 1_455 S
C1258 C1261 1.409 . S
C1259 H1251 0.930 . S
C1259 C1260 1.355 . S
C1259 C1261 1.415 . S
C1260 C1259 1.355 . S
C1260 C1262 1.419 . S
C1261 C1256 1.425 1_455 S
C1261 C1258 1.409 . S
C1261 C1259 1.415 . S
C1262 H1252 0.930 . S
C1262 C1260 1.419 . S
C1262 C1263 1.362 1_455 S
C1263 H1253 0.930 . S
C1263 C1256 1.409 . S
C1263 C1262 1.362 1_655 S
H1264 C1270 0.930 . S
H1265 C1273 0.930 . S
H1266 C1274 0.930 . S
H1267 C1275 0.930 . S
H1268 C1278 0.930 . S
H1269 C1279 0.930 . S
C1270 H1264 0.930 . S
C1270 C1271 1.355 . S
C1270 C1272 1.415 . S
C1271 C1270 1.355 . S
C1271 C1273 1.419 . S
C1272 C1270 1.415 . S
C1272 C1277 1.425 . S
C1272 C1279 1.409 . S
C1273 H1265 0.930 . S
C1273 C1271 1.419 . S
C1273 C1274 1.362 . S
C1274 H1266 0.930 . S
C1274 C1273 1.362 . S
C1274 C1277 1.409 . S
C1275 H1267 0.930 . S
C1275 C1276 1.355 . S
C1275 C1277 1.415 . S
C1276 C1275 1.355 . S
C1276 C1278 1.419 . S
C1277 C1272 1.425 . S
C1277 C1274 1.409 . S
C1277 C1275 1.415 . S
C1278 H1268 0.930 . S
C1278 C1276 1.419 . S
C1278 C1279 1.362 . S
C1279 H1269 0.930 . S
C1279 C1272 1.409 . S
C1279 C1278 1.362 . S
H1280 C1286 0.930 . S
H1281 C1289 0.930 . S
H1282 C1290 0.930 . S
H1283 C1291 0.930 . S
H1284 C1294 0.930 . S
H1285 C1295 0.930 . S
C1286 H1280 0.930 . S
C1286 C1287 1.355 . S
C1286 C1288 1.415 . S
C1287 C1286 1.355 . S
C1287 C1289 1.419 . S
C1288 C1286 1.415 . S
C1288 C1293 1.425 . S
C1288 C1295 1.409 . S
C1289 H1281 0.930 . S
C1289 C1287 1.419 . S
C1289 C1290 1.362 . S
C1290 H1282 0.930 . S
C1290 C1289 1.362 . S
C1290 C1293 1.409 . S
C1291 H1283 0.930 . S
C1291 C1292 1.355 . S
C1291 C1293 1.415 . S
C1292 C1291 1.355 . S
C1292 C1294 1.419 . S
C1293 C1288 1.425 . S
C1293 C1290 1.409 . S
C1293 C1291 1.415 . S
C1294 H1284 0.930 . S
C1294 C1292 1.419 . S
C1294 C1295 1.362 . S
C1295 H1285 0.930 . S
C1295 C1288 1.409 . S
C1295 C1294 1.362 . S
H1296 C1302 0.930 . S
H1297 C1305 0.930 . S
H1298 C1306 0.930 . S
H1299 C1307 0.930 . S
H1300 C1310 0.930 . S
H1301 C1311 0.930 . S
C1302 H1296 0.930 . S
C1302 C1303 1.355 . S
C1302 C1304 1.415 . S
C1303 C1302 1.355 . S
C1303 C1305 1.419 1_455 S
C1304 C1302 1.415 . S
C1304 C1309 1.425 1_455 S
C1304 C1311 1.409 . S
C1305 H1297 0.930 . S
C1305 C1303 1.419 1_655 S
C1305 C1306 1.362 . S
C1306 H1298 0.930 . S
C1306 C1305 1.362 . S
C1306 C1309 1.409 . S
C1307 H1299 0.930 . S
C1307 C1308 1.355 . S
C1307 C1309 1.415 . S
C1308 C1307 1.355 . S
C1308 C1310 1.419 1_655 S
C1309 C1304 1.425 1_655 S
C1309 C1306 1.409 . S
C1309 C1307 1.415 . S
C1310 H1300 0.930 . S
C1310 C1308 1.419 1_455 S
C1310 C1311 1.362 . S
C1311 H1301 0.930 . S
C1311 C1304 1.409 . S
C1311 C1310 1.362 . S
H1312 C1318 0.930 . S
H1313 C1321 0.930 . S
H1314 C1322 0.930 . S
H1315 C1323 0.930 . S
H1316 C1326 0.930 . S
H1317 C1327 0.930 . S
C1318 H1312 0.930 . S
C1318 C1319 1.355 . S
C1318 C1320 1.415 1_455 S
C1319 C1318 1.355 . S
C1319 C1321 1.419 . S
C1320 C1318 1.415 1_655 S
C1320 C1325 1.425 1_655 S
C1320 C1327 1.409 . S
C1321 H1313 0.930 . S
C1321 C1319 1.419 . S
C1321 C1322 1.362 . S
C1322 H1314 0.930 . S
C1322 C1321 1.362 . S
C1322 C1325 1.409 . S
C1323 H1315 0.930 . S
C1323 C1324 1.355 . S
C1323 C1325 1.415 1_655 S
C1324 C1323 1.355 . S
C1324 C1326 1.419 . S
C1325 C1320 1.425 1_455 S
C1325 C1322 1.409 . S
C1325 C1323 1.415 1_455 S
C1326 H1316 0.930 . S
C1326 C1324 1.419 . S
C1326 C1327 1.362 . S
C1327 H1317 0.930 . S
C1327 C1320 1.409 . S
C1327 C1326 1.362 . S
H1328 C1334 0.930 . S
H1329 C1337 0.930 . S
H1330 C1338 0.930 . S
H1331 C1339 0.930 . S
H1332 C1342 0.930 . S
H1333 C1343 0.930 . S
C1334 H1328 0.930 . S
C1334 C1335 1.355 . S
C1334 C1336 1.415 1_655 S
C1335 C1334 1.355 . S
C1335 C1337 1.419 . S
C1336 C1334 1.415 1_455 S
C1336 C1341 1.425 1_455 S
C1336 C1343 1.409 . S
C1337 H1329 0.930 . S
C1337 C1335 1.419 . S
C1337 C1338 1.362 . S
C1338 H1330 0.930 . S
C1338 C1337 1.362 . S
C1338 C1341 1.409 . S
C1339 H1331 0.930 . S
C1339 C1340 1.355 . S
C1339 C1341 1.415 1_455 S
C1340 C1339 1.355 . S
C1340 C1342 1.419 . S
C1341 C1336 1.425 1_655 S
C1341 C1338 1.409 . S
C1341 C1339 1.415 1_655 S
C1342 H1332 0.930 . S
C1342 C1340 1.419 . S
C1342 C1343 1.362 . S
C1343 H1333 0.930 . S
C1343 C1336 1.409 . S
C1343 C1342 1.362 . S
H1344 C1350 0.930 . S
H1345 C1353 0.930 . S
H1346 C1354 0.930 . S
H1347 C1355 0.930 . S
H1348 C1358 0.930 . S
H1349 C1359 0.930 . S
C1350 H1344 0.930 . S
C1350 C1351 1.355 . S
C1350 C1352 1.415 . S
C1351 C1350 1.355 . S
C1351 C1353 1.419 . S
C1352 C1350 1.415 . S
C1352 C1357 1.425 . S
C1352 C1359 1.409 . S
C1353 H1345 0.930 . S
C1353 C1351 1.419 . S
C1353 C1354 1.362 . S
C1354 H1346 0.930 . S
C1354 C1353 1.362 . S
C1354 C1357 1.409 . S
C1355 H1347 0.930 . S
C1355 C1356 1.355 . S
C1355 C1357 1.415 . S
C1356 C1355 1.355 . S
C1356 C1358 1.419 . S
C1357 C1352 1.425 . S
C1357 C1354 1.409 . S
C1357 C1355 1.415 . S
C1358 H1348 0.930 . S
C1358 C1356 1.419 . S
C1358 C1359 1.362 . S
C1359 H1349 0.930 . S
C1359 C1352 1.409 . S
C1359 C1358 1.362 . S
H1360 C1366 0.930 . S
H1361 C1369 0.930 . S
H1362 C1370 0.930 . S
H1363 C1371 0.930 . S
H1364 C1374 0.930 . S
H1365 C1375 0.930 . S
C1366 H1360 0.930 . S
C1366 C1367 1.355 . S
C1366 C1368 1.415 . S
C1367 C1366 1.355 . S
C1367 C1369 1.419 . S
C1368 C1366 1.415 . S
C1368 C1373 1.425 . S
C1368 C1375 1.409 . S
C1369 H1361 0.930 . S
C1369 C1367 1.419 . S
C1369 C1370 1.362 . S
C1370 H1362 0.930 . S
C1370 C1369 1.362 . S
C1370 C1373 1.409 . S
C1371 H1363 0.930 . S
C1371 C1372 1.355 . S
C1371 C1373 1.415 . S
C1372 C1371 1.355 . S
C1372 C1374 1.419 . S
C1373 C1368 1.425 . S
C1373 C1370 1.409 . S
C1373 C1371 1.415 . S
C1374 H1364 0.930 . S
C1374 C1372 1.419 . S
C1374 C1375 1.362 . S
C1375 H1365 0.930 . S
C1375 C1368 1.409 . S
C1375 C1374 1.362 . S
H1376 C1382 0.930 . S
H1377 C1385 0.930 . S
H1378 C1386 0.930 . S
H1379 C1387 0.930 . S
H1380 C1390 0.930 . S
H1381 C1391 0.930 . S
C1382 H1376 0.930 . S
C1382 C1383 1.355 . S
C1382 C1384 1.415 . S
C1383 C1382 1.355 . S
C1383 C1385 1.419 . S
C1384 C1382 1.415 . S
C1384 C1389 1.425 1_455 S
C1384 C1391 1.409 . S
C1385 H1377 0.930 . S
C1385 C1383 1.419 . S
C1385 C1386 1.362 1_455 S
C1386 H1378 0.930 . S
C1386 C1385 1.362 1_655 S
C1386 C1389 1.409 . S
C1387 H1379 0.930 . S
C1387 C1388 1.355 . S
C1387 C1389 1.415 . S
C1388 C1387 1.355 . S
C1388 C1390 1.419 . S
C1389 C1384 1.425 1_655 S
C1389 C1386 1.409 . S
C1389 C1387 1.415 . S
C1390 H1380 0.930 . S
C1390 C1388 1.419 . S
C1390 C1391 1.362 1_655 S
C1391 H1381 0.930 . S
C1391 C1384 1.409 . S
C1391 C1390 1.362 1_455 S
H1392 C1398 0.930 . S
H1393 C1401 0.930 . S
H1394 C1402 0.930 . S
H1395 C1403 0.930 . S
H1396 C1406 0.930 . S
H1397 C1407 0.930 . S
C1398 H1392 0.930 . S
C1398 C1399 1.355 . S
C1398 C1400 1.415 . S
C1399 C1398 1.355 . S
C1399 C1401 1.419 . S
C1400 C1398 1.415 . S
C1400 C1405 1.425 . S
C1400 C1407 1.409 . S
C1401 H1393 0.930 . S
C1401 C1399 1.419 . S
C1401 C1402 1.362 . S
C1402 H1394 0.930 . S
C1402 C1401 1.362 . S
C1402 C1405 1.409 . S
C1403 H1395 0.930 . S
C1403 C1404 1.355 . S
C1403 C1405 1.415 . S
C1404 C1403 1.355 . S
C1404 C1406 1.419 . S
C1405 C1400 1.425 . S
C1405 C1402 1.409 . S
C1405 C1403 1.415 . S
C1406 H1396 0.930 . S
C1406 C1404 1.419 . S
C1406 C1407 1.362 . S
C1407 H1397 0.930 . S
C1407 C1400 1.409 . S
C1407 C1406 1.362 . S
H1408 C1414 0.930 . S
H1409 C1417 0.930 . S
H1410 C1418 0.930 . S
H1411 C1419 0.930 . S
H1412 C1422 0.930 . S
H1413 C1423 0.930 . S
C1414 H1408 0.930 . S
C1414 C1415 1.355 . S
C1414 C1416 1.415 . S
C1415 C1414 1.355 . S
C1415 C1417 1.419 . S
C1416 C1414 1.415 . S
C1416 C1421 1.425 . S
C1416 C1423 1.409 . S
C1417 H1409 0.930 . S
C1417 C1415 1.419 . S
C1417 C1418 1.362 . S
C1418 H1410 0.930 . S
C1418 C1417 1.362 . S
C1418 C1421 1.409 . S
C1419 H1411 0.930 . S
C1419 C1420 1.355 . S
C1419 C1421 1.415 . S
C1420 C1419 1.355 . S
C1420 C1422 1.419 . S
C1421 C1416 1.425 . S
C1421 C1418 1.409 . S
C1421 C1419 1.415 . S
C1422 H1412 0.930 . S
C1422 C1420 1.419 . S
C1422 C1423 1.362 . S
C1423 H1413 0.930 . S
C1423 C1416 1.409 . S
C1423 C1422 1.362 . S
H1424 C1430 0.930 . S
H1425 C1433 0.930 . S
H1426 C1434 0.930 . S
H1427 C1435 0.930 . S
H1428 C1438 0.930 . S
H1429 C1439 0.930 . S
C1430 H1424 0.930 . S
C1430 C1431 1.355 . S
C1430 C1432 1.415 . S
C1431 C1430 1.355 . S
C1431 C1433 1.419 1_655 S
C1432 C1430 1.415 . S
C1432 C1437 1.425 1_655 S
C1432 C1439 1.409 . S
C1433 H1425 0.930 . S
C1433 C1431 1.419 1_455 S
C1433 C1434 1.362 . S
C1434 H1426 0.930 . S
C1434 C1433 1.362 . S
C1434 C1437 1.409 . S
C1435 H1427 0.930 . S
C1435 C1436 1.355 . S
C1435 C1437 1.415 . S
C1436 C1435 1.355 . S
C1436 C1438 1.419 1_455 S
C1437 C1432 1.425 1_455 S
C1437 C1434 1.409 . S
C1437 C1435 1.415 . S
C1438 H1428 0.930 . S
C1438 C1436 1.419 1_655 S
C1438 C1439 1.362 . S
C1439 H1429 0.930 . S
C1439 C1432 1.409 . S
C1439 C1438 1.362 . S
H1440 C1446 0.930 . S
H1441 C1449 0.930 . S
H1442 C1450 0.930 . S
H1443 C1451 0.930 . S
H1444 C1454 0.930 . S
H1445 C1455 0.930 . S
C1446 H1440 0.930 . S
C1446 C1447 1.355 . S
C1446 C1448 1.415 . S
C1447 C1446 1.355 . S
C1447 C1449 1.419 . S
C1448 C1446 1.415 . S
C1448 C1453 1.425 . S
C1448 C1455 1.409 . S
C1449 H1441 0.930 . S
C1449 C1447 1.419 . S
C1449 C1450 1.362 . S
C1450 H1442 0.930 . S
C1450 C1449 1.362 . S
C1450 C1453 1.409 . S
C1451 H1443 0.930 . S
C1451 C1452 1.355 . S
C1451 C1453 1.415 . S
C1452 C1451 1.355 . S
C1452 C1454 1.419 . S
C1453 C1448 1.425 . S
C1453 C1450 1.409 . S
C1453 C1451 1.415 . S
C1454 H1444 0.930 . S
C1454 C1452 1.419 . S
C1454 C1455 1.362 . S
C1455 H1445 0.930 . S
C1455 C1448 1.409 . S
C1455 C1454 1.362 . S
H1456 C1462 0.930 1_565 S
H1457 C1465 0.930 . S
H1458 C1466 0.930 . S
H1459 C1467 0.930 1_545 S
H1460 C1470 0.930 . S
H1461 C1471 0.930 . S
C1462 H1456 0.930 1_545 S
C1462 C1463 1.355 . S
C1462 C1464 1.401 1_645 S
C1463 C1462 1.355 . S
C1463 C1465 1.419 . S
C1464 C1462 1.401 1_465 S
C1464 C1469 1.424 1_465 S
C1464 C1471 1.424 . S
C1465 H1457 0.930 . S
C1465 C1463 1.419 . S
C1465 C1466 1.362 . S
C1466 H1458 0.930 . S
C1466 C1465 1.362 . S
C1466 C1469 1.424 . S
C1467 H1459 0.930 1_565 S
C1467 C1468 1.355 . S
C1467 C1469 1.401 1_465 S
C1468 C1467 1.355 . S
C1468 C1470 1.419 . S
C1469 C1464 1.424 1_645 S
C1469 C1466 1.424 . S
C1469 C1467 1.401 1_645 S
C1470 H1460 0.930 . S
C1470 C1468 1.419 . S
C1470 C1471 1.362 . S
C1471 H1461 0.930 . S
C1471 C1464 1.424 . S
C1471 C1470 1.362 . S
H1472 C1478 0.930 . S
H1473 C1481 0.930 . S
H1474 C1482 0.930 . S
H1475 C1483 0.930 . S
H1476 C1486 0.930 . S
H1477 C1487 0.930 . S
C1478 H1472 0.930 . S
C1478 C1479 1.355 . S
C1478 C1480 1.415 . S
C1479 C1478 1.355 . S
C1479 C1481 1.419 . S
C1480 C1478 1.415 . S
C1480 C1485 1.425 . S
C1480 C1487 1.409 . S
C1481 H1473 0.930 . S
C1481 C1479 1.419 . S
C1481 C1482 1.362 . S
C1482 H1474 0.930 . S
C1482 C1481 1.362 . S
C1482 C1485 1.409 . S
C1483 H1475 0.930 . S
C1483 C1484 1.355 . S
C1483 C1485 1.415 . S
C1484 C1483 1.355 . S
C1484 C1486 1.419 . S
C1485 C1480 1.425 . S
C1485 C1482 1.409 . S
C1485 C1483 1.415 . S
C1486 H1476 0.930 . S
C1486 C1484 1.419 . S
C1486 C1487 1.362 . S
C1487 H1477 0.930 . S
C1487 C1480 1.409 . S
C1487 C1486 1.362 . S
H1488 C1494 0.930 . S
H1489 C1497 0.933 . S
H1490 C1498 0.930 . S
H1491 C1499 0.930 . S
H1492 C1502 0.933 . S
H1493 C1503 0.930 . S
C1494 H1488 0.930 . S
C1494 C1495 1.355 . S
C1494 C1496 1.415 . S
C1495 C1494 1.355 . S
C1495 C1497 1.419 . S
C1496 C1494 1.415 . S
C1496 C1501 1.425 1_544 S
C1496 C1503 1.409 . S
C1497 H1489 0.933 . S
C1497 C1495 1.419 . S
C1497 C1498 1.362 1_544 S
C1498 H1490 0.930 . S
C1498 C1497 1.362 1_566 S
C1498 C1501 1.409 . S
C1499 H1491 0.930 . S
C1499 C1500 1.355 . S
C1499 C1501 1.415 . S
C1500 C1499 1.355 . S
C1500 C1502 1.419 . S
C1501 C1496 1.425 1_566 S
C1501 C1498 1.409 . S
C1501 C1499 1.415 . S
C1502 H1492 0.933 . S
C1502 C1500 1.419 . S
C1502 C1503 1.362 1_566 S
C1503 H1493 0.930 . S
C1503 C1496 1.409 . S
C1503 C1502 1.362 1_544 S
H1504 C1510 0.930 . S
H1505 C1513 0.930 . S
H1506 C1514 0.930 . S
H1507 C1515 0.930 . S
H1508 C1518 0.930 . S
H1509 C1519 0.930 . S
C1510 H1504 0.930 . S
C1510 C1511 1.355 . S
C1510 C1512 1.415 . S
C1511 C1510 1.355 . S
C1511 C1513 1.419 . S
C1512 C1510 1.415 . S
C1512 C1517 1.425 . S
C1512 C1519 1.409 . S
C1513 H1505 0.930 . S
C1513 C1511 1.419 . S
C1513 C1514 1.362 . S
C1514 H1506 0.930 . S
C1514 C1513 1.362 . S
C1514 C1517 1.409 . S
C1515 H1507 0.930 . S
C1515 C1516 1.355 . S
C1515 C1517 1.415 . S
C1516 C1515 1.355 . S
C1516 C1518 1.419 . S
C1517 C1512 1.425 . S
C1517 C1514 1.409 . S
C1517 C1515 1.415 . S
C1518 H1508 0.930 . S
C1518 C1516 1.419 . S
C1518 C1519 1.362 . S
C1519 H1509 0.930 . S
C1519 C1512 1.409 . S
C1519 C1518 1.362 . S
H1520 C1526 0.930 . S
H1521 C1529 0.930 . S
H1522 C1530 0.930 . S
H1523 C1531 0.930 . S
H1524 C1534 0.930 . S
H1525 C1535 0.930 . S
C1526 H1520 0.930 . S
C1526 C1527 1.355 . S
C1526 C1528 1.415 . S
C1527 C1526 1.355 . S
C1527 C1529 1.419 1_545 S
C1528 C1526 1.415 . S
C1528 C1533 1.425 1_545 S
C1528 C1535 1.409 . S
C1529 H1521 0.930 . S
C1529 C1527 1.419 1_565 S
C1529 C1530 1.362 . S
C1530 H1522 0.930 . S
C1530 C1529 1.362 . S
C1530 C1533 1.409 . S
C1531 H1523 0.930 . S
C1531 C1532 1.355 . S
C1531 C1533 1.415 . S
C1532 C1531 1.355 . S
C1532 C1534 1.419 1_565 S
C1533 C1528 1.425 1_565 S
C1533 C1530 1.409 . S
C1533 C1531 1.415 . S
C1534 H1524 0.930 . S
C1534 C1532 1.419 1_545 S
C1534 C1535 1.362 . S
C1535 H1525 0.930 . S
C1535 C1528 1.409 . S
C1535 C1534 1.362 . S
H1536 C1542 0.930 . S
H1537 C1545 0.930 . S
H1538 C1546 0.930 . S
H1539 C1547 0.930 . S
H1540 C1550 0.930 . S
H1541 C1551 0.930 . S
C1542 H1536 0.930 . S
C1542 C1543 1.355 . S
C1542 C1544 1.415 . S
C1543 C1542 1.355 . S
C1543 C1545 1.419 . S
C1544 C1542 1.415 . S
C1544 C1549 1.425 . S
C1544 C1551 1.409 . S
C1545 H1537 0.930 . S
C1545 C1543 1.419 . S
C1545 C1546 1.362 . S
C1546 H1538 0.930 . S
C1546 C1545 1.362 . S
C1546 C1549 1.409 . S
C1547 H1539 0.930 . S
C1547 C1548 1.355 . S
C1547 C1549 1.415 . S
C1548 C1547 1.355 . S
C1548 C1550 1.419 . S
C1549 C1544 1.425 . S
C1549 C1546 1.409 . S
C1549 C1547 1.415 . S
C1550 H1540 0.930 . S
C1550 C1548 1.419 . S
C1550 C1551 1.362 . S
C1551 H1541 0.930 . S
C1551 C1544 1.409 . S
C1551 C1550 1.362 . S
H1552 C1558 0.932 . S
H1553 C1561 0.930 . S
H1554 C1562 0.930 . S
H1555 C1563 0.932 . S
H1556 C1566 0.930 . S
H1557 C1567 0.930 . S
C1558 H1552 0.932 . S
C1558 C1559 1.355 . S
C1558 C1560 1.415 1_546 S
C1559 C1558 1.355 . S
C1559 C1561 1.419 . S
C1560 C1558 1.415 1_564 S
C1560 C1565 1.425 1_464 S
C1560 C1567 1.409 . S
C1561 H1553 0.930 . S
C1561 C1559 1.419 . S
C1561 C1562 1.362 1_455 S
C1562 H1554 0.930 . S
C1562 C1561 1.362 1_655 S
C1562 C1565 1.409 . S
C1563 H1555 0.932 . S
C1563 C1564 1.355 . S
C1563 C1565 1.415 1_564 S
C1564 C1563 1.355 . S
C1564 C1566 1.419 . S
C1565 C1560 1.425 1_646 S
C1565 C1562 1.409 . S
C1565 C1563 1.415 1_546 S
C1566 H1556 0.930 . S
C1566 C1564 1.419 . S
C1566 C1567 1.362 1_655 S
C1567 H1557 0.930 . S
C1567 C1560 1.409 . S
C1567 C1566 1.362 1_455 S
H1568 C1574 0.930 . S
H1569 C1577 0.930 . S
H1570 C1578 0.930 . S
H1571 C1579 0.930 . S
H1572 C1582 0.930 . S
H1573 C1583 0.930 . S
C1574 H1568 0.930 . S
C1574 C1575 1.355 . S
C1574 C1576 1.415 . S
C1575 C1574 1.355 . S
C1575 C1577 1.419 . S
C1576 C1574 1.415 . S
C1576 C1581 1.425 . S
C1576 C1583 1.409 . S
C1577 H1569 0.930 . S
C1577 C1575 1.419 . S
C1577 C1578 1.362 . S
C1578 H1570 0.930 . S
C1578 C1577 1.362 . S
C1578 C1581 1.409 . S
C1579 H1571 0.930 . S
C1579 C1580 1.355 . S
C1579 C1581 1.415 . S
C1580 C1579 1.355 . S
C1580 C1582 1.419 . S
C1581 C1576 1.425 . S
C1581 C1578 1.409 . S
C1581 C1579 1.415 . S
C1582 H1572 0.930 . S
C1582 C1580 1.419 . S
C1582 C1583 1.362 . S
C1583 H1573 0.930 . S
C1583 C1576 1.409 . S
C1583 C1582 1.362 . S
H1584 C1590 0.930 . S
H1585 C1593 0.930 . S
H1586 C1594 0.930 . S
H1587 C1595 0.930 . S
H1588 C1598 0.930 . S
H1589 C1599 0.930 . S
C1590 H1584 0.930 . S
C1590 C1591 1.355 . S
C1590 C1592 1.415 . S
C1591 C1590 1.355 . S
C1591 C1593 1.419 . S
C1592 C1590 1.415 . S
C1592 C1597 1.425 . S
C1592 C1599 1.409 . S
C1593 H1585 0.930 . S
C1593 C1591 1.419 . S
C1593 C1594 1.362 . S
C1594 H1586 0.930 . S
C1594 C1593 1.362 . S
C1594 C1597 1.409 . S
C1595 H1587 0.930 . S
C1595 C1596 1.355 . S
C1595 C1597 1.415 . S
C1596 C1595 1.355 . S
C1596 C1598 1.419 . S
C1597 C1592 1.425 . S
C1597 C1594 1.409 . S
C1597 C1595 1.415 . S
C1598 H1588 0.930 . S
C1598 C1596 1.419 . S
C1598 C1599 1.362 . S
C1599 H1589 0.930 . S
C1599 C1592 1.409 . S
C1599 C1598 1.362 . S
H1600 C1606 0.930 . S
H1601 C1609 0.930 . S
H1602 C1610 0.930 . S
H1603 C1611 0.930 . S
H1604 C1614 0.930 . S
H1605 C1615 0.930 . S
C1606 H1600 0.930 . S
C1606 C1607 1.355 . S
C1606 C1608 1.415 . S
C1607 C1606 1.355 . S
C1607 C1609 1.419 . S
C1608 C1606 1.415 . S
C1608 C1613 1.425 . S
C1608 C1615 1.409 . S
C1609 H1601 0.930 . S
C1609 C1607 1.419 . S
C1609 C1610 1.362 . S
C1610 H1602 0.930 . S
C1610 C1609 1.362 . S
C1610 C1613 1.409 . S
C1611 H1603 0.930 . S
C1611 C1612 1.355 . S
C1611 C1613 1.415 . S
C1612 C1611 1.355 . S
C1612 C1614 1.419 . S
C1613 C1608 1.425 . S
C1613 C1610 1.409 . S
C1613 C1611 1.415 . S
C1614 H1604 0.930 . S
C1614 C1612 1.419 . S
C1614 C1615 1.362 . S
C1615 H1605 0.930 . S
C1615 C1608 1.409 . S
C1615 C1614 1.362 . S
H1616 C1622 0.930 . S
H1617 C1625 0.930 . S
H1618 C1626 0.930 . S
H1619 C1627 0.930 . S
H1620 C1630 0.930 . S
H1621 C1631 0.930 . S
C1622 H1616 0.930 . S
C1622 C1623 1.355 . S
C1622 C1624 1.415 . S
C1623 C1622 1.355 . S
C1623 C1625 1.419 . S
C1624 C1622 1.415 . S
C1624 C1629 1.425 . S
C1624 C1631 1.409 . S
C1625 H1617 0.930 . S
C1625 C1623 1.419 . S
C1625 C1626 1.362 . S
C1626 H1618 0.930 . S
C1626 C1625 1.362 . S
C1626 C1629 1.409 . S
C1627 H1619 0.930 . S
C1627 C1628 1.355 . S
C1627 C1629 1.415 . S
C1628 C1627 1.355 . S
C1628 C1630 1.419 . S
C1629 C1624 1.425 . S
C1629 C1626 1.409 . S
C1629 C1627 1.415 . S
C1630 H1620 0.930 . S
C1630 C1628 1.419 . S
C1630 C1631 1.362 . S
C1631 H1621 0.930 . S
C1631 C1624 1.409 . S
C1631 C1630 1.362 . S
H1632 C1638 0.930 . S
H1633 C1641 0.930 1_556 S
H1634 C1642 0.930 . S
H1635 C1643 0.930 . S
H1636 C1646 0.930 1_554 S
H1637 C1647 0.930 . S
C1638 H1632 0.930 . S
C1638 C1639 1.355 . S
C1638 C1640 1.415 . S
C1639 C1638 1.355 . S
C1639 C1641 1.419 . S
C1640 C1638 1.415 . S
C1640 C1645 1.425 1_554 S
C1640 C1647 1.409 . S
C1641 H1633 0.930 1_554 S
C1641 C1639 1.419 . S
C1641 C1642 1.362 1_554 S
C1642 H1634 0.930 . S
C1642 C1641 1.362 1_556 S
C1642 C1645 1.409 . S
C1643 H1635 0.930 . S
C1643 C1644 1.355 . S
C1643 C1645 1.415 . S
C1644 C1643 1.355 . S
C1644 C1646 1.419 . S
C1645 C1640 1.425 1_556 S
C1645 C1642 1.409 . S
C1645 C1643 1.415 . S
C1646 H1636 0.930 1_556 S
C1646 C1644 1.419 . S
C1646 C1647 1.362 1_556 S
C1647 H1637 0.930 . S
C1647 C1640 1.409 . S
C1647 C1646 1.362 1_554 S
H1648 C1654 0.930 . S
H1649 C1657 0.930 . S
H1650 C1658 0.930 . S
H1651 C1659 0.930 . S
H1652 C1662 0.930 . S
H1653 C1663 0.930 . S
C1654 H1648 0.930 . S
C1654 C1655 1.355 . S
C1654 C1656 1.435 . S
C1655 C1654 1.355 . S
C1655 C1657 1.419 . S
C1656 C1654 1.435 . S
C1656 C1661 1.423 1_655 S
C1656 C1663 1.391 1_655 S
C1657 H1649 0.930 . S
C1657 C1655 1.419 . S
C1657 C1658 1.362 . S
C1658 H1650 0.930 . S
C1658 C1657 1.362 . S
C1658 C1661 1.391 1_655 S
C1659 H1651 0.930 . S
C1659 C1660 1.355 . S
C1659 C1661 1.435 . S
C1660 C1659 1.355 . S
C1660 C1662 1.419 . S
C1661 C1656 1.423 1_455 S
C1661 C1658 1.391 1_455 S
C1661 C1659 1.435 . S
C1662 H1652 0.930 . S
C1662 C1660 1.419 . S
C1662 C1663 1.362 . S
C1663 H1653 0.930 . S
C1663 C1656 1.391 1_455 S
C1663 C1662 1.362 . S
H1664 C1670 0.930 . S
H1665 C1673 0.930 . S
H1666 C1674 0.930 . S
H1667 C1675 0.930 . S
H1668 C1678 0.930 . S
H1669 C1679 0.930 . S
C1670 H1664 0.930 . S
C1670 C1671 1.355 . S
C1670 C1672 1.418 1_554 S
C1671 C1670 1.355 . S
C1671 C1673 1.419 . S
C1672 C1670 1.418 1_556 S
C1672 C1677 1.425 1_456 S
C1672 C1679 1.406 . S
C1673 H1665 0.930 . S
C1673 C1671 1.419 . S
C1673 C1674 1.362 1_455 S
C1674 H1666 0.930 . S
C1674 C1673 1.362 1_655 S
C1674 C1677 1.406 . S
C1675 H1667 0.930 . S
C1675 C1676 1.355 . S
C1675 C1677 1.418 1_556 S
C1676 C1675 1.355 . S
C1676 C1678 1.419 . S
C1677 C1672 1.425 1_654 S
C1677 C1674 1.406 . S
C1677 C1675 1.418 1_554 S
C1678 H1668 0.930 . S
C1678 C1676 1.419 . S
C1678 C1679 1.362 1_655 S
C1679 H1669 0.930 . S
C1679 C1672 1.406 . S
C1679 C1678 1.362 1_455 S
H1680 C1686 0.930 . S
H1681 C1689 0.930 . S
H1682 C1690 0.930 . S
H1683 C1691 0.930 . S
H1684 C1694 0.930 . S
H1685 C1695 0.930 . S
C1686 H1680 0.930 . S
C1686 C1687 1.355 . S
C1686 C1688 1.415 . S
C1687 C1686 1.355 . S
C1687 C1689 1.419 . S
C1688 C1686 1.415 . S
C1688 C1693 1.425 . S
C1688 C1695 1.409 . S
C1689 H1681 0.930 . S
C1689 C1687 1.419 . S
C1689 C1690 1.362 . S
C1690 H1682 0.930 . S
C1690 C1689 1.362 . S
C1690 C1693 1.409 . S
C1691 H1683 0.930 . S
C1691 C1692 1.355 . S
C1691 C1693 1.415 . S
C1692 C1691 1.355 . S
C1692 C1694 1.419 . S
C1693 C1688 1.425 . S
C1693 C1690 1.409 . S
C1693 C1691 1.415 . S
C1694 H1684 0.930 . S
C1694 C1692 1.419 . S
C1694 C1695 1.362 . S
C1695 H1685 0.930 . S
C1695 C1688 1.409 . S
C1695 C1694 1.362 . S
H1696 C1702 0.930 . S
H1697 C1705 0.930 . S
H1698 C1706 0.930 . S
H1699 C1707 0.930 . S
H1700 C1710 0.930 . S
H1701 C1711 0.930 . S
C1702 H1696 0.930 . S
C1702 C1703 1.355 . S
C1702 C1704 1.415 . S
C1703 C1702 1.355 . S
C1703 C1705 1.419 . S
C1704 C1702 1.415 . S
C1704 C1709 1.425 . S
C1704 C1711 1.409 1_545 S
C1705 H1697 0.930 . S
C1705 C1703 1.419 . S
C1705 C1706 1.362 . S
C1706 H1698 0.930 . S
C1706 C1705 1.362 . S
C1706 C1709 1.409 . S
C1707 H1699 0.930 . S
C1707 C1708 1.355 . S
C1707 C1709 1.415 . S
C1708 C1707 1.355 . S
C1708 C1710 1.419 1_545 S
C1709 C1704 1.425 . S
C1709 C1706 1.409 . S
C1709 C1707 1.415 . S
C1710 H1700 0.930 . S
C1710 C1708 1.419 1_565 S
C1710 C1711 1.362 . S
C1711 H1701 0.930 . S
C1711 C1704 1.409 1_565 S
C1711 C1710 1.362 . S
H1712 C1718 0.930 . S
H1713 C1721 0.930 . S
H1714 C1722 0.939 . S
H1715 C1723 0.930 1_565 S
H1716 C1726 0.930 . S
H1717 C1727 0.930 . S
C1718 H1712 0.930 . S
C1718 C1719 1.355 . S
C1718 C1720 1.415 . S
C1719 C1718 1.355 . S
C1719 C1721 1.419 . S
C1720 C1718 1.415 . S
C1720 C1725 1.425 . S
C1720 C1727 1.409 . S
C1721 H1713 0.930 . S
C1721 C1719 1.419 . S
C1721 C1722 1.362 . S
C1722 H1714 0.939 . S
C1722 C1721 1.362 . S
C1722 C1725 1.409 . S
C1723 H1715 0.930 1_545 S
C1723 C1724 1.355 . S
C1723 C1725 1.415 . S
C1724 C1723 1.355 . S
C1724 C1726 1.419 . S
C1725 C1720 1.425 . S
C1725 C1722 1.409 . S
C1725 C1723 1.415 . S
C1726 H1716 0.930 . S
C1726 C1724 1.419 . S
C1726 C1727 1.362 . S
C1727 H1717 0.930 . S
C1727 C1720 1.409 . S
C1727 C1726 1.362 . S
H1728 C1734 0.930 . S
H1729 C1737 0.930 1_545 S
H1730 C1738 0.930 . S
H1731 C1739 0.930 . S
H1732 C1742 0.930 . S
H1733 C1743 0.930 . S
C1734 H1728 0.930 . S
C1734 C1735 1.355 . S
C1734 C1736 1.415 . S
C1735 C1734 1.355 . S
C1735 C1737 1.419 . S
C1736 C1734 1.415 . S
C1736 C1741 1.425 . S
C1736 C1743 1.409 . S
C1737 H1729 0.930 1_565 S
C1737 C1735 1.419 . S
C1737 C1738 1.362 . S
C1738 H1730 0.930 . S
C1738 C1737 1.362 . S
C1738 C1741 1.409 . S
C1739 H1731 0.930 . S
C1739 C1740 1.355 . S
C1739 C1741 1.415 . S
C1740 C1739 1.355 . S
C1740 C1742 1.419 . S
C1741 C1736 1.425 . S
C1741 C1738 1.409 . S
C1741 C1739 1.415 . S
C1742 H1732 0.930 . S
C1742 C1740 1.419 . S
C1742 C1743 1.362 . S
C1743 H1733 0.930 . S
C1743 C1736 1.409 . S
C1743 C1742 1.362 . S
H1744 C1750 0.930 . S
H1745 C1753 0.930 . S
H1746 C1754 0.930 . S
H1747 C1755 0.930 . S
H1748 C1758 0.930 . S
H1749 C1759 0.930 . S
C1750 H1744 0.930 . S
C1750 C1751 1.355 . S
C1750 C1752 1.415 . S
C1751 C1750 1.355 . S
C1751 C1753 1.419 . S
C1752 C1750 1.415 . S
C1752 C1757 1.425 . S
C1752 C1759 1.409 . S
C1753 H1745 0.930 . S
C1753 C1751 1.419 . S
C1753 C1754 1.362 . S
C1754 H1746 0.930 . S
C1754 C1753 1.362 . S
C1754 C1757 1.409 . S
C1755 H1747 0.930 . S
C1755 C1756 1.355 . S
C1755 C1757 1.415 . S
C1756 C1755 1.355 . S
C1756 C1758 1.419 . S
C1757 C1752 1.425 . S
C1757 C1754 1.409 . S
C1757 C1755 1.415 . S
C1758 H1748 0.930 . S
C1758 C1756 1.419 . S
C1758 C1759 1.362 . S
C1759 H1749 0.930 . S
C1759 C1752 1.409 . S
C1759 C1758 1.362 . S
H1760 C1766 0.930 . S
H1761 C1769 0.930 . S
H1762 C1770 0.930 . S
H1763 C1771 0.930 . S
H1764 C1774 0.930 . S
H1765 C1775 0.930 1_545 S
C1766 H1760 0.930 . S
C1766 C1767 1.355 . S
C1766 C1768 1.415 . S
C1767 C1766 1.355 . S
C1767 C1769 1.419 . S
C1768 C1766 1.415 . S
C1768 C1773 1.425 . S
C1768 C1775 1.409 . S
C1769 H1761 0.930 . S
C1769 C1767 1.419 . S
C1769 C1770 1.362 . S
C1770 H1762 0.930 . S
C1770 C1769 1.362 . S
C1770 C1773 1.409 . S
C1771 H1763 0.930 . S
C1771 C1772 1.355 . S
C1771 C1773 1.415 . S
C1772 C1771 1.355 . S
C1772 C1774 1.419 1_565 S
C1773 C1768 1.425 . S
C1773 C1770 1.409 . S
C1773 C1771 1.415 . S
C1774 H1764 0.930 . S
C1774 C1772 1.419 1_545 S
C1774 C1775 1.362 1_545 S
C1775 H1765 0.930 1_565 S
C1775 C1768 1.409 . S
C1775 C1774 1.362 1_565 S
H1776 C1782 0.930 . S
H1777 C1785 0.930 . S
H1778 C1786 0.930 . S
H1779 C1787 0.930 . S
H1780 C1790 0.930 . S
H1781 C1791 0.930 . S
C1782 H1776 0.930 . S
C1782 C1783 1.355 . S
C1782 C1784 1.415 . S
C1783 C1782 1.355 . S
C1783 C1785 1.419 1_565 S
C1784 C1782 1.415 . S
C1784 C1789 1.425 . S
C1784 C1791 1.409 . S
C1785 H1777 0.930 . S
C1785 C1783 1.419 1_545 S
C1785 C1786 1.362 . S
C1786 H1778 0.930 . S
C1786 C1785 1.362 . S
C1786 C1789 1.409 1_545 S
C1787 H1779 0.930 . S
C1787 C1788 1.355 . S
C1787 C1789 1.415 . S
C1788 C1787 1.355 . S
C1788 C1790 1.419 . S
C1789 C1784 1.425 . S
C1789 C1786 1.409 1_565 S
C1789 C1787 1.415 . S
C1790 H1780 0.930 . S
C1790 C1788 1.419 . S
C1790 C1791 1.362 . S
C1791 H1781 0.930 . S
C1791 C1784 1.409 . S
C1791 C1790 1.362 . S
H1792 C1798 0.930 . S
H1793 C1801 0.930 . S
H1794 C1802 0.930 . S
H1795 C1803 0.930 . S
H1796 C1806 0.930 . S
H1797 C1807 0.930 . S
C1798 H1792 0.930 . S
C1798 C1799 1.355 . S
C1798 C1800 1.415 . S
C1799 C1798 1.355 . S
C1799 C1801 1.419 1_545 S
C1800 C1798 1.415 . S
C1800 C1805 1.425 . S
C1800 C1807 1.409 . S
C1801 H1793 0.930 . S
C1801 C1799 1.419 1_565 S
C1801 C1802 1.362 1_565 S
C1802 H1794 0.930 . S
C1802 C1801 1.362 1_545 S
C1802 C1805 1.409 . S
C1803 H1795 0.930 . S
C1803 C1804 1.355 . S
C1803 C1805 1.415 . S
C1804 C1803 1.355 . S
C1804 C1806 1.419 . S
C1805 C1800 1.425 . S
C1805 C1802 1.409 . S
C1805 C1803 1.415 . S
C1806 H1796 0.930 . S
C1806 C1804 1.419 . S
C1806 C1807 1.362 . S
C1807 H1797 0.930 . S
C1807 C1800 1.409 . S
C1807 C1806 1.362 . S
H1808 C1814 0.930 . S
H1809 C1817 0.930 . S
H1810 C1818 0.930 . S
H1811 C1819 0.930 . S
H1812 C1822 0.930 . S
H1813 C1823 0.930 1_565 S
C1814 H1808 0.930 . S
C1814 C1815 1.355 1_565 S
C1814 C1816 1.415 1_565 S
C1815 C1814 1.355 1_545 S
C1815 C1817 1.419 . S
C1816 C1814 1.415 1_545 S
C1816 C1821 1.425 . S
C1816 C1823 1.409 . S
C1817 H1809 0.930 . S
C1817 C1815 1.419 . S
C1817 C1818 1.362 . S
C1818 H1810 0.930 . S
C1818 C1817 1.362 . S
C1818 C1821 1.409 . S
C1819 H1811 0.930 . S
C1819 C1820 1.355 . S
C1819 C1821 1.415 . S
C1820 C1819 1.355 . S
C1820 C1822 1.419 . S
C1821 C1816 1.425 . S
C1821 C1818 1.409 . S
C1821 C1819 1.415 . S
C1822 H1812 0.930 . S
C1822 C1820 1.419 . S
C1822 C1823 1.362 . S
C1823 H1813 0.930 1_545 S
C1823 C1816 1.409 . S
C1823 C1822 1.362 . S
H1824 C1830 0.930 . S
H1825 C1833 0.930 . S
H1826 C1834 0.930 . S
H1827 C1835 0.930 . S
H1828 C1838 0.930 . S
H1829 C1839 0.930 . S
C1830 H1824 0.930 . S
C1830 C1831 1.355 . S
C1830 C1832 1.415 . S
C1831 C1830 1.355 . S
C1831 C1833 1.419 . S
C1832 C1830 1.415 . S
C1832 C1837 1.425 . S
C1832 C1839 1.409 . S
C1833 H1825 0.930 . S
C1833 C1831 1.419 . S
C1833 C1834 1.362 . S
C1834 H1826 0.930 . S
C1834 C1833 1.362 . S
C1834 C1837 1.409 . S
C1835 H1827 0.930 . S
C1835 C1836 1.355 . S
C1835 C1837 1.415 . S
C1836 C1835 1.355 . S
C1836 C1838 1.419 . S
C1837 C1832 1.425 . S
C1837 C1834 1.409 . S
C1837 C1835 1.415 . S
C1838 H1828 0.930 . S
C1838 C1836 1.419 . S
C1838 C1839 1.362 . S
C1839 H1829 0.930 . S
C1839 C1832 1.409 . S
C1839 C1838 1.362 . S
H1840 C1846 0.930 . S
H1841 C1849 0.930 . S
H1842 C1850 0.930 . S
H1843 C1851 0.930 . S
H1844 C1854 0.930 . S
H1845 C1855 0.930 . S
C1846 H1840 0.930 . S
C1846 C1847 1.355 . S
C1846 C1848 1.415 . S
C1847 C1846 1.355 . S
C1847 C1849 1.419 . S
C1848 C1846 1.415 . S
C1848 C1853 1.425 . S
C1848 C1855 1.409 . S
C1849 H1841 0.930 . S
C1849 C1847 1.419 . S
C1849 C1850 1.362 . S
C1850 H1842 0.930 . S
C1850 C1849 1.362 . S
C1850 C1853 1.409 . S
C1851 H1843 0.930 . S
C1851 C1852 1.355 . S
C1851 C1853 1.415 . S
C1852 C1851 1.355 . S
C1852 C1854 1.419 . S
C1853 C1848 1.425 . S
C1853 C1850 1.409 . S
C1853 C1851 1.415 . S
C1854 H1844 0.930 . S
C1854 C1852 1.419 . S
C1854 C1855 1.362 . S
C1855 H1845 0.930 . S
C1855 C1848 1.409 . S
C1855 C1854 1.362 . S
H1856 C1862 0.930 . S
H1857 C1865 0.930 . S
H1858 C1866 0.930 . S
H1859 C1867 0.930 . S
H1860 C1870 0.930 . S
H1861 C1871 0.930 . S
C1862 H1856 0.930 . S
C1862 C1863 1.355 . S
C1862 C1864 1.415 . S
C1863 C1862 1.355 . S
C1863 C1865 1.419 . S
C1864 C1862 1.415 . S
C1864 C1869 1.425 . S
C1864 C1871 1.409 . S
C1865 H1857 0.930 . S
C1865 C1863 1.419 . S
C1865 C1866 1.362 . S
C1866 H1858 0.930 . S
C1866 C1865 1.362 . S
C1866 C1869 1.409 . S
C1867 H1859 0.930 . S
C1867 C1868 1.355 . S
C1867 C1869 1.415 . S
C1868 C1867 1.355 . S
C1868 C1870 1.419 . S
C1869 C1864 1.425 . S
C1869 C1866 1.409 . S
C1869 C1867 1.415 . S
C1870 H1860 0.930 . S
C1870 C1868 1.419 . S
C1870 C1871 1.362 . S
C1871 H1861 0.930 . S
C1871 C1864 1.409 . S
C1871 C1870 1.362 . S
H1872 C1878 0.930 . S
H1873 C1881 0.930 . S
H1874 C1882 0.930 . S
H1875 C1883 0.930 . S
H1876 C1886 0.930 . S
H1877 C1887 0.930 . S
C1878 H1872 0.930 . S
C1878 C1879 1.355 . S
C1878 C1880 1.415 . S
C1879 C1878 1.355 . S
C1879 C1881 1.419 . S
C1880 C1878 1.415 . S
C1880 C1885 1.425 . S
C1880 C1887 1.409 . S
C1881 H1873 0.930 . S
C1881 C1879 1.419 . S
C1881 C1882 1.362 . S
C1882 H1874 0.930 . S
C1882 C1881 1.362 . S
C1882 C1885 1.409 . S
C1883 H1875 0.930 . S
C1883 C1884 1.355 . S
C1883 C1885 1.415 . S
C1884 C1883 1.355 . S
C1884 C1886 1.419 . S
C1885 C1880 1.425 . S
C1885 C1882 1.409 . S
C1885 C1883 1.415 . S
C1886 H1876 0.930 . S
C1886 C1884 1.419 . S
C1886 C1887 1.362 . S
C1887 H1877 0.930 . S
C1887 C1880 1.409 . S
C1887 C1886 1.362 . S
H1888 C1894 0.930 . S
H1889 C1897 0.930 . S
H1890 C1898 0.930 . S
H1891 C1899 0.930 . S
H1892 C1902 0.930 . S
H1893 C1903 0.930 . S
C1894 H1888 0.930 . S
C1894 C1895 1.355 . S
C1894 C1896 1.415 . S
C1895 C1894 1.355 . S
C1895 C1897 1.419 . S
C1896 C1894 1.415 . S
C1896 C1901 1.425 . S
C1896 C1903 1.409 . S
C1897 H1889 0.930 . S
C1897 C1895 1.419 . S
C1897 C1898 1.362 . S
C1898 H1890 0.930 . S
C1898 C1897 1.362 . S
C1898 C1901 1.409 . S
C1899 H1891 0.930 . S
C1899 C1900 1.355 . S
C1899 C1901 1.415 . S
C1900 C1899 1.355 . S
C1900 C1902 1.419 . S
C1901 C1896 1.425 . S
C1901 C1898 1.409 . S
C1901 C1899 1.415 . S
C1902 H1892 0.930 . S
C1902 C1900 1.419 . S
C1902 C1903 1.362 . S
C1903 H1893 0.930 . S
C1903 C1896 1.409 . S
C1903 C1902 1.362 . S
H1904 C1910 0.930 . S
H1905 C1913 0.930 . S
H1906 C1914 0.930 . S
H1907 C1915 0.930 . S
H1908 C1918 0.930 . S
H1909 C1919 0.930 . S
C1910 H1904 0.930 . S
C1910 C1911 1.355 . S
C1910 C1912 1.415 . S
C1911 C1910 1.355 . S
C1911 C1913 1.419 . S
C1912 C1910 1.415 . S
C1912 C1917 1.425 . S
C1912 C1919 1.409 . S
C1913 H1905 0.930 . S
C1913 C1911 1.419 . S
C1913 C1914 1.362 . S
C1914 H1906 0.930 . S
C1914 C1913 1.362 . S
C1914 C1917 1.409 . S
C1915 H1907 0.930 . S
C1915 C1916 1.355 . S
C1915 C1917 1.415 . S
C1916 C1915 1.355 . S
C1916 C1918 1.419 . S
C1917 C1912 1.425 . S
C1917 C1914 1.409 . S
C1917 C1915 1.415 . S
C1918 H1908 0.930 . S
C1918 C1916 1.419 . S
C1918 C1919 1.362 . S
C1919 H1909 0.930 . S
C1919 C1912 1.409 . S
C1919 C1918 1.362 . S
H1920 C1926 0.930 . S
H1921 C1929 0.930 . S
H1922 C1930 0.930 . S
H1923 C1931 0.930 . S
H1924 C1934 0.930 . S
H1925 C1935 0.930 . S
C1926 H1920 0.930 . S
C1926 C1927 1.355 . S
C1926 C1928 1.415 . S
C1927 C1926 1.355 . S
C1927 C1929 1.419 . S
C1928 C1926 1.415 . S
C1928 C1933 1.425 . S
C1928 C1935 1.409 . S
C1929 H1921 0.930 . S
C1929 C1927 1.419 . S
C1929 C1930 1.362 . S
C1930 H1922 0.930 . S
C1930 C1929 1.362 . S
C1930 C1933 1.409 . S
C1931 H1923 0.930 . S
C1931 C1932 1.355 . S
C1931 C1933 1.415 . S
C1932 C1931 1.355 . S
C1932 C1934 1.419 . S
C1933 C1928 1.425 . S
C1933 C1930 1.409 . S
C1933 C1931 1.415 . S
C1934 H1924 0.930 . S
C1934 C1932 1.419 . S
C1934 C1935 1.362 . S
C1935 H1925 0.930 . S
C1935 C1928 1.409 . S
C1935 C1934 1.362 . S
H1936 C1942 0.930 . S
H1937 C1945 0.930 . S
H1938 C1946 0.930 . S
H1939 C1947 0.930 . S
H1940 C1950 0.930 . S
H1941 C1951 0.930 . S
C1942 H1936 0.930 . S
C1942 C1943 1.355 . S
C1942 C1944 1.415 . S
C1943 C1942 1.355 . S
C1943 C1945 1.419 . S
C1944 C1942 1.415 . S
C1944 C1949 1.425 . S
C1944 C1951 1.409 . S
C1945 H1937 0.930 . S
C1945 C1943 1.419 . S
C1945 C1946 1.362 . S
C1946 H1938 0.930 . S
C1946 C1945 1.362 . S
C1946 C1949 1.409 . S
C1947 H1939 0.930 . S
C1947 C1948 1.355 . S
C1947 C1949 1.415 . S
C1948 C1947 1.355 . S
C1948 C1950 1.419 . S
C1949 C1944 1.425 . S
C1949 C1946 1.409 . S
C1949 C1947 1.415 . S
C1950 H1940 0.930 . S
C1950 C1948 1.419 . S
C1950 C1951 1.362 . S
C1951 H1941 0.930 . S
C1951 C1944 1.409 . S
C1951 C1950 1.362 . S
H1952 C1958 0.930 . S
H1953 C1961 0.930 . S
H1954 C1962 0.930 . S
H1955 C1963 0.930 . S
H1956 C1966 0.930 . S
H1957 C1967 0.930 . S
C1958 H1952 0.930 . S
C1958 C1959 1.355 . S
C1958 C1960 1.415 . S
C1959 C1958 1.355 . S
C1959 C1961 1.419 . S
C1960 C1958 1.415 . S
C1960 C1965 1.425 1_545 S
C1960 C1967 1.409 . S
C1961 H1953 0.930 . S
C1961 C1959 1.419 . S
C1961 C1962 1.362 1_545 S
C1962 H1954 0.930 . S
C1962 C1961 1.362 1_565 S
C1962 C1965 1.409 . S
C1963 H1955 0.930 . S
C1963 C1964 1.355 . S
C1963 C1965 1.415 . S
C1964 C1963 1.355 . S
C1964 C1966 1.419 . S
C1965 C1960 1.425 1_565 S
C1965 C1962 1.409 . S
C1965 C1963 1.415 . S
C1966 H1956 0.930 . S
C1966 C1964 1.419 . S
C1966 C1967 1.362 1_565 S
C1967 H1957 0.930 . S
C1967 C1960 1.409 . S
C1967 C1966 1.362 1_545 S
H1968 C1974 0.930 . S
H1969 C1977 0.930 . S
H1970 C1978 0.930 . S
H1971 C1979 0.930 . S
H1972 C1982 0.930 . S
H1973 C1983 0.930 . S
C1974 H1968 0.930 . S
C1974 C1975 1.355 . S
C1974 C1976 1.415 . S
C1975 C1974 1.355 . S
C1975 C1977 1.419 . S
C1976 C1974 1.415 . S
C1976 C1981 1.425 . S
C1976 C1983 1.409 . S
C1977 H1969 0.930 . S
C1977 C1975 1.419 . S
C1977 C1978 1.362 . S
C1978 H1970 0.930 . S
C1978 C1977 1.362 . S
C1978 C1981 1.409 . S
C1979 H1971 0.930 . S
C1979 C1980 1.355 . S
C1979 C1981 1.415 . S
C1980 C1979 1.355 . S
C1980 C1982 1.419 . S
C1981 C1976 1.425 . S
C1981 C1978 1.409 . S
C1981 C1979 1.415 . S
C1982 H1972 0.930 . S
C1982 C1980 1.419 . S
C1982 C1983 1.362 . S
C1983 H1973 0.930 . S
C1983 C1976 1.409 . S
C1983 C1982 1.362 . S
H1984 C1990 0.930 . S
H1985 C1993 0.930 . S
H1986 C1994 0.930 . S
H1987 C1995 0.930 . S
H1988 C1998 0.930 . S
H1989 C1999 0.930 . S
C1990 H1984 0.930 . S
C1990 C1991 1.355 . S
C1990 C1992 1.415 . S
C1991 C1990 1.355 . S
C1991 C1993 1.419 . S
C1992 C1990 1.415 . S
C1992 C1997 1.425 1_545 S
C1992 C1999 1.409 . S
C1993 H1985 0.930 . S
C1993 C1991 1.419 . S
C1993 C1994 1.362 1_545 S
C1994 H1986 0.930 . S
C1994 C1993 1.362 1_565 S
C1994 C1997 1.409 . S
C1995 H1987 0.930 . S
C1995 C1996 1.355 . S
C1995 C1997 1.415 . S
C1996 C1995 1.355 . S
C1996 C1998 1.419 . S
C1997 C1992 1.425 1_565 S
C1997 C1994 1.409 . S
C1997 C1995 1.415 . S
C1998 H1988 0.930 . S
C1998 C1996 1.419 . S
C1998 C1999 1.362 1_565 S
C1999 H1989 0.930 . S
C1999 C1992 1.409 . S
C1999 C1998 1.362 1_545 S
H2000 C2006 0.930 . S
H2001 C2009 0.921 1_554 S
H2002 C2010 0.930 . S
H2003 C2011 0.930 . S
H2004 C2014 0.921 1_556 S
H2005 C2015 0.930 . S
C2006 H2000 0.930 . S
C2006 C2007 1.355 . S
C2006 C2008 1.415 . S
C2007 C2006 1.355 . S
C2007 C2009 1.465 . S
C2008 C2006 1.415 . S
C2008 C2013 1.425 1_556 S
C2008 C2015 1.409 . S
C2009 H2001 0.921 1_556 S
C2009 C2007 1.465 . S
C2009 C2010 1.327 1_556 S
C2010 H2002 0.930 . S
C2010 C2009 1.327 1_554 S
C2010 C2013 1.409 . S
C2011 H2003 0.930 . S
C2011 C2012 1.355 . S
C2011 C2013 1.415 . S
C2012 C2011 1.355 . S
C2012 C2014 1.465 . S
C2013 C2008 1.425 1_554 S
C2013 C2010 1.409 . S
C2013 C2011 1.415 . S
C2014 H2004 0.921 1_554 S
C2014 C2012 1.465 . S
C2014 C2015 1.327 1_554 S
C2015 H2005 0.930 . S
C2015 C2008 1.409 . S
C2015 C2014 1.327 1_556 S
H2016 C2022 0.930 . S
H2017 C2025 0.930 . S
H2018 C2026 0.930 . S
H2019 C2027 0.930 . S
H2020 C2030 0.930 . S
H2021 C2031 0.930 . S
C2022 H2016 0.930 . S
C2022 C2023 1.355 . S
C2022 C2024 1.415 . S
C2023 C2022 1.355 . S
C2023 C2025 1.419 . S
C2024 C2022 1.415 . S
C2024 C2029 1.425 1_565 S
C2024 C2031 1.409 1_565 S
C2025 H2017 0.930 . S
C2025 C2023 1.419 . S
C2025 C2026 1.362 . S
C2026 H2018 0.930 . S
C2026 C2025 1.362 . S
C2026 C2029 1.409 1_565 S
C2027 H2019 0.930 . S
C2027 C2028 1.355 . S
C2027 C2029 1.415 . S
C2028 C2027 1.355 . S
C2028 C2030 1.419 . S
C2029 C2024 1.425 1_545 S
C2029 C2026 1.409 1_545 S
C2029 C2027 1.415 . S
C2030 H2020 0.930 . S
C2030 C2028 1.419 . S
C2030 C2031 1.362 . S
C2031 H2021 0.930 . S
C2031 C2024 1.409 1_545 S
C2031 C2030 1.362 . S
H2032 C2038 0.930 . S
H2033 C2041 0.930 . S
H2034 C2042 0.930 . S
H2035 C2043 0.930 . S
H2036 C2046 0.930 . S
H2037 C2047 0.930 . S
C2038 H2032 0.930 . S
C2038 C2039 1.355 . S
C2038 C2040 1.415 . S
C2039 C2038 1.355 . S
C2039 C2041 1.419 . S
C2040 C2038 1.415 . S
C2040 C2045 1.425 . S
C2040 C2047 1.409 . S
C2041 H2033 0.930 . S
C2041 C2039 1.419 . S
C2041 C2042 1.362 . S
C2042 H2034 0.930 . S
C2042 C2041 1.362 . S
C2042 C2045 1.409 . S
C2043 H2035 0.930 . S
C2043 C2044 1.355 . S
C2043 C2045 1.415 . S
C2044 C2043 1.355 . S
C2044 C2046 1.419 . S
C2045 C2040 1.425 . S
C2045 C2042 1.409 . S
C2045 C2043 1.415 . S
C2046 H2036 0.930 . S
C2046 C2044 1.419 . S
C2046 C2047 1.362 . S
C2047 H2037 0.930 . S
C2047 C2040 1.409 . S
C2047 C2046 1.362 . S
H2048 C2054 0.930 . S
H2049 C2057 0.930 . S
H2050 C2058 0.932 1_545 S
H2051 C2059 0.930 . S
H2052 C2062 0.930 . S
H2053 C2063 0.932 1_565 S
C2054 H2048 0.930 . S
C2054 C2055 1.355 . S
C2054 C2056 1.415 . S
C2055 C2054 1.355 . S
C2055 C2057 1.419 . S
C2056 C2054 1.415 . S
C2056 C2061 1.425 1_565 S
C2056 C2063 1.410 1_565 S
C2057 H2049 0.930 . S
C2057 C2055 1.419 . S
C2057 C2058 1.360 . S
C2058 H2050 0.932 1_565 S
C2058 C2057 1.360 . S
C2058 C2061 1.410 1_565 S
C2059 H2051 0.930 . S
C2059 C2060 1.355 . S
C2059 C2061 1.415 . S
C2060 C2059 1.355 . S
C2060 C2062 1.419 . S
C2061 C2056 1.425 1_545 S
C2061 C2058 1.410 1_545 S
C2061 C2059 1.415 . S
C2062 H2052 0.930 . S
C2062 C2060 1.419 . S
C2062 C2063 1.360 . S
C2063 H2053 0.932 1_545 S
C2063 C2056 1.410 1_545 S
C2063 C2062 1.360 . S
H2064 C2070 0.930 . S
H2065 C2073 0.930 . S
H2066 C2074 0.930 . S
H2067 C2075 0.930 . S
H2068 C2078 0.930 . S
H2069 C2079 0.930 . S
C2070 H2064 0.930 . S
C2070 C2071 1.355 . S
C2070 C2072 1.415 1_554 S
C2071 C2070 1.355 . S
C2071 C2073 1.419 . S
C2072 C2070 1.415 1_556 S
C2072 C2077 1.425 1_556 S
C2072 C2079 1.409 . S
C2073 H2065 0.930 . S
C2073 C2071 1.419 . S
C2073 C2074 1.362 . S
C2074 H2066 0.930 . S
C2074 C2073 1.362 . S
C2074 C2077 1.409 . S
C2075 H2067 0.930 . S
C2075 C2076 1.355 . S
C2075 C2077 1.415 1_556 S
C2076 C2075 1.355 . S
C2076 C2078 1.419 . S
C2077 C2072 1.425 1_554 S
C2077 C2074 1.409 . S
C2077 C2075 1.415 1_554 S
C2078 H2068 0.930 . S
C2078 C2076 1.419 . S
C2078 C2079 1.362 . S
C2079 H2069 0.930 . S
C2079 C2072 1.409 . S
C2079 C2078 1.362 . S
H2080 C2086 0.930 . S
H2081 C2089 0.930 . S
H2082 C2090 0.930 . S
H2083 C2091 0.930 . S
H2084 C2094 0.930 . S
H2085 C2095 0.930 . S
C2086 H2080 0.930 . S
C2086 C2087 1.355 . S
C2086 C2088 1.415 . S
C2087 C2086 1.355 . S
C2087 C2089 1.419 . S
C2088 C2086 1.415 . S
C2088 C2093 1.425 . S
C2088 C2095 1.409 . S
C2089 H2081 0.930 . S
C2089 C2087 1.419 . S
C2089 C2090 1.362 . S
C2090 H2082 0.930 . S
C2090 C2089 1.362 . S
C2090 C2093 1.409 . S
C2091 H2083 0.930 . S
C2091 C2092 1.355 . S
C2091 C2093 1.415 . S
C2092 C2091 1.355 . S
C2092 C2094 1.419 . S
C2093 C2088 1.425 . S
C2093 C2090 1.409 . S
C2093 C2091 1.415 . S
C2094 H2084 0.930 . S
C2094 C2092 1.419 . S
C2094 C2095 1.362 . S
C2095 H2085 0.930 . S
C2095 C2088 1.409 . S
C2095 C2094 1.362 . S
H2096 C2102 0.930 . S
H2097 C2105 0.938 . S
H2098 C2106 0.930 . S
H2099 C2107 0.930 . S
H2100 C2110 0.938 . S
H2101 C2111 0.930 . S
C2102 H2096 0.930 . S
C2102 C2103 1.355 . S
C2102 C2104 1.415 . S
C2103 C2102 1.355 . S
C2103 C2105 1.419 . S
C2104 C2102 1.415 . S
C2104 C2109 1.425 1_556 S
C2104 C2111 1.409 . S
C2105 H2097 0.938 . S
C2105 C2103 1.419 . S
C2105 C2106 1.362 1_556 S
C2106 H2098 0.930 . S
C2106 C2105 1.362 1_554 S
C2106 C2109 1.409 . S
C2107 H2099 0.930 . S
C2107 C2108 1.355 . S
C2107 C2109 1.415 . S
C2108 C2107 1.355 . S
C2108 C2110 1.419 . S
C2109 C2104 1.425 1_554 S
C2109 C2106 1.409 . S
C2109 C2107 1.415 . S
C2110 H2100 0.938 . S
C2110 C2108 1.419 . S
C2110 C2111 1.362 1_554 S
C2111 H2101 0.930 . S
C2111 C2104 1.409 . S
C2111 C2110 1.362 1_556 S
H2112 C2118 0.930 . S
H2113 C2121 0.930 . S
H2114 C2122 0.930 . S
H2115 C2123 0.930 . S
H2116 C2126 0.930 . S
H2117 C2127 0.930 . S
C2118 H2112 0.930 . S
C2118 C2119 1.355 . S
C2118 C2120 1.415 . S
C2119 C2118 1.355 . S
C2119 C2121 1.419 . S
C2120 C2118 1.415 . S
C2120 C2125 1.425 . S
C2120 C2127 1.409 . S
C2121 H2113 0.930 . S
C2121 C2119 1.419 . S
C2121 C2122 1.362 . S
C2122 H2114 0.930 . S
C2122 C2121 1.362 . S
C2122 C2125 1.409 . S
C2123 H2115 0.930 . S
C2123 C2124 1.355 . S
C2123 C2125 1.415 . S
C2124 C2123 1.355 . S
C2124 C2126 1.419 . S
C2125 C2120 1.425 . S
C2125 C2122 1.409 . S
C2125 C2123 1.415 . S
C2126 H2116 0.930 . S
C2126 C2124 1.419 . S
C2126 C2127 1.362 . S
C2127 H2117 0.930 . S
C2127 C2120 1.409 . S
C2127 C2126 1.362 . S
H2128 C2134 0.930 . S
H2129 C2137 0.930 . S
H2130 C2138 0.930 . S
H2131 C2139 0.930 . S
H2132 C2142 0.930 . S
H2133 C2143 0.930 . S
C2134 H2128 0.930 . S
C2134 C2135 1.355 . S
C2134 C2136 1.415 . S
C2135 C2134 1.355 . S
C2135 C2137 1.419 . S
C2136 C2134 1.415 . S
C2136 C2141 1.425 . S
C2136 C2143 1.409 . S
C2137 H2129 0.930 . S
C2137 C2135 1.419 . S
C2137 C2138 1.362 . S
C2138 H2130 0.930 . S
C2138 C2137 1.362 . S
C2138 C2141 1.409 . S
C2139 H2131 0.930 . S
C2139 C2140 1.355 . S
C2139 C2141 1.415 . S
C2140 C2139 1.355 . S
C2140 C2142 1.419 . S
C2141 C2136 1.425 . S
C2141 C2138 1.409 . S
C2141 C2139 1.415 . S
C2142 H2132 0.930 . S
C2142 C2140 1.419 . S
C2142 C2143 1.362 . S
C2143 H2133 0.930 . S
C2143 C2136 1.409 . S
C2143 C2142 1.362 . S
H2144 C2150 0.930 . S
H2145 C2153 0.930 . S
H2146 C2154 0.930 . S
H2147 C2155 0.930 . S
H2148 C2158 0.930 . S
H2149 C2159 0.930 . S
C2150 H2144 0.930 . S
C2150 C2151 1.355 . S
C2150 C2152 1.415 . S
C2151 C2150 1.355 . S
C2151 C2153 1.419 . S
C2152 C2150 1.415 . S
C2152 C2157 1.425 . S
C2152 C2159 1.409 . S
C2153 H2145 0.930 . S
C2153 C2151 1.419 . S
C2153 C2154 1.362 . S
C2154 H2146 0.930 . S
C2154 C2153 1.362 . S
C2154 C2157 1.409 . S
C2155 H2147 0.930 . S
C2155 C2156 1.355 . S
C2155 C2157 1.415 . S
C2156 C2155 1.355 . S
C2156 C2158 1.419 . S
C2157 C2152 1.425 . S
C2157 C2154 1.409 . S
C2157 C2155 1.415 . S
C2158 H2148 0.930 . S
C2158 C2156 1.419 . S
C2158 C2159 1.362 . S
C2159 H2149 0.930 . S
C2159 C2152 1.409 . S
C2159 C2158 1.362 . S
H2160 C2166 0.930 . S
H2161 C2169 0.921 1_554 S
H2162 C2170 0.930 . S
H2163 C2171 0.930 . S
H2164 C2174 0.921 1_556 S
H2165 C2175 0.930 . S
C2166 H2160 0.930 . S
C2166 C2167 1.355 . S
C2166 C2168 1.415 . S
C2167 C2166 1.355 . S
C2167 C2169 1.465 . S
C2168 C2166 1.415 . S
C2168 C2173 1.425 1_556 S
C2168 C2175 1.409 . S
C2169 H2161 0.921 1_556 S
C2169 C2167 1.465 . S
C2169 C2170 1.328 1_556 S
C2170 H2162 0.930 . S
C2170 C2169 1.328 1_554 S
C2170 C2173 1.409 . S
C2171 H2163 0.930 . S
C2171 C2172 1.355 . S
C2171 C2173 1.415 . S
C2172 C2171 1.355 . S
C2172 C2174 1.465 . S
C2173 C2168 1.425 1_554 S
C2173 C2170 1.409 . S
C2173 C2171 1.415 . S
C2174 H2164 0.921 1_554 S
C2174 C2172 1.465 . S
C2174 C2175 1.328 1_554 S
C2175 H2165 0.930 . S
C2175 C2168 1.409 . S
C2175 C2174 1.328 1_556 S
H2176 C2182 0.930 . S
H2177 C2185 0.930 . S
H2178 C2186 0.930 . S
H2179 C2187 0.930 . S
H2180 C2190 0.930 . S
H2181 C2191 0.930 . S
C2182 H2176 0.930 . S
C2182 C2183 1.355 . S
C2182 C2184 1.415 . S
C2183 C2182 1.355 . S
C2183 C2185 1.419 . S
C2184 C2182 1.415 . S
C2184 C2189 1.425 . S
C2184 C2191 1.409 . S
C2185 H2177 0.930 . S
C2185 C2183 1.419 . S
C2185 C2186 1.362 . S
C2186 H2178 0.930 . S
C2186 C2185 1.362 . S
C2186 C2189 1.409 . S
C2187 H2179 0.930 . S
C2187 C2188 1.355 . S
C2187 C2189 1.415 . S
C2188 C2187 1.355 . S
C2188 C2190 1.419 . S
C2189 C2184 1.425 . S
C2189 C2186 1.409 . S
C2189 C2187 1.415 . S
C2190 H2180 0.930 . S
C2190 C2188 1.419 . S
C2190 C2191 1.362 . S
C2191 H2181 0.930 . S
C2191 C2184 1.409 . S
C2191 C2190 1.362 . S
H2192 C2198 0.930 . S
H2193 C2201 0.930 . S
H2194 C2202 0.930 . S
H2195 C2203 0.930 . S
H2196 C2206 0.930 . S
H2197 C2207 0.930 . S
C2198 H2192 0.930 . S
C2198 C2199 1.355 . S
C2198 C2200 1.415 . S
C2199 C2198 1.355 . S
C2199 C2201 1.419 . S
C2200 C2198 1.415 . S
C2200 C2205 1.425 . S
C2200 C2207 1.409 . S
C2201 H2193 0.930 . S
C2201 C2199 1.419 . S
C2201 C2202 1.362 . S
C2202 H2194 0.930 . S
C2202 C2201 1.362 . S
C2202 C2205 1.409 . S
C2203 H2195 0.930 . S
C2203 C2204 1.355 . S
C2203 C2205 1.415 . S
C2204 C2203 1.355 . S
C2204 C2206 1.419 . S
C2205 C2200 1.425 . S
C2205 C2202 1.409 . S
C2205 C2203 1.415 . S
C2206 H2196 0.930 . S
C2206 C2204 1.419 . S
C2206 C2207 1.362 . S
C2207 H2197 0.930 . S
C2207 C2200 1.409 . S
C2207 C2206 1.362 . S
C679 C15 0.542 . S
C684 C583 0.664 . S
C695 C39 0.544 . S
C700 C184 0.634 . S
C711 C60 0.650 . S
C716 C541 0.777 . S
C727 C226 0.745 . S
C732 C81 0.578 . S
C743 C102 0.568 . S
C748 C625 0.576 . S
C759 C310 0.704 . S
C764 C123 0.551 . S
C775 C667 0.544 . S
C780 C144 0.634 . S
C791 C165 0.549 . S
C796 C268 0.613 . S
C807 C186 0.612 . S
C812 C415 0.545 . S
C823 C207 0.686 . S
C828 C13 0.585 . S
C839 C373 0.673 . S
C844 C228 0.715 . S
C855 C58 0.708 . S
C860 C249 0.553 . S
C871 C270 0.694 . S
C876 C457 0.597 . S
C887 C291 0.543 . S
C892 C142 0.643 . S
C903 C312 0.713 . S
C908 C499 0.655 . S
C919 C100 0.706 . S
C924 C333 0.552 . S
C935 C247 0.563 . S
C940 C351 0.669 . S
C951 C520 0.756 . S
C956 C375 0.590 . S
C967 C205 0.543 . S
C972 C396 0.627 . S
C983 C417 0.615 . S
C988 C562 0.544 . S
C999 C289 0.691 . S
C1004 C438 0.547 . S
C1015 C646 0.769 . S
C1020 C459 0.611 . S
C1031 C331 0.717 . S
C1036 C480 0.557 . S
C1047 C501 0.575 . S
C1052 C604 0.742 . S
C1063 C522 0.575 . S
C1068 C79 0.568 . S
C1079 C543 0.561 . S
C1084 C349 0.724 . S
C1095 C564 0.599 . S
C1100 C37 0.762 . S
C1111 C585 0.666 . S
C1116 C394 0.774 . S
C1127 C121 0.546 . S
C1132 C606 0.607 . S
C1143 C478 0.602 . S
C1148 C627 0.553 . S
C1159 C648 0.542 . S
C1164 C163 0.656 . S
C1175 C669 0.643 . S
C1180 C436 0.777 . S
C1191 C17 1.331 . S
C1196 C392 1.329 . S
C1207 C413 1.377 . S
C1212 C35 1.372 . S
C1223 C56 1.332 . S
C1228 C353 1.336 . S
C1239 C77 1.329 . S
C1244 C371 1.328 . S
C1255 C476 1.379 . S
C1260 C98 1.381 . S
C1271 C119 1.328 . S
C1276 C497 1.329 . S
C1287 C434 1.328 . S
C1292 C140 1.331 . S
C1303 C161 1.331 . S
C1308 C455 1.329 . S
C1319 C560 1.328 . S
C1324 C182 1.329 . S
C1335 C203 1.359 . S
C1340 C581 1.353 . S
C1351 C224 1.382 . S
C1356 C518 1.381 . S
C1367 C245 1.380 . S
C1372 C539 1.382 . S
C1383 C644 1.382 . S
C1388 C266 1.381 . S
C1399 C665 1.378 . S
C1404 C287 1.373 . S
C1415 C308 1.361 . S
C1420 C602 1.367 . S
C1431 C329 1.328 . S
C1436 C623 1.330 . S
C1447 C16 1.305 . S
C1452 C517 1.305 . S
C1463 C202 1.279 . S
C1468 C34 1.279 . S
C1479 C55 1.282 . S
C1484 C559 1.282 . S
C1495 C76 1.315 . S
C1500 C244 1.315 . S
C1511 C601 1.312 . S
C1516 C97 1.312 . S
C1527 C286 1.307 . S
C1532 C118 1.307 . S
C1543 C139 1.182 . S
C1548 C643 1.182 . S
C1559 C160 1.194 . S
C1564 C328 1.194 . S
C1575 C352 1.318 . S
C1580 C181 1.318 . S
C1591 C391 1.171 . S
C1596 C223 1.171 . S
C1607 C433 1.164 . S
C1612 C265 1.164 . S
C1623 C307 1.246 . S
C1628 C475 1.246 . S
C1639 C370 1.280 . S
C1644 C538 1.280 . S
C1655 C412 1.215 . S
C1660 C580 1.215 . S
C1671 C622 1.176 . S
C1676 C454 1.176 . S
C1687 C664 1.174 . S
C1692 C496 1.174 . S
C1703 C18 1.974 . S
C1708 C120 1.915 1_545 S
C1719 C141 1.968 . S
C1724 C36 1.971 1_545 S
C1735 C162 1.939 1_565 S
C1740 C57 1.931 . S
C1751 C99 1.915 . S
C1756 C78 1.971 1_565 S
C1767 C183 1.956 . S
C1772 C288 1.919 1_565 S
C1783 C204 1.916 1_565 S
C1788 C309 1.965 . S
C1799 C330 1.921 1_545 S
C1804 C225 1.986 . S
C1815 C246 1.984 1_545 S
C1820 C267 1.950 . S
C1831 C354 1.936 . S
C1836 C456 1.933 . S
C1847 C372 1.973 . S
C1852 C477 1.966 . S
C1863 C393 1.935 . S
C1868 C498 1.988 . S
C1879 C435 1.988 . S
C1884 C414 1.924 . S
C1895 C519 1.967 . S
C1900 C624 1.972 . S
C1911 C540 1.925 . S
C1916 C645 1.988 . S
C1927 C666 1.985 . S
C1932 C561 1.920 . S
C1943 C582 1.955 . S
C1948 C603 1.980 . S
C1959 C14 1.821 . S
C1964 C101 1.839 . S
C1975 C38 1.875 . S
C1980 C122 1.873 . S
C1991 C143 1.825 . S
C1996 C59 1.846 . S
C2007 C164 1.876 . S
C2012 C80 1.870 . S
C2023 C185 1.871 . S
C2028 C269 1.853 . S
C2039 C290 1.824 . S
C2044 C206 1.815 . S
C2055 C311 1.849 . S
C2060 C227 1.828 . S
C2071 C332 1.853 . S
C2076 C248 1.832 . S
C2087 C350 1.816 . S
C2092 C437 1.826 . S
C2103 C458 1.873 . S
C2108 C374 1.858 . S
C2119 C395 1.875 . S
C2124 C479 1.873 . S
C2135 C500 1.874 . S
C2140 C416 1.861 . S
C2151 C605 1.833 . S
C2156 C521 1.818 . S
C2167 C542 1.869 . S
C2172 C626 1.876 . S
C2183 C563 1.816 . S
C2188 C647 1.819 . S
C2199 C584 1.842 . S
C2204 C668 1.823 . S
