# Generated by pormake.
# Topology umr, (4)-cn, num edge types: 1
# Building blocks:
#     Node 0, Type 0, BuildingBlock: GALJAG_clean_sbu_0, # of connection points: 4
#     Node 1, Type 0, BuildingBlock: GALJAG_clean_sbu_0, # of connection points: 4
#     Node 2, Type 0, BuildingBlock: GALJAG_clean_sbu_0, # of connection points: 4
#     Node 3, Type 0, BuildingBlock: GALJAG_clean_sbu_0, # of connection points: 4
#     Node 4, Type 0, BuildingBlock: GALJAG_clean_sbu_0, # of connection points: 4
#     Node 5, Type 0, BuildingBlock: GALJAG_clean_sbu_0, # of connection points: 4
#     Node 6, Type 0, BuildingBlock: GALJAG_clean_sbu_0, # of connection points: 4
#     Node 7, Type 0, BuildingBlock: GALJAG_clean_sbu_0, # of connection points: 4
#     Node 8, Type 0, BuildingBlock: GALJAG_clean_sbu_0, # of connection points: 4
#     Node 9, Type 0, BuildingBlock: GALJAG_clean_sbu_0, # of connection points: 4
#     Node 10, Type 0, BuildingBlock: GALJAG_clean_sbu_0, # of connection points: 4
#     Node 11, Type 0, BuildingBlock: GALJAG_clean_sbu_0, # of connection points: 4
#     Node 12, Type 0, BuildingBlock: GALJAG_clean_sbu_0, # of connection points: 4
#     Node 13, Type 0, BuildingBlock: GALJAG_clean_sbu_0, # of connection points: 4
#     Node 14, Type 0, BuildingBlock: GALJAG_clean_sbu_0, # of connection points: 4
#     Node 15, Type 0, BuildingBlock: GALJAG_clean_sbu_0, # of connection points: 4
#     Node 16, Type 0, BuildingBlock: GALJAG_clean_sbu_0, # of connection points: 4
#     Node 17, Type 0, BuildingBlock: GALJAG_clean_sbu_0, # of connection points: 4
#     Node 18, Type 0, BuildingBlock: GALJAG_clean_sbu_0, # of connection points: 4
#     Node 19, Type 0, BuildingBlock: GALJAG_clean_sbu_0, # of connection points: 4
#     Node 20, Type 0, BuildingBlock: GALJAG_clean_sbu_0, # of connection points: 4
#     Node 21, Type 0, BuildingBlock: GALJAG_clean_sbu_0, # of connection points: 4
#     Node 22, Type 0, BuildingBlock: GALJAG_clean_sbu_0, # of connection points: 4
#     Node 23, Type 0, BuildingBlock: GALJAG_clean_sbu_0, # of connection points: 4
#     Node 24, Type 0, BuildingBlock: GALJAG_clean_sbu_0, # of connection points: 4
#     Node 25, Type 0, BuildingBlock: GALJAG_clean_sbu_0, # of connection points: 4
#     Node 26, Type 0, BuildingBlock: GALJAG_clean_sbu_0, # of connection points: 4
#     Node 27, Type 0, BuildingBlock: GALJAG_clean_sbu_0, # of connection points: 4
#     Node 28, Type 0, BuildingBlock: GALJAG_clean_sbu_0, # of connection points: 4
#     Node 29, Type 0, BuildingBlock: GALJAG_clean_sbu_0, # of connection points: 4
#     Node 30, Type 0, BuildingBlock: GALJAG_clean_sbu_0, # of connection points: 4
#     Node 31, Type 0, BuildingBlock: GALJAG_clean_sbu_0, # of connection points: 4
#     Edge 32, Type (0, 0), BuildingBlock: AJUNOK_clean_linker_0, # of connection points: 2
#     Edge 33, Type (0, 0), BuildingBlock: AJUNOK_clean_linker_0, # of connection points: 2
#     Edge 34, Type (0, 0), BuildingBlock: AJUNOK_clean_linker_0, # of connection points: 2
#     Edge 35, Type (0, 0), BuildingBlock: AJUNOK_clean_linker_0, # of connection points: 2
#     Edge 36, Type (0, 0), BuildingBlock: AJUNOK_clean_linker_0, # of connection points: 2
#     Edge 37, Type (0, 0), BuildingBlock: AJUNOK_clean_linker_0, # of connection points: 2
#     Edge 38, Type (0, 0), BuildingBlock: AJUNOK_clean_linker_0, # of connection points: 2
#     Edge 39, Type (0, 0), BuildingBlock: AJUNOK_clean_linker_0, # of connection points: 2
#     Edge 40, Type (0, 0), BuildingBlock: AJUNOK_clean_linker_0, # of connection points: 2
#     Edge 41, Type (0, 0), BuildingBlock: AJUNOK_clean_linker_0, # of connection points: 2
#     Edge 42, Type (0, 0), BuildingBlock: AJUNOK_clean_linker_0, # of connection points: 2
#     Edge 43, Type (0, 0), BuildingBlock: AJUNOK_clean_linker_0, # of connection points: 2
#     Edge 44, Type (0, 0), BuildingBlock: AJUNOK_clean_linker_0, # of connection points: 2
#     Edge 45, Type (0, 0), BuildingBlock: AJUNOK_clean_linker_0, # of connection points: 2
#     Edge 46, Type (0, 0), BuildingBlock: AJUNOK_clean_linker_0, # of connection points: 2
#     Edge 47, Type (0, 0), BuildingBlock: AJUNOK_clean_linker_0, # of connection points: 2
#     Edge 48, Type (0, 0), BuildingBlock: AJUNOK_clean_linker_0, # of connection points: 2
#     Edge 49, Type (0, 0), BuildingBlock: AJUNOK_clean_linker_0, # of connection points: 2
#     Edge 50, Type (0, 0), BuildingBlock: AJUNOK_clean_linker_0, # of connection points: 2
#     Edge 51, Type (0, 0), BuildingBlock: AJUNOK_clean_linker_0, # of connection points: 2
#     Edge 52, Type (0, 0), BuildingBlock: AJUNOK_clean_linker_0, # of connection points: 2
#     Edge 53, Type (0, 0), BuildingBlock: AJUNOK_clean_linker_0, # of connection points: 2
#     Edge 54, Type (0, 0), BuildingBlock: AJUNOK_clean_linker_0, # of connection points: 2
#     Edge 55, Type (0, 0), BuildingBlock: AJUNOK_clean_linker_0, # of connection points: 2
#     Edge 56, Type (0, 0), BuildingBlock: AJUNOK_clean_linker_0, # of connection points: 2
#     Edge 57, Type (0, 0), BuildingBlock: AJUNOK_clean_linker_0, # of connection points: 2
#     Edge 58, Type (0, 0), BuildingBlock: AJUNOK_clean_linker_0, # of connection points: 2
#     Edge 59, Type (0, 0), BuildingBlock: AJUNOK_clean_linker_0, # of connection points: 2
#     Edge 60, Type (0, 0), BuildingBlock: AJUNOK_clean_linker_0, # of connection points: 2
#     Edge 61, Type (0, 0), BuildingBlock: AJUNOK_clean_linker_0, # of connection points: 2
#     Edge 62, Type (0, 0), BuildingBlock: AJUNOK_clean_linker_0, # of connection points: 2
#     Edge 63, Type (0, 0), BuildingBlock: AJUNOK_clean_linker_0, # of connection points: 2
#     Edge 64, Type (0, 0), BuildingBlock: AJUNOK_clean_linker_0, # of connection points: 2
#     Edge 65, Type (0, 0), BuildingBlock: AJUNOK_clean_linker_0, # of connection points: 2
#     Edge 66, Type (0, 0), BuildingBlock: AJUNOK_clean_linker_0, # of connection points: 2
#     Edge 67, Type (0, 0), BuildingBlock: AJUNOK_clean_linker_0, # of connection points: 2
#     Edge 68, Type (0, 0), BuildingBlock: AJUNOK_clean_linker_0, # of connection points: 2
#     Edge 69, Type (0, 0), BuildingBlock: AJUNOK_clean_linker_0, # of connection points: 2
#     Edge 70, Type (0, 0), BuildingBlock: AJUNOK_clean_linker_0, # of connection points: 2
#     Edge 71, Type (0, 0), BuildingBlock: AJUNOK_clean_linker_0, # of connection points: 2
#     Edge 72, Type (0, 0), BuildingBlock: AJUNOK_clean_linker_0, # of connection points: 2
#     Edge 73, Type (0, 0), BuildingBlock: AJUNOK_clean_linker_0, # of connection points: 2
#     Edge 74, Type (0, 0), BuildingBlock: AJUNOK_clean_linker_0, # of connection points: 2
#     Edge 75, Type (0, 0), BuildingBlock: AJUNOK_clean_linker_0, # of connection points: 2
#     Edge 76, Type (0, 0), BuildingBlock: AJUNOK_clean_linker_0, # of connection points: 2
#     Edge 77, Type (0, 0), BuildingBlock: AJUNOK_clean_linker_0, # of connection points: 2
#     Edge 78, Type (0, 0), BuildingBlock: AJUNOK_clean_linker_0, # of connection points: 2
#     Edge 79, Type (0, 0), BuildingBlock: AJUNOK_clean_linker_0, # of connection points: 2
#     Edge 80, Type (0, 0), BuildingBlock: AJUNOK_clean_linker_0, # of connection points: 2
#     Edge 81, Type (0, 0), BuildingBlock: AJUNOK_clean_linker_0, # of connection points: 2
#     Edge 82, Type (0, 0), BuildingBlock: AJUNOK_clean_linker_0, # of connection points: 2
#     Edge 83, Type (0, 0), BuildingBlock: AJUNOK_clean_linker_0, # of connection points: 2
#     Edge 84, Type (0, 0), BuildingBlock: AJUNOK_clean_linker_0, # of connection points: 2
#     Edge 85, Type (0, 0), BuildingBlock: AJUNOK_clean_linker_0, # of connection points: 2
#     Edge 86, Type (0, 0), BuildingBlock: AJUNOK_clean_linker_0, # of connection points: 2
#     Edge 87, Type (0, 0), BuildingBlock: AJUNOK_clean_linker_0, # of connection points: 2
#     Edge 88, Type (0, 0), BuildingBlock: AJUNOK_clean_linker_0, # of connection points: 2
#     Edge 89, Type (0, 0), BuildingBlock: AJUNOK_clean_linker_0, # of connection points: 2
#     Edge 90, Type (0, 0), BuildingBlock: AJUNOK_clean_linker_0, # of connection points: 2
#     Edge 91, Type (0, 0), BuildingBlock: AJUNOK_clean_linker_0, # of connection points: 2
#     Edge 92, Type (0, 0), BuildingBlock: AJUNOK_clean_linker_0, # of connection points: 2
#     Edge 93, Type (0, 0), BuildingBlock: AJUNOK_clean_linker_0, # of connection points: 2
#     Edge 94, Type (0, 0), BuildingBlock: AJUNOK_clean_linker_0, # of connection points: 2
#     Edge 95, Type (0, 0), BuildingBlock: AJUNOK_clean_linker_0, # of connection points: 2
# Relax obj value: 0.027
# Max RMSD: 0.060
# Mean RMSD: 0.060
data_MOF--net-umr--node1-GALJAG_clean_sbu_0--edge1-AJUNOK_clean_linker_0
_symmetry_space_group_name_H-M    P1
_symmetry_Int_Tables_number       1
_symmetry_cell_setting            triclinic
loop_
_symmetry_equiv_pos_as_xyz
'x, y, z'
_cell_length_a     60.159318
_cell_length_b     60.100894
_cell_length_c     20.711488
_cell_angle_alpha  90.009806
_cell_angle_beta   90.023098
_cell_angle_gamma 89.937236
loop_
_atom_site_label
_atom_site_type_symbol
_atom_site_fract_x
_atom_site_fract_y
_atom_site_fract_z
_atom_type_partial_charge
In0 In 0.15238 0.27626 0.05972 0.0
O1 O 0.14065 0.24857 0.12813 0.0
O2 O 0.15891 0.27566 0.16741 0.0
C3 C 0.14239 0.2606 0.94106 0.0
C4 C 0.12322 0.30898 0.08293 0.0
C5 C 0.19627 0.27969 0.0377 0.0
O6 O 0.14438 0.24798 0.98957 0.0
O7 O 0.14432 0.28105 0.95338 0.0
O8 O 0.1836 0.29646 0.03831 0.0
O9 O 0.18686 0.26149 0.05062 0.0
C10 C 0.14864 0.25775 0.17799 0.0
O11 O 0.14391 0.31245 0.07981 0.0
O12 O 0.11736 0.28916 0.07187 0.0
In13 In 0.95635 0.9038 0.30769 0.0
O14 O 0.92023 0.89517 0.32688 0.0
O15 O 0.94326 0.86868 0.3125 0.0
C16 C 0.95542 0.94817 0.29658 0.0
C17 C 0.9741 0.89807 0.42586 0.0
C18 C 0.9687 0.89631 0.18481 0.0
O19 O 0.93791 0.93659 0.29848 0.0
O20 O 0.97331 0.93734 0.30312 0.0
O21 O 0.98046 0.88965 0.2318 0.0
O22 O 0.95081 0.90583 0.20024 0.0
C23 C 0.92362 0.87443 0.32624 0.0
O24 O 0.98507 0.89352 0.37527 0.0
O25 O 0.95516 0.90633 0.41586 0.0
In26 In 0.33317 0.70932 0.55903 0.0
O27 O 0.34185 0.67313 0.57808 0.0
O28 O 0.36823 0.69665 0.5715 0.0
C29 C 0.28912 0.70679 0.53993 0.0
C30 C 0.33725 0.72767 0.67721 0.0
C31 C 0.34275 0.72513 0.4404 0.0
O32 O 0.30133 0.68967 0.54099 0.0
O33 O 0.29912 0.72485 0.5506 0.0
O34 O 0.34255 0.73735 0.49009 0.0
O35 O 0.3393 0.70478 0.45138 0.0
C36 C 0.36247 0.6768 0.58237 0.0
O37 O 0.34496 0.73697 0.62722 0.0
O38 O 0.32698 0.70975 0.66678 0.0
In39 In 0.52406 0.08523 0.80095 0.0
O40 O 0.55981 0.09546 0.81935 0.0
O41 O 0.53503 0.1208 0.81466 0.0
C42 C 0.52838 0.04125 0.78156 0.0
C43 C 0.50648 0.0884 0.92024 0.0
C44 C 0.50832 0.0949 0.68223 0.0
O45 O 0.54494 0.05415 0.78165 0.0
O46 O 0.51 0.05055 0.79307 0.0
O47 O 0.49576 0.09335 0.73101 0.0
O48 O 0.52874 0.0926 0.69427 0.0
C49 C 0.55516 0.11591 0.82468 0.0
O50 O 0.49599 0.09501 0.87083 0.0
O51 O 0.52504 0.07952 0.90861 0.0
In52 In 0.15194 0.71199 0.44733 0.0
O53 O 0.14055 0.73903 0.37599 0.0
O54 O 0.15855 0.71122 0.33986 0.0
C55 C 0.1422 0.72956 0.56411 0.0
C56 C 0.12313 0.67899 0.42459 0.0
C57 C 0.19583 0.70809 0.46865 0.0
O58 O 0.14393 0.74131 0.51375 0.0
O59 O 0.14404 0.70891 0.55454 0.0
O60 O 0.18288 0.6916 0.47117 0.0
O61 O 0.18666 0.72623 0.45345 0.0
C62 C 0.14835 0.72901 0.32723 0.0
O63 O 0.14378 0.67568 0.43018 0.0
O64 O 0.11697 0.69884 0.43396 0.0
In65 In 0.52745 0.90282 0.70457 0.0
O66 O 0.49929 0.89199 0.63646 0.0
O67 O 0.52853 0.90635 0.59627 0.0
C68 C 0.51266 0.89397 0.82454 0.0
C69 C 0.5587 0.87203 0.68429 0.0
C70 C 0.53019 0.94712 0.71904 0.0
O71 O 0.49984 0.8943 0.77607 0.0
O72 O 0.53289 0.89723 0.81173 0.0
O73 O 0.54726 0.93484 0.7196 0.0
O74 O 0.51214 0.93703 0.70918 0.0
C75 C 0.5099 0.89743 0.5861 0.0
O76 O 0.56325 0.89257 0.68613 0.0
O77 O 0.53866 0.86725 0.69602 0.0
In78 In 0.33356 0.27914 0.94961 0.0
O79 O 0.34236 0.31523 0.93081 0.0
O80 O 0.36876 0.29187 0.9419 0.0
C81 C 0.28932 0.28061 0.96334 0.0
C82 C 0.33838 0.26125 0.83113 0.0
C83 C 0.34103 0.26679 0.07245 0.0
O84 O 0.30103 0.298 0.95931 0.0
O85 O 0.29992 0.26256 0.9574 0.0
O86 O 0.34673 0.25447 0.02563 0.0
O87 O 0.33278 0.2853 0.05686 0.0
C88 C 0.36305 0.31163 0.92943 0.0
O89 O 0.34376 0.25051 0.88147 0.0
O90 O 0.32973 0.28001 0.8416 0.0
In91 In 0.96167 0.08497 0.19727 0.0
O92 O 0.9892 0.09646 0.12816 0.0
O93 O 0.96258 0.07718 0.09037 0.0
C94 C 0.97725 0.09601 0.31514 0.0
C95 C 0.92872 0.1135 0.17109 0.0
C96 C 0.95792 0.04129 0.22261 0.0
O97 O 0.98989 0.09336 0.26697 0.0
O98 O 0.95682 0.0943 0.30269 0.0
O99 O 0.94125 0.05403 0.21991 0.0
O100 O 0.97625 0.0505 0.21019 0.0
C101 C 0.98024 0.08775 0.079 0.0
O102 O 0.92547 0.09285 0.17729 0.0
O103 O 0.94849 0.11976 0.18073 0.0
In104 In 0.83376 0.70896 0.94286 0.0
O105 O 0.84255 0.67267 0.92621 0.0
O106 O 0.86888 0.69628 0.93353 0.0
C107 C 0.7896 0.70752 0.96143 0.0
C108 C 0.83861 0.72537 0.82276 0.0
C109 C 0.84294 0.72576 0.06045 0.0
O110 O 0.80153 0.69024 0.96508 0.0
O111 O 0.79993 0.72495 0.9459 0.0
O112 O 0.84241 0.73773 0.01024 0.0
O113 O 0.84014 0.70525 0.05042 0.0
C114 C 0.86322 0.67636 0.9232 0.0
O115 O 0.84573 0.73571 0.87184 0.0
O116 O 0.82841 0.70755 0.83506 0.0
In117 In 0.02789 0.08235 0.6956 0.0
O118 O 0.00055 0.0957 0.6286 0.0
O119 O 0.02781 0.07813 0.58726 0.0
C120 C 0.01297 0.09163 0.81542 0.0
C121 C 0.0609 0.11108 0.67368 0.0
C122 C 0.0287 0.03787 0.70898 0.0
O123 O 0.00018 0.09086 0.76699 0.0
O124 O 0.03325 0.08863 0.80269 0.0
O125 O 0.0461 0.04949 0.71445 0.0
O126 O 0.01139 0.04873 0.69534 0.0
C127 C 0.00999 0.08872 0.57782 0.0
O128 O 0.06416 0.09029 0.6756 0.0
O129 O 0.04125 0.11718 0.68601 0.0
In130 In 0.65278 0.2761 0.44423 0.0
O131 O 0.64164 0.24877 0.37401 0.0
O132 O 0.65809 0.27741 0.33669 0.0
C133 C 0.64327 0.26098 0.56326 0.0
C134 C 0.62241 0.30748 0.4215 0.0
C135 C 0.69692 0.2776 0.46153 0.0
O136 O 0.644 0.24824 0.51464 0.0
O137 O 0.64634 0.2813 0.55093 0.0
O138 O 0.68507 0.29499 0.46382 0.0
O139 O 0.68646 0.26 0.44849 0.0
C140 C 0.64841 0.25926 0.32475 0.0
O141 O 0.64289 0.31209 0.42625 0.0
O142 O 0.61747 0.28739 0.43207 0.0
In143 In 0.46086 0.90052 0.20561 0.0
O144 O 0.48915 0.89051 0.1374 0.0
O145 O 0.46076 0.90668 0.09788 0.0
C146 C 0.4763 0.89069 0.32432 0.0
C147 C 0.42956 0.87005 0.18162 0.0
C148 C 0.4585 0.94453 0.22638 0.0
O149 O 0.48852 0.89025 0.27464 0.0
O150 O 0.45611 0.89493 0.31328 0.0
O151 O 0.44123 0.9326 0.22343 0.0
O152 O 0.47647 0.93432 0.21619 0.0
C153 C 0.47934 0.89764 0.08747 0.0
O154 O 0.42506 0.89057 0.18569 0.0
O155 O 0.44956 0.86506 0.19306 0.0
In156 In 0.83355 0.27526 0.56163 0.0
O157 O 0.84495 0.24815 0.63259 0.0
O158 O 0.82634 0.27566 0.66847 0.0
C159 C 0.84437 0.26003 0.44339 0.0
C160 C 0.86217 0.30804 0.5868 0.0
C161 C 0.78979 0.27679 0.53747 0.0
O162 O 0.843 0.24734 0.49195 0.0
O163 O 0.8416 0.2804 0.45561 0.0
O164 O 0.8014 0.29427 0.54082 0.0
O165 O 0.80013 0.25901 0.54941 0.0
C166 C 0.83682 0.25802 0.68117 0.0
O167 O 0.84158 0.31157 0.57961 0.0
O168 O 0.86828 0.28816 0.57781 0.0
In169 In 0.45667 0.08322 0.30172 0.0
O170 O 0.42031 0.09186 0.31948 0.0
O171 O 0.4437 0.11826 0.30956 0.0
C172 C 0.4561 0.03875 0.28864 0.0
C173 C 0.47453 0.08894 0.42003 0.0
C174 C 0.47254 0.09208 0.18264 0.0
O175 O 0.43854 0.05025 0.28461 0.0
O176 O 0.47343 0.04972 0.30093 0.0
O177 O 0.48451 0.09317 0.23274 0.0
O178 O 0.4524 0.08753 0.19321 0.0
C179 C 0.42388 0.11259 0.32096 0.0
O180 O 0.48426 0.0955 0.36933 0.0
O181 O 0.45627 0.07917 0.41041 0.0
In182 In 0.65317 0.71032 0.06444 0.0
O183 O 0.64247 0.7385 0.13206 0.0
O184 O 0.65977 0.71074 0.1718 0.0
C185 C 0.64241 0.72469 0.94554 0.0
C186 C 0.62295 0.67923 0.09151 0.0
C187 C 0.69697 0.7085 0.04086 0.0
O188 O 0.64345 0.73764 0.9936 0.0
O189 O 0.6457 0.70443 0.95843 0.0
O190 O 0.68531 0.69104 0.04454 0.0
O191 O 0.68664 0.72632 0.0523 0.0
C192 C 0.64999 0.72899 0.18205 0.0
O193 O 0.64339 0.67452 0.08604 0.0
O194 O 0.61796 0.69922 0.07962 0.0
In195 In 0.02194 0.90112 0.80734 0.0
O196 O 0.05804 0.89441 0.83645 0.0
O197 O 0.03582 0.86706 0.82623 0.0
C198 C 0.02512 0.94442 0.77899 0.0
C199 C 0.00045 0.89886 0.92137 0.0
C200 C 0.00674 0.89037 0.68874 0.0
O201 O 0.04224 0.93267 0.7896 0.0
O202 O 0.00682 0.93442 0.7856 0.0
O203 O -0.00579 0.89181 0.73753 0.0
O204 O 0.02712 0.893 0.7008 0.0
C205 C 0.05493 0.87369 0.84194 0.0
O206 O -0.00165 0.88404 0.87868 0.0
O207 O 0.01249 0.91512 0.90564 0.0
In208 In 0.65256 0.77573 0.56524 0.0
O209 O 0.64104 0.74772 0.6323 0.0
O210 O 0.65796 0.77554 0.67296 0.0
C211 C 0.64325 0.76137 0.44526 0.0
C212 C 0.62244 0.80717 0.5904 0.0
C213 C 0.69672 0.77719 0.54791 0.0
O214 O 0.64373 0.74839 0.49334 0.0
O215 O 0.64638 0.78161 0.45857 0.0
O216 O 0.68494 0.79463 0.54683 0.0
O217 O 0.68621 0.75955 0.56007 0.0
C218 C 0.64811 0.75732 0.68271 0.0
O219 O 0.64296 0.8116 0.58642 0.0
O220 O 0.61732 0.78727 0.57786 0.0
In221 In 0.46118 0.40287 0.80896 0.0
O222 O 0.48883 0.39079 0.87663 0.0
O223 O 0.46133 0.40826 0.91689 0.0
C224 C 0.47663 0.3928 0.69037 0.0
C225 C 0.42801 0.37452 0.83294 0.0
C226 C 0.46013 0.44712 0.79129 0.0
O227 O 0.48885 0.39249 0.74004 0.0
O228 O 0.45644 0.39702 0.70135 0.0
O229 O 0.44272 0.43541 0.78928 0.0
O230 O 0.47766 0.43651 0.80418 0.0
C231 C 0.47936 0.39812 0.92689 0.0
O232 O 0.4249 0.39527 0.82884 0.0
O233 O 0.44763 0.36816 0.82143 0.0
In234 In 0.83228 0.20874 0.0626 0.0
O235 O 0.84415 0.23648 0.1304 0.0
O236 O 0.82687 0.20898 0.17087 0.0
C237 C 0.84149 0.22514 0.94443 0.0
C238 C 0.86217 0.17655 0.08351 0.0
C239 C 0.78822 0.20525 0.04308 0.0
O240 O 0.84049 0.23729 0.99417 0.0
O241 O 0.83896 0.20463 0.95511 0.0
O242 O 0.80083 0.18844 0.0433 0.0
O243 O 0.79779 0.22344 0.05516 0.0
C244 C 0.83698 0.22703 0.18081 0.0
O245 O 0.84153 0.17271 0.08174 0.0
O246 O 0.86761 0.19643 0.07177 0.0
In247 In 0.02853 0.58317 0.30879 0.0
O248 O 0.00098 0.59469 0.37815 0.0
O249 O 0.02951 0.57841 0.41673 0.0
C250 C 0.01303 0.59252 0.18962 0.0
C251 C 0.06044 0.61311 0.33112 0.0
C252 C 0.03142 0.53887 0.29252 0.0
O253 O 0.00036 0.59102 0.23816 0.0
O254 O 0.03343 0.59029 0.20206 0.0
O255 O 0.04831 0.55131 0.28975 0.0
O256 O 0.01348 0.54879 0.30535 0.0
C257 C 0.01135 0.58817 0.42792 0.0
O258 O 0.06453 0.59251 0.3267 0.0
O259 O 0.04045 0.61852 0.32081 0.0
In260 In 0.65154 0.20959 0.94439 0.0
O261 O 0.64069 0.17404 0.92378 0.0
O262 O 0.61583 0.19916 0.93218 0.0
C263 C 0.6954 0.20545 0.96585 0.0
C264 C 0.64853 0.22794 0.82615 0.0
C265 C 0.64223 0.22614 0.06213 0.0
O266 O 0.68255 0.18882 0.96629 0.0
O267 O 0.68615 0.22368 0.9521 0.0
O268 O 0.6433 0.23824 0.01229 0.0
O269 O 0.64466 0.2056 0.05169 0.0
C270 C 0.62031 0.17908 0.92002 0.0
O271 O 0.64135 0.23774 0.87605 0.0
O272 O 0.65783 0.20947 0.8367 0.0
In273 In 0.02484 0.40152 0.20014 0.0
O274 O 0.00093 0.38523 0.12745 0.0
O275 O 0.01681 0.41543 0.10082 0.0
C276 C 0.0089 0.39139 0.31854 0.0
C277 C 0.05803 0.37345 0.17073 0.0
C278 C 0.02916 0.445 0.22593 0.0
O279 O -0.00342 0.39287 0.26927 0.0
O280 O 0.02934 0.39386 0.30717 0.0
O281 O 0.0459 0.43256 0.21723 0.0
O282 O 0.01057 0.43548 0.22001 0.0
C283 C 0.00393 0.39989 0.08468 0.0
O284 O 0.06101 0.39422 0.17426 0.0
O285 O 0.03863 0.36706 0.18429 0.0
In286 In 0.83303 0.77526 0.44381 0.0
O287 O 0.84489 0.74873 0.37187 0.0
O288 O 0.82567 0.77591 0.33681 0.0
C289 C 0.84417 0.75858 0.56018 0.0
C290 C 0.86127 0.80855 0.42038 0.0
C291 C 0.78932 0.77666 0.46905 0.0
O292 O 0.84292 0.74662 0.51009 0.0
O293 O 0.84119 0.77909 0.55044 0.0
O294 O 0.80102 0.7941 0.46742 0.0
O295 O 0.79954 0.759 0.45487 0.0
C296 C 0.83651 0.75854 0.32356 0.0
O297 O 0.84063 0.81177 0.42703 0.0
O298 O 0.86761 0.78873 0.42907 0.0
In299 In 0.46038 0.58477 0.70066 0.0
O300 O 0.48723 0.59629 0.62944 0.0
O301 O 0.4593 0.57846 0.59331 0.0
C302 C 0.47648 0.59544 0.81798 0.0
C303 C 0.42724 0.61335 0.67812 0.0
C304 C 0.45975 0.54076 0.72225 0.0
O305 O 0.48848 0.59537 0.76785 0.0
O306 O 0.45619 0.59139 0.80794 0.0
O307 O 0.44214 0.55225 0.72174 0.0
O308 O 0.47723 0.5514 0.7093 0.0
C309 C 0.47705 0.58869 0.58069 0.0
O310 O 0.42397 0.59264 0.68317 0.0
O311 O 0.44701 0.61954 0.6881 0.0
In312 In 0.33495 0.21244 0.44948 0.0
O313 O 0.35247 0.2354 0.37659 0.0
O314 O 0.3207 0.22248 0.35215 0.0
C315 C 0.34521 0.22828 0.56804 0.0
C316 C 0.36162 0.17849 0.41668 0.0
C317 C 0.29159 0.20822 0.47571 0.0
O318 O 0.34377 0.24063 0.51882 0.0
O319 O 0.34278 0.20783 0.55649 0.0
O320 O 0.3041 0.19142 0.46883 0.0
O321 O 0.301 0.22679 0.46771 0.0
C322 C 0.33714 0.23403 0.33515 0.0
O323 O 0.34073 0.17644 0.41835 0.0
O324 O 0.3688 0.19726 0.43416 0.0
In325 In 0.5265 0.58464 0.19998 0.0
O326 O 0.49923 0.59593 0.1297 0.0
O327 O 0.52829 0.58047 0.09178 0.0
C328 C 0.51006 0.5937 0.31792 0.0
C329 C 0.55839 0.61488 0.18236 0.0
C330 C 0.52811 0.54039 0.21703 0.0
O331 O 0.49806 0.59385 0.26772 0.0
O332 O 0.53042 0.59006 0.30781 0.0
O333 O 0.5454 0.55229 0.21997 0.0
O334 O 0.51058 0.55081 0.20299 0.0
C335 C 0.50996 0.58984 0.08017 0.0
O336 O 0.56257 0.59424 0.18303 0.0
O337 O 0.5384 0.61998 0.19368 0.0
In338 In 0.15274 0.7801 0.94707 0.0
O339 O 0.14174 0.75292 0.87574 0.0
O340 O 0.15737 0.78194 0.83873 0.0
C341 C 0.14419 0.76297 0.06479 0.0
C342 C 0.12179 0.81169 0.93233 0.0
C343 C 0.19684 0.78308 0.96526 0.0
O344 O 0.14438 0.75114 0.01423 0.0
O345 O 0.14729 0.78346 0.05518 0.0
O346 O 0.18442 0.80006 0.96627 0.0
O347 O 0.18703 0.76506 0.95269 0.0
C348 C 0.14809 0.76362 0.82647 0.0
O349 O 0.14234 0.81613 0.93122 0.0
O350 O 0.11715 0.79155 0.94317 0.0
In351 In 0.95795 0.40262 0.69977 0.0
O352 O 0.98657 0.39242 0.63176 0.0
O353 O 0.95679 0.40568 0.59156 0.0
C354 C 0.97077 0.39558 0.8224 0.0
C355 C 0.92522 0.37322 0.68151 0.0
C356 C 0.95675 0.44697 0.71172 0.0
O357 O 0.98264 0.38924 0.77534 0.0
O358 O 0.95246 0.40434 0.80728 0.0
O359 O 0.9393 0.43532 0.70878 0.0
O360 O 0.97471 0.43624 0.70567 0.0
C361 C 0.97569 0.39735 0.5813 0.0
O362 O 0.92183 0.39396 0.68158 0.0
O363 O 0.94492 0.36743 0.69437 0.0
In364 In 0.33383 0.77631 0.05894 0.0
O365 O 0.34471 0.81184 0.07851 0.0
O366 O 0.36952 0.78653 0.07288 0.0
C367 C 0.28998 0.78104 0.03857 0.0
C368 C 0.33717 0.75858 0.17787 0.0
C369 C 0.34334 0.76066 0.94019 0.0
O370 O 0.30302 0.79752 0.03876 0.0
O371 O 0.29906 0.7626 0.05095 0.0
O372 O 0.34128 0.74799 0.98859 0.0
O373 O 0.34167 0.78113 0.95265 0.0
C374 C 0.36503 0.80671 0.08389 0.0
O375 O 0.34361 0.74808 0.12825 0.0
O376 O 0.32819 0.77713 0.16656 0.0
In377 In 0.96173 0.58406 0.80786 0.0
O378 O 0.92554 0.59205 0.82835 0.0
O379 O 0.94845 0.61895 0.82157 0.0
C380 C 0.95824 0.54021 0.78463 0.0
C381 C 0.9801 0.58749 0.92629 0.0
C382 C 0.97815 0.59441 0.69039 0.0
O383 O 0.9416 0.55303 0.78419 0.0
O384 O 0.97638 0.54947 0.79906 0.0
O385 O 0.99028 0.59293 0.74007 0.0
O386 O 0.95767 0.59191 0.70097 0.0
C387 C 0.92876 0.61276 0.83274 0.0
O388 O 0.98918 0.59582 0.87681 0.0
O389 O 0.96239 0.57695 0.91523 0.0
In390 In 0.15379 0.20895 0.56043 0.0
O391 O 0.14118 0.23653 0.62799 0.0
O392 O 0.15935 0.20955 0.66846 0.0
C393 C 0.14418 0.22432 0.44104 0.0
C394 C 0.12499 0.17605 0.58358 0.0
C395 C 0.198 0.2063 0.54357 0.0
O396 O 0.14576 0.23701 0.48951 0.0
O397 O 0.14643 0.20392 0.4536 0.0
O398 O 0.18572 0.18927 0.54256 0.0
O399 O 0.18796 0.22431 0.55488 0.0
C400 C 0.14879 0.22735 0.67837 0.0
O401 O 0.14567 0.17263 0.57904 0.0
O402 O 0.11893 0.19588 0.5734 0.0
In403 In 0.52687 0.40286 0.30876 0.0
O404 O 0.49911 0.39224 0.37817 0.0
O405 O 0.52815 0.4076 0.41666 0.0
C406 C 0.51227 0.39286 0.18957 0.0
C407 C 0.55828 0.37237 0.3301 0.0
C408 C 0.52814 0.44695 0.28903 0.0
O409 O 0.49946 0.39316 0.23805 0.0
O410 O 0.53243 0.39665 0.20211 0.0
O411 O 0.54569 0.43534 0.29048 0.0
O412 O 0.5105 0.43637 0.30046 0.0
C413 C 0.50971 0.39841 0.42786 0.0
O414 O 0.56276 0.39294 0.32784 0.0
O415 O 0.53827 0.36747 0.31846 0.0
C416 C 0.25451 0.26107 0.99473 0.0
C417 C 0.26541 0.28109 0.97972 0.0
C418 C 0.23228 0.26092 0.01427 0.0
C419 C 0.22 0.28077 0.01938 0.0
H420 H 0.26326 0.24534 0.99215 0.0
H421 H 0.22467 0.24503 0.02521 0.0
S422 S 0.2407 0.33769 0.98488 0.0
N423 N 0.26225 0.32135 0.97093 0.0
N424 N 0.22031 0.32104 0.00737 0.0
C425 C 0.23062 0.30094 0.00425 0.0
C426 C 0.25336 0.3011 0.98447 0.0
C427 C 0.97561 0.98321 0.27099 0.0
C428 C 0.95531 0.97221 0.28145 0.0
C429 C 0.97618 0.00547 0.25154 0.0
C430 C 0.9565 0.01767 0.24203 0.0
H431 H 0.99125 0.97449 0.27686 0.0
H432 H 0.99226 0.01314 0.24393 0.0
S433 S 0.89898 -0.00318 0.26461 0.0
N434 N 0.91497 0.97529 0.28199 0.0
N435 N 0.91607 0.01727 0.24573 0.0
C436 C 0.93606 0.00701 0.25318 0.0
C437 C 0.93546 0.98425 0.27285 0.0
C438 C 0.23187 0.72664 0.49165 0.0
C439 C 0.21963 0.70683 0.48586 0.0
C440 C 0.25419 0.72635 0.51017 0.0
C441 C 0.26526 0.70623 0.52318 0.0
H442 H 0.22414 0.74261 0.4823 0.0
H443 H 0.26287 0.7421 0.51366 0.0
S444 S 0.24076 0.64967 0.51513 0.0
N445 N 0.22016 0.66646 0.49489 0.0
N446 N 0.26235 0.66592 0.52916 0.0
C447 C 0.25329 0.68624 0.51748 0.0
C448 C 0.23042 0.68654 0.49896 0.0
C449 C 0.51007 0.0051 0.75845 0.0
C450 C 0.52982 0.0173 0.76599 0.0
C451 C 0.5105 0.98257 0.74216 0.0
C452 C 0.53071 0.97121 0.73314 0.0
H453 H 0.49403 0.013 0.76486 0.0
H454 H 0.49478 0.97396 0.73731 0.0
S455 S 0.58719 -0.00448 0.74667 0.0
N456 N 0.57025 0.01646 0.76257 0.0
N457 N 0.57106 0.97385 0.73245 0.0
C458 C 0.55065 0.98315 0.74036 0.0
C459 C 0.55021 0.00626 0.75665 0.0
C460 C 0.73258 0.6884 0.01725 0.0
C461 C 0.72053 0.70844 0.02056 0.0
C462 C 0.75484 0.68813 0.99706 0.0
C463 C 0.76575 0.70786 0.97885 0.0
H464 H 0.72482 0.67283 0.03082 0.0
H465 H 0.76359 0.67237 0.99617 0.0
S466 S 0.74121 0.76462 0.97612 0.0
N467 N 0.72098 0.74845 1.00216 0.0
N468 N 0.76258 0.74793 0.96385 0.0
C469 C 0.75374 0.72796 0.98093 0.0
C470 C 0.7312 0.72825 1.00194 0.0
C471 C 0.04582 0.98031 0.76624 0.0
C472 C 0.02617 0.96794 0.75846 0.0
C473 C 0.04674 0.00284 0.74854 0.0
C474 C 0.0281 0.01369 0.72211 0.0
H475 H 0.06044 0.97268 0.78727 0.0
H476 H 0.06204 0.01189 0.75688 0.0
S477 S 0.97336 0.98801 0.6859 0.0
N478 N 0.98812 0.96777 0.7185 0.0
N479 N 0.98988 0.00989 0.68505 0.0
C480 C 0.0086 0.00125 0.71205 0.0
C481 C 0.00763 0.97843 0.73032 0.0
C482 C 0.73156 0.29698 0.49787 0.0
C483 C 0.72087 0.27738 0.47749 0.0
C484 C 0.75391 0.29673 0.51721 0.0
C485 C 0.76625 0.27684 0.51737 0.0
H486 H 0.72256 0.31258 0.49967 0.0
H487 H 0.76148 0.31216 0.53284 0.0
S488 S 0.74641 0.22124 0.46463 0.0
N489 N 0.72468 0.23772 0.45587 0.0
N490 N 0.76647 0.23725 0.49262 0.0
C491 C 0.75586 0.25721 0.49609 0.0
C492 C 0.73323 0.25749 0.47598 0.0
C493 C 0.43794 0.9804 0.24194 0.0
C494 C 0.45803 0.96841 0.24336 0.0
C495 C 0.43733 0.0031 0.25771 0.0
C496 C 0.45675 0.01453 0.27598 0.0
H497 H 0.42263 0.97228 0.22778 0.0
H498 H 0.42157 0.01178 0.25488 0.0
S499 S 0.51333 0.99026 0.29153 0.0
N500 N 0.49763 0.96939 0.2672 0.0
N501 N 0.49648 0.01184 0.2972 0.0
C502 C 0.47685 0.00256 0.27901 0.0
C503 C 0.47749 0.97956 0.26256 0.0
C504 C 0.73145 0.79675 0.51317 0.0
C505 C 0.72062 0.77697 0.53124 0.0
C506 C 0.75372 0.79658 0.49307 0.0
C507 C 0.76584 0.77659 0.48977 0.0
H508 H 0.72262 0.81247 0.51383 0.0
H509 H 0.76139 0.81218 0.47936 0.0
S510 S 0.74558 0.7204 0.53526 0.0
N511 N 0.72408 0.73696 0.54709 0.0
N512 N 0.76571 0.73664 0.5089 0.0
C513 C 0.75531 0.75675 0.50864 0.0
C514 C 0.73277 0.75694 0.52955 0.0
C515 C 0.44031 0.48227 0.7615 0.0
C516 C 0.4603 0.47114 0.77595 0.0
C517 C 0.44024 0.50481 0.74404 0.0
C518 C 0.46015 0.51695 0.73986 0.0
H519 H 0.4246 0.47351 0.76332 0.0
H520 H 0.42447 0.51271 0.7333 0.0
S521 S 0.51691 0.49575 0.77481 0.0
N522 N 0.5005 0.47415 0.78642 0.0
N523 N 0.50035 0.51635 0.75326 0.0
C524 C 0.48023 0.50606 0.75466 0.0
C525 C 0.4803 0.48321 0.77285 0.0
C526 C 0.73096 0.22434 0.99243 0.0
C527 C 0.71911 0.20437 0.98445 0.0
C528 C 0.75311 0.22433 0.01256 0.0
C529 C 0.76446 0.20434 0.02508 0.0
H530 H 0.72303 0.24025 0.98358 0.0
H531 H 0.76144 0.24021 0.01763 0.0
S532 S 0.74106 0.14742 0.01177 0.0
N533 N 0.72031 0.16397 0.9911 0.0
N534 N 0.76223 0.16393 0.02831 0.0
C535 C 0.7529 0.18418 0.01725 0.0
C536 C 0.73016 0.1842 0.9971 0.0
C537 C 0.01128 0.48037 0.26018 0.0
C538 C 0.03077 0.4688 0.24351 0.0
C539 C 0.01186 0.50285 0.27717 0.0
C540 C 0.03195 0.51478 0.27797 0.0
H541 H -0.00469 0.47204 0.26014 0.0
H542 H -0.0037 0.51097 0.28905 0.0
S543 S 0.08781 0.49218 0.23915 0.0
N544 N 0.07087 0.47082 0.2297 0.0
N545 N 0.07196 0.5133 0.26134 0.0
C546 C 0.05166 0.50342 0.26198 0.0
C547 C 0.05107 0.48038 0.24483 0.0
C548 C 0.25597 0.22646 0.50552 0.0
C549 C 0.26785 0.20673 0.49352 0.0
C550 C 0.23356 0.22599 0.52285 0.0
C551 C 0.22201 0.20577 0.52864 0.0
H552 H 0.26401 0.24252 0.5015 0.0
H553 H 0.22519 0.24171 0.53099 0.0
S554 S 0.24552 0.1493 0.50367 0.0
N555 N 0.26654 0.16628 0.48972 0.0
N556 N 0.22416 0.1654 0.522 0.0
C557 C 0.23367 0.18584 0.51734 0.0
C558 C 0.25664 0.18632 0.49985 0.0
C559 C 0.54789 0.48275 0.26596 0.0
C560 C 0.5279 0.47077 0.27119 0.0
C561 C 0.5479 0.50523 0.24761 0.0
C562 C 0.52795 0.51642 0.23322 0.0
H563 H 0.56364 0.47477 0.27641 0.0
H564 H 0.56366 0.51389 0.24493 0.0
S565 S 0.47113 0.49229 0.23777 0.0
N566 N 0.48764 0.47167 0.25942 0.0
N567 N 0.48767 0.51367 0.22455 0.0
C568 C 0.50787 0.50452 0.23758 0.0
C569 C 0.50784 0.48176 0.25672 0.0
C570 C 0.25412 0.76284 0.01168 0.0
C571 C 0.26622 0.78258 0.02094 0.0
C572 C 0.23187 0.76332 0.99255 0.0
C573 C 0.22069 0.78357 0.98235 0.0
H574 H 0.2619 0.74676 0.01875 0.0
H575 H 0.22334 0.7476 0.98642 0.0
S576 S 0.2448 0.84005 0.9999 0.0
N577 N 0.26546 0.82305 0.01809 0.0
N578 N 0.22335 0.82396 0.98275 0.0
C579 C 0.23251 0.80351 0.99149 0.0
C580 C 0.25534 0.80301 0.01061 0.0
C581 C 0.97651 0.48172 0.74268 0.0
C582 C 0.95646 0.47095 0.72731 0.0
C583 C 0.9768 0.50402 0.76186 0.0
C584 C 0.95706 0.51649 0.76618 0.0
H585 H 0.99215 0.4728 0.74082 0.0
H586 H 0.99269 0.51151 0.77324 0.0
S587 S 0.90014 0.49622 0.73002 0.0
N588 N 0.91631 0.47447 0.717 0.0
N589 N 0.91687 0.51653 0.75273 0.0
C590 C 0.93687 0.50601 0.75047 0.0
C591 C 0.93657 0.48322 0.7311 0.0
C592 C 0.1472 0.22989 0.86124 0.0
C593 C 0.14119 0.25206 0.87402 0.0
C594 C 0.14937 0.22212 0.7978 0.0
C595 C 0.14534 0.2361 0.74452 0.0
H596 H 0.15109 0.21862 0.90047 0.0
H597 H 0.1545 0.20502 0.79058 0.0
S598 S 0.12745 0.29512 0.75177 0.0
N599 N 0.13011 0.28766 0.82812 0.0
N600 N 0.13383 0.27287 0.70877 0.0
C601 C 0.13841 0.25806 0.75651 0.0
C602 C 0.13644 0.26608 0.82126 0.0
C603 C 0.97947 0.91493 0.01345 0.0
C604 C 0.99099 0.89687 0.98655 0.0
C605 C 0.97182 0.91417 0.07724 0.0
C606 C 0.97617 0.89569 0.11703 0.0
H607 H 0.97643 0.92975 0.98502 0.0
H608 H 0.96301 0.9285 0.09619 0.0
S609 S 0.00611 0.84435 0.06945 0.0
N610 N 0.00624 0.85989 1.00361 0.0
N611 N 0.99275 0.85892 0.12497 0.0
C612 C 0.98779 0.87756 0.0908 0.0
C613 C -0.00504 0.87803 0.02505 0.0
C614 C 0.34396 0.71947 0.32059 0.0
C615 C 0.34405 0.73411 0.3738 0.0
C616 C 0.34234 0.72746 0.25705 0.0
C617 C 0.34039 0.75035 0.24455 0.0
H618 H 0.34461 0.70165 0.32805 0.0
H619 H 0.34189 0.7156 0.21769 0.0
S620 S 0.34203 0.79579 0.36595 0.0
N621 N 0.34379 0.77274 0.40897 0.0
N622 N 0.34045 0.78768 0.28996 0.0
C623 C 0.34131 0.76521 0.29702 0.0
C624 C 0.34324 0.75711 0.36154 0.0
C625 C 0.47732 0.09099 0.6029 0.0
C626 C 0.49969 0.09621 0.61529 0.0
C627 C 0.46937 0.08899 0.53958 0.0
C628 C 0.48339 0.09239 0.48605 0.0
H629 H 0.46601 0.0876 0.64235 0.0
H630 H 0.45211 0.08445 0.53264 0.0
S631 S 0.54295 0.10817 0.49226 0.0
N632 N 0.53552 0.10594 0.56874 0.0
N633 N 0.52044 0.10249 0.44967 0.0
C634 C 0.50557 0.09855 0.49767 0.0
C635 C 0.51375 0.10037 0.56227 0.0
C636 C 0.14024 0.73304 0.74726 0.0
C637 C 0.14491 0.75558 0.75938 0.0
C638 C 0.13851 0.72493 0.68387 0.0
C639 C 0.14109 0.7391 0.63017 0.0
H640 H 0.13854 0.72144 0.78696 0.0
H641 H 0.13564 0.7073 0.67697 0.0
S642 S 0.15144 0.79995 0.63602 0.0
N643 N 0.15066 0.79224 0.71246 0.0
N644 N 0.14718 0.77707 0.5937 0.0
C645 C 0.14479 0.76186 0.64174 0.0
C646 C 0.14678 0.77006 0.70621 0.0
C647 C 0.47397 0.89815 0.96813 0.0
C648 C 0.48829 0.89522 0.02126 0.0
C649 C 0.48184 0.89669 0.90464 0.0
C650 C 0.50439 0.89253 0.89173 0.0
H651 H 0.45651 0.90177 0.97552 0.0
H652 H 0.47024 0.89956 0.86547 0.0
S653 S 0.54857 0.88251 0.01361 0.0
N654 N 0.52591 0.88694 0.05676 0.0
N655 N 0.54083 0.88455 0.93733 0.0
C656 C 0.51882 0.88903 0.94435 0.0
C657 C 0.51073 0.89027 0.00913 0.0
C658 C 0.35929 0.24978 0.16972 0.0
C659 C 0.34047 0.25909 0.13994 0.0
C660 C 0.35845 0.24262 0.23438 0.0
C661 C 0.33858 0.24391 0.27012 0.0
H662 H 0.37471 0.24819 0.14312 0.0
H663 H 0.37319 0.23534 0.2558 0.0
S664 S 0.28471 0.26657 0.21313 0.0
N665 N 0.30159 0.26942 0.15082 0.0
N666 N 0.29977 0.25508 0.27091 0.0
C667 C 0.3197 0.25308 0.24052 0.0
C668 C 0.32071 0.26091 0.17571 0.0
C669 C 0.01554 0.08903 0.45859 0.0
C670 C 0.00144 0.09274 0.51176 0.0
C671 C 0.00788 0.09142 0.39513 0.0
C672 C 0.98573 0.09737 0.38219 0.0
H673 H 0.03262 0.08388 0.4659 0.0
H674 H 0.01923 0.08767 0.35598 0.0
S675 S 0.94247 0.11062 0.50418 0.0
N676 N 0.96463 0.1041 0.54733 0.0
N677 N 0.95007 0.10828 0.42787 0.0
C678 C 0.97164 0.10196 0.43486 0.0
C679 C 0.97953 0.09974 0.49967 0.0
C680 C 0.84708 0.72076 0.17978 0.0
C681 C 0.84379 0.73504 0.12668 0.0
C682 C 0.84522 0.72855 0.24344 0.0
C683 C 0.83959 0.75081 0.25629 0.0
H684 H 0.85071 0.70329 0.17216 0.0
H685 H 0.84758 0.7169 0.28277 0.0
S686 S 0.83064 0.79532 0.13465 0.0
N687 N 0.83583 0.77282 0.09148 0.0
N688 N 0.832 0.78737 0.21082 0.0
C689 C 0.83687 0.76541 0.20371 0.0
C690 C 0.83909 0.75756 0.13899 0.0
C691 C 0.9749 0.08566 0.95978 0.0
C692 C 0.98895 0.09022 0.01251 0.0
C693 C 0.98255 0.08722 0.89609 0.0
C694 C 0.00467 0.09306 0.88257 0.0
H695 H 0.9578 0.08069 0.96767 0.0
H696 H 0.97121 0.08305 0.85728 0.0
S697 S 0.04795 0.10776 1.00302 0.0
N698 N 0.02579 0.10189 0.04683 0.0
N699 N 0.04036 0.10437 0.92701 0.0
C700 C 0.0188 0.09817 0.93471 0.0
C701 C 0.0109 0.09688 0.99969 0.0
C702 C 0.64756 0.2303 0.64327 0.0
C703 C 0.64202 0.25257 0.63028 0.0
C704 C 0.64951 0.22257 0.7068 0.0
C705 C 0.64572 0.23672 0.75986 0.0
H706 H 0.65121 0.2189 0.60415 0.0
H707 H 0.65423 0.20536 0.71426 0.0
S708 S 0.62906 0.2961 0.75179 0.0
N709 N 0.63165 0.28846 0.67557 0.0
N710 N 0.63496 0.27379 0.7951 0.0
C711 C 0.63932 0.25882 0.74758 0.0
C712 C 0.63757 0.26678 0.68278 0.0
C713 C 0.47063 0.89032 0.44411 0.0
C714 C 0.48524 0.88935 0.39094 0.0
C715 C 0.47868 0.89219 0.50752 0.0
C716 C 0.5016 0.89349 0.51988 0.0
H717 H 0.45281 0.89028 0.43666 0.0
H718 H 0.46686 0.89345 0.5468 0.0
S719 S 0.54688 0.88919 0.39879 0.0
N720 N 0.5238 0.88789 0.35584 0.0
N721 N 0.53886 0.89169 0.47463 0.0
C722 C 0.51639 0.89155 0.46756 0.0
C723 C 0.50823 0.88937 0.40319 0.0
C724 C 0.83705 0.22163 0.30022 0.0
C725 C 0.8406 0.23572 0.24692 0.0
C726 C 0.83956 0.22933 0.36363 0.0
C727 C 0.84546 0.25153 0.37634 0.0
H728 H 0.83203 0.2045 0.29304 0.0
H729 H 0.836 0.21799 0.40293 0.0
S730 S 0.85802 0.29486 0.25399 0.0
N731 N 0.85156 0.27263 0.21105 0.0
N732 N 0.85592 0.28726 0.33037 0.0
C733 C 0.84973 0.26565 0.32355 0.0
C734 C 0.84741 0.25771 0.25883 0.0
C735 C 0.46714 0.09394 0.06279 0.0
C736 C 0.48165 0.09358 0.11624 0.0
C737 C 0.47526 0.0929 0.99929 0.0
C738 C 0.49815 0.09107 0.98703 0.0
H739 H 0.44932 0.09459 0.07 0.0
H740 H 0.46348 0.09283 0.9597 0.0
S741 S 0.54326 0.09123 0.10945 0.0
N742 N 0.52015 0.09273 0.15213 0.0
N743 N 0.53534 0.09045 0.03319 0.0
C744 C 0.51287 0.09141 0.03987 0.0
C745 C 0.50465 0.09277 0.10436 0.0
C746 C 0.64573 0.75532 0.86525 0.0
C747 C 0.64088 0.73291 0.87837 0.0
C748 C 0.64777 0.76298 0.80176 0.0
C749 C 0.64475 0.74862 0.74879 0.0
H750 H 0.64885 0.7669 0.90429 0.0
H751 H 0.65202 0.7803 0.79425 0.0
S752 S 0.62992 0.68881 0.75695 0.0
N753 N 0.63185 0.69665 0.83318 0.0
N754 N 0.63532 0.71122 0.71355 0.0
C755 C 0.63891 0.72639 0.76106 0.0
C756 C 0.63708 0.71849 0.82592 0.0
C757 C 0.00508 0.89205 0.50529 0.0
C758 C 0.98223 0.89382 0.49225 0.0
C759 C 0.01288 0.88987 0.56895 0.0
C760 C -0.00191 0.88912 0.62172 0.0
H761 H 0.01706 0.89316 0.46637 0.0
H762 H 0.03067 0.88949 0.57693 0.0
S763 S 0.93647 0.8902 0.6122 0.0
N764 N 0.9448 0.89265 0.53664 0.0
N765 N 0.95939 0.88837 0.65568 0.0
C766 C 0.97515 0.88963 0.60879 0.0
C767 C 0.96724 0.89205 0.54423 0.0
C768 C 0.64764 0.73091 0.36471 0.0
C769 C 0.64236 0.75323 0.3779 0.0
C770 C 0.64998 0.72333 0.30117 0.0
C771 C 0.64684 0.73769 0.24825 0.0
H772 H 0.65076 0.71932 0.40375 0.0
H773 H 0.65444 0.70606 0.2936 0.0
S774 S 0.63124 0.79734 0.25661 0.0
N775 N 0.63306 0.78945 0.33282 0.0
N776 N 0.63707 0.77504 0.21316 0.0
C777 C 0.64074 0.75986 0.2606 0.0
C778 C 0.63861 0.76767 0.32548 0.0
C779 C 0.47084 0.39147 0.57072 0.0
C780 C 0.48553 0.39129 0.62377 0.0
C781 C 0.47876 0.39307 0.50715 0.0
C782 C 0.50161 0.39493 0.49448 0.0
H783 H 0.45304 0.39094 0.57834 0.0
H784 H 0.46686 0.39366 0.4679 0.0
S785 S 0.54714 0.393 0.61543 0.0
N786 N 0.52416 0.39132 0.65864 0.0
N787 N 0.53896 0.39464 0.53951 0.0
C788 C 0.51652 0.39386 0.54678 0.0
C789 C 0.50849 0.39194 0.61134 0.0
C790 C 0.84354 0.22749 0.76122 0.0
C791 C 0.8397 0.25011 0.74828 0.0
C792 C 0.84489 0.21965 0.82495 0.0
C793 C 0.84282 0.23421 0.87798 0.0
H794 H 0.84482 0.21565 0.72193 0.0
H795 H 0.84709 0.20195 0.83266 0.0
S796 S 0.83503 0.29542 0.86944 0.0
N797 N 0.83546 0.28725 0.79337 0.0
N798 N 0.83831 0.27261 0.91281 0.0
C799 C 0.84004 0.25704 0.86547 0.0
C800 C 0.83837 0.26495 0.80071 0.0
C801 C 0.98255 0.58749 0.10926 0.0
C802 C 0.00458 0.59377 0.12254 0.0
C803 C 0.97487 0.58565 0.04564 0.0
C804 C 0.9888 0.5903 0.99273 0.0
H805 H 0.97133 0.58321 0.1482 0.0
H806 H 0.95786 0.58035 0.03795 0.0
S807 S 0.04747 0.60895 1.00153 0.0
N808 N 0.04 0.60564 0.07764 0.0
N809 N 0.02538 0.60255 0.95798 0.0
C810 C 0.01063 0.5974 0.00531 0.0
C811 C 0.01856 0.59902 0.07021 0.0
C812 C 0.64101 0.22874 0.24525 0.0
C813 C 0.64505 0.25135 0.25782 0.0
C814 C 0.63924 0.22084 0.18168 0.0
C815 C 0.64111 0.23532 0.12846 0.0
H816 H 0.63991 0.21694 0.28466 0.0
H817 H 0.63691 0.20315 0.17425 0.0
S818 S 0.64935 0.29647 0.13597 0.0
N819 N 0.64925 0.28841 0.21213 0.0
N820 N 0.64567 0.27364 0.09302 0.0
C821 C 0.64408 0.25814 0.1406 0.0
C822 C 0.64614 0.26613 0.20519 0.0
C823 C 0.00682 0.39207 0.50205 0.0
C824 C 0.98393 0.39358 0.51479 0.0
C825 C 0.01475 0.39039 0.43843 0.0
C826 C 6e-05 0.38991 0.38532 0.0
H827 H 0.01871 0.39299 0.54124 0.0
H828 H 0.03256 0.39015 0.43079 0.0
S829 S 0.93844 0.39044 0.39381 0.0
N830 N 0.94659 0.39245 0.46966 0.0
N831 N 0.96145 0.38911 0.35061 0.0
C832 C 0.9771 0.39018 0.39786 0.0
C833 C 0.96906 0.39209 0.46243 0.0
C834 C 0.8466 0.7557 0.74314 0.0
C835 C 0.842 0.7332 0.75571 0.0
C836 C 0.84826 0.76362 0.67957 0.0
C837 C 0.84572 0.74925 0.62629 0.0
H838 H 0.84819 0.76743 0.78258 0.0
H839 H 0.85097 0.78125 0.67218 0.0
S840 S 0.83582 0.68835 0.63365 0.0
N841 N 0.83654 0.69632 0.70988 0.0
N842 N 0.83993 0.71112 0.59073 0.0
C843 C 0.84224 0.7265 0.63838 0.0
C844 C 0.84027 0.71851 0.703 0.0
C845 C 0.47917 0.59641 1.00104 0.0
C846 C 0.50193 0.59337 0.01341 0.0
C847 C 0.47116 0.59805 0.93756 0.0
C848 C 0.48567 0.59704 0.88422 0.0
H849 H 0.46736 0.59676 0.04049 0.0
H850 H 0.45339 0.59952 0.93026 0.0
S851 S 0.5471 0.59171 0.89135 0.0
N852 N 0.53909 0.59113 0.96754 0.0
N853 N 0.52411 0.59447 0.84854 0.0
C854 C 0.5086 0.59516 0.89622 0.0
C855 C 0.51671 0.59322 0.96073 0.0
C856 C 0.34638 0.22239 0.68795 0.0
C857 C 0.34644 0.23712 0.63491 0.0
C858 C 0.34444 0.23025 0.75163 0.0
C859 C 0.3422 0.2531 0.76449 0.0
H860 H 0.3472 0.20459 0.68021 0.0
H861 H 0.34394 0.21831 0.79077 0.0
S862 S 0.3438 0.29876 0.64367 0.0
N863 N 0.34592 0.2758 0.6004 0.0
N864 N 0.34207 0.2905 0.71948 0.0
C865 C 0.34319 0.26804 0.71218 0.0
C866 C 0.34539 0.26008 0.64757 0.0
C867 C 0.5075 0.59569 0.50091 0.0
C868 C 0.48491 0.59171 0.51363 0.0
C869 C 0.51537 0.59711 0.43729 0.0
C870 C 0.50089 0.59501 0.38416 0.0
H871 H 0.51929 0.597 0.54028 0.0
H872 H 0.53304 0.59942 0.42974 0.0
S873 S 0.43983 0.58667 0.39201 0.0
N874 N 0.44789 0.58718 0.46818 0.0
N875 N 0.46262 0.59018 0.34887 0.0
C876 C 0.4781 0.59207 0.3964 0.0
C877 C 0.47014 0.59031 0.46108 0.0
C878 C 0.14173 0.75978 0.24787 0.0
C879 C 0.14563 0.73712 0.26018 0.0
C880 C 0.14056 0.76788 0.18438 0.0
C881 C 0.14285 0.75356 0.13088 0.0
H882 H 0.14026 0.77146 0.2875 0.0
H883 H 0.13826 0.78559 0.17725 0.0
S884 S 0.15112 0.6924 0.13747 0.0
N885 N 0.15034 0.70022 0.21383 0.0
N886 N 0.1478 0.71536 0.09481 0.0
C887 C 0.14576 0.73071 0.14267 0.0
C888 C 0.14726 0.72252 0.20723 0.0
C889 C 0.98605 0.37713 0.92165 0.0
C890 C 0.9789 0.3964 0.88938 0.0
C891 C -0.00671 0.37817 0.98621 0.0
C892 C -0.00577 0.39862 0.01935 0.0
H893 H 0.98581 0.3612 0.89715 0.0
H894 H -0.00118 0.36303 0.00966 0.0
S895 S 0.97762 0.45375 0.95512 0.0
N896 N 0.97293 0.43632 0.89501 0.0
N897 N 0.98744 0.43844 0.01493 0.0
C898 C 0.98725 0.41795 0.98716 0.0
C899 C 0.97934 0.41679 0.92244 0.0
C900 C 0.33814 0.73012 0.86009 0.0
C901 C 0.34445 0.75218 0.87312 0.0
C902 C 0.33603 0.72242 0.79657 0.0
C903 C 0.34041 0.73638 0.74349 0.0
H904 H 0.33402 0.71888 0.89918 0.0
H905 H 0.33072 0.7054 0.78913 0.0
S906 S 0.3591 0.79511 0.7515 0.0
N907 N 0.35613 0.78763 0.82773 0.0
N908 N 0.35251 0.77299 0.70822 0.0
C909 C 0.34757 0.75822 0.75576 0.0
C910 C 0.3495 0.76616 0.82059 0.0
C911 C 0.97266 0.59673 0.57067 0.0
C912 C 0.98724 0.59582 0.62394 0.0
C913 C 0.98058 0.59494 0.50711 0.0
C914 C 0.00333 0.59187 0.49461 0.0
H915 H 0.9549 0.5982 0.57809 0.0
H916 H 0.96873 0.59518 0.46773 0.0
S917 S 0.04868 0.59079 0.61624 0.0
N918 N 0.02575 0.59354 0.65922 0.0
N919 N 0.04056 0.58992 0.54016 0.0
C920 C 0.01817 0.5919 0.54717 0.0
C921 C 0.01015 0.59397 0.61172 0.0
C922 C 0.15011 0.26287 0.29745 0.0
C923 C 0.14587 0.24888 0.2443 0.0
C924 C 0.14844 0.25503 0.36096 0.0
C925 C 0.14278 0.23279 0.37394 0.0
H926 H 0.15494 0.28004 0.29005 0.0
H927 H 0.15239 0.26634 0.40006 0.0
S928 S 0.12888 0.18964 0.25218 0.0
N929 N 0.13467 0.21199 0.20897 0.0
N930 N 0.13194 0.19709 0.32842 0.0
C931 C 0.13794 0.21875 0.32136 0.0
C932 C 0.13937 0.22683 0.25654 0.0
C933 C 0.4815 0.39583 0.1095 0.0
C934 C 0.50398 0.39131 0.12248 0.0
C935 C 0.47375 0.39772 0.04601 0.0
C936 C 0.4881 0.39485 0.99298 0.0
H937 H 0.46992 0.3988 0.14863 0.0
H938 H 0.45637 0.40172 0.03852 0.0
S939 S 0.54811 0.38098 1.00081 0.0
N940 N 0.54032 0.38283 0.07708 0.0
N941 N 0.52559 0.38599 0.95755 0.0
C942 C 0.51041 0.38936 0.00514 0.0
C943 C 0.51839 0.3877 0.06994 0.0
C944 C 0.08477 0.32018 0.11258 0.0
C945 C 0.10709 0.32621 0.10287 0.0
C946 C 0.06921 0.33557 0.13518 0.0
C947 C 0.07527 0.35768 0.14865 0.0
H948 H 0.07924 0.30333 0.10339 0.0
H949 H 0.05223 0.33004 0.14182 0.0
S950 S 0.13155 0.38209 0.13064 0.0
N951 N 0.13453 0.3559 0.10809 0.0
N952 N 0.1051 0.38497 0.1502 0.0
C953 C 0.09748 0.36407 0.13866 0.0
C954 C 0.11343 0.3483 0.11584 0.0
C955 C 0.89831 0.81995 0.37912 0.0
C956 C 0.87667 0.82599 0.39787 0.0
C957 C 0.91306 0.83566 0.35417 0.0
C958 C 0.90683 0.85809 0.34732 0.0
H959 H 0.90392 0.80287 0.38319 0.0
H960 H 0.92961 0.83016 0.341 0.0
S961 S 0.85203 0.88254 0.38931 0.0
N962 N 0.84961 0.85592 0.40762 0.0
N963 N 0.87751 0.88561 0.36113 0.0
C964 C 0.88522 0.86441 0.36568 0.0
C965 C 0.8701 0.84832 0.39092 0.0
C966 C 0.4004 0.66645 0.61922 0.0
C967 C 0.37854 0.6599 0.60474 0.0
C968 C 0.41578 0.65135 0.64441 0.0
C969 C 0.40997 0.62905 0.65587 0.0
H970 H 0.40571 0.68347 0.6117 0.0
H971 H 0.43245 0.65724 0.65439 0.0
S972 S 0.35486 0.60336 0.62555 0.0
N973 N 0.35177 0.62957 0.60346 0.0
N974 N 0.38083 0.60104 0.65049 0.0
C975 C 0.38817 0.6222 0.64151 0.0
C976 C 0.37242 0.63765 0.61596 0.0
C977 C 0.60904 0.14089 0.88566 0.0
C978 C 0.60326 0.1632 0.89743 0.0
C979 C 0.59348 0.12581 0.86093 0.0
C980 C 0.5716 0.1325 0.84676 0.0
H981 H 0.62572 0.135 0.89546 0.0
H982 H 0.59865 0.10874 0.85328 0.0
S983 S 0.54815 0.18922 0.8678 0.0
N984 N 0.57415 0.19133 0.89243 0.0
N985 N 0.54499 0.16304 0.84574 0.0
C986 C 0.56563 0.15481 0.85794 0.0
C987 C 0.58143 0.17013 0.88342 0.0
C988 C 0.07036 0.65147 0.36585 0.0
C989 C 0.07711 0.62951 0.35287 0.0
C990 C 0.08527 0.66716 0.39041 0.0
C991 C 0.10756 0.66154 0.40277 0.0
H992 H 0.05333 0.65662 0.3576 0.0
H993 H 0.07926 0.68388 0.39922 0.0
S994 S 0.13371 0.60628 0.37665 0.0
N995 N 0.10761 0.6029 0.35405 0.0
N996 N 0.13575 0.63247 0.39997 0.0
C997 C 0.11459 0.63964 0.38993 0.0
C998 C 0.09935 0.62362 0.36498 0.0
C999 C 0.61181 0.84593 0.62132 0.0
C1000 C 0.60588 0.82347 0.61353 0.0
C1001 C 0.5966 0.86147 0.64567 0.0
C1002 C 0.57498 0.85507 0.66354 0.0
H1003 H 0.6283 0.8516 0.60831 0.0
H1004 H 0.60179 0.87867 0.64988 0.0
S1005 S 0.55151 0.798 0.65517 0.0
N1006 N 0.57706 0.79545 0.62723 0.0
N1007 N 0.54859 0.82457 0.67334 0.0
C1008 C 0.56895 0.83258 0.65688 0.0
C1009 C 0.58436 0.81681 0.63169 0.0
C1010 C 0.41668 0.33681 0.86944 0.0
C1011 C 0.41077 0.35896 0.85583 0.0
C1012 C 0.40125 0.32188 0.89498 0.0
C1013 C 0.37924 0.32844 0.90757 0.0
H1014 H 0.43345 0.33093 0.86086 0.0
H1015 H 0.40661 0.30495 0.90406 0.0
S1016 S 0.35529 0.38462 0.88073 0.0
N1017 N 0.38141 0.38684 0.85721 0.0
N1018 N 0.35225 0.35862 0.90483 0.0
C1019 C 0.37305 0.35055 0.8943 0.0
C1020 C 0.38885 0.36584 0.86847 0.0
C1021 C 0.90099 0.16616 0.11194 0.0
C1022 C 0.87871 0.15973 0.1034 0.0
C1023 C 0.9169 0.15114 0.13479 0.0
C1024 C 0.9112 0.12907 0.14974 0.0
H1025 H 0.90622 0.18303 0.1016 0.0
H1026 H 0.93384 0.15692 0.14038 0.0
S1027 S 0.85516 0.10375 0.13534 0.0
N1028 N 0.85172 0.12972 0.1114 0.0
N1029 N 0.88173 0.10139 0.15408 0.0
C1030 C 0.88901 0.12232 0.1411 0.0
C1031 C 0.87275 0.13767 0.11795 0.0
C1032 C 0.90164 0.66578 0.89138 0.0
C1033 C 0.87951 0.65937 0.90274 0.0
C1034 C 0.91726 0.65065 0.86761 0.0
C1035 C 0.91143 0.62846 0.85454 0.0
H1036 H 0.90697 0.68272 0.90016 0.0
H1037 H 0.93411 0.65642 0.85988 0.0
S1038 S 0.85568 0.60316 0.87656 0.0
N1039 N 0.8525 0.62929 0.89938 0.0
N1040 N 0.88199 0.60071 0.85502 0.0
C1041 C 0.88938 0.62174 0.86597 0.0
C1042 C 0.8734 0.63722 0.89004 0.0
C1043 C 0.08722 0.165 0.61981 0.0
C1044 C 0.10915 0.1588 0.60482 0.0
C1045 C 0.07199 0.1495 0.64346 0.0
C1046 C 0.07802 0.12712 0.65274 0.0
H1047 H 0.08173 0.18206 0.61385 0.0
H1048 H 0.05527 0.15515 0.65391 0.0
S1049 S 0.13341 0.10225 0.62052 0.0
N1050 N 0.13624 0.12873 0.60092 0.0
N1051 N 0.10745 0.09944 0.64499 0.0
C1052 C 0.0999 0.12062 0.63791 0.0
C1053 C 0.1155 0.13649 0.614 0.0
C1054 C 0.59622 0.36192 0.36883 0.0
C1055 C 0.57464 0.35547 0.35069 0.0
C1056 C 0.61153 0.34636 0.39257 0.0
C1057 C 0.60573 0.32382 0.39942 0.0
H1058 H 0.60132 0.37916 0.36521 0.0
H1059 H 0.628 0.35205 0.40571 0.0
S1060 S 0.55146 0.29825 0.35701 0.0
N1061 N 0.5484 0.32487 0.33984 0.0
N1062 N 0.57704 0.29572 0.3848 0.0
C1063 C 0.58423 0.31713 0.38112 0.0
C1064 C 0.56872 0.33292 0.35658 0.0
C1065 C 0.37612 0.845 0.11771 0.0
C1066 C 0.38193 0.82262 0.10718 0.0
C1067 C 0.3915 0.86014 0.14308 0.0
C1068 C 0.41321 0.85343 0.15916 0.0
H1069 H 0.35956 0.85091 0.10641 0.0
H1070 H 0.38634 0.87727 0.14967 0.0
S1071 S 0.43662 0.79652 0.14215 0.0
N1072 N 0.41085 0.7944 0.11554 0.0
N1073 N 0.43968 0.82279 0.16346 0.0
C1074 C 0.41919 0.83105 0.14933 0.0
C1075 C 0.40358 0.81567 0.12319 0.0
C1076 C 0.91438 0.33458 0.65263 0.0
C1077 C 0.90828 0.357 0.66057 0.0
C1078 C 0.89943 0.31904 0.6276 0.0
C1079 C 0.87775 0.32526 0.6098 0.0
H1080 H 0.93096 0.32896 0.66496 0.0
H1081 H 0.90495 0.30196 0.6226 0.0
S1082 S 0.85337 0.38186 0.62173 0.0
N1083 N 0.87899 0.38469 0.64908 0.0
N1084 N 0.85077 0.35535 0.60235 0.0
C1085 C 0.87131 0.34759 0.61795 0.0
C1086 C 0.8866 0.36348 0.64332 0.0
C1087 C 0.39895 0.16664 0.37905 0.0
C1088 C 0.3767 0.16109 0.39188 0.0
C1089 C 0.41377 0.15096 0.35414 0.0
C1090 C 0.40702 0.129 0.34154 0.0
H1091 H 0.40506 0.1833 0.38808 0.0
H1092 H 0.43079 0.15608 0.34588 0.0
S1093 S 0.35039 0.10602 0.36552 0.0
N1094 N 0.34839 0.13222 0.38889 0.0
N1095 N 0.37646 0.10251 0.34267 0.0
C1096 C 0.38475 0.1232 0.35349 0.0
C1097 C 0.36954 0.1393 0.37853 0.0
C1098 C 0.61178 0.64041 0.11983 0.0
C1099 C 0.60633 0.6631 0.11489 0.0
C1100 C 0.59637 0.62495 0.14336 0.0
C1101 C 0.57503 0.63168 0.16319 0.0
H1102 H 0.62801 0.6345 0.10495 0.0
H1103 H 0.60113 0.60758 0.14513 0.0
S1104 S 0.55303 0.68944 0.16362 0.0
N1105 N 0.5784 0.69169 0.13415 0.0
N1106 N 0.54955 0.66272 0.17871 0.0
C1107 C 0.56955 0.6544 0.15979 0.0
C1108 C 0.58516 0.67009 0.13546 0.0
C1109 C 0.09444 0.86387 0.86673 0.0
C1110 C 0.07177 0.85832 0.86822 0.0
C1111 C 0.11058 0.84899 0.88974 0.0
C1112 C 0.10452 0.82818 0.9155 0.0
H1113 H 0.09979 0.87956 0.84623 0.0
H1114 H 0.12792 0.8536 0.88571 0.0
S1115 S 0.04704 0.8071 0.93791 0.0
N1116 N 0.0439 0.83151 0.90263 0.0
N1117 N 0.07411 0.80369 0.94625 0.0
C1118 C 0.0818 0.82293 0.91991 0.0
C1119 C 0.06545 0.83796 0.89612 0.0
loop_
_geom_bond_atom_site_label_1
_geom_bond_atom_site_label_2
_geom_bond_distance
_geom_bond_site_symmetry_2
_ccdc_geom_bond_type
In0 O1 2.294 . S
In0 O2 2.326 . S
In0 O6 2.266 1_554 S
In0 O7 2.326 1_554 S
In0 O8 2.266 . S
In0 O9 2.326 . S
In0 O11 2.294 . S
In0 O12 2.326 . S
O1 In0 2.294 . S
O1 C10 1.240 . S
O2 In0 2.326 . S
O2 C10 1.252 . S
C3 O6 1.252 . S
C3 O7 1.260 . S
C4 O11 1.240 . S
C4 O12 1.252 . S
C5 O8 1.252 . S
C5 O9 1.260 . S
O6 In0 2.266 1_556 S
O6 C3 1.252 . S
O7 In0 2.326 1_556 S
O7 C3 1.260 . S
O8 In0 2.266 . S
O8 C5 1.252 . S
O9 In0 2.326 . S
O9 C5 1.260 . S
C10 O1 1.240 . S
C10 O2 1.252 . S
O11 In0 2.294 . S
O11 C4 1.240 . S
O12 In0 2.326 . S
O12 C4 1.252 . S
In13 O14 2.294 . S
In13 O15 2.326 . S
In13 O19 2.266 . S
In13 O20 2.326 . S
In13 O21 2.288 . S
In13 O22 2.326 . S
In13 O24 2.294 . S
In13 O25 2.326 . S
O14 In13 2.294 . S
O14 C23 1.240 . S
O15 In13 2.326 . S
O15 C23 1.252 . S
C16 O19 1.252 . S
C16 O20 1.260 . S
C17 O24 1.240 . S
C17 O25 1.252 . S
C18 O21 1.270 . S
C18 O22 1.260 . S
O19 In13 2.266 . S
O19 C16 1.252 . S
O20 In13 2.326 . S
O20 C16 1.260 . S
O21 In13 2.288 . S
O21 C18 1.270 . S
O22 In13 2.326 . S
O22 C18 1.260 . S
C23 O14 1.240 . S
C23 O15 1.252 . S
O24 In13 2.294 . S
O24 C17 1.240 . S
O25 In13 2.326 . S
O25 C17 1.252 . S
In26 O27 2.294 . S
In26 O28 2.326 . S
In26 O32 2.266 . S
In26 O33 2.326 . S
In26 O34 2.266 . S
In26 O35 2.326 . S
In26 O37 2.294 . S
In26 O38 2.326 . S
O27 In26 2.294 . S
O27 C36 1.240 . S
O28 In26 2.326 . S
O28 C36 1.252 . S
C29 O32 1.252 . S
C29 O33 1.260 . S
C30 O37 1.240 . S
C30 O38 1.252 . S
C31 O34 1.252 . S
C31 O35 1.260 . S
O32 In26 2.266 . S
O32 C29 1.252 . S
O33 In26 2.326 . S
O33 C29 1.260 . S
O34 In26 2.266 . S
O34 C31 1.252 . S
O35 In26 2.326 . S
O35 C31 1.260 . S
C36 O27 1.240 . S
C36 O28 1.252 . S
O37 In26 2.294 . S
O37 C30 1.240 . S
O38 In26 2.326 . S
O38 C30 1.252 . S
In39 O40 2.294 . S
In39 O41 2.326 . S
In39 O45 2.266 . S
In39 O46 2.326 . S
In39 O47 2.266 . S
In39 O48 2.326 . S
In39 O50 2.294 . S
In39 O51 2.326 . S
O40 In39 2.294 . S
O40 C49 1.240 . S
O41 In39 2.326 . S
O41 C49 1.252 . S
C42 O45 1.252 . S
C42 O46 1.260 . S
C43 O50 1.240 . S
C43 O51 1.252 . S
C44 O47 1.252 . S
C44 O48 1.260 . S
O45 In39 2.266 . S
O45 C42 1.252 . S
O46 In39 2.326 . S
O46 C42 1.260 . S
O47 In39 2.266 . S
O47 C44 1.252 . S
O48 In39 2.326 . S
O48 C44 1.260 . S
C49 O40 1.240 . S
C49 O41 1.252 . S
O50 In39 2.294 . S
O50 C43 1.240 . S
O51 In39 2.326 . S
O51 C43 1.252 . S
In52 O53 2.294 . S
In52 O54 2.326 . S
In52 O58 2.266 . S
In52 O59 2.326 . S
In52 O60 2.266 . S
In52 O61 2.326 . S
In52 O63 2.294 . S
In52 O64 2.326 . S
O53 In52 2.294 . S
O53 C62 1.240 . S
O54 In52 2.326 . S
O54 C62 1.252 . S
C55 O58 1.252 . S
C55 O59 1.260 . S
C56 O63 1.240 . S
C56 O64 1.252 . S
C57 O60 1.252 . S
C57 O61 1.260 . S
O58 In52 2.266 . S
O58 C55 1.252 . S
O59 In52 2.326 . S
O59 C55 1.260 . S
O60 In52 2.266 . S
O60 C57 1.252 . S
O61 In52 2.326 . S
O61 C57 1.260 . S
C62 O53 1.240 . S
C62 O54 1.252 . S
O63 In52 2.294 . S
O63 C56 1.240 . S
O64 In52 2.326 . S
O64 C56 1.252 . S
In65 O66 2.294 . S
In65 O67 2.326 . S
In65 O71 2.266 . S
In65 O72 2.326 . S
In65 O73 2.266 . S
In65 O74 2.326 . S
In65 O76 2.294 . S
In65 O77 2.326 . S
O66 In65 2.294 . S
O66 C75 1.240 . S
O67 In65 2.326 . S
O67 C75 1.252 . S
C68 O71 1.252 . S
C68 O72 1.260 . S
C69 O76 1.240 . S
C69 O77 1.252 . S
C70 O73 1.252 . S
C70 O74 1.260 . S
O71 In65 2.266 . S
O71 C68 1.252 . S
O72 In65 2.326 . S
O72 C68 1.260 . S
O73 In65 2.266 . S
O73 C70 1.252 . S
O74 In65 2.326 . S
O74 C70 1.260 . S
C75 O66 1.240 . S
C75 O67 1.252 . S
O76 In65 2.294 . S
O76 C69 1.240 . S
O77 In65 2.326 . S
O77 C69 1.252 . S
In78 O79 2.294 . S
In78 O80 2.326 . S
In78 O84 2.266 . S
In78 O85 2.326 . S
In78 O86 2.266 1_556 S
In78 O87 2.326 1_556 S
In78 O89 2.294 . S
In78 O90 2.326 . S
O79 In78 2.294 . S
O79 C88 1.240 . S
O80 In78 2.326 . S
O80 C88 1.252 . S
C81 O84 1.252 . S
C81 O85 1.260 . S
C82 O89 1.240 . S
C82 O90 1.252 . S
C83 O86 1.252 . S
C83 O87 1.260 . S
O84 In78 2.266 . S
O84 C81 1.252 . S
O85 In78 2.326 . S
O85 C81 1.260 . S
O86 In78 2.266 1_554 S
O86 C83 1.252 . S
O87 In78 2.326 1_554 S
O87 C83 1.260 . S
C88 O79 1.240 . S
C88 O80 1.252 . S
O89 In78 2.294 . S
O89 C82 1.240 . S
O90 In78 2.326 . S
O90 C82 1.252 . S
In91 O92 2.294 . S
In91 O93 2.326 . S
In91 O97 2.288 . S
In91 O98 2.326 . S
In91 O99 2.266 . S
In91 O100 2.326 . S
In91 O102 2.294 . S
In91 O103 2.326 . S
O92 In91 2.294 . S
O92 C101 1.240 . S
O93 In91 2.326 . S
O93 C101 1.252 . S
C94 O97 1.270 . S
C94 O98 1.260 . S
C95 O102 1.240 . S
C95 O103 1.252 . S
C96 O99 1.252 . S
C96 O100 1.260 . S
O97 In91 2.288 . S
O97 C94 1.270 . S
O98 In91 2.326 . S
O98 C94 1.260 . S
O99 In91 2.266 . S
O99 C96 1.252 . S
O100 In91 2.326 . S
O100 C96 1.260 . S
C101 O92 1.240 . S
C101 O93 1.252 . S
O102 In91 2.294 . S
O102 C95 1.240 . S
O103 In91 2.326 . S
O103 C95 1.252 . S
In104 O105 2.294 . S
In104 O106 2.326 . S
In104 O110 2.266 . S
In104 O111 2.326 . S
In104 O112 2.266 1_556 S
In104 O113 2.326 1_556 S
In104 O115 2.294 . S
In104 O116 2.326 . S
O105 In104 2.294 . S
O105 C114 1.240 . S
O106 In104 2.326 . S
O106 C114 1.252 . S
C107 O110 1.252 . S
C107 O111 1.260 . S
C108 O115 1.240 . S
C108 O116 1.252 . S
C109 O112 1.252 . S
C109 O113 1.260 . S
O110 In104 2.266 . S
O110 C107 1.252 . S
O111 In104 2.326 . S
O111 C107 1.260 . S
O112 In104 2.266 1_554 S
O112 C109 1.252 . S
O113 In104 2.326 1_554 S
O113 C109 1.260 . S
C114 O105 1.240 . S
C114 O106 1.252 . S
O115 In104 2.294 . S
O115 C108 1.240 . S
O116 In104 2.326 . S
O116 C108 1.252 . S
In117 O118 2.294 . S
In117 O119 2.326 . S
In117 O123 2.288 . S
In117 O124 2.326 . S
In117 O125 2.266 . S
In117 O126 2.326 . S
In117 O128 2.294 . S
In117 O129 2.326 . S
O118 In117 2.294 . S
O118 C127 1.240 . S
O119 In117 2.326 . S
O119 C127 1.252 . S
C120 O123 1.270 . S
C120 O124 1.260 . S
C121 O128 1.240 . S
C121 O129 1.252 . S
C122 O125 1.252 . S
C122 O126 1.260 . S
O123 In117 2.288 . S
O123 C120 1.270 . S
O124 In117 2.326 . S
O124 C120 1.260 . S
O125 In117 2.266 . S
O125 C122 1.252 . S
O126 In117 2.326 . S
O126 C122 1.260 . S
C127 O118 1.240 . S
C127 O119 1.252 . S
O128 In117 2.294 . S
O128 C121 1.240 . S
O129 In117 2.326 . S
O129 C121 1.252 . S
In130 O131 2.294 . S
In130 O132 2.326 . S
In130 O136 2.266 . S
In130 O137 2.326 . S
In130 O138 2.266 . S
In130 O139 2.326 . S
In130 O141 2.294 . S
In130 O142 2.326 . S
O131 In130 2.294 . S
O131 C140 1.240 . S
O132 In130 2.326 . S
O132 C140 1.252 . S
C133 O136 1.252 . S
C133 O137 1.260 . S
C134 O141 1.240 . S
C134 O142 1.252 . S
C135 O138 1.252 . S
C135 O139 1.260 . S
O136 In130 2.266 . S
O136 C133 1.252 . S
O137 In130 2.326 . S
O137 C133 1.260 . S
O138 In130 2.266 . S
O138 C135 1.252 . S
O139 In130 2.326 . S
O139 C135 1.260 . S
C140 O131 1.240 . S
C140 O132 1.252 . S
O141 In130 2.294 . S
O141 C134 1.240 . S
O142 In130 2.326 . S
O142 C134 1.252 . S
In143 O144 2.294 . S
In143 O145 2.326 . S
In143 O149 2.266 . S
In143 O150 2.326 . S
In143 O151 2.266 . S
In143 O152 2.326 . S
In143 O154 2.294 . S
In143 O155 2.326 . S
O144 In143 2.294 . S
O144 C153 1.240 . S
O145 In143 2.326 . S
O145 C153 1.252 . S
C146 O149 1.252 . S
C146 O150 1.260 . S
C147 O154 1.240 . S
C147 O155 1.252 . S
C148 O151 1.252 . S
C148 O152 1.260 . S
O149 In143 2.266 . S
O149 C146 1.252 . S
O150 In143 2.326 . S
O150 C146 1.260 . S
O151 In143 2.266 . S
O151 C148 1.252 . S
O152 In143 2.326 . S
O152 C148 1.260 . S
C153 O144 1.240 . S
C153 O145 1.252 . S
O154 In143 2.294 . S
O154 C147 1.240 . S
O155 In143 2.326 . S
O155 C147 1.252 . S
In156 O157 2.294 . S
In156 O158 2.326 . S
In156 O162 2.266 . S
In156 O163 2.326 . S
In156 O164 2.266 . S
In156 O165 2.326 . S
In156 O167 2.294 . S
In156 O168 2.326 . S
O157 In156 2.294 . S
O157 C166 1.240 . S
O158 In156 2.326 . S
O158 C166 1.252 . S
C159 O162 1.252 . S
C159 O163 1.260 . S
C160 O167 1.240 . S
C160 O168 1.252 . S
C161 O164 1.252 . S
C161 O165 1.260 . S
O162 In156 2.266 . S
O162 C159 1.252 . S
O163 In156 2.326 . S
O163 C159 1.260 . S
O164 In156 2.266 . S
O164 C161 1.252 . S
O165 In156 2.326 . S
O165 C161 1.260 . S
C166 O157 1.240 . S
C166 O158 1.252 . S
O167 In156 2.294 . S
O167 C160 1.240 . S
O168 In156 2.326 . S
O168 C160 1.252 . S
In169 O170 2.294 . S
In169 O171 2.326 . S
In169 O175 2.266 . S
In169 O176 2.326 . S
In169 O177 2.266 . S
In169 O178 2.326 . S
In169 O180 2.294 . S
In169 O181 2.326 . S
O170 In169 2.294 . S
O170 C179 1.240 . S
O171 In169 2.326 . S
O171 C179 1.252 . S
C172 O175 1.252 . S
C172 O176 1.260 . S
C173 O180 1.240 . S
C173 O181 1.252 . S
C174 O177 1.252 . S
C174 O178 1.260 . S
O175 In169 2.266 . S
O175 C172 1.252 . S
O176 In169 2.326 . S
O176 C172 1.260 . S
O177 In169 2.266 . S
O177 C174 1.252 . S
O178 In169 2.326 . S
O178 C174 1.260 . S
C179 O170 1.240 . S
C179 O171 1.252 . S
O180 In169 2.294 . S
O180 C173 1.240 . S
O181 In169 2.326 . S
O181 C173 1.252 . S
In182 O183 2.294 . S
In182 O184 2.326 . S
In182 O188 2.266 1_554 S
In182 O189 2.326 1_554 S
In182 O190 2.266 . S
In182 O191 2.326 . S
In182 O193 2.294 . S
In182 O194 2.326 . S
O183 In182 2.294 . S
O183 C192 1.240 . S
O184 In182 2.326 . S
O184 C192 1.252 . S
C185 O188 1.252 . S
C185 O189 1.260 . S
C186 O193 1.240 . S
C186 O194 1.252 . S
C187 O190 1.252 . S
C187 O191 1.260 . S
O188 In182 2.266 1_556 S
O188 C185 1.252 . S
O189 In182 2.326 1_556 S
O189 C185 1.260 . S
O190 In182 2.266 . S
O190 C187 1.252 . S
O191 In182 2.326 . S
O191 C187 1.260 . S
C192 O183 1.240 . S
C192 O184 1.252 . S
O193 In182 2.294 . S
O193 C186 1.240 . S
O194 In182 2.326 . S
O194 C186 1.252 . S
In195 O196 2.294 . S
In195 O197 2.326 . S
In195 O201 2.266 . S
In195 O202 2.326 . S
In195 O203 2.288 . S
In195 O204 2.326 . S
In195 O206 2.294 . S
In195 O207 2.326 . S
O196 In195 2.294 . S
O196 C205 1.240 . S
O197 In195 2.326 . S
O197 C205 1.252 . S
C198 O201 1.252 . S
C198 O202 1.260 . S
C199 O206 1.240 . S
C199 O207 1.252 . S
C200 O203 1.270 . S
C200 O204 1.260 . S
O201 In195 2.266 . S
O201 C198 1.252 . S
O202 In195 2.326 . S
O202 C198 1.260 . S
O203 In195 2.288 . S
O203 C200 1.270 . S
O204 In195 2.326 . S
O204 C200 1.260 . S
C205 O196 1.240 . S
C205 O197 1.252 . S
O206 In195 2.294 . S
O206 C199 1.240 . S
O207 In195 2.326 . S
O207 C199 1.252 . S
In208 O209 2.294 . S
In208 O210 2.326 . S
In208 O214 2.266 . S
In208 O215 2.326 . S
In208 O216 2.266 . S
In208 O217 2.326 . S
In208 O219 2.294 . S
In208 O220 2.326 . S
O209 In208 2.294 . S
O209 C218 1.240 . S
O210 In208 2.326 . S
O210 C218 1.252 . S
C211 O214 1.252 . S
C211 O215 1.260 . S
C212 O219 1.240 . S
C212 O220 1.252 . S
C213 O216 1.252 . S
C213 O217 1.260 . S
O214 In208 2.266 . S
O214 C211 1.252 . S
O215 In208 2.326 . S
O215 C211 1.260 . S
O216 In208 2.266 . S
O216 C213 1.252 . S
O217 In208 2.326 . S
O217 C213 1.260 . S
C218 O209 1.240 . S
C218 O210 1.252 . S
O219 In208 2.294 . S
O219 C212 1.240 . S
O220 In208 2.326 . S
O220 C212 1.252 . S
In221 O222 2.294 . S
In221 O223 2.326 . S
In221 O227 2.266 . S
In221 O228 2.326 . S
In221 O229 2.266 . S
In221 O230 2.326 . S
In221 O232 2.294 . S
In221 O233 2.326 . S
O222 In221 2.294 . S
O222 C231 1.240 . S
O223 In221 2.326 . S
O223 C231 1.252 . S
C224 O227 1.252 . S
C224 O228 1.260 . S
C225 O232 1.240 . S
C225 O233 1.252 . S
C226 O229 1.252 . S
C226 O230 1.260 . S
O227 In221 2.266 . S
O227 C224 1.252 . S
O228 In221 2.326 . S
O228 C224 1.260 . S
O229 In221 2.266 . S
O229 C226 1.252 . S
O230 In221 2.326 . S
O230 C226 1.260 . S
C231 O222 1.240 . S
C231 O223 1.252 . S
O232 In221 2.294 . S
O232 C225 1.240 . S
O233 In221 2.326 . S
O233 C225 1.252 . S
In234 O235 2.294 . S
In234 O236 2.326 . S
In234 O240 2.266 1_554 S
In234 O241 2.326 1_554 S
In234 O242 2.266 . S
In234 O243 2.326 . S
In234 O245 2.294 . S
In234 O246 2.326 . S
O235 In234 2.294 . S
O235 C244 1.240 . S
O236 In234 2.326 . S
O236 C244 1.252 . S
C237 O240 1.252 . S
C237 O241 1.260 . S
C238 O245 1.240 . S
C238 O246 1.252 . S
C239 O242 1.252 . S
C239 O243 1.260 . S
O240 In234 2.266 1_556 S
O240 C237 1.252 . S
O241 In234 2.326 1_556 S
O241 C237 1.260 . S
O242 In234 2.266 . S
O242 C239 1.252 . S
O243 In234 2.326 . S
O243 C239 1.260 . S
C244 O235 1.240 . S
C244 O236 1.252 . S
O245 In234 2.294 . S
O245 C238 1.240 . S
O246 In234 2.326 . S
O246 C238 1.252 . S
In247 O248 2.294 . S
In247 O249 2.326 . S
In247 O253 2.288 . S
In247 O254 2.326 . S
In247 O255 2.266 . S
In247 O256 2.326 . S
In247 O258 2.294 . S
In247 O259 2.326 . S
O248 In247 2.294 . S
O248 C257 1.240 . S
O249 In247 2.326 . S
O249 C257 1.252 . S
C250 O253 1.270 . S
C250 O254 1.260 . S
C251 O258 1.240 . S
C251 O259 1.252 . S
C252 O255 1.252 . S
C252 O256 1.260 . S
O253 In247 2.288 . S
O253 C250 1.270 . S
O254 In247 2.326 . S
O254 C250 1.260 . S
O255 In247 2.266 . S
O255 C252 1.252 . S
O256 In247 2.326 . S
O256 C252 1.260 . S
C257 O248 1.240 . S
C257 O249 1.252 . S
O258 In247 2.294 . S
O258 C251 1.240 . S
O259 In247 2.326 . S
O259 C251 1.252 . S
In260 O261 2.294 . S
In260 O262 2.326 . S
In260 O266 2.266 . S
In260 O267 2.326 . S
In260 O268 2.266 1_556 S
In260 O269 2.326 1_556 S
In260 O271 2.294 . S
In260 O272 2.326 . S
O261 In260 2.294 . S
O261 C270 1.240 . S
O262 In260 2.326 . S
O262 C270 1.252 . S
C263 O266 1.252 . S
C263 O267 1.260 . S
C264 O271 1.240 . S
C264 O272 1.252 . S
C265 O268 1.252 . S
C265 O269 1.260 . S
O266 In260 2.266 . S
O266 C263 1.252 . S
O267 In260 2.326 . S
O267 C263 1.260 . S
O268 In260 2.266 1_554 S
O268 C265 1.252 . S
O269 In260 2.326 1_554 S
O269 C265 1.260 . S
C270 O261 1.240 . S
C270 O262 1.252 . S
O271 In260 2.294 . S
O271 C264 1.240 . S
O272 In260 2.326 . S
O272 C264 1.252 . S
In273 O274 2.294 . S
In273 O275 2.326 . S
In273 O279 2.288 . S
In273 O280 2.326 . S
In273 O281 2.266 . S
In273 O282 2.326 . S
In273 O284 2.294 . S
In273 O285 2.326 . S
O274 In273 2.294 . S
O274 C283 1.240 . S
O275 In273 2.326 . S
O275 C283 1.252 . S
C276 O279 1.270 . S
C276 O280 1.260 . S
C277 O284 1.240 . S
C277 O285 1.252 . S
C278 O281 1.252 . S
C278 O282 1.260 . S
O279 In273 2.288 . S
O279 C276 1.270 . S
O280 In273 2.326 . S
O280 C276 1.260 . S
O281 In273 2.266 . S
O281 C278 1.252 . S
O282 In273 2.326 . S
O282 C278 1.260 . S
C283 O274 1.240 . S
C283 O275 1.252 . S
O284 In273 2.294 . S
O284 C277 1.240 . S
O285 In273 2.326 . S
O285 C277 1.252 . S
In286 O287 2.294 . S
In286 O288 2.326 . S
In286 O292 2.266 . S
In286 O293 2.326 . S
In286 O294 2.266 . S
In286 O295 2.326 . S
In286 O297 2.294 . S
In286 O298 2.326 . S
O287 In286 2.294 . S
O287 C296 1.240 . S
O288 In286 2.326 . S
O288 C296 1.252 . S
C289 O292 1.252 . S
C289 O293 1.260 . S
C290 O297 1.240 . S
C290 O298 1.252 . S
C291 O294 1.252 . S
C291 O295 1.260 . S
O292 In286 2.266 . S
O292 C289 1.252 . S
O293 In286 2.326 . S
O293 C289 1.260 . S
O294 In286 2.266 . S
O294 C291 1.252 . S
O295 In286 2.326 . S
O295 C291 1.260 . S
C296 O287 1.240 . S
C296 O288 1.252 . S
O297 In286 2.294 . S
O297 C290 1.240 . S
O298 In286 2.326 . S
O298 C290 1.252 . S
In299 O300 2.294 . S
In299 O301 2.326 . S
In299 O305 2.266 . S
In299 O306 2.326 . S
In299 O307 2.266 . S
In299 O308 2.326 . S
In299 O310 2.294 . S
In299 O311 2.326 . S
O300 In299 2.294 . S
O300 C309 1.240 . S
O301 In299 2.326 . S
O301 C309 1.252 . S
C302 O305 1.252 . S
C302 O306 1.260 . S
C303 O310 1.240 . S
C303 O311 1.252 . S
C304 O307 1.252 . S
C304 O308 1.260 . S
O305 In299 2.266 . S
O305 C302 1.252 . S
O306 In299 2.326 . S
O306 C302 1.260 . S
O307 In299 2.266 . S
O307 C304 1.252 . S
O308 In299 2.326 . S
O308 C304 1.260 . S
C309 O300 1.240 . S
C309 O301 1.252 . S
O310 In299 2.294 . S
O310 C303 1.240 . S
O311 In299 2.326 . S
O311 C303 1.252 . S
In312 O313 2.294 . S
In312 O314 2.326 . S
In312 O318 2.266 . S
In312 O319 2.326 . S
In312 O320 2.266 . S
In312 O321 2.326 . S
In312 O323 2.294 . S
In312 O324 2.326 . S
O313 In312 2.294 . S
O313 C322 1.240 . S
O314 In312 2.326 . S
O314 C322 1.252 . S
C315 O318 1.252 . S
C315 O319 1.260 . S
C316 O323 1.240 . S
C316 O324 1.252 . S
C317 O320 1.252 . S
C317 O321 1.260 . S
O318 In312 2.266 . S
O318 C315 1.252 . S
O319 In312 2.326 . S
O319 C315 1.260 . S
O320 In312 2.266 . S
O320 C317 1.252 . S
O321 In312 2.326 . S
O321 C317 1.260 . S
C322 O313 1.240 . S
C322 O314 1.252 . S
O323 In312 2.294 . S
O323 C316 1.240 . S
O324 In312 2.326 . S
O324 C316 1.252 . S
In325 O326 2.294 . S
In325 O327 2.326 . S
In325 O331 2.266 . S
In325 O332 2.326 . S
In325 O333 2.266 . S
In325 O334 2.326 . S
In325 O336 2.294 . S
In325 O337 2.326 . S
O326 In325 2.294 . S
O326 C335 1.240 . S
O327 In325 2.326 . S
O327 C335 1.252 . S
C328 O331 1.252 . S
C328 O332 1.260 . S
C329 O336 1.240 . S
C329 O337 1.252 . S
C330 O333 1.252 . S
C330 O334 1.260 . S
O331 In325 2.266 . S
O331 C328 1.252 . S
O332 In325 2.326 . S
O332 C328 1.260 . S
O333 In325 2.266 . S
O333 C330 1.252 . S
O334 In325 2.326 . S
O334 C330 1.260 . S
C335 O326 1.240 . S
C335 O327 1.252 . S
O336 In325 2.294 . S
O336 C329 1.240 . S
O337 In325 2.326 . S
O337 C329 1.252 . S
In338 O339 2.294 . S
In338 O340 2.326 . S
In338 O344 2.266 1_556 S
In338 O345 2.326 1_556 S
In338 O346 2.266 . S
In338 O347 2.326 . S
In338 O349 2.294 . S
In338 O350 2.326 . S
O339 In338 2.294 . S
O339 C348 1.240 . S
O340 In338 2.326 . S
O340 C348 1.252 . S
C341 O344 1.252 . S
C341 O345 1.260 . S
C342 O349 1.240 . S
C342 O350 1.252 . S
C343 O346 1.252 . S
C343 O347 1.260 . S
O344 In338 2.266 1_554 S
O344 C341 1.252 . S
O345 In338 2.326 1_554 S
O345 C341 1.260 . S
O346 In338 2.266 . S
O346 C343 1.252 . S
O347 In338 2.326 . S
O347 C343 1.260 . S
C348 O339 1.240 . S
C348 O340 1.252 . S
O349 In338 2.294 . S
O349 C342 1.240 . S
O350 In338 2.326 . S
O350 C342 1.252 . S
In351 O352 2.294 . S
In351 O353 2.326 . S
In351 O357 2.288 . S
In351 O358 2.326 . S
In351 O359 2.266 . S
In351 O360 2.326 . S
In351 O362 2.294 . S
In351 O363 2.326 . S
O352 In351 2.294 . S
O352 C361 1.240 . S
O353 In351 2.326 . S
O353 C361 1.252 . S
C354 O357 1.270 . S
C354 O358 1.260 . S
C355 O362 1.240 . S
C355 O363 1.252 . S
C356 O359 1.252 . S
C356 O360 1.260 . S
O357 In351 2.288 . S
O357 C354 1.270 . S
O358 In351 2.326 . S
O358 C354 1.260 . S
O359 In351 2.266 . S
O359 C356 1.252 . S
O360 In351 2.326 . S
O360 C356 1.260 . S
C361 O352 1.240 . S
C361 O353 1.252 . S
O362 In351 2.294 . S
O362 C355 1.240 . S
O363 In351 2.326 . S
O363 C355 1.252 . S
In364 O365 2.294 . S
In364 O366 2.326 . S
In364 O370 2.266 . S
In364 O371 2.326 . S
In364 O372 2.266 1_554 S
In364 O373 2.326 1_554 S
In364 O375 2.294 . S
In364 O376 2.326 . S
O365 In364 2.294 . S
O365 C374 1.240 . S
O366 In364 2.326 . S
O366 C374 1.252 . S
C367 O370 1.252 . S
C367 O371 1.260 . S
C368 O375 1.240 . S
C368 O376 1.252 . S
C369 O372 1.252 . S
C369 O373 1.260 . S
O370 In364 2.266 . S
O370 C367 1.252 . S
O371 In364 2.326 . S
O371 C367 1.260 . S
O372 In364 2.266 1_556 S
O372 C369 1.252 . S
O373 In364 2.326 1_556 S
O373 C369 1.260 . S
C374 O365 1.240 . S
C374 O366 1.252 . S
O375 In364 2.294 . S
O375 C368 1.240 . S
O376 In364 2.326 . S
O376 C368 1.252 . S
In377 O378 2.294 . S
In377 O379 2.326 . S
In377 O383 2.266 . S
In377 O384 2.326 . S
In377 O385 2.288 . S
In377 O386 2.326 . S
In377 O388 2.294 . S
In377 O389 2.326 . S
O378 In377 2.294 . S
O378 C387 1.240 . S
O379 In377 2.326 . S
O379 C387 1.252 . S
C380 O383 1.252 . S
C380 O384 1.260 . S
C381 O388 1.240 . S
C381 O389 1.252 . S
C382 O385 1.270 . S
C382 O386 1.260 . S
O383 In377 2.266 . S
O383 C380 1.252 . S
O384 In377 2.326 . S
O384 C380 1.260 . S
O385 In377 2.288 . S
O385 C382 1.270 . S
O386 In377 2.326 . S
O386 C382 1.260 . S
C387 O378 1.240 . S
C387 O379 1.252 . S
O388 In377 2.294 . S
O388 C381 1.240 . S
O389 In377 2.326 . S
O389 C381 1.252 . S
In390 O391 2.294 . S
In390 O392 2.326 . S
In390 O396 2.266 . S
In390 O397 2.326 . S
In390 O398 2.266 . S
In390 O399 2.326 . S
In390 O401 2.294 . S
In390 O402 2.326 . S
O391 In390 2.294 . S
O391 C400 1.240 . S
O392 In390 2.326 . S
O392 C400 1.252 . S
C393 O396 1.252 . S
C393 O397 1.260 . S
C394 O401 1.240 . S
C394 O402 1.252 . S
C395 O398 1.252 . S
C395 O399 1.260 . S
O396 In390 2.266 . S
O396 C393 1.252 . S
O397 In390 2.326 . S
O397 C393 1.260 . S
O398 In390 2.266 . S
O398 C395 1.252 . S
O399 In390 2.326 . S
O399 C395 1.260 . S
C400 O391 1.240 . S
C400 O392 1.252 . S
O401 In390 2.294 . S
O401 C394 1.240 . S
O402 In390 2.326 . S
O402 C394 1.252 . S
In403 O404 2.294 . S
In403 O405 2.326 . S
In403 O409 2.266 . S
In403 O410 2.326 . S
In403 O411 2.266 . S
In403 O412 2.326 . S
In403 O414 2.294 . S
In403 O415 2.326 . S
O404 In403 2.294 . S
O404 C413 1.240 . S
O405 In403 2.326 . S
O405 C413 1.252 . S
C406 O409 1.252 . S
C406 O410 1.260 . S
C407 O414 1.240 . S
C407 O415 1.252 . S
C408 O411 1.252 . S
C408 O412 1.260 . S
O409 In403 2.266 . S
O409 C406 1.252 . S
O410 In403 2.326 . S
O410 C406 1.260 . S
O411 In403 2.266 . S
O411 C408 1.252 . S
O412 In403 2.326 . S
O412 C408 1.260 . S
C413 O404 1.240 . S
C413 O405 1.252 . S
O414 In403 2.294 . S
O414 C407 1.240 . S
O415 In403 2.326 . S
O415 C407 1.252 . S
C416 C417 1.369 1_554 S
C416 C418 1.419 . S
C416 H420 0.930 . S
C417 C416 1.369 1_556 S
C417 C426 1.429 . S
C418 C416 1.419 . S
C418 C419 1.363 . S
C418 H421 0.929 . S
C419 C418 1.363 . S
C419 C425 1.428 1_554 S
H420 C416 0.930 . S
H421 C418 0.929 . S
S422 N423 1.613 . S
S422 N424 1.610 . S
N423 S422 1.613 . S
N423 C426 1.350 . S
N424 S422 1.610 . S
N424 C425 1.351 . S
C425 C419 1.428 1_556 S
C425 N424 1.351 . S
C425 C426 1.434 . S
C426 C417 1.429 . S
C426 N423 1.350 . S
C426 C425 1.434 . S
C427 C428 1.369 . S
C427 C429 1.419 1_565 S
C427 H431 0.930 . S
C428 C427 1.369 . S
C428 C437 1.429 . S
C429 C427 1.419 1_545 S
C429 C430 1.363 . S
C429 H432 0.929 . S
C430 C429 1.363 . S
C430 C436 1.428 . S
H431 C427 0.930 . S
H432 C429 0.929 . S
S433 N434 1.613 . S
S433 N435 1.610 1_565 S
N434 S433 1.613 . S
N434 C437 1.350 . S
N435 S433 1.610 1_545 S
N435 C436 1.351 . S
C436 C430 1.428 . S
C436 N435 1.351 . S
C436 C437 1.434 1_545 S
C437 C428 1.429 . S
C437 N434 1.350 . S
C437 C436 1.434 1_565 S
C438 C439 1.369 . S
C438 C440 1.419 . S
C438 H442 0.930 . S
C439 C438 1.369 . S
C439 C448 1.429 . S
C440 C438 1.419 . S
C440 C441 1.363 . S
C440 H443 0.929 . S
C441 C440 1.363 . S
C441 C447 1.428 . S
H442 C438 0.930 . S
H443 C440 0.929 . S
S444 N445 1.613 . S
S444 N446 1.610 . S
N445 S444 1.613 . S
N445 C448 1.350 . S
N446 S444 1.610 . S
N446 C447 1.351 . S
C447 C441 1.428 . S
C447 N446 1.351 . S
C447 C448 1.434 . S
C448 C439 1.429 . S
C448 N445 1.350 . S
C448 C447 1.434 . S
C449 C450 1.369 . S
C449 C451 1.419 1_545 S
C449 H453 0.930 . S
C450 C449 1.369 . S
C450 C459 1.429 . S
C451 C449 1.419 1_565 S
C451 C452 1.363 . S
C451 H454 0.929 . S
C452 C451 1.363 . S
C452 C458 1.428 . S
H453 C449 0.930 . S
H454 C451 0.929 . S
S455 N456 1.613 . S
S455 N457 1.610 1_545 S
N456 S455 1.613 . S
N456 C459 1.350 . S
N457 S455 1.610 1_565 S
N457 C458 1.351 . S
C458 C452 1.428 . S
C458 N457 1.351 . S
C458 C459 1.434 1_565 S
C459 C450 1.429 . S
C459 N456 1.350 . S
C459 C458 1.434 1_545 S
C460 C461 1.369 . S
C460 C462 1.419 . S
C460 H464 0.930 . S
C461 C460 1.369 . S
C461 C470 1.429 1_554 S
C462 C460 1.419 . S
C462 C463 1.363 1_554 S
C462 H465 0.929 . S
C463 C462 1.363 1_556 S
C463 C469 1.428 . S
H464 C460 0.930 . S
H465 C462 0.929 . S
S466 N467 1.613 . S
S466 N468 1.610 . S
N467 S466 1.613 . S
N467 C470 1.350 . S
N468 S466 1.610 . S
N468 C469 1.351 . S
C469 C463 1.428 . S
C469 N468 1.351 . S
C469 C470 1.434 . S
C470 C461 1.429 1_556 S
C470 N467 1.350 . S
C470 C469 1.434 . S
C471 C472 1.369 . S
C471 C473 1.419 1_565 S
C471 H475 0.930 . S
C472 C471 1.369 . S
C472 C481 1.429 . S
C473 C471 1.419 1_545 S
C473 C474 1.363 . S
C473 H476 0.929 . S
C474 C473 1.363 . S
C474 C480 1.428 . S
H475 C471 0.930 . S
H476 C473 0.929 . S
S477 N478 1.613 . S
S477 N479 1.610 1_565 S
N478 S477 1.613 . S
N478 C481 1.350 . S
N479 S477 1.610 1_545 S
N479 C480 1.351 . S
C480 C474 1.428 . S
C480 N479 1.351 . S
C480 C481 1.434 1_545 S
C481 C472 1.429 . S
C481 N478 1.350 . S
C481 C480 1.434 1_565 S
C482 C483 1.369 . S
C482 C484 1.419 . S
C482 H486 0.930 . S
C483 C482 1.369 . S
C483 C492 1.429 . S
C484 C482 1.419 . S
C484 C485 1.363 . S
C484 H487 0.929 . S
C485 C484 1.363 . S
C485 C491 1.428 . S
H486 C482 0.930 . S
H487 C484 0.929 . S
S488 N489 1.613 . S
S488 N490 1.610 . S
N489 S488 1.613 . S
N489 C492 1.350 . S
N490 S488 1.610 . S
N490 C491 1.351 . S
C491 C485 1.428 . S
C491 N490 1.351 . S
C491 C492 1.434 . S
C492 C483 1.429 . S
C492 N489 1.350 . S
C492 C491 1.434 . S
C493 C494 1.369 . S
C493 C495 1.419 1_565 S
C493 H497 0.930 . S
C494 C493 1.369 . S
C494 C503 1.429 . S
C495 C493 1.419 1_545 S
C495 C496 1.363 . S
C495 H498 0.929 . S
C496 C495 1.363 . S
C496 C502 1.428 . S
H497 C493 0.930 . S
H498 C495 0.929 . S
S499 N500 1.613 . S
S499 N501 1.610 1_565 S
N500 S499 1.613 . S
N500 C503 1.350 . S
N501 S499 1.610 1_545 S
N501 C502 1.351 . S
C502 C496 1.428 . S
C502 N501 1.351 . S
C502 C503 1.434 1_545 S
C503 C494 1.429 . S
C503 N500 1.350 . S
C503 C502 1.434 1_565 S
C504 C505 1.369 . S
C504 C506 1.419 . S
C504 H508 0.930 . S
C505 C504 1.369 . S
C505 C514 1.429 . S
C506 C504 1.419 . S
C506 C507 1.363 . S
C506 H509 0.929 . S
C507 C506 1.363 . S
C507 C513 1.428 . S
H508 C504 0.930 . S
H509 C506 0.929 . S
S510 N511 1.613 . S
S510 N512 1.610 . S
N511 S510 1.613 . S
N511 C514 1.350 . S
N512 S510 1.610 . S
N512 C513 1.351 . S
C513 C507 1.428 . S
C513 N512 1.351 . S
C513 C514 1.434 . S
C514 C505 1.429 . S
C514 N511 1.350 . S
C514 C513 1.434 . S
C515 C516 1.369 . S
C515 C517 1.419 . S
C515 H519 0.930 . S
C516 C515 1.369 . S
C516 C525 1.429 . S
C517 C515 1.419 . S
C517 C518 1.363 . S
C517 H520 0.929 . S
C518 C517 1.363 . S
C518 C524 1.428 . S
H519 C515 0.930 . S
H520 C517 0.929 . S
S521 N522 1.613 . S
S521 N523 1.610 . S
N522 S521 1.613 . S
N522 C525 1.350 . S
N523 S521 1.610 . S
N523 C524 1.351 . S
C524 C518 1.428 . S
C524 N523 1.351 . S
C524 C525 1.434 . S
C525 C516 1.429 . S
C525 N522 1.350 . S
C525 C524 1.434 . S
C526 C527 1.369 . S
C526 C528 1.419 . S
C526 H530 0.930 . S
C527 C526 1.369 . S
C527 C536 1.429 1_556 S
C528 C526 1.419 . S
C528 C529 1.363 1_556 S
C528 H531 0.929 . S
C529 C528 1.363 1_554 S
C529 C535 1.428 . S
H530 C526 0.930 . S
H531 C528 0.929 . S
S532 N533 1.613 . S
S532 N534 1.610 . S
N533 S532 1.613 . S
N533 C536 1.350 . S
N534 S532 1.610 . S
N534 C535 1.351 . S
C535 C529 1.428 . S
C535 N534 1.351 . S
C535 C536 1.434 . S
C536 C527 1.429 1_554 S
C536 N533 1.350 . S
C536 C535 1.434 . S
C537 C538 1.369 . S
C537 C539 1.419 . S
C537 H541 0.930 . S
C538 C537 1.369 . S
C538 C547 1.429 . S
C539 C537 1.419 . S
C539 C540 1.363 . S
C539 H542 0.929 . S
C540 C539 1.363 . S
C540 C546 1.428 . S
H541 C537 0.930 . S
H542 C539 0.929 . S
S543 N544 1.613 . S
S543 N545 1.610 . S
N544 S543 1.613 . S
N544 C547 1.350 . S
N545 S543 1.610 . S
N545 C546 1.351 . S
C546 C540 1.428 . S
C546 N545 1.351 . S
C546 C547 1.434 . S
C547 C538 1.429 . S
C547 N544 1.350 . S
C547 C546 1.434 . S
C548 C549 1.369 . S
C548 C550 1.419 . S
C548 H552 0.930 . S
C549 C548 1.369 . S
C549 C558 1.429 . S
C550 C548 1.419 . S
C550 C551 1.363 . S
C550 H553 0.929 . S
C551 C550 1.363 . S
C551 C557 1.428 . S
H552 C548 0.930 . S
H553 C550 0.929 . S
S554 N555 1.613 . S
S554 N556 1.610 . S
N555 S554 1.613 . S
N555 C558 1.350 . S
N556 S554 1.610 . S
N556 C557 1.351 . S
C557 C551 1.428 . S
C557 N556 1.351 . S
C557 C558 1.434 . S
C558 C549 1.429 . S
C558 N555 1.350 . S
C558 C557 1.434 . S
C559 C560 1.369 . S
C559 C561 1.419 . S
C559 H563 0.930 . S
C560 C559 1.369 . S
C560 C569 1.429 . S
C561 C559 1.419 . S
C561 C562 1.363 . S
C561 H564 0.929 . S
C562 C561 1.363 . S
C562 C568 1.428 . S
H563 C559 0.930 . S
H564 C561 0.929 . S
S565 N566 1.613 . S
S565 N567 1.610 . S
N566 S565 1.613 . S
N566 C569 1.350 . S
N567 S565 1.610 . S
N567 C568 1.351 . S
C568 C562 1.428 . S
C568 N567 1.351 . S
C568 C569 1.434 . S
C569 C560 1.429 . S
C569 N566 1.350 . S
C569 C568 1.434 . S
C570 C571 1.369 . S
C570 C572 1.419 . S
C570 H574 0.930 . S
C571 C570 1.369 . S
C571 C580 1.429 1_554 S
C572 C570 1.419 . S
C572 C573 1.363 1_554 S
C572 H575 0.929 . S
C573 C572 1.363 1_556 S
C573 C579 1.428 . S
H574 C570 0.930 . S
H575 C572 0.929 . S
S576 N577 1.613 . S
S576 N578 1.610 . S
N577 S576 1.613 . S
N577 C580 1.350 . S
N578 S576 1.610 . S
N578 C579 1.351 . S
C579 C573 1.428 . S
C579 N578 1.351 . S
C579 C580 1.434 . S
C580 C571 1.429 1_556 S
C580 N577 1.350 . S
C580 C579 1.434 . S
C581 C582 1.369 . S
C581 C583 1.419 . S
C581 H585 0.930 . S
C582 C581 1.369 . S
C582 C591 1.429 . S
C583 C581 1.419 . S
C583 C584 1.363 . S
C583 H586 0.929 . S
C584 C583 1.363 . S
C584 C590 1.428 . S
H585 C581 0.930 . S
H586 C583 0.929 . S
S587 N588 1.613 . S
S587 N589 1.610 . S
N588 S587 1.613 . S
N588 C591 1.350 . S
N589 S587 1.610 . S
N589 C590 1.351 . S
C590 C584 1.428 . S
C590 N589 1.351 . S
C590 C591 1.434 . S
C591 C582 1.429 . S
C591 N588 1.350 . S
C591 C590 1.434 . S
C592 C593 1.369 . S
C592 C594 1.419 . S
C592 H596 0.930 . S
C593 C592 1.369 . S
C593 C602 1.429 . S
C594 C592 1.419 . S
C594 C595 1.363 . S
C594 H597 0.929 . S
C595 C594 1.363 . S
C595 C601 1.428 . S
H596 C592 0.930 . S
H597 C594 0.929 . S
S598 N599 1.613 . S
S598 N600 1.610 . S
N599 S598 1.613 . S
N599 C602 1.350 . S
N600 S598 1.610 . S
N600 C601 1.351 . S
C601 C595 1.428 . S
C601 N600 1.351 . S
C601 C602 1.434 . S
C602 C593 1.429 . S
C602 N599 1.350 . S
C602 C601 1.434 . S
C603 C604 1.369 1_654 S
C603 C605 1.419 . S
C603 H607 0.930 . S
C604 C603 1.369 1_456 S
C604 C613 1.429 1_556 S
C605 C603 1.419 . S
C605 C606 1.363 . S
C605 H608 0.929 . S
C606 C605 1.363 . S
C606 C612 1.428 1_655 S
H607 C603 0.930 . S
H608 C605 0.929 . S
S609 N610 1.613 . S
S609 N611 1.610 . S
N610 S609 1.613 . S
N610 C613 1.350 . S
N611 S609 1.610 . S
N611 C612 1.351 . S
C612 C606 1.428 1_455 S
C612 N611 1.351 . S
C612 C613 1.434 . S
C613 C604 1.429 1_554 S
C613 N610 1.350 . S
C613 C612 1.434 . S
C614 C615 1.369 . S
C614 C616 1.419 . S
C614 H618 0.930 . S
C615 C614 1.369 . S
C615 C624 1.429 . S
C616 C614 1.419 . S
C616 C617 1.363 . S
C616 H619 0.929 . S
C617 C616 1.363 . S
C617 C623 1.428 . S
H618 C614 0.930 . S
H619 C616 0.929 . S
S620 N621 1.613 . S
S620 N622 1.610 . S
N621 S620 1.613 . S
N621 C624 1.350 . S
N622 S620 1.610 . S
N622 C623 1.351 . S
C623 C617 1.428 . S
C623 N622 1.351 . S
C623 C624 1.434 . S
C624 C615 1.429 . S
C624 N621 1.350 . S
C624 C623 1.434 . S
C625 C626 1.369 . S
C625 C627 1.419 . S
C625 H629 0.930 . S
C626 C625 1.369 . S
C626 C635 1.429 . S
C627 C625 1.419 . S
C627 C628 1.363 . S
C627 H630 0.929 . S
C628 C627 1.363 . S
C628 C634 1.428 . S
H629 C625 0.930 . S
H630 C627 0.929 . S
S631 N632 1.613 . S
S631 N633 1.610 . S
N632 S631 1.613 . S
N632 C635 1.350 . S
N633 S631 1.610 . S
N633 C634 1.351 . S
C634 C628 1.428 . S
C634 N633 1.351 . S
C634 C635 1.434 . S
C635 C626 1.429 . S
C635 N632 1.350 . S
C635 C634 1.434 . S
C636 C637 1.369 . S
C636 C638 1.419 . S
C636 H640 0.930 . S
C637 C636 1.369 . S
C637 C646 1.429 . S
C638 C636 1.419 . S
C638 C639 1.363 . S
C638 H641 0.929 . S
C639 C638 1.363 . S
C639 C645 1.428 . S
H640 C636 0.930 . S
H641 C638 0.929 . S
S642 N643 1.613 . S
S642 N644 1.610 . S
N643 S642 1.613 . S
N643 C646 1.350 . S
N644 S642 1.610 . S
N644 C645 1.351 . S
C645 C639 1.428 . S
C645 N644 1.351 . S
C645 C646 1.434 . S
C646 C637 1.429 . S
C646 N643 1.350 . S
C646 C645 1.434 . S
C647 C648 1.369 1_556 S
C647 C649 1.419 . S
C647 H651 0.930 . S
C648 C647 1.369 1_554 S
C648 C657 1.429 1_554 S
C649 C647 1.419 . S
C649 C650 1.363 . S
C649 H652 0.929 . S
C650 C649 1.363 . S
C650 C656 1.428 . S
H651 C647 0.930 . S
H652 C649 0.929 . S
S653 N654 1.613 1_556 S
S653 N655 1.610 . S
N654 S653 1.613 1_554 S
N654 C657 1.350 1_554 S
N655 S653 1.610 . S
N655 C656 1.351 . S
C656 C650 1.428 . S
C656 N655 1.351 . S
C656 C657 1.434 . S
C657 C648 1.429 1_556 S
C657 N654 1.350 1_556 S
C657 C656 1.434 . S
C658 C659 1.369 . S
C658 C660 1.419 . S
C658 H662 0.930 . S
C659 C658 1.369 . S
C659 C668 1.429 . S
C660 C658 1.419 . S
C660 C661 1.363 . S
C660 H663 0.929 . S
C661 C660 1.363 . S
C661 C667 1.428 . S
H662 C658 0.930 . S
H663 C660 0.929 . S
S664 N665 1.613 . S
S664 N666 1.610 . S
N665 S664 1.613 . S
N665 C668 1.350 . S
N666 S664 1.610 . S
N666 C667 1.351 . S
C667 C661 1.428 . S
C667 N666 1.351 . S
C667 C668 1.434 . S
C668 C659 1.429 . S
C668 N665 1.350 . S
C668 C667 1.434 . S
C669 C670 1.369 . S
C669 C671 1.419 . S
C669 H673 0.930 . S
C670 C669 1.369 . S
C670 C679 1.429 1_455 S
C671 C669 1.419 . S
C671 C672 1.363 1_455 S
C671 H674 0.929 . S
C672 C671 1.363 1_655 S
C672 C678 1.428 . S
H673 C669 0.930 . S
H674 C671 0.929 . S
S675 N676 1.613 . S
S675 N677 1.610 . S
N676 S675 1.613 . S
N676 C679 1.350 . S
N677 S675 1.610 . S
N677 C678 1.351 . S
C678 C672 1.428 . S
C678 N677 1.351 . S
C678 C679 1.434 . S
C679 C670 1.429 1_655 S
C679 N676 1.350 . S
C679 C678 1.434 . S
C680 C681 1.369 . S
C680 C682 1.419 . S
C680 H684 0.930 . S
C681 C680 1.369 . S
C681 C690 1.429 . S
C682 C680 1.419 . S
C682 C683 1.363 . S
C682 H685 0.929 . S
C683 C682 1.363 . S
C683 C689 1.428 . S
H684 C680 0.930 . S
H685 C682 0.929 . S
S686 N687 1.613 . S
S686 N688 1.610 . S
N687 S686 1.613 . S
N687 C690 1.350 . S
N688 S686 1.610 . S
N688 C689 1.351 . S
C689 C683 1.428 . S
C689 N688 1.351 . S
C689 C690 1.434 . S
C690 C681 1.429 . S
C690 N687 1.350 . S
C690 C689 1.434 . S
C691 C692 1.369 1_556 S
C691 C693 1.419 . S
C691 H695 0.930 . S
C692 C691 1.369 1_554 S
C692 C701 1.429 1_654 S
C693 C691 1.419 . S
C693 C694 1.363 1_655 S
C693 H696 0.929 . S
C694 C693 1.363 1_455 S
C694 C700 1.428 . S
H695 C691 0.930 . S
H696 C693 0.929 . S
S697 N698 1.613 1_556 S
S697 N699 1.610 . S
N698 S697 1.613 1_554 S
N698 C701 1.350 1_554 S
N699 S697 1.610 . S
N699 C700 1.351 . S
C700 C694 1.428 . S
C700 N699 1.351 . S
C700 C701 1.434 . S
C701 C692 1.429 1_456 S
C701 N698 1.350 1_556 S
C701 C700 1.434 . S
C702 C703 1.369 . S
C702 C704 1.419 . S
C702 H706 0.930 . S
C703 C702 1.369 . S
C703 C712 1.429 . S
C704 C702 1.419 . S
C704 C705 1.363 . S
C704 H707 0.929 . S
C705 C704 1.363 . S
C705 C711 1.428 . S
H706 C702 0.930 . S
H707 C704 0.929 . S
S708 N709 1.613 . S
S708 N710 1.610 . S
N709 S708 1.613 . S
N709 C712 1.350 . S
N710 S708 1.610 . S
N710 C711 1.351 . S
C711 C705 1.428 . S
C711 N710 1.351 . S
C711 C712 1.434 . S
C712 C703 1.429 . S
C712 N709 1.350 . S
C712 C711 1.434 . S
C713 C714 1.369 . S
C713 C715 1.419 . S
C713 H717 0.930 . S
C714 C713 1.369 . S
C714 C723 1.429 . S
C715 C713 1.419 . S
C715 C716 1.363 . S
C715 H718 0.929 . S
C716 C715 1.363 . S
C716 C722 1.428 . S
H717 C713 0.930 . S
H718 C715 0.929 . S
S719 N720 1.613 . S
S719 N721 1.610 . S
N720 S719 1.613 . S
N720 C723 1.350 . S
N721 S719 1.610 . S
N721 C722 1.351 . S
C722 C716 1.428 . S
C722 N721 1.351 . S
C722 C723 1.434 . S
C723 C714 1.429 . S
C723 N720 1.350 . S
C723 C722 1.434 . S
C724 C725 1.369 . S
C724 C726 1.419 . S
C724 H728 0.930 . S
C725 C724 1.369 . S
C725 C734 1.429 . S
C726 C724 1.419 . S
C726 C727 1.363 . S
C726 H729 0.929 . S
C727 C726 1.363 . S
C727 C733 1.428 . S
H728 C724 0.930 . S
H729 C726 0.929 . S
S730 N731 1.613 . S
S730 N732 1.610 . S
N731 S730 1.613 . S
N731 C734 1.350 . S
N732 S730 1.610 . S
N732 C733 1.351 . S
C733 C727 1.428 . S
C733 N732 1.351 . S
C733 C734 1.434 . S
C734 C725 1.429 . S
C734 N731 1.350 . S
C734 C733 1.434 . S
C735 C736 1.369 . S
C735 C737 1.419 . S
C735 H739 0.930 . S
C736 C735 1.369 . S
C736 C745 1.429 . S
C737 C735 1.419 . S
C737 C738 1.363 1_554 S
C737 H740 0.929 1_554 S
C738 C737 1.363 1_556 S
C738 C744 1.428 1_556 S
H739 C735 0.930 . S
H740 C737 0.929 1_556 S
S741 N742 1.613 . S
S741 N743 1.610 . S
N742 S741 1.613 . S
N742 C745 1.350 . S
N743 S741 1.610 . S
N743 C744 1.351 . S
C744 C738 1.428 1_554 S
C744 N743 1.351 . S
C744 C745 1.434 . S
C745 C736 1.429 . S
C745 N742 1.350 . S
C745 C744 1.434 . S
C746 C747 1.369 . S
C746 C748 1.419 . S
C746 H750 0.930 . S
C747 C746 1.369 . S
C747 C756 1.429 . S
C748 C746 1.419 . S
C748 C749 1.363 . S
C748 H751 0.929 . S
C749 C748 1.363 . S
C749 C755 1.428 . S
H750 C746 0.930 . S
H751 C748 0.929 . S
S752 N753 1.613 . S
S752 N754 1.610 . S
N753 S752 1.613 . S
N753 C756 1.350 . S
N754 S752 1.610 . S
N754 C755 1.351 . S
C755 C749 1.428 . S
C755 N754 1.351 . S
C755 C756 1.434 . S
C756 C747 1.429 . S
C756 N753 1.350 . S
C756 C755 1.434 . S
C757 C758 1.369 1_455 S
C757 C759 1.419 . S
C757 H761 0.930 . S
C758 C757 1.369 1_655 S
C758 C767 1.429 . S
C759 C757 1.419 . S
C759 C760 1.363 . S
C759 H762 0.929 . S
C760 C759 1.363 . S
C760 C766 1.428 1_455 S
H761 C757 0.930 . S
H762 C759 0.929 . S
S763 N764 1.613 . S
S763 N765 1.610 . S
N764 S763 1.613 . S
N764 C767 1.350 . S
N765 S763 1.610 . S
N765 C766 1.351 . S
C766 C760 1.428 1_655 S
C766 N765 1.351 . S
C766 C767 1.434 . S
C767 C758 1.429 . S
C767 N764 1.350 . S
C767 C766 1.434 . S
C768 C769 1.369 . S
C768 C770 1.419 . S
C768 H772 0.930 . S
C769 C768 1.369 . S
C769 C778 1.429 . S
C770 C768 1.419 . S
C770 C771 1.363 . S
C770 H773 0.929 . S
C771 C770 1.363 . S
C771 C777 1.428 . S
H772 C768 0.930 . S
H773 C770 0.929 . S
S774 N775 1.613 . S
S774 N776 1.610 . S
N775 S774 1.613 . S
N775 C778 1.350 . S
N776 S774 1.610 . S
N776 C777 1.351 . S
C777 C771 1.428 . S
C777 N776 1.351 . S
C777 C778 1.434 . S
C778 C769 1.429 . S
C778 N775 1.350 . S
C778 C777 1.434 . S
C779 C780 1.369 . S
C779 C781 1.419 . S
C779 H783 0.930 . S
C780 C779 1.369 . S
C780 C789 1.429 . S
C781 C779 1.419 . S
C781 C782 1.363 . S
C781 H784 0.929 . S
C782 C781 1.363 . S
C782 C788 1.428 . S
H783 C779 0.930 . S
H784 C781 0.929 . S
S785 N786 1.613 . S
S785 N787 1.610 . S
N786 S785 1.613 . S
N786 C789 1.350 . S
N787 S785 1.610 . S
N787 C788 1.351 . S
C788 C782 1.428 . S
C788 N787 1.351 . S
C788 C789 1.434 . S
C789 C780 1.429 . S
C789 N786 1.350 . S
C789 C788 1.434 . S
C790 C791 1.369 . S
C790 C792 1.419 . S
C790 H794 0.930 . S
C791 C790 1.369 . S
C791 C800 1.429 . S
C792 C790 1.419 . S
C792 C793 1.363 . S
C792 H795 0.929 . S
C793 C792 1.363 . S
C793 C799 1.428 . S
H794 C790 0.930 . S
H795 C792 0.929 . S
S796 N797 1.613 . S
S796 N798 1.610 . S
N797 S796 1.613 . S
N797 C800 1.350 . S
N798 S796 1.610 . S
N798 C799 1.351 . S
C799 C793 1.428 . S
C799 N798 1.351 . S
C799 C800 1.434 . S
C800 C791 1.429 . S
C800 N797 1.350 . S
C800 C799 1.434 . S
C801 C802 1.369 1_655 S
C801 C803 1.419 . S
C801 H805 0.930 . S
C802 C801 1.369 1_455 S
C802 C811 1.429 . S
C803 C801 1.419 . S
C803 C804 1.363 1_554 S
C803 H806 0.929 . S
C804 C803 1.363 1_556 S
C804 C810 1.428 1_656 S
H805 C801 0.930 . S
H806 C803 0.929 . S
S807 N808 1.613 . S
S807 N809 1.610 1_554 S
N808 S807 1.613 . S
N808 C811 1.350 . S
N809 S807 1.610 1_556 S
N809 C810 1.351 1_556 S
C810 C804 1.428 1_454 S
C810 N809 1.351 1_554 S
C810 C811 1.434 . S
C811 C802 1.429 . S
C811 N808 1.350 . S
C811 C810 1.434 . S
C812 C813 1.369 . S
C812 C814 1.419 . S
C812 H816 0.930 . S
C813 C812 1.369 . S
C813 C822 1.429 . S
C814 C812 1.419 . S
C814 C815 1.363 . S
C814 H817 0.929 . S
C815 C814 1.363 . S
C815 C821 1.428 . S
H816 C812 0.930 . S
H817 C814 0.929 . S
S818 N819 1.613 . S
S818 N820 1.610 . S
N819 S818 1.613 . S
N819 C822 1.350 . S
N820 S818 1.610 . S
N820 C821 1.351 . S
C821 C815 1.428 . S
C821 N820 1.351 . S
C821 C822 1.434 . S
C822 C813 1.429 . S
C822 N819 1.350 . S
C822 C821 1.434 . S
C823 C824 1.369 1_455 S
C823 C825 1.419 . S
C823 H827 0.930 . S
C824 C823 1.369 1_655 S
C824 C833 1.429 . S
C825 C823 1.419 . S
C825 C826 1.363 . S
C825 H828 0.929 . S
C826 C825 1.363 . S
C826 C832 1.428 1_455 S
H827 C823 0.930 . S
H828 C825 0.929 . S
S829 N830 1.613 . S
S829 N831 1.610 . S
N830 S829 1.613 . S
N830 C833 1.350 . S
N831 S829 1.610 . S
N831 C832 1.351 . S
C832 C826 1.428 1_655 S
C832 N831 1.351 . S
C832 C833 1.434 . S
C833 C824 1.429 . S
C833 N830 1.350 . S
C833 C832 1.434 . S
C834 C835 1.369 . S
C834 C836 1.419 . S
C834 H838 0.930 . S
C835 C834 1.369 . S
C835 C844 1.429 . S
C836 C834 1.419 . S
C836 C837 1.363 . S
C836 H839 0.929 . S
C837 C836 1.363 . S
C837 C843 1.428 . S
H838 C834 0.930 . S
H839 C836 0.929 . S
S840 N841 1.613 . S
S840 N842 1.610 . S
N841 S840 1.613 . S
N841 C844 1.350 . S
N842 S840 1.610 . S
N842 C843 1.351 . S
C843 C837 1.428 . S
C843 N842 1.351 . S
C843 C844 1.434 . S
C844 C835 1.429 . S
C844 N841 1.350 . S
C844 C843 1.434 . S
C845 C846 1.369 1_556 S
C845 C847 1.419 . S
C845 H849 0.930 1_556 S
C846 C845 1.369 1_554 S
C846 C855 1.429 1_554 S
C847 C845 1.419 . S
C847 C848 1.363 . S
C847 H850 0.929 . S
C848 C847 1.363 . S
C848 C854 1.428 . S
H849 C845 0.930 1_554 S
H850 C847 0.929 . S
S851 N852 1.613 . S
S851 N853 1.610 . S
N852 S851 1.613 . S
N852 C855 1.350 . S
N853 S851 1.610 . S
N853 C854 1.351 . S
C854 C848 1.428 . S
C854 N853 1.351 . S
C854 C855 1.434 . S
C855 C846 1.429 1_556 S
C855 N852 1.350 . S
C855 C854 1.434 . S
C856 C857 1.369 . S
C856 C858 1.419 . S
C856 H860 0.930 . S
C857 C856 1.369 . S
C857 C866 1.429 . S
C858 C856 1.419 . S
C858 C859 1.363 . S
C858 H861 0.929 . S
C859 C858 1.363 . S
C859 C865 1.428 . S
H860 C856 0.930 . S
H861 C858 0.929 . S
S862 N863 1.613 . S
S862 N864 1.610 . S
N863 S862 1.613 . S
N863 C866 1.350 . S
N864 S862 1.610 . S
N864 C865 1.351 . S
C865 C859 1.428 . S
C865 N864 1.351 . S
C865 C866 1.434 . S
C866 C857 1.429 . S
C866 N863 1.350 . S
C866 C865 1.434 . S
C867 C868 1.369 . S
C867 C869 1.419 . S
C867 H871 0.930 . S
C868 C867 1.369 . S
C868 C877 1.429 . S
C869 C867 1.419 . S
C869 C870 1.363 . S
C869 H872 0.929 . S
C870 C869 1.363 . S
C870 C876 1.428 . S
H871 C867 0.930 . S
H872 C869 0.929 . S
S873 N874 1.613 . S
S873 N875 1.610 . S
N874 S873 1.613 . S
N874 C877 1.350 . S
N875 S873 1.610 . S
N875 C876 1.351 . S
C876 C870 1.428 . S
C876 N875 1.351 . S
C876 C877 1.434 . S
C877 C868 1.429 . S
C877 N874 1.350 . S
C877 C876 1.434 . S
C878 C879 1.369 . S
C878 C880 1.419 . S
C878 H882 0.930 . S
C879 C878 1.369 . S
C879 C888 1.429 . S
C880 C878 1.419 . S
C880 C881 1.363 . S
C880 H883 0.929 . S
C881 C880 1.363 . S
C881 C887 1.428 . S
H882 C878 0.930 . S
H883 C880 0.929 . S
S884 N885 1.613 . S
S884 N886 1.610 . S
N885 S884 1.613 . S
N885 C888 1.350 . S
N886 S884 1.610 . S
N886 C887 1.351 . S
C887 C881 1.428 . S
C887 N886 1.351 . S
C887 C888 1.434 . S
C888 C879 1.429 . S
C888 N885 1.350 . S
C888 C887 1.434 . S
C889 C890 1.369 1_455 S
C889 C891 1.419 . S
C889 H893 0.930 . S
C890 C889 1.369 1_655 S
C890 C899 1.429 . S
C891 C889 1.419 . S
C891 C892 1.363 1_556 S
C891 H894 0.929 . S
C892 C891 1.363 1_554 S
C892 C898 1.428 1_454 S
H893 C889 0.930 . S
H894 C891 0.929 . S
S895 N896 1.613 . S
S895 N897 1.610 . S
N896 S895 1.613 . S
N896 C899 1.350 . S
N897 S895 1.610 . S
N897 C898 1.351 . S
C898 C892 1.428 1_656 S
C898 N897 1.351 . S
C898 C899 1.434 . S
C899 C890 1.429 . S
C899 N896 1.350 . S
C899 C898 1.434 . S
C900 C901 1.369 . S
C900 C902 1.419 . S
C900 H904 0.930 . S
C901 C900 1.369 . S
C901 C910 1.429 . S
C902 C900 1.419 . S
C902 C903 1.363 . S
C902 H905 0.929 . S
C903 C902 1.363 . S
C903 C909 1.428 . S
H904 C900 0.930 . S
H905 C902 0.929 . S
S906 N907 1.613 . S
S906 N908 1.610 . S
N907 S906 1.613 . S
N907 C910 1.350 . S
N908 S906 1.610 . S
N908 C909 1.351 . S
C909 C903 1.428 . S
C909 N908 1.351 . S
C909 C910 1.434 . S
C910 C901 1.429 . S
C910 N907 1.350 . S
C910 C909 1.434 . S
C911 C912 1.369 . S
C911 C913 1.419 . S
C911 H915 0.930 . S
C912 C911 1.369 . S
C912 C921 1.429 1_655 S
C913 C911 1.419 . S
C913 C914 1.363 1_655 S
C913 H916 0.929 . S
C914 C913 1.363 1_455 S
C914 C920 1.428 . S
H915 C911 0.930 . S
H916 C913 0.929 . S
S917 N918 1.613 . S
S917 N919 1.610 . S
N918 S917 1.613 . S
N918 C921 1.350 . S
N919 S917 1.610 . S
N919 C920 1.351 . S
C920 C914 1.428 . S
C920 N919 1.351 . S
C920 C921 1.434 . S
C921 C912 1.429 1_455 S
C921 N918 1.350 . S
C921 C920 1.434 . S
C922 C923 1.369 . S
C922 C924 1.419 . S
C922 H926 0.930 . S
C923 C922 1.369 . S
C923 C932 1.429 . S
C924 C922 1.419 . S
C924 C925 1.363 . S
C924 H927 0.929 . S
C925 C924 1.363 . S
C925 C931 1.428 . S
H926 C922 0.930 . S
H927 C924 0.929 . S
S928 N929 1.613 . S
S928 N930 1.610 . S
N929 S928 1.613 . S
N929 C932 1.350 . S
N930 S928 1.610 . S
N930 C931 1.351 . S
C931 C925 1.428 . S
C931 N930 1.351 . S
C931 C932 1.434 . S
C932 C923 1.429 . S
C932 N929 1.350 . S
C932 C931 1.434 . S
C933 C934 1.369 . S
C933 C935 1.419 . S
C933 H937 0.930 . S
C934 C933 1.369 . S
C934 C943 1.429 . S
C935 C933 1.419 . S
C935 C936 1.363 1_554 S
C935 H938 0.929 . S
C936 C935 1.363 1_556 S
C936 C942 1.428 1_556 S
H937 C933 0.930 . S
H938 C935 0.929 . S
S939 N940 1.613 . S
S939 N941 1.610 1_554 S
N940 S939 1.613 . S
N940 C943 1.350 . S
N941 S939 1.610 1_556 S
N941 C942 1.351 1_556 S
C942 C936 1.428 1_554 S
C942 N941 1.351 1_554 S
C942 C943 1.434 . S
C943 C934 1.429 . S
C943 N940 1.350 . S
C943 C942 1.434 . S
C944 C945 1.369 . S
C944 C946 1.419 . S
C944 H948 0.930 . S
C945 C944 1.369 . S
C945 C954 1.429 . S
C946 C944 1.419 . S
C946 C947 1.363 . S
C946 H949 0.929 . S
C947 C946 1.363 . S
C947 C953 1.428 . S
H948 C944 0.930 . S
H949 C946 0.929 . S
S950 N951 1.613 . S
S950 N952 1.610 . S
N951 S950 1.613 . S
N951 C954 1.350 . S
N952 S950 1.610 . S
N952 C953 1.351 . S
C953 C947 1.428 . S
C953 N952 1.351 . S
C953 C954 1.434 . S
C954 C945 1.429 . S
C954 N951 1.350 . S
C954 C953 1.434 . S
C955 C956 1.369 . S
C955 C957 1.419 . S
C955 H959 0.930 . S
C956 C955 1.369 . S
C956 C965 1.429 . S
C957 C955 1.419 . S
C957 C958 1.363 . S
C957 H960 0.929 . S
C958 C957 1.363 . S
C958 C964 1.428 . S
H959 C955 0.930 . S
H960 C957 0.929 . S
S961 N962 1.613 . S
S961 N963 1.610 . S
N962 S961 1.613 . S
N962 C965 1.350 . S
N963 S961 1.610 . S
N963 C964 1.351 . S
C964 C958 1.428 . S
C964 N963 1.351 . S
C964 C965 1.434 . S
C965 C956 1.429 . S
C965 N962 1.350 . S
C965 C964 1.434 . S
C966 C967 1.369 . S
C966 C968 1.419 . S
C966 H970 0.930 . S
C967 C966 1.369 . S
C967 C976 1.429 . S
C968 C966 1.419 . S
C968 C969 1.363 . S
C968 H971 0.929 . S
C969 C968 1.363 . S
C969 C975 1.428 . S
H970 C966 0.930 . S
H971 C968 0.929 . S
S972 N973 1.613 . S
S972 N974 1.610 . S
N973 S972 1.613 . S
N973 C976 1.350 . S
N974 S972 1.610 . S
N974 C975 1.351 . S
C975 C969 1.428 . S
C975 N974 1.351 . S
C975 C976 1.434 . S
C976 C967 1.429 . S
C976 N973 1.350 . S
C976 C975 1.434 . S
C977 C978 1.369 . S
C977 C979 1.419 . S
C977 H981 0.930 . S
C978 C977 1.369 . S
C978 C987 1.429 . S
C979 C977 1.419 . S
C979 C980 1.363 . S
C979 H982 0.929 . S
C980 C979 1.363 . S
C980 C986 1.428 . S
H981 C977 0.930 . S
H982 C979 0.929 . S
S983 N984 1.613 . S
S983 N985 1.610 . S
N984 S983 1.613 . S
N984 C987 1.350 . S
N985 S983 1.610 . S
N985 C986 1.351 . S
C986 C980 1.428 . S
C986 N985 1.351 . S
C986 C987 1.434 . S
C987 C978 1.429 . S
C987 N984 1.350 . S
C987 C986 1.434 . S
C988 C989 1.369 . S
C988 C990 1.419 . S
C988 H992 0.930 . S
C989 C988 1.369 . S
C989 C998 1.429 . S
C990 C988 1.419 . S
C990 C991 1.363 . S
C990 H993 0.929 . S
C991 C990 1.363 . S
C991 C997 1.428 . S
H992 C988 0.930 . S
H993 C990 0.929 . S
S994 N995 1.613 . S
S994 N996 1.610 . S
N995 S994 1.613 . S
N995 C998 1.350 . S
N996 S994 1.610 . S
N996 C997 1.351 . S
C997 C991 1.428 . S
C997 N996 1.351 . S
C997 C998 1.434 . S
C998 C989 1.429 . S
C998 N995 1.350 . S
C998 C997 1.434 . S
C999 C1000 1.369 . S
C999 C1001 1.419 . S
C999 H1003 0.930 . S
C1000 C999 1.369 . S
C1000 C1009 1.429 . S
C1001 C999 1.419 . S
C1001 C1002 1.363 . S
C1001 H1004 0.929 . S
C1002 C1001 1.363 . S
C1002 C1008 1.428 . S
H1003 C999 0.930 . S
H1004 C1001 0.929 . S
S1005 N1006 1.613 . S
S1005 N1007 1.610 . S
N1006 S1005 1.613 . S
N1006 C1009 1.350 . S
N1007 S1005 1.610 . S
N1007 C1008 1.351 . S
C1008 C1002 1.428 . S
C1008 N1007 1.351 . S
C1008 C1009 1.434 . S
C1009 C1000 1.429 . S
C1009 N1006 1.350 . S
C1009 C1008 1.434 . S
C1010 C1011 1.369 . S
C1010 C1012 1.419 . S
C1010 H1014 0.930 . S
C1011 C1010 1.369 . S
C1011 C1020 1.429 . S
C1012 C1010 1.419 . S
C1012 C1013 1.363 . S
C1012 H1015 0.929 . S
C1013 C1012 1.363 . S
C1013 C1019 1.428 . S
H1014 C1010 0.930 . S
H1015 C1012 0.929 . S
S1016 N1017 1.613 . S
S1016 N1018 1.610 . S
N1017 S1016 1.613 . S
N1017 C1020 1.350 . S
N1018 S1016 1.610 . S
N1018 C1019 1.351 . S
C1019 C1013 1.428 . S
C1019 N1018 1.351 . S
C1019 C1020 1.434 . S
C1020 C1011 1.429 . S
C1020 N1017 1.350 . S
C1020 C1019 1.434 . S
C1021 C1022 1.369 . S
C1021 C1023 1.419 . S
C1021 H1025 0.930 . S
C1022 C1021 1.369 . S
C1022 C1031 1.429 . S
C1023 C1021 1.419 . S
C1023 C1024 1.363 . S
C1023 H1026 0.929 . S
C1024 C1023 1.363 . S
C1024 C1030 1.428 . S
H1025 C1021 0.930 . S
H1026 C1023 0.929 . S
S1027 N1028 1.613 . S
S1027 N1029 1.610 . S
N1028 S1027 1.613 . S
N1028 C1031 1.350 . S
N1029 S1027 1.610 . S
N1029 C1030 1.351 . S
C1030 C1024 1.428 . S
C1030 N1029 1.351 . S
C1030 C1031 1.434 . S
C1031 C1022 1.429 . S
C1031 N1028 1.350 . S
C1031 C1030 1.434 . S
C1032 C1033 1.369 . S
C1032 C1034 1.419 . S
C1032 H1036 0.930 . S
C1033 C1032 1.369 . S
C1033 C1042 1.429 . S
C1034 C1032 1.419 . S
C1034 C1035 1.363 . S
C1034 H1037 0.929 . S
C1035 C1034 1.363 . S
C1035 C1041 1.428 . S
H1036 C1032 0.930 . S
H1037 C1034 0.929 . S
S1038 N1039 1.613 . S
S1038 N1040 1.610 . S
N1039 S1038 1.613 . S
N1039 C1042 1.350 . S
N1040 S1038 1.610 . S
N1040 C1041 1.351 . S
C1041 C1035 1.428 . S
C1041 N1040 1.351 . S
C1041 C1042 1.434 . S
C1042 C1033 1.429 . S
C1042 N1039 1.350 . S
C1042 C1041 1.434 . S
C1043 C1044 1.369 . S
C1043 C1045 1.419 . S
C1043 H1047 0.930 . S
C1044 C1043 1.369 . S
C1044 C1053 1.429 . S
C1045 C1043 1.419 . S
C1045 C1046 1.363 . S
C1045 H1048 0.929 . S
C1046 C1045 1.363 . S
C1046 C1052 1.428 . S
H1047 C1043 0.930 . S
H1048 C1045 0.929 . S
S1049 N1050 1.613 . S
S1049 N1051 1.610 . S
N1050 S1049 1.613 . S
N1050 C1053 1.350 . S
N1051 S1049 1.610 . S
N1051 C1052 1.351 . S
C1052 C1046 1.428 . S
C1052 N1051 1.351 . S
C1052 C1053 1.434 . S
C1053 C1044 1.429 . S
C1053 N1050 1.350 . S
C1053 C1052 1.434 . S
C1054 C1055 1.369 . S
C1054 C1056 1.419 . S
C1054 H1058 0.930 . S
C1055 C1054 1.369 . S
C1055 C1064 1.429 . S
C1056 C1054 1.419 . S
C1056 C1057 1.363 . S
C1056 H1059 0.929 . S
C1057 C1056 1.363 . S
C1057 C1063 1.428 . S
H1058 C1054 0.930 . S
H1059 C1056 0.929 . S
S1060 N1061 1.613 . S
S1060 N1062 1.610 . S
N1061 S1060 1.613 . S
N1061 C1064 1.350 . S
N1062 S1060 1.610 . S
N1062 C1063 1.351 . S
C1063 C1057 1.428 . S
C1063 N1062 1.351 . S
C1063 C1064 1.434 . S
C1064 C1055 1.429 . S
C1064 N1061 1.350 . S
C1064 C1063 1.434 . S
C1065 C1066 1.369 . S
C1065 C1067 1.419 . S
C1065 H1069 0.930 . S
C1066 C1065 1.369 . S
C1066 C1075 1.429 . S
C1067 C1065 1.419 . S
C1067 C1068 1.363 . S
C1067 H1070 0.929 . S
C1068 C1067 1.363 . S
C1068 C1074 1.428 . S
H1069 C1065 0.930 . S
H1070 C1067 0.929 . S
S1071 N1072 1.613 . S
S1071 N1073 1.610 . S
N1072 S1071 1.613 . S
N1072 C1075 1.350 . S
N1073 S1071 1.610 . S
N1073 C1074 1.351 . S
C1074 C1068 1.428 . S
C1074 N1073 1.351 . S
C1074 C1075 1.434 . S
C1075 C1066 1.429 . S
C1075 N1072 1.350 . S
C1075 C1074 1.434 . S
C1076 C1077 1.369 . S
C1076 C1078 1.419 . S
C1076 H1080 0.930 . S
C1077 C1076 1.369 . S
C1077 C1086 1.429 . S
C1078 C1076 1.419 . S
C1078 C1079 1.363 . S
C1078 H1081 0.929 . S
C1079 C1078 1.363 . S
C1079 C1085 1.428 . S
H1080 C1076 0.930 . S
H1081 C1078 0.929 . S
S1082 N1083 1.613 . S
S1082 N1084 1.610 . S
N1083 S1082 1.613 . S
N1083 C1086 1.350 . S
N1084 S1082 1.610 . S
N1084 C1085 1.351 . S
C1085 C1079 1.428 . S
C1085 N1084 1.351 . S
C1085 C1086 1.434 . S
C1086 C1077 1.429 . S
C1086 N1083 1.350 . S
C1086 C1085 1.434 . S
C1087 C1088 1.369 . S
C1087 C1089 1.419 . S
C1087 H1091 0.930 . S
C1088 C1087 1.369 . S
C1088 C1097 1.429 . S
C1089 C1087 1.419 . S
C1089 C1090 1.363 . S
C1089 H1092 0.929 . S
C1090 C1089 1.363 . S
C1090 C1096 1.428 . S
H1091 C1087 0.930 . S
H1092 C1089 0.929 . S
S1093 N1094 1.613 . S
S1093 N1095 1.610 . S
N1094 S1093 1.613 . S
N1094 C1097 1.350 . S
N1095 S1093 1.610 . S
N1095 C1096 1.351 . S
C1096 C1090 1.428 . S
C1096 N1095 1.351 . S
C1096 C1097 1.434 . S
C1097 C1088 1.429 . S
C1097 N1094 1.350 . S
C1097 C1096 1.434 . S
C1098 C1099 1.369 . S
C1098 C1100 1.419 . S
C1098 H1102 0.930 . S
C1099 C1098 1.369 . S
C1099 C1108 1.429 . S
C1100 C1098 1.419 . S
C1100 C1101 1.363 . S
C1100 H1103 0.929 . S
C1101 C1100 1.363 . S
C1101 C1107 1.428 . S
H1102 C1098 0.930 . S
H1103 C1100 0.929 . S
S1104 N1105 1.613 . S
S1104 N1106 1.610 . S
N1105 S1104 1.613 . S
N1105 C1108 1.350 . S
N1106 S1104 1.610 . S
N1106 C1107 1.351 . S
C1107 C1101 1.428 . S
C1107 N1106 1.351 . S
C1107 C1108 1.434 . S
C1108 C1099 1.429 . S
C1108 N1105 1.350 . S
C1108 C1107 1.434 . S
C1109 C1110 1.369 . S
C1109 C1111 1.419 . S
C1109 H1113 0.930 . S
C1110 C1109 1.369 . S
C1110 C1119 1.429 . S
C1111 C1109 1.419 . S
C1111 C1112 1.363 . S
C1111 H1114 0.929 . S
C1112 C1111 1.363 . S
C1112 C1118 1.428 . S
H1113 C1109 0.930 . S
H1114 C1111 0.929 . S
S1115 N1116 1.613 1_554 S
S1115 N1117 1.610 . S
N1116 S1115 1.613 1_556 S
N1116 C1119 1.350 . S
N1117 S1115 1.610 . S
N1117 C1118 1.351 1_554 S
C1118 C1112 1.428 . S
C1118 N1117 1.351 1_556 S
C1118 C1119 1.434 . S
C1119 C1110 1.429 . S
C1119 N1116 1.350 . S
C1119 C1118 1.434 . S
C417 C81 1.504 . S
C419 C5 1.504 . S
C428 C16 1.503 . S
C430 C96 1.504 . S
C439 C57 1.503 . S
C441 C29 1.504 . S
C450 C42 1.503 . S
C452 C70 1.504 . S
C461 C187 1.503 . S
C463 C107 1.503 . S
C472 C198 1.503 . S
C474 C122 1.504 . S
C483 C135 1.504 . S
C485 C161 1.503 . S
C494 C148 1.503 . S
C496 C172 1.504 . S
C505 C213 1.503 . S
C507 C291 1.503 . S
C516 C226 1.503 . S
C518 C304 1.503 . S
C527 C263 1.503 . S
C529 C239 1.504 . S
C538 C278 1.504 . S
C540 C252 1.504 . S
C549 C317 1.504 . S
C551 C395 1.504 . S
C560 C408 1.503 . S
C562 C330 1.504 . S
C571 C367 1.504 . S
C573 C343 1.504 . S
C582 C356 1.504 . S
C584 C380 1.503 . S
C593 C3 1.396 . S
C595 C400 1.407 . S
C604 C199 1.406 . S
C606 C18 1.399 . S
C615 C31 1.400 . S
C617 C368 1.405 . S
C626 C44 1.396 . S
C628 C173 1.406 . S
C637 C348 1.404 . S
C639 C55 1.398 . S
C648 C153 1.405 . S
C650 C68 1.396 . S
C659 C83 1.395 . S
C661 C322 1.406 . S
C670 C127 1.407 . S
C672 C94 1.396 . S
C681 C109 1.398 . S
C683 C296 1.405 . S
C692 C101 1.406 . S
C694 C120 1.399 . S
C703 C133 1.397 . S
C705 C264 1.407 . S
C714 C146 1.400 . S
C716 C75 1.405 . S
C725 C244 1.407 . S
C727 C159 1.397 . S
C736 C174 1.400 . S
C738 C43 1.404 . S
C747 C185 1.397 . S
C749 C218 1.407 . S
C758 C17 1.404 . S
C760 C200 1.398 . S
C769 C211 1.396 . S
C771 C192 1.407 . S
C780 C224 1.400 . S
C782 C413 1.404 . S
C791 C166 1.405 . S
C793 C237 1.400 . S
C802 C250 1.398 . S
C804 C381 1.406 . S
C813 C140 1.404 . S
C815 C265 1.397 . S
C824 C361 1.404 . S
C826 C276 1.399 . S
C835 C108 1.404 . S
C837 C289 1.398 . S
C846 C335 1.404 . S
C848 C302 1.399 . S
C857 C315 1.399 . S
C859 C82 1.404 . S
C868 C309 1.404 . S
C870 C328 1.398 . S
C879 C62 1.404 . S
C881 C341 1.399 . S
C890 C354 1.396 . S
C892 C283 1.405 . S
C901 C369 1.396 . S
C903 C30 1.407 . S
C912 C382 1.400 . S
C914 C257 1.405 . S
C923 C10 1.407 . S
C925 C393 1.398 . S
C934 C406 1.396 . S
C936 C231 1.406 . S
C945 C4 1.464 . S
C947 C277 1.466 . S
C956 C290 1.466 . S
C958 C23 1.465 . S
C967 C36 1.466 . S
C969 C303 1.465 . S
C978 C270 1.465 . S
C980 C49 1.466 . S
C989 C251 1.466 . S
C991 C56 1.465 . S
C1000 C212 1.465 . S
C1002 C69 1.466 . S
C1011 C225 1.464 . S
C1013 C88 1.466 . S
C1022 C238 1.464 . S
C1024 C95 1.466 . S
C1033 C114 1.466 . S
C1035 C387 1.465 . S
C1044 C394 1.466 . S
C1046 C121 1.465 . S
C1055 C407 1.465 . S
C1057 C134 1.465 . S
C1066 C374 1.465 . S
C1068 C147 1.466 . S
C1077 C355 1.464 . S
C1079 C160 1.466 . S
C1088 C316 1.465 . S
C1090 C179 1.465 . S
C1099 C186 1.464 . S
C1101 C329 1.466 . S
C1110 C205 1.464 . S
C1112 C342 1.466 . S
