# Generated by pormake.
# Topology wnd, (6)-cn, num edge types: 1
# Building blocks:
#     Node 0, Type 0, BuildingBlock: CUKXOW_clean_sbu_0, # of connection points: 6
#     Node 1, Type 0, BuildingBlock: CUKXOW_clean_sbu_0, # of connection points: 6
#     Node 2, Type 0, BuildingBlock: CUKXOW_clean_sbu_0, # of connection points: 6
#     Node 3, Type 0, BuildingBlock: CUKXOW_clean_sbu_0, # of connection points: 6
#     Node 4, Type 0, BuildingBlock: CUKXOW_clean_sbu_0, # of connection points: 6
#     Node 5, Type 0, BuildingBlock: CUKXOW_clean_sbu_0, # of connection points: 6
#     Node 6, Type 0, BuildingBlock: CUKXOW_clean_sbu_0, # of connection points: 6
#     Node 7, Type 0, BuildingBlock: CUKXOW_clean_sbu_0, # of connection points: 6
#     Node 8, Type 0, BuildingBlock: CUKXOW_clean_sbu_0, # of connection points: 6
#     Node 9, Type 0, BuildingBlock: CUKXOW_clean_sbu_0, # of connection points: 6
#     Node 10, Type 0, BuildingBlock: CUKXOW_clean_sbu_0, # of connection points: 6
#     Node 11, Type 0, BuildingBlock: CUKXOW_clean_sbu_0, # of connection points: 6
#     Node 12, Type 0, BuildingBlock: CUKXOW_clean_sbu_0, # of connection points: 6
#     Node 13, Type 0, BuildingBlock: CUKXOW_clean_sbu_0, # of connection points: 6
#     Node 14, Type 0, BuildingBlock: CUKXOW_clean_sbu_0, # of connection points: 6
#     Node 15, Type 0, BuildingBlock: CUKXOW_clean_sbu_0, # of connection points: 6
#     Node 16, Type 0, BuildingBlock: CUKXOW_clean_sbu_0, # of connection points: 6
#     Node 17, Type 0, BuildingBlock: CUKXOW_clean_sbu_0, # of connection points: 6
#     Node 18, Type 0, BuildingBlock: CUKXOW_clean_sbu_0, # of connection points: 6
#     Node 19, Type 0, BuildingBlock: CUKXOW_clean_sbu_0, # of connection points: 6
#     Node 20, Type 0, BuildingBlock: CUKXOW_clean_sbu_0, # of connection points: 6
#     Node 21, Type 0, BuildingBlock: CUKXOW_clean_sbu_0, # of connection points: 6
#     Node 22, Type 0, BuildingBlock: CUKXOW_clean_sbu_0, # of connection points: 6
#     Node 23, Type 0, BuildingBlock: CUKXOW_clean_sbu_0, # of connection points: 6
#     Node 24, Type 0, BuildingBlock: CUKXOW_clean_sbu_0, # of connection points: 6
#     Node 25, Type 0, BuildingBlock: CUKXOW_clean_sbu_0, # of connection points: 6
#     Node 26, Type 0, BuildingBlock: CUKXOW_clean_sbu_0, # of connection points: 6
#     Node 27, Type 0, BuildingBlock: CUKXOW_clean_sbu_0, # of connection points: 6
#     Node 28, Type 0, BuildingBlock: CUKXOW_clean_sbu_0, # of connection points: 6
#     Node 29, Type 0, BuildingBlock: CUKXOW_clean_sbu_0, # of connection points: 6
#     Node 30, Type 0, BuildingBlock: CUKXOW_clean_sbu_0, # of connection points: 6
#     Node 31, Type 0, BuildingBlock: CUKXOW_clean_sbu_0, # of connection points: 6
#     Node 32, Type 0, BuildingBlock: CUKXOW_clean_sbu_0, # of connection points: 6
#     Node 33, Type 0, BuildingBlock: CUKXOW_clean_sbu_0, # of connection points: 6
#     Node 34, Type 0, BuildingBlock: CUKXOW_clean_sbu_0, # of connection points: 6
#     Node 35, Type 0, BuildingBlock: CUKXOW_clean_sbu_0, # of connection points: 6
#     Edge 36, Type (0, 0), BuildingBlock: OJICUG_clean_linker_0, # of connection points: 2
#     Edge 37, Type (0, 0), BuildingBlock: OJICUG_clean_linker_0, # of connection points: 2
#     Edge 38, Type (0, 0), BuildingBlock: OJICUG_clean_linker_0, # of connection points: 2
#     Edge 39, Type (0, 0), BuildingBlock: OJICUG_clean_linker_0, # of connection points: 2
#     Edge 40, Type (0, 0), BuildingBlock: OJICUG_clean_linker_0, # of connection points: 2
#     Edge 41, Type (0, 0), BuildingBlock: OJICUG_clean_linker_0, # of connection points: 2
#     Edge 42, Type (0, 0), BuildingBlock: OJICUG_clean_linker_0, # of connection points: 2
#     Edge 43, Type (0, 0), BuildingBlock: OJICUG_clean_linker_0, # of connection points: 2
#     Edge 44, Type (0, 0), BuildingBlock: OJICUG_clean_linker_0, # of connection points: 2
#     Edge 45, Type (0, 0), BuildingBlock: OJICUG_clean_linker_0, # of connection points: 2
#     Edge 46, Type (0, 0), BuildingBlock: OJICUG_clean_linker_0, # of connection points: 2
#     Edge 47, Type (0, 0), BuildingBlock: OJICUG_clean_linker_0, # of connection points: 2
#     Edge 48, Type (0, 0), BuildingBlock: OJICUG_clean_linker_0, # of connection points: 2
#     Edge 49, Type (0, 0), BuildingBlock: OJICUG_clean_linker_0, # of connection points: 2
#     Edge 50, Type (0, 0), BuildingBlock: OJICUG_clean_linker_0, # of connection points: 2
#     Edge 51, Type (0, 0), BuildingBlock: OJICUG_clean_linker_0, # of connection points: 2
#     Edge 52, Type (0, 0), BuildingBlock: OJICUG_clean_linker_0, # of connection points: 2
#     Edge 53, Type (0, 0), BuildingBlock: OJICUG_clean_linker_0, # of connection points: 2
#     Edge 54, Type (0, 0), BuildingBlock: OJICUG_clean_linker_0, # of connection points: 2
#     Edge 55, Type (0, 0), BuildingBlock: OJICUG_clean_linker_0, # of connection points: 2
#     Edge 56, Type (0, 0), BuildingBlock: OJICUG_clean_linker_0, # of connection points: 2
#     Edge 57, Type (0, 0), BuildingBlock: OJICUG_clean_linker_0, # of connection points: 2
#     Edge 58, Type (0, 0), BuildingBlock: OJICUG_clean_linker_0, # of connection points: 2
#     Edge 59, Type (0, 0), BuildingBlock: OJICUG_clean_linker_0, # of connection points: 2
#     Edge 60, Type (0, 0), BuildingBlock: OJICUG_clean_linker_0, # of connection points: 2
#     Edge 61, Type (0, 0), BuildingBlock: OJICUG_clean_linker_0, # of connection points: 2
#     Edge 62, Type (0, 0), BuildingBlock: OJICUG_clean_linker_0, # of connection points: 2
#     Edge 63, Type (0, 0), BuildingBlock: OJICUG_clean_linker_0, # of connection points: 2
#     Edge 64, Type (0, 0), BuildingBlock: OJICUG_clean_linker_0, # of connection points: 2
#     Edge 65, Type (0, 0), BuildingBlock: OJICUG_clean_linker_0, # of connection points: 2
#     Edge 66, Type (0, 0), BuildingBlock: OJICUG_clean_linker_0, # of connection points: 2
#     Edge 67, Type (0, 0), BuildingBlock: OJICUG_clean_linker_0, # of connection points: 2
#     Edge 68, Type (0, 0), BuildingBlock: OJICUG_clean_linker_0, # of connection points: 2
#     Edge 69, Type (0, 0), BuildingBlock: OJICUG_clean_linker_0, # of connection points: 2
#     Edge 70, Type (0, 0), BuildingBlock: OJICUG_clean_linker_0, # of connection points: 2
#     Edge 71, Type (0, 0), BuildingBlock: OJICUG_clean_linker_0, # of connection points: 2
#     Edge 72, Type (0, 0), BuildingBlock: OJICUG_clean_linker_0, # of connection points: 2
#     Edge 73, Type (0, 0), BuildingBlock: OJICUG_clean_linker_0, # of connection points: 2
#     Edge 74, Type (0, 0), BuildingBlock: OJICUG_clean_linker_0, # of connection points: 2
#     Edge 75, Type (0, 0), BuildingBlock: OJICUG_clean_linker_0, # of connection points: 2
#     Edge 76, Type (0, 0), BuildingBlock: OJICUG_clean_linker_0, # of connection points: 2
#     Edge 77, Type (0, 0), BuildingBlock: OJICUG_clean_linker_0, # of connection points: 2
#     Edge 78, Type (0, 0), BuildingBlock: OJICUG_clean_linker_0, # of connection points: 2
#     Edge 79, Type (0, 0), BuildingBlock: OJICUG_clean_linker_0, # of connection points: 2
#     Edge 80, Type (0, 0), BuildingBlock: OJICUG_clean_linker_0, # of connection points: 2
#     Edge 81, Type (0, 0), BuildingBlock: OJICUG_clean_linker_0, # of connection points: 2
#     Edge 82, Type (0, 0), BuildingBlock: OJICUG_clean_linker_0, # of connection points: 2
#     Edge 83, Type (0, 0), BuildingBlock: OJICUG_clean_linker_0, # of connection points: 2
#     Edge 84, Type (0, 0), BuildingBlock: OJICUG_clean_linker_0, # of connection points: 2
#     Edge 85, Type (0, 0), BuildingBlock: OJICUG_clean_linker_0, # of connection points: 2
#     Edge 86, Type (0, 0), BuildingBlock: OJICUG_clean_linker_0, # of connection points: 2
#     Edge 87, Type (0, 0), BuildingBlock: OJICUG_clean_linker_0, # of connection points: 2
#     Edge 88, Type (0, 0), BuildingBlock: OJICUG_clean_linker_0, # of connection points: 2
#     Edge 89, Type (0, 0), BuildingBlock: OJICUG_clean_linker_0, # of connection points: 2
#     Edge 90, Type (0, 0), BuildingBlock: OJICUG_clean_linker_0, # of connection points: 2
#     Edge 91, Type (0, 0), BuildingBlock: OJICUG_clean_linker_0, # of connection points: 2
#     Edge 92, Type (0, 0), BuildingBlock: OJICUG_clean_linker_0, # of connection points: 2
#     Edge 93, Type (0, 0), BuildingBlock: OJICUG_clean_linker_0, # of connection points: 2
#     Edge 94, Type (0, 0), BuildingBlock: OJICUG_clean_linker_0, # of connection points: 2
#     Edge 95, Type (0, 0), BuildingBlock: OJICUG_clean_linker_0, # of connection points: 2
#     Edge 96, Type (0, 0), BuildingBlock: OJICUG_clean_linker_0, # of connection points: 2
#     Edge 97, Type (0, 0), BuildingBlock: OJICUG_clean_linker_0, # of connection points: 2
#     Edge 98, Type (0, 0), BuildingBlock: OJICUG_clean_linker_0, # of connection points: 2
#     Edge 99, Type (0, 0), BuildingBlock: OJICUG_clean_linker_0, # of connection points: 2
#     Edge 100, Type (0, 0), BuildingBlock: OJICUG_clean_linker_0, # of connection points: 2
#     Edge 101, Type (0, 0), BuildingBlock: OJICUG_clean_linker_0, # of connection points: 2
#     Edge 102, Type (0, 0), BuildingBlock: OJICUG_clean_linker_0, # of connection points: 2
#     Edge 103, Type (0, 0), BuildingBlock: OJICUG_clean_linker_0, # of connection points: 2
#     Edge 104, Type (0, 0), BuildingBlock: OJICUG_clean_linker_0, # of connection points: 2
#     Edge 105, Type (0, 0), BuildingBlock: OJICUG_clean_linker_0, # of connection points: 2
#     Edge 106, Type (0, 0), BuildingBlock: OJICUG_clean_linker_0, # of connection points: 2
#     Edge 107, Type (0, 0), BuildingBlock: OJICUG_clean_linker_0, # of connection points: 2
#     Edge 108, Type (0, 0), BuildingBlock: OJICUG_clean_linker_0, # of connection points: 2
#     Edge 109, Type (0, 0), BuildingBlock: OJICUG_clean_linker_0, # of connection points: 2
#     Edge 110, Type (0, 0), BuildingBlock: OJICUG_clean_linker_0, # of connection points: 2
#     Edge 111, Type (0, 0), BuildingBlock: OJICUG_clean_linker_0, # of connection points: 2
#     Edge 112, Type (0, 0), BuildingBlock: OJICUG_clean_linker_0, # of connection points: 2
#     Edge 113, Type (0, 0), BuildingBlock: OJICUG_clean_linker_0, # of connection points: 2
#     Edge 114, Type (0, 0), BuildingBlock: OJICUG_clean_linker_0, # of connection points: 2
#     Edge 115, Type (0, 0), BuildingBlock: OJICUG_clean_linker_0, # of connection points: 2
#     Edge 116, Type (0, 0), BuildingBlock: OJICUG_clean_linker_0, # of connection points: 2
#     Edge 117, Type (0, 0), BuildingBlock: OJICUG_clean_linker_0, # of connection points: 2
#     Edge 118, Type (0, 0), BuildingBlock: OJICUG_clean_linker_0, # of connection points: 2
#     Edge 119, Type (0, 0), BuildingBlock: OJICUG_clean_linker_0, # of connection points: 2
#     Edge 120, Type (0, 0), BuildingBlock: OJICUG_clean_linker_0, # of connection points: 2
#     Edge 121, Type (0, 0), BuildingBlock: OJICUG_clean_linker_0, # of connection points: 2
#     Edge 122, Type (0, 0), BuildingBlock: OJICUG_clean_linker_0, # of connection points: 2
#     Edge 123, Type (0, 0), BuildingBlock: OJICUG_clean_linker_0, # of connection points: 2
#     Edge 124, Type (0, 0), BuildingBlock: OJICUG_clean_linker_0, # of connection points: 2
#     Edge 125, Type (0, 0), BuildingBlock: OJICUG_clean_linker_0, # of connection points: 2
#     Edge 126, Type (0, 0), BuildingBlock: OJICUG_clean_linker_0, # of connection points: 2
#     Edge 127, Type (0, 0), BuildingBlock: OJICUG_clean_linker_0, # of connection points: 2
#     Edge 128, Type (0, 0), BuildingBlock: OJICUG_clean_linker_0, # of connection points: 2
#     Edge 129, Type (0, 0), BuildingBlock: OJICUG_clean_linker_0, # of connection points: 2
#     Edge 130, Type (0, 0), BuildingBlock: OJICUG_clean_linker_0, # of connection points: 2
#     Edge 131, Type (0, 0), BuildingBlock: OJICUG_clean_linker_0, # of connection points: 2
#     Edge 132, Type (0, 0), BuildingBlock: OJICUG_clean_linker_0, # of connection points: 2
#     Edge 133, Type (0, 0), BuildingBlock: OJICUG_clean_linker_0, # of connection points: 2
#     Edge 134, Type (0, 0), BuildingBlock: OJICUG_clean_linker_0, # of connection points: 2
#     Edge 135, Type (0, 0), BuildingBlock: OJICUG_clean_linker_0, # of connection points: 2
#     Edge 136, Type (0, 0), BuildingBlock: OJICUG_clean_linker_0, # of connection points: 2
#     Edge 137, Type (0, 0), BuildingBlock: OJICUG_clean_linker_0, # of connection points: 2
#     Edge 138, Type (0, 0), BuildingBlock: OJICUG_clean_linker_0, # of connection points: 2
#     Edge 139, Type (0, 0), BuildingBlock: OJICUG_clean_linker_0, # of connection points: 2
#     Edge 140, Type (0, 0), BuildingBlock: OJICUG_clean_linker_0, # of connection points: 2
#     Edge 141, Type (0, 0), BuildingBlock: OJICUG_clean_linker_0, # of connection points: 2
#     Edge 142, Type (0, 0), BuildingBlock: OJICUG_clean_linker_0, # of connection points: 2
#     Edge 143, Type (0, 0), BuildingBlock: OJICUG_clean_linker_0, # of connection points: 2
# Relax obj value: 0.049
# Max RMSD: 0.144
# Mean RMSD: 0.144
data_MOF--net-wnd--node1-CUKXOW_clean_sbu_0--edge1-OJICUG_clean_linker_0
_symmetry_space_group_name_H-M    P1
_symmetry_Int_Tables_number       1
_symmetry_cell_setting            triclinic
loop_
_symmetry_equiv_pos_as_xyz
'x, y, z'
_cell_length_a     23.811353
_cell_length_b     23.848607
_cell_length_c     124.45285
_cell_angle_alpha  90.007787
_cell_angle_beta   90.069534
_cell_angle_gamma 120.02757
loop_
_atom_site_label
_atom_site_type_symbol
_atom_site_fract_x
_atom_site_fract_y
_atom_site_fract_z
_atom_type_partial_charge
Tb0 Tb 0.60662 0.10732 0.05168 0.0
C1 C 0.54883 0.04671 0.02917 0.0
Tb2 Tb 0.46554 0.99634 0.05071 0.0
O3 O 0.64069 0.04153 0.04726 0.0
O4 O 0.55512 1.00707 0.05609 0.0
O5 O 0.59286 0.09919 0.03436 0.0
C6 C 0.35917 0.87909 0.04997 0.0
O7 O 0.49967 0.99714 0.03423 0.0
C8 C 0.48133 0.11325 0.04951 0.0
C9 C 0.5128 0.07978 0.07169 0.0
O10 O 0.36804 0.92967 0.04462 0.0
O11 O 0.41043 0.89447 0.05571 0.0
O12 O 0.42858 0.06377 0.05316 0.0
O13 O 0.51773 0.0937 0.04593 0.0
O14 O 0.47116 0.02209 0.06761 0.0
O15 O 0.56694 0.12165 0.06663 0.0
C16 C 0.72364 0.21211 0.05365 0.0
O17 O 0.70234 0.15942 0.05924 0.0
O18 O 0.67842 0.20636 0.04713 0.0
C19 C 0.5911 0.99066 0.05116 0.0
Tb20 Tb 0.99594 0.54049 0.05275 0.0
C21 C 0.05611 0.54593 0.03008 0.0
Tb22 Tb 0.10806 0.51199 0.05135 0.0
O23 O 0.06106 0.64091 0.04853 0.0
O24 O 0.09668 0.58975 0.05702 0.0
O25 O 1.00363 0.53639 0.03539 0.0
C26 C 0.2253 0.52298 0.05016 0.0
O27 O 0.10624 0.54656 0.035 0.0
C28 C 0.99135 0.41053 0.05011 0.0
C29 C 0.02591 0.47413 0.07252 0.0
O30 O 0.17409 0.48165 0.04487 0.0
O31 O 0.21059 0.5585 0.0561 0.0
O32 O 0.04115 0.40739 0.05365 0.0
O33 O 1.0104 0.46659 0.04667 0.0
O34 O 0.0834 0.49076 0.06827 0.0
O35 O 0.98322 0.48614 0.06765 0.0
C36 C 0.88997 0.55109 0.05449 0.0
O37 O 0.94262 0.5833 0.06011 0.0
O38 O 0.89635 0.51146 0.04814 0.0
C39 C 0.11248 0.64241 0.05225 0.0
Tb40 Tb 0.56397 0.4979 0.05151 0.0
C41 C 0.55779 0.55333 0.02895 0.0
Tb42 Tb 0.59295 0.63852 0.0503 0.0
O43 O 0.46325 0.46308 0.0474 0.0
O44 O 0.51529 0.54938 0.05599 0.0
O45 O 0.56739 0.51012 0.03415 0.0
C46 C 0.58153 0.7444 0.04939 0.0
O47 O 0.55748 0.60259 0.03397 0.0
C48 C 0.69463 0.62343 0.04899 0.0
C49 C 0.63149 0.5939 0.0713 0.0
O50 O 0.62283 0.7351 0.04399 0.0
O51 O 0.54635 0.69384 0.05528 0.0
O52 O 0.69771 0.67622 0.05256 0.0
O53 O 0.63836 0.58645 0.04553 0.0
O54 O 0.61426 0.63451 0.06718 0.0
O55 O 0.6194 0.53948 0.06635 0.0
C56 C 0.55254 0.38123 0.05349 0.0
O57 O 0.52145 0.40261 0.05915 0.0
O58 O 0.59142 0.42626 0.04692 0.0
C59 C 0.46222 0.51286 0.05127 0.0
Tb60 Tb 0.10095 0.58358 0.46023 0.0
C61 C 0.04712 0.52513 0.48358 0.0
Tb62 Tb 0.99719 0.43863 0.46257 0.0
O63 O 0.03168 0.59438 0.44993 0.0
O64 O 0.99918 0.52782 0.46211 0.0
O65 O 0.09182 0.57428 0.47777 0.0
C66 C 0.87946 0.33372 0.46285 0.0
O67 O 1.00263 0.46909 0.47926 0.0
C68 C 0.11714 0.46295 0.46287 0.0
C69 C 0.07843 0.48891 0.44116 0.0
O70 O 0.92855 0.34228 0.46872 0.0
O71 O 0.89683 0.38431 0.45683 0.0
O72 O 0.06842 0.40671 0.46016 0.0
O73 O 0.09571 0.49838 0.46621 0.0
O74 O 1.02047 0.44871 0.44536 0.0
O75 O 0.12045 0.54382 0.44595 0.0
C76 C 0.19733 0.70612 0.46139 0.0
O77 O 0.20357 0.65703 0.45858 0.0
O78 O 0.13705 0.68608 0.46364 0.0
C79 C 0.98028 0.54878 0.45455 0.0
Tb80 Tb 0.50215 0.54798 0.46018 0.0
C81 C 0.56124 0.54394 0.48252 0.0
Tb82 Tb 0.64296 0.5769 0.46082 0.0
O83 O 0.46763 0.44786 0.46452 0.0
O84 O 0.55267 0.49836 0.45558 0.0
O85 O 0.51745 0.55336 0.47745 0.0
C86 C 0.74718 0.56286 0.4596 0.0
O87 O 0.60978 0.54273 0.47734 0.0
C88 C 0.62828 0.67872 0.46247 0.0
C89 C 0.59519 0.61625 0.44022 0.0
O90 O 0.73867 0.59809 0.46668 0.0
O91 O 0.69669 0.53485 0.45341 0.0
O92 O 0.68113 0.68208 0.45882 0.0
O93 O 0.59167 0.6224 0.46583 0.0
O94 O 0.63666 0.59964 0.44412 0.0
O95 O 0.54102 0.60331 0.44532 0.0
C96 C 0.3854 0.53661 0.45839 0.0
O97 O 0.43087 0.57575 0.46491 0.0
O98 O 0.40626 0.505 0.45275 0.0
C99 C 0.5167 0.44598 0.46051 0.0
Tb100 Tb 0.53618 0.97468 0.4598 0.0
C101 C 0.5428 0.03724 0.48235 0.0
Tb102 Tb 0.50785 0.08751 0.4611 0.0
O103 O 0.63705 0.03946 0.46382 0.0
O104 O 0.5857 0.07543 0.45554 0.0
O105 O 0.53132 0.98371 0.47716 0.0
C106 C 0.52158 0.20612 0.46183 0.0
O107 O 0.54453 0.08741 0.47732 0.0
C108 C 0.40506 0.97158 0.46275 0.0
C109 C 0.4658 1.00142 0.44023 0.0
O110 O 0.48219 0.15693 0.46769 0.0
O111 O 0.55359 0.18858 0.45556 0.0
O112 O 0.40183 0.02239 0.45988 0.0
O113 O 0.46212 0.98969 0.4657 0.0
O114 O 0.48306 0.05942 0.44432 0.0
O115 O 0.47876 0.95948 0.44512 0.0
C116 C 0.55082 0.87097 0.45833 0.0
O117 O 0.57421 0.91913 0.45162 0.0
O118 O 0.51767 0.88038 0.46565 0.0
C119 C 0.63862 0.091 0.46026 0.0
Tb120 Tb 0.6403 0.10101 0.96129 0.0
C121 C 0.59498 0.01896 0.94019 0.0
Tb122 Tb 0.49943 0.98953 0.96006 0.0
O123 O 0.67779 0.03407 0.95888 0.0
O124 O 0.58807 1.00335 0.96601 0.0
O125 O 0.63584 0.07657 0.94437 0.0
C126 C 0.3824 0.88404 0.95834 0.0
O127 O 0.54054 0.97639 0.94512 0.0
C128 C 0.51483 0.10633 0.96052 0.0
C129 C 0.55573 0.05023 0.98265 0.0
O130 O 0.40288 0.93664 0.95275 0.0
O131 O 0.42857 0.89021 0.96466 0.0
O132 O 0.46504 0.05539 0.96437 0.0
O133 O 0.55094 0.08976 0.9557 0.0
O134 O 0.51228 0.99766 0.97741 0.0
O135 O 0.60491 0.10001 0.97766 0.0
C136 C 0.74655 0.2182 0.96238 0.0
O137 O 0.73721 0.16718 0.96764 0.0
O138 O 0.69584 0.2033 0.95652 0.0
C139 C 0.62503 0.98435 0.96247 0.0
Tb140 Tb 0.99794 0.58611 0.9623 0.0
C141 C 0.08109 0.62568 0.9413 0.0
Tb142 Tb 0.1097 0.55732 0.96091 0.0
O143 O 0.06457 0.69082 0.96014 0.0
O144 O 0.09582 0.63166 0.967 0.0
O145 O 1.0233 0.60864 0.94544 0.0
C146 C 0.21469 0.54551 0.95875 0.0
O147 O 0.12328 0.61301 0.94617 0.0
C148 C 0.99285 0.45573 0.96128 0.0
C149 C 0.04979 0.55202 0.98357 0.0
O150 O 0.16184 0.51451 0.95314 0.0
O151 O 0.20903 0.58448 0.96536 0.0
O152 O 0.04391 0.45691 0.96511 0.0
O153 O 1.00932 0.50858 0.95654 0.0
O154 O 0.10219 0.56132 0.97827 0.0
O155 O 0.99973 0.5516 0.97866 0.0
C156 C 0.87987 0.57337 0.96309 0.0
O157 O 0.896 0.53877 0.95721 0.0
O158 O 0.93014 0.61478 0.96858 0.0
C159 C 0.11463 0.68785 0.9636 0.0
Tb160 Tb 0.51294 0.45876 0.96097 0.0
C161 C 0.47441 0.50439 0.94002 0.0
Tb162 Tb 0.54238 0.59966 0.9599 0.0
O163 O 0.4082 0.42137 0.95878 0.0
O164 O 0.46795 0.51108 0.96585 0.0
O165 O 0.49069 0.46297 0.94412 0.0
C166 C 0.55429 0.71662 0.95812 0.0
O167 O 0.48734 0.55899 0.945 0.0
C168 C 0.64389 0.58437 0.96033 0.0
C169 C 0.54778 0.54326 0.98242 0.0
O170 O 0.58569 0.69555 0.95246 0.0
O171 O 0.51483 0.6711 0.96457 0.0
O172 O 0.64279 0.6342 0.96415 0.0
O173 O 0.59113 0.54819 0.95549 0.0
O174 O 0.53842 0.58671 0.97725 0.0
O175 O 0.54793 0.49399 0.97736 0.0
C176 C 0.52404 0.35263 0.96189 0.0
O177 O 0.48306 0.36226 0.96733 0.0
O178 O 0.55908 0.403 0.95595 0.0
C179 C 0.41166 0.47421 0.9624 0.0
Tb180 Tb 0.11067 0.63242 0.55104 0.0
C181 C 0.028 0.58939 0.57215 0.0
Tb182 Tb 0.99869 0.49171 0.55265 0.0
O183 O 0.04384 0.6703 0.55311 0.0
O184 O 1.01281 0.5796 0.54636 0.0
O185 O 0.08553 0.63015 0.56791 0.0
C186 C 0.89243 0.37549 0.55441 0.0
O187 O 0.98571 0.53419 0.56739 0.0
C188 C 0.11548 0.50684 0.55227 0.0
C189 C 0.05932 0.54495 0.52996 0.0
O190 O 0.94488 0.39586 0.56009 0.0
O191 O 0.89921 0.42134 0.54799 0.0
O192 O 0.06419 0.45635 0.54865 0.0
O193 O 0.09925 0.54374 0.5569 0.0
O194 O 1.00697 0.50229 0.53531 0.0
O195 O 0.10917 0.59525 0.53477 0.0
C196 C 0.22793 0.73849 0.54985 0.0
O197 O 0.17696 0.72833 0.54445 0.0
O198 O 0.21297 0.68863 0.5559 0.0
C199 C 0.99395 0.61708 0.54968 0.0
Tb200 Tb 0.46899 0.50756 0.55045 0.0
C201 C 0.51392 0.47013 0.57156 0.0
Tb202 Tb 0.60968 0.53665 0.55174 0.0
O203 O 0.43118 0.40307 0.55281 0.0
O204 O 0.52113 0.46202 0.54575 0.0
O205 O 0.47297 0.48673 0.56736 0.0
C206 C 0.72639 0.54796 0.55375 0.0
O207 O 0.56844 0.48217 0.56664 0.0
C208 C 0.59448 0.63815 0.55125 0.0
C209 C 0.55399 0.54085 0.52909 0.0
O210 O 0.70549 0.57993 0.55929 0.0
O211 O 0.68088 0.50835 0.5473 0.0
O212 O 0.64426 0.63688 0.54741 0.0
O213 O 0.55827 0.58553 0.55607 0.0
O214 O 0.59746 0.53195 0.53437 0.0
O215 O 0.5046 0.54141 0.53405 0.0
C216 C 0.36313 0.51932 0.54957 0.0
O217 O 0.37197 0.47756 0.54422 0.0
O218 O 0.41418 0.55483 0.55536 0.0
C219 C 0.48401 0.40607 0.54926 0.0
Tb220 Tb 0.59476 0.99159 0.55029 0.0
C221 C 0.63252 0.07545 0.57125 0.0
Tb222 Tb 0.56527 0.10291 0.55133 0.0
O223 O 0.69931 0.05857 0.55259 0.0
O224 O 0.64017 0.08907 0.54544 0.0
O225 O 0.61594 0.01765 0.56718 0.0
C226 C 0.55339 0.20793 0.55319 0.0
O227 O 0.62021 0.11738 0.56623 0.0
C228 C 0.46389 0.98598 0.55111 0.0
C229 C 0.5591 0.04054 0.52885 0.0
O230 O 0.52203 0.15542 0.55883 0.0
O231 O 0.59271 0.2019 0.5467 0.0
O232 O 0.46467 0.03653 0.54717 0.0
O233 O 0.51692 1.00305 0.55588 0.0
O234 O 0.56866 0.09352 0.53399 0.0
O235 O 0.55918 0.99133 0.53393 0.0
C236 C 0.58407 0.87453 0.54947 0.0
O237 O 0.62509 0.92507 0.54403 0.0
O238 O 0.54874 0.88982 0.55535 0.0
C239 C 0.6963 0.1082 0.54897 0.0
Tb240 Tb 0.27199 0.43338 0.38636 0.0
C241 C 0.21484 0.38091 0.36316 0.0
Tb242 Tb 0.12794 0.32577 0.3835 0.0
O243 O 0.30491 0.36781 0.38113 0.0
O244 O 0.21572 0.33133 0.38882 0.0
O245 O 0.2563 0.43223 0.36892 0.0
C246 C 1.01704 0.21262 0.38441 0.0
O247 O 0.16709 0.32804 0.36766 0.0
C248 C 0.15722 0.44562 0.37929 0.0
C249 C 0.1722 0.39701 0.40614 0.0
O250 O 1.0219 0.26899 0.38327 0.0
O251 O 0.07468 0.21978 0.38497 0.0
O252 O 0.10792 0.39579 0.37484 0.0
O253 O 0.18125 0.42518 0.386 0.0
O254 O 0.12629 0.34773 0.40052 0.0
O255 O 0.2318 0.43623 0.40225 0.0
C256 C 0.38709 0.53975 0.38856 0.0
O257 O 0.36683 0.48705 0.39419 0.0
O258 O 0.34164 0.53299 0.38198 0.0
C259 C 0.25212 0.31594 0.38384 0.0
Tb260 Tb 0.65715 0.86876 0.38575 0.0
C261 C 0.71914 0.8752 0.36328 0.0
Tb262 Tb 0.76997 0.84187 0.38467 0.0
O263 O 0.72087 0.96936 0.38161 0.0
O264 O 0.7579 0.91974 0.39019 0.0
O265 O 0.66585 0.86451 0.36843 0.0
C266 C 0.88666 0.85125 0.38361 0.0
O267 O 0.76942 0.87711 0.36835 0.0
C268 C 0.65379 0.73905 0.38354 0.0
C269 C 0.6871 0.80443 0.40569 0.0
O270 O 0.83606 0.81209 0.37798 0.0
O271 O 0.87161 0.88537 0.38982 0.0
O272 O 0.70408 0.73729 0.38719 0.0
O273 O 0.67219 0.79466 0.37991 0.0
O274 O 0.74517 0.82221 0.4016 0.0
O275 O 0.64406 0.81516 0.40068 0.0
C276 C 0.5505 0.87802 0.38749 0.0
O277 O 0.60297 0.91041 0.39314 0.0
O278 O 0.55746 0.83904 0.38107 0.0
C279 C 0.77275 0.97229 0.38543 0.0
Tb280 Tb 0.22559 0.82602 0.38306 0.0
C281 C 0.22691 0.88872 0.36108 0.0
Tb282 Tb 0.25416 0.96534 0.38281 0.0
O283 O 0.12197 0.78791 0.38098 0.0
O284 O 0.17721 0.87613 0.38853 0.0
O285 O 0.24505 0.85155 0.36617 0.0
C286 C 0.24367 0.07134 0.38204 0.0
O287 O 0.21794 0.93184 0.36643 0.0
C288 C 0.35622 0.95101 0.38158 0.0
C289 C 0.28793 0.91438 0.4038 0.0
O290 O 0.2862 0.06289 0.37688 0.0
O291 O 0.20705 0.02014 0.38769 0.0
O292 O 0.35823 1.00245 0.38556 0.0
O293 O 0.3011 0.91524 0.3776 0.0
O294 O 0.27362 0.95733 0.39969 0.0
O295 O 0.27457 0.85988 0.39868 0.0
C296 C 0.21338 0.70918 0.38117 0.0
O297 O 0.24731 0.75125 0.38858 0.0
O298 O 0.18716 0.73308 0.375 0.0
C299 C 0.12239 0.83885 0.38449 0.0
Tb300 Tb 0.7886 0.93101 0.79379 0.0
C301 C 0.72649 0.87562 0.8163 0.0
Tb302 Tb 0.67621 0.79052 0.79495 0.0
O303 O 0.72341 0.96639 0.79793 0.0
O304 O 0.68823 0.87996 0.78934 0.0
O305 O 0.7796 0.91864 0.81114 0.0
C306 C 0.55868 0.68446 0.79569 0.0
O307 O 0.67673 0.82643 0.81127 0.0
C308 C 0.79291 0.80532 0.79629 0.0
C309 C 0.75908 0.83545 0.77394 0.0
O310 O 0.60921 0.69359 0.80113 0.0
O311 O 0.57422 0.73536 0.78989 0.0
O312 O 0.74307 0.75268 0.79268 0.0
O313 O 0.77384 0.84231 0.79976 0.0
O314 O 0.70118 0.79497 0.77805 0.0
O315 O 0.80191 0.88954 0.77893 0.0
C316 C 0.89418 0.0475 0.79178 0.0
O317 O 0.8415 0.02621 0.78615 0.0
O318 O 0.88805 1.00245 0.79835 0.0
C319 C 0.67223 0.91673 0.79408 0.0
Tb320 Tb 0.17799 0.88679 0.79404 0.0
C321 C 0.23489 0.88393 0.81672 0.0
Tb322 Tb 0.3191 0.91717 0.79528 0.0
O323 O 0.14421 0.78671 0.79836 0.0
O324 O 0.23012 0.83857 0.78968 0.0
O325 O 0.19091 0.89185 0.81138 0.0
C326 C 0.42538 0.90627 0.79613 0.0
O327 O 0.28477 0.8842 0.8118 0.0
C328 C 0.30319 0.01813 0.79634 0.0
C329 C 0.27297 0.95392 0.77416 0.0
O330 O 0.41639 0.94803 0.80145 0.0
O331 O 0.37428 0.87032 0.79037 0.0
O332 O 0.35621 0.02138 0.79283 0.0
O333 O 0.26647 0.96219 0.79991 0.0
O334 O 0.31476 0.93837 0.77836 0.0
O335 O 0.21818 0.9409 0.77909 0.0
C336 C 0.06076 0.87469 0.79219 0.0
O337 O 0.08183 0.84311 0.78659 0.0
O338 O 0.10635 0.9143 0.79863 0.0
C339 C 0.19414 0.78585 0.79449 0.0
Tb340 Tb 0.22223 0.31997 0.79247 0.0
C341 C 0.23136 0.38202 0.81504 0.0
Tb342 Tb 0.19355 0.43203 0.79396 0.0
O343 O 0.32343 0.38532 0.79631 0.0
O344 O 0.27073 0.42027 0.78809 0.0
O345 O 0.22093 0.32907 0.80982 0.0
C346 C 0.20417 0.549 0.79521 0.0
O347 O 0.23102 0.43152 0.81011 0.0
C348 C 0.09223 0.31531 0.7955 0.0
C349 C 0.15345 0.34871 0.77293 0.0
O350 O 0.1637 0.49806 0.80062 0.0
O351 O 0.239 0.53415 0.78911 0.0
O352 O 0.08857 0.36477 0.79198 0.0
O353 O 0.14886 0.33474 0.79877 0.0
O354 O 0.17066 0.40645 0.7771 0.0
O355 O 0.16615 0.30647 0.77776 0.0
C356 C 0.23159 0.21352 0.79073 0.0
O357 O 0.2637 0.26569 0.78503 0.0
O358 O 0.19283 0.2207 0.79717 0.0
C359 C 0.32418 0.43643 0.79266 0.0
Tb360 Tb 0.31127 0.43524 0.29501 0.0
C361 C 0.26556 0.34995 0.27411 0.0
Tb362 Tb 0.17039 0.32416 0.29395 0.0
O363 O 0.34885 0.36835 0.29288 0.0
O364 O 0.25897 0.33793 0.29994 0.0
O365 O 0.30708 0.40781 0.27818 0.0
C366 C 0.05254 0.21927 0.2924 0.0
O367 O 0.21068 0.30863 0.27908 0.0
C368 C 0.18631 0.44135 0.29408 0.0
C369 C 0.22748 0.38667 0.31651 0.0
O370 O 0.07368 0.27144 0.28666 0.0
O371 O 0.09851 0.22549 0.29878 0.0
O372 O 0.13666 0.39086 0.29806 0.0
O373 O 0.22211 0.4241 0.28933 0.0
O374 O 0.18373 0.33397 0.31131 0.0
O375 O 0.27699 0.43582 0.31145 0.0
C376 C 0.4174 0.55261 0.29578 0.0
O377 O 0.40825 0.50224 0.30123 0.0
O378 O 0.36659 0.53695 0.2899 0.0
C379 C 0.29606 0.31877 0.29649 0.0
Tb380 Tb 0.66732 0.92043 0.29559 0.0
C381 C 0.75084 0.96141 0.27471 0.0
Tb382 Tb 0.7798 0.89252 0.29421 0.0
O383 O 0.73406 0.02543 0.29364 0.0
O384 O 0.76512 0.96605 0.30043 0.0
O385 O 0.6926 0.9429 0.27877 0.0
C386 C 0.88492 0.88089 0.29197 0.0
O387 O 0.79354 0.9495 0.2796 0.0
C388 C 0.66328 0.79049 0.29438 0.0
C389 C 0.71788 0.88472 0.3168 0.0
O390 O 0.8323 0.85055 0.28629 0.0
O391 O 0.87902 0.91924 0.29871 0.0
O392 O 0.71437 0.79176 0.29821 0.0
O393 O 0.67958 0.84359 0.28973 0.0
O394 O 0.77093 0.89503 0.31158 0.0
O395 O 0.66798 0.88426 0.31183 0.0
C396 C 0.54895 0.90722 0.29618 0.0
O397 O 0.59885 0.94864 0.30174 0.0
O398 O 0.56562 0.87283 0.29035 0.0
C399 C 0.78404 0.02248 0.29715 0.0
Tb400 Tb 0.1833 0.79385 0.29342 0.0
C401 C 0.14207 0.83831 0.2726 0.0
Tb402 Tb 0.21237 0.93489 0.29218 0.0
O403 O 0.07824 0.75628 0.29156 0.0
O404 O 0.13883 0.84652 0.29837 0.0
O405 O 0.15904 0.79722 0.27663 0.0
C406 C 0.22313 0.05142 0.29069 0.0
O407 O 0.15577 0.89334 0.27749 0.0
C408 C 0.31413 0.91987 0.29246 0.0
C409 C 0.22005 0.88026 0.31467 0.0
O410 O 0.25461 0.03108 0.28488 0.0
O411 O 0.18412 1.00536 0.29709 0.0
O412 O 0.31327 0.97007 0.29616 0.0
O413 O 0.26092 0.88315 0.28777 0.0
O414 O 0.20965 0.92295 0.3095 0.0
O415 O 0.22014 0.8308 0.30967 0.0
C416 C 0.19442 0.6876 0.2945 0.0
O417 O 0.15429 0.69805 0.30003 0.0
O418 O 0.22859 0.73724 0.28836 0.0
C419 C 0.0821 0.8094 0.29514 0.0
Tb420 Tb 0.77458 0.97243 0.88418 0.0
C421 C 0.68931 0.92878 0.90498 0.0
Tb422 Tb 0.66172 0.83352 0.88523 0.0
O423 O 0.7093 1.0122 0.88618 0.0
O424 O 0.67703 0.9222 0.8791 0.0
O425 O 0.74768 0.96917 0.90099 0.0
C426 C 0.55599 0.71722 0.88709 0.0
O427 O 0.64699 0.87479 0.89994 0.0
C428 C 0.77739 0.84554 0.88515 0.0
C429 C 0.72476 0.88781 0.86278 0.0
O430 O 0.60797 0.73863 0.89291 0.0
O431 O 0.5628 0.76211 0.88044 0.0
O432 O 0.72592 0.79696 0.88116 0.0
O433 O 0.76194 0.88279 0.88991 0.0
O434 O 0.67115 0.8455 0.86789 0.0
O435 O 0.77466 0.93641 0.86789 0.0
C436 C 0.89269 0.07795 0.88325 0.0
O437 O 0.84235 0.06819 0.8777 0.0
O438 O 0.87665 0.02797 0.88933 0.0
C439 C 0.65902 0.96027 0.88249 0.0
Tb440 Tb 0.12941 0.83979 0.88358 0.0
C441 C 0.17415 0.81073 0.90624 0.0
Tb442 Tb 0.27186 0.87917 0.88686 0.0
O443 O 0.10771 0.74829 0.87565 0.0
O444 O 0.18259 0.79329 0.88662 0.0
O445 O 0.13086 0.8203 0.90093 0.0
C446 C 0.39253 0.89797 0.88649 0.0
O447 O 0.2306 0.82454 0.90177 0.0
C448 C 0.24275 0.97096 0.89006 0.0
C449 C 0.21842 0.87907 0.86326 0.0
O450 O 0.37323 0.93076 0.89214 0.0
O451 O 0.34357 0.85375 0.88111 0.0
O452 O 0.28808 0.96678 0.89511 0.0
O453 O 0.21949 0.92732 0.88303 0.0
O454 O 0.26449 0.87813 0.86921 0.0
O455 O 0.16569 0.87555 0.86756 0.0
C456 C 1.01973 0.84471 0.88453 0.0
O457 O 0.0279 0.80261 0.87915 0.0
O458 O 0.0733 0.88385 0.88949 0.0
C459 C 0.15864 0.74941 0.87973 0.0
Tb460 Tb 0.26253 0.332 0.884 0.0
C461 C 0.29152 0.41654 0.90444 0.0
Tb462 Tb 0.23173 0.44168 0.88366 0.0
O463 O 0.36718 0.39977 0.88618 0.0
O464 O 0.30807 0.42821 0.87856 0.0
O465 O 0.26763 0.35611 0.90098 0.0
C466 C 0.21995 0.54685 0.88361 0.0
O467 O 0.28699 0.4607 0.89859 0.0
C468 C 0.13053 0.32453 0.884 0.0
C469 C 0.23657 0.37932 0.8615 0.0
O470 O 0.19733 0.50238 0.89098 0.0
O471 O 0.25113 0.53328 0.87652 0.0
O472 O 0.13143 0.37415 0.87967 0.0
O473 O 0.18318 0.34285 0.889 0.0
O474 O 0.23828 0.42942 0.86649 0.0
O475 O 0.24146 0.3332 0.86677 0.0
C476 C 0.25307 0.21573 0.88488 0.0
O477 O 0.30425 0.27043 0.88717 0.0
O478 O 0.20705 0.22629 0.88182 0.0
C479 C 0.36391 0.44851 0.88226 0.0
Tb480 Tb 0.94255 0.77075 0.71847 0.0
C481 C 0.88568 0.71048 0.6959 0.0
Tb482 Tb 0.80147 0.65951 0.71734 0.0
O483 O 0.97693 0.70511 0.71411 0.0
O484 O 0.89094 0.67039 0.72282 0.0
O485 O 0.92941 0.76286 0.70115 0.0
C486 C 0.69507 0.54228 0.71649 0.0
O487 O 0.83632 0.66076 0.7009 0.0
C488 C 0.81718 0.77636 0.71618 0.0
C489 C 0.84799 0.74236 0.7384 0.0
O490 O 0.70413 0.59303 0.71117 0.0
O491 O 0.74618 0.55745 0.72225 0.0
O492 O 0.76432 0.72679 0.71978 0.0
O493 O 0.85376 0.75697 0.71263 0.0
O494 O 0.80653 0.6848 0.73426 0.0
O495 O 0.90232 0.78449 0.73342 0.0
C496 C 0.05945 0.87592 0.72037 0.0
O497 O 0.03852 0.82326 0.72595 0.0
O498 O 1.01387 0.86995 0.71392 0.0
C499 C 0.92718 0.65412 0.71795 0.0
Tb500 Tb 0.33178 0.20331 0.71884 0.0
C501 C 0.39267 0.20967 0.6962 0.0
Tb502 Tb 0.44388 0.175 0.71747 0.0
O503 O 0.39695 0.30388 0.7147 0.0
O504 O 0.43239 0.25257 0.72319 0.0
O505 O 0.33995 0.19988 0.70146 0.0
C506 C 0.56125 0.18641 0.71635 0.0
O507 O 0.44263 0.2102 0.70116 0.0
C508 C 0.32722 0.07337 0.71614 0.0
C509 C 0.3614 0.13624 0.73857 0.0
O510 O 0.51032 0.14521 0.71099 0.0
O511 O 0.54618 0.22152 0.72232 0.0
O512 O 0.37705 0.07033 0.71969 0.0
O513 O 0.34626 0.1295 0.71272 0.0
O514 O 0.41907 0.15331 0.73437 0.0
O515 O 0.31874 0.14826 0.73369 0.0
C516 C 0.22597 0.21404 0.72072 0.0
O517 O 0.27857 0.24572 0.72637 0.0
O518 O 0.23231 0.17489 0.71425 0.0
C519 C 0.44828 0.30537 0.71847 0.0
Tb520 Tb 0.8994 0.16093 0.71815 0.0
C521 C 0.89474 0.2175 0.69563 0.0
Tb522 Tb 0.92882 0.30179 0.71706 0.0
O523 O 0.79899 0.12647 0.71389 0.0
O524 O 0.85071 0.21244 0.72259 0.0
O525 O 0.90391 0.17398 0.70081 0.0
C526 C 0.91769 0.40786 0.71619 0.0
O527 O 0.89425 0.26661 0.70067 0.0
C528 C 0.03029 0.28636 0.71581 0.0
C529 C 0.96628 0.25602 0.73805 0.0
O530 O 0.95919 0.39864 0.71083 0.0
O531 O 0.88214 0.35711 0.72201 0.0
O532 O 0.03348 0.33912 0.71942 0.0
O533 O 0.97413 0.24966 0.7123 0.0
O534 O 0.94946 0.29701 0.73396 0.0
O535 O 0.95419 0.20177 0.73305 0.0
C536 C 0.88766 0.04414 0.72008 0.0
O537 O 0.8564 0.06545 0.72572 0.0
O538 O 0.92684 0.0893 0.71356 0.0
C539 C 0.7979 0.17618 0.71778 0.0
Tb540 Tb 0.45429 0.27142 0.12676 0.0
C541 C 0.39209 0.21643 0.14929 0.0
Tb542 Tb 0.34175 0.13105 0.12799 0.0
O543 O 0.38961 0.30734 0.13088 0.0
O544 O 0.35378 0.22054 0.12237 0.0
O545 O 0.4453 0.25928 0.14412 0.0
C546 C 0.22406 0.02523 0.12881 0.0
O547 O 0.34224 0.16734 0.14426 0.0
C548 C 0.45852 0.14595 0.12947 0.0
C549 C 0.42464 0.17514 0.107 0.0
O550 O 0.27456 0.03446 0.13427 0.0
O551 O 0.23974 0.07587 0.12293 0.0
O552 O 0.40884 0.09321 0.12584 0.0
O553 O 0.43925 0.18291 0.13285 0.0
O554 O 0.36665 0.13498 0.11111 0.0
O555 O 0.46755 0.22932 0.11196 0.0
C556 C 0.55996 0.38774 0.12473 0.0
O557 O 0.50741 0.36637 0.11906 0.0
O558 O 0.55366 0.34283 0.13134 0.0
C559 C 0.33817 0.25764 0.12712 0.0
Tb560 Tb 0.84482 0.22903 0.12861 0.0
C561 C 0.90377 0.22772 0.15118 0.0
Tb562 Tb 0.98584 0.25937 0.12954 0.0
O563 O 0.81165 0.12932 0.13308 0.0
O564 O 0.89646 0.18055 0.12411 0.0
O565 O 0.85933 0.23544 0.14594 0.0
C566 C 0.09188 0.2479 0.13007 0.0
O567 O 0.95291 0.22725 0.14613 0.0
C568 C 0.97016 0.36062 0.13053 0.0
C569 C 0.93824 0.29464 0.10848 0.0
O570 O 0.08385 0.29032 0.13537 0.0
O571 O 0.03996 0.21162 0.12452 0.0
O572 O 1.02281 0.36346 0.12691 0.0
O573 O 0.93374 0.30495 0.13423 0.0
O574 O 0.98 0.27886 0.11261 0.0
O575 O 0.88415 0.28258 0.11356 0.0
C576 C 0.72701 0.21542 0.12658 0.0
O577 O 0.74899 0.18449 0.12103 0.0
O578 O 0.77201 0.25525 0.1331 0.0
C579 C 0.86098 0.1281 0.12902 0.0
Tb580 Tb 0.8869 0.66119 0.12597 0.0
C581 C 0.89415 0.72382 0.14847 0.0
Tb582 Tb 0.85747 0.77278 0.1272 0.0
O583 O 0.98772 0.72686 0.12997 0.0
O584 O 0.93537 0.76146 0.12154 0.0
O585 O 0.88424 0.67087 0.14329 0.0
C586 C 0.86737 0.88936 0.1285 0.0
O587 O 0.89397 0.77313 0.14346 0.0
C588 C 0.75642 0.65589 0.12869 0.0
C589 C 0.81865 0.68897 0.10623 0.0
O590 O 0.82673 0.83812 0.13382 0.0
O591 O 0.90267 0.87502 0.12242 0.0
O592 O 0.7527 0.70514 0.12507 0.0
O593 O 0.8129 0.67561 0.13207 0.0
O594 O 0.83538 0.74677 0.11033 0.0
O595 O 0.83149 0.64709 0.11115 0.0
C596 C 0.89735 0.55513 0.12451 0.0
O597 O 0.92921 0.60704 0.11874 0.0
O598 O 0.85818 0.5623 0.13086 0.0
C599 C 0.98853 0.77783 0.12623 0.0
Tb600 Tb 0.9803 0.76603 0.62807 0.0
C601 C 0.93524 0.68335 0.60701 0.0
Tb602 Tb 0.83943 0.65481 0.62679 0.0
O603 O 1.01785 0.69909 0.62576 0.0
O604 O 0.92789 0.66839 0.63279 0.0
O605 O 0.97635 0.74095 0.61118 0.0
C606 C 0.72264 0.54947 0.62488 0.0
O607 O 0.88058 0.64121 0.61193 0.0
C608 C 0.85499 0.77163 0.62722 0.0
C609 C 0.89511 0.71512 0.6494 0.0
O610 O 0.74349 0.60209 0.61928 0.0
O611 O 0.76825 0.55559 0.63133 0.0
O612 O 0.80505 0.72073 0.63105 0.0
O613 O 0.89115 0.75501 0.62243 0.0
O614 O 0.85168 0.6627 0.64413 0.0
O615 O 0.94461 0.76486 0.64444 0.0
C616 C 0.08639 0.88334 0.62909 0.0
O617 O 0.07704 0.83263 0.63444 0.0
O618 O 0.03578 0.86807 0.62318 0.0
C619 C 0.96493 0.64936 0.6293 0.0
Tb620 Tb 0.33837 0.25079 0.6282 0.0
C621 C 0.42154 0.28826 0.60717 0.0
Tb622 Tb 0.44994 0.2217 0.62708 0.0
O623 O 0.40513 0.35522 0.62583 0.0
O624 O 0.43611 0.29646 0.63297 0.0
O625 O 0.36385 0.27183 0.6113 0.0
C626 C 0.55493 0.20971 0.62512 0.0
O627 O 0.46375 0.27609 0.61216 0.0
C628 C 0.33305 0.12023 0.62754 0.0
C629 C 0.38947 0.2175 0.64965 0.0
O630 O 0.50209 0.17826 0.61952 0.0
O631 O 0.54926 0.24921 0.63161 0.0
O632 O 0.38407 0.12158 0.63143 0.0
O633 O 0.34959 0.17275 0.62267 0.0
O634 O 0.44204 0.22657 0.64442 0.0
O635 O 0.33962 0.21693 0.64463 0.0
C636 C 0.2209 0.23934 0.62906 0.0
O637 O 0.27157 0.28075 0.63446 0.0
O638 O 0.23628 0.20402 0.62321 0.0
C639 C 0.45499 0.35236 0.62943 0.0
Tb640 Tb 0.85414 0.1244 0.62774 0.0
C641 C 0.81614 0.16927 0.6067 0.0
Tb642 Tb 0.88289 0.26506 0.62654 0.0
O643 O 0.7494 0.08665 0.62545 0.0
O644 O 0.80866 0.17644 0.63253 0.0
O645 O 0.83329 0.12865 0.61084 0.0
C646 C 0.89412 0.38174 0.62472 0.0
O647 O 0.82795 0.22359 0.61166 0.0
C648 C 0.98467 0.25018 0.62695 0.0
C649 C 0.8886 0.20929 0.6491 0.0
O650 O 0.92581 0.3609 0.61909 0.0
O651 O 0.85471 0.33612 0.63116 0.0
O652 O 0.98349 0.29997 0.63077 0.0
O653 O 0.93182 0.21381 0.62216 0.0
O654 O 0.87894 0.25245 0.6439 0.0
O655 O 0.88925 0.1602 0.64409 0.0
C656 C 0.8653 0.01835 0.62874 0.0
O657 O 0.82396 0.02784 0.63409 0.0
O658 O 0.90071 0.06884 0.62285 0.0
C659 C 0.7525 0.13936 0.62906 0.0
Tb660 Tb 0.43943 0.30475 0.21755 0.0
C661 C 0.35561 0.25649 0.23854 0.0
Tb662 Tb 0.32718 0.16525 0.21807 0.0
O663 O 0.37259 0.34173 0.22017 0.0
O664 O 0.34269 0.25437 0.21223 0.0
O665 O 0.41355 0.29781 0.23447 0.0
C666 C 0.2228 0.04738 0.21797 0.0
O667 O 0.31333 0.20241 0.23344 0.0
C668 C 0.44371 0.17971 0.2182 0.0
C669 C 0.39116 0.22407 0.19578 0.0
O670 O 0.22517 0.09903 0.21409 0.0
O671 O 0.27797 0.06283 0.2224 0.0
O672 O 0.39368 0.13191 0.21373 0.0
O673 O 0.4266 0.2151 0.22311 0.0
O674 O 0.33762 0.18091 0.2008 0.0
O675 O 0.44057 0.2723 0.20102 0.0
C676 C 0.55568 0.41174 0.21659 0.0
O677 O 0.50262 0.40442 0.21236 0.0
O678 O 0.5435 0.35849 0.22139 0.0
C679 C 0.32355 0.29066 0.216 0.0
Tb680 Tb 0.79848 0.18179 0.21747 0.0
C681 C 0.84075 0.14964 0.24018 0.0
Tb682 Tb 0.94499 0.2164 0.22108 0.0
O683 O 0.7772 0.09025 0.20931 0.0
O684 O 0.85187 0.1358 0.22025 0.0
O685 O 0.79555 0.15433 0.23447 0.0
C686 C 0.05658 0.21718 0.22187 0.0
O687 O 0.90043 0.16921 0.23642 0.0
C688 C 0.93244 0.32015 0.2218 0.0
C689 C 0.89252 0.22354 0.19783 0.0
O690 O 0.03643 0.24279 0.22902 0.0
O691 O 1.0127 0.18907 0.21443 0.0
O692 O 0.98688 0.32141 0.22329 0.0
O693 O 0.89029 0.26232 0.22019 0.0
O694 O 0.93414 0.21335 0.20351 0.0
O695 O 0.84327 0.22642 0.20229 0.0
C696 C 0.68915 0.18678 0.21788 0.0
O697 O 0.69929 0.1473 0.21211 0.0
O698 O 0.74065 0.22348 0.22354 0.0
C699 C 0.82752 0.09094 0.21359 0.0
Tb700 Tb 0.92912 0.66809 0.21597 0.0
C701 C 0.95532 0.74833 0.23762 0.0
Tb702 Tb 0.89012 0.77746 0.21754 0.0
O703 O 1.02259 0.73535 0.20804 0.0
O704 O 0.97294 0.76848 0.21708 0.0
O705 O 0.94102 0.69179 0.23316 0.0
C706 C 0.88376 0.8844 0.21576 0.0
O707 O 0.94383 0.79142 0.23265 0.0
C708 C 0.78858 0.6595 0.21976 0.0
C709 C 0.89765 0.71816 0.19493 0.0
O710 O 0.88583 0.8582 0.22482 0.0
O711 O 0.88701 0.85144 0.20774 0.0
O712 O 0.78511 0.71196 0.21996 0.0
O713 O 0.84745 0.67733 0.21885 0.0
O714 O 0.90249 0.76862 0.20031 0.0
O715 O 0.8973 0.66806 0.19966 0.0
C716 C 0.92475 0.55551 0.21815 0.0
O717 O 0.97446 0.61176 0.22038 0.0
O718 O 0.87743 0.56252 0.21455 0.0
C719 C 1.01953 0.78662 0.21078 0.0
C720 C 0.50939 0.19012 0.09342 0.0
C721 C 0.44628 0.15262 0.09756 0.0
H722 H 0.58043 0.19636 0.0822 0.0
C723 C 0.40654 0.08997 0.0934 0.0
H724 H 0.54175 0.23824 0.09652 0.0
C725 C 0.42919 0.06543 0.08535 0.0
C726 C 0.49215 0.10292 0.08117 0.0
H727 H 0.35796 0.05919 0.09645 0.0
H728 H 0.39669 0.01727 0.08229 0.0
C729 C 0.53195 0.16567 0.08531 0.0
C730 C 0.91967 0.36158 0.09478 0.0
C731 C 0.95866 0.33751 0.09886 0.0
H732 H 0.91041 0.42417 0.08345 0.0
C733 C 1.02078 0.36079 0.09444 0.0
H734 H 0.87191 0.34556 0.09807 0.0
C735 C 0.04337 0.40688 0.0862 0.0
C736 C 1.00444 0.43091 0.08209 0.0
H737 H 0.05268 0.3442 0.09743 0.0
H738 H 0.09124 0.42292 0.08296 0.0
C739 C 0.94217 0.40749 0.08648 0.0
C740 C 0.70209 0.57862 0.0847 0.0
C741 C 0.67634 0.61625 0.08068 0.0
H742 H 0.7679 0.57223 0.09571 0.0
C743 C 0.69999 0.67894 0.08487 0.0
H744 H 0.68583 0.53049 0.08159 0.0
C745 C 0.74806 0.70341 0.09281 0.0
C746 C 0.77374 0.66583 0.09685 0.0
H747 H 0.68214 0.70983 0.0819 0.0
H748 H 0.76428 0.75162 0.09589 0.0
C749 C 0.75 0.60301 0.0927 0.0
C750 C 0.06252 0.40423 0.42755 0.0
C751 C 0.10181 0.46615 0.43197 0.0
H752 H 0.05433 0.33294 0.41626 0.0
C753 C 0.16637 0.50303 0.42838 0.0
H754 H 1.01301 0.37384 0.43024 0.0
C755 C 0.19055 0.47912 0.42044 0.0
C756 C 0.15084 0.41766 0.41586 0.0
H757 H 0.19863 0.55045 0.43173 0.0
H758 H 0.2399 0.50971 0.41769 0.0
C759 C 0.08667 0.38033 0.41961 0.0
C760 C 0.67951 0.6863 0.42677 0.0
C761 C 0.61662 0.66154 0.43095 0.0
H762 H 0.75172 0.75187 0.41587 0.0
C763 C 0.57813 0.68668 0.42709 0.0
H764 H 0.71107 0.66896 0.42963 0.0
C765 C 0.60188 0.73504 0.4192 0.0
C766 C 0.66487 0.75978 0.41504 0.0
H767 H 0.52984 0.66955 0.43023 0.0
H768 H 0.57047 0.75242 0.41628 0.0
C769 C 0.70336 0.73486 0.41896 0.0
C770 C 0.35174 0.99516 0.41824 0.0
C771 C 0.3298 0.93381 0.41359 0.0
H772 H 0.41229 0.06496 0.42995 0.0
C773 C 0.35456 0.89531 0.41763 0.0
H774 H 0.33463 0.02675 0.41532 0.0
C775 C 0.39986 0.91764 0.42609 0.0
C776 C 0.42211 0.97932 0.43065 0.0
H777 H 0.33968 0.84823 0.41418 0.0
H778 H 0.41728 0.8864 0.42906 0.0
C779 C 0.39723 0.01759 0.42659 0.0
C780 C 0.57938 0.93384 0.92665 0.0
C781 C 0.61707 0.99707 0.93072 0.0
H782 H 0.57281 0.8622 0.91554 0.0
C783 C 0.67962 0.03656 0.92649 0.0
H784 H 0.53136 0.90163 0.92979 0.0
C785 C 0.70393 1.01348 0.91845 0.0
C786 C 0.6663 0.95032 0.91437 0.0
H787 H 0.71055 0.08524 0.92948 0.0
H788 H 0.75203 0.04574 0.91534 0.0
C789 C 0.60359 0.91085 0.91856 0.0
C790 C 0.19236 0.7472 0.92054 0.0
C791 C 0.15193 0.76766 0.91581 0.0
H792 H 0.2016 0.68558 0.93202 0.0
C793 C 0.08739 0.73962 0.91938 0.0
H794 H 0.24217 0.76715 0.91795 0.0
C795 C 0.06373 0.69188 0.92736 0.0
C796 C 0.10396 0.6709 0.932 0.0
H797 H 0.05453 0.75353 0.91586 0.0
H798 H 1.0139 0.67185 0.92994 0.0
C799 C 0.16871 0.69948 0.92852 0.0
C800 C 0.40111 0.41901 0.92685 0.0
C801 C 0.43021 0.48336 0.93054 0.0
H802 H 0.33356 0.34705 0.91605 0.0
C803 C 0.41088 0.52479 0.92586 0.0
H804 H 0.41382 0.38525 0.93035 0.0
C805 C 0.36418 0.50258 0.91766 0.0
C806 C 0.33502 0.43815 0.914 0.0
H807 H 0.43157 0.57442 0.92857 0.0
H808 H 0.35147 0.53622 0.91411 0.0
C809 C 0.35407 0.39669 0.91874 0.0
C810 C 1.01986 0.69925 0.59342 0.0
C811 C 0.95711 0.66062 0.59763 0.0
H812 H 0.09204 0.70679 0.58238 0.0
C813 C 0.91885 0.59724 0.59365 0.0
H814 H 0.05119 0.74798 0.59636 0.0
C815 C 0.94269 0.57324 0.58567 0.0
C816 C 1.00555 0.61185 0.58149 0.0
H817 H 0.87064 0.56567 0.59678 0.0
H818 H 0.91142 0.52454 0.58271 0.0
C819 C 0.04376 0.67517 0.58549 0.0
C820 C 0.53051 0.40202 0.58528 0.0
C821 C 0.49215 0.42651 0.58108 0.0
H822 H 0.5382 0.33855 0.59661 0.0
C823 C 0.42947 0.40301 0.58529 0.0
H824 H 0.57869 0.41824 0.58217 0.0
C825 C 0.40574 0.35632 0.59343 0.0
C826 C 0.44406 0.33189 0.59765 0.0
H827 H 0.39804 0.41993 0.5822 0.0
H828 H 0.3575 0.34014 0.59651 0.0
C829 C 0.50686 0.3555 0.59348 0.0
C830 C 0.74857 0.08453 0.59303 0.0
C831 C 0.7721 0.14722 0.59721 0.0
H832 H 0.68524 1.01219 0.58188 0.0
C833 C 0.74717 0.18521 0.59304 0.0
H834 H 0.76581 0.05337 0.59611 0.0
C835 C 0.70019 0.16119 0.58488 0.0
C836 C 0.67656 0.09837 0.58074 0.0
H837 H 0.7634 0.23338 0.59614 0.0
H838 H 0.68292 0.19224 0.58176 0.0
C839 C 0.70141 0.06042 0.58494 0.0
C840 C 0.86668 0.8275 0.75214 0.0
C841 C 0.82707 0.76494 0.74792 0.0
H842 H 0.87617 0.89937 0.76347 0.0
C843 C 0.7641 0.72707 0.75208 0.0
H844 H 0.91516 0.85847 0.74906 0.0
C845 C 0.74126 0.75105 0.76019 0.0
C846 C 0.78083 0.8135 0.76444 0.0
H847 H 0.73174 0.67903 0.74896 0.0
H848 H 0.6927 0.71999 0.76324 0.0
C849 C 0.84393 0.85139 0.76032 0.0
C850 C 0.35665 0.02259 0.76042 0.0
C851 C 0.29379 0.99755 0.76463 0.0
H852 H 0.42779 0.08675 0.74921 0.0
C853 C 0.25416 0.02061 0.76044 0.0
H854 H 0.38905 1.00686 0.76351 0.0
C855 C 0.27674 0.0672 0.75225 0.0
C856 C 0.33973 0.09234 0.74807 0.0
H857 H 0.20577 1.00322 0.76356 0.0
H858 H 0.24445 0.083 0.74913 0.0
C859 C 0.37931 0.06934 0.75228 0.0
C860 C 0.03502 0.34038 0.75168 0.0
C861 C 1.0109 0.27775 0.74745 0.0
H862 H 0.09979 0.41249 0.76274 0.0
C863 C 0.03611 0.23954 0.75142 0.0
H864 H 1.01757 0.37168 0.74875 0.0
C865 C 0.08405 0.26335 0.75941 0.0
C866 C 0.10834 0.32613 0.7636 0.0
H867 H 1.01946 0.19141 0.74826 0.0
H868 H 0.10159 0.23216 0.76236 0.0
C869 C 0.08312 0.36427 0.75962 0.0
C870 C 0.2472 0.26409 0.26039 0.0
C871 C 0.28685 0.32653 0.26468 0.0
H872 H 0.2377 0.19245 0.24895 0.0
C873 C 0.35018 0.3639 0.26063 0.0
H874 H 0.19847 0.23341 0.26339 0.0
C875 C 0.37316 0.33984 0.25253 0.0
C876 C 0.3335 0.27772 0.24815 0.0
H877 H 0.3827 0.41176 0.26379 0.0
H878 H 0.42197 0.37078 0.24958 0.0
C879 C 0.2701 0.24013 0.2522 0.0
C880 C 0.73092 0.02499 0.26064 0.0
C881 C 0.77326 1.00768 0.26558 0.0
H882 H 0.71904 0.08442 0.24903 0.0
C883 C 0.83902 0.04094 0.26259 0.0
H884 H 0.68015 1.00124 0.26284 0.0
C885 C 0.86165 0.08961 0.25478 0.0
C886 C 0.81909 0.10623 0.24971 0.0
H887 H 0.87345 0.03004 0.26637 0.0
H888 H 0.91239 0.11315 0.25256 0.0
C889 C 0.7535 0.07357 0.25281 0.0
C890 C 1.02412 0.83262 0.25137 0.0
C891 C 0.99871 0.76966 0.24719 0.0
H892 H 0.08999 0.90419 0.26244 0.0
C893 C 1.02215 0.73026 0.25132 0.0
H894 H 1.00787 0.86468 0.24833 0.0
C895 C 0.07027 0.7534 0.25926 0.0
C896 C 0.0962 0.81654 0.26336 0.0
H897 H 1.0044 0.68171 0.24827 0.0
H898 H 0.08659 0.7213 0.26224 0.0
C899 C 0.07209 0.85568 0.25936 0.0
C900 C 0.50314 0.99476 0.01131 0.0
C901 C 0.55126 0.04666 0.01728 0.0
H902 H 0.46627 0.95547 0.99576 0.0
C903 C 0.6002 0.10033 0.01174 0.0
H904 H 0.46454 0.95282 0.0153 0.0
C905 C 0.60099 0.1021 1.00051 0.0
C906 C 0.55292 0.05019 0.99455 0.0
H907 H 0.63794 0.14139 0.01605 0.0
H908 H 0.63964 0.14404 0.99653 0.0
C909 C 0.50395 0.99652 1.00008 0.0
C910 C 0.10448 0.55303 1.00087 0.0
C911 C 0.05046 0.54869 0.99546 0.0
H912 H 0.14913 0.55637 0.01597 0.0
C913 C 0.99893 0.54456 1.00156 0.0
H914 H 0.14527 0.55657 0.99644 0.0
C915 C 1.0014 0.54486 0.01279 0.0
C916 C 0.05543 0.54922 0.01819 0.0
H917 H 0.95674 0.54152 0.99768 0.0
H918 H 0.96061 0.54131 0.01721 0.0
C919 C 0.10695 0.55333 0.01209 0.0
C920 C 0.54839 0.59721 0.01113 0.0
C921 C 0.55353 0.54985 0.01706 0.0
H922 H 0.54333 0.63279 0.99561 0.0
C923 C 0.55778 0.50076 0.01148 0.0
H924 H 0.54534 0.6359 0.01514 0.0
C925 C 0.557 0.49914 1.00024 0.0
C926 C 0.55189 0.54653 0.99431 0.0
H927 H 0.5621 0.4636 0.01577 0.0
H928 H 0.56006 0.46047 0.99623 0.0
C929 C 0.54762 0.59559 0.9999 0.0
C930 C 0.10581 0.58917 0.51174 0.0
C931 C 0.05838 0.53932 0.51811 0.0
H932 H 0.13912 0.62433 0.49585 0.0
C933 C 1.00726 0.48514 0.51301 0.0
H934 H 0.14561 0.63175 0.51541 0.0
C935 C 1.00331 0.481 0.50183 0.0
C936 C 0.05033 0.53098 0.49544 0.0
H937 H 0.96976 0.4458 0.51764 0.0
H938 H 0.96319 0.43846 0.49821 0.0
C939 C 0.10175 0.5851 0.50052 0.0
C940 C 0.5099 0.54605 0.49997 0.0
C941 C 0.55897 0.5414 0.49443 0.0
H942 H 0.47023 0.5504 0.51514 0.0
C943 C 0.60711 0.53777 0.50042 0.0
H944 H 0.47208 0.54922 0.49565 0.0
C945 C 0.60615 0.53879 0.51166 0.0
C946 C 0.55703 0.54346 0.51718 0.0
H947 H 0.64581 0.53454 0.49643 0.0
H948 H 0.64384 0.53555 0.51601 0.0
C949 C 0.50898 0.54713 0.51119 0.0
C950 C 0.54673 0.98556 0.51107 0.0
C951 C 0.55358 0.0389 0.51697 0.0
H952 H 0.53859 0.94337 0.49557 0.0
C953 C 0.55777 0.09209 0.51135 0.0
H954 H 0.54363 0.94388 0.51511 0.0
C955 C 0.55524 0.09199 0.50013 0.0
C956 C 0.54834 0.03864 0.49423 0.0
H957 H 0.56334 0.13419 0.51561 0.0
H958 H 0.55837 0.1337 0.4961 0.0
C959 C 0.54414 0.98543 0.49984 0.0
C960 C 0.17494 0.33314 0.33387 0.0
C961 C 0.22385 0.38726 0.32844 0.0
H962 H 0.13418 0.28844 0.34891 0.0
C963 C 0.2703 0.43978 0.33455 0.0
H964 H 0.13837 0.29162 0.32948 0.0
C965 C 0.26791 0.4379 0.34583 0.0
C966 C 0.21916 0.38337 0.35123 0.0
H967 H 0.3088 0.48218 0.33064 0.0
H968 H 0.30432 0.47913 0.35029 0.0
C969 C 0.17271 0.33118 0.34508 0.0
C970 C 0.77242 0.88479 0.34545 0.0
C971 C 0.71968 0.87906 0.3514 0.0
H972 H 0.81295 0.89024 0.32991 0.0
C973 C 0.66574 0.87386 0.34584 0.0
H974 H 0.81457 0.88851 0.34945 0.0
C975 C 0.66458 0.87443 0.33462 0.0
C976 C 0.71736 0.88029 0.32867 0.0
H977 H 0.62406 0.86906 0.35015 0.0
H978 H 0.62241 0.87073 0.33063 0.0
C979 C 0.77126 0.88536 0.33422 0.0
C980 C 0.23352 0.83914 0.33244 0.0
C981 C 0.22455 0.88417 0.32653 0.0
H982 H 0.24063 0.80493 0.34794 0.0
C983 C 0.21624 0.93093 0.33209 0.0
H984 H 0.23983 0.80236 0.32842 0.0
C985 C 0.21627 0.9322 0.34332 0.0
C986 C 0.22491 0.88694 0.34921 0.0
H987 H 0.20891 0.96625 0.3278 0.0
H988 H 0.2097 0.96875 0.34736 0.0
C989 C 0.23373 0.84053 0.34365 0.0
C990 C 0.67229 0.83275 0.83408 0.0
C991 C 0.72541 0.87948 0.82818 0.0
H992 H 0.63069 0.79822 0.84958 0.0
C993 C 0.77892 0.92846 0.83378 0.0
H994 H 0.63039 0.79417 0.83006 0.0
C995 C 0.7793 0.93063 0.84501 0.0
C996 C 0.72614 0.88392 0.85091 0.0
H997 H 0.82087 0.96515 0.82951 0.0
H998 H 0.82115 0.96922 0.84904 0.0
C999 C 0.67266 0.83492 0.84531 0.0
C1000 C 0.27606 0.88012 0.8462 0.0
C1001 C 0.22451 0.88207 0.85137 0.0
H1002 H 0.3197 0.87853 0.83121 0.0
C1003 C 0.1763 0.88339 0.84503 0.0
H1004 H 0.31378 0.87854 0.85083 0.0
C1005 C 0.1794 0.88283 0.83384 0.0
C1006 C 0.23086 0.88102 0.82863 0.0
H1007 H 0.13563 0.88452 0.84869 0.0
H1008 H 0.14129 0.88413 0.82928 0.0
C1009 C 0.27921 0.87962 0.83494 0.0
C1010 C 0.23871 0.43377 0.83286 0.0
C1011 C 0.23637 0.3827 0.8269 0.0
H1012 H 0.23986 0.47239 0.84835 0.0
C1013 C 0.23469 0.33033 0.83243 0.0
H1014 H 0.23981 0.47473 0.82889 0.0
C1015 C 0.23456 0.3288 0.84367 0.0
C1016 C 0.23593 0.37952 0.84961 0.0
H1017 H 0.23272 0.29003 0.82808 0.0
H1018 H 0.23301 0.28775 0.84768 0.0
C1019 C 0.23833 0.43214 0.84406 0.0
C1020 C 0.84079 0.65916 0.67798 0.0
C1021 C 0.88874 0.71076 0.68401 0.0
H1022 H 0.80465 0.62038 0.66237 0.0
C1023 C 0.93818 0.76445 0.67854 0.0
H1024 H 0.80182 0.61723 0.68191 0.0
C1025 C 0.93963 0.7665 0.66732 0.0
C1026 C 0.89173 0.71488 0.66129 0.0
H1027 H 0.97581 0.80528 0.68292 0.0
H1028 H 0.97863 0.80843 0.66339 0.0
C1029 C 0.84225 0.66121 0.66675 0.0
C1030 C 0.33733 0.20938 0.66756 0.0
C1031 C 0.38946 0.21411 0.66155 0.0
H1032 H 0.29772 0.20506 0.68315 0.0
C1033 C 0.44326 0.21865 0.66706 0.0
H1034 H 0.29528 0.20615 0.6636 0.0
C1035 C 0.44489 0.21843 0.67829 0.0
C1036 C 0.39273 0.21359 0.6843 0.0
H1037 H 0.48449 0.22267 0.66271 0.0
H1038 H 0.48694 0.22161 0.68224 0.0
C1039 C 0.33896 0.20914 0.67879 0.0
C1040 C 0.89663 0.16474 0.66694 0.0
C1041 C 0.89202 0.21236 0.661 0.0
H1042 H 0.90026 0.12846 0.68247 0.0
C1043 C 0.88722 0.26118 0.66656 0.0
H1044 H 0.90005 0.12622 0.66293 0.0
C1045 C 0.88694 0.26228 0.67779 0.0
C1046 C 0.89152 0.21463 0.68373 0.0
H1047 H 0.88327 0.29852 0.66225 0.0
H1048 H 0.88351 0.30077 0.6818 0.0
C1049 C 0.89634 0.16583 0.67817 0.0
C1050 C 0.33879 0.17343 0.17824 0.0
C1051 C 0.3924 0.22181 0.1839 0.0
H1052 H 0.29618 0.13419 0.16295 0.0
C1053 C 0.44539 0.26923 0.17806 0.0
H1054 H 0.29692 0.13622 0.18246 0.0
C1055 C 0.44478 0.2682 0.16682 0.0
C1056 C 0.39116 0.21971 0.16117 0.0
H1057 H 0.48731 0.30737 0.18215 0.0
H1058 H 0.48664 0.30526 0.16258 0.0
C1059 C 0.33815 0.17243 0.16702 0.0
C1060 C 0.8536 0.23308 0.16855 0.0
C1061 C 0.90131 0.22576 0.16312 0.0
H1062 H 0.81407 0.23922 0.18359 0.0
C1063 C 0.94759 0.21943 0.16924 0.0
H1064 H 0.81731 0.23848 0.16415 0.0
C1065 C 0.94582 0.22003 0.18051 0.0
C1066 C 0.89787 0.22721 0.18591 0.0
H1067 H 0.98522 0.21401 0.16533 0.0
H1068 H 0.9817 0.21428 0.18497 0.0
C1069 C 0.85199 0.23392 0.17976 0.0
C1070 C 0.90119 0.77555 0.16637 0.0
C1071 C 0.89836 0.72437 0.16034 0.0
H1072 H 0.90257 0.81358 0.18199 0.0
C1073 C 0.89556 0.67138 0.16579 0.0
H1074 H 0.90312 0.81698 0.16243 0.0
C1075 C 0.89481 0.66919 0.17699 0.0
C1076 C 0.89694 0.71998 0.18304 0.0
H1077 H 0.8932 0.63098 0.16142 0.0
H1078 H 0.89247 0.62748 0.1809 0.0
C1079 C 0.90047 0.77337 0.1776 0.0
C1080 C 0.62261 0.91535 0.04314 0.0
C1081 C 0.58307 0.92524 0.05036 0.0
H1082 H 0.65266 0.85048 0.03715 0.0
C1083 C 0.53988 0.87375 0.05693 0.0
H1084 H 0.65616 0.95405 0.03793 0.0
C1085 C 0.53778 0.81387 0.05645 0.0
C1086 C 0.57896 0.80499 0.04941 0.0
H1087 H 0.50942 0.88031 0.06265 0.0
H1088 H 0.50523 0.77517 0.06175 0.0
C1089 C 0.62059 0.85598 0.04267 0.0
C1090 C 0.23033 0.70807 0.05766 0.0
C1091 C 0.17792 0.69987 0.05132 0.0
H1092 H 0.32974 0.77189 0.06218 0.0
C1093 C 0.18695 0.74939 0.04419 0.0
H1094 H 0.22445 0.67097 0.0633 0.0
C1095 C 0.24643 0.80672 0.04359 0.0
C1096 C 0.29837 0.81597 0.05011 0.0
H1097 H 0.14753 0.74432 0.03915 0.0
H1098 H 0.25128 0.84435 0.03815 0.0
C1099 C 0.2903 0.76583 0.05705 0.0
C1100 C 0.33945 0.56685 0.05688 0.0
C1101 C 0.28841 0.52524 0.05001 0.0
H1102 H 0.43507 0.59543 0.06279 0.0
C1103 C 0.29678 0.48292 0.04328 0.0
H1104 H 0.33408 0.59991 0.06217 0.0
C1105 C 0.35416 0.48072 0.04359 0.0
C1106 C 0.40462 0.52078 0.05064 0.0
H1107 H 0.25843 0.45049 0.03788 0.0
H1108 H 0.35857 0.44667 0.03839 0.0
C1109 C 0.39725 0.56458 0.0572 0.0
C1110 C 0.90611 0.57007 0.46556 0.0
C1111 C 0.92066 0.55241 0.45561 0.0
H1112 H 0.84009 0.58823 0.47456 0.0
C1113 C 0.87776 0.53784 0.44698 0.0
H1114 H 0.93874 0.58163 0.47234 0.0
C1115 C 0.82044 0.54001 0.44834 0.0
C1116 C 0.80637 0.55849 0.45827 0.0
H1117 H 0.88812 0.524 0.43926 0.0
H1118 H 0.78764 0.52823 0.44159 0.0
C1119 C 0.84988 0.5739 0.46684 0.0
C1120 C 0.48536 0.28065 0.4688 0.0
C1121 C 0.52537 0.27003 0.46184 0.0
H1122 H 0.4521 0.34463 0.47382 0.0
C1123 C 0.56622 0.3197 0.45472 0.0
H1124 H 0.45358 0.2435 0.4744 0.0
C1125 C 0.56548 0.37832 0.45438 0.0
C1126 C 0.52376 0.38779 0.46115 0.0
H1127 H 0.59763 0.31273 0.44927 0.0
H1128 H 0.59585 0.41511 0.44863 0.0
C1129 C 0.48452 0.33868 0.46844 0.0
C1130 C 0.76611 0.26735 0.4555 0.0
C1131 C 0.81523 0.27412 0.46262 0.0
H1132 H 0.67074 0.20357 0.4491 0.0
C1133 C 0.8036 0.22218 0.4693 0.0
H1134 H 0.77392 0.3069 0.45027 0.0
C1135 C 0.74511 0.16386 0.46865 0.0
C1136 C 0.69666 0.15595 0.46132 0.0
H1137 H 0.84029 0.22606 0.47489 0.0
H1138 H 0.73834 0.1243 0.47379 0.0
C1139 C 0.70705 0.20854 0.45486 0.0
C1140 C 0.56803 0.28293 0.955 0.0
C1141 C 0.52659 0.29199 0.96195 0.0
H1142 H 0.5968 0.21639 0.94899 0.0
C1143 C 0.48479 0.24117 0.96871 0.0
H1144 H 0.60075 0.32149 0.94969 0.0
C1145 C 0.48287 0.18181 0.96834 0.0
C1146 C 0.52272 0.17176 0.96121 0.0
H1147 H 0.45252 0.24679 0.97416 0.0
H1148 H 0.44918 0.14326 0.97356 0.0
C1149 C 0.56607 0.22308 0.95463 0.0
C1150 C 0.91748 0.3479 0.96897 0.0
C1151 C 0.92743 0.39803 0.96191 0.0
H1152 H 0.85256 0.25225 0.97467 0.0
C1153 C 0.87603 0.39012 0.95532 0.0
H1154 H 0.95613 0.35271 0.97418 0.0
C1155 C 0.81615 0.33213 0.95564 0.0
C1156 C 0.80719 0.28143 0.96251 0.0
H1157 H 0.88267 0.42765 0.94972 0.0
H1158 H 0.77751 0.32635 0.95033 0.0
C1159 C 0.85812 0.29032 0.96927 0.0
C1160 C 0.7095 0.5322 0.95496 0.0
C1161 C 0.70074 0.57548 0.96143 0.0
H1162 H 0.77378 0.4973 0.95045 0.0
C1163 C 0.74938 0.61455 0.96883 0.0
H1164 H 0.67307 0.50207 0.94912 0.0
C1165 C 0.80655 0.61215 0.96955 0.0
C1166 C 0.81654 0.57064 0.96289 0.0
H1167 H 0.74383 0.64811 0.97397 0.0
H1168 H 0.84358 0.64398 0.97519 0.0
C1169 C 0.76714 0.52976 0.9557 0.0
C1170 C 0.29394 0.56305 0.55677 0.0
C1171 C 0.30226 0.52151 0.54974 0.0
H1172 H 0.22757 0.59089 0.56322 0.0
C1173 C 0.25033 0.47886 0.54321 0.0
H1174 H 0.33336 0.59637 0.56191 0.0
C1175 C 0.19058 0.47607 0.54393 0.0
C1176 C 0.18126 0.51588 0.55117 0.0
H1177 H 0.25538 0.44649 0.5377 0.0
H1178 H 0.15114 0.44167 0.5389 0.0
C1179 C 0.23369 0.56021 0.55749 0.0
C1180 C 0.54299 0.70368 0.55701 0.0
C1181 C 0.58639 0.69554 0.55046 0.0
H1182 H 0.50791 0.76733 0.56181 0.0
C1183 C 0.62603 0.74511 0.54327 0.0
H1184 H 0.51249 0.66658 0.56271 0.0
C1185 C 0.62379 0.80236 0.5428 0.0
C1186 C 0.58186 0.81151 0.54951 0.0
H1187 H 0.65977 0.74012 0.53808 0.0
H1188 H 0.6559 0.84001 0.5373 0.0
C1189 C 0.54068 0.76136 0.55653 0.0
C1190 C 0.39924 0.8694 0.55707 0.0
C1191 C 0.40671 0.92028 0.55043 0.0
H1192 H 0.33612 0.771 0.56208 0.0
C1193 C 0.35667 0.90946 0.54325 0.0
H1194 H 0.43677 0.87672 0.56276 0.0
C1195 C 0.29951 0.84975 0.5429 0.0
C1196 C 0.29096 0.79937 0.54973 0.0
H1197 H 0.36119 0.94768 0.53799 0.0
H1198 H 0.26143 0.84351 0.53742 0.0
C1199 C 0.34164 0.8092 0.55672 0.0
C1200 C 0.28325 0.18284 0.37537 0.0
C1201 C 0.24057 0.13139 0.38194 0.0
H1202 H 0.31932 0.28126 0.37078 0.0
C1203 C 0.19759 0.13917 0.38868 0.0
H1204 H 0.31658 0.17798 0.37005 0.0
C1205 C 0.19921 0.19869 0.38912 0.0
C1206 C 0.24368 0.25075 0.38279 0.0
H1207 H 0.16416 0.09998 0.39383 0.0
H1208 H 0.16761 0.20465 0.39467 0.0
C1209 C 0.28478 0.24191 0.37579 0.0
C1210 C 0.89933 0.14672 0.38048 0.0
C1211 C 0.9555 0.15052 0.38477 0.0
H1212 H 0.79841 0.08712 0.37715 0.0
C1213 C 0.95185 0.09509 0.38944 0.0
H1214 H 0.90087 0.18872 0.37684 0.0
C1215 C 0.89234 0.03682 0.3899 0.0
C1216 C 0.83636 0.03278 0.38539 0.0
H1217 H 0.99461 0.09716 0.39291 0.0
H1218 H 0.89018 0.99547 0.39384 0.0
C1219 C 0.84067 0.0884 0.38067 0.0
C1220 C 1.00092 0.89441 0.39028 0.0
C1221 C 0.94942 0.85277 0.38348 0.0
H1222 H 0.0969 0.92281 0.39604 0.0
C1223 C 0.95704 0.80985 0.37679 0.0
H1224 H 0.99614 0.92798 0.39554 0.0
C1225 C 1.01409 0.80708 0.37707 0.0
C1226 C 0.06512 0.84733 0.38401 0.0
H1227 H 0.91835 0.77736 0.37145 0.0
H1228 H 1.01788 0.77257 0.37189 0.0
C1229 C 0.05858 0.89176 0.39053 0.0
C1230 C 0.4947 0.86242 0.78907 0.0
C1231 C 0.48618 0.90401 0.79605 0.0
H1232 H 0.56105 0.83402 0.78283 0.0
C1233 C 0.53771 0.94635 0.80268 0.0
H1234 H 0.45557 0.82934 0.78386 0.0
C1235 C 0.59726 0.94863 0.80213 0.0
C1236 C 0.60675 0.90863 0.79496 0.0
H1237 H 0.53247 0.97875 0.80815 0.0
H1238 H 0.63638 0.98269 0.80725 0.0
C1239 C 0.55476 0.86479 0.78851 0.0
C1240 C 0.24539 0.7208 0.78835 0.0
C1241 C 0.20201 0.72823 0.79502 0.0
H1242 H 0.28035 0.65766 0.78319 0.0
C1243 C 0.16227 0.67779 0.80207 0.0
H1244 H 0.276 0.7586 0.78276 0.0
C1245 C 0.16443 0.62043 0.80228 0.0
C1246 C 0.20634 0.61202 0.79543 0.0
H1247 H 0.12854 0.68221 0.80735 0.0
H1248 H 0.13228 0.58213 0.80768 0.0
C1249 C 0.24758 0.66301 0.78856 0.0
C1250 C 0.44583 0.61498 0.78837 0.0
C1251 C 0.49578 0.62341 0.79542 0.0
H1252 H 0.35171 0.5485 0.78184 0.0
C1253 C 0.48679 0.57144 0.80187 0.0
H1254 H 0.45169 0.65442 0.78329 0.0
C1255 C 0.43005 0.51159 0.80107 0.0
C1256 C 0.38081 0.5022 0.79382 0.0
H1257 H 0.52428 0.57655 0.80739 0.0
H1258 H 0.42525 0.47216 0.80605 0.0
C1259 C 0.38861 0.55464 0.78757 0.0
C1260 C 0.15437 0.5177 0.30156 0.0
C1261 C 0.19398 0.50685 0.2945 0.0
H1262 H 0.12392 0.58312 0.30712 0.0
C1263 C 0.23675 0.55739 0.28772 0.0
H1264 H 0.12112 0.47982 0.30692 0.0
C1265 C 0.23835 0.61715 0.28785 0.0
C1266 C 0.19717 0.62698 0.29474 0.0
H1267 H 0.26734 0.55015 0.28213 0.0
H1268 H 0.27065 0.65506 0.28241 0.0
C1269 C 0.15597 0.57696 0.30169 0.0
C1270 C 0.48659 0.66622 0.28885 0.0
C1271 C 0.47791 0.61597 0.29581 0.0
H1272 H 0.5528 0.76157 0.28281 0.0
C1273 C 0.52897 0.62544 0.30258 0.0
H1274 H 0.44783 0.66 0.28353 0.0
C1275 C 0.5882 0.68311 0.30221 0.0
C1276 C 0.59789 0.73279 0.29507 0.0
H1277 H 0.52363 0.58774 0.30805 0.0
H1278 H 0.62694 0.68832 0.30744 0.0
C1279 C 0.54634 0.72436 0.28847 0.0
C1280 C 0.37942 0.86654 0.28754 0.0
C1281 C 0.37044 0.9103 0.29383 0.0
H1282 H 0.44367 0.83096 0.28337 0.0
C1283 C 0.41851 0.94933 0.30132 0.0
H1284 H 0.34344 0.83638 0.28164 0.0
C1285 C 0.47536 0.94652 0.30228 0.0
C1286 C 0.48568 0.90464 0.29577 0.0
H1287 H 0.41278 0.98324 0.30634 0.0
H1288 H 0.51197 0.97838 0.30797 0.0
C1289 C 0.43679 0.86372 0.28851 0.0
C1290 C 0.95287 0.89306 0.89107 0.0
C1291 C 0.95916 0.84761 0.88472 0.0
H1292 H 0.88982 0.92818 0.89633 0.0
C1293 C 0.90652 0.80398 0.87842 0.0
H1294 H 0.99294 0.92738 0.896 0.0
C1295 C 0.84852 0.80495 0.87852 0.0
C1296 C 0.84138 0.84943 0.88496 0.0
H1297 H 0.90997 0.76868 0.8734 0.0
H1298 H 0.80884 0.77017 0.87357 0.0
C1299 C 0.89419 0.89386 0.89122 0.0
C1300 C 0.19794 0.09612 0.88151 0.0
C1301 C 0.24756 0.15202 0.88644 0.0
H1302 H 0.15801 0.99432 0.87866 0.0
C1303 C 0.29278 0.14708 0.89301 0.0
H1304 H 0.16239 0.09886 0.87644 0.0
C1305 C 0.28917 0.08748 0.89454 0.0
C1306 C 0.24111 0.03182 0.88933 0.0
H1307 H 0.33112 0.18942 0.89699 0.0
H1308 H 0.32528 0.08545 0.89957 0.0
C1309 C 0.19522 0.03645 0.88284 0.0
C1310 C 1.00719 0.14812 0.89004 0.0
C1311 C 0.95619 0.13848 0.88312 0.0
H1312 H 0.10348 0.21516 0.8958 0.0
C1313 C 0.96497 0.18872 0.87625 0.0
H1314 H 1.00159 0.10993 0.89541 0.0
C1315 C 1.02247 0.24806 0.87648 0.0
C1316 C 0.07289 0.25887 0.88358 0.0
H1317 H 0.92679 0.1827 0.87081 0.0
H1318 H 0.02694 0.28605 0.87116 0.0
C1319 C 0.06536 0.20807 0.89026 0.0
C1320 C 0.87366 0.47722 0.72319 0.0
C1321 C 0.91518 0.46849 0.71621 0.0
H1322 H 0.84499 0.54353 0.72934 0.0
C1323 C 0.95716 0.51964 0.70952 0.0
H1324 H 0.84083 0.43841 0.72844 0.0
C1325 C 0.95916 0.579 0.70999 0.0
C1326 C 0.91924 0.58873 0.71715 0.0
H1327 H 0.9895 0.51425 0.70405 0.0
H1328 H 0.99296 0.61781 0.70482 0.0
C1329 C 0.87573 0.5371 0.72367 0.0
C1330 C 0.56595 0.37097 0.72399 0.0
C1331 C 0.51372 0.36296 0.71762 0.0
H1332 H 0.66524 0.43464 0.7286 0.0
C1333 C 0.52294 0.41278 0.71054 0.0
H1334 H 0.55993 0.33366 0.7296 0.0
C1335 C 0.58243 0.47014 0.71002 0.0
C1336 C 0.63422 0.47916 0.71656 0.0
H1337 H 0.48366 0.40788 0.70548 0.0
H1338 H 0.58743 0.50797 0.70461 0.0
C1339 C 0.62594 0.42877 0.72345 0.0
C1340 C 0.67497 0.23006 0.72324 0.0
C1341 C 0.6244 0.18883 0.71627 0.0
H1342 H 0.77017 0.25826 0.72931 0.0
C1343 C 0.63323 0.14695 0.7095 0.0
H1344 H 0.66923 0.26279 0.72856 0.0
C1345 C 0.69057 0.14472 0.70989 0.0
C1346 C 0.7405 0.18432 0.71705 0.0
H1347 H 0.59523 0.11483 0.70402 0.0
H1348 H 0.69532 0.11097 0.70466 0.0
C1349 C 0.73274 0.22776 0.72364 0.0
C1350 C 0.21995 0.20553 0.12194 0.0
C1351 C 0.27278 0.24956 0.12822 0.0
H1352 H 0.12025 0.17014 0.11764 0.0
C1353 C 0.26424 0.28988 0.13547 0.0
H1354 H 0.22547 0.17448 0.11621 0.0
C1355 C 0.20487 0.28781 0.13623 0.0
C1356 C 0.1525 0.24532 0.12977 0.0
H1357 H 0.30398 0.32408 0.14047 0.0
H1358 H 0.20041 0.3205 0.14175 0.0
C1359 C 0.16004 0.20335 0.12273 0.0
C1360 C 0.91032 0.06244 0.12231 0.0
C1361 C 0.86768 0.06976 0.12919 0.0
H1362 H 0.94391 0.99899 0.11671 0.0
C1363 C 0.82757 0.01862 0.13609 0.0
H1364 H 0.94117 0.10078 0.11682 0.0
C1365 C 0.82873 0.96075 0.13598 0.0
C1366 C 0.87005 0.95256 0.12895 0.0
H1367 H 0.79435 0.02292 0.14151 0.0
H1368 H 0.7964 0.92197 0.14129 0.0
C1369 C 0.91157 1.00416 0.12221 0.0
C1370 C 0.15179 0.91278 0.1352 0.0
C1371 C 0.16095 0.9644 0.12864 0.0
H1372 H 0.08984 0.81392 0.13958 0.0
C1373 C 0.11088 0.95584 0.12161 0.0
H1374 H 0.18935 0.918 0.14072 0.0
C1375 C 0.05336 0.89567 0.12093 0.0
C1376 C 0.04541 0.84354 0.12728 0.0
H1377 H 0.11686 0.99504 0.11645 0.0
H1378 H 1.01633 0.8894 0.11521 0.0
C1379 C 0.09476 0.8531 0.13452 0.0
C1380 C 0.90678 0.88855 0.62142 0.0
C1381 C 0.86319 0.83716 0.62796 0.0
H1382 H 0.94193 0.98715 0.61655 0.0
C1383 C 0.82341 0.84725 0.6351 0.0
H1384 H 0.93742 0.88183 0.61576 0.0
C1385 C 0.82562 0.90673 0.63551 0.0
C1386 C 0.86767 0.95764 0.62879 0.0
H1387 H 0.78954 0.80863 0.64029 0.0
H1388 H 0.79337 0.91238 0.64097 0.0
C1389 C 0.90906 0.94854 0.62184 0.0
C1390 C 0.25758 1.01319 0.63547 0.0
C1391 C 0.26752 0.06279 0.62828 0.0
H1392 H 0.19256 0.91808 0.64137 0.0
C1393 C 0.216 0.0546 0.62171 0.0
H1394 H 0.29631 0.01826 0.64069 0.0
C1395 C 0.15601 0.99676 0.62214 0.0
C1396 C 0.14708 0.94654 0.62912 0.0
H1397 H 0.22262 0.09175 0.61602 0.0
H1398 H 0.11729 0.99071 0.61682 0.0
C1399 C 0.19811 0.95578 0.63588 0.0
C1400 C 0.14855 0.27901 0.63565 0.0
C1401 C 0.15775 0.23698 0.62898 0.0
H1402 H 0.08631 0.31525 0.64024 0.0
C1403 C 0.10763 0.19572 0.62194 0.0
H1404 H 0.18618 0.31115 0.64117 0.0
C1405 C 0.04996 0.19816 0.62137 0.0
C1406 C 0.04186 0.24177 0.62785 0.0
H1407 H 0.11367 0.16288 0.61669 0.0
H1408 H 1.0129 0.16766 0.61564 0.0
C1409 C 0.09133 0.28138 0.63509 0.0
C1410 C 0.55896 0.22844 0.22488 0.0
C1411 C 0.50861 0.18618 0.21801 0.0
H1412 H 0.65667 0.26198 0.23025 0.0
C1413 C 0.5191 0.14625 0.21099 0.0
H1414 H 0.5518 0.25919 0.23045 0.0
C1415 C 0.57807 0.14736 0.21093 0.0
C1416 C 0.62814 0.18852 0.2179 0.0
H1417 H 0.48129 0.11334 0.20556 0.0
H1418 H 0.58416 0.11539 0.20548 0.0
C1419 C 0.61858 0.2297 0.22481 0.0
C1420 C 0.97721 0.49401 0.22408 0.0
C1421 C 0.92327 0.49377 0.21955 0.0
H1422 H 1.02133 0.43858 0.22844 0.0
C1423 C 0.86951 0.43485 0.21628 0.0
H1424 H 1.01907 0.53873 0.22672 0.0
C1425 C 0.8708 0.37698 0.21726 0.0
C1426 C 0.9257 0.3779 0.22158 0.0
H1427 H 0.8273 0.43373 0.21277 0.0
H1428 H 0.83014 0.3323 0.21435 0.0
C1429 C 0.97838 0.43665 0.22508 0.0
C1430 C 0.61973 0.52915 0.21281 0.0
C1431 C 0.61781 0.47324 0.21677 0.0
H1432 H 0.67549 0.63154 0.21076 0.0
C1433 C 0.67422 0.47791 0.22129 0.0
H1434 H 0.57708 0.52702 0.20929 0.0
C1435 C 0.73141 0.5383 0.22203 0.0
C1436 C 0.73214 0.59432 0.21837 0.0
H1437 H 0.67374 0.43528 0.22442 0.0
H1438 H 0.77387 0.54152 0.22581 0.0
C1439 C 0.67606 0.58903 0.21369 0.0
C1440 C 0.57127 0.29483 0.04611 0.0
C1441 C 0.53766 0.31339 0.05319 0.0
H1442 H 0.57865 0.21637 0.03927 0.0
C1443 C 0.48609 0.26576 0.05926 0.0
H1444 H 0.61096 0.33057 0.04129 0.0
C1445 C 0.4674 0.20036 0.05805 0.0
C1446 C 0.50034 0.18184 0.05082 0.0
H1447 H 0.45926 0.27885 0.06475 0.0
H1448 H 0.42729 0.16438 0.06277 0.0
C1449 C 0.55278 0.22959 0.04495 0.0
C1450 C 0.87508 0.36487 0.04538 0.0
C1451 C 0.92288 0.36033 0.05129 0.0
H1452 H 0.77406 0.32156 0.04161 0.0
C1453 C 0.9045 0.3085 0.05842 0.0
H1454 H 0.88825 0.4042 0.03977 0.0
C1455 C 0.83911 0.26131 0.05951 0.0
C1456 C 0.79143 0.26521 0.05342 0.0
H1457 H 0.94057 0.3045 0.06315 0.0
H1458 H 0.82606 0.22113 0.06493 0.0
C1459 C 0.80986 0.31768 0.04643 0.0
C1460 C 0.84087 0.61847 0.05964 0.0
C1461 C 0.83715 0.56616 0.05384 0.0
H1462 H 0.79863 0.6782 0.06256 0.0
C1463 C 0.78567 0.53222 0.04662 0.0
H1464 H 0.88029 0.64559 0.06523 0.0
C1465 C 0.73945 0.55114 0.04505 0.0
C1466 C 0.74393 0.60427 0.05066 0.0
H1467 H 0.78195 0.49201 0.042 0.0
H1468 H 0.70096 0.52505 0.03927 0.0
C1469 C 0.79468 0.63755 0.05804 0.0
C1470 C 0.29967 0.55856 0.46517 0.0
C1471 C 0.31762 0.52192 0.45869 0.0
H1472 H 0.22137 0.56826 0.47156 0.0
C1473 C 0.26942 0.4675 0.45322 0.0
H1474 H 0.336 0.60071 0.46947 0.0
C1475 C 0.20405 0.44844 0.45455 0.0
C1476 C 0.18603 0.48404 0.46125 0.0
H1477 H 0.28206 0.43846 0.44817 0.0
H1478 H 0.16763 0.4057 0.45038 0.0
C1479 C 0.23428 0.53994 0.46638 0.0
C1480 C 0.5574 0.72353 0.46738 0.0
C1481 C 0.60871 0.72795 0.4612 0.0
H1482 H 0.49857 0.76529 0.47123 0.0
C1483 C 0.63898 0.77798 0.45364 0.0
H1484 H 0.53344 0.68542 0.47328 0.0
C1485 C 0.61841 0.82329 0.45235 0.0
C1486 C 0.56794 0.81956 0.45872 0.0
H1487 H 0.67813 0.7818 0.44868 0.0
H1488 H 0.64296 0.86202 0.44657 0.0
C1489 C 0.53738 0.76907 0.46619 0.0
C1490 C 0.28675 0.88922 0.46315 0.0
C1491 C 0.35147 0.90394 0.4623 0.0
H1492 H 0.18677 0.8143 0.46373 0.0
C1493 C 0.36479 0.85338 0.46098 0.0
H1494 H 0.2752 0.92748 0.46411 0.0
C1495 C 0.31467 0.78907 0.46064 0.0
C1496 C 0.25006 0.7741 0.46172 0.0
H1497 H 0.41385 0.86362 0.45996 0.0
H1498 H 0.32654 0.75109 0.45957 0.0
C1499 C 0.23636 0.82464 0.46297 0.0
C1500 C 0.53555 0.80263 0.96566 0.0
C1501 C 0.56929 0.78447 0.95854 0.0
H1502 H 0.52797 0.88068 0.97263 0.0
C1503 C 0.62099 0.83246 0.95254 0.0
H1504 H 0.49579 0.76664 0.97043 0.0
C1505 C 0.63958 0.89778 0.95384 0.0
C1506 C 0.60642 0.91588 0.9611 0.0
H1507 H 0.64794 0.81968 0.94702 0.0
H1508 H 0.67972 0.93402 0.94916 0.0
C1509 C 0.55396 0.8678 0.96692 0.0
C1510 C 0.20032 0.78874 0.95478 0.0
C1511 C 0.18307 0.73752 0.962 0.0
H1512 H 0.27774 0.87491 0.94774 0.0
C1513 C 0.23197 0.73285 0.96753 0.0
H1514 H 0.16343 0.79285 0.95032 0.0
C1515 C 0.29712 0.77932 0.96602 0.0
C1516 C 0.31445 0.83123 0.95895 0.0
H1517 H 0.21977 0.69397 0.9732 0.0
H1518 H 0.33379 0.77538 0.97058 0.0
C1519 C 0.26561 0.83517 0.95323 0.0
C1520 C 0.26309 0.47864 0.9529 0.0
C1521 C 0.26754 0.53042 0.95897 0.0
H1522 H 0.30538 0.41965 0.94931 0.0
C1523 C 0.32016 0.56409 0.96598 0.0
H1524 H 0.22277 0.45175 0.94746 0.0
C1525 C 0.36692 0.54552 0.96708 0.0
C1526 C 0.3618 0.49295 0.96119 0.0
H1527 H 0.32449 0.60392 0.9708 0.0
H1528 H 0.40639 0.57147 0.9727 0.0
C1529 C 0.30983 0.45987 0.95403 0.0
C1530 C 0.84233 0.61453 0.55937 0.0
C1531 C 0.79416 0.56251 0.55343 0.0
H1532 H 0.94407 0.67315 0.56275 0.0
C1533 C 0.8121 0.52802 0.54644 0.0
H1534 H 0.82968 0.64203 0.56479 0.0
C1535 C 0.87726 0.54606 0.54524 0.0
C1536 C 0.92552 0.59884 0.551 0.0
H1537 H 0.77593 0.488 0.54172 0.0
H1538 H 0.89002 0.51955 0.53962 0.0
C1539 C 0.90765 0.63273 0.55813 0.0
C1540 C 0.48692 0.25714 0.55887 0.0
C1541 C 0.53869 0.26099 0.55287 0.0
H1542 H 0.42847 0.3002 0.56236 0.0
C1543 C 0.57288 0.31336 0.54586 0.0
H1544 H 0.45965 0.21707 0.56431 0.0
C1545 C 0.55485 0.36045 0.54471 0.0
C1546 C 0.50229 0.35593 0.55053 0.0
H1547 H 0.61274 0.31725 0.54109 0.0
H1548 H 0.58122 0.39973 0.5391 0.0
C1549 C 0.46869 0.30421 0.55769 0.0
C1550 C 0.84274 0.25909 0.55963 0.0
C1551 C 0.83936 0.30775 0.55379 0.0
H1552 H 0.80005 0.15716 0.56258 0.0
C1553 C 0.78795 0.29037 0.54656 0.0
H1554 H 0.88209 0.27126 0.56522 0.0
C1555 C 0.74149 0.22532 0.54501 0.0
C1556 C 0.74569 0.17659 0.55064 0.0
H1557 H 0.78447 0.32692 0.54191 0.0
H1558 H 0.70306 0.21304 0.53922 0.0
C1559 C 0.79633 0.19391 0.55803 0.0
C1560 C 0.14309 0.53578 0.37198 0.0
C1561 C 0.17391 0.51385 0.379 0.0
H1562 H 0.13221 0.61606 0.36715 0.0
C1563 C 0.21988 0.55741 0.3864 0.0
H1564 H 0.10754 0.50314 0.36623 0.0
C1565 C 0.2337 0.62133 0.38699 0.0
C1566 C 0.202 0.643 0.38016 0.0
H1567 H 0.24424 0.5418 0.39197 0.0
H1568 H 0.26837 0.65342 0.3929 0.0
C1569 C 0.15727 0.60018 0.37254 0.0
C1570 C 0.53641 0.6921 0.37946 0.0
C1571 C 0.58555 0.6889 0.38517 0.0
H1572 H 0.43471 0.64771 0.37622 0.0
C1573 C 0.56876 0.63844 0.39255 0.0
H1574 H 0.54825 0.73028 0.37367 0.0
C1575 C 0.50366 0.59116 0.39404 0.0
C1576 C 0.45463 0.59359 0.38813 0.0
H1577 H 0.60586 0.63547 0.39714 0.0
H1578 H 0.4919 0.55192 0.39961 0.0
C1579 C 0.47151 0.64491 0.38093 0.0
C1580 C 0.39805 0.87531 0.37842 0.0
C1581 C 0.40462 0.93095 0.38348 0.0
H1582 H 0.43922 0.81451 0.37584 0.0
C1583 C 0.45676 0.96611 0.39052 0.0
H1584 H 0.35779 0.84696 0.37305 0.0
C1585 C 0.50275 0.94697 0.39224 0.0
C1586 C 0.49749 0.89272 0.38687 0.0
H1587 H 0.46221 1.00856 0.39465 0.0
H1588 H 0.54343 0.97576 0.39752 0.0
C1589 C 0.44431 0.85651 0.38007 0.0
C1590 C 0.94473 0.80815 0.78657 0.0
C1591 C 0.99289 0.86002 0.79254 0.0
H1592 H 0.84299 0.74966 0.78316 0.0
C1593 C 0.97489 0.89436 0.79956 0.0
H1594 H 0.95738 0.78077 0.78113 0.0
C1595 C 0.9097 0.87635 0.80075 0.0
C1596 C 0.86143 0.82369 0.79497 0.0
H1597 H 1.01104 0.93429 0.8043 0.0
H1598 H 0.89693 0.9028 0.80638 0.0
C1599 C 0.87938 0.78997 0.78781 0.0
C1600 C 0.31699 0.11736 0.78716 0.0
C1601 C 0.28384 0.06714 0.7946 0.0
H1602 H 0.32519 0.20266 0.77991 0.0
C1603 C 0.23092 0.0631 0.80022 0.0
H1604 H 0.35747 0.12093 0.78263 0.0
C1605 C 0.2122 0.10939 0.79863 0.0
C1606 C 0.24613 0.16045 0.79136 0.0
H1607 H 0.20493 0.025 0.80604 0.0
H1608 H 0.17223 0.10612 0.80327 0.0
C1609 C 0.2981 0.16359 0.78553 0.0
C1610 C 0.04686 0.19915 0.8002 0.0
C1611 C 0.04218 0.24679 0.79429 0.0
H1612 H 1.00376 0.09825 0.80393 0.0
C1613 C 0.99034 0.2282 0.78711 0.0
H1614 H 0.08619 0.21247 0.80584 0.0
C1615 C 0.94334 0.16282 0.78597 0.0
C1616 C 0.94734 0.11528 0.79205 0.0
H1617 H 0.98619 0.2641 0.78238 0.0
H1618 H 0.90317 0.14967 0.78051 0.0
C1619 C 0.9998 0.13392 0.7991 0.0
C1620 C 0.29063 0.16802 0.28566 0.0
C1621 C 0.23836 0.11924 0.29144 0.0
H1622 H 0.3505 0.27003 0.28284 0.0
C1623 C 0.20463 0.1365 0.29873 0.0
H1624 H 0.3176 0.15596 0.28002 0.0
C1625 C 0.22366 0.20155 0.30037 0.0
C1626 C 0.27676 0.25038 0.29478 0.0
H1627 H 0.16444 0.09983 0.30334 0.0
H1628 H 0.19767 0.21374 0.30619 0.0
C1629 C 0.30987 0.23319 0.28735 0.0
C1630 C 0.96653 0.11428 0.29996 0.0
C1631 C 0.98436 0.16663 0.29295 0.0
H1632 H 0.88873 0.02825 0.3069 0.0
C1633 C 0.93583 0.1709 0.28719 0.0
H1634 H 1.00293 0.11003 0.30454 0.0
C1635 C 0.8704 0.12432 0.2886 0.0
C1636 C 0.85265 0.07251 0.29573 0.0
H1637 H 0.94829 0.21094 0.28176 0.0
H1638 H 0.8338 0.1287 0.2841 0.0
C1639 C 0.90126 0.06759 0.30131 0.0
C1640 C 0.97986 0.79527 0.28696 0.0
C1641 C 0.03207 0.82807 0.29408 0.0
H1642 H 0.89267 0.78749 0.28051 0.0
C1643 C 0.03734 0.88038 0.30007 0.0
H1644 H 0.97527 0.75525 0.28217 0.0
C1645 C 0.99053 0.899 0.29911 0.0
C1646 C 0.93773 0.86568 0.29211 0.0
H1647 H 0.07699 0.90611 0.30567 0.0
H1648 H 0.99499 0.93863 0.30399 0.0
C1649 C 0.93312 0.81413 0.28594 0.0
C1650 C 0.50966 0.96508 0.89137 0.0
C1651 C 0.46034 0.91244 0.8857 0.0
H1652 H 0.61152 0.02169 0.89475 0.0
C1653 C 0.47679 0.87553 0.87899 0.0
H1654 H 0.49827 0.99435 0.8966 0.0
C1655 C 0.54157 0.89132 0.87792 0.0
C1656 C 0.59089 0.94431 0.88352 0.0
H1657 H 0.43972 0.83487 0.8745 0.0
H1658 H 0.55315 0.86258 0.87261 0.0
C1659 C 0.57442 0.98099 0.89027 0.0
C1660 C 0.19496 0.678 0.87153 0.0
C1661 C 0.16862 0.69386 0.88027 0.0
H1662 H 0.23364 0.6193 0.86587 0.0
C1663 C 0.15982 0.66188 0.89012 0.0
H1664 H 0.2033 0.70334 0.86396 0.0
C1665 C 0.17681 0.6141 0.89123 0.0
C1666 C 0.20416 0.59872 0.88256 0.0
H1667 H 0.14037 0.67439 0.89699 0.0
H1668 H 0.16925 0.58977 0.89889 0.0
C1669 C 0.21307 0.63086 0.87269 0.0
C1670 C 0.4073 0.56467 0.87784 0.0
C1671 C 0.41237 0.51726 0.88374 0.0
H1672 H 0.44871 0.66571 0.87439 0.0
C1673 C 0.46264 0.53623 0.89126 0.0
H1674 H 0.36899 0.55104 0.87197 0.0
C1675 C 0.50794 0.60182 0.8927 0.0
C1676 C 0.50379 0.64917 0.8866 0.0
H1677 H 0.46688 0.50046 0.89601 0.0
H1678 H 0.54708 0.61532 0.89841 0.0
C1679 C 0.45272 0.63015 0.87924 0.0
C1680 C 0.80278 0.86332 0.72467 0.0
C1681 C 0.83593 0.84489 0.71746 0.0
H1682 H 0.7943 0.9417 0.73132 0.0
C1683 C 0.88834 0.89268 0.71159 0.0
H1684 H 0.76266 0.8273 0.72937 0.0
C1685 C 0.90665 0.95788 0.71273 0.0
C1686 C 0.87286 0.97635 0.71978 0.0
H1687 H 0.91434 0.87953 0.70593 0.0
H1688 H 0.94635 0.99365 0.70792 0.0
C1689 C 0.82127 0.92867 0.72585 0.0
C1690 C 0.17539 0.92514 0.72597 0.0
C1691 C 0.12728 0.92894 0.71999 0.0
H1692 H 0.27713 0.96805 0.72934 0.0
C1693 C 0.14532 0.98106 0.71294 0.0
H1694 H 0.16268 0.88523 0.73144 0.0
C1695 C 0.21053 0.02794 0.7117 0.0
C1696 C 0.25874 0.02345 0.71749 0.0
H1697 H 0.10919 0.98488 0.70819 0.0
H1698 H 0.22336 0.06699 0.70604 0.0
C1699 C 0.24076 0.972 0.72469 0.0
C1700 C 0.1214 0.19548 0.71303 0.0
C1701 C 0.1731 0.22909 0.72022 0.0
H1702 H 0.03638 0.18854 0.70585 0.0
C1703 C 0.17692 0.28104 0.72616 0.0
H1704 H 0.11759 0.15554 0.70831 0.0
C1705 C 0.1306 0.3001 0.7247 0.0
C1706 C 0.07964 0.26716 0.71736 0.0
H1707 H 0.21651 0.30789 0.73173 0.0
H1708 H 0.13462 0.34048 0.72932 0.0
C1709 C 0.07505 0.21437 0.71162 0.0
C1710 C 0.61169 0.14858 0.12059 0.0
C1711 C 0.65897 0.20037 0.12669 0.0
H1712 H 0.51048 0.09021 0.11675 0.0
C1713 C 0.63992 0.23454 0.13354 0.0
H1714 H 0.62518 0.12132 0.11527 0.0
C1715 C 0.57457 0.21657 0.13442 0.0
C1716 C 0.52716 0.16407 0.12848 0.0
H1717 H 0.67535 0.27442 0.13838 0.0
H1718 H 0.56099 0.24299 0.1399 0.0
C1719 C 0.54616 0.1304 0.1215 0.0
C1720 C 0.98365 0.4595 0.12123 0.0
C1721 C 0.95059 0.40947 0.1287 0.0
H1722 H 0.99153 0.54438 0.11385 0.0
C1723 C 0.8975 0.40543 0.13428 0.0
H1724 H 0.02425 0.46309 0.11673 0.0
C1725 C 0.87855 0.4515 0.13259 0.0
C1726 C 0.91236 0.50234 0.12528 0.0
H1727 H 0.8715 0.36744 0.14012 0.0
H1728 H 0.83841 0.44819 0.1372 0.0
C1729 C 0.96452 0.5055 0.1195 0.0
C1730 C 0.65552 0.56846 0.12011 0.0
C1731 C 0.70683 0.58727 0.12741 0.0
H1732 H 0.56916 0.48967 0.11335 0.0
C1733 C 0.71148 0.53978 0.13337 0.0
H1734 H 0.65143 0.60426 0.11534 0.0
C1735 C 0.66487 0.47446 0.1322 0.0
C1736 C 0.61289 0.4556 0.12504 0.0
H1737 H 0.75041 0.55328 0.1391 0.0
H1738 H 0.66875 0.4389 0.13707 0.0
C1739 C 0.60897 0.503 0.1189 0.0
C1740 C 0.96094 0.49774 0.61925 0.0
C1741 C 0.90899 0.44955 0.62518 0.0
H1742 H 1.01994 0.59941 0.61599 0.0
C1743 C 0.875 0.46749 0.63228 0.0
H1744 H 0.98809 0.48513 0.61374 0.0
C1745 C 0.89344 0.53263 0.6336 0.0
C1746 C 0.9462 0.5809 0.62786 0.0
H1747 H 0.83503 0.43133 0.637 0.0
H1748 H 0.86727 0.54534 0.6393 0.0
C1749 C 0.97958 0.56302 0.62061 0.0
C1750 C 0.63704 0.44447 0.63238 0.0
C1751 C 0.65482 0.49645 0.6253 0.0
H1752 H 0.55926 0.35876 0.63937 0.0
C1753 C 0.60649 0.50019 0.61939 0.0
H1754 H 0.67334 0.4407 0.63708 0.0
C1755 C 0.54116 0.45342 0.62074 0.0
C1756 C 0.52344 0.40216 0.62798 0.0
H1757 H 0.61902 0.54 0.6139 0.0
H1758 H 0.50461 0.45734 0.61615 0.0
C1759 C 0.57187 0.3977 0.6337 0.0
C1760 C 0.7072 0.21033 0.63363 0.0
C1761 C 0.70243 0.15779 0.62779 0.0
H1762 H 0.66438 0.26851 0.63726 0.0
C1763 C 0.65065 0.12447 0.6206 0.0
H1764 H 0.74651 0.23645 0.63928 0.0
C1765 C 0.60376 0.14299 0.6194 0.0
C1766 C 0.60788 0.19477 0.62543 0.0
H1767 H 0.64647 0.08427 0.61591 0.0
H1768 H 0.5636 0.11593 0.61394 0.0
C1769 C 0.66031 0.22868 0.63247 0.0
C1770 C 0.14184 0.20308 0.21279 0.0
C1771 C 0.12382 0.23096 0.22104 0.0
H1772 H 0.22014 0.20114 0.20467 0.0
C1773 C 0.17179 0.27767 0.22778 0.0
H1774 H 0.10571 0.16727 0.20745 0.0
C1775 C 0.2371 0.29784 0.22606 0.0
C1776 C 0.25512 0.27071 0.2177 0.0
H1777 H 0.1591 0.30014 0.23417 0.0
H1778 H 0.27337 0.33441 0.23129 0.0
C1779 C 0.2071 0.22262 0.21117 0.0
C1780 C 0.83012 0.99774 0.2048 0.0
C1781 C 0.842 0.03808 0.2137 0.0
H1782 H 0.83625 0.91738 0.19838 0.0
C1783 C 0.86947 0.02867 0.22305 0.0
H1784 H 0.8093 1.00453 0.19752 0.0
C1785 C 0.88382 0.97913 0.22361 0.0
C1786 C 0.87221 0.93882 0.21477 0.0
H1787 H 0.87876 0.05867 0.23008 0.0
H1788 H 0.90375 0.97223 0.231 0.0
C1789 C 0.84596 0.94861 0.20529 0.0
C1790 C 0.06 0.90446 0.21082 0.0
C1791 C 0.07356 0.85355 0.21095 0.0
H1792 H 0.09703 1.0063 0.21291 0.0
C1793 C 0.13667 0.8668 0.21323 0.0
H1794 H 1.01139 0.89498 0.20923 0.0
C1795 C 0.18503 0.92997 0.21573 0.0
C1796 C 0.17112 0.98074 0.21576 0.0
H1797 H 0.1478 0.82801 0.2136 0.0
H1798 H 0.2333 0.9391 0.21764 0.0
C1799 C 0.10864 0.9678 0.21305 0.0
loop_
_geom_bond_atom_site_label_1
_geom_bond_atom_site_label_2
_geom_bond_distance
_geom_bond_site_symmetry_2
_ccdc_geom_bond_type
Tb0 O3 2.453 1_545 S
Tb0 O4 2.596 1_545 S
Tb0 O5 2.374 . S
Tb0 O13 2.343 . S
Tb0 O15 2.353 . S
Tb0 O17 2.427 . S
Tb0 O18 2.513 . S
C1 O5 1.251 . S
C1 O7 1.263 . S
Tb2 O4 2.343 1_545 S
Tb2 O7 2.353 . S
Tb2 O10 2.427 1_545 S
Tb2 O11 2.513 1_545 S
Tb2 O12 2.453 . S
Tb2 O13 2.596 . S
Tb2 O14 2.374 . S
O3 Tb0 2.453 1_565 S
O3 C19 1.245 . S
O4 Tb0 2.596 1_565 S
O4 Tb2 2.343 1_565 S
O4 C19 1.259 . S
O5 Tb0 2.374 . S
O5 C1 1.251 . S
C6 O10 1.275 . S
C6 O11 1.246 . S
O7 C1 1.263 . S
O7 Tb2 2.353 . S
C8 O12 1.245 . S
C8 O13 1.259 . S
C9 O14 1.250 . S
C9 O15 1.263 . S
O10 Tb2 2.427 1_565 S
O10 C6 1.275 . S
O11 Tb2 2.513 1_565 S
O11 C6 1.246 . S
O12 Tb2 2.453 . S
O12 C8 1.245 . S
O13 Tb0 2.343 . S
O13 Tb2 2.596 . S
O13 C8 1.259 . S
O14 Tb2 2.374 . S
O14 C9 1.250 . S
O15 Tb0 2.353 . S
O15 C9 1.263 . S
C16 O17 1.275 . S
C16 O18 1.246 . S
O17 Tb0 2.427 . S
O17 C16 1.275 . S
O18 Tb0 2.513 . S
O18 C16 1.246 . S
C19 O3 1.245 . S
C19 O4 1.259 . S
Tb20 O23 2.453 1_655 S
Tb20 O24 2.596 1_655 S
Tb20 O25 2.374 1_655 S
Tb20 O33 2.343 . S
Tb20 O35 2.353 . S
Tb20 O37 2.427 . S
Tb20 O38 2.513 . S
C21 O25 1.251 . S
C21 O27 1.263 . S
Tb22 O24 2.343 . S
Tb22 O27 2.353 . S
Tb22 O30 2.427 . S
Tb22 O31 2.513 . S
Tb22 O32 2.453 1_455 S
Tb22 O33 2.596 1_455 S
Tb22 O34 2.374 . S
O23 Tb20 2.453 1_455 S
O23 C39 1.245 . S
O24 Tb20 2.596 1_455 S
O24 Tb22 2.343 . S
O24 C39 1.259 . S
O25 Tb20 2.374 1_455 S
O25 C21 1.251 . S
C26 O30 1.275 . S
C26 O31 1.246 . S
O27 C21 1.263 . S
O27 Tb22 2.353 . S
C28 O32 1.245 . S
C28 O33 1.259 . S
C29 O34 1.250 . S
C29 O35 1.263 1_455 S
O30 Tb22 2.427 . S
O30 C26 1.275 . S
O31 Tb22 2.513 . S
O31 C26 1.246 . S
O32 Tb22 2.453 1_655 S
O32 C28 1.245 . S
O33 Tb20 2.343 . S
O33 Tb22 2.596 1_655 S
O33 C28 1.259 . S
O34 Tb22 2.374 . S
O34 C29 1.250 . S
O35 Tb20 2.353 . S
O35 C29 1.263 1_655 S
C36 O37 1.275 . S
C36 O38 1.246 . S
O37 Tb20 2.427 . S
O37 C36 1.275 . S
O38 Tb20 2.513 . S
O38 C36 1.246 . S
C39 O23 1.245 . S
C39 O24 1.259 . S
Tb40 O43 2.453 . S
Tb40 O44 2.596 . S
Tb40 O45 2.374 . S
Tb40 O53 2.343 . S
Tb40 O55 2.353 . S
Tb40 O57 2.427 . S
Tb40 O58 2.513 . S
C41 O45 1.251 . S
C41 O47 1.263 . S
Tb42 O44 2.343 . S
Tb42 O47 2.353 . S
Tb42 O50 2.427 . S
Tb42 O51 2.513 . S
Tb42 O52 2.453 . S
Tb42 O53 2.596 . S
Tb42 O54 2.374 . S
O43 Tb40 2.453 . S
O43 C59 1.245 . S
O44 Tb40 2.596 . S
O44 Tb42 2.343 . S
O44 C59 1.259 . S
O45 Tb40 2.374 . S
O45 C41 1.251 . S
C46 O50 1.275 . S
C46 O51 1.246 . S
O47 C41 1.263 . S
O47 Tb42 2.353 . S
C48 O52 1.245 . S
C48 O53 1.259 . S
C49 O54 1.250 . S
C49 O55 1.263 . S
O50 Tb42 2.427 . S
O50 C46 1.275 . S
O51 Tb42 2.513 . S
O51 C46 1.246 . S
O52 Tb42 2.453 . S
O52 C48 1.245 . S
O53 Tb40 2.343 . S
O53 Tb42 2.596 . S
O53 C48 1.259 . S
O54 Tb42 2.374 . S
O54 C49 1.250 . S
O55 Tb40 2.353 . S
O55 C49 1.263 . S
C56 O57 1.275 . S
C56 O58 1.246 . S
O57 Tb40 2.427 . S
O57 C56 1.275 . S
O58 Tb40 2.513 . S
O58 C56 1.246 . S
C59 O43 1.245 . S
C59 O44 1.259 . S
Tb60 O63 2.453 1_455 S
Tb60 O64 2.596 1_455 S
Tb60 O65 2.374 . S
Tb60 O73 2.343 . S
Tb60 O75 2.353 . S
Tb60 O77 2.427 . S
Tb60 O78 2.513 . S
C61 O65 1.251 . S
C61 O67 1.263 . S
Tb62 O64 2.343 1_455 S
Tb62 O67 2.353 . S
Tb62 O70 2.427 1_455 S
Tb62 O71 2.513 1_455 S
Tb62 O72 2.453 . S
Tb62 O73 2.596 . S
Tb62 O74 2.374 . S
O63 Tb60 2.453 1_655 S
O63 C79 1.245 . S
O64 Tb60 2.596 1_655 S
O64 Tb62 2.343 1_655 S
O64 C79 1.259 . S
O65 Tb60 2.374 . S
O65 C61 1.251 . S
C66 O70 1.275 . S
C66 O71 1.246 . S
O67 C61 1.263 . S
O67 Tb62 2.353 . S
C68 O72 1.245 . S
C68 O73 1.259 . S
C69 O74 1.250 . S
C69 O75 1.263 . S
O70 Tb62 2.427 1_655 S
O70 C66 1.275 . S
O71 Tb62 2.513 1_655 S
O71 C66 1.246 . S
O72 Tb62 2.453 . S
O72 C68 1.245 . S
O73 Tb60 2.343 . S
O73 Tb62 2.596 . S
O73 C68 1.259 . S
O74 Tb62 2.374 . S
O74 C69 1.250 . S
O75 Tb60 2.353 . S
O75 C69 1.263 . S
C76 O77 1.275 . S
C76 O78 1.246 . S
O77 Tb60 2.427 . S
O77 C76 1.275 . S
O78 Tb60 2.513 . S
O78 C76 1.246 . S
C79 O63 1.245 . S
C79 O64 1.259 . S
Tb80 O83 2.453 . S
Tb80 O84 2.596 . S
Tb80 O85 2.374 . S
Tb80 O93 2.343 . S
Tb80 O95 2.353 . S
Tb80 O97 2.427 . S
Tb80 O98 2.513 . S
C81 O85 1.251 . S
C81 O87 1.263 . S
Tb82 O84 2.343 . S
Tb82 O87 2.353 . S
Tb82 O90 2.427 . S
Tb82 O91 2.513 . S
Tb82 O92 2.453 . S
Tb82 O93 2.596 . S
Tb82 O94 2.374 . S
O83 Tb80 2.453 . S
O83 C99 1.245 . S
O84 Tb80 2.596 . S
O84 Tb82 2.343 . S
O84 C99 1.259 . S
O85 Tb80 2.374 . S
O85 C81 1.251 . S
C86 O90 1.275 . S
C86 O91 1.246 . S
O87 C81 1.263 . S
O87 Tb82 2.353 . S
C88 O92 1.245 . S
C88 O93 1.259 . S
C89 O94 1.250 . S
C89 O95 1.263 . S
O90 Tb82 2.427 . S
O90 C86 1.275 . S
O91 Tb82 2.513 . S
O91 C86 1.246 . S
O92 Tb82 2.453 . S
O92 C88 1.245 . S
O93 Tb80 2.343 . S
O93 Tb82 2.596 . S
O93 C88 1.259 . S
O94 Tb82 2.374 . S
O94 C89 1.250 . S
O95 Tb80 2.353 . S
O95 C89 1.263 . S
C96 O97 1.275 . S
C96 O98 1.246 . S
O97 Tb80 2.427 . S
O97 C96 1.275 . S
O98 Tb80 2.513 . S
O98 C96 1.246 . S
C99 O83 1.245 . S
C99 O84 1.259 . S
Tb100 O103 2.453 1_565 S
Tb100 O104 2.596 1_565 S
Tb100 O105 2.374 1_565 S
Tb100 O113 2.343 . S
Tb100 O115 2.353 . S
Tb100 O117 2.427 . S
Tb100 O118 2.513 . S
C101 O105 1.251 . S
C101 O107 1.263 . S
Tb102 O104 2.343 . S
Tb102 O107 2.353 . S
Tb102 O110 2.427 . S
Tb102 O111 2.513 . S
Tb102 O112 2.453 1_545 S
Tb102 O113 2.596 1_545 S
Tb102 O114 2.374 . S
O103 Tb100 2.453 1_545 S
O103 C119 1.245 . S
O104 Tb100 2.596 1_545 S
O104 Tb102 2.343 . S
O104 C119 1.259 . S
O105 Tb100 2.374 1_545 S
O105 C101 1.251 . S
C106 O110 1.275 . S
C106 O111 1.246 . S
O107 C101 1.263 . S
O107 Tb102 2.353 . S
C108 O112 1.245 . S
C108 O113 1.259 . S
C109 O114 1.250 . S
C109 O115 1.263 1_545 S
O110 Tb102 2.427 . S
O110 C106 1.275 . S
O111 Tb102 2.513 . S
O111 C106 1.246 . S
O112 Tb102 2.453 1_565 S
O112 C108 1.245 . S
O113 Tb100 2.343 . S
O113 Tb102 2.596 1_565 S
O113 C108 1.259 . S
O114 Tb102 2.374 . S
O114 C109 1.250 . S
O115 Tb100 2.353 . S
O115 C109 1.263 1_565 S
C116 O117 1.275 . S
C116 O118 1.246 . S
O117 Tb100 2.427 . S
O117 C116 1.275 . S
O118 Tb100 2.513 . S
O118 C116 1.246 . S
C119 O103 1.245 . S
C119 O104 1.259 . S
Tb120 O123 2.453 1_545 S
Tb120 O124 2.596 1_545 S
Tb120 O125 2.374 . S
Tb120 O133 2.343 . S
Tb120 O135 2.353 . S
Tb120 O137 2.427 . S
Tb120 O138 2.513 . S
C121 O125 1.251 . S
C121 O127 1.263 1_545 S
Tb122 O124 2.343 . S
Tb122 O127 2.353 . S
Tb122 O130 2.427 . S
Tb122 O131 2.513 . S
Tb122 O132 2.453 1_565 S
Tb122 O133 2.596 1_565 S
Tb122 O134 2.374 1_565 S
O123 Tb120 2.453 1_565 S
O123 C139 1.245 . S
O124 Tb120 2.596 1_565 S
O124 Tb122 2.343 . S
O124 C139 1.259 . S
O125 Tb120 2.374 . S
O125 C121 1.251 . S
C126 O130 1.275 . S
C126 O131 1.246 . S
O127 C121 1.263 1_565 S
O127 Tb122 2.353 . S
C128 O132 1.245 . S
C128 O133 1.259 . S
C129 O134 1.250 . S
C129 O135 1.263 . S
O130 Tb122 2.427 . S
O130 C126 1.275 . S
O131 Tb122 2.513 . S
O131 C126 1.246 . S
O132 Tb122 2.453 1_545 S
O132 C128 1.245 . S
O133 Tb120 2.343 . S
O133 Tb122 2.596 1_545 S
O133 C128 1.259 . S
O134 Tb122 2.374 1_545 S
O134 C129 1.250 . S
O135 Tb120 2.353 . S
O135 C129 1.263 . S
C136 O137 1.275 . S
C136 O138 1.246 . S
O137 Tb120 2.427 . S
O137 C136 1.275 . S
O138 Tb120 2.513 . S
O138 C136 1.246 . S
C139 O123 1.245 . S
C139 O124 1.259 . S
Tb140 O143 2.453 . S
Tb140 O144 2.596 . S
Tb140 O145 2.374 . S
Tb140 O153 2.343 1_455 S
Tb140 O155 2.353 . S
Tb140 O157 2.427 1_455 S
Tb140 O158 2.513 1_455 S
C141 O145 1.251 . S
C141 O147 1.263 . S
Tb142 O144 2.343 . S
Tb142 O147 2.353 . S
Tb142 O150 2.427 . S
Tb142 O151 2.513 . S
Tb142 O152 2.453 1_455 S
Tb142 O153 2.596 1_455 S
Tb142 O154 2.374 . S
O143 Tb140 2.453 . S
O143 C159 1.245 . S
O144 Tb140 2.596 . S
O144 Tb142 2.343 . S
O144 C159 1.259 . S
O145 Tb140 2.374 . S
O145 C141 1.251 . S
C146 O150 1.275 . S
C146 O151 1.246 . S
O147 C141 1.263 . S
O147 Tb142 2.353 . S
C148 O152 1.245 . S
C148 O153 1.259 . S
C149 O154 1.250 . S
C149 O155 1.263 . S
O150 Tb142 2.427 . S
O150 C146 1.275 . S
O151 Tb142 2.513 . S
O151 C146 1.246 . S
O152 Tb142 2.453 1_655 S
O152 C148 1.245 . S
O153 Tb140 2.343 1_655 S
O153 Tb142 2.596 1_655 S
O153 C148 1.259 . S
O154 Tb142 2.374 . S
O154 C149 1.250 . S
O155 Tb140 2.353 . S
O155 C149 1.263 . S
C156 O157 1.275 . S
C156 O158 1.246 . S
O157 Tb140 2.427 1_655 S
O157 C156 1.275 . S
O158 Tb140 2.513 1_655 S
O158 C156 1.246 . S
C159 O143 1.245 . S
C159 O144 1.259 . S
Tb160 O163 2.453 . S
Tb160 O164 2.596 . S
Tb160 O165 2.374 . S
Tb160 O173 2.343 . S
Tb160 O175 2.353 . S
Tb160 O177 2.427 . S
Tb160 O178 2.513 . S
C161 O165 1.251 . S
C161 O167 1.263 . S
Tb162 O164 2.343 . S
Tb162 O167 2.353 . S
Tb162 O170 2.427 . S
Tb162 O171 2.513 . S
Tb162 O172 2.453 . S
Tb162 O173 2.596 . S
Tb162 O174 2.374 . S
O163 Tb160 2.453 . S
O163 C179 1.245 . S
O164 Tb160 2.596 . S
O164 Tb162 2.343 . S
O164 C179 1.259 . S
O165 Tb160 2.374 . S
O165 C161 1.251 . S
C166 O170 1.275 . S
C166 O171 1.246 . S
O167 C161 1.263 . S
O167 Tb162 2.353 . S
C168 O172 1.245 . S
C168 O173 1.259 . S
C169 O174 1.250 . S
C169 O175 1.263 . S
O170 Tb162 2.427 . S
O170 C166 1.275 . S
O171 Tb162 2.513 . S
O171 C166 1.246 . S
O172 Tb162 2.453 . S
O172 C168 1.245 . S
O173 Tb160 2.343 . S
O173 Tb162 2.596 . S
O173 C168 1.259 . S
O174 Tb162 2.374 . S
O174 C169 1.250 . S
O175 Tb160 2.353 . S
O175 C169 1.263 . S
C176 O177 1.275 . S
C176 O178 1.246 . S
O177 Tb160 2.427 . S
O177 C176 1.275 . S
O178 Tb160 2.513 . S
O178 C176 1.246 . S
C179 O163 1.245 . S
C179 O164 1.259 . S
Tb180 O183 2.453 1_455 S
Tb180 O184 2.596 1_455 S
Tb180 O185 2.374 . S
Tb180 O193 2.343 . S
Tb180 O195 2.353 . S
Tb180 O197 2.427 . S
Tb180 O198 2.513 . S
C181 O185 1.251 . S
C181 O187 1.263 1_455 S
Tb182 O184 2.343 . S
Tb182 O187 2.353 . S
Tb182 O190 2.427 . S
Tb182 O191 2.513 . S
Tb182 O192 2.453 1_655 S
Tb182 O193 2.596 1_655 S
Tb182 O194 2.374 1_655 S
O183 Tb180 2.453 1_655 S
O183 C199 1.245 . S
O184 Tb180 2.596 1_655 S
O184 Tb182 2.343 . S
O184 C199 1.259 . S
O185 Tb180 2.374 . S
O185 C181 1.251 . S
C186 O190 1.275 . S
C186 O191 1.246 . S
O187 C181 1.263 1_655 S
O187 Tb182 2.353 . S
C188 O192 1.245 . S
C188 O193 1.259 . S
C189 O194 1.250 . S
C189 O195 1.263 . S
O190 Tb182 2.427 . S
O190 C186 1.275 . S
O191 Tb182 2.513 . S
O191 C186 1.246 . S
O192 Tb182 2.453 1_455 S
O192 C188 1.245 . S
O193 Tb180 2.343 . S
O193 Tb182 2.596 1_455 S
O193 C188 1.259 . S
O194 Tb182 2.374 1_455 S
O194 C189 1.250 . S
O195 Tb180 2.353 . S
O195 C189 1.263 . S
C196 O197 1.275 . S
C196 O198 1.246 . S
O197 Tb180 2.427 . S
O197 C196 1.275 . S
O198 Tb180 2.513 . S
O198 C196 1.246 . S
C199 O183 1.245 . S
C199 O184 1.259 . S
Tb200 O203 2.453 . S
Tb200 O204 2.596 . S
Tb200 O205 2.374 . S
Tb200 O213 2.343 . S
Tb200 O215 2.353 . S
Tb200 O217 2.427 . S
Tb200 O218 2.513 . S
C201 O205 1.251 . S
C201 O207 1.263 . S
Tb202 O204 2.343 . S
Tb202 O207 2.353 . S
Tb202 O210 2.427 . S
Tb202 O211 2.513 . S
Tb202 O212 2.453 . S
Tb202 O213 2.596 . S
Tb202 O214 2.374 . S
O203 Tb200 2.453 . S
O203 C219 1.245 . S
O204 Tb200 2.596 . S
O204 Tb202 2.343 . S
O204 C219 1.259 . S
O205 Tb200 2.374 . S
O205 C201 1.251 . S
C206 O210 1.275 . S
C206 O211 1.246 . S
O207 C201 1.263 . S
O207 Tb202 2.353 . S
C208 O212 1.245 . S
C208 O213 1.259 . S
C209 O214 1.250 . S
C209 O215 1.263 . S
O210 Tb202 2.427 . S
O210 C206 1.275 . S
O211 Tb202 2.513 . S
O211 C206 1.246 . S
O212 Tb202 2.453 . S
O212 C208 1.245 . S
O213 Tb200 2.343 . S
O213 Tb202 2.596 . S
O213 C208 1.259 . S
O214 Tb202 2.374 . S
O214 C209 1.250 . S
O215 Tb200 2.353 . S
O215 C209 1.263 . S
C216 O217 1.275 . S
C216 O218 1.246 . S
O217 Tb200 2.427 . S
O217 C216 1.275 . S
O218 Tb200 2.513 . S
O218 C216 1.246 . S
C219 O203 1.245 . S
C219 O204 1.259 . S
Tb220 O223 2.453 . S
Tb220 O224 2.596 . S
Tb220 O225 2.374 . S
Tb220 O233 2.343 1_545 S
Tb220 O235 2.353 . S
Tb220 O237 2.427 1_545 S
Tb220 O238 2.513 1_545 S
C221 O225 1.251 . S
C221 O227 1.263 . S
Tb222 O224 2.343 . S
Tb222 O227 2.353 . S
Tb222 O230 2.427 . S
Tb222 O231 2.513 . S
Tb222 O232 2.453 1_545 S
Tb222 O233 2.596 1_545 S
Tb222 O234 2.374 . S
O223 Tb220 2.453 . S
O223 C239 1.245 . S
O224 Tb220 2.596 . S
O224 Tb222 2.343 . S
O224 C239 1.259 . S
O225 Tb220 2.374 . S
O225 C221 1.251 . S
C226 O230 1.275 . S
C226 O231 1.246 . S
O227 C221 1.263 . S
O227 Tb222 2.353 . S
C228 O232 1.245 . S
C228 O233 1.259 . S
C229 O234 1.250 . S
C229 O235 1.263 . S
O230 Tb222 2.427 . S
O230 C226 1.275 . S
O231 Tb222 2.513 . S
O231 C226 1.246 . S
O232 Tb222 2.453 1_565 S
O232 C228 1.245 . S
O233 Tb220 2.343 1_565 S
O233 Tb222 2.596 1_565 S
O233 C228 1.259 . S
O234 Tb222 2.374 . S
O234 C229 1.250 . S
O235 Tb220 2.353 . S
O235 C229 1.263 . S
C236 O237 1.275 . S
C236 O238 1.246 . S
O237 Tb220 2.427 1_565 S
O237 C236 1.275 . S
O238 Tb220 2.513 1_565 S
O238 C236 1.246 . S
C239 O223 1.245 . S
C239 O224 1.259 . S
Tb240 O243 2.453 . S
Tb240 O244 2.596 . S
Tb240 O245 2.374 . S
Tb240 O253 2.343 . S
Tb240 O255 2.353 . S
Tb240 O257 2.427 . S
Tb240 O258 2.513 . S
C241 O245 1.251 . S
C241 O247 1.263 . S
Tb242 O244 2.343 . S
Tb242 O247 2.353 . S
Tb242 O250 2.427 . S
Tb242 O251 2.513 . S
Tb242 O252 2.453 . S
Tb242 O253 2.596 . S
Tb242 O254 2.374 . S
O243 Tb240 2.453 . S
O243 C259 1.245 . S
O244 Tb240 2.596 . S
O244 Tb242 2.343 . S
O244 C259 1.259 . S
O245 Tb240 2.374 . S
O245 C241 1.251 . S
C246 O250 1.275 . S
C246 O251 1.246 . S
O247 C241 1.263 . S
O247 Tb242 2.353 . S
C248 O252 1.245 . S
C248 O253 1.259 . S
C249 O254 1.250 . S
C249 O255 1.263 . S
O250 Tb242 2.427 . S
O250 C246 1.275 . S
O251 Tb242 2.513 . S
O251 C246 1.246 . S
O252 Tb242 2.453 . S
O252 C248 1.245 . S
O253 Tb240 2.343 . S
O253 Tb242 2.596 . S
O253 C248 1.259 . S
O254 Tb242 2.374 . S
O254 C249 1.250 . S
O255 Tb240 2.353 . S
O255 C249 1.263 . S
C256 O257 1.275 . S
C256 O258 1.246 . S
O257 Tb240 2.427 . S
O257 C256 1.275 . S
O258 Tb240 2.513 . S
O258 C256 1.246 . S
C259 O243 1.245 . S
C259 O244 1.259 . S
Tb260 O263 2.453 . S
Tb260 O264 2.596 . S
Tb260 O265 2.374 . S
Tb260 O273 2.343 . S
Tb260 O275 2.353 . S
Tb260 O277 2.427 . S
Tb260 O278 2.513 . S
C261 O265 1.251 . S
C261 O267 1.263 . S
Tb262 O264 2.343 . S
Tb262 O267 2.353 . S
Tb262 O270 2.427 . S
Tb262 O271 2.513 . S
Tb262 O272 2.453 . S
Tb262 O273 2.596 . S
Tb262 O274 2.374 . S
O263 Tb260 2.453 . S
O263 C279 1.245 . S
O264 Tb260 2.596 . S
O264 Tb262 2.343 . S
O264 C279 1.259 . S
O265 Tb260 2.374 . S
O265 C261 1.251 . S
C266 O270 1.275 . S
C266 O271 1.246 . S
O267 C261 1.263 . S
O267 Tb262 2.353 . S
C268 O272 1.245 . S
C268 O273 1.259 . S
C269 O274 1.250 . S
C269 O275 1.263 . S
O270 Tb262 2.427 . S
O270 C266 1.275 . S
O271 Tb262 2.513 . S
O271 C266 1.246 . S
O272 Tb262 2.453 . S
O272 C268 1.245 . S
O273 Tb260 2.343 . S
O273 Tb262 2.596 . S
O273 C268 1.259 . S
O274 Tb262 2.374 . S
O274 C269 1.250 . S
O275 Tb260 2.353 . S
O275 C269 1.263 . S
C276 O277 1.275 . S
C276 O278 1.246 . S
O277 Tb260 2.427 . S
O277 C276 1.275 . S
O278 Tb260 2.513 . S
O278 C276 1.246 . S
C279 O263 1.245 . S
C279 O264 1.259 . S
Tb280 O283 2.453 . S
Tb280 O284 2.596 . S
Tb280 O285 2.374 . S
Tb280 O293 2.343 . S
Tb280 O295 2.353 . S
Tb280 O297 2.427 . S
Tb280 O298 2.513 . S
C281 O285 1.251 . S
C281 O287 1.263 . S
Tb282 O284 2.343 . S
Tb282 O287 2.353 . S
Tb282 O290 2.427 1_565 S
Tb282 O291 2.513 1_565 S
Tb282 O292 2.453 . S
Tb282 O293 2.596 . S
Tb282 O294 2.374 . S
O283 Tb280 2.453 . S
O283 C299 1.245 . S
O284 Tb280 2.596 . S
O284 Tb282 2.343 . S
O284 C299 1.259 . S
O285 Tb280 2.374 . S
O285 C281 1.251 . S
C286 O290 1.275 . S
C286 O291 1.246 . S
O287 C281 1.263 . S
O287 Tb282 2.353 . S
C288 O292 1.245 . S
C288 O293 1.259 . S
C289 O294 1.250 . S
C289 O295 1.263 . S
O290 Tb282 2.427 1_545 S
O290 C286 1.275 . S
O291 Tb282 2.513 1_545 S
O291 C286 1.246 . S
O292 Tb282 2.453 . S
O292 C288 1.245 . S
O293 Tb280 2.343 . S
O293 Tb282 2.596 . S
O293 C288 1.259 . S
O294 Tb282 2.374 . S
O294 C289 1.250 . S
O295 Tb280 2.353 . S
O295 C289 1.263 . S
C296 O297 1.275 . S
C296 O298 1.246 . S
O297 Tb280 2.427 . S
O297 C296 1.275 . S
O298 Tb280 2.513 . S
O298 C296 1.246 . S
C299 O283 1.245 . S
C299 O284 1.259 . S
Tb300 O303 2.453 . S
Tb300 O304 2.596 . S
Tb300 O305 2.374 . S
Tb300 O313 2.343 . S
Tb300 O315 2.353 . S
Tb300 O317 2.427 1_565 S
Tb300 O318 2.513 1_565 S
C301 O305 1.251 . S
C301 O307 1.263 . S
Tb302 O304 2.343 . S
Tb302 O307 2.353 . S
Tb302 O310 2.427 . S
Tb302 O311 2.513 . S
Tb302 O312 2.453 . S
Tb302 O313 2.596 . S
Tb302 O314 2.374 . S
O303 Tb300 2.453 . S
O303 C319 1.245 . S
O304 Tb300 2.596 . S
O304 Tb302 2.343 . S
O304 C319 1.259 . S
O305 Tb300 2.374 . S
O305 C301 1.251 . S
C306 O310 1.275 . S
C306 O311 1.246 . S
O307 C301 1.263 . S
O307 Tb302 2.353 . S
C308 O312 1.245 . S
C308 O313 1.259 . S
C309 O314 1.250 . S
C309 O315 1.263 . S
O310 Tb302 2.427 . S
O310 C306 1.275 . S
O311 Tb302 2.513 . S
O311 C306 1.246 . S
O312 Tb302 2.453 . S
O312 C308 1.245 . S
O313 Tb300 2.343 . S
O313 Tb302 2.596 . S
O313 C308 1.259 . S
O314 Tb302 2.374 . S
O314 C309 1.250 . S
O315 Tb300 2.353 . S
O315 C309 1.263 . S
C316 O317 1.275 . S
C316 O318 1.246 . S
O317 Tb300 2.427 1_545 S
O317 C316 1.275 . S
O318 Tb300 2.513 1_545 S
O318 C316 1.246 . S
C319 O303 1.245 . S
C319 O304 1.259 . S
Tb320 O323 2.453 . S
Tb320 O324 2.596 . S
Tb320 O325 2.374 . S
Tb320 O333 2.343 . S
Tb320 O335 2.353 . S
Tb320 O337 2.427 . S
Tb320 O338 2.513 . S
C321 O325 1.251 . S
C321 O327 1.263 . S
Tb322 O324 2.343 . S
Tb322 O327 2.353 . S
Tb322 O330 2.427 . S
Tb322 O331 2.513 . S
Tb322 O332 2.453 1_565 S
Tb322 O333 2.596 . S
Tb322 O334 2.374 . S
O323 Tb320 2.453 . S
O323 C339 1.245 . S
O324 Tb320 2.596 . S
O324 Tb322 2.343 . S
O324 C339 1.259 . S
O325 Tb320 2.374 . S
O325 C321 1.251 . S
C326 O330 1.275 . S
C326 O331 1.246 . S
O327 C321 1.263 . S
O327 Tb322 2.353 . S
C328 O332 1.244 1_565 S
C328 O333 1.260 . S
C329 O334 1.250 . S
C329 O335 1.263 . S
O330 Tb322 2.427 . S
O330 C326 1.275 . S
O331 Tb322 2.513 . S
O331 C326 1.246 . S
O332 Tb322 2.453 1_545 S
O332 C328 1.244 1_545 S
O333 Tb320 2.343 . S
O333 Tb322 2.596 . S
O333 C328 1.260 . S
O334 Tb322 2.374 . S
O334 C329 1.250 . S
O335 Tb320 2.353 . S
O335 C329 1.263 . S
C336 O337 1.275 . S
C336 O338 1.246 . S
O337 Tb320 2.427 . S
O337 C336 1.275 . S
O338 Tb320 2.513 . S
O338 C336 1.246 . S
C339 O323 1.245 . S
C339 O324 1.259 . S
Tb340 O343 2.453 . S
Tb340 O344 2.596 . S
Tb340 O345 2.374 . S
Tb340 O353 2.343 . S
Tb340 O355 2.353 . S
Tb340 O357 2.427 . S
Tb340 O358 2.513 . S
C341 O345 1.251 . S
C341 O347 1.263 . S
Tb342 O344 2.343 . S
Tb342 O347 2.353 . S
Tb342 O350 2.427 . S
Tb342 O351 2.513 . S
Tb342 O352 2.453 . S
Tb342 O353 2.596 . S
Tb342 O354 2.374 . S
O343 Tb340 2.453 . S
O343 C359 1.245 . S
O344 Tb340 2.596 . S
O344 Tb342 2.343 . S
O344 C359 1.259 . S
O345 Tb340 2.374 . S
O345 C341 1.251 . S
C346 O350 1.275 . S
C346 O351 1.246 . S
O347 C341 1.263 . S
O347 Tb342 2.353 . S
C348 O352 1.245 . S
C348 O353 1.259 . S
C349 O354 1.250 . S
C349 O355 1.263 . S
O350 Tb342 2.427 . S
O350 C346 1.275 . S
O351 Tb342 2.513 . S
O351 C346 1.246 . S
O352 Tb342 2.453 . S
O352 C348 1.245 . S
O353 Tb340 2.343 . S
O353 Tb342 2.596 . S
O353 C348 1.259 . S
O354 Tb342 2.374 . S
O354 C349 1.250 . S
O355 Tb340 2.353 . S
O355 C349 1.263 . S
C356 O357 1.275 . S
C356 O358 1.246 . S
O357 Tb340 2.427 . S
O357 C356 1.275 . S
O358 Tb340 2.513 . S
O358 C356 1.246 . S
C359 O343 1.245 . S
C359 O344 1.259 . S
Tb360 O363 2.453 . S
Tb360 O364 2.596 . S
Tb360 O365 2.374 . S
Tb360 O373 2.343 . S
Tb360 O375 2.353 . S
Tb360 O377 2.427 . S
Tb360 O378 2.513 . S
C361 O365 1.251 . S
C361 O367 1.263 . S
Tb362 O364 2.343 . S
Tb362 O367 2.353 . S
Tb362 O370 2.427 . S
Tb362 O371 2.513 . S
Tb362 O372 2.453 . S
Tb362 O373 2.596 . S
Tb362 O374 2.374 . S
O363 Tb360 2.453 . S
O363 C379 1.245 . S
O364 Tb360 2.596 . S
O364 Tb362 2.343 . S
O364 C379 1.259 . S
O365 Tb360 2.374 . S
O365 C361 1.251 . S
C366 O370 1.275 . S
C366 O371 1.246 . S
O367 C361 1.263 . S
O367 Tb362 2.353 . S
C368 O372 1.245 . S
C368 O373 1.259 . S
C369 O374 1.250 . S
C369 O375 1.263 . S
O370 Tb362 2.427 . S
O370 C366 1.275 . S
O371 Tb362 2.513 . S
O371 C366 1.246 . S
O372 Tb362 2.453 . S
O372 C368 1.245 . S
O373 Tb360 2.343 . S
O373 Tb362 2.596 . S
O373 C368 1.259 . S
O374 Tb362 2.374 . S
O374 C369 1.250 . S
O375 Tb360 2.353 . S
O375 C369 1.263 . S
C376 O377 1.275 . S
C376 O378 1.246 . S
O377 Tb360 2.427 . S
O377 C376 1.275 . S
O378 Tb360 2.513 . S
O378 C376 1.246 . S
C379 O363 1.245 . S
C379 O364 1.259 . S
Tb380 O383 2.453 1_565 S
Tb380 O384 2.596 . S
Tb380 O385 2.374 . S
Tb380 O393 2.343 . S
Tb380 O395 2.353 . S
Tb380 O397 2.427 . S
Tb380 O398 2.513 . S
C381 O385 1.251 . S
C381 O387 1.263 . S
Tb382 O384 2.343 . S
Tb382 O387 2.353 . S
Tb382 O390 2.427 . S
Tb382 O391 2.513 . S
Tb382 O392 2.453 . S
Tb382 O393 2.596 . S
Tb382 O394 2.374 . S
O383 Tb380 2.453 1_545 S
O383 C399 1.244 . S
O384 Tb380 2.596 . S
O384 Tb382 2.343 . S
O384 C399 1.260 1_565 S
O385 Tb380 2.374 . S
O385 C381 1.251 . S
C386 O390 1.275 . S
C386 O391 1.246 . S
O387 C381 1.263 . S
O387 Tb382 2.353 . S
C388 O392 1.245 . S
C388 O393 1.259 . S
C389 O394 1.250 . S
C389 O395 1.263 . S
O390 Tb382 2.427 . S
O390 C386 1.275 . S
O391 Tb382 2.513 . S
O391 C386 1.246 . S
O392 Tb382 2.453 . S
O392 C388 1.245 . S
O393 Tb380 2.343 . S
O393 Tb382 2.596 . S
O393 C388 1.259 . S
O394 Tb382 2.374 . S
O394 C389 1.250 . S
O395 Tb380 2.353 . S
O395 C389 1.263 . S
C396 O397 1.275 . S
C396 O398 1.246 . S
O397 Tb380 2.427 . S
O397 C396 1.275 . S
O398 Tb380 2.513 . S
O398 C396 1.246 . S
C399 O383 1.244 . S
C399 O384 1.260 1_545 S
Tb400 O403 2.453 . S
Tb400 O404 2.596 . S
Tb400 O405 2.374 . S
Tb400 O413 2.343 . S
Tb400 O415 2.353 . S
Tb400 O417 2.427 . S
Tb400 O418 2.513 . S
C401 O405 1.251 . S
C401 O407 1.263 . S
Tb402 O404 2.343 . S
Tb402 O407 2.353 . S
Tb402 O410 2.427 1_565 S
Tb402 O411 2.513 1_565 S
Tb402 O412 2.453 . S
Tb402 O413 2.596 . S
Tb402 O414 2.374 . S
O403 Tb400 2.453 . S
O403 C419 1.245 . S
O404 Tb400 2.596 . S
O404 Tb402 2.343 . S
O404 C419 1.259 . S
O405 Tb400 2.374 . S
O405 C401 1.251 . S
C406 O410 1.275 . S
C406 O411 1.246 . S
O407 C401 1.263 . S
O407 Tb402 2.353 . S
C408 O412 1.245 . S
C408 O413 1.259 . S
C409 O414 1.250 . S
C409 O415 1.263 . S
O410 Tb402 2.427 1_545 S
O410 C406 1.275 . S
O411 Tb402 2.513 1_545 S
O411 C406 1.246 . S
O412 Tb402 2.453 . S
O412 C408 1.245 . S
O413 Tb400 2.343 . S
O413 Tb402 2.596 . S
O413 C408 1.259 . S
O414 Tb402 2.374 . S
O414 C409 1.250 . S
O415 Tb400 2.353 . S
O415 C409 1.263 . S
C416 O417 1.275 . S
C416 O418 1.246 . S
O417 Tb400 2.427 . S
O417 C416 1.275 . S
O418 Tb400 2.513 . S
O418 C416 1.246 . S
C419 O403 1.245 . S
C419 O404 1.259 . S
Tb420 O423 2.453 . S
Tb420 O424 2.596 . S
Tb420 O425 2.374 . S
Tb420 O433 2.343 . S
Tb420 O435 2.353 . S
Tb420 O437 2.427 1_565 S
Tb420 O438 2.513 1_565 S
C421 O425 1.251 . S
C421 O427 1.263 . S
Tb422 O424 2.343 . S
Tb422 O427 2.353 . S
Tb422 O430 2.427 . S
Tb422 O431 2.513 . S
Tb422 O432 2.453 . S
Tb422 O433 2.596 . S
Tb422 O434 2.374 . S
O423 Tb420 2.453 . S
O423 C439 1.245 . S
O424 Tb420 2.596 . S
O424 Tb422 2.343 . S
O424 C439 1.259 . S
O425 Tb420 2.374 . S
O425 C421 1.251 . S
C426 O430 1.275 . S
C426 O431 1.246 . S
O427 C421 1.263 . S
O427 Tb422 2.353 . S
C428 O432 1.245 . S
C428 O433 1.259 . S
C429 O434 1.250 . S
C429 O435 1.263 . S
O430 Tb422 2.427 . S
O430 C426 1.275 . S
O431 Tb422 2.513 . S
O431 C426 1.246 . S
O432 Tb422 2.453 . S
O432 C428 1.245 . S
O433 Tb420 2.343 . S
O433 Tb422 2.596 . S
O433 C428 1.259 . S
O434 Tb422 2.374 . S
O434 C429 1.250 . S
O435 Tb420 2.353 . S
O435 C429 1.263 . S
C436 O437 1.275 . S
C436 O438 1.246 . S
O437 Tb420 2.427 1_545 S
O437 C436 1.275 . S
O438 Tb420 2.513 1_545 S
O438 C436 1.246 . S
C439 O423 1.245 . S
C439 O424 1.259 . S
Tb440 O443 2.453 . S
Tb440 O444 2.596 . S
Tb440 O445 2.374 . S
Tb440 O453 2.343 . S
Tb440 O455 2.353 . S
Tb440 O457 2.427 . S
Tb440 O458 2.513 . S
C441 O445 1.251 . S
C441 O447 1.263 . S
Tb442 O444 2.343 . S
Tb442 O447 2.353 . S
Tb442 O450 2.427 . S
Tb442 O451 2.513 . S
Tb442 O452 2.453 . S
Tb442 O453 2.596 . S
Tb442 O454 2.374 . S
O443 Tb440 2.453 . S
O443 C459 1.245 . S
O444 Tb440 2.596 . S
O444 Tb442 2.343 . S
O444 C459 1.259 . S
O445 Tb440 2.374 . S
O445 C441 1.251 . S
C446 O450 1.275 . S
C446 O451 1.246 . S
O447 C441 1.263 . S
O447 Tb442 2.353 . S
C448 O452 1.245 . S
C448 O453 1.259 . S
C449 O454 1.250 . S
C449 O455 1.263 . S
O450 Tb442 2.427 . S
O450 C446 1.275 . S
O451 Tb442 2.513 . S
O451 C446 1.246 . S
O452 Tb442 2.453 . S
O452 C448 1.245 . S
O453 Tb440 2.343 . S
O453 Tb442 2.596 . S
O453 C448 1.259 . S
O454 Tb442 2.374 . S
O454 C449 1.250 . S
O455 Tb440 2.353 . S
O455 C449 1.263 . S
C456 O457 1.275 . S
C456 O458 1.246 . S
O457 Tb440 2.427 . S
O457 C456 1.275 . S
O458 Tb440 2.513 . S
O458 C456 1.246 . S
C459 O443 1.245 . S
C459 O444 1.259 . S
Tb460 O463 2.453 . S
Tb460 O464 2.596 . S
Tb460 O465 2.374 . S
Tb460 O473 2.343 . S
Tb460 O475 2.353 . S
Tb460 O477 2.427 . S
Tb460 O478 2.513 . S
C461 O465 1.251 . S
C461 O467 1.263 . S
Tb462 O464 2.343 . S
Tb462 O467 2.353 . S
Tb462 O470 2.427 . S
Tb462 O471 2.513 . S
Tb462 O472 2.453 . S
Tb462 O473 2.596 . S
Tb462 O474 2.374 . S
O463 Tb460 2.453 . S
O463 C479 1.245 . S
O464 Tb460 2.596 . S
O464 Tb462 2.343 . S
O464 C479 1.259 . S
O465 Tb460 2.374 . S
O465 C461 1.251 . S
C466 O470 1.275 . S
C466 O471 1.246 . S
O467 C461 1.263 . S
O467 Tb462 2.353 . S
C468 O472 1.245 . S
C468 O473 1.259 . S
C469 O474 1.250 . S
C469 O475 1.263 . S
O470 Tb462 2.427 . S
O470 C466 1.275 . S
O471 Tb462 2.513 . S
O471 C466 1.246 . S
O472 Tb462 2.453 . S
O472 C468 1.245 . S
O473 Tb460 2.343 . S
O473 Tb462 2.596 . S
O473 C468 1.259 . S
O474 Tb462 2.374 . S
O474 C469 1.250 . S
O475 Tb460 2.353 . S
O475 C469 1.263 . S
C476 O477 1.275 . S
C476 O478 1.246 . S
O477 Tb460 2.427 . S
O477 C476 1.275 . S
O478 Tb460 2.513 . S
O478 C476 1.246 . S
C479 O463 1.245 . S
C479 O464 1.259 . S
Tb480 O483 2.453 . S
Tb480 O484 2.596 . S
Tb480 O485 2.374 . S
Tb480 O493 2.343 . S
Tb480 O495 2.353 . S
Tb480 O497 2.427 1_655 S
Tb480 O498 2.513 1_655 S
C481 O485 1.251 . S
C481 O487 1.263 . S
Tb482 O484 2.343 . S
Tb482 O487 2.353 . S
Tb482 O490 2.427 . S
Tb482 O491 2.513 . S
Tb482 O492 2.453 . S
Tb482 O493 2.596 . S
Tb482 O494 2.374 . S
O483 Tb480 2.453 . S
O483 C499 1.245 . S
O484 Tb480 2.596 . S
O484 Tb482 2.343 . S
O484 C499 1.259 . S
O485 Tb480 2.374 . S
O485 C481 1.251 . S
C486 O490 1.275 . S
C486 O491 1.246 . S
O487 C481 1.263 . S
O487 Tb482 2.353 . S
C488 O492 1.245 . S
C488 O493 1.259 . S
C489 O494 1.250 . S
C489 O495 1.263 . S
O490 Tb482 2.427 . S
O490 C486 1.275 . S
O491 Tb482 2.513 . S
O491 C486 1.246 . S
O492 Tb482 2.453 . S
O492 C488 1.245 . S
O493 Tb480 2.343 . S
O493 Tb482 2.596 . S
O493 C488 1.259 . S
O494 Tb482 2.374 . S
O494 C489 1.250 . S
O495 Tb480 2.353 . S
O495 C489 1.263 . S
C496 O497 1.275 . S
C496 O498 1.246 . S
O497 Tb480 2.427 1_455 S
O497 C496 1.275 . S
O498 Tb480 2.513 1_455 S
O498 C496 1.246 . S
C499 O483 1.245 . S
C499 O484 1.259 . S
Tb500 O503 2.453 . S
Tb500 O504 2.596 . S
Tb500 O505 2.374 . S
Tb500 O513 2.343 . S
Tb500 O515 2.353 . S
Tb500 O517 2.427 . S
Tb500 O518 2.513 . S
C501 O505 1.251 . S
C501 O507 1.263 . S
Tb502 O504 2.343 . S
Tb502 O507 2.353 . S
Tb502 O510 2.427 . S
Tb502 O511 2.513 . S
Tb502 O512 2.453 . S
Tb502 O513 2.596 . S
Tb502 O514 2.374 . S
O503 Tb500 2.453 . S
O503 C519 1.245 . S
O504 Tb500 2.596 . S
O504 Tb502 2.343 . S
O504 C519 1.259 . S
O505 Tb500 2.374 . S
O505 C501 1.251 . S
C506 O510 1.275 . S
C506 O511 1.246 . S
O507 C501 1.263 . S
O507 Tb502 2.353 . S
C508 O512 1.245 . S
C508 O513 1.259 . S
C509 O514 1.250 . S
C509 O515 1.263 . S
O510 Tb502 2.427 . S
O510 C506 1.275 . S
O511 Tb502 2.513 . S
O511 C506 1.246 . S
O512 Tb502 2.453 . S
O512 C508 1.245 . S
O513 Tb500 2.343 . S
O513 Tb502 2.596 . S
O513 C508 1.259 . S
O514 Tb502 2.374 . S
O514 C509 1.250 . S
O515 Tb500 2.353 . S
O515 C509 1.263 . S
C516 O517 1.275 . S
C516 O518 1.246 . S
O517 Tb500 2.427 . S
O517 C516 1.275 . S
O518 Tb500 2.513 . S
O518 C516 1.246 . S
C519 O503 1.245 . S
C519 O504 1.259 . S
Tb520 O523 2.453 . S
Tb520 O524 2.596 . S
Tb520 O525 2.374 . S
Tb520 O533 2.343 . S
Tb520 O535 2.353 . S
Tb520 O537 2.427 . S
Tb520 O538 2.513 . S
C521 O525 1.251 . S
C521 O527 1.263 . S
Tb522 O524 2.343 . S
Tb522 O527 2.353 . S
Tb522 O530 2.427 . S
Tb522 O531 2.513 . S
Tb522 O532 2.453 1_655 S
Tb522 O533 2.596 . S
Tb522 O534 2.374 . S
O523 Tb520 2.453 . S
O523 C539 1.245 . S
O524 Tb520 2.596 . S
O524 Tb522 2.343 . S
O524 C539 1.259 . S
O525 Tb520 2.374 . S
O525 C521 1.251 . S
C526 O530 1.275 . S
C526 O531 1.246 . S
O527 C521 1.263 . S
O527 Tb522 2.353 . S
C528 O532 1.244 1_655 S
C528 O533 1.261 . S
C529 O534 1.250 . S
C529 O535 1.263 . S
O530 Tb522 2.427 . S
O530 C526 1.275 . S
O531 Tb522 2.513 . S
O531 C526 1.246 . S
O532 Tb522 2.453 1_455 S
O532 C528 1.244 1_455 S
O533 Tb520 2.343 . S
O533 Tb522 2.596 . S
O533 C528 1.261 . S
O534 Tb522 2.374 . S
O534 C529 1.250 . S
O535 Tb520 2.353 . S
O535 C529 1.263 . S
C536 O537 1.275 . S
C536 O538 1.246 . S
O537 Tb520 2.427 . S
O537 C536 1.275 . S
O538 Tb520 2.513 . S
O538 C536 1.246 . S
C539 O523 1.245 . S
C539 O524 1.259 . S
Tb540 O543 2.453 . S
Tb540 O544 2.596 . S
Tb540 O545 2.374 . S
Tb540 O553 2.343 . S
Tb540 O555 2.353 . S
Tb540 O557 2.427 . S
Tb540 O558 2.513 . S
C541 O545 1.251 . S
C541 O547 1.263 . S
Tb542 O544 2.343 . S
Tb542 O547 2.353 . S
Tb542 O550 2.427 . S
Tb542 O551 2.513 . S
Tb542 O552 2.453 . S
Tb542 O553 2.596 . S
Tb542 O554 2.374 . S
O543 Tb540 2.453 . S
O543 C559 1.245 . S
O544 Tb540 2.596 . S
O544 Tb542 2.343 . S
O544 C559 1.259 . S
O545 Tb540 2.374 . S
O545 C541 1.251 . S
C546 O550 1.275 . S
C546 O551 1.246 . S
O547 C541 1.263 . S
O547 Tb542 2.353 . S
C548 O552 1.245 . S
C548 O553 1.259 . S
C549 O554 1.250 . S
C549 O555 1.263 . S
O550 Tb542 2.427 . S
O550 C546 1.275 . S
O551 Tb542 2.513 . S
O551 C546 1.246 . S
O552 Tb542 2.453 . S
O552 C548 1.245 . S
O553 Tb540 2.343 . S
O553 Tb542 2.596 . S
O553 C548 1.259 . S
O554 Tb542 2.374 . S
O554 C549 1.250 . S
O555 Tb540 2.353 . S
O555 C549 1.263 . S
C556 O557 1.275 . S
C556 O558 1.246 . S
O557 Tb540 2.427 . S
O557 C556 1.275 . S
O558 Tb540 2.513 . S
O558 C556 1.246 . S
C559 O543 1.245 . S
C559 O544 1.259 . S
Tb560 O563 2.453 . S
Tb560 O564 2.596 . S
Tb560 O565 2.374 . S
Tb560 O573 2.343 . S
Tb560 O575 2.353 . S
Tb560 O577 2.427 . S
Tb560 O578 2.513 . S
C561 O565 1.251 . S
C561 O567 1.263 . S
Tb562 O564 2.343 . S
Tb562 O567 2.353 . S
Tb562 O570 2.427 1_655 S
Tb562 O571 2.513 1_655 S
Tb562 O572 2.453 . S
Tb562 O573 2.596 . S
Tb562 O574 2.374 . S
O563 Tb560 2.453 . S
O563 C579 1.245 . S
O564 Tb560 2.596 . S
O564 Tb562 2.343 . S
O564 C579 1.259 . S
O565 Tb560 2.374 . S
O565 C561 1.251 . S
C566 O570 1.275 . S
C566 O571 1.246 . S
O567 C561 1.263 . S
O567 Tb562 2.353 . S
C568 O572 1.245 . S
C568 O573 1.259 . S
C569 O574 1.250 . S
C569 O575 1.263 . S
O570 Tb562 2.427 1_455 S
O570 C566 1.275 . S
O571 Tb562 2.513 1_455 S
O571 C566 1.246 . S
O572 Tb562 2.453 . S
O572 C568 1.245 . S
O573 Tb560 2.343 . S
O573 Tb562 2.596 . S
O573 C568 1.259 . S
O574 Tb562 2.374 . S
O574 C569 1.250 . S
O575 Tb560 2.353 . S
O575 C569 1.263 . S
C576 O577 1.275 . S
C576 O578 1.246 . S
O577 Tb560 2.427 . S
O577 C576 1.275 . S
O578 Tb560 2.513 . S
O578 C576 1.246 . S
C579 O563 1.245 . S
C579 O564 1.259 . S
Tb580 O583 2.453 . S
Tb580 O584 2.596 . S
Tb580 O585 2.374 . S
Tb580 O593 2.343 . S
Tb580 O595 2.353 . S
Tb580 O597 2.427 . S
Tb580 O598 2.513 . S
C581 O585 1.251 . S
C581 O587 1.263 . S
Tb582 O584 2.343 . S
Tb582 O587 2.353 . S
Tb582 O590 2.427 . S
Tb582 O591 2.513 . S
Tb582 O592 2.453 . S
Tb582 O593 2.596 . S
Tb582 O594 2.374 . S
O583 Tb580 2.453 . S
O583 C599 1.245 . S
O584 Tb580 2.596 . S
O584 Tb582 2.343 . S
O584 C599 1.259 . S
O585 Tb580 2.374 . S
O585 C581 1.251 . S
C586 O590 1.275 . S
C586 O591 1.246 . S
O587 C581 1.263 . S
O587 Tb582 2.353 . S
C588 O592 1.245 . S
C588 O593 1.259 . S
C589 O594 1.250 . S
C589 O595 1.263 . S
O590 Tb582 2.427 . S
O590 C586 1.275 . S
O591 Tb582 2.513 . S
O591 C586 1.246 . S
O592 Tb582 2.453 . S
O592 C588 1.245 . S
O593 Tb580 2.343 . S
O593 Tb582 2.596 . S
O593 C588 1.259 . S
O594 Tb582 2.374 . S
O594 C589 1.250 . S
O595 Tb580 2.353 . S
O595 C589 1.263 . S
C596 O597 1.275 . S
C596 O598 1.246 . S
O597 Tb580 2.427 . S
O597 C596 1.275 . S
O598 Tb580 2.513 . S
O598 C596 1.246 . S
C599 O583 1.245 . S
C599 O584 1.259 . S
Tb600 O603 2.453 . S
Tb600 O604 2.596 . S
Tb600 O605 2.374 . S
Tb600 O613 2.343 . S
Tb600 O615 2.353 . S
Tb600 O617 2.427 1_655 S
Tb600 O618 2.513 1_655 S
C601 O605 1.251 . S
C601 O607 1.263 . S
Tb602 O604 2.343 . S
Tb602 O607 2.353 . S
Tb602 O610 2.427 . S
Tb602 O611 2.513 . S
Tb602 O612 2.453 . S
Tb602 O613 2.596 . S
Tb602 O614 2.374 . S
O603 Tb600 2.453 . S
O603 C619 1.245 . S
O604 Tb600 2.596 . S
O604 Tb602 2.343 . S
O604 C619 1.259 . S
O605 Tb600 2.374 . S
O605 C601 1.251 . S
C606 O610 1.275 . S
C606 O611 1.246 . S
O607 C601 1.263 . S
O607 Tb602 2.353 . S
C608 O612 1.245 . S
C608 O613 1.259 . S
C609 O614 1.250 . S
C609 O615 1.263 . S
O610 Tb602 2.427 . S
O610 C606 1.275 . S
O611 Tb602 2.513 . S
O611 C606 1.246 . S
O612 Tb602 2.453 . S
O612 C608 1.245 . S
O613 Tb600 2.343 . S
O613 Tb602 2.596 . S
O613 C608 1.259 . S
O614 Tb602 2.374 . S
O614 C609 1.250 . S
O615 Tb600 2.353 . S
O615 C609 1.263 . S
C616 O617 1.275 . S
C616 O618 1.246 . S
O617 Tb600 2.427 1_455 S
O617 C616 1.275 . S
O618 Tb600 2.513 1_455 S
O618 C616 1.246 . S
C619 O603 1.245 . S
C619 O604 1.259 . S
Tb620 O623 2.453 . S
Tb620 O624 2.596 . S
Tb620 O625 2.374 . S
Tb620 O633 2.343 . S
Tb620 O635 2.353 . S
Tb620 O637 2.427 . S
Tb620 O638 2.513 . S
C621 O625 1.251 . S
C621 O627 1.263 . S
Tb622 O624 2.343 . S
Tb622 O627 2.353 . S
Tb622 O630 2.427 . S
Tb622 O631 2.513 . S
Tb622 O632 2.453 . S
Tb622 O633 2.596 . S
Tb622 O634 2.374 . S
O623 Tb620 2.453 . S
O623 C639 1.245 . S
O624 Tb620 2.596 . S
O624 Tb622 2.343 . S
O624 C639 1.259 . S
O625 Tb620 2.374 . S
O625 C621 1.251 . S
C626 O630 1.275 . S
C626 O631 1.246 . S
O627 C621 1.263 . S
O627 Tb622 2.353 . S
C628 O632 1.245 . S
C628 O633 1.259 . S
C629 O634 1.250 . S
C629 O635 1.263 . S
O630 Tb622 2.427 . S
O630 C626 1.275 . S
O631 Tb622 2.513 . S
O631 C626 1.246 . S
O632 Tb622 2.453 . S
O632 C628 1.245 . S
O633 Tb620 2.343 . S
O633 Tb622 2.596 . S
O633 C628 1.259 . S
O634 Tb622 2.374 . S
O634 C629 1.250 . S
O635 Tb620 2.353 . S
O635 C629 1.263 . S
C636 O637 1.275 . S
C636 O638 1.246 . S
O637 Tb620 2.427 . S
O637 C636 1.275 . S
O638 Tb620 2.513 . S
O638 C636 1.246 . S
C639 O623 1.245 . S
C639 O624 1.259 . S
Tb640 O643 2.453 . S
Tb640 O644 2.596 . S
Tb640 O645 2.374 . S
Tb640 O653 2.343 . S
Tb640 O655 2.353 . S
Tb640 O657 2.427 . S
Tb640 O658 2.513 . S
C641 O645 1.251 . S
C641 O647 1.263 . S
Tb642 O644 2.343 . S
Tb642 O647 2.353 . S
Tb642 O650 2.427 . S
Tb642 O651 2.513 . S
Tb642 O652 2.453 . S
Tb642 O653 2.596 . S
Tb642 O654 2.374 . S
O643 Tb640 2.453 . S
O643 C659 1.245 . S
O644 Tb640 2.596 . S
O644 Tb642 2.343 . S
O644 C659 1.259 . S
O645 Tb640 2.374 . S
O645 C641 1.251 . S
C646 O650 1.275 . S
C646 O651 1.246 . S
O647 C641 1.263 . S
O647 Tb642 2.353 . S
C648 O652 1.245 . S
C648 O653 1.259 . S
C649 O654 1.250 . S
C649 O655 1.263 . S
O650 Tb642 2.427 . S
O650 C646 1.275 . S
O651 Tb642 2.513 . S
O651 C646 1.246 . S
O652 Tb642 2.453 . S
O652 C648 1.245 . S
O653 Tb640 2.343 . S
O653 Tb642 2.596 . S
O653 C648 1.259 . S
O654 Tb642 2.374 . S
O654 C649 1.250 . S
O655 Tb640 2.353 . S
O655 C649 1.263 . S
C656 O657 1.275 . S
C656 O658 1.246 . S
O657 Tb640 2.427 . S
O657 C656 1.275 . S
O658 Tb640 2.513 . S
O658 C656 1.246 . S
C659 O643 1.245 . S
C659 O644 1.259 . S
Tb660 O663 2.453 . S
Tb660 O664 2.596 . S
Tb660 O665 2.374 . S
Tb660 O673 2.343 . S
Tb660 O675 2.353 . S
Tb660 O677 2.427 . S
Tb660 O678 2.513 . S
C661 O665 1.251 . S
C661 O667 1.263 . S
Tb662 O664 2.343 . S
Tb662 O667 2.353 . S
Tb662 O670 2.427 . S
Tb662 O671 2.513 . S
Tb662 O672 2.453 . S
Tb662 O673 2.596 . S
Tb662 O674 2.374 . S
O663 Tb660 2.453 . S
O663 C679 1.245 . S
O664 Tb660 2.596 . S
O664 Tb662 2.343 . S
O664 C679 1.259 . S
O665 Tb660 2.374 . S
O665 C661 1.251 . S
C666 O670 1.275 . S
C666 O671 1.246 . S
O667 C661 1.263 . S
O667 Tb662 2.353 . S
C668 O672 1.245 . S
C668 O673 1.259 . S
C669 O674 1.250 . S
C669 O675 1.263 . S
O670 Tb662 2.427 . S
O670 C666 1.275 . S
O671 Tb662 2.513 . S
O671 C666 1.246 . S
O672 Tb662 2.453 . S
O672 C668 1.245 . S
O673 Tb660 2.343 . S
O673 Tb662 2.596 . S
O673 C668 1.259 . S
O674 Tb662 2.374 . S
O674 C669 1.250 . S
O675 Tb660 2.353 . S
O675 C669 1.263 . S
C676 O677 1.275 . S
C676 O678 1.246 . S
O677 Tb660 2.427 . S
O677 C676 1.275 . S
O678 Tb660 2.513 . S
O678 C676 1.246 . S
C679 O663 1.245 . S
C679 O664 1.259 . S
Tb680 O683 2.453 . S
Tb680 O684 2.596 . S
Tb680 O685 2.374 . S
Tb680 O693 2.343 . S
Tb680 O695 2.353 . S
Tb680 O697 2.427 . S
Tb680 O698 2.513 . S
C681 O685 1.251 . S
C681 O687 1.263 . S
Tb682 O684 2.343 . S
Tb682 O687 2.353 . S
Tb682 O690 2.427 1_655 S
Tb682 O691 2.513 1_655 S
Tb682 O692 2.453 . S
Tb682 O693 2.596 . S
Tb682 O694 2.374 . S
O683 Tb680 2.453 . S
O683 C699 1.245 . S
O684 Tb680 2.596 . S
O684 Tb682 2.343 . S
O684 C699 1.259 . S
O685 Tb680 2.374 . S
O685 C681 1.251 . S
C686 O690 1.275 . S
C686 O691 1.246 . S
O687 C681 1.263 . S
O687 Tb682 2.353 . S
C688 O692 1.245 . S
C688 O693 1.259 . S
C689 O694 1.250 . S
C689 O695 1.263 . S
O690 Tb682 2.427 1_455 S
O690 C686 1.275 . S
O691 Tb682 2.513 1_455 S
O691 C686 1.246 . S
O692 Tb682 2.453 . S
O692 C688 1.245 . S
O693 Tb680 2.343 . S
O693 Tb682 2.596 . S
O693 C688 1.259 . S
O694 Tb682 2.374 . S
O694 C689 1.250 . S
O695 Tb680 2.353 . S
O695 C689 1.263 . S
C696 O697 1.275 . S
C696 O698 1.246 . S
O697 Tb680 2.427 . S
O697 C696 1.275 . S
O698 Tb680 2.513 . S
O698 C696 1.246 . S
C699 O683 1.245 . S
C699 O684 1.259 . S
Tb700 O703 2.453 1_655 S
Tb700 O704 2.596 . S
Tb700 O705 2.374 . S
Tb700 O713 2.343 . S
Tb700 O715 2.353 . S
Tb700 O717 2.427 . S
Tb700 O718 2.513 . S
C701 O705 1.251 . S
C701 O707 1.263 . S
Tb702 O704 2.343 . S
Tb702 O707 2.353 . S
Tb702 O710 2.427 . S
Tb702 O711 2.513 . S
Tb702 O712 2.453 . S
Tb702 O713 2.596 . S
Tb702 O714 2.374 . S
O703 Tb700 2.453 1_455 S
O703 C719 1.244 . S
O704 Tb700 2.596 . S
O704 Tb702 2.343 . S
O704 C719 1.260 1_655 S
O705 Tb700 2.374 . S
O705 C701 1.251 . S
C706 O710 1.275 . S
C706 O711 1.246 . S
O707 C701 1.263 . S
O707 Tb702 2.353 . S
C708 O712 1.245 . S
C708 O713 1.259 . S
C709 O714 1.250 . S
C709 O715 1.263 . S
O710 Tb702 2.427 . S
O710 C706 1.275 . S
O711 Tb702 2.513 . S
O711 C706 1.246 . S
O712 Tb702 2.453 . S
O712 C708 1.245 . S
O713 Tb700 2.343 . S
O713 Tb702 2.596 . S
O713 C708 1.259 . S
O714 Tb702 2.374 . S
O714 C709 1.250 . S
O715 Tb700 2.353 . S
O715 C709 1.263 . S
C716 O717 1.275 . S
C716 O718 1.246 . S
O717 Tb700 2.427 . S
O717 C716 1.275 . S
O718 Tb700 2.513 . S
O718 C716 1.246 . S
C719 O703 1.244 . S
C719 O704 1.260 1_455 S
C720 C721 1.387 . S
C720 H724 0.950 . S
C720 C729 1.390 . S
C721 C720 1.387 . S
C721 C723 1.387 . S
H722 C729 0.950 . S
C723 C721 1.387 . S
C723 C725 1.390 . S
C723 H727 0.950 . S
H724 C720 0.950 . S
C725 C723 1.390 . S
C725 C726 1.387 . S
C725 H728 0.950 . S
C726 C725 1.387 . S
C726 C729 1.387 . S
H727 C723 0.950 . S
H728 C725 0.950 . S
C729 C720 1.390 . S
C729 H722 0.950 . S
C729 C726 1.387 . S
C730 C731 1.387 . S
C730 H734 0.950 . S
C730 C739 1.390 . S
C731 C730 1.387 . S
C731 C733 1.387 . S
H732 C739 0.950 . S
C733 C731 1.387 . S
C733 C735 1.390 1_655 S
C733 H737 0.950 1_655 S
H734 C730 0.950 . S
C735 C733 1.390 1_455 S
C735 C736 1.387 1_455 S
C735 H738 0.950 . S
C736 C735 1.387 1_655 S
C736 C739 1.387 . S
H737 C733 0.950 1_455 S
H738 C735 0.950 . S
C739 C730 1.390 . S
C739 H732 0.950 . S
C739 C736 1.387 . S
C740 C741 1.387 . S
C740 H744 0.950 . S
C740 C749 1.390 . S
C741 C740 1.387 . S
C741 C743 1.387 . S
H742 C749 0.950 . S
C743 C741 1.387 . S
C743 C745 1.390 . S
C743 H747 0.950 . S
H744 C740 0.950 . S
C745 C743 1.390 . S
C745 C746 1.387 . S
C745 H748 0.950 . S
C746 C745 1.387 . S
C746 C749 1.387 . S
H747 C743 0.950 . S
H748 C745 0.950 . S
C749 C740 1.390 . S
C749 H742 0.950 . S
C749 C746 1.387 . S
C750 C751 1.387 . S
C750 H754 0.950 . S
C750 C759 1.390 . S
C751 C750 1.387 . S
C751 C753 1.387 . S
H752 C759 0.950 . S
C753 C751 1.387 . S
C753 C755 1.390 . S
C753 H757 0.950 . S
H754 C750 0.950 . S
C755 C753 1.390 . S
C755 C756 1.387 . S
C755 H758 0.950 . S
C756 C755 1.387 . S
C756 C759 1.387 . S
H757 C753 0.950 . S
H758 C755 0.950 . S
C759 C750 1.390 . S
C759 H752 0.950 . S
C759 C756 1.387 . S
C760 C761 1.387 . S
C760 H764 0.950 . S
C760 C769 1.390 . S
C761 C760 1.387 . S
C761 C763 1.387 . S
H762 C769 0.950 . S
C763 C761 1.387 . S
C763 C765 1.390 . S
C763 H767 0.950 . S
H764 C760 0.950 . S
C765 C763 1.390 . S
C765 C766 1.387 . S
C765 H768 0.950 . S
C766 C765 1.387 . S
C766 C769 1.387 . S
H767 C763 0.950 . S
H768 C765 0.950 . S
C769 C760 1.390 . S
C769 H762 0.950 . S
C769 C766 1.387 . S
C770 C771 1.387 . S
C770 H774 0.950 1_565 S
C770 C779 1.390 1_565 S
C771 C770 1.387 . S
C771 C773 1.387 . S
H772 C779 0.950 . S
C773 C771 1.387 . S
C773 C775 1.390 . S
C773 H777 0.950 . S
H774 C770 0.950 1_545 S
C775 C773 1.390 . S
C775 C776 1.387 . S
C775 H778 0.950 . S
C776 C775 1.387 . S
C776 C779 1.387 1_565 S
H777 C773 0.950 . S
H778 C775 0.950 . S
C779 C770 1.390 1_545 S
C779 H772 0.950 . S
C779 C776 1.387 1_545 S
C780 C781 1.387 . S
C780 H784 0.950 . S
C780 C789 1.390 . S
C781 C780 1.387 . S
C781 C783 1.387 1_565 S
H782 C789 0.950 . S
C783 C781 1.387 1_545 S
C783 C785 1.390 1_545 S
C783 H787 0.950 . S
H784 C780 0.950 . S
C785 C783 1.390 1_565 S
C785 C786 1.387 . S
C785 H788 0.950 1_565 S
C786 C785 1.387 . S
C786 C789 1.387 . S
H787 C783 0.950 . S
H788 C785 0.950 1_545 S
C789 C780 1.390 . S
C789 H782 0.950 . S
C789 C786 1.387 . S
C790 C791 1.387 . S
C790 H794 0.950 . S
C790 C799 1.390 . S
C791 C790 1.387 . S
C791 C793 1.387 . S
H792 C799 0.950 . S
C793 C791 1.387 . S
C793 C795 1.390 . S
C793 H797 0.950 . S
H794 C790 0.950 . S
C795 C793 1.390 . S
C795 C796 1.387 . S
C795 H798 0.950 . S
C796 C795 1.387 . S
C796 C799 1.387 . S
H797 C793 0.950 . S
H798 C795 0.950 . S
C799 C790 1.390 . S
C799 H792 0.950 . S
C799 C796 1.387 . S
C800 C801 1.387 . S
C800 H804 0.950 . S
C800 C809 1.390 . S
C801 C800 1.387 . S
C801 C803 1.387 . S
H802 C809 0.950 . S
C803 C801 1.387 . S
C803 C805 1.390 . S
C803 H807 0.950 . S
H804 C800 0.950 . S
C805 C803 1.390 . S
C805 C806 1.387 . S
C805 H808 0.950 . S
C806 C805 1.387 . S
C806 C809 1.387 . S
H807 C803 0.950 . S
H808 C805 0.950 . S
C809 C800 1.390 . S
C809 H802 0.950 . S
C809 C806 1.387 . S
C810 C811 1.387 . S
C810 H814 0.950 . S
C810 C819 1.390 . S
C811 C810 1.387 . S
C811 C813 1.387 . S
H812 C819 0.950 . S
C813 C811 1.387 . S
C813 C815 1.390 . S
C813 H817 0.950 . S
H814 C810 0.950 . S
C815 C813 1.390 . S
C815 C816 1.387 . S
C815 H818 0.950 . S
C816 C815 1.387 . S
C816 C819 1.387 . S
H817 C813 0.950 . S
H818 C815 0.950 . S
C819 C810 1.390 . S
C819 H812 0.950 . S
C819 C816 1.387 . S
C820 C821 1.387 . S
C820 H824 0.950 . S
C820 C829 1.390 . S
C821 C820 1.387 . S
C821 C823 1.387 . S
H822 C829 0.950 . S
C823 C821 1.387 . S
C823 C825 1.390 . S
C823 H827 0.950 . S
H824 C820 0.950 . S
C825 C823 1.390 . S
C825 C826 1.387 . S
C825 H828 0.950 . S
C826 C825 1.387 . S
C826 C829 1.387 . S
H827 C823 0.950 . S
H828 C825 0.950 . S
C829 C820 1.390 . S
C829 H822 0.950 . S
C829 C826 1.387 . S
C830 C831 1.387 . S
C830 H834 0.950 . S
C830 C839 1.390 . S
C831 C830 1.387 . S
C831 C833 1.387 . S
H832 C839 0.950 . S
C833 C831 1.387 . S
C833 C835 1.390 . S
C833 H837 0.950 . S
H834 C830 0.950 . S
C835 C833 1.390 . S
C835 C836 1.387 . S
C835 H838 0.950 . S
C836 C835 1.387 . S
C836 C839 1.387 . S
H837 C833 0.950 . S
H838 C835 0.950 . S
C839 C830 1.390 . S
C839 H832 0.950 . S
C839 C836 1.387 . S
C840 C841 1.387 . S
C840 H844 0.950 . S
C840 C849 1.390 . S
C841 C840 1.387 . S
C841 C843 1.387 . S
H842 C849 0.950 . S
C843 C841 1.387 . S
C843 C845 1.390 . S
C843 H847 0.950 . S
H844 C840 0.950 . S
C845 C843 1.390 . S
C845 C846 1.387 . S
C845 H848 0.950 . S
C846 C845 1.387 . S
C846 C849 1.387 . S
H847 C843 0.950 . S
H848 C845 0.950 . S
C849 C840 1.390 . S
C849 H842 0.950 . S
C849 C846 1.387 . S
C850 C851 1.387 1_545 S
C850 H854 0.950 1_545 S
C850 C859 1.390 . S
C851 C850 1.387 1_565 S
C851 C853 1.387 1_565 S
H852 C859 0.950 . S
C853 C851 1.387 1_545 S
C853 C855 1.390 . S
C853 H857 0.950 1_545 S
H854 C850 0.950 1_565 S
C855 C853 1.390 . S
C855 C856 1.387 . S
C855 H858 0.950 . S
C856 C855 1.387 . S
C856 C859 1.387 . S
H857 C853 0.950 1_565 S
H858 C855 0.950 . S
C859 C850 1.390 . S
C859 H852 0.950 . S
C859 C856 1.387 . S
C860 C861 1.387 1_455 S
C860 H864 0.950 . S
C860 C869 1.390 . S
C861 C860 1.387 1_655 S
C861 C863 1.387 . S
H862 C869 0.950 . S
C863 C861 1.387 . S
C863 C865 1.390 1_655 S
C863 H867 0.950 . S
H864 C860 0.950 . S
C865 C863 1.390 1_455 S
C865 C866 1.387 . S
C865 H868 0.950 . S
C866 C865 1.387 . S
C866 C869 1.387 . S
H867 C863 0.950 . S
H868 C865 0.950 . S
C869 C860 1.390 . S
C869 H862 0.950 . S
C869 C866 1.387 . S
C870 C871 1.387 . S
C870 H874 0.950 . S
C870 C879 1.390 . S
C871 C870 1.387 . S
C871 C873 1.387 . S
H872 C879 0.950 . S
C873 C871 1.387 . S
C873 C875 1.390 . S
C873 H877 0.950 . S
H874 C870 0.950 . S
C875 C873 1.390 . S
C875 C876 1.387 . S
C875 H878 0.950 . S
C876 C875 1.387 . S
C876 C879 1.387 . S
H877 C873 0.950 . S
H878 C875 0.950 . S
C879 C870 1.390 . S
C879 H872 0.950 . S
C879 C876 1.387 . S
C880 C881 1.387 1_545 S
C880 H884 0.950 1_545 S
C880 C889 1.390 . S
C881 C880 1.387 1_565 S
C881 C883 1.387 1_565 S
H882 C889 0.950 . S
C883 C881 1.387 1_545 S
C883 C885 1.390 . S
C883 H887 0.950 1_545 S
H884 C880 0.950 1_565 S
C885 C883 1.390 . S
C885 C886 1.387 . S
C885 H888 0.950 . S
C886 C885 1.387 . S
C886 C889 1.387 . S
H887 C883 0.950 1_565 S
H888 C885 0.950 . S
C889 C880 1.390 . S
C889 H882 0.950 . S
C889 C886 1.387 . S
C890 C891 1.387 1_455 S
C890 H894 0.950 . S
C890 C899 1.390 . S
C891 C890 1.387 1_655 S
C891 C893 1.387 . S
H892 C899 0.950 . S
C893 C891 1.387 . S
C893 C895 1.390 1_655 S
C893 H897 0.950 . S
H894 C890 0.950 . S
C895 C893 1.390 1_455 S
C895 C896 1.387 . S
C895 H898 0.950 . S
C896 C895 1.387 . S
C896 C899 1.387 . S
H897 C893 0.950 . S
H898 C895 0.950 . S
C899 C890 1.390 . S
C899 H892 0.950 . S
C899 C896 1.387 . S
C900 C901 1.387 1_565 S
C900 H904 0.950 . S
C900 C909 1.390 1_554 S
C901 C900 1.387 1_545 S
C901 C903 1.387 . S
H902 C909 0.950 . S
C903 C901 1.387 . S
C903 C905 1.390 1_554 S
C903 H907 0.950 . S
H904 C900 0.950 . S
C905 C903 1.390 1_556 S
C905 C906 1.387 . S
C905 H908 0.950 . S
C906 C905 1.387 . S
C906 C909 1.387 1_545 S
H907 C903 0.950 . S
H908 C905 0.950 . S
C909 C900 1.390 1_556 S
C909 H902 0.950 . S
C909 C906 1.387 1_565 S
C910 C911 1.387 . S
C910 H914 0.950 . S
C910 C919 1.390 1_556 S
C911 C910 1.387 . S
C911 C913 1.387 . S
H912 C919 0.950 . S
C913 C911 1.387 . S
C913 C915 1.390 1_556 S
C913 H917 0.950 1_455 S
H914 C910 0.950 . S
C915 C913 1.390 1_554 S
C915 C916 1.387 . S
C915 H918 0.950 . S
C916 C915 1.387 . S
C916 C919 1.387 . S
H917 C913 0.950 1_655 S
H918 C915 0.950 . S
C919 C910 1.390 1_554 S
C919 H912 0.950 . S
C919 C916 1.387 . S
C920 C921 1.387 . S
C920 H924 0.950 . S
C920 C929 1.390 1_554 S
C921 C920 1.387 . S
C921 C923 1.387 . S
H922 C929 0.950 . S
C923 C921 1.387 . S
C923 C925 1.390 1_554 S
C923 H927 0.950 . S
H924 C920 0.950 . S
C925 C923 1.390 1_556 S
C925 C926 1.387 . S
C925 H928 0.950 . S
C926 C925 1.387 . S
C926 C929 1.387 . S
H927 C923 0.950 . S
H928 C925 0.950 . S
C929 C920 1.390 1_556 S
C929 H922 0.950 . S
C929 C926 1.387 . S
C930 C931 1.387 . S
C930 H934 0.950 . S
C930 C939 1.390 . S
C931 C930 1.387 . S
C931 C933 1.387 . S
H932 C939 0.950 . S
C933 C931 1.387 . S
C933 C935 1.390 1_455 S
C933 H937 0.950 1_455 S
H934 C930 0.950 . S
C935 C933 1.390 1_655 S
C935 C936 1.387 1_655 S
C935 H938 0.950 . S
C936 C935 1.387 1_455 S
C936 C939 1.387 . S
H937 C933 0.950 1_655 S
H938 C935 0.950 . S
C939 C930 1.390 . S
C939 H932 0.950 . S
C939 C936 1.387 . S
C940 C941 1.387 . S
C940 H944 0.950 . S
C940 C949 1.390 . S
C941 C940 1.387 . S
C941 C943 1.387 . S
H942 C949 0.950 . S
C943 C941 1.387 . S
C943 C945 1.390 . S
C943 H947 0.950 . S
H944 C940 0.950 . S
C945 C943 1.390 . S
C945 C946 1.387 . S
C945 H948 0.950 . S
C946 C945 1.387 . S
C946 C949 1.387 . S
H947 C943 0.950 . S
H948 C945 0.950 . S
C949 C940 1.390 . S
C949 H942 0.950 . S
C949 C946 1.387 . S
C950 C951 1.387 . S
C950 H954 0.950 1_545 S
C950 C959 1.390 . S
C951 C950 1.387 . S
C951 C953 1.387 . S
H952 C959 0.950 . S
C953 C951 1.387 . S
C953 C955 1.390 . S
C953 H957 0.950 . S
H954 C950 0.950 1_565 S
C955 C953 1.390 . S
C955 C956 1.387 . S
C955 H958 0.950 . S
C956 C955 1.387 . S
C956 C959 1.387 . S
H957 C953 0.950 . S
H958 C955 0.950 . S
C959 C950 1.390 . S
C959 H952 0.950 . S
C959 C956 1.387 . S
C960 C961 1.387 . S
C960 H964 0.950 . S
C960 C969 1.390 . S
C961 C960 1.387 . S
C961 C963 1.387 . S
H962 C969 0.950 . S
C963 C961 1.387 . S
C963 C965 1.390 . S
C963 H967 0.950 . S
H964 C960 0.950 . S
C965 C963 1.390 . S
C965 C966 1.387 . S
C965 H968 0.950 . S
C966 C965 1.387 . S
C966 C969 1.387 . S
H967 C963 0.950 . S
H968 C965 0.950 . S
C969 C960 1.390 . S
C969 H962 0.950 . S
C969 C966 1.387 . S
C970 C971 1.387 . S
C970 H974 0.950 . S
C970 C979 1.390 . S
C971 C970 1.387 . S
C971 C973 1.387 . S
H972 C979 0.950 . S
C973 C971 1.387 . S
C973 C975 1.390 . S
C973 H977 0.950 . S
H974 C970 0.950 . S
C975 C973 1.390 . S
C975 C976 1.387 . S
C975 H978 0.950 . S
C976 C975 1.387 . S
C976 C979 1.387 . S
H977 C973 0.950 . S
H978 C975 0.950 . S
C979 C970 1.390 . S
C979 H972 0.950 . S
C979 C976 1.387 . S
C980 C981 1.387 . S
C980 H984 0.950 . S
C980 C989 1.390 . S
C981 C980 1.387 . S
C981 C983 1.387 . S
H982 C989 0.950 . S
C983 C981 1.387 . S
C983 C985 1.390 . S
C983 H987 0.950 . S
H984 C980 0.950 . S
C985 C983 1.390 . S
C985 C986 1.387 . S
C985 H988 0.950 . S
C986 C985 1.387 . S
C986 C989 1.387 . S
H987 C983 0.950 . S
H988 C985 0.950 . S
C989 C980 1.390 . S
C989 H982 0.950 . S
C989 C986 1.387 . S
C990 C991 1.387 . S
C990 H994 0.950 . S
C990 C999 1.390 . S
C991 C990 1.387 . S
C991 C993 1.387 . S
H992 C999 0.950 . S
C993 C991 1.387 . S
C993 C995 1.390 . S
C993 H997 0.950 . S
H994 C990 0.950 . S
C995 C993 1.390 . S
C995 C996 1.387 . S
C995 H998 0.950 . S
C996 C995 1.387 . S
C996 C999 1.387 . S
H997 C993 0.950 . S
H998 C995 0.950 . S
C999 C990 1.390 . S
C999 H992 0.950 . S
C999 C996 1.387 . S
C1000 C1001 1.387 . S
C1000 H1004 0.950 . S
C1000 C1009 1.390 . S
C1001 C1000 1.387 . S
C1001 C1003 1.387 . S
H1002 C1009 0.950 . S
C1003 C1001 1.387 . S
C1003 C1005 1.390 . S
C1003 H1007 0.950 . S
H1004 C1000 0.950 . S
C1005 C1003 1.390 . S
C1005 C1006 1.387 . S
C1005 H1008 0.950 . S
C1006 C1005 1.387 . S
C1006 C1009 1.387 . S
H1007 C1003 0.950 . S
H1008 C1005 0.950 . S
C1009 C1000 1.390 . S
C1009 H1002 0.950 . S
C1009 C1006 1.387 . S
C1010 C1011 1.387 . S
C1010 H1014 0.950 . S
C1010 C1019 1.390 . S
C1011 C1010 1.387 . S
C1011 C1013 1.387 . S
H1012 C1019 0.950 . S
C1013 C1011 1.387 . S
C1013 C1015 1.390 . S
C1013 H1017 0.950 . S
H1014 C1010 0.950 . S
C1015 C1013 1.390 . S
C1015 C1016 1.387 . S
C1015 H1018 0.950 . S
C1016 C1015 1.387 . S
C1016 C1019 1.387 . S
H1017 C1013 0.950 . S
H1018 C1015 0.950 . S
C1019 C1010 1.390 . S
C1019 H1012 0.950 . S
C1019 C1016 1.387 . S
C1020 C1021 1.387 . S
C1020 H1024 0.950 . S
C1020 C1029 1.390 . S
C1021 C1020 1.387 . S
C1021 C1023 1.387 . S
H1022 C1029 0.950 . S
C1023 C1021 1.387 . S
C1023 C1025 1.390 . S
C1023 H1027 0.950 . S
H1024 C1020 0.950 . S
C1025 C1023 1.390 . S
C1025 C1026 1.387 . S
C1025 H1028 0.950 . S
C1026 C1025 1.387 . S
C1026 C1029 1.387 . S
H1027 C1023 0.950 . S
H1028 C1025 0.950 . S
C1029 C1020 1.390 . S
C1029 H1022 0.950 . S
C1029 C1026 1.387 . S
C1030 C1031 1.387 . S
C1030 H1034 0.950 . S
C1030 C1039 1.390 . S
C1031 C1030 1.387 . S
C1031 C1033 1.387 . S
H1032 C1039 0.950 . S
C1033 C1031 1.387 . S
C1033 C1035 1.390 . S
C1033 H1037 0.950 . S
H1034 C1030 0.950 . S
C1035 C1033 1.390 . S
C1035 C1036 1.387 . S
C1035 H1038 0.950 . S
C1036 C1035 1.387 . S
C1036 C1039 1.387 . S
H1037 C1033 0.950 . S
H1038 C1035 0.950 . S
C1039 C1030 1.390 . S
C1039 H1032 0.950 . S
C1039 C1036 1.387 . S
C1040 C1041 1.387 . S
C1040 H1044 0.950 . S
C1040 C1049 1.390 . S
C1041 C1040 1.387 . S
C1041 C1043 1.387 . S
H1042 C1049 0.950 . S
C1043 C1041 1.387 . S
C1043 C1045 1.390 . S
C1043 H1047 0.950 . S
H1044 C1040 0.950 . S
C1045 C1043 1.390 . S
C1045 C1046 1.387 . S
C1045 H1048 0.950 . S
C1046 C1045 1.387 . S
C1046 C1049 1.387 . S
H1047 C1043 0.950 . S
H1048 C1045 0.950 . S
C1049 C1040 1.390 . S
C1049 H1042 0.950 . S
C1049 C1046 1.387 . S
C1050 C1051 1.387 . S
C1050 H1054 0.950 . S
C1050 C1059 1.390 . S
C1051 C1050 1.387 . S
C1051 C1053 1.387 . S
H1052 C1059 0.950 . S
C1053 C1051 1.387 . S
C1053 C1055 1.390 . S
C1053 H1057 0.950 . S
H1054 C1050 0.950 . S
C1055 C1053 1.390 . S
C1055 C1056 1.387 . S
C1055 H1058 0.950 . S
C1056 C1055 1.387 . S
C1056 C1059 1.387 . S
H1057 C1053 0.950 . S
H1058 C1055 0.950 . S
C1059 C1050 1.390 . S
C1059 H1052 0.950 . S
C1059 C1056 1.387 . S
C1060 C1061 1.387 . S
C1060 H1064 0.950 . S
C1060 C1069 1.390 . S
C1061 C1060 1.387 . S
C1061 C1063 1.387 . S
H1062 C1069 0.950 . S
C1063 C1061 1.387 . S
C1063 C1065 1.390 . S
C1063 H1067 0.950 . S
H1064 C1060 0.950 . S
C1065 C1063 1.390 . S
C1065 C1066 1.387 . S
C1065 H1068 0.950 . S
C1066 C1065 1.387 . S
C1066 C1069 1.387 . S
H1067 C1063 0.950 . S
H1068 C1065 0.950 . S
C1069 C1060 1.390 . S
C1069 H1062 0.950 . S
C1069 C1066 1.387 . S
C1070 C1071 1.387 . S
C1070 H1074 0.950 . S
C1070 C1079 1.390 . S
C1071 C1070 1.387 . S
C1071 C1073 1.387 . S
H1072 C1079 0.950 . S
C1073 C1071 1.387 . S
C1073 C1075 1.390 . S
C1073 H1077 0.950 . S
H1074 C1070 0.950 . S
C1075 C1073 1.390 . S
C1075 C1076 1.387 . S
C1075 H1078 0.950 . S
C1076 C1075 1.387 . S
C1076 C1079 1.387 . S
H1077 C1073 0.950 . S
H1078 C1075 0.950 . S
C1079 C1070 1.390 . S
C1079 H1072 0.950 . S
C1079 C1076 1.387 . S
C1080 C1081 1.387 . S
C1080 H1084 0.950 . S
C1080 C1089 1.390 . S
C1081 C1080 1.387 . S
C1081 C1083 1.387 . S
H1082 C1089 0.950 . S
C1083 C1081 1.387 . S
C1083 C1085 1.390 . S
C1083 H1087 0.950 . S
H1084 C1080 0.950 . S
C1085 C1083 1.390 . S
C1085 C1086 1.387 . S
C1085 H1088 0.950 . S
C1086 C1085 1.387 . S
C1086 C1089 1.387 . S
H1087 C1083 0.950 . S
H1088 C1085 0.950 . S
C1089 C1080 1.390 . S
C1089 H1082 0.950 . S
C1089 C1086 1.387 . S
C1090 C1091 1.387 . S
C1090 H1094 0.950 . S
C1090 C1099 1.390 . S
C1091 C1090 1.387 . S
C1091 C1093 1.387 . S
H1092 C1099 0.950 . S
C1093 C1091 1.387 . S
C1093 C1095 1.390 . S
C1093 H1097 0.950 . S
H1094 C1090 0.950 . S
C1095 C1093 1.390 . S
C1095 C1096 1.387 . S
C1095 H1098 0.950 . S
C1096 C1095 1.387 . S
C1096 C1099 1.387 . S
H1097 C1093 0.950 . S
H1098 C1095 0.950 . S
C1099 C1090 1.390 . S
C1099 H1092 0.950 . S
C1099 C1096 1.387 . S
C1100 C1101 1.387 . S
C1100 H1104 0.950 . S
C1100 C1109 1.390 . S
C1101 C1100 1.387 . S
C1101 C1103 1.387 . S
H1102 C1109 0.950 . S
C1103 C1101 1.387 . S
C1103 C1105 1.390 . S
C1103 H1107 0.950 . S
H1104 C1100 0.950 . S
C1105 C1103 1.390 . S
C1105 C1106 1.387 . S
C1105 H1108 0.950 . S
C1106 C1105 1.387 . S
C1106 C1109 1.387 . S
H1107 C1103 0.950 . S
H1108 C1105 0.950 . S
C1109 C1100 1.390 . S
C1109 H1102 0.950 . S
C1109 C1106 1.387 . S
C1110 C1111 1.387 . S
C1110 H1114 0.950 . S
C1110 C1119 1.390 . S
C1111 C1110 1.387 . S
C1111 C1113 1.387 . S
H1112 C1119 0.950 . S
C1113 C1111 1.387 . S
C1113 C1115 1.390 . S
C1113 H1117 0.950 . S
H1114 C1110 0.950 . S
C1115 C1113 1.390 . S
C1115 C1116 1.387 . S
C1115 H1118 0.950 . S
C1116 C1115 1.387 . S
C1116 C1119 1.387 . S
H1117 C1113 0.950 . S
H1118 C1115 0.950 . S
C1119 C1110 1.390 . S
C1119 H1112 0.950 . S
C1119 C1116 1.387 . S
C1120 C1121 1.387 . S
C1120 H1124 0.950 . S
C1120 C1129 1.390 . S
C1121 C1120 1.387 . S
C1121 C1123 1.387 . S
H1122 C1129 0.950 . S
C1123 C1121 1.387 . S
C1123 C1125 1.390 . S
C1123 H1127 0.950 . S
H1124 C1120 0.950 . S
C1125 C1123 1.390 . S
C1125 C1126 1.387 . S
C1125 H1128 0.950 . S
C1126 C1125 1.387 . S
C1126 C1129 1.387 . S
H1127 C1123 0.950 . S
H1128 C1125 0.950 . S
C1129 C1120 1.390 . S
C1129 H1122 0.950 . S
C1129 C1126 1.387 . S
C1130 C1131 1.387 . S
C1130 H1134 0.950 . S
C1130 C1139 1.390 . S
C1131 C1130 1.387 . S
C1131 C1133 1.387 . S
H1132 C1139 0.950 . S
C1133 C1131 1.387 . S
C1133 C1135 1.390 . S
C1133 H1137 0.950 . S
H1134 C1130 0.950 . S
C1135 C1133 1.390 . S
C1135 C1136 1.387 . S
C1135 H1138 0.950 . S
C1136 C1135 1.387 . S
C1136 C1139 1.387 . S
H1137 C1133 0.950 . S
H1138 C1135 0.950 . S
C1139 C1130 1.390 . S
C1139 H1132 0.950 . S
C1139 C1136 1.387 . S
C1140 C1141 1.387 . S
C1140 H1144 0.950 . S
C1140 C1149 1.390 . S
C1141 C1140 1.387 . S
C1141 C1143 1.387 . S
H1142 C1149 0.950 . S
C1143 C1141 1.387 . S
C1143 C1145 1.390 . S
C1143 H1147 0.950 . S
H1144 C1140 0.950 . S
C1145 C1143 1.390 . S
C1145 C1146 1.387 . S
C1145 H1148 0.950 . S
C1146 C1145 1.387 . S
C1146 C1149 1.387 . S
H1147 C1143 0.950 . S
H1148 C1145 0.950 . S
C1149 C1140 1.390 . S
C1149 H1142 0.950 . S
C1149 C1146 1.387 . S
C1150 C1151 1.387 . S
C1150 H1154 0.950 . S
C1150 C1159 1.390 . S
C1151 C1150 1.387 . S
C1151 C1153 1.387 . S
H1152 C1159 0.950 . S
C1153 C1151 1.387 . S
C1153 C1155 1.390 . S
C1153 H1157 0.950 . S
H1154 C1150 0.950 . S
C1155 C1153 1.390 . S
C1155 C1156 1.387 . S
C1155 H1158 0.950 . S
C1156 C1155 1.387 . S
C1156 C1159 1.387 . S
H1157 C1153 0.950 . S
H1158 C1155 0.950 . S
C1159 C1150 1.390 . S
C1159 H1152 0.950 . S
C1159 C1156 1.387 . S
C1160 C1161 1.387 . S
C1160 H1164 0.950 . S
C1160 C1169 1.390 . S
C1161 C1160 1.387 . S
C1161 C1163 1.387 . S
H1162 C1169 0.950 . S
C1163 C1161 1.387 . S
C1163 C1165 1.390 . S
C1163 H1167 0.950 . S
H1164 C1160 0.950 . S
C1165 C1163 1.390 . S
C1165 C1166 1.387 . S
C1165 H1168 0.950 . S
C1166 C1165 1.387 . S
C1166 C1169 1.387 . S
H1167 C1163 0.950 . S
H1168 C1165 0.950 . S
C1169 C1160 1.390 . S
C1169 H1162 0.950 . S
C1169 C1166 1.387 . S
C1170 C1171 1.387 . S
C1170 H1174 0.950 . S
C1170 C1179 1.390 . S
C1171 C1170 1.387 . S
C1171 C1173 1.387 . S
H1172 C1179 0.950 . S
C1173 C1171 1.387 . S
C1173 C1175 1.390 . S
C1173 H1177 0.950 . S
H1174 C1170 0.950 . S
C1175 C1173 1.390 . S
C1175 C1176 1.387 . S
C1175 H1178 0.950 . S
C1176 C1175 1.387 . S
C1176 C1179 1.387 . S
H1177 C1173 0.950 . S
H1178 C1175 0.950 . S
C1179 C1170 1.390 . S
C1179 H1172 0.950 . S
C1179 C1176 1.387 . S
C1180 C1181 1.387 . S
C1180 H1184 0.950 . S
C1180 C1189 1.390 . S
C1181 C1180 1.387 . S
C1181 C1183 1.387 . S
H1182 C1189 0.950 . S
C1183 C1181 1.387 . S
C1183 C1185 1.390 . S
C1183 H1187 0.950 . S
H1184 C1180 0.950 . S
C1185 C1183 1.390 . S
C1185 C1186 1.387 . S
C1185 H1188 0.950 . S
C1186 C1185 1.387 . S
C1186 C1189 1.387 . S
H1187 C1183 0.950 . S
H1188 C1185 0.950 . S
C1189 C1180 1.390 . S
C1189 H1182 0.950 . S
C1189 C1186 1.387 . S
C1190 C1191 1.387 . S
C1190 H1194 0.950 . S
C1190 C1199 1.390 . S
C1191 C1190 1.387 . S
C1191 C1193 1.387 . S
H1192 C1199 0.950 . S
C1193 C1191 1.387 . S
C1193 C1195 1.390 . S
C1193 H1197 0.950 . S
H1194 C1190 0.950 . S
C1195 C1193 1.390 . S
C1195 C1196 1.387 . S
C1195 H1198 0.950 . S
C1196 C1195 1.387 . S
C1196 C1199 1.387 . S
H1197 C1193 0.950 . S
H1198 C1195 0.950 . S
C1199 C1190 1.390 . S
C1199 H1192 0.950 . S
C1199 C1196 1.387 . S
C1200 C1201 1.387 . S
C1200 H1204 0.950 . S
C1200 C1209 1.390 . S
C1201 C1200 1.387 . S
C1201 C1203 1.387 . S
H1202 C1209 0.950 . S
C1203 C1201 1.387 . S
C1203 C1205 1.390 . S
C1203 H1207 0.950 . S
H1204 C1200 0.950 . S
C1205 C1203 1.390 . S
C1205 C1206 1.387 . S
C1205 H1208 0.950 . S
C1206 C1205 1.387 . S
C1206 C1209 1.387 . S
H1207 C1203 0.950 . S
H1208 C1205 0.950 . S
C1209 C1200 1.390 . S
C1209 H1202 0.950 . S
C1209 C1206 1.387 . S
C1210 C1211 1.387 . S
C1210 H1214 0.950 . S
C1210 C1219 1.390 . S
C1211 C1210 1.387 . S
C1211 C1213 1.387 . S
H1212 C1219 0.950 . S
C1213 C1211 1.387 . S
C1213 C1215 1.390 . S
C1213 H1217 0.950 . S
H1214 C1210 0.950 . S
C1215 C1213 1.390 . S
C1215 C1216 1.387 . S
C1215 H1218 0.950 . S
C1216 C1215 1.387 . S
C1216 C1219 1.387 . S
H1217 C1213 0.950 . S
H1218 C1215 0.950 . S
C1219 C1210 1.390 . S
C1219 H1212 0.950 . S
C1219 C1216 1.387 . S
C1220 C1221 1.387 . S
C1220 H1224 0.950 . S
C1220 C1229 1.390 1_655 S
C1221 C1220 1.387 . S
C1221 C1223 1.387 . S
H1222 C1229 0.950 . S
C1223 C1221 1.387 . S
C1223 C1225 1.390 1_655 S
C1223 H1227 0.950 . S
H1224 C1220 0.950 . S
C1225 C1223 1.390 1_455 S
C1225 C1226 1.387 . S
C1225 H1228 0.950 . S
C1226 C1225 1.387 . S
C1226 C1229 1.387 . S
H1227 C1223 0.950 . S
H1228 C1225 0.950 . S
C1229 C1220 1.390 1_455 S
C1229 H1222 0.950 . S
C1229 C1226 1.387 . S
C1230 C1231 1.387 . S
C1230 H1234 0.950 . S
C1230 C1239 1.390 . S
C1231 C1230 1.387 . S
C1231 C1233 1.387 . S
H1232 C1239 0.950 . S
C1233 C1231 1.387 . S
C1233 C1235 1.390 . S
C1233 H1237 0.950 . S
H1234 C1230 0.950 . S
C1235 C1233 1.390 . S
C1235 C1236 1.387 . S
C1235 H1238 0.950 . S
C1236 C1235 1.387 . S
C1236 C1239 1.387 . S
H1237 C1233 0.950 . S
H1238 C1235 0.950 . S
C1239 C1230 1.390 . S
C1239 H1232 0.950 . S
C1239 C1236 1.387 . S
C1240 C1241 1.387 . S
C1240 H1244 0.950 . S
C1240 C1249 1.390 . S
C1241 C1240 1.387 . S
C1241 C1243 1.387 . S
H1242 C1249 0.950 . S
C1243 C1241 1.387 . S
C1243 C1245 1.390 . S
C1243 H1247 0.950 . S
H1244 C1240 0.950 . S
C1245 C1243 1.390 . S
C1245 C1246 1.387 . S
C1245 H1248 0.950 . S
C1246 C1245 1.387 . S
C1246 C1249 1.387 . S
H1247 C1243 0.950 . S
H1248 C1245 0.950 . S
C1249 C1240 1.390 . S
C1249 H1242 0.950 . S
C1249 C1246 1.387 . S
C1250 C1251 1.387 . S
C1250 H1254 0.950 . S
C1250 C1259 1.390 . S
C1251 C1250 1.387 . S
C1251 C1253 1.387 . S
H1252 C1259 0.950 . S
C1253 C1251 1.387 . S
C1253 C1255 1.390 . S
C1253 H1257 0.950 . S
H1254 C1250 0.950 . S
C1255 C1253 1.390 . S
C1255 C1256 1.387 . S
C1255 H1258 0.950 . S
C1256 C1255 1.387 . S
C1256 C1259 1.387 . S
H1257 C1253 0.950 . S
H1258 C1255 0.950 . S
C1259 C1250 1.390 . S
C1259 H1252 0.950 . S
C1259 C1256 1.387 . S
C1260 C1261 1.387 . S
C1260 H1264 0.950 . S
C1260 C1269 1.390 . S
C1261 C1260 1.387 . S
C1261 C1263 1.387 . S
H1262 C1269 0.950 . S
C1263 C1261 1.387 . S
C1263 C1265 1.390 . S
C1263 H1267 0.950 . S
H1264 C1260 0.950 . S
C1265 C1263 1.390 . S
C1265 C1266 1.387 . S
C1265 H1268 0.950 . S
C1266 C1265 1.387 . S
C1266 C1269 1.387 . S
H1267 C1263 0.950 . S
H1268 C1265 0.950 . S
C1269 C1260 1.390 . S
C1269 H1262 0.950 . S
C1269 C1266 1.387 . S
C1270 C1271 1.387 . S
C1270 H1274 0.950 . S
C1270 C1279 1.390 . S
C1271 C1270 1.387 . S
C1271 C1273 1.387 . S
H1272 C1279 0.950 . S
C1273 C1271 1.387 . S
C1273 C1275 1.390 . S
C1273 H1277 0.950 . S
H1274 C1270 0.950 . S
C1275 C1273 1.390 . S
C1275 C1276 1.387 . S
C1275 H1278 0.950 . S
C1276 C1275 1.387 . S
C1276 C1279 1.387 . S
H1277 C1273 0.950 . S
H1278 C1275 0.950 . S
C1279 C1270 1.390 . S
C1279 H1272 0.950 . S
C1279 C1276 1.387 . S
C1280 C1281 1.387 . S
C1280 H1284 0.950 . S
C1280 C1289 1.390 . S
C1281 C1280 1.387 . S
C1281 C1283 1.387 . S
H1282 C1289 0.950 . S
C1283 C1281 1.387 . S
C1283 C1285 1.390 . S
C1283 H1287 0.950 . S
H1284 C1280 0.950 . S
C1285 C1283 1.390 . S
C1285 C1286 1.387 . S
C1285 H1288 0.950 . S
C1286 C1285 1.387 . S
C1286 C1289 1.387 . S
H1287 C1283 0.950 . S
H1288 C1285 0.950 . S
C1289 C1280 1.390 . S
C1289 H1282 0.950 . S
C1289 C1286 1.387 . S
C1290 C1291 1.387 . S
C1290 H1294 0.950 . S
C1290 C1299 1.390 . S
C1291 C1290 1.387 . S
C1291 C1293 1.387 . S
H1292 C1299 0.950 . S
C1293 C1291 1.387 . S
C1293 C1295 1.390 . S
C1293 H1297 0.950 . S
H1294 C1290 0.950 . S
C1295 C1293 1.390 . S
C1295 C1296 1.387 . S
C1295 H1298 0.950 . S
C1296 C1295 1.387 . S
C1296 C1299 1.387 . S
H1297 C1293 0.950 . S
H1298 C1295 0.950 . S
C1299 C1290 1.390 . S
C1299 H1292 0.950 . S
C1299 C1296 1.387 . S
C1300 C1301 1.387 . S
C1300 H1304 0.950 . S
C1300 C1309 1.390 . S
C1301 C1300 1.387 . S
C1301 C1303 1.387 . S
H1302 C1309 0.950 1_565 S
C1303 C1301 1.387 . S
C1303 C1305 1.390 . S
C1303 H1307 0.950 . S
H1304 C1300 0.950 . S
C1305 C1303 1.390 . S
C1305 C1306 1.387 . S
C1305 H1308 0.950 . S
C1306 C1305 1.387 . S
C1306 C1309 1.387 . S
H1307 C1303 0.950 . S
H1308 C1305 0.950 . S
C1309 C1300 1.390 . S
C1309 H1302 0.950 1_545 S
C1309 C1306 1.387 . S
C1310 C1311 1.387 . S
C1310 H1314 0.950 . S
C1310 C1319 1.390 1_655 S
C1311 C1310 1.387 . S
C1311 C1313 1.387 . S
H1312 C1319 0.950 . S
C1313 C1311 1.387 . S
C1313 C1315 1.390 1_655 S
C1313 H1317 0.950 . S
H1314 C1310 0.950 . S
C1315 C1313 1.390 1_455 S
C1315 C1316 1.387 . S
C1315 H1318 0.950 . S
C1316 C1315 1.387 . S
C1316 C1319 1.387 . S
H1317 C1313 0.950 . S
H1318 C1315 0.950 . S
C1319 C1310 1.390 1_455 S
C1319 H1312 0.950 . S
C1319 C1316 1.387 . S
C1320 C1321 1.387 . S
C1320 H1324 0.950 . S
C1320 C1329 1.390 . S
C1321 C1320 1.387 . S
C1321 C1323 1.387 . S
H1322 C1329 0.950 . S
C1323 C1321 1.387 . S
C1323 C1325 1.390 . S
C1323 H1327 0.950 . S
H1324 C1320 0.950 . S
C1325 C1323 1.390 . S
C1325 C1326 1.387 . S
C1325 H1328 0.950 . S
C1326 C1325 1.387 . S
C1326 C1329 1.387 . S
H1327 C1323 0.950 . S
H1328 C1325 0.950 . S
C1329 C1320 1.390 . S
C1329 H1322 0.950 . S
C1329 C1326 1.387 . S
C1330 C1331 1.387 . S
C1330 H1334 0.950 . S
C1330 C1339 1.390 . S
C1331 C1330 1.387 . S
C1331 C1333 1.387 . S
H1332 C1339 0.950 . S
C1333 C1331 1.387 . S
C1333 C1335 1.390 . S
C1333 H1337 0.950 . S
H1334 C1330 0.950 . S
C1335 C1333 1.390 . S
C1335 C1336 1.387 . S
C1335 H1338 0.950 . S
C1336 C1335 1.387 . S
C1336 C1339 1.387 . S
H1337 C1333 0.950 . S
H1338 C1335 0.950 . S
C1339 C1330 1.390 . S
C1339 H1332 0.950 . S
C1339 C1336 1.387 . S
C1340 C1341 1.387 . S
C1340 H1344 0.950 . S
C1340 C1349 1.390 . S
C1341 C1340 1.387 . S
C1341 C1343 1.387 . S
H1342 C1349 0.950 . S
C1343 C1341 1.387 . S
C1343 C1345 1.390 . S
C1343 H1347 0.950 . S
H1344 C1340 0.950 . S
C1345 C1343 1.390 . S
C1345 C1346 1.387 . S
C1345 H1348 0.950 . S
C1346 C1345 1.387 . S
C1346 C1349 1.387 . S
H1347 C1343 0.950 . S
H1348 C1345 0.950 . S
C1349 C1340 1.390 . S
C1349 H1342 0.950 . S
C1349 C1346 1.387 . S
C1350 C1351 1.387 . S
C1350 H1354 0.950 . S
C1350 C1359 1.390 . S
C1351 C1350 1.387 . S
C1351 C1353 1.387 . S
H1352 C1359 0.950 . S
C1353 C1351 1.387 . S
C1353 C1355 1.390 . S
C1353 H1357 0.950 . S
H1354 C1350 0.950 . S
C1355 C1353 1.390 . S
C1355 C1356 1.387 . S
C1355 H1358 0.950 . S
C1356 C1355 1.387 . S
C1356 C1359 1.387 . S
H1357 C1353 0.950 . S
H1358 C1355 0.950 . S
C1359 C1350 1.390 . S
C1359 H1352 0.950 . S
C1359 C1356 1.387 . S
C1360 C1361 1.387 . S
C1360 H1364 0.950 . S
C1360 C1369 1.390 1_545 S
C1361 C1360 1.387 . S
C1361 C1363 1.387 . S
H1362 C1369 0.950 . S
C1363 C1361 1.387 . S
C1363 C1365 1.390 1_545 S
C1363 H1367 0.950 . S
H1364 C1360 0.950 . S
C1365 C1363 1.390 1_565 S
C1365 C1366 1.387 . S
C1365 H1368 0.950 . S
C1366 C1365 1.387 . S
C1366 C1369 1.387 . S
H1367 C1363 0.950 . S
H1368 C1365 0.950 . S
C1369 C1360 1.390 1_565 S
C1369 H1362 0.950 . S
C1369 C1366 1.387 . S
C1370 C1371 1.387 . S
C1370 H1374 0.950 . S
C1370 C1379 1.390 . S
C1371 C1370 1.387 . S
C1371 C1373 1.387 . S
H1372 C1379 0.950 . S
C1373 C1371 1.387 . S
C1373 C1375 1.390 . S
C1373 H1377 0.950 . S
H1374 C1370 0.950 . S
C1375 C1373 1.390 . S
C1375 C1376 1.387 . S
C1375 H1378 0.950 . S
C1376 C1375 1.387 . S
C1376 C1379 1.387 . S
H1377 C1373 0.950 . S
H1378 C1375 0.950 . S
C1379 C1370 1.390 . S
C1379 H1372 0.950 . S
C1379 C1376 1.387 . S
C1380 C1381 1.387 . S
C1380 H1384 0.950 . S
C1380 C1389 1.390 . S
C1381 C1380 1.387 . S
C1381 C1383 1.387 . S
H1382 C1389 0.950 . S
C1383 C1381 1.387 . S
C1383 C1385 1.390 . S
C1383 H1387 0.950 . S
H1384 C1380 0.950 . S
C1385 C1383 1.390 . S
C1385 C1386 1.387 . S
C1385 H1388 0.950 . S
C1386 C1385 1.387 . S
C1386 C1389 1.387 . S
H1387 C1383 0.950 . S
H1388 C1385 0.950 . S
C1389 C1380 1.390 . S
C1389 H1382 0.950 . S
C1389 C1386 1.387 . S
C1390 C1391 1.387 . S
C1390 H1394 0.950 . S
C1390 C1399 1.390 1_545 S
C1391 C1390 1.387 . S
C1391 C1393 1.387 . S
H1392 C1399 0.950 . S
C1393 C1391 1.387 . S
C1393 C1395 1.390 1_545 S
C1393 H1397 0.950 . S
H1394 C1390 0.950 . S
C1395 C1393 1.390 1_565 S
C1395 C1396 1.387 . S
C1395 H1398 0.950 . S
C1396 C1395 1.387 . S
C1396 C1399 1.387 . S
H1397 C1393 0.950 . S
H1398 C1395 0.950 . S
C1399 C1390 1.390 1_565 S
C1399 H1392 0.950 . S
C1399 C1396 1.387 . S
C1400 C1401 1.387 . S
C1400 H1404 0.950 . S
C1400 C1409 1.390 . S
C1401 C1400 1.387 . S
C1401 C1403 1.387 . S
H1402 C1409 0.950 1_655 S
C1403 C1401 1.387 . S
C1403 C1405 1.390 . S
C1403 H1407 0.950 . S
H1404 C1400 0.950 . S
C1405 C1403 1.390 . S
C1405 C1406 1.387 . S
C1405 H1408 0.950 . S
C1406 C1405 1.387 . S
C1406 C1409 1.387 . S
H1407 C1403 0.950 . S
H1408 C1405 0.950 . S
C1409 C1400 1.390 . S
C1409 H1402 0.950 1_455 S
C1409 C1406 1.387 . S
C1410 C1411 1.387 . S
C1410 H1414 0.950 . S
C1410 C1419 1.390 . S
C1411 C1410 1.387 . S
C1411 C1413 1.387 . S
H1412 C1419 0.950 . S
C1413 C1411 1.387 . S
C1413 C1415 1.390 . S
C1413 H1417 0.950 . S
H1414 C1410 0.950 . S
C1415 C1413 1.390 . S
C1415 C1416 1.387 . S
C1415 H1418 0.950 . S
C1416 C1415 1.387 . S
C1416 C1419 1.387 . S
H1417 C1413 0.950 . S
H1418 C1415 0.950 . S
C1419 C1410 1.390 . S
C1419 H1412 0.950 . S
C1419 C1416 1.387 . S
C1420 C1421 1.387 . S
C1420 H1424 0.950 . S
C1420 C1429 1.390 . S
C1421 C1420 1.387 . S
C1421 C1423 1.387 . S
H1422 C1429 0.950 . S
C1423 C1421 1.387 . S
C1423 C1425 1.390 . S
C1423 H1427 0.950 . S
H1424 C1420 0.950 . S
C1425 C1423 1.390 . S
C1425 C1426 1.387 . S
C1425 H1428 0.950 . S
C1426 C1425 1.387 . S
C1426 C1429 1.387 . S
H1427 C1423 0.950 . S
H1428 C1425 0.950 . S
C1429 C1420 1.390 . S
C1429 H1422 0.950 . S
C1429 C1426 1.387 . S
C1430 C1431 1.387 . S
C1430 H1434 0.950 . S
C1430 C1439 1.390 . S
C1431 C1430 1.387 . S
C1431 C1433 1.387 . S
H1432 C1439 0.950 . S
C1433 C1431 1.387 . S
C1433 C1435 1.390 . S
C1433 H1437 0.950 . S
H1434 C1430 0.950 . S
C1435 C1433 1.390 . S
C1435 C1436 1.387 . S
C1435 H1438 0.950 . S
C1436 C1435 1.387 . S
C1436 C1439 1.387 . S
H1437 C1433 0.950 . S
H1438 C1435 0.950 . S
C1439 C1430 1.390 . S
C1439 H1432 0.950 . S
C1439 C1436 1.387 . S
C1440 C1441 1.387 . S
C1440 H1444 0.950 . S
C1440 C1449 1.390 . S
C1441 C1440 1.387 . S
C1441 C1443 1.387 . S
H1442 C1449 0.950 . S
C1443 C1441 1.387 . S
C1443 C1445 1.390 . S
C1443 H1447 0.950 . S
H1444 C1440 0.950 . S
C1445 C1443 1.390 . S
C1445 C1446 1.387 . S
C1445 H1448 0.950 . S
C1446 C1445 1.387 . S
C1446 C1449 1.387 . S
H1447 C1443 0.950 . S
H1448 C1445 0.950 . S
C1449 C1440 1.390 . S
C1449 H1442 0.950 . S
C1449 C1446 1.387 . S
C1450 C1451 1.387 . S
C1450 H1454 0.950 . S
C1450 C1459 1.390 . S
C1451 C1450 1.387 . S
C1451 C1453 1.387 . S
H1452 C1459 0.950 . S
C1453 C1451 1.387 . S
C1453 C1455 1.390 . S
C1453 H1457 0.950 . S
H1454 C1450 0.950 . S
C1455 C1453 1.390 . S
C1455 C1456 1.387 . S
C1455 H1458 0.950 . S
C1456 C1455 1.387 . S
C1456 C1459 1.387 . S
H1457 C1453 0.950 . S
H1458 C1455 0.950 . S
C1459 C1450 1.390 . S
C1459 H1452 0.950 . S
C1459 C1456 1.387 . S
C1460 C1461 1.387 . S
C1460 H1464 0.950 . S
C1460 C1469 1.390 . S
C1461 C1460 1.387 . S
C1461 C1463 1.387 . S
H1462 C1469 0.950 . S
C1463 C1461 1.387 . S
C1463 C1465 1.390 . S
C1463 H1467 0.950 . S
H1464 C1460 0.950 . S
C1465 C1463 1.390 . S
C1465 C1466 1.387 . S
C1465 H1468 0.950 . S
C1466 C1465 1.387 . S
C1466 C1469 1.387 . S
H1467 C1463 0.950 . S
H1468 C1465 0.950 . S
C1469 C1460 1.390 . S
C1469 H1462 0.950 . S
C1469 C1466 1.387 . S
C1470 C1471 1.387 . S
C1470 H1474 0.950 . S
C1470 C1479 1.390 . S
C1471 C1470 1.387 . S
C1471 C1473 1.387 . S
H1472 C1479 0.950 . S
C1473 C1471 1.387 . S
C1473 C1475 1.390 . S
C1473 H1477 0.950 . S
H1474 C1470 0.950 . S
C1475 C1473 1.390 . S
C1475 C1476 1.387 . S
C1475 H1478 0.950 . S
C1476 C1475 1.387 . S
C1476 C1479 1.387 . S
H1477 C1473 0.950 . S
H1478 C1475 0.950 . S
C1479 C1470 1.390 . S
C1479 H1472 0.950 . S
C1479 C1476 1.387 . S
C1480 C1481 1.387 . S
C1480 H1484 0.950 . S
C1480 C1489 1.390 . S
C1481 C1480 1.387 . S
C1481 C1483 1.387 . S
H1482 C1489 0.950 . S
C1483 C1481 1.387 . S
C1483 C1485 1.390 . S
C1483 H1487 0.950 . S
H1484 C1480 0.950 . S
C1485 C1483 1.390 . S
C1485 C1486 1.387 . S
C1485 H1488 0.950 . S
C1486 C1485 1.387 . S
C1486 C1489 1.387 . S
H1487 C1483 0.950 . S
H1488 C1485 0.950 . S
C1489 C1480 1.390 . S
C1489 H1482 0.950 . S
C1489 C1486 1.387 . S
C1490 C1491 1.387 . S
C1490 H1494 0.950 . S
C1490 C1499 1.390 . S
C1491 C1490 1.387 . S
C1491 C1493 1.387 . S
H1492 C1499 0.950 . S
C1493 C1491 1.387 . S
C1493 C1495 1.390 . S
C1493 H1497 0.950 . S
H1494 C1490 0.950 . S
C1495 C1493 1.390 . S
C1495 C1496 1.387 . S
C1495 H1498 0.950 . S
C1496 C1495 1.387 . S
C1496 C1499 1.387 . S
H1497 C1493 0.950 . S
H1498 C1495 0.950 . S
C1499 C1490 1.390 . S
C1499 H1492 0.950 . S
C1499 C1496 1.387 . S
C1500 C1501 1.387 . S
C1500 H1504 0.950 . S
C1500 C1509 1.390 . S
C1501 C1500 1.387 . S
C1501 C1503 1.387 . S
H1502 C1509 0.950 . S
C1503 C1501 1.387 . S
C1503 C1505 1.390 . S
C1503 H1507 0.950 . S
H1504 C1500 0.950 . S
C1505 C1503 1.390 . S
C1505 C1506 1.387 . S
C1505 H1508 0.950 . S
C1506 C1505 1.387 . S
C1506 C1509 1.387 . S
H1507 C1503 0.950 . S
H1508 C1505 0.950 . S
C1509 C1500 1.390 . S
C1509 H1502 0.950 . S
C1509 C1506 1.387 . S
C1510 C1511 1.387 . S
C1510 H1514 0.950 . S
C1510 C1519 1.390 . S
C1511 C1510 1.387 . S
C1511 C1513 1.387 . S
H1512 C1519 0.950 . S
C1513 C1511 1.387 . S
C1513 C1515 1.390 . S
C1513 H1517 0.950 . S
H1514 C1510 0.950 . S
C1515 C1513 1.390 . S
C1515 C1516 1.387 . S
C1515 H1518 0.950 . S
C1516 C1515 1.387 . S
C1516 C1519 1.387 . S
H1517 C1513 0.950 . S
H1518 C1515 0.950 . S
C1519 C1510 1.390 . S
C1519 H1512 0.950 . S
C1519 C1516 1.387 . S
C1520 C1521 1.387 . S
C1520 H1524 0.950 . S
C1520 C1529 1.390 . S
C1521 C1520 1.387 . S
C1521 C1523 1.387 . S
H1522 C1529 0.950 . S
C1523 C1521 1.387 . S
C1523 C1525 1.390 . S
C1523 H1527 0.950 . S
H1524 C1520 0.950 . S
C1525 C1523 1.390 . S
C1525 C1526 1.387 . S
C1525 H1528 0.950 . S
C1526 C1525 1.387 . S
C1526 C1529 1.387 . S
H1527 C1523 0.950 . S
H1528 C1525 0.950 . S
C1529 C1520 1.390 . S
C1529 H1522 0.950 . S
C1529 C1526 1.387 . S
C1530 C1531 1.387 . S
C1530 H1534 0.950 . S
C1530 C1539 1.390 . S
C1531 C1530 1.387 . S
C1531 C1533 1.387 . S
H1532 C1539 0.950 . S
C1533 C1531 1.387 . S
C1533 C1535 1.390 . S
C1533 H1537 0.950 . S
H1534 C1530 0.950 . S
C1535 C1533 1.390 . S
C1535 C1536 1.387 . S
C1535 H1538 0.950 . S
C1536 C1535 1.387 . S
C1536 C1539 1.387 . S
H1537 C1533 0.950 . S
H1538 C1535 0.950 . S
C1539 C1530 1.390 . S
C1539 H1532 0.950 . S
C1539 C1536 1.387 . S
C1540 C1541 1.387 . S
C1540 H1544 0.950 . S
C1540 C1549 1.390 . S
C1541 C1540 1.387 . S
C1541 C1543 1.387 . S
H1542 C1549 0.950 . S
C1543 C1541 1.387 . S
C1543 C1545 1.390 . S
C1543 H1547 0.950 . S
H1544 C1540 0.950 . S
C1545 C1543 1.390 . S
C1545 C1546 1.387 . S
C1545 H1548 0.950 . S
C1546 C1545 1.387 . S
C1546 C1549 1.387 . S
H1547 C1543 0.950 . S
H1548 C1545 0.950 . S
C1549 C1540 1.390 . S
C1549 H1542 0.950 . S
C1549 C1546 1.387 . S
C1550 C1551 1.387 . S
C1550 H1554 0.950 . S
C1550 C1559 1.390 . S
C1551 C1550 1.387 . S
C1551 C1553 1.387 . S
H1552 C1559 0.950 . S
C1553 C1551 1.387 . S
C1553 C1555 1.390 . S
C1553 H1557 0.950 . S
H1554 C1550 0.950 . S
C1555 C1553 1.390 . S
C1555 C1556 1.387 . S
C1555 H1558 0.950 . S
C1556 C1555 1.387 . S
C1556 C1559 1.387 . S
H1557 C1553 0.950 . S
H1558 C1555 0.950 . S
C1559 C1550 1.390 . S
C1559 H1552 0.950 . S
C1559 C1556 1.387 . S
C1560 C1561 1.387 . S
C1560 H1564 0.950 . S
C1560 C1569 1.390 . S
C1561 C1560 1.387 . S
C1561 C1563 1.387 . S
H1562 C1569 0.950 . S
C1563 C1561 1.387 . S
C1563 C1565 1.390 . S
C1563 H1567 0.950 . S
H1564 C1560 0.950 . S
C1565 C1563 1.390 . S
C1565 C1566 1.387 . S
C1565 H1568 0.950 . S
C1566 C1565 1.387 . S
C1566 C1569 1.387 . S
H1567 C1563 0.950 . S
H1568 C1565 0.950 . S
C1569 C1560 1.390 . S
C1569 H1562 0.950 . S
C1569 C1566 1.387 . S
C1570 C1571 1.387 . S
C1570 H1574 0.950 . S
C1570 C1579 1.390 . S
C1571 C1570 1.387 . S
C1571 C1573 1.387 . S
H1572 C1579 0.950 . S
C1573 C1571 1.387 . S
C1573 C1575 1.390 . S
C1573 H1577 0.950 . S
H1574 C1570 0.950 . S
C1575 C1573 1.390 . S
C1575 C1576 1.387 . S
C1575 H1578 0.950 . S
C1576 C1575 1.387 . S
C1576 C1579 1.387 . S
H1577 C1573 0.950 . S
H1578 C1575 0.950 . S
C1579 C1570 1.390 . S
C1579 H1572 0.950 . S
C1579 C1576 1.387 . S
C1580 C1581 1.387 . S
C1580 H1584 0.950 . S
C1580 C1589 1.390 . S
C1581 C1580 1.387 . S
C1581 C1583 1.387 . S
H1582 C1589 0.950 . S
C1583 C1581 1.387 . S
C1583 C1585 1.390 . S
C1583 H1587 0.950 . S
H1584 C1580 0.950 . S
C1585 C1583 1.390 . S
C1585 C1586 1.387 . S
C1585 H1588 0.950 . S
C1586 C1585 1.387 . S
C1586 C1589 1.387 . S
H1587 C1583 0.950 . S
H1588 C1585 0.950 . S
C1589 C1580 1.390 . S
C1589 H1582 0.950 . S
C1589 C1586 1.387 . S
C1590 C1591 1.387 . S
C1590 H1594 0.950 . S
C1590 C1599 1.390 . S
C1591 C1590 1.387 . S
C1591 C1593 1.387 . S
H1592 C1599 0.950 . S
C1593 C1591 1.387 . S
C1593 C1595 1.390 . S
C1593 H1597 0.950 . S
H1594 C1590 0.950 . S
C1595 C1593 1.390 . S
C1595 C1596 1.387 . S
C1595 H1598 0.950 . S
C1596 C1595 1.387 . S
C1596 C1599 1.387 . S
H1597 C1593 0.950 . S
H1598 C1595 0.950 . S
C1599 C1590 1.390 . S
C1599 H1592 0.950 . S
C1599 C1596 1.387 . S
C1600 C1601 1.387 . S
C1600 H1604 0.950 . S
C1600 C1609 1.390 . S
C1601 C1600 1.387 . S
C1601 C1603 1.387 . S
H1602 C1609 0.950 . S
C1603 C1601 1.387 . S
C1603 C1605 1.390 . S
C1603 H1607 0.950 . S
H1604 C1600 0.950 . S
C1605 C1603 1.390 . S
C1605 C1606 1.387 . S
C1605 H1608 0.950 . S
C1606 C1605 1.387 . S
C1606 C1609 1.387 . S
H1607 C1603 0.950 . S
H1608 C1605 0.950 . S
C1609 C1600 1.390 . S
C1609 H1602 0.950 . S
C1609 C1606 1.387 . S
C1610 C1611 1.387 . S
C1610 H1614 0.950 . S
C1610 C1619 1.390 1_455 S
C1611 C1610 1.387 . S
C1611 C1613 1.387 1_455 S
H1612 C1619 0.950 . S
C1613 C1611 1.387 1_655 S
C1613 C1615 1.390 . S
C1613 H1617 0.950 . S
H1614 C1610 0.950 . S
C1615 C1613 1.390 . S
C1615 C1616 1.387 . S
C1615 H1618 0.950 . S
C1616 C1615 1.387 . S
C1616 C1619 1.387 . S
H1617 C1613 0.950 . S
H1618 C1615 0.950 . S
C1619 C1610 1.390 1_655 S
C1619 H1612 0.950 . S
C1619 C1616 1.387 . S
C1620 C1621 1.387 . S
C1620 H1624 0.950 . S
C1620 C1629 1.390 . S
C1621 C1620 1.387 . S
C1621 C1623 1.387 . S
H1622 C1629 0.950 . S
C1623 C1621 1.387 . S
C1623 C1625 1.390 . S
C1623 H1627 0.950 . S
H1624 C1620 0.950 . S
C1625 C1623 1.390 . S
C1625 C1626 1.387 . S
C1625 H1628 0.950 . S
C1626 C1625 1.387 . S
C1626 C1629 1.387 . S
H1627 C1623 0.950 . S
H1628 C1625 0.950 . S
C1629 C1620 1.390 . S
C1629 H1622 0.950 . S
C1629 C1626 1.387 . S
C1630 C1631 1.387 . S
C1630 H1634 0.950 . S
C1630 C1639 1.390 . S
C1631 C1630 1.387 . S
C1631 C1633 1.387 . S
H1632 C1639 0.950 . S
C1633 C1631 1.387 . S
C1633 C1635 1.390 . S
C1633 H1637 0.950 . S
H1634 C1630 0.950 . S
C1635 C1633 1.390 . S
C1635 C1636 1.387 . S
C1635 H1638 0.950 . S
C1636 C1635 1.387 . S
C1636 C1639 1.387 . S
H1637 C1633 0.950 . S
H1638 C1635 0.950 . S
C1639 C1630 1.390 . S
C1639 H1632 0.950 . S
C1639 C1636 1.387 . S
C1640 C1641 1.387 . S
C1640 H1644 0.950 . S
C1640 C1649 1.390 1_455 S
C1641 C1640 1.387 . S
C1641 C1643 1.387 . S
H1642 C1649 0.950 . S
C1643 C1641 1.387 . S
C1643 C1645 1.390 1_455 S
C1643 H1647 0.950 . S
H1644 C1640 0.950 . S
C1645 C1643 1.390 1_655 S
C1645 C1646 1.387 . S
C1645 H1648 0.950 . S
C1646 C1645 1.387 . S
C1646 C1649 1.387 . S
H1647 C1643 0.950 . S
H1648 C1645 0.950 . S
C1649 C1640 1.390 1_655 S
C1649 H1642 0.950 . S
C1649 C1646 1.387 . S
C1650 C1651 1.387 . S
C1650 H1654 0.950 . S
C1650 C1659 1.390 . S
C1651 C1650 1.387 . S
C1651 C1653 1.387 . S
H1652 C1659 0.950 . S
C1653 C1651 1.387 . S
C1653 C1655 1.390 . S
C1653 H1657 0.950 . S
H1654 C1650 0.950 . S
C1655 C1653 1.390 . S
C1655 C1656 1.387 . S
C1655 H1658 0.950 . S
C1656 C1655 1.387 . S
C1656 C1659 1.387 . S
H1657 C1653 0.950 . S
H1658 C1655 0.950 . S
C1659 C1650 1.390 . S
C1659 H1652 0.950 . S
C1659 C1656 1.387 . S
C1660 C1661 1.387 . S
C1660 H1664 0.950 . S
C1660 C1669 1.390 . S
C1661 C1660 1.387 . S
C1661 C1663 1.387 . S
H1662 C1669 0.950 . S
C1663 C1661 1.387 . S
C1663 C1665 1.390 . S
C1663 H1667 0.950 . S
H1664 C1660 0.950 . S
C1665 C1663 1.390 . S
C1665 C1666 1.387 . S
C1665 H1668 0.950 . S
C1666 C1665 1.387 . S
C1666 C1669 1.387 . S
H1667 C1663 0.950 . S
H1668 C1665 0.950 . S
C1669 C1660 1.390 . S
C1669 H1662 0.950 . S
C1669 C1666 1.387 . S
C1670 C1671 1.387 . S
C1670 H1674 0.950 . S
C1670 C1679 1.390 . S
C1671 C1670 1.387 . S
C1671 C1673 1.387 . S
H1672 C1679 0.950 . S
C1673 C1671 1.387 . S
C1673 C1675 1.390 . S
C1673 H1677 0.950 . S
H1674 C1670 0.950 . S
C1675 C1673 1.390 . S
C1675 C1676 1.387 . S
C1675 H1678 0.950 . S
C1676 C1675 1.387 . S
C1676 C1679 1.387 . S
H1677 C1673 0.950 . S
H1678 C1675 0.950 . S
C1679 C1670 1.390 . S
C1679 H1672 0.950 . S
C1679 C1676 1.387 . S
C1680 C1681 1.387 . S
C1680 H1684 0.950 . S
C1680 C1689 1.390 . S
C1681 C1680 1.387 . S
C1681 C1683 1.387 . S
H1682 C1689 0.950 . S
C1683 C1681 1.387 . S
C1683 C1685 1.390 . S
C1683 H1687 0.950 . S
H1684 C1680 0.950 . S
C1685 C1683 1.390 . S
C1685 C1686 1.387 . S
C1685 H1688 0.950 . S
C1686 C1685 1.387 . S
C1686 C1689 1.387 . S
H1687 C1683 0.950 . S
H1688 C1685 0.950 . S
C1689 C1680 1.390 . S
C1689 H1682 0.950 . S
C1689 C1686 1.387 . S
C1690 C1691 1.387 . S
C1690 H1694 0.950 . S
C1690 C1699 1.390 1_565 S
C1691 C1690 1.387 . S
C1691 C1693 1.387 . S
H1692 C1699 0.950 . S
C1693 C1691 1.387 . S
C1693 C1695 1.390 1_565 S
C1693 H1697 0.950 . S
H1694 C1690 0.950 . S
C1695 C1693 1.390 1_545 S
C1695 C1696 1.387 . S
C1695 H1698 0.950 . S
C1696 C1695 1.387 . S
C1696 C1699 1.387 . S
H1697 C1693 0.950 . S
H1698 C1695 0.950 . S
C1699 C1690 1.390 1_545 S
C1699 H1692 0.950 . S
C1699 C1696 1.387 . S
C1700 C1701 1.387 . S
C1700 H1704 0.950 . S
C1700 C1709 1.390 . S
C1701 C1700 1.387 . S
C1701 C1703 1.387 . S
H1702 C1709 0.950 . S
C1703 C1701 1.387 . S
C1703 C1705 1.390 . S
C1703 H1707 0.950 . S
H1704 C1700 0.950 . S
C1705 C1703 1.390 . S
C1705 C1706 1.387 . S
C1705 H1708 0.950 . S
C1706 C1705 1.387 . S
C1706 C1709 1.387 . S
H1707 C1703 0.950 . S
H1708 C1705 0.950 . S
C1709 C1700 1.390 . S
C1709 H1702 0.950 . S
C1709 C1706 1.387 . S
C1710 C1711 1.387 . S
C1710 H1714 0.950 . S
C1710 C1719 1.390 . S
C1711 C1710 1.387 . S
C1711 C1713 1.387 . S
H1712 C1719 0.950 . S
C1713 C1711 1.387 . S
C1713 C1715 1.390 . S
C1713 H1717 0.950 . S
H1714 C1710 0.950 . S
C1715 C1713 1.390 . S
C1715 C1716 1.387 . S
C1715 H1718 0.950 . S
C1716 C1715 1.387 . S
C1716 C1719 1.387 . S
H1717 C1713 0.950 . S
H1718 C1715 0.950 . S
C1719 C1710 1.390 . S
C1719 H1712 0.950 . S
C1719 C1716 1.387 . S
C1720 C1721 1.387 . S
C1720 H1724 0.950 . S
C1720 C1729 1.390 . S
C1721 C1720 1.387 . S
C1721 C1723 1.387 . S
H1722 C1729 0.950 . S
C1723 C1721 1.387 . S
C1723 C1725 1.390 . S
C1723 H1727 0.950 . S
H1724 C1720 0.950 . S
C1725 C1723 1.390 . S
C1725 C1726 1.387 . S
C1725 H1728 0.950 . S
C1726 C1725 1.387 . S
C1726 C1729 1.387 . S
H1727 C1723 0.950 . S
H1728 C1725 0.950 . S
C1729 C1720 1.390 . S
C1729 H1722 0.950 . S
C1729 C1726 1.387 . S
C1730 C1731 1.387 . S
C1730 H1734 0.950 . S
C1730 C1739 1.390 . S
C1731 C1730 1.387 . S
C1731 C1733 1.387 . S
H1732 C1739 0.950 . S
C1733 C1731 1.387 . S
C1733 C1735 1.390 . S
C1733 H1737 0.950 . S
H1734 C1730 0.950 . S
C1735 C1733 1.390 . S
C1735 C1736 1.387 . S
C1735 H1738 0.950 . S
C1736 C1735 1.387 . S
C1736 C1739 1.387 . S
H1737 C1733 0.950 . S
H1738 C1735 0.950 . S
C1739 C1730 1.390 . S
C1739 H1732 0.950 . S
C1739 C1736 1.387 . S
C1740 C1741 1.387 . S
C1740 H1744 0.950 . S
C1740 C1749 1.390 . S
C1741 C1740 1.387 . S
C1741 C1743 1.387 . S
H1742 C1749 0.950 . S
C1743 C1741 1.387 . S
C1743 C1745 1.390 . S
C1743 H1747 0.950 . S
H1744 C1740 0.950 . S
C1745 C1743 1.390 . S
C1745 C1746 1.387 . S
C1745 H1748 0.950 . S
C1746 C1745 1.387 . S
C1746 C1749 1.387 . S
H1747 C1743 0.950 . S
H1748 C1745 0.950 . S
C1749 C1740 1.390 . S
C1749 H1742 0.950 . S
C1749 C1746 1.387 . S
C1750 C1751 1.387 . S
C1750 H1754 0.950 . S
C1750 C1759 1.390 . S
C1751 C1750 1.387 . S
C1751 C1753 1.387 . S
H1752 C1759 0.950 . S
C1753 C1751 1.387 . S
C1753 C1755 1.390 . S
C1753 H1757 0.950 . S
H1754 C1750 0.950 . S
C1755 C1753 1.390 . S
C1755 C1756 1.387 . S
C1755 H1758 0.950 . S
C1756 C1755 1.387 . S
C1756 C1759 1.387 . S
H1757 C1753 0.950 . S
H1758 C1755 0.950 . S
C1759 C1750 1.390 . S
C1759 H1752 0.950 . S
C1759 C1756 1.387 . S
C1760 C1761 1.387 . S
C1760 H1764 0.950 . S
C1760 C1769 1.390 . S
C1761 C1760 1.387 . S
C1761 C1763 1.387 . S
H1762 C1769 0.950 . S
C1763 C1761 1.387 . S
C1763 C1765 1.390 . S
C1763 H1767 0.950 . S
H1764 C1760 0.950 . S
C1765 C1763 1.390 . S
C1765 C1766 1.387 . S
C1765 H1768 0.950 . S
C1766 C1765 1.387 . S
C1766 C1769 1.387 . S
H1767 C1763 0.950 . S
H1768 C1765 0.950 . S
C1769 C1760 1.390 . S
C1769 H1762 0.950 . S
C1769 C1766 1.387 . S
C1770 C1771 1.387 . S
C1770 H1774 0.950 . S
C1770 C1779 1.390 . S
C1771 C1770 1.387 . S
C1771 C1773 1.387 . S
H1772 C1779 0.950 . S
C1773 C1771 1.387 . S
C1773 C1775 1.390 . S
C1773 H1777 0.950 . S
H1774 C1770 0.950 . S
C1775 C1773 1.390 . S
C1775 C1776 1.387 . S
C1775 H1778 0.950 . S
C1776 C1775 1.387 . S
C1776 C1779 1.387 . S
H1777 C1773 0.950 . S
H1778 C1775 0.950 . S
C1779 C1770 1.390 . S
C1779 H1772 0.950 . S
C1779 C1776 1.387 . S
C1780 C1781 1.387 1_565 S
C1780 H1784 0.950 . S
C1780 C1789 1.390 . S
C1781 C1780 1.387 1_545 S
C1781 C1783 1.387 . S
H1782 C1789 0.950 . S
C1783 C1781 1.387 . S
C1783 C1785 1.390 1_545 S
C1783 H1787 0.950 . S
H1784 C1780 0.950 . S
C1785 C1783 1.390 1_565 S
C1785 C1786 1.387 . S
C1785 H1788 0.950 . S
C1786 C1785 1.387 . S
C1786 C1789 1.387 . S
H1787 C1783 0.950 . S
H1788 C1785 0.950 . S
C1789 C1780 1.390 . S
C1789 H1782 0.950 . S
C1789 C1786 1.387 . S
C1790 C1791 1.387 . S
C1790 H1794 0.950 . S
C1790 C1799 1.390 . S
C1791 C1790 1.387 . S
C1791 C1793 1.387 . S
H1792 C1799 0.950 . S
C1793 C1791 1.387 . S
C1793 C1795 1.390 . S
C1793 H1797 0.950 . S
H1794 C1790 0.950 . S
C1795 C1793 1.390 . S
C1795 C1796 1.387 . S
C1795 H1798 0.950 . S
C1796 C1795 1.387 . S
C1796 C1799 1.387 . S
H1797 C1793 0.950 . S
H1798 C1795 0.950 . S
C1799 C1790 1.390 . S
C1799 H1792 0.950 . S
C1799 C1796 1.387 . S
C721 C549 1.816 . S
C726 C9 1.816 . S
C731 C569 1.816 . S
C736 C29 1.816 1_655 S
C741 C49 1.816 . S
C746 C589 1.817 . S
C751 C69 1.815 . S
C756 C249 1.814 . S
C761 C89 1.814 . S
C766 C269 1.814 . S
C771 C289 1.814 . S
C776 C109 1.814 1_565 S
C781 C121 1.814 1_565 S
C786 C421 1.815 . S
C791 C441 1.814 . S
C796 C141 1.814 . S
C801 C161 1.815 . S
C806 C461 1.816 . S
C811 C601 1.817 . S
C816 C181 1.816 1_655 S
C821 C201 1.814 . S
C826 C621 1.814 . S
C831 C641 1.815 . S
C836 C221 1.816 . S
C841 C489 1.816 . S
C846 C309 1.816 . S
C851 C329 1.814 . S
C856 C509 1.814 . S
C861 C529 1.814 . S
C866 C349 1.814 . S
C871 C361 1.814 . S
C876 C661 1.814 . S
C881 C381 1.816 . S
C886 C681 1.816 . S
C891 C701 1.814 . S
C896 C401 1.815 . S
C901 C1 1.662 . S
C906 C129 1.662 . S
C911 C149 1.662 . S
C916 C21 1.662 . S
C921 C41 1.662 . S
C926 C169 1.662 . S
C931 C189 1.658 . S
C936 C61 1.658 . S
C941 C81 1.658 . S
C946 C209 1.658 . S
C951 C229 1.658 . S
C956 C101 1.658 . S
C961 C369 1.662 . S
C966 C241 1.662 . S
C971 C261 1.660 . S
C976 C389 1.660 . S
C981 C409 1.658 . S
C986 C281 1.658 . S
C991 C301 1.662 . S
C996 C429 1.662 . S
C1001 C449 1.662 . S
C1006 C321 1.662 . S
C1011 C341 1.662 . S
C1016 C469 1.662 . S
C1021 C481 1.662 . S
C1026 C609 1.662 . S
C1031 C629 1.658 . S
C1036 C501 1.658 . S
C1041 C649 1.658 . S
C1046 C521 1.658 . S
C1051 C669 1.662 . S
C1056 C541 1.662 . S
C1061 C561 1.659 . S
C1066 C689 1.659 . S
C1071 C581 1.661 . S
C1076 C709 1.661 . S
C1081 C19 1.653 . S
C1086 C46 1.739 . S
C1091 C39 1.650 . S
C1096 C6 1.741 . S
C1101 C26 1.740 . S
C1106 C59 1.650 . S
C1111 C79 1.653 . S
C1116 C86 1.739 . S
C1121 C106 1.739 . S
C1126 C99 1.653 . S
C1131 C66 1.741 . S
C1136 C119 1.650 . S
C1141 C176 1.739 . S
C1146 C128 1.653 . S
C1151 C148 1.649 . S
C1156 C136 1.740 . S
C1161 C168 1.650 . S
C1166 C156 1.740 . S
C1171 C216 1.739 . S
C1176 C188 1.652 . S
C1181 C208 1.653 . S
C1186 C236 1.739 . S
C1191 C228 1.653 . S
C1196 C196 1.739 . S
C1201 C286 1.739 . S
C1206 C259 1.653 . S
C1211 C246 1.739 1_655 S
C1216 C279 1.653 1_545 S
C1221 C266 1.740 . S
C1226 C299 1.650 . S
C1231 C326 1.740 . S
C1236 C319 1.649 . S
C1241 C339 1.649 . S
C1246 C346 1.740 . S
C1251 C306 1.740 . S
C1256 C359 1.649 . S
C1261 C368 1.649 . S
C1266 C416 1.740 . S
C1271 C376 1.739 . S
C1276 C388 1.653 . S
C1281 C408 1.652 . S
C1286 C396 1.739 . S
C1291 C456 1.739 1_655 S
C1296 C428 1.652 . S
C1301 C476 1.739 . S
C1306 C448 1.651 1_545 S
C1311 C436 1.739 . S
C1316 C468 1.653 . S
C1321 C526 1.740 . S
C1326 C499 1.649 . S
C1331 C519 1.649 . S
C1336 C486 1.740 . S
C1341 C506 1.740 . S
C1346 C539 1.650 . S
C1351 C559 1.650 . S
C1356 C566 1.740 . S
C1361 C579 1.649 . S
C1366 C586 1.740 . S
C1371 C546 1.739 1_565 S
C1376 C599 1.653 1_455 S
C1381 C608 1.653 . S
C1386 C656 1.739 1_565 S
C1391 C628 1.649 . S
C1396 C616 1.740 . S
C1401 C636 1.740 . S
C1406 C648 1.650 1_455 S
C1411 C668 1.652 . S
C1416 C696 1.739 . S
C1421 C716 1.740 . S
C1426 C688 1.649 . S
C1431 C676 1.740 . S
C1436 C708 1.649 . S
C1441 C56 1.241 . S
C1446 C8 1.288 . S
C1451 C28 1.289 . S
C1456 C16 1.238 . S
C1461 C36 1.242 . S
C1466 C48 1.287 . S
C1471 C96 1.241 . S
C1476 C68 1.288 . S
C1481 C88 1.289 . S
C1486 C116 1.238 . S
C1491 C108 1.289 . S
C1496 C76 1.238 . S
C1501 C166 1.243 . S
C1506 C139 1.287 . S
C1511 C159 1.289 . S
C1516 C126 1.238 . S
C1521 C146 1.239 . S
C1526 C179 1.289 . S
C1531 C206 1.238 . S
C1536 C199 1.289 . S
C1541 C226 1.238 . S
C1546 C219 1.289 . S
C1551 C186 1.239 . S
C1556 C239 1.289 . S
C1561 C248 1.289 . S
C1566 C296 1.238 . S
C1571 C268 1.289 . S
C1576 C256 1.238 . S
C1581 C288 1.289 . S
C1586 C276 1.238 . S
C1591 C336 1.243 1_655 S
C1596 C308 1.287 . S
C1601 C328 1.286 1_545 S
C1606 C356 1.242 . S
C1611 C348 1.289 . S
C1616 C316 1.239 . S
C1621 C406 1.238 . S
C1626 C379 1.289 . S
C1631 C366 1.242 1_655 S
C1636 C399 1.287 . S
C1641 C419 1.289 . S
C1646 C386 1.238 . S
C1651 C446 1.238 . S
C1656 C439 1.289 . S
C1661 C459 1.287 . S
C1666 C466 1.243 . S
C1671 C479 1.287 . S
C1676 C426 1.242 . S
C1681 C488 1.287 . S
C1686 C536 1.243 1_565 S
C1691 C496 1.243 . S
C1696 C508 1.287 . S
C1701 C516 1.238 . S
C1706 C528 1.288 1_455 S
C1711 C576 1.243 . S
C1716 C548 1.287 . S
C1721 C568 1.287 . S
C1726 C596 1.242 . S
C1731 C588 1.287 . S
C1736 C556 1.243 . S
C1741 C646 1.238 . S
C1746 C619 1.289 . S
C1751 C606 1.242 . S
C1756 C639 1.287 . S
C1761 C659 1.287 . S
C1766 C626 1.243 . S
C1771 C686 1.243 . S
C1776 C679 1.287 . S
C1781 C699 1.288 . S
C1786 C706 1.242 . S
C1791 C719 1.289 . S
C1796 C666 1.238 1_565 S
