# Generated by pormake.
# Topology tzs, (4)-cn, num edge types: 1
# Building blocks:
#     Node 0, Type 0, BuildingBlock: GALJAG_clean_sbu_0, # of connection points: 4
#     Node 1, Type 0, BuildingBlock: GALJAG_clean_sbu_0, # of connection points: 4
#     Node 2, Type 0, BuildingBlock: GALJAG_clean_sbu_0, # of connection points: 4
#     Node 3, Type 0, BuildingBlock: GALJAG_clean_sbu_0, # of connection points: 4
#     Node 4, Type 0, BuildingBlock: GALJAG_clean_sbu_0, # of connection points: 4
#     Node 5, Type 0, BuildingBlock: GALJAG_clean_sbu_0, # of connection points: 4
#     Node 6, Type 0, BuildingBlock: GALJAG_clean_sbu_0, # of connection points: 4
#     Node 7, Type 0, BuildingBlock: GALJAG_clean_sbu_0, # of connection points: 4
#     Node 8, Type 0, BuildingBlock: GALJAG_clean_sbu_0, # of connection points: 4
#     Node 9, Type 0, BuildingBlock: GALJAG_clean_sbu_0, # of connection points: 4
#     Node 10, Type 0, BuildingBlock: GALJAG_clean_sbu_0, # of connection points: 4
#     Node 11, Type 0, BuildingBlock: GALJAG_clean_sbu_0, # of connection points: 4
#     Node 12, Type 0, BuildingBlock: GALJAG_clean_sbu_0, # of connection points: 4
#     Node 13, Type 0, BuildingBlock: GALJAG_clean_sbu_0, # of connection points: 4
#     Node 14, Type 0, BuildingBlock: GALJAG_clean_sbu_0, # of connection points: 4
#     Node 15, Type 0, BuildingBlock: GALJAG_clean_sbu_0, # of connection points: 4
#     Edge 16, Type (0, 0), BuildingBlock: OJICUG_clean_linker_0, # of connection points: 2
#     Edge 17, Type (0, 0), BuildingBlock: OJICUG_clean_linker_0, # of connection points: 2
#     Edge 18, Type (0, 0), BuildingBlock: OJICUG_clean_linker_0, # of connection points: 2
#     Edge 19, Type (0, 0), BuildingBlock: OJICUG_clean_linker_0, # of connection points: 2
#     Edge 20, Type (0, 0), BuildingBlock: OJICUG_clean_linker_0, # of connection points: 2
#     Edge 21, Type (0, 0), BuildingBlock: OJICUG_clean_linker_0, # of connection points: 2
#     Edge 22, Type (0, 0), BuildingBlock: OJICUG_clean_linker_0, # of connection points: 2
#     Edge 23, Type (0, 0), BuildingBlock: OJICUG_clean_linker_0, # of connection points: 2
#     Edge 24, Type (0, 0), BuildingBlock: OJICUG_clean_linker_0, # of connection points: 2
#     Edge 25, Type (0, 0), BuildingBlock: OJICUG_clean_linker_0, # of connection points: 2
#     Edge 26, Type (0, 0), BuildingBlock: OJICUG_clean_linker_0, # of connection points: 2
#     Edge 27, Type (0, 0), BuildingBlock: OJICUG_clean_linker_0, # of connection points: 2
#     Edge 28, Type (0, 0), BuildingBlock: OJICUG_clean_linker_0, # of connection points: 2
#     Edge 29, Type (0, 0), BuildingBlock: OJICUG_clean_linker_0, # of connection points: 2
#     Edge 30, Type (0, 0), BuildingBlock: OJICUG_clean_linker_0, # of connection points: 2
#     Edge 31, Type (0, 0), BuildingBlock: OJICUG_clean_linker_0, # of connection points: 2
#     Edge 32, Type (0, 0), BuildingBlock: OJICUG_clean_linker_0, # of connection points: 2
#     Edge 33, Type (0, 0), BuildingBlock: OJICUG_clean_linker_0, # of connection points: 2
#     Edge 34, Type (0, 0), BuildingBlock: OJICUG_clean_linker_0, # of connection points: 2
#     Edge 35, Type (0, 0), BuildingBlock: OJICUG_clean_linker_0, # of connection points: 2
#     Edge 36, Type (0, 0), BuildingBlock: OJICUG_clean_linker_0, # of connection points: 2
#     Edge 37, Type (0, 0), BuildingBlock: OJICUG_clean_linker_0, # of connection points: 2
#     Edge 38, Type (0, 0), BuildingBlock: OJICUG_clean_linker_0, # of connection points: 2
#     Edge 39, Type (0, 0), BuildingBlock: OJICUG_clean_linker_0, # of connection points: 2
#     Edge 40, Type (0, 0), BuildingBlock: OJICUG_clean_linker_0, # of connection points: 2
#     Edge 41, Type (0, 0), BuildingBlock: OJICUG_clean_linker_0, # of connection points: 2
#     Edge 42, Type (0, 0), BuildingBlock: OJICUG_clean_linker_0, # of connection points: 2
#     Edge 43, Type (0, 0), BuildingBlock: OJICUG_clean_linker_0, # of connection points: 2
#     Edge 44, Type (0, 0), BuildingBlock: OJICUG_clean_linker_0, # of connection points: 2
#     Edge 45, Type (0, 0), BuildingBlock: OJICUG_clean_linker_0, # of connection points: 2
#     Edge 46, Type (0, 0), BuildingBlock: OJICUG_clean_linker_0, # of connection points: 2
#     Edge 47, Type (0, 0), BuildingBlock: OJICUG_clean_linker_0, # of connection points: 2
# Relax obj value: 0.153
# Max RMSD: 0.154
# Mean RMSD: 0.154
data_MOF--net-tzs--node1-GALJAG_clean_sbu_0--edge1-OJICUG_clean_linker_0
_symmetry_space_group_name_H-M    P1
_symmetry_Int_Tables_number       1
_symmetry_cell_setting            triclinic
loop_
_symmetry_equiv_pos_as_xyz
'x, y, z'
_cell_length_a     35.863296
_cell_length_b     35.919642
_cell_length_c     29.601541
_cell_angle_alpha  89.958461
_cell_angle_beta   89.993432
_cell_angle_gamma 89.89309
loop_
_atom_site_label
_atom_site_type_symbol
_atom_site_fract_x
_atom_site_fract_y
_atom_site_fract_z
_atom_type_partial_charge
In0 In 0.14592 0.34592 0.1862 0.0
O1 O 0.20441 0.32904 0.20883 0.0
O2 O 0.16272 0.28727 0.20823 0.0
C3 C 0.15747 0.41581 0.21661 0.0
C4 C 0.1527 0.3372 0.09606 0.0
C5 C 0.07438 0.34006 0.21408 0.0
O6 O 0.15257 0.40842 0.17541 0.0
O7 O 0.15699 0.38792 0.24247 0.0
O8 O 0.08309 0.35088 0.17496 0.0
O9 O 0.10169 0.33156 0.23888 0.0
C10 C 0.19623 0.29549 0.21618 0.0
O11 O 0.13038 0.31807 0.11948 0.0
O12 O 0.17193 0.3602 0.11824 0.0
In13 In 0.64472 0.15091 0.18661 0.0
O14 O 0.67278 0.13822 0.11917 0.0
O15 O 0.62782 0.17675 0.11914 0.0
C16 C 0.65436 0.08122 0.21926 0.0
C17 C 0.69492 0.20069 0.21811 0.0
C18 C 0.57249 0.15832 0.21055 0.0
O19 O 0.656 0.08883 0.17773 0.0
O20 O 0.6486 0.10889 0.24455 0.0
O21 O 0.59866 0.17278 0.23297 0.0
O22 O 0.58278 0.14059 0.17594 0.0
C23 C 0.65193 0.15938 0.09634 0.0
O24 O 0.66232 0.2097 0.20661 0.0
O25 O 0.70225 0.16654 0.2139 0.0
In26 In 0.85317 0.65025 0.18326 0.0
O27 O 0.86955 0.67611 0.11564 0.0
O28 O 0.82478 0.63754 0.11604 0.0
C29 C 0.92549 0.65788 0.20653 0.0
C30 C 0.80288 0.69999 0.21504 0.0
C31 C 0.84393 0.58082 0.21681 0.0
O32 O 0.9151 0.63958 0.17243 0.0
O33 O 0.89938 0.67275 0.22875 0.0
O34 O 0.84263 0.58799 0.17515 0.0
O35 O 0.84919 0.60878 0.24175 0.0
C36 C 0.84537 0.65876 0.09305 0.0
O37 O 0.83557 0.70892 0.20395 0.0
O38 O 0.79549 0.66594 0.21023 0.0
In39 In 0.35196 0.84667 0.18428 0.0
O40 O 0.32559 0.86137 0.11661 0.0
O41 O 0.36681 0.81877 0.11729 0.0
C42 C 0.34034 0.91616 0.21609 0.0
C43 C 0.30173 0.79632 0.21415 0.0
C44 C 0.42368 0.84049 0.21139 0.0
O45 O 0.34512 0.9093 0.17472 0.0
O46 O 0.34097 0.88793 0.2414 0.0
O47 O 0.39658 0.83088 0.23587 0.0
O48 O 0.41469 0.85257 0.17289 0.0
C49 C 0.34439 0.83811 0.09418 0.0
O50 O 0.33522 0.788 0.206 0.0
O51 O 0.29355 0.82996 0.20712 0.0
In52 In 0.14459 0.63783 0.30692 0.0
O53 O 0.11618 0.63062 0.3752 0.0
O54 O 0.17353 0.64531 0.37513 0.0
C55 C 0.07725 0.65286 0.27002 0.0
C56 C 0.19457 0.689 0.27861 0.0
C57 C 0.1583 0.56707 0.28069 0.0
O58 O 0.08773 0.66713 0.30683 0.0
O59 O 0.10099 0.63194 0.25158 0.0
O60 O 0.16173 0.59457 0.25457 0.0
O61 O 0.14873 0.57526 0.32045 0.0
C62 C 0.14484 0.63801 0.39817 0.0
O63 O 0.20314 0.65556 0.2863 0.0
O64 O 0.16074 0.69683 0.28548 0.0
In65 In 0.35329 0.13698 0.31042 0.0
O66 O 0.3243 0.14597 0.37832 0.0
O67 O 0.38075 0.12797 0.37901 0.0
C68 C 0.33941 0.06657 0.28309 0.0
C69 C 0.30333 0.18822 0.28187 0.0
C70 C 0.42084 0.15227 0.27434 0.0
O71 O 0.34884 0.07428 0.32304 0.0
O72 O 0.33616 0.09437 0.2574 0.0
O73 O 0.41022 0.16604 0.31138 0.0
O74 O 0.39718 0.13171 0.25533 0.0
C75 C 0.35235 0.13701 0.40167 0.0
O76 O 0.33719 0.19594 0.28855 0.0
O77 O 0.29472 0.15487 0.28993 0.0
In78 In 0.853 0.35839 0.31075 0.0
O79 O 0.82631 0.37461 0.37799 0.0
O80 O 0.86668 0.33124 0.37832 0.0
C81 C 0.92303 0.34751 0.27947 0.0
C82 C 0.80249 0.30794 0.28169 0.0
C83 C 0.84497 0.42969 0.2831 0.0
O84 O 0.91575 0.35164 0.32083 0.0
O85 O 0.89497 0.34854 0.25384 0.0
O86 O 0.83528 0.40229 0.25923 0.0
O87 O 0.85838 0.42118 0.32113 0.0
C88 C 0.84454 0.3512 0.40094 0.0
O89 O 0.7941 0.34131 0.29005 0.0
O90 O 0.83634 0.29999 0.28791 0.0
In91 In 0.64479 0.85776 0.30912 0.0
O92 O 0.67105 0.8737 0.37667 0.0
O93 O 0.63045 0.83069 0.37652 0.0
C94 C 0.65292 0.92935 0.28281 0.0
C95 C 0.69532 0.80719 0.27981 0.0
C96 C 0.57498 0.84732 0.277 0.0
O97 O 0.63885 0.9204 0.32032 0.0
O98 O 0.66316 0.90222 0.25874 0.0
O99 O 0.58216 0.84971 0.31857 0.0
O100 O 0.60302 0.84989 0.2515 0.0
C101 C 0.65246 0.8505 0.39941 0.0
O102 O 0.66138 0.79947 0.28541 0.0
O103 O 0.7038 0.84035 0.28897 0.0
In104 In 0.85156 0.64911 0.80814 0.0
O105 O 0.82353 0.63705 0.87579 0.0
O106 O 0.86864 0.67522 0.87529 0.0
C107 C 0.84171 0.57939 0.77597 0.0
C108 C 0.80131 0.69887 0.77618 0.0
C109 C 0.92381 0.65592 0.78409 0.0
O110 O 0.84743 0.60697 0.7505 0.0
O111 O 0.84019 0.58711 0.81748 0.0
O112 O 0.89773 0.671 0.76199 0.0
O113 O 0.91341 0.63788 0.81842 0.0
C114 C 0.84448 0.65821 0.89833 0.0
O115 O 0.83379 0.70791 0.78803 0.0
O116 O 0.79415 0.6647 0.78025 0.0
In117 In 0.34949 0.84403 0.80914 0.0
O118 O 0.33339 0.78552 0.78605 0.0
O119 O 0.29077 0.82645 0.78873 0.0
C120 C 0.33787 0.91421 0.77957 0.0
C121 C 0.34256 0.83626 0.89937 0.0
C122 C 0.42073 0.83782 0.77998 0.0
O123 O 0.3352 0.88626 0.75407 0.0
O124 O 0.34599 0.90675 0.82002 0.0
O125 O 0.39305 0.83303 0.7544 0.0
O126 O 0.41252 0.84502 0.82045 0.0
C127 C 0.29947 0.79326 0.77989 0.0
O128 O 0.36445 0.81636 0.87623 0.0
O129 O 0.32378 0.85952 0.87686 0.0
In130 In 0.1439 0.34469 0.81103 0.0
O131 O 0.17018 0.35982 0.87851 0.0
O132 O 0.12902 0.31731 0.87835 0.0
C133 C 0.15545 0.41413 0.77905 0.0
C134 C 0.19423 0.29408 0.78179 0.0
C135 C 0.07231 0.33839 0.78351 0.0
O136 O 0.15546 0.38582 0.7539 0.0
O137 O 0.14999 0.40738 0.82032 0.0
O138 O 0.08106 0.34968 0.8224 0.0
O139 O 0.09959 0.32963 0.75881 0.0
C140 C 0.15137 0.33681 0.90123 0.0
O141 O 0.20243 0.32764 0.78897 0.0
O142 O 0.16066 0.28592 0.78953 0.0
In143 In 0.64313 0.14861 0.81159 0.0
O144 O 0.7009 0.16423 0.78501 0.0
O145 O 0.66045 0.20714 0.79023 0.0
C146 C 0.65246 0.07887 0.77908 0.0
C147 C 0.65099 0.15795 0.90163 0.0
C148 C 0.57091 0.15616 0.78762 0.0
O149 O 0.64866 0.10684 0.7537 0.0
O150 O 0.65233 0.08617 0.82073 0.0
O151 O 0.58114 0.13859 0.8224 0.0
O152 O 0.59712 0.17041 0.76507 0.0
C153 C 0.6933 0.19822 0.77963 0.0
O154 O 0.62677 0.17515 0.87879 0.0
O155 O 0.67158 0.13644 0.87896 0.0
In156 In 0.85111 0.356 0.68602 0.0
O157 O 0.82452 0.37244 0.6188 0.0
O158 O 0.86534 0.32949 0.61827 0.0
C159 C 0.84303 0.4275 0.71272 0.0
C160 C 0.80065 0.30539 0.71504 0.0
C161 C 0.921 0.34523 0.71785 0.0
O162 O 0.85665 0.41865 0.67493 0.0
O163 O 0.83321 0.40032 0.73693 0.0
O164 O 0.89294 0.34719 0.7434 0.0
O165 O 0.91379 0.34836 0.67635 0.0
C166 C 0.84317 0.34949 0.59571 0.0
O167 O 0.8345 0.2975 0.7088 0.0
O168 O 0.79221 0.33875 0.70665 0.0
In169 In 0.64237 0.85675 0.68437 0.0
O170 O 0.7011 0.83998 0.70642 0.0
O171 O 0.65976 0.79789 0.70492 0.0
C172 C 0.65046 0.92772 0.71313 0.0
C173 C 0.65101 0.85002 0.59419 0.0
C174 C 0.57208 0.84578 0.71468 0.0
O175 O 0.63917 0.91969 0.67399 0.0
O176 O 0.65794 0.89998 0.73768 0.0
O177 O 0.57942 0.85299 0.67396 0.0
O178 O 0.60019 0.84383 0.74014 0.0
C179 C 0.69324 0.80621 0.71282 0.0
O180 O 0.62841 0.83038 0.61649 0.0
O181 O 0.66964 0.87279 0.61747 0.0
In182 In 0.1433 0.635 0.68456 0.0
O183 O 0.17268 0.64333 0.61676 0.0
O184 O 0.11552 0.62799 0.61584 0.0
C185 C 0.15712 0.56447 0.71168 0.0
C186 C 0.19291 0.68608 0.71386 0.0
C187 C 0.07559 0.64979 0.72058 0.0
O188 O 0.14749 0.57228 0.6718 0.0
O189 O 0.16061 0.59222 0.73733 0.0
O190 O 0.08648 0.66449 0.68417 0.0
O191 O 0.09908 0.62856 0.73901 0.0
C192 C 0.14427 0.63599 0.59329 0.0
O193 O 0.15889 0.69361 0.70797 0.0
O194 O 0.20186 0.653 0.70465 0.0
In195 In 0.35153 0.13575 0.68804 0.0
O196 O 0.37938 0.12638 0.61977 0.0
O197 O 0.32336 0.14575 0.61985 0.0
C198 C 0.41923 0.15058 0.72393 0.0
C199 C 0.30152 0.1868 0.71684 0.0
C200 C 0.3371 0.06539 0.71514 0.0
O201 O 0.39559 0.1299 0.74282 0.0
O202 O 0.40853 0.16467 0.68707 0.0
O203 O 0.34491 0.07334 0.67474 0.0
O204 O 0.33572 0.09293 0.74142 0.0
C205 C 0.35141 0.13624 0.59681 0.0
O206 O 0.3354 0.19453 0.7104 0.0
O207 O 0.2929 0.15353 0.70843 0.0
C208 C 0.2388 0.20529 0.25758 0.0
C209 C 0.27595 0.21581 0.26544 0.0
H210 H 0.18446 0.22227 0.23573 0.0
C211 C 0.2867 0.25275 0.25705 0.0
H212 H 0.22972 0.17699 0.26371 0.0
C213 C 0.26077 0.27868 0.24102 0.0
C214 C 0.22364 0.26812 0.23305 0.0
H215 H 0.31516 0.26164 0.26279 0.0
H216 H 0.26983 0.30698 0.23483 0.0
C217 C 0.2129 0.23119 0.24151 0.0
C218 C 0.73807 0.29134 0.25658 0.0
C219 C 0.77494 0.28043 0.26575 0.0
H220 H 0.68386 0.27463 0.23418 0.0
C221 C 0.78525 0.24304 0.25945 0.0
H222 H 0.72934 0.31997 0.26112 0.0
C223 C 0.75918 0.21704 0.24421 0.0
C224 C 0.72237 0.228 0.23479 0.0
H225 H 0.81347 0.23383 0.26632 0.0
H226 H 0.76792 0.18842 0.2396 0.0
C227 C 0.71206 0.26538 0.24114 0.0
C228 C 0.78584 0.76449 0.23923 0.0
C229 C 0.77542 0.72728 0.232 0.0
H230 H 0.76866 0.81891 0.26021 0.0
C231 C 0.73851 0.71648 0.24085 0.0
H232 H 0.81412 0.7736 0.23273 0.0
C233 C 0.71245 0.74246 0.25641 0.0
C234 C 0.72287 0.77967 0.2636 0.0
H235 H 0.72969 0.688 0.23556 0.0
H236 H 0.68414 0.73338 0.26281 0.0
C237 C 0.75984 0.79042 0.25499 0.0
C238 C 0.2372 0.7796 0.23885 0.0
C239 C 0.27432 0.76894 0.23076 0.0
H240 H 0.18279 0.76261 0.2604 0.0
C241 C 0.28503 0.7319 0.23874 0.0
H242 H 0.22816 0.80799 0.23302 0.0
C243 C 0.25911 0.70597 0.25447 0.0
C244 C 0.22196 0.71659 0.26247 0.0
H245 H 0.31347 0.7229 0.23284 0.0
H246 H 0.26817 0.67758 0.26025 0.0
C247 C 0.21125 0.75365 0.25455 0.0
C248 C 0.71117 0.74102 0.7334 0.0
C249 C 0.72097 0.77866 0.72854 0.0
H250 H 0.72898 0.6862 0.75215 0.0
C251 C 0.75748 0.78979 0.73906 0.0
H252 H 0.68323 0.73163 0.72548 0.0
C253 C 0.78362 0.76382 0.75441 0.0
C254 C 0.77379 0.7262 0.7594 0.0
H255 H 0.76583 0.81862 0.73565 0.0
H256 H 0.81152 0.77324 0.76245 0.0
C257 C 0.73735 0.71502 0.74862 0.0
C258 C 0.25765 0.70347 0.73671 0.0
C259 C 0.22013 0.71358 0.73059 0.0
H260 H 0.31219 0.72076 0.75721 0.0
C261 C 0.20886 0.75006 0.7409 0.0
H262 H 0.26714 0.67553 0.72907 0.0
C263 C 0.23465 0.77595 0.75705 0.0
C264 C 0.27218 0.76582 0.76318 0.0
H265 H 0.1801 0.75862 0.73655 0.0
H266 H 0.22519 0.8039 0.76469 0.0
C267 C 0.28343 0.72934 0.75287 0.0
C268 C 0.21091 0.22979 0.75651 0.0
C269 C 0.22169 0.26664 0.76526 0.0
H270 H 0.22775 0.17565 0.73419 0.0
C271 C 0.25893 0.27712 0.75785 0.0
H272 H 0.18238 0.22094 0.76187 0.0
C273 C 0.28491 0.25119 0.74202 0.0
C274 C 0.27411 0.21434 0.73325 0.0
H275 H 0.26803 0.30535 0.7643 0.0
H276 H 0.31344 0.26002 0.73667 0.0
C277 C 0.23686 0.20388 0.74062 0.0
C278 C 0.75759 0.2146 0.75356 0.0
C279 C 0.7207 0.22549 0.76265 0.0
H280 H 0.81188 0.23143 0.73144 0.0
C281 C 0.71024 0.26276 0.75566 0.0
H282 H 0.76643 0.18606 0.75865 0.0
C283 C 0.7362 0.28869 0.73997 0.0
C284 C 0.77314 0.27787 0.73113 0.0
H285 H 0.68199 0.27194 0.76235 0.0
H286 H 0.72735 0.31724 0.73498 0.0
C287 C 0.78359 0.24058 0.73803 0.0
C288 C 0.13052 0.31035 0.97534 0.0
C289 C 0.15383 0.33453 0.95098 0.0
H290 H 0.112 0.29211 0.04052 0.0
C291 C 0.1783 0.35791 0.97471 0.0
H292 H 0.11141 0.29197 0.95794 0.0
C293 C 0.17866 0.35798 0.02189 0.0
C294 C 0.15453 0.33467 0.0463 0.0
H295 H 0.19666 0.37678 0.95685 0.0
H296 H 0.19726 0.37691 0.03922 0.0
C297 C 0.13087 0.31043 0.02259 0.0
C298 C 0.62834 0.18357 0.97525 0.0
C299 C 0.65345 0.16092 0.9513 0.0
H300 H 0.6083 0.20098 0.04005 0.0
C301 C 0.67965 0.13962 0.9754 0.0
H302 H 0.60788 0.20035 0.95757 0.0
C303 C 0.67989 0.14 0.02261 0.0
C304 C 0.65394 0.16166 0.04658 0.0
H305 H 0.69941 0.12197 0.95783 0.0
H306 H 0.69983 0.12261 0.0403 0.0
C307 C 0.62858 0.18394 0.02247 0.0
C308 C 0.86791 0.68331 0.9718 0.0
C309 C 0.8425 0.66096 0.94804 0.0
H310 H 0.88862 0.70028 0.03642 0.0
C311 C 0.81648 0.6397 0.97237 0.0
H312 H 0.88824 0.70005 0.95394 0.0
C313 C 0.81671 0.63983 0.01958 0.0
C314 C 0.84294 0.66122 0.04334 0.0
H315 H 0.7965 0.62227 0.95497 0.0
H316 H 0.79689 0.62249 0.03744 0.0
C317 C 0.86813 0.68344 0.01901 0.0
C318 C 0.36477 0.81052 0.0205 0.0
C319 C 0.34181 0.83533 0.04449 0.0
H320 H 0.38287 0.7912 0.95561 0.0
C321 C 0.31752 0.85879 0.02041 0.0
H322 H 0.38372 0.79206 0.03818 0.0
C323 C 0.31703 0.85829 0.97323 0.0
C324 C 0.34081 0.83432 0.94918 0.0
H325 H 0.29943 0.87814 0.03797 0.0
H326 H 0.29859 0.8773 0.95561 0.0
C327 C 0.36427 0.81001 0.97326 0.0
C328 C 0.1119 0.62861 0.51907 0.0
C329 C 0.14453 0.63663 0.5434 0.0
H330 H 0.08643 0.62281 0.45407 0.0
C331 C 0.1773 0.64529 0.51962 0.0
H332 H 0.08621 0.62188 0.53647 0.0
C333 C 0.17744 0.64583 0.47237 0.0
C334 C 0.14479 0.63773 0.44807 0.0
H335 H 0.20287 0.65162 0.53748 0.0
H336 H 0.20311 0.65253 0.45491 0.0
C337 C 0.11203 0.62916 0.47188 0.0
C338 C 0.3837 0.12589 0.52301 0.0
C339 C 0.35155 0.1365 0.54691 0.0
H340 H 0.40913 0.11776 0.45833 0.0
C341 C 0.31963 0.14735 0.52269 0.0
H342 H 0.40873 0.11741 0.54076 0.0
C343 C 0.31986 0.14754 0.47545 0.0
C344 C 0.35202 0.1369 0.45157 0.0
H345 H 0.29445 0.15569 0.54022 0.0
H346 H 0.29485 0.15602 0.45766 0.0
C347 C 0.38393 0.1261 0.47581 0.0
C348 C 0.81828 0.37293 0.47472 0.0
C349 C 0.8418 0.34873 0.45063 0.0
H350 H 0.80012 0.39202 0.53966 0.0
C351 C 0.86405 0.32326 0.47461 0.0
H352 H 0.80076 0.3928 0.45713 0.0
C353 C 0.86368 0.32281 0.5218 0.0
C354 C 0.84105 0.34781 0.54592 0.0
H355 H 0.88238 0.30419 0.45695 0.0
H356 H 0.88175 0.30341 0.53936 0.0
C357 C 0.8179 0.37247 0.52195 0.0
C358 C 0.63131 0.82314 0.5201 0.0
C359 C 0.65378 0.84804 0.54447 0.0
H360 H 0.61344 0.80428 0.45505 0.0
C361 C 0.67751 0.87223 0.52075 0.0
H362 H 0.6128 0.80409 0.53746 0.0
C363 C 0.67787 0.87234 0.47352 0.0
C364 C 0.65451 0.84826 0.44917 0.0
H365 H 0.6952 0.89167 0.53865 0.0
H366 H 0.69583 0.89188 0.45612 0.0
C367 C 0.63168 0.82324 0.47291 0.0
C368 C 0.16554 0.52067 0.21855 0.0
C369 C 0.16194 0.5283 0.26489 0.0
H370 H 0.16684 0.47898 0.16692 0.0
C371 C 0.15934 0.49853 0.29551 0.0
H372 H 0.16758 0.54307 0.19416 0.0
C373 C 0.15918 0.46181 0.27992 0.0
C374 C 0.16125 0.45427 0.23342 0.0
H375 H 0.1566 0.50361 0.33143 0.0
H376 H 0.15628 0.43941 0.30418 0.0
C377 C 0.16502 0.484 0.20295 0.0
C378 C 0.52295 0.1779 0.26537 0.0
C379 C 0.53311 0.15999 0.22499 0.0
H380 H 0.47919 0.18974 0.31264 0.0
C381 C 0.50552 0.14191 0.19952 0.0
H382 H 0.54363 0.19213 0.28563 0.0
C383 C 0.46877 0.14056 0.21493 0.0
C384 C 0.45883 0.15728 0.2561 0.0
H385 H 0.51248 0.12798 0.16818 0.0
H386 H 0.44835 0.12557 0.19508 0.0
C387 C 0.48609 0.17657 0.28079 0.0
C388 C 0.85004 0.53496 0.28009 0.0
C389 C 0.8416 0.54247 0.23463 0.0
H390 H 0.85787 0.49328 0.33106 0.0
C391 C 0.83265 0.51276 0.2058 0.0
H392 H 0.85711 0.55731 0.30307 0.0
C393 C 0.83283 0.47616 0.22187 0.0
C394 C 0.84232 0.46855 0.26699 0.0
H395 H 0.82596 0.51771 0.17061 0.0
H396 H 0.82634 0.45378 0.19868 0.0
C397 C 0.85056 0.49832 0.29607 0.0
C398 C 0.52892 0.8484 0.21352 0.0
C399 C 0.53661 0.84326 0.25964 0.0
H400 H 0.487 0.85172 0.16207 0.0
C401 C 0.50709 0.83546 0.28934 0.0
H402 H 0.55114 0.85448 0.18986 0.0
C403 C 0.47048 0.83348 0.27338 0.0
C404 C 0.46265 0.83971 0.2275 0.0
H405 H 0.51222 0.83124 0.32505 0.0
H406 H 0.44823 0.82796 0.2972 0.0
C407 C 0.49223 0.84687 0.19763 0.0
C408 C 0.83038 0.51147 0.78836 0.0
C409 C 0.8393 0.54083 0.75893 0.0
H410 H 0.82424 0.45256 0.79667 0.0
C411 C 0.84776 0.53277 0.71363 0.0
H412 H 0.8237 0.51685 0.82345 0.0
C413 C 0.84838 0.49594 0.69841 0.0
C414 C 0.84023 0.46652 0.72809 0.0
H415 H 0.85479 0.55484 0.69019 0.0
H416 H 0.85571 0.49049 0.66352 0.0
C417 C 0.83067 0.47467 0.77304 0.0
C418 C 0.50358 0.83959 0.70093 0.0
C419 C 0.53354 0.84139 0.73141 0.0
H420 H 0.44436 0.83656 0.69247 0.0
C421 C 0.52622 0.8402 0.77802 0.0
H422 H 0.5084 0.84034 0.66481 0.0
C423 C 0.48954 0.83837 0.79385 0.0
C424 C 0.45955 0.83724 0.76336 0.0
H425 H 0.54878 0.84154 0.80229 0.0
H426 H 0.48465 0.83827 0.82997 0.0
C427 C 0.46693 0.83732 0.71676 0.0
C428 C 0.15776 0.4592 0.71468 0.0
C429 C 0.15942 0.45232 0.76137 0.0
H430 H 0.1557 0.50031 0.66222 0.0
C431 C 0.16304 0.48245 0.79121 0.0
H432 H 0.155 0.43647 0.69091 0.0
C433 C 0.16382 0.51889 0.7748 0.0
C434 C 0.1606 0.52588 0.72826 0.0
H435 H 0.16456 0.47794 0.82736 0.0
H436 H 0.16573 0.5416 0.79872 0.0
C437 C 0.15815 0.49571 0.69827 0.0
C438 C 0.48455 0.17467 0.7174 0.0
C439 C 0.45725 0.15541 0.7421 0.0
H440 H 0.54213 0.19011 0.71255 0.0
C441 C 0.46717 0.13858 0.78325 0.0
H442 H 0.47768 0.18791 0.68557 0.0
C443 C 0.50392 0.13984 0.79864 0.0
C444 C 0.53154 0.1579 0.77318 0.0
H445 H 0.44671 0.12361 0.80309 0.0
H446 H 0.51085 0.12585 0.82998 0.0
C447 C 0.52141 0.17589 0.73281 0.0
C448 C 0.6485 0.03309 0.71559 0.0
C449 C 0.65459 0.0404 0.76162 0.0
H450 H 0.64228 0.99162 0.66417 0.0
C451 C 0.66093 0.01044 0.7912 0.0
H452 H 0.64349 0.05562 0.69201 0.0
C453 C 0.66046 0.97383 0.77523 0.0
C454 C 0.65332 0.96647 0.72944 0.0
H455 H 0.66574 0.01524 0.82685 0.0
H456 H 0.66489 0.95128 0.79894 0.0
C457 C 0.64772 0.99646 0.69968 0.0
C458 C 0.97358 0.67612 0.72995 0.0
C459 C 0.9632 0.65736 0.76968 0.0
H460 H 0.01755 0.68868 0.68327 0.0
C461 C 0.99059 0.63833 0.79457 0.0
H462 H 0.95305 0.69109 0.71014 0.0
C463 C 0.02736 0.63695 0.77924 0.0
C464 C 0.03754 0.65462 0.73873 0.0
H465 H 0.98347 0.62372 0.8254 0.0
H466 H 0.04763 0.62127 0.79863 0.0
C467 C 0.01047 0.67478 0.71461 0.0
C468 C 0.33268 0.01923 0.77791 0.0
C469 C 0.3333 0.02674 0.73134 0.0
H470 H 0.3338 0.97761 0.82969 0.0
C471 C 0.33287 0.99692 0.7007 0.0
H472 H 0.33303 0.04168 0.80232 0.0
C473 C 0.333 0.9602 0.71639 0.0
C474 C 0.33399 0.95274 0.76298 0.0
H475 H 0.33326 0.00193 0.6646 0.0
H476 H 0.33353 0.93771 0.69205 0.0
C477 C 0.33323 0.98257 0.79358 0.0
C478 C 0.00365 0.3434 0.79735 0.0
C479 C 0.03339 0.33756 0.76727 0.0
H480 H 0.94461 0.34998 0.80531 0.0
C481 C 0.02572 0.33261 0.72113 0.0
H482 H 0.00875 0.34724 0.83312 0.0
C483 C 0.9891 0.33457 0.70517 0.0
C484 C 0.95942 0.34108 0.73512 0.0
H485 H 0.0481 0.32813 0.69716 0.0
H486 H 0.9841 0.33139 0.66929 0.0
C487 C 0.96696 0.34493 0.78145 0.0
C488 C 0.33842 -0.00217 0.29662 0.0
C489 C 0.33577 0.028 0.26659 0.0
H490 H 0.34156 0.93859 0.30413 0.0
C491 C 0.33214 0.02099 0.22011 0.0
H492 H 0.34119 0.00243 0.33263 0.0
C493 C 0.33269 0.98453 0.20379 0.0
C494 C 0.33652 0.9544 0.23367 0.0
H495 H 0.33005 0.04371 0.19616 0.0
H496 H 0.33085 0.98 0.16768 0.0
C497 C 0.33861 0.96131 0.28032 0.0
C498 C 0.96905 0.34652 0.21598 0.0
C499 C 0.96148 0.34327 0.26237 0.0
H500 H 0.01085 0.34822 0.1643 0.0
C501 C 0.99115 0.33721 0.29248 0.0
H502 H 0.94671 0.35122 0.192 0.0
C503 C 0.02778 0.33509 0.27659 0.0
C504 C 0.03547 0.33943 0.23035 0.0
H505 H 0.98611 0.33448 0.32842 0.0
H506 H 0.05016 0.33094 0.30066 0.0
C507 C 0.00574 0.34485 0.20014 0.0
C508 C 0.66592 0.97654 0.22273 0.0
C509 C 0.65573 0.96839 0.26748 0.0
H510 H 0.67342 0.01872 0.17239 0.0
C511 C 0.64696 -0.0022 0.29691 0.0
H512 H 0.67284 0.95445 0.19929 0.0
C513 C 0.64761 0.03463 0.28161 0.0
C514 C 0.6567 0.04269 0.23649 0.0
H515 H 0.63912 0.99233 0.33163 0.0
H516 H 0.64009 0.0567 0.30483 0.0
C517 C 0.66623 0.01333 0.20733 0.0
C518 C 0.01203 0.67751 0.27577 0.0
C519 C 0.03927 0.65763 0.25163 0.0
H520 H 0.95448 0.69328 0.28032 0.0
C521 C 0.02928 0.64006 0.21102 0.0
H522 H 0.01896 0.69135 0.30717 0.0
C523 C 0.99249 0.64115 0.1957 0.0
C524 C 0.96492 0.6598 0.2207 0.0
H525 H 0.0497 0.6246 0.19161 0.0
H526 H 0.98548 0.62655 0.16484 0.0
C527 C 0.97514 0.67857 0.26044 0.0
loop_
_geom_bond_atom_site_label_1
_geom_bond_atom_site_label_2
_geom_bond_distance
_geom_bond_site_symmetry_2
_ccdc_geom_bond_type
In0 O1 2.294 . S
In0 O2 2.326 . S
In0 O6 2.266 . S
In0 O7 2.326 . S
In0 O8 2.266 . S
In0 O9 2.326 . S
In0 O11 2.294 . S
In0 O12 2.326 . S
O1 In0 2.294 . S
O1 C10 1.240 . S
O2 In0 2.326 . S
O2 C10 1.252 . S
C3 O6 1.252 . S
C3 O7 1.260 . S
C4 O11 1.240 . S
C4 O12 1.252 . S
C5 O8 1.252 . S
C5 O9 1.260 . S
O6 In0 2.266 . S
O6 C3 1.252 . S
O7 In0 2.326 . S
O7 C3 1.260 . S
O8 In0 2.266 . S
O8 C5 1.252 . S
O9 In0 2.326 . S
O9 C5 1.260 . S
C10 O1 1.240 . S
C10 O2 1.252 . S
O11 In0 2.294 . S
O11 C4 1.240 . S
O12 In0 2.326 . S
O12 C4 1.252 . S
In13 O14 2.294 . S
In13 O15 2.326 . S
In13 O19 2.266 . S
In13 O20 2.326 . S
In13 O21 2.266 . S
In13 O22 2.326 . S
In13 O24 2.294 . S
In13 O25 2.326 . S
O14 In13 2.294 . S
O14 C23 1.240 . S
O15 In13 2.326 . S
O15 C23 1.252 . S
C16 O19 1.252 . S
C16 O20 1.260 . S
C17 O24 1.240 . S
C17 O25 1.252 . S
C18 O21 1.252 . S
C18 O22 1.260 . S
O19 In13 2.266 . S
O19 C16 1.252 . S
O20 In13 2.326 . S
O20 C16 1.260 . S
O21 In13 2.266 . S
O21 C18 1.252 . S
O22 In13 2.326 . S
O22 C18 1.260 . S
C23 O14 1.240 . S
C23 O15 1.252 . S
O24 In13 2.294 . S
O24 C17 1.240 . S
O25 In13 2.326 . S
O25 C17 1.252 . S
In26 O27 2.294 . S
In26 O28 2.326 . S
In26 O32 2.266 . S
In26 O33 2.326 . S
In26 O34 2.266 . S
In26 O35 2.326 . S
In26 O37 2.294 . S
In26 O38 2.326 . S
O27 In26 2.294 . S
O27 C36 1.240 . S
O28 In26 2.326 . S
O28 C36 1.252 . S
C29 O32 1.252 . S
C29 O33 1.260 . S
C30 O37 1.240 . S
C30 O38 1.252 . S
C31 O34 1.252 . S
C31 O35 1.260 . S
O32 In26 2.266 . S
O32 C29 1.252 . S
O33 In26 2.326 . S
O33 C29 1.260 . S
O34 In26 2.266 . S
O34 C31 1.252 . S
O35 In26 2.326 . S
O35 C31 1.260 . S
C36 O27 1.240 . S
C36 O28 1.252 . S
O37 In26 2.294 . S
O37 C30 1.240 . S
O38 In26 2.326 . S
O38 C30 1.252 . S
In39 O40 2.294 . S
In39 O41 2.326 . S
In39 O45 2.266 . S
In39 O46 2.326 . S
In39 O47 2.266 . S
In39 O48 2.326 . S
In39 O50 2.294 . S
In39 O51 2.326 . S
O40 In39 2.294 . S
O40 C49 1.240 . S
O41 In39 2.326 . S
O41 C49 1.252 . S
C42 O45 1.252 . S
C42 O46 1.260 . S
C43 O50 1.240 . S
C43 O51 1.252 . S
C44 O47 1.252 . S
C44 O48 1.260 . S
O45 In39 2.266 . S
O45 C42 1.252 . S
O46 In39 2.326 . S
O46 C42 1.260 . S
O47 In39 2.266 . S
O47 C44 1.252 . S
O48 In39 2.326 . S
O48 C44 1.260 . S
C49 O40 1.240 . S
C49 O41 1.252 . S
O50 In39 2.294 . S
O50 C43 1.240 . S
O51 In39 2.326 . S
O51 C43 1.252 . S
In52 O53 2.294 . S
In52 O54 2.326 . S
In52 O58 2.266 . S
In52 O59 2.326 . S
In52 O60 2.266 . S
In52 O61 2.326 . S
In52 O63 2.294 . S
In52 O64 2.326 . S
O53 In52 2.294 . S
O53 C62 1.240 . S
O54 In52 2.326 . S
O54 C62 1.252 . S
C55 O58 1.252 . S
C55 O59 1.260 . S
C56 O63 1.240 . S
C56 O64 1.252 . S
C57 O60 1.252 . S
C57 O61 1.260 . S
O58 In52 2.266 . S
O58 C55 1.252 . S
O59 In52 2.326 . S
O59 C55 1.260 . S
O60 In52 2.266 . S
O60 C57 1.252 . S
O61 In52 2.326 . S
O61 C57 1.260 . S
C62 O53 1.240 . S
C62 O54 1.252 . S
O63 In52 2.294 . S
O63 C56 1.240 . S
O64 In52 2.326 . S
O64 C56 1.252 . S
In65 O66 2.294 . S
In65 O67 2.326 . S
In65 O71 2.266 . S
In65 O72 2.326 . S
In65 O73 2.266 . S
In65 O74 2.326 . S
In65 O76 2.294 . S
In65 O77 2.326 . S
O66 In65 2.294 . S
O66 C75 1.240 . S
O67 In65 2.326 . S
O67 C75 1.252 . S
C68 O71 1.252 . S
C68 O72 1.260 . S
C69 O76 1.240 . S
C69 O77 1.252 . S
C70 O73 1.252 . S
C70 O74 1.260 . S
O71 In65 2.266 . S
O71 C68 1.252 . S
O72 In65 2.326 . S
O72 C68 1.260 . S
O73 In65 2.266 . S
O73 C70 1.252 . S
O74 In65 2.326 . S
O74 C70 1.260 . S
C75 O66 1.240 . S
C75 O67 1.252 . S
O76 In65 2.294 . S
O76 C69 1.240 . S
O77 In65 2.326 . S
O77 C69 1.252 . S
In78 O79 2.294 . S
In78 O80 2.326 . S
In78 O84 2.266 . S
In78 O85 2.326 . S
In78 O86 2.266 . S
In78 O87 2.326 . S
In78 O89 2.294 . S
In78 O90 2.326 . S
O79 In78 2.294 . S
O79 C88 1.240 . S
O80 In78 2.326 . S
O80 C88 1.252 . S
C81 O84 1.252 . S
C81 O85 1.260 . S
C82 O89 1.240 . S
C82 O90 1.252 . S
C83 O86 1.252 . S
C83 O87 1.260 . S
O84 In78 2.266 . S
O84 C81 1.252 . S
O85 In78 2.326 . S
O85 C81 1.260 . S
O86 In78 2.266 . S
O86 C83 1.252 . S
O87 In78 2.326 . S
O87 C83 1.260 . S
C88 O79 1.240 . S
C88 O80 1.252 . S
O89 In78 2.294 . S
O89 C82 1.240 . S
O90 In78 2.326 . S
O90 C82 1.252 . S
In91 O92 2.294 . S
In91 O93 2.326 . S
In91 O97 2.266 . S
In91 O98 2.326 . S
In91 O99 2.266 . S
In91 O100 2.326 . S
In91 O102 2.294 . S
In91 O103 2.326 . S
O92 In91 2.294 . S
O92 C101 1.240 . S
O93 In91 2.326 . S
O93 C101 1.252 . S
C94 O97 1.252 . S
C94 O98 1.260 . S
C95 O102 1.240 . S
C95 O103 1.252 . S
C96 O99 1.252 . S
C96 O100 1.260 . S
O97 In91 2.266 . S
O97 C94 1.252 . S
O98 In91 2.326 . S
O98 C94 1.260 . S
O99 In91 2.266 . S
O99 C96 1.252 . S
O100 In91 2.326 . S
O100 C96 1.260 . S
C101 O92 1.240 . S
C101 O93 1.252 . S
O102 In91 2.294 . S
O102 C95 1.240 . S
O103 In91 2.326 . S
O103 C95 1.252 . S
In104 O105 2.294 . S
In104 O106 2.326 . S
In104 O110 2.266 . S
In104 O111 2.326 . S
In104 O112 2.266 . S
In104 O113 2.326 . S
In104 O115 2.294 . S
In104 O116 2.326 . S
O105 In104 2.294 . S
O105 C114 1.240 . S
O106 In104 2.326 . S
O106 C114 1.252 . S
C107 O110 1.252 . S
C107 O111 1.260 . S
C108 O115 1.240 . S
C108 O116 1.252 . S
C109 O112 1.252 . S
C109 O113 1.260 . S
O110 In104 2.266 . S
O110 C107 1.252 . S
O111 In104 2.326 . S
O111 C107 1.260 . S
O112 In104 2.266 . S
O112 C109 1.252 . S
O113 In104 2.326 . S
O113 C109 1.260 . S
C114 O105 1.240 . S
C114 O106 1.252 . S
O115 In104 2.294 . S
O115 C108 1.240 . S
O116 In104 2.326 . S
O116 C108 1.252 . S
In117 O118 2.294 . S
In117 O119 2.326 . S
In117 O123 2.266 . S
In117 O124 2.326 . S
In117 O125 2.266 . S
In117 O126 2.326 . S
In117 O128 2.294 . S
In117 O129 2.326 . S
O118 In117 2.294 . S
O118 C127 1.240 . S
O119 In117 2.326 . S
O119 C127 1.252 . S
C120 O123 1.252 . S
C120 O124 1.260 . S
C121 O128 1.240 . S
C121 O129 1.252 . S
C122 O125 1.252 . S
C122 O126 1.260 . S
O123 In117 2.266 . S
O123 C120 1.252 . S
O124 In117 2.326 . S
O124 C120 1.260 . S
O125 In117 2.266 . S
O125 C122 1.252 . S
O126 In117 2.326 . S
O126 C122 1.260 . S
C127 O118 1.240 . S
C127 O119 1.252 . S
O128 In117 2.294 . S
O128 C121 1.240 . S
O129 In117 2.326 . S
O129 C121 1.252 . S
In130 O131 2.294 . S
In130 O132 2.326 . S
In130 O136 2.266 . S
In130 O137 2.326 . S
In130 O138 2.266 . S
In130 O139 2.326 . S
In130 O141 2.294 . S
In130 O142 2.326 . S
O131 In130 2.294 . S
O131 C140 1.240 . S
O132 In130 2.326 . S
O132 C140 1.252 . S
C133 O136 1.252 . S
C133 O137 1.260 . S
C134 O141 1.240 . S
C134 O142 1.252 . S
C135 O138 1.252 . S
C135 O139 1.260 . S
O136 In130 2.266 . S
O136 C133 1.252 . S
O137 In130 2.326 . S
O137 C133 1.260 . S
O138 In130 2.266 . S
O138 C135 1.252 . S
O139 In130 2.326 . S
O139 C135 1.260 . S
C140 O131 1.240 . S
C140 O132 1.252 . S
O141 In130 2.294 . S
O141 C134 1.240 . S
O142 In130 2.326 . S
O142 C134 1.252 . S
In143 O144 2.294 . S
In143 O145 2.326 . S
In143 O149 2.266 . S
In143 O150 2.326 . S
In143 O151 2.266 . S
In143 O152 2.326 . S
In143 O154 2.294 . S
In143 O155 2.326 . S
O144 In143 2.294 . S
O144 C153 1.240 . S
O145 In143 2.326 . S
O145 C153 1.252 . S
C146 O149 1.252 . S
C146 O150 1.260 . S
C147 O154 1.240 . S
C147 O155 1.252 . S
C148 O151 1.252 . S
C148 O152 1.260 . S
O149 In143 2.266 . S
O149 C146 1.252 . S
O150 In143 2.326 . S
O150 C146 1.260 . S
O151 In143 2.266 . S
O151 C148 1.252 . S
O152 In143 2.326 . S
O152 C148 1.260 . S
C153 O144 1.240 . S
C153 O145 1.252 . S
O154 In143 2.294 . S
O154 C147 1.240 . S
O155 In143 2.326 . S
O155 C147 1.252 . S
In156 O157 2.294 . S
In156 O158 2.326 . S
In156 O162 2.266 . S
In156 O163 2.326 . S
In156 O164 2.266 . S
In156 O165 2.326 . S
In156 O167 2.294 . S
In156 O168 2.326 . S
O157 In156 2.294 . S
O157 C166 1.240 . S
O158 In156 2.326 . S
O158 C166 1.252 . S
C159 O162 1.252 . S
C159 O163 1.260 . S
C160 O167 1.240 . S
C160 O168 1.252 . S
C161 O164 1.252 . S
C161 O165 1.260 . S
O162 In156 2.266 . S
O162 C159 1.252 . S
O163 In156 2.326 . S
O163 C159 1.260 . S
O164 In156 2.266 . S
O164 C161 1.252 . S
O165 In156 2.326 . S
O165 C161 1.260 . S
C166 O157 1.240 . S
C166 O158 1.252 . S
O167 In156 2.294 . S
O167 C160 1.240 . S
O168 In156 2.326 . S
O168 C160 1.252 . S
In169 O170 2.294 . S
In169 O171 2.326 . S
In169 O175 2.266 . S
In169 O176 2.326 . S
In169 O177 2.266 . S
In169 O178 2.326 . S
In169 O180 2.294 . S
In169 O181 2.326 . S
O170 In169 2.294 . S
O170 C179 1.240 . S
O171 In169 2.326 . S
O171 C179 1.252 . S
C172 O175 1.252 . S
C172 O176 1.260 . S
C173 O180 1.240 . S
C173 O181 1.252 . S
C174 O177 1.252 . S
C174 O178 1.260 . S
O175 In169 2.266 . S
O175 C172 1.252 . S
O176 In169 2.326 . S
O176 C172 1.260 . S
O177 In169 2.266 . S
O177 C174 1.252 . S
O178 In169 2.326 . S
O178 C174 1.260 . S
C179 O170 1.240 . S
C179 O171 1.252 . S
O180 In169 2.294 . S
O180 C173 1.240 . S
O181 In169 2.326 . S
O181 C173 1.252 . S
In182 O183 2.294 . S
In182 O184 2.326 . S
In182 O188 2.266 . S
In182 O189 2.326 . S
In182 O190 2.266 . S
In182 O191 2.326 . S
In182 O193 2.294 . S
In182 O194 2.326 . S
O183 In182 2.294 . S
O183 C192 1.240 . S
O184 In182 2.326 . S
O184 C192 1.252 . S
C185 O188 1.252 . S
C185 O189 1.260 . S
C186 O193 1.240 . S
C186 O194 1.252 . S
C187 O190 1.252 . S
C187 O191 1.260 . S
O188 In182 2.266 . S
O188 C185 1.252 . S
O189 In182 2.326 . S
O189 C185 1.260 . S
O190 In182 2.266 . S
O190 C187 1.252 . S
O191 In182 2.326 . S
O191 C187 1.260 . S
C192 O183 1.240 . S
C192 O184 1.252 . S
O193 In182 2.294 . S
O193 C186 1.240 . S
O194 In182 2.326 . S
O194 C186 1.252 . S
In195 O196 2.294 . S
In195 O197 2.326 . S
In195 O201 2.266 . S
In195 O202 2.326 . S
In195 O203 2.266 . S
In195 O204 2.326 . S
In195 O206 2.294 . S
In195 O207 2.326 . S
O196 In195 2.294 . S
O196 C205 1.240 . S
O197 In195 2.326 . S
O197 C205 1.252 . S
C198 O201 1.252 . S
C198 O202 1.260 . S
C199 O206 1.240 . S
C199 O207 1.252 . S
C200 O203 1.252 . S
C200 O204 1.260 . S
O201 In195 2.266 . S
O201 C198 1.252 . S
O202 In195 2.326 . S
O202 C198 1.260 . S
O203 In195 2.266 . S
O203 C200 1.252 . S
O204 In195 2.326 . S
O204 C200 1.260 . S
C205 O196 1.240 . S
C205 O197 1.252 . S
O206 In195 2.294 . S
O206 C199 1.240 . S
O207 In195 2.326 . S
O207 C199 1.252 . S
C208 C209 1.387 . S
C208 H212 0.950 . S
C208 C217 1.390 . S
C209 C208 1.387 . S
C209 C211 1.387 . S
H210 C217 0.950 . S
C211 C209 1.387 . S
C211 C213 1.390 . S
C211 H215 0.950 . S
H212 C208 0.950 . S
C213 C211 1.390 . S
C213 C214 1.387 . S
C213 H216 0.950 . S
C214 C213 1.387 . S
C214 C217 1.387 . S
H215 C211 0.950 . S
H216 C213 0.950 . S
C217 C208 1.390 . S
C217 H210 0.950 . S
C217 C214 1.387 . S
C218 C219 1.387 . S
C218 H222 0.950 . S
C218 C227 1.390 . S
C219 C218 1.387 . S
C219 C221 1.387 . S
H220 C227 0.950 . S
C221 C219 1.387 . S
C221 C223 1.390 . S
C221 H225 0.950 . S
H222 C218 0.950 . S
C223 C221 1.390 . S
C223 C224 1.387 . S
C223 H226 0.950 . S
C224 C223 1.387 . S
C224 C227 1.387 . S
H225 C221 0.950 . S
H226 C223 0.950 . S
C227 C218 1.390 . S
C227 H220 0.950 . S
C227 C224 1.387 . S
C228 C229 1.387 . S
C228 H232 0.950 . S
C228 C237 1.390 . S
C229 C228 1.387 . S
C229 C231 1.387 . S
H230 C237 0.950 . S
C231 C229 1.387 . S
C231 C233 1.390 . S
C231 H235 0.950 . S
H232 C228 0.950 . S
C233 C231 1.390 . S
C233 C234 1.387 . S
C233 H236 0.950 . S
C234 C233 1.387 . S
C234 C237 1.387 . S
H235 C231 0.950 . S
H236 C233 0.950 . S
C237 C228 1.390 . S
C237 H230 0.950 . S
C237 C234 1.387 . S
C238 C239 1.387 . S
C238 H242 0.950 . S
C238 C247 1.390 . S
C239 C238 1.387 . S
C239 C241 1.387 . S
H240 C247 0.950 . S
C241 C239 1.387 . S
C241 C243 1.390 . S
C241 H245 0.950 . S
H242 C238 0.950 . S
C243 C241 1.390 . S
C243 C244 1.387 . S
C243 H246 0.950 . S
C244 C243 1.387 . S
C244 C247 1.387 . S
H245 C241 0.950 . S
H246 C243 0.950 . S
C247 C238 1.390 . S
C247 H240 0.950 . S
C247 C244 1.387 . S
C248 C249 1.387 . S
C248 H252 0.950 . S
C248 C257 1.390 . S
C249 C248 1.387 . S
C249 C251 1.387 . S
H250 C257 0.950 . S
C251 C249 1.387 . S
C251 C253 1.390 . S
C251 H255 0.950 . S
H252 C248 0.950 . S
C253 C251 1.390 . S
C253 C254 1.387 . S
C253 H256 0.950 . S
C254 C253 1.387 . S
C254 C257 1.387 . S
H255 C251 0.950 . S
H256 C253 0.950 . S
C257 C248 1.390 . S
C257 H250 0.950 . S
C257 C254 1.387 . S
C258 C259 1.387 . S
C258 H262 0.950 . S
C258 C267 1.390 . S
C259 C258 1.387 . S
C259 C261 1.387 . S
H260 C267 0.950 . S
C261 C259 1.387 . S
C261 C263 1.390 . S
C261 H265 0.950 . S
H262 C258 0.950 . S
C263 C261 1.390 . S
C263 C264 1.387 . S
C263 H266 0.950 . S
C264 C263 1.387 . S
C264 C267 1.387 . S
H265 C261 0.950 . S
H266 C263 0.950 . S
C267 C258 1.390 . S
C267 H260 0.950 . S
C267 C264 1.387 . S
C268 C269 1.387 . S
C268 H272 0.950 . S
C268 C277 1.390 . S
C269 C268 1.387 . S
C269 C271 1.387 . S
H270 C277 0.950 . S
C271 C269 1.387 . S
C271 C273 1.390 . S
C271 H275 0.950 . S
H272 C268 0.950 . S
C273 C271 1.390 . S
C273 C274 1.387 . S
C273 H276 0.950 . S
C274 C273 1.387 . S
C274 C277 1.387 . S
H275 C271 0.950 . S
H276 C273 0.950 . S
C277 C268 1.390 . S
C277 H270 0.950 . S
C277 C274 1.387 . S
C278 C279 1.387 . S
C278 H282 0.950 . S
C278 C287 1.390 . S
C279 C278 1.387 . S
C279 C281 1.387 . S
H280 C287 0.950 . S
C281 C279 1.387 . S
C281 C283 1.390 . S
C281 H285 0.950 . S
H282 C278 0.950 . S
C283 C281 1.390 . S
C283 C284 1.387 . S
C283 H286 0.950 . S
C284 C283 1.387 . S
C284 C287 1.387 . S
H285 C281 0.950 . S
H286 C283 0.950 . S
C287 C278 1.390 . S
C287 H280 0.950 . S
C287 C284 1.387 . S
C288 C289 1.387 . S
C288 H292 0.950 . S
C288 C297 1.390 1_556 S
C289 C288 1.387 . S
C289 C291 1.387 . S
H290 C297 0.950 . S
C291 C289 1.387 . S
C291 C293 1.390 1_556 S
C291 H295 0.950 . S
H292 C288 0.950 . S
C293 C291 1.390 1_554 S
C293 C294 1.387 . S
C293 H296 0.950 . S
C294 C293 1.387 . S
C294 C297 1.387 . S
H295 C291 0.950 . S
H296 C293 0.950 . S
C297 C288 1.390 1_554 S
C297 H290 0.950 . S
C297 C294 1.387 . S
C298 C299 1.387 . S
C298 H302 0.950 . S
C298 C307 1.390 1_556 S
C299 C298 1.387 . S
C299 C301 1.387 . S
H300 C307 0.950 . S
C301 C299 1.387 . S
C301 C303 1.390 1_556 S
C301 H305 0.950 . S
H302 C298 0.950 . S
C303 C301 1.390 1_554 S
C303 C304 1.387 . S
C303 H306 0.950 . S
C304 C303 1.387 . S
C304 C307 1.387 . S
H305 C301 0.950 . S
H306 C303 0.950 . S
C307 C298 1.390 1_554 S
C307 H300 0.950 . S
C307 C304 1.387 . S
C308 C309 1.387 . S
C308 H312 0.950 . S
C308 C317 1.390 1_556 S
C309 C308 1.387 . S
C309 C311 1.387 . S
H310 C317 0.950 . S
C311 C309 1.387 . S
C311 C313 1.390 1_556 S
C311 H315 0.950 . S
H312 C308 0.950 . S
C313 C311 1.390 1_554 S
C313 C314 1.387 . S
C313 H316 0.950 . S
C314 C313 1.387 . S
C314 C317 1.387 . S
H315 C311 0.950 . S
H316 C313 0.950 . S
C317 C308 1.390 1_554 S
C317 H310 0.950 . S
C317 C314 1.387 . S
C318 C319 1.387 . S
C318 H322 0.950 . S
C318 C327 1.390 1_554 S
C319 C318 1.387 . S
C319 C321 1.387 . S
H320 C327 0.950 . S
C321 C319 1.387 . S
C321 C323 1.390 1_554 S
C321 H325 0.950 . S
H322 C318 0.950 . S
C323 C321 1.390 1_556 S
C323 C324 1.387 . S
C323 H326 0.950 . S
C324 C323 1.387 . S
C324 C327 1.387 . S
H325 C321 0.950 . S
H326 C323 0.950 . S
C327 C318 1.390 1_556 S
C327 H320 0.950 . S
C327 C324 1.387 . S
C328 C329 1.387 . S
C328 H332 0.950 . S
C328 C337 1.390 . S
C329 C328 1.387 . S
C329 C331 1.387 . S
H330 C337 0.950 . S
C331 C329 1.387 . S
C331 C333 1.390 . S
C331 H335 0.950 . S
H332 C328 0.950 . S
C333 C331 1.390 . S
C333 C334 1.387 . S
C333 H336 0.950 . S
C334 C333 1.387 . S
C334 C337 1.387 . S
H335 C331 0.950 . S
H336 C333 0.950 . S
C337 C328 1.390 . S
C337 H330 0.950 . S
C337 C334 1.387 . S
C338 C339 1.387 . S
C338 H342 0.950 . S
C338 C347 1.390 . S
C339 C338 1.387 . S
C339 C341 1.387 . S
H340 C347 0.950 . S
C341 C339 1.387 . S
C341 C343 1.390 . S
C341 H345 0.950 . S
H342 C338 0.950 . S
C343 C341 1.390 . S
C343 C344 1.387 . S
C343 H346 0.950 . S
C344 C343 1.387 . S
C344 C347 1.387 . S
H345 C341 0.950 . S
H346 C343 0.950 . S
C347 C338 1.390 . S
C347 H340 0.950 . S
C347 C344 1.387 . S
C348 C349 1.387 . S
C348 H352 0.950 . S
C348 C357 1.390 . S
C349 C348 1.387 . S
C349 C351 1.387 . S
H350 C357 0.950 . S
C351 C349 1.387 . S
C351 C353 1.390 . S
C351 H355 0.950 . S
H352 C348 0.950 . S
C353 C351 1.390 . S
C353 C354 1.387 . S
C353 H356 0.950 . S
C354 C353 1.387 . S
C354 C357 1.387 . S
H355 C351 0.950 . S
H356 C353 0.950 . S
C357 C348 1.390 . S
C357 H350 0.950 . S
C357 C354 1.387 . S
C358 C359 1.387 . S
C358 H362 0.950 . S
C358 C367 1.390 . S
C359 C358 1.387 . S
C359 C361 1.387 . S
H360 C367 0.950 . S
C361 C359 1.387 . S
C361 C363 1.390 . S
C361 H365 0.950 . S
H362 C358 0.950 . S
C363 C361 1.390 . S
C363 C364 1.387 . S
C363 H366 0.950 . S
C364 C363 1.387 . S
C364 C367 1.387 . S
H365 C361 0.950 . S
H366 C363 0.950 . S
C367 C358 1.390 . S
C367 H360 0.950 . S
C367 C364 1.387 . S
C368 C369 1.387 . S
C368 H372 0.950 . S
C368 C377 1.390 . S
C369 C368 1.387 . S
C369 C371 1.387 . S
H370 C377 0.950 . S
C371 C369 1.387 . S
C371 C373 1.390 . S
C371 H375 0.950 . S
H372 C368 0.950 . S
C373 C371 1.390 . S
C373 C374 1.387 . S
C373 H376 0.950 . S
C374 C373 1.387 . S
C374 C377 1.387 . S
H375 C371 0.950 . S
H376 C373 0.950 . S
C377 C368 1.390 . S
C377 H370 0.950 . S
C377 C374 1.387 . S
C378 C379 1.387 . S
C378 H382 0.950 . S
C378 C387 1.390 . S
C379 C378 1.387 . S
C379 C381 1.387 . S
H380 C387 0.950 . S
C381 C379 1.387 . S
C381 C383 1.390 . S
C381 H385 0.950 . S
H382 C378 0.950 . S
C383 C381 1.390 . S
C383 C384 1.387 . S
C383 H386 0.950 . S
C384 C383 1.387 . S
C384 C387 1.387 . S
H385 C381 0.950 . S
H386 C383 0.950 . S
C387 C378 1.390 . S
C387 H380 0.950 . S
C387 C384 1.387 . S
C388 C389 1.387 . S
C388 H392 0.950 . S
C388 C397 1.390 . S
C389 C388 1.387 . S
C389 C391 1.387 . S
H390 C397 0.950 . S
C391 C389 1.387 . S
C391 C393 1.390 . S
C391 H395 0.950 . S
H392 C388 0.950 . S
C393 C391 1.390 . S
C393 C394 1.387 . S
C393 H396 0.950 . S
C394 C393 1.387 . S
C394 C397 1.387 . S
H395 C391 0.950 . S
H396 C393 0.950 . S
C397 C388 1.390 . S
C397 H390 0.950 . S
C397 C394 1.387 . S
C398 C399 1.387 . S
C398 H402 0.950 . S
C398 C407 1.390 . S
C399 C398 1.387 . S
C399 C401 1.387 . S
H400 C407 0.950 . S
C401 C399 1.387 . S
C401 C403 1.390 . S
C401 H405 0.950 . S
H402 C398 0.950 . S
C403 C401 1.390 . S
C403 C404 1.387 . S
C403 H406 0.950 . S
C404 C403 1.387 . S
C404 C407 1.387 . S
H405 C401 0.950 . S
H406 C403 0.950 . S
C407 C398 1.390 . S
C407 H400 0.950 . S
C407 C404 1.387 . S
C408 C409 1.387 . S
C408 H412 0.950 . S
C408 C417 1.390 . S
C409 C408 1.387 . S
C409 C411 1.387 . S
H410 C417 0.950 . S
C411 C409 1.387 . S
C411 C413 1.390 . S
C411 H415 0.950 . S
H412 C408 0.950 . S
C413 C411 1.390 . S
C413 C414 1.387 . S
C413 H416 0.950 . S
C414 C413 1.387 . S
C414 C417 1.387 . S
H415 C411 0.950 . S
H416 C413 0.950 . S
C417 C408 1.390 . S
C417 H410 0.950 . S
C417 C414 1.387 . S
C418 C419 1.387 . S
C418 H422 0.950 . S
C418 C427 1.390 . S
C419 C418 1.387 . S
C419 C421 1.387 . S
H420 C427 0.950 . S
C421 C419 1.387 . S
C421 C423 1.390 . S
C421 H425 0.950 . S
H422 C418 0.950 . S
C423 C421 1.390 . S
C423 C424 1.387 . S
C423 H426 0.950 . S
C424 C423 1.387 . S
C424 C427 1.387 . S
H425 C421 0.950 . S
H426 C423 0.950 . S
C427 C418 1.390 . S
C427 H420 0.950 . S
C427 C424 1.387 . S
C428 C429 1.387 . S
C428 H432 0.950 . S
C428 C437 1.390 . S
C429 C428 1.387 . S
C429 C431 1.387 . S
H430 C437 0.950 . S
C431 C429 1.387 . S
C431 C433 1.390 . S
C431 H435 0.950 . S
H432 C428 0.950 . S
C433 C431 1.390 . S
C433 C434 1.387 . S
C433 H436 0.950 . S
C434 C433 1.387 . S
C434 C437 1.387 . S
H435 C431 0.950 . S
H436 C433 0.950 . S
C437 C428 1.390 . S
C437 H430 0.950 . S
C437 C434 1.387 . S
C438 C439 1.387 . S
C438 H442 0.950 . S
C438 C447 1.390 . S
C439 C438 1.387 . S
C439 C441 1.387 . S
H440 C447 0.950 . S
C441 C439 1.387 . S
C441 C443 1.390 . S
C441 H445 0.950 . S
H442 C438 0.950 . S
C443 C441 1.390 . S
C443 C444 1.387 . S
C443 H446 0.950 . S
C444 C443 1.387 . S
C444 C447 1.387 . S
H445 C441 0.950 . S
H446 C443 0.950 . S
C447 C438 1.390 . S
C447 H440 0.950 . S
C447 C444 1.387 . S
C448 C449 1.387 . S
C448 H452 0.950 . S
C448 C457 1.390 1_545 S
C449 C448 1.387 . S
C449 C451 1.387 . S
H450 C457 0.950 . S
C451 C449 1.387 . S
C451 C453 1.390 1_545 S
C451 H455 0.950 . S
H452 C448 0.950 . S
C453 C451 1.390 1_565 S
C453 C454 1.387 . S
C453 H456 0.950 . S
C454 C453 1.387 . S
C454 C457 1.387 . S
H455 C451 0.950 . S
H456 C453 0.950 . S
C457 C448 1.390 1_565 S
C457 H450 0.950 . S
C457 C454 1.387 . S
C458 C459 1.387 . S
C458 H462 0.950 . S
C458 C467 1.390 1_655 S
C459 C458 1.387 . S
C459 C461 1.387 . S
H460 C467 0.950 . S
C461 C459 1.387 . S
C461 C463 1.390 1_655 S
C461 H465 0.950 . S
H462 C458 0.950 . S
C463 C461 1.390 1_455 S
C463 C464 1.387 . S
C463 H466 0.950 . S
C464 C463 1.387 . S
C464 C467 1.387 . S
H465 C461 0.950 . S
H466 C463 0.950 . S
C467 C458 1.390 1_455 S
C467 H460 0.950 . S
C467 C464 1.387 . S
C468 C469 1.387 . S
C468 H472 0.950 . S
C468 C477 1.390 1_545 S
C469 C468 1.387 . S
C469 C471 1.387 . S
H470 C477 0.950 . S
C471 C469 1.387 . S
C471 C473 1.390 1_545 S
C471 H475 0.950 . S
H472 C468 0.950 . S
C473 C471 1.390 1_565 S
C473 C474 1.387 . S
C473 H476 0.950 . S
C474 C473 1.387 . S
C474 C477 1.387 . S
H475 C471 0.950 . S
H476 C473 0.950 . S
C477 C468 1.390 1_565 S
C477 H470 0.950 . S
C477 C474 1.387 . S
C478 C479 1.387 . S
C478 H482 0.950 . S
C478 C487 1.390 1_455 S
C479 C478 1.387 . S
C479 C481 1.387 . S
H480 C487 0.950 . S
C481 C479 1.387 . S
C481 C483 1.390 1_455 S
C481 H485 0.950 . S
H482 C478 0.950 . S
C483 C481 1.390 1_655 S
C483 C484 1.387 . S
C483 H486 0.950 . S
C484 C483 1.387 . S
C484 C487 1.387 . S
H485 C481 0.950 . S
H486 C483 0.950 . S
C487 C478 1.390 1_655 S
C487 H480 0.950 . S
C487 C484 1.387 . S
C488 C489 1.387 . S
C488 H492 0.950 . S
C488 C497 1.390 1_545 S
C489 C488 1.387 . S
C489 C491 1.387 . S
H490 C497 0.950 . S
C491 C489 1.387 . S
C491 C493 1.390 1_545 S
C491 H495 0.950 . S
H492 C488 0.950 . S
C493 C491 1.390 1_565 S
C493 C494 1.387 . S
C493 H496 0.950 . S
C494 C493 1.387 . S
C494 C497 1.387 . S
H495 C491 0.950 . S
H496 C493 0.950 . S
C497 C488 1.390 1_565 S
C497 H490 0.950 . S
C497 C494 1.387 . S
C498 C499 1.387 . S
C498 H502 0.950 . S
C498 C507 1.390 1_655 S
C499 C498 1.387 . S
C499 C501 1.387 . S
H500 C507 0.950 . S
C501 C499 1.387 . S
C501 C503 1.390 1_655 S
C501 H505 0.950 . S
H502 C498 0.950 . S
C503 C501 1.390 1_455 S
C503 C504 1.387 . S
C503 H506 0.950 . S
C504 C503 1.387 . S
C504 C507 1.387 . S
H505 C501 0.950 . S
H506 C503 0.950 . S
C507 C498 1.390 1_455 S
C507 H500 0.950 . S
C507 C504 1.387 . S
C508 C509 1.387 . S
C508 H512 0.950 . S
C508 C517 1.390 1_565 S
C509 C508 1.387 . S
C509 C511 1.387 . S
H510 C517 0.950 . S
C511 C509 1.387 . S
C511 C513 1.390 1_565 S
C511 H515 0.950 . S
H512 C508 0.950 . S
C513 C511 1.390 1_545 S
C513 C514 1.387 . S
C513 H516 0.950 . S
C514 C513 1.387 . S
C514 C517 1.387 . S
H515 C511 0.950 . S
H516 C513 0.950 . S
C517 C508 1.390 1_545 S
C517 H510 0.950 . S
C517 C514 1.387 . S
C518 C519 1.387 . S
C518 H522 0.950 . S
C518 C527 1.390 1_455 S
C519 C518 1.387 . S
C519 C521 1.387 . S
H520 C527 0.950 . S
C521 C519 1.387 . S
C521 C523 1.390 1_455 S
C521 H525 0.950 . S
H522 C518 0.950 . S
C523 C521 1.390 1_655 S
C523 C524 1.387 . S
C523 H526 0.950 . S
C524 C523 1.387 . S
C524 C527 1.387 . S
H525 C521 0.950 . S
H526 C523 0.950 . S
C527 C518 1.390 1_655 S
C527 H520 0.950 . S
C527 C524 1.387 . S
C209 C69 1.604 . S
C214 C10 1.604 . S
C219 C82 1.605 . S
C224 C17 1.606 . S
C229 C30 1.604 . S
C234 C95 1.605 . S
C239 C43 1.604 . S
C244 C56 1.605 . S
C249 C179 1.604 . S
C254 C108 1.604 . S
C259 C186 1.605 . S
C264 C127 1.604 . S
C269 C134 1.604 . S
C274 C199 1.605 . S
C279 C153 1.605 . S
C284 C160 1.605 . S
C289 C140 1.627 . S
C294 C4 1.627 . S
C299 C147 1.627 . S
C304 C23 1.627 . S
C309 C114 1.627 . S
C314 C36 1.627 . S
C319 C49 1.626 . S
C324 C121 1.627 . S
C329 C192 1.627 . S
C334 C62 1.627 . S
C339 C205 1.627 . S
C344 C75 1.626 . S
C349 C88 1.626 . S
C354 C166 1.626 . S
C359 C173 1.627 . S
C364 C101 1.626 . S
C369 C57 1.809 . S
C374 C3 1.809 . S
C379 C18 1.809 . S
C384 C70 1.809 . S
C389 C31 1.810 . S
C394 C83 1.810 . S
C399 C96 1.810 . S
C404 C44 1.810 . S
C409 C107 1.286 . S
C414 C159 1.286 . S
C419 C174 1.286 . S
C424 C122 1.286 . S
C429 C133 1.283 . S
C434 C185 1.283 . S
C439 C198 1.283 . S
C444 C148 1.283 . S
C449 C146 1.809 . S
C454 C172 1.809 . S
C459 C109 1.809 . S
C464 C187 1.809 . S
C469 C200 1.810 . S
C474 C120 1.810 . S
C479 C135 1.809 . S
C484 C161 1.809 . S
C489 C68 1.283 . S
C494 C42 1.283 . S
C499 C81 1.286 . S
C504 C5 1.286 . S
C509 C94 1.283 . S
C514 C16 1.283 . S
C519 C55 1.283 . S
C524 C29 1.283 . S
