# Generated by pormake.
# Topology sne, (6)-cn, num edge types: 1
# Building blocks:
#     Node 0, Type 0, BuildingBlock: OJICUG_clean_sbu_0, # of connection points: 6
#     Node 1, Type 0, BuildingBlock: OJICUG_clean_sbu_0, # of connection points: 6
#     Node 2, Type 0, BuildingBlock: OJICUG_clean_sbu_0, # of connection points: 6
#     Node 3, Type 0, BuildingBlock: OJICUG_clean_sbu_0, # of connection points: 6
#     Node 4, Type 0, BuildingBlock: OJICUG_clean_sbu_0, # of connection points: 6
#     Node 5, Type 0, BuildingBlock: OJICUG_clean_sbu_0, # of connection points: 6
#     Node 6, Type 0, BuildingBlock: OJICUG_clean_sbu_0, # of connection points: 6
#     Node 7, Type 0, BuildingBlock: OJICUG_clean_sbu_0, # of connection points: 6
#     Edge 8, Type (0, 0), BuildingBlock: CIFDUS_clean_linker_0, # of connection points: 2
#     Edge 9, Type (0, 0), BuildingBlock: CIFDUS_clean_linker_0, # of connection points: 2
#     Edge 10, Type (0, 0), BuildingBlock: CIFDUS_clean_linker_0, # of connection points: 2
#     Edge 11, Type (0, 0), BuildingBlock: CIFDUS_clean_linker_0, # of connection points: 2
#     Edge 12, Type (0, 0), BuildingBlock: CIFDUS_clean_linker_0, # of connection points: 2
#     Edge 13, Type (0, 0), BuildingBlock: CIFDUS_clean_linker_0, # of connection points: 2
#     Edge 14, Type (0, 0), BuildingBlock: CIFDUS_clean_linker_0, # of connection points: 2
#     Edge 15, Type (0, 0), BuildingBlock: CIFDUS_clean_linker_0, # of connection points: 2
#     Edge 16, Type (0, 0), BuildingBlock: CIFDUS_clean_linker_0, # of connection points: 2
#     Edge 17, Type (0, 0), BuildingBlock: CIFDUS_clean_linker_0, # of connection points: 2
#     Edge 18, Type (0, 0), BuildingBlock: CIFDUS_clean_linker_0, # of connection points: 2
#     Edge 19, Type (0, 0), BuildingBlock: CIFDUS_clean_linker_0, # of connection points: 2
#     Edge 20, Type (0, 0), BuildingBlock: CIFDUS_clean_linker_0, # of connection points: 2
#     Edge 21, Type (0, 0), BuildingBlock: CIFDUS_clean_linker_0, # of connection points: 2
#     Edge 22, Type (0, 0), BuildingBlock: CIFDUS_clean_linker_0, # of connection points: 2
#     Edge 23, Type (0, 0), BuildingBlock: CIFDUS_clean_linker_0, # of connection points: 2
#     Edge 24, Type (0, 0), BuildingBlock: CIFDUS_clean_linker_0, # of connection points: 2
#     Edge 25, Type (0, 0), BuildingBlock: CIFDUS_clean_linker_0, # of connection points: 2
#     Edge 26, Type (0, 0), BuildingBlock: CIFDUS_clean_linker_0, # of connection points: 2
#     Edge 27, Type (0, 0), BuildingBlock: CIFDUS_clean_linker_0, # of connection points: 2
#     Edge 28, Type (0, 0), BuildingBlock: CIFDUS_clean_linker_0, # of connection points: 2
#     Edge 29, Type (0, 0), BuildingBlock: CIFDUS_clean_linker_0, # of connection points: 2
#     Edge 30, Type (0, 0), BuildingBlock: CIFDUS_clean_linker_0, # of connection points: 2
#     Edge 31, Type (0, 0), BuildingBlock: CIFDUS_clean_linker_0, # of connection points: 2
# Relax obj value: 0.189
# Max RMSD: 0.224
# Mean RMSD: 0.224
data_MOF--net-sne--node1-OJICUG_clean_sbu_0--edge1-CIFDUS_clean_linker_0
_symmetry_space_group_name_H-M    P1
_symmetry_Int_Tables_number       1
_symmetry_cell_setting            triclinic
loop_
_symmetry_equiv_pos_as_xyz
'x, y, z'
_cell_length_a     31.172577
_cell_length_b     31.32104
_cell_length_c     25.434289
_cell_angle_alpha  89.998013
_cell_angle_beta   90.297386
_cell_angle_gamma 89.914236
loop_
_atom_site_label
_atom_site_type_symbol
_atom_site_fract_x
_atom_site_fract_y
_atom_site_fract_z
_atom_type_partial_charge
Sc0 Sc 0.27728 0.11291 0.37037 0.0
Sc1 Sc 0.17537 0.11679 0.31271 0.0
Sc2 Sc 0.2268 0.2117 0.35214 0.0
O3 O 0.22648 0.1471 0.34494 0.0
C4 C 0.27299 0.18272 0.45864 0.0
C5 C 0.19973 0.05299 0.40373 0.0
C6 C 0.13267 0.18786 0.3844 0.0
C7 C 0.25327 0.0623 0.26752 0.0
C8 C 0.32145 0.19414 0.31826 0.0
C9 C 0.18139 0.19862 0.24087 0.0
O10 O 0.27776 0.14385 0.44572 0.0
O11 O 0.17082 0.07163 0.37667 0.0
O12 O 0.16613 0.21035 0.39124 0.0
O13 O 0.28178 0.07791 0.29781 0.0
O14 O 0.28814 0.21744 0.31422 0.0
O15 O 0.17575 0.15859 0.24546 0.0
O16 O 0.32146 0.15791 0.34038 0.0
O17 O 0.21392 0.07244 0.26996 0.0
O18 O 0.1961 0.22182 0.27762 0.0
O19 O 0.23882 0.06388 0.40295 0.0
O20 O 0.25776 0.21071 0.42764 0.0
O21 O 0.13078 0.15623 0.35337 0.0
Sc22 Sc 0.10857 0.79287 0.62855 0.0
Sc23 Sc 0.11829 0.68951 0.5773 0.0
Sc24 Sc 0.21016 0.74766 0.61153 0.0
O25 O 0.14553 0.74333 0.60579 0.0
C26 C 0.18522 0.83833 0.56841 0.0
C27 C 0.05847 0.76172 0.52798 0.0
C28 C 0.19859 0.69691 0.50362 0.0
C29 C 0.05403 0.71306 0.66816 0.0
C30 C 0.1803 0.79604 0.71535 0.0
C31 C 0.19378 0.65422 0.65033 0.0
O32 O 0.15018 0.83866 0.59358 0.0
O33 O 0.0705 0.72324 0.53325 0.0
O34 O 0.22139 0.71362 0.5396 0.0
O35 O 0.06201 0.75267 0.66468 0.0
O36 O 0.20862 0.78226 0.68398 0.0
O37 O 0.16235 0.64933 0.61894 0.0
O38 O 0.14076 0.79789 0.7033 0.0
O39 O 0.07466 0.68472 0.64277 0.0
O40 O 0.21314 0.68956 0.65676 0.0
O41 O 0.07257 0.79208 0.55633 0.0
O42 O 0.21034 0.80626 0.56719 0.0
O43 O 0.15866 0.68998 0.5088 0.0
Sc44 Sc 0.73693 0.76575 0.35698 0.0
Sc45 Sc 0.78778 0.86389 0.33228 0.0
Sc46 Sc 0.68641 0.86288 0.38922 0.0
O47 O 0.73699 0.83065 0.35951 0.0
C48 C 0.64015 0.78732 0.32806 0.0
C49 C 0.77627 0.79299 0.24581 0.0
C50 C 0.71034 0.92382 0.29695 0.0
C51 C 0.83413 0.78372 0.38433 0.0
C52 C 0.69585 0.78592 0.46904 0.0
C53 C 0.76599 0.91597 0.43361 0.0
O54 O 0.6729 0.76327 0.32411 0.0
O55 O 0.78458 0.83134 0.25847 0.0
O56 O 0.68141 0.90484 0.32285 0.0
O57 O 0.80088 0.76072 0.38966 0.0
O58 O 0.6866 0.82446 0.45846 0.0
O59 O 0.79432 0.89923 0.4043 0.0
O60 O 0.7123 0.76034 0.43584 0.0
O61 O 0.83344 0.81962 0.3616 0.0
O62 O 0.72632 0.90751 0.42961 0.0
O63 O 0.76173 0.76539 0.27792 0.0
O64 O 0.64072 0.82267 0.35215 0.0
O65 O 0.7496 0.91363 0.29954 0.0
Sc66 Sc 0.87414 0.16658 0.6678 0.0
Sc67 Sc 0.87476 0.2694 0.61337 0.0
Sc68 Sc 0.77624 0.21951 0.63896 0.0
O69 O 0.84167 0.21846 0.64009 0.0
C70 C 0.79596 0.12337 0.60761 0.0
C71 C 0.92993 0.19209 0.56954 0.0
C72 C 0.7986 0.26313 0.5295 0.0
C73 C 0.93364 0.24167 0.70966 0.0
C74 C 0.79879 0.17758 0.75017 0.0
C75 C 0.79789 0.31504 0.67184 0.0
O76 O 0.83255 0.12282 0.62936 0.0
O77 O 0.91782 0.23061 0.57128 0.0
O78 O 0.77287 0.24376 0.55987 0.0
O79 O 0.92086 0.20331 0.70921 0.0
O80 O 0.77343 0.19575 0.71784 0.0
O81 O 0.83532 0.31382 0.65294 0.0
O82 O 0.83659 0.16581 0.7384 0.0
O83 O 0.91826 0.27024 0.67941 0.0
O84 O 0.77243 0.28339 0.67062 0.0
O85 O 0.91569 0.16328 0.60004 0.0
O86 O 0.77189 0.15612 0.60682 0.0
O87 O 0.83633 0.2738 0.5432 0.0
Sc88 Sc 0.26046 0.27559 0.84269 0.0
Sc89 Sc 0.30669 0.37447 0.81405 0.0
Sc90 Sc 0.21336 0.37037 0.8856 0.0
O91 O 0.26025 0.3395 0.84746 0.0
C92 C 0.16395 0.30474 0.81558 0.0
C93 C 0.29965 0.29771 0.73239 0.0
C94 C 0.23048 0.43067 0.78709 0.0
C95 C 0.35717 0.30204 0.87329 0.0
C96 C 0.21871 0.28461 0.95349 0.0
C97 C 0.28812 0.42396 0.92195 0.0
O98 O 0.19272 0.27562 0.81946 0.0
O99 O 0.31561 0.33309 0.74687 0.0
O100 O 0.21582 0.42552 0.8333 0.0
O101 O 0.32785 0.2739 0.8664 0.0
O102 O 0.20278 0.32114 0.94386 0.0
O103 O 0.30362 0.42297 0.87565 0.0
O104 O 0.24451 0.26625 0.92275 0.0
O105 O 0.35356 0.34069 0.85853 0.0
O106 O 0.2592 0.39848 0.93703 0.0
O107 O 0.27623 0.27524 0.76181 0.0
O108 O 0.16766 0.3421 0.83451 0.0
O109 O 0.26041 0.40801 0.76855 0.0
Sc110 Sc 0.35916 0.6894 0.13665 0.0
Sc111 Sc 0.36572 0.79102 0.07965 0.0
Sc112 Sc 0.26552 0.74236 0.09638 0.0
O113 O 0.33021 0.74105 0.10436 0.0
C114 C 0.28715 0.64782 0.06429 0.0
C115 C 0.42342 0.71167 0.04507 0.0
C116 C 0.2951 0.78887 -0.0089 0.0
C117 C 0.41625 0.76518 0.18226 0.0
C118 C 0.27745 0.69689 0.20804 0.0
C119 C 0.28509 0.83637 0.13306 0.0
O120 O 0.31782 0.64557 0.0971 0.0
O121 O 0.41397 0.75109 0.04604 0.0
O122 O 0.2671 0.77356 0.02173 0.0
O123 O 0.4049 0.72641 0.17934 0.0
O124 O 0.25457 0.71151 0.17068 0.0
O125 O 0.32163 0.83618 0.11126 0.0
O126 O 0.31767 0.69098 0.204 0.0
O127 O 0.4015 0.7941 0.15211 0.0
O128 O 0.26104 0.80354 0.13537 0.0
O129 O 0.40382 0.68374 0.07226 0.0
O130 O 0.26635 0.68204 0.05515 0.0
O131 O 0.33421 0.79325 0.00422 0.0
Sc132 Sc 0.79273 0.60633 0.88545 0.0
Sc133 Sc 0.68823 0.60282 0.83487 0.0
Sc134 Sc 0.73842 0.70196 0.85637 0.0
O135 O 0.73981 0.63714 0.85885 0.0
C136 C 0.78479 0.68289 0.96602 0.0
C137 C 0.71701 0.55139 0.93471 0.0
C138 C 0.64327 0.68145 0.89172 0.0
C139 C 0.76549 0.54525 0.79388 0.0
C140 C 0.83409 0.68254 0.82077 0.0
C141 C 0.69402 0.67431 0.74792 0.0
O142 O 0.79513 0.64476 0.95483 0.0
O143 O 0.68695 0.56687 0.90664 0.0
O144 O 0.67613 0.70542 0.89292 0.0
O145 O 0.79493 0.56453 0.81896 0.0
O146 O 0.8007 0.70592 0.81954 0.0
O147 O 0.68611 0.636 0.76113 0.0
O148 O 0.83569 0.64725 0.84495 0.0
O149 O 0.72606 0.55437 0.79836 0.0
O150 O 0.71029 0.70177 0.77905 0.0
O151 O 0.75619 0.56094 0.92867 0.0
O152 O 0.76619 0.70786 0.93367 0.0
O153 O 0.64299 0.64538 0.86927 0.0
Sc154 Sc 0.61383 0.30158 0.16464 0.0
Sc155 Sc 0.61139 0.20024 0.10805 0.0
Sc156 Sc 0.71065 0.24749 0.13765 0.0
O157 O 0.64544 0.24982 0.13665 0.0
C158 C 0.69408 0.34402 0.10873 0.0
C159 C 0.55827 0.28012 0.06459 0.0
C160 C 0.68703 0.2061 0.02642 0.0
C161 C 0.55352 0.22622 0.20257 0.0
C162 C 0.68711 0.28771 0.24962 0.0
C163 C 0.68728 0.15248 0.16743 0.0
O164 O 0.65864 0.34532 0.13271 0.0
O165 O 0.56667 0.24065 0.06871 0.0
O166 O 0.71388 0.22171 0.05902 0.0
O167 O 0.56384 0.26521 0.19955 0.0
O168 O 0.71358 0.27246 0.21655 0.0
O169 O 0.65147 0.15392 0.1439 0.0
O170 O 0.64869 0.29781 0.23777 0.0
O171 O 0.57138 0.19707 0.17589 0.0
O172 O 0.71227 0.18436 0.17109 0.0
O173 O 0.57583 0.30835 0.09359 0.0
O174 O 0.71621 0.31019 0.10404 0.0
O175 O 0.64813 0.19877 0.03764 0.0
H176 H 0.2012 -0.00179 0.23726 0.0
H177 H 0.33152 0.04366 0.22533 0.0
H178 H 0.35215 0.97752 0.18087 0.0
H179 H 0.3341 0.90593 0.15119 0.0
H180 H 0.20474 0.85844 0.16763 0.0
H181 H 0.18274 0.92678 0.20564 0.0
C182 C 0.23396 -0.00595 0.22399 0.0
C183 C 0.26482 0.02583 0.23408 0.0
C184 C 0.2458 0.95554 0.20034 0.0
C185 C 0.30728 0.01965 0.21773 0.0
C186 C 0.31906 0.98184 0.19266 0.0
C187 C 0.30094 0.91041 0.16273 0.0
C188 C 0.27104 0.87708 0.15658 0.0
C189 C 0.28874 0.94936 0.18477 0.0
C190 C 0.2284 0.88348 0.17223 0.0
C191 C 0.2158 0.92255 0.19368 0.0
H192 H 0.98847 0.76381 0.69808 0.0
H193 H 0.03507 0.63408 0.70813 0.0
H194 H 0.97087 0.6137 0.75704 0.0
H195 H 0.90158 0.63257 0.79488 0.0
H196 H 0.85378 0.76174 0.78193 0.0
H197 H 0.91897 0.78258 0.73543 0.0
C198 C 0.98492 0.73111 0.7114 0.0
C199 C 0.01667 0.7005 0.69991 0.0
C200 C 0.94778 0.71957 0.73846 0.0
C201 C 0.01113 0.65818 0.71661 0.0
C202 C 0.97447 0.64656 0.74446 0.0
C203 C 0.90539 0.66541 0.78221 0.0
C204 C 0.87295 0.69569 0.79214 0.0
C205 C 0.94258 0.67698 0.75528 0.0
C206 C 0.87822 0.73787 0.77473 0.0
C207 C 0.91549 0.74978 0.74832 0.0
H208 H 0.76419 0.9872 0.27053 0.0
H209 H 0.63167 0.94782 0.25905 0.0
H210 H 0.61335 0.01574 0.21702 0.0
H211 H 0.63465 0.08633 0.1872 0.0
H212 H 0.76665 0.12694 0.20194 0.0
H213 H 0.78559 0.05775 0.24019 0.0
C214 C 0.73135 -0.00686 0.25819 0.0
C215 C 0.69928 0.96255 0.26745 0.0
C216 C 0.721 0.03234 0.23548 0.0
C217 C 0.65682 0.97097 0.25216 0.0
C218 C 0.64637 0.00972 0.22836 0.0
C219 C 0.66769 0.0801 0.19847 0.0
C220 C 0.69932 0.11159 0.19161 0.0
C221 C 0.67817 0.04069 0.22047 0.0
C222 C 0.74177 0.1032 0.20704 0.0
C223 C 0.7526 0.06369 0.22862 0.0
H224 H 0.10817 0.24073 0.835 0.0
H225 H 0.12916 0.35129 0.73767 0.0
H226 H 0.05741 0.34414 0.69958 0.0
H227 H 0.98913 0.30664 0.69415 0.0
H228 H 0.96682 0.19649 0.79231 0.0
H229 H 0.03818 0.20405 0.8312 0.0
C230 C 0.09706 0.2626 0.80475 0.0
C231 C 0.12366 0.29591 0.78817 0.0
C232 C 0.05534 0.25907 0.78428 0.0
C233 C 0.109 0.32505 0.75019 0.0
C234 C 0.068 0.32124 0.72887 0.0
C235 C -0.00053 0.28477 0.72479 0.0
C236 C 0.97271 0.25114 0.74035 0.0
C237 C 0.04077 0.28865 0.74602 0.0
C238 C 0.98687 0.22274 0.77967 0.0
C239 C 0.02779 0.22677 0.8016 0.0
H240 H 0.29911 0.56627 0.09397 0.0
H241 H 0.26027 0.64413 0.96204 0.0
H242 H 0.26204 0.58138 0.90461 0.0
H243 H 0.27735 0.50499 0.8919 0.0
H244 H 0.31049 0.4265 0.02508 0.0
H245 H 0.31023 0.48952 0.08231 0.0
C246 C 0.29054 0.56938 0.05273 0.0
C247 C 0.27964 0.60959 0.03207 0.0
C248 C 0.29198 0.53348 0.0202 0.0
C249 C 0.26825 0.61332 0.97882 0.0
C250 C 0.26989 0.57765 0.94591 0.0
C251 C 0.28511 0.50203 0.9333 0.0
C252 C 0.29495 0.46182 0.95441 0.0
C253 C 0.28249 0.5378 0.96607 0.0
C254 C 0.30377 0.45759 0.00823 0.0
C255 C 0.30308 0.49338 0.04083 0.0
H256 H 0.57732 0.63067 0.92065 0.0
H257 H 0.62072 0.76159 0.92485 0.0
H258 H 0.5552 0.78237 0.97078 0.0
H259 H 0.48689 0.76306 0.01077 0.0
H260 H 0.44481 0.63171 0.00992 0.0
H261 H 0.50904 0.61131 0.96094 0.0
C262 C 0.57242 0.66387 0.93122 0.0
C263 C 0.60377 0.69465 0.91908 0.0
C264 C 0.5351 0.67541 0.95806 0.0
C265 C 0.59712 0.73733 0.9338 0.0
C266 C 0.55968 0.7492 0.95993 0.0
C267 C 0.49144 0.72997 -0.00053 0.0
C268 C 0.46096 0.69893 0.01362 0.0
C269 C 0.5286 0.71846 0.97232 0.0
C270 C 0.46778 0.65616 -0.00056 0.0
C271 C 0.50445 0.64452 0.9715 0.0
H272 H 0.64396 0.41136 0.0847 0.0
H273 H 0.7736 0.3638 0.0704 0.0
H274 H 0.79281 0.42668 0.01854 0.0
H275 H 0.77119 0.49181 0.97282 0.0
H276 H 0.6402 0.53631 0.9823 0.0
H277 H 0.62296 0.47732 0.04144 0.0
C278 C 0.67665 0.41488 0.07093 0.0
C279 C 0.70741 0.38304 0.08132 0.0
C280 C 0.68701 0.45021 0.04026 0.0
C281 C 0.74939 0.38788 0.06267 0.0
C282 C 0.76033 0.42372 0.0331 0.0
C283 C 0.73898 0.48898 -0.01162 0.0
C284 C 0.70692 0.51823 0.97338 0.0
C285 C 0.72915 0.45461 0.02101 0.0
C286 C 0.66525 0.51395 -0.00679 0.0
C287 C 0.65545 0.48035 0.02694 0.0
H288 H 0.50845 0.22648 0.00779 0.0
H289 H 0.53248 0.36064 0.03471 0.0
H290 H 0.47372 0.37891 0.97451 0.0
H291 H 0.4137 0.3565 0.91869 0.0
H292 H 0.38802 0.22217 0.89578 0.0
H293 H 0.4501 0.20419 0.95052 0.0
C294 C 0.50126 0.25986 0.0004 0.0
C295 C 0.52484 0.29222 0.02596 0.0
C296 C 0.46722 0.26998 0.96676 0.0
C297 C 0.51478 0.33515 0.01577 0.0
C298 C 0.48122 0.34555 0.98141 0.0
C299 C 0.42187 0.3232 0.92507 0.0
C300 C 0.39625 0.29063 0.90311 0.0
C301 C 0.45695 0.31318 0.9573 0.0
C302 C 0.40711 0.24777 0.91232 0.0
C303 C 0.44254 0.23753 0.94359 0.0
H304 H 0.71394 0.47859 0.77143 0.0
H305 H 0.84283 0.5259 0.75032 0.0
H306 H 0.86363 0.4583 0.70984 0.0
H307 H 0.84621 0.38561 0.68533 0.0
H308 H 0.71816 0.33661 0.70907 0.0
H309 H 0.69599 0.40569 0.74472 0.0
C310 C 0.74641 0.47439 0.75716 0.0
C311 C 0.77687 0.50709 0.76357 0.0
C312 C 0.75835 0.43523 0.73541 0.0
C313 C 0.81894 0.50107 0.74573 0.0
C314 C 0.83083 0.46247 0.72286 0.0
C315 C 0.81332 0.38981 0.69812 0.0
C316 C 0.78386 0.35592 0.69466 0.0
C317 C 0.80097 0.42922 0.71844 0.0
C318 C 0.7415 0.36211 0.71159 0.0
C319 C 0.72879 0.40159 0.73171 0.0
H320 H 0.48603 0.27751 0.22072 0.0
H321 H 0.53498 0.15048 0.24941 0.0
H322 H 0.46685 0.13023 0.28935 0.0
H323 H 0.39345 0.14731 0.31039 0.0
H324 H 0.34216 0.27307 0.27838 0.0
H325 H 0.412 0.29526 0.24423 0.0
C326 C 0.48202 0.24563 0.23664 0.0
C327 C 0.51525 0.21544 0.2326 0.0
C328 C 0.44255 0.23395 0.25781 0.0
C329 C 0.50963 0.17407 0.2523 0.0
C330 C 0.4708 0.16252 0.27482 0.0
C331 C 0.39729 0.17976 0.29627 0.0
C332 C 0.36264 0.20857 0.29686 0.0
C333 C 0.43695 0.192 0.27676 0.0
C334 C 0.36833 0.25028 0.27805 0.0
C335 C 0.40819 0.26298 0.25881 0.0
H336 H 0.18902 0.57213 0.62109 0.0
H337 H 0.22444 0.6534 0.75114 0.0
H338 H 0.23475 0.5905 0.80722 0.0
H339 H 0.23222 0.51242 0.81891 0.0
H340 H 0.20269 0.43172 0.68648 0.0
H341 H 0.18987 0.49469 0.63149 0.0
C342 C 0.19926 0.57601 0.66166 0.0
C343 C 0.2059 0.61706 0.68223 0.0
C344 C 0.20515 0.54002 0.69321 0.0
C345 C 0.21959 0.62191 0.73453 0.0
C346 C 0.22499 0.58609 0.76663 0.0
C347 C 0.2225 0.50888 0.77821 0.0
C348 C 0.21759 0.46801 0.75659 0.0
C349 C 0.21737 0.54505 0.74647 0.0
C350 C 0.20595 0.46322 0.70365 0.0
C351 C 0.19904 0.49905 0.6723 0.0
H352 H 0.57282 0.83896 0.30746 0.0
H353 H 0.616 0.70842 0.29181 0.0
H354 H 0.54784 0.68951 0.24977 0.0
H355 H 0.47802 0.71095 0.21453 0.0
H356 H 0.43703 0.84242 0.22538 0.0
H357 H 0.50273 0.8601 0.27371 0.0
C358 C 0.56734 0.80622 0.29528 0.0
C359 C 0.59939 0.77505 0.3028 0.0
C360 C 0.5286 0.79583 0.27076 0.0
C361 C 0.5919 0.73298 0.2862 0.0
C362 C 0.55295 0.72216 0.26242 0.0
C363 C 0.48304 0.74335 0.2283 0.0
C364 C 0.45268 0.77537 0.21687 0.0
C365 C 0.52129 0.75343 0.25427 0.0
C366 C 0.45998 0.81733 0.23393 0.0
C367 C 0.49751 0.8274 0.26128 0.0
H368 H 0.84699 0.05915 0.57477 0.0
H369 H 0.71486 0.10103 0.57695 0.0
H370 H 0.69384 0.03797 0.52648 0.0
H371 H 0.71365 0.97383 0.47843 0.0
H372 H 0.8463 0.93401 0.47171 0.0
H373 H 0.8666 -0.00612 0.52832 0.0
C374 C 0.81348 0.05432 0.56475 0.0
C375 C 0.78244 0.08462 0.57955 0.0
C376 C 0.80187 0.01866 0.53505 0.0
C377 C 0.73929 0.07819 0.56574 0.0
C378 C 0.7273 0.0422 0.53703 0.0
C379 C 0.747 0.97781 0.4898 0.0
C380 C 0.77849 0.94955 0.471 0.0
C381 C 0.75843 0.01261 0.52103 0.0
C382 C 0.82155 0.95547 0.48562 0.0
C383 C 0.83312 -0.01037 0.51786 0.0
H384 H 0.07375 0.13028 0.41494 0.0
H385 H 0.10856 0.26336 0.42809 0.0
H386 H 0.04766 0.27571 0.4862 0.0
H387 H 0.98684 0.24855 0.53394 0.0
H388 H 0.95252 0.11515 0.5251 0.0
H389 H 0.01209 0.1027 0.46406 0.0
C390 C 0.06765 0.16211 0.43003 0.0
C391 C 0.09511 0.1961 0.41707 0.0
C392 C 0.0333 0.16866 0.46408 0.0
C393 C 0.08765 0.2369 0.43763 0.0
C394 C 0.05299 0.2439 0.47073 0.0
C395 C -0.00808 0.2167 0.51832 0.0
C396 C 0.96511 0.18281 0.53325 0.0
C397 C 0.02594 0.20996 0.48428 0.0
C398 C 0.97281 0.14163 0.51386 0.0
C399 C 0.00664 0.13464 0.47903 0.0
H400 H 0.12962 0.89945 0.53688 0.0
H401 H 0.26319 0.86279 0.52996 0.0
H402 H 0.27894 0.92688 0.47871 0.0
H403 H 0.25474 -0.00774 0.43641 0.0
H404 H 0.12098 0.02837 0.44082 0.0
H405 H 0.10514 0.96467 0.49318 0.0
C406 C 0.1623 0.90556 0.52453 0.0
C407 C 0.19537 0.87668 0.53757 0.0
C408 C 0.17093 0.94201 0.49484 0.0
C409 C 0.2373 0.88461 0.52044 0.0
C410 C 0.24627 0.92118 0.49128 0.0
C411 C 0.22208 0.98652 0.44911 0.0
C412 C 0.18906 0.01517 0.43531 0.0
C413 C 0.21332 0.94998 0.47842 0.0
C414 C 0.14687 0.00677 0.45112 0.0
C415 C 0.13789 0.97049 0.48101 0.0
H416 H -0.00463 0.70722 0.50073 0.0
H417 H 0.04049 0.83601 0.4767 0.0
H418 H 0.97559 0.85268 0.42636 0.0
H419 H 0.90474 0.83242 0.396 0.0
H420 H 0.85641 0.70536 0.42511 0.0
H421 H 0.92459 0.68606 0.46722 0.0
C422 C -0.00866 0.7387 0.48359 0.0
C423 C 0.02256 0.7704 0.49206 0.0
C424 C 0.95344 0.74839 0.45646 0.0
C425 C 0.01675 0.81124 0.47058 0.0
C426 C 0.97971 0.82075 0.44204 0.0
C427 C 0.909 0.80026 0.41101 0.0
C428 C 0.87544 0.77033 0.40754 0.0
C429 C 0.94757 0.78983 0.43584 0.0
C430 C 0.88166 0.72901 0.42757 0.0
C431 C 0.92058 0.71799 0.45151 0.0
H432 H 0.18555 0.31794 0.04348 0.0
H433 H 0.22443 0.19933 0.97131 0.0
H434 H 0.20964 0.16099 0.05235 0.0
H435 H 0.19287 0.16209 0.14596 0.0
H436 H 0.15909 0.28105 0.22056 0.0
H437 H 0.1637 0.3181 0.13621 0.0
C438 C 0.19031 0.28366 0.04541 0.0
C439 C 0.20663 0.26168 0.00178 0.0
C440 C 0.18257 0.26181 0.09255 0.0
C441 C 0.2126 0.21719 0.00472 0.0
C442 C 0.20397 0.19513 0.05095 0.0
C443 C 0.1855 0.1959 0.14345 0.0
C444 C 0.17581 0.21888 0.18915 0.0
C445 C 0.18991 0.21724 0.09543 0.0
C446 C 0.16685 0.2628 0.18568 0.0
C447 C 0.16967 0.28402 0.1376 0.0
H448 H 0.21374 0.80202 0.95758 0.0
H449 H 0.34507 0.80116 0.90419 0.0
H450 H 0.3204 0.80976 0.81344 0.0
H451 H 0.26171 0.8084 0.74947 0.0
H452 H 0.13036 0.80582 0.8028 0.0
H453 H 0.1551 0.80853 0.89399 0.0
C454 C 0.23706 0.80402 0.92617 0.0
C455 C 0.28113 0.80001 0.93739 0.0
C456 C 0.22268 0.80824 0.8743 0.0
C457 C 0.31095 0.80376 0.89647 0.0
C458 C 0.29687 0.80854 0.84463 0.0
C459 C 0.23839 0.80893 0.78097 0.0
C460 C 0.19428 0.806 0.76944 0.0
C461 C 0.25281 0.80941 0.83309 0.0
C462 C 0.1645 0.80771 0.81063 0.0
C463 C 0.17862 0.80899 0.86276 0.0
H464 H 0.79184 0.71343 0.20957 0.0
H465 H 0.77513 0.84399 0.15904 0.0
H466 H 0.77973 0.82172 0.06723 0.0
H467 H 0.7831 0.76452 0.00172 0.0
H468 H 0.8007 0.63404 0.05269 0.0
H469 H 0.80177 0.65714 0.14411 0.0
C470 C 0.78938 0.73699 0.17842 0.0
C471 C 0.78257 0.7801 0.19083 0.0
C472 C 0.79224 0.72405 0.12594 0.0
C473 C 0.78027 0.81052 0.15031 0.0
C474 C 0.78278 0.79784 0.09787 0.0
C475 C 0.78756 0.74119 0.03281 0.0
C476 C 0.79127 0.69764 0.02047 0.0
C477 C 0.78797 0.75459 0.08528 0.0
C478 C 0.79769 0.66781 0.06111 0.0
C479 C 0.79808 0.68091 0.11344 0.0
H480 H 0.71732 0.1784 0.78531 0.0
H481 H 0.84883 0.16951 0.83826 0.0
H482 H 0.82557 0.17609 0.92952 0.0
H483 H 0.76829 0.19073 -0.00676 0.0
H484 H 0.63702 0.19954 0.93904 0.0
H485 H 0.65994 0.18688 0.84903 0.0
C486 C 0.74088 0.17745 0.81684 0.0
C487 C 0.78469 0.17403 0.80512 0.0
C488 C 0.72742 0.18181 0.86884 0.0
C489 C 0.81484 0.17211 0.84634 0.0
C490 C 0.80162 0.17624 0.89846 0.0
C491 C 0.74477 0.18981 0.96168 0.0
C492 C 0.70117 0.19659 0.9726 0.0
C493 C 0.75809 0.18225 0.90999 0.0
C494 C 0.67084 0.19454 0.93158 0.0
C495 C 0.68387 0.18732 0.88011 0.0
H496 H 0.69255 0.70388 0.50391 0.0
H497 H 0.6835 0.83491 0.55597 0.0
H498 H 0.67814 0.81134 0.64678 0.0
H499 H 0.68184 0.75429 0.71171 0.0
H500 H 0.69078 0.62309 0.661 0.0
H501 H 0.68962 0.64602 0.56912 0.0
C502 C 0.68917 0.72722 0.53512 0.0
C503 C 0.68899 0.77104 0.52326 0.0
C504 C 0.68607 0.71351 0.58739 0.0
C505 C 0.68387 0.80095 0.56401 0.0
C506 C 0.6809 0.78756 0.616 0.0
C507 C 0.68316 0.73068 0.68053 0.0
C508 C 0.68698 0.68721 0.69295 0.0
C509 C 0.68283 0.74403 0.62815 0.0
C510 C 0.68787 0.65683 0.6523 0.0
C511 C 0.6875 0.66991 0.59983 0.0
H512 H 0.71692 0.27291 0.49374 0.0
H513 H 0.84901 0.27483 0.44362 0.0
H514 H 0.82608 0.28585 0.35277 0.0
H515 H 0.76862 0.29033 0.2871 0.0
H516 H 0.63643 0.28986 0.33693 0.0
H517 H 0.65939 0.2836 0.42857 0.0
C518 C 0.74065 0.27588 0.46292 0.0
C519 C 0.78454 0.27257 0.47525 0.0
C520 C 0.72728 0.28259 0.41082 0.0
C521 C 0.815 0.27722 0.43511 0.0
C522 C 0.80194 0.28343 0.38314 0.0
C523 C 0.74481 0.28926 0.31803 0.0
C524 C 0.70091 0.29013 0.30518 0.0
C525 C 0.75818 0.28552 0.3705 0.0
C526 C 0.67046 0.28932 0.34576 0.0
C527 C 0.68354 0.28544 0.39814 0.0
H528 H 0.29913 0.21605 0.69964 0.0
H529 H 0.31323 0.3454 0.64396 0.0
H530 H 0.3094 0.32021 0.55291 0.0
H531 H 0.29385 0.2625 0.49039 0.0
H532 H 0.27906 0.13331 0.54674 0.0
H533 H 0.2915 0.15748 0.63685 0.0
C534 C 0.30191 0.23867 0.66752 0.0
C535 C 0.30577 0.28253 0.67823 0.0
C536 C 0.29904 0.22408 0.61572 0.0
C537 C 0.3102 0.31148 0.63651 0.0
C538 C 0.30765 0.29713 0.58458 0.0
C539 C 0.29357 0.2396 0.52239 0.0
C540 C 0.28474 0.19633 0.5122 0.0
C541 C 0.30068 0.2537 0.57391 0.0
C542 C 0.28548 0.16682 0.55374 0.0
C543 C 0.2925 0.18062 0.60519 0.0
H544 H 0.31551 0.68663 0.30369 0.0
H545 H 0.19164 0.68988 0.22695 0.0
H546 H 0.15613 0.68536 0.31189 0.0
H547 H 0.16015 0.6875 0.40812 0.0
H548 H 0.28406 0.68768 0.48476 0.0
H549 H 0.31949 0.68335 0.39973 0.0
C550 C 0.28076 0.68572 0.30545 0.0
C551 C 0.25634 0.68906 0.25905 0.0
C552 C 0.26046 0.684 0.35448 0.0
C553 C 0.21128 0.68787 0.26211 0.0
C554 C 0.19088 0.68526 0.31068 0.0
C555 C 0.19487 0.68586 0.40626 0.0
C556 C 0.21938 0.68832 0.45265 0.0
C557 C 0.21514 0.68437 0.35717 0.0
C558 C 0.2644 0.68632 0.44955 0.0
C559 C 0.28474 0.68385 0.40096 0.0
loop_
_geom_bond_atom_site_label_1
_geom_bond_atom_site_label_2
_geom_bond_distance
_geom_bond_site_symmetry_2
_ccdc_geom_bond_type
Sc0 O3 2.025 . S
Sc0 O10 2.105 . S
Sc0 O13 2.105 . S
Sc0 O16 2.105 . S
Sc0 O19 2.105 . S
Sc1 O3 2.025 . S
Sc1 O11 2.105 . S
Sc1 O15 2.105 . S
Sc1 O17 2.105 . S
Sc1 O21 2.105 . S
Sc2 O3 2.025 . S
Sc2 O12 2.105 . S
Sc2 O14 2.105 . S
Sc2 O18 2.105 . S
Sc2 O20 2.105 . S
O3 Sc0 2.025 . S
O3 Sc1 2.025 . S
O3 Sc2 2.025 . S
C4 O10 1.268 . S
C4 O20 1.268 . S
C5 O11 1.268 . S
C5 O19 1.268 . S
C6 O12 1.268 . S
C6 O21 1.268 . S
C7 O13 1.268 . S
C7 O17 1.268 . S
C8 O14 1.268 . S
C8 O16 1.268 . S
C9 O15 1.268 . S
C9 O18 1.268 . S
O10 Sc0 2.105 . S
O10 C4 1.268 . S
O11 Sc1 2.105 . S
O11 C5 1.268 . S
O12 Sc2 2.105 . S
O12 C6 1.268 . S
O13 Sc0 2.105 . S
O13 C7 1.268 . S
O14 Sc2 2.105 . S
O14 C8 1.268 . S
O15 Sc1 2.105 . S
O15 C9 1.268 . S
O16 Sc0 2.105 . S
O16 C8 1.268 . S
O17 Sc1 2.105 . S
O17 C7 1.268 . S
O18 Sc2 2.105 . S
O18 C9 1.268 . S
O19 Sc0 2.105 . S
O19 C5 1.268 . S
O20 Sc2 2.105 . S
O20 C4 1.268 . S
O21 Sc1 2.105 . S
O21 C6 1.268 . S
Sc22 O25 2.025 . S
Sc22 O32 2.105 . S
Sc22 O35 2.105 . S
Sc22 O38 2.105 . S
Sc22 O41 2.105 . S
Sc23 O25 2.025 . S
Sc23 O33 2.105 . S
Sc23 O37 2.105 . S
Sc23 O39 2.105 . S
Sc23 O43 2.105 . S
Sc24 O25 2.025 . S
Sc24 O34 2.105 . S
Sc24 O36 2.105 . S
Sc24 O40 2.105 . S
Sc24 O42 2.105 . S
O25 Sc22 2.025 . S
O25 Sc23 2.025 . S
O25 Sc24 2.025 . S
C26 O32 1.268 . S
C26 O42 1.268 . S
C27 O33 1.268 . S
C27 O41 1.268 . S
C28 O34 1.268 . S
C28 O43 1.268 . S
C29 O35 1.268 . S
C29 O39 1.268 . S
C30 O36 1.268 . S
C30 O38 1.268 . S
C31 O37 1.268 . S
C31 O40 1.268 . S
O32 Sc22 2.105 . S
O32 C26 1.268 . S
O33 Sc23 2.105 . S
O33 C27 1.268 . S
O34 Sc24 2.105 . S
O34 C28 1.268 . S
O35 Sc22 2.105 . S
O35 C29 1.268 . S
O36 Sc24 2.105 . S
O36 C30 1.268 . S
O37 Sc23 2.105 . S
O37 C31 1.268 . S
O38 Sc22 2.105 . S
O38 C30 1.268 . S
O39 Sc23 2.105 . S
O39 C29 1.268 . S
O40 Sc24 2.105 . S
O40 C31 1.268 . S
O41 Sc22 2.105 . S
O41 C27 1.268 . S
O42 Sc24 2.105 . S
O42 C26 1.268 . S
O43 Sc23 2.105 . S
O43 C28 1.268 . S
Sc44 O47 2.025 . S
Sc44 O54 2.105 . S
Sc44 O57 2.105 . S
Sc44 O60 2.105 . S
Sc44 O63 2.105 . S
Sc45 O47 2.025 . S
Sc45 O55 2.105 . S
Sc45 O59 2.105 . S
Sc45 O61 2.105 . S
Sc45 O65 2.105 . S
Sc46 O47 2.025 . S
Sc46 O56 2.105 . S
Sc46 O58 2.105 . S
Sc46 O62 2.105 . S
Sc46 O64 2.105 . S
O47 Sc44 2.025 . S
O47 Sc45 2.025 . S
O47 Sc46 2.025 . S
C48 O54 1.268 . S
C48 O64 1.268 . S
C49 O55 1.268 . S
C49 O63 1.268 . S
C50 O56 1.268 . S
C50 O65 1.268 . S
C51 O57 1.268 . S
C51 O61 1.268 . S
C52 O58 1.268 . S
C52 O60 1.268 . S
C53 O59 1.268 . S
C53 O62 1.268 . S
O54 Sc44 2.105 . S
O54 C48 1.268 . S
O55 Sc45 2.105 . S
O55 C49 1.268 . S
O56 Sc46 2.105 . S
O56 C50 1.268 . S
O57 Sc44 2.105 . S
O57 C51 1.268 . S
O58 Sc46 2.105 . S
O58 C52 1.268 . S
O59 Sc45 2.105 . S
O59 C53 1.268 . S
O60 Sc44 2.105 . S
O60 C52 1.268 . S
O61 Sc45 2.105 . S
O61 C51 1.268 . S
O62 Sc46 2.105 . S
O62 C53 1.268 . S
O63 Sc44 2.105 . S
O63 C49 1.268 . S
O64 Sc46 2.105 . S
O64 C48 1.268 . S
O65 Sc45 2.105 . S
O65 C50 1.268 . S
Sc66 O69 2.025 . S
Sc66 O76 2.105 . S
Sc66 O79 2.105 . S
Sc66 O82 2.105 . S
Sc66 O85 2.105 . S
Sc67 O69 2.025 . S
Sc67 O77 2.105 . S
Sc67 O81 2.105 . S
Sc67 O83 2.105 . S
Sc67 O87 2.105 . S
Sc68 O69 2.025 . S
Sc68 O78 2.105 . S
Sc68 O80 2.105 . S
Sc68 O84 2.105 . S
Sc68 O86 2.105 . S
O69 Sc66 2.025 . S
O69 Sc67 2.025 . S
O69 Sc68 2.025 . S
C70 O76 1.268 . S
C70 O86 1.268 . S
C71 O77 1.268 . S
C71 O85 1.268 . S
C72 O78 1.268 . S
C72 O87 1.268 . S
C73 O79 1.268 . S
C73 O83 1.268 . S
C74 O80 1.268 . S
C74 O82 1.268 . S
C75 O81 1.268 . S
C75 O84 1.268 . S
O76 Sc66 2.105 . S
O76 C70 1.268 . S
O77 Sc67 2.105 . S
O77 C71 1.268 . S
O78 Sc68 2.105 . S
O78 C72 1.268 . S
O79 Sc66 2.105 . S
O79 C73 1.268 . S
O80 Sc68 2.105 . S
O80 C74 1.268 . S
O81 Sc67 2.105 . S
O81 C75 1.268 . S
O82 Sc66 2.105 . S
O82 C74 1.268 . S
O83 Sc67 2.105 . S
O83 C73 1.268 . S
O84 Sc68 2.105 . S
O84 C75 1.268 . S
O85 Sc66 2.105 . S
O85 C71 1.268 . S
O86 Sc68 2.105 . S
O86 C70 1.268 . S
O87 Sc67 2.105 . S
O87 C72 1.268 . S
Sc88 O91 2.025 . S
Sc88 O98 2.105 . S
Sc88 O101 2.105 . S
Sc88 O104 2.105 . S
Sc88 O107 2.105 . S
Sc89 O91 2.025 . S
Sc89 O99 2.105 . S
Sc89 O103 2.105 . S
Sc89 O105 2.105 . S
Sc89 O109 2.105 . S
Sc90 O91 2.025 . S
Sc90 O100 2.105 . S
Sc90 O102 2.105 . S
Sc90 O106 2.105 . S
Sc90 O108 2.105 . S
O91 Sc88 2.025 . S
O91 Sc89 2.025 . S
O91 Sc90 2.025 . S
C92 O98 1.268 . S
C92 O108 1.268 . S
C93 O99 1.268 . S
C93 O107 1.268 . S
C94 O100 1.268 . S
C94 O109 1.268 . S
C95 O101 1.268 . S
C95 O105 1.268 . S
C96 O102 1.268 . S
C96 O104 1.268 . S
C97 O103 1.268 . S
C97 O106 1.268 . S
O98 Sc88 2.105 . S
O98 C92 1.268 . S
O99 Sc89 2.105 . S
O99 C93 1.268 . S
O100 Sc90 2.105 . S
O100 C94 1.268 . S
O101 Sc88 2.105 . S
O101 C95 1.268 . S
O102 Sc90 2.105 . S
O102 C96 1.268 . S
O103 Sc89 2.105 . S
O103 C97 1.268 . S
O104 Sc88 2.105 . S
O104 C96 1.268 . S
O105 Sc89 2.105 . S
O105 C95 1.268 . S
O106 Sc90 2.105 . S
O106 C97 1.268 . S
O107 Sc88 2.105 . S
O107 C93 1.268 . S
O108 Sc90 2.105 . S
O108 C92 1.268 . S
O109 Sc89 2.105 . S
O109 C94 1.268 . S
Sc110 O113 2.025 . S
Sc110 O120 2.105 . S
Sc110 O123 2.105 . S
Sc110 O126 2.105 . S
Sc110 O129 2.105 . S
Sc111 O113 2.025 . S
Sc111 O121 2.105 . S
Sc111 O125 2.105 . S
Sc111 O127 2.105 . S
Sc111 O131 2.105 . S
Sc112 O113 2.025 . S
Sc112 O122 2.105 . S
Sc112 O124 2.105 . S
Sc112 O128 2.105 . S
Sc112 O130 2.105 . S
O113 Sc110 2.025 . S
O113 Sc111 2.025 . S
O113 Sc112 2.025 . S
C114 O120 1.268 . S
C114 O130 1.268 . S
C115 O121 1.268 . S
C115 O129 1.268 . S
C116 O122 1.268 . S
C116 O131 1.268 . S
C117 O123 1.268 . S
C117 O127 1.268 . S
C118 O124 1.268 . S
C118 O126 1.268 . S
C119 O125 1.268 . S
C119 O128 1.268 . S
O120 Sc110 2.105 . S
O120 C114 1.268 . S
O121 Sc111 2.105 . S
O121 C115 1.268 . S
O122 Sc112 2.105 . S
O122 C116 1.268 . S
O123 Sc110 2.105 . S
O123 C117 1.268 . S
O124 Sc112 2.105 . S
O124 C118 1.268 . S
O125 Sc111 2.105 . S
O125 C119 1.268 . S
O126 Sc110 2.105 . S
O126 C118 1.268 . S
O127 Sc111 2.105 . S
O127 C117 1.268 . S
O128 Sc112 2.105 . S
O128 C119 1.268 . S
O129 Sc110 2.105 . S
O129 C115 1.268 . S
O130 Sc112 2.105 . S
O130 C114 1.268 . S
O131 Sc111 2.105 . S
O131 C116 1.268 . S
Sc132 O135 2.025 . S
Sc132 O142 2.105 . S
Sc132 O145 2.105 . S
Sc132 O148 2.105 . S
Sc132 O151 2.105 . S
Sc133 O135 2.025 . S
Sc133 O143 2.105 . S
Sc133 O147 2.105 . S
Sc133 O149 2.105 . S
Sc133 O153 2.105 . S
Sc134 O135 2.025 . S
Sc134 O144 2.105 . S
Sc134 O146 2.105 . S
Sc134 O150 2.105 . S
Sc134 O152 2.105 . S
O135 Sc132 2.025 . S
O135 Sc133 2.025 . S
O135 Sc134 2.025 . S
C136 O142 1.268 . S
C136 O152 1.268 . S
C137 O143 1.268 . S
C137 O151 1.268 . S
C138 O144 1.268 . S
C138 O153 1.268 . S
C139 O145 1.268 . S
C139 O149 1.268 . S
C140 O146 1.268 . S
C140 O148 1.268 . S
C141 O147 1.268 . S
C141 O150 1.268 . S
O142 Sc132 2.105 . S
O142 C136 1.268 . S
O143 Sc133 2.105 . S
O143 C137 1.268 . S
O144 Sc134 2.105 . S
O144 C138 1.268 . S
O145 Sc132 2.105 . S
O145 C139 1.268 . S
O146 Sc134 2.105 . S
O146 C140 1.268 . S
O147 Sc133 2.105 . S
O147 C141 1.268 . S
O148 Sc132 2.105 . S
O148 C140 1.268 . S
O149 Sc133 2.105 . S
O149 C139 1.268 . S
O150 Sc134 2.105 . S
O150 C141 1.268 . S
O151 Sc132 2.105 . S
O151 C137 1.268 . S
O152 Sc134 2.105 . S
O152 C136 1.268 . S
O153 Sc133 2.105 . S
O153 C138 1.268 . S
Sc154 O157 2.025 . S
Sc154 O164 2.105 . S
Sc154 O167 2.105 . S
Sc154 O170 2.105 . S
Sc154 O173 2.105 . S
Sc155 O157 2.025 . S
Sc155 O165 2.105 . S
Sc155 O169 2.105 . S
Sc155 O171 2.105 . S
Sc155 O175 2.105 . S
Sc156 O157 2.025 . S
Sc156 O166 2.105 . S
Sc156 O168 2.105 . S
Sc156 O172 2.105 . S
Sc156 O174 2.105 . S
O157 Sc154 2.025 . S
O157 Sc155 2.025 . S
O157 Sc156 2.025 . S
C158 O164 1.268 . S
C158 O174 1.268 . S
C159 O165 1.268 . S
C159 O173 1.268 . S
C160 O166 1.268 . S
C160 O175 1.268 . S
C161 O167 1.268 . S
C161 O171 1.268 . S
C162 O168 1.268 . S
C162 O170 1.268 . S
C163 O169 1.268 . S
C163 O172 1.268 . S
O164 Sc154 2.105 . S
O164 C158 1.268 . S
O165 Sc155 2.105 . S
O165 C159 1.268 . S
O166 Sc156 2.105 . S
O166 C160 1.268 . S
O167 Sc154 2.105 . S
O167 C161 1.268 . S
O168 Sc156 2.105 . S
O168 C162 1.268 . S
O169 Sc155 2.105 . S
O169 C163 1.268 . S
O170 Sc154 2.105 . S
O170 C162 1.268 . S
O171 Sc155 2.105 . S
O171 C161 1.268 . S
O172 Sc156 2.105 . S
O172 C163 1.268 . S
O173 Sc154 2.105 . S
O173 C159 1.268 . S
O174 Sc156 2.105 . S
O174 C158 1.268 . S
O175 Sc155 2.105 . S
O175 C160 1.268 . S
H176 C182 0.930 . S
H177 C185 0.930 . S
H178 C186 0.930 . S
H179 C187 0.930 . S
H180 C190 0.930 . S
H181 C191 0.930 . S
C182 H176 0.930 . S
C182 C183 1.355 1_565 S
C182 C184 1.415 . S
C183 C182 1.355 1_545 S
C183 C185 1.419 . S
C184 C182 1.415 . S
C184 C189 1.425 . S
C184 C191 1.409 . S
C185 H177 0.930 . S
C185 C183 1.419 . S
C185 C186 1.362 1_545 S
C186 H178 0.930 . S
C186 C185 1.362 1_565 S
C186 C189 1.409 . S
C187 H179 0.930 . S
C187 C188 1.355 . S
C187 C189 1.415 . S
C188 C187 1.355 . S
C188 C190 1.419 . S
C189 C184 1.425 . S
C189 C186 1.409 . S
C189 C187 1.415 . S
C190 H180 0.930 . S
C190 C188 1.419 . S
C190 C191 1.362 . S
C191 H181 0.930 . S
C191 C184 1.409 . S
C191 C190 1.362 . S
H192 C198 0.930 . S
H193 C201 0.930 . S
H194 C202 0.930 1_455 S
H195 C203 0.930 . S
H196 C206 0.930 . S
H197 C207 0.930 . S
C198 H192 0.930 . S
C198 C199 1.355 1_655 S
C198 C200 1.415 . S
C199 C198 1.355 1_455 S
C199 C201 1.419 . S
C200 C198 1.415 . S
C200 C205 1.425 . S
C200 C207 1.409 . S
C201 H193 0.930 . S
C201 C199 1.419 . S
C201 C202 1.362 1_455 S
C202 H194 0.930 1_655 S
C202 C201 1.362 1_655 S
C202 C205 1.409 . S
C203 H195 0.930 . S
C203 C204 1.355 . S
C203 C205 1.415 . S
C204 C203 1.355 . S
C204 C206 1.419 . S
C205 C200 1.425 . S
C205 C202 1.409 . S
C205 C203 1.415 . S
C206 H196 0.930 . S
C206 C204 1.419 . S
C206 C207 1.362 . S
C207 H197 0.930 . S
C207 C200 1.409 . S
C207 C206 1.362 . S
H208 C214 0.930 . S
H209 C217 0.930 . S
H210 C218 0.930 . S
H211 C219 0.930 . S
H212 C222 0.930 . S
H213 C223 0.930 . S
C214 H208 0.930 . S
C214 C215 1.355 . S
C214 C216 1.415 1_565 S
C215 C214 1.355 . S
C215 C217 1.419 1_565 S
C216 C214 1.415 1_545 S
C216 C221 1.425 . S
C216 C223 1.409 . S
C217 H209 0.930 . S
C217 C215 1.419 1_545 S
C217 C218 1.362 . S
C218 H210 0.930 . S
C218 C217 1.362 . S
C218 C221 1.409 . S
C219 H211 0.930 . S
C219 C220 1.355 . S
C219 C221 1.415 . S
C220 C219 1.355 . S
C220 C222 1.419 . S
C221 C216 1.425 . S
C221 C218 1.409 . S
C221 C219 1.415 . S
C222 H212 0.930 . S
C222 C220 1.419 . S
C222 C223 1.362 . S
C223 H213 0.930 . S
C223 C216 1.409 . S
C223 C222 1.362 . S
H224 C230 0.930 . S
H225 C233 0.930 . S
H226 C234 0.930 . S
H227 C235 0.930 . S
H228 C238 0.930 . S
H229 C239 0.930 . S
C230 H224 0.930 . S
C230 C231 1.355 . S
C230 C232 1.415 . S
C231 C230 1.355 . S
C231 C233 1.419 . S
C232 C230 1.415 . S
C232 C237 1.425 . S
C232 C239 1.409 . S
C233 H225 0.930 . S
C233 C231 1.419 . S
C233 C234 1.362 . S
C234 H226 0.930 . S
C234 C233 1.362 . S
C234 C237 1.409 . S
C235 H227 0.930 . S
C235 C236 1.355 . S
C235 C237 1.415 1_655 S
C236 C235 1.355 . S
C236 C238 1.419 1_655 S
C237 C232 1.425 . S
C237 C234 1.409 . S
C237 C235 1.415 1_455 S
C238 H228 0.930 . S
C238 C236 1.419 1_455 S
C238 C239 1.362 . S
C239 H229 0.930 . S
C239 C232 1.409 . S
C239 C238 1.362 . S
H240 C246 0.930 . S
H241 C249 0.930 . S
H242 C250 0.930 . S
H243 C251 0.930 . S
H244 C254 0.930 . S
H245 C255 0.930 . S
C246 H240 0.930 . S
C246 C247 1.355 . S
C246 C248 1.415 . S
C247 C246 1.355 . S
C247 C249 1.419 . S
C248 C246 1.415 . S
C248 C253 1.425 . S
C248 C255 1.409 . S
C249 H241 0.930 . S
C249 C247 1.419 . S
C249 C250 1.362 . S
C250 H242 0.930 . S
C250 C249 1.362 . S
C250 C253 1.409 . S
C251 H243 0.930 . S
C251 C252 1.355 . S
C251 C253 1.415 1_556 S
C252 C251 1.355 . S
C252 C254 1.419 . S
C253 C248 1.425 . S
C253 C250 1.409 . S
C253 C251 1.415 1_554 S
C254 H244 0.930 . S
C254 C252 1.419 . S
C254 C255 1.362 1_556 S
C255 H245 0.930 . S
C255 C248 1.409 . S
C255 C254 1.362 1_554 S
H256 C262 0.930 . S
H257 C265 0.930 . S
H258 C266 0.930 . S
H259 C267 0.930 . S
H260 C270 0.930 . S
H261 C271 0.930 . S
C262 H256 0.930 . S
C262 C263 1.355 . S
C262 C264 1.415 . S
C263 C262 1.355 . S
C263 C265 1.419 . S
C264 C262 1.415 . S
C264 C269 1.431 . S
C264 C271 1.409 . S
C265 H257 0.930 . S
C265 C263 1.419 . S
C265 C266 1.362 1_556 S
C266 H258 0.930 . S
C266 C265 1.362 1_554 S
C266 C269 1.407 1_554 S
C267 H259 0.930 . S
C267 C268 1.355 . S
C267 C269 1.411 1_554 S
C268 C267 1.355 . S
C268 C270 1.419 1_554 S
C269 C264 1.431 . S
C269 C266 1.407 1_556 S
C269 C267 1.411 1_556 S
C270 H260 0.930 . S
C270 C268 1.419 1_556 S
C270 C271 1.362 . S
C271 H261 0.930 . S
C271 C264 1.409 . S
C271 C270 1.362 . S
H272 C278 0.930 . S
H273 C281 0.930 . S
H274 C282 0.930 . S
H275 C283 0.930 . S
H276 C286 0.931 . S
H277 C287 0.930 . S
C278 H272 0.930 . S
C278 C279 1.355 . S
C278 C280 1.415 . S
C279 C278 1.355 . S
C279 C281 1.419 . S
C280 C278 1.415 . S
C280 C285 1.425 . S
C280 C287 1.409 . S
C281 H273 0.930 . S
C281 C279 1.419 . S
C281 C282 1.362 . S
C282 H274 0.930 . S
C282 C281 1.362 . S
C282 C285 1.409 . S
C283 H275 0.930 . S
C283 C284 1.355 . S
C283 C285 1.415 1_556 S
C284 C283 1.355 . S
C284 C286 1.422 . S
C285 C280 1.425 . S
C285 C282 1.409 . S
C285 C283 1.415 1_554 S
C286 H276 0.931 . S
C286 C284 1.422 . S
C286 C287 1.358 1_556 S
C287 H277 0.930 . S
C287 C280 1.409 . S
C287 C286 1.358 1_554 S
H288 C294 0.930 . S
H289 C297 0.930 . S
H290 C298 0.930 . S
H291 C299 0.930 . S
H292 C302 0.930 . S
H293 C303 0.930 . S
C294 H288 0.930 . S
C294 C295 1.355 1_556 S
C294 C296 1.415 . S
C295 C294 1.355 1_554 S
C295 C297 1.419 . S
C296 C294 1.415 . S
C296 C301 1.425 . S
C296 C303 1.409 . S
C297 H289 0.930 . S
C297 C295 1.419 . S
C297 C298 1.362 . S
C298 H290 0.930 . S
C298 C297 1.362 . S
C298 C301 1.409 1_554 S
C299 H291 0.930 . S
C299 C300 1.355 . S
C299 C301 1.415 . S
C300 C299 1.355 . S
C300 C302 1.419 . S
C301 C296 1.425 . S
C301 C298 1.409 1_556 S
C301 C299 1.415 . S
C302 H292 0.930 . S
C302 C300 1.419 . S
C302 C303 1.362 . S
C303 H293 0.930 . S
C303 C296 1.409 . S
C303 C302 1.362 . S
H304 C310 0.930 . S
H305 C313 0.930 . S
H306 C314 0.930 . S
H307 C315 0.930 . S
H308 C318 0.930 . S
H309 C319 0.930 . S
C310 H304 0.930 . S
C310 C311 1.355 . S
C310 C312 1.415 . S
C311 C310 1.355 . S
C311 C313 1.419 . S
C312 C310 1.415 . S
C312 C317 1.425 . S
C312 C319 1.409 . S
C313 H305 0.930 . S
C313 C311 1.419 . S
C313 C314 1.362 . S
C314 H306 0.930 . S
C314 C313 1.362 . S
C314 C317 1.409 . S
C315 H307 0.930 . S
C315 C316 1.355 . S
C315 C317 1.415 . S
C316 C315 1.355 . S
C316 C318 1.419 . S
C317 C312 1.425 . S
C317 C314 1.409 . S
C317 C315 1.415 . S
C318 H308 0.930 . S
C318 C316 1.419 . S
C318 C319 1.362 . S
C319 H309 0.930 . S
C319 C312 1.409 . S
C319 C318 1.362 . S
H320 C326 0.930 . S
H321 C329 0.930 . S
H322 C330 0.930 . S
H323 C331 0.930 . S
H324 C334 0.930 . S
H325 C335 0.930 . S
C326 H320 0.930 . S
C326 C327 1.355 . S
C326 C328 1.415 . S
C327 C326 1.355 . S
C327 C329 1.419 . S
C328 C326 1.415 . S
C328 C333 1.425 . S
C328 C335 1.409 . S
C329 H321 0.930 . S
C329 C327 1.419 . S
C329 C330 1.362 . S
C330 H322 0.930 . S
C330 C329 1.362 . S
C330 C333 1.409 . S
C331 H323 0.930 . S
C331 C332 1.355 . S
C331 C333 1.415 . S
C332 C331 1.355 . S
C332 C334 1.419 . S
C333 C328 1.425 . S
C333 C330 1.409 . S
C333 C331 1.415 . S
C334 H324 0.930 . S
C334 C332 1.419 . S
C334 C335 1.362 . S
C335 H325 0.930 . S
C335 C328 1.409 . S
C335 C334 1.362 . S
H336 C342 0.930 . S
H337 C345 0.930 . S
H338 C346 0.930 . S
H339 C347 0.930 . S
H340 C350 0.930 . S
H341 C351 0.930 . S
C342 H336 0.930 . S
C342 C343 1.355 . S
C342 C344 1.415 . S
C343 C342 1.355 . S
C343 C345 1.419 . S
C344 C342 1.415 . S
C344 C349 1.425 . S
C344 C351 1.409 . S
C345 H337 0.930 . S
C345 C343 1.419 . S
C345 C346 1.362 . S
C346 H338 0.930 . S
C346 C345 1.362 . S
C346 C349 1.409 . S
C347 H339 0.930 . S
C347 C348 1.355 . S
C347 C349 1.415 . S
C348 C347 1.355 . S
C348 C350 1.419 . S
C349 C344 1.425 . S
C349 C346 1.409 . S
C349 C347 1.415 . S
C350 H340 0.930 . S
C350 C348 1.419 . S
C350 C351 1.362 . S
C351 H341 0.930 . S
C351 C344 1.409 . S
C351 C350 1.362 . S
H352 C358 0.930 . S
H353 C361 0.930 . S
H354 C362 0.930 . S
H355 C363 0.930 . S
H356 C366 0.930 . S
H357 C367 0.930 . S
C358 H352 0.930 . S
C358 C359 1.355 . S
C358 C360 1.415 . S
C359 C358 1.355 . S
C359 C361 1.419 . S
C360 C358 1.415 . S
C360 C365 1.425 . S
C360 C367 1.409 . S
C361 H353 0.930 . S
C361 C359 1.419 . S
C361 C362 1.362 . S
C362 H354 0.930 . S
C362 C361 1.362 . S
C362 C365 1.409 . S
C363 H355 0.930 . S
C363 C364 1.355 . S
C363 C365 1.415 . S
C364 C363 1.355 . S
C364 C366 1.419 . S
C365 C360 1.425 . S
C365 C362 1.409 . S
C365 C363 1.415 . S
C366 H356 0.930 . S
C366 C364 1.419 . S
C366 C367 1.362 . S
C367 H357 0.930 . S
C367 C360 1.409 . S
C367 C366 1.362 . S
H368 C374 0.930 . S
H369 C377 0.930 . S
H370 C378 0.930 . S
H371 C379 0.930 . S
H372 C382 0.940 . S
H373 C383 0.930 . S
C374 H368 0.930 . S
C374 C375 1.355 . S
C374 C376 1.415 . S
C375 C374 1.355 . S
C375 C377 1.419 . S
C376 C374 1.415 . S
C376 C381 1.425 . S
C376 C383 1.409 . S
C377 H369 0.930 . S
C377 C375 1.419 . S
C377 C378 1.362 . S
C378 H370 0.930 . S
C378 C377 1.362 . S
C378 C381 1.409 . S
C379 H371 0.930 . S
C379 C380 1.355 . S
C379 C381 1.415 1_565 S
C380 C379 1.355 . S
C380 C382 1.432 . S
C381 C376 1.425 . S
C381 C378 1.409 . S
C381 C379 1.415 1_545 S
C382 H372 0.940 . S
C382 C380 1.432 . S
C382 C383 1.340 1_565 S
C383 H373 0.930 . S
C383 C376 1.409 . S
C383 C382 1.340 1_545 S
H384 C390 0.930 . S
H385 C393 0.930 . S
H386 C394 0.930 . S
H387 C395 0.930 . S
H388 C398 0.930 . S
H389 C399 0.932 . S
C390 H384 0.930 . S
C390 C391 1.355 . S
C390 C392 1.415 . S
C391 C390 1.355 . S
C391 C393 1.419 . S
C392 C390 1.415 . S
C392 C397 1.425 . S
C392 C399 1.398 1_455 S
C393 H385 0.930 . S
C393 C391 1.419 . S
C393 C394 1.362 . S
C394 H386 0.930 . S
C394 C393 1.362 . S
C394 C397 1.409 . S
C395 H387 0.930 . S
C395 C396 1.355 1_455 S
C395 C397 1.415 . S
C396 C395 1.355 1_655 S
C396 C398 1.419 . S
C397 C392 1.425 . S
C397 C394 1.409 . S
C397 C395 1.415 . S
C398 H388 0.930 . S
C398 C396 1.419 . S
C398 C399 1.371 . S
C399 H389 0.932 . S
C399 C392 1.398 1_655 S
C399 C398 1.371 . S
H400 C406 0.930 . S
H401 C409 0.930 . S
H402 C410 0.930 . S
H403 C411 0.928 1_545 S
H404 C414 0.930 . S
H405 C415 0.930 . S
C406 H400 0.930 . S
C406 C407 1.355 . S
C406 C408 1.415 . S
C407 C406 1.355 . S
C407 C409 1.419 . S
C408 C406 1.415 . S
C408 C413 1.425 . S
C408 C415 1.409 . S
C409 H401 0.930 . S
C409 C407 1.419 . S
C409 C410 1.362 . S
C410 H402 0.930 . S
C410 C409 1.362 . S
C410 C413 1.409 . S
C411 H403 0.928 1_565 S
C411 C412 1.355 1_565 S
C411 C413 1.415 . S
C412 C411 1.355 1_545 S
C412 C414 1.419 . S
C413 C408 1.425 . S
C413 C410 1.409 . S
C413 C411 1.415 . S
C414 H404 0.930 . S
C414 C412 1.419 . S
C414 C415 1.362 1_545 S
C415 H405 0.930 . S
C415 C408 1.409 . S
C415 C414 1.362 1_565 S
H416 C422 0.930 . S
H417 C425 0.930 . S
H418 C426 0.930 . S
H419 C427 0.930 . S
H420 C430 0.930 . S
H421 C431 0.930 . S
C422 H416 0.930 . S
C422 C423 1.355 . S
C422 C424 1.415 1_455 S
C423 C422 1.355 . S
C423 C425 1.419 1_455 S
C424 C422 1.415 1_655 S
C424 C429 1.425 . S
C424 C431 1.409 . S
C425 H417 0.930 . S
C425 C423 1.419 1_655 S
C425 C426 1.362 . S
C426 H418 0.930 . S
C426 C425 1.362 . S
C426 C429 1.409 . S
C427 H419 0.930 . S
C427 C428 1.355 . S
C427 C429 1.415 . S
C428 C427 1.355 . S
C428 C430 1.419 . S
C429 C424 1.425 . S
C429 C426 1.409 . S
C429 C427 1.415 . S
C430 H420 0.930 . S
C430 C428 1.419 . S
C430 C431 1.362 . S
C431 H421 0.930 . S
C431 C424 1.409 . S
C431 C430 1.362 . S
H432 C438 0.930 . S
H433 C441 0.930 1_556 S
H434 C442 0.930 . S
H435 C443 0.930 . S
H436 C446 0.930 . S
H437 C447 0.930 . S
C438 H432 0.930 . S
C438 C439 1.355 . S
C438 C440 1.415 . S
C439 C438 1.355 . S
C439 C441 1.419 . S
C440 C438 1.415 . S
C440 C445 1.425 . S
C440 C447 1.409 . S
C441 H433 0.930 1_554 S
C441 C439 1.419 . S
C441 C442 1.362 . S
C442 H434 0.930 . S
C442 C441 1.362 . S
C442 C445 1.409 . S
C443 H435 0.930 . S
C443 C444 1.355 . S
C443 C445 1.415 . S
C444 C443 1.355 . S
C444 C446 1.419 . S
C445 C440 1.425 . S
C445 C442 1.409 . S
C445 C443 1.415 . S
C446 H436 0.930 . S
C446 C444 1.419 . S
C446 C447 1.362 . S
C447 H437 0.930 . S
C447 C440 1.409 . S
C447 C446 1.362 . S
H448 C454 0.930 . S
H449 C457 0.930 . S
H450 C458 0.930 . S
H451 C459 0.930 . S
H452 C462 0.930 . S
H453 C463 0.930 . S
C454 H448 0.930 . S
C454 C455 1.355 . S
C454 C456 1.415 . S
C455 C454 1.355 . S
C455 C457 1.419 . S
C456 C454 1.415 . S
C456 C461 1.425 . S
C456 C463 1.409 . S
C457 H449 0.930 . S
C457 C455 1.419 . S
C457 C458 1.362 . S
C458 H450 0.930 . S
C458 C457 1.362 . S
C458 C461 1.409 . S
C459 H451 0.930 . S
C459 C460 1.355 . S
C459 C461 1.415 . S
C460 C459 1.355 . S
C460 C462 1.419 . S
C461 C456 1.425 . S
C461 C458 1.409 . S
C461 C459 1.415 . S
C462 H452 0.930 . S
C462 C460 1.419 . S
C462 C463 1.362 . S
C463 H453 0.930 . S
C463 C456 1.409 . S
C463 C462 1.362 . S
H464 C470 0.930 . S
H465 C473 0.930 . S
H466 C474 0.930 . S
H467 C475 0.930 . S
H468 C478 0.930 . S
H469 C479 0.930 . S
C470 H464 0.930 . S
C470 C471 1.355 . S
C470 C472 1.415 . S
C471 C470 1.355 . S
C471 C473 1.419 . S
C472 C470 1.415 . S
C472 C477 1.425 . S
C472 C479 1.409 . S
C473 H465 0.930 . S
C473 C471 1.419 . S
C473 C474 1.362 . S
C474 H466 0.930 . S
C474 C473 1.362 . S
C474 C477 1.409 . S
C475 H467 0.930 . S
C475 C476 1.355 . S
C475 C477 1.415 . S
C476 C475 1.355 . S
C476 C478 1.419 . S
C477 C472 1.425 . S
C477 C474 1.409 . S
C477 C475 1.415 . S
C478 H468 0.930 . S
C478 C476 1.419 . S
C478 C479 1.362 . S
C479 H469 0.930 . S
C479 C472 1.409 . S
C479 C478 1.362 . S
H480 C486 0.930 . S
H481 C489 0.930 . S
H482 C490 0.930 . S
H483 C491 0.930 . S
H484 C494 0.930 . S
H485 C495 0.930 . S
C486 H480 0.930 . S
C486 C487 1.355 . S
C486 C488 1.415 . S
C487 C486 1.355 . S
C487 C489 1.419 . S
C488 C486 1.415 . S
C488 C493 1.425 . S
C488 C495 1.409 . S
C489 H481 0.930 . S
C489 C487 1.419 . S
C489 C490 1.362 . S
C490 H482 0.930 . S
C490 C489 1.362 . S
C490 C493 1.409 . S
C491 H483 0.930 . S
C491 C492 1.355 . S
C491 C493 1.415 . S
C492 C491 1.355 . S
C492 C494 1.419 . S
C493 C488 1.425 . S
C493 C490 1.409 . S
C493 C491 1.415 . S
C494 H484 0.930 . S
C494 C492 1.419 . S
C494 C495 1.362 . S
C495 H485 0.930 . S
C495 C488 1.409 . S
C495 C494 1.362 . S
H496 C502 0.930 . S
H497 C505 0.930 . S
H498 C506 0.930 . S
H499 C507 0.930 . S
H500 C510 0.930 . S
H501 C511 0.930 . S
C502 H496 0.930 . S
C502 C503 1.355 . S
C502 C504 1.415 . S
C503 C502 1.355 . S
C503 C505 1.419 . S
C504 C502 1.415 . S
C504 C509 1.425 . S
C504 C511 1.409 . S
C505 H497 0.930 . S
C505 C503 1.419 . S
C505 C506 1.362 . S
C506 H498 0.930 . S
C506 C505 1.362 . S
C506 C509 1.409 . S
C507 H499 0.930 . S
C507 C508 1.355 . S
C507 C509 1.415 . S
C508 C507 1.355 . S
C508 C510 1.419 . S
C509 C504 1.425 . S
C509 C506 1.409 . S
C509 C507 1.415 . S
C510 H500 0.930 . S
C510 C508 1.419 . S
C510 C511 1.362 . S
C511 H501 0.930 . S
C511 C504 1.409 . S
C511 C510 1.362 . S
H512 C518 0.930 . S
H513 C521 0.930 . S
H514 C522 0.930 . S
H515 C523 0.930 . S
H516 C526 0.930 . S
H517 C527 0.930 . S
C518 H512 0.930 . S
C518 C519 1.355 . S
C518 C520 1.415 . S
C519 C518 1.355 . S
C519 C521 1.419 . S
C520 C518 1.415 . S
C520 C525 1.425 . S
C520 C527 1.409 . S
C521 H513 0.930 . S
C521 C519 1.419 . S
C521 C522 1.362 . S
C522 H514 0.930 . S
C522 C521 1.362 . S
C522 C525 1.409 . S
C523 H515 0.930 . S
C523 C524 1.355 . S
C523 C525 1.415 . S
C524 C523 1.355 . S
C524 C526 1.419 . S
C525 C520 1.425 . S
C525 C522 1.409 . S
C525 C523 1.415 . S
C526 H516 0.930 . S
C526 C524 1.419 . S
C526 C527 1.362 . S
C527 H517 0.930 . S
C527 C520 1.409 . S
C527 C526 1.362 . S
H528 C534 0.930 . S
H529 C537 0.930 . S
H530 C538 0.930 . S
H531 C539 0.930 . S
H532 C542 0.930 . S
H533 C543 0.930 . S
C534 H528 0.930 . S
C534 C535 1.355 . S
C534 C536 1.415 . S
C535 C534 1.355 . S
C535 C537 1.419 . S
C536 C534 1.415 . S
C536 C541 1.425 . S
C536 C543 1.409 . S
C537 H529 0.930 . S
C537 C535 1.419 . S
C537 C538 1.362 . S
C538 H530 0.930 . S
C538 C537 1.362 . S
C538 C541 1.409 . S
C539 H531 0.930 . S
C539 C540 1.355 . S
C539 C541 1.415 . S
C540 C539 1.355 . S
C540 C542 1.419 . S
C541 C536 1.425 . S
C541 C538 1.409 . S
C541 C539 1.415 . S
C542 H532 0.930 . S
C542 C540 1.419 . S
C542 C543 1.362 . S
C543 H533 0.930 . S
C543 C536 1.409 . S
C543 C542 1.362 . S
H544 C550 0.930 . S
H545 C553 0.930 . S
H546 C554 0.930 . S
H547 C555 0.930 . S
H548 C558 0.930 . S
H549 C559 0.930 . S
C550 H544 0.930 . S
C550 C551 1.355 . S
C550 C552 1.415 . S
C551 C550 1.355 . S
C551 C553 1.419 . S
C552 C550 1.415 . S
C552 C557 1.425 . S
C552 C559 1.409 . S
C553 H545 0.930 . S
C553 C551 1.419 . S
C553 C554 1.362 . S
C554 H546 0.930 . S
C554 C553 1.362 . S
C554 C557 1.409 . S
C555 H547 0.930 . S
C555 C556 1.355 . S
C555 C557 1.415 . S
C556 C555 1.355 . S
C556 C558 1.419 . S
C557 C552 1.425 . S
C557 C554 1.409 . S
C557 C555 1.415 . S
C558 H548 0.930 . S
C558 C556 1.419 . S
C558 C559 1.362 . S
C559 H549 0.930 . S
C559 C552 1.409 . S
C559 C558 1.362 . S
C183 C7 1.235 . S
C188 C119 1.253 . S
C199 C29 1.238 . S
C204 C140 1.249 . S
C215 C50 1.152 . S
C220 C163 1.231 . S
C231 C92 1.229 . S
C236 C73 1.151 . S
C247 C114 1.227 . S
C252 C97 1.153 . S
C263 C138 1.244 . S
C268 C115 1.226 . S
C279 C158 1.253 . S
C284 C137 1.240 . S
C295 C159 1.160 . S
C300 C95 1.234 . S
C311 C139 1.236 . S
C316 C75 1.248 . S
C327 C161 1.149 . S
C332 C8 1.228 . S
C343 C31 1.227 . S
C348 C94 1.161 . S
C359 C48 1.227 . S
C364 C117 1.153 . S
C375 C70 1.250 . S
C380 C53 1.214 . S
C391 C6 1.252 . S
C396 C71 1.241 . S
C407 C26 1.253 . S
C412 C5 1.238 . S
C423 C27 1.155 . S
C428 C51 1.232 . S
C439 C96 1.432 1_554 S
C444 C9 1.430 . S
C455 C116 1.471 1_556 S
C460 C30 1.463 . S
C471 C49 1.454 . S
C476 C136 1.463 1_554 S
C487 C74 1.478 . S
C492 C160 1.483 1_556 S
C503 C52 1.470 . S
C508 C141 1.461 . S
C519 C72 1.485 . S
C524 C162 1.484 . S
C535 C93 1.437 . S
C540 C4 1.444 . S
C551 C118 1.431 . S
C556 C28 1.435 . S
