# Generated by pormake.
# Topology rkf, (6)-cn, num edge types: 1
# Building blocks:
#     Node 0, Type 0, BuildingBlock: PAMTUU_clean_sbu_0, # of connection points: 6
#     Node 1, Type 0, BuildingBlock: PAMTUU_clean_sbu_0, # of connection points: 6
#     Node 2, Type 0, BuildingBlock: PAMTUU_clean_sbu_0, # of connection points: 6
#     Node 3, Type 0, BuildingBlock: PAMTUU_clean_sbu_0, # of connection points: 6
#     Node 4, Type 0, BuildingBlock: PAMTUU_clean_sbu_0, # of connection points: 6
#     Node 5, Type 0, BuildingBlock: PAMTUU_clean_sbu_0, # of connection points: 6
#     Edge 6, Type (0, 0), BuildingBlock: XUDNAN_clean_linker_2, # of connection points: 2
#     Edge 7, Type (0, 0), BuildingBlock: XUDNAN_clean_linker_2, # of connection points: 2
#     Edge 8, Type (0, 0), BuildingBlock: XUDNAN_clean_linker_2, # of connection points: 2
#     Edge 9, Type (0, 0), BuildingBlock: XUDNAN_clean_linker_2, # of connection points: 2
#     Edge 10, Type (0, 0), BuildingBlock: XUDNAN_clean_linker_2, # of connection points: 2
#     Edge 11, Type (0, 0), BuildingBlock: XUDNAN_clean_linker_2, # of connection points: 2
#     Edge 12, Type (0, 0), BuildingBlock: XUDNAN_clean_linker_2, # of connection points: 2
#     Edge 13, Type (0, 0), BuildingBlock: XUDNAN_clean_linker_2, # of connection points: 2
#     Edge 14, Type (0, 0), BuildingBlock: XUDNAN_clean_linker_2, # of connection points: 2
#     Edge 15, Type (0, 0), BuildingBlock: XUDNAN_clean_linker_2, # of connection points: 2
#     Edge 16, Type (0, 0), BuildingBlock: XUDNAN_clean_linker_2, # of connection points: 2
#     Edge 17, Type (0, 0), BuildingBlock: XUDNAN_clean_linker_2, # of connection points: 2
#     Edge 18, Type (0, 0), BuildingBlock: XUDNAN_clean_linker_2, # of connection points: 2
#     Edge 19, Type (0, 0), BuildingBlock: XUDNAN_clean_linker_2, # of connection points: 2
#     Edge 20, Type (0, 0), BuildingBlock: XUDNAN_clean_linker_2, # of connection points: 2
#     Edge 21, Type (0, 0), BuildingBlock: XUDNAN_clean_linker_2, # of connection points: 2
#     Edge 22, Type (0, 0), BuildingBlock: XUDNAN_clean_linker_2, # of connection points: 2
#     Edge 23, Type (0, 0), BuildingBlock: XUDNAN_clean_linker_2, # of connection points: 2
# Relax obj value: 0.803
# Max RMSD: 0.265
# Mean RMSD: 0.265
data_MOF--net-rkf--node1-PAMTUU_clean_sbu_0--edge1-XUDNAN_clean_linker_2
_symmetry_space_group_name_H-M    P1
_symmetry_Int_Tables_number       1
_symmetry_cell_setting            triclinic
loop_
_symmetry_equiv_pos_as_xyz
'x, y, z'
_cell_length_a     25.780175
_cell_length_b     25.365827
_cell_length_c     43.950997
_cell_angle_alpha  91.039973
_cell_angle_beta   88.55891
_cell_angle_gamma 119.72832
loop_
_atom_site_label
_atom_site_type_symbol
_atom_site_fract_x
_atom_site_fract_y
_atom_site_fract_z
_atom_type_partial_charge
Tb0 Tb 0.14189 0.92147 0.15374 0.0
Tb1 Tb 0.23614 0.06235 1.13634 0.0
C2 C 0.2791 0.96826 1.14404 0.0
C3 C 0.01708 0.79862 0.19196 0.0
C4 C 0.96896 0.82874 0.24258 0.0
C5 C 0.00678 0.80405 0.24647 0.0
C6 C 0.03015 0.78845 0.22128 0.0
C7 C 0.96994 0.81091 0.18836 0.0
C8 C 0.94616 0.8262 0.21361 0.0
C9 C 0.06306 0.81551 0.16768 0.0
O10 O 0.1726 0.96701 0.19918 0.0
O11 O 0.2246 0.06837 0.18631 0.0
O12 O 0.14557 0.04156 1.13085 0.0
O13 O 0.10367 0.97658 0.16951 0.0
O14 O 0.30995 0.12757 1.11077 0.0
O15 O 0.26514 0.15365 1.14519 0.0
O16 O 0.20623 0.01569 1.09127 0.0
O17 O 0.122 0.92758 1.1058 0.0
O18 O 0.22477 0.92336 1.13914 0.0
O19 O 0.28897 0.02297 0.15051 0.0
C20 C 0.20045 0.02558 0.20724 0.0
O21 O 0.05839 0.8456 1.14518 0.0
O22 O 0.11826 0.84054 0.17683 0.0
C23 C 0.11084 0.02417 0.1549 0.0
C24 C 0.31446 0.22297 1.10552 0.0
C25 C 0.33424 0.3284 1.07552 0.0
C26 C 0.27674 0.28638 1.0863 0.0
C27 C 0.26686 0.23388 1.10107 0.0
C28 C 0.3717 0.26459 1.09456 0.0
C29 C 0.38152 0.3168 1.07952 0.0
C30 C 0.30708 0.17238 1.12427 0.0
C31 C 0.15597 0.96518 1.08425 0.0
H32 H 0.0249 0.80416 0.26843 0.0
H33 H 0.06488 0.77702 0.22475 0.0
H34 H 0.95685 0.81652 0.16594 0.0
H35 H 0.91497 0.84233 0.21004 0.0
H36 H 0.2393 0.29371 1.08296 0.0
H37 H 0.22233 0.20242 1.10939 0.0
H38 H 0.40907 0.25723 1.09813 0.0
H39 H 0.42621 0.34852 1.07135 0.0
Tb40 Tb 0.22201 0.30293 0.46614 0.0
Tb41 Tb 0.24668 0.2008 0.49298 0.0
C42 C 0.35249 0.33778 0.48287 0.0
C43 C 0.15547 0.39253 0.43368 0.0
C44 C 0.07186 0.41034 0.40231 0.0
C45 C 0.11912 0.45901 0.41747 0.0
C46 C 0.16051 0.45005 0.4331 0.0
C47 C 0.10885 0.34381 0.41836 0.0
C48 C 0.06723 0.35264 0.40278 0.0
C49 C 0.19669 0.38373 0.45228 0.0
O50 O 0.22476 0.25613 0.42266 0.0
O51 O 0.22449 0.17475 0.44469 0.0
O52 O 0.1509 0.1683 0.49897 0.0
O53 O 0.14351 0.21804 0.45859 0.0
O54 O 0.29741 0.15888 0.48261 0.0
O55 O 0.23335 0.12723 0.51991 0.0
O56 O 0.22751 0.23006 0.53703 0.0
O57 O 0.21246 0.30501 0.51762 0.0
O58 O 0.31747 0.34854 0.46644 0.0
O59 O 0.33216 0.2867 0.498 0.0
C60 C 0.22287 0.20288 0.41998 0.0
O61 O 0.17219 0.3463 0.47485 0.0
O62 O 0.2375 0.37604 0.43813 0.0
C63 C 0.11846 0.18052 0.48093 0.0
C64 C 0.323 0.12654 0.52649 0.0
C65 C 0.401 0.13457 0.57218 0.0
C66 C 0.34937 0.07885 0.5656 0.0
C67 C 0.31085 0.07496 0.54292 0.0
C68 C 0.37645 0.18121 0.53135 0.0
C69 C 0.41539 0.18507 0.55391 0.0
C70 C 0.27736 0.12411 0.50643 0.0
C71 C 0.21282 0.27258 0.54123 0.0
H72 H 0.12354 0.50376 0.41763 0.0
H73 H 0.19601 0.48792 0.44515 0.0
H74 H 0.10444 0.29907 0.41871 0.0
H75 H 0.0318 0.31453 0.39086 0.0
H76 H 0.33585 0.03914 0.57949 0.0
H77 H 0.26983 0.03249 0.53941 0.0
H78 H 0.38681 0.22165 0.51873 0.0
H79 H 0.45489 0.2284 0.55823 0.0
Tb80 Tb 0.08919 0.34947 0.82637 0.0
Tb81 Tb -0.01214 0.21135 0.81519 0.0
C82 C 0.96722 0.32146 0.80576 0.0
C83 C 0.21246 0.48218 0.86071 0.0
C84 C 0.29041 0.51981 0.91024 0.0
C85 C 0.26825 0.55689 0.89978 0.0
C86 C 0.22939 0.53808 0.8751 0.0
C87 C 0.23612 0.44637 0.87056 0.0
C88 C 0.27431 0.46475 0.89496 0.0
C89 C 0.16705 0.45805 0.83705 0.0
O90 O 0.03336 0.31678 0.86962 0.0
O91 O -0.00394 0.21447 0.86511 0.0
O92 O 0.07037 0.20987 0.82314 0.0
O93 O 0.12532 0.30049 0.84839 0.0
O94 O 0.90366 0.14012 0.82847 0.0
O95 O 0.953 0.12853 0.79126 0.0
O96 O 0.02279 0.24355 0.76825 0.0
O97 O 0.11266 0.3257 0.78093 0.0
O98 O 0.02343 0.35087 0.79797 0.0
O99 O 0.94527 0.26799 0.81829 0.0
C100 C 0.00648 0.26177 0.88223 0.0
O101 O 0.17372 0.42355 0.81685 0.0
O102 O 0.11172 0.43394 0.8467 0.0
C103 C 0.11642 0.24748 0.83959 0.0
C104 C 0.84817 0.08225 0.78732 0.0
C105 C 0.74277 0.04202 0.75424 0.0
C106 C 0.79764 0.08918 0.74306 0.0
C107 C 0.84973 0.1094 0.75954 0.0
C108 C 0.79373 0.0353 0.79862 0.0
C109 C 0.7414 0.01536 0.78226 0.0
C110 C 0.90184 0.1057 0.80581 0.0
C111 C 0.07774 0.28569 0.76034 0.0
H112 H 0.27955 0.59935 0.91118 0.0
H113 H 0.21127 0.56618 0.86784 0.0
H114 H 0.22353 0.40281 0.86008 0.0
H115 H 0.28834 0.43362 0.90281 0.0
H116 H 0.80069 0.10989 0.72127 0.0
H117 H 0.89118 0.14638 0.75061 0.0
H118 H 0.79161 0.01457 0.8203 0.0
H119 H 0.69985 0.97936 0.79165 0.0
Tb120 Tb 0.80698 0.03529 0.15047 0.0
Tb121 Tb 0.77788 0.14164 0.16293 0.0
C122 C 0.6844 0.02424 1.13632 0.0
C123 C 0.78239 0.88506 1.12627 0.0
C124 C 0.7009 0.77278 1.09994 0.0
C125 C 0.72345 0.77495 1.12898 0.0
C126 C 0.76395 0.83073 1.14203 0.0
C127 C 0.76053 0.88291 1.09714 0.0
C128 C 0.7207 0.82741 1.08403 0.0
C129 C 0.81946 0.94352 1.14163 0.0
O130 O 0.82042 0.07634 1.10438 0.0
O131 O 0.83251 0.16858 1.1198 0.0
O132 O 0.85849 0.17323 0.18776 0.0
O133 O 0.89166 0.11664 0.16091 0.0
O134 O 0.70841 0.15908 0.17486 0.0
O135 O 0.79685 0.23215 0.16335 0.0
O136 O 0.74903 0.08254 0.20474 0.0
O137 O 0.81173 0.04374 0.2004 0.0
O138 O 0.70926 -0.00271 0.1501 0.0
O139 O 0.71797 0.08098 1.12935 0.0
C140 C 0.83819 0.13395 1.09833 0.0
O141 O 0.84518 0.99196 1.12475 0.0
O142 O 0.79483 0.95214 0.16591 0.0
C143 C 0.90096 0.16243 0.17906 0.0
C144 C 0.74713 0.24858 0.20403 0.0
C145 C 0.78113 0.3185 0.25782 0.0
C146 C 0.76969 0.25812 0.2576 0.0
C147 C 0.75282 0.22363 0.23104 0.0
C148 C 0.75384 0.30688 0.20442 0.0
C149 C 0.77035 0.34156 0.23125 0.0
C150 C 0.74457 0.21773 0.17517 0.0
C151 C 0.77564 0.05495 0.2174 0.0
H152 H 0.70933 0.73372 1.14172 0.0
H153 H 0.77995 0.8316 0.1647 0.0
H154 H 0.77359 0.92409 1.08455 0.0
H155 H 0.706 0.82745 1.06117 0.0
H156 H 0.77861 0.23869 0.27715 0.0
H157 H 0.74851 0.17894 0.23116 0.0
H158 H 0.74981 0.32684 0.18366 0.0
H159 H 0.778 0.38754 0.23069 0.0
Tb160 Tb 0.66896 0.82398 0.49624 0.0
Tb161 Tb 0.80744 0.8703 0.48455 0.0
C162 C 0.70887 0.73774 0.47378 0.0
C163 C 0.52947 0.78287 0.53594 0.0
C164 C 0.50487 0.82079 0.59231 0.0
C165 C 0.48026 0.82782 0.56549 0.0
C166 C 0.49271 0.80914 0.53745 0.0
C167 C 0.54799 0.76935 0.56302 0.0
C168 C 0.53583 0.78808 0.59089 0.0
C169 C 0.55943 0.78307 0.50701 0.0
O170 O 0.69874 0.79704 0.53835 0.0
O171 O 0.79863 0.86384 0.53388 0.0
O172 O 0.79116 0.9465 0.48775 0.0
O173 O 0.71417 0.90711 0.52204 0.0
O174 O 0.88293 0.8772 0.46129 0.0
O175 O 0.89095 0.92433 0.50382 0.0
O176 O 0.78128 0.88173 0.43848 0.0
O177 O 0.69075 0.87387 0.45179 0.0
O178 O 0.68172 0.76587 0.4644 0.0
O179 O 0.75971 0.7702 0.48774 0.0
C180 C 0.75298 0.82494 0.5503 0.0
O181 O 0.59493 0.83726 0.49628 0.0
O182 O 0.58435 0.74899 0.50563 0.0
C183 C 0.75938 0.95368 0.50946 0.0
C184 C 0.96305 0.9769 0.46677 0.0
C185 C 0.0407 0.06244 0.42542 0.0
C186 C -0.01701 0.05428 0.42979 0.0
C187 C 0.94341 0.00978 0.44984 0.0
C188 C 0.02432 -0.0024 0.46851 0.0
C189 C 0.06394 0.04298 0.44864 0.0
C190 C 0.91929 0.91896 0.48024 0.0
C191 C 0.73495 0.88787 0.43139 0.0
H192 H 0.45544 0.85197 0.56589 0.0
H193 H 0.478 0.81997 0.51678 0.0
H194 H 0.57667 0.74938 0.56261 0.0
H195 H 0.55626 0.78226 0.61083 0.0
H196 H 0.96463 0.07185 0.41347 0.0
H197 H 0.89651 -0.00337 0.44963 0.0
H198 H 0.04063 0.97478 0.48278 0.0
H199 H 0.10946 0.0516 0.44686 0.0
Tb200 Tb 0.00038 0.80742 0.80236 0.0
Tb201 Tb 0.86652 0.76941 0.82984 0.0
C202 C 0.9103 0.67131 0.82017 0.0
C203 C 0.1632 0.89175 0.77496 0.0
C204 C 0.27229 0.98567 0.75247 0.0
C205 C 0.26983 0.93529 0.76655 0.0
C206 C 0.21566 0.88878 0.77776 0.0
C207 C 0.16539 0.94264 0.76174 0.0
C208 C 0.21979 0.98946 0.75051 0.0
C209 C 0.1079 0.84206 0.78749 0.0
O210 O 0.94666 0.78728 0.7611 0.0
O211 O 0.86612 0.7928 0.78096 0.0
O212 O 0.92306 0.86554 0.83897 0.0
O213 O -0.01638 0.88161 0.79818 0.0
O214 O 0.77522 0.70802 0.82438 0.0
O215 O 0.80451 0.78338 0.85554 0.0
O216 O 0.91577 0.7831 0.87325 0.0
O217 O 0.01007 0.82448 0.85174 0.0
O218 O 0.96238 0.71221 0.80947 0.0
O219 O 0.86921 0.68422 0.83002 0.0
C220 C 0.89722 0.78988 0.75713 0.0
O221 O 0.0906 0.85288 0.81367 0.0
O222 O 0.06326 0.8118 0.76936 0.0
C223 C 0.96996 0.90221 0.82261 0.0
C224 C 0.72072 0.6914 0.86972 0.0
C225 C 0.6498 0.62056 0.91874 0.0
C226 C 0.62442 0.6378 0.89564 0.0
C227 C 0.65983 0.67328 0.87132 0.0
C228 C 0.74515 0.67056 0.89134 0.0
C229 C 0.71012 0.63563 0.91568 0.0
C230 C 0.75929 0.733 0.846 0.0
C231 C 0.97486 0.81194 0.87607 0.0
H232 H 0.3096 0.9313 0.76822 0.0
H233 H 0.2146 0.85 0.78838 0.0
H234 H 0.12517 0.94564 0.7597 0.0
H235 H 0.22039 0.02741 0.73925 0.0
H236 H 0.57802 0.62644 0.89717 0.0
H237 H 0.6402 0.68827 0.8544 0.0
H238 H 0.79205 0.68358 0.89012 0.0
H239 H 0.73175 0.62431 0.93316 0.0
H240 H 0.00448 0.23566 0.15134 0.0
H241 H 0.92455 0.15775 0.23793 0.0
H242 H 0.01522 0.15731 0.25229 0.0
H243 H 0.03938 0.16347 1.12498 0.0
H244 H 0.11562 0.20335 1.11086 0.0
H245 H 0.07663 0.24408 1.11744 0.0
H246 H 0.16039 0.31828 0.15266 0.0
H247 H 0.19933 0.2764 0.14606 0.0
H248 H 0.18234 0.29019 0.18435 0.0
H249 H 0.062 0.09916 0.24175 0.0
H250 H 0.07558 0.02139 0.21461 0.0
H251 H 0.13049 0.13146 1.13351 0.0
C252 C 0.00946 0.22386 0.1742 0.0
C253 C 0.95888 0.19572 0.19333 0.0
C254 C 0.96367 0.17946 0.22307 0.0
C255 C 0.01539 0.17918 0.23134 0.0
C256 C 0.06089 0.19495 0.20941 0.0
C257 C 0.06102 0.22248 0.18213 0.0
C258 C 0.10512 0.22026 0.15938 0.0
C259 C 0.08259 0.20672 1.12629 0.0
C260 C 0.16533 0.27976 0.16073 0.0
C261 C 0.11071 0.16941 0.17325 0.0
C262 C 0.09066 0.15992 0.20331 0.0
C263 C 0.07943 0.10742 0.21867 0.0
C264 C 0.08568 0.06259 0.20281 0.0
C265 C 0.1031 0.07043 0.17176 0.0
C266 C 0.11769 0.12519 0.15733 0.0
H267 H 0.82152 -0.00297 0.55999 0.0
H268 H 0.75332 0.04559 0.48346 0.0
H269 H 0.84497 0.14346 0.48006 0.0
H270 H 0.94974 0.1814 0.57817 0.0
H271 H 0.00161 0.15697 0.58821 0.0
H272 H 0.92498 0.11552 0.6018 0.0
H273 H 0.91118 0.01573 0.57899 0.0
H274 H -0.012 0.05466 0.56734 0.0
H275 H 0.93156 0.0136 0.53954 0.0
H276 H 0.94563 0.1878 0.46367 0.0
H277 H 0.04317 0.202 0.448 0.0
H278 H 0.05716 0.12919 0.53399 0.0
C279 C 0.82449 0.03148 0.54472 0.0
C280 C 0.78211 0.01466 0.52171 0.0
C281 C 0.78586 0.05844 0.50127 0.0
C282 C 0.83837 0.11416 0.49909 0.0
C283 C 0.8856 0.12473 0.51779 0.0
C284 C 0.87803 0.08677 0.54202 0.0
C285 C 0.93834 0.09996 0.55379 0.0
C286 C 0.95449 0.14085 0.58221 0.0
C287 C 0.94234 0.04248 0.56021 0.0
C288 C 0.97778 0.13559 0.52729 0.0
C289 C 0.94759 0.15333 0.50806 0.0
C290 C 0.97071 0.1772 0.47941 0.0
C291 C 0.02583 0.18389 0.47041 0.0
C292 C 0.05766 0.16653 0.48986 0.0
C293 C 0.0336 0.14278 0.51877 0.0
H294 H 0.07757 0.98143 0.79827 0.0
H295 H 0.97202 0.94099 0.88149 0.0
H296 H 0.05334 0.03002 0.90598 0.0
H297 H 0.23836 0.08487 0.84505 0.0
H298 H 0.26568 0.13125 0.81149 0.0
H299 H 0.22142 0.04982 0.808 0.0
H300 H 0.15107 0.06383 0.77295 0.0
H301 H 0.19339 0.14415 0.77729 0.0
H302 H 0.11433 0.10481 0.78655 0.0
H303 H 0.11941 0.13417 0.91474 0.0
H304 H 0.12056 0.22642 0.89892 0.0
H305 H 0.18523 0.21165 0.80985 0.0
C306 C 0.07286 0.99067 0.82198 0.0
C307 C 0.01849 0.95536 0.83775 0.0
C308 C 0.01299 0.96832 0.86864 0.0
C309 C 0.05994 0.01797 0.88305 0.0
C310 C 0.11229 0.05478 0.86635 0.0
C311 C 0.11926 0.04078 0.83636 0.0
C312 C 0.17005 0.09472 0.82065 0.0
C313 C 0.22723 0.0899 0.82137 0.0
C314 C 0.15612 0.10232 0.78747 0.0
C315 C 0.17521 0.14418 0.84236 0.0
C316 C 0.15037 0.11976 0.87081 0.0
C317 C 0.13873 0.15336 0.89275 0.0
C318 C 0.13943 0.20605 0.88363 0.0
C319 C 0.1515 0.22354 0.85297 0.0
C320 C 0.17639 0.19748 0.83338 0.0
H321 H 0.39128 0.36632 1.02102 0.0
H322 H 0.29589 0.40891 1.09081 0.0
H323 H 0.30055 0.48984 1.05834 0.0
H324 H 0.48419 0.52018 0.98997 0.0
H325 H 0.47556 0.49523 0.95082 0.0
H326 H 0.47636 0.44748 0.98059 0.0
H327 H 0.3733 0.35891 0.96684 0.0
H328 H 0.37227 0.40205 0.93527 0.0
H329 H 0.31152 0.37252 0.96277 0.0
H330 H 0.29293 0.54529 1.01451 0.0
H331 H 0.26915 0.56467 0.96355 0.0
H332 H 0.38101 0.49818 0.92307 0.0
C333 C 0.3737 0.3945 1.02995 0.0
C334 C 0.34396 0.38219 1.05843 0.0
C335 C 0.31911 0.41806 1.06899 0.0
C336 C 0.32207 0.46441 1.05084 0.0
C337 C 0.35023 0.47428 1.02232 0.0
C338 C 0.37564 0.44021 1.01199 0.0
C339 C 0.39381 0.4518 0.97881 0.0
C340 C 0.4616 0.48037 0.97471 0.0
C341 C 0.36072 0.39287 0.95984 0.0
C342 C 0.37296 0.49635 0.97168 0.0
C343 C 0.34816 0.50909 0.99708 0.0
C344 C 0.31408 0.53767 0.99466 0.0
C345 C 0.30113 0.54906 0.9655 0.0
C346 C 0.3227 0.53221 0.93931 0.0
C347 C 0.36369 0.51122 0.94274 0.0
H348 H 0.9505 0.33769 0.40159 0.0
H349 H 0.09588 0.50357 0.36393 0.0
H350 H 0.02533 0.51274 0.33061 0.0
H351 H 0.88576 0.27598 0.33583 0.0
H352 H 0.8092 0.24067 0.34918 0.0
H353 H 0.8673 0.25598 0.37536 0.0
H354 H 0.83297 0.31798 0.40943 0.0
H355 H 0.77478 0.30317 0.38299 0.0
H356 H 0.82804 0.38021 0.39335 0.0
H357 H 0.94739 0.49046 0.29345 0.0
H358 H 0.87088 0.4373 0.2551 0.0
H359 H 0.77023 0.29015 0.31849 0.0
C360 C 0.96703 0.37679 0.3869 0.0
C361 C 0.02846 0.41999 0.38534 0.0
C362 C 0.04878 0.47042 0.36578 0.0
C363 C 0.00896 0.47612 0.34686 0.0
C364 C 0.94882 0.43164 0.34819 0.0
C365 C 0.92775 0.38326 0.36802 0.0
C366 C 0.86328 0.33695 0.3619 0.0
C367 C 0.85604 0.27375 0.35514 0.0
C368 C 0.82235 0.33447 0.3885 0.0
C369 C 0.85298 0.36431 0.33395 0.0
C370 C 0.90232 0.41973 0.32687 0.0
C371 C 0.9076 0.44825 0.29925 0.0
C372 C 0.86338 0.41767 0.27755 0.0
C373 C 0.81446 0.35907 0.28362 0.0
C374 C 0.80724 0.33465 0.31307 0.0
H375 H 0.65633 0.92366 0.74608 0.0
H376 H 0.70734 0.10725 0.71959 0.0
H377 H 0.62887 0.06662 0.68104 0.0
H378 H 0.63957 0.86429 0.67773 0.0
H379 H 0.57541 0.79111 0.68547 0.0
H380 H 0.62422 0.8339 0.71573 0.0
H381 H 0.53448 0.82874 0.7465 0.0
H382 H 0.48517 0.7856 0.71607 0.0
H383 H 0.48832 0.8547 0.72946 0.0
H384 H 0.57015 0.00869 0.63718 0.0
H385 H 0.5267 0.93778 0.59452 0.0
H386 H 0.50201 0.78954 0.65201 0.0
C387 C 0.64911 0.9554 0.73325 0.0
C388 C 0.68828 0.01858 0.7357 0.0
C389 C 0.67851 0.05858 0.71776 0.0
C390 C 0.63353 0.03593 0.69606 0.0
C391 C 0.59769 0.97324 0.69311 0.0
C392 C 0.60391 0.93347 0.71175 0.0
C393 C 0.56543 0.86837 0.70133 0.0
C394 C 0.60343 0.83772 0.69467 0.0
C395 C 0.51536 0.83223 0.72474 0.0
C396 C 0.54047 0.87815 0.67252 0.0
C397 C 0.55899 0.93892 0.6684 0.0
C398 C 0.55221 0.96059 0.64077 0.0
C399 C 0.52713 0.91964 0.61656 0.0
C400 C 0.51027 0.85768 0.61992 0.0
C401 C 0.51374 0.83641 0.64885 0.0
H402 H 0.60644 0.74756 1.06449 0.0
H403 H 0.70619 0.66738 1.10019 0.0
H404 H 0.66172 0.58539 1.06234 0.0
H405 H 0.47814 0.59672 1.02546 0.0
H406 H 0.48084 0.64079 0.99316 0.0
H407 H 0.49011 0.6724 1.03107 0.0
H408 H 0.59061 0.76507 1.0152 0.0
H409 H 0.58179 0.73567 0.97739 0.0
H410 H 0.6483 0.75321 0.9979 0.0
H411 H 0.63912 0.53687 1.0125 0.0
H412 H 0.65241 0.53699 0.95692 0.0
H413 H 0.58015 0.65794 0.94866 0.0
C414 C 0.61673 0.7111 1.06499 0.0
C415 C 0.66029 0.71423 1.08484 0.0
C416 C 0.67253 0.66577 1.08536 0.0
C417 C 0.64716 0.61871 1.06386 0.0
C418 C 0.60986 0.62087 1.04199 0.0
C419 C 0.59382 0.66564 1.04272 0.0
C420 C 0.56823 0.66925 1.01267 0.0
C421 C 0.50032 0.64322 1.01577 0.0
C422 C 0.59921 0.73459 1.00007 0.0
C423 C 0.58222 0.62755 0.99358 0.0
C424 C 0.60114 0.59606 1.01139 0.0
C425 C 0.62333 0.56042 0.99845 0.0
C426 C 0.63109 0.56102 0.9668 0.0
C427 C 0.61867 0.59875 0.94858 0.0
C428 C 0.58955 0.62831 0.96196 0.0
H429 H 0.04727 0.96586 0.40554 0.0
H430 H 0.05459 0.13048 0.37399 0.0
H431 H 0.03153 0.08637 0.32182 0.0
H432 H 0.09483 0.91513 0.33804 0.0
H433 H 0.03842 0.83785 0.3455 0.0
H434 H 0.07116 0.89058 0.37659 0.0
H435 H 0.96382 0.86356 0.39439 0.0
H436 H 0.93148 0.81425 0.36208 0.0
H437 H 0.91727 0.87626 0.36903 0.0
H438 H -0.00135 0.01757 0.27422 0.0
H439 H 0.97132 0.93761 0.23517 0.0
H440 H 0.96411 0.8137 0.30422 0.0
C441 C 0.04783 0.99471 0.38753 0.0
C442 C 0.05425 0.05239 0.39373 0.0
C443 C 0.05139 0.08686 0.36949 0.0
C444 C 0.03753 0.06178 0.33998 0.0
C445 C 0.02571 0.00216 0.33561 0.0
C446 C 0.03104 0.96946 0.35887 0.0
C447 C 0.00704 0.90365 0.35056 0.0
C448 C 0.05578 0.88578 0.35279 0.0
C449 C 0.95165 0.86204 0.37018 0.0
C450 C -0.00991 0.90456 0.31823 0.0
C451 C 0.00075 0.96144 0.30988 0.0
C452 C -0.00938 0.97309 0.28048 0.0
C453 C 0.97378 0.92675 0.2586 0.0
C454 C 0.96626 0.86922 0.26655 0.0
C455 C 0.97062 0.85731 0.29722 0.0
H456 H 0.33596 0.95835 0.71236 0.0
H457 H 0.32772 0.11003 0.75371 0.0
H458 H 0.40207 0.17894 0.71612 0.0
H459 H 0.49921 0.04959 0.67666 0.0
H460 H 0.47209 0.00222 0.64318 0.0
H461 H 0.44321 0.97059 0.68031 0.0
H462 H 0.33605 0.93299 0.66146 0.0
H463 H 0.36532 0.96394 0.62481 0.0
H464 H 0.31818 0.98684 0.64532 0.0
H465 H 0.44467 0.22176 0.6671 0.0
H466 H 0.43964 0.23009 0.61212 0.0
H467 H 0.42599 0.05402 0.59936 0.0
C468 C 0.35282 0.00672 0.7145 0.0
C469 C 0.32707 0.0293 0.73593 0.0
C470 C 0.34754 0.0922 0.73747 0.0
C471 C 0.39023 0.13163 0.71638 0.0
C472 C 0.41171 0.10734 0.69386 0.0
C473 C 0.39399 0.04605 0.693 0.0
C474 C 0.40959 0.02785 0.66265 0.0
C475 C 0.45906 0.01164 0.666 0.0
C476 C 0.35399 0.97495 0.64772 0.0
C477 C 0.43253 0.08653 0.64538 0.0
C478 C 0.43638 0.13275 0.6642 0.0
C479 C 0.44387 0.18676 0.65234 0.0
C480 C 0.44132 0.1913 0.6208 0.0
C481 C 0.43117 0.1419 0.60153 0.0
C482 C 0.4332 0.09202 0.61378 0.0
H483 H 0.39347 0.05425 1.13117 0.0
H484 H 0.28457 0.86263 0.15131 0.0
H485 H 0.3759 0.85259 0.14966 0.0
H486 H 0.49527 0.04033 1.07833 0.0
H487 H 0.55834 0.11056 1.0907 0.0
H488 H 0.48428 0.10088 1.09318 0.0
H489 H 0.49761 0.12667 0.15084 0.0
H490 H 0.57167 0.13648 0.14853 0.0
H491 H 0.5177 0.08368 0.17537 0.0
H492 H 0.48454 0.8681 0.1493 0.0
H493 H 0.59399 0.90569 0.14724 0.0
H494 H 0.62517 0.08469 1.12396 0.0
C495 C 0.38849 0.00995 1.1352 0.0
C496 C 0.33186 0.95927 1.1416 0.0
C497 C 0.32752 0.90209 0.14632 0.0
C498 C 0.37921 0.89609 0.1455 0.0
C499 C 0.43463 0.94749 1.13942 0.0
C500 C 0.43901 0.00311 1.13401 0.0
C501 C 0.50285 0.05183 1.12791 0.0
C502 C 0.51061 0.07737 1.09561 0.0
C503 C 0.52366 0.10263 0.1521 0.0
C504 C 0.53432 0.01546 1.13094 0.0
C505 C 0.49487 0.95545 1.13783 0.0
C506 C 0.51546 0.91485 1.14345 0.0
C507 C 0.57769 0.93648 1.14219 0.0
C508 C 0.61842 -0.00206 1.13503 0.0
C509 C 0.59569 0.03716 1.12898 0.0
H510 H 0.40752 0.43604 0.44605 0.0
H511 H 0.442 0.35349 0.52282 0.0
H512 H 0.54432 0.44325 0.52608 0.0
H513 H 0.55523 0.50758 0.41124 0.0
H514 H 0.55091 0.57356 0.40057 0.0
H515 H 0.48388 0.50073 0.40324 0.0
H516 H 0.43729 0.5457 0.44134 0.0
H517 H 0.50388 0.61859 0.4386 0.0
H518 H 0.47718 0.58366 0.47526 0.0
H519 H 0.64205 0.55104 0.52274 0.0
H520 H 0.71798 0.65938 0.514 0.0
H521 H 0.61494 0.66428 0.43886 0.0
C522 C 0.43641 0.43589 0.46345 0.0
C523 C 0.41627 0.3873 0.48421 0.0
C524 C 0.45627 0.38984 0.50651 0.0
C525 C 0.5145 0.44079 0.50852 0.0
C526 C 0.5322 0.48851 0.48789 0.0
C527 C 0.49384 0.48575 0.46572 0.0
C528 C 0.52042 0.54328 0.44724 0.0
C529 C 0.52807 0.53049 0.41358 0.0
C530 C 0.48245 0.57463 0.45085 0.0
C531 C 0.58006 0.57968 0.46233 0.0
C532 C 0.58676 0.54797 0.48576 0.0
C533 C 0.63727 0.57551 0.5041 0.0
C534 C 0.68058 0.637 0.49883 0.0
C535 C 0.67294 0.67027 0.47547 0.0
C536 C 0.62274 0.64012 0.45663 0.0
H537 H -0.00338 0.42292 0.77398 0.0
H538 H 0.86701 0.3003 0.83997 0.0
H539 H 0.82945 0.37281 0.84825 0.0
H540 H 0.03742 0.55194 0.81605 0.0
H541 H 0.04997 0.60036 0.78396 0.0
H542 H 0.05813 0.5343 0.77939 0.0
H543 H -0.01912 0.4944 0.7361 0.0
H544 H 0.97317 0.56099 0.74017 0.0
H545 H 0.90811 0.48656 0.74288 0.0
H546 H 0.81561 0.46816 0.85328 0.0
H547 H 0.8266 0.57146 0.85351 0.0
H548 H 0.96869 0.62758 0.78546 0.0
C549 C 0.95907 0.4102 0.78954 0.0
C550 C 0.93446 0.35575 0.80614 0.0
C551 C 0.88593 0.34139 0.8266 0.0
C552 C 0.86463 0.38255 0.83158 0.0
C553 C 0.89219 0.43749 0.8158 0.0
C554 C 0.93807 0.45068 0.79495 0.0
C555 C 0.965 0.51442 0.78299 0.0
C556 C 0.03152 0.55245 0.7911 0.0
C557 C 0.95623 0.51404 0.74849 0.0
C558 C 0.92772 0.53578 0.80045 0.0
C559 C 0.88551 0.49123 0.81919 0.0
C560 C 0.84818 0.50297 0.83839 0.0
C561 C 0.85467 0.56169 0.83842 0.0
C562 C 0.89873 0.60783 0.81968 0.0
C563 C 0.93477 0.59378 0.8003 0.0
H564 H 0.22042 0.13711 0.23405 0.0
H565 H 0.18143 0.9558 0.25806 0.0
H566 H 0.18276 0.98221 0.31242 0.0
H567 H 0.31788 0.2171 0.29761 0.0
H568 H 0.29071 0.26975 0.30365 0.0
H569 H 0.288 0.23797 0.26631 0.0
H570 H 0.17545 0.20009 0.2648 0.0
H571 H 0.17617 0.22965 0.30251 0.0
H572 H 0.12662 0.15054 0.29416 0.0
H573 H 0.18809 0.02708 0.36517 0.0
H574 H 0.19898 0.08601 0.41157 0.0
H575 H 0.22982 0.24068 0.35729 0.0
C576 C 0.21206 0.10276 0.25073 0.0
C577 C 0.20133 0.04378 0.24094 0.0
C578 C 0.18985 0.00089 0.26413 0.0
C579 C 0.19005 0.01552 0.2954 0.0
C580 C 0.20026 0.07324 0.30415 0.0
C581 C 0.21083 0.11635 0.28251 0.0
C582 C 0.22037 0.17503 0.29858 0.0
C583 C 0.28297 0.22812 0.29108 0.0
C584 C 0.17178 0.18973 0.28948 0.0
C585 C 0.21438 0.15849 0.33258 0.0
C586 C 0.20284 0.0993 0.3349 0.0
C587 C 0.19705 0.07336 0.36338 0.0
C588 C 0.20344 0.10795 0.39001 0.0
C589 C 0.21519 0.1691 0.38924 0.0
C590 C 0.2204 0.19433 0.35951 0.0
H591 H 0.15862 0.19244 0.59135 0.0
H592 H 0.2264 0.37977 0.56554 0.0
H593 H 0.20095 0.40201 0.61705 0.0
H594 H 0.03074 0.1798 0.63952 0.0
H595 H 0.03711 0.13022 0.66599 0.0
H596 H 0.06023 0.1315 0.62683 0.0
H597 H 0.16369 0.15397 0.64715 0.0
H598 H 0.13967 0.15641 0.68577 0.0
H599 H 0.20588 0.22059 0.67038 0.0
H600 H 0.17214 0.40623 0.67365 0.0
H601 H 0.13438 0.38991 0.72689 0.0
H602 H 0.07456 0.198 0.71731 0.0
C603 C 0.16841 0.23832 0.59651 0.0
C604 C 0.19585 0.28457 0.5736 0.0
C605 C 0.20616 0.34333 0.58193 0.0
C606 C 0.19172 0.35647 0.61149 0.0
C607 C 0.1652 0.31038 0.63332 0.0
C608 C 0.15262 0.25201 0.62606 0.0
C609 C 0.12203 0.21056 0.65375 0.0
C610 C 0.0588 0.15996 0.646 0.0
C611 C 0.16008 0.18378 0.66492 0.0
C612 C 0.11942 0.25452 0.67759 0.0
C613 C 0.14554 0.31211 0.6653 0.0
C614 C 0.15098 0.36099 0.68307 0.0
C615 C 0.12923 0.35124 0.71363 0.0
C616 C 0.10022 0.29265 0.72698 0.0
C617 C 0.09533 0.24347 0.70819 0.0
H618 H 0.95017 0.15432 0.91823 0.0
H619 H 0.01397 0.34767 0.92428 0.0
H620 H 0.97916 0.33567 0.97788 0.0
H621 H 0.81681 0.1059 0.96628 0.0
H622 H 0.82199 0.0457 0.98458 0.0
H623 H 0.85219 0.06874 0.94663 0.0
H624 H 0.95498 0.08795 0.96419 0.0
H625 H 0.92504 0.06483 1.00219 0.0
H626 H -0.00986 0.13813 0.99599 0.0
H627 H 0.93468 0.30252 1.03216 0.0
H628 H 0.88861 0.25349 1.081 0.0
H629 H 0.85278 0.07978 1.04308 0.0
C630 C 0.9571 0.19448 0.93079 0.0
C631 C -0.01442 0.25262 0.91602 0.0
C632 C -0.00703 0.30291 0.93409 0.0
C633 C 0.97296 0.29627 0.96495 0.0
C634 C 0.94512 0.23886 0.97856 0.0
C635 C 0.93736 0.18863 0.96205 0.0
C636 C 0.90609 0.13203 0.98249 0.0
C637 C 0.84568 0.08531 0.9692 0.0
C638 C 0.94646 0.10406 0.98644 0.0
C639 C 0.89721 0.15802 1.01292 0.0
C640 C 0.92011 0.21987 1.00991 0.0
C641 C 0.9169 0.25416 1.03449 0.0
C642 C 0.89017 0.22537 1.06249 0.0
C643 C 0.86613 0.16197 1.06693 0.0
C644 C 0.87022 0.12808 1.04123 0.0
H645 H 0.8338 0.01034 0.25478 0.0
H646 H 0.68873 0.05061 0.25711 0.0
H647 H 0.66394 0.01323 0.30995 0.0
H648 H 0.76165 0.87316 0.3 0.0
H649 H 0.82749 0.8888 0.32057 0.0
H650 H 0.83476 0.9189 0.28292 0.0
H651 H 0.90362 0.02693 0.30344 0.0
H652 H 0.89644 -0.003 0.34115 0.0
H653 H 0.87812 0.05579 0.3347 0.0
H654 H 0.65126 0.96686 0.36328 0.0
H655 H 0.65543 0.92267 0.41207 0.0
H656 H 0.81109 0.9144 0.37873 0.0
C657 C 0.79672 0.01149 0.26637 0.0
C658 C 0.76305 0.03377 0.25083 0.0
C659 C 0.71547 0.03428 0.26763 0.0
C660 C 0.70094 0.01276 0.298 0.0
C661 C 0.73438 0.99084 0.31237 0.0
C662 C 0.78196 0.99069 0.29721 0.0
C663 C 0.81129 0.96561 0.31842 0.0
C664 C 0.80861 0.90819 0.30465 0.0
C665 C 0.87622 0.01423 0.3248 0.0
C666 C 0.77217 0.95066 0.34758 0.0
C667 C 0.72807 0.96563 0.34338 0.0
C668 C 0.68592 0.9554 0.36661 0.0
C669 C 0.68866 0.92981 0.39454 0.0
C670 C 0.73339 0.91414 0.40018 0.0
C671 C 0.77599 0.92529 0.37585 0.0
H672 H 0.71846 0.82956 0.61286 0.0
H673 H 0.82953 0.78324 0.55547 0.0
H674 H 0.87524 0.76948 0.60084 0.0
H675 H 0.82911 0.91307 0.66961 0.0
H676 H 0.77889 0.88596 0.70212 0.0
H677 H 0.75115 0.88934 0.6654 0.0
H678 H 0.67267 0.77504 0.66862 0.0
H679 H 0.7 0.77231 0.70559 0.0
H680 H 0.69686 0.72095 0.67586 0.0
H681 H 0.91566 0.76706 0.65153 0.0
H682 H 0.94304 0.76832 0.70467 0.0
H683 H 0.8069 0.81261 0.73395 0.0
C684 C 0.75107 0.81473 0.60992 0.0
C685 C 0.76911 0.80628 0.5799 0.0
C686 C 0.81376 0.78909 0.57768 0.0
C687 C 0.84052 0.78146 0.60354 0.0
C688 C 0.82292 0.79098 0.63245 0.0
C689 C 0.77871 0.80649 0.63607 0.0
C690 C 0.76974 0.81451 0.67032 0.0
C691 C 0.78301 0.87959 0.67727 0.0
C692 C 0.70602 0.76794 0.68072 0.0
C693 C 0.81615 0.80181 0.68503 0.0
C694 C 0.84616 0.78859 0.66238 0.0
C695 C 0.89195 0.77679 0.66941 0.0
C696 C 0.90742 0.77778 0.70006 0.0
C697 C 0.87759 0.79015 0.7244 0.0
C698 C 0.83086 0.80242 0.71638 0.0
H699 H 0.93531 0.78863 0.93948 0.0
H700 H 0.09014 0.90134 0.88211 0.0
H701 H 0.14839 0.95116 0.92706 0.0
H702 H 0.96613 0.90654 0.99826 0.0
H703 H 0.94361 0.85535 1.03002 0.0
H704 H 0.91068 0.82777 0.99331 0.0
H705 H 0.94259 0.74606 0.99414 0.0
H706 H 0.97553 0.77335 1.03085 0.0
H707 H 0.01996 0.76872 0.9997 0.0
H708 H 0.19373 0.99234 0.97823 0.0
H709 H 0.22221 0.01689 1.03199 0.0
H710 H 0.04422 0.87813 1.06015 0.0
C711 C -0.01859 0.82369 0.93634 0.0
C712 C 0.00705 0.83967 0.90621 0.0
C713 C 0.06811 0.88636 0.9041 0.0
C714 C 0.10228 0.91584 0.92985 0.0
C715 C 0.07639 0.89897 0.95877 0.0
C716 C 0.01743 0.85377 0.96241 0.0
C717 C 0.00223 0.84442 0.99671 0.0
C718 C 0.9527 0.8594 1.00507 0.0
C719 C -0.01602 0.77925 1.00589 0.0
C720 C 0.06174 0.89063 1.01133 0.0
C721 C 0.10348 0.92203 0.98876 0.0
C722 C 0.16127 0.96769 0.99606 0.0
C723 C 0.17726 0.98158 1.02695 0.0
C724 C 0.13636 0.94985 1.05105 0.0
C725 C 0.07739 0.9035 1.04269 0.0
loop_
_geom_bond_atom_site_label_1
_geom_bond_atom_site_label_2
_geom_bond_distance
_geom_bond_site_symmetry_2
_ccdc_geom_bond_type
Tb0 C9 2.764 . S
Tb0 O10 2.325 1_565 S
Tb0 O13 2.303 . S
Tb0 O17 2.322 1_554 S
Tb0 O18 2.349 . S
Tb0 O21 2.415 . S
Tb0 O22 2.399 . S
Tb1 O11 2.294 1_556 S
Tb1 O12 2.346 1_556 S
Tb1 O14 2.438 . S
Tb1 O15 2.423 . S
Tb1 O16 2.341 . S
Tb1 O19 2.294 1_556 S
Tb1 C30 2.790 . S
C2 O18 1.261 1_545 S
C2 O19 1.257 . S
C3 C6 1.358 . S
C3 C7 1.332 . S
C3 C9 1.504 . S
C4 C5 1.373 . S
C4 C8 1.308 . S
C5 C4 1.373 . S
C5 C6 1.429 . S
C5 H32 0.932 . S
C6 C3 1.358 . S
C6 C5 1.429 . S
C6 H33 0.930 . S
C7 C3 1.332 . S
C7 C8 1.394 . S
C7 H34 0.932 . S
C8 C4 1.308 . S
C8 C7 1.394 . S
C8 H35 0.929 . S
C9 Tb0 2.764 . S
C9 C3 1.504 . S
C9 O21 1.239 . S
C9 O22 1.263 . S
O10 Tb0 2.325 1_545 S
O10 C20 1.236 . S
O11 Tb1 2.294 1_554 S
O11 C20 1.257 . S
O12 Tb1 2.346 1_554 S
O12 C23 1.261 . S
O13 Tb0 2.303 . S
O13 C23 1.257 1_565 S
O14 Tb1 2.438 . S
O14 C30 1.239 . S
O15 Tb1 2.423 . S
O15 C30 1.263 . S
O16 Tb1 2.341 . S
O16 C31 1.236 1_545 S
O17 Tb0 2.322 1_556 S
O17 C31 1.257 . S
O18 Tb0 2.349 . S
O18 C2 1.261 1_565 S
O19 Tb1 2.294 1_554 S
O19 C2 1.257 . S
C20 O10 1.236 . S
C20 O11 1.257 . S
O21 Tb0 2.415 . S
O21 C9 1.239 . S
O22 Tb0 2.399 . S
O22 C9 1.263 . S
C23 O12 1.261 . S
C23 O13 1.257 1_545 S
C24 C27 1.358 . S
C24 C28 1.332 . S
C24 C30 1.504 . S
C25 C26 1.373 . S
C25 C29 1.308 . S
C26 C25 1.373 . S
C26 C27 1.429 . S
C26 H36 0.932 . S
C27 C24 1.358 . S
C27 C26 1.429 . S
C27 H37 0.930 . S
C28 C24 1.332 . S
C28 C29 1.394 . S
C28 H38 0.932 . S
C29 C25 1.308 . S
C29 C28 1.394 . S
C29 H39 0.929 . S
C30 Tb1 2.790 . S
C30 O14 1.239 . S
C30 O15 1.263 . S
C30 C24 1.504 . S
C31 O16 1.236 1_565 S
C31 O17 1.257 . S
H32 C5 0.932 . S
H33 C6 0.930 . S
H34 C7 0.932 . S
H35 C8 0.929 . S
H36 C26 0.932 . S
H37 C27 0.930 . S
H38 C28 0.932 . S
H39 C29 0.929 . S
Tb40 C49 2.764 . S
Tb40 O50 2.325 . S
Tb40 O53 2.303 . S
Tb40 O57 2.322 . S
Tb40 O58 2.349 . S
Tb40 O61 2.415 . S
Tb40 O62 2.399 . S
Tb41 O51 2.322 . S
Tb41 O52 2.349 . S
Tb41 O54 2.415 . S
Tb41 O55 2.399 . S
Tb41 O56 2.325 . S
Tb41 O59 2.303 . S
Tb41 C70 2.764 . S
C42 O58 1.261 . S
C42 O59 1.257 . S
C43 C46 1.358 . S
C43 C47 1.332 . S
C43 C49 1.504 . S
C44 C45 1.373 . S
C44 C48 1.308 . S
C45 C44 1.373 . S
C45 C46 1.429 . S
C45 H72 0.932 . S
C46 C43 1.358 . S
C46 C45 1.429 . S
C46 H73 0.930 . S
C47 C43 1.332 . S
C47 C48 1.394 . S
C47 H74 0.932 . S
C48 C44 1.308 . S
C48 C47 1.394 . S
C48 H75 0.929 . S
C49 Tb40 2.764 . S
C49 C43 1.504 . S
C49 O61 1.239 . S
C49 O62 1.263 . S
O50 Tb40 2.325 . S
O50 C60 1.236 . S
O51 Tb41 2.322 . S
O51 C60 1.257 . S
O52 Tb41 2.349 . S
O52 C63 1.261 . S
O53 Tb40 2.303 . S
O53 C63 1.257 . S
O54 Tb41 2.415 . S
O54 C70 1.239 . S
O55 Tb41 2.399 . S
O55 C70 1.263 . S
O56 Tb41 2.325 . S
O56 C71 1.236 . S
O57 Tb40 2.322 . S
O57 C71 1.257 . S
O58 Tb40 2.349 . S
O58 C42 1.261 . S
O59 Tb41 2.303 . S
O59 C42 1.257 . S
C60 O50 1.236 . S
C60 O51 1.257 . S
O61 Tb40 2.415 . S
O61 C49 1.239 . S
O62 Tb40 2.399 . S
O62 C49 1.263 . S
C63 O52 1.261 . S
C63 O53 1.257 . S
C64 C67 1.358 . S
C64 C68 1.332 . S
C64 C70 1.504 . S
C65 C66 1.373 . S
C65 C69 1.308 . S
C66 C65 1.373 . S
C66 C67 1.429 . S
C66 H76 0.932 . S
C67 C64 1.358 . S
C67 C66 1.429 . S
C67 H77 0.930 . S
C68 C64 1.332 . S
C68 C69 1.394 . S
C68 H78 0.932 . S
C69 C65 1.308 . S
C69 C68 1.394 . S
C69 H79 0.929 . S
C70 Tb41 2.764 . S
C70 O54 1.239 . S
C70 O55 1.263 . S
C70 C64 1.504 . S
C71 O56 1.236 . S
C71 O57 1.257 . S
H72 C45 0.932 . S
H73 C46 0.930 . S
H74 C47 0.932 . S
H75 C48 0.929 . S
H76 C66 0.932 . S
H77 C67 0.930 . S
H78 C68 0.932 . S
H79 C69 0.929 . S
Tb80 C89 2.764 . S
Tb80 O90 2.325 . S
Tb80 O93 2.303 . S
Tb80 O97 2.322 . S
Tb80 O98 2.349 . S
Tb80 O101 2.415 . S
Tb80 O102 2.399 . S
Tb81 O91 2.322 . S
Tb81 O92 2.349 1_655 S
Tb81 O94 2.415 . S
Tb81 O95 2.399 . S
Tb81 O96 2.325 1_655 S
Tb81 O99 2.303 1_655 S
Tb81 C110 2.764 . S
C82 O98 1.261 . S
C82 O99 1.257 . S
C83 C86 1.358 . S
C83 C87 1.332 . S
C83 C89 1.504 . S
C84 C85 1.373 . S
C84 C88 1.308 . S
C85 C84 1.373 . S
C85 C86 1.429 . S
C85 H112 0.932 . S
C86 C83 1.358 . S
C86 C85 1.429 . S
C86 H113 0.930 . S
C87 C83 1.332 . S
C87 C88 1.394 . S
C87 H114 0.932 . S
C88 C84 1.308 . S
C88 C87 1.394 . S
C88 H115 0.929 . S
C89 Tb80 2.764 . S
C89 C83 1.504 . S
C89 O101 1.239 . S
C89 O102 1.263 . S
O90 Tb80 2.325 . S
O90 C100 1.236 1_455 S
O91 Tb81 2.322 . S
O91 C100 1.257 . S
O92 Tb81 2.349 1_455 S
O92 C103 1.261 . S
O93 Tb80 2.303 . S
O93 C103 1.257 . S
O94 Tb81 2.415 . S
O94 C110 1.239 . S
O95 Tb81 2.399 . S
O95 C110 1.263 . S
O96 Tb81 2.325 1_455 S
O96 C111 1.236 . S
O97 Tb80 2.322 . S
O97 C111 1.257 . S
O98 Tb80 2.349 . S
O98 C82 1.261 . S
O99 Tb81 2.303 1_455 S
O99 C82 1.257 . S
C100 O90 1.236 1_655 S
C100 O91 1.257 . S
O101 Tb80 2.415 . S
O101 C89 1.239 . S
O102 Tb80 2.399 . S
O102 C89 1.263 . S
C103 O92 1.261 . S
C103 O93 1.257 . S
C104 C107 1.358 . S
C104 C108 1.332 . S
C104 C110 1.504 . S
C105 C106 1.373 . S
C105 C109 1.308 . S
C106 C105 1.373 . S
C106 C107 1.429 . S
C106 H116 0.932 . S
C107 C104 1.358 . S
C107 C106 1.429 . S
C107 H117 0.930 . S
C108 C104 1.332 . S
C108 C109 1.394 . S
C108 H118 0.932 . S
C109 C105 1.308 . S
C109 C108 1.394 . S
C109 H119 0.929 . S
C110 Tb81 2.764 . S
C110 O94 1.239 . S
C110 O95 1.263 . S
C110 C104 1.504 . S
C111 O96 1.236 . S
C111 O97 1.257 . S
H112 C85 0.932 . S
H113 C86 0.930 . S
H114 C87 0.932 . S
H115 C88 0.929 . S
H116 C106 0.932 . S
H117 C107 0.930 . S
H118 C108 0.932 . S
H119 C109 0.929 . S
Tb120 C129 2.764 . S
Tb120 O130 2.325 1_565 S
Tb120 O133 2.303 1_556 S
Tb120 O137 2.322 1_556 S
Tb120 O138 2.349 1_556 S
Tb120 O141 2.415 . S
Tb120 O142 2.399 . S
Tb121 O131 2.322 1_554 S
Tb121 O132 2.349 . S
Tb121 O134 2.415 . S
Tb121 O135 2.399 . S
Tb121 O136 2.325 . S
Tb121 O139 2.303 . S
Tb121 C150 2.764 . S
C122 O138 1.261 1_545 S
C122 O139 1.257 . S
C123 C126 1.358 . S
C123 C127 1.332 . S
C123 C129 1.504 . S
C124 C125 1.373 . S
C124 C128 1.308 . S
C125 C124 1.373 . S
C125 C126 1.429 . S
C125 H152 0.932 . S
C126 C123 1.358 . S
C126 C125 1.429 . S
C126 H153 0.930 . S
C127 C123 1.332 . S
C127 C128 1.394 . S
C127 H154 0.932 . S
C128 C124 1.308 . S
C128 C127 1.394 . S
C128 H155 0.929 . S
C129 Tb120 2.764 . S
C129 C123 1.504 . S
C129 O141 1.239 . S
C129 O142 1.263 . S
O130 Tb120 2.325 1_545 S
O130 C140 1.236 . S
O131 Tb121 2.322 1_556 S
O131 C140 1.257 . S
O132 Tb121 2.349 . S
O132 C143 1.261 . S
O133 Tb120 2.303 1_554 S
O133 C143 1.257 1_565 S
O134 Tb121 2.415 . S
O134 C150 1.239 . S
O135 Tb121 2.399 . S
O135 C150 1.263 . S
O136 Tb121 2.325 . S
O136 C151 1.236 1_545 S
O137 Tb120 2.322 1_554 S
O137 C151 1.257 . S
O138 Tb120 2.349 1_554 S
O138 C122 1.261 1_565 S
O139 Tb121 2.303 . S
O139 C122 1.257 . S
C140 O130 1.236 . S
C140 O131 1.257 . S
O141 Tb120 2.415 . S
O141 C129 1.239 . S
O142 Tb120 2.399 . S
O142 C129 1.263 . S
C143 O132 1.261 . S
C143 O133 1.257 1_545 S
C144 C147 1.358 . S
C144 C148 1.332 . S
C144 C150 1.504 . S
C145 C146 1.373 . S
C145 C149 1.308 . S
C146 C145 1.373 . S
C146 C147 1.429 . S
C146 H156 0.932 . S
C147 C144 1.358 . S
C147 C146 1.429 . S
C147 H157 0.930 . S
C148 C144 1.332 . S
C148 C149 1.394 . S
C148 H158 0.932 . S
C149 C145 1.308 . S
C149 C148 1.394 . S
C149 H159 0.929 . S
C150 Tb121 2.764 . S
C150 O134 1.239 . S
C150 O135 1.263 . S
C150 C144 1.504 . S
C151 O136 1.236 1_565 S
C151 O137 1.257 . S
H152 C125 0.932 . S
H153 C126 0.930 . S
H154 C127 0.932 . S
H155 C128 0.929 . S
H156 C146 0.932 . S
H157 C147 0.930 . S
H158 C148 0.932 . S
H159 C149 0.929 . S
Tb160 C169 2.764 . S
Tb160 O170 2.325 . S
Tb160 O173 2.303 . S
Tb160 O177 2.322 . S
Tb160 O178 2.349 . S
Tb160 O181 2.415 . S
Tb160 O182 2.399 . S
Tb161 O171 2.322 . S
Tb161 O172 2.349 . S
Tb161 O174 2.415 . S
Tb161 O175 2.399 . S
Tb161 O176 2.325 . S
Tb161 O179 2.303 . S
Tb161 C190 2.764 . S
C162 O178 1.261 . S
C162 O179 1.257 . S
C163 C166 1.358 . S
C163 C167 1.332 . S
C163 C169 1.504 . S
C164 C165 1.373 . S
C164 C168 1.308 . S
C165 C164 1.373 . S
C165 C166 1.429 . S
C165 H192 0.932 . S
C166 C163 1.358 . S
C166 C165 1.429 . S
C166 H193 0.930 . S
C167 C163 1.332 . S
C167 C168 1.394 . S
C167 H194 0.932 . S
C168 C164 1.308 . S
C168 C167 1.394 . S
C168 H195 0.929 1_565 S
C169 Tb160 2.764 . S
C169 C163 1.504 . S
C169 O181 1.239 . S
C169 O182 1.263 . S
O170 Tb160 2.325 . S
O170 C180 1.236 . S
O171 Tb161 2.322 . S
O171 C180 1.257 . S
O172 Tb161 2.349 . S
O172 C183 1.261 . S
O173 Tb160 2.303 . S
O173 C183 1.257 . S
O174 Tb161 2.415 . S
O174 C190 1.239 . S
O175 Tb161 2.399 . S
O175 C190 1.263 . S
O176 Tb161 2.325 . S
O176 C191 1.236 . S
O177 Tb160 2.322 . S
O177 C191 1.257 . S
O178 Tb160 2.349 . S
O178 C162 1.261 . S
O179 Tb161 2.303 . S
O179 C162 1.257 . S
C180 O170 1.236 . S
C180 O171 1.257 . S
O181 Tb160 2.415 . S
O181 C169 1.239 . S
O182 Tb160 2.399 . S
O182 C169 1.263 . S
C183 O172 1.261 . S
C183 O173 1.257 . S
C184 C187 1.358 . S
C184 C188 1.332 . S
C184 C190 1.504 . S
C185 C186 1.373 . S
C185 C189 1.308 . S
C186 C185 1.373 . S
C186 C187 1.429 . S
C186 H196 0.932 . S
C187 C184 1.358 . S
C187 C186 1.429 . S
C187 H197 0.930 . S
C188 C184 1.332 . S
C188 C189 1.394 . S
C188 H198 0.932 . S
C189 C185 1.308 . S
C189 C188 1.394 . S
C189 H199 0.929 . S
C190 Tb161 2.764 . S
C190 O174 1.239 . S
C190 O175 1.263 . S
C190 C184 1.504 . S
C191 O176 1.236 . S
C191 O177 1.257 . S
H192 C165 0.932 . S
H193 C166 0.930 . S
H194 C167 0.932 . S
H195 C168 0.929 1_545 S
H196 C186 0.932 . S
H197 C187 0.930 . S
H198 C188 0.932 . S
H199 C189 0.929 . S
Tb200 C209 2.764 . S
Tb200 O210 2.325 . S
Tb200 O213 2.303 . S
Tb200 O217 2.322 . S
Tb200 O218 2.349 . S
Tb200 O221 2.415 . S
Tb200 O222 2.399 . S
Tb201 O211 2.322 . S
Tb201 O212 2.349 1_655 S
Tb201 O214 2.415 . S
Tb201 O215 2.399 . S
Tb201 O216 2.325 1_655 S
Tb201 O219 2.303 1_655 S
Tb201 C230 2.764 . S
C202 O218 1.261 . S
C202 O219 1.257 . S
C203 C206 1.358 . S
C203 C207 1.332 . S
C203 C209 1.504 . S
C204 C205 1.373 . S
C204 C208 1.308 . S
C205 C204 1.373 . S
C205 C206 1.429 . S
C205 H232 0.932 . S
C206 C203 1.358 . S
C206 C205 1.429 . S
C206 H233 0.930 . S
C207 C203 1.332 . S
C207 C208 1.394 . S
C207 H234 0.932 . S
C208 C204 1.308 . S
C208 C207 1.394 . S
C208 H235 0.929 1_565 S
C209 Tb200 2.764 . S
C209 C203 1.504 . S
C209 O221 1.239 . S
C209 O222 1.263 . S
O210 Tb200 2.325 . S
O210 C220 1.236 1_455 S
O211 Tb201 2.322 . S
O211 C220 1.257 . S
O212 Tb201 2.349 1_455 S
O212 C223 1.261 . S
O213 Tb200 2.303 . S
O213 C223 1.257 . S
O214 Tb201 2.415 . S
O214 C230 1.239 . S
O215 Tb201 2.399 . S
O215 C230 1.263 . S
O216 Tb201 2.325 1_455 S
O216 C231 1.236 . S
O217 Tb200 2.322 . S
O217 C231 1.257 . S
O218 Tb200 2.349 . S
O218 C202 1.261 . S
O219 Tb201 2.303 1_455 S
O219 C202 1.257 . S
C220 O210 1.236 1_655 S
C220 O211 1.257 . S
O221 Tb200 2.415 . S
O221 C209 1.239 . S
O222 Tb200 2.399 . S
O222 C209 1.263 . S
C223 O212 1.261 . S
C223 O213 1.257 . S
C224 C227 1.358 . S
C224 C228 1.332 . S
C224 C230 1.504 . S
C225 C226 1.373 . S
C225 C229 1.308 . S
C226 C225 1.373 . S
C226 C227 1.429 . S
C226 H236 0.932 . S
C227 C224 1.358 . S
C227 C226 1.429 . S
C227 H237 0.930 . S
C228 C224 1.332 . S
C228 C229 1.394 . S
C228 H238 0.932 . S
C229 C225 1.308 . S
C229 C228 1.394 . S
C229 H239 0.929 . S
C230 Tb201 2.764 . S
C230 O214 1.239 . S
C230 O215 1.263 . S
C230 C224 1.504 . S
C231 O216 1.236 . S
C231 O217 1.257 . S
H232 C205 0.932 . S
H233 C206 0.930 . S
H234 C207 0.932 . S
H235 C208 0.929 1_545 S
H236 C226 0.932 . S
H237 C227 0.930 . S
H238 C228 0.932 . S
H239 C229 0.929 . S
H240 C252 0.930 . S
H241 C254 0.930 . S
H242 C255 0.930 . S
H243 C259 0.959 . S
H244 C259 0.959 . S
H245 C259 0.961 . S
H246 C260 0.960 1_655 S
H247 C260 0.961 . S
H248 C260 0.959 . S
H249 C263 0.929 . S
H250 C264 0.931 . S
H251 C266 0.930 1_556 S
C252 H240 0.930 . S
C252 C253 1.399 1_566 S
C252 C257 1.399 1_566 S
C253 C252 1.399 1_544 S
C253 C254 1.376 . S
C254 H241 0.930 . S
C254 C253 1.376 . S
C254 C255 1.388 . S
C255 H242 0.930 . S
C255 C254 1.388 . S
C255 C256 1.390 . S
C256 C255 1.390 . S
C256 C257 1.394 . S
C256 C262 1.465 1_655 S
C257 C252 1.399 1_544 S
C257 C256 1.394 . S
C257 C258 1.516 1_544 S
C258 C257 1.516 1_566 S
C258 C259 1.502 . S
C258 C260 1.561 1_665 S
C258 C261 1.526 1_666 S
C259 H243 0.959 . S
C259 H244 0.959 . S
C259 H245 0.961 . S
C259 C258 1.502 . S
C260 H246 0.960 1_455 S
C260 H247 0.961 . S
C260 H248 0.959 . S
C260 C258 1.561 1_445 S
C261 C258 1.526 1_444 S
C261 C262 1.396 . S
C261 C266 1.390 1_545 S
C262 C256 1.465 1_455 S
C262 C261 1.396 . S
C262 C263 1.399 . S
C263 H249 0.929 . S
C263 C262 1.399 . S
C263 C264 1.385 . S
C264 H250 0.931 . S
C264 C263 1.385 . S
C264 C265 1.389 . S
C265 C264 1.389 . S
C265 C266 1.387 1_545 S
C266 H251 0.930 1_554 S
C266 C261 1.390 1_565 S
C266 C265 1.387 1_565 S
H267 C279 0.930 . S
H268 C281 0.930 . S
H269 C282 0.930 . S
H270 C286 0.959 . S
H271 C286 0.959 . S
H272 C286 0.961 . S
H273 C287 0.960 1_655 S
H274 C287 0.961 . S
H275 C287 0.959 . S
H276 C290 0.929 . S
H277 C291 0.931 . S
H278 C293 0.930 . S
C279 H267 0.930 . S
C279 C280 1.399 1_545 S
C279 C284 1.399 . S
C280 C279 1.399 1_565 S
C280 C281 1.376 . S
C281 H268 0.930 . S
C281 C280 1.376 . S
C281 C282 1.388 . S
C282 H269 0.930 . S
C282 C281 1.388 . S
C282 C283 1.390 1_565 S
C283 C282 1.390 1_545 S
C283 C284 1.394 . S
C283 C289 1.465 1_655 S
C284 C279 1.399 . S
C284 C283 1.394 . S
C284 C285 1.516 . S
C285 C284 1.516 . S
C285 C286 1.502 . S
C285 C287 1.561 1_655 S
C285 C288 1.526 1_655 S
C286 H270 0.959 . S
C286 H271 0.959 . S
C286 H272 0.961 . S
C286 C285 1.502 . S
C287 H273 0.960 1_455 S
C287 H274 0.961 . S
C287 H275 0.959 . S
C287 C285 1.561 1_455 S
C288 C285 1.526 1_455 S
C288 C289 1.396 . S
C288 C293 1.390 . S
C289 C283 1.465 1_455 S
C289 C288 1.396 . S
C289 C290 1.399 . S
C290 H276 0.929 . S
C290 C289 1.399 . S
C290 C291 1.385 . S
C291 H277 0.931 . S
C291 C290 1.385 . S
C291 C292 1.389 . S
C292 C291 1.389 . S
C292 C293 1.387 . S
C293 H278 0.930 . S
C293 C288 1.390 . S
C293 C292 1.387 . S
H294 C306 0.930 . S
H295 C308 0.930 . S
H296 C309 0.930 . S
H297 C313 0.959 . S
H298 C313 0.959 . S
H299 C313 0.961 . S
H300 C314 0.960 . S
H301 C314 0.961 . S
H302 C314 0.959 . S
H303 C317 0.929 . S
H304 C318 0.931 . S
H305 C320 0.930 . S
C306 H294 0.930 . S
C306 C307 1.399 1_545 S
C306 C311 1.399 . S
C307 C306 1.399 1_565 S
C307 C308 1.376 . S
C308 H295 0.930 . S
C308 C307 1.376 . S
C308 C309 1.388 . S
C309 H296 0.930 . S
C309 C308 1.388 . S
C309 C310 1.390 1_565 S
C310 C309 1.390 1_545 S
C310 C311 1.394 . S
C310 C316 1.465 . S
C311 C306 1.399 . S
C311 C310 1.394 . S
C311 C312 1.516 . S
C312 C311 1.516 . S
C312 C313 1.502 . S
C312 C314 1.561 . S
C312 C315 1.526 . S
C313 H297 0.959 . S
C313 H298 0.959 . S
C313 H299 0.961 . S
C313 C312 1.502 . S
C314 H300 0.960 . S
C314 H301 0.961 . S
C314 H302 0.959 . S
C314 C312 1.561 . S
C315 C312 1.526 . S
C315 C316 1.396 . S
C315 C320 1.390 . S
C316 C310 1.465 . S
C316 C315 1.396 . S
C316 C317 1.399 . S
C317 H303 0.929 . S
C317 C316 1.399 . S
C317 C318 1.385 . S
C318 H304 0.931 . S
C318 C317 1.385 . S
C318 C319 1.389 . S
C319 C318 1.389 . S
C319 C320 1.387 . S
C320 H305 0.930 . S
C320 C315 1.390 . S
C320 C319 1.387 . S
H321 C333 0.930 . S
H322 C335 0.930 . S
H323 C336 0.930 . S
H324 C340 0.959 . S
H325 C340 0.959 . S
H326 C340 0.961 . S
H327 C341 0.960 . S
H328 C341 0.961 . S
H329 C341 0.959 . S
H330 C344 0.929 . S
H331 C345 0.931 . S
H332 C347 0.930 . S
C333 H321 0.930 . S
C333 C334 1.399 . S
C333 C338 1.399 . S
C334 C333 1.399 . S
C334 C335 1.376 . S
C335 H322 0.930 . S
C335 C334 1.376 . S
C335 C336 1.388 . S
C336 H323 0.930 . S
C336 C335 1.388 . S
C336 C337 1.390 . S
C337 C336 1.390 . S
C337 C338 1.394 . S
C337 C343 1.465 . S
C338 C333 1.399 . S
C338 C337 1.394 . S
C338 C339 1.516 . S
C339 C338 1.516 . S
C339 C340 1.502 . S
C339 C341 1.561 . S
C339 C342 1.526 . S
C340 H324 0.959 . S
C340 H325 0.959 . S
C340 H326 0.961 . S
C340 C339 1.502 . S
C341 H327 0.960 . S
C341 H328 0.961 . S
C341 H329 0.959 . S
C341 C339 1.561 . S
C342 C339 1.526 . S
C342 C343 1.396 . S
C342 C347 1.390 . S
C343 C337 1.465 . S
C343 C342 1.396 . S
C343 C344 1.399 . S
C344 H330 0.929 . S
C344 C343 1.399 . S
C344 C345 1.385 . S
C345 H331 0.931 . S
C345 C344 1.385 . S
C345 C346 1.389 . S
C346 C345 1.389 . S
C346 C347 1.387 . S
C347 H332 0.930 . S
C347 C342 1.390 . S
C347 C346 1.387 . S
H348 C360 0.930 . S
H349 C362 0.930 . S
H350 C363 0.930 . S
H351 C367 0.959 . S
H352 C367 0.959 . S
H353 C367 0.961 . S
H354 C368 0.960 . S
H355 C368 0.961 . S
H356 C368 0.959 . S
H357 C371 0.929 . S
H358 C372 0.931 . S
H359 C374 0.930 . S
C360 H348 0.930 . S
C360 C361 1.399 . S
C360 C365 1.406 . S
C361 C360 1.399 . S
C361 C362 1.376 . S
C362 H349 0.930 . S
C362 C361 1.376 . S
C362 C363 1.388 . S
C363 H350 0.930 . S
C363 C362 1.388 . S
C363 C364 1.390 1_455 S
C364 C363 1.390 1_655 S
C364 C365 1.389 1_655 S
C364 C370 1.465 . S
C365 C360 1.406 . S
C365 C364 1.389 1_455 S
C365 C366 1.513 1_455 S
C366 C365 1.513 1_655 S
C366 C367 1.502 . S
C366 C368 1.561 . S
C366 C369 1.526 . S
C367 H351 0.959 . S
C367 H352 0.959 . S
C367 H353 0.961 . S
C367 C366 1.502 . S
C368 H354 0.960 . S
C368 H355 0.961 . S
C368 H356 0.959 . S
C368 C366 1.561 . S
C369 C366 1.526 . S
C369 C370 1.396 . S
C369 C374 1.390 . S
C370 C364 1.465 . S
C370 C369 1.396 . S
C370 C371 1.399 . S
C371 H357 0.929 . S
C371 C370 1.399 . S
C371 C372 1.385 . S
C372 H358 0.931 . S
C372 C371 1.385 . S
C372 C373 1.389 . S
C373 C372 1.389 . S
C373 C374 1.387 . S
C374 H359 0.930 . S
C374 C369 1.390 . S
C374 C373 1.387 . S
H375 C387 0.930 . S
H376 C389 0.930 . S
H377 C390 0.930 . S
H378 C394 0.959 . S
H379 C394 0.959 . S
H380 C394 0.961 . S
H381 C395 0.960 . S
H382 C395 0.961 . S
H383 C395 0.959 . S
H384 C398 0.929 . S
H385 C399 0.931 . S
H386 C401 0.930 . S
C387 H375 0.930 . S
C387 C388 1.399 . S
C387 C392 1.399 . S
C388 C387 1.399 . S
C388 C389 1.376 . S
C389 H376 0.930 . S
C389 C388 1.376 . S
C389 C390 1.388 . S
C390 H377 0.930 . S
C390 C389 1.388 . S
C390 C391 1.390 . S
C391 C390 1.390 . S
C391 C392 1.394 . S
C391 C397 1.465 . S
C392 C387 1.399 . S
C392 C391 1.394 . S
C392 C393 1.516 . S
C393 C392 1.516 . S
C393 C394 1.502 . S
C393 C395 1.561 . S
C393 C396 1.526 . S
C394 H378 0.959 . S
C394 H379 0.959 . S
C394 H380 0.961 . S
C394 C393 1.502 . S
C395 H381 0.960 . S
C395 H382 0.961 . S
C395 H383 0.959 . S
C395 C393 1.561 . S
C396 C393 1.526 . S
C396 C397 1.396 . S
C396 C401 1.390 1_545 S
C397 C391 1.465 . S
C397 C396 1.396 . S
C397 C398 1.399 . S
C398 H384 0.929 . S
C398 C397 1.399 . S
C398 C399 1.385 . S
C399 H385 0.931 . S
C399 C398 1.385 . S
C399 C400 1.389 1_545 S
C400 C399 1.389 1_565 S
C400 C401 1.387 . S
C401 H386 0.930 . S
C401 C396 1.390 1_565 S
C401 C400 1.387 . S
H402 C414 0.930 . S
H403 C416 0.930 . S
H404 C417 0.930 . S
H405 C421 0.959 . S
H406 C421 0.959 . S
H407 C421 0.961 . S
H408 C422 0.960 . S
H409 C422 0.961 . S
H410 C422 0.959 . S
H411 C425 0.929 . S
H412 C426 0.931 . S
H413 C428 0.930 . S
C414 H402 0.930 . S
C414 C415 1.399 . S
C414 C419 1.399 . S
C415 C414 1.399 . S
C415 C416 1.376 . S
C416 H403 0.930 . S
C416 C415 1.376 . S
C416 C417 1.388 . S
C417 H404 0.930 . S
C417 C416 1.388 . S
C417 C418 1.390 . S
C418 C417 1.390 . S
C418 C419 1.394 . S
C418 C424 1.465 . S
C419 C414 1.399 . S
C419 C418 1.394 . S
C419 C420 1.516 . S
C420 C419 1.516 . S
C420 C421 1.502 . S
C420 C422 1.561 . S
C420 C423 1.526 . S
C421 H405 0.959 . S
C421 H406 0.959 . S
C421 H407 0.961 . S
C421 C420 1.502 . S
C422 H408 0.960 . S
C422 H409 0.961 . S
C422 H410 0.959 . S
C422 C420 1.561 . S
C423 C420 1.526 . S
C423 C424 1.396 . S
C423 C428 1.390 . S
C424 C418 1.465 . S
C424 C423 1.396 . S
C424 C425 1.399 . S
C425 H411 0.929 . S
C425 C424 1.399 . S
C425 C426 1.385 . S
C426 H412 0.931 . S
C426 C425 1.385 . S
C426 C427 1.389 . S
C427 C426 1.389 . S
C427 C428 1.387 . S
C428 H413 0.930 . S
C428 C423 1.390 . S
C428 C427 1.387 . S
H429 C441 0.930 . S
H430 C443 0.930 . S
H431 C444 0.930 . S
H432 C448 0.959 . S
H433 C448 0.959 . S
H434 C448 0.961 . S
H435 C449 0.960 . S
H436 C449 0.961 . S
H437 C449 0.959 . S
H438 C452 0.929 . S
H439 C453 0.931 . S
H440 C455 0.930 . S
C441 H429 0.930 . S
C441 C442 1.399 . S
C441 C446 1.399 . S
C442 C441 1.399 . S
C442 C443 1.376 . S
C443 H430 0.930 . S
C443 C442 1.376 . S
C443 C444 1.388 . S
C444 H431 0.930 . S
C444 C443 1.388 . S
C444 C445 1.390 . S
C445 C444 1.390 . S
C445 C446 1.394 . S
C445 C451 1.465 . S
C446 C441 1.399 . S
C446 C445 1.394 . S
C446 C447 1.516 . S
C447 C446 1.516 . S
C447 C448 1.502 . S
C447 C449 1.561 . S
C447 C450 1.526 . S
C448 H432 0.959 . S
C448 H433 0.959 . S
C448 H434 0.961 . S
C448 C447 1.502 . S
C449 H435 0.960 . S
C449 H436 0.961 . S
C449 H437 0.959 . S
C449 C447 1.561 . S
C450 C447 1.526 . S
C450 C451 1.396 . S
C450 C455 1.390 1_655 S
C451 C445 1.465 . S
C451 C450 1.396 . S
C451 C452 1.399 1_655 S
C452 H438 0.929 . S
C452 C451 1.399 1_455 S
C452 C453 1.385 . S
C453 H439 0.931 . S
C453 C452 1.385 . S
C453 C454 1.389 . S
C454 C453 1.389 . S
C454 C455 1.387 . S
C455 H440 0.930 . S
C455 C450 1.390 1_455 S
C455 C454 1.387 . S
H456 C468 0.930 . S
H457 C470 0.930 . S
H458 C471 0.930 . S
H459 C475 0.959 . S
H460 C475 0.959 . S
H461 C475 0.961 . S
H462 C476 0.960 . S
H463 C476 0.961 . S
H464 C476 0.959 . S
H465 C479 0.929 . S
H466 C480 0.931 . S
H467 C482 0.930 . S
C468 H456 0.930 . S
C468 C469 1.399 . S
C468 C473 1.399 1_565 S
C469 C468 1.399 . S
C469 C470 1.376 1_565 S
C470 H457 0.930 . S
C470 C469 1.376 1_545 S
C470 C471 1.388 . S
C471 H458 0.930 . S
C471 C470 1.388 . S
C471 C472 1.390 . S
C472 C471 1.390 . S
C472 C473 1.394 . S
C472 C478 1.465 . S
C473 C468 1.399 1_545 S
C473 C472 1.394 . S
C473 C474 1.516 . S
C474 C473 1.516 . S
C474 C475 1.502 . S
C474 C476 1.561 . S
C474 C477 1.526 . S
C475 H459 0.959 . S
C475 H460 0.959 . S
C475 H461 0.961 . S
C475 C474 1.502 . S
C476 H462 0.960 . S
C476 H463 0.961 . S
C476 H464 0.959 . S
C476 C474 1.561 . S
C477 C474 1.526 . S
C477 C478 1.396 . S
C477 C482 1.390 . S
C478 C472 1.465 . S
C478 C477 1.396 . S
C478 C479 1.399 . S
C479 H465 0.929 . S
C479 C478 1.399 . S
C479 C480 1.385 . S
C480 H466 0.931 . S
C480 C479 1.385 . S
C480 C481 1.389 . S
C481 C480 1.389 . S
C481 C482 1.387 . S
C482 H467 0.930 . S
C482 C477 1.390 . S
C482 C481 1.387 . S
H483 C495 0.930 1_556 S
H484 C497 0.930 . S
H485 C498 0.930 . S
H486 C502 0.959 . S
H487 C502 0.959 . S
H488 C502 0.961 . S
H489 C503 0.960 . S
H490 C503 0.961 . S
H491 C503 0.959 . S
H492 C506 0.929 . S
H493 C507 0.931 . S
H494 C509 0.930 1_556 S
C495 H483 0.930 1_554 S
C495 C496 1.399 . S
C495 C500 1.399 . S
C496 C495 1.399 . S
C496 C497 1.376 1_545 S
C497 H484 0.930 . S
C497 C496 1.376 1_565 S
C497 C498 1.388 . S
C498 H485 0.930 . S
C498 C497 1.388 . S
C498 C499 1.387 1_565 S
C499 C498 1.387 1_545 S
C499 C500 1.408 . S
C499 C505 1.464 . S
C500 C495 1.399 . S
C500 C499 1.408 . S
C500 C501 1.513 1_554 S
C501 C500 1.513 1_556 S
C501 C502 1.511 . S
C501 C503 1.558 1_556 S
C501 C504 1.522 1_556 S
C502 H486 0.959 . S
C502 H487 0.959 . S
C502 H488 0.961 . S
C502 C501 1.511 . S
C503 H489 0.960 . S
C503 H490 0.961 . S
C503 H491 0.959 . S
C503 C501 1.558 1_554 S
C504 C501 1.522 1_554 S
C504 C505 1.404 . S
C504 C509 1.390 . S
C505 C499 1.464 . S
C505 C504 1.404 . S
C505 C506 1.385 1_545 S
C506 H492 0.929 . S
C506 C505 1.385 1_565 S
C506 C507 1.385 . S
C507 H493 0.931 . S
C507 C506 1.385 . S
C507 C508 1.389 1_565 S
C508 C507 1.389 1_545 S
C508 C509 1.387 . S
C509 H494 0.930 1_554 S
C509 C504 1.390 . S
C509 C508 1.387 . S
H510 C522 0.930 . S
H511 C524 0.930 . S
H512 C525 0.930 . S
H513 C529 0.959 . S
H514 C529 0.959 . S
H515 C529 0.961 . S
H516 C530 0.960 . S
H517 C530 0.961 . S
H518 C530 0.959 . S
H519 C533 0.929 . S
H520 C534 0.931 . S
H521 C536 0.930 . S
C522 H510 0.930 . S
C522 C523 1.399 . S
C522 C527 1.399 . S
C523 C522 1.399 . S
C523 C524 1.376 . S
C524 H511 0.930 . S
C524 C523 1.376 . S
C524 C525 1.388 . S
C525 H512 0.930 . S
C525 C524 1.388 . S
C525 C526 1.390 . S
C526 C525 1.390 . S
C526 C527 1.394 . S
C526 C532 1.465 . S
C527 C522 1.399 . S
C527 C526 1.394 . S
C527 C528 1.516 . S
C528 C527 1.516 . S
C528 C529 1.502 . S
C528 C530 1.561 . S
C528 C531 1.526 . S
C529 H513 0.959 . S
C529 H514 0.959 . S
C529 H515 0.961 . S
C529 C528 1.502 . S
C530 H516 0.960 . S
C530 H517 0.961 . S
C530 H518 0.959 . S
C530 C528 1.561 . S
C531 C528 1.526 . S
C531 C532 1.396 . S
C531 C536 1.390 . S
C532 C526 1.465 . S
C532 C531 1.396 . S
C532 C533 1.399 . S
C533 H519 0.929 . S
C533 C532 1.399 . S
C533 C534 1.385 . S
C534 H520 0.931 . S
C534 C533 1.385 . S
C534 C535 1.389 . S
C535 C534 1.389 . S
C535 C536 1.387 . S
C536 H521 0.930 . S
C536 C531 1.390 . S
C536 C535 1.387 . S
H537 C549 0.930 . S
H538 C551 0.930 . S
H539 C552 0.930 1_655 S
H540 C556 0.959 . S
H541 C556 0.959 . S
H542 C556 0.961 . S
H543 C557 0.960 . S
H544 C557 0.961 . S
H545 C557 0.959 1_655 S
H546 C560 0.929 1_655 S
H547 C561 0.931 . S
H548 C563 0.930 . S
C549 H537 0.930 . S
C549 C550 1.399 . S
C549 C554 1.399 . S
C550 C549 1.399 . S
C550 C551 1.376 . S
C551 H538 0.930 . S
C551 C550 1.376 . S
C551 C552 1.388 . S
C552 H539 0.930 1_455 S
C552 C551 1.388 . S
C552 C553 1.390 . S
C553 C552 1.390 . S
C553 C554 1.394 . S
C553 C559 1.465 . S
C554 C549 1.399 . S
C554 C553 1.394 . S
C554 C555 1.516 . S
C555 C554 1.516 . S
C555 C556 1.502 . S
C555 C557 1.561 . S
C555 C558 1.526 . S
C556 H540 0.959 . S
C556 H541 0.959 . S
C556 H542 0.961 . S
C556 C555 1.502 . S
C557 H543 0.960 . S
C557 H544 0.961 . S
C557 H545 0.959 1_455 S
C557 C555 1.561 . S
C558 C555 1.526 . S
C558 C559 1.396 . S
C558 C563 1.390 . S
C559 C553 1.465 . S
C559 C558 1.396 . S
C559 C560 1.399 . S
C560 H546 0.929 1_455 S
C560 C559 1.399 . S
C560 C561 1.385 . S
C561 H547 0.931 . S
C561 C560 1.385 . S
C561 C562 1.389 . S
C562 C561 1.389 . S
C562 C563 1.387 . S
C563 H548 0.930 . S
C563 C558 1.390 . S
C563 C562 1.387 . S
H564 C576 0.930 . S
H565 C578 0.930 . S
H566 C579 0.930 . S
H567 C583 0.959 . S
H568 C583 0.959 . S
H569 C583 0.961 . S
H570 C584 0.960 . S
H571 C584 0.961 . S
H572 C584 0.959 . S
H573 C587 0.929 . S
H574 C588 0.931 . S
H575 C590 0.930 . S
C576 H564 0.930 . S
C576 C577 1.399 . S
C576 C581 1.399 . S
C577 C576 1.399 . S
C577 C578 1.376 . S
C578 H565 0.930 . S
C578 C577 1.376 . S
C578 C579 1.388 . S
C579 H566 0.930 . S
C579 C578 1.388 . S
C579 C580 1.390 . S
C580 C579 1.390 . S
C580 C581 1.394 . S
C580 C586 1.465 . S
C581 C576 1.399 . S
C581 C580 1.394 . S
C581 C582 1.516 . S
C582 C581 1.516 . S
C582 C583 1.502 . S
C582 C584 1.561 . S
C582 C585 1.526 . S
C583 H567 0.959 . S
C583 H568 0.959 . S
C583 H569 0.961 . S
C583 C582 1.502 . S
C584 H570 0.960 . S
C584 H571 0.961 . S
C584 H572 0.959 . S
C584 C582 1.561 . S
C585 C582 1.526 . S
C585 C586 1.396 . S
C585 C590 1.390 . S
C586 C580 1.465 . S
C586 C585 1.396 . S
C586 C587 1.399 . S
C587 H573 0.929 . S
C587 C586 1.399 . S
C587 C588 1.385 . S
C588 H574 0.931 . S
C588 C587 1.385 . S
C588 C589 1.389 . S
C589 C588 1.389 . S
C589 C590 1.387 . S
C590 H575 0.930 . S
C590 C585 1.390 . S
C590 C589 1.387 . S
H591 C603 0.930 . S
H592 C605 0.930 . S
H593 C606 0.930 . S
H594 C610 0.959 . S
H595 C610 0.959 . S
H596 C610 0.961 . S
H597 C611 0.960 . S
H598 C611 0.961 . S
H599 C611 0.959 . S
H600 C614 0.929 . S
H601 C615 0.931 . S
H602 C617 0.930 . S
C603 H591 0.930 . S
C603 C604 1.399 . S
C603 C608 1.399 . S
C604 C603 1.399 . S
C604 C605 1.376 . S
C605 H592 0.930 . S
C605 C604 1.376 . S
C605 C606 1.388 . S
C606 H593 0.930 . S
C606 C605 1.388 . S
C606 C607 1.390 . S
C607 C606 1.390 . S
C607 C608 1.394 . S
C607 C613 1.465 . S
C608 C603 1.399 . S
C608 C607 1.394 . S
C608 C609 1.516 . S
C609 C608 1.516 . S
C609 C610 1.502 . S
C609 C611 1.561 . S
C609 C612 1.526 . S
C610 H594 0.959 . S
C610 H595 0.959 . S
C610 H596 0.961 . S
C610 C609 1.502 . S
C611 H597 0.960 . S
C611 H598 0.961 . S
C611 H599 0.959 . S
C611 C609 1.561 . S
C612 C609 1.526 . S
C612 C613 1.396 . S
C612 C617 1.390 . S
C613 C607 1.465 . S
C613 C612 1.396 . S
C613 C614 1.399 . S
C614 H600 0.929 . S
C614 C613 1.399 . S
C614 C615 1.385 . S
C615 H601 0.931 . S
C615 C614 1.385 . S
C615 C616 1.389 . S
C616 C615 1.389 . S
C616 C617 1.387 . S
C617 H602 0.930 . S
C617 C612 1.390 . S
C617 C616 1.387 . S
H618 C630 0.930 . S
H619 C632 0.930 . S
H620 C633 0.930 . S
H621 C637 0.959 . S
H622 C637 0.959 . S
H623 C637 0.961 . S
H624 C638 0.960 . S
H625 C638 0.961 . S
H626 C638 0.959 . S
H627 C641 0.929 . S
H628 C642 0.931 . S
H629 C644 0.930 . S
C630 H618 0.930 . S
C630 C631 1.399 . S
C630 C635 1.399 . S
C631 C630 1.399 . S
C631 C632 1.376 . S
C632 H619 0.930 . S
C632 C631 1.376 . S
C632 C633 1.388 . S
C633 H620 0.930 . S
C633 C632 1.388 . S
C633 C634 1.390 . S
C634 C633 1.390 . S
C634 C635 1.394 . S
C634 C640 1.465 . S
C635 C630 1.399 . S
C635 C634 1.394 . S
C635 C636 1.516 . S
C636 C635 1.516 . S
C636 C637 1.502 . S
C636 C638 1.561 . S
C636 C639 1.526 . S
C637 H621 0.959 . S
C637 H622 0.959 . S
C637 H623 0.961 . S
C637 C636 1.502 . S
C638 H624 0.960 . S
C638 H625 0.961 . S
C638 H626 0.959 . S
C638 C636 1.561 . S
C639 C636 1.526 . S
C639 C640 1.396 . S
C639 C644 1.390 . S
C640 C634 1.465 . S
C640 C639 1.396 . S
C640 C641 1.399 . S
C641 H627 0.929 . S
C641 C640 1.399 . S
C641 C642 1.385 . S
C642 H628 0.931 . S
C642 C641 1.385 . S
C642 C643 1.389 . S
C643 C642 1.389 . S
C643 C644 1.387 . S
C644 H629 0.930 . S
C644 C639 1.390 . S
C644 C643 1.387 . S
H645 C657 0.930 . S
H646 C659 0.930 1_545 S
H647 C660 0.930 1_545 S
H648 C664 0.959 . S
H649 C664 0.959 . S
H650 C664 0.961 . S
H651 C665 0.960 . S
H652 C665 0.961 . S
H653 C665 0.959 . S
H654 C668 0.929 1_545 S
H655 C669 0.931 . S
H656 C671 0.930 . S
C657 H645 0.930 . S
C657 C658 1.399 . S
C657 C662 1.399 . S
C658 C657 1.399 . S
C658 C659 1.376 . S
C659 H646 0.930 1_565 S
C659 C658 1.376 . S
C659 C660 1.388 . S
C660 H647 0.930 1_565 S
C660 C659 1.388 . S
C660 C661 1.390 . S
C661 C660 1.390 . S
C661 C662 1.394 . S
C661 C667 1.465 . S
C662 C657 1.399 . S
C662 C661 1.394 . S
C662 C663 1.516 . S
C663 C662 1.516 . S
C663 C664 1.502 . S
C663 C665 1.561 . S
C663 C666 1.526 . S
C664 H648 0.959 . S
C664 H649 0.959 . S
C664 H650 0.961 . S
C664 C663 1.502 . S
C665 H651 0.960 . S
C665 H652 0.961 . S
C665 H653 0.959 . S
C665 C663 1.561 . S
C666 C663 1.526 . S
C666 C667 1.396 . S
C666 C671 1.390 . S
C667 C661 1.465 . S
C667 C666 1.396 . S
C667 C668 1.399 . S
C668 H654 0.929 1_565 S
C668 C667 1.399 . S
C668 C669 1.385 . S
C669 H655 0.931 . S
C669 C668 1.385 . S
C669 C670 1.389 . S
C670 C669 1.389 . S
C670 C671 1.387 . S
C671 H656 0.930 . S
C671 C666 1.390 . S
C671 C670 1.387 . S
H672 C684 0.930 . S
H673 C686 0.930 . S
H674 C687 0.930 . S
H675 C691 0.959 . S
H676 C691 0.959 . S
H677 C691 0.961 . S
H678 C692 0.960 . S
H679 C692 0.961 . S
H680 C692 0.959 . S
H681 C695 0.929 . S
H682 C696 0.931 1_455 S
H683 C698 0.930 . S
C684 H672 0.930 . S
C684 C685 1.399 . S
C684 C689 1.399 . S
C685 C684 1.399 . S
C685 C686 1.376 . S
C686 H673 0.930 . S
C686 C685 1.376 . S
C686 C687 1.388 . S
C687 H674 0.930 . S
C687 C686 1.388 . S
C687 C688 1.390 . S
C688 C687 1.390 . S
C688 C689 1.394 . S
C688 C694 1.465 . S
C689 C684 1.399 . S
C689 C688 1.394 . S
C689 C690 1.516 . S
C690 C689 1.516 . S
C690 C691 1.502 . S
C690 C692 1.561 . S
C690 C693 1.526 . S
C691 H675 0.959 . S
C691 H676 0.959 . S
C691 H677 0.961 . S
C691 C690 1.502 . S
C692 H678 0.960 . S
C692 H679 0.961 . S
C692 H680 0.959 . S
C692 C690 1.561 . S
C693 C690 1.526 . S
C693 C694 1.396 . S
C693 C698 1.390 . S
C694 C688 1.465 . S
C694 C693 1.396 . S
C694 C695 1.399 . S
C695 H681 0.929 . S
C695 C694 1.399 . S
C695 C696 1.385 . S
C696 H682 0.931 1_655 S
C696 C695 1.385 . S
C696 C697 1.389 . S
C697 C696 1.389 . S
C697 C698 1.387 . S
C698 H683 0.930 . S
C698 C693 1.390 . S
C698 C697 1.387 . S
H699 C711 0.930 . S
H700 C713 0.930 . S
H701 C714 0.935 . S
H702 C718 0.959 . S
H703 C718 0.959 . S
H704 C718 0.961 . S
H705 C719 0.960 . S
H706 C719 0.961 . S
H707 C719 0.959 . S
H708 C722 0.929 1_545 S
H709 C723 0.931 1_545 S
H710 C725 0.930 . S
C711 H699 0.930 . S
C711 C712 1.399 . S
C711 C716 1.399 . S
C712 C711 1.399 . S
C712 C713 1.376 . S
C713 H700 0.930 . S
C713 C712 1.376 . S
C713 C714 1.388 . S
C714 H701 0.935 . S
C714 C713 1.388 . S
C714 C715 1.390 . S
C715 C714 1.390 . S
C715 C716 1.394 . S
C715 C721 1.465 . S
C716 C711 1.399 . S
C716 C715 1.394 . S
C716 C717 1.516 . S
C717 C716 1.516 . S
C717 C718 1.502 . S
C717 C719 1.561 . S
C717 C720 1.526 . S
C718 H702 0.959 . S
C718 H703 0.959 . S
C718 H704 0.961 . S
C718 C717 1.502 . S
C719 H705 0.960 . S
C719 H706 0.961 . S
C719 H707 0.959 . S
C719 C717 1.561 . S
C720 C717 1.526 . S
C720 C721 1.396 . S
C720 C725 1.390 . S
C721 C715 1.465 . S
C721 C720 1.396 . S
C721 C722 1.399 . S
C722 H708 0.929 1_565 S
C722 C721 1.399 . S
C722 C723 1.385 . S
C723 H709 0.931 1_565 S
C723 C722 1.385 . S
C723 C724 1.389 . S
C724 C723 1.389 . S
C724 C725 1.387 . S
C725 H710 0.930 . S
C725 C720 1.390 . S
C725 C724 1.387 . S
C253 C143 0.340 . S
C265 C23 0.525 . S
C280 C183 0.342 . S
C292 C63 0.522 . S
C307 C223 0.339 . S
C319 C103 0.526 . S
C334 C25 0.580 . S
C346 C84 0.814 . S
C361 C44 0.795 . S
C373 C145 0.719 . S
C388 C105 0.810 . S
C400 C164 0.674 . S
C415 C124 0.622 . S
C427 C225 0.812 . S
C442 C185 0.634 . S
C454 C4 0.668 . S
C469 C204 0.569 . S
C481 C65 0.785 . S
C496 C2 0.367 . S
C508 C122 0.516 . S
C523 C42 0.501 . S
C535 C162 0.365 . S
C550 C82 0.483 . S
C562 C202 0.598 . S
C577 C20 4.143 . S
C589 C60 4.148 . S
C604 C71 3.883 . S
C616 C111 3.895 . S
C631 C100 4.143 . S
C643 C140 4.151 . S
C658 C151 3.874 . S
C670 C191 3.887 . S
C685 C180 4.149 . S
C697 C220 4.143 . S
C712 C231 3.892 . S
C724 C31 3.878 . S
