# Generated by pormake.
# Topology wld, (5)-cn, num edge types: 1
# Building blocks:
#     Node 0, Type 0, BuildingBlock: BEQFEK_clean_sbu_0, # of connection points: 5
#     Node 1, Type 0, BuildingBlock: BEQFEK_clean_sbu_0, # of connection points: 5
#     Node 2, Type 0, BuildingBlock: BEQFEK_clean_sbu_0, # of connection points: 5
#     Node 3, Type 0, BuildingBlock: BEQFEK_clean_sbu_0, # of connection points: 5
#     Node 4, Type 0, BuildingBlock: BEQFEK_clean_sbu_0, # of connection points: 5
#     Node 5, Type 0, BuildingBlock: BEQFEK_clean_sbu_0, # of connection points: 5
#     Node 6, Type 0, BuildingBlock: BEQFEK_clean_sbu_0, # of connection points: 5
#     Node 7, Type 0, BuildingBlock: BEQFEK_clean_sbu_0, # of connection points: 5
#     Node 8, Type 0, BuildingBlock: BEQFEK_clean_sbu_0, # of connection points: 5
#     Node 9, Type 0, BuildingBlock: BEQFEK_clean_sbu_0, # of connection points: 5
#     Node 10, Type 0, BuildingBlock: BEQFEK_clean_sbu_0, # of connection points: 5
#     Node 11, Type 0, BuildingBlock: BEQFEK_clean_sbu_0, # of connection points: 5
#     Edge 12, Type (0, 0), BuildingBlock: OJICUG_clean_linker_0, # of connection points: 2
#     Edge 13, Type (0, 0), BuildingBlock: OJICUG_clean_linker_0, # of connection points: 2
#     Edge 14, Type (0, 0), BuildingBlock: OJICUG_clean_linker_0, # of connection points: 2
#     Edge 15, Type (0, 0), BuildingBlock: OJICUG_clean_linker_0, # of connection points: 2
#     Edge 16, Type (0, 0), BuildingBlock: OJICUG_clean_linker_0, # of connection points: 2
#     Edge 17, Type (0, 0), BuildingBlock: OJICUG_clean_linker_0, # of connection points: 2
#     Edge 18, Type (0, 0), BuildingBlock: OJICUG_clean_linker_0, # of connection points: 2
#     Edge 19, Type (0, 0), BuildingBlock: OJICUG_clean_linker_0, # of connection points: 2
#     Edge 20, Type (0, 0), BuildingBlock: OJICUG_clean_linker_0, # of connection points: 2
#     Edge 21, Type (0, 0), BuildingBlock: OJICUG_clean_linker_0, # of connection points: 2
#     Edge 22, Type (0, 0), BuildingBlock: OJICUG_clean_linker_0, # of connection points: 2
#     Edge 23, Type (0, 0), BuildingBlock: OJICUG_clean_linker_0, # of connection points: 2
#     Edge 24, Type (0, 0), BuildingBlock: OJICUG_clean_linker_0, # of connection points: 2
#     Edge 25, Type (0, 0), BuildingBlock: OJICUG_clean_linker_0, # of connection points: 2
#     Edge 26, Type (0, 0), BuildingBlock: OJICUG_clean_linker_0, # of connection points: 2
#     Edge 27, Type (0, 0), BuildingBlock: OJICUG_clean_linker_0, # of connection points: 2
#     Edge 28, Type (0, 0), BuildingBlock: OJICUG_clean_linker_0, # of connection points: 2
#     Edge 29, Type (0, 0), BuildingBlock: OJICUG_clean_linker_0, # of connection points: 2
#     Edge 30, Type (0, 0), BuildingBlock: OJICUG_clean_linker_0, # of connection points: 2
#     Edge 31, Type (0, 0), BuildingBlock: OJICUG_clean_linker_0, # of connection points: 2
#     Edge 32, Type (0, 0), BuildingBlock: OJICUG_clean_linker_0, # of connection points: 2
#     Edge 33, Type (0, 0), BuildingBlock: OJICUG_clean_linker_0, # of connection points: 2
#     Edge 34, Type (0, 0), BuildingBlock: OJICUG_clean_linker_0, # of connection points: 2
#     Edge 35, Type (0, 0), BuildingBlock: OJICUG_clean_linker_0, # of connection points: 2
#     Edge 36, Type (0, 0), BuildingBlock: OJICUG_clean_linker_0, # of connection points: 2
#     Edge 37, Type (0, 0), BuildingBlock: OJICUG_clean_linker_0, # of connection points: 2
#     Edge 38, Type (0, 0), BuildingBlock: OJICUG_clean_linker_0, # of connection points: 2
#     Edge 39, Type (0, 0), BuildingBlock: OJICUG_clean_linker_0, # of connection points: 2
#     Edge 40, Type (0, 0), BuildingBlock: OJICUG_clean_linker_0, # of connection points: 2
#     Edge 41, Type (0, 0), BuildingBlock: OJICUG_clean_linker_0, # of connection points: 2
# Relax obj value: 0.319
# Max RMSD: 0.214
# Mean RMSD: 0.214
data_MOF--net-wld--node1-BEQFEK_clean_sbu_0--edge1-OJICUG_clean_linker_0
_symmetry_space_group_name_H-M    P1
_symmetry_Int_Tables_number       1
_symmetry_cell_setting            triclinic
loop_
_symmetry_equiv_pos_as_xyz
'x, y, z'
_cell_length_a     30.239991
_cell_length_b     30.216634
_cell_length_c     32.224056
_cell_angle_alpha  90.065797
_cell_angle_beta   89.941876
_cell_angle_gamma 119.92675
loop_
_atom_site_label
_atom_site_type_symbol
_atom_site_fract_x
_atom_site_fract_y
_atom_site_fract_z
_atom_type_partial_charge
Co0 Co 0.38585 0.28463 0.09718 0.0
Co1 Co 0.4202 0.2311 0.16302 0.0
C2 C 0.4838 0.34383 0.13932 0.0
O3 O 0.45623 0.34273 0.10898 0.0
O4 O 0.47139 0.30413 0.16074 0.0
C5 C 0.36419 0.3225 0.02046 0.0
O6 O 0.40615 0.32626 0.00508 0.0
C7 C 0.50298 0.21194 0.17302 0.0
C8 C 0.4743 0.1451 0.21441 0.0
C9 C 0.51493 0.17666 0.18887 0.0
N10 N 0.45716 0.20149 0.1878 0.0
N11 N 0.44068 0.16227 0.21348 0.0
C12 C 0.53019 0.24903 0.13852 0.0
H13 H 0.50252 0.25239 0.11814 0.0
H14 H 0.55309 0.23721 0.11945 0.0
H15 H 0.55622 0.28715 0.15207 0.0
C16 C 0.36816 0.19282 0.04695 0.0
N17 N 0.38421 0.22295 0.08109 0.0
N18 N 0.39788 0.20073 0.10942 0.0
C19 C 0.39132 0.15622 0.09416 0.0
C20 C 0.37245 0.14978 0.05412 0.0
C21 C 0.3446 0.20222 0.00967 0.0
H22 H 0.31932 0.21709 0.01939 0.0
H23 H 0.37522 0.23077 -0.01053 0.0
H24 H 0.32198 0.16668 -0.00854 0.0
O25 O 0.34545 0.27119 0.14849 0.0
O26 O 0.36225 0.2278 0.19561 0.0
H27 H 0.38765 0.11385 0.14851 0.0
H28 H 0.39183 0.08444 0.10135 0.0
C29 C 0.40466 0.12133 0.11708 0.0
H30 H 0.44659 0.1397 0.11939 0.0
H31 H 0.405 0.14489 0.22786 0.0
O32 O 0.35029 0.30602 0.05708 0.0
C33 C 0.3372 0.24939 0.18372 0.0
Co34 Co 0.73806 0.10757 0.09335 0.0
Co35 Co 0.79465 0.19429 0.15964 0.0
C36 C 0.68363 0.1533 0.13265 0.0
O37 O 0.68161 0.12294 0.10426 0.0
O38 O 0.72395 0.17911 0.15368 0.0
C39 C 0.70071 0.04642 0.01716 0.0
O40 O 0.69784 0.08462 0.00065 0.0
C41 C 0.82948 0.30132 0.15925 0.0
C42 C 0.86437 0.33077 0.22039 0.0
C43 C 0.85399 0.34556 0.18249 0.0
N44 N 0.8266 0.26233 0.18155 0.0
N45 N 0.84752 0.28009 0.21825 0.0
C46 C 0.80645 0.29572 0.11701 0.0
H47 H 0.77989 0.25521 0.10936 0.0
H48 H 0.83713 0.31135 0.09331 0.0
H49 H 0.78604 0.31766 0.11527 0.0
C50 C 0.83375 0.17855 0.04513 0.0
N51 N 0.8024 0.16531 0.07843 0.0
N52 N 0.82696 0.19783 0.10857 0.0
C53 C 0.87475 0.23135 0.0962 0.0
C54 C 0.88041 0.221 0.0553 0.0
C55 C 0.82123 0.149 0.00547 0.0
H56 H 0.80526 0.1079 0.01239 0.0
H57 H 0.79233 0.15403 -0.01173 0.0
H58 H 0.85551 0.16207 -0.01441 0.0
O59 O 0.74901 0.07987 0.14517 0.0
O60 O 0.79206 0.13798 0.19389 0.0
H61 H 0.90556 0.26247 0.15644 0.0
H62 H 0.95281 0.27932 0.1172 0.0
C63 C 0.91406 0.27271 0.12327 0.0
H64 H 0.91472 0.3091 0.117 0.0
H65 H 0.84985 0.25772 0.24185 0.0
O66 O 0.71617 0.04962 0.05418 0.0
C67 C 0.76944 0.09167 0.18099 0.0
Co68 Co 0.90945 0.63304 0.08758 0.0
Co69 Co 0.82674 0.60622 0.15633 0.0
C70 C 0.87037 0.53704 0.13217 0.0
O71 O 0.8964 0.56283 0.10098 0.0
O72 O 0.84514 0.55202 0.15374 0.0
C73 C 1.00748 0.68099 0.05037 0.0
O74 O 0.02045 0.67132 0.08671 0.0
C75 C 0.72043 0.53414 0.16087 0.0
C76 C 0.69312 0.54787 0.22026 0.0
C77 C 0.67694 0.51853 0.18434 0.0
N78 N 0.76036 0.572 0.18097 0.0
N79 N 0.74395 0.58007 0.21667 0.0
C80 C 0.7242 0.51212 0.12017 0.0
H81 H 0.76423 0.52365 0.11266 0.0
H82 H 0.70922 0.52602 0.09504 0.0
H83 H 0.70075 0.46983 0.12094 0.0
C84 C 0.83548 0.65051 0.03927 0.0
N85 N 0.85004 0.63554 0.07356 0.0
N86 N 0.81863 0.62947 0.10399 0.0
C87 C 0.78419 0.64219 0.09073 0.0
C88 C 0.79315 0.65523 0.04907 0.0
C89 C 0.86479 0.66489 -0.00057 0.0
H90 H 0.90119 0.70116 0.00406 0.0
H91 H 0.87436 0.63509 -0.00922 0.0
H92 H 0.84326 0.67024 0.97397 0.0
O93 O 0.94058 0.67654 0.13741 0.0
O94 O 0.88366 0.66376 0.18672 0.0
H95 H 0.75552 0.64744 0.1507 0.0
H96 H 0.73543 0.67261 0.10931 0.0
C97 C 0.74363 0.64203 0.11774 0.0
H98 H 0.70762 0.60525 0.11397 0.0
H99 H 0.76719 0.60757 0.23834 0.0
O100 O 0.9607 0.66536 0.0429 0.0
C101 C 0.92951 0.68713 0.17291 0.0
Co102 Co 0.28061 0.38153 0.38196 0.0
Co103 Co 0.22531 0.41067 0.31405 0.0
C104 C 0.33652 0.4803 0.34077 0.0
O105 O 0.3378 0.45196 0.36944 0.0
O106 O 0.29635 0.46652 0.31962 0.0
C107 C 0.33133 0.33437 0.41994 0.0
O108 O 0.35483 0.34445 0.38395 0.0
C109 C 0.18979 0.48211 0.30951 0.0
C110 C 0.15306 0.47107 0.24842 0.0
C111 C 0.16399 0.49914 0.28492 0.0
N112 N 0.19287 0.44471 0.28938 0.0
N113 N 0.17085 0.43818 0.25272 0.0
C114 C 0.21368 0.5032 0.35092 0.0
H115 H 0.23965 0.48917 0.3604 0.0
H116 H 0.18349 0.49134 0.37484 0.0
H117 H 0.23496 0.54557 0.34989 0.0
C118 C 0.18814 0.36243 0.42991 0.0
N119 N 0.21791 0.37809 0.39573 0.0
N120 N 0.19277 0.38486 0.36554 0.0
C121 C 0.1456 0.37202 0.37884 0.0
C122 C 0.14123 0.35811 0.42032 0.0
C123 C 0.20292 0.34749 0.46953 0.0
H124 H 0.20458 0.31206 0.46419 0.0
H125 H 0.24161 0.37784 0.47895 0.0
H126 H 0.17521 0.34042 0.49477 0.0
O127 O 0.2702 0.33968 0.33161 0.0
O128 O 0.22849 0.35554 0.28214 0.0
H129 H 0.11266 0.36953 0.31899 0.0
H130 H 0.06687 0.34231 0.35981 0.0
C131 C 0.10564 0.37339 0.35216 0.0
H132 H 0.1061 0.4099 0.35722 0.0
H133 H 0.16824 0.41168 0.23065 0.0
O134 O 0.29929 0.34913 0.42669 0.0
C135 C 0.25038 0.33132 0.2955 0.0
Co136 Co 0.63459 0.90746 0.37611 0.0
Co137 Co 0.60391 0.81929 0.31067 0.0
C138 C 0.53638 0.86469 0.33337 0.0
O139 O 0.56356 0.89377 0.36284 0.0
O140 O 0.55072 0.83793 0.31339 0.0
C141 C 0.65824 0.96882 0.4524 0.0
O142 O 0.61787 0.93027 0.46927 0.0
C143 C 0.52328 0.71608 0.30416 0.0
C144 C 0.54779 0.679 0.25779 0.0
C145 C 0.50963 0.6695 0.28631 0.0
N146 N 0.56759 0.75187 0.28744 0.0
N147 N 0.58177 0.72969 0.25912 0.0
C148 C 0.49865 0.72448 0.34146 0.0
H149 H 0.52566 0.75968 0.35827 0.0
H150 H 0.48454 0.69151 0.36299 0.0
H151 H 0.46534 0.72771 0.33138 0.0
C152 C 0.65794 0.83646 0.42587 0.0
N153 N 0.63925 0.84882 0.3924 0.0
N154 N 0.62794 0.81372 0.36368 0.0
C155 C 0.63874 0.77822 0.37778 0.0
C156 C 0.65799 0.79128 0.41762 0.0
C157 C 0.68059 0.86965 0.4632 0.0
H158 H 0.70455 0.90997 0.45349 0.0
H159 H 0.64942 0.86633 0.48344 0.0
H160 H 0.70437 0.85811 0.48132 0.0
O161 O 0.67493 0.93407 0.32516 0.0
O162 O 0.66055 0.87478 0.27769 0.0
H163 H 0.6446 0.74363 0.32151 0.0
H164 H 0.64782 0.71157 0.36737 0.0
C165 C 0.62988 0.73213 0.35349 0.0
H166 H 0.58846 0.70461 0.35239 0.0
H167 H 0.61574 0.74848 0.2423 0.0
O168 O 0.67009 0.96577 0.41518 0.0
C169 C 0.68439 0.9213 0.29005 0.0
Co170 Co 0.10877 0.73593 0.36979 0.0
Co171 Co 0.19837 0.78957 0.30526 0.0
C172 C 0.14861 0.67669 0.32772 0.0
O173 O 0.12109 0.67782 0.35728 0.0
O174 O 0.17697 0.7165 0.30674 0.0
C175 C 0.04818 0.69734 0.44591 0.0
O176 O 0.08616 0.69321 0.4613 0.0
C177 C 0.3003 0.80958 0.2908 0.0
C178 C 0.33731 0.88141 0.25501 0.0
C179 C 0.34714 0.84742 0.27636 0.0
N180 N 0.2644 0.82102 0.27941 0.0
N181 N 0.28644 0.86321 0.25688 0.0
C182 C 0.29129 0.76888 0.32175 0.0
H183 H 0.26365 0.76624 0.34566 0.0
H184 H 0.32709 0.7764 0.3373 0.0
H185 H 0.2748 0.73159 0.30551 0.0
C186 C 0.1815 0.82653 0.42115 0.0
N187 N 0.1686 0.79687 0.38679 0.0
N188 N 0.20608 0.81846 0.35965 0.0
C189 C 0.2443 0.86167 0.37635 0.0
C190 C 0.22993 0.86837 0.41562 0.0
C191 C 0.14655 0.81803 0.45689 0.0
H192 H 0.10708 0.80335 0.44557 0.0
H193 H 0.14722 0.78968 0.47829 0.0
H194 H 0.15872 0.85393 0.47441 0.0
O195 O 0.08269 0.7505 0.31898 0.0
O196 O 0.144 0.79368 0.27277 0.0
H197 H 0.28916 0.9088 0.32596 0.0
H198 H 0.32143 0.92781 0.37515 0.0
C199 C 0.29493 0.89476 0.35603 0.0
H200 H 0.31398 0.87216 0.35114 0.0
H201 H 0.26761 0.88182 0.24575 0.0
O202 O 0.05121 0.71406 0.40932 0.0
C203 C 0.09726 0.77278 0.28407 0.0
Co204 Co 0.63832 0.73486 0.87339 0.0
Co205 Co 0.60669 0.78983 0.80704 0.0
C206 C 0.54045 0.67743 0.83055 0.0
O207 O 0.56737 0.67801 0.86119 0.0
O208 O 0.55408 0.71718 0.80886 0.0
C209 C 0.65967 0.69633 0.95007 0.0
O210 O 0.61961 0.69531 0.96686 0.0
C211 C 0.52523 0.81041 0.79337 0.0
C212 C 0.55755 0.87896 0.75367 0.0
C213 C 0.51489 0.84659 0.777 0.0
N214 N 0.57196 0.82099 0.78088 0.0
N215 N 0.59068 0.8613 0.7562 0.0
C216 C 0.49547 0.77243 0.8267 0.0
H217 H 0.5217 0.76933 0.84898 0.0
H218 H 0.47049 0.78321 0.84395 0.0
H219 H 0.47122 0.73447 0.81222 0.0
C220 C 0.66009 0.82849 0.92273 0.0
N221 N 0.64202 0.79759 0.88914 0.0
N222 N 0.6281 0.81983 0.86101 0.0
C223 C 0.63574 0.86479 0.87618 0.0
C224 C 0.65649 0.87196 0.91563 0.0
C225 C 0.68544 0.81954 0.959 0.0
H226 H 0.70857 0.80256 0.94838 0.0
H227 H 0.65582 0.79284 0.98087 0.0
H228 H 0.71057 0.85566 0.97574 0.0
O229 O 0.67929 0.74724 0.82299 0.0
O230 O 0.66509 0.79199 0.7755 0.0
H231 H 0.64107 0.9101 0.82336 0.0
H232 H 0.63109 0.93454 0.87137 0.0
C233 C 0.62162 0.89946 0.85386 0.0
H234 H 0.57991 0.87932 0.84927 0.0
H235 H 0.62739 0.87895 0.74365 0.0
O236 O 0.67244 0.7118 0.91312 0.0
C237 C 0.68898 0.76939 0.78792 0.0
Co238 Co 0.29533 0.91622 0.8779 0.0
Co239 Co 0.23161 0.82498 0.81715 0.0
C240 C 0.34598 0.86896 0.83482 0.0
O241 O 0.35061 0.90112 0.86255 0.0
O242 O 0.30339 0.84088 0.81716 0.0
C243 C 0.34263 0.98249 0.9499 0.0
O244 O 0.35166 0.94726 0.96461 0.0
C245 C 0.1963 0.71752 0.81776 0.0
C246 C 0.15253 0.68678 0.76 0.0
C247 C 0.16812 0.67274 0.79574 0.0
N248 N 0.19645 0.75614 0.79687 0.0
N249 N 0.17019 0.73759 0.76223 0.0
C250 C 0.2253 0.72394 0.85712 0.0
H251 H 0.25193 0.76471 0.86392 0.0
H252 H 0.19825 0.70748 0.88343 0.0
H253 H 0.24677 0.70307 0.85485 0.0
C254 C 0.20895 0.84749 0.935 0.0
N255 N 0.23448 0.85886 0.89854 0.0
N256 N 0.20602 0.82383 0.87114 0.0
C257 C 0.16107 0.79034 0.88869 0.0
C258 C 0.16186 0.80359 0.92992 0.0
C259 C 0.22712 0.87996 0.97311 0.0
H260 H 0.23894 0.91996 0.96495 0.0
H261 H 0.26043 0.87869 -0.01402 0.0
H262 H 0.19691 0.86661 -0.00281 0.0
O263 O 0.27769 0.94066 0.82745 0.0
O264 O 0.22946 0.87914 0.7828 0.0
H265 H 0.08047 0.73976 0.87758 0.0
H266 H 0.11945 0.71128 0.87175 0.0
C267 C 0.11791 0.74669 0.86623 0.0
H268 H 0.12012 0.75453 0.83251 0.0
H269 H 0.1647 0.75952 0.74004 0.0
O270 O 0.32024 0.97582 0.91534 0.0
C271 C 0.25303 0.92627 0.7935 0.0
Co272 Co 0.11257 0.38122 0.87938 0.0
Co273 Co 0.19664 0.41181 0.81168 0.0
C274 C 0.15304 0.47987 0.8393 0.0
O275 O 0.12703 0.45261 0.86988 0.0
O276 O 0.17807 0.46583 0.81649 0.0
C277 C 0.05253 0.3581 0.95587 0.0
O278 O 0.09026 0.39949 0.97233 0.0
C279 C 0.30295 0.4855 0.80875 0.0
C280 C 0.33092 0.47559 0.74825 0.0
C281 C 0.3466 0.50325 0.78502 0.0
N282 N 0.26348 0.44809 0.78787 0.0
N283 N 0.2803 0.44232 0.75153 0.0
C284 C 0.29845 0.50528 0.85032 0.0
H285 H 0.25813 0.49187 0.85832 0.0
H286 H 0.3146 0.49149 0.8746 0.0
H287 H 0.32049 0.54766 0.85056 0.0
C288 C 0.18548 0.35909 0.92682 0.0
N289 N 0.17102 0.37599 0.89352 0.0
N290 N 0.20365 0.38513 0.86323 0.0
C291 C 0.23884 0.37296 0.8757 0.0
C292 C 0.2292 0.35706 0.91673 0.0
C293 C 0.15584 0.34094 0.96634 0.0
H294 H 0.1149 0.31548 0.95924 0.0
H295 H 0.16018 0.37431 0.98411 0.0
H296 H 0.16935 0.31976 -0.01421 0.0
O297 O 0.08341 0.34209 0.8277 0.0
O298 O 0.14066 0.35626 0.77853 0.0
H299 H 0.27007 0.37326 0.81551 0.0
H300 H 0.29015 0.34637 0.85538 0.0
C301 C 0.28098 0.37667 0.84862 0.0
H302 H 0.31617 0.41371 0.85414 0.0
H303 H 0.25744 0.41578 0.72912 0.0
O304 O 0.05594 0.34533 0.91908 0.0
C305 C 0.09458 0.33289 0.7918 0.0
Co306 Co 0.7383 0.63483 0.59193 0.0
Co307 Co 0.79134 0.60012 0.65744 0.0
C308 C 0.67924 0.53554 0.63359 0.0
O309 O 0.68085 0.56383 0.60361 0.0
O310 O 0.71848 0.54764 0.65556 0.0
C311 C 0.7033 0.65967 0.515 0.0
O312 O 0.70441 0.62122 0.49702 0.0
C313 C 0.81189 0.51902 0.67575 0.0
C314 C 0.88455 0.55637 0.71036 0.0
C315 C 0.85007 0.51106 0.69108 0.0
N316 N 0.82347 0.56709 0.6848 0.0
N317 N 0.86623 0.58885 0.70659 0.0
C318 C 0.77057 0.48512 0.64607 0.0
H319 H 0.76827 0.50817 0.62028 0.0
H320 H 0.7771 0.45489 0.63298 0.0
H321 H 0.73348 0.46661 0.66268 0.0
C322 C 0.83218 0.65715 0.54294 0.0
N323 N 0.80066 0.63794 0.57606 0.0
N324 N 0.82115 0.62077 0.60312 0.0
C325 C 0.86503 0.62644 0.58715 0.0
C326 C 0.87383 0.6502 0.54883 0.0
C327 C 0.82618 0.68722 0.50878 0.0
H328 H 0.80824 0.70888 0.52081 0.0
H329 H 0.80181 0.66074 0.48407 0.0
H330 H 0.86366 0.71445 0.49487 0.0
O331 O 0.75072 0.6755 0.64217 0.0
O332 O 0.79427 0.65908 0.68912 0.0
H333 H 0.9137 0.62842 0.63613 0.0
H334 H 0.92771 0.61029 0.58662 0.0
C335 C 0.89681 0.60706 0.60704 0.0
H336 H 0.87254 0.56606 0.61387 0.0
H337 H 0.88501 0.62701 0.71595 0.0
O338 O 0.7159 0.66989 0.55276 0.0
C339 C 0.77272 0.68415 0.6772 0.0
Co340 Co 0.3829 0.09992 0.59383 0.0
Co341 Co 0.4117 0.19154 0.65454 0.0
C342 C 0.48119 0.14664 0.6357 0.0
O343 O 0.45302 0.11433 0.60838 0.0
O344 O 0.46746 0.17531 0.65361 0.0
C345 C 0.36424 0.03426 0.52195 0.0
O346 O 0.40891 0.06936 0.50793 0.0
C347 C 0.48387 0.29905 0.65424 0.0
C348 C 0.47093 0.3294 0.71235 0.0
C349 C 0.50048 0.34366 0.67655 0.0
N350 N 0.44546 0.26032 0.67503 0.0
N351 N 0.43779 0.27864 0.70987 0.0
C352 C 0.50646 0.29286 0.61473 0.0
H353 H 0.49175 0.25209 0.60737 0.0
H354 H 0.49664 0.31032 0.58869 0.0
H355 H 0.54869 0.31294 0.61725 0.0
C356 C 0.36584 0.16912 0.53697 0.0
N357 N 0.37974 0.15755 0.57342 0.0
N358 N 0.38673 0.1928 0.6008 0.0
C359 C 0.37576 0.22667 0.58322 0.0
C360 C 0.36325 0.21341 0.54201 0.0
C361 C 0.35153 0.13668 0.49882 0.0
H362 H 0.386 0.13766 0.48596 0.0
H363 H 0.33495 0.15032 0.47473 0.0
H364 H 0.32317 0.09675 0.50689 0.0
O365 O 0.34167 0.07568 0.64462 0.0
O366 O 0.35605 0.13743 0.68945 0.0
H367 H 0.34644 0.27795 0.59425 0.0
H368 H 0.41379 0.30587 0.59979 0.0
C369 C 0.3768 0.27073 0.60556 0.0
H370 H 0.37133 0.26315 0.63933 0.0
H371 H 0.41044 0.25658 0.73205 0.0
O372 O 0.34795 0.04062 0.55637 0.0
C373 C 0.33221 0.09027 0.67886 0.0
Co374 Co 0.90765 0.2796 0.59724 0.0
Co375 Co 0.82045 0.22306 0.66306 0.0
C376 C 0.86523 0.33568 0.63997 0.0
O377 O 0.89381 0.33672 0.61041 0.0
O378 O 0.83854 0.29505 0.66047 0.0
C379 C 0.96814 0.31905 0.52088 0.0
O380 O 0.92957 0.32128 0.5045 0.0
C381 C 0.71744 0.20025 0.67336 0.0
C382 C 0.68236 0.13675 0.71814 0.0
C383 C 0.67155 0.16626 0.6916 0.0
N384 N 0.75401 0.19153 0.68801 0.0
N385 N 0.73307 0.15409 0.71548 0.0
C386 C 0.72433 0.23418 0.63707 0.0
H387 H 0.75801 0.2414 0.61834 0.0
H388 H 0.69004 0.21671 0.61687 0.0
H389 H 0.72963 0.27109 0.64859 0.0
C390 C 0.83601 0.18618 0.54708 0.0
N391 N 0.84889 0.21656 0.58104 0.0
N392 N 0.81355 0.19307 0.60959 0.0
C393 C 0.77715 0.14758 0.5947 0.0
C394 C 0.79004 0.14162 0.5546 0.0
C395 C 0.86926 0.19687 0.50976 0.0
H396 H 0.90954 0.2131 0.5195 0.0
H397 H 0.86597 0.22487 0.48971 0.0
H398 H 0.85776 0.16165 0.49144 0.0
O399 O 0.93572 0.2669 0.64782 0.0
O400 O 0.87684 0.22256 0.69552 0.0
H401 H 0.74058 0.10545 0.64978 0.0
H402 H 0.70757 0.07375 0.60296 0.0
C403 C 0.73 0.11126 0.61819 0.0
H404 H 0.70453 0.12759 0.62041 0.0
H405 H 0.75264 0.13845 0.73055 0.0
O406 O 0.96509 0.30272 0.55758 0.0
C407 C 0.92329 0.2452 0.68309 0.0
C408 C 0.58901 0.11741 0.14247 0.0
C409 C 0.63914 0.15893 0.14367 0.0
H410 H 0.51008 0.09011 0.15726 0.0
C411 C 0.64775 0.20563 0.16037 0.0
H412 H 0.5814 0.08082 0.13035 0.0
C413 C 0.60741 0.21082 0.17567 0.0
C414 C 0.55753 0.16929 0.17519 0.0
H415 H 0.68598 0.2383 0.16188 0.0
H416 H 0.61523 0.24738 0.18806 0.0
C417 C 0.54849 0.12245 0.15851 0.0
C418 C 0.84813 0.42342 0.19762 0.0
C419 C 0.86276 0.39667 0.17065 0.0
H420 H 0.83838 0.48805 0.20639 0.0
C421 C 0.8827 0.41764 0.13141 0.0
H422 H 0.83271 0.40814 0.228 0.0
C423 C 0.88625 0.46374 0.11884 0.0
C424 C 0.86947 0.48944 0.1452 0.0
H425 H 0.8954 0.39832 0.11035 0.0
H426 H 0.90112 0.47864 0.08828 0.0
C427 C 0.85104 0.469 0.18496 0.0
C428 C 0.59767 0.43798 0.2027 0.0
C429 C 0.62491 0.47711 0.17408 0.0
H430 H 0.53212 0.36509 0.21389 0.0
C431 C 0.60372 0.4743 0.13461 0.0
H432 H 0.61314 0.43931 0.23329 0.0
C433 C 0.55697 0.43185 0.12334 0.0
C434 C 0.531 0.39129 0.15128 0.0
H435 H 0.62358 0.50467 0.11227 0.0
H436 H 0.54204 0.43009 0.09247 0.0
C437 C 0.55147 0.39535 0.19133 0.0
C438 C 0.13377 0.54419 0.33283 0.0
C439 C 0.15451 0.54161 0.29438 0.0
H440 H 0.11511 0.58878 0.37367 0.0
C441 C 0.1699 0.58189 0.26623 0.0
H442 H 0.12063 0.51302 0.35475 0.0
C443 C 0.16718 0.62522 0.27713 0.0
C444 C 0.14817 0.6289 0.31619 0.0
H445 H 0.18601 0.58081 0.23645 0.0
H446 H 0.18067 0.65624 0.25498 0.0
C447 C 0.13034 0.58736 0.34358 0.0
C448 C 0.47302 0.58067 0.31481 0.0
C449 C 0.46587 0.61991 0.29884 0.0
H450 H 0.43752 0.50573 0.34223 0.0
C451 C 0.41676 0.61373 0.29862 0.0
H452 H 0.51085 0.58515 0.31592 0.0
C453 C 0.37526 0.56883 0.31341 0.0
C454 C 0.38203 0.52941 0.32958 0.0
H455 H 0.41048 0.64372 0.28685 0.0
H456 H 0.33764 0.5649 0.31214 0.0
C457 C 0.43138 0.53582 0.33049 0.0
C458 C 0.45399 0.82012 0.29479 0.0
C459 C 0.48775 0.86133 0.3201 0.0
H460 H 0.38352 0.7839 0.26116 0.0
C461 C 0.47571 0.89958 0.32946 0.0
H462 H 0.46202 0.79011 0.28649 0.0
C463 C 0.4309 0.89647 0.31367 0.0
C464 C 0.39731 0.85476 0.28888 0.0
H465 H 0.50109 0.93202 0.34843 0.0
H466 H 0.42179 0.92585 0.32168 0.0
C467 C 0.40921 0.81667 0.27975 0.0
C468 C 0.44058 0.90471 0.8245 0.0
C469 C 0.39016 0.86405 0.82099 0.0
H470 H 0.51992 0.9315 0.81198 0.0
C471 C 0.38139 0.81877 0.80127 0.0
H472 H 0.44848 0.94021 0.83911 0.0
C473 C 0.42192 0.81393 0.78587 0.0
C474 C 0.47216 0.85443 0.78927 0.0
H475 H 0.34303 0.78669 0.79799 0.0
H476 H 0.41408 0.77823 0.77162 0.0
C477 C 0.48127 0.90005 0.80843 0.0
C478 C 0.14076 0.55443 0.85719 0.0
C479 C 0.15386 0.528 0.82832 0.0
H480 H 0.13451 0.62097 0.8693 0.0
C481 C 0.16856 0.54824 0.78801 0.0
H482 H 0.12891 0.5397 0.88831 0.0
C483 C 0.17119 0.59423 0.77708 0.0
C484 C 0.16019 0.62162 0.80637 0.0
H485 H 0.1783 0.5286 0.76476 0.0
H486 H 0.18349 0.60923 0.74607 0.0
C487 C 0.14426 0.60103 0.84637 0.0
C488 C 0.47159 0.62728 0.77892 0.0
C489 C 0.49259 0.63053 0.81863 0.0
H490 H 0.40954 0.58408 0.7371 0.0
C491 C 0.46675 0.58951 0.8462 0.0
H492 H 0.49074 0.6579 0.75662 0.0
C493 C 0.41987 0.54727 0.83487 0.0
C494 C 0.39831 0.54512 0.79568 0.0
H495 H 0.48206 0.5906 0.8768 0.0
H496 H 0.40038 0.5164 0.85685 0.0
C497 C 0.42524 0.58488 0.76748 0.0
C498 C 0.89704 0.47385 0.65408 0.0
C499 C 0.85739 0.4676 0.68064 0.0
H500 H 0.93026 0.43682 0.61932 0.0
C501 C 0.82085 0.41849 0.6933 0.0
H502 H 0.9251 0.51157 0.64335 0.0
C503 C 0.82375 0.37615 0.67983 0.0
C504 C 0.86273 0.38172 0.65259 0.0
H505 H 0.7896 0.41284 0.71328 0.0
H506 H 0.79495 0.33887 0.6907 0.0
C507 C 0.89953 0.43115 0.63991 0.0
C508 C 0.59172 0.46247 0.61584 0.0
C509 C 0.63141 0.48806 0.64461 0.0
H510 H 0.51865 0.39661 0.6036 0.0
C511 C 0.62584 0.46724 0.68468 0.0
H512 H 0.59467 0.47763 0.58488 0.0
C513 C 0.58232 0.42141 0.69546 0.0
C514 C 0.54378 0.39476 0.66621 0.0
H515 H 0.65542 0.48621 0.70783 0.0
H516 H 0.57963 0.4059 0.72625 0.0
C517 C 0.54843 0.41599 0.62648 0.0
C518 C 0.61337 0.2011 0.68127 0.0
C519 C 0.6212 0.15915 0.67996 0.0
H520 H 0.56326 0.22999 0.668 0.0
C521 C 0.5831 0.11278 0.66311 0.0
H522 H 0.64252 0.23738 0.69369 0.0
C523 C 0.53796 0.10875 0.6473 0.0
C524 C 0.53006 0.15082 0.64887 0.0
H525 H 0.58887 0.08022 0.66113 0.0
H526 H 0.50902 0.07264 0.63451 0.0
C527 C 0.56818 0.19688 0.66626 0.0
C528 C 0.33082 0.05626 0.03916 0.0
C529 C 0.36098 0.10693 0.02564 0.0
H530 H 0.30387 0.97716 0.02649 0.0
C531 C 0.38318 0.11632 -0.01398 0.0
H532 H 0.31182 0.04799 0.069 0.0
C533 C 0.37703 0.07566 0.96109 0.0
C534 C 0.34987 0.02538 0.97603 0.0
H535 H 0.40632 0.15506 0.97482 0.0
H536 H 0.39452 0.08351 0.93063 0.0
C537 C 0.32637 0.01587 0.01501 0.0
C538 C 0.91694 0.27289 -0.00881 0.0
C539 C 0.92427 0.25241 0.02789 0.0
H540 H 0.95259 0.32284 0.93934 0.0
C541 C 0.97401 0.26554 0.03979 0.0
H542 H 0.87891 0.26319 0.98135 0.0
C543 C 0.01599 0.30137 0.01704 0.0
C544 C 1.00862 0.32278 0.98104 0.0
H545 H 0.98052 0.24831 0.06681 0.0
H546 H 0.05411 0.31153 0.02703 0.0
C547 C 0.95889 0.30734 0.96758 0.0
C548 C 0.75296 0.70814 0.03256 0.0
C549 C 0.76244 0.66861 0.02163 0.0
H550 H 0.71086 0.74635 0.01922 0.0
C551 C 0.73902 0.63923 -0.01386 0.0
H552 H 0.77213 0.73262 0.05884 0.0
C553 C 0.70554 0.64839 0.96264 0.0
C554 C 0.69396 0.68598 0.97509 0.0
H555 H 0.74575 0.60852 0.97716 0.0
H556 H 0.68781 0.62541 0.93529 0.0
C557 C 0.71815 0.71608 0.00996 0.0
C558 C 0.06184 0.36532 0.50803 0.0
C559 C 0.01241 0.32884 0.49549 0.0
H560 H 0.14172 0.40391 0.49321 0.0
C561 C 1.00577 0.29937 0.45999 0.0
H562 H 0.06764 0.38782 0.5358 0.0
C563 C 0.04807 0.30679 0.43694 0.0
C564 C 0.0974 0.34523 0.44802 0.0
H565 H 0.96798 0.26995 0.4506 0.0
H566 H 0.04215 0.28265 0.41025 0.0
C567 C 0.10405 0.37401 0.48408 0.0
C568 C 0.70831 0.74737 0.42987 0.0
C569 C 0.67416 0.7625 0.44472 0.0
H570 H 0.74231 0.70064 0.43977 0.0
C571 C 0.65205 0.74605 0.48402 0.0
H572 H 0.72713 0.76101 0.40019 0.0
C573 C 0.66204 0.7129 0.5072 0.0
C574 C 0.6932 0.69485 0.49084 0.0
H575 H 0.62585 0.7575 0.49618 0.0
H576 H 0.64421 0.70012 0.53732 0.0
C577 C 0.71682 0.71282 0.45229 0.0
C578 C 0.31919 1.00159 0.45496 0.0
C579 C 0.32913 0.99179 0.49532 0.0
H580 H 0.2767 0.97017 0.39906 0.0
C581 C 0.30271 0.94174 0.51087 0.0
H582 H 0.33799 0.0402 0.44288 0.0
C583 C 0.26897 0.90145 0.48538 0.0
C584 C 0.26026 0.91106 0.44447 0.0
H585 H 0.30924 0.93371 0.54232 0.0
H586 H 0.25086 0.86276 0.4972 0.0
C587 C 0.28407 0.96168 0.43011 0.0
C588 C 0.66466 0.95241 0.00871 0.0
C589 C 0.69103 1.00186 -0.00811 0.0
H590 H 0.6321 0.87206 -0.00279 0.0
C591 C 0.70974 0.00863 0.95122 0.0
H592 H 0.65051 0.94646 0.04029 0.0
C593 C 0.70127 0.96647 0.9274 0.0
C594 C 0.6719 0.91668 0.94312 0.0
H595 H 0.73144 0.04655 0.93805 0.0
H596 H 0.71653 0.97269 0.89618 0.0
C597 C 0.65459 0.91002 0.98431 0.0
C598 C 0.03489 0.73325 -0.01467 0.0
C599 C 0.04715 0.71281 0.01972 0.0
H600 H 0.06228 0.78009 0.93094 0.0
C601 C 0.098 0.72458 0.02525 0.0
H602 H 0.99628 0.72569 0.98056 0.0
C603 C 0.13552 0.75514 -0.00354 0.0
C604 C 0.1229 0.77465 0.96181 0.0
H605 H 0.10875 0.70974 0.05158 0.0
H606 H 0.17423 0.76276 0.00081 0.0
C607 C 0.07255 0.76426 0.95686 0.0
C608 C 0.27649 0.31044 0.93272 0.0
C609 C 0.26137 0.34573 0.94445 0.0
H610 H 0.32288 0.27708 0.94702 0.0
C611 C 0.27912 0.37213 0.98215 0.0
H612 H 0.26123 0.28749 0.90503 0.0
C613 C 0.31249 0.36437 0.00709 0.0
C614 C 0.32969 0.33122 -0.00592 0.0
H615 H 0.26783 0.39937 -0.00801 0.0
H616 H 0.32571 0.38503 0.03611 0.0
C617 C 0.3113 0.3041 0.95686 0.0
C618 C 0.95482 0.66527 0.45422 0.0
C619 C 1.00379 0.6868 0.4718 0.0
H620 H 0.8749 0.63571 0.46519 0.0
C621 C 1.01023 0.69962 0.51403 0.0
H622 H 0.94906 0.65553 0.42155 0.0
C623 C 0.96827 0.69029 0.53845 0.0
C624 C 0.91881 0.66598 0.52154 0.0
H625 H 0.04779 0.71747 0.52803 0.0
H626 H 0.97436 0.70112 0.5709 0.0
C627 C 0.91255 0.65438 0.47902 0.0
C628 C 0.31372 0.25308 0.51469 0.0
C629 C 0.35364 0.24253 0.51003 0.0
H630 H 0.27579 0.29109 0.49022 0.0
C631 C 0.38579 0.26157 0.47534 0.0
H632 H 0.28768 0.23768 0.5407 0.0
C633 C 0.37871 0.29162 0.44608 0.0
C634 C 0.33945 0.30327 0.45117 0.0
H635 H 0.41686 0.25383 0.47124 0.0
H636 H 0.40426 0.30603 0.4197 0.0
C637 C 0.30689 0.2835 0.48572 0.0
C638 C 0.74282 0.04748 0.54072 0.0
C639 C 0.76055 0.09754 0.52657 0.0
H640 H 0.69446 0.96742 0.52897 0.0
C641 C 0.74683 0.10496 0.48666 0.0
H642 H 0.75438 0.04075 0.57078 0.0
C643 C 0.71403 0.06295 0.46215 0.0
C644 C 0.6935 0.01309 0.47769 0.0
H645 H 0.76027 0.14317 0.47494 0.0
H646 H 0.70345 0.06943 0.43159 0.0
C647 C 0.70861 1.00563 0.51694 0.0
C648 C 0.25214 0.29781 0.22458 0.0
C649 C 0.26022 0.29816 0.26744 0.0
H650 H 0.26919 0.28067 0.16439 0.0
C651 C 0.28514 0.27254 0.28272 0.0
H652 H 0.23268 0.31658 0.21175 0.0
C653 C 0.30647 0.25213 0.25555 0.0
C654 C 0.30316 0.25681 0.21255 0.0
H655 H 0.29129 0.27123 0.3157 0.0
H656 H 0.32875 0.2363 0.26824 0.0
C657 C 0.27331 0.27726 0.19744 0.0
C658 C 0.73739 0.99867 0.19258 0.0
C659 C 0.76043 0.04882 0.20866 0.0
H660 H 0.69549 0.9185 0.20574 0.0
C661 C 0.7675 0.05588 0.2516 0.0
H662 H 0.73226 0.99181 0.15946 0.0
C663 C 0.74687 0.01363 0.27805 0.0
C664 C 0.71852 0.96355 0.26207 0.0
H665 H 0.78559 0.09384 0.26496 0.0
H666 H 0.75004 0.02048 0.31121 0.0
C667 C 0.71652 0.95642 0.21904 0.0
C668 C 0.96494 0.72571 0.24251 0.0
C669 C 0.97258 0.72207 0.20002 0.0
H670 H 0.99911 0.74639 0.30255 0.0
C671 C 0.02302 0.74612 0.18464 0.0
H672 H 0.92679 0.70835 0.25535 0.0
C673 C 0.06468 0.76779 0.21174 0.0
C674 C 0.05665 0.76593 0.2547 0.0
H675 H 0.0304 0.745 0.15187 0.0
H676 H 0.10267 0.78198 0.19925 0.0
C677 C 1.00658 0.74754 0.26956 0.0
C678 C 0.77097 0.71651 0.74859 0.0
C679 C 0.76553 0.71872 0.70562 0.0
H680 H 0.752 0.73224 0.80854 0.0
C681 C 0.74428 0.74779 0.69019 0.0
H682 H 0.78753 0.69498 0.76151 0.0
C683 C 0.72327 0.76875 0.71709 0.0
C684 C 0.72338 0.76132 0.75997 0.0
H685 H 0.74038 0.75118 0.6571 0.0
H686 H 0.70353 0.78716 0.70409 0.0
C687 C 0.75023 0.73774 0.7755 0.0
C688 C 0.25054 0.95776 0.72201 0.0
C689 C 0.25902 0.96713 0.76465 0.0
H690 H 0.26606 0.99 0.66119 0.0
C691 C 0.28186 0.01805 0.77895 0.0
H692 H 0.23264 0.91915 0.70999 0.0
C693 C 0.30154 0.05888 0.75101 0.0
C694 C 0.29853 0.04952 0.70824 0.0
H695 H 0.28807 0.02664 0.81179 0.0
H696 H 0.3227 0.09748 0.76297 0.0
C697 C 0.27001 0.99859 0.69408 0.0
C698 C 1.00134 0.27238 0.78067 0.0
C699 C 0.05139 0.29879 0.76443 0.0
H700 H 0.92113 0.23391 0.76772 0.0
C701 C 0.05814 0.29768 0.7215 0.0
H702 H 0.99467 0.27157 0.81377 0.0
C703 C 0.01576 0.27547 0.69518 0.0
C704 C 0.96577 0.25415 0.71122 0.0
H705 H 0.09599 0.31701 0.70799 0.0
H706 H 0.0224 0.27826 0.662 0.0
C707 C 0.95895 0.25034 0.75433 0.0
loop_
_geom_bond_atom_site_label_1
_geom_bond_atom_site_label_2
_geom_bond_distance
_geom_bond_site_symmetry_2
_ccdc_geom_bond_type
Co0 O3 1.970 . S
Co0 N17 1.989 . S
Co0 O25 1.967 . S
Co0 O32 1.920 . S
Co1 O4 1.966 . S
Co1 N10 2.022 . S
Co1 N18 1.993 . S
Co1 O26 1.941 . S
C2 O3 1.258 . S
C2 O4 1.263 . S
O3 Co0 1.970 . S
O3 C2 1.258 . S
O4 Co1 1.966 . S
O4 C2 1.263 . S
C5 O6 1.235 . S
C5 O32 1.289 . S
O6 C5 1.235 . S
C7 C9 1.400 . S
C7 N10 1.351 . S
C7 C12 1.501 . S
C8 C9 1.387 . S
C8 N11 1.341 . S
C9 C7 1.400 . S
C9 C8 1.387 . S
N10 Co1 2.022 . S
N10 C7 1.351 . S
N10 N11 1.365 . S
N11 C8 1.341 . S
N11 N10 1.365 . S
N11 H31 0.862 . S
C12 C7 1.501 . S
C12 H13 0.961 . S
C12 H14 0.961 . S
C12 H15 0.960 . S
H13 C12 0.961 . S
H14 C12 0.961 . S
H15 C12 0.960 . S
C16 N17 1.342 . S
C16 C20 1.401 . S
C16 C21 1.499 . S
N17 Co0 1.989 . S
N17 C16 1.342 . S
N17 N18 1.388 . S
N18 Co1 1.993 . S
N18 N17 1.388 . S
N18 C19 1.346 . S
C19 N18 1.346 . S
C19 C20 1.396 . S
C19 C29 1.510 . S
C20 C16 1.401 . S
C20 C19 1.396 . S
C21 C16 1.499 . S
C21 H22 0.959 . S
C21 H23 0.960 . S
C21 H24 0.961 . S
H22 C21 0.959 . S
H23 C21 0.960 . S
H24 C21 0.961 . S
O25 Co0 1.967 . S
O25 C33 1.258 . S
O26 Co1 1.941 . S
O26 C33 1.266 . S
H27 C29 0.959 . S
H28 C29 0.961 . S
C29 C19 1.510 . S
C29 H27 0.959 . S
C29 H28 0.961 . S
C29 H30 0.960 . S
H30 C29 0.960 . S
H31 N11 0.862 . S
O32 Co0 1.920 . S
O32 C5 1.289 . S
C33 O25 1.258 . S
C33 O26 1.266 . S
Co34 O37 1.970 . S
Co34 N51 1.989 . S
Co34 O59 1.967 . S
Co34 O66 1.920 . S
Co35 O38 1.966 . S
Co35 N44 2.022 . S
Co35 N52 1.993 . S
Co35 O60 1.941 . S
C36 O37 1.258 . S
C36 O38 1.263 . S
O37 Co34 1.970 . S
O37 C36 1.258 . S
O38 Co35 1.966 . S
O38 C36 1.263 . S
C39 O40 1.235 . S
C39 O66 1.289 . S
O40 C39 1.235 . S
C41 C43 1.400 . S
C41 N44 1.351 . S
C41 C46 1.501 . S
C42 C43 1.387 . S
C42 N45 1.341 . S
C43 C41 1.400 . S
C43 C42 1.387 . S
N44 Co35 2.022 . S
N44 C41 1.351 . S
N44 N45 1.365 . S
N45 C42 1.341 . S
N45 N44 1.365 . S
N45 H65 0.862 . S
C46 C41 1.501 . S
C46 H47 0.961 . S
C46 H48 0.961 . S
C46 H49 0.960 . S
H47 C46 0.961 . S
H48 C46 0.961 . S
H49 C46 0.960 . S
C50 N51 1.342 . S
C50 C54 1.401 . S
C50 C55 1.499 . S
N51 Co34 1.989 . S
N51 C50 1.342 . S
N51 N52 1.388 . S
N52 Co35 1.993 . S
N52 N51 1.388 . S
N52 C53 1.346 . S
C53 N52 1.346 . S
C53 C54 1.396 . S
C53 C63 1.510 . S
C54 C50 1.401 . S
C54 C53 1.396 . S
C55 C50 1.499 . S
C55 H56 0.959 . S
C55 H57 0.960 . S
C55 H58 0.961 . S
H56 C55 0.959 . S
H57 C55 0.960 . S
H58 C55 0.961 . S
O59 Co34 1.967 . S
O59 C67 1.258 . S
O60 Co35 1.941 . S
O60 C67 1.266 . S
H61 C63 0.959 . S
H62 C63 0.961 . S
C63 C53 1.510 . S
C63 H61 0.959 . S
C63 H62 0.961 . S
C63 H64 0.960 . S
H64 C63 0.960 . S
H65 N45 0.862 . S
O66 Co34 1.920 . S
O66 C39 1.289 . S
C67 O59 1.258 . S
C67 O60 1.266 . S
Co68 O71 1.970 . S
Co68 N85 1.989 . S
Co68 O93 1.967 . S
Co68 O100 1.920 . S
Co69 O72 1.966 . S
Co69 N78 2.022 . S
Co69 N86 1.993 . S
Co69 O94 1.941 . S
C70 O71 1.258 . S
C70 O72 1.263 . S
O71 Co68 1.970 . S
O71 C70 1.258 . S
O72 Co69 1.966 . S
O72 C70 1.263 . S
C73 O74 1.235 . S
C73 O100 1.289 . S
O74 C73 1.235 . S
C75 C77 1.400 . S
C75 N78 1.351 . S
C75 C80 1.501 . S
C76 C77 1.387 . S
C76 N79 1.341 . S
C77 C75 1.400 . S
C77 C76 1.387 . S
N78 Co69 2.022 . S
N78 C75 1.351 . S
N78 N79 1.365 . S
N79 C76 1.341 . S
N79 N78 1.365 . S
N79 H99 0.862 . S
C80 C75 1.501 . S
C80 H81 0.961 . S
C80 H82 0.961 . S
C80 H83 0.960 . S
H81 C80 0.961 . S
H82 C80 0.961 . S
H83 C80 0.960 . S
C84 N85 1.342 . S
C84 C88 1.401 . S
C84 C89 1.499 . S
N85 Co68 1.989 . S
N85 C84 1.342 . S
N85 N86 1.388 . S
N86 Co69 1.993 . S
N86 N85 1.388 . S
N86 C87 1.346 . S
C87 N86 1.346 . S
C87 C88 1.396 . S
C87 C97 1.510 . S
C88 C84 1.401 . S
C88 C87 1.396 . S
C89 C84 1.499 . S
C89 H90 0.959 . S
C89 H91 0.960 . S
C89 H92 0.961 . S
H90 C89 0.959 . S
H91 C89 0.960 . S
H92 C89 0.961 . S
O93 Co68 1.967 . S
O93 C101 1.258 . S
O94 Co69 1.941 . S
O94 C101 1.266 . S
H95 C97 0.959 . S
H96 C97 0.961 . S
C97 C87 1.510 . S
C97 H95 0.959 . S
C97 H96 0.961 . S
C97 H98 0.960 . S
H98 C97 0.960 . S
H99 N79 0.862 . S
O100 Co68 1.920 . S
O100 C73 1.289 . S
C101 O93 1.258 . S
C101 O94 1.266 . S
Co102 O105 1.970 . S
Co102 N119 1.989 . S
Co102 O127 1.967 . S
Co102 O134 1.920 . S
Co103 O106 1.966 . S
Co103 N112 2.022 . S
Co103 N120 1.993 . S
Co103 O128 1.941 . S
C104 O105 1.258 . S
C104 O106 1.263 . S
O105 Co102 1.970 . S
O105 C104 1.258 . S
O106 Co103 1.966 . S
O106 C104 1.263 . S
C107 O108 1.235 . S
C107 O134 1.289 . S
O108 C107 1.235 . S
C109 C111 1.400 . S
C109 N112 1.351 . S
C109 C114 1.501 . S
C110 C111 1.387 . S
C110 N113 1.341 . S
C111 C109 1.400 . S
C111 C110 1.387 . S
N112 Co103 2.022 . S
N112 C109 1.351 . S
N112 N113 1.365 . S
N113 C110 1.341 . S
N113 N112 1.365 . S
N113 H133 0.862 . S
C114 C109 1.501 . S
C114 H115 0.961 . S
C114 H116 0.961 . S
C114 H117 0.960 . S
H115 C114 0.961 . S
H116 C114 0.961 . S
H117 C114 0.960 . S
C118 N119 1.342 . S
C118 C122 1.401 . S
C118 C123 1.499 . S
N119 Co102 1.989 . S
N119 C118 1.342 . S
N119 N120 1.388 . S
N120 Co103 1.993 . S
N120 N119 1.388 . S
N120 C121 1.346 . S
C121 N120 1.346 . S
C121 C122 1.396 . S
C121 C131 1.510 . S
C122 C118 1.401 . S
C122 C121 1.396 . S
C123 C118 1.499 . S
C123 H124 0.959 . S
C123 H125 0.960 . S
C123 H126 0.961 . S
H124 C123 0.959 . S
H125 C123 0.960 . S
H126 C123 0.961 . S
O127 Co102 1.967 . S
O127 C135 1.258 . S
O128 Co103 1.941 . S
O128 C135 1.266 . S
H129 C131 0.959 . S
H130 C131 0.961 . S
C131 C121 1.510 . S
C131 H129 0.959 . S
C131 H130 0.961 . S
C131 H132 0.960 . S
H132 C131 0.960 . S
H133 N113 0.862 . S
O134 Co102 1.920 . S
O134 C107 1.289 . S
C135 O127 1.258 . S
C135 O128 1.266 . S
Co136 O139 1.970 . S
Co136 N153 1.989 . S
Co136 O161 1.967 . S
Co136 O168 1.920 . S
Co137 O140 1.966 . S
Co137 N146 2.022 . S
Co137 N154 1.993 . S
Co137 O162 1.941 . S
C138 O139 1.258 . S
C138 O140 1.263 . S
O139 Co136 1.970 . S
O139 C138 1.258 . S
O140 Co137 1.966 . S
O140 C138 1.263 . S
C141 O142 1.235 . S
C141 O168 1.289 . S
O142 C141 1.235 . S
C143 C145 1.400 . S
C143 N146 1.351 . S
C143 C148 1.501 . S
C144 C145 1.387 . S
C144 N147 1.341 . S
C145 C143 1.400 . S
C145 C144 1.387 . S
N146 Co137 2.022 . S
N146 C143 1.351 . S
N146 N147 1.365 . S
N147 C144 1.341 . S
N147 N146 1.365 . S
N147 H167 0.862 . S
C148 C143 1.501 . S
C148 H149 0.961 . S
C148 H150 0.961 . S
C148 H151 0.960 . S
H149 C148 0.961 . S
H150 C148 0.961 . S
H151 C148 0.960 . S
C152 N153 1.342 . S
C152 C156 1.401 . S
C152 C157 1.499 . S
N153 Co136 1.989 . S
N153 C152 1.342 . S
N153 N154 1.388 . S
N154 Co137 1.993 . S
N154 N153 1.388 . S
N154 C155 1.346 . S
C155 N154 1.346 . S
C155 C156 1.396 . S
C155 C165 1.510 . S
C156 C152 1.401 . S
C156 C155 1.396 . S
C157 C152 1.499 . S
C157 H158 0.959 . S
C157 H159 0.960 . S
C157 H160 0.961 . S
H158 C157 0.959 . S
H159 C157 0.960 . S
H160 C157 0.961 . S
O161 Co136 1.967 . S
O161 C169 1.258 . S
O162 Co137 1.941 . S
O162 C169 1.266 . S
H163 C165 0.959 . S
H164 C165 0.961 . S
C165 C155 1.510 . S
C165 H163 0.959 . S
C165 H164 0.961 . S
C165 H166 0.960 . S
H166 C165 0.960 . S
H167 N147 0.862 . S
O168 Co136 1.920 . S
O168 C141 1.289 . S
C169 O161 1.258 . S
C169 O162 1.266 . S
Co170 O173 1.970 . S
Co170 N187 1.989 . S
Co170 O195 1.967 . S
Co170 O202 1.920 . S
Co171 O174 1.966 . S
Co171 N180 2.022 . S
Co171 N188 1.993 . S
Co171 O196 1.941 . S
C172 O173 1.258 . S
C172 O174 1.263 . S
O173 Co170 1.970 . S
O173 C172 1.258 . S
O174 Co171 1.966 . S
O174 C172 1.263 . S
C175 O176 1.235 . S
C175 O202 1.289 . S
O176 C175 1.235 . S
C177 C179 1.400 . S
C177 N180 1.351 . S
C177 C182 1.501 . S
C178 C179 1.387 . S
C178 N181 1.341 . S
C179 C177 1.400 . S
C179 C178 1.387 . S
N180 Co171 2.022 . S
N180 C177 1.351 . S
N180 N181 1.365 . S
N181 C178 1.341 . S
N181 N180 1.365 . S
N181 H201 0.862 . S
C182 C177 1.501 . S
C182 H183 0.961 . S
C182 H184 0.961 . S
C182 H185 0.960 . S
H183 C182 0.961 . S
H184 C182 0.961 . S
H185 C182 0.960 . S
C186 N187 1.342 . S
C186 C190 1.401 . S
C186 C191 1.499 . S
N187 Co170 1.989 . S
N187 C186 1.342 . S
N187 N188 1.388 . S
N188 Co171 1.993 . S
N188 N187 1.388 . S
N188 C189 1.346 . S
C189 N188 1.346 . S
C189 C190 1.396 . S
C189 C199 1.510 . S
C190 C186 1.401 . S
C190 C189 1.396 . S
C191 C186 1.499 . S
C191 H192 0.959 . S
C191 H193 0.960 . S
C191 H194 0.961 . S
H192 C191 0.959 . S
H193 C191 0.960 . S
H194 C191 0.961 . S
O195 Co170 1.967 . S
O195 C203 1.258 . S
O196 Co171 1.941 . S
O196 C203 1.266 . S
H197 C199 0.959 . S
H198 C199 0.961 . S
C199 C189 1.510 . S
C199 H197 0.959 . S
C199 H198 0.961 . S
C199 H200 0.960 . S
H200 C199 0.960 . S
H201 N181 0.862 . S
O202 Co170 1.920 . S
O202 C175 1.289 . S
C203 O195 1.258 . S
C203 O196 1.266 . S
Co204 O207 1.970 . S
Co204 N221 1.989 . S
Co204 O229 1.967 . S
Co204 O236 1.920 . S
Co205 O208 1.966 . S
Co205 N214 2.022 . S
Co205 N222 1.993 . S
Co205 O230 1.941 . S
C206 O207 1.258 . S
C206 O208 1.263 . S
O207 Co204 1.970 . S
O207 C206 1.258 . S
O208 Co205 1.966 . S
O208 C206 1.263 . S
C209 O210 1.235 . S
C209 O236 1.289 . S
O210 C209 1.235 . S
C211 C213 1.400 . S
C211 N214 1.351 . S
C211 C216 1.501 . S
C212 C213 1.387 . S
C212 N215 1.341 . S
C213 C211 1.400 . S
C213 C212 1.387 . S
N214 Co205 2.022 . S
N214 C211 1.351 . S
N214 N215 1.365 . S
N215 C212 1.341 . S
N215 N214 1.365 . S
N215 H235 0.862 . S
C216 C211 1.501 . S
C216 H217 0.961 . S
C216 H218 0.961 . S
C216 H219 0.960 . S
H217 C216 0.961 . S
H218 C216 0.961 . S
H219 C216 0.960 . S
C220 N221 1.342 . S
C220 C224 1.401 . S
C220 C225 1.499 . S
N221 Co204 1.989 . S
N221 C220 1.342 . S
N221 N222 1.388 . S
N222 Co205 1.993 . S
N222 N221 1.388 . S
N222 C223 1.346 . S
C223 N222 1.346 . S
C223 C224 1.396 . S
C223 C233 1.510 . S
C224 C220 1.401 . S
C224 C223 1.396 . S
C225 C220 1.499 . S
C225 H226 0.959 . S
C225 H227 0.960 . S
C225 H228 0.961 . S
H226 C225 0.959 . S
H227 C225 0.960 . S
H228 C225 0.961 . S
O229 Co204 1.967 . S
O229 C237 1.258 . S
O230 Co205 1.941 . S
O230 C237 1.266 . S
H231 C233 0.959 . S
H232 C233 0.961 . S
C233 C223 1.510 . S
C233 H231 0.959 . S
C233 H232 0.961 . S
C233 H234 0.960 . S
H234 C233 0.960 . S
H235 N215 0.862 . S
O236 Co204 1.920 . S
O236 C209 1.289 . S
C237 O229 1.258 . S
C237 O230 1.266 . S
Co238 O241 1.970 . S
Co238 N255 1.989 . S
Co238 O263 1.967 . S
Co238 O270 1.920 . S
Co239 O242 1.966 . S
Co239 N248 2.022 . S
Co239 N256 1.993 . S
Co239 O264 1.941 . S
C240 O241 1.258 . S
C240 O242 1.263 . S
O241 Co238 1.970 . S
O241 C240 1.258 . S
O242 Co239 1.966 . S
O242 C240 1.263 . S
C243 O244 1.235 . S
C243 O270 1.289 . S
O244 C243 1.235 . S
C245 C247 1.400 . S
C245 N248 1.351 . S
C245 C250 1.501 . S
C246 C247 1.387 . S
C246 N249 1.341 . S
C247 C245 1.400 . S
C247 C246 1.387 . S
N248 Co239 2.022 . S
N248 C245 1.351 . S
N248 N249 1.365 . S
N249 C246 1.341 . S
N249 N248 1.365 . S
N249 H269 0.862 . S
C250 C245 1.501 . S
C250 H251 0.961 . S
C250 H252 0.961 . S
C250 H253 0.960 . S
H251 C250 0.961 . S
H252 C250 0.961 . S
H253 C250 0.960 . S
C254 N255 1.342 . S
C254 C258 1.401 . S
C254 C259 1.499 . S
N255 Co238 1.989 . S
N255 C254 1.342 . S
N255 N256 1.388 . S
N256 Co239 1.993 . S
N256 N255 1.388 . S
N256 C257 1.346 . S
C257 N256 1.346 . S
C257 C258 1.396 . S
C257 C267 1.510 . S
C258 C254 1.401 . S
C258 C257 1.396 . S
C259 C254 1.499 . S
C259 H260 0.959 . S
C259 H261 0.960 . S
C259 H262 0.961 . S
H260 C259 0.959 . S
H261 C259 0.960 . S
H262 C259 0.961 . S
O263 Co238 1.967 . S
O263 C271 1.258 . S
O264 Co239 1.941 . S
O264 C271 1.266 . S
H265 C267 0.959 . S
H266 C267 0.961 . S
C267 C257 1.510 . S
C267 H265 0.959 . S
C267 H266 0.961 . S
C267 H268 0.960 . S
H268 C267 0.960 . S
H269 N249 0.862 . S
O270 Co238 1.920 . S
O270 C243 1.289 . S
C271 O263 1.258 . S
C271 O264 1.266 . S
Co272 O275 1.970 . S
Co272 N289 1.989 . S
Co272 O297 1.967 . S
Co272 O304 1.920 . S
Co273 O276 1.966 . S
Co273 N282 2.022 . S
Co273 N290 1.993 . S
Co273 O298 1.941 . S
C274 O275 1.258 . S
C274 O276 1.263 . S
O275 Co272 1.970 . S
O275 C274 1.258 . S
O276 Co273 1.966 . S
O276 C274 1.263 . S
C277 O278 1.235 . S
C277 O304 1.289 . S
O278 C277 1.235 . S
C279 C281 1.400 . S
C279 N282 1.351 . S
C279 C284 1.501 . S
C280 C281 1.387 . S
C280 N283 1.341 . S
C281 C279 1.400 . S
C281 C280 1.387 . S
N282 Co273 2.022 . S
N282 C279 1.351 . S
N282 N283 1.365 . S
N283 C280 1.341 . S
N283 N282 1.365 . S
N283 H303 0.862 . S
C284 C279 1.501 . S
C284 H285 0.961 . S
C284 H286 0.961 . S
C284 H287 0.960 . S
H285 C284 0.961 . S
H286 C284 0.961 . S
H287 C284 0.960 . S
C288 N289 1.342 . S
C288 C292 1.401 . S
C288 C293 1.499 . S
N289 Co272 1.989 . S
N289 C288 1.342 . S
N289 N290 1.388 . S
N290 Co273 1.993 . S
N290 N289 1.388 . S
N290 C291 1.346 . S
C291 N290 1.346 . S
C291 C292 1.396 . S
C291 C301 1.510 . S
C292 C288 1.401 . S
C292 C291 1.396 . S
C293 C288 1.499 . S
C293 H294 0.959 . S
C293 H295 0.960 . S
C293 H296 0.961 . S
H294 C293 0.959 . S
H295 C293 0.960 . S
H296 C293 0.961 . S
O297 Co272 1.967 . S
O297 C305 1.258 . S
O298 Co273 1.941 . S
O298 C305 1.266 . S
H299 C301 0.959 . S
H300 C301 0.961 . S
C301 C291 1.510 . S
C301 H299 0.959 . S
C301 H300 0.961 . S
C301 H302 0.960 . S
H302 C301 0.960 . S
H303 N283 0.862 . S
O304 Co272 1.920 . S
O304 C277 1.289 . S
C305 O297 1.258 . S
C305 O298 1.266 . S
Co306 O309 1.970 . S
Co306 N323 1.989 . S
Co306 O331 1.967 . S
Co306 O338 1.920 . S
Co307 O310 1.966 . S
Co307 N316 2.022 . S
Co307 N324 1.993 . S
Co307 O332 1.941 . S
C308 O309 1.258 . S
C308 O310 1.263 . S
O309 Co306 1.970 . S
O309 C308 1.258 . S
O310 Co307 1.966 . S
O310 C308 1.263 . S
C311 O312 1.235 . S
C311 O338 1.289 . S
O312 C311 1.235 . S
C313 C315 1.400 . S
C313 N316 1.351 . S
C313 C318 1.501 . S
C314 C315 1.387 . S
C314 N317 1.341 . S
C315 C313 1.400 . S
C315 C314 1.387 . S
N316 Co307 2.022 . S
N316 C313 1.351 . S
N316 N317 1.365 . S
N317 C314 1.341 . S
N317 N316 1.365 . S
N317 H337 0.862 . S
C318 C313 1.501 . S
C318 H319 0.961 . S
C318 H320 0.961 . S
C318 H321 0.960 . S
H319 C318 0.961 . S
H320 C318 0.961 . S
H321 C318 0.960 . S
C322 N323 1.342 . S
C322 C326 1.401 . S
C322 C327 1.499 . S
N323 Co306 1.989 . S
N323 C322 1.342 . S
N323 N324 1.388 . S
N324 Co307 1.993 . S
N324 N323 1.388 . S
N324 C325 1.346 . S
C325 N324 1.346 . S
C325 C326 1.396 . S
C325 C335 1.510 . S
C326 C322 1.401 . S
C326 C325 1.396 . S
C327 C322 1.499 . S
C327 H328 0.959 . S
C327 H329 0.960 . S
C327 H330 0.961 . S
H328 C327 0.959 . S
H329 C327 0.960 . S
H330 C327 0.961 . S
O331 Co306 1.967 . S
O331 C339 1.258 . S
O332 Co307 1.941 . S
O332 C339 1.266 . S
H333 C335 0.959 . S
H334 C335 0.961 . S
C335 C325 1.510 . S
C335 H333 0.959 . S
C335 H334 0.961 . S
C335 H336 0.960 . S
H336 C335 0.960 . S
H337 N317 0.862 . S
O338 Co306 1.920 . S
O338 C311 1.289 . S
C339 O331 1.258 . S
C339 O332 1.266 . S
Co340 O343 1.970 . S
Co340 N357 1.989 . S
Co340 O365 1.967 . S
Co340 O372 1.920 . S
Co341 O344 1.966 . S
Co341 N350 2.022 . S
Co341 N358 1.993 . S
Co341 O366 1.941 . S
C342 O343 1.258 . S
C342 O344 1.263 . S
O343 Co340 1.970 . S
O343 C342 1.258 . S
O344 Co341 1.966 . S
O344 C342 1.263 . S
C345 O346 1.235 . S
C345 O372 1.289 . S
O346 C345 1.235 . S
C347 C349 1.400 . S
C347 N350 1.351 . S
C347 C352 1.501 . S
C348 C349 1.387 . S
C348 N351 1.341 . S
C349 C347 1.400 . S
C349 C348 1.387 . S
N350 Co341 2.022 . S
N350 C347 1.351 . S
N350 N351 1.365 . S
N351 C348 1.341 . S
N351 N350 1.365 . S
N351 H371 0.862 . S
C352 C347 1.501 . S
C352 H353 0.961 . S
C352 H354 0.961 . S
C352 H355 0.960 . S
H353 C352 0.961 . S
H354 C352 0.961 . S
H355 C352 0.960 . S
C356 N357 1.342 . S
C356 C360 1.401 . S
C356 C361 1.499 . S
N357 Co340 1.989 . S
N357 C356 1.342 . S
N357 N358 1.388 . S
N358 Co341 1.993 . S
N358 N357 1.388 . S
N358 C359 1.346 . S
C359 N358 1.346 . S
C359 C360 1.396 . S
C359 C369 1.510 . S
C360 C356 1.401 . S
C360 C359 1.396 . S
C361 C356 1.499 . S
C361 H362 0.959 . S
C361 H363 0.960 . S
C361 H364 0.961 . S
H362 C361 0.959 . S
H363 C361 0.960 . S
H364 C361 0.961 . S
O365 Co340 1.967 . S
O365 C373 1.258 . S
O366 Co341 1.941 . S
O366 C373 1.266 . S
H367 C369 0.959 . S
H368 C369 0.961 . S
C369 C359 1.510 . S
C369 H367 0.959 . S
C369 H368 0.961 . S
C369 H370 0.960 . S
H370 C369 0.960 . S
H371 N351 0.862 . S
O372 Co340 1.920 . S
O372 C345 1.289 . S
C373 O365 1.258 . S
C373 O366 1.266 . S
Co374 O377 1.970 . S
Co374 N391 1.989 . S
Co374 O399 1.967 . S
Co374 O406 1.920 . S
Co375 O378 1.966 . S
Co375 N384 2.022 . S
Co375 N392 1.993 . S
Co375 O400 1.941 . S
C376 O377 1.258 . S
C376 O378 1.263 . S
O377 Co374 1.970 . S
O377 C376 1.258 . S
O378 Co375 1.966 . S
O378 C376 1.263 . S
C379 O380 1.235 . S
C379 O406 1.289 . S
O380 C379 1.235 . S
C381 C383 1.400 . S
C381 N384 1.351 . S
C381 C386 1.501 . S
C382 C383 1.387 . S
C382 N385 1.341 . S
C383 C381 1.400 . S
C383 C382 1.387 . S
N384 Co375 2.022 . S
N384 C381 1.351 . S
N384 N385 1.365 . S
N385 C382 1.341 . S
N385 N384 1.365 . S
N385 H405 0.862 . S
C386 C381 1.501 . S
C386 H387 0.961 . S
C386 H388 0.961 . S
C386 H389 0.960 . S
H387 C386 0.961 . S
H388 C386 0.961 . S
H389 C386 0.960 . S
C390 N391 1.342 . S
C390 C394 1.401 . S
C390 C395 1.499 . S
N391 Co374 1.989 . S
N391 C390 1.342 . S
N391 N392 1.388 . S
N392 Co375 1.993 . S
N392 N391 1.388 . S
N392 C393 1.346 . S
C393 N392 1.346 . S
C393 C394 1.396 . S
C393 C403 1.510 . S
C394 C390 1.401 . S
C394 C393 1.396 . S
C395 C390 1.499 . S
C395 H396 0.959 . S
C395 H397 0.960 . S
C395 H398 0.961 . S
H396 C395 0.959 . S
H397 C395 0.960 . S
H398 C395 0.961 . S
O399 Co374 1.967 . S
O399 C407 1.258 . S
O400 Co375 1.941 . S
O400 C407 1.266 . S
H401 C403 0.959 . S
H402 C403 0.961 . S
C403 C393 1.510 . S
C403 H401 0.959 . S
C403 H402 0.961 . S
C403 H404 0.960 . S
H404 C403 0.960 . S
H405 N385 0.862 . S
O406 Co374 1.920 . S
O406 C379 1.289 . S
C407 O399 1.258 . S
C407 O400 1.266 . S
C408 C409 1.387 . S
C408 H412 0.950 . S
C408 C417 1.390 . S
C409 C408 1.387 . S
C409 C411 1.387 . S
H410 C417 0.950 . S
C411 C409 1.387 . S
C411 C413 1.390 . S
C411 H415 0.950 . S
H412 C408 0.950 . S
C413 C411 1.390 . S
C413 C414 1.387 . S
C413 H416 0.950 . S
C414 C413 1.387 . S
C414 C417 1.387 . S
H415 C411 0.950 . S
H416 C413 0.950 . S
C417 C408 1.390 . S
C417 H410 0.950 . S
C417 C414 1.387 . S
C418 C419 1.387 . S
C418 H422 0.950 . S
C418 C427 1.390 . S
C419 C418 1.387 . S
C419 C421 1.387 . S
H420 C427 0.950 . S
C421 C419 1.387 . S
C421 C423 1.390 . S
C421 H425 0.950 . S
H422 C418 0.950 . S
C423 C421 1.390 . S
C423 C424 1.387 . S
C423 H426 0.950 . S
C424 C423 1.387 . S
C424 C427 1.387 . S
H425 C421 0.950 . S
H426 C423 0.950 . S
C427 C418 1.390 . S
C427 H420 0.950 . S
C427 C424 1.387 . S
C428 C429 1.387 . S
C428 H432 0.950 . S
C428 C437 1.390 . S
C429 C428 1.387 . S
C429 C431 1.387 . S
H430 C437 0.950 . S
C431 C429 1.387 . S
C431 C433 1.390 . S
C431 H435 0.950 . S
H432 C428 0.950 . S
C433 C431 1.390 . S
C433 C434 1.387 . S
C433 H436 0.950 . S
C434 C433 1.387 . S
C434 C437 1.387 . S
H435 C431 0.950 . S
H436 C433 0.950 . S
C437 C428 1.390 . S
C437 H430 0.950 . S
C437 C434 1.387 . S
C438 C439 1.387 . S
C438 H442 0.950 . S
C438 C447 1.390 . S
C439 C438 1.387 . S
C439 C441 1.387 . S
H440 C447 0.950 . S
C441 C439 1.387 . S
C441 C443 1.390 . S
C441 H445 0.950 . S
H442 C438 0.950 . S
C443 C441 1.390 . S
C443 C444 1.387 . S
C443 H446 0.950 . S
C444 C443 1.387 . S
C444 C447 1.387 . S
H445 C441 0.950 . S
H446 C443 0.950 . S
C447 C438 1.390 . S
C447 H440 0.950 . S
C447 C444 1.387 . S
C448 C449 1.387 . S
C448 H452 0.950 . S
C448 C457 1.390 . S
C449 C448 1.387 . S
C449 C451 1.387 . S
H450 C457 0.950 . S
C451 C449 1.387 . S
C451 C453 1.390 . S
C451 H455 0.950 . S
H452 C448 0.950 . S
C453 C451 1.390 . S
C453 C454 1.387 . S
C453 H456 0.950 . S
C454 C453 1.387 . S
C454 C457 1.387 . S
H455 C451 0.950 . S
H456 C453 0.950 . S
C457 C448 1.390 . S
C457 H450 0.950 . S
C457 C454 1.387 . S
C458 C459 1.387 . S
C458 H462 0.950 . S
C458 C467 1.390 . S
C459 C458 1.387 . S
C459 C461 1.387 . S
H460 C467 0.950 . S
C461 C459 1.387 . S
C461 C463 1.390 . S
C461 H465 0.950 . S
H462 C458 0.950 . S
C463 C461 1.390 . S
C463 C464 1.387 . S
C463 H466 0.950 . S
C464 C463 1.387 . S
C464 C467 1.387 . S
H465 C461 0.950 . S
H466 C463 0.950 . S
C467 C458 1.390 . S
C467 H460 0.950 . S
C467 C464 1.387 . S
C468 C469 1.387 . S
C468 H472 0.950 . S
C468 C477 1.390 . S
C469 C468 1.387 . S
C469 C471 1.387 . S
H470 C477 0.950 . S
C471 C469 1.387 . S
C471 C473 1.390 . S
C471 H475 0.950 . S
H472 C468 0.950 . S
C473 C471 1.390 . S
C473 C474 1.387 . S
C473 H476 0.950 . S
C474 C473 1.387 . S
C474 C477 1.387 . S
H475 C471 0.950 . S
H476 C473 0.950 . S
C477 C468 1.390 . S
C477 H470 0.950 . S
C477 C474 1.387 . S
C478 C479 1.387 . S
C478 H482 0.950 . S
C478 C487 1.390 . S
C479 C478 1.387 . S
C479 C481 1.387 . S
H480 C487 0.950 . S
C481 C479 1.387 . S
C481 C483 1.390 . S
C481 H485 0.950 . S
H482 C478 0.950 . S
C483 C481 1.390 . S
C483 C484 1.387 . S
C483 H486 0.950 . S
C484 C483 1.387 . S
C484 C487 1.387 . S
H485 C481 0.950 . S
H486 C483 0.950 . S
C487 C478 1.390 . S
C487 H480 0.950 . S
C487 C484 1.387 . S
C488 C489 1.387 . S
C488 H492 0.950 . S
C488 C497 1.390 . S
C489 C488 1.387 . S
C489 C491 1.387 . S
H490 C497 0.950 . S
C491 C489 1.387 . S
C491 C493 1.390 . S
C491 H495 0.950 . S
H492 C488 0.950 . S
C493 C491 1.390 . S
C493 C494 1.387 . S
C493 H496 0.950 . S
C494 C493 1.387 . S
C494 C497 1.387 . S
H495 C491 0.950 . S
H496 C493 0.950 . S
C497 C488 1.390 . S
C497 H490 0.950 . S
C497 C494 1.387 . S
C498 C499 1.387 . S
C498 H502 0.950 . S
C498 C507 1.390 . S
C499 C498 1.387 . S
C499 C501 1.387 . S
H500 C507 0.950 . S
C501 C499 1.387 . S
C501 C503 1.390 . S
C501 H505 0.950 . S
H502 C498 0.950 . S
C503 C501 1.390 . S
C503 C504 1.387 . S
C503 H506 0.950 . S
C504 C503 1.387 . S
C504 C507 1.387 . S
H505 C501 0.950 . S
H506 C503 0.950 . S
C507 C498 1.390 . S
C507 H500 0.950 . S
C507 C504 1.387 . S
C508 C509 1.387 . S
C508 H512 0.950 . S
C508 C517 1.390 . S
C509 C508 1.387 . S
C509 C511 1.387 . S
H510 C517 0.950 . S
C511 C509 1.387 . S
C511 C513 1.390 . S
C511 H515 0.950 . S
H512 C508 0.950 . S
C513 C511 1.390 . S
C513 C514 1.387 . S
C513 H516 0.950 . S
C514 C513 1.387 . S
C514 C517 1.387 . S
H515 C511 0.950 . S
H516 C513 0.950 . S
C517 C508 1.390 . S
C517 H510 0.950 . S
C517 C514 1.387 . S
C518 C519 1.387 . S
C518 H522 0.950 . S
C518 C527 1.390 . S
C519 C518 1.387 . S
C519 C521 1.387 . S
H520 C527 0.950 . S
C521 C519 1.387 . S
C521 C523 1.390 . S
C521 H525 0.950 . S
H522 C518 0.950 . S
C523 C521 1.390 . S
C523 C524 1.387 . S
C523 H526 0.950 . S
C524 C523 1.387 . S
C524 C527 1.387 . S
H525 C521 0.950 . S
H526 C523 0.950 . S
C527 C518 1.390 . S
C527 H520 0.950 . S
C527 C524 1.387 . S
C528 C529 1.387 . S
C528 H532 0.950 . S
C528 C537 1.390 1_545 S
C529 C528 1.387 . S
C529 C531 1.387 . S
H530 C537 0.950 . S
C531 C529 1.387 . S
C531 C533 1.390 1_554 S
C531 H535 0.950 . S
H532 C528 0.950 . S
C533 C531 1.390 1_556 S
C533 C534 1.387 . S
C533 H536 0.950 . S
C534 C533 1.387 . S
C534 C537 1.387 1_546 S
H535 C531 0.950 . S
H536 C533 0.950 . S
C537 C528 1.390 1_565 S
C537 H530 0.950 . S
C537 C534 1.387 1_564 S
C538 C539 1.387 . S
C538 H542 0.950 . S
C538 C547 1.390 1_554 S
C539 C538 1.387 . S
C539 C541 1.387 . S
H540 C547 0.950 . S
C541 C539 1.387 . S
C541 C543 1.390 1_655 S
C541 H545 0.950 . S
H542 C538 0.950 . S
C543 C541 1.390 1_455 S
C543 C544 1.387 1_454 S
C543 H546 0.950 . S
C544 C543 1.387 1_656 S
C544 C547 1.387 . S
H545 C541 0.950 . S
H546 C543 0.950 . S
C547 C538 1.390 1_556 S
C547 H540 0.950 . S
C547 C544 1.387 . S
C548 C549 1.387 . S
C548 H552 0.950 . S
C548 C557 1.390 . S
C549 C548 1.387 . S
C549 C551 1.387 . S
H550 C557 0.950 1_556 S
C551 C549 1.387 . S
C551 C553 1.390 1_554 S
C551 H555 0.950 . S
H552 C548 0.950 . S
C553 C551 1.390 1_556 S
C553 C554 1.387 . S
C553 H556 0.950 . S
C554 C553 1.387 . S
C554 C557 1.387 1_556 S
H555 C551 0.950 . S
H556 C553 0.950 . S
C557 C548 1.390 . S
C557 H550 0.950 1_554 S
C557 C554 1.387 1_554 S
C558 C559 1.387 . S
C558 H562 0.950 . S
C558 C567 1.390 . S
C559 C558 1.387 . S
C559 C561 1.387 1_455 S
H560 C567 0.950 . S
C561 C559 1.387 1_655 S
C561 C563 1.390 1_655 S
C561 H565 0.950 . S
H562 C558 0.950 . S
C563 C561 1.390 1_455 S
C563 C564 1.387 . S
C563 H566 0.944 1_455 S
C564 C563 1.387 . S
C564 C567 1.387 . S
H565 C561 0.950 . S
H566 C563 0.944 1_655 S
C567 C558 1.390 . S
C567 H560 0.950 . S
C567 C564 1.387 . S
C568 C569 1.387 . S
C568 H572 0.950 . S
C568 C577 1.390 . S
C569 C568 1.387 . S
C569 C571 1.387 . S
H570 C577 0.950 . S
C571 C569 1.387 . S
C571 C573 1.390 . S
C571 H575 0.950 . S
H572 C568 0.950 . S
C573 C571 1.390 . S
C573 C574 1.387 . S
C573 H576 0.950 . S
C574 C573 1.387 . S
C574 C577 1.387 . S
H575 C571 0.950 . S
H576 C573 0.950 . S
C577 C568 1.390 . S
C577 H570 0.950 . S
C577 C574 1.387 . S
C578 C579 1.387 1_545 S
C578 H582 0.950 . S
C578 C587 1.390 1_545 S
C579 C578 1.387 1_565 S
C579 C581 1.387 . S
H580 C587 0.950 1_545 S
C581 C579 1.387 . S
C581 C583 1.390 . S
C581 H585 0.950 . S
H582 C578 0.950 . S
C583 C581 1.390 . S
C583 C584 1.387 . S
C583 H586 0.950 . S
C584 C583 1.387 . S
C584 C587 1.387 . S
H585 C581 0.950 . S
H586 C583 0.950 . S
C587 C578 1.390 1_565 S
C587 H580 0.950 1_565 S
C587 C584 1.387 . S
C588 C589 1.387 . S
C588 H592 0.950 . S
C588 C597 1.390 1_554 S
C589 C588 1.387 . S
C589 C591 1.387 1_564 S
H590 C597 0.950 . S
C591 C589 1.387 1_546 S
C591 C593 1.390 1_545 S
C591 H595 0.950 . S
H592 C588 0.950 . S
C593 C591 1.390 1_565 S
C593 C594 1.387 . S
C593 H596 0.950 1_565 S
C594 C593 1.387 . S
C594 C597 1.387 . S
H595 C591 0.950 . S
H596 C593 0.950 1_545 S
C597 C588 1.390 1_556 S
C597 H590 0.950 . S
C597 C594 1.387 . S
C598 C599 1.387 . S
C598 H602 0.950 . S
C598 C607 1.390 1_554 S
C599 C598 1.387 . S
C599 C601 1.387 1_554 S
H600 C607 0.950 . S
C601 C599 1.387 1_556 S
C601 C603 1.390 . S
C601 H605 0.950 1_456 S
H602 C598 0.950 . S
C603 C601 1.390 . S
C603 C604 1.387 . S
C603 H606 0.950 . S
C604 C603 1.387 . S
C604 C607 1.387 . S
H605 C601 0.950 1_654 S
H606 C603 0.950 . S
C607 C598 1.390 1_556 S
C607 H600 0.950 . S
C607 C604 1.387 . S
C608 C609 1.387 . S
C608 H612 0.950 . S
C608 C617 1.390 1_556 S
C609 C608 1.387 . S
C609 C611 1.387 . S
H610 C617 0.950 . S
C611 C609 1.387 . S
C611 C613 1.390 1_556 S
C611 H615 0.950 . S
H612 C608 0.950 . S
C613 C611 1.390 1_554 S
C613 C614 1.387 . S
C613 H616 0.950 . S
C614 C613 1.387 . S
C614 C617 1.387 . S
H615 C611 0.950 . S
H616 C613 0.950 . S
C617 C608 1.390 1_554 S
C617 H610 0.950 . S
C617 C614 1.387 . S
C618 C619 1.387 . S
C618 H622 0.950 . S
C618 C627 1.390 . S
C619 C618 1.387 . S
C619 C621 1.387 1_655 S
H620 C627 0.950 . S
C621 C619 1.387 1_455 S
C621 C623 1.390 1_455 S
C621 H625 0.950 . S
H622 C618 0.950 . S
C623 C621 1.390 1_655 S
C623 C624 1.387 . S
C623 H626 0.950 . S
C624 C623 1.387 . S
C624 C627 1.387 . S
H625 C621 0.950 . S
H626 C623 0.950 . S
C627 C618 1.390 . S
C627 H620 0.950 . S
C627 C624 1.387 . S
C628 C629 1.387 . S
C628 H632 0.950 . S
C628 C637 1.390 . S
C629 C628 1.387 . S
C629 C631 1.387 . S
H630 C637 0.950 . S
C631 C629 1.387 . S
C631 C633 1.390 . S
C631 H635 0.950 . S
H632 C628 0.950 . S
C633 C631 1.390 . S
C633 C634 1.387 . S
C633 H636 0.950 . S
C634 C633 1.387 . S
C634 C637 1.387 . S
H635 C631 0.950 . S
H636 C633 0.950 . S
C637 C628 1.390 . S
C637 H630 0.950 . S
C637 C634 1.387 . S
C638 C639 1.387 . S
C638 H642 0.950 1_545 S
C638 C647 1.390 1_545 S
C639 C638 1.387 . S
C639 C641 1.387 . S
H640 C647 0.950 . S
C641 C639 1.387 . S
C641 C643 1.390 . S
C641 H645 0.950 . S
H642 C638 0.950 1_565 S
C643 C641 1.390 . S
C643 C644 1.387 . S
C643 H646 0.950 . S
C644 C643 1.387 . S
C644 C647 1.387 1_545 S
H645 C641 0.950 . S
H646 C643 0.950 . S
C647 C638 1.390 1_565 S
C647 H640 0.950 . S
C647 C644 1.387 1_565 S
C648 C649 1.387 . S
C648 H652 0.950 . S
C648 C657 1.390 . S
C649 C648 1.387 . S
C649 C651 1.387 . S
H650 C657 0.950 . S
C651 C649 1.387 . S
C651 C653 1.390 . S
C651 H655 0.950 . S
H652 C648 0.950 . S
C653 C651 1.390 . S
C653 C654 1.387 . S
C653 H656 0.950 . S
C654 C653 1.387 . S
C654 C657 1.387 . S
H655 C651 0.950 . S
H656 C653 0.950 . S
C657 C648 1.390 . S
C657 H650 0.950 . S
C657 C654 1.387 . S
C658 C659 1.387 . S
C658 H662 0.950 . S
C658 C667 1.390 1_545 S
C659 C658 1.387 . S
C659 C661 1.387 . S
H660 C667 0.950 . S
C661 C659 1.387 . S
C661 C663 1.390 1_545 S
C661 H665 0.950 . S
H662 C658 0.950 . S
C663 C661 1.390 1_565 S
C663 C664 1.387 . S
C663 H666 0.950 . S
C664 C663 1.387 . S
C664 C667 1.387 . S
H665 C661 0.950 . S
H666 C663 0.950 . S
C667 C658 1.390 1_565 S
C667 H660 0.950 . S
C667 C664 1.387 . S
C668 C669 1.387 . S
C668 H672 0.950 . S
C668 C677 1.390 1_655 S
C669 C668 1.387 . S
C669 C671 1.387 . S
H670 C677 0.950 . S
C671 C669 1.387 . S
C671 C673 1.390 1_655 S
C671 H675 0.950 . S
H672 C668 0.950 . S
C673 C671 1.390 1_455 S
C673 C674 1.387 . S
C673 H676 0.950 . S
C674 C673 1.387 . S
C674 C677 1.387 . S
H675 C671 0.950 . S
H676 C673 0.950 . S
C677 C668 1.390 1_455 S
C677 H670 0.950 . S
C677 C674 1.387 . S
C678 C679 1.387 . S
C678 H682 0.950 . S
C678 C687 1.390 . S
C679 C678 1.387 . S
C679 C681 1.387 . S
H680 C687 0.950 . S
C681 C679 1.387 . S
C681 C683 1.390 . S
C681 H685 0.950 . S
H682 C678 0.950 . S
C683 C681 1.390 . S
C683 C684 1.387 . S
C683 H686 0.950 . S
C684 C683 1.387 . S
C684 C687 1.387 . S
H685 C681 0.950 . S
H686 C683 0.950 . S
C687 C678 1.390 . S
C687 H680 0.950 . S
C687 C684 1.387 . S
C688 C689 1.387 . S
C688 H692 0.950 . S
C688 C697 1.390 1_565 S
C689 C688 1.387 . S
C689 C691 1.387 . S
H690 C697 0.950 . S
C691 C689 1.387 . S
C691 C693 1.390 1_565 S
C691 H695 0.950 . S
H692 C688 0.950 . S
C693 C691 1.390 1_545 S
C693 C694 1.387 . S
C693 H696 0.950 . S
C694 C693 1.387 . S
C694 C697 1.387 . S
H695 C691 0.950 . S
H696 C693 0.950 . S
C697 C688 1.390 1_545 S
C697 H690 0.950 . S
C697 C694 1.387 . S
C698 C699 1.387 . S
C698 H702 0.950 . S
C698 C707 1.390 1_455 S
C699 C698 1.387 . S
C699 C701 1.387 . S
H700 C707 0.950 . S
C701 C699 1.387 . S
C701 C703 1.390 1_455 S
C701 H705 0.950 . S
H702 C698 0.950 . S
C703 C701 1.390 1_655 S
C703 C704 1.387 . S
C703 H706 0.950 . S
C704 C703 1.387 . S
C704 C707 1.387 . S
H705 C701 0.950 . S
H706 C703 0.950 . S
C707 C698 1.390 1_655 S
C707 H700 0.950 . S
C707 C704 1.387 . S
C409 C36 1.814 . S
C414 C9 1.822 . S
C419 C43 1.821 . S
C424 C70 1.814 . S
C429 C77 1.820 . S
C434 C2 1.812 . S
C439 C111 1.822 . S
C444 C172 1.813 . S
C449 C145 1.822 . S
C454 C104 1.814 . S
C459 C138 1.812 . S
C464 C179 1.820 . S
C469 C240 1.812 . S
C474 C213 1.821 . S
C479 C274 1.813 . S
C484 C247 1.821 . S
C489 C206 1.813 . S
C494 C281 1.822 . S
C499 C315 1.821 . S
C504 C376 1.812 . S
C509 C308 1.814 . S
C514 C349 1.821 . S
C519 C383 1.822 . S
C524 C342 1.814 . S
C529 C20 1.444 . S
C534 C243 1.434 1_545 S
C539 C54 1.447 . S
C544 C277 1.436 1_655 S
C549 C88 1.446 . S
C554 C209 1.436 . S
C559 C379 1.436 1_455 S
C564 C122 1.446 . S
C569 C156 1.444 . S
C574 C311 1.434 . S
C579 C345 1.436 1_565 S
C584 C190 1.445 . S
C589 C39 1.436 1_565 S
C594 C224 1.446 . S
C599 C73 1.433 1_455 S
C604 C258 1.443 . S
C609 C292 1.444 . S
C614 C5 1.433 . S
C619 C175 1.437 1_655 S
C624 C326 1.446 . S
C629 C360 1.443 . S
C634 C107 1.433 . S
C639 C394 1.446 . S
C644 C141 1.435 1_545 S
C649 C135 1.849 . S
C654 C33 1.848 . S
C659 C67 1.846 . S
C664 C169 1.846 . S
C669 C101 1.848 . S
C674 C203 1.847 . S
C679 C339 1.847 . S
C684 C237 1.848 . S
C689 C271 1.846 . S
C694 C373 1.846 . S
C699 C305 1.846 . S
C704 C407 1.846 . S
