# Generated by pormake.
# Topology rob, (6)-cn, num edge types: 1
# Building blocks:
#     Node 0, Type 0, BuildingBlock: BETGAK_clean_sbu_0, # of connection points: 6
#     Node 1, Type 0, BuildingBlock: BETGAK_clean_sbu_0, # of connection points: 6
#     Node 2, Type 0, BuildingBlock: BETGAK_clean_sbu_0, # of connection points: 6
#     Node 3, Type 0, BuildingBlock: BETGAK_clean_sbu_0, # of connection points: 6
#     Edge 4, Type (0, 0), BuildingBlock: MIFKUJ_clean_linker_0, # of connection points: 2
#     Edge 5, Type (0, 0), BuildingBlock: MIFKUJ_clean_linker_0, # of connection points: 2
#     Edge 6, Type (0, 0), BuildingBlock: MIFKUJ_clean_linker_0, # of connection points: 2
#     Edge 7, Type (0, 0), BuildingBlock: MIFKUJ_clean_linker_0, # of connection points: 2
#     Edge 8, Type (0, 0), BuildingBlock: MIFKUJ_clean_linker_0, # of connection points: 2
#     Edge 9, Type (0, 0), BuildingBlock: MIFKUJ_clean_linker_0, # of connection points: 2
#     Edge 10, Type (0, 0), BuildingBlock: MIFKUJ_clean_linker_0, # of connection points: 2
#     Edge 11, Type (0, 0), BuildingBlock: MIFKUJ_clean_linker_0, # of connection points: 2
#     Edge 12, Type (0, 0), BuildingBlock: MIFKUJ_clean_linker_0, # of connection points: 2
#     Edge 13, Type (0, 0), BuildingBlock: MIFKUJ_clean_linker_0, # of connection points: 2
#     Edge 14, Type (0, 0), BuildingBlock: MIFKUJ_clean_linker_0, # of connection points: 2
#     Edge 15, Type (0, 0), BuildingBlock: MIFKUJ_clean_linker_0, # of connection points: 2
# Relax obj value: 0.112
# Max RMSD: 0.175
# Mean RMSD: 0.175
data_MOF--net-rob--node1-BETGAK_clean_sbu_0--edge1-MIFKUJ_clean_linker_0
_symmetry_space_group_name_H-M    P1
_symmetry_Int_Tables_number       1
_symmetry_cell_setting            triclinic
loop_
_symmetry_equiv_pos_as_xyz
'x, y, z'
_cell_length_a     19.788707
_cell_length_b     32.420842
_cell_length_c     45.689597
_cell_angle_alpha  90.147251
_cell_angle_beta   121.41936
_cell_angle_gamma 90.03206
loop_
_atom_site_label
_atom_site_type_symbol
_atom_site_fract_x
_atom_site_fract_y
_atom_site_fract_z
_atom_type_partial_charge
La0 La 0.2035 0.27472 0.01125 0.0
La1 La 0.3399 0.2436 1.00677 0.0
C2 C 0.0998 0.2837 0.02739 0.0
C3 C 0.09529 0.28058 0.05881 0.0
C4 C 0.14978 0.30095 0.08947 0.0
C5 C 0.14087 0.29994 0.118 0.0
C6 C 0.07752 0.27832 0.11674 0.0
C7 C 0.02456 0.25698 0.08626 0.0
C8 C 0.03321 0.25826 0.0577 0.0
C9 C 0.29303 0.33351 0.0083 0.0
C10 C 0.36493 0.24692 0.07846 0.0
C11 C 0.44321 0.23146 0.99083 0.0
C12 C 0.44974 0.23579 0.9601 0.0
C13 C 0.48971 0.20536 0.95307 0.0
C14 C 0.49731 0.20848 0.92436 0.0
C15 C 0.46489 0.24217 0.90179 0.0
C16 C 0.42331 0.27225 0.90854 0.0
C17 C 0.41648 0.26932 0.93755 0.0
C18 C 0.25009 0.18552 0.01043 0.0
C19 C 0.18051 0.27326 0.93977 0.0
O20 O 0.14209 0.31386 0.02614 0.0
O21 O 0.11005 0.24938 0.01507 0.0
O22 O 0.21705 0.33588 0.99482 0.0
O23 O 0.31735 0.29992 0.02462 0.0
O24 O 0.28744 0.25184 0.06265 0.0
O25 O 0.40338 0.24858 0.06204 0.0
O26 O 0.39432 0.20314 0.98914 0.0
O27 O 0.43839 0.26529 1.00533 0.0
O28 O 0.32634 0.18345 0.02485 0.0
O29 O 0.22613 0.21857 0.99335 0.0
O30 O 0.25811 0.2686 0.95606 0.0
O31 O 0.14119 0.27078 0.95581 0.0
H32 H 0.19857 0.3183 0.09124 0.0
H33 H 0.18259 0.3171 0.14071 0.0
H34 H 0.97611 0.23918 0.08435 0.0
H35 H 0.99062 0.2421 0.03449 0.0
H36 H 0.51532 0.17904 0.96992 0.0
H37 H 0.52804 0.18415 0.9197 0.0
H38 H 0.39758 0.29861 0.89185 0.0
H39 H 0.38575 0.29338 0.94248 0.0
La40 La 0.69849 0.77434 0.00836 0.0
La41 La 0.84111 0.74418 0.00767 0.0
C42 C 0.58898 0.78796 0.0205 0.0
C43 C 0.57654 0.79222 0.04986 0.0
C44 C 0.60888 0.82545 0.07312 0.0
C45 C 0.59296 0.83013 0.09949 0.0
C46 C 0.54466 0.80161 0.10349 0.0
C47 C 0.51082 0.76902 0.07967 0.0
C48 C 0.52681 0.7643 0.05333 0.0
C49 C 0.7868 0.83258 1.00363 0.0
C50 C 0.85834 0.74924 0.07817 0.0
C51 C 0.95105 0.73878 0.99485 0.0
C52 C 0.95894 0.74383 0.96453 0.0
C53 C 0.02737 0.72979 0.9657 0.0
C54 C 0.03558 0.73405 0.93715 0.0
C55 C 0.97478 0.75179 0.90656 0.0
C56 C 0.90614 0.76561 0.90548 0.0
C57 C 0.89899 0.76237 0.93433 0.0
C58 C 0.75544 0.68491 0.01269 0.0
C59 C 0.67759 0.76143 0.93727 0.0
O60 O 0.62992 0.81673 0.01664 0.0
O61 O 0.60604 0.75133 0.01407 0.0
O62 O 0.71029 0.83327 0.98793 0.0
O63 O 0.81148 0.80074 0.02217 0.0
O64 O 0.78055 0.75436 0.06139 0.0
O65 O 0.89907 0.74994 0.06275 0.0
O66 O 0.9087 0.70743 0.99423 0.0
O67 O 0.93545 0.77215 1.0064 0.0
O68 O 0.83178 0.68373 0.02648 0.0
O69 O 0.72901 0.71722 0.99464 0.0
O70 O 0.75565 0.75925 0.95425 0.0
O71 O 0.6381 0.76316 0.95332 0.0
H72 H 0.64642 0.84801 0.07097 0.0
H73 H 0.61907 0.85599 0.11695 0.0
H74 H 0.47308 0.74659 0.08177 0.0
H75 H 0.49991 0.73878 0.03552 0.0
H76 H 0.07462 0.71552 0.98876 0.0
H77 H 0.08899 0.72279 0.93881 0.0
H78 H 0.85833 0.77947 0.8825 0.0
H79 H 0.8467 0.77457 0.93297 0.0
La80 La 0.33164 0.78228 0.5036 0.0
La81 La 0.19479 0.75174 0.50749 0.0
C82 C 0.43823 0.79339 0.48928 0.0
C83 C 0.44435 0.7986 0.4584 0.0
C84 C 0.39473 0.8257 0.43171 0.0
C85 C 0.40336 0.83076 0.40329 0.0
C86 C 0.46144 0.80864 0.40078 0.0
C87 C 0.51135 0.78188 0.42773 0.0
C88 C 0.50279 0.7769 0.45611 0.0
C89 C 0.2398 0.84108 0.50479 0.0
C90 C 0.17173 0.75194 0.43593 0.0
C91 C 0.09117 0.74174 0.52348 0.0
C92 C 0.08609 0.7464 0.55462 0.0
C93 C 0.05695 0.71346 0.56476 0.0
C94 C 0.04978 0.71692 0.59357 0.0
C95 C 0.07111 0.75361 0.613 0.0
C96 C 0.10182 0.78641 0.60317 0.0
C97 C 0.10919 0.78287 0.5743 0.0
C98 C 0.28621 0.69292 0.50606 0.0
C99 C 0.35358 0.77966 0.57513 0.0
O100 O 0.40446 0.82303 0.49647 0.0
O101 O 0.41682 0.75709 0.49405 0.0
O102 O 0.31596 0.84352 0.51937 0.0
O103 O 0.21665 0.80724 0.48864 0.0
O104 O 0.24879 0.75895 0.45167 0.0
O105 O 0.13264 0.75332 0.45209 0.0
O106 O 0.13727 0.71238 0.52429 0.0
O107 O 0.09779 0.77527 0.50923 0.0
O108 O 0.20998 0.69051 0.49162 0.0
O109 O 0.30963 0.72673 0.5223 0.0
O110 O 0.27562 0.77744 0.55822 0.0
O111 O 0.39295 0.77554 0.55915 0.0
H112 H 0.34913 0.84296 0.43271 0.0
H113 H 0.3641 0.85175 0.38313 0.0
H114 H 0.55607 0.764 0.42654 0.0
H115 H 0.54193 0.7559 0.47632 0.0
H116 H 0.03941 0.68489 0.55026 0.0
H117 H 0.02791 0.69058 0.60073 0.0
H118 H 0.11866 0.81519 0.61733 0.0
H119 H 0.13238 0.80877 0.56728 0.0
La120 La 0.83491 0.28224 0.50876 0.0
La121 La 0.68952 0.24966 0.50567 0.0
C122 C 0.94487 0.29199 0.49654 0.0
C123 C 0.95178 0.29056 0.46574 0.0
C124 C 1.00854 0.31522 0.46455 0.0
C125 C 0.01667 0.31433 0.43586 0.0
C126 C 0.96802 0.28875 0.40751 0.0
C127 C 0.9105 0.2643 0.40867 0.0
C128 C 0.90262 0.26511 0.43748 0.0
C129 C 0.74875 0.33954 0.51557 0.0
C130 C 0.67449 0.26564 0.43658 0.0
C131 C 0.58034 0.23721 0.5179 0.0
C132 C 0.57262 0.23963 0.54851 0.0
C133 C 0.62618 0.21957 0.57931 0.0
C134 C 0.61759 0.22214 0.60784 0.0
C135 C 0.55506 0.24476 0.6064 0.0
C136 C 0.50114 0.26442 0.57528 0.0
C137 C 0.51007 0.26203 0.54684 0.0
C138 C 0.77697 0.193 0.49882 0.0
C139 C 0.84748 0.26935 0.5778 0.0
O140 O 0.9032 0.32228 0.49805 0.0
O141 O 0.92995 0.25711 0.50646 0.0
O142 O 0.82539 0.34044 0.53057 0.0
O143 O 0.72252 0.30849 0.49575 0.0
O144 O 0.75223 0.27011 0.45446 0.0
O145 O 0.63265 0.26081 0.45127 0.0
O146 O 0.62581 0.20817 0.51758 0.0
O147 O 0.59037 0.27213 0.50636 0.0
O148 O 0.70029 0.19219 0.48313 0.0
O149 O 0.80208 0.22369 0.51895 0.0
O150 O 0.76964 0.26541 0.55947 0.0
O151 O 0.89033 0.27189 0.56335 0.0
H152 H 0.04682 0.33526 0.48592 0.0
H153 H 0.06068 0.33411 0.43577 0.0
H154 H 0.87243 0.24391 0.38757 0.0
H155 H 0.85841 0.24565 0.4377 0.0
H156 H 0.67494 0.20185 0.58146 0.0
H157 H 0.65948 0.20567 0.63084 0.0
H158 H 0.45212 0.28213 0.57278 0.0
H159 H 0.46781 0.27772 0.52341 0.0
H160 H 0.59322 0.67903 0.9829 0.0
H161 H 0.51679 0.61959 0.98365 0.0
H162 H 0.73263 0.55026 0.04205 0.0
H163 H 0.80912 0.60976 0.04231 0.0
H164 H 0.61383 0.50464 0.98742 0.0
H165 H 0.64873 0.58399 0.08194 0.0
H166 H 0.64455 0.64455 0.11364 0.0
H167 H 0.39163 0.64975 0.04779 0.0
H168 H 0.39437 0.58949 0.01528 0.0
H169 H 0.45566 0.33717 0.03809 0.0
H170 H 0.53512 0.39592 0.03863 0.0
H171 H 0.32285 0.46838 0.98179 0.0
H172 H 0.24349 0.40975 0.98047 0.0
H173 H 0.44221 0.51201 0.03661 0.0
H174 H 0.41026 0.43228 0.94144 0.0
H175 H 0.41743 0.37067 0.91156 0.0
H176 H 0.66913 0.36504 0.98118 0.0
H177 H 0.6633 0.42668 0.01163 0.0
C178 C 0.6244 0.6513 0.99622 0.0
C179 C 0.70742 0.64937 0.01275 0.0
C180 C 0.58063 0.61723 0.99656 0.0
C181 C 0.61877 0.58022 0.01296 0.0
C182 C 0.70157 0.57823 0.02914 0.0
C183 C 0.74531 0.61243 0.02933 0.0
C184 C 0.5727 0.54355 0.01321 0.0
C185 C 0.57708 0.50619 0.99857 0.0
C186 C 0.52373 0.54538 0.0273 0.0
C187 C 0.52184 0.58247 0.04594 0.0
C188 C 0.59229 0.59837 0.07389 0.0
C189 C 0.59017 0.63256 0.09209 0.0
C190 C 0.51785 0.65091 0.08275 0.0
C191 C 0.44757 0.63542 0.05499 0.0
C192 C 0.44938 0.60125 0.03667 0.0
C193 C 0.42593 0.36546 0.02541 0.0
C194 C 0.34305 0.36854 0.00903 0.0
C195 C 0.47143 0.39914 0.02577 0.0
C196 C 0.43519 0.43681 0.01014 0.0
C197 C 0.35253 0.43989 0.9941 0.0
C198 C 0.30711 0.40617 0.99331 0.0
C199 C 0.48286 0.47317 0.0106 0.0
C200 C 0.47886 0.51049 0.02542 0.0
C201 C 0.53257 0.47122 0.99686 0.0
C202 C 0.53621 0.4338 0.97903 0.0
C203 C 0.46703 0.41766 0.9506 0.0
C204 C 0.4709 0.38278 0.9335 0.0
C205 C 0.54369 0.36381 0.94453 0.0
C206 C 0.61277 0.37973 0.97269 0.0
C207 C 0.60924 0.41468 0.98984 0.0
H208 H 0.54671 0.33691 0.93119 0.0
H209 H 0.51621 0.6769 0.09722 0.0
H210 H 0.44922 0.68941 0.53743 0.0
H211 H 0.52959 0.62995 0.54005 0.0
H212 H 0.31757 0.55685 0.48265 0.0
H213 H 0.2375 0.61599 0.47946 0.0
H214 H 0.43426 0.51391 0.53767 0.0
H215 H 0.40682 0.59336 0.4444 0.0
H216 H 0.41491 0.65573 0.41585 0.0
H217 H 0.66737 0.65887 0.48393 0.0
H218 H 0.66049 0.59697 0.51366 0.0
H219 H 0.58604 0.34686 0.48282 0.0
H220 H 0.50987 0.40637 0.48357 0.0
H221 H 0.72704 0.47311 0.54773 0.0
H222 H 0.80322 0.41341 0.54819 0.0
H223 H 0.61057 0.51963 0.49077 0.0
H224 H 0.63724 0.43761 0.58265 0.0
H225 H 0.62619 0.37731 0.61266 0.0
H226 H 0.37325 0.37957 0.54729 0.0
H227 H 0.38256 0.43892 0.51588 0.0
C228 C 0.41985 0.66072 0.52523 0.0
C229 C 0.33685 0.65758 0.50812 0.0
C230 C 0.46582 0.62668 0.52677 0.0
C231 C 0.42984 0.58866 0.51151 0.0
C232 C 0.34705 0.58556 0.49477 0.0
C233 C 0.30123 0.61958 0.49286 0.0
C234 C 0.4777 0.55215 0.51255 0.0
C235 C 0.47205 0.51503 0.52702 0.0
C236 C 0.52841 0.55362 0.4993 0.0
C237 C 0.53303 0.59077 0.48152 0.0
C238 C 0.46401 0.60757 0.45356 0.0
C239 C 0.46839 0.64283 0.43711 0.0
C240 C 0.54164 0.66126 0.44801 0.0
C241 C 0.61066 0.64455 0.47552 0.0
C242 C 0.60654 0.6094 0.49222 0.0
C243 C 0.61756 0.37396 0.49748 0.0
C244 C 0.70086 0.37508 0.51571 0.0
C245 C 0.57392 0.40809 0.49778 0.0
C246 C 0.61257 0.44441 0.51575 0.0
C247 C 0.69567 0.44564 0.53362 0.0
C248 C 0.7392 0.41133 0.53391 0.0
C249 C 0.56675 0.48126 0.51573 0.0
C250 C 0.5728 0.51845 0.50143 0.0
C251 C 0.51615 0.47977 0.52904 0.0
C252 C 0.51067 0.44258 0.54662 0.0
C253 C 0.57928 0.42483 0.57417 0.0
C254 C 0.57336 0.39093 0.59156 0.0
C255 C 0.49916 0.37493 0.58209 0.0
C256 C 0.4307 0.39213 0.55467 0.0
C257 C 0.43627 0.42582 0.53697 0.0
H258 H 0.49479 0.34946 0.59624 0.0
H259 H 0.54495 0.68837 0.43507 0.0
H260 H 0.29913 0.11834 0.05189 0.0
H261 H 0.22111 0.0596 0.05128 0.0
H262 H 1.00996 0.1147 0.96791 0.0
H263 H 0.08821 0.17453 0.96932 0.0
H264 H 0.97483 0.08055 0.01019 0.0
H265 H 0.11528 0.03148 0.95717 0.0
H266 H 0.23272 0.01784 0.95309 0.0
H267 H 0.33152 0.94251 0.04334 0.0
H268 H 0.21512 0.95612 0.04821 0.0
H269 H 0.73741 0.89983 0.96196 0.0
H270 H 0.81517 0.95916 0.9632 0.0
H271 H 0.02562 0.90497 0.04763 0.0
H272 H 0.94771 0.8449 0.04592 0.0
H273 H 0.06119 0.93854 1.00495 0.0
H274 H 0.92209 0.98671 0.05815 0.0
H275 H 0.80593 1.00025 0.06317 0.0
H276 H 0.70598 0.0772 0.97383 0.0
H277 H 0.82109 0.06364 0.96798 0.0
C278 C 0.23599 0.11805 0.03344 0.0
C279 C 0.20009 0.15103 0.01045 0.0
C280 C 0.19131 0.08416 0.03293 0.0
C281 C 0.10944 0.08175 0.00895 0.0
C282 C 0.07297 0.11534 0.98655 0.0
C283 C 0.11774 0.14961 0.98731 0.0
C284 C 0.06241 0.04433 0.00739 0.0
C285 C 0.99322 0.04958 0.00849 0.0
C286 C 0.08691 1.00348 1.00618 0.0
C287 C 0.15678 0.99512 1.00321 0.0
C288 C 0.16229 1.01222 0.97626 0.0
C289 C 0.22864 1.00446 0.97379 0.0
C290 C 0.28961 0.9794 0.99797 0.0
C291 C 0.28428 0.96195 0.02464 0.0
C292 C 0.2181 0.96964 0.02725 0.0
C293 C 0.80032 0.90046 0.98078 0.0
C294 C 0.83618 0.86763 1.00395 0.0
C295 C 0.84483 0.93465 0.98162 0.0
C296 C 0.92646 0.93736 1.00598 0.0
C297 C 0.96283 0.90402 0.02865 0.0
C298 C 0.91822 0.8696 0.02768 0.0
C299 C 0.9735 0.97477 0.00763 0.0
C300 C 0.04272 0.96952 1.00658 0.0
C301 C 0.94914 0.01559 0.00898 0.0
C302 C 0.87986 0.02382 0.01243 0.0
C303 C 0.87505 1.00626 0.03941 0.0
C304 C 0.80944 1.01398 0.04243 0.0
C305 C 0.74851 0.03948 0.01878 0.0
C306 C 0.75317 0.0574 0.9921 0.0
C307 C 0.8186 0.04973 0.98893 0.0
H308 H 0.69778 0.04543 0.02117 0.0
H309 H 0.34093 0.97344 0.99602 0.0
H310 H 0.72466 0.12319 0.45981 0.0
H311 H 0.80158 0.06369 0.46061 0.0
H312 H 0.01643 0.12314 0.53806 0.0
H313 H 0.93918 0.18284 0.53758 0.0
H314 H 0.03488 0.0864 0.48804 0.0
H315 H 0.93619 0.04642 0.55978 0.0
H316 H 0.83477 0.03458 0.57477 0.0
H317 H 0.71742 0.94712 0.49233 0.0
H318 H 0.81757 0.95889 0.47652 0.0
H319 H 0.28884 0.91348 0.53988 0.0
H320 H 0.20934 0.97203 0.5381 0.0
H321 H 0.99624 0.90672 0.46595 0.0
H322 H 0.07635 0.84739 0.46802 0.0
H323 H 0.97481 0.94635 0.51213 0.0
H324 H 0.07286 0.98563 0.44033 0.0
H325 H 0.17329 0.99746 0.42475 0.0
H326 H 0.29011 0.08629 0.50612 0.0
H327 H 0.19097 0.07456 0.52251 0.0
C328 C 0.78833 0.1237 0.47704 0.0
C329 C 0.82565 0.15787 0.49868 0.0
C330 C 0.83234 0.08948 0.47754 0.0
C331 C 0.91504 0.08842 0.49968 0.0
C332 C 0.95278 0.12299 0.52077 0.0
C333 C 0.90856 0.1572 0.52046 0.0
C334 C 0.96164 0.05122 0.50082 0.0
C335 C 0.0224 0.05589 0.49379 0.0
C336 C 0.94431 1.01099 0.50734 0.0
C337 C 0.88392 1.00388 0.51673 0.0
C338 C 0.88836 0.02494 0.54464 0.0
C339 C 0.83118 0.01819 0.55333 0.0
C340 C 0.76956 0.9902 0.53445 0.0
C341 C 0.76511 0.96884 0.50689 0.0
C342 C 0.82209 0.97553 0.49807 0.0
C343 C 0.225 0.91145 0.52359 0.0
C344 C 0.18909 0.87574 0.50392 0.0
C345 C 0.17944 0.94519 0.52247 0.0
C346 C 0.09641 0.94449 0.50139 0.0
C347 C 0.06008 0.90836 0.48231 0.0
C348 C 0.10591 0.8744 0.48347 0.0
C349 C 0.04835 0.9815 0.49945 0.0
C350 C 0.98727 0.97682 0.5063 0.0
C351 C 0.06518 0.02173 0.49264 0.0
C352 C 0.12489 0.02891 0.48285 0.0
C353 C 0.12032 1.00745 0.45508 0.0
C354 C 0.17696 1.01418 0.44607 0.0
C355 C 0.23816 0.04253 0.46449 0.0
C356 C 0.24273 0.06429 0.49191 0.0
C357 C 0.18629 0.05764 0.50105 0.0
H358 H 0.28194 0.04771 0.45747 0.0
H359 H 0.72537 0.985 0.54123 0.0
H360 H 0.53631 0.22746 0.38927 0.0
H361 H 0.48351 0.22141 0.32734 0.0
H362 H 0.67437 0.2976 0.33836 0.0
H363 H 0.72725 0.30359 0.39971 0.0
H364 H 0.52452 0.31729 0.28106 0.0
H365 H 0.69625 0.20111 0.33608 0.0
H366 H 0.74294 0.14001 0.37355 0.0
H367 H 0.51817 0.08069 0.30939 0.0
H368 H 0.46964 0.14182 0.27184 0.0
H369 H 0.51267 0.27395 0.12687 0.0
H370 H 0.57053 0.27276 0.18931 0.0
H371 H 0.36952 0.20337 0.17525 0.0
H372 H 0.3111 0.20504 0.11318 0.0
H373 H 0.52444 0.179 0.23399 0.0
H374 H 0.35138 0.29677 0.18077 0.0
H375 H 0.30471 0.35846 0.14392 0.0
H376 H 0.53376 0.41462 0.20523 0.0
H377 H 0.58209 0.35302 0.24225 0.0
C378 C 0.56595 0.24341 0.37826 0.0
C379 C 0.63591 0.26572 0.39912 0.0
C380 C 0.53618 0.23977 0.3431 0.0
C381 C 0.5757 0.25884 0.32863 0.0
C382 C 0.64329 0.28271 0.3492 0.0
C383 C 0.67347 0.28591 0.3842 0.0
C384 C 0.54927 0.25264 0.29231 0.0
C385 C 0.52507 0.28714 0.27081 0.0
C386 C 0.54967 0.21319 0.27914 0.0
C387 C 0.579 0.17621 0.30139 0.0
C388 C 0.65654 0.17518 0.33013 0.0
C389 C 0.68339 0.14053 0.35136 0.0
C390 C 0.63348 0.10654 0.34391 0.0
C391 C 0.55671 0.10708 0.31515 0.0
C392 C 0.5295 0.14172 0.29389 0.0
C393 C 0.48212 0.25759 0.13728 0.0
C394 C 0.4074 0.23997 0.11552 0.0
C395 C 0.51492 0.257 0.17275 0.0
C396 C 0.47369 0.23818 0.18654 0.0
C397 C 0.40199 0.21791 0.16492 0.0
C398 C 0.36865 0.21912 0.12958 0.0
C399 C 0.5001 0.24369 0.2229 0.0
C400 C 0.52405 0.20911 0.24433 0.0
C401 C 0.49962 0.28307 0.2361 0.0
C402 C 0.4706 0.32015 0.214 0.0
C403 C 0.39199 0.32212 0.18619 0.0
C404 C 0.36519 0.35708 0.16532 0.0
C405 C 0.41631 0.39035 0.17214 0.0
C406 C 0.49428 0.38879 0.19993 0.0
C407 C 0.5214 0.35389 0.22089 0.0
H408 H 0.39545 0.41738 0.15595 0.0
H409 H 0.65436 0.07973 0.36038 0.0
H410 H 0.40822 0.78779 0.10432 0.0
H411 H 0.39094 0.79 0.15366 0.0
H412 H 0.63624 0.82389 0.21946 0.0
H413 H 0.65397 0.82209 0.17039 0.0
H414 H 0.58542 0.7592 0.24592 0.0
H415 H 0.50077 0.89556 0.19658 0.0
H416 H 0.41924 0.94328 0.14902 0.0
H417 H 0.20775 0.8914 0.13832 0.0
H418 H 0.28805 0.84296 0.18554 0.0
H419 H 0.59582 0.81339 0.39748 0.0
H420 H 0.60609 0.81397 0.34647 0.0
H421 H 0.3514 0.80966 0.28209 0.0
H422 H 0.34086 0.81084 0.33306 0.0
H423 H 0.40189 0.85719 0.25298 0.0
H424 H 0.4745 0.7226 0.29942 0.0
H425 H 0.54615 0.66966 0.34367 0.0
H426 H 0.7661 0.70968 0.35559 0.0
H427 H 0.69591 0.76341 0.31182 0.0
C428 C 0.45861 0.79566 0.12927 0.0
C429 C 0.53261 0.80465 0.13321 0.0
C430 C 0.4485 0.79709 0.15746 0.0
C431 C 0.51226 0.80717 0.19033 0.0
C432 C 0.58615 0.81601 0.1944 0.0
C433 C 0.59601 0.81522 0.16617 0.0
C434 C 0.50225 0.80844 0.22054 0.0
C435 C 0.54611 0.78097 0.24771 0.0
C436 C 0.44857 0.8357 0.22229 0.0
C437 C 0.40041 0.86539 0.19439 0.0
C438 C 0.43687 0.89416 0.18395 0.0
C439 C 0.39088 0.92136 0.15707 0.0
C440 C 0.30835 0.9203 0.14059 0.0
C441 C 0.27167 0.89216 0.15108 0.0
C442 C 0.3174 0.86486 0.17792 0.0
C443 C 0.54194 0.81259 0.37247 0.0
C444 C 0.46754 0.81154 0.36953 0.0
C445 C 0.54785 0.81276 0.34321 0.0
C446 C 0.4796 0.81084 0.31015 0.0
C447 C 0.40514 0.81099 0.30714 0.0
C448 C 0.39918 0.8116 0.33642 0.0
C449 C 0.48609 0.80825 0.2789 0.0
C450 C 0.44135 0.83534 0.25139 0.0
C451 C 0.53752 0.77985 0.27643 0.0
C452 C 0.57999 0.74732 0.30255 0.0
C453 C 0.53822 0.72032 0.31164 0.0
C454 C 0.57857 0.69015 0.33663 0.0
C455 C 0.66066 0.68637 0.35248 0.0
C456 C 0.70253 0.71269 0.34332 0.0
C457 C 0.66248 0.74301 0.31841 0.0
H458 H 0.69181 0.66299 0.37183 0.0
H459 H 0.27285 0.94134 0.11975 0.0
H460 H 0.73333 0.72954 0.89921 0.0
H461 H 0.67678 0.73515 0.83777 0.0
H462 H 0.47078 0.79514 0.8272 0.0
H463 H 0.5287 0.79057 0.88973 0.0
H464 H 0.44188 0.73122 0.77595 0.0
H465 H 0.59758 0.85451 0.82589 0.0
H466 H 0.71796 0.89295 0.86709 0.0
H467 H 0.8503 0.8297 0.83049 0.0
H468 H 0.73109 0.79018 0.7895 0.0
H469 H 0.29049 0.80888 0.61124 0.0
H470 H 0.34709 0.80631 0.67286 0.0
H471 H 0.56456 0.75778 0.6865 0.0
H472 H 0.5078 0.7603 0.62408 0.0
H473 H 0.58885 0.81567 0.73655 0.0
H474 H 0.4404 0.69503 0.6858 0.0
H475 H 0.32707 0.65178 0.64563 0.0
H476 H 0.19008 0.70041 0.68578 0.0
H477 H 0.30096 0.74604 0.72494 0.0
C478 C 0.67623 0.74428 0.88401 0.0
C479 C 0.6364 0.7607 0.89944 0.0
C480 C 0.64381 0.74716 0.84882 0.0
C481 C 0.57047 0.76623 0.82814 0.0
C482 C 0.52793 0.78059 0.84296 0.0
C483 C 0.56084 0.77792 0.87854 0.0
C484 C 0.54056 0.77201 0.79126 0.0
C485 C 0.47271 0.75036 0.76715 0.0
C486 C 0.58358 0.79545 0.78022 0.0
C487 C 0.65539 0.81928 0.8047 0.0
C488 C 0.65246 0.84859 0.82676 0.0
C489 C 0.72048 0.8706 0.85005 0.0
C490 C 0.79165 0.86385 0.85129 0.0
C491 C 0.79493 0.83507 0.82927 0.0
C492 C 0.72723 0.81278 0.80608 0.0
C493 C 0.35078 0.79805 0.62725 0.0
C494 C 0.39444 0.78424 0.61276 0.0
C495 C 0.38293 0.7966 0.66251 0.0
C496 C 0.45939 0.7812 0.68411 0.0
C497 C 0.50528 0.76972 0.67011 0.0
C498 C 0.47294 0.7712 0.63455 0.0
C499 C 0.48902 0.77548 0.72101 0.0
C500 C 0.55724 0.79685 0.74518 0.0
C501 C 0.447 0.75115 0.73212 0.0
C502 C 0.37893 0.72459 0.70801 0.0
C503 C 0.38559 0.69731 0.68561 0.0
C504 C 0.32164 0.67242 0.66295 0.0
C505 C 0.25104 0.67381 0.66287 0.0
C506 C 0.24437 0.70003 0.68551 0.0
C507 C 0.30768 0.72553 0.70787 0.0
H508 H 0.2017 0.65434 0.64546 0.0
H509 H 0.8443 0.88085 0.86937 0.0
H510 H 0.67186 0.2458 0.67519 0.0
H511 H 0.6559 0.24675 0.72472 0.0
H512 H 0.40273 0.25366 0.65754 0.0
H513 H 0.41713 0.25008 0.60769 0.0
H514 H 0.47912 0.31263 0.71783 0.0
H515 H 0.45942 0.16808 0.68759 0.0
H516 H 0.50529 0.10387 0.67449 0.0
H517 H 0.71924 0.10818 0.77352 0.0
H518 H 0.6751 0.17285 0.78699 0.0
H519 H 0.35843 0.27092 0.83686 0.0
H520 H 0.37377 0.27352 0.78723 0.0
H521 H 0.61099 0.22575 0.84874 0.0
H522 H 0.59538 0.22219 0.89821 0.0
H523 H 0.54334 0.18823 0.79063 0.0
H524 H 0.56898 0.32984 0.82306 0.0
H525 H 0.53149 0.39546 0.83815 0.0
H526 H 0.31942 0.39983 0.73853 0.0
H527 H 0.35507 0.33386 0.72301 0.0
C528 C 0.61249 0.24684 0.67068 0.0
C529 C 0.54582 0.24745 0.637 0.0
C530 C 0.60365 0.24784 0.69919 0.0
C531 C 0.52813 0.25024 0.69484 0.0
C532 C 0.46161 0.25204 0.66149 0.0
C533 C 0.4702 0.25023 0.63293 0.0
C534 C 0.5185 0.24963 0.72507 0.0
C535 C 0.49217 0.28533 0.73356 0.0
C536 C 0.5378 0.21442 0.74616 0.0
C537 C 0.56438 0.17556 0.73812 0.0
C538 C 0.51662 0.15558 0.70643 0.0
C539 C 0.54222 0.11905 0.69897 0.0
C540 C 0.61525 0.10202 0.72311 0.0
C541 C 0.66275 0.12145 0.75481 0.0
C542 C 0.63745 0.15803 0.76238 0.0
C543 C 0.41413 0.26121 0.83997 0.0
C544 C 0.4752 0.24583 0.87164 0.0
C545 C 0.42295 0.26281 0.81146 0.0
C546 C 0.49389 0.25014 0.81406 0.0
C547 C 0.55539 0.23544 0.8458 0.0
C548 C 0.54623 0.23332 0.87415 0.0
C549 C 0.50372 0.25137 0.78371 0.0
C550 C 0.53022 0.21571 0.7751 0.0
C551 C 0.48582 0.28692 0.76287 0.0
C552 C 0.46432 0.32669 0.772 0.0
C553 C 0.51405 0.34464 0.80446 0.0
C554 C 0.49318 0.38191 0.81308 0.0
C555 C 0.42302 0.40175 0.78934 0.0
C556 C 0.37369 0.38439 0.7569 0.0
C557 C 0.39423 0.34707 0.74817 0.0
H558 H 0.40697 0.43061 0.79606 0.0
H559 H 0.63494 0.07372 0.7173 0.0
H560 H 0.82291 0.68707 0.10704 0.0
H561 H 0.88231 0.67291 0.16828 0.0
H562 H 0.04053 0.77649 0.19263 0.0
H563 H 0.98477 0.78861 0.13117 0.0
H564 H 0.1131 0.71773 0.23788 0.0
H565 H 0.85061 0.77906 0.18324 0.0
H566 H 0.70901 0.77662 0.13969 0.0
H567 H 0.68122 0.66809 0.18604 0.0
H568 H 0.82475 0.66803 0.22863 0.0
H569 H 0.05437 0.79426 0.3824 0.0
H570 H 1.002 0.78128 0.32133 0.0
H571 H 0.14201 0.67024 0.34698 0.0
H572 H 0.19823 0.68493 0.40816 0.0
H573 H 0.92133 0.7234 0.27674 0.0
H574 H 0.19896 0.66147 0.27991 0.0
H575 H 0.34248 0.65399 0.32027 0.0
H576 H 0.3382 0.75471 0.38016 0.0
H577 H 0.19793 0.7669 0.33783 0.0
C578 C 0.87128 0.70631 0.12561 0.0
C579 C 0.89887 0.73925 0.11478 0.0
C580 C 0.90508 0.69828 0.16052 0.0
C581 C 0.96432 0.72438 0.18514 0.0
C582 C 0.99455 0.75609 0.17416 0.0
C583 C 0.96253 0.76321 0.13915 0.0
C584 C 0.99012 0.72112 0.222 0.0
C585 C 0.07133 0.71872 0.24648 0.0
C586 C 0.93538 0.72185 0.23316 0.0
C587 C 0.84859 0.72331 0.20887 0.0
C588 C 0.81448 0.75454 0.18409 0.0
C589 C 0.73379 0.75346 0.15944 0.0
C590 C 0.68567 0.72247 0.16021 0.0
C591 C 0.71852 0.69213 0.1855 0.0
C592 C 0.79975 0.69239 0.20971 0.0
C593 C 0.07291 0.76689 0.37479 0.0
C594 C 0.13035 0.74072 0.39955 0.0
C595 C 0.04309 0.75939 0.34002 0.0
C596 C 0.06943 0.72524 0.32956 0.0
C597 C 0.12229 0.69728 0.35441 0.0
C598 C 0.154 0.70554 0.38923 0.0
C599 C 0.04473 0.72089 0.29291 0.0
C600 C 0.96345 0.72185 0.26834 0.0
C601 C 0.09973 0.71813 0.28182 0.0
C602 C 0.18673 0.7144 0.30598 0.0
C603 C 0.22903 0.68284 0.30121 0.0
C604 C 0.31038 0.67824 0.32418 0.0
C605 C 0.34997 0.70441 0.35252 0.0
C606 C 0.30837 0.73544 0.35767 0.0
C607 C 0.22801 0.74157 0.33389 0.0
H608 H 0.41274 0.70056 0.37057 0.0
H609 H 0.62305 0.7219 0.14123 0.0
H610 H 0.85237 0.28386 0.33894 0.0
H611 H 0.86934 0.28195 0.28961 0.0
H612 H 0.1227 0.28892 0.35757 0.0
H613 H 0.10627 0.29075 0.40697 0.0
H614 H 0.07763 0.33901 0.30467 0.0
H615 H 0.02677 0.19715 0.31761 0.0
H616 H 0.95164 0.14005 0.32304 0.0
H617 H 0.74997 0.16924 0.22425 0.0
H618 H 0.82368 0.22684 0.21841 0.0
H619 H 0.19068 0.27862 0.186 0.0
H620 H 0.17033 0.28103 0.23434 0.0
H621 H 0.91755 0.28035 0.16432 0.0
H622 H 0.93703 0.27914 0.11578 0.0
H623 H 0.96005 0.22751 0.21745 0.0
H624 H 1.01018 0.36829 0.20384 0.0
H625 H 0.08316 0.42638 0.1983 0.0
H626 H 0.28413 0.40014 0.29805 0.0
H627 H 0.21268 0.34147 0.30399 0.0
C628 C 0.91181 0.28459 0.34348 0.0
C629 C 0.97791 0.28741 0.37713 0.0
C630 C 0.92146 0.28355 0.31515 0.0
C631 C 0.99746 0.28486 0.3197 0.0
C632 C 0.06342 0.28798 0.35322 0.0
C633 C 0.05384 0.28914 0.38153 0.0
C634 C 1.00847 0.28311 0.28968 0.0
C635 C 0.05281 0.31427 0.2859 0.0
C636 C 0.97454 0.2515 0.26451 0.0
C637 C 0.93051 0.21652 0.26771 0.0
C638 C 0.96626 0.19152 0.29713 0.0
C639 C 0.92396 0.15905 0.30027 0.0
C640 C 0.84602 0.15108 0.27404 0.0
C641 C 0.81033 0.17547 0.24456 0.0
C642 C 0.85237 0.208 0.2413 0.0
C643 C 0.13062 0.27945 0.1807 0.0
C644 C 0.06561 0.27874 0.14666 0.0
C645 C 0.11909 0.28065 0.20851 0.0
C646 C 0.04232 0.28113 0.2031 0.0
C647 C 0.97737 0.27982 0.16926 0.0
C648 C 0.98878 0.2789 0.14144 0.0
C649 C 0.02972 0.28321 0.23265 0.0
C650 C 0.98499 0.25218 0.23628 0.0
C651 C 0.06318 0.31497 0.25766 0.0
C652 C 0.10638 0.35021 0.2542 0.0
C653 C 0.07019 0.37467 0.22447 0.0
C654 C 0.11123 0.40775 0.22128 0.0
C655 C 0.18833 0.41687 0.24777 0.0
C656 C 0.22446 0.39299 0.27753 0.0
C657 C 0.1837 0.35984 0.28084 0.0
H658 H 0.21999 0.44251 0.24525 0.0
H659 H 0.81333 0.12596 0.27654 0.0
H660 H 0.7741 0.26234 0.61377 0.0
H661 H 0.83154 0.267 0.67507 0.0
H662 H 0.06209 0.2881 0.6892 0.0
H663 H 1.00469 0.28218 0.62695 0.0
H664 H 0.06698 0.23338 0.7353 0.0
H665 H 0.96081 0.36837 0.6963 0.0
H666 H 0.8599 0.41982 0.66006 0.0
H667 H 0.70623 0.37439 0.69292 0.0
H668 H 0.80595 0.32236 0.72913 0.0
H669 H 0.24576 0.302 0.9045 0.0
H670 H 0.18576 0.30502 0.84274 0.0
H671 H 0.96204 0.2662 0.82859 0.0
H672 H 0.02272 0.2623 0.89119 0.0
H673 H 0.95482 0.33106 0.78284 0.0
H674 H 0.0658 0.19765 0.82406 0.0
H675 H 0.16967 0.14834 0.86158 0.0
H676 H 0.31524 0.18977 0.82337 0.0
H677 H 0.21378 0.24087 0.78669 0.0
C678 C 0.83714 0.26775 0.62968 0.0
C679 C 0.88486 0.27188 0.61538 0.0
C680 C 0.86976 0.27076 0.66483 0.0
C681 C 0.95066 0.2787 0.68656 0.0
C682 C 0.99923 0.28224 0.67267 0.0
C683 C 0.96647 0.2789 0.63721 0.0
C684 C 0.9837 0.28254 0.72381 0.0
C685 C 0.04363 0.25524 0.74582 0.0
C686 C 0.95118 0.31029 0.7372 0.0
C687 C 0.89081 0.3414 0.71536 0.0
C688 C 0.90533 0.3692 0.69565 0.0
C689 C 0.84841 0.39851 0.67517 0.0
C690 C 0.77688 0.40048 0.67431 0.0
C691 C 0.76186 0.37296 0.69376 0.0
C692 C 0.81861 0.34359 0.71431 0.0
C693 C 0.18372 0.29417 0.8884 0.0
C694 C 0.1393 0.28091 0.90263 0.0
C695 C 0.14953 0.29617 0.8531 0.0
C696 C 0.07016 0.28509 0.83133 0.0
C697 C 0.02373 0.27459 0.84524 0.0
C698 C 0.05828 0.27239 0.88085 0.0
C699 C 0.03811 0.28203 0.79421 0.0
C700 C 0.97836 0.30936 0.77229 0.0
C701 C 0.07105 0.25439 0.78093 0.0
C702 C 0.13247 0.22366 0.80298 0.0
C703 C 0.12049 0.19685 0.82406 0.0
C704 C 0.17904 0.1686 0.84522 0.0
C705 C 0.24939 0.16628 0.84512 0.0
C706 C 0.26112 0.19206 0.82371 0.0
C707 C 0.20317 0.22074 0.80279 0.0
H708 H 0.29459 0.14431 0.86145 0.0
H709 H 0.73312 0.42336 0.65858 0.0
H710 H 0.16811 0.79258 0.67506 0.0
H711 H 0.15278 0.79559 0.72486 0.0
H712 H 0.93551 0.72613 0.66928 0.0
H713 H 0.94962 0.72346 0.61934 0.0
H714 H 0.92101 0.79135 0.70351 0.0
H715 H 0.10505 0.67838 0.73089 0.0
H716 H 0.22749 0.64549 0.74062 0.0
H717 H 0.36734 0.73522 0.81837 0.0
H718 H 0.24564 0.76861 0.80916 0.0
H719 H 0.8657 0.73295 0.83941 0.0
H720 H 0.88143 0.73742 0.78986 0.0
H721 H 0.11764 0.7859 0.85488 0.0
H722 H 0.10287 0.77999 0.90461 0.0
H723 H 0.12545 0.73422 0.81595 0.0
H724 H 0.9487 0.84799 0.79068 0.0
H725 H 0.83016 0.88612 0.78009 0.0
H726 H 0.68131 0.80188 0.69899 0.0
H727 H 0.799 0.76339 0.70892 0.0
C728 C 0.11653 0.77834 0.67322 0.0
C729 C 0.06059 0.75737 0.6431 0.0
C730 C 0.10832 0.77969 0.70193 0.0
C731 C 0.04346 0.76061 0.70106 0.0
C732 C 0.98637 0.74082 0.67074 0.0
C733 C 0.99493 0.73907 0.64222 0.0
C734 C 0.03434 0.76139 0.73152 0.0
C735 C 0.96531 0.77845 0.72803 0.0
C736 C 0.09315 0.74585 0.76386 0.0
C737 C 0.16629 0.72615 0.76915 0.0
C738 C 0.16191 0.69122 0.74993 0.0
C739 C 0.23116 0.67237 0.75548 0.0
C740 C 0.30512 0.68827 0.78008 0.0
C741 C 0.31001 0.72296 0.79931 0.0
C742 C 0.24094 0.74175 0.79403 0.0
C743 C 0.9208 0.74482 0.84307 0.0
C744 C 0.98314 0.75597 0.87603 0.0
C745 C 0.92963 0.74769 0.8146 0.0
C746 C 1.00048 0.7626 0.81821 0.0
C747 C 0.06241 0.77416 0.85115 0.0
C748 C 0.05399 0.77074 0.87967 0.0
C749 C 1.01165 0.76423 0.78816 0.0
C750 C 0.0811 0.74746 0.79162 0.0
C751 C 0.95369 0.78068 0.7559 0.0
C752 C 0.88259 0.80262 0.75077 0.0
C753 C 0.89063 0.83741 0.77077 0.0
C754 C 0.82363 0.85924 0.76472 0.0
C755 C 0.74824 0.84635 0.73895 0.0
C756 C 0.73969 0.81173 0.71902 0.0
C757 C 0.80654 0.79002 0.72473 0.0
H758 H 0.69645 0.86318 0.73445 0.0
H759 H 0.35863 0.67374 0.78421 0.0
loop_
_geom_bond_atom_site_label_1
_geom_bond_atom_site_label_2
_geom_bond_distance
_geom_bond_site_symmetry_2
_ccdc_geom_bond_type
La0 C2 2.928 . S
La0 O20 2.521 . S
La0 O21 2.628 . S
La0 O22 2.554 . S
La0 O23 2.757 1_554 S
La0 O24 2.470 . S
La0 O29 2.482 . S
La0 O31 2.503 1_554 S
La1 C11 2.928 . S
La1 O23 2.482 . S
La1 O25 2.503 1_556 S
La1 O26 2.521 . S
La1 O27 2.628 . S
La1 O28 2.554 . S
La1 O29 2.757 1_556 S
La1 O30 2.470 . S
C2 La0 2.928 . S
C2 C3 1.503 . S
C2 O20 1.261 . S
C2 O21 1.243 . S
C3 C2 1.503 . S
C3 C4 1.394 . S
C3 C8 1.373 . S
C4 C3 1.394 . S
C4 C5 1.380 . S
C4 H32 0.930 . S
C5 C4 1.380 . S
C5 C6 1.376 . S
C5 H33 0.930 . S
C6 C5 1.376 . S
C6 C7 1.370 . S
C7 C6 1.370 . S
C7 C8 1.396 . S
C7 H34 0.929 . S
C8 C3 1.373 . S
C8 C7 1.396 . S
C8 H35 0.929 . S
C9 O22 1.240 . S
C9 O23 1.289 1_554 S
C10 O24 1.258 . S
C10 O25 1.256 . S
C11 La1 2.928 . S
C11 C12 1.503 . S
C11 O26 1.261 . S
C11 O27 1.243 . S
C12 C11 1.503 . S
C12 C13 1.394 . S
C12 C17 1.373 . S
C13 C12 1.394 . S
C13 C14 1.380 . S
C13 H36 0.930 . S
C14 C13 1.380 . S
C14 C15 1.376 . S
C14 H37 0.930 . S
C15 C14 1.376 . S
C15 C16 1.370 . S
C16 C15 1.370 . S
C16 C17 1.396 . S
C16 H38 0.929 . S
C17 C12 1.373 . S
C17 C16 1.396 . S
C17 H39 0.929 . S
C18 O28 1.240 . S
C18 O29 1.289 1_556 S
C19 O30 1.258 . S
C19 O31 1.256 . S
O20 La0 2.521 . S
O20 C2 1.261 . S
O21 La0 2.628 . S
O21 C2 1.243 . S
O22 La0 2.554 . S
O22 C9 1.240 . S
O23 La0 2.757 1_556 S
O23 La1 2.482 . S
O23 C9 1.289 1_556 S
O24 La0 2.470 . S
O24 C10 1.258 . S
O25 La1 2.503 1_554 S
O25 C10 1.256 . S
O26 La1 2.521 . S
O26 C11 1.261 . S
O27 La1 2.628 . S
O27 C11 1.243 . S
O28 La1 2.554 . S
O28 C18 1.240 . S
O29 La0 2.482 . S
O29 La1 2.757 1_554 S
O29 C18 1.289 1_554 S
O30 La1 2.470 . S
O30 C19 1.258 . S
O31 La0 2.503 1_556 S
O31 C19 1.256 . S
H32 C4 0.930 . S
H33 C5 0.930 . S
H34 C7 0.929 . S
H35 C8 0.929 . S
H36 C13 0.930 . S
H37 C14 0.930 . S
H38 C16 0.929 . S
H39 C17 0.929 . S
La40 C42 2.928 . S
La40 O60 2.521 . S
La40 O61 2.628 . S
La40 O62 2.554 . S
La40 O63 2.757 1_554 S
La40 O64 2.470 . S
La40 O69 2.482 . S
La40 O71 2.503 1_554 S
La41 C51 2.928 . S
La41 O63 2.482 . S
La41 O65 2.503 1_556 S
La41 O66 2.521 . S
La41 O67 2.628 . S
La41 O68 2.554 . S
La41 O69 2.757 1_556 S
La41 O70 2.470 . S
C42 La40 2.928 . S
C42 C43 1.503 . S
C42 O60 1.261 . S
C42 O61 1.243 . S
C43 C42 1.503 . S
C43 C44 1.394 . S
C43 C48 1.373 . S
C44 C43 1.394 . S
C44 C45 1.380 . S
C44 H72 0.930 . S
C45 C44 1.380 . S
C45 C46 1.376 . S
C45 H73 0.930 . S
C46 C45 1.376 . S
C46 C47 1.370 . S
C47 C46 1.370 . S
C47 C48 1.396 . S
C47 H74 0.929 . S
C48 C43 1.373 . S
C48 C47 1.396 . S
C48 H75 0.929 . S
C49 O62 1.240 . S
C49 O63 1.289 1_554 S
C50 O64 1.258 . S
C50 O65 1.256 . S
C51 La41 2.928 . S
C51 C52 1.503 . S
C51 O66 1.261 . S
C51 O67 1.243 . S
C52 C51 1.503 . S
C52 C53 1.394 . S
C52 C57 1.373 . S
C53 C52 1.394 . S
C53 C54 1.380 . S
C53 H76 0.930 . S
C54 C53 1.380 . S
C54 C55 1.376 . S
C54 H77 0.930 . S
C55 C54 1.376 . S
C55 C56 1.370 . S
C56 C55 1.370 . S
C56 C57 1.396 . S
C56 H78 0.929 . S
C57 C52 1.373 . S
C57 C56 1.396 . S
C57 H79 0.929 . S
C58 O68 1.240 . S
C58 O69 1.289 1_556 S
C59 O70 1.258 . S
C59 O71 1.256 . S
O60 La40 2.521 . S
O60 C42 1.261 . S
O61 La40 2.628 . S
O61 C42 1.243 . S
O62 La40 2.554 . S
O62 C49 1.240 . S
O63 La40 2.757 1_556 S
O63 La41 2.482 . S
O63 C49 1.289 1_556 S
O64 La40 2.470 . S
O64 C50 1.258 . S
O65 La41 2.503 1_554 S
O65 C50 1.256 . S
O66 La41 2.521 . S
O66 C51 1.261 . S
O67 La41 2.628 . S
O67 C51 1.243 . S
O68 La41 2.554 . S
O68 C58 1.240 . S
O69 La40 2.482 . S
O69 La41 2.757 1_554 S
O69 C58 1.289 1_554 S
O70 La41 2.470 . S
O70 C59 1.258 . S
O71 La40 2.503 1_556 S
O71 C59 1.256 . S
H72 C44 0.930 . S
H73 C45 0.930 . S
H74 C47 0.929 . S
H75 C48 0.929 . S
H76 C53 0.930 . S
H77 C54 0.930 . S
H78 C56 0.929 . S
H79 C57 0.929 . S
La80 C82 2.928 . S
La80 O100 2.521 . S
La80 O101 2.628 . S
La80 O102 2.554 . S
La80 O103 2.757 . S
La80 O104 2.470 . S
La80 O109 2.482 . S
La80 O111 2.503 . S
La81 C91 2.928 . S
La81 O103 2.482 . S
La81 O105 2.503 . S
La81 O106 2.521 . S
La81 O107 2.628 . S
La81 O108 2.554 . S
La81 O109 2.757 . S
La81 O110 2.470 . S
C82 La80 2.928 . S
C82 C83 1.503 . S
C82 O100 1.261 . S
C82 O101 1.243 . S
C83 C82 1.503 . S
C83 C84 1.394 . S
C83 C88 1.373 . S
C84 C83 1.394 . S
C84 C85 1.380 . S
C84 H112 0.930 . S
C85 C84 1.380 . S
C85 C86 1.376 . S
C85 H113 0.930 . S
C86 C85 1.376 . S
C86 C87 1.370 . S
C87 C86 1.370 . S
C87 C88 1.396 . S
C87 H114 0.929 . S
C88 C83 1.373 . S
C88 C87 1.396 . S
C88 H115 0.929 . S
C89 O102 1.240 . S
C89 O103 1.289 . S
C90 O104 1.258 . S
C90 O105 1.256 . S
C91 La81 2.928 . S
C91 C92 1.503 . S
C91 O106 1.261 . S
C91 O107 1.243 . S
C92 C91 1.503 . S
C92 C93 1.394 . S
C92 C97 1.373 . S
C93 C92 1.394 . S
C93 C94 1.380 . S
C93 H116 0.930 . S
C94 C93 1.380 . S
C94 C95 1.376 . S
C94 H117 0.930 . S
C95 C94 1.376 . S
C95 C96 1.370 . S
C96 C95 1.370 . S
C96 C97 1.396 . S
C96 H118 0.929 . S
C97 C92 1.373 . S
C97 C96 1.396 . S
C97 H119 0.929 . S
C98 O108 1.240 . S
C98 O109 1.289 . S
C99 O110 1.258 . S
C99 O111 1.256 . S
O100 La80 2.521 . S
O100 C82 1.261 . S
O101 La80 2.628 . S
O101 C82 1.243 . S
O102 La80 2.554 . S
O102 C89 1.240 . S
O103 La80 2.757 . S
O103 La81 2.482 . S
O103 C89 1.289 . S
O104 La80 2.470 . S
O104 C90 1.258 . S
O105 La81 2.503 . S
O105 C90 1.256 . S
O106 La81 2.521 . S
O106 C91 1.261 . S
O107 La81 2.628 . S
O107 C91 1.243 . S
O108 La81 2.554 . S
O108 C98 1.240 . S
O109 La80 2.482 . S
O109 La81 2.757 . S
O109 C98 1.289 . S
O110 La81 2.470 . S
O110 C99 1.258 . S
O111 La80 2.503 . S
O111 C99 1.256 . S
H112 C84 0.930 . S
H113 C85 0.930 . S
H114 C87 0.929 . S
H115 C88 0.929 . S
H116 C93 0.930 . S
H117 C94 0.930 . S
H118 C96 0.929 . S
H119 C97 0.929 . S
La120 C122 2.928 . S
La120 O140 2.521 . S
La120 O141 2.628 . S
La120 O142 2.554 . S
La120 O143 2.757 . S
La120 O144 2.470 . S
La120 O149 2.482 . S
La120 O151 2.503 . S
La121 C131 2.928 . S
La121 O143 2.482 . S
La121 O145 2.503 . S
La121 O146 2.521 . S
La121 O147 2.628 . S
La121 O148 2.554 . S
La121 O149 2.757 . S
La121 O150 2.470 . S
C122 La120 2.928 . S
C122 C123 1.503 . S
C122 O140 1.261 . S
C122 O141 1.243 . S
C123 C122 1.503 . S
C123 C124 1.394 . S
C123 C128 1.373 . S
C124 C123 1.394 . S
C124 C125 1.380 . S
C124 H152 0.930 . S
C125 C124 1.380 . S
C125 C126 1.376 . S
C125 H153 0.930 . S
C126 C125 1.376 . S
C126 C127 1.370 . S
C127 C126 1.370 . S
C127 C128 1.396 . S
C127 H154 0.929 . S
C128 C123 1.373 . S
C128 C127 1.396 . S
C128 H155 0.929 . S
C129 O142 1.240 . S
C129 O143 1.289 . S
C130 O144 1.258 . S
C130 O145 1.256 . S
C131 La121 2.928 . S
C131 C132 1.503 . S
C131 O146 1.261 . S
C131 O147 1.243 . S
C132 C131 1.503 . S
C132 C133 1.394 . S
C132 C137 1.373 . S
C133 C132 1.394 . S
C133 C134 1.380 . S
C133 H156 0.930 . S
C134 C133 1.380 . S
C134 C135 1.376 . S
C134 H157 0.930 . S
C135 C134 1.376 . S
C135 C136 1.370 . S
C136 C135 1.370 . S
C136 C137 1.396 . S
C136 H158 0.929 . S
C137 C132 1.373 . S
C137 C136 1.396 . S
C137 H159 0.929 . S
C138 O148 1.240 . S
C138 O149 1.289 . S
C139 O150 1.258 . S
C139 O151 1.256 . S
O140 La120 2.521 . S
O140 C122 1.261 . S
O141 La120 2.628 . S
O141 C122 1.243 . S
O142 La120 2.554 . S
O142 C129 1.240 . S
O143 La120 2.757 . S
O143 La121 2.482 . S
O143 C129 1.289 . S
O144 La120 2.470 . S
O144 C130 1.258 . S
O145 La121 2.503 . S
O145 C130 1.256 . S
O146 La121 2.521 . S
O146 C131 1.261 . S
O147 La121 2.628 . S
O147 C131 1.243 . S
O148 La121 2.554 . S
O148 C138 1.240 . S
O149 La120 2.482 . S
O149 La121 2.757 . S
O149 C138 1.289 . S
O150 La121 2.470 . S
O150 C139 1.258 . S
O151 La120 2.503 . S
O151 C139 1.256 . S
H152 C124 0.930 . S
H153 C125 0.930 . S
H154 C127 0.929 . S
H155 C128 0.929 . S
H156 C133 0.930 . S
H157 C134 0.930 . S
H158 C136 0.929 . S
H159 C137 0.929 . S
H160 C178 0.951 . S
H161 C180 0.951 . S
H162 C182 0.950 . S
H163 C183 0.950 . S
H164 C185 0.950 . S
H165 C188 0.950 . S
H166 C189 0.950 . S
H167 C191 0.950 . S
H168 C192 0.950 . S
H169 C193 0.951 . S
H170 C195 0.951 . S
H171 C197 0.950 . S
H172 C198 0.950 . S
H173 C200 0.950 . S
H174 C203 0.950 . S
H175 C204 0.950 . S
H176 C206 0.950 . S
H177 C207 0.950 . S
C178 H160 0.951 . S
C178 C179 1.366 1_554 S
C178 C180 1.388 . S
C179 C178 1.366 1_556 S
C179 C183 1.385 . S
C180 H161 0.951 . S
C180 C178 1.388 . S
C180 C181 1.372 . S
C181 C180 1.372 . S
C181 C182 1.402 1_554 S
C181 C184 1.504 . S
C182 H162 0.950 . S
C182 C181 1.402 1_556 S
C182 C183 1.374 . S
C183 H163 0.950 . S
C183 C179 1.385 . S
C183 C182 1.374 . S
C184 C181 1.504 . S
C184 C185 1.373 1_554 S
C184 C186 1.389 . S
C185 H164 0.950 . S
C185 C184 1.373 1_556 S
C185 C201 1.377 . S
C186 C184 1.389 . S
C186 C187 1.524 . S
C186 C200 1.377 . S
C187 C186 1.524 . S
C187 C188 1.397 . S
C187 C192 1.363 . S
C188 H165 0.950 . S
C188 C187 1.397 . S
C188 C189 1.334 . S
C189 H166 0.950 . S
C189 C188 1.334 . S
C189 C190 1.287 . S
C190 C189 1.287 . S
C190 C191 1.524 . S
C190 H209 0.913 . S
C191 H167 0.950 . S
C191 C190 1.524 . S
C191 C192 1.415 . S
C192 H168 0.950 . S
C192 C187 1.363 . S
C192 C191 1.415 . S
C193 H169 0.951 . S
C193 C194 1.366 1_556 S
C193 C195 1.388 . S
C194 C193 1.366 1_554 S
C194 C198 1.385 . S
C195 H170 0.951 . S
C195 C193 1.388 . S
C195 C196 1.366 1_556 S
C196 C195 1.366 1_554 S
C196 C197 1.413 . S
C196 C199 1.492 1_554 S
C197 H171 0.950 . S
C197 C196 1.413 . S
C197 C198 1.374 . S
C198 H172 0.950 . S
C198 C194 1.385 . S
C198 C197 1.374 . S
C199 C196 1.492 1_556 S
C199 C200 1.359 1_556 S
C199 C201 1.411 . S
C200 H173 0.950 . S
C200 C186 1.377 . S
C200 C199 1.359 1_554 S
C201 C185 1.377 . S
C201 C199 1.411 . S
C201 C202 1.524 . S
C202 C201 1.524 . S
C202 C203 1.397 . S
C202 C207 1.363 . S
C203 H174 0.950 . S
C203 C202 1.397 . S
C203 C204 1.334 . S
C204 H175 0.950 . S
C204 C203 1.334 . S
C204 C205 1.287 . S
C205 C204 1.287 . S
C205 C206 1.524 . S
C205 H208 0.999 . S
C206 H176 0.950 . S
C206 C205 1.524 . S
C206 C207 1.415 . S
C207 H177 0.950 . S
C207 C202 1.363 . S
C207 C206 1.415 . S
H208 C205 0.999 . S
H209 C190 0.913 . S
H210 C228 0.951 . S
H211 C230 0.951 . S
H212 C232 0.950 . S
H213 C233 0.950 . S
H214 C235 0.950 . S
H215 C238 0.950 . S
H216 C239 0.950 . S
H217 C241 0.950 . S
H218 C242 0.950 . S
H219 C243 0.951 . S
H220 C245 0.951 . S
H221 C247 0.950 . S
H222 C248 0.950 . S
H223 C250 0.950 . S
H224 C253 0.950 . S
H225 C254 0.950 . S
H226 C256 0.950 . S
H227 C257 0.950 . S
C228 H210 0.951 . S
C228 C229 1.366 . S
C228 C230 1.388 . S
C229 C228 1.366 . S
C229 C233 1.385 . S
C230 H211 0.951 . S
C230 C228 1.388 . S
C230 C231 1.366 . S
C231 C230 1.366 . S
C231 C232 1.414 . S
C231 C234 1.499 . S
C232 H212 0.950 . S
C232 C231 1.414 . S
C232 C233 1.374 . S
C233 H213 0.950 . S
C233 C229 1.385 . S
C233 C232 1.374 . S
C234 C231 1.499 . S
C234 C235 1.373 . S
C234 C236 1.389 . S
C235 H214 0.950 . S
C235 C234 1.373 . S
C235 C251 1.377 . S
C236 C234 1.389 . S
C236 C237 1.524 . S
C236 C250 1.377 . S
C237 C236 1.524 . S
C237 C238 1.397 . S
C237 C242 1.363 . S
C238 H215 0.950 . S
C238 C237 1.397 . S
C238 C239 1.334 . S
C239 H216 0.950 . S
C239 C238 1.334 . S
C239 C240 1.287 . S
C240 C239 1.287 . S
C240 C241 1.524 . S
C240 H259 0.913 . S
C241 H217 0.950 . S
C241 C240 1.524 . S
C241 C242 1.415 . S
C242 H218 0.950 . S
C242 C237 1.363 . S
C242 C241 1.415 . S
C243 H219 0.951 . S
C243 C244 1.366 . S
C243 C245 1.388 . S
C244 C243 1.366 . S
C244 C248 1.385 . S
C245 H220 0.951 . S
C245 C243 1.388 . S
C245 C246 1.366 . S
C246 C245 1.366 . S
C246 C247 1.414 . S
C246 C249 1.499 . S
C247 H221 0.950 . S
C247 C246 1.414 . S
C247 C248 1.374 . S
C248 H222 0.950 . S
C248 C244 1.385 . S
C248 C247 1.374 . S
C249 C246 1.499 . S
C249 C250 1.373 . S
C249 C251 1.389 . S
C250 H223 0.950 . S
C250 C236 1.377 . S
C250 C249 1.373 . S
C251 C235 1.377 . S
C251 C249 1.389 . S
C251 C252 1.524 . S
C252 C251 1.524 . S
C252 C253 1.397 . S
C252 C257 1.363 . S
C253 H224 0.950 . S
C253 C252 1.397 . S
C253 C254 1.334 . S
C254 H225 0.950 . S
C254 C253 1.334 . S
C254 C255 1.287 . S
C255 C254 1.287 . S
C255 C256 1.524 . S
C255 H258 0.999 . S
C256 H226 0.950 . S
C256 C255 1.524 . S
C256 C257 1.415 . S
C257 H227 0.950 . S
C257 C252 1.363 . S
C257 C256 1.415 . S
H258 C255 0.999 . S
H259 C240 0.913 . S
H260 C278 0.951 . S
H261 C280 0.951 . S
H262 C282 0.950 1_655 S
H263 C283 0.950 . S
H264 C285 0.950 . S
H265 C288 0.955 . S
H266 C289 0.950 1_545 S
H267 C291 0.950 . S
H268 C292 0.950 . S
H269 C293 0.951 . S
H270 C295 0.951 . S
H271 C297 0.950 1_455 S
H272 C298 0.950 . S
H273 C300 0.950 . S
H274 C303 0.955 . S
H275 C304 0.950 1_565 S
H276 C306 0.950 . S
H277 C307 0.950 . S
C278 H260 0.951 . S
C278 C279 1.366 1_554 S
C278 C280 1.388 . S
C279 C278 1.366 1_556 S
C279 C283 1.385 . S
C280 H261 0.951 . S
C280 C278 1.388 . S
C280 C281 1.366 1_554 S
C281 C280 1.366 1_556 S
C281 C282 1.414 . S
C281 C284 1.499 . S
C282 H262 0.950 1_455 S
C282 C281 1.414 . S
C282 C283 1.374 . S
C283 H263 0.950 . S
C283 C279 1.385 . S
C283 C282 1.374 . S
C284 C281 1.499 . S
C284 C285 1.373 1_455 S
C284 C286 1.389 1_546 S
C285 H264 0.950 . S
C285 C284 1.373 1_655 S
C285 C301 1.377 . S
C286 C284 1.389 1_564 S
C286 C287 1.524 . S
C286 C300 1.377 . S
C287 C286 1.524 . S
C287 C288 1.394 1_564 S
C287 C292 1.363 . S
C288 H265 0.955 . S
C288 C287 1.394 1_546 S
C288 C289 1.332 1_545 S
C289 H266 0.950 1_565 S
C289 C288 1.332 1_565 S
C289 C290 1.287 . S
C290 C289 1.287 . S
C290 C291 1.524 1_556 S
C290 H309 0.913 . S
C291 H267 0.950 . S
C291 C290 1.524 1_554 S
C291 C292 1.415 . S
C292 H268 0.950 . S
C292 C287 1.363 . S
C292 C291 1.415 . S
C293 H269 0.951 . S
C293 C294 1.366 1_556 S
C293 C295 1.388 . S
C294 C293 1.366 1_554 S
C294 C298 1.385 . S
C295 H270 0.951 . S
C295 C293 1.388 . S
C295 C296 1.366 1_556 S
C296 C295 1.366 1_554 S
C296 C297 1.414 . S
C296 C299 1.499 . S
C297 H271 0.950 1_655 S
C297 C296 1.414 . S
C297 C298 1.374 . S
C298 H272 0.950 . S
C298 C294 1.385 . S
C298 C297 1.374 . S
C299 C296 1.499 . S
C299 C300 1.373 1_655 S
C299 C301 1.389 1_564 S
C300 H273 0.950 . S
C300 C286 1.377 . S
C300 C299 1.373 1_455 S
C301 C285 1.377 . S
C301 C299 1.389 1_546 S
C301 C302 1.540 . S
C302 C301 1.540 . S
C302 C303 1.366 1_546 S
C302 C307 1.373 . S
C303 H274 0.955 . S
C303 C302 1.366 1_564 S
C303 C304 1.332 1_565 S
C304 H275 0.950 1_545 S
C304 C303 1.332 1_545 S
C304 C305 1.287 . S
C305 C304 1.287 . S
C305 C306 1.524 1_554 S
C305 H308 0.999 . S
C306 H276 0.950 . S
C306 C305 1.524 1_556 S
C306 C307 1.415 . S
C307 H277 0.950 . S
C307 C302 1.373 . S
C307 C306 1.415 . S
H308 C305 0.999 . S
H309 C290 0.913 . S
H310 C328 0.951 . S
H311 C330 0.951 . S
H312 C332 0.950 1_455 S
H313 C333 0.950 . S
H314 C335 0.950 . S
H315 C338 0.950 1_455 S
H316 C339 0.950 . S
H317 C341 0.950 . S
H318 C342 0.950 . S
H319 C343 0.951 . S
H320 C345 0.951 . S
H321 C347 0.950 1_655 S
H322 C348 0.950 . S
H323 C350 0.950 . S
H324 C353 0.950 1_655 S
H325 C354 0.950 . S
H326 C356 0.950 . S
H327 C357 0.950 . S
C328 H310 0.951 . S
C328 C329 1.366 . S
C328 C330 1.388 . S
C329 C328 1.366 . S
C329 C333 1.385 . S
C330 H311 0.951 . S
C330 C328 1.388 . S
C330 C331 1.366 . S
C331 C330 1.366 . S
C331 C332 1.414 . S
C331 C334 1.499 . S
C332 H312 0.950 1_655 S
C332 C331 1.414 . S
C332 C333 1.374 . S
C333 H313 0.950 . S
C333 C329 1.385 . S
C333 C332 1.374 . S
C334 C331 1.499 . S
C334 C335 1.373 . S
C334 C336 1.379 1_545 S
C335 H314 0.950 . S
C335 C334 1.373 . S
C335 C351 1.387 1_655 S
C336 C334 1.379 1_565 S
C336 C337 1.525 . S
C336 C350 1.387 1_655 S
C337 C336 1.525 . S
C337 C338 1.397 1_565 S
C337 C342 1.363 . S
C338 H315 0.950 1_655 S
C338 C337 1.397 1_545 S
C338 C339 1.334 . S
C339 H316 0.950 . S
C339 C338 1.334 . S
C339 C340 1.287 1_545 S
C340 C339 1.287 1_565 S
C340 C341 1.524 . S
C340 H359 0.913 . S
C341 H317 0.950 . S
C341 C340 1.524 . S
C341 C342 1.415 . S
C342 H318 0.950 . S
C342 C337 1.363 . S
C342 C341 1.415 . S
C343 H319 0.951 . S
C343 C344 1.366 . S
C343 C345 1.388 . S
C344 C343 1.366 . S
C344 C348 1.385 . S
C345 H320 0.951 . S
C345 C343 1.388 . S
C345 C346 1.366 . S
C346 C345 1.366 . S
C346 C347 1.414 . S
C346 C349 1.499 . S
C347 H321 0.950 1_455 S
C347 C346 1.414 . S
C347 C348 1.374 . S
C348 H322 0.950 . S
C348 C344 1.385 . S
C348 C347 1.374 . S
C349 C346 1.499 . S
C349 C350 1.373 . S
C349 C351 1.379 1_565 S
C350 H323 0.950 . S
C350 C336 1.387 1_455 S
C350 C349 1.373 . S
C351 C335 1.387 1_455 S
C351 C349 1.379 1_545 S
C351 C352 1.525 . S
C352 C351 1.525 . S
C352 C353 1.397 1_545 S
C352 C357 1.363 . S
C353 H324 0.950 1_455 S
C353 C352 1.397 1_565 S
C353 C354 1.334 . S
C354 H325 0.950 . S
C354 C353 1.334 . S
C354 C355 1.287 1_565 S
C355 C354 1.287 1_545 S
C355 C356 1.524 . S
C355 H358 0.999 . S
C356 H326 0.950 . S
C356 C355 1.524 . S
C356 C357 1.415 . S
C357 H327 0.950 . S
C357 C352 1.363 . S
C357 C356 1.415 . S
H358 C355 0.999 . S
H359 C340 0.913 . S
H360 C378 0.951 . S
H361 C380 0.951 . S
H362 C382 0.950 . S
H363 C383 0.950 . S
H364 C385 0.950 . S
H365 C388 0.950 . S
H366 C389 0.950 . S
H367 C391 0.950 . S
H368 C392 0.950 . S
H369 C393 0.951 . S
H370 C395 0.951 . S
H371 C397 0.950 . S
H372 C398 0.950 . S
H373 C400 0.950 . S
H374 C403 0.950 . S
H375 C404 0.950 . S
H376 C406 0.950 . S
H377 C407 0.950 . S
C378 H360 0.951 . S
C378 C379 1.366 . S
C378 C380 1.388 . S
C379 C378 1.366 . S
C379 C383 1.385 . S
C380 H361 0.951 . S
C380 C378 1.388 . S
C380 C381 1.366 . S
C381 C380 1.366 . S
C381 C382 1.414 . S
C381 C384 1.499 . S
C382 H362 0.950 . S
C382 C381 1.414 . S
C382 C383 1.374 . S
C383 H363 0.950 . S
C383 C379 1.385 . S
C383 C382 1.374 . S
C384 C381 1.499 . S
C384 C385 1.373 . S
C384 C386 1.389 . S
C385 H364 0.950 . S
C385 C384 1.373 . S
C385 C401 1.377 . S
C386 C384 1.389 . S
C386 C387 1.524 . S
C386 C400 1.377 . S
C387 C386 1.524 . S
C387 C388 1.397 . S
C387 C392 1.363 . S
C388 H365 0.950 . S
C388 C387 1.397 . S
C388 C389 1.334 . S
C389 H366 0.950 . S
C389 C388 1.334 . S
C389 C390 1.287 . S
C390 C389 1.287 . S
C390 C391 1.524 . S
C390 H409 0.913 . S
C391 H367 0.950 . S
C391 C390 1.524 . S
C391 C392 1.415 . S
C392 H368 0.950 . S
C392 C387 1.363 . S
C392 C391 1.415 . S
C393 H369 0.951 . S
C393 C394 1.366 . S
C393 C395 1.388 . S
C394 C393 1.366 . S
C394 C398 1.385 . S
C395 H370 0.951 . S
C395 C393 1.388 . S
C395 C396 1.366 . S
C396 C395 1.366 . S
C396 C397 1.414 . S
C396 C399 1.499 . S
C397 H371 0.950 . S
C397 C396 1.414 . S
C397 C398 1.374 . S
C398 H372 0.950 . S
C398 C394 1.385 . S
C398 C397 1.374 . S
C399 C396 1.499 . S
C399 C400 1.373 . S
C399 C401 1.389 . S
C400 H373 0.950 . S
C400 C386 1.377 . S
C400 C399 1.373 . S
C401 C385 1.377 . S
C401 C399 1.389 . S
C401 C402 1.524 . S
C402 C401 1.524 . S
C402 C403 1.397 . S
C402 C407 1.363 . S
C403 H374 0.950 . S
C403 C402 1.397 . S
C403 C404 1.334 . S
C404 H375 0.950 . S
C404 C403 1.334 . S
C404 C405 1.287 . S
C405 C404 1.287 . S
C405 C406 1.524 . S
C405 H408 0.999 . S
C406 H376 0.950 . S
C406 C405 1.524 . S
C406 C407 1.415 . S
C407 H377 0.950 . S
C407 C402 1.363 . S
C407 C406 1.415 . S
H408 C405 0.999 . S
H409 C390 0.913 . S
H410 C428 0.951 . S
H411 C430 0.951 . S
H412 C432 0.950 . S
H413 C433 0.950 . S
H414 C435 0.950 . S
H415 C438 0.950 . S
H416 C439 0.950 . S
H417 C441 0.950 . S
H418 C442 0.950 . S
H419 C443 0.951 . S
H420 C445 0.951 . S
H421 C447 0.950 . S
H422 C448 0.950 . S
H423 C450 0.950 . S
H424 C453 0.950 . S
H425 C454 0.950 . S
H426 C456 0.950 . S
H427 C457 0.950 . S
C428 H410 0.951 . S
C428 C429 1.366 . S
C428 C430 1.388 . S
C429 C428 1.366 . S
C429 C433 1.385 . S
C430 H411 0.951 . S
C430 C428 1.388 . S
C430 C431 1.366 . S
C431 C430 1.366 . S
C431 C432 1.414 . S
C431 C434 1.499 . S
C432 H412 0.950 . S
C432 C431 1.414 . S
C432 C433 1.374 . S
C433 H413 0.950 . S
C433 C429 1.385 . S
C433 C432 1.374 . S
C434 C431 1.499 . S
C434 C435 1.373 . S
C434 C436 1.389 . S
C435 H414 0.950 . S
C435 C434 1.373 . S
C435 C451 1.377 . S
C436 C434 1.389 . S
C436 C437 1.524 . S
C436 C450 1.377 . S
C437 C436 1.524 . S
C437 C438 1.397 . S
C437 C442 1.363 . S
C438 H415 0.950 . S
C438 C437 1.397 . S
C438 C439 1.334 . S
C439 H416 0.950 . S
C439 C438 1.334 . S
C439 C440 1.287 . S
C440 C439 1.287 . S
C440 C441 1.524 . S
C440 H459 0.913 . S
C441 H417 0.950 . S
C441 C440 1.524 . S
C441 C442 1.415 . S
C442 H418 0.950 . S
C442 C437 1.363 . S
C442 C441 1.415 . S
C443 H419 0.951 . S
C443 C444 1.366 . S
C443 C445 1.388 . S
C444 C443 1.366 . S
C444 C448 1.385 . S
C445 H420 0.951 . S
C445 C443 1.388 . S
C445 C446 1.366 . S
C446 C445 1.366 . S
C446 C447 1.414 . S
C446 C449 1.499 . S
C447 H421 0.950 . S
C447 C446 1.414 . S
C447 C448 1.374 . S
C448 H422 0.950 . S
C448 C444 1.385 . S
C448 C447 1.374 . S
C449 C446 1.499 . S
C449 C450 1.373 . S
C449 C451 1.389 . S
C450 H423 0.950 . S
C450 C436 1.377 . S
C450 C449 1.373 . S
C451 C435 1.377 . S
C451 C449 1.389 . S
C451 C452 1.524 . S
C452 C451 1.524 . S
C452 C453 1.397 . S
C452 C457 1.363 . S
C453 H424 0.950 . S
C453 C452 1.397 . S
C453 C454 1.334 . S
C454 H425 0.950 . S
C454 C453 1.334 . S
C454 C455 1.287 . S
C455 C454 1.287 . S
C455 C456 1.524 . S
C455 H458 0.999 . S
C456 H426 0.950 . S
C456 C455 1.524 . S
C456 C457 1.415 . S
C457 H427 0.950 . S
C457 C452 1.363 . S
C457 C456 1.415 . S
H458 C455 0.999 . S
H459 C440 0.913 . S
H460 C478 0.951 . S
H461 C480 0.951 . S
H462 C482 0.950 . S
H463 C483 0.950 . S
H464 C485 0.950 . S
H465 C488 0.950 . S
H466 C489 0.950 . S
H467 C491 0.950 . S
H468 C492 0.950 . S
H469 C493 0.951 . S
H470 C495 0.951 . S
H471 C497 0.950 . S
H472 C498 0.950 . S
H473 C500 0.950 . S
H474 C503 0.950 . S
H475 C504 0.950 . S
H476 C506 0.950 . S
H477 C507 0.950 . S
C478 H460 0.951 . S
C478 C479 1.366 . S
C478 C480 1.388 . S
C479 C478 1.366 . S
C479 C483 1.385 . S
C480 H461 0.951 . S
C480 C478 1.388 . S
C480 C481 1.366 . S
C481 C480 1.366 . S
C481 C482 1.414 . S
C481 C484 1.499 . S
C482 H462 0.950 . S
C482 C481 1.414 . S
C482 C483 1.374 . S
C483 H463 0.950 . S
C483 C479 1.385 . S
C483 C482 1.374 . S
C484 C481 1.499 . S
C484 C485 1.373 . S
C484 C486 1.389 . S
C485 H464 0.950 . S
C485 C484 1.373 . S
C485 C501 1.377 . S
C486 C484 1.389 . S
C486 C487 1.524 . S
C486 C500 1.377 . S
C487 C486 1.524 . S
C487 C488 1.397 . S
C487 C492 1.363 . S
C488 H465 0.950 . S
C488 C487 1.397 . S
C488 C489 1.334 . S
C489 H466 0.950 . S
C489 C488 1.334 . S
C489 C490 1.287 . S
C490 C489 1.287 . S
C490 C491 1.524 . S
C490 H509 0.913 . S
C491 H467 0.950 . S
C491 C490 1.524 . S
C491 C492 1.415 . S
C492 H468 0.950 . S
C492 C487 1.363 . S
C492 C491 1.415 . S
C493 H469 0.951 . S
C493 C494 1.366 . S
C493 C495 1.388 . S
C494 C493 1.366 . S
C494 C498 1.385 . S
C495 H470 0.951 . S
C495 C493 1.388 . S
C495 C496 1.366 . S
C496 C495 1.366 . S
C496 C497 1.414 . S
C496 C499 1.499 . S
C497 H471 0.950 . S
C497 C496 1.414 . S
C497 C498 1.374 . S
C498 H472 0.950 . S
C498 C494 1.385 . S
C498 C497 1.374 . S
C499 C496 1.499 . S
C499 C500 1.373 . S
C499 C501 1.389 . S
C500 H473 0.950 . S
C500 C486 1.377 . S
C500 C499 1.373 . S
C501 C485 1.377 . S
C501 C499 1.389 . S
C501 C502 1.524 . S
C502 C501 1.524 . S
C502 C503 1.397 . S
C502 C507 1.363 . S
C503 H474 0.950 . S
C503 C502 1.397 . S
C503 C504 1.334 . S
C504 H475 0.950 . S
C504 C503 1.334 . S
C504 C505 1.287 . S
C505 C504 1.287 . S
C505 C506 1.524 . S
C505 H508 0.999 . S
C506 H476 0.950 . S
C506 C505 1.524 . S
C506 C507 1.415 . S
C507 H477 0.950 . S
C507 C502 1.363 . S
C507 C506 1.415 . S
H508 C505 0.999 . S
H509 C490 0.913 . S
H510 C528 0.951 . S
H511 C530 0.951 . S
H512 C532 0.950 . S
H513 C533 0.950 . S
H514 C535 0.950 . S
H515 C538 0.950 . S
H516 C539 0.950 . S
H517 C541 0.950 . S
H518 C542 0.950 . S
H519 C543 0.951 . S
H520 C545 0.951 . S
H521 C547 0.950 . S
H522 C548 0.950 . S
H523 C550 0.950 . S
H524 C553 0.950 . S
H525 C554 0.950 . S
H526 C556 0.950 . S
H527 C557 0.950 . S
C528 H510 0.951 . S
C528 C529 1.366 . S
C528 C530 1.388 . S
C529 C528 1.366 . S
C529 C533 1.385 . S
C530 H511 0.951 . S
C530 C528 1.388 . S
C530 C531 1.366 . S
C531 C530 1.366 . S
C531 C532 1.414 . S
C531 C534 1.499 . S
C532 H512 0.950 . S
C532 C531 1.414 . S
C532 C533 1.374 . S
C533 H513 0.950 . S
C533 C529 1.385 . S
C533 C532 1.374 . S
C534 C531 1.499 . S
C534 C535 1.373 . S
C534 C536 1.389 . S
C535 H514 0.950 . S
C535 C534 1.373 . S
C535 C551 1.377 . S
C536 C534 1.389 . S
C536 C537 1.524 . S
C536 C550 1.377 . S
C537 C536 1.524 . S
C537 C538 1.397 . S
C537 C542 1.363 . S
C538 H515 0.950 . S
C538 C537 1.397 . S
C538 C539 1.334 . S
C539 H516 0.950 . S
C539 C538 1.334 . S
C539 C540 1.287 . S
C540 C539 1.287 . S
C540 C541 1.524 . S
C540 H559 0.913 . S
C541 H517 0.950 . S
C541 C540 1.524 . S
C541 C542 1.415 . S
C542 H518 0.950 . S
C542 C537 1.363 . S
C542 C541 1.415 . S
C543 H519 0.951 . S
C543 C544 1.366 . S
C543 C545 1.388 . S
C544 C543 1.366 . S
C544 C548 1.385 . S
C545 H520 0.951 . S
C545 C543 1.388 . S
C545 C546 1.366 . S
C546 C545 1.366 . S
C546 C547 1.414 . S
C546 C549 1.499 . S
C547 H521 0.950 . S
C547 C546 1.414 . S
C547 C548 1.374 . S
C548 H522 0.950 . S
C548 C544 1.385 . S
C548 C547 1.374 . S
C549 C546 1.499 . S
C549 C550 1.373 . S
C549 C551 1.389 . S
C550 H523 0.950 . S
C550 C536 1.377 . S
C550 C549 1.373 . S
C551 C535 1.377 . S
C551 C549 1.389 . S
C551 C552 1.524 . S
C552 C551 1.524 . S
C552 C553 1.397 . S
C552 C557 1.363 . S
C553 H524 0.950 . S
C553 C552 1.397 . S
C553 C554 1.334 . S
C554 H525 0.950 . S
C554 C553 1.334 . S
C554 C555 1.287 . S
C555 C554 1.287 . S
C555 C556 1.524 . S
C555 H558 0.999 . S
C556 H526 0.950 . S
C556 C555 1.524 . S
C556 C557 1.415 . S
C557 H527 0.950 . S
C557 C552 1.363 . S
C557 C556 1.415 . S
H558 C555 0.999 . S
H559 C540 0.913 . S
H560 C578 0.951 . S
H561 C580 0.951 . S
H562 C582 0.950 . S
H563 C583 0.950 . S
H564 C585 0.950 . S
H565 C588 0.950 . S
H566 C589 0.950 . S
H567 C591 0.950 . S
H568 C592 0.950 . S
H569 C593 0.951 . S
H570 C595 0.951 . S
H571 C597 0.950 . S
H572 C598 0.950 . S
H573 C600 0.950 . S
H574 C603 0.950 . S
H575 C604 0.950 . S
H576 C606 0.950 . S
H577 C607 0.950 . S
C578 H560 0.951 . S
C578 C579 1.366 . S
C578 C580 1.388 . S
C579 C578 1.366 . S
C579 C583 1.385 . S
C580 H561 0.951 . S
C580 C578 1.388 . S
C580 C581 1.366 . S
C581 C580 1.366 . S
C581 C582 1.414 . S
C581 C584 1.499 . S
C582 H562 0.950 . S
C582 C581 1.414 . S
C582 C583 1.374 . S
C583 H563 0.950 . S
C583 C579 1.385 . S
C583 C582 1.374 . S
C584 C581 1.499 . S
C584 C585 1.373 1_655 S
C584 C586 1.389 . S
C585 H564 0.950 . S
C585 C584 1.373 1_455 S
C585 C601 1.377 . S
C586 C584 1.389 . S
C586 C587 1.524 . S
C586 C600 1.377 . S
C587 C586 1.524 . S
C587 C588 1.397 . S
C587 C592 1.363 . S
C588 H565 0.950 . S
C588 C587 1.397 . S
C588 C589 1.334 . S
C589 H566 0.950 . S
C589 C588 1.334 . S
C589 C590 1.287 . S
C590 C589 1.287 . S
C590 C591 1.524 . S
C590 H609 0.913 . S
C591 H567 0.950 . S
C591 C590 1.524 . S
C591 C592 1.415 . S
C592 H568 0.950 . S
C592 C587 1.363 . S
C592 C591 1.415 . S
C593 H569 0.951 . S
C593 C594 1.366 . S
C593 C595 1.388 . S
C594 C593 1.366 . S
C594 C598 1.385 . S
C595 H570 0.951 . S
C595 C593 1.388 . S
C595 C596 1.366 . S
C596 C595 1.366 . S
C596 C597 1.414 . S
C596 C599 1.499 . S
C597 H571 0.950 . S
C597 C596 1.414 . S
C597 C598 1.374 . S
C598 H572 0.950 . S
C598 C594 1.385 . S
C598 C597 1.374 . S
C599 C596 1.499 . S
C599 C600 1.373 1_455 S
C599 C601 1.389 . S
C600 H573 0.950 . S
C600 C586 1.377 . S
C600 C599 1.373 1_655 S
C601 C585 1.377 . S
C601 C599 1.389 . S
C601 C602 1.524 . S
C602 C601 1.524 . S
C602 C603 1.397 . S
C602 C607 1.363 . S
C603 H574 0.950 . S
C603 C602 1.397 . S
C603 C604 1.334 . S
C604 H575 0.950 . S
C604 C603 1.334 . S
C604 C605 1.287 . S
C605 C604 1.287 . S
C605 C606 1.524 . S
C605 H608 0.999 . S
C606 H576 0.950 . S
C606 C605 1.524 . S
C606 C607 1.415 . S
C607 H577 0.950 . S
C607 C602 1.363 . S
C607 C606 1.415 . S
H608 C605 0.999 . S
H609 C590 0.913 . S
H610 C628 0.951 . S
H611 C630 0.951 . S
H612 C632 0.950 . S
H613 C633 0.950 . S
H614 C635 0.950 . S
H615 C638 0.950 1_455 S
H616 C639 0.950 1_455 S
H617 C641 0.950 . S
H618 C642 0.950 . S
H619 C643 0.951 . S
H620 C645 0.951 . S
H621 C647 0.950 . S
H622 C648 0.950 . S
H623 C650 0.950 . S
H624 C653 0.950 1_655 S
H625 C654 0.950 1_655 S
H626 C656 0.950 . S
H627 C657 0.950 . S
C628 H610 0.951 . S
C628 C629 1.366 . S
C628 C630 1.388 . S
C629 C628 1.366 . S
C629 C633 1.385 1_655 S
C630 H611 0.951 . S
C630 C628 1.388 . S
C630 C631 1.366 . S
C631 C630 1.366 . S
C631 C632 1.414 1_655 S
C631 C634 1.499 . S
C632 H612 0.950 . S
C632 C631 1.414 1_455 S
C632 C633 1.374 . S
C633 H613 0.950 . S
C633 C629 1.385 1_455 S
C633 C632 1.374 . S
C634 C631 1.499 . S
C634 C635 1.373 1_655 S
C634 C636 1.389 . S
C635 H614 0.950 . S
C635 C634 1.373 1_455 S
C635 C651 1.377 . S
C636 C634 1.389 . S
C636 C637 1.524 . S
C636 C650 1.377 . S
C637 C636 1.524 . S
C637 C638 1.397 . S
C637 C642 1.363 . S
C638 H615 0.950 1_655 S
C638 C637 1.397 . S
C638 C639 1.334 . S
C639 H616 0.950 1_655 S
C639 C638 1.334 . S
C639 C640 1.287 . S
C640 C639 1.287 . S
C640 C641 1.524 . S
C640 H659 0.913 . S
C641 H617 0.950 . S
C641 C640 1.524 . S
C641 C642 1.415 . S
C642 H618 0.950 . S
C642 C637 1.363 . S
C642 C641 1.415 . S
C643 H619 0.951 . S
C643 C644 1.366 . S
C643 C645 1.388 . S
C644 C643 1.366 . S
C644 C648 1.385 1_455 S
C645 H620 0.951 . S
C645 C643 1.388 . S
C645 C646 1.366 . S
C646 C645 1.366 . S
C646 C647 1.414 1_455 S
C646 C649 1.499 . S
C647 H621 0.950 . S
C647 C646 1.414 1_655 S
C647 C648 1.374 . S
C648 H622 0.950 . S
C648 C644 1.385 1_655 S
C648 C647 1.374 . S
C649 C646 1.499 . S
C649 C650 1.373 1_455 S
C649 C651 1.389 . S
C650 H623 0.950 . S
C650 C636 1.377 . S
C650 C649 1.373 1_655 S
C651 C635 1.377 . S
C651 C649 1.389 . S
C651 C652 1.524 . S
C652 C651 1.524 . S
C652 C653 1.397 . S
C652 C657 1.363 . S
C653 H624 0.950 1_455 S
C653 C652 1.397 . S
C653 C654 1.334 . S
C654 H625 0.950 1_455 S
C654 C653 1.334 . S
C654 C655 1.287 . S
C655 C654 1.287 . S
C655 C656 1.524 . S
C655 H658 0.999 . S
C656 H626 0.950 . S
C656 C655 1.524 . S
C656 C657 1.415 . S
C657 H627 0.950 . S
C657 C652 1.363 . S
C657 C656 1.415 . S
H658 C655 0.999 . S
H659 C640 0.913 . S
H660 C678 0.951 . S
H661 C680 0.951 . S
H662 C682 0.950 1_455 S
H663 C683 0.950 . S
H664 C685 0.950 . S
H665 C688 0.950 . S
H666 C689 0.950 . S
H667 C691 0.950 . S
H668 C692 0.950 . S
H669 C693 0.951 . S
H670 C695 0.951 . S
H671 C697 0.950 1_655 S
H672 C698 0.950 . S
H673 C700 0.950 . S
H674 C703 0.950 . S
H675 C704 0.950 . S
H676 C706 0.950 . S
H677 C707 0.950 . S
C678 H660 0.951 . S
C678 C679 1.366 . S
C678 C680 1.388 . S
C679 C678 1.366 . S
C679 C683 1.385 . S
C680 H661 0.951 . S
C680 C678 1.388 . S
C680 C681 1.366 . S
C681 C680 1.366 . S
C681 C682 1.414 . S
C681 C684 1.499 . S
C682 H662 0.950 1_655 S
C682 C681 1.414 . S
C682 C683 1.374 . S
C683 H663 0.950 . S
C683 C679 1.385 . S
C683 C682 1.374 . S
C684 C681 1.499 . S
C684 C685 1.373 1_655 S
C684 C686 1.389 . S
C685 H664 0.950 . S
C685 C684 1.373 1_455 S
C685 C701 1.377 . S
C686 C684 1.389 . S
C686 C687 1.524 . S
C686 C700 1.377 . S
C687 C686 1.524 . S
C687 C688 1.397 . S
C687 C692 1.363 . S
C688 H665 0.950 . S
C688 C687 1.397 . S
C688 C689 1.334 . S
C689 H666 0.950 . S
C689 C688 1.334 . S
C689 C690 1.287 . S
C690 C689 1.287 . S
C690 C691 1.524 . S
C690 H709 0.913 . S
C691 H667 0.950 . S
C691 C690 1.524 . S
C691 C692 1.415 . S
C692 H668 0.950 . S
C692 C687 1.363 . S
C692 C691 1.415 . S
C693 H669 0.951 . S
C693 C694 1.366 . S
C693 C695 1.388 . S
C694 C693 1.366 . S
C694 C698 1.385 . S
C695 H670 0.951 . S
C695 C693 1.388 . S
C695 C696 1.366 . S
C696 C695 1.366 . S
C696 C697 1.414 . S
C696 C699 1.499 . S
C697 H671 0.950 1_455 S
C697 C696 1.414 . S
C697 C698 1.374 . S
C698 H672 0.950 . S
C698 C694 1.385 . S
C698 C697 1.374 . S
C699 C696 1.499 . S
C699 C700 1.373 1_455 S
C699 C701 1.389 . S
C700 H673 0.950 . S
C700 C686 1.377 . S
C700 C699 1.373 1_655 S
C701 C685 1.377 . S
C701 C699 1.389 . S
C701 C702 1.524 . S
C702 C701 1.524 . S
C702 C703 1.397 . S
C702 C707 1.363 . S
C703 H674 0.950 . S
C703 C702 1.397 . S
C703 C704 1.334 . S
C704 H675 0.950 . S
C704 C703 1.334 . S
C704 C705 1.287 . S
C705 C704 1.287 . S
C705 C706 1.524 . S
C705 H708 0.999 . S
C706 H676 0.950 . S
C706 C705 1.524 . S
C706 C707 1.415 . S
C707 H677 0.950 . S
C707 C702 1.363 . S
C707 C706 1.415 . S
H708 C705 0.999 . S
H709 C690 0.913 . S
H710 C728 0.951 . S
H711 C730 0.951 . S
H712 C732 0.950 . S
H713 C733 0.950 . S
H714 C735 0.950 . S
H715 C738 0.950 . S
H716 C739 0.950 . S
H717 C741 0.950 . S
H718 C742 0.950 . S
H719 C743 0.951 . S
H720 C745 0.951 . S
H721 C747 0.950 . S
H722 C748 0.950 . S
H723 C750 0.950 . S
H724 C753 0.950 . S
H725 C754 0.950 . S
H726 C756 0.950 . S
H727 C757 0.950 . S
C728 H710 0.951 . S
C728 C729 1.366 . S
C728 C730 1.388 . S
C729 C728 1.366 . S
C729 C733 1.385 1_455 S
C730 H711 0.951 . S
C730 C728 1.388 . S
C730 C731 1.366 . S
C731 C730 1.366 . S
C731 C732 1.414 1_455 S
C731 C734 1.499 . S
C732 H712 0.950 . S
C732 C731 1.414 1_655 S
C732 C733 1.374 . S
C733 H713 0.950 . S
C733 C729 1.385 1_655 S
C733 C732 1.374 . S
C734 C731 1.499 . S
C734 C735 1.373 1_455 S
C734 C736 1.389 . S
C735 H714 0.950 . S
C735 C734 1.373 1_655 S
C735 C751 1.377 . S
C736 C734 1.389 . S
C736 C737 1.524 . S
C736 C750 1.377 . S
C737 C736 1.524 . S
C737 C738 1.397 . S
C737 C742 1.363 . S
C738 H715 0.950 . S
C738 C737 1.397 . S
C738 C739 1.334 . S
C739 H716 0.950 . S
C739 C738 1.334 . S
C739 C740 1.287 . S
C740 C739 1.287 . S
C740 C741 1.524 . S
C740 H759 0.913 . S
C741 H717 0.950 . S
C741 C740 1.524 . S
C741 C742 1.415 . S
C742 H718 0.950 . S
C742 C737 1.363 . S
C742 C741 1.415 . S
C743 H719 0.951 . S
C743 C744 1.366 . S
C743 C745 1.388 . S
C744 C743 1.366 . S
C744 C748 1.385 1_655 S
C745 H720 0.951 . S
C745 C743 1.388 . S
C745 C746 1.366 . S
C746 C745 1.366 . S
C746 C747 1.414 1_655 S
C746 C749 1.499 . S
C747 H721 0.950 . S
C747 C746 1.414 1_455 S
C747 C748 1.374 . S
C748 H722 0.950 . S
C748 C744 1.385 1_455 S
C748 C747 1.374 . S
C749 C746 1.499 . S
C749 C750 1.373 1_655 S
C749 C751 1.389 . S
C750 H723 0.950 . S
C750 C736 1.377 . S
C750 C749 1.373 1_455 S
C751 C735 1.377 . S
C751 C749 1.389 . S
C751 C752 1.524 . S
C752 C751 1.524 . S
C752 C753 1.397 . S
C752 C757 1.363 . S
C753 H724 0.950 . S
C753 C752 1.397 . S
C753 C754 1.334 . S
C754 H725 0.950 . S
C754 C753 1.334 . S
C754 C755 1.287 . S
C755 C754 1.287 . S
C755 C756 1.524 . S
C755 H758 0.999 . S
C756 H726 0.950 . S
C756 C755 1.524 . S
C756 C757 1.415 . S
C757 H727 0.950 . S
C757 C752 1.363 . S
C757 C756 1.415 . S
H758 C755 0.999 . S
H759 C740 0.913 . S
C179 C58 1.536 . S
C194 C9 1.536 . S
C229 C98 1.536 . S
C244 C129 1.536 . S
C279 C18 1.536 . S
C294 C49 1.536 . S
C329 C138 1.536 . S
C344 C89 1.536 . S
C379 C130 1.548 . S
C394 C10 1.548 . S
C429 C46 0.875 . S
C444 C86 0.875 . S
C479 C59 1.548 . S
C494 C99 1.548 . S
C529 C135 0.875 . S
C544 C15 0.875 . S
C579 C50 1.548 . S
C594 C90 1.548 . S
C629 C126 0.875 . S
C644 C6 0.875 . S
C679 C139 1.548 . S
C694 C19 1.548 . S
C729 C95 0.875 . S
C744 C55 0.875 . S
