# Generated by pormake.
# Topology qtz-e, (6)-cn, num edge types: 1
# Building blocks:
#     Node 0, Type 0, BuildingBlock: MIFKUJ_clean_sbu_0, # of connection points: 6
#     Node 1, Type 0, BuildingBlock: MIFKUJ_clean_sbu_0, # of connection points: 6
#     Node 2, Type 0, BuildingBlock: MIFKUJ_clean_sbu_0, # of connection points: 6
#     Node 3, Type 0, BuildingBlock: MIFKUJ_clean_sbu_0, # of connection points: 6
#     Node 4, Type 0, BuildingBlock: MIFKUJ_clean_sbu_0, # of connection points: 6
#     Node 5, Type 0, BuildingBlock: MIFKUJ_clean_sbu_0, # of connection points: 6
#     Edge 6, Type (0, 0), BuildingBlock: TEMPAE_clean_linker_10, # of connection points: 2
#     Edge 7, Type (0, 0), BuildingBlock: TEMPAE_clean_linker_10, # of connection points: 2
#     Edge 8, Type (0, 0), BuildingBlock: TEMPAE_clean_linker_10, # of connection points: 2
#     Edge 9, Type (0, 0), BuildingBlock: TEMPAE_clean_linker_10, # of connection points: 2
#     Edge 10, Type (0, 0), BuildingBlock: TEMPAE_clean_linker_10, # of connection points: 2
#     Edge 11, Type (0, 0), BuildingBlock: TEMPAE_clean_linker_10, # of connection points: 2
#     Edge 12, Type (0, 0), BuildingBlock: TEMPAE_clean_linker_10, # of connection points: 2
#     Edge 13, Type (0, 0), BuildingBlock: TEMPAE_clean_linker_10, # of connection points: 2
#     Edge 14, Type (0, 0), BuildingBlock: TEMPAE_clean_linker_10, # of connection points: 2
#     Edge 15, Type (0, 0), BuildingBlock: TEMPAE_clean_linker_10, # of connection points: 2
#     Edge 16, Type (0, 0), BuildingBlock: TEMPAE_clean_linker_10, # of connection points: 2
#     Edge 17, Type (0, 0), BuildingBlock: TEMPAE_clean_linker_10, # of connection points: 2
#     Edge 18, Type (0, 0), BuildingBlock: TEMPAE_clean_linker_10, # of connection points: 2
#     Edge 19, Type (0, 0), BuildingBlock: TEMPAE_clean_linker_10, # of connection points: 2
#     Edge 20, Type (0, 0), BuildingBlock: TEMPAE_clean_linker_10, # of connection points: 2
#     Edge 21, Type (0, 0), BuildingBlock: TEMPAE_clean_linker_10, # of connection points: 2
#     Edge 22, Type (0, 0), BuildingBlock: TEMPAE_clean_linker_10, # of connection points: 2
#     Edge 23, Type (0, 0), BuildingBlock: TEMPAE_clean_linker_10, # of connection points: 2
# Relax obj value: 0.216
# Max RMSD: 0.226
# Mean RMSD: 0.226
data_MOF--net-qtz-e--node1-MIFKUJ_clean_sbu_0--edge1-TEMPAE_clean_linker_10
_symmetry_space_group_name_H-M    P1
_symmetry_Int_Tables_number       1
_symmetry_cell_setting            triclinic
loop_
_symmetry_equiv_pos_as_xyz
'x, y, z'
_cell_length_a     24.54512
_cell_length_b     24.563755
_cell_length_c     43.047429
_cell_angle_alpha  90.188684
_cell_angle_beta   89.94428
_cell_angle_gamma 120.06477
loop_
_atom_site_label
_atom_site_type_symbol
_atom_site_fract_x
_atom_site_fract_y
_atom_site_fract_z
_atom_type_partial_charge
Zn0 Zn 0.17899 0.33051 0.9692 0.0
Zn1 Zn 0.11836 0.34777 0.05947 0.0
C2 C 0.29227 0.4437 0.94774 0.0
O3 O 0.26632 0.47357 0.96083 0.0
C4 C 0.0529 0.22024 0.08452 0.0
O5 O 0.10367 0.21845 0.07655 0.0
O6 O 0.13876 0.24979 0.94523 0.0
O7 O 0.18003 0.31418 0.01516 0.0
O8 O 0.20099 0.34985 0.06256 0.0
C9 C 0.16264 0.2147 0.94814 0.0
O10 O 0.20641 0.22928 0.96931 0.0
O11 O 0.26492 0.38416 0.9499 0.0
C12 C 0.07964 0.41508 0.10162 0.0
O13 O 0.02452 0.36362 0.09911 0.0
O14 O 0.12592 0.41957 0.08613 0.0
O15 O 0.11357 0.3643 0.01384 0.0
O16 O 0.12649 0.37267 0.96366 0.0
O17 O 0.0476 0.26705 0.07631 0.0
C18 C 0.22072 0.34579 0.03584 0.0
C19 C 0.10342 0.38249 0.98809 0.0
Zn20 Zn 0.8443 0.19848 0.33101 0.0
Zn21 Zn 0.82017 0.23329 0.4023 0.0
C22 C 0.77623 0.2309 0.28625 0.0
O23 O 0.73868 0.16968 0.28469 0.0
C24 C 0.88669 0.17447 0.42591 0.0
O25 O 0.93221 0.23325 0.42819 0.0
O26 O 0.86428 0.15035 0.29942 0.0
O27 O 0.92566 0.26241 0.35245 0.0
O28 O 0.89714 0.30793 0.38862 0.0
C29 C 0.91857 0.15656 0.29632 0.0
O30 O 0.9632 0.1921 0.31609 0.0
O31 O 0.8226 0.25321 0.30492 0.0
C32 C 0.73287 0.19821 0.4497 0.0
O33 O 0.71366 0.14656 0.43329 0.0
O34 O 0.78366 0.2474 0.44174 0.0
O35 O 0.75243 0.21107 0.37166 0.0
O36 O 0.76436 0.13504 0.35298 0.0
O37 O 0.83601 0.1626 0.41221 0.0
C38 C 0.93736 0.30945 0.36957 0.0
C39 C 0.72851 0.15609 0.36077 0.0
Zn40 Zn 0.65092 0.83409 0.63969 0.0
Zn41 Zn 0.65306 0.77024 0.73049 0.0
C42 C 0.52823 0.81361 0.61963 0.0
O43 O 0.50681 0.75974 0.63416 0.0
C44 C 0.77822 0.86059 0.75262 0.0
O45 O 0.76036 0.90211 0.74775 0.0
O46 O 0.73025 0.88168 0.61525 0.0
O47 O 0.6663 0.8542 0.68523 0.0
O48 O 0.62842 0.83668 0.73213 0.0
C49 C 0.75676 0.9412 0.6153 0.0
O50 O 0.73459 0.96831 0.63372 0.0
O51 O 0.58696 0.85291 0.6203 0.0
C52 C 0.61705 0.68524 0.78405 0.0
O53 O 0.67809 0.71 0.78753 0.0
O54 O 0.59627 0.70196 0.76102 0.0
O55 O 0.63352 0.73988 0.68596 0.0
O56 O 0.62111 0.74108 0.63575 0.0
O57 O 0.74321 0.8045 0.74305 0.0
C58 C 0.63081 0.85877 0.70522 0.0
C59 C 0.61732 0.71055 0.66029 0.0
Zn60 Zn 0.78591 0.64815 0.99787 0.0
Zn61 Zn 0.76686 0.5677 0.06375 0.0
C62 C 0.75989 0.57241 0.94196 0.0
O63 O 0.81834 0.61448 0.93519 0.0
C64 C 0.81452 0.68943 0.09418 0.0
O65 O 0.75564 0.67606 0.0931 0.0
O66 O 0.82298 0.72544 0.97132 0.0
O67 O 0.71756 0.64722 0.02483 0.0
O68 O 0.68628 0.56187 0.05366 0.0
C69 C 0.7838 0.73437 0.95625 0.0
O70 O 0.72343 0.69641 0.96112 0.0
O71 O 0.7371 0.57619 0.96787 0.0
C72 C 0.74168 0.51088 0.12554 0.0
O73 O 0.73107 0.5566 0.13311 0.0
O74 O 0.75484 0.50565 0.0975 0.0
O75 O 0.79969 0.54258 0.02796 0.0
O76 O 0.85925 0.6407 0.01387 0.0
O77 O 0.82987 0.65256 0.08107 0.0
C78 C 0.67509 0.60093 0.04001 0.0
C79 C 0.84751 0.58425 0.01379 0.0
Zn80 Zn 0.14262 0.81753 0.31057 0.0
Zn81 Zn 0.18411 0.84087 0.40218 0.0
C82 C 0.13682 0.75311 0.25487 0.0
O83 O 0.14475 0.80667 0.24424 0.0
C84 C 0.11362 0.90216 0.41723 0.0
O85 O 0.065 0.84497 0.4151 0.0
O86 O 0.09495 0.85214 0.2884 0.0
O87 O 0.11249 0.79617 0.35413 0.0
O88 O 0.10385 0.75669 0.39973 0.0
C89 C 0.03542 0.81831 0.28857 0.0
O90 O 0.00939 0.76883 0.30679 0.0
O91 O 0.13557 0.74527 0.28417 0.0
C92 C 0.26878 0.81817 0.44101 0.0
O93 O 0.27135 0.78767 0.41642 0.0
O94 O 0.23449 0.84337 0.44011 0.0
O95 O 0.23161 0.84569 0.36208 0.0
O96 O 0.23296 0.88516 0.31629 0.0
O97 O 0.16687 0.91202 0.40771 0.0
C98 C 0.09011 0.74774 0.3711 0.0
C99 C 0.25917 0.88999 0.34253 0.0
Zn100 Zn 0.34354 0.12604 0.66438 0.0
Zn101 Zn 0.41463 0.17455 0.73272 0.0
C102 C 0.43019 0.18202 0.61297 0.0
O103 O 0.39253 0.20381 0.60606 0.0
C104 C 0.28933 0.10644 0.75921 0.0
O105 O 0.30075 0.05964 0.75991 0.0
O106 O 0.27111 0.09485 0.63461 0.0
O107 O 0.33418 0.05198 0.68954 0.0
O108 O 0.41387 0.09607 0.72292 0.0
C109 C 0.26035 0.04743 0.61826 0.0
O110 O 0.29361 0.01994 0.62348 0.0
O111 O 0.41948 0.1491 0.63734 0.0
C112 C 0.47916 0.27481 0.77442 0.0
O113 O 0.44878 0.2945 0.75685 0.0
O114 O 0.47238 0.22071 0.76902 0.0
O115 O 0.44991 0.23424 0.69779 0.0
O116 O 0.35475 0.20691 0.6825 0.0
O117 O 0.32904 0.15779 0.74635 0.0
C118 C 0.37441 0.04902 0.70706 0.0
C119 C 0.41269 0.24776 0.6842 0.0
C120 C 0.13095 0.65003 0.24257 0.0
C121 C 0.12847 0.7031 0.23268 0.0
C122 C 0.1242 0.60348 0.22124 0.0
C123 C 0.11346 0.60955 0.18941 0.0
C124 C 0.11057 0.66283 0.17937 0.0
C125 C 0.11819 0.70888 0.20107 0.0
C126 C 0.12856 0.54777 0.23268 0.0
C127 C 0.09878 0.67102 0.14573 0.0
C128 C 0.14834 0.51744 0.12907 0.0
C129 C 0.08818 0.46591 0.1233 0.0
C130 C 0.15726 0.56441 0.15056 0.0
C131 C 0.10478 0.56 0.16659 0.0
C132 C 0.04387 0.50859 0.16055 0.0
C133 C 0.03631 0.46214 0.13906 0.0
C134 C 0.22292 0.6187 0.15621 0.0
C135 C 0.98671 0.50251 0.17695 0.0
H136 H 0.13881 0.64517 0.26691 0.0
H137 H 0.11561 0.7494 0.1932 0.0
H138 H 0.0822 0.5043 0.22998 0.0
H139 H 0.16296 0.54162 0.21858 0.0
H140 H 0.14301 0.55281 0.25743 0.0
H141 H 0.10546 0.71844 0.14109 0.0
H142 H 0.13076 0.66363 0.13031 0.0
H143 H 0.04983 0.63528 0.13939 0.0
H144 H 0.18871 0.52079 0.11704 0.0
H145 H 0.9896 0.42268 0.1347 0.0
H146 H 0.23539 0.62056 0.18112 0.0
H147 H 0.22491 0.66374 0.15066 0.0
H148 H 0.25882 0.61507 0.14203 0.0
H149 H -0.00756 0.50095 0.20243 0.0
H150 H 0.94264 0.45965 0.16975 0.0
H151 H 0.98191 0.54423 0.17206 0.0
C152 C 0.4896 0.22316 0.56319 0.0
C153 C 0.48115 0.19115 0.59131 0.0
C154 C 0.53412 0.22779 0.54127 0.0
C155 C 0.57144 0.20005 0.54765 0.0
C156 C 0.56454 0.16935 0.5764 0.0
C157 C 0.51946 0.16522 0.59786 0.0
C158 C 0.53957 0.26038 0.51078 0.0
C159 C 0.60316 0.13885 0.58402 0.0
C160 C 0.63093 0.14904 0.47835 0.0
C161 C 0.69314 0.19882 0.47552 0.0
C162 C 0.5912 0.14872 0.50184 0.0
C163 C 0.61424 0.19921 0.52332 0.0
C164 C 0.67729 0.24919 0.52094 0.0
C165 C 0.71595 0.24863 0.49691 0.0
C166 C 0.52398 0.09504 0.50311 0.0
C167 C 0.70369 0.30338 0.54367 0.0
H168 H 0.46032 0.2434 0.55791 0.0
H169 H 0.51334 0.14041 0.61952 0.0
H170 H 0.58919 0.29704 0.50648 0.0
H171 H 0.52499 0.22582 0.49147 0.0
H172 H 0.50985 0.2827 0.51013 0.0
H173 H 0.59574 0.12119 0.60827 0.0
H174 H 0.59031 0.0987 0.56802 0.0
H175 H 0.65397 0.17283 0.5806 0.0
H176 H 0.61261 0.11056 0.46177 0.0
H177 H 0.764 0.28709 0.49491 0.0
H178 H 0.49162 0.11264 0.49706 0.0
H179 H 0.51186 0.07559 0.52694 0.0
H180 H 0.5153 0.05636 0.48678 0.0
H181 H 0.67676 0.3285 0.54219 0.0
H182 H 0.75418 0.33755 0.53929 0.0
H183 H 0.69859 0.28547 0.56775 0.0
C184 C 0.37662 0.5431 0.92357 0.0
C185 C 0.34813 0.47779 0.92733 0.0
C186 C 0.42504 0.57509 0.90182 0.0
C187 C 0.44472 0.54084 0.88289 0.0
C188 C 0.41774 0.47524 0.88736 0.0
C189 C 0.37024 0.44461 0.90971 0.0
C190 C 0.45358 0.64529 0.89832 0.0
C191 C 0.43731 0.43703 0.86767 0.0
C192 C 0.508 0.61307 0.80372 0.0
C193 C 0.57326 0.64328 0.80835 0.0
C194 C 0.46587 0.57793 0.82749 0.0
C195 C 0.48941 0.57295 0.85676 0.0
C196 C 0.55527 0.60133 0.86125 0.0
C197 C 0.59638 0.63609 0.83698 0.0
C198 C 0.396 0.54774 0.82157 0.0
C199 C 0.58256 0.59711 0.89199 0.0
H200 H 0.36035 0.56928 0.93726 0.0
H201 H 0.34881 0.39415 0.91252 0.0
H202 H 0.50564 0.66888 0.89985 0.0
H203 H 0.44172 0.65595 0.8751 0.0
H204 H 0.4365 0.66566 0.91633 0.0
H205 H 0.41446 0.38712 0.87513 0.0
H206 H 0.42507 0.43847 0.843 0.0
H207 H 0.489 0.45772 0.86888 0.0
H208 H 0.48969 0.61785 0.78162 0.0
H209 H 0.64675 0.65903 0.84081 0.0
H210 H 0.37575 0.56953 0.83689 0.0
H211 H 0.3721 0.4969 0.82724 0.0
H212 H 0.38525 0.55294 0.79706 0.0
H213 H 0.63318 0.61155 0.89001 0.0
H214 H 0.55655 0.54858 0.90135 0.0
H215 H 0.57809 0.62853 0.90908 0.0
C216 C 0.81481 0.33643 0.26181 0.0
C217 C 0.76765 0.27316 0.2648 0.0
C218 C 0.80956 0.37576 0.23989 0.0
C219 C 0.75512 0.35166 0.22091 0.0
C220 C 0.70638 0.28848 0.22461 0.0
C221 C 0.71343 0.24987 0.24632 0.0
C222 C 0.86264 0.44299 0.23741 0.0
C223 C 0.64703 0.26144 0.20536 0.0
C224 C 0.72207 0.46935 0.18003 0.0
C225 C 0.74288 0.4686 0.14974 0.0
C226 C 0.72512 0.43107 0.20337 0.0
C227 C 0.75012 0.39156 0.19635 0.0
C228 C 0.77169 0.391 0.1659 0.0
C229 C 0.76724 0.429 0.14291 0.0
C230 C 0.70239 0.43348 0.23566 0.0
C231 C 0.80043 0.35096 0.15771 0.0
H232 H 0.85676 0.3551 0.27612 0.0
H233 H 0.67651 0.20123 0.24867 0.0
H234 H 0.86652 0.46288 0.2139 0.0
H235 H 0.85431 0.47237 0.25424 0.0
H236 H 0.90839 0.44674 0.24336 0.0
H237 H 0.61194 0.21272 0.21237 0.0
H238 H 0.62523 0.29142 0.20756 0.0
H239 H 0.6586 0.26097 0.18048 0.0
H240 H 0.70346 0.49999 0.18556 0.0
H241 H 0.78406 0.42852 0.11968 0.0
H242 H 0.74257 0.45215 0.25212 0.0
H243 H 0.66737 0.3854 0.24347 0.0
H244 H 0.68069 0.46372 0.23692 0.0
H245 H 0.83849 0.35979 0.17438 0.0
H246 H 0.82021 0.36017 0.13383 0.0
H247 H 0.76417 0.30048 0.15949 0.0
C248 C 0.4229 0.77782 0.59531 0.0
C249 C 0.48632 0.82431 0.59879 0.0
C250 C 0.38533 0.78234 0.57202 0.0
C251 C 0.41183 0.8344 0.55159 0.0
C252 C 0.47431 0.88386 0.55655 0.0
C253 C 0.51081 0.87828 0.58011 0.0
C254 C 0.31832 0.72953 0.56813 0.0
C255 C 0.50388 0.94094 0.5358 0.0
C256 C 0.3473 0.79987 0.46922 0.0
C257 C 0.30641 0.82419 0.46919 0.0
C258 C 0.38255 0.8041 0.49571 0.0
C259 C 0.37686 0.83326 0.52301 0.0
C260 C 0.33672 0.85923 0.52299 0.0
C261 C 0.30184 0.8542 0.49611 0.0
C262 C 0.42551 0.77662 0.49455 0.0
C263 C 0.32921 0.89088 0.55149 0.0
H264 H 0.40315 0.73648 0.60997 0.0
H265 H 0.55946 0.91502 0.58292 0.0
H266 H 0.28601 0.74868 0.56629 0.0
H267 H 0.31409 0.7036 0.54627 0.0
H268 H 0.30275 0.69574 0.58774 0.0
H269 H 0.54865 0.97937 0.54557 0.0
H270 H 0.51388 0.92761 0.51273 0.0
H271 H 0.47106 0.95899 0.53209 0.0
H272 H 0.35167 0.77713 0.44851 0.0
H273 H 0.27056 0.87339 0.49632 0.0
H274 H 0.41011 0.73842 0.51192 0.0
H275 H 0.47429 0.81324 0.50062 0.0
H276 H 0.42605 0.75719 0.47128 0.0
H277 H 0.29695 0.85438 0.56805 0.0
H278 H 0.30907 0.92124 0.54565 0.0
H279 H 0.37486 0.91999 0.56352 0.0
C280 C 0.74479 0.51938 0.89029 0.0
C281 C 0.71951 0.52429 0.91869 0.0
C282 C 0.70644 0.47648 0.86734 0.0
C283 C 0.64102 0.43785 0.87273 0.0
C284 C 0.61538 0.44177 0.90164 0.0
C285 C 0.65498 0.4847 0.92425 0.0
C286 C 0.73588 0.47306 0.83712 0.0
C287 C 0.54642 0.4011 0.90943 0.0
C288 C 0.53564 0.379 0.80136 0.0
C289 C 0.52076 0.31593 0.79965 0.0
C290 C 0.57455 0.4191 0.82497 0.0
C291 C 0.59946 0.39567 0.84756 0.0
C292 C 0.58455 0.33203 0.84603 0.0
C293 C 0.54553 0.29293 0.82204 0.0
C294 C 0.58984 0.48685 0.82496 0.0
C295 C 0.60977 0.30532 0.86983 0.0
H296 H 0.79462 0.54954 0.8858 0.0
H297 H 0.63485 0.4878 0.94617 0.0
H298 H 0.72245 0.42361 0.83189 0.0
H299 H 0.71806 0.48979 0.81787 0.0
H300 H 0.78806 0.5021 0.83759 0.0
H301 H 0.52865 0.42973 0.92094 0.0
H302 H 0.51642 0.37719 0.88897 0.0
H303 H 0.54095 0.36458 0.92627 0.0
H304 H 0.5173 0.39755 0.78402 0.0
H305 H 0.53409 0.24423 0.82095 0.0
H306 H 0.63373 0.51549 0.81155 0.0
H307 H 0.59741 0.50672 0.84876 0.0
H308 H 0.55187 0.49188 0.8137 0.0
H309 H 0.66191 0.33398 0.87076 0.0
H310 H 0.59606 0.2557 0.86473 0.0
H311 H 0.5917 0.30749 0.89318 0.0
C312 C 0.32494 0.37957 0.01189 0.0
C313 C 0.28409 0.39487 0.02704 0.0
C314 C 0.38871 0.42494 0.00845 0.0
C315 C 0.41118 0.48623 0.02068 0.0
C316 C 0.36834 0.50339 0.03273 0.0
C317 C 0.30515 0.45713 0.0361 0.0
C318 C 0.43291 0.40568 0.9944 0.0
C319 C 0.39006 0.56887 0.04482 0.0
C320 C 0.56707 0.54747 0.06104 0.0
C321 C 0.60919 0.58573 0.03813 0.0
C322 C 0.5022 0.5174 0.05611 0.0
C323 C 0.47904 0.52625 0.02757 0.0
C324 C 0.52115 0.56932 0.00548 0.0
C325 C 0.58614 0.59869 0.01104 0.0
C326 C 0.45879 0.47266 0.0806 0.0
C327 C 0.49824 0.58129 0.97518 0.0
H328 H 0.30792 0.33149 1.00443 0.0
H329 H 0.27266 0.46906 0.04706 0.0
H330 H 0.46518 0.4416 0.97763 0.0
H331 H 0.4622 0.40212 0.01304 0.0
H332 H 0.40716 0.35957 0.98227 0.0
H333 H 0.35037 0.57825 0.04684 0.0
H334 H 0.41123 0.57423 0.06819 0.0
H335 H 0.4266 0.60482 0.02945 0.0
H336 H 0.585 0.53803 0.08214 0.0
H337 H 0.61863 0.62808 0.99321 0.0
H338 H 0.43406 0.42397 0.07122 0.0
H339 H 0.42246 0.48488 0.08706 0.0
H340 H 0.48444 0.47335 0.10198 0.0
H341 H 0.48887 0.54298 0.95854 0.0
H342 H 0.53383 0.62653 0.96464 0.0
H343 H 0.45384 0.58208 0.97849 0.0
C344 C 0.12203 0.67774 0.34605 0.0
C345 C 0.07405 0.6866 0.35814 0.0
C346 C 0.11211 0.61705 0.34106 0.0
C347 C 0.05298 0.56471 0.3486 0.0
C348 C 0.00298 0.57388 0.3585 0.0
C349 C 0.01449 0.63504 0.36355 0.0
C350 C 0.16642 0.60934 0.33038 0.0
C351 C 0.9387 0.51911 0.36615 0.0
C352 C -0.00965 0.39362 0.33114 0.0
C353 C 0.98915 0.37168 0.36128 0.0
C354 C 0.01729 0.4582 0.32553 0.0
C355 C 0.04478 0.50088 0.35055 0.0
C356 C 0.05216 0.47904 0.37979 0.0
C357 C 0.02314 0.41424 0.38497 0.0
C358 C 0.00808 0.47945 0.29413 0.0
C359 C 0.08323 0.52339 0.40678 0.0
H360 H 0.16855 0.71811 0.34251 0.0
H361 H 0.97796 0.64252 0.37327 0.0
H362 H 0.18958 0.60257 0.35095 0.0
H363 H 0.15015 0.56751 0.31515 0.0
H364 H 0.20215 0.65161 0.31773 0.0
H365 H 0.90352 0.53421 0.37026 0.0
H366 H 0.92152 0.48407 0.347 0.0
H367 H 0.94177 0.49529 0.38739 0.0
H368 H 0.96333 0.36042 0.31288 0.0
H369 H 0.02195 0.39685 0.40824 0.0
H370 H 0.04702 0.52724 0.28845 0.0
H371 H 0.96376 0.48115 0.29443 0.0
H372 H 0.00411 0.44616 0.27555 0.0
H373 H 0.1271 0.5659 0.39923 0.0
H374 H 0.09472 0.5006 0.42593 0.0
H375 H 0.05094 0.53893 0.41598 0.0
C376 C 0.41578 0.98452 0.72929 0.0
C377 C 0.38369 -0.00557 0.70516 0.0
C378 C 0.44434 0.94833 0.72455 0.0
C379 C 0.43976 0.92071 0.69501 0.0
C380 C 0.40077 0.92398 0.67179 0.0
C381 C 0.37315 0.96126 0.67712 0.0
C382 C 0.48462 0.94513 0.75025 0.0
C383 C 0.39231 0.89268 0.64052 0.0
C384 C 0.59287 0.92553 0.68167 0.0
C385 C 0.57961 0.86905 0.69564 0.0
C386 C 0.54511 0.94034 0.67776 0.0
C387 C 0.48317 0.89704 0.68787 0.0
C388 C 0.46848 0.8367 0.69823 0.0
C389 C 0.51734 0.82382 0.70265 0.0
C390 C 0.56235 0.00478 0.66588 0.0
C391 C 0.40239 0.78794 0.70736 0.0
H392 H 0.42288 0.00928 0.75116 0.0
H393 H 0.34792 0.96846 0.65844 0.0
H394 H 0.47104 0.89559 0.75497 0.0
H395 H 0.53476 0.97024 0.743 0.0
H396 H 0.48051 0.96664 0.77223 0.0
H397 H 0.34781 0.88353 0.62923 0.0
H398 H 0.4318 0.92396 0.62503 0.0
H399 H 0.39217 0.84762 0.64264 0.0
H400 H 0.64112 0.95978 0.67587 0.0
H401 H 0.50721 0.77921 0.71263 0.0
H402 H 0.56012 0.03349 0.68529 0.0
H403 H 0.52844 0.00115 0.64787 0.0
H404 H 0.6105 0.02988 0.65585 0.0
H405 H 0.39312 0.79712 0.73148 0.0
H406 H 0.3957 0.73975 0.70646 0.0
H407 H 0.36719 0.78991 0.69196 0.0
C408 C 0.5641 0.60822 0.63172 0.0
C409 C 0.58707 0.64155 0.65965 0.0
C410 C 0.53218 0.54235 0.63131 0.0
C411 C 0.52311 0.50956 0.65951 0.0
C412 C 0.54635 0.54296 0.68776 0.0
C413 C 0.57835 0.60862 0.68744 0.0
C414 C 0.50831 0.50786 0.60082 0.0
C415 C 0.53761 0.5094 0.71835 0.0
C416 C 0.39957 0.33948 0.67173 0.0
C417 C 0.43735 0.31178 0.67248 0.0
C418 C 0.42626 0.40385 0.66556 0.0
C419 C 0.49173 0.44028 0.65973 0.0
C420 C 0.52882 0.4112 0.65798 0.0
C421 C 0.50113 0.34719 0.66455 0.0
C422 C 0.38546 0.43362 0.66754 0.0
C423 C 0.59862 0.44842 0.65139 0.0
H424 H 0.57065 0.63355 0.61019 0.0
H425 H 0.59606 0.63413 0.70908 0.0
H426 H 0.5302 0.47862 0.59615 0.0
H427 H 0.45669 0.47552 0.60207 0.0
H428 H 0.51862 0.54046 0.581 0.0
H429 H 0.55667 0.54251 0.73833 0.0
H430 H 0.48687 0.47624 0.72253 0.0
H431 H 0.56158 0.4813 0.71756 0.0
H432 H 0.35014 0.31182 0.67776 0.0
H433 H 0.53002 0.32523 0.66455 0.0
H434 H 0.39463 0.46562 0.64763 0.0
H435 H 0.39709 0.46232 0.68907 0.0
H436 H 0.33453 0.39787 0.66798 0.0
H437 H 0.60838 0.47991 0.63119 0.0
H438 H 0.61864 0.41746 0.64666 0.0
H439 H 0.62345 0.47853 0.67175 0.0
C440 C 0.0685 0.44789 0.9593 0.0
C441 C 0.07147 0.41962 0.98703 0.0
C442 C 0.03814 0.48334 0.95832 0.0
C443 C 0.01007 0.4901 0.98565 0.0
C444 C 0.01428 0.46288 0.01383 0.0
C445 C 0.0448 0.42782 0.01412 0.0
C446 C 0.03462 0.51205 0.92797 0.0
C447 C 0.98486 0.46912 0.04353 0.0
C448 C 0.95572 0.60658 1.00077 0.0
C449 C 0.8905 0.56633 0.99958 0.0
C450 C -0.00348 0.5839 0.9935 0.0
C451 C 0.97083 0.52005 0.9847 0.0
C452 C 0.90519 0.48151 0.98031 0.0
C453 C 0.86574 0.50515 0.98798 0.0
C454 C 0.06641 0.62645 0.99805 0.0
C455 C 0.876 0.4134 0.97057 0.0
H456 H 0.08957 0.44208 0.93833 0.0
H457 H 0.04692 0.406 0.03554 0.0
H458 H 0.98535 0.48748 0.9194 0.0
H459 H 0.04881 0.56224 0.93133 0.0
H460 H 0.06504 0.50872 0.90982 0.0
H461 H -0.00512 0.44747 0.06371 0.0
H462 H 0.00259 0.51946 0.04887 0.0
H463 H 0.93305 0.44609 0.04067 0.0
H464 H 0.97468 0.65411 0.00955 0.0
H465 H 0.81511 0.47459 0.98645 0.0
H466 H 0.09333 0.61926 0.97935 0.0
H467 H 0.08064 0.61505 0.02045 0.0
H468 H 0.07962 0.67683 0.99856 0.0
H469 H 0.90217 0.40827 0.95084 0.0
H470 H 0.82587 0.39306 0.96372 0.0
H471 H 0.8784 0.38554 0.99023 0.0
C472 C 0.35664 0.93807 0.37465 0.0
C473 C 0.32713 0.9342 0.3462 0.0
C474 C 0.42205 0.97428 0.37773 0.0
C475 C 0.45854 0.00799 0.35176 0.0
C476 C 0.42898 0.00637 0.3233 0.0
C477 C 0.36344 0.96943 0.32085 0.0
C478 C 0.45211 0.97539 0.40854 0.0
C479 C 0.46669 0.04266 0.2953 0.0
C480 C 0.62225 0.14408 0.36586 0.0
C481 C 0.65954 0.11741 0.35835 0.0
C482 C 0.55669 0.10884 0.36392 0.0
C483 C 0.52778 0.04534 0.35436 0.0
C484 C 0.56492 0.01783 0.34694 0.0
C485 C 0.63065 0.05439 0.34893 0.0
C486 C 0.51844 0.13968 0.37192 0.0
C487 C 0.53517 0.94987 0.33693 0.0
H488 H 0.32867 0.91191 0.39443 0.0
H489 H 0.34091 0.96695 0.29883 0.0
H490 H 0.4849 0.95703 0.40553 0.0
H491 H 0.48024 0.02443 0.41719 0.0
H492 H 0.41676 0.94678 0.42649 0.0
H493 H 0.43627 0.03765 0.27514 0.0
H494 H 0.49587 0.09333 0.30115 0.0
H495 H 0.49931 0.02588 0.28831 0.0
H496 H 0.64426 0.19282 0.3732 0.0
H497 H 0.65931 0.03359 0.34322 0.0
H498 H 0.48545 0.11395 0.39116 0.0
H499 H 0.48963 0.13759 0.35162 0.0
H500 H 0.54843 0.18967 0.37898 0.0
H501 H 0.50228 0.91892 0.35514 0.0
H502 H 0.5707 0.93538 0.33247 0.0
H503 H 0.50721 0.9421 0.31546 0.0
C504 C 0.19862 0.05019 0.79576 0.0
C505 C 0.24152 0.10572 0.78041 0.0
C506 C 0.16532 0.0521 0.8219 0.0
C507 C 0.17669 0.11102 0.83321 0.0
C508 C 0.21446 0.16618 0.81572 0.0
C509 C 0.24577 0.16267 0.78927 0.0
C510 C 0.12278 0.9917 0.83884 0.0
C511 C 0.22773 0.23016 0.82679 0.0
C512 C 0.1065 0.15269 0.90071 0.0
C513 C 0.15469 0.17066 0.92277 0.0
C514 C 0.10853 0.12534 0.87234 0.0
C515 C 0.16093 0.11797 0.86574 0.0
C516 C 0.2057 0.12945 0.88933 0.0
C517 C 0.20151 0.15493 0.91775 0.0
C518 C 0.05751 0.10927 0.84857 0.0
C519 C 0.26193 0.12132 0.88347 0.0
H520 H 0.19391 0.00567 0.78859 0.0
H521 H 0.27801 0.20569 0.77725 0.0
H522 H 0.15104 0.98198 0.85566 0.0
H523 H 0.0852 -0.00552 0.85184 0.0
H524 H 0.10064 0.95141 0.82237 0.0
H525 H 0.25314 0.26728 0.8091 0.0
H526 H 0.18329 0.22916 0.83273 0.0
H527 H 0.25702 0.24337 0.84815 0.0
H528 H 0.0692 0.16328 0.90482 0.0
H529 H 0.23833 0.1677 0.93489 0.0
H530 H 0.04591 0.06515 0.83608 0.0
H531 H 0.07416 0.14745 0.83113 0.0
H532 H 0.01399 0.1038 0.85946 0.0
H533 H 0.24663 0.074 0.8737 0.0
H534 H 0.28946 0.12737 0.90496 0.0
H535 H 0.29346 0.15656 0.8662 0.0
C536 C 0.88759 0.08992 0.24832 0.0
C537 C 0.93461 0.13762 0.26667 0.0
C538 C 0.89934 0.08182 0.21719 0.0
C539 C 0.95845 0.12422 0.20398 0.0
C540 C 0.0077 0.16838 0.22328 0.0
C541 C -0.00463 0.1738 0.25456 0.0
C542 C 0.84697 0.03127 0.19796 0.0
C543 C 0.0716 0.21464 0.21023 0.0
C544 C 0.02269 0.13346 0.12323 0.0
C545 C 0.01299 0.18037 0.11033 0.0
C546 C -0.00165 0.10826 0.15266 0.0
C547 C 0.96565 0.13227 0.16975 0.0
C548 C 0.94988 0.17432 0.15533 0.0
C549 C 0.97274 0.19685 0.12555 0.0
C550 C 0.01223 0.06002 0.16633 0.0
C551 C 0.91486 0.20116 0.17255 0.0
H552 H 0.84079 0.06089 0.25783 0.0
H553 H 0.032 0.2104 0.26871 0.0
H554 H 0.821 0.05125 0.18596 0.0
H555 H 0.86573 0.01249 0.18 0.0
H556 H 0.81294 0.99182 0.21276 0.0
H557 H 0.10592 0.24284 0.2287 0.0
H558 H 0.09094 0.18967 0.19673 0.0
H559 H 0.06699 0.24738 0.19416 0.0
H560 H 0.05242 0.11916 0.11128 0.0
H561 H 0.96361 0.23188 0.11549 0.0
H562 H 0.97385 0.02725 0.18198 0.0
H563 H 0.05631 0.08417 0.18011 0.0
H564 H 0.01892 0.03234 0.14779 0.0
H565 H 0.87053 0.16287 0.18248 0.0
H566 H 0.90317 0.23039 0.15738 0.0
H567 H 0.94416 0.2309 0.19214 0.0
C568 C 0.82537 0.94898 0.57046 0.0
C569 C 0.80074 0.97729 0.59 0.0
C570 C 0.85516 0.97748 0.54243 0.0
C571 C 0.85881 0.03461 0.53359 0.0
C572 C 0.8393 0.06606 0.5546 0.0
C573 C 0.81112 0.03726 0.58272 0.0
C574 C 0.87824 0.94408 0.52137 0.0
C575 C 0.84275 0.12743 0.54622 0.0
C576 C 0.93858 0.14204 0.46593 0.0
C577 C 0.88607 0.127 0.44719 0.0
C578 C 0.93255 0.10693 0.4927 0.0
C579 C 0.87249 0.05678 0.50097 0.0
C580 C 0.82152 0.03654 0.47996 0.0
C581 C 0.82918 0.07157 0.45308 0.0
C582 C 0.98889 0.12779 0.51364 0.0
C583 C 0.75671 0.9827 0.48764 0.0
H584 H 0.8186 0.90308 0.57628 0.0
H585 H 0.79294 0.0598 0.59787 0.0
H586 H 0.84213 0.91737 0.50339 0.0
H587 H 0.92218 0.97808 0.50927 0.0
H588 H 0.88697 0.91031 0.53449 0.0
H589 H 0.83 0.14796 0.56602 0.0
H590 H 0.89088 0.16224 0.53839 0.0
H591 H 0.81001 0.11953 0.52671 0.0
H592 H 0.98326 0.18393 0.46109 0.0
H593 H 0.78867 0.05874 0.43836 0.0
H594 H 0.98732 0.08727 0.52581 0.0
H595 H 0.98914 0.16057 0.53151 0.0
H596 H 0.03358 0.1529 0.50034 0.0
H597 H 0.75938 0.94147 0.49599 0.0
H598 H 0.7245 0.968 0.46731 0.0
H599 H 0.73594 -0.00269 0.50656 0.0
C600 C 0.83246 0.8213 0.78682 0.0
C601 C 0.82241 0.87064 0.7783 0.0
C602 C 0.84805 0.81581 0.81746 0.0
C603 C 0.85524 0.86171 0.83959 0.0
C604 C 0.85834 0.91789 0.82947 0.0
C605 C 0.84121 0.92161 0.79877 0.0
C606 C 0.84657 0.756 0.82701 0.0
C607 C 0.87126 0.97023 0.85193 0.0
C608 C 0.75953 0.77968 0.91045 0.0
C609 C 0.8047 0.77825 0.92969 0.0
C610 C 0.77644 0.81087 0.88193 0.0
C611 C 0.84046 0.84229 0.87256 0.0
C612 C 0.88714 0.84629 0.89321 0.0
C613 C 0.86861 0.81358 0.92152 0.0
C614 C 0.72491 0.80633 0.86096 0.0
C615 C 0.9561 0.88154 0.88485 0.0
H616 H 0.82055 0.78292 0.77069 0.0
H617 H 0.83609 0.9613 0.79204 0.0
H618 H 0.88522 0.76628 0.8435 0.0
H619 H 0.80132 0.72468 0.83891 0.0
H620 H 0.85069 0.73027 0.80669 0.0
H621 H 0.88937 0.01583 0.83968 0.0
H622 H 0.82691 0.95947 0.86389 0.0
H623 H 0.90585 0.97507 0.86988 0.0
H624 H 0.71019 0.7534 0.91681 0.0
H625 H 0.90403 0.81355 0.93653 0.0
H626 H 0.72406 0.7823 0.83897 0.0
H627 H 0.73419 0.8541 0.85496 0.0
H628 H 0.67756 0.77997 0.87179 0.0
H629 H 0.96887 0.84868 0.8737 0.0
H630 H 0.98573 0.90099 0.90598 0.0
H631 H 0.96754 0.92058 0.86846 0.0
C632 C 0.93781 0.77397 0.25676 0.0
C633 C -0.00118 0.82357 0.26266 0.0
C634 C 0.90911 0.76829 0.22792 0.0
C635 C 0.94181 0.81409 0.20473 0.0
C636 C -0.0003 0.86852 0.21204 0.0
C637 C 0.02795 0.87239 0.24092 0.0
C638 C 0.84688 0.70965 0.22123 0.0
C639 C 0.03481 0.91989 0.18854 0.0
C640 C 0.91052 0.73284 0.12722 0.0
C641 C 0.85766 0.73568 0.11725 0.0
C642 C 0.94203 0.76299 0.1546 0.0
C643 C 0.92104 0.79808 0.17196 0.0
C644 C 0.87302 0.8078 0.1599 0.0
C645 C 0.84117 0.7757 0.13279 0.0
C646 C -0.00626 0.75206 0.16643 0.0
C647 C 0.85194 0.84791 0.17686 0.0
H648 H 0.91446 0.73661 0.27363 0.0
H649 H 0.07464 0.91168 0.24556 0.0
H650 H 0.81367 0.72191 0.21019 0.0
H651 H 0.8544 0.67918 0.20474 0.0
H652 H 0.82463 0.6821 0.24259 0.0
H653 H 0.06426 0.96601 0.20021 0.0
H654 H 0.0666 0.909 0.17492 0.0
H655 H 0.00229 0.92404 0.17211 0.0
H656 H 0.92427 0.70284 0.1151 0.0
H657 H 0.80118 0.77923 0.1248 0.0
H658 H 0.97775 0.72308 0.18782 0.0
H659 H 0.03609 0.79743 0.17253 0.0
H660 H 0.00733 0.72744 0.14908 0.0
H661 H 0.8204 0.8206 0.19628 0.0
H662 H 0.82575 0.86279 0.16128 0.0
H663 H 0.89278 0.89043 0.18692 0.0
C664 C 0.21002 0.97859 0.57242 0.0
C665 C 0.21847 0.02926 0.59086 0.0
C666 C 0.17921 0.96619 0.54377 0.0
C667 C 0.15579 0.0053 0.5333 0.0
C668 C 0.15972 0.05353 0.55287 0.0
C669 C 0.19149 0.06526 0.58144 0.0
C670 C 0.17541 0.91348 0.5239 0.0
C671 C 0.13394 0.09524 0.54317 0.0
C672 C 0.16933 0.00182 0.44746 0.0
C673 C 0.11334 0.94563 0.44106 0.0
C674 C 0.18071 0.02876 0.47716 0.0
C675 C 0.13458 -0.00099 0.50053 0.0
C676 C 0.07356 0.95056 0.49226 0.0
C677 C 0.06352 0.92401 0.46241 0.0
C678 C 0.24551 0.08276 0.48465 0.0
C679 C 0.02181 0.92075 0.51609 0.0
H680 H 0.22991 0.95001 0.57972 0.0
H681 H 0.19728 0.10424 0.59573 0.0
H682 H 0.12631 0.88177 0.51615 0.0
H683 H 0.20492 0.93337 0.50285 0.0
H684 H 0.19178 0.88483 0.53644 0.0
H685 H 0.1181 0.11111 0.56372 0.0
H686 H 0.17176 0.13778 0.53163 0.0
H687 H 0.09401 0.07126 0.52669 0.0
H688 H 0.20721 0.02044 0.43058 0.0
H689 H 0.01906 0.88202 0.45727 0.0
H690 H 0.27284 0.0645 0.4969 0.0
H691 H 0.24245 0.11716 0.50023 0.0
H692 H 0.27167 0.10747 0.46334 0.0
H693 H 0.02885 0.88711 0.53028 0.0
H694 H 0.97474 0.8946 0.50492 0.0
H695 H 0.02277 0.95685 0.53201 0.0
loop_
_geom_bond_atom_site_label_1
_geom_bond_atom_site_label_2
_geom_bond_distance
_geom_bond_site_symmetry_2
_ccdc_geom_bond_type
Zn0 O6 1.969 . S
Zn0 O7 1.965 1_556 S
Zn0 O11 2.024 . S
Zn0 O16 1.969 . S
Zn1 O8 1.969 . S
Zn1 O14 1.969 . S
Zn1 O15 1.965 . S
Zn1 O17 2.024 . S
C2 O3 1.229 . S
C2 O11 1.058 . S
O3 C2 1.229 . S
C4 O5 1.229 . S
C4 O17 1.058 . S
O5 C4 1.229 . S
O6 Zn0 1.969 . S
O6 C9 1.267 . S
O7 Zn0 1.965 1_554 S
O7 C18 1.260 . S
O8 Zn1 1.969 . S
O8 C18 1.258 . S
C9 O6 1.267 . S
C9 O10 1.228 . S
O10 C9 1.228 . S
O11 Zn0 2.024 . S
O11 C2 1.058 . S
C12 O13 1.228 . S
C12 O14 1.267 . S
O13 C12 1.228 . S
O14 Zn1 1.969 . S
O14 C12 1.267 . S
O15 Zn1 1.965 . S
O15 C19 1.260 . S
O16 Zn0 1.969 . S
O16 C19 1.258 1_556 S
O17 Zn1 2.024 . S
O17 C4 1.058 . S
C18 O7 1.260 . S
C18 O8 1.258 . S
C19 O15 1.260 . S
C19 O16 1.258 1_554 S
Zn20 O26 1.969 . S
Zn20 O27 1.965 . S
Zn20 O31 2.024 . S
Zn20 O36 1.969 . S
Zn21 O28 1.969 . S
Zn21 O34 1.969 . S
Zn21 O35 1.965 . S
Zn21 O37 2.024 . S
C22 O23 1.229 . S
C22 O31 1.058 . S
O23 C22 1.229 . S
C24 O25 1.229 . S
C24 O37 1.058 . S
O25 C24 1.229 . S
O26 Zn20 1.969 . S
O26 C29 1.267 . S
O27 Zn20 1.965 . S
O27 C38 1.260 . S
O28 Zn21 1.969 . S
O28 C38 1.258 . S
C29 O26 1.267 . S
C29 O30 1.228 . S
O30 C29 1.228 . S
O31 Zn20 2.024 . S
O31 C22 1.058 . S
C32 O33 1.228 . S
C32 O34 1.267 . S
O33 C32 1.228 . S
O34 Zn21 1.969 . S
O34 C32 1.267 . S
O35 Zn21 1.965 . S
O35 C39 1.260 . S
O36 Zn20 1.969 . S
O36 C39 1.258 . S
O37 Zn21 2.024 . S
O37 C24 1.058 . S
C38 O27 1.260 . S
C38 O28 1.258 . S
C39 O35 1.260 . S
C39 O36 1.258 . S
Zn40 O46 1.969 . S
Zn40 O47 1.965 . S
Zn40 O51 2.024 . S
Zn40 O56 1.969 . S
Zn41 O48 1.969 . S
Zn41 O54 1.969 . S
Zn41 O55 1.965 . S
Zn41 O57 2.024 . S
C42 O43 1.229 . S
C42 O51 1.058 . S
O43 C42 1.229 . S
C44 O45 1.229 . S
C44 O57 1.058 . S
O45 C44 1.229 . S
O46 Zn40 1.969 . S
O46 C49 1.267 . S
O47 Zn40 1.965 . S
O47 C58 1.260 . S
O48 Zn41 1.969 . S
O48 C58 1.258 . S
C49 O46 1.267 . S
C49 O50 1.228 . S
O50 C49 1.228 . S
O51 Zn40 2.024 . S
O51 C42 1.058 . S
C52 O53 1.228 . S
C52 O54 1.267 . S
O53 C52 1.228 . S
O54 Zn41 1.969 . S
O54 C52 1.267 . S
O55 Zn41 1.965 . S
O55 C59 1.260 . S
O56 Zn40 1.969 . S
O56 C59 1.258 . S
O57 Zn41 2.024 . S
O57 C44 1.058 . S
C58 O47 1.260 . S
C58 O48 1.258 . S
C59 O55 1.260 . S
C59 O56 1.258 . S
Zn60 O66 1.969 . S
Zn60 O67 1.965 1_556 S
Zn60 O71 2.024 . S
Zn60 O76 1.969 . S
Zn61 O68 1.969 . S
Zn61 O74 1.969 . S
Zn61 O75 1.965 . S
Zn61 O77 2.024 . S
C62 O63 1.229 . S
C62 O71 1.058 . S
O63 C62 1.229 . S
C64 O65 1.229 . S
C64 O77 1.058 . S
O65 C64 1.229 . S
O66 Zn60 1.969 . S
O66 C69 1.267 . S
O67 Zn60 1.965 1_554 S
O67 C78 1.260 . S
O68 Zn61 1.969 . S
O68 C78 1.258 . S
C69 O66 1.267 . S
C69 O70 1.228 . S
O70 C69 1.228 . S
O71 Zn60 2.024 . S
O71 C62 1.058 . S
C72 O73 1.228 . S
C72 O74 1.267 . S
O73 C72 1.228 . S
O74 Zn61 1.969 . S
O74 C72 1.267 . S
O75 Zn61 1.965 . S
O75 C79 1.260 . S
O76 Zn60 1.969 . S
O76 C79 1.258 1_556 S
O77 Zn61 2.024 . S
O77 C64 1.058 . S
C78 O67 1.260 . S
C78 O68 1.258 . S
C79 O75 1.260 . S
C79 O76 1.258 1_554 S
Zn80 O86 1.969 . S
Zn80 O87 1.965 . S
Zn80 O91 2.024 . S
Zn80 O96 1.969 . S
Zn81 O88 1.969 . S
Zn81 O94 1.969 . S
Zn81 O95 1.965 . S
Zn81 O97 2.024 . S
C82 O83 1.229 . S
C82 O91 1.058 . S
O83 C82 1.229 . S
C84 O85 1.229 . S
C84 O97 1.058 . S
O85 C84 1.229 . S
O86 Zn80 1.969 . S
O86 C89 1.267 . S
O87 Zn80 1.965 . S
O87 C98 1.260 . S
O88 Zn81 1.969 . S
O88 C98 1.258 . S
C89 O86 1.267 . S
C89 O90 1.228 . S
O90 C89 1.228 . S
O91 Zn80 2.024 . S
O91 C82 1.058 . S
C92 O93 1.228 . S
C92 O94 1.267 . S
O93 C92 1.228 . S
O94 Zn81 1.969 . S
O94 C92 1.267 . S
O95 Zn81 1.965 . S
O95 C99 1.260 . S
O96 Zn80 1.969 . S
O96 C99 1.258 . S
O97 Zn81 2.024 . S
O97 C84 1.058 . S
C98 O87 1.260 . S
C98 O88 1.258 . S
C99 O95 1.260 . S
C99 O96 1.258 . S
Zn100 O106 1.969 . S
Zn100 O107 1.965 . S
Zn100 O111 2.024 . S
Zn100 O116 1.969 . S
Zn101 O108 1.969 . S
Zn101 O114 1.969 . S
Zn101 O115 1.965 . S
Zn101 O117 2.024 . S
C102 O103 1.229 . S
C102 O111 1.058 . S
O103 C102 1.229 . S
C104 O105 1.229 . S
C104 O117 1.058 . S
O105 C104 1.229 . S
O106 Zn100 1.969 . S
O106 C109 1.267 . S
O107 Zn100 1.965 . S
O107 C118 1.260 . S
O108 Zn101 1.969 . S
O108 C118 1.258 . S
C109 O106 1.267 . S
C109 O110 1.228 . S
O110 C109 1.228 . S
O111 Zn100 2.024 . S
O111 C102 1.058 . S
C112 O113 1.228 . S
C112 O114 1.267 . S
O113 C112 1.228 . S
O114 Zn101 1.969 . S
O114 C112 1.267 . S
O115 Zn101 1.965 . S
O115 C119 1.260 . S
O116 Zn100 1.969 . S
O116 C119 1.258 . S
O117 Zn101 2.024 . S
O117 C104 1.058 . S
C118 O107 1.260 . S
C118 O108 1.258 . S
C119 O115 1.260 . S
C119 O116 1.258 . S
C120 C121 1.391 . S
C120 C122 1.394 . S
C120 H136 0.931 . S
C121 C120 1.391 . S
C121 C125 1.376 . S
C122 C120 1.394 . S
C122 C123 1.369 . S
C122 C126 1.531 . S
C123 C122 1.369 . S
C123 C124 1.410 . S
C123 C131 1.503 . S
C124 C123 1.410 . S
C124 C125 1.392 . S
C124 C127 1.511 . S
C125 C121 1.376 . S
C125 C124 1.392 . S
C125 H137 0.929 . S
C126 C122 1.531 . S
C126 H138 0.960 . S
C126 H139 0.962 . S
C126 H140 0.960 . S
C127 C124 1.511 . S
C127 H141 0.961 . S
C127 H142 0.961 . S
C127 H143 0.961 . S
C128 C129 1.370 . S
C128 C130 1.363 . S
C128 H144 0.931 . S
C129 C128 1.370 . S
C129 C133 1.408 . S
C130 C128 1.363 . S
C130 C131 1.370 . S
C130 C134 1.524 . S
C131 C123 1.503 . S
C131 C130 1.370 . S
C131 C132 1.403 . S
C132 C131 1.403 . S
C132 C133 1.404 . S
C132 C135 1.539 . S
C133 C129 1.408 . S
C133 C132 1.404 . S
C133 H145 0.930 . S
C134 C130 1.524 . S
C134 H146 0.956 . S
C134 H147 0.961 . S
C134 H148 0.961 . S
C135 C132 1.539 . S
C135 H149 0.958 . S
C135 H150 0.961 . S
C135 H151 0.960 . S
H136 C120 0.931 . S
H137 C125 0.929 . S
H138 C126 0.960 . S
H139 C126 0.962 . S
H140 C126 0.960 . S
H141 C127 0.961 . S
H142 C127 0.961 . S
H143 C127 0.961 . S
H144 C128 0.931 . S
H145 C133 0.930 . S
H146 C134 0.956 . S
H147 C134 0.961 . S
H148 C134 0.961 . S
H149 C135 0.958 . S
H150 C135 0.961 . S
H151 C135 0.960 . S
C152 C153 1.391 . S
C152 C154 1.394 . S
C152 H168 0.931 . S
C153 C152 1.391 . S
C153 C157 1.376 . S
C154 C152 1.394 . S
C154 C155 1.369 . S
C154 C158 1.531 . S
C155 C154 1.369 . S
C155 C156 1.410 . S
C155 C163 1.503 . S
C156 C155 1.410 . S
C156 C157 1.392 . S
C156 C159 1.511 . S
C157 C153 1.376 . S
C157 C156 1.392 . S
C157 H169 0.929 . S
C158 C154 1.531 . S
C158 H170 0.960 . S
C158 H171 0.962 . S
C158 H172 0.960 . S
C159 C156 1.511 . S
C159 H173 0.961 . S
C159 H174 0.961 . S
C159 H175 0.961 . S
C160 C161 1.370 . S
C160 C162 1.363 . S
C160 H176 0.931 . S
C161 C160 1.370 . S
C161 C165 1.408 . S
C162 C160 1.363 . S
C162 C163 1.370 . S
C162 C166 1.524 . S
C163 C155 1.503 . S
C163 C162 1.370 . S
C163 C164 1.403 . S
C164 C163 1.403 . S
C164 C165 1.404 . S
C164 C167 1.539 . S
C165 C161 1.408 . S
C165 C164 1.404 . S
C165 H177 0.930 . S
C166 C162 1.524 . S
C166 H178 0.956 . S
C166 H179 0.961 . S
C166 H180 0.961 . S
C167 C164 1.539 . S
C167 H181 0.958 . S
C167 H182 0.961 . S
C167 H183 0.960 . S
H168 C152 0.931 . S
H169 C157 0.929 . S
H170 C158 0.960 . S
H171 C158 0.962 . S
H172 C158 0.960 . S
H173 C159 0.961 . S
H174 C159 0.961 . S
H175 C159 0.961 . S
H176 C160 0.931 . S
H177 C165 0.930 . S
H178 C166 0.956 . S
H179 C166 0.961 . S
H180 C166 0.961 . S
H181 C167 0.958 . S
H182 C167 0.961 . S
H183 C167 0.960 . S
C184 C185 1.391 . S
C184 C186 1.394 . S
C184 H200 0.931 . S
C185 C184 1.391 . S
C185 C189 1.376 . S
C186 C184 1.394 . S
C186 C187 1.369 . S
C186 C190 1.531 . S
C187 C186 1.369 . S
C187 C188 1.410 . S
C187 C195 1.503 . S
C188 C187 1.410 . S
C188 C189 1.392 . S
C188 C191 1.511 . S
C189 C185 1.376 . S
C189 C188 1.392 . S
C189 H201 0.929 . S
C190 C186 1.531 . S
C190 H202 0.960 . S
C190 H203 0.962 . S
C190 H204 0.960 . S
C191 C188 1.511 . S
C191 H205 0.961 . S
C191 H206 0.961 . S
C191 H207 0.961 . S
C192 C193 1.370 . S
C192 C194 1.363 . S
C192 H208 0.931 . S
C193 C192 1.370 . S
C193 C197 1.408 . S
C194 C192 1.363 . S
C194 C195 1.370 . S
C194 C198 1.524 . S
C195 C187 1.503 . S
C195 C194 1.370 . S
C195 C196 1.403 . S
C196 C195 1.403 . S
C196 C197 1.404 . S
C196 C199 1.539 . S
C197 C193 1.408 . S
C197 C196 1.404 . S
C197 H209 0.930 . S
C198 C194 1.524 . S
C198 H210 0.956 . S
C198 H211 0.961 . S
C198 H212 0.961 . S
C199 C196 1.539 . S
C199 H213 0.958 . S
C199 H214 0.961 . S
C199 H215 0.960 . S
H200 C184 0.931 . S
H201 C189 0.929 . S
H202 C190 0.960 . S
H203 C190 0.962 . S
H204 C190 0.960 . S
H205 C191 0.961 . S
H206 C191 0.961 . S
H207 C191 0.961 . S
H208 C192 0.931 . S
H209 C197 0.930 . S
H210 C198 0.956 . S
H211 C198 0.961 . S
H212 C198 0.961 . S
H213 C199 0.958 . S
H214 C199 0.961 . S
H215 C199 0.960 . S
C216 C217 1.391 . S
C216 C218 1.394 . S
C216 H232 0.931 . S
C217 C216 1.391 . S
C217 C221 1.376 . S
C218 C216 1.394 . S
C218 C219 1.369 . S
C218 C222 1.531 . S
C219 C218 1.369 . S
C219 C220 1.410 . S
C219 C227 1.503 . S
C220 C219 1.410 . S
C220 C221 1.392 . S
C220 C223 1.511 . S
C221 C217 1.376 . S
C221 C220 1.392 . S
C221 H233 0.929 . S
C222 C218 1.531 . S
C222 H234 0.960 . S
C222 H235 0.962 . S
C222 H236 0.960 . S
C223 C220 1.511 . S
C223 H237 0.961 . S
C223 H238 0.961 . S
C223 H239 0.961 . S
C224 C225 1.370 . S
C224 C226 1.363 . S
C224 H240 0.931 . S
C225 C224 1.370 . S
C225 C229 1.408 . S
C226 C224 1.363 . S
C226 C227 1.370 . S
C226 C230 1.524 . S
C227 C219 1.503 . S
C227 C226 1.370 . S
C227 C228 1.403 . S
C228 C227 1.403 . S
C228 C229 1.404 . S
C228 C231 1.539 . S
C229 C225 1.408 . S
C229 C228 1.404 . S
C229 H241 0.930 . S
C230 C226 1.524 . S
C230 H242 0.956 . S
C230 H243 0.961 . S
C230 H244 0.961 . S
C231 C228 1.539 . S
C231 H245 0.958 . S
C231 H246 0.961 . S
C231 H247 0.960 . S
H232 C216 0.931 . S
H233 C221 0.929 . S
H234 C222 0.960 . S
H235 C222 0.962 . S
H236 C222 0.960 . S
H237 C223 0.961 . S
H238 C223 0.961 . S
H239 C223 0.961 . S
H240 C224 0.931 . S
H241 C229 0.930 . S
H242 C230 0.956 . S
H243 C230 0.961 . S
H244 C230 0.961 . S
H245 C231 0.958 . S
H246 C231 0.961 . S
H247 C231 0.960 . S
C248 C249 1.391 . S
C248 C250 1.394 . S
C248 H264 0.931 . S
C249 C248 1.391 . S
C249 C253 1.376 . S
C250 C248 1.394 . S
C250 C251 1.369 . S
C250 C254 1.531 . S
C251 C250 1.369 . S
C251 C252 1.410 . S
C251 C259 1.503 . S
C252 C251 1.410 . S
C252 C253 1.392 . S
C252 C255 1.511 . S
C253 C249 1.376 . S
C253 C252 1.392 . S
C253 H265 0.929 . S
C254 C250 1.531 . S
C254 H266 0.960 . S
C254 H267 0.962 . S
C254 H268 0.960 . S
C255 C252 1.511 . S
C255 H269 0.961 . S
C255 H270 0.961 . S
C255 H271 0.961 . S
C256 C257 1.370 . S
C256 C258 1.363 . S
C256 H272 0.931 . S
C257 C256 1.370 . S
C257 C261 1.408 . S
C258 C256 1.363 . S
C258 C259 1.370 . S
C258 C262 1.524 . S
C259 C251 1.503 . S
C259 C258 1.370 . S
C259 C260 1.403 . S
C260 C259 1.403 . S
C260 C261 1.404 . S
C260 C263 1.539 . S
C261 C257 1.408 . S
C261 C260 1.404 . S
C261 H273 0.930 . S
C262 C258 1.524 . S
C262 H274 0.956 . S
C262 H275 0.961 . S
C262 H276 0.961 . S
C263 C260 1.539 . S
C263 H277 0.958 . S
C263 H278 0.961 . S
C263 H279 0.960 . S
H264 C248 0.931 . S
H265 C253 0.929 . S
H266 C254 0.960 . S
H267 C254 0.962 . S
H268 C254 0.960 . S
H269 C255 0.961 . S
H270 C255 0.961 . S
H271 C255 0.961 . S
H272 C256 0.931 . S
H273 C261 0.930 . S
H274 C262 0.956 . S
H275 C262 0.961 . S
H276 C262 0.961 . S
H277 C263 0.958 . S
H278 C263 0.961 . S
H279 C263 0.960 . S
C280 C281 1.391 . S
C280 C282 1.394 . S
C280 H296 0.931 . S
C281 C280 1.391 . S
C281 C285 1.376 . S
C282 C280 1.394 . S
C282 C283 1.369 . S
C282 C286 1.531 . S
C283 C282 1.369 . S
C283 C284 1.410 . S
C283 C291 1.503 . S
C284 C283 1.410 . S
C284 C285 1.392 . S
C284 C287 1.511 . S
C285 C281 1.376 . S
C285 C284 1.392 . S
C285 H297 0.929 . S
C286 C282 1.531 . S
C286 H298 0.960 . S
C286 H299 0.962 . S
C286 H300 0.960 . S
C287 C284 1.511 . S
C287 H301 0.961 . S
C287 H302 0.961 . S
C287 H303 0.961 . S
C288 C289 1.370 . S
C288 C290 1.363 . S
C288 H304 0.931 . S
C289 C288 1.370 . S
C289 C293 1.408 . S
C290 C288 1.363 . S
C290 C291 1.370 . S
C290 C294 1.524 . S
C291 C283 1.503 . S
C291 C290 1.370 . S
C291 C292 1.403 . S
C292 C291 1.403 . S
C292 C293 1.404 . S
C292 C295 1.539 . S
C293 C289 1.408 . S
C293 C292 1.404 . S
C293 H305 0.930 . S
C294 C290 1.524 . S
C294 H306 0.956 . S
C294 H307 0.961 . S
C294 H308 0.961 . S
C295 C292 1.539 . S
C295 H309 0.958 . S
C295 H310 0.961 . S
C295 H311 0.960 . S
H296 C280 0.931 . S
H297 C285 0.929 . S
H298 C286 0.960 . S
H299 C286 0.962 . S
H300 C286 0.960 . S
H301 C287 0.961 . S
H302 C287 0.961 . S
H303 C287 0.961 . S
H304 C288 0.931 . S
H305 C293 0.930 . S
H306 C294 0.956 . S
H307 C294 0.961 . S
H308 C294 0.961 . S
H309 C295 0.958 . S
H310 C295 0.961 . S
H311 C295 0.960 . S
C312 C313 1.391 . S
C312 C314 1.394 . S
C312 H328 0.931 . S
C313 C312 1.391 . S
C313 C317 1.376 . S
C314 C312 1.394 . S
C314 C315 1.369 . S
C314 C318 1.531 . S
C315 C314 1.369 . S
C315 C316 1.410 . S
C315 C323 1.503 . S
C316 C315 1.410 . S
C316 C317 1.392 . S
C316 C319 1.511 . S
C317 C313 1.376 . S
C317 C316 1.392 . S
C317 H329 0.929 . S
C318 C314 1.531 . S
C318 H330 0.960 1_554 S
C318 H331 0.962 . S
C318 H332 0.960 1_554 S
C319 C316 1.511 . S
C319 H333 0.961 . S
C319 H334 0.961 . S
C319 H335 0.961 . S
C320 C321 1.370 . S
C320 C322 1.363 . S
C320 H336 0.931 . S
C321 C320 1.370 . S
C321 C325 1.408 1_554 S
C322 C320 1.363 . S
C322 C323 1.370 . S
C322 C326 1.524 . S
C323 C315 1.503 . S
C323 C322 1.370 . S
C323 C324 1.403 1_554 S
C324 C323 1.403 1_556 S
C324 C325 1.404 . S
C324 C327 1.539 . S
C325 C321 1.408 1_556 S
C325 C324 1.404 . S
C325 H337 0.930 . S
C326 C322 1.524 . S
C326 H338 0.956 . S
C326 H339 0.961 . S
C326 H340 0.961 . S
C327 C324 1.539 . S
C327 H341 0.958 . S
C327 H342 0.961 . S
C327 H343 0.960 . S
H328 C312 0.931 . S
H329 C317 0.929 . S
H330 C318 0.960 1_556 S
H331 C318 0.962 . S
H332 C318 0.960 1_556 S
H333 C319 0.961 . S
H334 C319 0.961 . S
H335 C319 0.961 . S
H336 C320 0.931 . S
H337 C325 0.930 . S
H338 C326 0.956 . S
H339 C326 0.961 . S
H340 C326 0.961 . S
H341 C327 0.958 . S
H342 C327 0.961 . S
H343 C327 0.960 . S
C344 C345 1.391 . S
C344 C346 1.394 . S
C344 H360 0.931 . S
C345 C344 1.391 . S
C345 C349 1.376 . S
C346 C344 1.394 . S
C346 C347 1.369 . S
C346 C350 1.531 . S
C347 C346 1.369 . S
C347 C348 1.410 1_455 S
C347 C355 1.503 1_455 S
C348 C347 1.410 1_655 S
C348 C349 1.392 1_655 S
C348 C351 1.511 . S
C349 C345 1.376 . S
C349 C348 1.392 1_455 S
C349 H361 0.929 1_455 S
C350 C346 1.531 . S
C350 H362 0.960 . S
C350 H363 0.962 . S
C350 H364 0.960 . S
C351 C348 1.511 . S
C351 H365 0.961 . S
C351 H366 0.961 . S
C351 H367 0.961 . S
C352 C353 1.370 . S
C352 C354 1.363 . S
C352 H368 0.931 . S
C353 C352 1.370 . S
C353 C357 1.408 . S
C354 C352 1.363 . S
C354 C355 1.370 . S
C354 C358 1.524 . S
C355 C347 1.503 1_655 S
C355 C354 1.370 . S
C355 C356 1.403 . S
C356 C355 1.403 . S
C356 C357 1.404 . S
C356 C359 1.539 1_655 S
C357 C353 1.408 . S
C357 C356 1.404 . S
C357 H369 0.930 . S
C358 C354 1.524 . S
C358 H370 0.956 1_655 S
C358 H371 0.961 . S
C358 H372 0.961 . S
C359 C356 1.539 1_455 S
C359 H373 0.958 . S
C359 H374 0.961 1_455 S
C359 H375 0.960 . S
H360 C344 0.931 . S
H361 C349 0.929 1_655 S
H362 C350 0.960 . S
H363 C350 0.962 . S
H364 C350 0.960 . S
H365 C351 0.961 . S
H366 C351 0.961 . S
H367 C351 0.961 . S
H368 C352 0.931 . S
H369 C357 0.930 . S
H370 C358 0.956 1_455 S
H371 C358 0.961 . S
H372 C358 0.961 . S
H373 C359 0.958 . S
H374 C359 0.961 1_655 S
H375 C359 0.960 . S
C376 C377 1.391 . S
C376 C378 1.394 . S
C376 H392 0.931 . S
C377 C376 1.391 . S
C377 C381 1.376 . S
C378 C376 1.394 . S
C378 C379 1.369 . S
C378 C382 1.531 . S
C379 C378 1.369 . S
C379 C380 1.410 1_545 S
C379 C387 1.503 1_545 S
C380 C379 1.410 1_565 S
C380 C381 1.392 1_565 S
C380 C383 1.511 . S
C381 C377 1.376 . S
C381 C380 1.392 1_545 S
C381 H393 0.929 . S
C382 C378 1.531 . S
C382 H394 0.960 . S
C382 H395 0.962 . S
C382 H396 0.960 . S
C383 C380 1.511 . S
C383 H397 0.961 . S
C383 H398 0.961 . S
C383 H399 0.961 . S
C384 C385 1.370 . S
C384 C386 1.363 1_565 S
C384 H400 0.931 . S
C385 C384 1.370 . S
C385 C389 1.408 . S
C386 C384 1.363 1_545 S
C386 C387 1.370 1_545 S
C386 C390 1.524 . S
C387 C379 1.503 1_565 S
C387 C386 1.370 1_565 S
C387 C388 1.403 . S
C388 C387 1.403 . S
C388 C389 1.404 . S
C388 C391 1.539 . S
C389 C385 1.408 . S
C389 C388 1.404 . S
C389 H401 0.930 . S
C390 C386 1.524 . S
C390 H402 0.956 . S
C390 H403 0.961 . S
C390 H404 0.961 . S
C391 C388 1.539 . S
C391 H405 0.958 . S
C391 H406 0.961 . S
C391 H407 0.960 . S
H392 C376 0.931 . S
H393 C381 0.929 . S
H394 C382 0.960 . S
H395 C382 0.962 . S
H396 C382 0.960 . S
H397 C383 0.961 . S
H398 C383 0.961 . S
H399 C383 0.961 . S
H400 C384 0.931 . S
H401 C389 0.930 . S
H402 C390 0.956 . S
H403 C390 0.961 . S
H404 C390 0.961 . S
H405 C391 0.958 . S
H406 C391 0.961 . S
H407 C391 0.960 . S
C408 C409 1.391 . S
C408 C410 1.394 . S
C408 H424 0.931 . S
C409 C408 1.391 . S
C409 C413 1.376 . S
C410 C408 1.394 . S
C410 C411 1.369 . S
C410 C414 1.531 . S
C411 C410 1.369 . S
C411 C412 1.410 . S
C411 C419 1.503 . S
C412 C411 1.410 . S
C412 C413 1.392 . S
C412 C415 1.511 . S
C413 C409 1.376 . S
C413 C412 1.392 . S
C413 H425 0.929 . S
C414 C410 1.531 . S
C414 H426 0.960 . S
C414 H427 0.962 . S
C414 H428 0.960 . S
C415 C412 1.511 . S
C415 H429 0.961 . S
C415 H430 0.961 . S
C415 H431 0.961 . S
C416 C417 1.370 . S
C416 C418 1.363 . S
C416 H432 0.931 . S
C417 C416 1.370 . S
C417 C421 1.408 . S
C418 C416 1.363 . S
C418 C419 1.370 . S
C418 C422 1.524 . S
C419 C411 1.503 . S
C419 C418 1.370 . S
C419 C420 1.403 . S
C420 C419 1.403 . S
C420 C421 1.404 . S
C420 C423 1.539 . S
C421 C417 1.408 . S
C421 C420 1.404 . S
C421 H433 0.930 . S
C422 C418 1.524 . S
C422 H434 0.956 . S
C422 H435 0.961 . S
C422 H436 0.961 . S
C423 C420 1.539 . S
C423 H437 0.958 . S
C423 H438 0.961 . S
C423 H439 0.960 . S
H424 C408 0.931 . S
H425 C413 0.929 . S
H426 C414 0.960 . S
H427 C414 0.962 . S
H428 C414 0.960 . S
H429 C415 0.961 . S
H430 C415 0.961 . S
H431 C415 0.961 . S
H432 C416 0.931 . S
H433 C421 0.930 . S
H434 C422 0.956 . S
H435 C422 0.961 . S
H436 C422 0.961 . S
H437 C423 0.958 . S
H438 C423 0.961 . S
H439 C423 0.960 . S
C440 C441 1.391 1_556 S
C440 C442 1.394 . S
C440 H456 0.931 . S
C441 C440 1.391 1_554 S
C441 C445 1.376 . S
C442 C440 1.394 . S
C442 C443 1.384 . S
C442 C446 1.531 . S
C443 C442 1.384 . S
C443 C444 1.393 1_456 S
C443 C451 1.502 1_456 S
C444 C443 1.393 1_654 S
C444 C445 1.392 1_655 S
C444 C447 1.511 . S
C445 C441 1.376 . S
C445 C444 1.392 1_455 S
C445 H457 0.929 . S
C446 C442 1.531 . S
C446 H458 0.960 . S
C446 H459 0.962 . S
C446 H460 0.960 . S
C447 C444 1.511 . S
C447 H461 0.961 . S
C447 H462 0.961 . S
C447 H463 0.961 . S
C448 C449 1.370 . S
C448 C450 1.363 . S
C448 H464 0.931 . S
C449 C448 1.370 . S
C449 C453 1.408 1_554 S
C450 C448 1.363 . S
C450 C451 1.395 . S
C450 C454 1.524 1_655 S
C451 C443 1.502 1_654 S
C451 C450 1.395 . S
C451 C452 1.380 1_554 S
C452 C451 1.380 1_556 S
C452 C453 1.404 . S
C452 C455 1.539 . S
C453 C449 1.408 1_556 S
C453 C452 1.404 . S
C453 H465 0.930 . S
C454 C450 1.524 1_455 S
C454 H466 0.956 . S
C454 H467 0.961 . S
C454 H468 0.961 . S
C455 C452 1.539 . S
C455 H469 0.958 . S
C455 H470 0.961 . S
C455 H471 0.960 . S
H456 C440 0.931 . S
H457 C445 0.929 . S
H458 C446 0.960 . S
H459 C446 0.962 . S
H460 C446 0.960 . S
H461 C447 0.961 . S
H462 C447 0.961 . S
H463 C447 0.961 . S
H464 C448 0.931 . S
H465 C453 0.930 . S
H466 C454 0.956 . S
H467 C454 0.961 . S
H468 C454 0.961 . S
H469 C455 0.958 . S
H470 C455 0.961 . S
H471 C455 0.960 . S
C472 C473 1.391 . S
C472 C474 1.394 . S
C472 H488 0.931 . S
C473 C472 1.391 . S
C473 C477 1.376 . S
C474 C472 1.394 . S
C474 C475 1.369 . S
C474 C478 1.531 1_565 S
C475 C474 1.369 . S
C475 C476 1.410 . S
C475 C483 1.503 1_565 S
C476 C475 1.410 . S
C476 C477 1.392 . S
C476 C479 1.511 . S
C477 C473 1.376 . S
C477 C476 1.392 . S
C477 H489 0.929 . S
C478 C474 1.531 1_545 S
C478 H490 0.960 . S
C478 H491 0.962 . S
C478 H492 0.960 . S
C479 C476 1.511 . S
C479 H493 0.961 . S
C479 H494 0.961 . S
C479 H495 0.961 . S
C480 C481 1.370 . S
C480 C482 1.363 . S
C480 H496 0.931 . S
C481 C480 1.370 . S
C481 C485 1.408 . S
C482 C480 1.363 . S
C482 C483 1.370 . S
C482 C486 1.524 . S
C483 C475 1.503 1_545 S
C483 C482 1.370 . S
C483 C484 1.403 . S
C484 C483 1.403 . S
C484 C485 1.404 . S
C484 C487 1.539 1_545 S
C485 C481 1.408 . S
C485 C484 1.404 . S
C485 H497 0.930 . S
C486 C482 1.524 . S
C486 H498 0.956 . S
C486 H499 0.961 . S
C486 H500 0.961 . S
C487 C484 1.539 1_565 S
C487 H501 0.958 . S
C487 H502 0.961 . S
C487 H503 0.960 . S
H488 C472 0.931 . S
H489 C477 0.929 . S
H490 C478 0.960 . S
H491 C478 0.962 . S
H492 C478 0.960 . S
H493 C479 0.961 . S
H494 C479 0.961 . S
H495 C479 0.961 . S
H496 C480 0.931 . S
H497 C485 0.930 . S
H498 C486 0.956 . S
H499 C486 0.961 . S
H500 C486 0.961 . S
H501 C487 0.958 . S
H502 C487 0.961 . S
H503 C487 0.960 . S
C504 C505 1.391 . S
C504 C506 1.394 . S
C504 H520 0.931 . S
C505 C504 1.391 . S
C505 C509 1.376 . S
C506 C504 1.394 . S
C506 C507 1.369 . S
C506 C510 1.531 . S
C507 C506 1.369 . S
C507 C508 1.410 . S
C507 C515 1.503 . S
C508 C507 1.410 . S
C508 C509 1.392 . S
C508 C511 1.511 . S
C509 C505 1.376 . S
C509 C508 1.392 . S
C509 H521 0.929 . S
C510 C506 1.531 . S
C510 H522 0.960 . S
C510 H523 0.962 . S
C510 H524 0.960 . S
C511 C508 1.511 . S
C511 H525 0.961 . S
C511 H526 0.961 . S
C511 H527 0.961 . S
C512 C513 1.370 . S
C512 C514 1.363 . S
C512 H528 0.931 . S
C513 C512 1.370 . S
C513 C517 1.408 . S
C514 C512 1.363 . S
C514 C515 1.370 . S
C514 C518 1.524 . S
C515 C507 1.503 . S
C515 C514 1.370 . S
C515 C516 1.403 . S
C516 C515 1.403 . S
C516 C517 1.404 . S
C516 C519 1.539 . S
C517 C513 1.408 . S
C517 C516 1.404 . S
C517 H529 0.930 . S
C518 C514 1.524 . S
C518 H530 0.956 . S
C518 H531 0.961 . S
C518 H532 0.961 . S
C519 C516 1.539 . S
C519 H533 0.958 . S
C519 H534 0.961 . S
C519 H535 0.960 . S
H520 C504 0.931 . S
H521 C509 0.929 . S
H522 C510 0.960 . S
H523 C510 0.962 . S
H524 C510 0.960 . S
H525 C511 0.961 . S
H526 C511 0.961 . S
H527 C511 0.961 . S
H528 C512 0.931 . S
H529 C517 0.930 . S
H530 C518 0.956 . S
H531 C518 0.961 . S
H532 C518 0.961 . S
H533 C519 0.958 . S
H534 C519 0.961 . S
H535 C519 0.960 . S
C536 C537 1.391 . S
C536 C538 1.394 . S
C536 H552 0.931 . S
C537 C536 1.391 . S
C537 C541 1.376 1_655 S
C538 C536 1.394 . S
C538 C539 1.369 1_655 S
C538 C542 1.531 . S
C539 C538 1.369 1_455 S
C539 C540 1.410 . S
C539 C547 1.503 . S
C540 C539 1.410 . S
C540 C541 1.392 . S
C540 C543 1.511 . S
C541 C537 1.376 1_455 S
C541 C540 1.392 . S
C541 H553 0.929 . S
C542 C538 1.531 . S
C542 H554 0.960 . S
C542 H555 0.962 . S
C542 H556 0.960 . S
C543 C540 1.511 . S
C543 H557 0.961 . S
C543 H558 0.961 . S
C543 H559 0.961 . S
C544 C545 1.370 . S
C544 C546 1.363 . S
C544 H560 0.931 . S
C545 C544 1.370 . S
C545 C549 1.408 . S
C546 C544 1.363 . S
C546 C547 1.370 . S
C546 C550 1.523 1_455 S
C547 C539 1.503 . S
C547 C546 1.370 . S
C547 C548 1.403 . S
C548 C547 1.403 . S
C548 C549 1.404 . S
C548 C551 1.539 . S
C549 C545 1.408 . S
C549 C548 1.404 . S
C549 H561 0.930 . S
C550 C546 1.523 1_655 S
C550 H562 0.967 . S
C550 H563 0.956 1_655 S
C550 H564 0.955 1_655 S
C551 C548 1.539 . S
C551 H565 0.958 . S
C551 H566 0.961 . S
C551 H567 0.960 . S
H552 C536 0.931 . S
H553 C541 0.929 . S
H554 C542 0.960 . S
H555 C542 0.962 . S
H556 C542 0.960 . S
H557 C543 0.961 . S
H558 C543 0.961 . S
H559 C543 0.961 . S
H560 C544 0.931 . S
H561 C549 0.930 . S
H562 C550 0.967 . S
H563 C550 0.956 1_455 S
H564 C550 0.955 1_455 S
H565 C551 0.958 . S
H566 C551 0.961 . S
H567 C551 0.960 . S
C568 C569 1.391 . S
C568 C570 1.394 1_565 S
C568 H584 0.931 . S
C569 C568 1.391 . S
C569 C573 1.376 . S
C570 C568 1.394 1_545 S
C570 C571 1.369 1_545 S
C570 C574 1.531 . S
C571 C570 1.369 1_565 S
C571 C572 1.410 . S
C571 C579 1.503 1_565 S
C572 C571 1.410 . S
C572 C573 1.392 . S
C572 C575 1.511 . S
C573 C569 1.376 . S
C573 C572 1.392 . S
C573 H585 0.929 . S
C574 C570 1.531 . S
C574 H586 0.960 . S
C574 H587 0.962 . S
C574 H588 0.960 . S
C575 C572 1.511 . S
C575 H589 0.961 . S
C575 H590 0.961 . S
C575 H591 0.961 . S
C576 C577 1.370 . S
C576 C578 1.363 . S
C576 H592 0.931 . S
C577 C576 1.370 . S
C577 C581 1.408 . S
C578 C576 1.363 . S
C578 C579 1.370 . S
C578 C582 1.524 . S
C579 C571 1.503 1_545 S
C579 C578 1.370 . S
C579 C580 1.403 . S
C580 C579 1.403 . S
C580 C581 1.404 . S
C580 C583 1.539 1_545 S
C581 C577 1.408 . S
C581 C580 1.404 . S
C581 H593 0.930 . S
C582 C578 1.524 . S
C582 H594 0.956 . S
C582 H595 0.961 . S
C582 H596 0.961 . S
C583 C580 1.539 1_565 S
C583 H597 0.958 . S
C583 H598 0.961 . S
C583 H599 0.960 . S
H584 C568 0.931 . S
H585 C573 0.929 . S
H586 C574 0.960 . S
H587 C574 0.962 . S
H588 C574 0.960 . S
H589 C575 0.961 . S
H590 C575 0.961 . S
H591 C575 0.961 . S
H592 C576 0.931 . S
H593 C581 0.930 . S
H594 C582 0.956 . S
H595 C582 0.961 . S
H596 C582 0.961 . S
H597 C583 0.958 . S
H598 C583 0.961 . S
H599 C583 0.960 . S
C600 C601 1.391 . S
C600 C602 1.394 . S
C600 H616 0.931 . S
C601 C600 1.391 . S
C601 C605 1.376 . S
C602 C600 1.394 . S
C602 C603 1.369 . S
C602 C606 1.531 . S
C603 C602 1.369 . S
C603 C604 1.410 . S
C603 C611 1.503 . S
C604 C603 1.410 . S
C604 C605 1.392 . S
C604 C607 1.511 . S
C605 C601 1.376 . S
C605 C604 1.392 . S
C605 H617 0.929 . S
C606 C602 1.531 . S
C606 H618 0.960 . S
C606 H619 0.962 . S
C606 H620 0.960 . S
C607 C604 1.511 . S
C607 H621 0.961 . S
C607 H622 0.961 . S
C607 H623 0.961 . S
C608 C609 1.370 . S
C608 C610 1.363 . S
C608 H624 0.931 . S
C609 C608 1.370 . S
C609 C613 1.408 . S
C610 C608 1.363 . S
C610 C611 1.370 . S
C610 C614 1.524 . S
C611 C603 1.503 . S
C611 C610 1.370 . S
C611 C612 1.403 . S
C612 C611 1.403 . S
C612 C613 1.404 . S
C612 C615 1.539 . S
C613 C609 1.408 . S
C613 C612 1.404 . S
C613 H625 0.930 . S
C614 C610 1.524 . S
C614 H626 0.956 . S
C614 H627 0.961 . S
C614 H628 0.961 . S
C615 C612 1.539 . S
C615 H629 0.958 . S
C615 H630 0.961 . S
C615 H631 0.960 . S
H616 C600 0.931 . S
H617 C605 0.929 . S
H618 C606 0.960 . S
H619 C606 0.962 . S
H620 C606 0.960 . S
H621 C607 0.961 . S
H622 C607 0.961 . S
H623 C607 0.961 . S
H624 C608 0.931 . S
H625 C613 0.930 . S
H626 C614 0.956 . S
H627 C614 0.961 . S
H628 C614 0.961 . S
H629 C615 0.958 . S
H630 C615 0.961 . S
H631 C615 0.960 . S
C632 C633 1.391 1_655 S
C632 C634 1.394 . S
C632 H648 0.931 . S
C633 C632 1.391 1_455 S
C633 C637 1.376 . S
C634 C632 1.394 . S
C634 C635 1.369 . S
C634 C638 1.531 . S
C635 C634 1.369 . S
C635 C636 1.410 1_655 S
C635 C643 1.503 . S
C636 C635 1.410 1_455 S
C636 C637 1.392 . S
C636 C639 1.511 . S
C637 C633 1.376 . S
C637 C636 1.392 . S
C637 H649 0.929 . S
C638 C634 1.531 . S
C638 H650 0.960 . S
C638 H651 0.962 . S
C638 H652 0.960 . S
C639 C636 1.511 . S
C639 H653 0.961 . S
C639 H654 0.961 . S
C639 H655 0.961 . S
C640 C641 1.370 . S
C640 C642 1.363 . S
C640 H656 0.931 . S
C641 C640 1.370 . S
C641 C645 1.408 . S
C642 C640 1.363 . S
C642 C643 1.370 . S
C642 C646 1.534 . S
C643 C635 1.503 . S
C643 C642 1.370 . S
C643 C644 1.403 . S
C644 C643 1.403 . S
C644 C645 1.404 . S
C644 C647 1.539 . S
C645 C641 1.408 . S
C645 C644 1.404 . S
C645 H657 0.930 . S
C646 C642 1.534 . S
C646 H658 0.958 . S
C646 H659 0.953 1_655 S
C646 H660 0.951 1_655 S
C647 C644 1.539 . S
C647 H661 0.958 . S
C647 H662 0.961 . S
C647 H663 0.960 . S
H648 C632 0.931 . S
H649 C637 0.929 . S
H650 C638 0.960 . S
H651 C638 0.962 . S
H652 C638 0.960 . S
H653 C639 0.961 . S
H654 C639 0.961 . S
H655 C639 0.961 . S
H656 C640 0.931 . S
H657 C645 0.930 . S
H658 C646 0.958 . S
H659 C646 0.953 1_455 S
H660 C646 0.951 1_455 S
H661 C647 0.958 . S
H662 C647 0.961 . S
H663 C647 0.960 . S
C664 C665 1.391 1_565 S
C664 C666 1.394 . S
C664 H680 0.931 . S
C665 C664 1.391 1_545 S
C665 C669 1.376 . S
C666 C664 1.394 . S
C666 C667 1.369 . S
C666 C670 1.531 . S
C667 C666 1.369 . S
C667 C668 1.410 1_565 S
C667 C675 1.503 . S
C668 C667 1.410 1_545 S
C668 C669 1.392 . S
C668 C671 1.511 . S
C669 C665 1.376 . S
C669 C668 1.392 . S
C669 H681 0.929 . S
C670 C666 1.531 . S
C670 H682 0.960 . S
C670 H683 0.962 . S
C670 H684 0.960 . S
C671 C668 1.511 . S
C671 H685 0.961 . S
C671 H686 0.961 . S
C671 H687 0.961 . S
C672 C673 1.370 . S
C672 C674 1.363 . S
C672 H688 0.931 . S
C673 C672 1.370 . S
C673 C677 1.408 . S
C674 C672 1.363 . S
C674 C675 1.370 . S
C674 C678 1.524 . S
C675 C667 1.503 . S
C675 C674 1.370 . S
C675 C676 1.403 . S
C676 C675 1.403 . S
C676 C677 1.404 . S
C676 C679 1.539 . S
C677 C673 1.408 . S
C677 C676 1.404 . S
C677 H689 0.930 . S
C678 C674 1.524 . S
C678 H690 0.956 . S
C678 H691 0.961 1_565 S
C678 H692 0.961 . S
C679 C676 1.539 . S
C679 H693 0.958 . S
C679 H694 0.961 . S
C679 H695 0.960 . S
H680 C664 0.931 . S
H681 C669 0.929 . S
H682 C670 0.960 . S
H683 C670 0.962 . S
H684 C670 0.960 . S
H685 C671 0.961 . S
H686 C671 0.961 . S
H687 C671 0.961 . S
H688 C672 0.931 . S
H689 C677 0.930 . S
H690 C678 0.956 . S
H691 C678 0.961 1_545 S
H692 C678 0.961 . S
H693 C679 0.958 . S
H694 C679 0.961 . S
H695 C679 0.960 . S
C121 C82 0.956 . S
C129 C12 1.058 . S
C153 C102 1.066 . S
C161 C32 1.058 . S
C185 C2 1.026 . S
C193 C52 1.040 . S
C217 C22 0.978 . S
C225 C72 1.074 . S
C249 C42 1.073 . S
C257 C92 1.044 . S
C281 C62 1.069 . S
C289 C112 1.042 . S
C313 C18 1.085 . S
C321 C78 1.097 . S
C345 C98 1.072 . S
C353 C38 1.087 . S
C377 C118 1.106 . S
C385 C58 1.075 . S
C409 C59 1.136 . S
C417 C119 1.108 . S
C441 C19 1.145 . S
C449 C79 1.104 . S
C473 C99 1.097 . S
C481 C39 1.138 . S
C505 C104 0.958 . S
C513 C9 1.029 . S
C537 C29 0.969 . S
C545 C4 0.939 . S
C569 C49 1.050 . S
C577 C24 0.999 . S
C601 C44 0.997 . S
C609 C69 1.017 . S
C633 C89 1.077 . S
C641 C64 0.996 . S
C665 C109 1.078 . S
C673 C84 0.998 . S
