# Generated by pormake.
# Topology wht, (6)-cn, num edge types: 1
# Building blocks:
#     Node 0, Type 0, BuildingBlock: OJICUG_clean_sbu_0, # of connection points: 6
#     Node 1, Type 0, BuildingBlock: OJICUG_clean_sbu_0, # of connection points: 6
#     Node 2, Type 0, BuildingBlock: OJICUG_clean_sbu_0, # of connection points: 6
#     Node 3, Type 0, BuildingBlock: OJICUG_clean_sbu_0, # of connection points: 6
#     Node 4, Type 0, BuildingBlock: OJICUG_clean_sbu_0, # of connection points: 6
#     Node 5, Type 0, BuildingBlock: OJICUG_clean_sbu_0, # of connection points: 6
#     Node 6, Type 0, BuildingBlock: OJICUG_clean_sbu_0, # of connection points: 6
#     Node 7, Type 0, BuildingBlock: OJICUG_clean_sbu_0, # of connection points: 6
#     Edge 8, Type (0, 0), BuildingBlock: AJUNOK_clean_linker_0, # of connection points: 2
#     Edge 9, Type (0, 0), BuildingBlock: AJUNOK_clean_linker_0, # of connection points: 2
#     Edge 10, Type (0, 0), BuildingBlock: AJUNOK_clean_linker_0, # of connection points: 2
#     Edge 11, Type (0, 0), BuildingBlock: AJUNOK_clean_linker_0, # of connection points: 2
#     Edge 12, Type (0, 0), BuildingBlock: AJUNOK_clean_linker_0, # of connection points: 2
#     Edge 13, Type (0, 0), BuildingBlock: AJUNOK_clean_linker_0, # of connection points: 2
#     Edge 14, Type (0, 0), BuildingBlock: AJUNOK_clean_linker_0, # of connection points: 2
#     Edge 15, Type (0, 0), BuildingBlock: AJUNOK_clean_linker_0, # of connection points: 2
#     Edge 16, Type (0, 0), BuildingBlock: AJUNOK_clean_linker_0, # of connection points: 2
#     Edge 17, Type (0, 0), BuildingBlock: AJUNOK_clean_linker_0, # of connection points: 2
#     Edge 18, Type (0, 0), BuildingBlock: AJUNOK_clean_linker_0, # of connection points: 2
#     Edge 19, Type (0, 0), BuildingBlock: AJUNOK_clean_linker_0, # of connection points: 2
#     Edge 20, Type (0, 0), BuildingBlock: AJUNOK_clean_linker_0, # of connection points: 2
#     Edge 21, Type (0, 0), BuildingBlock: AJUNOK_clean_linker_0, # of connection points: 2
#     Edge 22, Type (0, 0), BuildingBlock: AJUNOK_clean_linker_0, # of connection points: 2
#     Edge 23, Type (0, 0), BuildingBlock: AJUNOK_clean_linker_0, # of connection points: 2
#     Edge 24, Type (0, 0), BuildingBlock: AJUNOK_clean_linker_0, # of connection points: 2
#     Edge 25, Type (0, 0), BuildingBlock: AJUNOK_clean_linker_0, # of connection points: 2
#     Edge 26, Type (0, 0), BuildingBlock: AJUNOK_clean_linker_0, # of connection points: 2
#     Edge 27, Type (0, 0), BuildingBlock: AJUNOK_clean_linker_0, # of connection points: 2
#     Edge 28, Type (0, 0), BuildingBlock: AJUNOK_clean_linker_0, # of connection points: 2
#     Edge 29, Type (0, 0), BuildingBlock: AJUNOK_clean_linker_0, # of connection points: 2
#     Edge 30, Type (0, 0), BuildingBlock: AJUNOK_clean_linker_0, # of connection points: 2
#     Edge 31, Type (0, 0), BuildingBlock: AJUNOK_clean_linker_0, # of connection points: 2
# Relax obj value: 0.284
# Max RMSD: 0.260
# Mean RMSD: 0.260
data_MOF--net-wht--node1-OJICUG_clean_sbu_0--edge1-AJUNOK_clean_linker_0
_symmetry_space_group_name_H-M    P1
_symmetry_Int_Tables_number       1
_symmetry_cell_setting            triclinic
loop_
_symmetry_equiv_pos_as_xyz
'x, y, z'
_cell_length_a     20.25908
_cell_length_b     20.31955
_cell_length_c     37.87869
_cell_angle_alpha  90.112255
_cell_angle_beta   89.694142
_cell_angle_gamma 90.233243
loop_
_atom_site_label
_atom_site_type_symbol
_atom_site_fract_x
_atom_site_fract_y
_atom_site_fract_z
_atom_type_partial_charge
Sc0 Sc 0.04441 0.15805 0.11605 0.0
Sc1 Sc 0.18202 0.24536 0.14179 0.0
Sc2 Sc 0.0239 0.30393 0.16207 0.0
O3 O 0.08348 0.23624 0.14064 0.0
C4 C 0.93786 0.26428 0.09687 0.0
C5 C 0.14884 0.20364 0.06247 0.0
C6 C 0.13751 0.38933 0.12367 0.0
C7 C 0.18145 0.099 0.14379 0.0
C8 C 0.96628 0.16174 0.1868 0.0
C9 C 0.1398 0.30159 0.21791 0.0
O10 O 0.95319 0.2043 0.10065 0.0
O11 O 0.19092 0.21125 0.08721 0.0
O12 O 0.08221 0.38603 0.14016 0.0
O13 O 0.13103 0.09745 0.12398 0.0
O14 O 0.96291 0.22496 0.18591 0.0
O15 O 0.18275 0.28261 0.19547 0.0
O16 O 0.00048 0.12833 0.16481 0.0
O17 O 0.1945 0.1488 0.16248 0.0
O18 O 0.07898 0.30722 0.21031 0.0
O19 O 0.08805 0.19161 0.06815 0.0
O20 O 0.96492 0.30922 0.11507 0.0
O21 O 0.17681 0.34134 0.12102 0.0
Sc22 Sc 0.17414 0.51854 0.41219 0.0
Sc23 Sc 0.24331 0.67403 0.39681 0.0
Sc24 Sc 0.32624 0.53339 0.37105 0.0
O25 O 0.2477 0.57556 0.39425 0.0
C26 C 0.31114 0.45186 0.43875 0.0
C27 C 0.18188 0.62958 0.4713 0.0
C28 C 0.39046 0.66931 0.39799 0.0
C29 C 0.09688 0.63741 0.37554 0.0
C30 C 0.21652 0.43286 0.34779 0.0
C31 C 0.28489 0.63856 0.31725 0.0
O32 O 0.24785 0.45382 0.43665 0.0
O33 O 0.20718 0.67306 0.45096 0.0
O34 O 0.39137 0.61765 0.37905 0.0
O35 O 0.09664 0.57973 0.38896 0.0
O36 O 0.27671 0.44407 0.35461 0.0
O37 O 0.27605 0.6814 0.3417 0.0
O38 O 0.17082 0.46254 0.36413 0.0
O39 O 0.14659 0.67511 0.37672 0.0
O40 O 0.29728 0.57843 0.32354 0.0
O41 O 0.169 0.57134 0.46109 0.0
O42 O 0.35003 0.48639 0.41956 0.0
O43 O 0.34106 0.68295 0.41698 0.0
Sc44 Sc 0.95914 0.82561 0.62364 0.0
Sc45 Sc 0.81003 0.75936 0.65113 0.0
Sc46 Sc 0.9578 0.67384 0.6646 0.0
O47 O 0.90881 0.75248 0.64712 0.0
C48 C 0.04991 0.70782 0.60061 0.0
C49 C 0.84669 0.79928 0.57138 0.0
C50 C 0.82996 0.61117 0.62753 0.0
C51 C 0.83312 0.90381 0.65324 0.0
C52 C 0.03597 0.80331 0.6929 0.0
C53 C 0.8475 0.69093 0.7243 0.0
O54 O 0.0425 0.76875 0.60613 0.0
O55 O 0.80477 0.79545 0.59674 0.0
O56 O 0.88843 0.60485 0.6397 0.0
O57 O 0.88373 0.89767 0.63372 0.0
O58 O 0.02839 0.74054 0.69085 0.0
O59 O 0.8068 0.72179 0.70488 0.0
O60 O 0.00832 0.84431 0.67229 0.0
O61 O 0.81327 0.85658 0.67214 0.0
O62 O 0.90363 0.67205 0.71328 0.0
O63 O 0.90888 0.80255 0.57584 0.0
O64 O 0.01602 0.66531 0.61713 0.0
O65 O 0.79762 0.66407 0.63021 0.0
Sc66 Sc 0.66196 0.45245 0.8733 0.0
Sc67 Sc 0.7416 0.30799 0.89349 0.0
Sc68 Sc 0.81546 0.45969 0.91259 0.0
O69 O 0.74072 0.40645 0.89329 0.0
C70 C 0.77359 0.55351 0.8519 0.0
C71 C 0.69221 0.35139 0.81595 0.0
C72 C 0.8877 0.34106 0.87093 0.0
C73 C 0.59604 0.31782 0.8994 0.0
C74 C 0.68107 0.52195 0.94486 0.0
C75 C 0.80722 0.34312 0.96816 0.0
O76 O 0.71314 0.54236 0.85863 0.0
O77 O 0.70324 0.30678 0.83913 0.0
O78 O 0.89034 0.39703 0.88661 0.0
O79 O 0.59587 0.36924 0.88046 0.0
O80 O 0.7441 0.52421 0.94052 0.0
O81 O 0.78221 0.30177 0.94657 0.0
O82 O 0.64228 0.49083 0.92433 0.0
O83 O 0.64611 0.30268 0.91709 0.0
O84 O 0.81961 0.40242 0.95985 0.0
O85 O 0.68491 0.41199 0.82342 0.0
O86 O 0.81898 0.52072 0.86644 0.0
O87 O 0.83626 0.30566 0.87071 0.0
Sc88 Sc 0.53204 0.17563 0.56944 0.0
Sc89 Sc 0.68039 0.24772 0.59376 0.0
Sc90 Sc 0.53424 0.32833 0.6101 0.0
O91 O 0.58231 0.25123 0.59011 0.0
C92 C 0.45609 0.30522 0.54203 0.0
C93 C 0.65017 0.18326 0.51733 0.0
C94 C 0.66989 0.39307 0.58082 0.0
C95 C 0.6488 0.10448 0.61126 0.0
C96 C 0.44187 0.20995 0.63345 0.0
C97 C 0.63665 0.30429 0.66869 0.0
O98 O 0.46023 0.24264 0.54544 0.0
O99 O 0.68987 0.19919 0.54213 0.0
O100 O 0.61531 0.39544 0.5978 0.0
O101 O 0.60137 0.10094 0.58923 0.0
O102 O 0.44938 0.27104 0.62715 0.0
O103 O 0.68206 0.29322 0.64599 0.0
O104 O 0.4749 0.16628 0.6171 0.0
O105 O 0.67288 0.15845 0.62141 0.0
O106 O 0.57651 0.31066 0.66025 0.0
O107 O 0.58795 0.18173 0.52173 0.0
O108 O 0.48879 0.34587 0.56061 0.0
O109 O 0.69223 0.33989 0.56822 0.0
Sc110 Sc 0.16339 0.04384 0.86536 0.0
Sc111 Sc 0.2554 0.17997 0.83909 0.0
Sc112 Sc 0.31332 0.02073 0.82171 0.0
O113 O 0.24383 0.08152 0.8414 0.0
C114 C 0.27358 0.9424 0.88997 0.0
C115 C 0.20289 0.15525 0.91724 0.0
C116 C 0.39834 0.13498 0.85814 0.0
C117 C 0.10634 0.17786 0.83127 0.0
C118 C 0.17464 0.95314 0.79919 0.0
C119 C 0.31212 0.13186 0.76382 0.0
O120 O 0.21341 0.95908 0.88711 0.0
O121 O 0.21811 0.19457 0.89235 0.0
O122 O 0.39539 0.08079 0.84114 0.0
O123 O 0.10099 0.12615 0.85009 0.0
O124 O 0.2378 0.95538 0.79972 0.0
O125 O 0.2953 0.17635 0.78583 0.0
O126 O 0.13839 0.98918 0.81884 0.0
O127 O 0.16035 0.1958 0.81742 0.0
O128 O 0.31556 0.07139 0.77214 0.0
O129 O 0.18809 0.09516 0.91255 0.0
O130 O 0.31832 0.966 0.87008 0.0
O131 O 0.35013 0.17366 0.86162 0.0
Sc132 Sc 0.46906 0.80377 0.0725 0.0
Sc133 Sc 0.30849 0.75851 0.0956 0.0
Sc134 Sc 0.43991 0.6587 0.11862 0.0
O135 O 0.40557 0.73953 0.09472 0.0
C136 C 0.52883 0.66181 0.05148 0.0
C137 C 0.35442 0.80757 0.01797 0.0
C138 C 0.29958 0.60929 0.08747 0.0
C139 C 0.36415 0.8978 0.11015 0.0
C140 C 0.54353 0.76667 0.14222 0.0
C141 C 0.33446 0.70377 0.17282 0.0
O142 O 0.53227 0.7247 0.05223 0.0
O143 O 0.31115 0.79855 0.04219 0.0
O144 O 0.35267 0.6012 0.10487 0.0
O145 O 0.4129 0.89053 0.0891 0.0
O146 O 0.52851 0.70611 0.13879 0.0
O147 O 0.29516 0.72305 0.14897 0.0
O148 O 0.52237 0.81024 0.12114 0.0
O149 O 0.32613 0.85124 0.1188 0.0
O150 O 0.3931 0.6853 0.16675 0.0
O151 O 0.41607 0.80225 0.0236 0.0
O152 O 0.48954 0.62952 0.07128 0.0
O153 O 0.28283 0.66432 0.07473 0.0
Sc154 Sc 0.6831 0.96337 0.32529 0.0
Sc155 Sc 0.72919 0.8058 0.35042 0.0
Sc156 Sc 0.83246 0.93843 0.36582 0.0
O157 O 0.74886 0.90204 0.34634 0.0
C158 C 0.82308 0.01679 0.29651 0.0
C159 C 0.67183 0.8463 0.2736 0.0
C160 C 0.8765 0.79522 0.33701 0.0
C161 C 0.59135 0.85938 0.36667 0.0
C162 C 0.72903 0.04605 0.3896 0.0
C163 C 0.79046 0.8429 0.4252 0.0
O164 O 0.76114 0.02561 0.30162 0.0
O165 O 0.6808 0.80386 0.29817 0.0
O166 O 0.88682 0.84903 0.35354 0.0
O167 O 0.59732 0.90575 0.34411 0.0
O168 O 0.78866 0.03087 0.3827 0.0
O169 O 0.77316 0.7989 0.40292 0.0
O170 O 0.68092 0.02033 0.37305 0.0
O171 O 0.64002 0.82666 0.37732 0.0
O172 O 0.80749 0.90071 0.41638 0.0
O173 O 0.68301 0.90729 0.27797 0.0
O174 O 0.85694 0.97802 0.31542 0.0
O175 O 0.81994 0.77805 0.32616 0.0
C176 C 0.87291 0.15124 0.23101 0.0
C177 C 0.92956 0.1247 0.21465 0.0
C178 C 0.83748 0.11574 0.25688 0.0
C179 C 0.85816 0.05292 0.26783 0.0
H180 H 0.8554 0.19953 0.22355 0.0
H181 H 0.79441 0.13817 0.26886 0.0
S182 S 0.00306 0.96102 0.23328 0.0
N183 N 0.00426 0.03119 0.21147 0.0
N184 N 0.93824 0.96521 0.25969 0.0
C185 C 0.91457 0.02587 0.25159 0.0
C186 C 0.95009 0.06151 0.22517 0.0
C187 C 0.32687 0.41321 0.5005 0.0
C188 C 0.34146 0.40702 0.46438 0.0
C189 C 0.36247 0.37749 0.52565 0.0
C190 C 0.41204 0.33304 0.51529 0.0
H191 H 0.29027 0.44834 0.50944 0.0
H192 H 0.35253 0.38601 0.55342 0.0
S193 S 0.46469 0.29521 0.4238 0.0
N194 N 0.40636 0.35118 0.41933 0.0
N195 N 0.47136 0.2821 0.46667 0.0
C196 C 0.42443 0.32376 0.47921 0.0
C197 C 0.38955 0.36135 0.45368 0.0
C198 C 0.13847 0.85656 0.71536 0.0
C199 C 0.075 0.83123 0.7219 0.0
C200 C 0.17174 0.89363 0.74112 0.0
C201 C 0.14176 0.90798 0.77389 0.0
H202 H 0.16161 0.84941 0.68979 0.0
H203 H 0.21996 0.91365 0.7347 0.0
S204 S 0.97684 0.8496 0.80398 0.0
N205 N 0.98441 0.82007 0.76351 0.0
N206 N 0.04598 0.89028 0.81191 0.0
C207 C 0.07886 0.88103 0.78093 0.0
C208 C 0.04566 0.84257 0.7549 0.0
C209 C 0.62244 0.65646 0.00719 0.0
C210 C 0.57164 0.62444 0.02635 0.0
C211 C 0.66106 0.62242 0.98216 0.0
C212 C 0.64967 0.55544 0.97519 0.0
H213 H 0.6318 0.70847 0.01108 0.0
H214 H 0.6979 0.64929 0.9671 0.0
S215 S 0.52733 0.44688 0.01944 0.0
N216 N 0.51573 0.51983 0.03759 0.0
N217 N 0.58776 0.45711 0.9906 0.0
C218 C 0.60107 0.52231 -0.00509 0.0
C219 C 0.56221 0.55643 0.02045 0.0
C220 C 0.114 0.34643 0.27807 0.0
C221 C 0.16142 0.32434 0.25347 0.0
C222 C 0.13241 0.37799 0.3094 0.0
C223 C 0.19924 0.38889 0.31769 0.0
H224 H 0.0617 0.3418 0.27257 0.0
H225 H 0.09366 0.39631 0.3265 0.0
S226 S 0.34343 0.33238 0.26479 0.0
N227 N 0.27867 0.30943 0.24149 0.0
N228 N 0.31337 0.3686 0.30039 0.0
C229 C 0.24738 0.36294 0.2946 0.0
C230 C 0.22858 0.33073 0.26254 0.0
C231 C 0.11673 0.73422 0.54662 0.0
C232 C 0.09396 0.68705 0.57114 0.0
C233 C 0.14889 0.71551 0.51537 0.0
C234 C 0.15971 0.64884 0.50731 0.0
H235 H 0.10681 0.78605 0.55059 0.0
H236 H 0.16209 0.75356 0.49659 0.0
S237 S 0.12119 0.50673 0.56568 0.0
N238 N 0.09258 0.57124 0.58734 0.0
N239 N 0.15349 0.53601 0.5288 0.0
C240 C 0.14198 0.60148 0.53288 0.0
C241 C 0.10901 0.62056 0.5647 0.0
C242 C 0.7433 0.61906 0.79826 0.0
C243 C 0.79111 0.60065 0.82329 0.0
C244 C 0.76102 0.65288 0.7673 0.0
C245 C 0.82723 0.66938 0.76017 0.0
H246 H 0.69229 0.60394 0.80149 0.0
H247 H 0.72322 0.66225 0.74785 0.0
S248 S 0.96915 0.64474 0.82028 0.0
N249 N 0.90597 0.61068 0.84113 0.0
N250 N 0.93916 0.67355 0.78298 0.0
C251 C 0.87452 0.65628 0.78631 0.0
C252 C 0.85652 0.62212 0.81783 0.0
C253 C 0.88018 0.2367 0.04019 0.0
C254 C 0.89322 0.2825 0.06737 0.0
C255 C 0.84846 0.25555 0.00897 0.0
C256 C 0.8286 0.32096 0.00364 0.0
H257 H 0.89768 0.18654 0.04212 0.0
H258 H 0.84296 0.21942 0.98811 0.0
S259 S 0.83948 0.457 0.06905 0.0
N260 N 0.87533 0.39415 0.08862 0.0
N261 N 0.81571 0.42942 0.03011 0.0
C262 C 0.83659 0.36598 0.03166 0.0
C263 C 0.86885 0.34682 0.06344 0.0
C264 C 0.63212 0.15068 0.4544 0.0
C265 C 0.67606 0.15903 0.48282 0.0
C266 C 0.65089 0.11735 0.42361 0.0
C267 C 0.71461 0.09108 0.41966 0.0
H268 H 0.58165 0.16779 0.45638 0.0
H269 H 0.61418 0.11013 0.40326 0.0
S270 S 0.85107 0.10563 0.48445 0.0
N271 N 0.78828 0.14322 0.50361 0.0
N272 N 0.82369 0.08045 0.44574 0.0
C273 C 0.76057 0.10283 0.44683 0.0
C274 C 0.74132 0.13685 0.47835 0.0
C275 C 0.36838 0.10524 0.70657 0.0
C276 C 0.33504 0.15137 0.72793 0.0
C277 C 0.39939 0.12393 0.67504 0.0
C278 C 0.39842 0.18962 0.66333 0.0
H279 H 0.37335 0.05456 0.71494 0.0
H280 H 0.42689 0.08689 0.66064 0.0
S281 S 0.30807 0.3274 0.70626 0.0
N282 N 0.29584 0.26412 0.73278 0.0
N283 N 0.35393 0.29935 0.67344 0.0
C284 C 0.36107 0.23534 0.68304 0.0
C285 C 0.32952 0.21625 0.71531 0.0
C286 C 0.26771 0.85602 0.97887 0.0
C287 C 0.33246 0.83226 0.98291 0.0
C288 C 0.24828 0.88856 0.94805 0.0
C289 C 0.29269 0.89894 0.91983 0.0
H290 H 0.23224 0.85213 0.00026 0.0
H291 H 0.1987 0.90824 0.94711 0.0
S292 S 0.46505 0.83772 0.91474 0.0
N293 N 0.4389 0.81499 0.95423 0.0
N294 N 0.40243 0.87631 0.89646 0.0
C295 C 0.35638 0.87188 0.92259 0.0
C296 C 0.37618 0.83856 0.95401 0.0
C297 C 0.61537 0.74229 0.19494 0.0
C298 C 0.581 0.78813 0.17404 0.0
C299 C 0.64528 0.76101 0.22696 0.0
C300 C 0.64201 0.82631 0.23929 0.0
H301 H 0.61855 0.69129 0.18676 0.0
H302 H 0.67087 0.72405 0.24217 0.0
S303 S 0.55322 0.96432 0.19603 0.0
N304 N 0.54309 0.90127 0.16915 0.0
N305 N 0.59829 0.93615 0.22874 0.0
C306 C 0.6074 0.87247 0.21867 0.0
C307 C 0.57729 0.85354 0.18623 0.0
C308 C 0.14284 0.21652 0.96344 0.0
C309 C 0.19839 0.18023 0.95322 0.0
C310 C 0.12912 0.22724 -0.00081 0.0
C311 C 0.17125 0.20295 0.02554 0.0
H312 H 0.10767 0.23284 0.94387 0.0
H313 H 0.08381 0.25227 0.00633 0.0
S314 S 0.32661 0.11074 0.01135 0.0
N315 N 0.29774 0.12344 0.97124 0.0
N316 N 0.27389 0.14649 0.03864 0.0
C317 C 0.22968 0.17107 0.01532 0.0
C318 C 0.24268 0.15874 0.97898 0.0
C319 C 0.30597 0.62483 0.2188 0.0
C320 C 0.30884 0.69046 0.20799 0.0
C321 C 0.29437 0.60903 0.25392 0.0
C322 C 0.28644 0.65849 0.27977 0.0
H323 H 0.3153 0.58539 0.20011 0.0
H324 H 0.29443 0.55734 0.26088 0.0
S325 S 0.2823 0.83844 0.26313 0.0
N326 N 0.29704 0.80546 0.22397 0.0
N327 N 0.27556 0.77623 0.29098 0.0
C328 C 0.28493 0.72463 0.26869 0.0
C329 C 0.2963 0.74056 0.23249 0.0
C330 C 0.82796 0.76966 0.47369 0.0
C331 C 0.79473 0.8266 0.46286 0.0
C332 C 0.84263 0.75976 0.50941 0.0
C333 C 0.82265 0.80548 0.5352 0.0
H334 H 0.84601 0.73467 0.45432 0.0
H335 H 0.87131 0.71711 0.51682 0.0
S336 S 0.73024 0.95971 0.52058 0.0
N337 N 0.73973 0.92773 0.48074 0.0
N338 N 0.76544 0.90754 0.54801 0.0
C339 C 0.78635 0.86062 0.52494 0.0
C340 C 0.77281 0.87158 0.48863 0.0
C341 C 0.60989 0.35009 0.72765 0.0
C342 C 0.65321 0.31332 0.70629 0.0
C343 C 0.62246 0.35998 0.76334 0.0
C344 C 0.67838 0.33289 0.77932 0.0
H345 H 0.56618 0.37258 0.71666 0.0
H346 H 0.58827 0.38974 0.77856 0.0
S347 S 0.80624 0.2307 0.73599 0.0
N348 N 0.75383 0.24811 0.70406 0.0
N349 N 0.77697 0.26667 0.77195 0.0
C350 C 0.72154 0.2947 0.75883 0.0
C351 C 0.70922 0.28517 0.72205 0.0
C352 C 0.24708 0.03433 0.10073 0.0
C353 C 0.23529 0.05256 0.13607 0.0
C354 C 0.29783 0.991 0.09175 0.0
C355 C 0.3373 0.96279 0.11791 0.0
H356 H 0.21583 0.05255 0.07983 0.0
H357 H 0.30205 0.97473 0.06455 0.0
S358 S 0.32959 -0.00294 0.21392 0.0
N359 N 0.27097 0.04356 0.19699 0.0
N360 N 0.36377 0.95779 0.18026 0.0
C361 C 0.32816 0.98267 0.15313 0.0
C362 C 0.27766 0.02857 0.1622 0.0
C363 C 0.46472 0.76196 0.4168 0.0
C364 C 0.43764 0.72302 0.38977 0.0
C365 C 0.51002 0.81254 0.40897 0.0
C366 C 0.52729 0.82777 0.37383 0.0
H367 H 0.45323 0.75127 0.44416 0.0
H368 H 0.53456 0.83747 0.43058 0.0
S369 S 0.46355 0.74611 0.29336 0.0
N370 N 0.42739 0.70665 0.32632 0.0
N371 N 0.51006 0.80333 0.31186 0.0
C372 C 0.49663 0.79252 0.34659 0.0
C373 C 0.4525 0.73964 0.35449 0.0
C374 C 0.67263 -0.00131 0.64244 0.0
C375 C 0.69128 0.04794 0.61849 0.0
C376 C 0.71953 0.95376 0.65512 0.0
C377 C 0.78657 0.95757 0.64463 0.0
H378 H 0.62227 -0.00396 0.6521 0.0
H379 H 0.70289 0.91542 0.67293 0.0
S380 S 0.85929 0.08093 0.58326 0.0
N381 N 0.78007 0.09893 0.58496 0.0
N382 N 0.86839 0.01713 0.60957 0.0
C383 C 0.80529 0.00777 0.62103 0.0
C384 C 0.75757 0.05203 0.60768 0.0
C385 C 0.49504 0.20152 0.84363 0.0
C386 C 0.46153 0.16326 0.86878 0.0
C387 C 0.53813 0.25167 0.85404 0.0
C388 C 0.54997 0.26457 0.88999 0.0
H389 H 0.48373 0.1963 0.81581 0.0
H390 H 0.56136 0.2814 0.83374 0.0
S391 S 0.47904 0.17389 0.96591 0.0
N392 N 0.44504 0.13899 0.93094 0.0
N393 N 0.52953 0.23134 0.9506 0.0
C394 C 0.52043 0.22363 0.91533 0.0
C395 C 0.47522 0.17343 0.9047 0.0
C396 C 0.72769 0.56453 0.60075 0.0
C397 C 0.79441 0.55556 0.61044 0.0
C398 C 0.68906 0.51261 0.58833 0.0
C399 C 0.71543 0.44951 0.58443 0.0
H400 H 0.70352 0.61158 0.60414 0.0
H401 H 0.6372 0.52132 0.58332 0.0
S402 S 0.88921 0.40078 0.60119 0.0
N403 N 0.88675 0.47962 0.61175 0.0
N404 N 0.81405 0.38144 0.58795 0.0
C405 C 0.78326 0.44045 0.59133 0.0
C406 C 0.82271 0.49354 0.60449 0.0
C407 C 0.98964 0.21208 0.82391 0.0
C408 C 0.0539 0.22736 0.83429 0.0
C409 C 0.93721 0.25332 0.83312 0.0
C410 C 0.94664 0.31006 0.85438 0.0
H411 H 0.9795 0.16678 0.80976 0.0
H412 H 0.88817 0.23808 0.82519 0.0
S413 S 0.10772 0.37327 0.88592 0.0
N414 N 0.12615 0.30535 0.86402 0.0
N415 N 0.02685 0.38147 0.88289 0.0
C416 C 0.01155 0.32784 0.86304 0.0
C417 C 0.06532 0.28653 0.8528 0.0
C418 C 0.2474 0.5023 0.071 0.0
C419 C 0.24766 0.55927 0.09174 0.0
C420 C 0.20534 0.44966 0.07946 0.0
C421 C 0.16317 0.45193 0.10931 0.0
H422 H 0.28195 0.49718 0.04924 0.0
H423 H 0.2091 0.40499 0.06391 0.0
S424 S 0.1437 0.5926 0.17066 0.0
N425 N 0.19958 0.61751 0.14167 0.0
N426 N 0.12205 0.51763 0.15822 0.0
C427 C 0.16021 0.51042 0.12886 0.0
C428 C 0.20252 0.56424 0.12 0.0
C429 C 0.99234 0.76103 0.32742 0.0
C430 C 0.9284 0.74511 0.33855 0.0
C431 C 0.0457 0.72166 0.33691 0.0
C432 C 0.03742 0.66611 0.35899 0.0
H433 H 0.00158 0.80599 0.31282 0.0
H434 H 0.0945 0.7375 0.32861 0.0
S435 S 0.87795 0.60104 0.39249 0.0
N436 N 0.85788 0.66735 0.36985 0.0
N437 N 0.95895 0.5943 0.38888 0.0
C438 C 0.97292 0.64708 0.36815 0.0
C439 C 0.9182 0.68663 0.35778 0.0
loop_
_geom_bond_atom_site_label_1
_geom_bond_atom_site_label_2
_geom_bond_distance
_geom_bond_site_symmetry_2
_ccdc_geom_bond_type
Sc0 O3 2.025 . S
Sc0 O10 2.105 1_455 S
Sc0 O13 2.105 . S
Sc0 O16 2.105 1_455 S
Sc0 O19 2.105 . S
Sc1 O3 2.025 . S
Sc1 O11 2.105 . S
Sc1 O15 2.105 . S
Sc1 O17 2.105 . S
Sc1 O21 2.105 . S
Sc2 O3 2.025 . S
Sc2 O12 2.105 . S
Sc2 O14 2.105 1_455 S
Sc2 O18 2.105 . S
Sc2 O20 2.105 1_455 S
O3 Sc0 2.025 . S
O3 Sc1 2.025 . S
O3 Sc2 2.025 . S
C4 O10 1.268 . S
C4 O20 1.268 . S
C5 O11 1.268 . S
C5 O19 1.268 . S
C6 O12 1.268 . S
C6 O21 1.268 . S
C7 O13 1.268 . S
C7 O17 1.268 . S
C8 O14 1.268 . S
C8 O16 1.268 . S
C9 O15 1.268 . S
C9 O18 1.268 . S
O10 Sc0 2.105 1_655 S
O10 C4 1.268 . S
O11 Sc1 2.105 . S
O11 C5 1.268 . S
O12 Sc2 2.105 . S
O12 C6 1.268 . S
O13 Sc0 2.105 . S
O13 C7 1.268 . S
O14 Sc2 2.105 1_655 S
O14 C8 1.268 . S
O15 Sc1 2.105 . S
O15 C9 1.268 . S
O16 Sc0 2.105 1_655 S
O16 C8 1.268 . S
O17 Sc1 2.105 . S
O17 C7 1.268 . S
O18 Sc2 2.105 . S
O18 C9 1.268 . S
O19 Sc0 2.105 . S
O19 C5 1.268 . S
O20 Sc2 2.105 1_655 S
O20 C4 1.268 . S
O21 Sc1 2.105 . S
O21 C6 1.268 . S
Sc22 O25 2.025 . S
Sc22 O32 2.105 . S
Sc22 O35 2.105 . S
Sc22 O38 2.105 . S
Sc22 O41 2.105 . S
Sc23 O25 2.025 . S
Sc23 O33 2.105 . S
Sc23 O37 2.105 . S
Sc23 O39 2.105 . S
Sc23 O43 2.105 . S
Sc24 O25 2.025 . S
Sc24 O34 2.105 . S
Sc24 O36 2.105 . S
Sc24 O40 2.105 . S
Sc24 O42 2.105 . S
O25 Sc22 2.025 . S
O25 Sc23 2.025 . S
O25 Sc24 2.025 . S
C26 O32 1.268 . S
C26 O42 1.268 . S
C27 O33 1.268 . S
C27 O41 1.268 . S
C28 O34 1.268 . S
C28 O43 1.268 . S
C29 O35 1.268 . S
C29 O39 1.268 . S
C30 O36 1.268 . S
C30 O38 1.268 . S
C31 O37 1.268 . S
C31 O40 1.268 . S
O32 Sc22 2.105 . S
O32 C26 1.268 . S
O33 Sc23 2.105 . S
O33 C27 1.268 . S
O34 Sc24 2.105 . S
O34 C28 1.268 . S
O35 Sc22 2.105 . S
O35 C29 1.268 . S
O36 Sc24 2.105 . S
O36 C30 1.268 . S
O37 Sc23 2.105 . S
O37 C31 1.268 . S
O38 Sc22 2.105 . S
O38 C30 1.268 . S
O39 Sc23 2.105 . S
O39 C29 1.268 . S
O40 Sc24 2.105 . S
O40 C31 1.268 . S
O41 Sc22 2.105 . S
O41 C27 1.268 . S
O42 Sc24 2.105 . S
O42 C26 1.268 . S
O43 Sc23 2.105 . S
O43 C28 1.268 . S
Sc44 O47 2.025 . S
Sc44 O54 2.105 1_655 S
Sc44 O57 2.105 . S
Sc44 O60 2.105 1_655 S
Sc44 O63 2.105 . S
Sc45 O47 2.025 . S
Sc45 O55 2.105 . S
Sc45 O59 2.105 . S
Sc45 O61 2.105 . S
Sc45 O65 2.105 . S
Sc46 O47 2.025 . S
Sc46 O56 2.105 . S
Sc46 O58 2.105 1_655 S
Sc46 O62 2.105 . S
Sc46 O64 2.105 1_655 S
O47 Sc44 2.025 . S
O47 Sc45 2.025 . S
O47 Sc46 2.025 . S
C48 O54 1.268 . S
C48 O64 1.268 . S
C49 O55 1.268 . S
C49 O63 1.268 . S
C50 O56 1.268 . S
C50 O65 1.268 . S
C51 O57 1.268 . S
C51 O61 1.268 . S
C52 O58 1.268 . S
C52 O60 1.268 . S
C53 O59 1.268 . S
C53 O62 1.268 . S
O54 Sc44 2.105 1_455 S
O54 C48 1.268 . S
O55 Sc45 2.105 . S
O55 C49 1.268 . S
O56 Sc46 2.105 . S
O56 C50 1.268 . S
O57 Sc44 2.105 . S
O57 C51 1.268 . S
O58 Sc46 2.105 1_455 S
O58 C52 1.268 . S
O59 Sc45 2.105 . S
O59 C53 1.268 . S
O60 Sc44 2.105 1_455 S
O60 C52 1.268 . S
O61 Sc45 2.105 . S
O61 C51 1.268 . S
O62 Sc46 2.105 . S
O62 C53 1.268 . S
O63 Sc44 2.105 . S
O63 C49 1.268 . S
O64 Sc46 2.105 1_455 S
O64 C48 1.268 . S
O65 Sc45 2.105 . S
O65 C50 1.268 . S
Sc66 O69 2.025 . S
Sc66 O76 2.105 . S
Sc66 O79 2.105 . S
Sc66 O82 2.105 . S
Sc66 O85 2.105 . S
Sc67 O69 2.025 . S
Sc67 O77 2.105 . S
Sc67 O81 2.105 . S
Sc67 O83 2.105 . S
Sc67 O87 2.105 . S
Sc68 O69 2.025 . S
Sc68 O78 2.105 . S
Sc68 O80 2.105 . S
Sc68 O84 2.105 . S
Sc68 O86 2.105 . S
O69 Sc66 2.025 . S
O69 Sc67 2.025 . S
O69 Sc68 2.025 . S
C70 O76 1.268 . S
C70 O86 1.268 . S
C71 O77 1.268 . S
C71 O85 1.268 . S
C72 O78 1.268 . S
C72 O87 1.268 . S
C73 O79 1.268 . S
C73 O83 1.268 . S
C74 O80 1.268 . S
C74 O82 1.268 . S
C75 O81 1.268 . S
C75 O84 1.268 . S
O76 Sc66 2.105 . S
O76 C70 1.268 . S
O77 Sc67 2.105 . S
O77 C71 1.268 . S
O78 Sc68 2.105 . S
O78 C72 1.268 . S
O79 Sc66 2.105 . S
O79 C73 1.268 . S
O80 Sc68 2.105 . S
O80 C74 1.268 . S
O81 Sc67 2.105 . S
O81 C75 1.268 . S
O82 Sc66 2.105 . S
O82 C74 1.268 . S
O83 Sc67 2.105 . S
O83 C73 1.268 . S
O84 Sc68 2.105 . S
O84 C75 1.268 . S
O85 Sc66 2.105 . S
O85 C71 1.268 . S
O86 Sc68 2.105 . S
O86 C70 1.268 . S
O87 Sc67 2.105 . S
O87 C72 1.268 . S
Sc88 O91 2.025 . S
Sc88 O98 2.105 . S
Sc88 O101 2.105 . S
Sc88 O104 2.105 . S
Sc88 O107 2.105 . S
Sc89 O91 2.025 . S
Sc89 O99 2.105 . S
Sc89 O103 2.105 . S
Sc89 O105 2.105 . S
Sc89 O109 2.105 . S
Sc90 O91 2.025 . S
Sc90 O100 2.105 . S
Sc90 O102 2.105 . S
Sc90 O106 2.105 . S
Sc90 O108 2.105 . S
O91 Sc88 2.025 . S
O91 Sc89 2.025 . S
O91 Sc90 2.025 . S
C92 O98 1.268 . S
C92 O108 1.268 . S
C93 O99 1.268 . S
C93 O107 1.268 . S
C94 O100 1.268 . S
C94 O109 1.268 . S
C95 O101 1.268 . S
C95 O105 1.268 . S
C96 O102 1.268 . S
C96 O104 1.268 . S
C97 O103 1.268 . S
C97 O106 1.268 . S
O98 Sc88 2.105 . S
O98 C92 1.268 . S
O99 Sc89 2.105 . S
O99 C93 1.268 . S
O100 Sc90 2.105 . S
O100 C94 1.268 . S
O101 Sc88 2.105 . S
O101 C95 1.268 . S
O102 Sc90 2.105 . S
O102 C96 1.268 . S
O103 Sc89 2.105 . S
O103 C97 1.268 . S
O104 Sc88 2.105 . S
O104 C96 1.268 . S
O105 Sc89 2.105 . S
O105 C95 1.268 . S
O106 Sc90 2.105 . S
O106 C97 1.268 . S
O107 Sc88 2.105 . S
O107 C93 1.268 . S
O108 Sc90 2.105 . S
O108 C92 1.268 . S
O109 Sc89 2.105 . S
O109 C94 1.268 . S
Sc110 O113 2.025 . S
Sc110 O120 2.105 1_545 S
Sc110 O123 2.105 . S
Sc110 O126 2.105 1_545 S
Sc110 O129 2.105 . S
Sc111 O113 2.025 . S
Sc111 O121 2.105 . S
Sc111 O125 2.105 . S
Sc111 O127 2.105 . S
Sc111 O131 2.105 . S
Sc112 O113 2.025 . S
Sc112 O122 2.105 . S
Sc112 O124 2.105 1_545 S
Sc112 O128 2.105 . S
Sc112 O130 2.105 1_545 S
O113 Sc110 2.025 . S
O113 Sc111 2.025 . S
O113 Sc112 2.025 . S
C114 O120 1.268 . S
C114 O130 1.268 . S
C115 O121 1.268 . S
C115 O129 1.268 . S
C116 O122 1.268 . S
C116 O131 1.268 . S
C117 O123 1.268 . S
C117 O127 1.268 . S
C118 O124 1.268 . S
C118 O126 1.268 . S
C119 O125 1.268 . S
C119 O128 1.268 . S
O120 Sc110 2.105 1_565 S
O120 C114 1.268 . S
O121 Sc111 2.105 . S
O121 C115 1.268 . S
O122 Sc112 2.105 . S
O122 C116 1.268 . S
O123 Sc110 2.105 . S
O123 C117 1.268 . S
O124 Sc112 2.105 1_565 S
O124 C118 1.268 . S
O125 Sc111 2.105 . S
O125 C119 1.268 . S
O126 Sc110 2.105 1_565 S
O126 C118 1.268 . S
O127 Sc111 2.105 . S
O127 C117 1.268 . S
O128 Sc112 2.105 . S
O128 C119 1.268 . S
O129 Sc110 2.105 . S
O129 C115 1.268 . S
O130 Sc112 2.105 1_565 S
O130 C114 1.268 . S
O131 Sc111 2.105 . S
O131 C116 1.268 . S
Sc132 O135 2.025 . S
Sc132 O142 2.105 . S
Sc132 O145 2.105 . S
Sc132 O148 2.105 . S
Sc132 O151 2.105 . S
Sc133 O135 2.025 . S
Sc133 O143 2.105 . S
Sc133 O147 2.105 . S
Sc133 O149 2.105 . S
Sc133 O153 2.105 . S
Sc134 O135 2.025 . S
Sc134 O144 2.105 . S
Sc134 O146 2.105 . S
Sc134 O150 2.105 . S
Sc134 O152 2.105 . S
O135 Sc132 2.025 . S
O135 Sc133 2.025 . S
O135 Sc134 2.025 . S
C136 O142 1.268 . S
C136 O152 1.268 . S
C137 O143 1.268 . S
C137 O151 1.268 . S
C138 O144 1.268 . S
C138 O153 1.268 . S
C139 O145 1.268 . S
C139 O149 1.268 . S
C140 O146 1.268 . S
C140 O148 1.268 . S
C141 O147 1.268 . S
C141 O150 1.268 . S
O142 Sc132 2.105 . S
O142 C136 1.268 . S
O143 Sc133 2.105 . S
O143 C137 1.268 . S
O144 Sc134 2.105 . S
O144 C138 1.268 . S
O145 Sc132 2.105 . S
O145 C139 1.268 . S
O146 Sc134 2.105 . S
O146 C140 1.268 . S
O147 Sc133 2.105 . S
O147 C141 1.268 . S
O148 Sc132 2.105 . S
O148 C140 1.268 . S
O149 Sc133 2.105 . S
O149 C139 1.268 . S
O150 Sc134 2.105 . S
O150 C141 1.268 . S
O151 Sc132 2.105 . S
O151 C137 1.268 . S
O152 Sc134 2.105 . S
O152 C136 1.268 . S
O153 Sc133 2.105 . S
O153 C138 1.268 . S
Sc154 O157 2.025 . S
Sc154 O164 2.105 1_565 S
Sc154 O167 2.105 . S
Sc154 O170 2.105 1_565 S
Sc154 O173 2.105 . S
Sc155 O157 2.025 . S
Sc155 O165 2.105 . S
Sc155 O169 2.105 . S
Sc155 O171 2.105 . S
Sc155 O175 2.105 . S
Sc156 O157 2.025 . S
Sc156 O166 2.105 . S
Sc156 O168 2.105 1_565 S
Sc156 O172 2.105 . S
Sc156 O174 2.105 1_565 S
O157 Sc154 2.025 . S
O157 Sc155 2.025 . S
O157 Sc156 2.025 . S
C158 O164 1.268 . S
C158 O174 1.268 . S
C159 O165 1.268 . S
C159 O173 1.268 . S
C160 O166 1.268 . S
C160 O175 1.268 . S
C161 O167 1.268 . S
C161 O171 1.268 . S
C162 O168 1.268 . S
C162 O170 1.268 . S
C163 O169 1.268 . S
C163 O172 1.268 . S
O164 Sc154 2.105 1_545 S
O164 C158 1.268 . S
O165 Sc155 2.105 . S
O165 C159 1.268 . S
O166 Sc156 2.105 . S
O166 C160 1.268 . S
O167 Sc154 2.105 . S
O167 C161 1.268 . S
O168 Sc156 2.105 1_545 S
O168 C162 1.268 . S
O169 Sc155 2.105 . S
O169 C163 1.268 . S
O170 Sc154 2.105 1_545 S
O170 C162 1.268 . S
O171 Sc155 2.105 . S
O171 C161 1.268 . S
O172 Sc156 2.105 . S
O172 C163 1.268 . S
O173 Sc154 2.105 . S
O173 C159 1.268 . S
O174 Sc156 2.105 1_545 S
O174 C158 1.268 . S
O175 Sc155 2.105 . S
O175 C160 1.268 . S
C176 C177 1.369 . S
C176 C178 1.419 . S
C176 H180 0.930 . S
C177 C176 1.369 . S
C177 C186 1.429 . S
C178 C176 1.419 . S
C178 C179 1.363 . S
C178 H181 0.929 . S
C179 C178 1.363 . S
C179 C185 1.428 . S
H180 C176 0.930 . S
H181 C178 0.929 . S
S182 N183 1.613 . S
S182 N184 1.610 1_455 S
N183 S182 1.613 . S
N183 C186 1.350 1_455 S
N184 S182 1.610 1_655 S
N184 C185 1.351 . S
C185 C179 1.428 . S
C185 N184 1.351 . S
C185 C186 1.434 . S
C186 C177 1.429 . S
C186 N183 1.350 1_655 S
C186 C185 1.434 . S
C187 C188 1.369 . S
C187 C189 1.419 . S
C187 H191 0.930 . S
C188 C187 1.369 . S
C188 C197 1.429 . S
C189 C187 1.419 . S
C189 C190 1.363 . S
C189 H192 0.929 . S
C190 C189 1.363 . S
C190 C196 1.428 . S
H191 C187 0.930 . S
H192 C189 0.929 . S
S193 N194 1.613 . S
S193 N195 1.610 . S
N194 S193 1.613 . S
N194 C197 1.350 . S
N195 S193 1.610 . S
N195 C196 1.351 . S
C196 C190 1.428 . S
C196 N195 1.351 . S
C196 C197 1.434 . S
C197 C188 1.429 . S
C197 N194 1.350 . S
C197 C196 1.434 . S
C198 C199 1.369 . S
C198 C200 1.419 . S
C198 H202 0.930 . S
C199 C198 1.369 . S
C199 C208 1.429 . S
C200 C198 1.419 . S
C200 C201 1.363 . S
C200 H203 0.929 . S
C201 C200 1.363 . S
C201 C207 1.428 . S
H202 C198 0.930 . S
H203 C200 0.929 . S
S204 N205 1.613 . S
S204 N206 1.610 1_655 S
N205 S204 1.613 . S
N205 C208 1.350 1_655 S
N206 S204 1.610 1_455 S
N206 C207 1.351 . S
C207 C201 1.428 . S
C207 N206 1.351 . S
C207 C208 1.434 . S
C208 C199 1.429 . S
C208 N205 1.350 1_455 S
C208 C207 1.434 . S
C209 C210 1.369 . S
C209 C211 1.419 1_554 S
C209 H213 0.930 . S
C210 C209 1.369 . S
C210 C219 1.429 . S
C211 C209 1.419 1_556 S
C211 C212 1.363 . S
C211 H214 0.929 . S
C212 C211 1.363 . S
C212 C218 1.428 . S
H213 C209 0.930 . S
H214 C211 0.929 . S
S215 N216 1.613 1_556 S
S215 N217 1.610 . S
N216 S215 1.613 1_554 S
N216 C219 1.350 . S
N217 S215 1.610 . S
N217 C218 1.351 . S
C218 C212 1.428 . S
C218 N217 1.351 . S
C218 C219 1.434 1_556 S
C219 C210 1.429 . S
C219 N216 1.350 . S
C219 C218 1.434 1_554 S
C220 C221 1.369 . S
C220 C222 1.419 . S
C220 H224 0.930 . S
C221 C220 1.369 . S
C221 C230 1.429 . S
C222 C220 1.419 . S
C222 C223 1.363 . S
C222 H225 0.929 . S
C223 C222 1.363 . S
C223 C229 1.428 . S
H224 C220 0.930 . S
H225 C222 0.929 . S
S226 N227 1.613 . S
S226 N228 1.610 . S
N227 S226 1.613 . S
N227 C230 1.350 . S
N228 S226 1.610 . S
N228 C229 1.351 . S
C229 C223 1.428 . S
C229 N228 1.351 . S
C229 C230 1.434 . S
C230 C221 1.429 . S
C230 N227 1.350 . S
C230 C229 1.434 . S
C231 C232 1.369 . S
C231 C233 1.419 . S
C231 H235 0.930 . S
C232 C231 1.369 . S
C232 C241 1.429 . S
C233 C231 1.419 . S
C233 C234 1.363 . S
C233 H236 0.929 . S
C234 C233 1.363 . S
C234 C240 1.428 . S
H235 C231 0.930 . S
H236 C233 0.929 . S
S237 N238 1.613 . S
S237 N239 1.610 . S
N238 S237 1.613 . S
N238 C241 1.350 . S
N239 S237 1.610 . S
N239 C240 1.351 . S
C240 C234 1.428 . S
C240 N239 1.351 . S
C240 C241 1.434 . S
C241 C232 1.429 . S
C241 N238 1.350 . S
C241 C240 1.434 . S
C242 C243 1.369 . S
C242 C244 1.419 . S
C242 H246 0.930 . S
C243 C242 1.369 . S
C243 C252 1.429 . S
C244 C242 1.419 . S
C244 C245 1.363 . S
C244 H247 0.929 . S
C245 C244 1.363 . S
C245 C251 1.428 . S
H246 C242 0.930 . S
H247 C244 0.929 . S
S248 N249 1.613 . S
S248 N250 1.610 . S
N249 S248 1.613 . S
N249 C252 1.350 . S
N250 S248 1.610 . S
N250 C251 1.351 . S
C251 C245 1.428 . S
C251 N250 1.351 . S
C251 C252 1.434 . S
C252 C243 1.429 . S
C252 N249 1.350 . S
C252 C251 1.434 . S
C253 C254 1.369 . S
C253 C255 1.419 . S
C253 H257 0.930 . S
C254 C253 1.369 . S
C254 C263 1.429 . S
C255 C253 1.419 . S
C255 C256 1.363 . S
C255 H258 0.929 . S
C256 C255 1.363 . S
C256 C262 1.429 . S
H257 C253 0.930 . S
H258 C255 0.929 . S
S259 N260 1.613 1_556 S
S259 N261 1.610 . S
N260 S259 1.613 1_554 S
N260 C263 1.350 . S
N261 S259 1.610 . S
N261 C262 1.334 1_556 S
C262 C256 1.429 . S
C262 N261 1.334 1_554 S
C262 C263 1.451 . S
C263 C254 1.429 . S
C263 N260 1.350 . S
C263 C262 1.451 . S
C264 C265 1.369 . S
C264 C266 1.419 . S
C264 H268 0.930 . S
C265 C264 1.369 . S
C265 C274 1.429 . S
C266 C264 1.419 . S
C266 C267 1.363 . S
C266 H269 0.929 . S
C267 C266 1.363 . S
C267 C273 1.428 . S
H268 C264 0.930 . S
H269 C266 0.929 . S
S270 N271 1.613 . S
S270 N272 1.610 . S
N271 S270 1.613 . S
N271 C274 1.350 . S
N272 S270 1.610 . S
N272 C273 1.351 . S
C273 C267 1.428 . S
C273 N272 1.351 . S
C273 C274 1.434 . S
C274 C265 1.429 . S
C274 N271 1.350 . S
C274 C273 1.434 . S
C275 C276 1.369 . S
C275 C277 1.419 . S
C275 H279 0.930 . S
C276 C275 1.369 . S
C276 C285 1.429 . S
C277 C275 1.419 . S
C277 C278 1.363 . S
C277 H280 0.929 . S
C278 C277 1.363 . S
C278 C284 1.428 . S
H279 C275 0.930 . S
H280 C277 0.929 . S
S281 N282 1.613 . S
S281 N283 1.610 . S
N282 S281 1.613 . S
N282 C285 1.350 . S
N283 S281 1.610 . S
N283 C284 1.351 . S
C284 C278 1.428 . S
C284 N283 1.351 . S
C284 C285 1.434 . S
C285 C276 1.429 . S
C285 N282 1.350 . S
C285 C284 1.434 . S
C286 C287 1.369 . S
C286 C288 1.419 . S
C286 H290 0.930 . S
C287 C286 1.369 . S
C287 C296 1.429 . S
C288 C286 1.419 . S
C288 C289 1.363 . S
C288 H291 0.929 . S
C289 C288 1.363 . S
C289 C295 1.428 . S
H290 C286 0.930 . S
H291 C288 0.929 . S
S292 N293 1.613 . S
S292 N294 1.610 1_554 S
N293 S292 1.613 . S
N293 C296 1.350 1_554 S
N294 S292 1.610 1_556 S
N294 C295 1.351 . S
C295 C289 1.428 . S
C295 N294 1.351 . S
C295 C296 1.434 . S
C296 C287 1.429 . S
C296 N293 1.350 1_556 S
C296 C295 1.434 . S
C297 C298 1.369 . S
C297 C299 1.419 . S
C297 H301 0.930 . S
C298 C297 1.369 . S
C298 C307 1.429 . S
C299 C297 1.419 . S
C299 C300 1.363 . S
C299 H302 0.929 . S
C300 C299 1.363 . S
C300 C306 1.428 . S
H301 C297 0.930 . S
H302 C299 0.929 . S
S303 N304 1.613 . S
S303 N305 1.610 . S
N304 S303 1.613 . S
N304 C307 1.350 . S
N305 S303 1.610 . S
N305 C306 1.351 . S
C306 C300 1.428 . S
C306 N305 1.351 . S
C306 C307 1.434 . S
C307 C298 1.429 . S
C307 N304 1.350 . S
C307 C306 1.434 . S
C308 C309 1.369 . S
C308 C310 1.419 1_556 S
C308 H312 0.930 . S
C309 C308 1.369 . S
C309 C318 1.429 . S
C310 C308 1.419 1_554 S
C310 C311 1.363 . S
C310 H313 0.929 . S
C311 C310 1.363 . S
C311 C317 1.428 . S
H312 C308 0.930 . S
H313 C310 0.929 . S
S314 N315 1.613 1_554 S
S314 N316 1.610 . S
N315 S314 1.613 1_556 S
N315 C318 1.350 . S
N316 S314 1.610 . S
N316 C317 1.351 . S
C317 C311 1.428 . S
C317 N316 1.351 . S
C317 C318 1.434 1_554 S
C318 C309 1.429 . S
C318 N315 1.350 . S
C318 C317 1.434 1_556 S
C319 C320 1.369 . S
C319 C321 1.419 . S
C319 H323 0.930 . S
C320 C319 1.369 . S
C320 C329 1.429 . S
C321 C319 1.419 . S
C321 C322 1.363 . S
C321 H324 0.929 . S
C322 C321 1.363 . S
C322 C328 1.428 . S
H323 C319 0.930 . S
H324 C321 0.929 . S
S325 N326 1.613 . S
S325 N327 1.610 . S
N326 S325 1.613 . S
N326 C329 1.350 . S
N327 S325 1.610 . S
N327 C328 1.351 . S
C328 C322 1.428 . S
C328 N327 1.351 . S
C328 C329 1.434 . S
C329 C320 1.429 . S
C329 N326 1.350 . S
C329 C328 1.434 . S
C330 C331 1.369 . S
C330 C332 1.419 . S
C330 H334 0.930 . S
C331 C330 1.369 . S
C331 C340 1.429 . S
C332 C330 1.419 . S
C332 C333 1.363 . S
C332 H335 0.929 . S
C333 C332 1.363 . S
C333 C339 1.428 . S
H334 C330 0.930 . S
H335 C332 0.929 . S
S336 N337 1.613 . S
S336 N338 1.610 . S
N337 S336 1.613 . S
N337 C340 1.350 . S
N338 S336 1.610 . S
N338 C339 1.351 . S
C339 C333 1.428 . S
C339 N338 1.351 . S
C339 C340 1.434 . S
C340 C331 1.429 . S
C340 N337 1.350 . S
C340 C339 1.434 . S
C341 C342 1.369 . S
C341 C343 1.419 . S
C341 H345 0.930 . S
C342 C341 1.369 . S
C342 C351 1.429 . S
C343 C341 1.419 . S
C343 C344 1.363 . S
C343 H346 0.929 . S
C344 C343 1.363 . S
C344 C350 1.428 . S
H345 C341 0.930 . S
H346 C343 0.929 . S
S347 N348 1.613 . S
S347 N349 1.610 . S
N348 S347 1.613 . S
N348 C351 1.350 . S
N349 S347 1.610 . S
N349 C350 1.351 . S
C350 C344 1.428 . S
C350 N349 1.351 . S
C350 C351 1.434 . S
C351 C342 1.429 . S
C351 N348 1.350 . S
C351 C350 1.434 . S
C352 C353 1.369 1_565 S
C352 C354 1.419 . S
C352 H356 0.930 . S
C353 C352 1.369 1_545 S
C353 C362 1.429 . S
C354 C352 1.419 . S
C354 C355 1.363 . S
C354 H357 0.929 . S
C355 C354 1.363 . S
C355 C361 1.428 1_565 S
H356 C352 0.930 . S
H357 C354 0.929 . S
S358 N359 1.613 . S
S358 N360 1.610 . S
N359 S358 1.613 . S
N359 C362 1.350 . S
N360 S358 1.610 . S
N360 C361 1.351 . S
C361 C355 1.428 1_545 S
C361 N360 1.351 . S
C361 C362 1.434 . S
C362 C353 1.429 . S
C362 N359 1.350 . S
C362 C361 1.434 . S
C363 C364 1.369 . S
C363 C365 1.419 . S
C363 H367 0.930 . S
C364 C363 1.369 . S
C364 C373 1.429 . S
C365 C363 1.419 . S
C365 C366 1.363 . S
C365 H368 0.929 . S
C366 C365 1.363 . S
C366 C372 1.428 . S
H367 C363 0.930 . S
H368 C365 0.929 . S
S369 N370 1.613 . S
S369 N371 1.610 . S
N370 S369 1.613 . S
N370 C373 1.350 . S
N371 S369 1.610 . S
N371 C372 1.351 . S
C372 C366 1.428 . S
C372 N371 1.351 . S
C372 C373 1.434 . S
C373 C364 1.429 . S
C373 N370 1.350 . S
C373 C372 1.434 . S
C374 C375 1.369 . S
C374 C376 1.419 1_545 S
C374 H378 0.930 . S
C375 C374 1.369 . S
C375 C384 1.429 . S
C376 C374 1.419 1_565 S
C376 C377 1.363 . S
C376 H379 0.929 . S
C377 C376 1.363 . S
C377 C383 1.428 . S
H378 C374 0.930 . S
H379 C376 0.929 . S
S380 N381 1.613 . S
S380 N382 1.610 1_545 S
N381 S380 1.613 . S
N381 C384 1.350 . S
N382 S380 1.610 1_565 S
N382 C383 1.351 . S
C383 C377 1.428 . S
C383 N382 1.351 . S
C383 C384 1.434 1_565 S
C384 C375 1.429 . S
C384 N381 1.350 . S
C384 C383 1.434 1_545 S
C385 C386 1.369 . S
C385 C387 1.419 . S
C385 H389 0.930 . S
C386 C385 1.369 . S
C386 C395 1.429 . S
C387 C385 1.419 . S
C387 C388 1.363 . S
C387 H390 0.929 . S
C388 C387 1.363 . S
C388 C394 1.428 . S
H389 C385 0.930 . S
H390 C387 0.929 . S
S391 N392 1.613 . S
S391 N393 1.610 . S
N392 S391 1.613 . S
N392 C395 1.350 . S
N393 S391 1.610 . S
N393 C394 1.351 . S
C394 C388 1.428 . S
C394 N393 1.351 . S
C394 C395 1.434 . S
C395 C386 1.429 . S
C395 N392 1.350 . S
C395 C394 1.434 . S
C396 C397 1.369 . S
C396 C398 1.419 . S
C396 H400 0.930 . S
C397 C396 1.369 . S
C397 C406 1.429 . S
C398 C396 1.419 . S
C398 C399 1.363 . S
C398 H401 0.929 . S
C399 C398 1.363 . S
C399 C405 1.428 . S
H400 C396 0.930 . S
H401 C398 0.929 . S
S402 N403 1.613 . S
S402 N404 1.610 . S
N403 S402 1.613 . S
N403 C406 1.350 . S
N404 S402 1.610 . S
N404 C405 1.351 . S
C405 C399 1.428 . S
C405 N404 1.351 . S
C405 C406 1.434 . S
C406 C397 1.429 . S
C406 N403 1.350 . S
C406 C405 1.434 . S
C407 C408 1.369 1_655 S
C407 C409 1.419 . S
C407 H411 0.930 . S
C408 C407 1.369 1_455 S
C408 C417 1.429 . S
C409 C407 1.419 . S
C409 C410 1.363 . S
C409 H412 0.929 . S
C410 C409 1.363 . S
C410 C416 1.428 1_655 S
H411 C407 0.930 . S
H412 C409 0.929 . S
S413 N414 1.613 . S
S413 N415 1.610 . S
N414 S413 1.613 . S
N414 C417 1.350 . S
N415 S413 1.610 . S
N415 C416 1.351 . S
C416 C410 1.428 1_455 S
C416 N415 1.351 . S
C416 C417 1.434 . S
C417 C408 1.429 . S
C417 N414 1.350 . S
C417 C416 1.434 . S
C418 C419 1.369 . S
C418 C420 1.419 . S
C418 H422 0.930 . S
C419 C418 1.369 . S
C419 C428 1.429 . S
C420 C418 1.419 . S
C420 C421 1.363 . S
C420 H423 0.929 . S
C421 C420 1.363 . S
C421 C427 1.428 . S
H422 C418 0.930 . S
H423 C420 0.929 . S
S424 N425 1.613 . S
S424 N426 1.610 . S
N425 S424 1.613 . S
N425 C428 1.350 . S
N426 S424 1.610 . S
N426 C427 1.351 . S
C427 C421 1.428 . S
C427 N426 1.351 . S
C427 C428 1.434 . S
C428 C419 1.429 . S
C428 N425 1.350 . S
C428 C427 1.434 . S
C429 C430 1.369 1_455 S
C429 C431 1.419 . S
C429 H433 0.930 . S
C430 C429 1.369 1_655 S
C430 C439 1.429 . S
C431 C429 1.419 . S
C431 C432 1.363 . S
C431 H434 0.929 . S
C432 C431 1.363 . S
C432 C438 1.428 1_455 S
H433 C429 0.930 . S
H434 C431 0.929 . S
S435 N436 1.613 . S
S435 N437 1.610 . S
N436 S435 1.613 . S
N436 C439 1.350 . S
N437 S435 1.610 . S
N437 C438 1.351 . S
C438 C432 1.428 1_655 S
C438 N437 1.351 . S
C438 C439 1.434 . S
C439 C430 1.429 . S
C439 N436 1.350 . S
C439 C438 1.434 . S
C177 C8 1.671 . S
C179 C158 1.671 . S
C188 C26 1.670 . S
C190 C92 1.670 . S
C199 C52 1.671 . S
C201 C118 1.671 . S
C210 C136 1.671 . S
C212 C74 1.671 . S
C221 C9 1.450 . S
C223 C30 1.527 . S
C232 C48 1.528 . S
C234 C27 1.447 . S
C243 C70 1.528 . S
C245 C53 1.447 . S
C254 C4 1.529 . S
C256 C75 1.441 1_554 S
C265 C93 1.450 . S
C267 C162 1.527 . S
C276 C119 1.450 . S
C278 C96 1.526 . S
C287 C137 1.439 1_556 S
C289 C114 1.527 . S
C298 C140 1.529 . S
C300 C159 1.441 . S
C309 C115 0.955 . S
C311 C5 0.950 . S
C320 C141 0.958 . S
C322 C31 0.955 . S
C331 C163 0.953 . S
C333 C49 0.950 . S
C342 C97 0.958 . S
C344 C71 0.955 . S
C353 C7 1.472 . S
C355 C139 1.539 . S
C364 C28 1.478 . S
C366 C161 1.531 . S
C375 C95 1.531 . S
C377 C51 1.470 . S
C386 C116 1.535 . S
C388 C73 1.480 . S
C397 C50 1.540 . S
C399 C94 1.473 . S
C408 C117 1.467 . S
C410 C72 1.534 . S
C419 C138 1.470 . S
C421 C6 1.531 . S
C430 C160 1.467 . S
C432 C29 1.535 . S
