# Generated by pormake.
# Topology mok, (4)-cn, num edge types: 1
# Building blocks:
#     Node 0, Type 0, BuildingBlock: CEKHIL_clean_sbu_0, # of connection points: 4
#     Node 1, Type 0, BuildingBlock: CEKHIL_clean_sbu_0, # of connection points: 4
#     Node 2, Type 0, BuildingBlock: CEKHIL_clean_sbu_0, # of connection points: 4
#     Node 3, Type 0, BuildingBlock: CEKHIL_clean_sbu_0, # of connection points: 4
#     Node 4, Type 0, BuildingBlock: CEKHIL_clean_sbu_0, # of connection points: 4
#     Node 5, Type 0, BuildingBlock: CEKHIL_clean_sbu_0, # of connection points: 4
#     Node 6, Type 0, BuildingBlock: CEKHIL_clean_sbu_0, # of connection points: 4
#     Node 7, Type 0, BuildingBlock: CEKHIL_clean_sbu_0, # of connection points: 4
#     Edge 8, Type (0, 0), BuildingBlock: UVAHIK_clean_linker_0, # of connection points: 2
#     Edge 9, Type (0, 0), BuildingBlock: UVAHIK_clean_linker_0, # of connection points: 2
#     Edge 10, Type (0, 0), BuildingBlock: UVAHIK_clean_linker_0, # of connection points: 2
#     Edge 11, Type (0, 0), BuildingBlock: UVAHIK_clean_linker_0, # of connection points: 2
#     Edge 12, Type (0, 0), BuildingBlock: UVAHIK_clean_linker_0, # of connection points: 2
#     Edge 13, Type (0, 0), BuildingBlock: UVAHIK_clean_linker_0, # of connection points: 2
#     Edge 14, Type (0, 0), BuildingBlock: UVAHIK_clean_linker_0, # of connection points: 2
#     Edge 15, Type (0, 0), BuildingBlock: UVAHIK_clean_linker_0, # of connection points: 2
#     Edge 16, Type (0, 0), BuildingBlock: UVAHIK_clean_linker_0, # of connection points: 2
#     Edge 17, Type (0, 0), BuildingBlock: UVAHIK_clean_linker_0, # of connection points: 2
#     Edge 18, Type (0, 0), BuildingBlock: UVAHIK_clean_linker_0, # of connection points: 2
#     Edge 19, Type (0, 0), BuildingBlock: UVAHIK_clean_linker_0, # of connection points: 2
#     Edge 20, Type (0, 0), BuildingBlock: UVAHIK_clean_linker_0, # of connection points: 2
#     Edge 21, Type (0, 0), BuildingBlock: UVAHIK_clean_linker_0, # of connection points: 2
#     Edge 22, Type (0, 0), BuildingBlock: UVAHIK_clean_linker_0, # of connection points: 2
#     Edge 23, Type (0, 0), BuildingBlock: UVAHIK_clean_linker_0, # of connection points: 2
# Relax obj value: 0.017
# Max RMSD: 0.041
# Mean RMSD: 0.041
data_MOF--net-mok--node1-CEKHIL_clean_sbu_0--edge1-UVAHIK_clean_linker_0
_symmetry_space_group_name_H-M    P1
_symmetry_Int_Tables_number       1
_symmetry_cell_setting            triclinic
loop_
_symmetry_equiv_pos_as_xyz
'x, y, z'
_cell_length_a     68.952779
_cell_length_b     19.826548
_cell_length_c     35.304448
_cell_angle_alpha  90.006183
_cell_angle_beta   89.957551
_cell_angle_gamma 90.078243
loop_
_atom_site_label
_atom_site_type_symbol
_atom_site_fract_x
_atom_site_fract_y
_atom_site_fract_z
_atom_type_partial_charge
Co0 Co 0.61218 0.30224 0.01165 0.0
O1 O 0.58462 0.28625 0.01194 0.0
O2 O 0.60629 0.21353 0.99071 0.0
C3 C 0.61389 0.3421 0.07135 0.0
O4 O 0.642 0.3015 0.00848 0.0
Co5 Co 0.62756 0.44925 0.02168 0.0
O6 O 0.65296 0.40365 0.0266 0.0
C7 C 0.60983 0.40785 0.94936 0.0
C8 C 0.58815 0.22762 -0.00271 0.0
C9 C 0.65595 0.3425 0.01703 0.0
O10 O 0.60997 0.34568 0.96004 0.0
O11 O 0.6146 0.45676 0.97115 0.0
O12 O 0.61384 0.27744 0.06527 0.0
O13 O 0.61115 0.37922 0.04191 0.0
Co14 Co 0.40161 0.69458 0.01294 0.0
O15 O 0.42922 0.70902 0.01286 0.0
O16 O 0.40781 0.78402 0.99324 0.0
C17 C 0.40001 0.65176 0.07203 0.0
O18 O 0.37177 0.69677 0.0104 0.0
Co19 Co 0.38577 0.54765 0.02105 0.0
O20 O 0.36061 0.59428 0.02748 0.0
C21 C 0.40349 0.59178 0.94918 0.0
C22 C 0.42592 0.76846 -0.00089 0.0
C23 C 0.35775 0.65592 0.01881 0.0
O24 O 0.40343 0.65353 0.96064 0.0
O25 O 0.39872 0.54209 0.9704 0.0
O26 O 0.4003 0.71671 0.06704 0.0
O27 O 0.40247 0.61615 0.04192 0.0
Co28 Co 0.61066 0.69414 0.49709 0.0
O29 O 0.58309 0.70905 0.49664 0.0
O30 O 0.60453 0.78315 0.5174 0.0
C31 C 0.61253 0.65279 0.43767 0.0
O32 O 0.64049 0.69571 0.50034 0.0
Co33 Co 0.62618 0.54701 0.488 0.0
O34 O 0.65158 0.59303 0.48358 0.0
C35 C 0.6076 0.58925 0.55933 0.0
C36 C 0.58643 0.76807 0.51096 0.0
C37 C 0.65449 0.65456 0.49252 0.0
O38 O 0.60844 0.65156 0.54899 0.0
O39 O 0.61212 0.5402 0.53746 0.0
O40 O 0.61235 0.71763 0.44315 0.0
O41 O 0.60982 0.61656 0.46745 0.0
Co42 Co 0.40105 0.30379 0.49845 0.0
O43 O 0.42855 0.28714 0.49775 0.0
O44 O 0.40681 0.21555 0.52007 0.0
C45 C 0.39914 0.34197 0.4384 0.0
O46 O 0.37124 0.30397 0.5022 0.0
Co47 Co 0.38609 0.45102 0.48724 0.0
O48 O 0.36047 0.40617 0.48389 0.0
C49 C 0.40454 0.41154 0.55915 0.0
C50 C 0.42495 0.22902 0.51297 0.0
C51 C 0.35736 0.34529 0.4939 0.0
O52 O 0.40365 0.34885 0.54959 0.0
O53 O 0.40005 0.45975 0.53669 0.0
O54 O 0.39903 0.27749 0.44504 0.0
O55 O 0.40214 0.37978 0.46747 0.0
Co56 Co 0.11158 0.81044 0.01241 0.0
O57 O 0.08403 0.79493 0.01421 0.0
O58 O 0.10535 0.72066 0.99331 0.0
C59 C 0.11415 0.85375 0.07127 0.0
O60 O 0.14136 0.80929 0.00792 0.0
Co61 Co 0.12694 0.95822 0.01873 0.0
O62 O 0.15254 0.91346 0.02159 0.0
C63 C 0.10811 0.91244 0.94843 0.0
C64 C 0.0873 0.73555 0.00032 0.0
C65 C 0.15539 0.85143 0.01381 0.0
O66 O 0.10875 0.85087 0.9601 0.0
O67 O 0.11293 0.96271 0.96917 0.0
O68 O 0.1139 0.78877 0.0664 0.0
O69 O 0.111 0.88912 0.04131 0.0
Co70 Co 0.90226 0.19424 0.0117 0.0
O71 O 0.92974 0.21153 0.01346 0.0
O72 O 0.90807 0.28369 0.99171 0.0
C73 C 0.89981 0.15268 0.07099 0.0
O74 O 0.8725 0.1936 0.0071 0.0
Co75 Co 0.88749 0.04593 0.01971 0.0
O76 O 0.86168 0.08944 0.02183 0.0
C77 C 0.90672 0.08988 0.94943 0.0
C78 C 0.92618 0.27028 -0.00097 0.0
C79 C 0.85861 0.15106 0.01339 0.0
O80 O 0.90537 0.15204 0.95985 0.0
O81 O 0.90228 0.04035 0.97102 0.0
O82 O 0.89976 0.21751 0.06551 0.0
O83 O 0.90315 0.11663 0.04137 0.0
Co84 Co 0.11074 0.19653 0.49831 0.0
O85 O 0.08321 0.21215 0.49639 0.0
O86 O 0.10442 0.28444 0.51991 0.0
C87 C 0.11362 0.15906 0.43824 0.0
O88 O 0.14049 0.19708 0.50341 0.0
Co89 Co 0.12588 0.04936 0.48771 0.0
O90 O 0.15156 0.09416 0.4869 0.0
C91 C 0.10651 0.08834 0.55872 0.0
C92 C 0.08641 0.2702 0.51202 0.0
C93 C 0.15448 0.15534 0.49657 0.0
O94 O 0.10757 0.15104 0.54925 0.0
O95 O 0.11122 0.04018 0.53639 0.0
O96 O 0.11342 0.22345 0.44512 0.0
O97 O 0.11024 0.12084 0.467 0.0
Co98 Co 0.90083 0.80607 0.49754 0.0
O99 O 0.92833 0.78927 0.49618 0.0
O100 O 0.90665 0.71738 0.51849 0.0
C101 C 0.8985 0.84544 0.43781 0.0
O102 O 0.87104 0.80625 0.50189 0.0
Co103 Co 0.88597 0.95369 0.48807 0.0
O104 O 0.86024 0.90952 0.48555 0.0
C105 C 0.90432 0.91194 0.55961 0.0
C106 C 0.92477 0.73092 0.51119 0.0
C107 C 0.85715 0.84823 0.49477 0.0
O108 O 0.90374 0.84976 0.54898 0.0
O109 O 0.89958 0.96101 0.53796 0.0
O110 O 0.89847 0.78084 0.4441 0.0
O111 O 0.90176 0.88278 0.46699 0.0
C112 C 0.82332 0.12343 0.00708 0.0
C113 C 0.83798 0.17261 0.01043 0.0
C114 C 0.80378 0.14156 0.00595 0.0
C115 C 0.77042 0.2862 0.99033 0.0
H116 H 0.73362 0.17034 0.04232 0.0
C117 C 0.69159 0.36742 0.01996 0.0
C118 C 0.67656 0.31998 0.0149 0.0
C119 C 0.71103 0.34825 0.01785 0.0
C120 C 0.74366 0.20276 0.02724 0.0
H121 H 0.84338 0.28 0.01463 0.0
H122 H 0.80907 0.31193 0.01344 0.0
H123 H 0.76796 0.14159 0.04235 0.0
H124 H 0.6705 0.21451 0.00375 0.0
H125 H 0.70469 0.18078 0.00026 0.0
H126 H 0.74605 0.348 0.97589 0.0
C127 C 0.81281 0.25907 0.01112 0.0
C128 C 0.76341 0.18634 0.02722 0.0
C129 C 0.8325 0.24084 0.01193 0.0
C130 C 0.68163 0.25242 0.0078 0.0
C131 C 0.70122 0.23307 0.00594 0.0
C132 C 0.75067 0.30282 0.99056 0.0
C133 C 0.79816 0.2095 0.00849 0.0
C134 C 0.7771 0.22778 0.00875 0.0
C135 C 0.71615 0.28095 0.01079 0.0
C136 C 0.73704 0.26142 0.00911 0.0
H137 H 0.82692 0.07036 0.00526 0.0
H138 H 0.79306 0.10198 0.00289 0.0
H139 H 0.7804 0.31877 0.97525 0.0
H140 H 0.6884 0.41997 0.02553 0.0
H141 H 0.72209 0.38626 0.02235 0.0
C142 C 0.1813 0.76088 0.0143 0.0
C143 C 0.17596 0.82904 0.01109 0.0
C144 C 0.20096 0.74215 0.01387 0.0
C145 C 0.2505 0.81523 0.02787 0.0
H146 H 0.26759 0.64915 0.98079 0.0
C147 C 0.33217 0.74622 0.00898 0.0
C148 C 0.33717 0.6791 0.01743 0.0
C149 C 0.3126 0.76585 0.00723 0.0
C150 C 0.26304 0.69558 0.99428 0.0
H151 H 0.1872 0.93048 0.00315 0.0
H152 H 0.22099 0.89794 0.00139 0.0
H153 H 0.23329 0.67881 0.97959 0.0
H154 H 0.32522 0.58034 0.03095 0.0
H155 H 0.29159 0.61454 0.02795 0.0
H156 H 0.28032 0.83205 0.04232 0.0
C157 C 0.2102 0.8589 0.00556 0.0
C158 C 0.24332 0.71246 0.99372 0.0
C159 C 0.1907 0.87754 0.00633 0.0
C160 C 0.3221 0.63249 0.0242 0.0
C161 C 0.30268 0.65192 0.02222 0.0
C162 C 0.27023 0.79853 0.02821 0.0
C163 C 0.2157 0.79114 0.00989 0.0
C164 C 0.23673 0.77249 0.01059 0.0
C165 C 0.29762 0.71867 0.01356 0.0
C166 C 0.27675 0.73831 0.01161 0.0
H167 H 0.17034 0.72226 0.01811 0.0
H168 H 0.20461 0.68947 0.01756 0.0
H169 H 0.24601 0.86129 0.04181 0.0
H170 H 0.34333 0.78349 0.0036 0.0
H171 H 0.30918 0.81771 0.00033 0.0
C172 C 0.83106 0.75818 0.49755 0.0
C173 C 0.83651 0.82654 0.49775 0.0
C174 C 0.81136 0.73975 0.4985 0.0
C175 C 0.76199 0.81076 0.48042 0.0
H176 H 0.74447 0.65264 0.53511 0.0
C177 C 0.68014 0.74542 0.50044 0.0
C178 C 0.67509 0.67739 0.49469 0.0
C179 C 0.69973 0.76505 0.50216 0.0
C180 C 0.74914 0.69681 0.51951 0.0
H181 H 0.82539 0.9289 0.50069 0.0
H182 H 0.79154 0.897 0.50328 0.0
H183 H 0.77883 0.68214 0.53534 0.0
H184 H 0.68697 0.57684 0.48645 0.0
H185 H 0.72064 0.61101 0.4894 0.0
H186 H 0.73225 0.82549 0.46478 0.0
C187 C 0.80228 0.85739 0.50115 0.0
C188 C 0.76889 0.71357 0.51951 0.0
C189 C 0.82182 0.8757 0.4999 0.0
C190 C 0.69014 0.62976 0.49093 0.0
C191 C 0.70957 0.64921 0.49291 0.0
C192 C 0.74224 0.79421 0.48063 0.0
C193 C 0.79669 0.78926 0.49995 0.0
C194 C 0.77563 0.77073 0.49988 0.0
C195 C 0.71467 0.717 0.49855 0.0
C196 C 0.73556 0.73681 0.49999 0.0
H197 H 0.84196 0.71902 0.49582 0.0
H198 H 0.80764 0.68673 0.49724 0.0
H199 H 0.7666 0.85447 0.46437 0.0
H200 H 0.669 0.78348 0.50346 0.0
H201 H 0.70317 0.81773 0.50673 0.0
C202 C 0.18056 0.24546 0.49939 0.0
C203 C 0.17508 0.17715 0.50028 0.0
C204 C 0.20027 0.26381 0.50057 0.0
C205 C 0.2496 0.19152 0.48392 0.0
H206 H 0.26721 0.35162 0.53662 0.0
C207 C 0.33148 0.25571 0.50322 0.0
C208 C 0.3367 0.32334 0.49664 0.0
C209 C 0.31185 0.23676 0.50525 0.0
C210 C 0.26252 0.30689 0.52157 0.0
H211 H 0.18611 0.07489 0.50493 0.0
H212 H 0.21996 0.10668 0.50793 0.0
H213 H 0.2328 0.32269 0.53701 0.0
H214 H 0.32509 0.42396 0.48737 0.0
H215 H 0.29132 0.39094 0.49086 0.0
H216 H 0.27934 0.17567 0.46863 0.0
C217 C 0.20925 0.14626 0.50503 0.0
C218 C 0.24274 0.29044 0.52167 0.0
C219 C 0.18971 0.12802 0.50354 0.0
C220 C 0.32178 0.37132 0.49247 0.0
C221 C 0.30229 0.35254 0.49476 0.0
C222 C 0.26937 0.20777 0.48402 0.0
C223 C 0.2149 0.21426 0.50295 0.0
C224 C 0.23597 0.23255 0.50279 0.0
C225 C 0.29702 0.28511 0.50113 0.0
C226 C 0.27609 0.26584 0.50267 0.0
H227 H 0.16969 0.28457 0.4968 0.0
H228 H 0.20403 0.31673 0.49865 0.0
H229 H 0.24497 0.14722 0.46842 0.0
H230 H 0.34252 0.2174 0.50658 0.0
H231 H 0.30828 0.18436 0.51043 0.0
C232 C 0.61859 0.33103 0.14142 0.0
C233 C 0.6169 0.37196 0.10916 0.0
C234 C 0.62036 0.36018 0.17733 0.0
C235 C 0.63242 0.51979 0.22662 0.0
H236 H 0.59978 0.44692 0.30618 0.0
C237 C 0.61683 0.66079 0.36724 0.0
C238 C 0.61574 0.62155 0.40027 0.0
C239 C 0.61874 0.6298 0.33181 0.0
C240 C 0.60921 0.46736 0.28446 0.0
H241 H 0.61623 0.47532 0.08897 0.0
H242 H 0.61919 0.52595 0.15146 0.0
H243 H 0.6004 0.39236 0.24447 0.0
H244 H 0.61646 0.51939 0.42231 0.0
H245 H 0.62009 0.46573 0.36088 0.0
H246 H 0.64106 0.59529 0.26664 0.0
C247 C 0.61933 0.47148 0.14912 0.0
C248 C 0.60957 0.43599 0.24909 0.0
C249 C 0.61751 0.4424 0.11333 0.0
C250 C 0.61711 0.55106 0.39735 0.0
C251 C 0.61908 0.52021 0.3621 0.0
C252 C 0.63208 0.55118 0.26207 0.0
C253 C 0.62055 0.43074 0.18157 0.0
C254 C 0.6211 0.46205 0.21971 0.0
C255 C 0.61962 0.55906 0.32886 0.0
C256 C 0.6204 0.52543 0.29133 0.0
H257 H 0.61824 0.27658 0.13901 0.0
H258 H 0.6215 0.32749 0.20181 0.0
H259 H 0.64161 0.54062 0.20462 0.0
H260 H 0.6158 0.71524 0.36868 0.0
H261 H 0.61897 0.66111 0.30667 0.0
C262 C 0.39549 0.54932 0.1119 0.0
C263 C 0.39689 0.61985 0.10928 0.0
C264 C 0.39351 0.518 0.14703 0.0
C265 C 0.38043 0.54819 0.24713 0.0
H266 H 0.41198 0.38939 0.2647 0.0
C267 C 0.39544 0.44137 0.39589 0.0
C268 C 0.396 0.37101 0.40045 0.0
C269 C 0.39349 0.46979 0.35997 0.0
C270 C 0.40284 0.43299 0.26006 0.0
H271 H 0.39691 0.71312 0.14128 0.0
H272 H 0.39372 0.65821 0.20303 0.0
H273 H 0.41259 0.44383 0.20293 0.0
H274 H 0.39449 0.27509 0.37116 0.0
H275 H 0.39103 0.3249 0.3081 0.0
H276 H 0.37097 0.53783 0.30461 0.0
C277 C 0.39392 0.6272 0.17777 0.0
C278 C 0.4032 0.46429 0.22467 0.0
C279 C 0.39585 0.65865 0.14248 0.0
C280 C 0.39416 0.32949 0.36844 0.0
C281 C 0.39227 0.358 0.33239 0.0
C282 C 0.3801 0.5169 0.28259 0.0
C283 C 0.39297 0.55644 0.18043 0.0
C284 C 0.39209 0.52246 0.21785 0.0
C285 C 0.3921 0.4285 0.32778 0.0
C286 C 0.39141 0.45924 0.2895 0.0
H287 H 0.39612 0.518 0.08679 0.0
H288 H 0.39247 0.46351 0.14803 0.0
H289 H 0.3715 0.59234 0.24259 0.0
H290 H 0.39684 0.47475 0.42002 0.0
H291 H 0.39367 0.52422 0.35735 0.0
C292 C 0.41212 0.62862 0.88304 0.0
C293 C 0.40855 0.57669 0.90925 0.0
C294 C 0.41556 0.6135 0.8449 0.0
C295 C 0.42793 0.47305 0.77933 0.0
H296 H 0.39885 0.5783 0.70643 0.0
C297 C 0.41027 0.38135 0.62743 0.0
C298 C 0.40997 0.42986 0.5984 0.0
C299 C 0.41339 0.40086 0.66505 0.0
C300 C 0.40734 0.54903 0.72629 0.0
H301 H 0.40654 0.46789 0.916 0.0
H302 H 0.41221 0.44204 0.84988 0.0
H303 H 0.3987 0.61126 0.77274 0.0
H304 H 0.41403 0.53627 0.58588 0.0
H305 H 0.41966 0.56974 0.65109 0.0
H306 H 0.43612 0.40975 0.73279 0.0
C307 C 0.41259 0.49434 0.85871 0.0
C308 C 0.40728 0.56805 0.76433 0.0
C309 C 0.40914 0.50936 0.89668 0.0
C310 C 0.41384 0.49762 0.60756 0.0
C311 C 0.41701 0.51697 0.64499 0.0
C312 C 0.42796 0.45393 0.74121 0.0
C313 C 0.41556 0.54618 0.83226 0.0
C314 C 0.41734 0.52976 0.79138 0.0
C315 C 0.41635 0.46916 0.67427 0.0
C316 C 0.41748 0.4913 0.71436 0.0
H317 H 0.41189 0.68099 0.89177 0.0
H318 H 0.41803 0.65455 0.82523 0.0
H319 H 0.43604 0.44301 0.79943 0.0
H320 H 0.40737 0.32875 0.62134 0.0
H321 H 0.41269 0.36285 0.68704 0.0
C322 C 0.60062 0.37331 0.88318 0.0
C323 C 0.60473 0.42434 0.90964 0.0
C324 C 0.59714 0.38951 0.84522 0.0
C325 C 0.5857 0.53225 0.7806 0.0
H326 H 0.61318 0.42413 0.70657 0.0
C327 C 0.60262 0.62123 0.6276 0.0
C328 C 0.60222 0.57231 0.5988 0.0
C329 C 0.59968 0.60254 0.66542 0.0
C330 C 0.60513 0.45427 0.72676 0.0
H331 H 0.60768 0.53275 0.91702 0.0
H332 H 0.60194 0.56046 0.85114 0.0
H333 H 0.61362 0.39097 0.77281 0.0
H334 H 0.59702 0.4663 0.58685 0.0
H335 H 0.59169 0.43429 0.65239 0.0
H336 H 0.57766 0.59653 0.73439 0.0
C337 C 0.60117 0.50805 0.85967 0.0
C338 C 0.60536 0.43513 0.76477 0.0
C339 C 0.60464 0.49195 0.89749 0.0
C340 C 0.59778 0.50517 0.60837 0.0
C341 C 0.59477 0.48666 0.64598 0.0
C342 C 0.5855 0.5515 0.7425 0.0
C343 C 0.59766 0.45703 0.83297 0.0
C344 C 0.59584 0.47428 0.79221 0.0
C345 C 0.5962 0.5347 0.67504 0.0
C346 C 0.59537 0.513 0.71523 0.0
H347 H 0.60044 0.32077 0.89157 0.0
H348 H 0.59423 0.34909 0.82537 0.0
H349 H 0.57801 0.56303 0.80102 0.0
H350 H 0.60597 0.67337 0.62116 0.0
H351 H 0.60096 0.64069 0.68724 0.0
C352 C 0.11922 0.9563 0.1109 0.0
C353 C 0.11772 0.88579 0.10834 0.0
C354 C 0.12146 0.98762 0.14599 0.0
C355 C 0.13457 0.95695 0.24622 0.0
H356 H 0.1029 0.1154 0.26405 0.0
C357 C 0.11814 0.0605 0.39529 0.0
C358 C 0.11737 0.13074 0.40029 0.0
C359 C 0.12058 0.03289 0.35927 0.0
C360 C 0.11209 0.07191 0.25936 0.0
H361 H 0.11789 0.79255 0.14035 0.0
H362 H 0.1215 0.8474 0.20197 0.0
H363 H 0.10265 0.06203 0.20201 0.0
H364 H 0.1191 0.2273 0.37172 0.0
H365 H 0.12342 0.17895 0.30851 0.0
H366 H 0.14367 0.96625 0.30398 0.0
C367 C 0.12119 0.87844 0.17674 0.0
C368 C 0.11194 0.04123 0.22379 0.0
C369 C 0.11901 0.84701 0.14151 0.0
C370 C 0.11956 0.17296 0.36866 0.0
C371 C 0.12195 0.14529 0.33251 0.0
C372 C 0.13469 0.98762 0.28188 0.0
C373 C 0.12216 0.94919 0.17939 0.0
C374 C 0.12306 0.9831 0.21686 0.0
C375 C 0.12226 0.07491 0.32741 0.0
C376 C 0.12331 0.04508 0.28891 0.0
H377 H 0.11843 0.98757 0.0858 0.0
H378 H 0.12253 0.04211 0.14697 0.0
H379 H 0.14352 0.91283 0.24164 0.0
H380 H 0.1165 0.02661 0.41914 0.0
H381 H 0.12052 0.97852 0.35625 0.0
C382 C 0.89308 0.83343 0.36801 0.0
C383 C 0.89513 0.87484 0.40001 0.0
C384 C 0.89105 0.86199 0.33202 0.0
C385 C 0.87901 0.02081 0.28205 0.0
H386 H 0.91137 0.94656 0.20254 0.0
C387 C 0.89489 0.16066 0.14124 0.0
C388 C 0.89624 0.12137 0.10826 0.0
C389 C 0.89272 0.12973 0.17663 0.0
C390 C 0.902 0.96735 0.22421 0.0
H391 H 0.8961 0.97849 0.41967 0.0
H392 H 0.89268 0.02816 0.357 0.0
H393 H 0.91078 0.89284 0.26445 0.0
H394 H 0.89563 0.0192 0.08623 0.0
H395 H 0.89151 0.96561 0.14759 0.0
H396 H 0.8704 0.09583 0.24178 0.0
C397 C 0.89248 0.97373 0.35963 0.0
C398 C 0.90166 0.93647 0.25971 0.0
C399 C 0.89457 0.94522 0.39552 0.0
C400 C 0.8948 0.05089 0.11116 0.0
C401 C 0.89255 0.02009 0.14638 0.0
C402 C 0.87931 0.05167 0.24644 0.0
C403 C 0.89095 0.93248 0.32742 0.0
C404 C 0.89028 0.9631 0.28911 0.0
C405 C 0.89181 0.05899 0.17961 0.0
C406 C 0.8909 0.02548 0.21719 0.0
H407 H 0.89337 0.77901 0.37066 0.0
H408 H 0.88968 0.82892 0.30774 0.0
H409 H 0.86993 0.04206 0.30406 0.0
H410 H 0.89596 0.21511 0.13981 0.0
H411 H 0.89236 0.16112 0.20173 0.0
C412 C 0.91001 0.9957 0.61152 0.0
C413 C 0.90983 0.9282 0.59917 0.0
C414 C 0.91376 0.01149 0.64929 0.0
C415 C 0.91022 0.9372 0.74403 0.0
H416 H 0.93736 0.09993 0.77453 0.0
C417 C 0.91746 0.00694 0.90052 0.0
C418 C 0.91256 0.07365 0.9101 0.0
C419 C 0.92073 0.98881 0.86292 0.0
C420 C 0.92969 0.05448 0.76639 0.0
H421 H 0.91434 0.82454 0.61679 0.0
H422 H 0.92107 0.85233 0.68287 0.0
H423 H 0.93695 0.06691 0.70782 0.0
H424 H 0.90832 0.17447 0.88779 0.0
H425 H 0.9138 0.14246 0.82176 0.0
H426 H 0.90262 0.92528 0.80229 0.0
C427 C 0.91798 0.8929 0.66325 0.0
C428 C 0.92946 0.03552 0.72824 0.0
C429 C 0.9142 0.877 0.62535 0.0
C430 C 0.91203 0.12265 0.88135 0.0
C431 C 0.91523 0.10434 0.84355 0.0
C432 C 0.91049 0.95602 0.78209 0.0
C433 C 0.91749 0.96028 0.67575 0.0
C434 C 0.91948 0.97713 0.71657 0.0
C435 C 0.91911 0.03681 0.83389 0.0
C436 C 0.92004 0.01525 0.79367 0.0
H437 H 0.90678 0.03662 0.59222 0.0
H438 H 0.913 0.06381 0.658 0.0
H439 H 0.90209 0.89268 0.73598 0.0
H440 H 0.91834 0.96805 0.922 0.0
H441 H 0.92411 0.93671 0.85649 0.0
C442 C 0.0989 0.87407 0.88288 0.0
C443 C 0.10244 0.92662 0.90872 0.0
C444 C 0.09507 0.88836 0.84478 0.0
C445 C 0.08198 0.02732 0.77858 0.0
H446 H 0.11132 0.92209 0.70598 0.0
C447 C 0.10009 0.11859 0.62679 0.0
C448 C 0.10069 0.07002 0.5978 0.0
C449 C 0.09669 0.09912 0.66433 0.0
C450 C 0.10275 0.95132 0.72575 0.0
H451 H 0.10388 0.03562 0.9149 0.0
H452 H 0.09757 0.06007 0.84885 0.0
H453 H 0.11153 0.88988 0.77238 0.0
H454 H 0.09685 0.96354 0.58523 0.0
H455 H 0.09077 0.93012 0.65033 0.0
H456 H 0.07369 0.08995 0.73184 0.0
C457 C 0.09752 0.00789 0.85793 0.0
C458 C 0.10284 0.93272 0.76386 0.0
C459 C 0.10133 0.9937 0.89587 0.0
C460 C 0.09682 0.00224 0.60689 0.0
C461 C 0.09338 0.98292 0.64426 0.0
C462 C 0.08192 0.04603 0.74039 0.0
C463 C 0.09467 0.95546 0.83179 0.0
C464 C 0.09271 0.97108 0.79083 0.0
C465 C 0.09377 0.0308 0.67354 0.0
C466 C 0.09252 0.00872 0.71365 0.0
H467 H 0.0995 0.82186 0.89183 0.0
H468 H 0.09269 0.84684 0.82539 0.0
H469 H 0.0738 0.05739 0.7986 0.0
H470 H 0.10297 0.17122 0.62075 0.0
H471 H 0.0972 0.13719 0.68631 0.0
C472 C 0.46133 0.79048 0.99046 0.0
C473 C 0.44228 0.81551 0.99168 0.0
C474 C 0.47714 0.83403 0.98634 0.0
C475 C 0.49112 0.01068 0.96094 0.0
H476 H 0.53731 0.96646 0.01843 0.0
C477 C 0.55273 0.20213 0.99133 0.0
C478 C 0.57205 0.17945 0.98997 0.0
C479 C 0.53727 0.157 0.98729 0.0
C480 C 0.52465 0.97912 0.00175 0.0
H481 H 0.42487 0.90614 0.98868 0.0
H482 H 0.45255 0.98288 0.98252 0.0
H483 H 0.50952 0.89085 0.02007 0.0
H484 H 0.59024 0.09148 0.98247 0.0
H485 H 0.56312 0.0121 0.97576 0.0
H486 H 0.50622 0.10028 0.9437 0.0
C487 C 0.45528 0.9292 0.98403 0.0
C488 C 0.50864 0.93563 0.00262 0.0
C489 C 0.43937 0.88528 0.98772 0.0
C490 C 0.57554 0.11055 0.98364 0.0
C491 C 0.56 0.06509 0.98002 0.0
C492 C 0.5071 0.05453 0.96037 0.0
C493 C 0.47444 0.90421 0.98385 0.0
C494 C 0.4916 0.9507 0.98228 0.0
C495 C 0.54067 0.08774 0.98216 0.0
C496 C 0.52405 0.0394 0.98088 0.0
H497 H 0.46409 0.73689 0.99297 0.0
H498 H 0.49154 0.8124 0.98528 0.0
H499 H 0.47845 0.02369 0.94441 0.0
H500 H 0.5495 0.25491 -0.00391 0.0
H501 H 0.52261 0.17616 0.98946 0.0
C502 C 0.55103 0.79044 0.51917 0.0
C503 C 0.57013 0.81523 0.51836 0.0
C504 C 0.53528 0.83414 0.52325 0.0
C505 C 0.52157 0.01076 0.5492 0.0
H506 H 0.47537 0.96757 0.49139 0.0
C507 C 0.46032 0.20309 0.51885 0.0
C508 C 0.44096 0.18067 0.52031 0.0
C509 C 0.47571 0.15777 0.52283 0.0
C510 C 0.48804 0.97994 0.50814 0.0
H511 H 0.58769 0.90559 0.522 0.0
H512 H 0.56013 0.98261 0.52808 0.0
H513 H 0.50303 0.89167 0.48963 0.0
H514 H 0.42262 0.09294 0.5279 0.0
H515 H 0.4496 0.0132 0.53447 0.0
H516 H 0.50661 0.10042 0.56659 0.0
C517 C 0.5573 0.92899 0.5263 0.0
C518 C 0.50397 0.93627 0.50722 0.0
C519 C 0.57314 0.8849 0.52267 0.0
C520 C 0.43735 0.11181 0.52668 0.0
C521 C 0.45281 0.06615 0.53021 0.0
C522 C 0.50566 0.0548 0.5498 0.0
C523 C 0.53809 0.90426 0.52611 0.0
C524 C 0.52102 0.95095 0.5277 0.0
C525 C 0.47219 0.08856 0.52798 0.0
C526 C 0.48872 0.04003 0.52919 0.0
H527 H 0.54818 0.73692 0.51637 0.0
H528 H 0.52084 0.81267 0.52402 0.0
H529 H 0.53423 0.02348 0.56584 0.0
H530 H 0.46364 0.25583 0.51406 0.0
H531 H 0.4904 0.17673 0.52061 0.0
C532 C 0.07407 0.61831 0.98931 0.0
C533 C 0.07098 0.68788 0.99382 0.0
C534 C 0.05827 0.57379 0.98618 0.0
C535 C 1.00505 0.5647 0.00659 0.0
H536 H 0.00764 0.40145 0.94646 0.0
C537 C 0.93853 0.38812 0.98658 0.0
C538 C 0.94218 0.3192 0.99251 0.0
C539 C 0.95396 0.43415 0.98344 0.0
C540 C 0.00672 0.44679 0.96347 0.0
H541 H 0.04892 0.76552 -0.00321 0.0
H542 H 0.02164 0.689 0.99 0.0
H543 H 0.03516 0.47907 0.947 0.0
H544 H 0.96491 0.24437 -0.00152 0.0
H545 H 0.99162 0.32414 0.99256 0.0
H546 H 0.97654 0.5325 0.02279 0.0
C547 C 0.03612 0.66795 0.99022 0.0
C548 C 0.02256 0.49123 0.96396 0.0
C549 C 0.05183 0.7121 0.99382 0.0
C550 C 0.96155 0.29714 0.99403 0.0
C551 C 0.97691 0.34284 0.9904 0.0
C552 C 0.98917 0.52066 0.00577 0.0
C553 C 0.03903 0.59794 0.98706 0.0
C554 C 0.02202 0.55075 0.98571 0.0
C555 C 0.97334 0.41206 0.98559 0.0
C556 C 0.98983 0.46089 0.98445 0.0
H557 H 0.08865 0.59806 0.98935 0.0
H558 H 0.06118 0.52027 0.98415 0.0
H559 H 1.00413 0.60906 0.02438 0.0
H560 H 0.92379 0.40672 0.98533 0.0
H561 H 0.95072 0.48711 0.97945 0.0
C562 C 0.07307 0.38684 0.52407 0.0
C563 C 0.07007 0.31729 0.51919 0.0
C564 C 0.05721 0.43097 0.52725 0.0
C565 C 1.00406 0.4387 0.50603 0.0
H566 H 1.00617 0.6024 0.56586 0.0
C567 C 0.93723 0.61367 0.52456 0.0
C568 C 0.94081 0.68258 0.51833 0.0
C569 C 0.9527 0.5681 0.52818 0.0
C570 C 1.00538 0.5569 0.54894 0.0
H571 H 0.04812 0.23916 0.51579 0.0
H572 H 0.02073 0.31491 0.52276 0.0
H573 H 0.03379 0.52542 0.5659 0.0
H574 H 0.96346 0.75791 0.51235 0.0
H575 H 0.99026 0.67895 0.51913 0.0
H576 H 0.97559 0.4701 0.48934 0.0
C577 C 0.03518 0.33632 0.52272 0.0
C578 C 0.02128 0.51284 0.54878 0.0
C579 C 0.05095 0.2926 0.51904 0.0
C580 C 0.96016 0.70513 0.51703 0.0
C581 C 0.97556 0.6599 0.52115 0.0
C582 C 0.98812 0.48235 0.50653 0.0
C583 C 0.038 0.40639 0.52607 0.0
C584 C 0.02092 0.45317 0.52714 0.0
C585 C 0.97207 0.59067 0.52623 0.0
C586 C 0.98861 0.54226 0.52775 0.0
H587 H 0.08763 0.40743 0.52413 0.0
H588 H 0.06006 0.48453 0.52943 0.0
H589 H 1.00328 0.39426 0.48828 0.0
H590 H 0.9225 0.5947 0.52566 0.0
H591 H 0.94951 0.51511 0.53237 0.0
loop_
_geom_bond_atom_site_label_1
_geom_bond_atom_site_label_2
_geom_bond_distance
_geom_bond_site_symmetry_2
_ccdc_geom_bond_type
Co0 O1 2.216 . S
Co0 O2 2.091 . S
Co0 O4 2.004 . S
Co0 O10 2.021 1_554 S
Co0 O12 2.137 . S
Co0 O13 2.244 . S
O1 Co0 2.216 . S
O1 C8 1.247 . S
O2 Co0 2.091 . S
O2 C8 1.261 . S
C3 O12 1.247 . S
C3 O13 1.272 . S
O4 Co0 2.004 . S
O4 C9 1.259 . S
Co5 O6 2.061 . S
Co5 O11 2.052 1_554 S
Co5 O13 2.135 . S
O6 Co5 2.061 . S
O6 C9 1.235 . S
C7 O10 1.238 . S
C7 O11 1.241 . S
C8 O1 1.247 . S
C8 O2 1.261 . S
C9 O4 1.259 . S
C9 O6 1.235 . S
O10 Co0 2.021 1_556 S
O10 C7 1.238 . S
O11 Co5 2.052 1_556 S
O11 C7 1.241 . S
O12 Co0 2.137 . S
O12 C3 1.247 . S
O13 Co0 2.244 . S
O13 C3 1.272 . S
O13 Co5 2.135 . S
Co14 O15 2.216 . S
Co14 O16 2.091 . S
Co14 O18 2.004 . S
Co14 O24 2.021 1_554 S
Co14 O26 2.137 . S
Co14 O27 2.244 . S
O15 Co14 2.216 . S
O15 C22 1.247 . S
O16 Co14 2.091 . S
O16 C22 1.261 . S
C17 O26 1.247 . S
C17 O27 1.272 . S
O18 Co14 2.004 . S
O18 C23 1.259 . S
Co19 O20 2.061 . S
Co19 O25 2.052 1_554 S
Co19 O27 2.135 . S
O20 Co19 2.061 . S
O20 C23 1.235 . S
C21 O24 1.238 . S
C21 O25 1.241 . S
C22 O15 1.247 . S
C22 O16 1.261 . S
C23 O18 1.259 . S
C23 O20 1.235 . S
O24 Co14 2.021 1_556 S
O24 C21 1.238 . S
O25 Co19 2.052 1_556 S
O25 C21 1.241 . S
O26 Co14 2.137 . S
O26 C17 1.247 . S
O27 Co14 2.244 . S
O27 C17 1.272 . S
O27 Co19 2.135 . S
Co28 O29 2.216 . S
Co28 O30 2.091 . S
Co28 O32 2.004 . S
Co28 O38 2.021 . S
Co28 O40 2.137 . S
Co28 O41 2.244 . S
O29 Co28 2.216 . S
O29 C36 1.247 . S
O30 Co28 2.091 . S
O30 C36 1.261 . S
C31 O40 1.247 . S
C31 O41 1.272 . S
O32 Co28 2.004 . S
O32 C37 1.259 . S
Co33 O34 2.061 . S
Co33 O39 2.052 . S
Co33 O41 2.135 . S
O34 Co33 2.061 . S
O34 C37 1.235 . S
C35 O38 1.238 . S
C35 O39 1.241 . S
C36 O29 1.247 . S
C36 O30 1.261 . S
C37 O32 1.259 . S
C37 O34 1.235 . S
O38 Co28 2.021 . S
O38 C35 1.238 . S
O39 Co33 2.052 . S
O39 C35 1.241 . S
O40 Co28 2.137 . S
O40 C31 1.247 . S
O41 Co28 2.244 . S
O41 C31 1.272 . S
O41 Co33 2.135 . S
Co42 O43 2.216 . S
Co42 O44 2.091 . S
Co42 O46 2.004 . S
Co42 O52 2.021 . S
Co42 O54 2.137 . S
Co42 O55 2.244 . S
O43 Co42 2.216 . S
O43 C50 1.247 . S
O44 Co42 2.091 . S
O44 C50 1.261 . S
C45 O54 1.247 . S
C45 O55 1.272 . S
O46 Co42 2.004 . S
O46 C51 1.259 . S
Co47 O48 2.061 . S
Co47 O53 2.052 . S
Co47 O55 2.135 . S
O48 Co47 2.061 . S
O48 C51 1.235 . S
C49 O52 1.238 . S
C49 O53 1.241 . S
C50 O43 1.247 . S
C50 O44 1.261 . S
C51 O46 1.259 . S
C51 O48 1.235 . S
O52 Co42 2.021 . S
O52 C49 1.238 . S
O53 Co47 2.052 . S
O53 C49 1.241 . S
O54 Co42 2.137 . S
O54 C45 1.247 . S
O55 Co42 2.244 . S
O55 C45 1.272 . S
O55 Co47 2.135 . S
Co56 O57 2.216 . S
Co56 O58 2.091 . S
Co56 O60 2.004 . S
Co56 O66 2.021 1_554 S
Co56 O68 2.137 . S
Co56 O69 2.244 . S
O57 Co56 2.216 . S
O57 C64 1.247 . S
O58 Co56 2.091 . S
O58 C64 1.261 . S
C59 O68 1.247 . S
C59 O69 1.272 . S
O60 Co56 2.004 . S
O60 C65 1.259 . S
Co61 O62 2.061 . S
Co61 O67 2.052 1_554 S
Co61 O69 2.135 . S
O62 Co61 2.061 . S
O62 C65 1.235 . S
C63 O66 1.238 . S
C63 O67 1.241 . S
C64 O57 1.247 . S
C64 O58 1.261 . S
C65 O60 1.259 . S
C65 O62 1.235 . S
O66 Co56 2.021 1_556 S
O66 C63 1.238 . S
O67 Co61 2.052 1_556 S
O67 C63 1.241 . S
O68 Co56 2.137 . S
O68 C59 1.247 . S
O69 Co56 2.244 . S
O69 C59 1.272 . S
O69 Co61 2.135 . S
Co70 O71 2.216 . S
Co70 O72 2.091 . S
Co70 O74 2.004 . S
Co70 O80 2.021 1_554 S
Co70 O82 2.137 . S
Co70 O83 2.244 . S
O71 Co70 2.216 . S
O71 C78 1.247 . S
O72 Co70 2.091 . S
O72 C78 1.261 . S
C73 O82 1.247 . S
C73 O83 1.272 . S
O74 Co70 2.004 . S
O74 C79 1.259 . S
Co75 O76 2.061 . S
Co75 O81 2.052 1_554 S
Co75 O83 2.135 . S
O76 Co75 2.061 . S
O76 C79 1.235 . S
C77 O80 1.238 . S
C77 O81 1.241 . S
C78 O71 1.247 . S
C78 O72 1.261 . S
C79 O74 1.259 . S
C79 O76 1.235 . S
O80 Co70 2.021 1_556 S
O80 C77 1.238 . S
O81 Co75 2.052 1_556 S
O81 C77 1.241 . S
O82 Co70 2.137 . S
O82 C73 1.247 . S
O83 Co70 2.244 . S
O83 C73 1.272 . S
O83 Co75 2.135 . S
Co84 O85 2.216 . S
Co84 O86 2.091 . S
Co84 O88 2.004 . S
Co84 O94 2.021 . S
Co84 O96 2.137 . S
Co84 O97 2.244 . S
O85 Co84 2.216 . S
O85 C92 1.247 . S
O86 Co84 2.091 . S
O86 C92 1.261 . S
C87 O96 1.247 . S
C87 O97 1.272 . S
O88 Co84 2.004 . S
O88 C93 1.259 . S
Co89 O90 2.061 . S
Co89 O95 2.052 . S
Co89 O97 2.135 . S
O90 Co89 2.061 . S
O90 C93 1.235 . S
C91 O94 1.238 . S
C91 O95 1.241 . S
C92 O85 1.247 . S
C92 O86 1.261 . S
C93 O88 1.259 . S
C93 O90 1.235 . S
O94 Co84 2.021 . S
O94 C91 1.238 . S
O95 Co89 2.052 . S
O95 C91 1.241 . S
O96 Co84 2.137 . S
O96 C87 1.247 . S
O97 Co84 2.244 . S
O97 C87 1.272 . S
O97 Co89 2.135 . S
Co98 O99 2.216 . S
Co98 O100 2.091 . S
Co98 O102 2.004 . S
Co98 O108 2.021 . S
Co98 O110 2.137 . S
Co98 O111 2.244 . S
O99 Co98 2.216 . S
O99 C106 1.247 . S
O100 Co98 2.091 . S
O100 C106 1.261 . S
C101 O110 1.247 . S
C101 O111 1.272 . S
O102 Co98 2.004 . S
O102 C107 1.259 . S
Co103 O104 2.061 . S
Co103 O109 2.052 . S
Co103 O111 2.135 . S
O104 Co103 2.061 . S
O104 C107 1.235 . S
C105 O108 1.238 . S
C105 O109 1.241 . S
C106 O99 1.247 . S
C106 O100 1.261 . S
C107 O102 1.259 . S
C107 O104 1.235 . S
O108 Co98 2.021 . S
O108 C105 1.238 . S
O109 Co103 2.052 . S
O109 C105 1.241 . S
O110 Co98 2.137 . S
O110 C101 1.247 . S
O111 Co98 2.244 . S
O111 C101 1.272 . S
O111 Co103 2.135 . S
C112 C113 1.349 1_556 S
C112 C114 1.327 . S
C112 H137 0.950 . S
C113 C112 1.349 1_554 S
C113 C129 1.349 . S
C114 C112 1.327 . S
C114 C133 1.429 1_556 S
C114 H138 0.950 . S
C115 C132 1.574 . S
C115 C134 1.368 . S
C115 H139 0.949 . S
H116 C120 0.949 . S
C117 C118 1.349 . S
C117 C119 1.327 . S
C117 H140 0.950 . S
C118 C117 1.349 . S
C118 C130 1.349 1_554 S
C119 C117 1.327 . S
C119 C135 1.429 . S
C119 H141 0.950 . S
C120 H116 0.949 . S
C120 C128 1.574 . S
C120 C136 1.368 1_556 S
H121 C129 0.950 . S
H122 C127 0.950 . S
H123 C128 0.949 . S
H124 C130 0.950 . S
H125 C131 0.950 . S
H126 C132 0.949 . S
C127 H122 0.950 . S
C127 C129 1.327 . S
C127 C133 1.429 . S
C128 C120 1.574 . S
C128 H123 0.949 . S
C128 C134 1.368 1_556 S
C129 C113 1.349 . S
C129 H121 0.950 . S
C129 C127 1.327 . S
C130 C118 1.349 1_556 S
C130 H124 0.950 . S
C130 C131 1.327 . S
C131 H125 0.950 . S
C131 C130 1.327 . S
C131 C135 1.429 1_556 S
C132 C115 1.574 . S
C132 H126 0.949 . S
C132 C136 1.368 . S
C133 C114 1.429 1_554 S
C133 C127 1.429 . S
C133 C134 1.523 . S
C134 C115 1.368 . S
C134 C128 1.368 1_554 S
C134 C133 1.523 . S
C135 C119 1.429 . S
C135 C131 1.429 1_554 S
C135 C136 1.523 . S
C136 C120 1.368 1_554 S
C136 C132 1.368 . S
C136 C135 1.523 . S
H137 C112 0.950 . S
H138 C114 0.950 . S
H139 C115 0.949 . S
H140 C117 0.950 . S
H141 C119 0.950 . S
C142 C143 1.349 . S
C142 C144 1.327 . S
C142 H167 0.950 . S
C143 C142 1.349 . S
C143 C159 1.349 1_554 S
C144 C142 1.327 . S
C144 C163 1.429 . S
C144 H168 0.950 . S
C145 C162 1.574 . S
C145 C164 1.368 1_556 S
C145 H169 0.949 . S
H146 C150 0.949 . S
C147 C148 1.349 1_556 S
C147 C149 1.327 . S
C147 H170 0.950 . S
C148 C147 1.349 1_554 S
C148 C160 1.349 . S
C149 C147 1.327 . S
C149 C165 1.429 1_556 S
C149 H171 0.950 . S
C150 H146 0.949 . S
C150 C158 1.574 . S
C150 C166 1.368 . S
H151 C159 0.950 . S
H152 C157 0.950 . S
H153 C158 0.949 . S
H154 C160 0.950 . S
H155 C161 0.950 . S
H156 C162 0.949 . S
C157 H152 0.950 . S
C157 C159 1.327 . S
C157 C163 1.429 1_556 S
C158 C150 1.574 . S
C158 H153 0.949 . S
C158 C164 1.368 . S
C159 C143 1.349 1_556 S
C159 H151 0.950 . S
C159 C157 1.327 . S
C160 C148 1.349 . S
C160 H154 0.950 . S
C160 C161 1.327 . S
C161 H155 0.950 . S
C161 C160 1.327 . S
C161 C165 1.429 . S
C162 C145 1.574 . S
C162 H156 0.949 . S
C162 C166 1.368 1_556 S
C163 C144 1.429 . S
C163 C157 1.429 1_554 S
C163 C164 1.523 . S
C164 C145 1.368 1_554 S
C164 C158 1.368 . S
C164 C163 1.523 . S
C165 C149 1.429 1_554 S
C165 C161 1.429 . S
C165 C166 1.523 . S
C166 C150 1.368 . S
C166 C162 1.368 1_554 S
C166 C165 1.523 . S
H167 C142 0.950 . S
H168 C144 0.950 . S
H169 C145 0.949 . S
H170 C147 0.950 . S
H171 C149 0.950 . S
C172 C173 1.349 . S
C172 C174 1.327 . S
C172 H197 0.950 . S
C173 C172 1.349 . S
C173 C189 1.349 . S
C174 C172 1.327 . S
C174 C193 1.429 . S
C174 H198 0.950 . S
C175 C192 1.574 . S
C175 C194 1.368 . S
C175 H199 0.949 . S
H176 C180 0.949 . S
C177 C178 1.349 . S
C177 C179 1.327 . S
C177 H200 0.950 . S
C178 C177 1.349 . S
C178 C190 1.349 . S
C179 C177 1.327 . S
C179 C195 1.429 . S
C179 H201 0.950 . S
C180 H176 0.949 . S
C180 C188 1.574 . S
C180 C196 1.368 . S
H181 C189 0.950 . S
H182 C187 0.950 . S
H183 C188 0.949 . S
H184 C190 0.950 . S
H185 C191 0.950 . S
H186 C192 0.949 . S
C187 H182 0.950 . S
C187 C189 1.327 . S
C187 C193 1.429 . S
C188 C180 1.574 . S
C188 H183 0.949 . S
C188 C194 1.368 . S
C189 C173 1.349 . S
C189 H181 0.950 . S
C189 C187 1.327 . S
C190 C178 1.349 . S
C190 H184 0.950 . S
C190 C191 1.327 . S
C191 H185 0.950 . S
C191 C190 1.327 . S
C191 C195 1.429 . S
C192 C175 1.574 . S
C192 H186 0.949 . S
C192 C196 1.368 . S
C193 C174 1.429 . S
C193 C187 1.429 . S
C193 C194 1.523 . S
C194 C175 1.368 . S
C194 C188 1.368 . S
C194 C193 1.523 . S
C195 C179 1.429 . S
C195 C191 1.429 . S
C195 C196 1.523 . S
C196 C180 1.368 . S
C196 C192 1.368 . S
C196 C195 1.523 . S
H197 C172 0.950 . S
H198 C174 0.950 . S
H199 C175 0.949 . S
H200 C177 0.950 . S
H201 C179 0.950 . S
C202 C203 1.349 . S
C202 C204 1.327 . S
C202 H227 0.950 . S
C203 C202 1.349 . S
C203 C219 1.349 . S
C204 C202 1.327 . S
C204 C223 1.429 . S
C204 H228 0.950 . S
C205 C222 1.574 . S
C205 C224 1.368 . S
C205 H229 0.949 . S
H206 C210 0.949 . S
C207 C208 1.349 . S
C207 C209 1.327 . S
C207 H230 0.950 . S
C208 C207 1.349 . S
C208 C220 1.349 . S
C209 C207 1.327 . S
C209 C225 1.429 . S
C209 H231 0.950 . S
C210 H206 0.949 . S
C210 C218 1.574 . S
C210 C226 1.368 . S
H211 C219 0.950 . S
H212 C217 0.950 . S
H213 C218 0.949 . S
H214 C220 0.950 . S
H215 C221 0.950 . S
H216 C222 0.949 . S
C217 H212 0.950 . S
C217 C219 1.327 . S
C217 C223 1.429 . S
C218 C210 1.574 . S
C218 H213 0.949 . S
C218 C224 1.368 . S
C219 C203 1.349 . S
C219 H211 0.950 . S
C219 C217 1.327 . S
C220 C208 1.349 . S
C220 H214 0.950 . S
C220 C221 1.327 . S
C221 H215 0.950 . S
C221 C220 1.327 . S
C221 C225 1.429 . S
C222 C205 1.574 . S
C222 H216 0.949 . S
C222 C226 1.368 . S
C223 C204 1.429 . S
C223 C217 1.429 . S
C223 C224 1.523 . S
C224 C205 1.368 . S
C224 C218 1.368 . S
C224 C223 1.523 . S
C225 C209 1.429 . S
C225 C221 1.429 . S
C225 C226 1.523 . S
C226 C210 1.368 . S
C226 C222 1.368 . S
C226 C225 1.523 . S
H227 C202 0.950 . S
H228 C204 0.950 . S
H229 C205 0.949 . S
H230 C207 0.950 . S
H231 C209 0.950 . S
C232 C233 1.349 . S
C232 C234 1.327 . S
C232 H257 0.950 . S
C233 C232 1.349 . S
C233 C249 1.349 . S
C234 C232 1.327 . S
C234 C253 1.429 . S
C234 H258 0.950 . S
C235 C252 1.574 . S
C235 C254 1.368 . S
C235 H259 0.949 . S
H236 C240 0.949 . S
C237 C238 1.349 . S
C237 C239 1.327 . S
C237 H260 0.950 . S
C238 C237 1.349 . S
C238 C250 1.349 . S
C239 C237 1.327 . S
C239 C255 1.429 . S
C239 H261 0.950 . S
C240 H236 0.949 . S
C240 C248 1.574 . S
C240 C256 1.368 . S
H241 C249 0.950 . S
H242 C247 0.950 . S
H243 C248 0.949 . S
H244 C250 0.950 . S
H245 C251 0.950 . S
H246 C252 0.949 . S
C247 H242 0.950 . S
C247 C249 1.327 . S
C247 C253 1.429 . S
C248 C240 1.574 . S
C248 H243 0.949 . S
C248 C254 1.368 . S
C249 C233 1.349 . S
C249 H241 0.950 . S
C249 C247 1.327 . S
C250 C238 1.349 . S
C250 H244 0.950 . S
C250 C251 1.327 . S
C251 H245 0.950 . S
C251 C250 1.327 . S
C251 C255 1.429 . S
C252 C235 1.574 . S
C252 H246 0.949 . S
C252 C256 1.368 . S
C253 C234 1.429 . S
C253 C247 1.429 . S
C253 C254 1.523 . S
C254 C235 1.368 . S
C254 C248 1.368 . S
C254 C253 1.523 . S
C255 C239 1.429 . S
C255 C251 1.429 . S
C255 C256 1.523 . S
C256 C240 1.368 . S
C256 C252 1.368 . S
C256 C255 1.523 . S
H257 C232 0.950 . S
H258 C234 0.950 . S
H259 C235 0.949 . S
H260 C237 0.950 . S
H261 C239 0.950 . S
C262 C263 1.349 . S
C262 C264 1.327 . S
C262 H287 0.950 . S
C263 C262 1.349 . S
C263 C279 1.349 . S
C264 C262 1.327 . S
C264 C283 1.429 . S
C264 H288 0.950 . S
C265 C282 1.574 . S
C265 C284 1.368 . S
C265 H289 0.949 . S
H266 C270 0.949 . S
C267 C268 1.349 . S
C267 C269 1.327 . S
C267 H290 0.950 . S
C268 C267 1.349 . S
C268 C280 1.349 . S
C269 C267 1.327 . S
C269 C285 1.429 . S
C269 H291 0.950 . S
C270 H266 0.949 . S
C270 C278 1.574 . S
C270 C286 1.368 . S
H271 C279 0.950 . S
H272 C277 0.950 . S
H273 C278 0.949 . S
H274 C280 0.950 . S
H275 C281 0.950 . S
H276 C282 0.949 . S
C277 H272 0.950 . S
C277 C279 1.327 . S
C277 C283 1.429 . S
C278 C270 1.574 . S
C278 H273 0.949 . S
C278 C284 1.368 . S
C279 C263 1.349 . S
C279 H271 0.950 . S
C279 C277 1.327 . S
C280 C268 1.349 . S
C280 H274 0.950 . S
C280 C281 1.327 . S
C281 H275 0.950 . S
C281 C280 1.327 . S
C281 C285 1.429 . S
C282 C265 1.574 . S
C282 H276 0.949 . S
C282 C286 1.368 . S
C283 C264 1.429 . S
C283 C277 1.429 . S
C283 C284 1.523 . S
C284 C265 1.368 . S
C284 C278 1.368 . S
C284 C283 1.523 . S
C285 C269 1.429 . S
C285 C281 1.429 . S
C285 C286 1.523 . S
C286 C270 1.368 . S
C286 C282 1.368 . S
C286 C285 1.523 . S
H287 C262 0.950 . S
H288 C264 0.950 . S
H289 C265 0.949 . S
H290 C267 0.950 . S
H291 C269 0.950 . S
C292 C293 1.349 . S
C292 C294 1.327 . S
C292 H317 0.950 . S
C293 C292 1.349 . S
C293 C309 1.349 . S
C294 C292 1.327 . S
C294 C313 1.429 . S
C294 H318 0.950 . S
C295 C312 1.574 . S
C295 C314 1.368 . S
C295 H319 0.949 . S
H296 C300 0.949 . S
C297 C298 1.349 . S
C297 C299 1.327 . S
C297 H320 0.950 . S
C298 C297 1.349 . S
C298 C310 1.349 . S
C299 C297 1.327 . S
C299 C315 1.429 . S
C299 H321 0.950 . S
C300 H296 0.949 . S
C300 C308 1.574 . S
C300 C316 1.368 . S
H301 C309 0.950 . S
H302 C307 0.950 . S
H303 C308 0.949 . S
H304 C310 0.950 . S
H305 C311 0.950 . S
H306 C312 0.949 . S
C307 H302 0.950 . S
C307 C309 1.327 . S
C307 C313 1.429 . S
C308 C300 1.574 . S
C308 H303 0.949 . S
C308 C314 1.368 . S
C309 C293 1.349 . S
C309 H301 0.950 . S
C309 C307 1.327 . S
C310 C298 1.349 . S
C310 H304 0.950 . S
C310 C311 1.327 . S
C311 H305 0.950 . S
C311 C310 1.327 . S
C311 C315 1.429 . S
C312 C295 1.574 . S
C312 H306 0.949 . S
C312 C316 1.368 . S
C313 C294 1.429 . S
C313 C307 1.429 . S
C313 C314 1.523 . S
C314 C295 1.368 . S
C314 C308 1.368 . S
C314 C313 1.523 . S
C315 C299 1.429 . S
C315 C311 1.429 . S
C315 C316 1.523 . S
C316 C300 1.368 . S
C316 C312 1.368 . S
C316 C315 1.523 . S
H317 C292 0.950 . S
H318 C294 0.950 . S
H319 C295 0.949 . S
H320 C297 0.950 . S
H321 C299 0.950 . S
C322 C323 1.349 . S
C322 C324 1.327 . S
C322 H347 0.950 . S
C323 C322 1.349 . S
C323 C339 1.349 . S
C324 C322 1.327 . S
C324 C343 1.429 . S
C324 H348 0.950 . S
C325 C342 1.574 . S
C325 C344 1.368 . S
C325 H349 0.949 . S
H326 C330 0.949 . S
C327 C328 1.349 . S
C327 C329 1.327 . S
C327 H350 0.950 . S
C328 C327 1.349 . S
C328 C340 1.349 . S
C329 C327 1.327 . S
C329 C345 1.429 . S
C329 H351 0.950 . S
C330 H326 0.949 . S
C330 C338 1.574 . S
C330 C346 1.368 . S
H331 C339 0.950 . S
H332 C337 0.950 . S
H333 C338 0.949 . S
H334 C340 0.950 . S
H335 C341 0.950 . S
H336 C342 0.949 . S
C337 H332 0.950 . S
C337 C339 1.327 . S
C337 C343 1.429 . S
C338 C330 1.574 . S
C338 H333 0.949 . S
C338 C344 1.368 . S
C339 C323 1.349 . S
C339 H331 0.950 . S
C339 C337 1.327 . S
C340 C328 1.349 . S
C340 H334 0.950 . S
C340 C341 1.327 . S
C341 H335 0.950 . S
C341 C340 1.327 . S
C341 C345 1.429 . S
C342 C325 1.574 . S
C342 H336 0.949 . S
C342 C346 1.368 . S
C343 C324 1.429 . S
C343 C337 1.429 . S
C343 C344 1.523 . S
C344 C325 1.368 . S
C344 C338 1.368 . S
C344 C343 1.523 . S
C345 C329 1.429 . S
C345 C341 1.429 . S
C345 C346 1.523 . S
C346 C330 1.368 . S
C346 C342 1.368 . S
C346 C345 1.523 . S
H347 C322 0.950 . S
H348 C324 0.950 . S
H349 C325 0.949 . S
H350 C327 0.950 . S
H351 C329 0.950 . S
C352 C353 1.349 . S
C352 C354 1.327 . S
C352 H377 0.950 . S
C353 C352 1.349 . S
C353 C369 1.349 . S
C354 C352 1.327 . S
C354 C373 1.429 . S
C354 H378 0.950 1_565 S
C355 C372 1.574 . S
C355 C374 1.368 . S
C355 H379 0.949 . S
H356 C360 0.949 . S
C357 C358 1.349 . S
C357 C359 1.327 . S
C357 H380 0.950 . S
C358 C357 1.349 . S
C358 C370 1.349 . S
C359 C357 1.327 . S
C359 C375 1.429 . S
C359 H381 0.950 1_545 S
C360 H356 0.949 . S
C360 C368 1.574 . S
C360 C376 1.368 . S
H361 C369 0.950 . S
H362 C367 0.950 . S
H363 C368 0.949 . S
H364 C370 0.950 . S
H365 C371 0.950 . S
H366 C372 0.949 . S
C367 H362 0.950 . S
C367 C369 1.327 . S
C367 C373 1.429 . S
C368 C360 1.574 . S
C368 H363 0.949 . S
C368 C374 1.368 1_545 S
C369 C353 1.349 . S
C369 H361 0.950 . S
C369 C367 1.327 . S
C370 C358 1.349 . S
C370 H364 0.950 . S
C370 C371 1.327 . S
C371 H365 0.950 . S
C371 C370 1.327 . S
C371 C375 1.429 . S
C372 C355 1.574 . S
C372 H366 0.949 . S
C372 C376 1.368 1_565 S
C373 C354 1.429 . S
C373 C367 1.429 . S
C373 C374 1.523 . S
C374 C355 1.368 . S
C374 C368 1.368 1_565 S
C374 C373 1.523 . S
C375 C359 1.429 . S
C375 C371 1.429 . S
C375 C376 1.523 . S
C376 C360 1.368 . S
C376 C372 1.368 1_545 S
C376 C375 1.523 . S
H377 C352 0.950 . S
H378 C354 0.950 1_545 S
H379 C355 0.949 . S
H380 C357 0.950 . S
H381 C359 0.950 1_565 S
C382 C383 1.349 . S
C382 C384 1.327 . S
C382 H407 0.950 . S
C383 C382 1.349 . S
C383 C399 1.349 . S
C384 C382 1.327 . S
C384 C403 1.429 . S
C384 H408 0.950 . S
C385 C402 1.574 . S
C385 C404 1.368 1_545 S
C385 H409 0.949 . S
H386 C390 0.949 . S
C387 C388 1.349 . S
C387 C389 1.327 . S
C387 H410 0.950 . S
C388 C387 1.349 . S
C388 C400 1.349 . S
C389 C387 1.327 . S
C389 C405 1.429 . S
C389 H411 0.950 . S
C390 H386 0.949 . S
C390 C398 1.574 . S
C390 C406 1.368 1_565 S
H391 C399 0.950 . S
H392 C397 0.950 1_545 S
H393 C398 0.949 . S
H394 C400 0.950 . S
H395 C401 0.950 1_565 S
H396 C402 0.949 . S
C397 H392 0.950 1_565 S
C397 C399 1.327 . S
C397 C403 1.429 . S
C398 C390 1.574 . S
C398 H393 0.949 . S
C398 C404 1.368 . S
C399 C383 1.349 . S
C399 H391 0.950 . S
C399 C397 1.327 . S
C400 C388 1.349 . S
C400 H394 0.950 . S
C400 C401 1.327 . S
C401 H395 0.950 1_545 S
C401 C400 1.327 . S
C401 C405 1.429 . S
C402 C385 1.574 . S
C402 H396 0.949 . S
C402 C406 1.368 . S
C403 C384 1.429 . S
C403 C397 1.429 . S
C403 C404 1.523 . S
C404 C385 1.368 1_565 S
C404 C398 1.368 . S
C404 C403 1.523 . S
C405 C389 1.429 . S
C405 C401 1.429 . S
C405 C406 1.523 . S
C406 C390 1.368 1_545 S
C406 C402 1.368 . S
C406 C405 1.523 . S
H407 C382 0.950 . S
H408 C384 0.950 . S
H409 C385 0.949 . S
H410 C387 0.950 . S
H411 C389 0.950 . S
C412 C413 1.349 . S
C412 C414 1.327 . S
C412 H437 0.950 . S
C413 C412 1.349 . S
C413 C429 1.349 . S
C414 C412 1.327 . S
C414 C433 1.429 . S
C414 H438 0.950 1_565 S
C415 C432 1.574 . S
C415 C434 1.368 . S
C415 H439 0.949 . S
H416 C420 0.949 . S
C417 C418 1.349 . S
C417 C419 1.327 . S
C417 H440 0.950 . S
C418 C417 1.349 . S
C418 C430 1.349 . S
C419 C417 1.327 . S
C419 C435 1.429 . S
C419 H441 0.950 1_545 S
C420 H416 0.949 . S
C420 C428 1.574 . S
C420 C436 1.368 . S
H421 C429 0.950 . S
H422 C427 0.950 . S
H423 C428 0.949 . S
H424 C430 0.950 . S
H425 C431 0.950 . S
H426 C432 0.949 . S
C427 H422 0.950 . S
C427 C429 1.327 . S
C427 C433 1.429 . S
C428 C420 1.574 . S
C428 H423 0.949 . S
C428 C434 1.368 1_545 S
C429 C413 1.349 . S
C429 H421 0.950 . S
C429 C427 1.327 . S
C430 C418 1.349 . S
C430 H424 0.950 . S
C430 C431 1.327 . S
C431 H425 0.950 . S
C431 C430 1.327 . S
C431 C435 1.429 . S
C432 C415 1.574 . S
C432 H426 0.949 . S
C432 C436 1.368 1_565 S
C433 C414 1.429 . S
C433 C427 1.429 . S
C433 C434 1.523 . S
C434 C415 1.368 . S
C434 C428 1.368 1_565 S
C434 C433 1.523 . S
C435 C419 1.429 . S
C435 C431 1.429 . S
C435 C436 1.523 . S
C436 C420 1.368 . S
C436 C432 1.368 1_545 S
C436 C435 1.523 . S
H437 C412 0.950 . S
H438 C414 0.950 1_545 S
H439 C415 0.949 . S
H440 C417 0.950 . S
H441 C419 0.950 1_565 S
C442 C443 1.349 . S
C442 C444 1.327 . S
C442 H467 0.950 . S
C443 C442 1.349 . S
C443 C459 1.349 . S
C444 C442 1.327 . S
C444 C463 1.429 . S
C444 H468 0.950 . S
C445 C462 1.574 . S
C445 C464 1.368 1_545 S
C445 H469 0.949 . S
H446 C450 0.949 . S
C447 C448 1.349 . S
C447 C449 1.327 . S
C447 H470 0.950 . S
C448 C447 1.349 . S
C448 C460 1.349 . S
C449 C447 1.327 . S
C449 C465 1.429 . S
C449 H471 0.950 . S
C450 H446 0.949 . S
C450 C458 1.574 . S
C450 C466 1.368 1_565 S
H451 C459 0.950 . S
H452 C457 0.950 1_545 S
H453 C458 0.949 . S
H454 C460 0.950 . S
H455 C461 0.950 1_565 S
H456 C462 0.949 . S
C457 H452 0.950 1_565 S
C457 C459 1.327 . S
C457 C463 1.429 . S
C458 C450 1.574 . S
C458 H453 0.949 . S
C458 C464 1.368 . S
C459 C443 1.349 . S
C459 H451 0.950 . S
C459 C457 1.327 . S
C460 C448 1.349 . S
C460 H454 0.950 . S
C460 C461 1.327 . S
C461 H455 0.950 1_545 S
C461 C460 1.327 . S
C461 C465 1.429 . S
C462 C445 1.574 . S
C462 H456 0.949 . S
C462 C466 1.368 . S
C463 C444 1.429 . S
C463 C457 1.429 . S
C463 C464 1.523 . S
C464 C445 1.368 1_565 S
C464 C458 1.368 . S
C464 C463 1.523 . S
C465 C449 1.429 . S
C465 C461 1.429 . S
C465 C466 1.523 . S
C466 C450 1.368 1_545 S
C466 C462 1.368 . S
C466 C465 1.523 . S
H467 C442 0.950 . S
H468 C444 0.950 . S
H469 C445 0.949 . S
H470 C447 0.950 . S
H471 C449 0.950 . S
C472 C473 1.349 . S
C472 C474 1.327 . S
C472 H497 0.950 . S
C473 C472 1.349 . S
C473 C489 1.349 1_554 S
C474 C472 1.327 . S
C474 C493 1.429 . S
C474 H498 0.950 . S
C475 C492 1.574 . S
C475 C494 1.368 1_546 S
C475 H499 0.949 . S
H476 C480 0.949 . S
C477 C478 1.349 1_556 S
C477 C479 1.327 . S
C477 H500 0.950 . S
C478 C477 1.349 1_554 S
C478 C490 1.349 . S
C479 C477 1.327 . S
C479 C495 1.429 1_556 S
C479 H501 0.950 . S
C480 H476 0.949 . S
C480 C488 1.574 . S
C480 C496 1.368 1_565 S
H481 C489 0.950 . S
H482 C487 0.950 . S
H483 C488 0.949 . S
H484 C490 0.950 . S
H485 C491 0.950 . S
H486 C492 0.949 . S
C487 H482 0.950 . S
C487 C489 1.327 . S
C487 C493 1.429 1_556 S
C488 C480 1.574 . S
C488 H483 0.949 . S
C488 C494 1.368 . S
C489 C473 1.349 1_556 S
C489 H481 0.950 . S
C489 C487 1.327 . S
C490 C478 1.349 . S
C490 H484 0.950 . S
C490 C491 1.327 . S
C491 H485 0.950 . S
C491 C490 1.327 . S
C491 C495 1.429 . S
C492 C475 1.574 . S
C492 H486 0.949 . S
C492 C496 1.368 1_556 S
C493 C474 1.429 . S
C493 C487 1.429 1_554 S
C493 C494 1.523 . S
C494 C475 1.368 1_564 S
C494 C488 1.368 . S
C494 C493 1.523 . S
C495 C479 1.429 1_554 S
C495 C491 1.429 . S
C495 C496 1.523 . S
C496 C480 1.368 1_545 S
C496 C492 1.368 1_554 S
C496 C495 1.523 . S
H497 C472 0.950 . S
H498 C474 0.950 . S
H499 C475 0.949 . S
H500 C477 0.950 . S
H501 C479 0.950 . S
C502 C503 1.349 . S
C502 C504 1.327 . S
C502 H527 0.950 . S
C503 C502 1.349 . S
C503 C519 1.349 . S
C504 C502 1.327 . S
C504 C523 1.429 . S
C504 H528 0.950 . S
C505 C522 1.574 . S
C505 C524 1.368 1_545 S
C505 H529 0.949 . S
H506 C510 0.949 . S
C507 C508 1.349 . S
C507 C509 1.327 . S
C507 H530 0.950 . S
C508 C507 1.349 . S
C508 C520 1.349 . S
C509 C507 1.327 . S
C509 C525 1.429 . S
C509 H531 0.950 . S
C510 H506 0.949 . S
C510 C518 1.574 . S
C510 C526 1.368 1_565 S
H511 C519 0.950 . S
H512 C517 0.950 . S
H513 C518 0.949 . S
H514 C520 0.950 . S
H515 C521 0.950 . S
H516 C522 0.949 . S
C517 H512 0.950 . S
C517 C519 1.327 . S
C517 C523 1.429 . S
C518 C510 1.574 . S
C518 H513 0.949 . S
C518 C524 1.368 . S
C519 C503 1.349 . S
C519 H511 0.950 . S
C519 C517 1.327 . S
C520 C508 1.349 . S
C520 H514 0.950 . S
C520 C521 1.327 . S
C521 H515 0.950 . S
C521 C520 1.327 . S
C521 C525 1.429 . S
C522 C505 1.574 . S
C522 H516 0.949 . S
C522 C526 1.368 . S
C523 C504 1.429 . S
C523 C517 1.429 . S
C523 C524 1.523 . S
C524 C505 1.368 1_565 S
C524 C518 1.368 . S
C524 C523 1.523 . S
C525 C509 1.429 . S
C525 C521 1.429 . S
C525 C526 1.523 . S
C526 C510 1.368 1_545 S
C526 C522 1.368 . S
C526 C525 1.523 . S
H527 C502 0.950 . S
H528 C504 0.950 . S
H529 C505 0.949 . S
H530 C507 0.950 . S
H531 C509 0.950 . S
C532 C533 1.349 1_556 S
C532 C534 1.327 . S
C532 H557 0.950 . S
C533 C532 1.349 1_554 S
C533 C549 1.349 . S
C534 C532 1.327 . S
C534 C553 1.429 1_556 S
C534 H558 0.950 . S
C535 C552 1.574 1_455 S
C535 C554 1.368 . S
C535 H559 0.949 . S
H536 C540 0.949 . S
C537 C538 1.349 . S
C537 C539 1.327 . S
C537 H560 0.950 . S
C538 C537 1.349 . S
C538 C550 1.349 1_554 S
C539 C537 1.327 . S
C539 C555 1.429 . S
C539 H561 0.950 . S
C540 H536 0.949 . S
C540 C548 1.574 1_655 S
C540 C556 1.368 1_556 S
H541 C549 0.950 . S
H542 C547 0.950 . S
H543 C548 0.949 . S
H544 C550 0.950 . S
H545 C551 0.950 . S
H546 C552 0.949 . S
C547 H542 0.950 . S
C547 C549 1.327 . S
C547 C553 1.429 . S
C548 C540 1.574 1_455 S
C548 H543 0.949 . S
C548 C554 1.368 1_556 S
C549 C533 1.349 . S
C549 H541 0.950 . S
C549 C547 1.327 . S
C550 C538 1.349 1_556 S
C550 H544 0.950 . S
C550 C551 1.327 . S
C551 H545 0.950 . S
C551 C550 1.327 . S
C551 C555 1.429 1_556 S
C552 C535 1.574 1_655 S
C552 H546 0.949 . S
C552 C556 1.368 . S
C553 C534 1.429 1_554 S
C553 C547 1.429 . S
C553 C554 1.523 . S
C554 C535 1.368 . S
C554 C548 1.368 1_554 S
C554 C553 1.523 . S
C555 C539 1.429 . S
C555 C551 1.429 1_554 S
C555 C556 1.523 . S
C556 C540 1.368 1_554 S
C556 C552 1.368 . S
C556 C555 1.523 . S
H557 C532 0.950 . S
H558 C534 0.950 . S
H559 C535 0.949 . S
H560 C537 0.950 . S
H561 C539 0.950 . S
C562 C563 1.349 . S
C562 C564 1.327 . S
C562 H587 0.950 . S
C563 C562 1.349 . S
C563 C579 1.349 . S
C564 C562 1.327 . S
C564 C583 1.429 . S
C564 H588 0.950 . S
C565 C582 1.574 1_455 S
C565 C584 1.368 . S
C565 H589 0.949 . S
H566 C570 0.949 . S
C567 C568 1.349 . S
C567 C569 1.327 . S
C567 H590 0.950 . S
C568 C567 1.349 . S
C568 C580 1.349 . S
C569 C567 1.327 . S
C569 C585 1.429 . S
C569 H591 0.950 . S
C570 H566 0.949 . S
C570 C578 1.574 1_655 S
C570 C586 1.368 . S
H571 C579 0.950 . S
H572 C577 0.950 . S
H573 C578 0.949 . S
H574 C580 0.950 . S
H575 C581 0.950 . S
H576 C582 0.949 . S
C577 H572 0.950 . S
C577 C579 1.327 . S
C577 C583 1.429 . S
C578 C570 1.574 1_455 S
C578 H573 0.949 . S
C578 C584 1.368 . S
C579 C563 1.349 . S
C579 H571 0.950 . S
C579 C577 1.327 . S
C580 C568 1.349 . S
C580 H574 0.950 . S
C580 C581 1.327 . S
C581 H575 0.950 . S
C581 C580 1.327 . S
C581 C585 1.429 . S
C582 C565 1.574 1_655 S
C582 H576 0.949 . S
C582 C586 1.368 . S
C583 C564 1.429 . S
C583 C577 1.429 . S
C583 C584 1.523 . S
C584 C565 1.368 . S
C584 C578 1.368 . S
C584 C583 1.523 . S
C585 C569 1.429 . S
C585 C581 1.429 . S
C585 C586 1.523 . S
C586 C570 1.368 . S
C586 C582 1.368 . S
C586 C585 1.523 . S
H587 C562 0.950 . S
H588 C564 0.950 . S
H589 C565 0.949 . S
H590 C567 0.950 . S
H591 C569 0.950 . S
C113 C79 1.481 . S
C118 C9 1.481 . S
C143 C65 1.481 . S
C148 C23 1.481 . S
C173 C107 1.481 . S
C178 C37 1.481 . S
C203 C93 1.481 . S
C208 C51 1.481 . S
C233 C3 1.374 . S
C238 C31 1.374 . S
C263 C17 1.374 . S
C268 C45 1.374 . S
C293 C21 1.355 . S
C298 C49 1.355 . S
C323 C7 1.355 . S
C328 C35 1.355 . S
C353 C59 1.374 . S
C358 C87 1.374 . S
C383 C101 1.374 . S
C388 C73 1.374 . S
C413 C105 1.355 . S
C418 C77 1.355 . S
C443 C63 1.355 . S
C448 C91 1.355 . S
C473 C22 1.497 . S
C478 C8 1.497 . S
C503 C36 1.498 . S
C508 C50 1.498 . S
C533 C64 1.497 . S
C538 C78 1.497 . S
C563 C92 1.498 . S
C568 C106 1.498 . S
