# Generated by pormake.
# Topology unj, (4)-cn, num edge types: 1
# Building blocks:
#     Node 0, Type 0, BuildingBlock: CEKHIL_clean_sbu_0, # of connection points: 4
#     Node 1, Type 0, BuildingBlock: CEKHIL_clean_sbu_0, # of connection points: 4
#     Node 2, Type 0, BuildingBlock: CEKHIL_clean_sbu_0, # of connection points: 4
#     Node 3, Type 0, BuildingBlock: CEKHIL_clean_sbu_0, # of connection points: 4
#     Node 4, Type 0, BuildingBlock: CEKHIL_clean_sbu_0, # of connection points: 4
#     Node 5, Type 0, BuildingBlock: CEKHIL_clean_sbu_0, # of connection points: 4
#     Edge 6, Type (0, 0), BuildingBlock: FUNLAD_clean_linker_1, # of connection points: 2
#     Edge 7, Type (0, 0), BuildingBlock: FUNLAD_clean_linker_1, # of connection points: 2
#     Edge 8, Type (0, 0), BuildingBlock: FUNLAD_clean_linker_1, # of connection points: 2
#     Edge 9, Type (0, 0), BuildingBlock: FUNLAD_clean_linker_1, # of connection points: 2
#     Edge 10, Type (0, 0), BuildingBlock: FUNLAD_clean_linker_1, # of connection points: 2
#     Edge 11, Type (0, 0), BuildingBlock: FUNLAD_clean_linker_1, # of connection points: 2
#     Edge 12, Type (0, 0), BuildingBlock: FUNLAD_clean_linker_1, # of connection points: 2
#     Edge 13, Type (0, 0), BuildingBlock: FUNLAD_clean_linker_1, # of connection points: 2
#     Edge 14, Type (0, 0), BuildingBlock: FUNLAD_clean_linker_1, # of connection points: 2
#     Edge 15, Type (0, 0), BuildingBlock: FUNLAD_clean_linker_1, # of connection points: 2
#     Edge 16, Type (0, 0), BuildingBlock: FUNLAD_clean_linker_1, # of connection points: 2
#     Edge 17, Type (0, 0), BuildingBlock: FUNLAD_clean_linker_1, # of connection points: 2
# Relax obj value: 0.029
# Max RMSD: 0.081
# Mean RMSD: 0.081
data_MOF--net-unj--node1-CEKHIL_clean_sbu_0--edge1-FUNLAD_clean_linker_1
_symmetry_space_group_name_H-M    P1
_symmetry_Int_Tables_number       1
_symmetry_cell_setting            triclinic
loop_
_symmetry_equiv_pos_as_xyz
'x, y, z'
_cell_length_a     33.331048
_cell_length_b     33.756542
_cell_length_c     37.710723
_cell_angle_alpha  90.121408
_cell_angle_beta   90.033695
_cell_angle_gamma 119.26496
loop_
_atom_site_label
_atom_site_type_symbol
_atom_site_fract_x
_atom_site_fract_y
_atom_site_fract_z
_atom_type_partial_charge
Co0 Co 0.52714 0.26498 0.58906 0.0
O1 O 0.53656 0.32044 0.61131 0.0
O2 O 0.47022 0.25647 0.61049 0.0
C3 C 0.56388 0.29873 0.53822 0.0
O4 O 0.50354 0.20135 0.5672 0.0
Co5 Co 0.60983 0.25158 0.56729 0.0
O6 O 0.56267 0.19962 0.53975 0.0
C7 C 0.58381 0.24618 0.64292 0.0
C8 C 0.4933 0.29912 0.61947 0.0
C9 C 0.52001 0.182 0.54675 0.0
O10 O 0.54655 0.2467 0.63443 0.0
O11 O 0.61461 0.25115 0.62032 0.0
O12 O 0.5212 0.28825 0.54286 0.0
O13 O 0.58349 0.29131 0.56486 0.0
Co14 Co 0.25565 0.49653 0.74996 0.0
O15 O 0.21408 0.51518 0.77012 0.0
O16 O 0.20442 0.44561 0.77293 0.0
C17 C 0.26321 0.53179 0.69753 0.0
O18 O 0.28831 0.46244 0.73109 0.0
Co19 Co 0.35509 0.56377 0.72661 0.0
O20 O 0.35667 0.51026 0.70681 0.0
C21 C 0.33241 0.54857 0.80287 0.0
C22 C 0.18897 0.47337 0.78018 0.0
C23 C 0.32512 0.47026 0.71421 0.0
O24 O 0.29273 0.51448 0.79549 0.0
O25 O 0.3605 0.57434 0.77917 0.0
O26 O 0.22794 0.49201 0.70331 0.0
O27 O 0.29134 0.54976 0.72372 0.0
Co28 Co 0.77405 0.22682 0.92944 0.0
O29 O 0.72108 0.17877 0.95324 0.0
O30 O 0.79184 0.18912 0.95639 0.0
C31 C 0.73878 0.21804 0.87644 0.0
O32 O 0.83688 0.26898 0.90764 0.0
Co33 Co 0.77646 0.3123 0.89752 0.0
O34 O 0.8364 0.32545 0.87659 0.0
C35 C 0.78176 0.30448 0.97523 0.0
C36 C 0.7488 0.16491 0.96492 0.0
C37 C 0.85637 0.30356 0.88695 0.0
O38 O 0.78695 0.26928 0.97132 0.0
O39 O 0.77312 0.32375 0.9494 0.0
O40 O 0.75554 0.19184 0.88523 0.0
O41 O 0.74137 0.24659 0.90038 0.0
Co42 Co 0.52098 0.75104 0.08952 0.0
O43 O 0.51057 0.69622 0.11311 0.0
O44 O 0.57285 0.76299 0.12024 0.0
C45 C 0.50059 0.71819 0.03528 0.0
O46 O 0.54497 0.81477 0.06833 0.0
Co47 Co 0.44169 0.75679 0.05076 0.0
O48 O 0.49208 0.81316 0.0303 0.0
C49 C 0.44729 0.76164 0.12921 0.0
C50 C 0.551 0.71969 0.12711 0.0
C51 C 0.53201 0.83321 0.04416 0.0
O52 O 0.48729 0.76423 0.12882 0.0
O53 O 0.42272 0.75496 0.10141 0.0
O54 O 0.542 0.73287 0.04718 0.0
O55 O 0.47237 0.7214 0.05694 0.0
Co56 Co 0.79297 0.52479 0.25115 0.0
O57 O 0.83446 0.5058 0.27087 0.0
O58 O 0.84449 0.57547 0.2745 0.0
C59 C 0.78509 0.49027 0.19807 0.0
O60 O 0.7599 0.55862 0.23299 0.0
Co61 Co 0.69337 0.45615 0.22771 0.0
O62 O 0.69025 0.51009 0.21059 0.0
C63 C 0.71825 0.46927 0.30356 0.0
C64 C 0.85988 0.54752 0.28119 0.0
C65 C 0.72202 0.55029 0.21752 0.0
O66 O 0.75549 0.50638 0.29648 0.0
O67 O 0.6918 0.44214 0.27957 0.0
O68 O 0.82058 0.52983 0.20424 0.0
O69 O 0.75745 0.47204 0.22434 0.0
Co70 Co 0.28143 0.78855 0.42209 0.0
O71 O 0.33418 0.83642 0.44687 0.0
O72 O 0.26584 0.83176 0.4426 0.0
C73 C 0.32072 0.78867 0.37305 0.0
O74 O 0.21935 0.7483 0.39814 0.0
Co75 Co 0.27165 0.6965 0.3978 0.0
O76 O 0.21369 0.6849 0.37408 0.0
C77 C 0.26517 0.71414 0.47399 0.0
C78 C 0.30795 0.85401 0.45384 0.0
C79 C 0.19735 0.71137 0.38011 0.0
O80 O 0.26182 0.74973 0.46656 0.0
O81 O 0.27363 0.69163 0.45062 0.0
O82 O 0.30703 0.81858 0.37647 0.0
O83 O 0.31227 0.76163 0.39942 0.0
H84 H 0.50476 0.12581 0.50993 0.0
C85 C 0.48988 0.13675 0.53087 0.0
H86 H 0.43272 0.11587 0.56484 0.0
H87 H 0.36335 0.96944 0.42732 0.0
H88 H 0.36792 0.03215 0.39309 0.0
H89 H 0.39619 0.10774 0.42025 0.0
H90 H 0.42068 0.12119 0.4818 0.0
C91 C 0.44748 0.1072 0.54247 0.0
C92 C 0.42292 0.05985 0.52774 0.0
C93 C 0.40699 0.0519 0.49214 0.0
C94 C 0.38907 1.00776 0.47685 0.0
C95 C 0.37579 1.0017 0.44069 0.0
C96 C 0.37847 0.03753 0.42064 0.0
C97 C 0.39452 0.08012 0.43589 0.0
C98 C 0.40869 0.08744 0.47119 0.0
H99 H 0.30036 0.91029 0.47664 0.0
C100 C 0.32484 0.89831 0.47206 0.0
H101 H 0.39391 0.91335 0.47754 0.0
H102 H 0.44761 0.06241 0.59722 0.0
H103 H 0.44041 0.99907 0.63226 0.0
H104 H 0.40772 0.92234 0.60626 0.0
H105 H 0.38216 0.90845 0.54497 0.0
C106 C 0.36914 0.92513 0.48125 0.0
C107 C 0.38566 0.97109 0.49751 0.0
C108 C 0.39996 0.97872 0.5335 0.0
C109 C 0.41846 0.023 0.54862 0.0
C110 C 0.43308 0.02952 0.58446 0.0
C111 C 0.42914 0.99345 0.60488 0.0
C112 C 0.41076 0.95025 0.59023 0.0
C113 C 0.3963 0.94276 0.555 0.0
H114 H 0.49466 0.3601 0.64159 0.0
C115 C 0.47203 0.32434 0.63578 0.0
H116 H 0.40301 0.27114 0.63571 0.0
H117 H 0.35729 0.3882 0.74849 0.0
H118 H 0.35575 0.33039 0.78727 0.0
H119 H 0.37701 0.27436 0.76509 0.0
H120 H 0.4005 0.27618 0.70388 0.0
C121 C 0.42655 0.30679 0.64102 0.0
C122 C 0.40743 0.33655 0.65309 0.0
C123 C 0.39207 0.33414 0.68847 0.0
C124 C 0.37871 0.36594 0.70104 0.0
C125 C 0.36634 0.36423 0.73713 0.0
C126 C 0.3656 0.33133 0.7598 0.0
C127 C 0.37764 0.29982 0.74733 0.0
C128 C 0.39101 0.30121 0.71217 0.0
H129 H 0.30221 0.39708 0.70535 0.0
C130 C 0.33128 0.43119 0.70325 0.0
H131 H 0.40083 0.47132 0.68864 0.0
H132 H 0.42852 0.34647 0.58243 0.0
H133 H 0.4275 0.4024 0.54276 0.0
H134 H 0.40397 0.45708 0.56417 0.0
H135 H 0.38121 0.45612 0.62534 0.0
C136 C 0.37201 0.43713 0.69123 0.0
C137 C 0.3795 0.39943 0.6778 0.0
C138 C 0.3925 0.40011 0.64185 0.0
C139 C 0.4063 0.36867 0.6295 0.0
C140 C 0.41863 0.37008 0.59339 0.0
C141 C 0.41792 0.40184 0.57026 0.0
C142 C 0.40467 0.43261 0.58231 0.0
C143 C 0.39193 0.43183 0.61758 0.0
H144 H 0.9189 0.29678 0.88209 0.0
C145 C 0.90394 0.31801 0.87505 0.0
H146 H 0.91559 0.3787 0.84994 0.0
H147 H 0.13329 0.4616 0.86724 0.0
H148 H 0.11851 0.49505 0.91905 0.0
H149 H 0.0391 0.47223 0.93732 0.0
H150 H 0.97392 0.41526 0.90409 0.0
C151 C 0.92923 0.3562 0.85634 0.0
C152 C 0.97722 0.37004 0.845 0.0
C153 C 1.01503 0.40431 0.864 0.0
C154 C 0.06091 0.41846 0.8528 0.0
C155 C 0.09783 0.45094 0.87356 0.0
C156 C 0.08982 0.47012 0.90361 0.0
C157 C 0.04511 0.45721 0.91394 0.0
C158 C 1.00802 0.42455 0.89458 0.0
H159 H 0.13178 0.4828 0.79968 0.0
C160 C 0.14385 0.45827 0.7973 0.0
H161 H 0.12816 0.39042 0.80523 0.0
H162 H 0.91265 0.30373 0.80255 0.0
H163 H 0.92704 0.27044 0.7504 0.0
H164 H 1.00625 0.29593 0.73008 0.0
H165 H 0.07154 0.35474 0.76172 0.0
C166 C 0.11681 0.4154 0.8085 0.0
C167 C 0.06897 0.39944 0.82176 0.0
C168 C 0.03101 0.3647 0.80302 0.0
C169 C 0.9852 0.35002 0.81467 0.0
C170 C 0.94809 0.31587 0.79507 0.0
C171 C 0.95585 0.29655 0.76502 0.0
C172 C 1.00044 0.31089 0.75358 0.0
C173 C 0.03767 0.34464 0.77213 0.0
H174 H 0.55051 0.89274 0.01048 0.0
C175 C 0.56288 0.88025 0.0321 0.0
H176 H 0.61686 0.89827 0.06921 0.0
H177 H 0.72368 0.05364 0.94631 0.0
H178 H 0.74144 0.99686 0.92375 0.0
H179 H 0.70919 0.92156 0.95189 0.0
H180 H 0.65831 0.90249 1.0027 0.0
C181 C 0.60353 0.90889 0.04708 0.0
C182 C 0.62965 0.95689 0.03443 0.0
C183 C 0.66081 0.96839 0.00577 0.0
C184 C 0.68063 0.01249 0.9903 0.0
C185 C 0.70912 0.02162 0.96015 0.0
C186 C 0.71932 0.98909 0.94667 0.0
C187 C 0.70106 0.94665 0.96245 0.0
C188 C 0.67191 0.93614 0.99154 0.0
H189 H 0.75771 0.11463 0.99658 0.0
C190 C 0.73227 0.12207 0.985 0.0
H191 H 0.66181 0.09821 0.97541 0.0
H192 H 0.57429 0.94701 0.09086 0.0
H193 H 0.55796 1.00432 0.11511 0.0
H194 H 0.5934 0.08122 0.0894 0.0
H195 H 0.64527 0.10133 0.03926 0.0
C196 C 0.6874 0.09076 0.98668 0.0
C197 C 0.6704 0.04569 1.0044 0.0
C198 C 0.64064 0.03457 0.03407 0.0
C199 C 0.62033 0.99024 0.04906 0.0
C200 C 0.59043 0.98009 0.07841 0.0
C201 C 0.58088 0.01268 0.09264 0.0
C202 C 0.60083 0.05597 0.07816 0.0
C203 C 0.63043 0.06701 0.04928 0.0
H204 H 0.74394 0.62331 0.20942 0.0
C205 C 0.71494 0.58909 0.20767 0.0
H206 H 0.6447 0.54864 0.19488 0.0
H207 H 0.64399 0.74272 0.21467 0.0
H208 H 0.66887 0.74361 0.27539 0.0
H209 H 0.69119 0.68762 0.29556 0.0
H210 H 0.68928 0.63073 0.25526 0.0
C211 C 0.67353 0.5829 0.19716 0.0
C212 C 0.66531 0.62053 0.1849 0.0
C213 C 0.66639 0.65349 0.20899 0.0
C214 C 0.65254 0.68533 0.19758 0.0
C215 C 0.65385 0.71771 0.2221 0.0
C216 C 0.66802 0.71856 0.25698 0.0
C217 C 0.68066 0.68707 0.26832 0.0
C218 C 0.67966 0.65469 0.24481 0.0
H219 H 0.54924 0.66027 0.15236 0.0
C220 C 0.57178 0.69592 0.14628 0.0
H221 H 0.64094 0.74873 0.14484 0.0
H222 H 0.6626 0.56475 0.13111 0.0
H223 H 0.63884 0.56493 0.07037 0.0
H224 H 0.61498 0.62 0.0508 0.0
H225 H 0.61455 0.67511 0.09188 0.0
C226 C 0.61731 0.71353 0.15139 0.0
C227 C 0.63658 0.68358 0.16246 0.0
C228 C 0.6375 0.65202 0.13798 0.0
C229 C 0.65159 0.62043 0.14924 0.0
C230 C 0.65176 0.58918 0.12416 0.0
C231 C 0.63844 0.58905 0.08914 0.0
C232 C 0.62499 0.62004 0.07812 0.0
C233 C 0.62463 0.65132 0.10207 0.0
H234 H 0.13953 0.72444 0.36964 0.0
C235 C 0.15089 0.6994 0.36675 0.0
H236 H 0.13168 0.63234 0.35093 0.0
H237 H 0.91828 0.56668 0.36836 0.0
H238 H 0.93257 0.53806 0.42306 0.0
H239 H 1.01152 0.55826 0.44089 0.0
H240 H 0.07677 0.60769 0.40428 0.0
C241 C 0.12184 0.65858 0.35257 0.0
C242 C 0.07411 0.64651 0.34145 0.0
C243 C 0.03612 0.61661 0.36258 0.0
C244 C 0.99039 0.60403 0.35182 0.0
C245 C 0.95349 0.57596 0.37448 0.0
C246 C 0.96125 0.5596 0.40615 0.0
C247 C 1.00571 0.57104 0.41623 0.0
C248 C 0.04284 0.59934 0.3949 0.0
H249 H 0.9158 0.53666 0.30158 0.0
C250 C 0.90526 0.56218 0.29786 0.0
H251 H 0.92506 0.63167 0.30173 0.0
H252 H 0.13885 0.70365 0.29436 0.0
H253 H 0.12481 0.73226 0.23954 0.0
H254 H 0.04576 0.70993 0.22044 0.0
H255 H 0.98027 0.65887 0.25599 0.0
C256 C 0.93458 0.60564 0.30666 0.0
C257 C 0.9825 0.62027 0.31929 0.0
C258 C 1.02062 0.65069 0.29839 0.0
C259 C 0.06637 0.66371 0.30943 0.0
C260 C 0.10353 0.69317 0.28754 0.0
C261 C 0.09595 0.70971 0.2559 0.0
C262 C 0.05144 0.69713 0.24515 0.0
C263 C 1.01412 0.66787 0.26592 0.0
H264 H 0.61953 0.31532 0.49968 0.0
C265 C 0.58928 0.31862 0.50514 0.0
H266 H 0.54805 0.34667 0.48893 0.0
H267 H 0.74661 0.45058 0.39671 0.0
H268 H 0.78475 0.47623 0.45347 0.0
H269 H 0.74044 0.45347 0.50917 0.0
H270 H 0.65793 0.40355 0.50839 0.0
C271 C 0.57808 0.34307 0.48324 0.0
C272 C 0.60418 0.36355 0.44984 0.0
C273 C 0.65196 0.39559 0.45066 0.0
C274 C 0.67702 0.41169 0.41839 0.0
C275 C 0.72537 0.43973 0.42017 0.0
C276 C 0.74783 0.45437 0.45265 0.0
C277 C 0.72293 0.44134 0.48401 0.0
C278 C 0.67559 0.4123 0.48319 0.0
H279 H 0.71096 0.48498 0.35958 0.0
C280 C 0.70341 0.45773 0.34084 0.0
H281 H 0.6721 0.38746 0.33157 0.0
H282 H 0.51294 0.30322 0.4385 0.0
H283 H 0.47344 0.28311 0.38199 0.0
H284 H 0.51509 0.31705 0.32649 0.0
H285 H 0.59657 0.37065 0.32712 0.0
C286 C 0.67862 0.41394 0.35086 0.0
C287 C 0.65355 0.3989 0.38535 0.0
C288 C 0.60524 0.36899 0.38472 0.0
C289 C 0.5808 0.35067 0.41685 0.0
C290 C 0.53309 0.31914 0.41509 0.0
C291 C 0.50991 0.30713 0.38276 0.0
C292 C 0.53337 0.32614 0.35153 0.0
C293 C 0.58036 0.35672 0.35231 0.0
H294 H 0.23871 0.70673 0.52918 0.0
C295 C 0.25688 0.69633 0.51075 0.0
H296 H 0.28749 0.65534 0.50179 0.0
H297 H 0.26811 0.63546 0.67648 0.0
H298 H 0.31339 0.71749 0.68017 0.0
H299 H 0.33438 0.76446 0.62614 0.0
H300 H 0.30907 0.72979 0.56826 0.0
C301 C 0.26959 0.66561 0.52061 0.0
C302 C 0.25491 0.63895 0.55416 0.0
C303 C 0.27178 0.65979 0.58761 0.0
C304 C 0.26209 0.63247 0.61858 0.0
C305 C 0.27666 0.65431 0.65192 0.0
C306 C 0.30231 0.70143 0.65446 0.0
C307 C 0.31395 0.72788 0.62406 0.0
C308 C 0.299 0.70751 0.59096 0.0
H309 H 0.30336 0.58323 0.65726 0.0
C310 C 0.26876 0.55789 0.6649 0.0
H311 H 0.1978 0.53044 0.65532 0.0
H312 H 0.21197 0.58845 0.49515 0.0
H313 H 0.16777 0.50638 0.49135 0.0
H314 H 0.15578 0.45893 0.54417 0.0
H315 H 0.18748 0.49321 0.60114 0.0
C316 C 0.23244 0.55506 0.64717 0.0
C317 C 0.23815 0.58428 0.61572 0.0
C318 C 0.21967 0.56363 0.58252 0.0
C319 C 0.2276 0.59098 0.55187 0.0
C320 C 0.20806 0.56935 0.51914 0.0
C321 C 0.18238 0.52225 0.51659 0.0
C322 C 0.17555 0.49555 0.54634 0.0
C323 C 0.19391 0.51576 0.57895 0.0
H324 H 0.72414 0.19674 0.82022 0.0
C325 C 0.71874 0.21589 0.84108 0.0
H326 H 0.68856 0.25582 0.85542 0.0
H327 H 0.67797 0.32638 0.70391 0.0
H328 H 0.73253 0.39581 0.73378 0.0
H329 H 0.76193 0.3935 0.79334 0.0
H330 H 0.73695 0.32193 0.82345 0.0
C331 C 0.69359 0.23644 0.83454 0.0
C332 C 0.67526 0.23717 0.79854 0.0
C333 C 0.69042 0.27943 0.78123 0.0
C334 C 0.674 0.28078 0.74666 0.0
C335 C 0.68973 0.32341 0.73002 0.0
C336 C 0.72096 0.36353 0.74688 0.0
C337 C 0.73745 0.36223 0.78043 0.0
C338 C 0.72264 0.32082 0.79748 0.0
H339 H 0.56659 0.23675 0.70032 0.0
C340 C 0.5921 0.24047 0.68074 0.0
H341 H 0.6575 0.24628 0.67211 0.0
H342 H 0.63281 0.1511 0.82623 0.0
H343 H 0.57842 0.08196 0.79608 0.0
H344 H 0.55338 0.08417 0.73489 0.0
H345 H 0.58206 0.15577 0.70368 0.0
C346 C 0.6312 0.24139 0.69131 0.0
C347 C 0.64269 0.23996 0.72927 0.0
C348 C 0.62637 0.19785 0.74691 0.0
C349 C 0.64207 0.19646 0.7818 0.0
C350 C 0.62358 0.15406 0.79927 0.0
C351 C 0.592 0.1141 0.78236 0.0
C352 C 0.57782 0.11535 0.74793 0.0
C353 C 0.59459 0.15665 0.73031 0.0
H354 H 0.31804 0.54687 0.86038 0.0
C355 C 0.34509 0.56071 0.84055 0.0
H356 H 0.41527 0.60478 0.83012 0.0
H357 H 0.46288 0.74589 0.95146 0.0
H358 H 0.47188 0.79082 0.89901 0.0
H359 H 0.44776 0.75447 0.84026 0.0
H360 H 0.41464 0.67314 0.83357 0.0
C361 C 0.38849 0.59084 0.85016 0.0
C362 C 0.40081 0.61167 0.88627 0.0
C363 C 0.42002 0.6595 0.88974 0.0
C364 C 0.43378 0.68055 0.92363 0.0
C365 C 0.45237 0.72822 0.92632 0.0
C366 C 0.45755 0.75444 0.89644 0.0
C367 C 0.44399 0.73397 0.86337 0.0
C368 C 0.42523 0.68714 0.85992 0.0
H369 H 0.5131 0.70107 0.98129 0.0
C370 C 0.48662 0.69834 0.99952 0.0
H371 H 0.41527 0.67095 0.00816 0.0
H372 H 0.37006 0.52 0.88904 0.0
H373 H 0.35955 0.47527 0.94185 0.0
H374 H 0.37958 0.51146 1.00089 0.0
H375 H 0.41093 0.59284 0.00735 0.0
C376 C 0.44219 0.67569 0.98962 0.0
C377 C 0.42811 0.65383 0.95408 0.0
C378 C 0.40834 0.60605 0.95079 0.0
C379 C 0.39547 0.58499 0.9168 0.0
C380 C 0.37858 0.53759 0.91422 0.0
C381 C 0.37278 0.51151 0.94434 0.0
C382 C 0.38414 0.53189 0.97758 0.0
C383 C 0.40199 0.57862 0.98091 0.0
H384 H 0.80594 0.3166 0.0311 0.0
C385 C 0.78851 0.32548 0.01086 0.0
H386 H 0.75807 0.36543 0.99745 0.0
H387 H 0.77968 0.38829 0.17404 0.0
H388 H 0.73485 0.30633 0.17785 0.0
H389 H 0.71082 0.25906 0.12375 0.0
H390 H 0.73287 0.29338 0.06568 0.0
C391 C 0.77515 0.35651 0.01797 0.0
C392 C 0.78751 0.38411 0.05129 0.0
C393 C 0.7717 0.36352 0.08492 0.0
C394 C 0.78252 0.39102 0.116 0.0
C395 C 0.76988 0.36935 0.14945 0.0
C396 C 0.74452 0.32224 0.15205 0.0
C397 C 0.73122 0.29563 0.12161 0.0
C398 C 0.74449 0.31581 0.08839 0.0
H399 H 0.74305 0.43959 0.15776 0.0
C400 C 0.77797 0.46508 0.16459 0.0
H401 H 0.8483 0.49333 0.15223 0.0
H402 H 0.82694 0.43481 0.99172 0.0
H403 H 0.86877 0.51683 0.9878 0.0
H404 H 0.88154 0.56438 0.04088 0.0
H405 H 0.85306 0.53015 0.09828 0.0
C406 C 0.81326 0.46848 0.14508 0.0
C407 C 0.80576 0.43918 0.11317 0.0
C408 C 0.82195 0.45969 0.07963 0.0
C409 C 0.8134 0.43221 0.04882 0.0
C410 C 0.83122 0.45384 0.01587 0.0
C411 C 0.85555 0.50098 0.01323 0.0
C412 C 0.86282 0.52774 0.04311 0.0
C413 C 0.84632 0.50757 0.07596 0.0
H414 H 0.35748 0.76031 0.34363 0.0
C415 C 0.34439 0.78409 0.34157 0.0
H416 H 0.33791 0.83097 0.30852 0.0
H417 H 0.501 0.8638 0.20529 0.0
H418 H 0.52726 0.93887 0.23006 0.0
H419 H 0.48466 0.95079 0.27858 0.0
H420 H 0.41522 0.88787 0.30234 0.0
C421 C 0.34976 0.80628 0.31091 0.0
C422 C 0.37444 0.79922 0.28042 0.0
C423 C 0.41551 0.83625 0.26719 0.0
C424 C 0.44061 0.82925 0.23957 0.0
C425 C 0.48088 0.86707 0.22643 0.0
C426 C 0.49636 0.91037 0.24042 0.0
C427 C 0.47235 0.91709 0.26772 0.0
C428 C 0.43246 0.88062 0.28109 0.0
H429 H 0.39209 0.7613 0.16101 0.0
C430 C 0.42704 0.76676 0.1626 0.0
H431 H 0.4844 0.78655 0.19637 0.0
H432 H 0.29286 0.72193 0.29435 0.0
H433 H 0.2688 0.64639 0.27171 0.0
H434 H 0.31715 0.63292 0.22923 0.0
H435 H 0.38917 0.69527 0.20835 0.0
C436 C 0.44877 0.77869 0.19403 0.0
C437 C 0.425 0.78515 0.22539 0.0
C438 C 0.3845 0.74794 0.23916 0.0
C439 C 0.35825 0.75523 0.26557 0.0
C440 C 0.31572 0.718 0.27614 0.0
C441 C 0.30119 0.67447 0.26302 0.0
C442 C 0.32827 0.66692 0.23897 0.0
C443 C 0.36939 0.70309 0.22702 0.0
loop_
_geom_bond_atom_site_label_1
_geom_bond_atom_site_label_2
_geom_bond_distance
_geom_bond_site_symmetry_2
_ccdc_geom_bond_type
Co0 O1 2.216 . S
Co0 O2 2.091 . S
Co0 O4 2.004 . S
Co0 O10 2.021 . S
Co0 O12 2.137 . S
Co0 O13 2.244 . S
O1 Co0 2.216 . S
O1 C8 1.247 . S
O2 Co0 2.091 . S
O2 C8 1.261 . S
C3 O12 1.247 . S
C3 O13 1.272 . S
O4 Co0 2.004 . S
O4 C9 1.259 . S
Co5 O6 2.061 . S
Co5 O11 2.052 . S
Co5 O13 2.135 . S
O6 Co5 2.061 . S
O6 C9 1.235 . S
C7 O10 1.238 . S
C7 O11 1.241 . S
C8 O1 1.247 . S
C8 O2 1.261 . S
C9 O4 1.259 . S
C9 O6 1.235 . S
O10 Co0 2.021 . S
O10 C7 1.238 . S
O11 Co5 2.052 . S
O11 C7 1.241 . S
O12 Co0 2.137 . S
O12 C3 1.247 . S
O13 Co0 2.244 . S
O13 C3 1.272 . S
O13 Co5 2.135 . S
Co14 O15 2.216 . S
Co14 O16 2.091 . S
Co14 O18 2.004 . S
Co14 O24 2.021 . S
Co14 O26 2.137 . S
Co14 O27 2.244 . S
O15 Co14 2.216 . S
O15 C22 1.247 . S
O16 Co14 2.091 . S
O16 C22 1.261 . S
C17 O26 1.247 . S
C17 O27 1.272 . S
O18 Co14 2.004 . S
O18 C23 1.259 . S
Co19 O20 2.061 . S
Co19 O25 2.052 . S
Co19 O27 2.135 . S
O20 Co19 2.061 . S
O20 C23 1.235 . S
C21 O24 1.238 . S
C21 O25 1.241 . S
C22 O15 1.247 . S
C22 O16 1.261 . S
C23 O18 1.259 . S
C23 O20 1.235 . S
O24 Co14 2.021 . S
O24 C21 1.238 . S
O25 Co19 2.052 . S
O25 C21 1.241 . S
O26 Co14 2.137 . S
O26 C17 1.247 . S
O27 Co14 2.244 . S
O27 C17 1.272 . S
O27 Co19 2.135 . S
Co28 O29 2.216 . S
Co28 O30 2.091 . S
Co28 O32 2.004 . S
Co28 O38 2.021 . S
Co28 O40 2.137 . S
Co28 O41 2.244 . S
O29 Co28 2.216 . S
O29 C36 1.247 . S
O30 Co28 2.091 . S
O30 C36 1.261 . S
C31 O40 1.247 . S
C31 O41 1.272 . S
O32 Co28 2.004 . S
O32 C37 1.259 . S
Co33 O34 2.061 . S
Co33 O39 2.052 . S
Co33 O41 2.135 . S
O34 Co33 2.061 . S
O34 C37 1.235 . S
C35 O38 1.238 . S
C35 O39 1.241 . S
C36 O29 1.247 . S
C36 O30 1.261 . S
C37 O32 1.259 . S
C37 O34 1.235 . S
O38 Co28 2.021 . S
O38 C35 1.238 . S
O39 Co33 2.052 . S
O39 C35 1.241 . S
O40 Co28 2.137 . S
O40 C31 1.247 . S
O41 Co28 2.244 . S
O41 C31 1.272 . S
O41 Co33 2.135 . S
Co42 O43 2.216 . S
Co42 O44 2.091 . S
Co42 O46 2.004 . S
Co42 O52 2.021 . S
Co42 O54 2.137 . S
Co42 O55 2.244 . S
O43 Co42 2.216 . S
O43 C50 1.247 . S
O44 Co42 2.091 . S
O44 C50 1.261 . S
C45 O54 1.247 . S
C45 O55 1.272 . S
O46 Co42 2.004 . S
O46 C51 1.259 . S
Co47 O48 2.061 . S
Co47 O53 2.052 . S
Co47 O55 2.135 . S
O48 Co47 2.061 . S
O48 C51 1.235 . S
C49 O52 1.238 . S
C49 O53 1.241 . S
C50 O43 1.247 . S
C50 O44 1.261 . S
C51 O46 1.259 . S
C51 O48 1.235 . S
O52 Co42 2.021 . S
O52 C49 1.238 . S
O53 Co47 2.052 . S
O53 C49 1.241 . S
O54 Co42 2.137 . S
O54 C45 1.247 . S
O55 Co42 2.244 . S
O55 C45 1.272 . S
O55 Co47 2.135 . S
Co56 O57 2.216 . S
Co56 O58 2.091 . S
Co56 O60 2.004 . S
Co56 O66 2.021 . S
Co56 O68 2.137 . S
Co56 O69 2.244 . S
O57 Co56 2.216 . S
O57 C64 1.247 . S
O58 Co56 2.091 . S
O58 C64 1.261 . S
C59 O68 1.247 . S
C59 O69 1.272 . S
O60 Co56 2.004 . S
O60 C65 1.259 . S
Co61 O62 2.061 . S
Co61 O67 2.052 . S
Co61 O69 2.135 . S
O62 Co61 2.061 . S
O62 C65 1.235 . S
C63 O66 1.238 . S
C63 O67 1.241 . S
C64 O57 1.247 . S
C64 O58 1.261 . S
C65 O60 1.259 . S
C65 O62 1.235 . S
O66 Co56 2.021 . S
O66 C63 1.238 . S
O67 Co61 2.052 . S
O67 C63 1.241 . S
O68 Co56 2.137 . S
O68 C59 1.247 . S
O69 Co56 2.244 . S
O69 C59 1.272 . S
O69 Co61 2.135 . S
Co70 O71 2.216 . S
Co70 O72 2.091 . S
Co70 O74 2.004 . S
Co70 O80 2.021 . S
Co70 O82 2.137 . S
Co70 O83 2.244 . S
O71 Co70 2.216 . S
O71 C78 1.247 . S
O72 Co70 2.091 . S
O72 C78 1.261 . S
C73 O82 1.247 . S
C73 O83 1.272 . S
O74 Co70 2.004 . S
O74 C79 1.259 . S
Co75 O76 2.061 . S
Co75 O81 2.052 . S
Co75 O83 2.135 . S
O76 Co75 2.061 . S
O76 C79 1.235 . S
C77 O80 1.238 . S
C77 O81 1.241 . S
C78 O71 1.247 . S
C78 O72 1.261 . S
C79 O74 1.259 . S
C79 O76 1.235 . S
O80 Co70 2.021 . S
O80 C77 1.238 . S
O81 Co75 2.052 . S
O81 C77 1.241 . S
O82 Co70 2.137 . S
O82 C73 1.247 . S
O83 Co70 2.244 . S
O83 C73 1.272 . S
O83 Co75 2.135 . S
H84 C85 0.951 . S
C85 H84 0.951 . S
C85 C91 1.265 . S
H86 C91 0.950 . S
H87 C95 0.949 . S
H88 C96 0.950 . S
H89 C97 0.951 . S
H90 C98 0.951 . S
C91 C85 1.265 . S
C91 H86 0.950 . S
C91 C92 1.478 . S
C92 C91 1.478 . S
C92 C93 1.397 . S
C92 C109 1.394 . S
C93 C92 1.397 . S
C93 C94 1.438 1_545 S
C93 C98 1.429 . S
C94 C93 1.438 1_565 S
C94 C95 1.428 . S
C94 C107 1.394 . S
C95 H87 0.949 . S
C95 C94 1.428 . S
C95 C96 1.345 1_565 S
C96 H88 0.950 . S
C96 C95 1.345 1_545 S
C96 C97 1.424 . S
C97 H89 0.951 . S
C97 C96 1.424 . S
C97 C98 1.347 . S
C98 H90 0.951 . S
C98 C93 1.429 . S
C98 C97 1.347 . S
H99 C100 0.951 . S
C100 H99 0.951 . S
C100 C106 1.265 . S
H101 C106 0.950 . S
H102 C110 0.949 . S
H103 C111 0.950 1_545 S
H104 C112 0.951 . S
H105 C113 0.951 . S
C106 C100 1.265 . S
C106 H101 0.950 . S
C106 C107 1.478 . S
C107 C94 1.394 . S
C107 C106 1.478 . S
C107 C108 1.397 . S
C108 C107 1.397 . S
C108 C109 1.438 1_565 S
C108 C113 1.429 . S
C109 C92 1.394 . S
C109 C108 1.438 1_545 S
C109 C110 1.428 . S
C110 H102 0.949 . S
C110 C109 1.428 . S
C110 C111 1.342 1_545 S
C111 H103 0.950 1_565 S
C111 C110 1.342 1_565 S
C111 C112 1.427 . S
C112 H104 0.951 . S
C112 C111 1.427 . S
C112 C113 1.347 . S
C113 H105 0.951 . S
C113 C108 1.429 . S
C113 C112 1.347 . S
H114 C115 0.951 . S
C115 H114 0.951 . S
C115 C121 1.265 . S
H116 C121 0.950 . S
H117 C125 0.949 . S
H118 C126 0.950 . S
H119 C127 0.951 . S
H120 C128 0.951 . S
C121 C115 1.265 . S
C121 H116 0.950 . S
C121 C122 1.478 . S
C122 C121 1.478 . S
C122 C123 1.397 . S
C122 C139 1.394 . S
C123 C122 1.397 . S
C123 C124 1.438 . S
C123 C128 1.429 . S
C124 C123 1.438 . S
C124 C125 1.428 . S
C124 C137 1.394 . S
C125 H117 0.949 . S
C125 C124 1.428 . S
C125 C126 1.345 . S
C126 H118 0.950 . S
C126 C125 1.345 . S
C126 C127 1.424 . S
C127 H119 0.951 . S
C127 C126 1.424 . S
C127 C128 1.347 . S
C128 H120 0.951 . S
C128 C123 1.429 . S
C128 C127 1.347 . S
H129 C130 0.951 . S
C130 H129 0.951 . S
C130 C136 1.265 . S
H131 C136 0.950 . S
H132 C140 0.949 . S
H133 C141 0.950 . S
H134 C142 0.951 . S
H135 C143 0.951 . S
C136 C130 1.265 . S
C136 H131 0.950 . S
C136 C137 1.478 . S
C137 C124 1.394 . S
C137 C136 1.478 . S
C137 C138 1.397 . S
C138 C137 1.397 . S
C138 C139 1.438 . S
C138 C143 1.429 . S
C139 C122 1.394 . S
C139 C138 1.438 . S
C139 C140 1.428 . S
C140 H132 0.949 . S
C140 C139 1.428 . S
C140 C141 1.345 . S
C141 H133 0.950 . S
C141 C140 1.345 . S
C141 C142 1.424 . S
C142 H134 0.951 . S
C142 C141 1.424 . S
C142 C143 1.347 . S
C143 H135 0.951 . S
C143 C138 1.429 . S
C143 C142 1.347 . S
H144 C145 0.951 . S
C145 H144 0.951 . S
C145 C151 1.265 . S
H146 C151 0.950 . S
H147 C155 0.949 . S
H148 C156 0.950 . S
H149 C157 0.942 1_655 S
H150 C158 0.951 . S
C151 C145 1.265 . S
C151 H146 0.950 . S
C151 C152 1.478 . S
C152 C151 1.478 . S
C152 C153 1.397 . S
C152 C169 1.394 . S
C153 C152 1.397 . S
C153 C154 1.438 1_655 S
C153 C158 1.429 . S
C154 C153 1.438 1_455 S
C154 C155 1.428 . S
C154 C167 1.394 . S
C155 H147 0.949 . S
C155 C154 1.428 . S
C155 C156 1.345 . S
C156 H148 0.950 . S
C156 C155 1.345 . S
C156 C157 1.424 . S
C157 H149 0.942 1_455 S
C157 C156 1.424 . S
C157 C158 1.347 1_455 S
C158 H150 0.951 . S
C158 C153 1.429 . S
C158 C157 1.347 1_655 S
H159 C160 0.951 . S
C160 H159 0.951 . S
C160 C166 1.265 . S
H161 C166 0.950 . S
H162 C170 0.949 . S
H163 C171 0.950 . S
H164 C172 0.951 . S
H165 C173 0.951 . S
C166 C160 1.265 . S
C166 H161 0.950 . S
C166 C167 1.478 . S
C167 C154 1.394 . S
C167 C166 1.478 . S
C167 C168 1.397 . S
C168 C167 1.397 . S
C168 C169 1.438 1_455 S
C168 C173 1.429 . S
C169 C152 1.394 . S
C169 C168 1.438 1_655 S
C169 C170 1.428 . S
C170 H162 0.949 . S
C170 C169 1.428 . S
C170 C171 1.345 . S
C171 H163 0.950 . S
C171 C170 1.345 . S
C171 C172 1.424 . S
C172 H164 0.951 . S
C172 C171 1.424 . S
C172 C173 1.347 1_655 S
C173 H165 0.951 . S
C173 C168 1.429 . S
C173 C172 1.347 1_455 S
H174 C175 0.951 . S
C175 H174 0.951 . S
C175 C181 1.265 . S
H176 C181 0.950 . S
H177 C185 0.949 . S
H178 C186 0.950 . S
H179 C187 0.951 . S
H180 C188 0.961 . S
C181 C175 1.265 . S
C181 H176 0.950 . S
C181 C182 1.478 . S
C182 C181 1.478 . S
C182 C183 1.397 . S
C182 C199 1.394 . S
C183 C182 1.397 . S
C183 C184 1.438 1_564 S
C183 C188 1.429 . S
C184 C183 1.438 1_546 S
C184 C185 1.428 . S
C184 C197 1.394 . S
C185 H177 0.949 . S
C185 C184 1.428 . S
C185 C186 1.345 . S
C186 H178 0.950 . S
C186 C185 1.345 . S
C186 C187 1.424 1_545 S
C187 H179 0.951 . S
C187 C186 1.424 1_565 S
C187 C188 1.337 1_556 S
C188 H180 0.961 . S
C188 C183 1.429 . S
C188 C187 1.337 1_554 S
H189 C190 0.951 . S
C190 H189 0.951 . S
C190 C196 1.265 . S
H191 C196 0.950 . S
H192 C200 0.949 . S
H193 C201 0.950 . S
H194 C202 0.951 . S
H195 C203 0.951 1_556 S
C196 C190 1.265 . S
C196 H191 0.950 . S
C196 C197 1.478 . S
C197 C184 1.394 . S
C197 C196 1.478 . S
C197 C198 1.402 . S
C198 C197 1.402 . S
C198 C199 1.432 1_546 S
C198 C203 1.429 1_556 S
C199 C182 1.394 . S
C199 C198 1.432 1_564 S
C199 C200 1.428 . S
C200 H192 0.949 . S
C200 C199 1.428 . S
C200 C201 1.345 . S
C201 H193 0.950 . S
C201 C200 1.345 . S
C201 C202 1.424 1_565 S
C202 H194 0.951 . S
C202 C201 1.424 1_545 S
C202 C203 1.347 . S
C203 H195 0.951 1_554 S
C203 C198 1.429 1_554 S
C203 C202 1.347 . S
H204 C205 0.951 . S
C205 H204 0.951 . S
C205 C211 1.265 . S
H206 C211 0.950 . S
H207 C215 0.949 . S
H208 C216 0.950 . S
H209 C217 0.951 . S
H210 C218 0.951 . S
C211 C205 1.265 . S
C211 H206 0.950 . S
C211 C212 1.478 . S
C212 C211 1.478 . S
C212 C213 1.397 . S
C212 C229 1.394 . S
C213 C212 1.397 . S
C213 C214 1.438 . S
C213 C218 1.429 . S
C214 C213 1.438 . S
C214 C215 1.428 . S
C214 C227 1.394 . S
C215 H207 0.949 . S
C215 C214 1.428 . S
C215 C216 1.345 . S
C216 H208 0.950 . S
C216 C215 1.345 . S
C216 C217 1.424 . S
C217 H209 0.951 . S
C217 C216 1.424 . S
C217 C218 1.347 . S
C218 H210 0.951 . S
C218 C213 1.429 . S
C218 C217 1.347 . S
H219 C220 0.951 . S
C220 H219 0.951 . S
C220 C226 1.265 . S
H221 C226 0.950 . S
H222 C230 0.949 . S
H223 C231 0.950 . S
H224 C232 0.951 . S
H225 C233 0.951 . S
C226 C220 1.265 . S
C226 H221 0.950 . S
C226 C227 1.478 . S
C227 C214 1.394 . S
C227 C226 1.478 . S
C227 C228 1.397 . S
C228 C227 1.397 . S
C228 C229 1.438 . S
C228 C233 1.429 . S
C229 C212 1.394 . S
C229 C228 1.438 . S
C229 C230 1.428 . S
C230 H222 0.949 . S
C230 C229 1.428 . S
C230 C231 1.345 . S
C231 H223 0.950 . S
C231 C230 1.345 . S
C231 C232 1.424 . S
C232 H224 0.951 . S
C232 C231 1.424 . S
C232 C233 1.347 . S
C233 H225 0.951 . S
C233 C228 1.429 . S
C233 C232 1.347 . S
H234 C235 0.951 . S
C235 H234 0.951 . S
C235 C241 1.265 . S
H236 C241 0.950 . S
H237 C245 0.949 . S
H238 C246 0.950 . S
H239 C247 0.951 . S
H240 C248 0.951 . S
C241 C235 1.265 . S
C241 H236 0.950 . S
C241 C242 1.478 . S
C242 C241 1.478 . S
C242 C243 1.397 . S
C242 C259 1.394 . S
C243 C242 1.397 . S
C243 C244 1.438 1_455 S
C243 C248 1.429 . S
C244 C243 1.438 1_655 S
C244 C245 1.428 . S
C244 C257 1.394 . S
C245 H237 0.949 . S
C245 C244 1.428 . S
C245 C246 1.345 . S
C246 H238 0.950 . S
C246 C245 1.345 . S
C246 C247 1.424 . S
C247 H239 0.951 . S
C247 C246 1.424 . S
C247 C248 1.347 1_655 S
C248 H240 0.951 . S
C248 C243 1.429 . S
C248 C247 1.347 1_455 S
H249 C250 0.951 . S
C250 H249 0.951 . S
C250 C256 1.265 . S
H251 C256 0.950 . S
H252 C260 0.949 . S
H253 C261 0.950 . S
H254 C262 0.951 . S
H255 C263 0.951 . S
C256 C250 1.265 . S
C256 H251 0.950 . S
C256 C257 1.478 . S
C257 C244 1.394 . S
C257 C256 1.478 . S
C257 C258 1.383 1_655 S
C258 C257 1.383 1_455 S
C258 C259 1.461 . S
C258 C263 1.420 1_455 S
C259 C242 1.394 . S
C259 C258 1.461 . S
C259 C260 1.428 . S
C260 H252 0.949 . S
C260 C259 1.428 . S
C260 C261 1.345 . S
C261 H253 0.950 . S
C261 C260 1.345 . S
C261 C262 1.424 . S
C262 H254 0.951 . S
C262 C261 1.424 . S
C262 C263 1.347 1_455 S
C263 H255 0.951 . S
C263 C258 1.420 1_655 S
C263 C262 1.347 1_655 S
H264 C265 0.951 . S
C265 H264 0.951 . S
C265 C271 1.265 . S
H266 C271 0.950 . S
H267 C275 0.949 . S
H268 C276 0.950 . S
H269 C277 0.951 . S
H270 C278 0.951 . S
C271 C265 1.265 . S
C271 H266 0.950 . S
C271 C272 1.478 . S
C272 C271 1.478 . S
C272 C273 1.397 . S
C272 C289 1.394 . S
C273 C272 1.397 . S
C273 C274 1.438 . S
C273 C278 1.429 . S
C274 C273 1.438 . S
C274 C275 1.428 . S
C274 C287 1.394 . S
C275 H267 0.949 . S
C275 C274 1.428 . S
C275 C276 1.345 . S
C276 H268 0.950 . S
C276 C275 1.345 . S
C276 C277 1.424 . S
C277 H269 0.951 . S
C277 C276 1.424 . S
C277 C278 1.347 . S
C278 H270 0.951 . S
C278 C273 1.429 . S
C278 C277 1.347 . S
H279 C280 0.951 . S
C280 H279 0.951 . S
C280 C286 1.265 . S
H281 C286 0.950 . S
H282 C290 0.949 . S
H283 C291 0.950 . S
H284 C292 0.951 . S
H285 C293 0.951 . S
C286 C280 1.265 . S
C286 H281 0.950 . S
C286 C287 1.478 . S
C287 C274 1.394 . S
C287 C286 1.478 . S
C287 C288 1.397 . S
C288 C287 1.397 . S
C288 C289 1.438 . S
C288 C293 1.429 . S
C289 C272 1.394 . S
C289 C288 1.438 . S
C289 C290 1.428 . S
C290 H282 0.949 . S
C290 C289 1.428 . S
C290 C291 1.345 . S
C291 H283 0.950 . S
C291 C290 1.345 . S
C291 C292 1.424 . S
C292 H284 0.951 . S
C292 C291 1.424 . S
C292 C293 1.347 . S
C293 H285 0.951 . S
C293 C288 1.429 . S
C293 C292 1.347 . S
H294 C295 0.951 . S
C295 H294 0.951 . S
C295 C301 1.265 . S
H296 C301 0.950 . S
H297 C305 0.949 . S
H298 C306 0.950 . S
H299 C307 0.951 . S
H300 C308 0.951 . S
C301 C295 1.265 . S
C301 H296 0.950 . S
C301 C302 1.478 . S
C302 C301 1.478 . S
C302 C303 1.397 . S
C302 C319 1.394 . S
C303 C302 1.397 . S
C303 C304 1.438 . S
C303 C308 1.429 . S
C304 C303 1.438 . S
C304 C305 1.428 . S
C304 C317 1.394 . S
C305 H297 0.949 . S
C305 C304 1.428 . S
C305 C306 1.345 . S
C306 H298 0.950 . S
C306 C305 1.345 . S
C306 C307 1.424 . S
C307 H299 0.951 . S
C307 C306 1.424 . S
C307 C308 1.347 . S
C308 H300 0.951 . S
C308 C303 1.429 . S
C308 C307 1.347 . S
H309 C310 0.951 . S
C310 H309 0.951 . S
C310 C316 1.265 . S
H311 C316 0.950 . S
H312 C320 0.949 . S
H313 C321 0.950 . S
H314 C322 0.951 . S
H315 C323 0.951 . S
C316 C310 1.265 . S
C316 H311 0.950 . S
C316 C317 1.478 . S
C317 C304 1.394 . S
C317 C316 1.478 . S
C317 C318 1.397 . S
C318 C317 1.397 . S
C318 C319 1.438 . S
C318 C323 1.429 . S
C319 C302 1.394 . S
C319 C318 1.438 . S
C319 C320 1.428 . S
C320 H312 0.949 . S
C320 C319 1.428 . S
C320 C321 1.345 . S
C321 H313 0.950 . S
C321 C320 1.345 . S
C321 C322 1.424 . S
C322 H314 0.951 . S
C322 C321 1.424 . S
C322 C323 1.347 . S
C323 H315 0.951 . S
C323 C318 1.429 . S
C323 C322 1.347 . S
H324 C325 0.951 . S
C325 H324 0.951 . S
C325 C331 1.265 . S
H326 C331 0.950 . S
H327 C335 0.949 . S
H328 C336 0.950 . S
H329 C337 0.951 . S
H330 C338 0.951 . S
C331 C325 1.265 . S
C331 H326 0.950 . S
C331 C332 1.478 . S
C332 C331 1.478 . S
C332 C333 1.397 . S
C332 C349 1.394 . S
C333 C332 1.397 . S
C333 C334 1.438 . S
C333 C338 1.429 . S
C334 C333 1.438 . S
C334 C335 1.428 . S
C334 C347 1.394 . S
C335 H327 0.949 . S
C335 C334 1.428 . S
C335 C336 1.345 . S
C336 H328 0.950 . S
C336 C335 1.345 . S
C336 C337 1.424 . S
C337 H329 0.951 . S
C337 C336 1.424 . S
C337 C338 1.347 . S
C338 H330 0.951 . S
C338 C333 1.429 . S
C338 C337 1.347 . S
H339 C340 0.951 . S
C340 H339 0.951 . S
C340 C346 1.265 . S
H341 C346 0.950 . S
H342 C350 0.949 . S
H343 C351 0.950 . S
H344 C352 0.951 . S
H345 C353 0.951 . S
C346 C340 1.265 . S
C346 H341 0.950 . S
C346 C347 1.478 . S
C347 C334 1.394 . S
C347 C346 1.478 . S
C347 C348 1.397 . S
C348 C347 1.397 . S
C348 C349 1.438 . S
C348 C353 1.429 . S
C349 C332 1.394 . S
C349 C348 1.438 . S
C349 C350 1.428 . S
C350 H342 0.949 . S
C350 C349 1.428 . S
C350 C351 1.345 . S
C351 H343 0.950 . S
C351 C350 1.345 . S
C351 C352 1.424 . S
C352 H344 0.951 . S
C352 C351 1.424 . S
C352 C353 1.347 . S
C353 H345 0.951 . S
C353 C348 1.429 . S
C353 C352 1.347 . S
H354 C355 0.951 . S
C355 H354 0.951 . S
C355 C361 1.265 . S
H356 C361 0.950 . S
H357 C365 0.949 . S
H358 C366 0.950 . S
H359 C367 0.951 . S
H360 C368 0.951 . S
C361 C355 1.265 . S
C361 H356 0.950 . S
C361 C362 1.478 . S
C362 C361 1.478 . S
C362 C363 1.397 . S
C362 C379 1.394 . S
C363 C362 1.397 . S
C363 C364 1.438 . S
C363 C368 1.429 . S
C364 C363 1.438 . S
C364 C365 1.428 . S
C364 C377 1.394 . S
C365 H357 0.949 . S
C365 C364 1.428 . S
C365 C366 1.345 . S
C366 H358 0.950 . S
C366 C365 1.345 . S
C366 C367 1.424 . S
C367 H359 0.951 . S
C367 C366 1.424 . S
C367 C368 1.347 . S
C368 H360 0.951 . S
C368 C363 1.429 . S
C368 C367 1.347 . S
H369 C370 0.951 . S
C370 H369 0.951 . S
C370 C376 1.265 . S
H371 C376 0.950 . S
H372 C380 0.949 . S
H373 C381 0.950 . S
H374 C382 0.951 . S
H375 C383 0.951 . S
C376 C370 1.265 . S
C376 H371 0.950 . S
C376 C377 1.478 . S
C377 C364 1.394 . S
C377 C376 1.478 . S
C377 C378 1.397 . S
C378 C377 1.397 . S
C378 C379 1.438 . S
C378 C383 1.429 . S
C379 C362 1.394 . S
C379 C378 1.438 . S
C379 C380 1.428 . S
C380 H372 0.949 . S
C380 C379 1.428 . S
C380 C381 1.345 . S
C381 H373 0.950 . S
C381 C380 1.345 . S
C381 C382 1.424 . S
C382 H374 0.951 . S
C382 C381 1.424 . S
C382 C383 1.347 . S
C383 H375 0.951 . S
C383 C378 1.429 . S
C383 C382 1.347 . S
H384 C385 0.951 . S
C385 H384 0.951 . S
C385 C391 1.265 . S
H386 C391 0.950 . S
H387 C395 0.949 . S
H388 C396 0.950 . S
H389 C397 0.951 . S
H390 C398 0.951 . S
C391 C385 1.265 . S
C391 H386 0.950 . S
C391 C392 1.478 . S
C392 C391 1.478 . S
C392 C393 1.397 . S
C392 C409 1.394 . S
C393 C392 1.397 . S
C393 C394 1.438 . S
C393 C398 1.429 . S
C394 C393 1.438 . S
C394 C395 1.428 . S
C394 C407 1.394 . S
C395 H387 0.949 . S
C395 C394 1.428 . S
C395 C396 1.345 . S
C396 H388 0.950 . S
C396 C395 1.345 . S
C396 C397 1.424 . S
C397 H389 0.951 . S
C397 C396 1.424 . S
C397 C398 1.347 . S
C398 H390 0.951 . S
C398 C393 1.429 . S
C398 C397 1.347 . S
H399 C400 0.951 . S
C400 H399 0.951 . S
C400 C406 1.265 . S
H401 C406 0.950 . S
H402 C410 0.949 1_556 S
H403 C411 0.950 1_556 S
H404 C412 0.951 . S
H405 C413 0.951 . S
C406 C400 1.265 . S
C406 H401 0.950 . S
C406 C407 1.478 . S
C407 C394 1.394 . S
C407 C406 1.478 . S
C407 C408 1.397 . S
C408 C407 1.397 . S
C408 C409 1.438 . S
C408 C413 1.429 . S
C409 C392 1.394 . S
C409 C408 1.438 . S
C409 C410 1.428 . S
C410 H402 0.949 1_554 S
C410 C409 1.428 . S
C410 C411 1.345 . S
C411 H403 0.950 1_554 S
C411 C410 1.345 . S
C411 C412 1.424 . S
C412 H404 0.951 . S
C412 C411 1.424 . S
C412 C413 1.347 . S
C413 H405 0.951 . S
C413 C408 1.429 . S
C413 C412 1.347 . S
H414 C415 0.951 . S
C415 H414 0.951 . S
C415 C421 1.265 . S
H416 C421 0.950 . S
H417 C425 0.949 . S
H418 C426 0.950 . S
H419 C427 0.951 . S
H420 C428 0.951 . S
C421 C415 1.265 . S
C421 H416 0.950 . S
C421 C422 1.478 . S
C422 C421 1.478 . S
C422 C423 1.397 . S
C422 C439 1.394 . S
C423 C422 1.397 . S
C423 C424 1.438 . S
C423 C428 1.429 . S
C424 C423 1.438 . S
C424 C425 1.428 . S
C424 C437 1.394 . S
C425 H417 0.949 . S
C425 C424 1.428 . S
C425 C426 1.345 . S
C426 H418 0.950 . S
C426 C425 1.345 . S
C426 C427 1.424 . S
C427 H419 0.951 . S
C427 C426 1.424 . S
C427 C428 1.347 . S
C428 H420 0.951 . S
C428 C423 1.429 . S
C428 C427 1.347 . S
H429 C430 0.951 . S
C430 H429 0.951 . S
C430 C436 1.265 . S
H431 C436 0.950 . S
H432 C440 0.949 . S
H433 C441 0.950 . S
H434 C442 0.951 . S
H435 C443 0.951 . S
C436 C430 1.265 . S
C436 H431 0.950 . S
C436 C437 1.478 . S
C437 C424 1.394 . S
C437 C436 1.478 . S
C437 C438 1.397 . S
C438 C437 1.397 . S
C438 C439 1.438 . S
C438 C443 1.429 . S
C439 C422 1.394 . S
C439 C438 1.438 . S
C439 C440 1.428 . S
C440 H432 0.949 . S
C440 C439 1.428 . S
C440 C441 1.345 . S
C441 H433 0.950 . S
C441 C440 1.345 . S
C441 C442 1.424 . S
C442 H434 0.951 . S
C442 C441 1.424 . S
C442 C443 1.347 . S
C443 H435 0.951 . S
C443 C438 1.429 . S
C443 C442 1.347 . S
C85 C9 1.583 . S
C100 C78 1.601 . S
C115 C8 1.618 . S
C130 C23 1.604 . S
C145 C37 1.620 . S
C160 C22 1.616 . S
C175 C51 1.582 . S
C190 C36 1.605 . S
C205 C65 1.592 . S
C220 C50 1.613 . S
C235 C79 1.618 . S
C250 C64 1.618 . S
C265 C3 1.446 . S
C280 C63 1.406 . S
C295 C77 1.416 . S
C310 C17 1.446 . S
C325 C31 1.443 . S
C340 C7 1.451 . S
C355 C21 1.411 . S
C370 C45 1.443 1_556 S
C385 C35 1.409 1_554 S
C400 C59 1.446 . S
C415 C73 1.446 . S
C430 C49 1.378 . S
