# Generated by pormake.
# Topology vbk, (5)-cn, num edge types: 1
# Building blocks:
#     Node 0, Type 0, BuildingBlock: BEQFEK_clean_sbu_0, # of connection points: 5
#     Node 1, Type 0, BuildingBlock: BEQFEK_clean_sbu_0, # of connection points: 5
#     Node 2, Type 0, BuildingBlock: BEQFEK_clean_sbu_0, # of connection points: 5
#     Node 3, Type 0, BuildingBlock: BEQFEK_clean_sbu_0, # of connection points: 5
#     Node 4, Type 0, BuildingBlock: BEQFEK_clean_sbu_0, # of connection points: 5
#     Node 5, Type 0, BuildingBlock: BEQFEK_clean_sbu_0, # of connection points: 5
#     Node 6, Type 0, BuildingBlock: BEQFEK_clean_sbu_0, # of connection points: 5
#     Node 7, Type 0, BuildingBlock: BEQFEK_clean_sbu_0, # of connection points: 5
#     Node 8, Type 0, BuildingBlock: BEQFEK_clean_sbu_0, # of connection points: 5
#     Node 9, Type 0, BuildingBlock: BEQFEK_clean_sbu_0, # of connection points: 5
#     Node 10, Type 0, BuildingBlock: BEQFEK_clean_sbu_0, # of connection points: 5
#     Node 11, Type 0, BuildingBlock: BEQFEK_clean_sbu_0, # of connection points: 5
#     Node 12, Type 0, BuildingBlock: BEQFEK_clean_sbu_0, # of connection points: 5
#     Node 13, Type 0, BuildingBlock: BEQFEK_clean_sbu_0, # of connection points: 5
#     Node 14, Type 0, BuildingBlock: BEQFEK_clean_sbu_0, # of connection points: 5
#     Node 15, Type 0, BuildingBlock: BEQFEK_clean_sbu_0, # of connection points: 5
#     Edge 16, Type (0, 0), BuildingBlock: XIVTED_clean_linker_0, # of connection points: 2
#     Edge 17, Type (0, 0), BuildingBlock: XIVTED_clean_linker_0, # of connection points: 2
#     Edge 18, Type (0, 0), BuildingBlock: XIVTED_clean_linker_0, # of connection points: 2
#     Edge 19, Type (0, 0), BuildingBlock: XIVTED_clean_linker_0, # of connection points: 2
#     Edge 20, Type (0, 0), BuildingBlock: XIVTED_clean_linker_0, # of connection points: 2
#     Edge 21, Type (0, 0), BuildingBlock: XIVTED_clean_linker_0, # of connection points: 2
#     Edge 22, Type (0, 0), BuildingBlock: XIVTED_clean_linker_0, # of connection points: 2
#     Edge 23, Type (0, 0), BuildingBlock: XIVTED_clean_linker_0, # of connection points: 2
#     Edge 24, Type (0, 0), BuildingBlock: XIVTED_clean_linker_0, # of connection points: 2
#     Edge 25, Type (0, 0), BuildingBlock: XIVTED_clean_linker_0, # of connection points: 2
#     Edge 26, Type (0, 0), BuildingBlock: XIVTED_clean_linker_0, # of connection points: 2
#     Edge 27, Type (0, 0), BuildingBlock: XIVTED_clean_linker_0, # of connection points: 2
#     Edge 28, Type (0, 0), BuildingBlock: XIVTED_clean_linker_0, # of connection points: 2
#     Edge 29, Type (0, 0), BuildingBlock: XIVTED_clean_linker_0, # of connection points: 2
#     Edge 30, Type (0, 0), BuildingBlock: XIVTED_clean_linker_0, # of connection points: 2
#     Edge 31, Type (0, 0), BuildingBlock: XIVTED_clean_linker_0, # of connection points: 2
#     Edge 32, Type (0, 0), BuildingBlock: XIVTED_clean_linker_0, # of connection points: 2
#     Edge 33, Type (0, 0), BuildingBlock: XIVTED_clean_linker_0, # of connection points: 2
#     Edge 34, Type (0, 0), BuildingBlock: XIVTED_clean_linker_0, # of connection points: 2
#     Edge 35, Type (0, 0), BuildingBlock: XIVTED_clean_linker_0, # of connection points: 2
#     Edge 36, Type (0, 0), BuildingBlock: XIVTED_clean_linker_0, # of connection points: 2
#     Edge 37, Type (0, 0), BuildingBlock: XIVTED_clean_linker_0, # of connection points: 2
#     Edge 38, Type (0, 0), BuildingBlock: XIVTED_clean_linker_0, # of connection points: 2
#     Edge 39, Type (0, 0), BuildingBlock: XIVTED_clean_linker_0, # of connection points: 2
#     Edge 40, Type (0, 0), BuildingBlock: XIVTED_clean_linker_0, # of connection points: 2
#     Edge 41, Type (0, 0), BuildingBlock: XIVTED_clean_linker_0, # of connection points: 2
#     Edge 42, Type (0, 0), BuildingBlock: XIVTED_clean_linker_0, # of connection points: 2
#     Edge 43, Type (0, 0), BuildingBlock: XIVTED_clean_linker_0, # of connection points: 2
#     Edge 44, Type (0, 0), BuildingBlock: XIVTED_clean_linker_0, # of connection points: 2
#     Edge 45, Type (0, 0), BuildingBlock: XIVTED_clean_linker_0, # of connection points: 2
#     Edge 46, Type (0, 0), BuildingBlock: XIVTED_clean_linker_0, # of connection points: 2
#     Edge 47, Type (0, 0), BuildingBlock: XIVTED_clean_linker_0, # of connection points: 2
#     Edge 48, Type (0, 0), BuildingBlock: XIVTED_clean_linker_0, # of connection points: 2
#     Edge 49, Type (0, 0), BuildingBlock: XIVTED_clean_linker_0, # of connection points: 2
#     Edge 50, Type (0, 0), BuildingBlock: XIVTED_clean_linker_0, # of connection points: 2
#     Edge 51, Type (0, 0), BuildingBlock: XIVTED_clean_linker_0, # of connection points: 2
#     Edge 52, Type (0, 0), BuildingBlock: XIVTED_clean_linker_0, # of connection points: 2
#     Edge 53, Type (0, 0), BuildingBlock: XIVTED_clean_linker_0, # of connection points: 2
#     Edge 54, Type (0, 0), BuildingBlock: XIVTED_clean_linker_0, # of connection points: 2
#     Edge 55, Type (0, 0), BuildingBlock: XIVTED_clean_linker_0, # of connection points: 2
# Relax obj value: 0.034
# Max RMSD: 0.067
# Mean RMSD: 0.067
data_MOF--net-vbk--node1-BEQFEK_clean_sbu_0--edge1-XIVTED_clean_linker_0
_symmetry_space_group_name_H-M    P1
_symmetry_Int_Tables_number       1
_symmetry_cell_setting            triclinic
loop_
_symmetry_equiv_pos_as_xyz
'x, y, z'
_cell_length_a     77.361827
_cell_length_b     42.156486
_cell_length_c     27.002114
_cell_angle_alpha  89.980381
_cell_angle_beta   89.975834
_cell_angle_gamma 90.013066
loop_
_atom_site_label
_atom_site_type_symbol
_atom_site_fract_x
_atom_site_fract_y
_atom_site_fract_z
_atom_type_partial_charge
Co0 Co 0.09981 0.14367 0.15135 0.0
Co1 Co 0.14045 0.14712 0.15257 0.0
C2 C 0.12173 0.09128 0.11049 0.0
O3 O 0.10711 0.10379 0.11959 0.0
O4 O 0.13576 0.105 0.12269 0.0
C5 C 0.06609 0.11647 0.16681 0.0
O6 O 0.07467 0.08958 0.16769 0.0
C7 C 0.17588 0.13356 0.18758 0.0
C8 C 0.19087 0.16905 0.14527 0.0
C9 C 0.19254 0.14449 0.17897 0.0
N10 N 0.16488 0.15102 0.16028 0.0
N11 N 0.17394 0.17217 0.13512 0.0
C12 C 0.1706 0.10552 0.21798 0.0
H13 H 0.15694 0.09906 0.2104 0.0
H14 H 0.17196 0.11117 0.25786 0.0
H15 H 0.17921 0.08512 0.2098 0.0
C16 C 0.10495 0.15766 0.25721 0.0
N17 N 0.11137 0.15013 0.21244 0.0
N18 N 0.12827 0.1538 0.21288 0.0
C19 C 0.13304 0.16526 0.25749 0.0
C20 C 0.11842 0.16787 0.28725 0.0
C21 C 0.08617 0.15579 0.2702 0.0
H22 H 0.0809 0.13272 0.25767 0.0
H23 H 0.08404 0.1579 0.31069 0.0
H24 H 0.07906 0.17496 0.25071 0.0
O25 O 0.10477 0.17923 0.10483 0.0
O26 O 0.13347 0.17955 0.10433 0.0
H27 H 0.1568 0.18721 0.23392 0.0
H28 H 0.14971 0.19882 0.29474 0.0
C29 C 0.15056 0.17871 0.26836 0.0
H30 H 0.15875 0.16006 0.28528 0.0
H31 H 0.16859 0.18856 0.11058 0.0
O32 O 0.07433 0.14232 0.16097 0.0
C33 C 0.11907 0.19029 0.08898 0.0
Co34 Co 0.4048 0.85176 0.65278 0.0
Co35 Co 0.36418 0.84443 0.65314 0.0
C36 C 0.38157 0.9013 0.60897 0.0
O37 O 0.39642 0.89041 0.62001 0.0
O38 O 0.36777 0.88639 0.62029 0.0
C39 C 0.4384 0.88096 0.66487 0.0
O40 O 0.42986 0.90781 0.66164 0.0
C41 C 0.32678 0.85391 0.67721 0.0
C42 C 0.31656 0.80734 0.65376 0.0
C43 C 0.31156 0.83638 0.67301 0.0
N44 N 0.34002 0.83586 0.66107 0.0
N45 N 0.33375 0.80808 0.64729 0.0
C46 C 0.32871 0.88755 0.69383 0.0
H47 H 0.34102 0.89773 0.68003 0.0
H48 H 0.32893 0.88825 0.7349 0.0
H49 H 0.31763 0.90203 0.68076 0.0
C50 C 0.39967 0.8384 0.75864 0.0
N51 N 0.39325 0.84498 0.71356 0.0
N52 N 0.37638 0.84088 0.71404 0.0
C53 C 0.37158 0.83061 0.75932 0.0
C54 C 0.38623 0.82866 0.78918 0.0
C55 C 0.41848 0.84023 0.77133 0.0
H56 H 0.42376 0.86326 0.75852 0.0
H57 H 0.42067 0.83813 0.81179 0.0
H58 H 0.42553 0.82102 0.75179 0.0
O59 O 0.40104 0.81563 0.60724 0.0
O60 O 0.37247 0.81129 0.60743 0.0
H61 H 0.34965 0.80201 0.74089 0.0
H62 H 0.35341 0.80525 0.80643 0.0
C63 C 0.35388 0.81825 0.7708 0.0
H64 H 0.34468 0.8384 0.77224 0.0
H65 H 0.34121 0.78959 0.63309 0.0
O66 O 0.43017 0.85488 0.66273 0.0
C67 C 0.38724 0.80221 0.59245 0.0
Co68 Co 0.10024 0.85178 0.84423 0.0
Co69 Co 0.14094 0.84746 0.84036 0.0
C70 C 0.12336 0.90393 0.88274 0.0
O71 O 0.10864 0.89136 0.87479 0.0
O72 O 0.13734 0.89018 0.86981 0.0
C73 C 0.0664 0.87991 0.8312 0.0
O74 O 0.07487 0.90692 0.83065 0.0
C75 C 0.17738 0.85686 0.80807 0.0
C76 C 0.18823 0.80988 0.8269 0.0
C77 C 0.19231 0.83868 0.80528 0.0
N78 N 0.165 0.83938 0.83013 0.0
N79 N 0.17171 0.81157 0.84201 0.0
C80 C 0.17448 0.88898 0.78623 0.0
H81 H 0.16045 0.89439 0.7843 0.0
H82 H 0.18032 0.89029 0.74873 0.0
H83 H 0.18094 0.90699 0.80979 0.0
C84 C 0.1044 0.83723 0.73834 0.0
N85 N 0.11117 0.84457 0.78272 0.0
N86 N 0.12809 0.84148 0.78088 0.0
C87 C 0.13258 0.83112 0.73538 0.0
C88 C 0.11769 0.82814 0.70683 0.0
C89 C 0.08547 0.8382 0.72704 0.0
H90 H 0.08012 0.86137 0.73888 0.0
H91 H 0.08288 0.83514 0.68692 0.0
H92 H 0.07877 0.81928 0.74825 0.0
O93 O 0.10491 0.8163 0.89057 0.0
O94 O 0.13358 0.81599 0.88994 0.0
H95 H 0.15047 0.80552 0.68777 0.0
H96 H 0.15899 0.84053 0.71738 0.0
C97 C 0.15035 0.81977 0.72222 0.0
H98 H 0.15551 0.8049 0.75261 0.0
H99 H 0.1648 0.79322 0.85879 0.0
O100 O 0.07474 0.8541 0.83612 0.0
C101 C 0.11926 0.80538 0.90607 0.0
Co102 Co 0.4022 0.14538 0.34419 0.0
Co103 Co 0.36143 0.14496 0.34498 0.0
C104 C 0.3811 0.09027 0.38387 0.0
O105 O 0.39539 0.10414 0.37457 0.0
O106 O 0.36669 0.10301 0.37295 0.0
C107 C 0.43577 0.11973 0.32102 0.0
O108 O 0.42714 0.0932 0.31456 0.0
C109 C 0.3247 0.13015 0.32141 0.0
C110 C 0.3121 0.17433 0.34664 0.0
C111 C 0.30875 0.145 0.32578 0.0
N112 N 0.33695 0.15003 0.33862 0.0
N113 N 0.32926 0.17629 0.35379 0.0
C114 C 0.32812 0.09712 0.30363 0.0
H115 H 0.34151 0.08973 0.31256 0.0
H116 H 0.32637 0.09594 0.26294 0.0
H117 H 0.31872 0.08047 0.32068 0.0
C118 C 0.39578 0.16504 0.24083 0.0
N119 N 0.39015 0.15355 0.2845 0.0
N120 N 0.37315 0.15235 0.28416 0.0
C121 C 0.36742 0.16242 0.23976 0.0
C122 C 0.38154 0.17112 0.21088 0.0
C123 C 0.41417 0.17444 0.23149 0.0
H124 H 0.41963 0.18574 0.26511 0.0
H125 H 0.42186 0.15284 0.22344 0.0
H126 H 0.41536 0.19117 0.2 0.0
O127 O 0.39733 0.17947 0.39228 0.0
O128 O 0.36867 0.17711 0.39428 0.0
H129 H 0.3425 0.18371 0.24844 0.0
H130 H 0.34693 0.1699 0.18613 0.0
C131 C 0.34872 0.16481 0.22609 0.0
H132 H 0.34226 0.14207 0.2345 0.0
H133 H 0.33576 0.19565 0.36906 0.0
O134 O 0.4276 0.14476 0.33295 0.0
C135 C 0.38288 0.18892 0.40929 0.0
Co136 Co 0.90354 0.85121 0.84366 0.0
Co137 Co 0.8628 0.84772 0.84487 0.0
C138 C 0.88154 0.90368 0.88548 0.0
O139 O 0.89611 0.89154 0.87442 0.0
O140 O 0.86743 0.8895 0.87551 0.0
C141 C 0.93674 0.87889 0.82192 0.0
O142 O 0.92778 0.90509 0.81616 0.0
C143 C 0.82602 0.86143 0.82028 0.0
C144 C 0.8137 0.81664 0.84405 0.0
C145 C 0.81019 0.84601 0.82353 0.0
N146 N 0.83836 0.84183 0.83773 0.0
N147 N 0.83084 0.8152 0.85205 0.0
C148 C 0.82923 0.89471 0.80328 0.0
H149 H 0.84265 0.90212 0.81177 0.0
H150 H 0.8272 0.8964 0.76274 0.0
H151 H 0.81989 0.91101 0.82135 0.0
C152 C 0.89763 0.83268 0.73976 0.0
N153 N 0.89169 0.84287 0.78386 0.0
N154 N 0.87467 0.84249 0.78358 0.0
C155 C 0.86923 0.83264 0.73877 0.0
C156 C 0.88358 0.82579 0.70954 0.0
C157 C 0.91625 0.82516 0.73012 0.0
H158 H 0.92193 0.81335 0.76302 0.0
H159 H 0.92341 0.84761 0.72378 0.0
H160 H 0.91794 0.80948 0.69754 0.0
O161 O 0.89918 0.8168 0.89137 0.0
O162 O 0.8705 0.81438 0.89201 0.0
H163 H 0.84485 0.80924 0.74717 0.0
H164 H 0.84896 0.82365 0.68496 0.0
C165 C 0.85062 0.8287 0.72497 0.0
H166 H 0.84359 0.85085 0.73348 0.0
H167 H 0.83743 0.79592 0.86724 0.0
O168 O 0.92891 0.85331 0.83283 0.0
C169 C 0.88516 0.80465 0.90716 0.0
Co170 Co 0.59933 0.14473 0.33992 0.0
Co171 Co 0.64002 0.1484 0.3382 0.0
C172 C 0.62144 0.0924 0.38047 0.0
O173 O 0.60678 0.10484 0.37159 0.0
O174 O 0.63544 0.10623 0.36815 0.0
C175 C 0.56551 0.11748 0.32532 0.0
O176 O 0.57408 0.09058 0.32431 0.0
C177 C 0.67554 0.13496 0.30338 0.0
C178 C 0.69034 0.17137 0.34423 0.0
C179 C 0.69215 0.14637 0.31142 0.0
N180 N 0.66445 0.15259 0.33014 0.0
N181 N 0.6734 0.17428 0.35443 0.0
C182 C 0.67041 0.10639 0.27403 0.0
H183 H 0.65685 0.09959 0.28232 0.0
H184 H 0.67154 0.11162 0.23394 0.0
H185 H 0.67926 0.08637 0.28246 0.0
C186 C 0.60438 0.15855 0.23383 0.0
N187 N 0.61082 0.15128 0.27868 0.0
N188 N 0.62772 0.15491 0.27802 0.0
C189 C 0.63248 0.16602 0.23317 0.0
C190 C 0.61784 0.16847 0.20348 0.0
C191 C 0.58559 0.15658 0.22101 0.0
H192 H 0.58032 0.13362 0.2341 0.0
H193 H 0.58343 0.15834 0.18049 0.0
H194 H 0.5785 0.17591 0.24012 0.0
O195 O 0.60429 0.18033 0.38629 0.0
O196 O 0.633 0.18085 0.38644 0.0
H197 H 0.65624 0.18821 0.25595 0.0
H198 H 0.64924 0.19884 0.19461 0.0
C199 C 0.65003 0.17917 0.22182 0.0
H200 H 0.6582 0.16019 0.20578 0.0
H201 H 0.66797 0.19093 0.37839 0.0
O202 O 0.57378 0.14332 0.33079 0.0
C203 C 0.61859 0.19152 0.4019 0.0
Co204 Co 0.90305 0.14606 0.15432 0.0
Co205 Co 0.86229 0.14611 0.15327 0.0
C206 C 0.88193 0.09227 0.11113 0.0
O207 O 0.89623 0.10572 0.1215 0.0
O208 O 0.86753 0.10488 0.12257 0.0
C209 C 0.93648 0.11963 0.17626 0.0
O210 O 0.92778 0.09307 0.18156 0.0
C211 C 0.82554 0.13102 0.17635 0.0
C212 C 0.81297 0.17577 0.15351 0.0
C213 C 0.80961 0.14605 0.17299 0.0
N214 N 0.83779 0.15117 0.15992 0.0
N215 N 0.83013 0.17777 0.14615 0.0
C216 C 0.82893 0.0976 0.19233 0.0
H217 H 0.84255 0.09088 0.18506 0.0
H218 H 0.82633 0.09509 0.2325 0.0
H219 H 0.82006 0.08126 0.17249 0.0
C220 C 0.89662 0.16283 0.25879 0.0
N221 N 0.89097 0.15271 0.21436 0.0
N222 N 0.87397 0.15164 0.21461 0.0
C223 C 0.86825 0.16038 0.2597 0.0
C224 C 0.88239 0.16808 0.28917 0.0
C225 C 0.91502 0.17184 0.26875 0.0
H226 H 0.92054 0.1839 0.23584 0.0
H227 H 0.92266 0.15 0.27563 0.0
H228 H 0.91623 0.18781 0.30116 0.0
O229 O 0.89835 0.18133 0.10838 0.0
O230 O 0.86968 0.17963 0.10629 0.0
H231 H 0.8433 0.18178 0.25234 0.0
H232 H 0.84777 0.16653 0.31383 0.0
C233 C 0.84956 0.16241 0.2736 0.0
H234 H 0.84311 0.13985 0.26397 0.0
H235 H 0.83663 0.1974 0.13177 0.0
O236 O 0.9284 0.14496 0.16552 0.0
C237 C 0.88397 0.19156 0.09206 0.0
Co238 Co 0.60144 0.85291 0.64839 0.0
Co239 Co 0.64198 0.8462 0.64669 0.0
C240 C 0.62381 0.90355 0.60566 0.0
O241 O 0.60907 0.89237 0.61697 0.0
O242 O 0.63767 0.88851 0.61571 0.0
C243 C 0.56802 0.88151 0.66324 0.0
O244 O 0.57681 0.90816 0.66197 0.0
C245 C 0.6776 0.85854 0.68127 0.0
C246 C 0.69221 0.82247 0.63917 0.0
C247 C 0.69415 0.84694 0.6729 0.0
N248 N 0.66641 0.84152 0.65388 0.0
N249 N 0.67526 0.82003 0.62881 0.0
C250 C 0.67261 0.88678 0.7116 0.0
H251 H 0.6591 0.89396 0.70348 0.0
H252 H 0.67367 0.88097 0.7515 0.0
H253 H 0.68158 0.90675 0.7039 0.0
C254 C 0.60702 0.83862 0.75379 0.0
N255 N 0.61327 0.84559 0.70861 0.0
N256 N 0.63007 0.84067 0.70798 0.0
C257 C 0.63491 0.82895 0.75239 0.0
C258 C 0.62047 0.8275 0.78307 0.0
C259 C 0.58839 0.84183 0.76784 0.0
H260 H 0.5808 0.82278 0.74962 0.0
H261 H 0.58342 0.86499 0.75466 0.0
H262 H 0.58655 0.84045 0.80854 0.0
O263 O 0.60565 0.81762 0.60115 0.0
O264 O 0.63426 0.81312 0.59999 0.0
H265 H 0.65803 0.80535 0.72754 0.0
H266 H 0.651 0.79404 0.78862 0.0
C267 C 0.65218 0.81417 0.76234 0.0
H268 H 0.66086 0.8321 0.77908 0.0
H269 H 0.66973 0.80382 0.6043 0.0
O270 O 0.57603 0.85529 0.65907 0.0
C271 C 0.61938 0.80437 0.58525 0.0
Co272 Co 0.60027 0.64371 0.14884 0.0
Co273 Co 0.64084 0.64959 0.14592 0.0
C274 C 0.62225 0.59248 0.10595 0.0
O275 O 0.60762 0.60402 0.11752 0.0
O276 O 0.63623 0.60728 0.1154 0.0
C277 C 0.56696 0.61526 0.16525 0.0
O278 O 0.57581 0.58868 0.16456 0.0
C279 C 0.67663 0.63637 0.17797 0.0
C280 C 0.69098 0.67388 0.13817 0.0
C281 C 0.69313 0.64839 0.16996 0.0
N282 N 0.6653 0.65414 0.15229 0.0
N283 N 0.67398 0.67646 0.12855 0.0
C284 C 0.67176 0.60729 0.20652 0.0
H285 H 0.65878 0.59875 0.19512 0.0
H286 H 0.67133 0.61291 0.24659 0.0
H287 H 0.68154 0.58838 0.20084 0.0
C288 C 0.60636 0.65818 0.25404 0.0
N289 N 0.61237 0.65097 0.20869 0.0
N290 N 0.62921 0.65539 0.20754 0.0
C291 C 0.63433 0.66699 0.25177 0.0
C292 C 0.62002 0.66891 0.28288 0.0
C293 C 0.58775 0.65552 0.26866 0.0
H294 H 0.58025 0.67466 0.25039 0.0
H295 H 0.58255 0.63242 0.25593 0.0
H296 H 0.58606 0.65713 0.30938 0.0
O297 O 0.60445 0.6789 0.10125 0.0
O298 O 0.63309 0.68268 0.09941 0.0
H299 H 0.65743 0.69036 0.22628 0.0
H300 H 0.65102 0.70087 0.28824 0.0
C301 C 0.65179 0.68114 0.26114 0.0
H302 H 0.66047 0.6627 0.27649 0.0
H303 H 0.66831 0.6934 0.10554 0.0
O304 O 0.5749 0.6415 0.16025 0.0
C305 C 0.61824 0.6918 0.08502 0.0
Co306 Co 0.90225 0.3493 0.65209 0.0
Co307 Co 0.86163 0.34879 0.6556 0.0
C308 C 0.87974 0.40324 0.61251 0.0
O309 O 0.89419 0.38958 0.62077 0.0
O310 O 0.86547 0.39071 0.62571 0.0
C311 C 0.93561 0.37612 0.67571 0.0
O312 O 0.9268 0.40196 0.68579 0.0
C313 C 0.82448 0.3579 0.68209 0.0
C314 C 0.81597 0.30786 0.67941 0.0
C315 C 0.81048 0.33814 0.69128 0.0
N316 N 0.83775 0.33983 0.6663 0.0
N317 N 0.83239 0.31012 0.66372 0.0
C318 C 0.8258 0.39255 0.69325 0.0
H319 H 0.83952 0.40021 0.69408 0.0
H320 H 0.81948 0.39791 0.72922 0.0
H321 H 0.81891 0.40606 0.66402 0.0
C322 C 0.89729 0.33121 0.75699 0.0
N323 N 0.89116 0.3417 0.71325 0.0
N324 N 0.87421 0.34363 0.71552 0.0
C325 C 0.86906 0.33561 0.76148 0.0
C326 C 0.88344 0.32688 0.78912 0.0
C327 C 0.91567 0.32134 0.765 0.0
H328 H 0.921 0.31092 0.73053 0.0
H329 H 0.92346 0.34259 0.7745 0.0
H330 H 0.91684 0.30377 0.79537 0.0
O331 O 0.89753 0.31414 0.60614 0.0
O332 O 0.8689 0.31647 0.6065 0.0
H333 H 0.84367 0.31546 0.7624 0.0
H334 H 0.84976 0.33468 0.81958 0.0
C335 C 0.85066 0.33592 0.77862 0.0
H336 H 0.84438 0.3581 0.76621 0.0
H337 H 0.84024 0.29107 0.6536 0.0
O338 O 0.92763 0.35147 0.66117 0.0
C339 C 0.88294 0.30445 0.59065 0.0
Co340 Co 0.59788 0.35185 0.83937 0.0
Co341 Co 0.63858 0.34655 0.84002 0.0
C342 C 0.62114 0.40273 0.88266 0.0
O343 O 0.60639 0.39126 0.87167 0.0
O344 O 0.63505 0.38819 0.87176 0.0
C345 C 0.56412 0.38098 0.8342 0.0
O346 O 0.57248 0.40692 0.84656 0.0
C347 C 0.67621 0.35651 0.82029 0.0
C348 C 0.68569 0.30774 0.83308 0.0
C349 C 0.69109 0.33799 0.82044 0.0
N350 N 0.66266 0.33782 0.832 0.0
N351 N 0.66849 0.30877 0.83961 0.0
C352 C 0.67499 0.39143 0.81102 0.0
H353 H 0.6631 0.40135 0.82775 0.0
H354 H 0.67451 0.39581 0.77054 0.0
H355 H 0.68652 0.40377 0.82613 0.0
C356 C 0.60362 0.3338 0.73494 0.0
N357 N 0.60959 0.34347 0.77929 0.0
N358 N 0.62659 0.34307 0.77884 0.0
C359 C 0.63201 0.33409 0.7336 0.0
C360 C 0.61767 0.32741 0.70432 0.0
C361 C 0.58499 0.32637 0.72529 0.0
H362 H 0.57921 0.31495 0.7584 0.0
H363 H 0.57792 0.34883 0.71834 0.0
H364 H 0.58332 0.3104 0.69304 0.0
O365 O 0.60152 0.31659 0.88596 0.0
O366 O 0.63015 0.31338 0.88649 0.0
H367 H 0.65625 0.30979 0.73718 0.0
H368 H 0.65221 0.32922 0.6785 0.0
C369 C 0.65063 0.33109 0.71923 0.0
H370 H 0.6578 0.35221 0.73222 0.0
H371 H 0.66069 0.28955 0.84936 0.0
O372 O 0.5725 0.35533 0.82822 0.0
C373 C 0.61542 0.30389 0.90144 0.0
Co374 Co 0.90252 0.6436 0.34359 0.0
Co375 Co 0.86181 0.64653 0.3438 0.0
C376 C 0.88087 0.5907 0.38451 0.0
O377 O 0.8954 0.60352 0.37514 0.0
O378 O 0.86673 0.60425 0.3729 0.0
C379 C 0.93617 0.61635 0.32723 0.0
O380 O 0.92757 0.58947 0.32688 0.0
C381 C 0.826 0.63345 0.31077 0.0
C382 C 0.81167 0.67051 0.35157 0.0
C383 C 0.80951 0.64545 0.31904 0.0
N384 N 0.83734 0.65084 0.33706 0.0
N385 N 0.82865 0.67289 0.3614 0.0
C386 C 0.83083 0.6047 0.28141 0.0
H387 H 0.84392 0.59631 0.29191 0.0
H388 H 0.8309 0.6106 0.24142 0.0
H389 H 0.82117 0.58558 0.28735 0.0
C390 C 0.89684 0.65812 0.23807 0.0
N391 N 0.89066 0.65033 0.28301 0.0
N392 N 0.87374 0.65372 0.28319 0.0
C393 C 0.86872 0.66524 0.23883 0.0
C394 C 0.8832 0.66817 0.20857 0.0
C395 C 0.91558 0.65655 0.2244 0.0
H396 H 0.92268 0.67582 0.24361 0.0
H397 H 0.92101 0.63356 0.23678 0.0
H398 H 0.91752 0.65869 0.18384 0.0
O399 O 0.89772 0.67888 0.39081 0.0
O400 O 0.86902 0.67858 0.39226 0.0
H401 H 0.84505 0.68705 0.26325 0.0
H402 H 0.85171 0.69838 0.20191 0.0
C403 C 0.85109 0.67841 0.22863 0.0
H404 H 0.84286 0.65957 0.21244 0.0
H405 H 0.83432 0.68953 0.38493 0.0
O406 O 0.92797 0.64224 0.33303 0.0
C407 C 0.88341 0.68951 0.40732 0.0
Co408 Co 0.40039 0.35317 0.84442 0.0
Co409 Co 0.35967 0.35118 0.8443 0.0
C410 C 0.37805 0.40708 0.88319 0.0
O411 O 0.39255 0.39397 0.87403 0.0
O412 O 0.36389 0.39352 0.87225 0.0
C413 C 0.43502 0.37403 0.85988 0.0
O414 O 0.42762 0.3902 0.89563 0.0
C415 C 0.32349 0.3649 0.81697 0.0
C416 C 0.31037 0.32134 0.84272 0.0
C417 C 0.30747 0.35027 0.81999 0.0
N418 N 0.33537 0.34532 0.83669 0.0
N419 N 0.3274 0.31943 0.85227 0.0
C420 C 0.32733 0.39756 0.79817 0.0
H421 H 0.34143 0.4023 0.79882 0.0
H422 H 0.32247 0.40037 0.75983 0.0
H423 H 0.32053 0.41521 0.82163 0.0
C424 C 0.39468 0.3329 0.74123 0.0
N425 N 0.38869 0.34415 0.78462 0.0
N426 N 0.37168 0.34445 0.78373 0.0
C427 C 0.3663 0.33399 0.73918 0.0
C428 C 0.38068 0.326 0.71085 0.0
C429 C 0.41326 0.32455 0.73259 0.0
H430 H 0.41862 0.31293 0.76609 0.0
H431 H 0.42071 0.34665 0.72603 0.0
H432 H 0.41492 0.30847 0.70047 0.0
O433 O 0.39601 0.31883 0.89263 0.0
O434 O 0.36728 0.31941 0.89388 0.0
H435 H 0.34147 0.3123 0.74832 0.0
H436 H 0.34619 0.32413 0.68519 0.0
C437 C 0.34771 0.33057 0.72475 0.0
H438 H 0.34103 0.35341 0.73077 0.0
H439 H 0.33362 0.30034 0.86925 0.0
O440 O 0.42579 0.35613 0.83276 0.0
C441 C 0.38167 0.3085 0.90928 0.0
Co442 Co 0.09886 0.64355 0.34296 0.0
Co443 Co 0.13952 0.64965 0.34595 0.0
C444 C 0.12223 0.59204 0.38413 0.0
O445 O 0.10753 0.60379 0.37325 0.0
O446 O 0.13625 0.6068 0.37465 0.0
C447 C 0.06579 0.61395 0.32127 0.0
O448 O 0.07464 0.58742 0.31814 0.0
C449 C 0.17757 0.64526 0.32407 0.0
C450 C 0.1848 0.69478 0.34098 0.0
C451 C 0.19145 0.66645 0.32332 0.0
N452 N 0.16345 0.66089 0.34039 0.0
N453 N 0.16802 0.69026 0.35115 0.0
C454 C 0.17727 0.61169 0.30624 0.0
H455 H 0.16375 0.60336 0.3015 0.0
H456 H 0.18439 0.6096 0.2707 0.0
H457 H 0.18374 0.59633 0.33398 0.0
C458 C 0.10495 0.66351 0.23979 0.0
N459 N 0.11083 0.6535 0.28403 0.0
N460 N 0.12783 0.6545 0.28428 0.0
C461 C 0.13333 0.66443 0.23955 0.0
C462 C 0.11903 0.67085 0.20996 0.0
C463 C 0.08627 0.67014 0.22947 0.0
H464 H 0.08016 0.68098 0.26255 0.0
H465 H 0.07955 0.64743 0.22166 0.0
H466 H 0.08456 0.68635 0.19752 0.0
O467 O 0.1017 0.6779 0.39134 0.0
O468 O 0.13029 0.68117 0.39378 0.0
H469 H 0.15751 0.68874 0.24626 0.0
H470 H 0.15364 0.67213 0.18541 0.0
C471 C 0.15195 0.66835 0.22577 0.0
H472 H 0.15912 0.64669 0.23619 0.0
H473 H 0.15953 0.70765 0.36388 0.0
O474 O 0.07366 0.63971 0.33069 0.0
C475 C 0.11546 0.69033 0.40822 0.0
Co476 Co 0.40372 0.6439 0.1532 0.0
Co477 Co 0.36322 0.65246 0.15246 0.0
C478 C 0.38034 0.59445 0.11073 0.0
O479 O 0.39525 0.6051 0.12157 0.0
O480 O 0.36664 0.60988 0.12136 0.0
C481 C 0.43736 0.61465 0.1654 0.0
O482 O 0.42891 0.58774 0.16147 0.0
C483 C 0.32645 0.64674 0.18566 0.0
C484 C 0.31551 0.6888 0.14827 0.0
C485 C 0.31126 0.66421 0.18007 0.0
N486 N 0.339 0.66088 0.15888 0.0
N487 N 0.33224 0.6857 0.13619 0.0
C488 C 0.32941 0.61852 0.2181 0.0
H489 H 0.34345 0.61461 0.22389 0.0
H490 H 0.3228 0.62174 0.25425 0.0
H491 H 0.32391 0.59719 0.1999 0.0
C492 C 0.39858 0.65771 0.25872 0.0
N493 N 0.39208 0.65149 0.2136 0.0
N494 N 0.37533 0.65704 0.21363 0.0
C495 C 0.3708 0.66844 0.25852 0.0
C496 C 0.38538 0.669 0.28871 0.0
C497 C 0.41722 0.65358 0.27211 0.0
H498 H 0.42185 0.63034 0.25828 0.0
H499 H 0.41921 0.65451 0.31277 0.0
H500 H 0.42497 0.67248 0.25406 0.0
O501 O 0.4003 0.67965 0.10651 0.0
O502 O 0.37177 0.6849 0.10598 0.0
H503 H 0.355 0.7025 0.29781 0.0
H504 H 0.34472 0.66529 0.28419 0.0
C505 C 0.3537 0.68354 0.26959 0.0
H506 H 0.34811 0.69402 0.23559 0.0
H507 H 0.33915 0.70109 0.11331 0.0
O508 O 0.42907 0.64066 0.16361 0.0
C509 C 0.38667 0.69337 0.09112 0.0
Co510 Co 0.09841 0.35042 0.65145 0.0
Co511 Co 0.13902 0.34762 0.65097 0.0
C512 C 0.12022 0.40296 0.60889 0.0
O513 O 0.10566 0.39077 0.62 0.0
O514 O 0.13434 0.389 0.61939 0.0
C515 C 0.06526 0.37709 0.67639 0.0
O516 O 0.07424 0.40289 0.68554 0.0
C517 C 0.17521 0.36292 0.67689 0.0
C518 C 0.18848 0.3189 0.6539 0.0
C519 C 0.19129 0.34846 0.67461 0.0
N520 N 0.16338 0.34264 0.6587 0.0
N521 N 0.17144 0.31647 0.64476 0.0
C522 C 0.17127 0.39597 0.69368 0.0
H523 H 0.15724 0.401 0.69071 0.0
H524 H 0.17541 0.39925 0.73263 0.0
H525 H 0.17866 0.4131 0.6707 0.0
C526 C 0.10421 0.33252 0.7559 0.0
N527 N 0.11014 0.34265 0.71173 0.0
N528 N 0.12715 0.34274 0.71227 0.0
C529 C 0.13259 0.33337 0.75734 0.0
C530 C 0.11826 0.32624 0.78644 0.0
C531 C 0.08565 0.32443 0.76547 0.0
H532 H 0.08001 0.31284 0.73233 0.0
H533 H 0.07835 0.34662 0.77255 0.0
H534 H 0.08412 0.30836 0.79767 0.0
O535 O 0.103 0.31569 0.60443 0.0
O536 O 0.13168 0.31366 0.60461 0.0
H537 H 0.15735 0.31124 0.74922 0.0
H538 H 0.15283 0.32496 0.81155 0.0
C539 C 0.15121 0.33022 0.7716 0.0
H540 H 0.15794 0.3528 0.76377 0.0
H541 H 0.16528 0.29683 0.6292 0.0
O542 O 0.07307 0.3522 0.66207 0.0
C543 C 0.11711 0.30358 0.58931 0.0
H544 H 0.22297 0.13434 0.13163 0.0
H545 H 0.27824 0.14921 0.37503 0.0
H546 H 0.19974 0.13308 0.27674 0.0
H547 H 0.30022 0.11901 0.23614 0.0
H548 H 0.24928 0.14048 0.34112 0.0
H549 H 0.25129 0.12569 0.16949 0.0
C550 C 0.22383 0.1316 0.17146 0.0
C551 C 0.20903 0.13416 0.20113 0.0
C552 C 0.26043 0.13504 0.31841 0.0
C553 C 0.24138 0.12505 0.24484 0.0
C554 C 0.27693 0.14005 0.33773 0.0
C555 C 0.29159 0.13447 0.30849 0.0
C556 C 0.2586 0.12522 0.269 0.0
C557 C 0.28927 0.12291 0.26029 0.0
C558 C 0.23997 0.12662 0.19305 0.0
C559 C 0.2108 0.13065 0.25251 0.0
N560 N 0.27306 0.11914 0.24175 0.0
N561 N 0.22674 0.12678 0.27286 0.0
H562 H 0.21451 0.88911 0.8169 0.0
H563 H 0.28279 0.81582 0.62605 0.0
H564 H 0.20716 0.80253 0.73478 0.0
H565 H 0.29883 0.87475 0.74838 0.0
H566 H 0.25285 0.82212 0.65195 0.0
H567 H 0.24343 0.89472 0.77901 0.0
C568 C 0.21888 0.8717 0.79021 0.0
C569 C 0.20859 0.84529 0.77885 0.0
C570 C 0.2629 0.83405 0.67277 0.0
C571 C 0.24123 0.85158 0.73557 0.0
C572 C 0.28001 0.8305 0.65802 0.0
C573 C 0.29341 0.84471 0.68508 0.0
C574 C 0.25901 0.85188 0.71515 0.0
C575 C 0.28896 0.86371 0.72593 0.0
C576 C 0.23534 0.87478 0.76895 0.0
C577 C 0.21479 0.82313 0.7446 0.0
N578 N 0.27211 0.86652 0.74007 0.0
N579 N 0.23068 0.82677 0.72418 0.0
H580 H 0.7249 0.85547 0.62636 0.0
H581 H 0.77945 0.8413 0.87156 0.0
H582 H 0.70121 0.85832 0.77079 0.0
H583 H 0.80192 0.87137 0.73324 0.0
H584 H 0.7506 0.8495 0.83649 0.0
H585 H 0.75319 0.86341 0.66489 0.0
C586 C 0.72566 0.85837 0.66617 0.0
C587 C 0.71072 0.85655 0.69544 0.0
C588 C 0.76183 0.855 0.81414 0.0
C589 C 0.74303 0.86486 0.73993 0.0
C590 C 0.77827 0.85031 0.83413 0.0
C591 C 0.79304 0.85608 0.80543 0.0
C592 C 0.76017 0.86469 0.7646 0.0
C593 C 0.79088 0.86738 0.757 0.0
C594 C 0.74178 0.86296 0.68814 0.0
C595 C 0.71237 0.86023 0.74683 0.0
N596 N 0.77473 0.87086 0.73782 0.0
N597 N 0.72829 0.86372 0.76757 0.0
H598 H 0.69935 0.13297 0.21419 0.0
H599 H 0.80115 0.11988 0.26254 0.0
H600 H 0.72273 0.13802 0.35887 0.0
H601 H 0.77907 0.15005 0.12376 0.0
H602 H 0.77197 0.11113 0.29504 0.0
H603 H 0.72802 0.12407 0.17795 0.0
C604 C 0.71044 0.13125 0.23845 0.0
C605 C 0.70871 0.13601 0.28959 0.0
C606 C 0.77354 0.11902 0.25713 0.0
C607 C 0.74145 0.12635 0.24848 0.0
C608 C 0.79018 0.12361 0.23836 0.0
C609 C 0.79247 0.13533 0.19023 0.0
C610 C 0.75914 0.12612 0.22743 0.0
C611 C 0.77779 0.14094 0.16108 0.0
C612 C 0.7268 0.12652 0.21772 0.0
C613 C 0.72357 0.13451 0.31922 0.0
N614 N 0.76172 0.1364 0.18017 0.0
N615 N 0.73934 0.12991 0.29824 0.0
H616 H 0.70012 0.62985 0.26542 0.0
H617 H 0.80249 0.62921 0.22261 0.0
H618 H 0.72429 0.64585 0.12364 0.0
H619 H 0.77838 0.64194 0.36525 0.0
H620 H 0.77389 0.62173 0.18564 0.0
H621 H 0.72866 0.62076 0.30179 0.0
C622 C 0.71137 0.63056 0.24164 0.0
C623 C 0.70984 0.63838 0.19136 0.0
C624 C 0.7749 0.6256 0.22518 0.0
C625 C 0.74253 0.62865 0.23287 0.0
C626 C 0.79124 0.62949 0.2464 0.0
C627 C 0.79279 0.63597 0.29712 0.0
C628 C 0.76006 0.62811 0.25499 0.0
C629 C 0.77771 0.63707 0.32592 0.0
C630 C 0.72768 0.62572 0.26254 0.0
C631 C 0.72494 0.63996 0.16263 0.0
N632 N 0.76196 0.63333 0.30445 0.0
N633 N 0.74066 0.63528 0.1838 0.0
H634 H 0.79797 0.30751 0.77113 0.0
H635 H 0.70347 0.37888 0.74857 0.0
H636 H 0.78619 0.38409 0.67091 0.0
H637 H 0.71992 0.31523 0.86445 0.0
H638 H 0.73371 0.38548 0.72349 0.0
H639 H 0.76975 0.31387 0.80959 0.0
C640 C 0.78941 0.32591 0.75756 0.0
C641 C 0.79427 0.34516 0.71769 0.0
C642 C 0.7307 0.37059 0.75502 0.0
C643 C 0.76173 0.35234 0.76094 0.0
C644 C 0.71344 0.36702 0.76965 0.0
C645 C 0.70918 0.34654 0.80882 0.0
C646 C 0.74367 0.35332 0.77951 0.0
C647 C 0.72262 0.33106 0.83381 0.0
C648 C 0.7733 0.32962 0.77958 0.0
C649 C 0.78283 0.36884 0.70171 0.0
N650 N 0.73919 0.33456 0.8185 0.0
N651 N 0.7669 0.37148 0.72292 0.0
H652 H 0.19826 0.36984 0.7679 0.0
H653 H 0.30054 0.36845 0.72507 0.0
H654 H 0.22226 0.34958 0.62736 0.0
H655 H 0.27649 0.35299 0.86703 0.0
H656 H 0.27193 0.37698 0.68849 0.0
H657 H 0.2269 0.37917 0.8038 0.0
C658 C 0.20953 0.36844 0.74423 0.0
C659 C 0.20797 0.35941 0.69449 0.0
C660 C 0.27295 0.37239 0.72784 0.0
C661 C 0.24066 0.36924 0.7354 0.0
C662 C 0.28926 0.36793 0.74882 0.0
C663 C 0.29079 0.36051 0.79921 0.0
C664 C 0.25814 0.36944 0.75759 0.0
C665 C 0.27576 0.35882 0.82803 0.0
C666 C 0.22586 0.37335 0.76485 0.0
C667 C 0.223 0.35666 0.66585 0.0
N668 N 0.26002 0.36316 0.80679 0.0
N669 N 0.23876 0.36145 0.68674 0.0
H670 H 0.21022 0.71308 0.28098 0.0
H671 H 0.29334 0.6101 0.2105 0.0
H672 H 0.21318 0.61349 0.31749 0.0
H673 H 0.29014 0.71229 0.20596 0.0
H674 H 0.26416 0.60853 0.24689 0.0
H675 H 0.23929 0.71084 0.24882 0.0
C676 C 0.21697 0.69058 0.28226 0.0
C677 C 0.20908 0.6634 0.30193 0.0
C678 C 0.26999 0.63121 0.2382 0.0
C679 C 0.24286 0.66064 0.26467 0.0
C680 C 0.2867 0.63216 0.21784 0.0
C681 C 0.29428 0.66141 0.20529 0.0
C682 C 0.26088 0.65969 0.24561 0.0
C683 C 0.28483 0.68916 0.21452 0.0
C684 C 0.23368 0.68933 0.26375 0.0
C685 C 0.21856 0.63492 0.30188 0.0
N686 N 0.26872 0.68757 0.23387 0.0
N687 N 0.23502 0.63426 0.28353 0.0
H688 H 0.95827 0.17072 0.17095 0.0
H689 H 0.04444 0.0657 0.18002 0.0
H690 H 0.95824 0.06901 0.18965 0.0
H691 H 0.04432 0.16775 0.16635 0.0
H692 H 0.01294 0.06654 0.18647 0.0
H693 H 0.98982 0.17023 0.1723 0.0
C694 C 0.96489 0.14828 0.17554 0.0
C695 C 0.95557 0.11983 0.17991 0.0
C696 C 0.0198 0.08876 0.18222 0.0
C697 C 0.99177 0.11909 0.18132 0.0
C698 C 0.03781 0.08831 0.1785 0.0
C699 C 0.04705 0.11669 0.17237 0.0
C700 C 0.01094 0.1178 0.17969 0.0
C701 C 0.03774 0.14526 0.17083 0.0
C702 C 0.98293 0.14802 0.17631 0.0
C703 C 0.96487 0.0915 0.18602 0.0
N704 N 0.02021 0.14507 0.17427 0.0
N705 N 0.98245 0.09184 0.18629 0.0
H706 H 0.54667 0.93327 0.66829 0.0
H707 H 0.4599 0.82969 0.67375 0.0
H708 H 0.54592 0.83087 0.66947 0.0
H709 H 0.46039 0.932 0.66643 0.0
H710 H 0.49141 0.82987 0.67741 0.0
H711 H 0.51513 0.93345 0.67278 0.0
C712 C 0.53989 0.91081 0.66969 0.0
C713 C 0.54897 0.882 0.66821 0.0
C714 C 0.48464 0.8523 0.67515 0.0
C715 C 0.51282 0.88205 0.67329 0.0
C716 C 0.46662 0.85222 0.67306 0.0
C717 C 0.45747 0.88088 0.66946 0.0
C718 C 0.49363 0.88123 0.6736 0.0
C719 C 0.4669 0.90933 0.66899 0.0
C720 C 0.52186 0.91094 0.67222 0.0
C721 C 0.53947 0.85365 0.67026 0.0
N722 N 0.48446 0.90878 0.67083 0.0
N723 N 0.52193 0.8544 0.67253 0.0
H724 H 0.95801 0.93018 0.80784 0.0
H725 H 0.04503 0.82815 0.83019 0.0
H726 H 0.95904 0.82861 0.82818 0.0
H727 H 0.04431 0.93037 0.82051 0.0
H728 H 0.01356 0.82773 0.82406 0.0
H729 H 0.98962 0.93054 0.80667 0.0
C730 C 0.96487 0.90793 0.81181 0.0
C731 C 0.95584 0.87934 0.8184 0.0
C732 C 0.02027 0.85027 0.82319 0.0
C733 C 0.99204 0.8796 0.8172 0.0
C734 C 0.03827 0.85053 0.8267 0.0
C735 C 0.04735 0.87937 0.82615 0.0
C736 C 0.01123 0.87904 0.81904 0.0
C737 C 0.03786 0.90759 0.82129 0.0
C738 C 0.98293 0.90817 0.81123 0.0
C739 C 0.96544 0.85124 0.82328 0.0
N740 N 0.02032 0.90672 0.81805 0.0
N741 N 0.98299 0.85211 0.82273 0.0
H742 H 0.54384 0.06675 0.3121 0.0
H743 H 0.45747 0.17093 0.32806 0.0
H744 H 0.54365 0.16866 0.32779 0.0
H745 H 0.45764 0.06959 0.30505 0.0
H746 H 0.48903 0.17074 0.32565 0.0
H747 H 0.51231 0.06745 0.3072 0.0
C748 C 0.53719 0.0893 0.31438 0.0
C749 C 0.54643 0.11768 0.32061 0.0
C750 C 0.48217 0.14855 0.32093 0.0
C751 C 0.51027 0.11864 0.3151 0.0
C752 C 0.46413 0.14863 0.32232 0.0
C753 C 0.45486 0.12019 0.31701 0.0
C754 C 0.49107 0.11981 0.31436 0.0
C755 C 0.46422 0.09207 0.30943 0.0
C756 C 0.51916 0.08968 0.31155 0.0
C757 C 0.53708 0.14618 0.32318 0.0
N758 N 0.4818 0.09257 0.30858 0.0
N759 N 0.51953 0.14591 0.32061 0.0
H760 H 0.4587 0.66609 0.17515 0.0
H761 H 0.54575 0.56334 0.17112 0.0
H762 H 0.45948 0.56381 0.167 0.0
H763 H 0.54472 0.66574 0.1708 0.0
H764 H 0.5142 0.56287 0.17543 0.0
H765 H 0.49021 0.6662 0.17939 0.0
C766 C 0.46549 0.64362 0.17441 0.0
C767 C 0.45642 0.61489 0.17039 0.0
C768 C 0.52088 0.58545 0.17458 0.0
C769 C 0.49257 0.61488 0.1752 0.0
C770 C 0.53891 0.58574 0.17218 0.0
C771 C 0.54791 0.61463 0.1703 0.0
C772 C 0.51176 0.61425 0.17515 0.0
C773 C 0.53833 0.6429 0.1719 0.0
C774 C 0.4835 0.64372 0.17682 0.0
C775 C 0.46593 0.58653 0.16987 0.0
N776 N 0.52079 0.64199 0.17407 0.0
N777 N 0.48348 0.58725 0.17205 0.0
H778 H 0.04396 0.42691 0.70011 0.0
H779 H 0.95734 0.32569 0.66253 0.0
H780 H 0.04307 0.32731 0.66297 0.0
H781 H 0.95738 0.42547 0.69852 0.0
H782 H 0.9888 0.32562 0.66646 0.0
H783 H 0.01235 0.42662 0.70367 0.0
C784 C 0.03714 0.40495 0.69291 0.0
C785 C 0.0462 0.37713 0.68094 0.0
C786 C 0.98196 0.34754 0.67363 0.0
C787 C 0.01002 0.37666 0.68489 0.0
C788 C 0.96396 0.34761 0.67136 0.0
C789 C 0.95468 0.37569 0.67992 0.0
C790 C 0.99084 0.37577 0.68444 0.0
C791 C 0.964 0.4033 0.69151 0.0
C792 C 0.01909 0.40482 0.69491 0.0
C793 C 0.03666 0.34937 0.67207 0.0
N794 N 0.98157 0.40268 0.69323 0.0
N795 N 0.01912 0.34989 0.67407 0.0
H796 H 0.4572 0.41725 0.90007 0.0
H797 H 0.54275 0.33392 0.79983 0.0
H798 H 0.45585 0.3365 0.80188 0.0
H799 H 0.54195 0.42798 0.86299 0.0
H800 H 0.5111 0.33318 0.8019 0.0
H801 H 0.48845 0.42024 0.88921 0.0
C802 C 0.46348 0.40015 0.87615 0.0
C803 C 0.4539 0.37649 0.85203 0.0
C804 C 0.51787 0.35405 0.81493 0.0
C805 C 0.48977 0.37972 0.83958 0.0
C806 C 0.53593 0.35448 0.81386 0.0
C807 C 0.54502 0.38099 0.83154 0.0
C808 C 0.50886 0.38015 0.83437 0.0
C809 C 0.5355 0.40702 0.84906 0.0
C810 C 0.48133 0.40195 0.86981 0.0
C811 C 0.46274 0.3551 0.82123 0.0
N812 N 0.51796 0.40582 0.85044 0.0
N813 N 0.48021 0.35706 0.81618 0.0
H814 H 0.95793 0.66762 0.32494 0.0
H815 H 0.04419 0.56284 0.30917 0.0
H816 H 0.95784 0.56535 0.31675 0.0
H817 H 0.04388 0.66488 0.32293 0.0
H818 H 0.01258 0.56334 0.30642 0.0
H819 H 0.98942 0.66713 0.31899 0.0
C820 C 0.96452 0.64505 0.32175 0.0
C821 C 0.95521 0.61646 0.32165 0.0
C822 C 0.01944 0.58562 0.30985 0.0
C823 C 0.99134 0.61573 0.31483 0.0
C824 C 0.03749 0.58536 0.31135 0.0
C825 C 0.04672 0.61384 0.31662 0.0
C826 C 0.01053 0.61458 0.31362 0.0
C827 C 0.03733 0.64231 0.31916 0.0
C828 C 0.98252 0.64479 0.31834 0.0
C829 C 0.96448 0.58795 0.31718 0.0
N830 N 0.01978 0.64193 0.31783 0.0
N831 N 0.98202 0.58831 0.31414 0.0
H832 H 0.0945 0.05566 0.07814 0.0
H833 H 0.15195 0.93492 0.91957 0.0
H834 H 0.15027 0.06024 0.07376 0.0
H835 H 0.0962 0.93999 0.91414 0.0
H836 H 0.15205 0.98001 0.97685 0.0
H837 H 0.09533 0.01111 0.02112 0.0
C838 C 0.10695 0.04715 0.06554 0.0
C839 C 0.12234 0.06189 0.08065 0.0
C840 C 0.13983 0.97129 0.96281 0.0
C841 C 0.12337 0.01085 0.01462 0.0
C842 C 0.13976 0.94569 0.92991 0.0
C843 C 0.12404 0.93349 0.91218 0.0
C844 C 0.12407 0.98465 0.97811 0.0
C845 C 0.10864 0.94837 0.92697 0.0
C846 C 0.10741 0.02175 0.03266 0.0
C847 C 0.13808 0.04964 0.06306 0.0
N848 N 0.10906 0.97298 0.95923 0.0
N849 N 0.13819 0.02489 0.03076 0.0
H850 H 0.35285 0.92986 0.56843 0.0
H851 H 0.4091 0.05746 0.41877 0.0
H852 H 0.40837 0.9388 0.5789 0.0
H853 H 0.35328 0.05523 0.41541 0.0
H854 H 0.40888 0.01188 0.47422 0.0
H855 H 0.35248 0.97491 0.51108 0.0
C856 C 0.36493 0.94142 0.55909 0.0
C857 C 0.38067 0.93042 0.57845 0.0
C858 C 0.39667 0.02127 0.46123 0.0
C859 C 0.38034 0.9816 0.51246 0.0
C860 C 0.39679 0.04723 0.42929 0.0
C861 C 0.38118 0.06036 0.41257 0.0
C862 C 0.38084 0.00825 0.47668 0.0
C863 C 0.36563 0.04598 0.42749 0.0
C864 C 0.36471 0.96702 0.52616 0.0
C865 C 0.39592 0.9463 0.56488 0.0
N866 N 0.36585 0.02078 0.4589 0.0
N867 N 0.39537 0.97094 0.53263 0.0
H868 H 0.85321 0.93537 0.92155 0.0
H869 H 0.90996 0.05976 0.07553 0.0
H870 H 0.90901 0.93908 0.91754 0.0
H871 H 0.85412 0.05831 0.07712 0.0
H872 H 0.90977 0.01477 0.01884 0.0
H873 H 0.85318 0.98072 0.97783 0.0
C874 C 0.86545 0.94587 0.93209 0.0
C875 C 0.88114 0.93326 0.91491 0.0
C876 C 0.89756 0.02422 0.0317 0.0
C877 C 0.88119 0.98495 0.9798 0.0
C878 C 0.89765 0.04984 0.06432 0.0
C879 C 0.88203 0.06296 0.08104 0.0
C880 C 0.88173 0.01156 0.0156 0.0
C881 C 0.86649 0.04904 0.06517 0.0
C882 C 0.86542 0.97168 0.96444 0.0
C883 C 0.89659 0.94789 0.92989 0.0
N884 N 0.86674 0.02418 0.03318 0.0
N885 N 0.89622 0.97283 0.96164 0.0
H886 H 0.5943 0.05714 0.41455 0.0
H887 H 0.65228 0.93289 0.56468 0.0
H888 H 0.65012 0.06056 0.41463 0.0
H889 H 0.59681 0.9412 0.57801 0.0
H890 H 0.65221 0.97832 0.50794 0.0
H891 H 0.59539 0.01205 0.47056 0.0
C892 C 0.60682 0.04827 0.426 0.0
C893 C 0.62215 0.06284 0.40997 0.0
C894 C 0.64009 0.97022 0.52359 0.0
C895 C 0.62347 0.01116 0.47482 0.0
C896 C 0.64013 0.94441 0.55615 0.0
C897 C 0.62452 0.93306 0.57602 0.0
C898 C 0.62434 0.98462 0.51073 0.0
C899 C 0.60916 0.94891 0.56353 0.0
C900 C 0.60743 0.02257 0.4583 0.0
C901 C 0.63797 0.05013 0.4261 0.0
N902 N 0.60947 0.97369 0.53154 0.0
N903 N 0.63823 0.02505 0.45782 0.0
H904 H 0.59503 0.55431 0.08194 0.0
H905 H 0.65002 0.43491 0.91439 0.0
H906 H 0.65029 0.56295 0.06314 0.0
H907 H 0.59422 0.43702 0.92053 0.0
H908 H 0.65088 0.48032 0.97085 0.0
H909 H 0.59512 0.50877 0.02693 0.0
C910 C 0.60724 0.54651 0.06655 0.0
C911 C 0.62267 0.56269 0.07703 0.0
C912 C 0.63848 0.47088 0.95958 0.0
C913 C 0.62282 0.51042 0.01329 0.0
C914 C 0.63795 0.44504 0.92722 0.0
C915 C 0.62201 0.43204 0.9127 0.0
C916 C 0.62296 0.48367 0.97771 0.0
C917 C 0.60682 0.44616 0.93058 0.0
C918 C 0.60726 0.52052 0.03485 0.0
C919 C 0.63808 0.55126 0.05604 0.0
N920 N 0.60768 0.47106 0.96228 0.0
N921 N 0.63776 0.52586 0.02494 0.0
H922 H 0.85158 0.43737 0.58102 0.0
H923 H 0.90838 0.55476 0.41435 0.0
H924 H 0.90737 0.43564 0.57438 0.0
H925 H 0.85269 0.55969 0.42319 0.0
H926 H 0.90799 0.50994 0.47116 0.0
H927 H 0.85155 0.48217 0.52357 0.0
C928 C 0.86383 0.44657 0.56791 0.0
C929 C 0.87951 0.43259 0.58247 0.0
C930 C 0.89584 0.52071 0.46057 0.0
C931 C 0.87952 0.48361 0.51623 0.0
C932 C 0.89604 0.54626 0.42786 0.0
C933 C 0.88054 0.56116 0.41407 0.0
C934 C 0.88004 0.5099 0.47981 0.0
C935 C 0.86495 0.54897 0.4328 0.0
C936 C 0.86379 0.47205 0.53489 0.0
C937 C 0.89497 0.44554 0.56417 0.0
N938 N 0.86511 0.52414 0.46493 0.0
N939 N 0.89457 0.47019 0.53186 0.0
H940 H 0.34974 0.44085 0.9149 0.0
H941 H 0.40675 0.55478 0.08558 0.0
H942 H 0.40557 0.44084 0.91873 0.0
H943 H 0.35173 0.5675 0.06675 0.0
H944 H 0.40585 0.51042 0.02841 0.0
H945 H 0.34965 0.48598 0.9719 0.0
C946 C 0.36198 0.4505 0.92724 0.0
C947 C 0.3777 0.43684 0.91219 0.0
C948 C 0.39394 0.52281 0.03677 0.0
C949 C 0.37764 0.48811 0.97789 0.0
C950 C 0.39442 0.54811 0.06974 0.0
C951 C 0.3793 0.5651 0.08085 0.0
C952 C 0.37823 0.5142 0.01459 0.0
C953 C 0.36371 0.55511 0.05924 0.0
C954 C 0.3619 0.47617 0.95995 0.0
C955 C 0.39314 0.45039 0.92942 0.0
N956 N 0.36358 0.53035 0.02691 0.0
N957 N 0.39269 0.47508 0.96157 0.0
H958 H 0.15059 0.56137 0.42275 0.0
H959 H 0.09278 0.43738 0.57434 0.0
H960 H 0.09496 0.55506 0.4125 0.0
H961 H 0.14862 0.43518 0.57409 0.0
H962 H 0.09361 0.48233 0.51778 0.0
H963 H 0.15043 0.51574 0.47886 0.0
C964 C 0.13837 0.55023 0.43182 0.0
C965 C 0.12276 0.56222 0.41302 0.0
C966 C 0.1057 0.47209 0.53015 0.0
C967 C 0.12249 0.51036 0.47768 0.0
C968 C 0.10524 0.44649 0.56276 0.0
C969 C 0.12065 0.43234 0.57892 0.0
C970 C 0.12168 0.48377 0.51353 0.0
C971 C 0.1364 0.44528 0.56254 0.0
C972 C 0.13829 0.52429 0.46405 0.0
C973 C 0.10732 0.54681 0.42616 0.0
N974 N 0.13651 0.47021 0.5306 0.0
N975 N 0.10758 0.52186 0.45786 0.0
H976 H 0.09894 0.33836 0.86962 0.0
H977 H 0.14631 0.20744 0.03101 0.0
H978 H 0.13683 0.27366 0.81024 0.0
H979 H 0.09222 0.22756 0.0555 0.0
H980 H 0.14603 0.24301 0.95998 0.0
H981 H 0.09881 0.30757 0.94735 0.0
C982 C 0.10728 0.31785 0.87313 0.0
C983 C 0.11813 0.30878 0.83395 0.0
C984 C 0.13426 0.23977 0.98115 0.0
C985 C 0.11829 0.27427 0.9221 0.0
C986 C 0.1344 0.2196 0.02186 0.0
C987 C 0.1192 0.21425 0.04902 0.0
C988 C 0.11891 0.25514 0.96775 0.0
C989 C 0.10417 0.23079 0.03526 0.0
C990 C 0.1072 0.30042 0.91723 0.0
C991 C 0.12865 0.28202 0.84004 0.0
N992 N 0.10438 0.25057 0.9954 0.0
N993 N 0.12858 0.26587 0.88343 0.0
H994 H 0.36178 0.76094 0.56424 0.0
H995 H 0.40962 0.71227 0.31704 0.0
H996 H 0.4147 0.78681 0.53313 0.0
H997 H 0.3648 0.66191 0.37039 0.0
H998 H 0.4116 0.73988 0.39612 0.0
H999 H 0.36241 0.72437 0.49411 0.0
C1000 C 0.37359 0.7587 0.54298 0.0
C1001 C 0.38816 0.77721 0.55425 0.0
C1002 C 0.40147 0.72248 0.39089 0.0
C1003 C 0.38888 0.73566 0.47374 0.0
C1004 C 0.40039 0.70658 0.34584 0.0
C1005 C 0.38715 0.68452 0.33752 0.0
C1006 C 0.38899 0.71679 0.42756 0.0
C1007 C 0.37517 0.67884 0.37547 0.0
C1008 C 0.37394 0.73775 0.50304 0.0
C1009 C 0.40315 0.77311 0.52568 0.0
N1010 N 0.37628 0.69511 0.41882 0.0
N1011 N 0.40304 0.75309 0.48631 0.0
H1012 H 0.1466 0.7892 0.96421 0.0
H1013 H 0.10004 0.65778 0.12656 0.0
H1014 H 0.09263 0.7678 0.94006 0.0
H1015 H 0.13725 0.72381 0.18591 0.0
H1016 H 0.09982 0.68826 0.04858 0.0
H1017 H 0.14652 0.75395 0.03571 0.0
C1018 C 0.13476 0.77682 0.97355 0.0
C1019 C 0.11953 0.78169 0.94637 0.0
C1020 C 0.10808 0.69578 0.07876 0.0
C1021 C 0.11948 0.74119 0.02804 0.0
C1022 C 0.1082 0.67854 0.12302 0.0
C1023 C 0.11887 0.6881 0.1623 0.0
C1024 C 0.11895 0.72222 0.07382 0.0
C1025 C 0.12921 0.7151 0.15607 0.0
C1026 C 0.13474 0.75684 0.01449 0.0
C1027 C 0.1046 0.76492 0.96032 0.0
N1028 N 0.12911 0.73107 0.11253 0.0
N1029 N 0.10493 0.74532 0.00038 0.0
H1030 H 0.36237 0.27256 0.69059 0.0
H1031 H 0.40886 0.2289 0.43983 0.0
H1032 H 0.39981 0.33646 0.62686 0.0
H1033 H 0.35604 0.20238 0.47117 0.0
H1034 H 0.40825 0.2647 0.51159 0.0
H1035 H 0.3624 0.24187 0.61403 0.0
C1036 C 0.37044 0.28034 0.66013 0.0
C1037 C 0.38083 0.30741 0.66448 0.0
C1038 C 0.39679 0.2512 0.50226 0.0
C1039 C 0.38139 0.2718 0.57754 0.0
C1040 C 0.39713 0.23074 0.46155 0.0
C1041 C 0.38251 0.21251 0.44968 0.0
C1042 C 0.38187 0.25282 0.53167 0.0
C1043 C 0.36762 0.21593 0.47891 0.0
C1044 C 0.37051 0.26276 0.6166 0.0
C1045 C 0.39155 0.31577 0.62464 0.0
N1046 N 0.36776 0.23537 0.51889 0.0
N1047 N 0.39165 0.29787 0.58269 0.0
H1048 H 0.86242 0.66009 0.12753 0.0
H1049 H 0.9129 0.78804 0.96418 0.0
H1050 H 0.90595 0.71426 0.1805 0.0
H1051 H 0.85908 0.76574 0.93977 0.0
H1052 H 0.91317 0.75141 0.03418 0.0
H1053 H 0.86341 0.69017 0.04952 0.0
C1054 C 0.87226 0.67809 0.1225 0.0
C1055 C 0.88423 0.68451 0.16017 0.0
C1056 C 0.90135 0.75441 0.01325 0.0
C1057 C 0.88559 0.71844 0.07147 0.0
C1058 C 0.90119 0.77519 0.97314 0.0
C1059 C 0.88589 0.78021 0.94636 0.0
C1060 C 0.88617 0.73824 0.02638 0.0
C1061 C 0.87111 0.76283 0.95973 0.0
C1062 C 0.87283 0.69514 0.07815 0.0
C1063 C 0.89675 0.70798 0.15196 0.0
N1064 N 0.87159 0.74263 -0.00104 0.0
N1065 N 0.89713 0.72405 0.10846 0.0
H1066 H 0.64593 0.20956 0.45881 0.0
H1067 H 0.59801 0.33927 0.62154 0.0
H1068 H 0.59161 0.2283 0.43589 0.0
H1069 H 0.63668 0.27558 0.67947 0.0
H1070 H 0.59793 0.30866 0.54366 0.0
H1071 H 0.64564 0.24536 0.52952 0.0
C1072 C 0.63396 0.22146 0.46823 0.0
C1073 C 0.6187 0.21564 0.44163 0.0
C1074 C 0.60648 0.30171 0.57351 0.0
C1075 C 0.61841 0.2568 0.52253 0.0
C1076 C 0.60653 0.31902 0.61773 0.0
C1077 C 0.61756 0.31017 0.6566 0.0
C1078 C 0.61779 0.27592 0.56819 0.0
C1079 C 0.62835 0.28381 0.64998 0.0
C1080 C 0.63382 0.24177 0.50875 0.0
C1081 C 0.60361 0.23188 0.4557 0.0
N1082 N 0.6283 0.26778 0.60651 0.0
N1083 N 0.60382 0.25179 0.4954 0.0
H1084 H 0.91086 0.22889 0.05962 0.0
H1085 H 0.86262 0.27772 0.81477 0.0
H1086 H 0.85668 0.20982 0.03488 0.0
H1087 H 0.90443 0.33531 0.87023 0.0
H1088 H 0.86213 0.24871 0.89264 0.0
H1089 H 0.91062 0.26509 0.9884 0.0
C1090 C 0.8989 0.23251 0.03957 0.0
C1091 C 0.8838 0.21606 0.05293 0.0
C1092 C 0.87131 0.26791 0.88807 0.0
C1093 C 0.88356 0.25691 0.97154 0.0
C1094 C 0.87154 0.28459 0.84374 0.0
C1095 C 0.88334 0.30938 0.83656 0.0
C1096 C 0.88327 0.27547 0.92521 0.0
C1097 C 0.8951 0.31638 0.87457 0.0
C1098 C 0.89878 0.2532 -0.00087 0.0
C1099 C 0.86865 0.22182 0.02585 0.0
N1100 N 0.89486 0.29932 0.91739 0.0
N1101 N 0.86898 0.24142 0.98607 0.0
H1102 H 0.59132 0.78919 0.52821 0.0
H1103 H 0.64133 0.66131 0.36281 0.0
H1104 H 0.6447 0.76385 0.55311 0.0
H1105 H 0.59676 0.71368 0.31276 0.0
H1106 H 0.64039 0.6908 0.44126 0.0
H1107 H 0.59053 0.75263 0.45805 0.0
C1108 C 0.60281 0.77568 0.51934 0.0
C1109 C 0.61815 0.77984 0.54628 0.0
C1110 C 0.63072 0.69552 0.41321 0.0
C1111 C 0.61732 0.738 0.46607 0.0
C1112 C 0.63128 0.67879 0.36858 0.0
C1113 C 0.61902 0.68491 0.33157 0.0
C1114 C 0.61773 0.71828 0.42082 0.0
C1115 C 0.60621 0.70771 0.34076 0.0
C1116 C 0.60237 0.75494 0.47915 0.0
C1117 C 0.63265 0.76163 0.53305 0.0
N1118 N 0.6059 0.72356 0.38447 0.0
N1119 N 0.6319 0.74157 0.49373 0.0
H1120 H 0.59034 0.70733 0.02745 0.0
H1121 H 0.64158 0.83455 0.86351 0.0
H1122 H 0.64371 0.73223 0.05378 0.0
H1123 H 0.59668 0.78349 0.81248 0.0
H1124 H 0.64014 0.80513 0.94195 0.0
H1125 H 0.58986 0.74409 0.95741 0.0
C1126 C 0.60189 0.72079 0.01892 0.0
C1127 C 0.61714 0.71644 0.04618 0.0
C1128 C 0.63051 0.80068 0.9137 0.0
C1129 C 0.61666 0.75848 0.96619 0.0
C1130 C 0.63135 0.81737 0.86907 0.0
C1131 C 0.61915 0.8116 0.83177 0.0
C1132 C 0.61731 0.77828 0.92102 0.0
C1133 C 0.60611 0.78919 0.8407 0.0
C1134 C 0.60163 0.74164 0.97881 0.0
C1135 C 0.63172 0.73457 0.03342 0.0
N1136 N 0.60553 0.77334 0.88441 0.0
N1137 N 0.63114 0.75473 0.99419 0.0
H1138 H 0.90182 0.15625 0.37202 0.0
H1139 H 0.85523 0.28916 0.53309 0.0
H1140 H 0.86279 0.21919 0.31418 0.0
H1141 H 0.9088 0.26498 0.55773 0.0
H1142 H 0.85467 0.253 0.46266 0.0
H1143 H 0.90179 0.18679 0.44982 0.0
C1144 C 0.89317 0.17629 0.37593 0.0
C1145 C 0.88214 0.18503 0.33706 0.0
C1146 C 0.8665 0.25549 0.48374 0.0
C1147 C 0.8818 0.21933 0.42535 0.0
C1148 C 0.86684 0.276 0.52407 0.0
C1149 C 0.88215 0.28035 0.55104 0.0
C1150 C 0.8815 0.23885 0.47062 0.0
C1151 C 0.89678 0.26256 0.53759 0.0
C1152 C 0.89315 0.19359 0.42009 0.0
C1153 C 0.87118 0.21115 0.3437 0.0
N1154 N 0.89611 0.24254 0.49815 0.0
N1155 N 0.87121 0.22727 0.38711 0.0
H1156 H 0.63824 0.15967 0.12182 0.0
H1157 H 0.58762 0.28763 0.95867 0.0
H1158 H 0.5948 0.21397 0.17506 0.0
H1159 H 0.64121 0.26407 0.93292 0.0
H1160 H 0.58727 0.25086 0.02857 0.0
H1161 H 0.63692 0.18909 0.04328 0.0
C1162 C 0.62834 0.17754 0.11673 0.0
C1163 C 0.61652 0.18424 0.15468 0.0
C1164 C 0.59905 0.2536 0.00733 0.0
C1165 C 0.61479 0.21744 0.06535 0.0
C1166 C 0.59926 0.27445 0.96729 0.0
C1167 C 0.61453 0.2792 0.94023 0.0
C1168 C 0.61416 0.23711 0.02011 0.0
C1169 C 0.62921 0.2614 0.95313 0.0
C1170 C 0.62758 0.19421 0.07206 0.0
C1171 C 0.6039 0.20752 0.14636 0.0
N1172 N 0.62869 0.24119 0.99232 0.0
N1173 N 0.60336 0.22326 0.10257 0.0
H1174 H 0.85625 0.70555 0.46623 0.0
H1175 H 0.90265 0.83826 0.62602 0.0
H1176 H 0.91009 0.72737 0.44056 0.0
H1177 H 0.86545 0.77258 0.68642 0.0
H1178 H 0.90301 0.80716 0.54864 0.0
H1179 H 0.8564 0.74103 0.53729 0.0
C1180 C 0.86808 0.71805 0.47515 0.0
C1181 C 0.88325 0.71324 0.4476 0.0
C1182 C 0.89473 0.79985 0.57891 0.0
C1183 C 0.88338 0.75404 0.52893 0.0
C1184 C 0.89451 0.81746 0.62282 0.0
C1185 C 0.8838 0.80818 0.6622 0.0
C1186 C 0.8839 0.77331 0.57443 0.0
C1187 C 0.87352 0.78107 0.65647 0.0
C1188 C 0.86815 0.73817 0.51589 0.0
C1189 C 0.89817 0.73019 0.46109 0.0
N1190 N 0.87371 0.76474 0.61327 0.0
N1191 N 0.89788 0.74994 0.50098 0.0
H1192 H 0.40826 0.27005 0.94035 0.0
H1193 H 0.36193 0.22294 0.18988 0.0
H1194 H 0.35491 0.2933 0.97054 0.0
H1195 H 0.40088 0.16188 0.12693 0.0
H1196 H 0.36142 0.25352 0.11323 0.0
H1197 H 0.40806 0.23402 0.01188 0.0
C1198 C 0.3965 0.26745 0.96178 0.0
C1199 C 0.3816 0.28483 0.94964 0.0
C1200 C 0.36997 0.23326 0.11598 0.0
C1201 C 0.38142 0.24423 0.03138 0.0
C1202 C 0.37021 0.21571 0.15956 0.0
C1203 C 0.38122 0.1895 0.16423 0.0
C1204 C 0.38116 0.22509 0.07716 0.0
C1205 C 0.39217 0.18191 0.12453 0.0
C1206 C 0.3964 0.24685 0.00235 0.0
C1207 C 0.3667 0.28043 0.9785 0.0
N1208 N 0.39197 0.19979 0.08256 0.0
N1209 N 0.36706 0.26088 0.01837 0.0
H1210 H 0.13586 0.83956 0.6217 0.0
H1211 H 0.08785 0.70392 0.46777 0.0
H1212 H 0.09594 0.77979 0.68279 0.0
H1213 H 0.14041 0.7324 0.43729 0.0
H1214 H 0.08709 0.74137 0.53689 0.0
H1215 H 0.13429 0.80928 0.54398 0.0
C1216 C 0.12666 0.82029 0.61847 0.0
C1217 C 0.11599 0.81212 0.65844 0.0
C1218 C 0.09872 0.73954 0.51475 0.0
C1219 C 0.11393 0.77801 0.57019 0.0
C1220 C 0.09915 0.7183 0.47523 0.0
C1221 C 0.11428 0.71482 0.4471 0.0
C1222 C 0.11343 0.7577 0.52574 0.0
C1223 C 0.12856 0.73408 0.45843 0.0
C1224 C 0.12576 0.80312 0.57433 0.0
C1225 C 0.1042 0.78715 0.65254 0.0
N1226 N 0.1278 0.7547 0.49701 0.0
N1227 N 0.10348 0.77095 0.60921 0.0
H1228 H 0.40839 0.78106 0.81348 0.0
H1229 H 0.36214 0.73692 0.06468 0.0
H1230 H 0.36746 0.83875 0.87379 0.0
H1231 H 0.41396 0.70615 0.02971 0.0
H1232 H 0.36324 0.77374 0.99479 0.0
H1233 H 0.41017 0.75243 0.89181 0.0
C1234 C 0.39996 0.78803 0.84361 0.0
C1235 C 0.38784 0.81242 0.83746 0.0
C1236 C 0.37443 0.75921 0.00283 0.0
C1237 C 0.38946 0.77916 0.92668 0.0
C1238 C 0.37381 0.73811 0.04258 0.0
C1239 C 0.38793 0.71822 0.05273 0.0
C1240 C 0.38917 0.76002 0.97256 0.0
C1241 C 0.40276 0.72097 0.02315 0.0
C1242 C 0.40094 0.7716 0.88823 0.0
C1243 C 0.37691 0.81994 0.87716 0.0
N1244 N 0.4029 0.74116 0.98395 0.0
N1245 N 0.37785 0.80313 0.92008 0.0
H1246 H 0.09536 0.21376 0.31367 0.0
H1247 H 0.14344 0.26465 0.55865 0.0
H1248 H 0.13882 0.16053 0.36933 0.0
H1249 H 0.08974 0.28649 0.53118 0.0
H1250 H 0.14299 0.2279 0.48842 0.0
H1251 H 0.09392 0.24254 0.39179 0.0
C1252 C 0.10439 0.20768 0.34277 0.0
C1253 C 0.11705 0.18437 0.33543 0.0
C1254 C 0.13127 0.24049 0.49824 0.0
C1255 C 0.1159 0.21809 0.42427 0.0
C1256 C 0.13152 0.26152 0.53816 0.0
C1257 C 0.11664 0.27887 0.55054 0.0
C1258 C 0.11613 0.23725 0.47009 0.0
C1259 C 0.10153 0.27372 0.52292 0.0
C1260 C 0.10364 0.22428 0.38724 0.0
C1261 C 0.12887 0.17837 0.37368 0.0
N1262 N 0.10174 0.25369 0.48359 0.0
N1263 N 0.12811 0.19535 0.41645 0.0
loop_
_geom_bond_atom_site_label_1
_geom_bond_atom_site_label_2
_geom_bond_distance
_geom_bond_site_symmetry_2
_ccdc_geom_bond_type
Co0 O3 1.970 . S
Co0 N17 1.989 . S
Co0 O25 1.967 . S
Co0 O32 1.920 . S
Co1 O4 1.966 . S
Co1 N10 2.022 . S
Co1 N18 1.993 . S
Co1 O26 1.941 . S
C2 O3 1.258 . S
C2 O4 1.263 . S
O3 Co0 1.970 . S
O3 C2 1.258 . S
O4 Co1 1.966 . S
O4 C2 1.263 . S
C5 O6 1.235 . S
C5 O32 1.289 . S
O6 C5 1.235 . S
C7 C9 1.400 . S
C7 N10 1.351 . S
C7 C12 1.501 . S
C8 C9 1.387 . S
C8 N11 1.341 . S
C9 C7 1.400 . S
C9 C8 1.387 . S
N10 Co1 2.022 . S
N10 C7 1.351 . S
N10 N11 1.365 . S
N11 C8 1.341 . S
N11 N10 1.365 . S
N11 H31 0.862 . S
C12 C7 1.501 . S
C12 H13 0.961 . S
C12 H14 0.961 . S
C12 H15 0.960 . S
H13 C12 0.961 . S
H14 C12 0.961 . S
H15 C12 0.960 . S
C16 N17 1.342 . S
C16 C20 1.401 . S
C16 C21 1.499 . S
N17 Co0 1.989 . S
N17 C16 1.342 . S
N17 N18 1.388 . S
N18 Co1 1.993 . S
N18 N17 1.388 . S
N18 C19 1.346 . S
C19 N18 1.346 . S
C19 C20 1.396 . S
C19 C29 1.510 . S
C20 C16 1.401 . S
C20 C19 1.396 . S
C21 C16 1.499 . S
C21 H22 0.959 . S
C21 H23 0.960 . S
C21 H24 0.961 . S
H22 C21 0.959 . S
H23 C21 0.960 . S
H24 C21 0.961 . S
O25 Co0 1.967 . S
O25 C33 1.258 . S
O26 Co1 1.941 . S
O26 C33 1.266 . S
H27 C29 0.959 . S
H28 C29 0.961 . S
C29 C19 1.510 . S
C29 H27 0.959 . S
C29 H28 0.961 . S
C29 H30 0.960 . S
H30 C29 0.960 . S
H31 N11 0.862 . S
O32 Co0 1.920 . S
O32 C5 1.289 . S
C33 O25 1.258 . S
C33 O26 1.266 . S
Co34 O37 1.970 . S
Co34 N51 1.989 . S
Co34 O59 1.967 . S
Co34 O66 1.920 . S
Co35 O38 1.966 . S
Co35 N44 2.022 . S
Co35 N52 1.993 . S
Co35 O60 1.941 . S
C36 O37 1.258 . S
C36 O38 1.263 . S
O37 Co34 1.970 . S
O37 C36 1.258 . S
O38 Co35 1.966 . S
O38 C36 1.263 . S
C39 O40 1.235 . S
C39 O66 1.289 . S
O40 C39 1.235 . S
C41 C43 1.400 . S
C41 N44 1.351 . S
C41 C46 1.501 . S
C42 C43 1.387 . S
C42 N45 1.341 . S
C43 C41 1.400 . S
C43 C42 1.387 . S
N44 Co35 2.022 . S
N44 C41 1.351 . S
N44 N45 1.365 . S
N45 C42 1.341 . S
N45 N44 1.365 . S
N45 H65 0.862 . S
C46 C41 1.501 . S
C46 H47 0.961 . S
C46 H48 0.961 . S
C46 H49 0.960 . S
H47 C46 0.961 . S
H48 C46 0.961 . S
H49 C46 0.960 . S
C50 N51 1.342 . S
C50 C54 1.401 . S
C50 C55 1.499 . S
N51 Co34 1.989 . S
N51 C50 1.342 . S
N51 N52 1.388 . S
N52 Co35 1.993 . S
N52 N51 1.388 . S
N52 C53 1.346 . S
C53 N52 1.346 . S
C53 C54 1.396 . S
C53 C63 1.510 . S
C54 C50 1.401 . S
C54 C53 1.396 . S
C55 C50 1.499 . S
C55 H56 0.959 . S
C55 H57 0.960 . S
C55 H58 0.961 . S
H56 C55 0.959 . S
H57 C55 0.960 . S
H58 C55 0.961 . S
O59 Co34 1.967 . S
O59 C67 1.258 . S
O60 Co35 1.941 . S
O60 C67 1.266 . S
H61 C63 0.959 . S
H62 C63 0.961 . S
C63 C53 1.510 . S
C63 H61 0.959 . S
C63 H62 0.961 . S
C63 H64 0.960 . S
H64 C63 0.960 . S
H65 N45 0.862 . S
O66 Co34 1.920 . S
O66 C39 1.289 . S
C67 O59 1.258 . S
C67 O60 1.266 . S
Co68 O71 1.970 . S
Co68 N85 1.989 . S
Co68 O93 1.967 . S
Co68 O100 1.920 . S
Co69 O72 1.966 . S
Co69 N78 2.022 . S
Co69 N86 1.993 . S
Co69 O94 1.941 . S
C70 O71 1.258 . S
C70 O72 1.263 . S
O71 Co68 1.970 . S
O71 C70 1.258 . S
O72 Co69 1.966 . S
O72 C70 1.263 . S
C73 O74 1.235 . S
C73 O100 1.289 . S
O74 C73 1.235 . S
C75 C77 1.400 . S
C75 N78 1.351 . S
C75 C80 1.501 . S
C76 C77 1.387 . S
C76 N79 1.341 . S
C77 C75 1.400 . S
C77 C76 1.387 . S
N78 Co69 2.022 . S
N78 C75 1.351 . S
N78 N79 1.365 . S
N79 C76 1.341 . S
N79 N78 1.365 . S
N79 H99 0.862 . S
C80 C75 1.501 . S
C80 H81 0.961 . S
C80 H82 0.961 . S
C80 H83 0.960 . S
H81 C80 0.961 . S
H82 C80 0.961 . S
H83 C80 0.960 . S
C84 N85 1.342 . S
C84 C88 1.401 . S
C84 C89 1.499 . S
N85 Co68 1.989 . S
N85 C84 1.342 . S
N85 N86 1.388 . S
N86 Co69 1.993 . S
N86 N85 1.388 . S
N86 C87 1.346 . S
C87 N86 1.346 . S
C87 C88 1.396 . S
C87 C97 1.510 . S
C88 C84 1.401 . S
C88 C87 1.396 . S
C89 C84 1.499 . S
C89 H90 0.959 . S
C89 H91 0.960 . S
C89 H92 0.961 . S
H90 C89 0.959 . S
H91 C89 0.960 . S
H92 C89 0.961 . S
O93 Co68 1.967 . S
O93 C101 1.258 . S
O94 Co69 1.941 . S
O94 C101 1.266 . S
H95 C97 0.959 . S
H96 C97 0.961 . S
C97 C87 1.510 . S
C97 H95 0.959 . S
C97 H96 0.961 . S
C97 H98 0.960 . S
H98 C97 0.960 . S
H99 N79 0.862 . S
O100 Co68 1.920 . S
O100 C73 1.289 . S
C101 O93 1.258 . S
C101 O94 1.266 . S
Co102 O105 1.970 . S
Co102 N119 1.989 . S
Co102 O127 1.967 . S
Co102 O134 1.920 . S
Co103 O106 1.966 . S
Co103 N112 2.022 . S
Co103 N120 1.993 . S
Co103 O128 1.941 . S
C104 O105 1.258 . S
C104 O106 1.263 . S
O105 Co102 1.970 . S
O105 C104 1.258 . S
O106 Co103 1.966 . S
O106 C104 1.263 . S
C107 O108 1.235 . S
C107 O134 1.289 . S
O108 C107 1.235 . S
C109 C111 1.400 . S
C109 N112 1.351 . S
C109 C114 1.501 . S
C110 C111 1.387 . S
C110 N113 1.341 . S
C111 C109 1.400 . S
C111 C110 1.387 . S
N112 Co103 2.022 . S
N112 C109 1.351 . S
N112 N113 1.365 . S
N113 C110 1.341 . S
N113 N112 1.365 . S
N113 H133 0.862 . S
C114 C109 1.501 . S
C114 H115 0.961 . S
C114 H116 0.961 . S
C114 H117 0.960 . S
H115 C114 0.961 . S
H116 C114 0.961 . S
H117 C114 0.960 . S
C118 N119 1.342 . S
C118 C122 1.401 . S
C118 C123 1.499 . S
N119 Co102 1.989 . S
N119 C118 1.342 . S
N119 N120 1.388 . S
N120 Co103 1.993 . S
N120 N119 1.388 . S
N120 C121 1.346 . S
C121 N120 1.346 . S
C121 C122 1.396 . S
C121 C131 1.510 . S
C122 C118 1.401 . S
C122 C121 1.396 . S
C123 C118 1.499 . S
C123 H124 0.959 . S
C123 H125 0.960 . S
C123 H126 0.961 . S
H124 C123 0.959 . S
H125 C123 0.960 . S
H126 C123 0.961 . S
O127 Co102 1.967 . S
O127 C135 1.258 . S
O128 Co103 1.941 . S
O128 C135 1.266 . S
H129 C131 0.959 . S
H130 C131 0.961 . S
C131 C121 1.510 . S
C131 H129 0.959 . S
C131 H130 0.961 . S
C131 H132 0.960 . S
H132 C131 0.960 . S
H133 N113 0.862 . S
O134 Co102 1.920 . S
O134 C107 1.289 . S
C135 O127 1.258 . S
C135 O128 1.266 . S
Co136 O139 1.970 . S
Co136 N153 1.989 . S
Co136 O161 1.967 . S
Co136 O168 1.920 . S
Co137 O140 1.966 . S
Co137 N146 2.022 . S
Co137 N154 1.993 . S
Co137 O162 1.941 . S
C138 O139 1.258 . S
C138 O140 1.263 . S
O139 Co136 1.970 . S
O139 C138 1.258 . S
O140 Co137 1.966 . S
O140 C138 1.263 . S
C141 O142 1.235 . S
C141 O168 1.289 . S
O142 C141 1.235 . S
C143 C145 1.400 . S
C143 N146 1.351 . S
C143 C148 1.501 . S
C144 C145 1.387 . S
C144 N147 1.341 . S
C145 C143 1.400 . S
C145 C144 1.387 . S
N146 Co137 2.022 . S
N146 C143 1.351 . S
N146 N147 1.365 . S
N147 C144 1.341 . S
N147 N146 1.365 . S
N147 H167 0.862 . S
C148 C143 1.501 . S
C148 H149 0.961 . S
C148 H150 0.961 . S
C148 H151 0.960 . S
H149 C148 0.961 . S
H150 C148 0.961 . S
H151 C148 0.960 . S
C152 N153 1.342 . S
C152 C156 1.401 . S
C152 C157 1.499 . S
N153 Co136 1.989 . S
N153 C152 1.342 . S
N153 N154 1.388 . S
N154 Co137 1.993 . S
N154 N153 1.388 . S
N154 C155 1.346 . S
C155 N154 1.346 . S
C155 C156 1.396 . S
C155 C165 1.510 . S
C156 C152 1.401 . S
C156 C155 1.396 . S
C157 C152 1.499 . S
C157 H158 0.959 . S
C157 H159 0.960 . S
C157 H160 0.961 . S
H158 C157 0.959 . S
H159 C157 0.960 . S
H160 C157 0.961 . S
O161 Co136 1.967 . S
O161 C169 1.258 . S
O162 Co137 1.941 . S
O162 C169 1.266 . S
H163 C165 0.959 . S
H164 C165 0.961 . S
C165 C155 1.510 . S
C165 H163 0.959 . S
C165 H164 0.961 . S
C165 H166 0.960 . S
H166 C165 0.960 . S
H167 N147 0.862 . S
O168 Co136 1.920 . S
O168 C141 1.289 . S
C169 O161 1.258 . S
C169 O162 1.266 . S
Co170 O173 1.970 . S
Co170 N187 1.989 . S
Co170 O195 1.967 . S
Co170 O202 1.920 . S
Co171 O174 1.966 . S
Co171 N180 2.022 . S
Co171 N188 1.993 . S
Co171 O196 1.941 . S
C172 O173 1.258 . S
C172 O174 1.263 . S
O173 Co170 1.970 . S
O173 C172 1.258 . S
O174 Co171 1.966 . S
O174 C172 1.263 . S
C175 O176 1.235 . S
C175 O202 1.289 . S
O176 C175 1.235 . S
C177 C179 1.400 . S
C177 N180 1.351 . S
C177 C182 1.501 . S
C178 C179 1.387 . S
C178 N181 1.341 . S
C179 C177 1.400 . S
C179 C178 1.387 . S
N180 Co171 2.022 . S
N180 C177 1.351 . S
N180 N181 1.365 . S
N181 C178 1.341 . S
N181 N180 1.365 . S
N181 H201 0.862 . S
C182 C177 1.501 . S
C182 H183 0.961 . S
C182 H184 0.961 . S
C182 H185 0.960 . S
H183 C182 0.961 . S
H184 C182 0.961 . S
H185 C182 0.960 . S
C186 N187 1.342 . S
C186 C190 1.401 . S
C186 C191 1.499 . S
N187 Co170 1.989 . S
N187 C186 1.342 . S
N187 N188 1.388 . S
N188 Co171 1.993 . S
N188 N187 1.388 . S
N188 C189 1.346 . S
C189 N188 1.346 . S
C189 C190 1.396 . S
C189 C199 1.510 . S
C190 C186 1.401 . S
C190 C189 1.396 . S
C191 C186 1.499 . S
C191 H192 0.959 . S
C191 H193 0.960 . S
C191 H194 0.961 . S
H192 C191 0.959 . S
H193 C191 0.960 . S
H194 C191 0.961 . S
O195 Co170 1.967 . S
O195 C203 1.258 . S
O196 Co171 1.941 . S
O196 C203 1.266 . S
H197 C199 0.959 . S
H198 C199 0.961 . S
C199 C189 1.510 . S
C199 H197 0.959 . S
C199 H198 0.961 . S
C199 H200 0.960 . S
H200 C199 0.960 . S
H201 N181 0.862 . S
O202 Co170 1.920 . S
O202 C175 1.289 . S
C203 O195 1.258 . S
C203 O196 1.266 . S
Co204 O207 1.970 . S
Co204 N221 1.989 . S
Co204 O229 1.967 . S
Co204 O236 1.920 . S
Co205 O208 1.966 . S
Co205 N214 2.022 . S
Co205 N222 1.993 . S
Co205 O230 1.941 . S
C206 O207 1.258 . S
C206 O208 1.263 . S
O207 Co204 1.970 . S
O207 C206 1.258 . S
O208 Co205 1.966 . S
O208 C206 1.263 . S
C209 O210 1.235 . S
C209 O236 1.289 . S
O210 C209 1.235 . S
C211 C213 1.400 . S
C211 N214 1.351 . S
C211 C216 1.501 . S
C212 C213 1.387 . S
C212 N215 1.341 . S
C213 C211 1.400 . S
C213 C212 1.387 . S
N214 Co205 2.022 . S
N214 C211 1.351 . S
N214 N215 1.365 . S
N215 C212 1.341 . S
N215 N214 1.365 . S
N215 H235 0.862 . S
C216 C211 1.501 . S
C216 H217 0.961 . S
C216 H218 0.961 . S
C216 H219 0.960 . S
H217 C216 0.961 . S
H218 C216 0.961 . S
H219 C216 0.960 . S
C220 N221 1.342 . S
C220 C224 1.401 . S
C220 C225 1.499 . S
N221 Co204 1.989 . S
N221 C220 1.342 . S
N221 N222 1.388 . S
N222 Co205 1.993 . S
N222 N221 1.388 . S
N222 C223 1.346 . S
C223 N222 1.346 . S
C223 C224 1.396 . S
C223 C233 1.510 . S
C224 C220 1.401 . S
C224 C223 1.396 . S
C225 C220 1.499 . S
C225 H226 0.959 . S
C225 H227 0.960 . S
C225 H228 0.961 . S
H226 C225 0.959 . S
H227 C225 0.960 . S
H228 C225 0.961 . S
O229 Co204 1.967 . S
O229 C237 1.258 . S
O230 Co205 1.941 . S
O230 C237 1.266 . S
H231 C233 0.959 . S
H232 C233 0.961 . S
C233 C223 1.510 . S
C233 H231 0.959 . S
C233 H232 0.961 . S
C233 H234 0.960 . S
H234 C233 0.960 . S
H235 N215 0.862 . S
O236 Co204 1.920 . S
O236 C209 1.289 . S
C237 O229 1.258 . S
C237 O230 1.266 . S
Co238 O241 1.970 . S
Co238 N255 1.989 . S
Co238 O263 1.967 . S
Co238 O270 1.920 . S
Co239 O242 1.966 . S
Co239 N248 2.022 . S
Co239 N256 1.993 . S
Co239 O264 1.941 . S
C240 O241 1.258 . S
C240 O242 1.263 . S
O241 Co238 1.970 . S
O241 C240 1.258 . S
O242 Co239 1.966 . S
O242 C240 1.263 . S
C243 O244 1.235 . S
C243 O270 1.289 . S
O244 C243 1.235 . S
C245 C247 1.400 . S
C245 N248 1.351 . S
C245 C250 1.501 . S
C246 C247 1.387 . S
C246 N249 1.341 . S
C247 C245 1.400 . S
C247 C246 1.387 . S
N248 Co239 2.022 . S
N248 C245 1.351 . S
N248 N249 1.365 . S
N249 C246 1.341 . S
N249 N248 1.365 . S
N249 H269 0.862 . S
C250 C245 1.501 . S
C250 H251 0.961 . S
C250 H252 0.961 . S
C250 H253 0.960 . S
H251 C250 0.961 . S
H252 C250 0.961 . S
H253 C250 0.960 . S
C254 N255 1.342 . S
C254 C258 1.401 . S
C254 C259 1.499 . S
N255 Co238 1.989 . S
N255 C254 1.342 . S
N255 N256 1.388 . S
N256 Co239 1.993 . S
N256 N255 1.388 . S
N256 C257 1.346 . S
C257 N256 1.346 . S
C257 C258 1.396 . S
C257 C267 1.510 . S
C258 C254 1.401 . S
C258 C257 1.396 . S
C259 C254 1.499 . S
C259 H260 0.959 . S
C259 H261 0.960 . S
C259 H262 0.961 . S
H260 C259 0.959 . S
H261 C259 0.960 . S
H262 C259 0.961 . S
O263 Co238 1.967 . S
O263 C271 1.258 . S
O264 Co239 1.941 . S
O264 C271 1.266 . S
H265 C267 0.959 . S
H266 C267 0.961 . S
C267 C257 1.510 . S
C267 H265 0.959 . S
C267 H266 0.961 . S
C267 H268 0.960 . S
H268 C267 0.960 . S
H269 N249 0.862 . S
O270 Co238 1.920 . S
O270 C243 1.289 . S
C271 O263 1.258 . S
C271 O264 1.266 . S
Co272 O275 1.970 . S
Co272 N289 1.989 . S
Co272 O297 1.967 . S
Co272 O304 1.920 . S
Co273 O276 1.966 . S
Co273 N282 2.022 . S
Co273 N290 1.993 . S
Co273 O298 1.941 . S
C274 O275 1.258 . S
C274 O276 1.263 . S
O275 Co272 1.970 . S
O275 C274 1.258 . S
O276 Co273 1.966 . S
O276 C274 1.263 . S
C277 O278 1.235 . S
C277 O304 1.289 . S
O278 C277 1.235 . S
C279 C281 1.400 . S
C279 N282 1.351 . S
C279 C284 1.501 . S
C280 C281 1.387 . S
C280 N283 1.341 . S
C281 C279 1.400 . S
C281 C280 1.387 . S
N282 Co273 2.022 . S
N282 C279 1.351 . S
N282 N283 1.365 . S
N283 C280 1.341 . S
N283 N282 1.365 . S
N283 H303 0.862 . S
C284 C279 1.501 . S
C284 H285 0.961 . S
C284 H286 0.961 . S
C284 H287 0.960 . S
H285 C284 0.961 . S
H286 C284 0.961 . S
H287 C284 0.960 . S
C288 N289 1.342 . S
C288 C292 1.401 . S
C288 C293 1.499 . S
N289 Co272 1.989 . S
N289 C288 1.342 . S
N289 N290 1.388 . S
N290 Co273 1.993 . S
N290 N289 1.388 . S
N290 C291 1.346 . S
C291 N290 1.346 . S
C291 C292 1.396 . S
C291 C301 1.510 . S
C292 C288 1.401 . S
C292 C291 1.396 . S
C293 C288 1.499 . S
C293 H294 0.959 . S
C293 H295 0.960 . S
C293 H296 0.961 . S
H294 C293 0.959 . S
H295 C293 0.960 . S
H296 C293 0.961 . S
O297 Co272 1.967 . S
O297 C305 1.258 . S
O298 Co273 1.941 . S
O298 C305 1.266 . S
H299 C301 0.959 . S
H300 C301 0.961 . S
C301 C291 1.510 . S
C301 H299 0.959 . S
C301 H300 0.961 . S
C301 H302 0.960 . S
H302 C301 0.960 . S
H303 N283 0.862 . S
O304 Co272 1.920 . S
O304 C277 1.289 . S
C305 O297 1.258 . S
C305 O298 1.266 . S
Co306 O309 1.970 . S
Co306 N323 1.989 . S
Co306 O331 1.967 . S
Co306 O338 1.920 . S
Co307 O310 1.966 . S
Co307 N316 2.022 . S
Co307 N324 1.993 . S
Co307 O332 1.941 . S
C308 O309 1.258 . S
C308 O310 1.263 . S
O309 Co306 1.970 . S
O309 C308 1.258 . S
O310 Co307 1.966 . S
O310 C308 1.263 . S
C311 O312 1.235 . S
C311 O338 1.289 . S
O312 C311 1.235 . S
C313 C315 1.400 . S
C313 N316 1.351 . S
C313 C318 1.501 . S
C314 C315 1.387 . S
C314 N317 1.341 . S
C315 C313 1.400 . S
C315 C314 1.387 . S
N316 Co307 2.022 . S
N316 C313 1.351 . S
N316 N317 1.365 . S
N317 C314 1.341 . S
N317 N316 1.365 . S
N317 H337 0.862 . S
C318 C313 1.501 . S
C318 H319 0.961 . S
C318 H320 0.961 . S
C318 H321 0.960 . S
H319 C318 0.961 . S
H320 C318 0.961 . S
H321 C318 0.960 . S
C322 N323 1.342 . S
C322 C326 1.401 . S
C322 C327 1.499 . S
N323 Co306 1.989 . S
N323 C322 1.342 . S
N323 N324 1.388 . S
N324 Co307 1.993 . S
N324 N323 1.388 . S
N324 C325 1.346 . S
C325 N324 1.346 . S
C325 C326 1.396 . S
C325 C335 1.510 . S
C326 C322 1.401 . S
C326 C325 1.396 . S
C327 C322 1.499 . S
C327 H328 0.959 . S
C327 H329 0.960 . S
C327 H330 0.961 . S
H328 C327 0.959 . S
H329 C327 0.960 . S
H330 C327 0.961 . S
O331 Co306 1.967 . S
O331 C339 1.258 . S
O332 Co307 1.941 . S
O332 C339 1.266 . S
H333 C335 0.959 . S
H334 C335 0.961 . S
C335 C325 1.510 . S
C335 H333 0.959 . S
C335 H334 0.961 . S
C335 H336 0.960 . S
H336 C335 0.960 . S
H337 N317 0.862 . S
O338 Co306 1.920 . S
O338 C311 1.289 . S
C339 O331 1.258 . S
C339 O332 1.266 . S
Co340 O343 1.970 . S
Co340 N357 1.989 . S
Co340 O365 1.967 . S
Co340 O372 1.920 . S
Co341 O344 1.966 . S
Co341 N350 2.022 . S
Co341 N358 1.993 . S
Co341 O366 1.941 . S
C342 O343 1.258 . S
C342 O344 1.263 . S
O343 Co340 1.970 . S
O343 C342 1.258 . S
O344 Co341 1.966 . S
O344 C342 1.263 . S
C345 O346 1.235 . S
C345 O372 1.289 . S
O346 C345 1.235 . S
C347 C349 1.400 . S
C347 N350 1.351 . S
C347 C352 1.501 . S
C348 C349 1.387 . S
C348 N351 1.341 . S
C349 C347 1.400 . S
C349 C348 1.387 . S
N350 Co341 2.022 . S
N350 C347 1.351 . S
N350 N351 1.365 . S
N351 C348 1.341 . S
N351 N350 1.365 . S
N351 H371 0.862 . S
C352 C347 1.501 . S
C352 H353 0.961 . S
C352 H354 0.961 . S
C352 H355 0.960 . S
H353 C352 0.961 . S
H354 C352 0.961 . S
H355 C352 0.960 . S
C356 N357 1.342 . S
C356 C360 1.401 . S
C356 C361 1.499 . S
N357 Co340 1.989 . S
N357 C356 1.342 . S
N357 N358 1.388 . S
N358 Co341 1.993 . S
N358 N357 1.388 . S
N358 C359 1.346 . S
C359 N358 1.346 . S
C359 C360 1.396 . S
C359 C369 1.510 . S
C360 C356 1.401 . S
C360 C359 1.396 . S
C361 C356 1.499 . S
C361 H362 0.959 . S
C361 H363 0.960 . S
C361 H364 0.961 . S
H362 C361 0.959 . S
H363 C361 0.960 . S
H364 C361 0.961 . S
O365 Co340 1.967 . S
O365 C373 1.258 . S
O366 Co341 1.941 . S
O366 C373 1.266 . S
H367 C369 0.959 . S
H368 C369 0.961 . S
C369 C359 1.510 . S
C369 H367 0.959 . S
C369 H368 0.961 . S
C369 H370 0.960 . S
H370 C369 0.960 . S
H371 N351 0.862 . S
O372 Co340 1.920 . S
O372 C345 1.289 . S
C373 O365 1.258 . S
C373 O366 1.266 . S
Co374 O377 1.970 . S
Co374 N391 1.989 . S
Co374 O399 1.967 . S
Co374 O406 1.920 . S
Co375 O378 1.966 . S
Co375 N384 2.022 . S
Co375 N392 1.993 . S
Co375 O400 1.941 . S
C376 O377 1.258 . S
C376 O378 1.263 . S
O377 Co374 1.970 . S
O377 C376 1.258 . S
O378 Co375 1.966 . S
O378 C376 1.263 . S
C379 O380 1.235 . S
C379 O406 1.289 . S
O380 C379 1.235 . S
C381 C383 1.400 . S
C381 N384 1.351 . S
C381 C386 1.501 . S
C382 C383 1.387 . S
C382 N385 1.341 . S
C383 C381 1.400 . S
C383 C382 1.387 . S
N384 Co375 2.022 . S
N384 C381 1.351 . S
N384 N385 1.365 . S
N385 C382 1.341 . S
N385 N384 1.365 . S
N385 H405 0.862 . S
C386 C381 1.501 . S
C386 H387 0.961 . S
C386 H388 0.961 . S
C386 H389 0.960 . S
H387 C386 0.961 . S
H388 C386 0.961 . S
H389 C386 0.960 . S
C390 N391 1.342 . S
C390 C394 1.401 . S
C390 C395 1.499 . S
N391 Co374 1.989 . S
N391 C390 1.342 . S
N391 N392 1.388 . S
N392 Co375 1.993 . S
N392 N391 1.388 . S
N392 C393 1.346 . S
C393 N392 1.346 . S
C393 C394 1.396 . S
C393 C403 1.510 . S
C394 C390 1.401 . S
C394 C393 1.396 . S
C395 C390 1.499 . S
C395 H396 0.959 . S
C395 H397 0.960 . S
C395 H398 0.961 . S
H396 C395 0.959 . S
H397 C395 0.960 . S
H398 C395 0.961 . S
O399 Co374 1.967 . S
O399 C407 1.258 . S
O400 Co375 1.941 . S
O400 C407 1.266 . S
H401 C403 0.959 . S
H402 C403 0.961 . S
C403 C393 1.510 . S
C403 H401 0.959 . S
C403 H402 0.961 . S
C403 H404 0.960 . S
H404 C403 0.960 . S
H405 N385 0.862 . S
O406 Co374 1.920 . S
O406 C379 1.289 . S
C407 O399 1.258 . S
C407 O400 1.266 . S
Co408 O411 1.970 . S
Co408 N425 1.989 . S
Co408 O433 1.967 . S
Co408 O440 1.920 . S
Co409 O412 1.966 . S
Co409 N418 2.022 . S
Co409 N426 1.993 . S
Co409 O434 1.941 . S
C410 O411 1.258 . S
C410 O412 1.263 . S
O411 Co408 1.970 . S
O411 C410 1.258 . S
O412 Co409 1.966 . S
O412 C410 1.263 . S
C413 O414 1.235 . S
C413 O440 1.289 . S
O414 C413 1.235 . S
C415 C417 1.400 . S
C415 N418 1.351 . S
C415 C420 1.501 . S
C416 C417 1.387 . S
C416 N419 1.341 . S
C417 C415 1.400 . S
C417 C416 1.387 . S
N418 Co409 2.022 . S
N418 C415 1.351 . S
N418 N419 1.365 . S
N419 C416 1.341 . S
N419 N418 1.365 . S
N419 H439 0.862 . S
C420 C415 1.501 . S
C420 H421 0.961 . S
C420 H422 0.961 . S
C420 H423 0.960 . S
H421 C420 0.961 . S
H422 C420 0.961 . S
H423 C420 0.960 . S
C424 N425 1.342 . S
C424 C428 1.401 . S
C424 C429 1.499 . S
N425 Co408 1.989 . S
N425 C424 1.342 . S
N425 N426 1.388 . S
N426 Co409 1.993 . S
N426 N425 1.388 . S
N426 C427 1.346 . S
C427 N426 1.346 . S
C427 C428 1.396 . S
C427 C437 1.510 . S
C428 C424 1.401 . S
C428 C427 1.396 . S
C429 C424 1.499 . S
C429 H430 0.959 . S
C429 H431 0.960 . S
C429 H432 0.961 . S
H430 C429 0.959 . S
H431 C429 0.960 . S
H432 C429 0.961 . S
O433 Co408 1.967 . S
O433 C441 1.258 . S
O434 Co409 1.941 . S
O434 C441 1.266 . S
H435 C437 0.959 . S
H436 C437 0.961 . S
C437 C427 1.510 . S
C437 H435 0.959 . S
C437 H436 0.961 . S
C437 H438 0.960 . S
H438 C437 0.960 . S
H439 N419 0.862 . S
O440 Co408 1.920 . S
O440 C413 1.289 . S
C441 O433 1.258 . S
C441 O434 1.266 . S
Co442 O445 1.970 . S
Co442 N459 1.989 . S
Co442 O467 1.967 . S
Co442 O474 1.920 . S
Co443 O446 1.966 . S
Co443 N452 2.022 . S
Co443 N460 1.993 . S
Co443 O468 1.941 . S
C444 O445 1.258 . S
C444 O446 1.263 . S
O445 Co442 1.970 . S
O445 C444 1.258 . S
O446 Co443 1.966 . S
O446 C444 1.263 . S
C447 O448 1.235 . S
C447 O474 1.289 . S
O448 C447 1.235 . S
C449 C451 1.400 . S
C449 N452 1.351 . S
C449 C454 1.501 . S
C450 C451 1.387 . S
C450 N453 1.341 . S
C451 C449 1.400 . S
C451 C450 1.387 . S
N452 Co443 2.022 . S
N452 C449 1.351 . S
N452 N453 1.365 . S
N453 C450 1.341 . S
N453 N452 1.365 . S
N453 H473 0.862 . S
C454 C449 1.501 . S
C454 H455 0.961 . S
C454 H456 0.961 . S
C454 H457 0.960 . S
H455 C454 0.961 . S
H456 C454 0.961 . S
H457 C454 0.960 . S
C458 N459 1.342 . S
C458 C462 1.401 . S
C458 C463 1.499 . S
N459 Co442 1.989 . S
N459 C458 1.342 . S
N459 N460 1.388 . S
N460 Co443 1.993 . S
N460 N459 1.388 . S
N460 C461 1.346 . S
C461 N460 1.346 . S
C461 C462 1.396 . S
C461 C471 1.510 . S
C462 C458 1.401 . S
C462 C461 1.396 . S
C463 C458 1.499 . S
C463 H464 0.959 . S
C463 H465 0.960 . S
C463 H466 0.961 . S
H464 C463 0.959 . S
H465 C463 0.960 . S
H466 C463 0.961 . S
O467 Co442 1.967 . S
O467 C475 1.258 . S
O468 Co443 1.941 . S
O468 C475 1.266 . S
H469 C471 0.959 . S
H470 C471 0.961 . S
C471 C461 1.510 . S
C471 H469 0.959 . S
C471 H470 0.961 . S
C471 H472 0.960 . S
H472 C471 0.960 . S
H473 N453 0.862 . S
O474 Co442 1.920 . S
O474 C447 1.289 . S
C475 O467 1.258 . S
C475 O468 1.266 . S
Co476 O479 1.970 . S
Co476 N493 1.989 . S
Co476 O501 1.967 . S
Co476 O508 1.920 . S
Co477 O480 1.966 . S
Co477 N486 2.022 . S
Co477 N494 1.993 . S
Co477 O502 1.941 . S
C478 O479 1.258 . S
C478 O480 1.263 . S
O479 Co476 1.970 . S
O479 C478 1.258 . S
O480 Co477 1.966 . S
O480 C478 1.263 . S
C481 O482 1.235 . S
C481 O508 1.289 . S
O482 C481 1.235 . S
C483 C485 1.400 . S
C483 N486 1.351 . S
C483 C488 1.501 . S
C484 C485 1.387 . S
C484 N487 1.341 . S
C485 C483 1.400 . S
C485 C484 1.387 . S
N486 Co477 2.022 . S
N486 C483 1.351 . S
N486 N487 1.365 . S
N487 C484 1.341 . S
N487 N486 1.365 . S
N487 H507 0.862 . S
C488 C483 1.501 . S
C488 H489 0.961 . S
C488 H490 0.961 . S
C488 H491 0.960 . S
H489 C488 0.961 . S
H490 C488 0.961 . S
H491 C488 0.960 . S
C492 N493 1.342 . S
C492 C496 1.401 . S
C492 C497 1.499 . S
N493 Co476 1.989 . S
N493 C492 1.342 . S
N493 N494 1.388 . S
N494 Co477 1.993 . S
N494 N493 1.388 . S
N494 C495 1.346 . S
C495 N494 1.346 . S
C495 C496 1.396 . S
C495 C505 1.510 . S
C496 C492 1.401 . S
C496 C495 1.396 . S
C497 C492 1.499 . S
C497 H498 0.959 . S
C497 H499 0.960 . S
C497 H500 0.961 . S
H498 C497 0.959 . S
H499 C497 0.960 . S
H500 C497 0.961 . S
O501 Co476 1.967 . S
O501 C509 1.258 . S
O502 Co477 1.941 . S
O502 C509 1.266 . S
H503 C505 0.959 . S
H504 C505 0.961 . S
C505 C495 1.510 . S
C505 H503 0.959 . S
C505 H504 0.961 . S
C505 H506 0.960 . S
H506 C505 0.960 . S
H507 N487 0.862 . S
O508 Co476 1.920 . S
O508 C481 1.289 . S
C509 O501 1.258 . S
C509 O502 1.266 . S
Co510 O513 1.970 . S
Co510 N527 1.989 . S
Co510 O535 1.967 . S
Co510 O542 1.920 . S
Co511 O514 1.966 . S
Co511 N520 2.022 . S
Co511 N528 1.993 . S
Co511 O536 1.941 . S
C512 O513 1.258 . S
C512 O514 1.263 . S
O513 Co510 1.970 . S
O513 C512 1.258 . S
O514 Co511 1.966 . S
O514 C512 1.263 . S
C515 O516 1.235 . S
C515 O542 1.289 . S
O516 C515 1.235 . S
C517 C519 1.400 . S
C517 N520 1.351 . S
C517 C522 1.501 . S
C518 C519 1.387 . S
C518 N521 1.341 . S
C519 C517 1.400 . S
C519 C518 1.387 . S
N520 Co511 2.022 . S
N520 C517 1.351 . S
N520 N521 1.365 . S
N521 C518 1.341 . S
N521 N520 1.365 . S
N521 H541 0.862 . S
C522 C517 1.501 . S
C522 H523 0.961 . S
C522 H524 0.961 . S
C522 H525 0.960 . S
H523 C522 0.961 . S
H524 C522 0.961 . S
H525 C522 0.960 . S
C526 N527 1.342 . S
C526 C530 1.401 . S
C526 C531 1.499 . S
N527 Co510 1.989 . S
N527 C526 1.342 . S
N527 N528 1.388 . S
N528 Co511 1.993 . S
N528 N527 1.388 . S
N528 C529 1.346 . S
C529 N528 1.346 . S
C529 C530 1.396 . S
C529 C539 1.510 . S
C530 C526 1.401 . S
C530 C529 1.396 . S
C531 C526 1.499 . S
C531 H532 0.959 . S
C531 H533 0.960 . S
C531 H534 0.961 . S
H532 C531 0.959 . S
H533 C531 0.960 . S
H534 C531 0.961 . S
O535 Co510 1.967 . S
O535 C543 1.258 . S
O536 Co511 1.941 . S
O536 C543 1.266 . S
H537 C539 0.959 . S
H538 C539 0.961 . S
C539 C529 1.510 . S
C539 H537 0.959 . S
C539 H538 0.961 . S
C539 H540 0.960 . S
H540 C539 0.960 . S
H541 N521 0.862 . S
O542 Co510 1.920 . S
O542 C515 1.289 . S
C543 O535 1.258 . S
C543 O536 1.266 . S
H544 C550 0.930 . S
H545 C554 0.930 . S
H546 C559 0.929 . S
H547 C557 0.929 . S
H548 C552 0.929 . S
H549 C558 0.929 . S
C550 H544 0.930 . S
C550 C551 1.367 . S
C550 C558 1.378 . S
C551 C550 1.367 . S
C551 C559 1.433 . S
C552 H548 0.929 . S
C552 C554 1.378 . S
C552 C556 1.350 . S
C553 C556 1.463 . S
C553 C558 1.350 . S
C553 N561 1.427 . S
C554 H545 0.930 . S
C554 C552 1.378 . S
C554 C555 1.367 . S
C555 C554 1.367 . S
C555 C557 1.433 . S
C556 C552 1.350 . S
C556 C553 1.463 . S
C556 N560 1.427 . S
C557 H547 0.929 . S
C557 C555 1.433 . S
C557 N560 1.384 . S
C558 H549 0.929 . S
C558 C550 1.378 . S
C558 C553 1.350 . S
C559 H546 0.929 . S
C559 C551 1.433 . S
C559 N561 1.384 . S
N560 C556 1.427 . S
N560 C557 1.384 . S
N561 C553 1.427 . S
N561 C559 1.384 . S
H562 C568 0.930 . S
H563 C572 0.930 . S
H564 C577 0.929 . S
H565 C575 0.929 . S
H566 C570 0.929 . S
H567 C576 0.929 . S
C568 H562 0.930 . S
C568 C569 1.367 . S
C568 C576 1.378 . S
C569 C568 1.367 . S
C569 C577 1.433 . S
C570 H566 0.929 . S
C570 C572 1.378 . S
C570 C574 1.350 . S
C571 C574 1.463 . S
C571 C576 1.350 . S
C571 N579 1.427 . S
C572 H563 0.930 . S
C572 C570 1.378 . S
C572 C573 1.367 . S
C573 C572 1.367 . S
C573 C575 1.433 . S
C574 C570 1.350 . S
C574 C571 1.463 . S
C574 N578 1.427 . S
C575 H565 0.929 . S
C575 C573 1.433 . S
C575 N578 1.384 . S
C576 H567 0.929 . S
C576 C568 1.378 . S
C576 C571 1.350 . S
C577 H564 0.929 . S
C577 C569 1.433 . S
C577 N579 1.384 . S
N578 C574 1.427 . S
N578 C575 1.384 . S
N579 C571 1.427 . S
N579 C577 1.384 . S
H580 C586 0.930 . S
H581 C590 0.930 . S
H582 C595 0.929 . S
H583 C593 0.929 . S
H584 C588 0.929 . S
H585 C594 0.929 . S
C586 H580 0.930 . S
C586 C587 1.367 . S
C586 C594 1.378 . S
C587 C586 1.367 . S
C587 C595 1.433 . S
C588 H584 0.929 . S
C588 C590 1.378 . S
C588 C592 1.350 . S
C589 C592 1.463 . S
C589 C594 1.350 . S
C589 N597 1.427 . S
C590 H581 0.930 . S
C590 C588 1.378 . S
C590 C591 1.367 . S
C591 C590 1.367 . S
C591 C593 1.433 . S
C592 C588 1.350 . S
C592 C589 1.463 . S
C592 N596 1.427 . S
C593 H583 0.929 . S
C593 C591 1.433 . S
C593 N596 1.384 . S
C594 H585 0.929 . S
C594 C586 1.378 . S
C594 C589 1.350 . S
C595 H582 0.929 . S
C595 C587 1.433 . S
C595 N597 1.384 . S
N596 C592 1.427 . S
N596 C593 1.384 . S
N597 C589 1.427 . S
N597 C595 1.384 . S
H598 C604 0.930 . S
H599 C608 0.930 . S
H600 C613 0.929 . S
H601 C611 0.929 . S
H602 C606 0.929 . S
H603 C612 0.929 . S
C604 H598 0.930 . S
C604 C605 1.367 . S
C604 C612 1.378 . S
C605 C604 1.367 . S
C605 C613 1.433 . S
C606 H602 0.929 . S
C606 C608 1.378 . S
C606 C610 1.350 . S
C607 C610 1.463 . S
C607 C612 1.350 . S
C607 N615 1.427 . S
C608 H599 0.930 . S
C608 C606 1.378 . S
C608 C609 1.367 . S
C609 C608 1.367 . S
C609 C611 1.433 . S
C610 C606 1.350 . S
C610 C607 1.463 . S
C610 N614 1.427 . S
C611 H601 0.929 . S
C611 C609 1.433 . S
C611 N614 1.384 . S
C612 H603 0.929 . S
C612 C604 1.378 . S
C612 C607 1.350 . S
C613 H600 0.929 . S
C613 C605 1.433 . S
C613 N615 1.384 . S
N614 C610 1.427 . S
N614 C611 1.384 . S
N615 C607 1.427 . S
N615 C613 1.384 . S
H616 C622 0.930 . S
H617 C626 0.930 . S
H618 C631 0.929 . S
H619 C629 0.929 . S
H620 C624 0.929 . S
H621 C630 0.929 . S
C622 H616 0.930 . S
C622 C623 1.367 . S
C622 C630 1.378 . S
C623 C622 1.367 . S
C623 C631 1.433 . S
C624 H620 0.929 . S
C624 C626 1.378 . S
C624 C628 1.350 . S
C625 C628 1.463 . S
C625 C630 1.350 . S
C625 N633 1.427 . S
C626 H617 0.930 . S
C626 C624 1.378 . S
C626 C627 1.367 . S
C627 C626 1.367 . S
C627 C629 1.433 . S
C628 C624 1.350 . S
C628 C625 1.463 . S
C628 N632 1.427 . S
C629 H619 0.929 . S
C629 C627 1.433 . S
C629 N632 1.384 . S
C630 H621 0.929 . S
C630 C622 1.378 . S
C630 C625 1.350 . S
C631 H618 0.929 . S
C631 C623 1.433 . S
C631 N633 1.384 . S
N632 C628 1.427 . S
N632 C629 1.384 . S
N633 C625 1.427 . S
N633 C631 1.384 . S
H634 C640 0.930 . S
H635 C644 0.930 . S
H636 C649 0.929 . S
H637 C647 0.929 . S
H638 C642 0.929 . S
H639 C648 0.929 . S
C640 H634 0.930 . S
C640 C641 1.367 . S
C640 C648 1.378 . S
C641 C640 1.367 . S
C641 C649 1.433 . S
C642 H638 0.929 . S
C642 C644 1.378 . S
C642 C646 1.350 . S
C643 C646 1.463 . S
C643 C648 1.350 . S
C643 N651 1.427 . S
C644 H635 0.930 . S
C644 C642 1.378 . S
C644 C645 1.367 . S
C645 C644 1.367 . S
C645 C647 1.433 . S
C646 C642 1.350 . S
C646 C643 1.463 . S
C646 N650 1.427 . S
C647 H637 0.929 . S
C647 C645 1.433 . S
C647 N650 1.384 . S
C648 H639 0.929 . S
C648 C640 1.378 . S
C648 C643 1.350 . S
C649 H636 0.929 . S
C649 C641 1.433 . S
C649 N651 1.384 . S
N650 C646 1.427 . S
N650 C647 1.384 . S
N651 C643 1.427 . S
N651 C649 1.384 . S
H652 C658 0.930 . S
H653 C662 0.930 . S
H654 C667 0.929 . S
H655 C665 0.929 . S
H656 C660 0.929 . S
H657 C666 0.929 . S
C658 H652 0.930 . S
C658 C659 1.367 . S
C658 C666 1.378 . S
C659 C658 1.367 . S
C659 C667 1.433 . S
C660 H656 0.929 . S
C660 C662 1.378 . S
C660 C664 1.350 . S
C661 C664 1.463 . S
C661 C666 1.350 . S
C661 N669 1.427 . S
C662 H653 0.930 . S
C662 C660 1.378 . S
C662 C663 1.367 . S
C663 C662 1.367 . S
C663 C665 1.433 . S
C664 C660 1.350 . S
C664 C661 1.463 . S
C664 N668 1.427 . S
C665 H655 0.929 . S
C665 C663 1.433 . S
C665 N668 1.384 . S
C666 H657 0.929 . S
C666 C658 1.378 . S
C666 C661 1.350 . S
C667 H654 0.929 . S
C667 C659 1.433 . S
C667 N669 1.384 . S
N668 C664 1.427 . S
N668 C665 1.384 . S
N669 C661 1.427 . S
N669 C667 1.384 . S
H670 C676 0.930 . S
H671 C680 0.930 . S
H672 C685 0.929 . S
H673 C683 0.929 . S
H674 C678 0.929 . S
H675 C684 0.929 . S
C676 H670 0.930 . S
C676 C677 1.367 . S
C676 C684 1.378 . S
C677 C676 1.367 . S
C677 C685 1.433 . S
C678 H674 0.929 . S
C678 C680 1.378 . S
C678 C682 1.350 . S
C679 C682 1.463 . S
C679 C684 1.350 . S
C679 N687 1.427 . S
C680 H671 0.930 . S
C680 C678 1.378 . S
C680 C681 1.367 . S
C681 C680 1.367 . S
C681 C683 1.433 . S
C682 C678 1.350 . S
C682 C679 1.463 . S
C682 N686 1.427 . S
C683 H673 0.929 . S
C683 C681 1.433 . S
C683 N686 1.384 . S
C684 H675 0.929 . S
C684 C676 1.378 . S
C684 C679 1.350 . S
C685 H672 0.929 . S
C685 C677 1.433 . S
C685 N687 1.384 . S
N686 C682 1.427 . S
N686 C683 1.384 . S
N687 C679 1.427 . S
N687 C685 1.384 . S
H688 C694 0.930 . S
H689 C698 0.930 . S
H690 C703 0.929 . S
H691 C701 0.929 . S
H692 C696 0.929 . S
H693 C702 0.929 . S
C694 H688 0.930 . S
C694 C695 1.367 . S
C694 C702 1.378 . S
C695 C694 1.367 . S
C695 C703 1.433 . S
C696 H692 0.929 . S
C696 C698 1.378 . S
C696 C700 1.350 . S
C697 C700 1.463 1_655 S
C697 C702 1.350 . S
C697 N705 1.427 . S
C698 H689 0.930 . S
C698 C696 1.378 . S
C698 C699 1.367 . S
C699 C698 1.367 . S
C699 C701 1.433 . S
C700 C696 1.350 . S
C700 C697 1.463 1_455 S
C700 N704 1.427 . S
C701 H691 0.929 . S
C701 C699 1.433 . S
C701 N704 1.384 . S
C702 H693 0.929 . S
C702 C694 1.378 . S
C702 C697 1.350 . S
C703 H690 0.929 . S
C703 C695 1.433 . S
C703 N705 1.384 . S
N704 C700 1.427 . S
N704 C701 1.384 . S
N705 C697 1.427 . S
N705 C703 1.384 . S
H706 C712 0.930 . S
H707 C716 0.930 . S
H708 C721 0.929 . S
H709 C719 0.929 . S
H710 C714 0.929 . S
H711 C720 0.929 . S
C712 H706 0.930 . S
C712 C713 1.367 . S
C712 C720 1.378 . S
C713 C712 1.367 . S
C713 C721 1.433 . S
C714 H710 0.929 . S
C714 C716 1.378 . S
C714 C718 1.350 . S
C715 C718 1.463 . S
C715 C720 1.350 . S
C715 N723 1.427 . S
C716 H707 0.930 . S
C716 C714 1.378 . S
C716 C717 1.367 . S
C717 C716 1.367 . S
C717 C719 1.433 . S
C718 C714 1.350 . S
C718 C715 1.463 . S
C718 N722 1.427 . S
C719 H709 0.929 . S
C719 C717 1.433 . S
C719 N722 1.384 . S
C720 H711 0.929 . S
C720 C712 1.378 . S
C720 C715 1.350 . S
C721 H708 0.929 . S
C721 C713 1.433 . S
C721 N723 1.384 . S
N722 C718 1.427 . S
N722 C719 1.384 . S
N723 C715 1.427 . S
N723 C721 1.384 . S
H724 C730 0.930 . S
H725 C734 0.930 . S
H726 C739 0.929 . S
H727 C737 0.929 . S
H728 C732 0.929 . S
H729 C738 0.929 . S
C730 H724 0.930 . S
C730 C731 1.367 . S
C730 C738 1.378 . S
C731 C730 1.367 . S
C731 C739 1.433 . S
C732 H728 0.929 . S
C732 C734 1.378 . S
C732 C736 1.350 . S
C733 C736 1.463 1_655 S
C733 C738 1.350 . S
C733 N741 1.427 . S
C734 H725 0.930 . S
C734 C732 1.378 . S
C734 C735 1.367 . S
C735 C734 1.367 . S
C735 C737 1.433 . S
C736 C732 1.350 . S
C736 C733 1.463 1_455 S
C736 N740 1.427 . S
C737 H727 0.929 . S
C737 C735 1.433 . S
C737 N740 1.384 . S
C738 H729 0.929 . S
C738 C730 1.378 . S
C738 C733 1.350 . S
C739 H726 0.929 . S
C739 C731 1.433 . S
C739 N741 1.384 . S
N740 C736 1.427 . S
N740 C737 1.384 . S
N741 C733 1.427 . S
N741 C739 1.384 . S
H742 C748 0.930 . S
H743 C752 0.930 . S
H744 C757 0.929 . S
H745 C755 0.929 . S
H746 C750 0.929 . S
H747 C756 0.929 . S
C748 H742 0.930 . S
C748 C749 1.367 . S
C748 C756 1.378 . S
C749 C748 1.367 . S
C749 C757 1.433 . S
C750 H746 0.929 . S
C750 C752 1.378 . S
C750 C754 1.350 . S
C751 C754 1.463 . S
C751 C756 1.350 . S
C751 N759 1.427 . S
C752 H743 0.930 . S
C752 C750 1.378 . S
C752 C753 1.367 . S
C753 C752 1.367 . S
C753 C755 1.433 . S
C754 C750 1.350 . S
C754 C751 1.463 . S
C754 N758 1.427 . S
C755 H745 0.929 . S
C755 C753 1.433 . S
C755 N758 1.384 . S
C756 H747 0.929 . S
C756 C748 1.378 . S
C756 C751 1.350 . S
C757 H744 0.929 . S
C757 C749 1.433 . S
C757 N759 1.384 . S
N758 C754 1.427 . S
N758 C755 1.384 . S
N759 C751 1.427 . S
N759 C757 1.384 . S
H760 C766 0.930 . S
H761 C770 0.930 . S
H762 C775 0.929 . S
H763 C773 0.929 . S
H764 C768 0.929 . S
H765 C774 0.929 . S
C766 H760 0.930 . S
C766 C767 1.367 . S
C766 C774 1.378 . S
C767 C766 1.367 . S
C767 C775 1.433 . S
C768 H764 0.929 . S
C768 C770 1.378 . S
C768 C772 1.350 . S
C769 C772 1.463 . S
C769 C774 1.350 . S
C769 N777 1.427 . S
C770 H761 0.930 . S
C770 C768 1.378 . S
C770 C771 1.367 . S
C771 C770 1.367 . S
C771 C773 1.433 . S
C772 C768 1.350 . S
C772 C769 1.463 . S
C772 N776 1.427 . S
C773 H763 0.929 . S
C773 C771 1.433 . S
C773 N776 1.384 . S
C774 H765 0.929 . S
C774 C766 1.378 . S
C774 C769 1.350 . S
C775 H762 0.929 . S
C775 C767 1.433 . S
C775 N777 1.384 . S
N776 C772 1.427 . S
N776 C773 1.384 . S
N777 C769 1.427 . S
N777 C775 1.384 . S
H778 C784 0.930 . S
H779 C788 0.930 . S
H780 C793 0.929 . S
H781 C791 0.929 . S
H782 C786 0.929 . S
H783 C792 0.929 . S
C784 H778 0.930 . S
C784 C785 1.367 . S
C784 C792 1.378 . S
C785 C784 1.367 . S
C785 C793 1.433 . S
C786 H782 0.929 . S
C786 C788 1.378 . S
C786 C790 1.350 . S
C787 C790 1.463 1_455 S
C787 C792 1.350 . S
C787 N795 1.427 . S
C788 H779 0.930 . S
C788 C786 1.378 . S
C788 C789 1.367 . S
C789 C788 1.367 . S
C789 C791 1.433 . S
C790 C786 1.350 . S
C790 C787 1.463 1_655 S
C790 N794 1.427 . S
C791 H781 0.929 . S
C791 C789 1.433 . S
C791 N794 1.384 . S
C792 H783 0.929 . S
C792 C784 1.378 . S
C792 C787 1.350 . S
C793 H780 0.929 . S
C793 C785 1.433 . S
C793 N795 1.384 . S
N794 C790 1.427 . S
N794 C791 1.384 . S
N795 C787 1.427 . S
N795 C793 1.384 . S
H796 C802 0.930 . S
H797 C806 0.930 . S
H798 C811 0.929 . S
H799 C809 0.929 . S
H800 C804 0.929 . S
H801 C810 0.929 . S
C802 H796 0.930 . S
C802 C803 1.367 . S
C802 C810 1.378 . S
C803 C802 1.367 . S
C803 C811 1.433 . S
C804 H800 0.929 . S
C804 C806 1.378 . S
C804 C808 1.350 . S
C805 C808 1.463 . S
C805 C810 1.350 . S
C805 N813 1.427 . S
C806 H797 0.930 . S
C806 C804 1.378 . S
C806 C807 1.367 . S
C807 C806 1.367 . S
C807 C809 1.433 . S
C808 C804 1.350 . S
C808 C805 1.463 . S
C808 N812 1.427 . S
C809 H799 0.929 . S
C809 C807 1.433 . S
C809 N812 1.384 . S
C810 H801 0.929 . S
C810 C802 1.378 . S
C810 C805 1.350 . S
C811 H798 0.929 . S
C811 C803 1.433 . S
C811 N813 1.384 . S
N812 C808 1.427 . S
N812 C809 1.384 . S
N813 C805 1.427 . S
N813 C811 1.384 . S
H814 C820 0.930 . S
H815 C824 0.930 . S
H816 C829 0.929 . S
H817 C827 0.929 . S
H818 C822 0.929 . S
H819 C828 0.929 . S
C820 H814 0.930 . S
C820 C821 1.367 . S
C820 C828 1.378 . S
C821 C820 1.367 . S
C821 C829 1.433 . S
C822 H818 0.929 . S
C822 C824 1.378 . S
C822 C826 1.350 . S
C823 C826 1.463 1_655 S
C823 C828 1.350 . S
C823 N831 1.427 . S
C824 H815 0.930 . S
C824 C822 1.378 . S
C824 C825 1.367 . S
C825 C824 1.367 . S
C825 C827 1.433 . S
C826 C822 1.350 . S
C826 C823 1.463 1_455 S
C826 N830 1.427 . S
C827 H817 0.929 . S
C827 C825 1.433 . S
C827 N830 1.384 . S
C828 H819 0.929 . S
C828 C820 1.378 . S
C828 C823 1.350 . S
C829 H816 0.929 . S
C829 C821 1.433 . S
C829 N831 1.384 . S
N830 C826 1.427 . S
N830 C827 1.384 . S
N831 C823 1.427 . S
N831 C829 1.384 . S
H832 C838 0.930 . S
H833 C842 0.930 . S
H834 C847 0.929 . S
H835 C845 0.929 . S
H836 C840 0.929 1_545 S
H837 C846 0.929 1_565 S
C838 H832 0.930 . S
C838 C839 1.367 . S
C838 C846 1.378 . S
C839 C838 1.367 . S
C839 C847 1.433 . S
C840 H836 0.929 1_565 S
C840 C842 1.378 . S
C840 C844 1.350 . S
C841 C844 1.463 1_544 S
C841 C846 1.350 . S
C841 N849 1.427 . S
C842 H833 0.930 . S
C842 C840 1.378 . S
C842 C843 1.367 . S
C843 C842 1.367 . S
C843 C845 1.433 . S
C844 C840 1.350 . S
C844 C841 1.463 1_566 S
C844 N848 1.427 . S
C845 H835 0.929 . S
C845 C843 1.433 . S
C845 N848 1.384 . S
C846 H837 0.929 1_545 S
C846 C838 1.378 . S
C846 C841 1.350 . S
C847 H834 0.929 . S
C847 C839 1.433 . S
C847 N849 1.384 . S
N848 C844 1.427 . S
N848 C845 1.384 . S
N849 C841 1.427 . S
N849 C847 1.384 . S
H850 C856 0.930 . S
H851 C860 0.930 . S
H852 C865 0.929 . S
H853 C863 0.929 . S
H854 C858 0.929 . S
H855 C864 0.929 . S
C856 H850 0.930 . S
C856 C857 1.367 . S
C856 C864 1.378 . S
C857 C856 1.367 . S
C857 C865 1.433 . S
C858 H854 0.929 . S
C858 C860 1.378 . S
C858 C862 1.350 . S
C859 C862 1.463 1_565 S
C859 C864 1.350 . S
C859 N867 1.427 . S
C860 H851 0.930 . S
C860 C858 1.378 . S
C860 C861 1.367 . S
C861 C860 1.367 . S
C861 C863 1.433 . S
C862 C858 1.350 . S
C862 C859 1.463 1_545 S
C862 N866 1.427 . S
C863 H853 0.929 . S
C863 C861 1.433 . S
C863 N866 1.384 . S
C864 H855 0.929 . S
C864 C856 1.378 . S
C864 C859 1.350 . S
C865 H852 0.929 . S
C865 C857 1.433 . S
C865 N867 1.384 . S
N866 C862 1.427 . S
N866 C863 1.384 . S
N867 C859 1.427 . S
N867 C865 1.384 . S
H868 C874 0.930 . S
H869 C878 0.930 . S
H870 C883 0.929 . S
H871 C881 0.929 . S
H872 C876 0.906 1_565 S
H873 C882 0.906 1_545 S
C874 H868 0.930 . S
C874 C875 1.367 . S
C874 C882 1.378 . S
C875 C874 1.367 . S
C875 C883 1.433 . S
C876 H872 0.906 1_545 S
C876 C878 1.378 . S
C876 C880 1.350 . S
C877 C880 1.463 1_566 S
C877 C882 1.350 . S
C877 N885 1.427 . S
C878 H869 0.930 . S
C878 C876 1.378 . S
C878 C879 1.367 . S
C879 C878 1.367 . S
C879 C881 1.433 . S
C880 C876 1.350 . S
C880 C877 1.463 1_544 S
C880 N884 1.427 . S
C881 H871 0.929 . S
C881 C879 1.433 . S
C881 N884 1.384 . S
C882 H873 0.906 1_565 S
C882 C874 1.378 . S
C882 C877 1.350 . S
C883 H870 0.929 . S
C883 C875 1.433 . S
C883 N885 1.384 . S
N884 C880 1.427 . S
N884 C881 1.384 . S
N885 C877 1.427 . S
N885 C883 1.384 . S
H886 C892 0.930 . S
H887 C896 0.930 . S
H888 C901 0.929 . S
H889 C899 0.929 . S
H890 C894 0.929 . S
H891 C900 0.929 . S
C892 H886 0.930 . S
C892 C893 1.367 . S
C892 C900 1.378 . S
C893 C892 1.367 . S
C893 C901 1.433 . S
C894 H890 0.929 . S
C894 C896 1.378 . S
C894 C898 1.350 . S
C895 C898 1.463 1_545 S
C895 C900 1.350 . S
C895 N903 1.427 . S
C896 H887 0.930 . S
C896 C894 1.378 . S
C896 C897 1.367 . S
C897 C896 1.367 . S
C897 C899 1.433 . S
C898 C894 1.350 . S
C898 C895 1.463 1_565 S
C898 N902 1.427 . S
C899 H889 0.929 . S
C899 C897 1.433 . S
C899 N902 1.384 . S
C900 H891 0.929 . S
C900 C892 1.378 . S
C900 C895 1.350 . S
C901 H888 0.929 . S
C901 C893 1.433 . S
C901 N903 1.384 . S
N902 C898 1.427 . S
N902 C899 1.384 . S
N903 C895 1.427 . S
N903 C901 1.384 . S
H904 C910 0.930 . S
H905 C914 0.930 . S
H906 C919 0.929 . S
H907 C917 0.929 . S
H908 C912 0.929 . S
H909 C918 0.929 . S
C910 H904 0.930 . S
C910 C911 1.367 . S
C910 C918 1.378 . S
C911 C910 1.367 . S
C911 C919 1.433 . S
C912 H908 0.929 . S
C912 C914 1.378 . S
C912 C916 1.350 . S
C913 C916 1.463 1_554 S
C913 C918 1.350 . S
C913 N921 1.427 1_554 S
C914 H905 0.930 . S
C914 C912 1.378 . S
C914 C915 1.367 . S
C915 C914 1.367 . S
C915 C917 1.433 . S
C916 C912 1.350 . S
C916 C913 1.463 1_556 S
C916 N920 1.427 1_556 S
C917 H907 0.929 . S
C917 C915 1.433 . S
C917 N920 1.384 1_556 S
C918 H909 0.929 . S
C918 C910 1.378 . S
C918 C913 1.350 . S
C919 H906 0.929 . S
C919 C911 1.433 . S
C919 N921 1.384 1_554 S
N920 C916 1.427 1_554 S
N920 C917 1.384 1_554 S
N921 C913 1.427 1_556 S
N921 C919 1.384 1_556 S
H922 C928 0.930 . S
H923 C932 0.930 . S
H924 C937 0.929 . S
H925 C935 0.929 . S
H926 C930 0.929 . S
H927 C936 0.929 . S
C928 H922 0.930 . S
C928 C929 1.367 . S
C928 C936 1.378 . S
C929 C928 1.367 . S
C929 C937 1.433 . S
C930 H926 0.929 . S
C930 C932 1.378 . S
C930 C934 1.350 . S
C931 C934 1.463 . S
C931 C936 1.350 . S
C931 N939 1.427 . S
C932 H923 0.930 . S
C932 C930 1.378 . S
C932 C933 1.367 . S
C933 C932 1.367 . S
C933 C935 1.433 . S
C934 C930 1.350 . S
C934 C931 1.463 . S
C934 N938 1.427 . S
C935 H925 0.929 . S
C935 C933 1.433 . S
C935 N938 1.384 . S
C936 H927 0.929 . S
C936 C928 1.378 . S
C936 C931 1.350 . S
C937 H924 0.929 . S
C937 C929 1.433 . S
C937 N939 1.384 . S
N938 C934 1.427 . S
N938 C935 1.384 . S
N939 C931 1.427 . S
N939 C937 1.384 . S
H940 C946 0.930 . S
H941 C950 0.930 . S
H942 C955 0.929 . S
H943 C953 0.929 . S
H944 C948 0.929 . S
H945 C954 0.929 . S
C946 H940 0.930 . S
C946 C947 1.367 . S
C946 C954 1.378 . S
C947 C946 1.367 . S
C947 C955 1.433 . S
C948 H944 0.929 . S
C948 C950 1.378 . S
C948 C952 1.350 . S
C949 C952 1.463 1_556 S
C949 C954 1.350 . S
C949 N957 1.427 . S
C950 H941 0.930 . S
C950 C948 1.378 . S
C950 C951 1.367 . S
C951 C950 1.367 . S
C951 C953 1.433 . S
C952 C948 1.350 . S
C952 C949 1.463 1_554 S
C952 N956 1.427 . S
C953 H943 0.929 . S
C953 C951 1.433 . S
C953 N956 1.384 . S
C954 H945 0.929 . S
C954 C946 1.378 . S
C954 C949 1.350 . S
C955 H942 0.929 . S
C955 C947 1.433 . S
C955 N957 1.384 . S
N956 C952 1.427 . S
N956 C953 1.384 . S
N957 C949 1.427 . S
N957 C955 1.384 . S
H958 C964 0.930 . S
H959 C968 0.930 . S
H960 C973 0.929 . S
H961 C971 0.929 . S
H962 C966 0.929 . S
H963 C972 0.929 . S
C964 H958 0.930 . S
C964 C965 1.367 . S
C964 C972 1.378 . S
C965 C964 1.367 . S
C965 C973 1.433 . S
C966 H962 0.929 . S
C966 C968 1.378 . S
C966 C970 1.350 . S
C967 C970 1.463 . S
C967 C972 1.350 . S
C967 N975 1.427 . S
C968 H959 0.930 . S
C968 C966 1.378 . S
C968 C969 1.367 . S
C969 C968 1.367 . S
C969 C971 1.433 . S
C970 C966 1.350 . S
C970 C967 1.463 . S
C970 N974 1.427 . S
C971 H961 0.929 . S
C971 C969 1.433 . S
C971 N974 1.384 . S
C972 H963 0.929 . S
C972 C964 1.378 . S
C972 C967 1.350 . S
C973 H960 0.929 . S
C973 C965 1.433 . S
C973 N975 1.384 . S
N974 C970 1.427 . S
N974 C971 1.384 . S
N975 C967 1.427 . S
N975 C973 1.384 . S
H976 C982 0.930 . S
H977 C986 0.930 . S
H978 C991 0.929 . S
H979 C989 0.929 . S
H980 C984 0.929 . S
H981 C990 0.929 . S
C982 H976 0.930 . S
C982 C983 1.367 . S
C982 C990 1.378 . S
C983 C982 1.367 . S
C983 C991 1.433 . S
C984 H980 0.929 . S
C984 C986 1.378 . S
C984 C988 1.350 . S
C985 C988 1.463 . S
C985 C990 1.350 . S
C985 N993 1.427 . S
C986 H977 0.930 . S
C986 C984 1.378 . S
C986 C987 1.367 1_556 S
C987 C986 1.367 1_554 S
C987 C989 1.433 . S
C988 C984 1.350 . S
C988 C985 1.463 . S
C988 N992 1.427 . S
C989 H979 0.929 . S
C989 C987 1.433 . S
C989 N992 1.384 1_554 S
C990 H981 0.929 . S
C990 C982 1.378 . S
C990 C985 1.350 . S
C991 H978 0.929 . S
C991 C983 1.433 . S
C991 N993 1.384 . S
N992 C988 1.427 . S
N992 C989 1.384 1_556 S
N993 C985 1.427 . S
N993 C991 1.384 . S
H994 C1000 0.930 . S
H995 C1004 0.930 . S
H996 C1009 0.929 . S
H997 C1007 0.929 . S
H998 C1002 0.929 . S
H999 C1008 0.929 . S
C1000 H994 0.930 . S
C1000 C1001 1.367 . S
C1000 C1008 1.378 . S
C1001 C1000 1.367 . S
C1001 C1009 1.433 . S
C1002 H998 0.929 . S
C1002 C1004 1.378 . S
C1002 C1006 1.350 . S
C1003 C1006 1.463 . S
C1003 C1008 1.350 . S
C1003 N1011 1.427 . S
C1004 H995 0.930 . S
C1004 C1002 1.378 . S
C1004 C1005 1.367 . S
C1005 C1004 1.367 . S
C1005 C1007 1.433 . S
C1006 C1002 1.350 . S
C1006 C1003 1.463 . S
C1006 N1010 1.427 . S
C1007 H997 0.929 . S
C1007 C1005 1.433 . S
C1007 N1010 1.384 . S
C1008 H999 0.929 . S
C1008 C1000 1.378 . S
C1008 C1003 1.350 . S
C1009 H996 0.929 . S
C1009 C1001 1.433 . S
C1009 N1011 1.384 . S
N1010 C1006 1.427 . S
N1010 C1007 1.384 . S
N1011 C1003 1.427 . S
N1011 C1009 1.384 . S
H1012 C1018 0.930 1_556 S
H1013 C1022 0.930 . S
H1014 C1027 0.929 . S
H1015 C1025 0.929 . S
H1016 C1020 0.929 . S
H1017 C1026 0.929 . S
C1018 H1012 0.930 1_554 S
C1018 C1019 1.367 1_554 S
C1018 C1026 1.378 . S
C1019 C1018 1.367 1_556 S
C1019 C1027 1.433 . S
C1020 H1016 0.929 . S
C1020 C1022 1.378 . S
C1020 C1024 1.350 . S
C1021 C1024 1.463 . S
C1021 C1026 1.350 . S
C1021 N1029 1.427 . S
C1022 H1013 0.930 . S
C1022 C1020 1.378 . S
C1022 C1023 1.367 . S
C1023 C1022 1.367 . S
C1023 C1025 1.433 . S
C1024 C1020 1.350 . S
C1024 C1021 1.463 . S
C1024 N1028 1.427 . S
C1025 H1015 0.929 . S
C1025 C1023 1.433 . S
C1025 N1028 1.384 . S
C1026 H1017 0.929 . S
C1026 C1018 1.378 . S
C1026 C1021 1.350 . S
C1027 H1014 0.929 . S
C1027 C1019 1.433 . S
C1027 N1029 1.384 1_556 S
N1028 C1024 1.427 . S
N1028 C1025 1.384 . S
N1029 C1021 1.427 . S
N1029 C1027 1.384 1_554 S
H1030 C1036 0.930 . S
H1031 C1040 0.930 . S
H1032 C1045 0.929 . S
H1033 C1043 0.929 . S
H1034 C1038 0.929 . S
H1035 C1044 0.929 . S
C1036 H1030 0.930 . S
C1036 C1037 1.367 . S
C1036 C1044 1.378 . S
C1037 C1036 1.367 . S
C1037 C1045 1.433 . S
C1038 H1034 0.929 . S
C1038 C1040 1.378 . S
C1038 C1042 1.350 . S
C1039 C1042 1.463 . S
C1039 C1044 1.350 . S
C1039 N1047 1.427 . S
C1040 H1031 0.930 . S
C1040 C1038 1.378 . S
C1040 C1041 1.367 . S
C1041 C1040 1.367 . S
C1041 C1043 1.433 . S
C1042 C1038 1.350 . S
C1042 C1039 1.463 . S
C1042 N1046 1.427 . S
C1043 H1033 0.929 . S
C1043 C1041 1.433 . S
C1043 N1046 1.384 . S
C1044 H1035 0.929 . S
C1044 C1036 1.378 . S
C1044 C1039 1.350 . S
C1045 H1032 0.929 . S
C1045 C1037 1.433 . S
C1045 N1047 1.384 . S
N1046 C1042 1.427 . S
N1046 C1043 1.384 . S
N1047 C1039 1.427 . S
N1047 C1045 1.384 . S
H1048 C1054 0.930 . S
H1049 C1058 0.930 . S
H1050 C1063 0.929 . S
H1051 C1061 0.929 . S
H1052 C1056 0.929 . S
H1053 C1062 0.929 . S
C1054 H1048 0.930 . S
C1054 C1055 1.367 . S
C1054 C1062 1.378 . S
C1055 C1054 1.367 . S
C1055 C1063 1.433 . S
C1056 H1052 0.929 . S
C1056 C1058 1.378 . S
C1056 C1060 1.350 . S
C1057 C1060 1.463 . S
C1057 C1062 1.350 . S
C1057 N1065 1.427 . S
C1058 H1049 0.930 . S
C1058 C1056 1.378 . S
C1058 C1059 1.367 1_554 S
C1059 C1058 1.367 1_556 S
C1059 C1061 1.433 . S
C1060 C1056 1.350 . S
C1060 C1057 1.463 . S
C1060 N1064 1.427 . S
C1061 H1051 0.929 . S
C1061 C1059 1.433 . S
C1061 N1064 1.384 1_556 S
C1062 H1053 0.929 . S
C1062 C1054 1.378 . S
C1062 C1057 1.350 . S
C1063 H1050 0.929 . S
C1063 C1055 1.433 . S
C1063 N1065 1.384 . S
N1064 C1060 1.427 . S
N1064 C1061 1.384 1_554 S
N1065 C1057 1.427 . S
N1065 C1063 1.384 . S
H1066 C1072 0.930 . S
H1067 C1076 0.930 . S
H1068 C1081 0.929 . S
H1069 C1079 0.929 . S
H1070 C1074 0.929 . S
H1071 C1080 0.929 . S
C1072 H1066 0.930 . S
C1072 C1073 1.367 . S
C1072 C1080 1.378 . S
C1073 C1072 1.367 . S
C1073 C1081 1.433 . S
C1074 H1070 0.929 . S
C1074 C1076 1.378 . S
C1074 C1078 1.350 . S
C1075 C1078 1.463 . S
C1075 C1080 1.350 . S
C1075 N1083 1.427 . S
C1076 H1067 0.930 . S
C1076 C1074 1.378 . S
C1076 C1077 1.367 . S
C1077 C1076 1.367 . S
C1077 C1079 1.433 . S
C1078 C1074 1.350 . S
C1078 C1075 1.463 . S
C1078 N1082 1.427 . S
C1079 H1069 0.929 . S
C1079 C1077 1.433 . S
C1079 N1082 1.384 . S
C1080 H1071 0.929 . S
C1080 C1072 1.378 . S
C1080 C1075 1.350 . S
C1081 H1068 0.929 . S
C1081 C1073 1.433 . S
C1081 N1083 1.384 . S
N1082 C1078 1.427 . S
N1082 C1079 1.384 . S
N1083 C1075 1.427 . S
N1083 C1081 1.384 . S
H1084 C1090 0.930 . S
H1085 C1094 0.930 . S
H1086 C1099 0.929 . S
H1087 C1097 0.929 . S
H1088 C1092 0.929 . S
H1089 C1098 0.929 . S
C1090 H1084 0.930 . S
C1090 C1091 1.367 . S
C1090 C1098 1.378 1_554 S
C1091 C1090 1.367 . S
C1091 C1099 1.433 1_554 S
C1092 H1088 0.929 . S
C1092 C1094 1.378 . S
C1092 C1096 1.350 . S
C1093 C1096 1.463 . S
C1093 C1098 1.350 . S
C1093 N1101 1.427 . S
C1094 H1085 0.930 . S
C1094 C1092 1.378 . S
C1094 C1095 1.367 . S
C1095 C1094 1.367 . S
C1095 C1097 1.433 . S
C1096 C1092 1.350 . S
C1096 C1093 1.463 . S
C1096 N1100 1.427 . S
C1097 H1087 0.929 . S
C1097 C1095 1.433 . S
C1097 N1100 1.384 . S
C1098 H1089 0.929 . S
C1098 C1090 1.378 1_556 S
C1098 C1093 1.350 . S
C1099 H1086 0.929 . S
C1099 C1091 1.433 1_556 S
C1099 N1101 1.384 . S
N1100 C1096 1.427 . S
N1100 C1097 1.384 . S
N1101 C1093 1.427 . S
N1101 C1099 1.384 . S
H1102 C1108 0.930 . S
H1103 C1112 0.930 . S
H1104 C1117 0.929 . S
H1105 C1115 0.929 . S
H1106 C1110 0.929 . S
H1107 C1116 0.929 . S
C1108 H1102 0.930 . S
C1108 C1109 1.367 . S
C1108 C1116 1.378 . S
C1109 C1108 1.367 . S
C1109 C1117 1.433 . S
C1110 H1106 0.929 . S
C1110 C1112 1.378 . S
C1110 C1114 1.350 . S
C1111 C1114 1.463 . S
C1111 C1116 1.350 . S
C1111 N1119 1.427 . S
C1112 H1103 0.930 . S
C1112 C1110 1.378 . S
C1112 C1113 1.367 . S
C1113 C1112 1.367 . S
C1113 C1115 1.433 . S
C1114 C1110 1.350 . S
C1114 C1111 1.463 . S
C1114 N1118 1.427 . S
C1115 H1105 0.929 . S
C1115 C1113 1.433 . S
C1115 N1118 1.384 . S
C1116 H1107 0.929 . S
C1116 C1108 1.378 . S
C1116 C1111 1.350 . S
C1117 H1104 0.929 . S
C1117 C1109 1.433 . S
C1117 N1119 1.384 . S
N1118 C1114 1.427 . S
N1118 C1115 1.384 . S
N1119 C1111 1.427 . S
N1119 C1117 1.384 . S
H1120 C1126 0.930 . S
H1121 C1130 0.930 . S
H1122 C1135 0.929 . S
H1123 C1133 0.929 . S
H1124 C1128 0.929 . S
H1125 C1134 0.929 . S
C1126 H1120 0.930 . S
C1126 C1127 1.367 1_556 S
C1126 C1134 1.378 . S
C1127 C1126 1.367 1_554 S
C1127 C1135 1.433 . S
C1128 H1124 0.929 . S
C1128 C1130 1.378 . S
C1128 C1132 1.350 . S
C1129 C1132 1.463 . S
C1129 C1134 1.350 . S
C1129 N1137 1.427 . S
C1130 H1121 0.930 . S
C1130 C1128 1.378 . S
C1130 C1131 1.367 . S
C1131 C1130 1.367 . S
C1131 C1133 1.433 . S
C1132 C1128 1.350 . S
C1132 C1129 1.463 . S
C1132 N1136 1.427 . S
C1133 H1123 0.929 . S
C1133 C1131 1.433 . S
C1133 N1136 1.384 . S
C1134 H1125 0.929 . S
C1134 C1126 1.378 . S
C1134 C1129 1.350 . S
C1135 H1122 0.929 . S
C1135 C1127 1.433 . S
C1135 N1137 1.384 1_554 S
N1136 C1132 1.427 . S
N1136 C1133 1.384 . S
N1137 C1129 1.427 . S
N1137 C1135 1.384 1_556 S
H1138 C1144 0.930 . S
H1139 C1148 0.930 . S
H1140 C1153 0.929 . S
H1141 C1151 0.929 . S
H1142 C1146 0.929 . S
H1143 C1152 0.929 . S
C1144 H1138 0.930 . S
C1144 C1145 1.367 . S
C1144 C1152 1.378 . S
C1145 C1144 1.367 . S
C1145 C1153 1.433 . S
C1146 H1142 0.929 . S
C1146 C1148 1.378 . S
C1146 C1150 1.350 . S
C1147 C1150 1.463 . S
C1147 C1152 1.350 . S
C1147 N1155 1.427 . S
C1148 H1139 0.930 . S
C1148 C1146 1.378 . S
C1148 C1149 1.367 . S
C1149 C1148 1.367 . S
C1149 C1151 1.433 . S
C1150 C1146 1.350 . S
C1150 C1147 1.463 . S
C1150 N1154 1.427 . S
C1151 H1141 0.929 . S
C1151 C1149 1.433 . S
C1151 N1154 1.384 . S
C1152 H1143 0.929 . S
C1152 C1144 1.378 . S
C1152 C1147 1.350 . S
C1153 H1140 0.929 . S
C1153 C1145 1.433 . S
C1153 N1155 1.384 . S
N1154 C1150 1.427 . S
N1154 C1151 1.384 . S
N1155 C1147 1.427 . S
N1155 C1153 1.384 . S
H1156 C1162 0.930 . S
H1157 C1166 0.930 . S
H1158 C1171 0.929 . S
H1159 C1169 0.929 . S
H1160 C1164 0.929 . S
H1161 C1170 0.929 . S
C1162 H1156 0.930 . S
C1162 C1163 1.367 . S
C1162 C1170 1.378 . S
C1163 C1162 1.367 . S
C1163 C1171 1.433 . S
C1164 H1160 0.929 . S
C1164 C1166 1.378 . S
C1164 C1168 1.350 . S
C1165 C1168 1.463 . S
C1165 C1170 1.350 . S
C1165 N1173 1.427 . S
C1166 H1157 0.930 . S
C1166 C1164 1.378 . S
C1166 C1167 1.367 1_554 S
C1167 C1166 1.367 1_556 S
C1167 C1169 1.433 . S
C1168 C1164 1.350 . S
C1168 C1165 1.463 . S
C1168 N1172 1.427 . S
C1169 H1159 0.929 . S
C1169 C1167 1.433 . S
C1169 N1172 1.384 1_556 S
C1170 H1161 0.929 . S
C1170 C1162 1.378 . S
C1170 C1165 1.350 . S
C1171 H1158 0.929 . S
C1171 C1163 1.433 . S
C1171 N1173 1.384 . S
N1172 C1168 1.427 . S
N1172 C1169 1.384 1_554 S
N1173 C1165 1.427 . S
N1173 C1171 1.384 . S
H1174 C1180 0.930 . S
H1175 C1184 0.930 . S
H1176 C1189 0.929 . S
H1177 C1187 0.929 . S
H1178 C1182 0.929 . S
H1179 C1188 0.929 . S
C1180 H1174 0.930 . S
C1180 C1181 1.367 . S
C1180 C1188 1.378 . S
C1181 C1180 1.367 . S
C1181 C1189 1.433 . S
C1182 H1178 0.929 . S
C1182 C1184 1.378 . S
C1182 C1186 1.350 . S
C1183 C1186 1.463 . S
C1183 C1188 1.350 . S
C1183 N1191 1.427 . S
C1184 H1175 0.930 . S
C1184 C1182 1.378 . S
C1184 C1185 1.367 . S
C1185 C1184 1.367 . S
C1185 C1187 1.433 . S
C1186 C1182 1.350 . S
C1186 C1183 1.463 . S
C1186 N1190 1.427 . S
C1187 H1177 0.929 . S
C1187 C1185 1.433 . S
C1187 N1190 1.384 . S
C1188 H1179 0.929 . S
C1188 C1180 1.378 . S
C1188 C1183 1.350 . S
C1189 H1176 0.929 . S
C1189 C1181 1.433 . S
C1189 N1191 1.384 . S
N1190 C1186 1.427 . S
N1190 C1187 1.384 . S
N1191 C1183 1.427 . S
N1191 C1189 1.384 . S
H1192 C1198 0.930 . S
H1193 C1202 0.930 . S
H1194 C1207 0.929 . S
H1195 C1205 0.929 . S
H1196 C1200 0.929 . S
H1197 C1206 0.929 . S
C1198 H1192 0.930 . S
C1198 C1199 1.367 . S
C1198 C1206 1.378 1_556 S
C1199 C1198 1.367 . S
C1199 C1207 1.433 1_556 S
C1200 H1196 0.929 . S
C1200 C1202 1.378 . S
C1200 C1204 1.350 . S
C1201 C1204 1.463 . S
C1201 C1206 1.350 . S
C1201 N1209 1.427 . S
C1202 H1193 0.930 . S
C1202 C1200 1.378 . S
C1202 C1203 1.367 . S
C1203 C1202 1.367 . S
C1203 C1205 1.433 . S
C1204 C1200 1.350 . S
C1204 C1201 1.463 . S
C1204 N1208 1.427 . S
C1205 H1195 0.929 . S
C1205 C1203 1.433 . S
C1205 N1208 1.384 . S
C1206 H1197 0.929 . S
C1206 C1198 1.378 1_554 S
C1206 C1201 1.350 . S
C1207 H1194 0.929 . S
C1207 C1199 1.433 1_554 S
C1207 N1209 1.384 . S
N1208 C1204 1.427 . S
N1208 C1205 1.384 . S
N1209 C1201 1.427 . S
N1209 C1207 1.384 . S
H1210 C1216 0.930 . S
H1211 C1220 0.930 . S
H1212 C1225 0.929 . S
H1213 C1223 0.929 . S
H1214 C1218 0.929 . S
H1215 C1224 0.929 . S
C1216 H1210 0.930 . S
C1216 C1217 1.367 . S
C1216 C1224 1.378 . S
C1217 C1216 1.367 . S
C1217 C1225 1.433 . S
C1218 H1214 0.929 . S
C1218 C1220 1.378 . S
C1218 C1222 1.350 . S
C1219 C1222 1.463 . S
C1219 C1224 1.350 . S
C1219 N1227 1.427 . S
C1220 H1211 0.930 . S
C1220 C1218 1.378 . S
C1220 C1221 1.367 . S
C1221 C1220 1.367 . S
C1221 C1223 1.433 . S
C1222 C1218 1.350 . S
C1222 C1219 1.463 . S
C1222 N1226 1.427 . S
C1223 H1213 0.929 . S
C1223 C1221 1.433 . S
C1223 N1226 1.384 . S
C1224 H1215 0.929 . S
C1224 C1216 1.378 . S
C1224 C1219 1.350 . S
C1225 H1212 0.929 . S
C1225 C1217 1.433 . S
C1225 N1227 1.384 . S
N1226 C1222 1.427 . S
N1226 C1223 1.384 . S
N1227 C1219 1.427 . S
N1227 C1225 1.384 . S
H1228 C1234 0.930 . S
H1229 C1238 0.930 . S
H1230 C1243 0.929 . S
H1231 C1241 0.929 . S
H1232 C1236 0.929 . S
H1233 C1242 0.929 . S
C1234 H1228 0.930 . S
C1234 C1235 1.367 . S
C1234 C1242 1.378 . S
C1235 C1234 1.367 . S
C1235 C1243 1.433 . S
C1236 H1232 0.929 . S
C1236 C1238 1.378 1_556 S
C1236 C1240 1.350 . S
C1237 C1240 1.463 . S
C1237 C1242 1.350 . S
C1237 N1245 1.427 . S
C1238 H1229 0.930 . S
C1238 C1236 1.378 1_554 S
C1238 C1239 1.367 . S
C1239 C1238 1.367 . S
C1239 C1241 1.433 1_554 S
C1240 C1236 1.350 . S
C1240 C1237 1.463 . S
C1240 N1244 1.427 . S
C1241 H1231 0.929 . S
C1241 C1239 1.433 1_556 S
C1241 N1244 1.384 . S
C1242 H1233 0.929 . S
C1242 C1234 1.378 . S
C1242 C1237 1.350 . S
C1243 H1230 0.929 . S
C1243 C1235 1.433 . S
C1243 N1245 1.384 . S
N1244 C1240 1.427 . S
N1244 C1241 1.384 . S
N1245 C1237 1.427 . S
N1245 C1243 1.384 . S
H1246 C1252 0.930 . S
H1247 C1256 0.930 . S
H1248 C1261 0.929 . S
H1249 C1259 0.929 . S
H1250 C1254 0.929 . S
H1251 C1260 0.929 . S
C1252 H1246 0.930 . S
C1252 C1253 1.367 . S
C1252 C1260 1.378 . S
C1253 C1252 1.367 . S
C1253 C1261 1.433 . S
C1254 H1250 0.929 . S
C1254 C1256 1.378 . S
C1254 C1258 1.350 . S
C1255 C1258 1.463 . S
C1255 C1260 1.350 . S
C1255 N1263 1.427 . S
C1256 H1247 0.930 . S
C1256 C1254 1.378 . S
C1256 C1257 1.367 . S
C1257 C1256 1.367 . S
C1257 C1259 1.433 . S
C1258 C1254 1.350 . S
C1258 C1255 1.463 . S
C1258 N1262 1.427 . S
C1259 H1249 0.929 . S
C1259 C1257 1.433 . S
C1259 N1262 1.384 . S
C1260 H1251 0.929 . S
C1260 C1252 1.378 . S
C1260 C1255 1.350 . S
C1261 H1248 0.929 . S
C1261 C1253 1.433 . S
C1261 N1263 1.384 . S
N1262 C1258 1.427 . S
N1262 C1259 1.384 . S
N1263 C1255 1.427 . S
N1263 C1261 1.384 . S
C551 C9 1.472 . S
C555 C111 1.464 . S
C569 C77 1.477 . S
C573 C43 1.462 . S
C587 C247 1.468 . S
C591 C145 1.467 . S
C605 C179 1.478 . S
C609 C213 1.465 . S
C623 C281 1.466 . S
C627 C383 1.477 . S
C641 C315 1.462 . S
C645 C349 1.478 . S
C659 C519 1.477 . S
C663 C417 1.465 . S
C677 C451 1.462 . S
C681 C485 1.477 . S
C695 C209 1.496 . S
C699 C5 1.491 . S
C713 C243 1.491 . S
C717 C39 1.497 . S
C731 C141 1.491 . S
C735 C73 1.497 . S
C749 C175 1.490 . S
C753 C107 1.497 . S
C767 C481 1.496 . S
C771 C277 1.491 . S
C785 C515 1.492 . S
C789 C311 1.496 . S
C803 C413 1.494 . S
C807 C345 1.493 . S
C821 C379 1.496 . S
C825 C447 1.491 . S
C839 C2 1.546 . S
C843 C70 1.547 . S
C857 C36 1.540 . S
C861 C104 1.540 . S
C875 C138 1.546 . S
C879 C206 1.544 . S
C893 C172 1.543 . S
C897 C240 1.545 . S
C911 C274 1.547 . S
C915 C342 1.547 . S
C929 C308 1.542 . S
C933 C376 1.540 . S
C947 C410 1.547 . S
C951 C478 1.545 . S
C965 C444 1.547 . S
C969 C512 1.546 . S
C983 C530 1.362 . S
C987 C33 1.361 . S
C1001 C67 1.361 . S
C1005 C496 1.361 . S
C1019 C101 1.361 . S
C1023 C462 1.362 . S
C1037 C428 1.360 . S
C1041 C135 1.362 . S
C1055 C394 1.362 . S
C1059 C169 1.362 . S
C1073 C203 1.361 . S
C1077 C360 1.362 . S
C1091 C237 1.362 . S
C1095 C326 1.360 . S
C1109 C271 1.362 . S
C1113 C292 1.362 . S
C1127 C305 1.362 . S
C1131 C258 1.362 . S
C1145 C224 1.362 . S
C1149 C339 1.361 . S
C1163 C190 1.362 . S
C1167 C373 1.362 . S
C1181 C407 1.361 . S
C1185 C156 1.362 . S
C1199 C441 1.362 . S
C1203 C122 1.360 . S
C1217 C88 1.361 . S
C1221 C475 1.362 . S
C1235 C54 1.361 . S
C1239 C509 1.361 . S
C1253 C20 1.361 . S
C1257 C543 1.361 . S
