# Generated by pormake.
# Topology vbi, (5)-cn, num edge types: 1
# Building blocks:
#     Node 0, Type 0, BuildingBlock: BEQFEK_clean_sbu_0, # of connection points: 5
#     Node 1, Type 0, BuildingBlock: BEQFEK_clean_sbu_0, # of connection points: 5
#     Node 2, Type 0, BuildingBlock: BEQFEK_clean_sbu_0, # of connection points: 5
#     Node 3, Type 0, BuildingBlock: BEQFEK_clean_sbu_0, # of connection points: 5
#     Node 4, Type 0, BuildingBlock: BEQFEK_clean_sbu_0, # of connection points: 5
#     Node 5, Type 0, BuildingBlock: BEQFEK_clean_sbu_0, # of connection points: 5
#     Node 6, Type 0, BuildingBlock: BEQFEK_clean_sbu_0, # of connection points: 5
#     Node 7, Type 0, BuildingBlock: BEQFEK_clean_sbu_0, # of connection points: 5
#     Node 8, Type 0, BuildingBlock: BEQFEK_clean_sbu_0, # of connection points: 5
#     Node 9, Type 0, BuildingBlock: BEQFEK_clean_sbu_0, # of connection points: 5
#     Node 10, Type 0, BuildingBlock: BEQFEK_clean_sbu_0, # of connection points: 5
#     Node 11, Type 0, BuildingBlock: BEQFEK_clean_sbu_0, # of connection points: 5
#     Node 12, Type 0, BuildingBlock: BEQFEK_clean_sbu_0, # of connection points: 5
#     Node 13, Type 0, BuildingBlock: BEQFEK_clean_sbu_0, # of connection points: 5
#     Node 14, Type 0, BuildingBlock: BEQFEK_clean_sbu_0, # of connection points: 5
#     Node 15, Type 0, BuildingBlock: BEQFEK_clean_sbu_0, # of connection points: 5
#     Node 16, Type 0, BuildingBlock: BEQFEK_clean_sbu_0, # of connection points: 5
#     Node 17, Type 0, BuildingBlock: BEQFEK_clean_sbu_0, # of connection points: 5
#     Node 18, Type 0, BuildingBlock: BEQFEK_clean_sbu_0, # of connection points: 5
#     Node 19, Type 0, BuildingBlock: BEQFEK_clean_sbu_0, # of connection points: 5
#     Node 20, Type 0, BuildingBlock: BEQFEK_clean_sbu_0, # of connection points: 5
#     Node 21, Type 0, BuildingBlock: BEQFEK_clean_sbu_0, # of connection points: 5
#     Node 22, Type 0, BuildingBlock: BEQFEK_clean_sbu_0, # of connection points: 5
#     Node 23, Type 0, BuildingBlock: BEQFEK_clean_sbu_0, # of connection points: 5
#     Node 24, Type 0, BuildingBlock: BEQFEK_clean_sbu_0, # of connection points: 5
#     Node 25, Type 0, BuildingBlock: BEQFEK_clean_sbu_0, # of connection points: 5
#     Node 26, Type 0, BuildingBlock: BEQFEK_clean_sbu_0, # of connection points: 5
#     Node 27, Type 0, BuildingBlock: BEQFEK_clean_sbu_0, # of connection points: 5
#     Node 28, Type 0, BuildingBlock: BEQFEK_clean_sbu_0, # of connection points: 5
#     Node 29, Type 0, BuildingBlock: BEQFEK_clean_sbu_0, # of connection points: 5
#     Node 30, Type 0, BuildingBlock: BEQFEK_clean_sbu_0, # of connection points: 5
#     Node 31, Type 0, BuildingBlock: BEQFEK_clean_sbu_0, # of connection points: 5
#     Edge 32, Type (0, 0), BuildingBlock: XIVTED_clean_linker_0, # of connection points: 2
#     Edge 33, Type (0, 0), BuildingBlock: XIVTED_clean_linker_0, # of connection points: 2
#     Edge 34, Type (0, 0), BuildingBlock: XIVTED_clean_linker_0, # of connection points: 2
#     Edge 35, Type (0, 0), BuildingBlock: XIVTED_clean_linker_0, # of connection points: 2
#     Edge 36, Type (0, 0), BuildingBlock: XIVTED_clean_linker_0, # of connection points: 2
#     Edge 37, Type (0, 0), BuildingBlock: XIVTED_clean_linker_0, # of connection points: 2
#     Edge 38, Type (0, 0), BuildingBlock: XIVTED_clean_linker_0, # of connection points: 2
#     Edge 39, Type (0, 0), BuildingBlock: XIVTED_clean_linker_0, # of connection points: 2
#     Edge 40, Type (0, 0), BuildingBlock: XIVTED_clean_linker_0, # of connection points: 2
#     Edge 41, Type (0, 0), BuildingBlock: XIVTED_clean_linker_0, # of connection points: 2
#     Edge 42, Type (0, 0), BuildingBlock: XIVTED_clean_linker_0, # of connection points: 2
#     Edge 43, Type (0, 0), BuildingBlock: XIVTED_clean_linker_0, # of connection points: 2
#     Edge 44, Type (0, 0), BuildingBlock: XIVTED_clean_linker_0, # of connection points: 2
#     Edge 45, Type (0, 0), BuildingBlock: XIVTED_clean_linker_0, # of connection points: 2
#     Edge 46, Type (0, 0), BuildingBlock: XIVTED_clean_linker_0, # of connection points: 2
#     Edge 47, Type (0, 0), BuildingBlock: XIVTED_clean_linker_0, # of connection points: 2
#     Edge 48, Type (0, 0), BuildingBlock: XIVTED_clean_linker_0, # of connection points: 2
#     Edge 49, Type (0, 0), BuildingBlock: XIVTED_clean_linker_0, # of connection points: 2
#     Edge 50, Type (0, 0), BuildingBlock: XIVTED_clean_linker_0, # of connection points: 2
#     Edge 51, Type (0, 0), BuildingBlock: XIVTED_clean_linker_0, # of connection points: 2
#     Edge 52, Type (0, 0), BuildingBlock: XIVTED_clean_linker_0, # of connection points: 2
#     Edge 53, Type (0, 0), BuildingBlock: XIVTED_clean_linker_0, # of connection points: 2
#     Edge 54, Type (0, 0), BuildingBlock: XIVTED_clean_linker_0, # of connection points: 2
#     Edge 55, Type (0, 0), BuildingBlock: XIVTED_clean_linker_0, # of connection points: 2
#     Edge 56, Type (0, 0), BuildingBlock: XIVTED_clean_linker_0, # of connection points: 2
#     Edge 57, Type (0, 0), BuildingBlock: XIVTED_clean_linker_0, # of connection points: 2
#     Edge 58, Type (0, 0), BuildingBlock: XIVTED_clean_linker_0, # of connection points: 2
#     Edge 59, Type (0, 0), BuildingBlock: XIVTED_clean_linker_0, # of connection points: 2
#     Edge 60, Type (0, 0), BuildingBlock: XIVTED_clean_linker_0, # of connection points: 2
#     Edge 61, Type (0, 0), BuildingBlock: XIVTED_clean_linker_0, # of connection points: 2
#     Edge 62, Type (0, 0), BuildingBlock: XIVTED_clean_linker_0, # of connection points: 2
#     Edge 63, Type (0, 0), BuildingBlock: XIVTED_clean_linker_0, # of connection points: 2
#     Edge 64, Type (0, 0), BuildingBlock: XIVTED_clean_linker_0, # of connection points: 2
#     Edge 65, Type (0, 0), BuildingBlock: XIVTED_clean_linker_0, # of connection points: 2
#     Edge 66, Type (0, 0), BuildingBlock: XIVTED_clean_linker_0, # of connection points: 2
#     Edge 67, Type (0, 0), BuildingBlock: XIVTED_clean_linker_0, # of connection points: 2
#     Edge 68, Type (0, 0), BuildingBlock: XIVTED_clean_linker_0, # of connection points: 2
#     Edge 69, Type (0, 0), BuildingBlock: XIVTED_clean_linker_0, # of connection points: 2
#     Edge 70, Type (0, 0), BuildingBlock: XIVTED_clean_linker_0, # of connection points: 2
#     Edge 71, Type (0, 0), BuildingBlock: XIVTED_clean_linker_0, # of connection points: 2
#     Edge 72, Type (0, 0), BuildingBlock: XIVTED_clean_linker_0, # of connection points: 2
#     Edge 73, Type (0, 0), BuildingBlock: XIVTED_clean_linker_0, # of connection points: 2
#     Edge 74, Type (0, 0), BuildingBlock: XIVTED_clean_linker_0, # of connection points: 2
#     Edge 75, Type (0, 0), BuildingBlock: XIVTED_clean_linker_0, # of connection points: 2
#     Edge 76, Type (0, 0), BuildingBlock: XIVTED_clean_linker_0, # of connection points: 2
#     Edge 77, Type (0, 0), BuildingBlock: XIVTED_clean_linker_0, # of connection points: 2
#     Edge 78, Type (0, 0), BuildingBlock: XIVTED_clean_linker_0, # of connection points: 2
#     Edge 79, Type (0, 0), BuildingBlock: XIVTED_clean_linker_0, # of connection points: 2
#     Edge 80, Type (0, 0), BuildingBlock: XIVTED_clean_linker_0, # of connection points: 2
#     Edge 81, Type (0, 0), BuildingBlock: XIVTED_clean_linker_0, # of connection points: 2
#     Edge 82, Type (0, 0), BuildingBlock: XIVTED_clean_linker_0, # of connection points: 2
#     Edge 83, Type (0, 0), BuildingBlock: XIVTED_clean_linker_0, # of connection points: 2
#     Edge 84, Type (0, 0), BuildingBlock: XIVTED_clean_linker_0, # of connection points: 2
#     Edge 85, Type (0, 0), BuildingBlock: XIVTED_clean_linker_0, # of connection points: 2
#     Edge 86, Type (0, 0), BuildingBlock: XIVTED_clean_linker_0, # of connection points: 2
#     Edge 87, Type (0, 0), BuildingBlock: XIVTED_clean_linker_0, # of connection points: 2
#     Edge 88, Type (0, 0), BuildingBlock: XIVTED_clean_linker_0, # of connection points: 2
#     Edge 89, Type (0, 0), BuildingBlock: XIVTED_clean_linker_0, # of connection points: 2
#     Edge 90, Type (0, 0), BuildingBlock: XIVTED_clean_linker_0, # of connection points: 2
#     Edge 91, Type (0, 0), BuildingBlock: XIVTED_clean_linker_0, # of connection points: 2
#     Edge 92, Type (0, 0), BuildingBlock: XIVTED_clean_linker_0, # of connection points: 2
#     Edge 93, Type (0, 0), BuildingBlock: XIVTED_clean_linker_0, # of connection points: 2
#     Edge 94, Type (0, 0), BuildingBlock: XIVTED_clean_linker_0, # of connection points: 2
#     Edge 95, Type (0, 0), BuildingBlock: XIVTED_clean_linker_0, # of connection points: 2
#     Edge 96, Type (0, 0), BuildingBlock: XIVTED_clean_linker_0, # of connection points: 2
#     Edge 97, Type (0, 0), BuildingBlock: XIVTED_clean_linker_0, # of connection points: 2
#     Edge 98, Type (0, 0), BuildingBlock: XIVTED_clean_linker_0, # of connection points: 2
#     Edge 99, Type (0, 0), BuildingBlock: XIVTED_clean_linker_0, # of connection points: 2
#     Edge 100, Type (0, 0), BuildingBlock: XIVTED_clean_linker_0, # of connection points: 2
#     Edge 101, Type (0, 0), BuildingBlock: XIVTED_clean_linker_0, # of connection points: 2
#     Edge 102, Type (0, 0), BuildingBlock: XIVTED_clean_linker_0, # of connection points: 2
#     Edge 103, Type (0, 0), BuildingBlock: XIVTED_clean_linker_0, # of connection points: 2
#     Edge 104, Type (0, 0), BuildingBlock: XIVTED_clean_linker_0, # of connection points: 2
#     Edge 105, Type (0, 0), BuildingBlock: XIVTED_clean_linker_0, # of connection points: 2
#     Edge 106, Type (0, 0), BuildingBlock: XIVTED_clean_linker_0, # of connection points: 2
#     Edge 107, Type (0, 0), BuildingBlock: XIVTED_clean_linker_0, # of connection points: 2
#     Edge 108, Type (0, 0), BuildingBlock: XIVTED_clean_linker_0, # of connection points: 2
#     Edge 109, Type (0, 0), BuildingBlock: XIVTED_clean_linker_0, # of connection points: 2
#     Edge 110, Type (0, 0), BuildingBlock: XIVTED_clean_linker_0, # of connection points: 2
#     Edge 111, Type (0, 0), BuildingBlock: XIVTED_clean_linker_0, # of connection points: 2
# Relax obj value: 0.781
# Max RMSD: 0.269
# Mean RMSD: 0.269
data_MOF--net-vbi--node1-BEQFEK_clean_sbu_0--edge1-XIVTED_clean_linker_0
_symmetry_space_group_name_H-M    P1
_symmetry_Int_Tables_number       1
_symmetry_cell_setting            triclinic
loop_
_symmetry_equiv_pos_as_xyz
'x, y, z'
_cell_length_a     27.678551
_cell_length_b     55.208581
_cell_length_c     81.025894
_cell_angle_alpha  90.022038
_cell_angle_beta   90.016412
_cell_angle_gamma 90.028898
loop_
_atom_site_label
_atom_site_type_symbol
_atom_site_fract_x
_atom_site_fract_y
_atom_site_fract_z
_atom_type_partial_charge
Co0 Co 0.36376 0.13711 0.03353 0.0
Co1 Co 0.26186 0.11189 0.03024 0.0
C2 C 0.27792 0.16231 0.01835 0.0
O3 O 0.32106 0.16081 0.02356 0.0
O4 O 0.24855 0.1444 0.01913 0.0
C5 C 0.45058 0.15608 0.01928 0.0
O6 O 0.4247 0.15739 0.00571 0.0
C7 C 0.17592 0.08206 0.01862 0.0
C8 C 0.16533 0.06033 0.0412 0.0
C9 C 0.1484 0.06298 0.02521 0.0
N10 N 0.20779 0.0896 0.03019 0.0
N11 N 0.20047 0.07666 0.04366 0.0
C12 C 0.17133 0.09362 0.002 0.0
H13 H 0.18785 0.11194 0.00211 0.0
H14 H 0.19048 0.08253 0.99267 0.0
H15 H 0.13271 0.09492 -0.00159 0.0
C16 C 0.39575 0.09261 0.0172 0.0
N17 N 0.36021 0.10695 0.0229 0.0
N18 N 0.31824 0.09599 0.02105 0.0
C19 C 0.32635 0.07418 0.01383 0.0
C20 C 0.37564 0.07174 0.01092 0.0
C21 C 0.44871 0.0972 0.01941 0.0
H22 H 0.45554 0.10661 0.03125 0.0
H23 H 0.46187 0.10836 0.00898 0.0
H24 H 0.46964 0.08007 0.0194 0.0
O25 O 0.34682 0.13338 0.0565 0.0
O26 O 0.27279 0.11823 0.05454 0.0
H27 H 0.26859 0.05147 0.02205 0.0
H28 H 0.30433 0.03864 0.0055 0.0
C29 C 0.28838 0.05558 0.01049 0.0
H30 H 0.26228 0.0629 0.00143 0.0
H31 H 0.22068 0.0784 0.05447 0.0
O32 O 0.43031 0.14945 0.03259 0.0
C33 C 0.30805 0.12603 0.06318 0.0
Co34 Co 0.89076 0.13309 0.03146 0.0
Co35 Co 0.99396 0.15724 0.02896 0.0
C36 C 0.97171 0.10842 0.014 0.0
O37 O 0.92898 0.10981 0.01953 0.0
O38 O 0.00229 0.12563 0.01592 0.0
C39 C 0.80087 0.11507 0.01848 0.0
O40 O 0.82494 0.11235 0.00463 0.0
C41 C 0.0743 0.1899 0.01685 0.0
C42 C 0.10948 0.19787 0.04069 0.0
C43 C 0.11035 0.2042 0.02415 0.0
N44 N 0.05259 0.17661 0.02873 0.0
N45 N 0.0749 0.18111 0.04282 0.0
C46 C 0.05837 0.18981 -0.00078 0.0
H47 H 0.02317 0.18035 -0.0021 0.0
H48 H 0.05558 0.20858 0.99444 0.0
H49 H 0.08565 0.18006 0.9917 0.0
C50 C 0.86009 0.17959 0.01786 0.0
N51 N 0.89566 0.16444 0.02248 0.0
N52 N 0.93758 0.17584 0.02195 0.0
C53 C 0.9289 0.19911 0.01731 0.0
C54 C 0.87985 0.20176 0.01416 0.0
C55 C 0.80717 0.17397 0.01859 0.0
H56 H 0.79837 0.16503 0.03045 0.0
H57 H 0.79773 0.16189 0.00817 0.0
H58 H 0.78462 0.1905 0.01758 0.0
O59 O 0.9113 0.13347 0.05433 0.0
O60 O 0.98542 0.14858 0.05289 0.0
H61 H 0.94724 0.23653 0.02112 0.0
H62 H 0.97975 0.22174 0.00497 0.0
C63 C 0.96493 0.21926 0.01755 0.0
H64 H 0.99442 0.21533 0.02637 0.0
H65 H 0.06508 0.17357 0.05414 0.0
O66 O 0.82311 0.12226 0.03129 0.0
C67 C 0.95054 0.13976 0.06122 0.0
Co68 Co 0.3641 0.12961 0.21647 0.0
Co69 Co 0.26114 0.15371 0.21887 0.0
C70 C 0.28265 0.10419 0.23294 0.0
O71 O 0.32565 0.10582 0.22773 0.0
O72 O 0.25221 0.12147 0.23118 0.0
C73 C 0.453 0.11043 0.22929 0.0
O74 O 0.42827 0.1068 0.24291 0.0
C75 C 0.18086 0.18597 0.23146 0.0
C76 C 0.144 0.19355 0.20787 0.0
C77 C 0.1438 0.19984 0.22442 0.0
N78 N 0.20238 0.17289 0.21943 0.0
N79 N 0.17915 0.17717 0.20549 0.0
C80 C 0.19777 0.18609 0.24899 0.0
H81 H 0.23343 0.17704 0.25009 0.0
H82 H 0.19998 0.20491 0.25373 0.0
H83 H 0.17134 0.17605 0.25668 0.0
C84 C 0.39465 0.17544 0.23117 0.0
N85 N 0.35911 0.16051 0.22617 0.0
N86 N 0.31739 0.17206 0.22642 0.0
C87 C 0.32623 0.19532 0.23109 0.0
C88 C 0.37512 0.19775 0.23472 0.0
C89 C 0.44748 0.16956 0.2307 0.0
H90 H 0.45691 0.16145 0.21863 0.0
H91 H 0.45578 0.1566 0.24074 0.0
H92 H 0.47047 0.1858 0.23251 0.0
O93 O 0.34415 0.13083 0.1935 0.0
O94 O 0.27008 0.14596 0.19482 0.0
H95 H 0.26134 0.21143 0.22142 0.0
H96 H 0.30901 0.23261 0.22629 0.0
C97 C 0.29074 0.21566 0.23022 0.0
H98 H 0.2756 0.21892 0.24268 0.0
H99 H 0.18855 0.16969 0.19411 0.0
O100 O 0.43152 0.11869 0.21664 0.0
C101 C 0.30517 0.13731 0.18652 0.0
Co102 Co 0.89204 0.13251 0.21454 0.0
Co103 Co 0.99559 0.10884 0.21645 0.0
C104 C 0.9739 0.15805 0.23079 0.0
O105 O 0.9307 0.15629 0.2258 0.0
O106 O 0.00459 0.14098 0.22873 0.0
C107 C 0.80359 0.1505 0.22833 0.0
O108 O 0.82873 0.15272 0.24201 0.0
C109 C 0.07813 0.07702 0.22807 0.0
C110 C 0.11405 0.07089 0.20413 0.0
C111 C 0.11557 0.06392 0.22054 0.0
N112 N 0.05512 0.0902 0.21641 0.0
N113 N 0.07785 0.08681 0.20226 0.0
C114 C 0.06259 0.07631 0.24573 0.0
H115 H 0.02722 0.08549 0.24732 0.0
H116 H 0.06026 0.05732 0.25013 0.0
H117 H 0.08983 0.08589 0.25338 0.0
C118 C 0.86267 0.08627 0.22881 0.0
N119 N 0.89789 0.10144 0.22391 0.0
N120 N 0.93995 0.09018 0.22425 0.0
C121 C 0.93169 0.06694 0.22907 0.0
C122 C 0.8828 0.0642 0.23261 0.0
C123 C 0.80962 0.09152 0.22776 0.0
H124 H 0.79919 0.10325 0.23826 0.0
H125 H 0.78748 0.0748 0.22838 0.0
H126 H 0.80123 0.10068 0.21596 0.0
O127 O 0.91064 0.13153 0.19148 0.0
O128 O 0.98497 0.11664 0.1925 0.0
H129 H 0.95059 0.02967 0.22488 0.0
H130 H 0.98251 0.04416 0.24128 0.0
C131 C 0.96795 0.04691 0.22868 0.0
H132 H 0.99758 0.05115 0.21999 0.0
H133 H 0.0675 0.09463 0.1911 0.0
O134 O 0.82464 0.14344 0.21527 0.0
C135 C 0.94942 0.12512 0.18435 0.0
Co136 Co 0.63855 0.88707 0.95908 0.0
Co137 Co 0.74186 0.91085 0.96147 0.0
C138 C 0.72142 0.86091 0.97441 0.0
O139 O 0.67833 0.86269 0.96929 0.0
O140 O 0.75152 0.87842 0.97321 0.0
C141 C 0.55148 0.86761 0.97288 0.0
O142 O 0.57781 0.8645 0.98621 0.0
C143 C 0.82383 0.94188 0.97415 0.0
C144 C 0.85901 0.95074 0.95047 0.0
C145 C 0.86087 0.95593 0.9672 0.0
N146 N 0.80085 0.92983 0.96193 0.0
N147 N 0.82304 0.93487 0.94792 0.0
C148 C 0.80844 0.94069 0.99182 0.0
H149 H 0.77314 0.93128 0.99297 0.0
H150 H 0.80594 0.95915 -0.00286 0.0
H151 H 0.83579 0.93038 -0.00105 0.0
C152 C 0.6093 0.93217 0.97503 0.0
N153 N 0.64439 0.91746 0.96944 0.0
N154 N 0.68632 0.92884 0.96987 0.0
C155 C 0.67813 0.95173 0.97542 0.0
C156 C 0.62943 0.95407 0.97931 0.0
C157 C 0.5563 0.92666 0.97444 0.0
H158 H 0.54682 0.91848 0.96239 0.0
H159 H 0.54731 0.91391 0.98453 0.0
H160 H 0.53389 0.94313 0.97608 0.0
O161 O 0.65615 0.88978 0.93602 0.0
O162 O 0.73104 0.90401 0.93735 0.0
H163 H 0.74321 0.96836 0.96633 0.0
H164 H 0.69628 0.9893 0.97231 0.0
C165 C 0.71415 0.97189 0.97539 0.0
H166 H 0.72962 0.97381 0.98793 0.0
H167 H 0.81246 0.92821 0.93642 0.0
O168 O 0.57128 0.87582 0.9599 0.0
C169 C 0.69506 0.89632 0.92903 0.0
Co170 Co 0.10582 0.88438 0.96564 0.0
Co171 Co 1.00056 0.86271 0.96758 0.0
C172 C 0.0263 0.91284 0.98046 0.0
O173 O 0.06955 0.91012 0.97569 0.0
O174 O 0.99467 0.896 0.97893 0.0
C175 C 0.19872 0.90323 0.9765 0.0
O176 O 0.17672 0.91026 0.99004 0.0
C177 C 0.9183 0.83107 0.97974 0.0
C178 C 0.87938 0.82639 0.95618 0.0
C179 C 0.88024 0.81827 0.97235 0.0
N180 N 0.93965 0.84512 0.96818 0.0
N181 N 0.91498 0.84268 0.95432 0.0
C182 C 0.93592 0.82913 -0.00287 0.0
H183 H 0.97165 0.83803 -0.00147 0.0
H184 H 0.93808 0.80988 0.00097 0.0
H185 H 0.90982 0.83836 0.0054 0.0
C186 C 0.13052 0.83962 0.98268 0.0
N187 N 0.09682 0.85467 0.97656 0.0
N188 N 0.05464 0.84354 0.97597 0.0
C189 C 0.06168 0.82025 0.98086 0.0
C190 C 0.10954 0.81748 0.9857 0.0
C191 C 0.18322 0.84544 0.98417 0.0
H192 H 0.19789 0.85019 0.97187 0.0
H193 H 0.18776 0.86098 0.99267 0.0
H194 H 0.20448 0.83004 0.98911 0.0
O195 O 0.08715 0.88141 0.94261 0.0
O196 O 0.01146 0.86843 0.94345 0.0
H197 H 0.04536 0.78389 0.97343 0.0
H198 H 0.01191 0.79456 0.99076 0.0
C199 C 0.02655 0.79997 0.97858 0.0
H200 H 0.99701 0.80524 0.97012 0.0
H201 H 0.92392 0.85122 0.94325 0.0
O202 O 0.17458 0.89305 0.96512 0.0
C203 C 0.04836 0.87535 0.93535 0.0
Co204 Co 0.64146 0.8841 0.77566 0.0
Co205 Co 0.74483 0.86028 0.77445 0.0
C206 C 0.72349 0.90957 0.75982 0.0
O207 O 0.67993 0.90787 0.76446 0.0
O208 O 0.75404 0.8925 0.7622 0.0
C209 C 0.55114 0.90315 0.76314 0.0
O210 O 0.57455 0.90734 0.74932 0.0
C211 C 0.82569 0.82747 0.76302 0.0
C212 C 0.86265 0.82197 0.78686 0.0
C213 C 0.86282 0.81431 0.77059 0.0
N214 N 0.80404 0.84148 0.77452 0.0
N215 N 0.8274 0.83847 0.78859 0.0
C216 C 0.8089 0.82581 0.74551 0.0
H217 H 0.77317 0.83466 0.74401 0.0
H218 H 0.80697 0.80661 0.74151 0.0
H219 H 0.8353 0.83524 0.73746 0.0
C220 C 0.61261 0.83808 0.76097 0.0
N221 N 0.64762 0.85317 0.76615 0.0
N222 N 0.68927 0.84158 0.76669 0.0
C223 C 0.68074 0.81809 0.76256 0.0
C224 C 0.6323 0.81554 0.7583 0.0
C225 C 0.55986 0.84417 0.76048 0.0
H226 H 0.54846 0.85159 0.77256 0.0
H227 H 0.55358 0.8578 0.7507 0.0
H228 H 0.53696 0.82819 0.75773 0.0
O229 O 0.6603 0.88336 0.79881 0.0
O230 O 0.73448 0.86834 0.79826 0.0
H231 H 0.69671 0.78141 0.76949 0.0
H232 H 0.73119 0.79283 0.75258 0.0
C233 C 0.71566 0.7977 0.76474 0.0
H234 H 0.74479 0.80276 0.77344 0.0
H235 H 0.81794 0.84687 0.79966 0.0
O236 O 0.57379 0.89456 0.77544 0.0
C237 C 0.69881 0.87711 0.80617 0.0
Co238 Co 0.11633 0.87894 0.78266 0.0
Co239 Co 0.01471 0.90422 0.77942 0.0
C240 C 0.03145 0.85537 0.76543 0.0
O241 O 0.07415 0.8566 0.77106 0.0
O242 O 1.00152 0.87292 0.76686 0.0
C243 C 0.20115 0.86255 0.76671 0.0
O244 O 0.17347 0.86365 0.75355 0.0
C245 C 0.92841 0.93495 0.76936 0.0
C246 C 0.92213 0.95641 0.79226 0.0
C247 C 0.90276 0.95417 0.77657 0.0
N248 N 0.9616 0.92691 0.7803 0.0
N249 N 0.95687 0.9397 0.79398 0.0
C250 C 0.92085 0.92374 0.75275 0.0
H251 H 0.93612 0.90517 0.75247 0.0
H252 H 0.9395 0.93467 0.74321 0.0
H253 H 0.88172 0.92312 0.74975 0.0
C254 C 0.14933 0.92517 0.76912 0.0
N255 N 0.11348 0.91023 0.77377 0.0
N256 N 0.07151 0.92083 0.77131 0.0
C257 C 0.07983 0.94286 0.76447 0.0
C258 C 0.12949 0.946 0.76263 0.0
C259 C 0.20183 0.92118 0.77272 0.0
H260 H 0.20646 0.9097 0.7838 0.0
H261 H 0.21907 0.91248 0.7619 0.0
H262 H 0.22055 0.93868 0.77491 0.0
O263 O 0.09792 0.87964 0.8056 0.0
O264 O 0.02445 0.89536 0.8034 0.0
H265 H 0.02205 0.96652 0.77116 0.0
H266 H 0.05643 0.97657 0.75345 0.0
C267 C 0.04126 0.96053 0.75987 0.0
H268 H 0.01477 0.95149 0.75169 0.0
H269 H 0.97861 0.93757 0.8044 0.0
O270 O 0.18265 0.86672 0.78077 0.0
C271 C 0.05844 0.88638 0.8121 0.0
Co272 Co 0.3706 0.63827 0.53272 0.0
Co273 Co 0.26889 0.61274 0.53024 0.0
C274 C 0.28509 0.66202 0.51634 0.0
O275 O 0.32823 0.66092 0.52159 0.0
O276 O 0.25545 0.64435 0.51799 0.0
C277 C 0.45704 0.65628 0.51782 0.0
O278 O 0.43089 0.65679 0.50428 0.0
C279 C 0.18274 0.58187 0.52006 0.0
C280 C 0.17399 0.5616 0.54335 0.0
C281 C 0.15597 0.56314 0.52743 0.0
N282 N 0.21521 0.59028 0.53114 0.0
N283 N 0.209 0.57819 0.54504 0.0
C284 C 0.17695 0.59229 0.50314 0.0
H285 H 0.19357 0.61057 0.50251 0.0
H286 H 0.19531 0.58053 0.494 0.0
H287 H 0.13808 0.59342 0.49985 0.0
C288 C 0.40285 0.59252 0.51807 0.0
N289 N 0.36732 0.60723 0.52333 0.0
N290 N 0.32533 0.59623 0.52167 0.0
C291 C 0.33339 0.57405 0.51501 0.0
C292 C 0.38271 0.57137 0.51229 0.0
C293 C 0.45582 0.59731 0.52003 0.0
H294 H 0.4628 0.60761 0.53151 0.0
H295 H 0.46878 0.60767 0.50919 0.0
H296 H 0.47673 0.58018 0.52057 0.0
O297 O 0.35323 0.63682 0.55578 0.0
O298 O 0.27969 0.62106 0.55422 0.0
H299 H 0.27551 0.55163 0.52346 0.0
H300 H 0.31104 0.5384 0.50701 0.0
C301 C 0.29526 0.55547 0.51185 0.0
H302 H 0.26914 0.56269 0.50275 0.0
H303 H 0.22988 0.5807 0.55563 0.0
O304 O 0.43701 0.65052 0.53136 0.0
C305 C 0.31444 0.62986 0.56264 0.0
Co306 Co 0.89361 0.6304 0.53096 0.0
Co307 Co 0.99415 0.65603 0.52457 0.0
C308 C 0.97209 0.60693 0.511 0.0
O309 O 0.93119 0.608 0.51797 0.0
O310 O 0.00214 0.62454 0.51159 0.0
C311 C 0.80539 0.61264 0.51793 0.0
O312 O 0.83017 0.61212 0.5041 0.0
C313 C 0.07486 0.68897 0.51227 0.0
C314 C 0.10938 0.69671 0.53625 0.0
C315 C 0.11121 0.70291 0.51972 0.0
N316 N 0.05202 0.676 0.52408 0.0
N317 N 0.07398 0.6804 0.53826 0.0
C318 C 0.06038 0.68865 0.4945 0.0
H319 H 0.02601 0.67856 0.49284 0.0
H320 H 0.05665 0.70742 0.48979 0.0
H321 H 0.08893 0.67946 0.48721 0.0
C322 C 0.85699 0.6768 0.51869 0.0
N323 N 0.89452 0.66213 0.5221 0.0
N324 N 0.93544 0.67351 0.51886 0.0
C325 C 0.92425 0.69603 0.51327 0.0
C326 C 0.87429 0.69834 0.51261 0.0
C327 C 0.80522 0.67158 0.52271 0.0
H328 H 0.80251 0.66074 0.53416 0.0
H329 H 0.78864 0.6617 0.51225 0.0
H330 H 0.7844 0.68856 0.52451 0.0
O331 O 0.91866 0.62994 0.55335 0.0
O332 O 0.98947 0.64746 0.54852 0.0
H333 H 0.94294 0.73378 0.51129 0.0
H334 H 0.97135 0.71418 0.49659 0.0
C335 C 0.95975 0.71569 0.50964 0.0
H336 H 0.9915 0.71416 0.51787 0.0
H337 H 0.06381 0.67298 0.54956 0.0
O338 O 0.8269 0.6183 0.53124 0.0
C339 C 0.95937 0.63761 0.55831 0.0
Co340 Co 0.36211 0.63175 0.71622 0.0
Co341 Co 0.25785 0.6545 0.71817 0.0
C342 C 0.28163 0.60422 0.73116 0.0
O343 O 0.3251 0.60644 0.72648 0.0
O344 O 0.25071 0.62131 0.72945 0.0
C345 C 0.45502 0.61227 0.72673 0.0
O346 O 0.43332 0.60506 0.74029 0.0
C347 C 0.17647 0.68661 0.73044 0.0
C348 C 0.13666 0.69089 0.70702 0.0
C349 C 0.13797 0.69912 0.72315 0.0
N350 N 0.19752 0.67246 0.71887 0.0
N351 N 0.1724 0.67472 0.70508 0.0
C352 C 0.19476 0.68897 0.74773 0.0
H353 H 0.23075 0.68033 0.74902 0.0
H354 H 0.19657 0.70832 0.75139 0.0
H355 H 0.16924 0.67972 0.7562 0.0
C356 C 0.38884 0.67651 0.733 0.0
N357 N 0.35441 0.66163 0.72713 0.0
N358 N 0.31273 0.67317 0.72645 0.0
C359 C 0.32087 0.69655 0.73093 0.0
C360 C 0.36891 0.699 0.73574 0.0
C361 C 0.44148 0.67035 0.734 0.0
H362 H 0.44628 0.65485 0.74251 0.0
H363 H 0.46368 0.68561 0.73864 0.0
H364 H 0.45495 0.6654 0.72157 0.0
O365 O 0.34295 0.63452 0.69315 0.0
O366 O 0.26806 0.64854 0.6941 0.0
H367 H 0.25667 0.71166 0.71995 0.0
H368 H 0.30567 0.73281 0.72294 0.0
C369 C 0.28641 0.71703 0.72832 0.0
H370 H 0.27179 0.7229 0.74041 0.0
H371 H 0.18097 0.66604 0.69403 0.0
O372 O 0.43062 0.62262 0.71551 0.0
C373 C 0.30432 0.64097 0.68595 0.0
Co374 Co 0.89221 0.63553 0.70666 0.0
Co375 Co 0.99261 0.60986 0.71335 0.0
C376 C 0.9713 0.65871 0.72692 0.0
O377 O 0.93063 0.65766 0.71976 0.0
O378 O 1.00125 0.64106 0.72649 0.0
C379 C 0.80562 0.65233 0.72081 0.0
O380 O 0.8321 0.65166 0.73427 0.0
C381 C 0.07398 0.57715 0.7254 0.0
C382 C 0.10411 0.56703 0.70116 0.0
C383 C 0.10866 0.56222 0.71785 0.0
N384 N 0.04962 0.58928 0.71353 0.0
N385 N 0.06891 0.58341 0.69916 0.0
C386 C 0.0625 0.57934 0.74336 0.0
H387 H 0.02964 0.59054 0.74522 0.0
H388 H 0.05719 0.56112 0.74885 0.0
H389 H 0.09318 0.58822 0.74978 0.0
C390 C 0.85544 0.58911 0.71877 0.0
N391 N 0.89302 0.60369 0.71528 0.0
N392 N 0.93379 0.59266 0.71915 0.0
C393 C 0.92248 0.5706 0.72551 0.0
C394 C 0.87248 0.5681 0.72577 0.0
C395 C 0.80398 0.59381 0.71406 0.0
H396 H 0.802 0.60522 0.70284 0.0
H397 H 0.78532 0.60279 0.72448 0.0
H398 H 0.7847 0.57655 0.71156 0.0
O399 O 0.91691 0.63622 0.68429 0.0
O400 O 0.9877 0.61885 0.68941 0.0
H401 H 0.98949 0.5517 0.72259 0.0
H402 H 0.94154 0.53375 0.7315 0.0
C403 C 0.95813 0.55204 0.73105 0.0
H404 H 0.97047 0.55669 0.74367 0.0
H405 H 0.057 0.5899 0.68779 0.0
O406 O 0.82545 0.64771 0.70703 0.0
C407 C 0.95786 0.62866 0.6795 0.0
Co408 Co 0.63954 0.38291 0.46321 0.0
Co409 Co 0.7435 0.4062 0.46433 0.0
C410 C 0.722 0.35728 0.47903 0.0
O411 O 0.67857 0.35911 0.47427 0.0
O412 O 0.75279 0.37427 0.47678 0.0
C413 C 0.55157 0.36452 0.47734 0.0
O414 O 0.57764 0.361 0.49068 0.0
C415 C 0.82619 0.43808 0.4754 0.0
C416 C 0.86063 0.44456 0.45124 0.0
C417 C 0.8628 0.45148 0.46766 0.0
N418 N 0.80295 0.42478 0.46387 0.0
N419 N 0.82481 0.42836 0.44958 0.0
C420 C 0.8114 0.43874 0.49315 0.0
H421 H 0.77604 0.42958 0.49488 0.0
H422 H 0.8094 0.4577 0.49762 0.0
H423 H 0.8389 0.42909 0.50063 0.0
C424 C 0.61202 0.42917 0.47791 0.0
N425 N 0.64651 0.41395 0.47252 0.0
N426 N 0.68866 0.42514 0.47233 0.0
C427 C 0.68112 0.44844 0.47714 0.0
C428 C 0.63273 0.45126 0.4813 0.0
C429 C 0.55898 0.42371 0.47811 0.0
H430 H 0.54808 0.4154 0.46624 0.0
H431 H 0.55117 0.41107 0.48838 0.0
H432 H 0.53682 0.44022 0.47996 0.0
O433 O 0.65704 0.38345 0.43999 0.0
O434 O 0.73179 0.39787 0.44058 0.0
H435 H 0.69934 0.48555 0.47218 0.0
H436 H 0.73294 0.47172 0.48844 0.0
C437 C 0.71724 0.46849 0.47605 0.0
H438 H 0.74605 0.46402 0.4671 0.0
H439 H 0.81396 0.42054 0.43846 0.0
O440 O 0.57187 0.37245 0.46437 0.0
C441 C 0.69579 0.3894 0.43266 0.0
Co442 Co 0.1103 0.38729 0.46647 0.0
Co443 Co 0.00591 0.36455 0.46897 0.0
C444 C 0.03067 0.41298 0.48394 0.0
O445 O 0.07345 0.41078 0.47862 0.0
O446 O 0.99888 0.39642 0.48178 0.0
C447 C 0.20025 0.40323 0.48013 0.0
O448 O 0.17602 0.4043 0.49406 0.0
C449 C 0.92325 0.33302 0.48078 0.0
C450 C 0.88777 0.32623 0.45683 0.0
C451 C 0.88636 0.31948 0.47329 0.0
N452 N 0.94603 0.34616 0.46905 0.0
N453 N 0.92347 0.34243 0.45491 0.0
C454 C 0.93871 0.33262 0.49846 0.0
H455 H 0.97408 0.34185 0.49999 0.0
H456 H 0.94096 0.31373 0.50304 0.0
H457 H 0.91141 0.34232 0.50599 0.0
C458 C 0.13901 0.34007 0.47924 0.0
N459 N 0.10402 0.35579 0.47504 0.0
N460 N 0.06144 0.34509 0.47595 0.0
C461 C 0.06903 0.32172 0.48062 0.0
C462 C 0.11818 0.31827 0.48334 0.0
C463 C 0.19212 0.34452 0.47726 0.0
H464 H 0.19913 0.35465 0.46572 0.0
H465 H 0.20545 0.35496 0.48801 0.0
H466 H 0.21283 0.32734 0.47665 0.0
O467 O 0.08946 0.38799 0.44367 0.0
O468 O 0.01504 0.37325 0.44505 0.0
H469 H 1.0016 0.30647 0.47251 0.0
H470 H 0.04724 0.28452 0.47774 0.0
C471 C 0.03145 0.3023 0.48112 0.0
H472 H 0.01759 0.30066 0.49389 0.0
H473 H 0.93383 0.35008 0.44369 0.0
O474 O 0.17815 0.3976 0.46694 0.0
C475 C 0.04992 0.38217 0.43677 0.0
Co476 Co 0.64376 0.38178 0.2796 0.0
Co477 Co 0.74783 0.35901 0.27728 0.0
C478 C 0.72482 0.40938 0.26483 0.0
O479 O 0.68158 0.40712 0.26972 0.0
O480 O 0.7555 0.3921 0.26604 0.0
C481 C 0.55254 0.40134 0.26813 0.0
O482 O 0.57546 0.40714 0.25449 0.0
C483 C 0.82981 0.3273 0.265 0.0
C484 C 0.86945 0.32299 0.28845 0.0
C485 C 0.86859 0.31494 0.27226 0.0
N486 N 0.80821 0.34112 0.27663 0.0
N487 N 0.83321 0.33886 0.29044 0.0
C488 C 0.81193 0.32528 0.24764 0.0
H489 H 0.77607 0.33405 0.24632 0.0
H490 H 0.80988 0.306 0.24385 0.0
H491 H 0.83776 0.33457 0.23931 0.0
C492 C 0.61638 0.33708 0.26279 0.0
N493 N 0.65101 0.35192 0.26859 0.0
N494 N 0.69283 0.34046 0.26889 0.0
C495 C 0.68471 0.31721 0.26408 0.0
C496 C 0.63645 0.31478 0.25953 0.0
C497 C 0.56352 0.34296 0.26245 0.0
H498 H 0.5517 0.34894 0.27486 0.0
H499 H 0.5572 0.35762 0.25339 0.0
H500 H 0.54097 0.32723 0.25883 0.0
O501 O 0.66215 0.37853 0.30264 0.0
O502 O 0.73736 0.36494 0.3014 0.0
H503 H 0.70078 0.28064 0.27114 0.0
H504 H 0.73377 0.29155 0.25376 0.0
C505 C 0.71956 0.29675 0.26605 0.0
H506 H 0.74953 0.30182 0.27441 0.0
H507 H 0.82433 0.34737 0.30153 0.0
O508 O 0.57573 0.39165 0.27992 0.0
C509 C 0.70106 0.37216 0.30969 0.0
Co510 Co 0.11584 0.37985 0.28482 0.0
Co511 Co 0.0141 0.40443 0.28012 0.0
C512 C 0.03144 0.35434 0.26851 0.0
O513 O 0.07372 0.35619 0.27444 0.0
O514 O 1.00162 0.37209 0.26868 0.0
C515 C 0.20176 0.36176 0.27024 0.0
O516 O 0.17522 0.36154 0.2568 0.0
C517 C 0.92741 0.43443 0.26905 0.0
C518 C 0.9219 0.45766 0.29116 0.0
C519 C 0.90199 0.45421 0.27566 0.0
N520 N 0.96097 0.42723 0.28014 0.0
N521 N 0.95668 0.44109 0.29334 0.0
C522 C 0.91928 0.42196 0.2529 0.0
H523 H 0.93434 0.40334 0.25325 0.0
H524 H 0.93783 0.43207 0.24292 0.0
H525 H 0.88008 0.42124 0.25003 0.0
C526 C 0.14873 0.42433 0.26877 0.0
N527 N 0.11294 0.40994 0.27421 0.0
N528 N 0.07093 0.42028 0.27131 0.0
C529 C 0.07917 0.44155 0.26342 0.0
C530 C 0.1288 0.44444 0.26133 0.0
C531 C 0.20128 0.42076 0.27249 0.0
H532 H 0.20604 0.41064 0.28417 0.0
H533 H 0.21832 0.41078 0.26216 0.0
H534 H 0.22011 0.43843 0.27368 0.0
O535 O 0.09785 0.38365 0.30759 0.0
O536 O 0.02353 0.398 0.30452 0.0
H537 H 0.02137 0.46573 0.26915 0.0
H538 H 0.05579 0.47425 0.25107 0.0
C539 C 0.0406 0.45878 0.25812 0.0
H540 H 0.0141 0.44905 0.25031 0.0
H541 H 0.97876 0.43981 0.30374 0.0
O542 O 0.18221 0.36746 0.28388 0.0
C543 C 0.05808 0.39072 0.31368 0.0
Co544 Co 0.86834 0.138 0.53273 0.0
Co545 Co 0.76672 0.11286 0.52858 0.0
C546 C 0.78376 0.16279 0.51624 0.0
O547 O 0.82636 0.16133 0.52197 0.0
O548 O 0.75406 0.145 0.51695 0.0
C549 C 0.95604 0.15586 0.51875 0.0
O550 O 0.93092 0.15633 0.50498 0.0
C551 C 0.68043 0.08248 0.51761 0.0
C552 C 0.67302 0.06057 0.54026 0.0
C553 C 0.65417 0.06321 0.52454 0.0
N554 N 0.71339 0.09018 0.52877 0.0
N555 N 0.708 0.07709 0.54228 0.0
C556 C 0.67368 0.094 0.50107 0.0
H557 H 0.68966 0.11244 0.50097 0.0
H558 H 0.69214 0.08303 0.4915 0.0
H559 H 0.63466 0.09499 0.49796 0.0
C560 C 0.90142 0.09301 0.51726 0.0
N561 N 0.86559 0.10755 0.52249 0.0
N562 N 0.82364 0.09687 0.51999 0.0
C563 C 0.83201 0.07516 0.51269 0.0
C564 C 0.88156 0.07241 0.51047 0.0
C565 C 0.95408 0.09699 0.52057 0.0
H566 H 0.95926 0.10725 0.53217 0.0
H567 H 0.97011 0.10699 0.51006 0.0
H568 H 0.97358 0.07951 0.52169 0.0
O569 O 0.84983 0.13498 0.55557 0.0
O570 O 0.77602 0.11989 0.55283 0.0
H571 H 0.77429 0.05162 0.51969 0.0
H572 H 0.80937 0.04089 0.50232 0.0
C573 C 0.79377 0.05716 0.50834 0.0
H574 H 0.76742 0.06572 0.49988 0.0
H575 H 0.72939 0.07888 0.55281 0.0
O576 O 0.93489 0.15028 0.53212 0.0
C577 C 0.81035 0.12781 0.56184 0.0
Co578 Co 0.38993 0.12791 0.5319 0.0
Co579 Co 0.48762 0.15549 0.52456 0.0
C580 C 0.47063 0.1065 0.51114 0.0
O581 O 0.4302 0.10689 0.51852 0.0
O582 O 0.49946 0.12467 0.51133 0.0
C583 C 0.30326 0.11005 0.51843 0.0
O584 O 0.32878 0.11084 0.50477 0.0
C585 C 0.57134 0.18764 0.51344 0.0
C586 C 0.57561 0.21011 0.53595 0.0
C587 C 0.59602 0.20735 0.52047 0.0
N588 N 0.53801 0.17967 0.52436 0.0
N589 N 0.54136 0.19318 0.53776 0.0
C590 C 0.57957 0.17609 0.497 0.0
H591 H 0.56441 0.15747 0.49683 0.0
H592 H 0.56106 0.18685 0.48732 0.0
H593 H 0.61879 0.17549 0.49416 0.0
C594 C 0.34938 0.17369 0.51967 0.0
N595 N 0.3875 0.15948 0.52316 0.0
N596 N 0.42753 0.1706 0.51875 0.0
C597 C 0.41563 0.19214 0.51187 0.0
C598 C 0.36558 0.19448 0.51204 0.0
C599 C 0.29851 0.16896 0.52505 0.0
H600 H 0.29774 0.15714 0.53608 0.0
H601 H 0.27843 0.16042 0.51475 0.0
H602 H 0.27989 0.18621 0.52808 0.0
O603 O 0.41626 0.12783 0.55404 0.0
O604 O 0.48579 0.14626 0.54852 0.0
H605 H 0.47093 0.21844 0.51578 0.0
H606 H 0.43321 0.22442 0.49803 0.0
C607 C 0.45132 0.21001 0.50531 0.0
H608 H 0.47815 0.20051 0.49748 0.0
H609 H 0.51931 0.19119 0.54811 0.0
O610 O 0.3241 0.11459 0.53206 0.0
C611 C 0.45711 0.13588 0.55857 0.0
Co612 Co 0.86455 0.13069 0.71533 0.0
Co613 Co 0.75995 0.15324 0.717 0.0
C614 C 0.78439 0.10451 0.73192 0.0
O615 O 0.8277 0.10663 0.72705 0.0
O616 O 0.7529 0.12112 0.72948 0.0
C617 C 0.95716 0.11381 0.72748 0.0
O618 O 0.93525 0.11022 0.74165 0.0
C619 C 0.67673 0.18462 0.72847 0.0
C620 C 0.64054 0.19013 0.70449 0.0
C621 C 0.6393 0.19753 0.72082 0.0
N622 N 0.69964 0.17118 0.71694 0.0
N623 N 0.67666 0.17413 0.70279 0.0
C624 C 0.69244 0.18592 0.7461 0.0
H625 H 0.7282 0.17713 0.74774 0.0
H626 H 0.69391 0.20501 0.75033 0.0
H627 H 0.66567 0.17622 0.75387 0.0
C628 C 0.89161 0.17734 0.7296 0.0
N629 N 0.85724 0.16183 0.72448 0.0
N630 N 0.81474 0.17268 0.72459 0.0
C631 C 0.82189 0.19604 0.72937 0.0
C632 C 0.87045 0.19925 0.73319 0.0
C633 C 0.94484 0.17242 0.72921 0.0
H634 H 0.95489 0.16425 0.71722 0.0
H635 H 0.95413 0.15987 0.73938 0.0
H636 H 0.96656 0.18915 0.73078 0.0
O637 O 0.84472 0.13069 0.69236 0.0
O638 O 0.77023 0.14524 0.6931 0.0
H639 H 0.75559 0.21103 0.71999 0.0
H640 H 0.80203 0.23297 0.72453 0.0
C641 C 0.78506 0.21578 0.72863 0.0
H642 H 0.77047 0.21895 0.74118 0.0
H643 H 0.68696 0.16609 0.69169 0.0
O644 O 0.93287 0.12115 0.71517 0.0
C645 C 0.80588 0.13662 0.6851 0.0
Co646 Co 0.39158 0.13722 0.70627 0.0
Co647 Co 0.4898 0.11003 0.71349 0.0
C648 C 0.47329 0.15922 0.7264 0.0
O649 O 0.43268 0.15859 0.71914 0.0
O650 O 0.50201 0.14103 0.72646 0.0
C651 C 0.30683 0.15516 0.72068 0.0
O652 O 0.33423 0.15435 0.73392 0.0
C653 C 0.57417 0.07816 0.72446 0.0
C654 C 0.57843 0.05572 0.70193 0.0
C655 C 0.59907 0.05862 0.71736 0.0
N656 N 0.54047 0.08598 0.71361 0.0
N657 N 0.54378 0.07246 0.70021 0.0
C658 C 0.58284 0.08975 0.74087 0.0
H659 H 0.56833 0.10849 0.74097 0.0
H660 H 0.56396 0.07922 0.75058 0.0
H661 H 0.62206 0.09 0.74373 0.0
C662 C 0.35188 0.09165 0.71908 0.0
N663 N 0.38982 0.10583 0.71529 0.0
N664 N 0.43005 0.09492 0.7197 0.0
C665 C 0.4185 0.07358 0.72693 0.0
C666 C 0.36843 0.0711 0.72696 0.0
C667 C 0.30092 0.09617 0.71369 0.0
H668 H 0.30001 0.10773 0.70253 0.0
H669 H 0.28088 0.10501 0.72388 0.0
H670 H 0.28235 0.07882 0.71089 0.0
O671 O 0.41663 0.13692 0.68398 0.0
O672 O 0.48672 0.11897 0.68946 0.0
H673 H 0.47371 0.04713 0.72342 0.0
H674 H 0.43698 0.04217 0.74156 0.0
C675 C 0.4546 0.05615 0.73377 0.0
H676 H 0.48176 0.06614 0.74117 0.0
H677 H 0.52151 0.07434 0.6899 0.0
O678 O 0.32567 0.15047 0.70674 0.0
C679 C 0.45752 0.12899 0.6794 0.0
Co680 Co 0.14 0.88222 0.46205 0.0
Co681 Co 0.24311 0.90655 0.46337 0.0
C682 C 0.22352 0.85809 0.4786 0.0
O683 O 0.18023 0.85948 0.47364 0.0
O684 O 0.25389 0.87522 0.47626 0.0
C685 C 0.05354 0.86532 0.47747 0.0
O686 O 0.08007 0.86525 0.49093 0.0
C687 C 0.32612 0.93857 0.47402 0.0
C688 C 0.35717 0.94671 0.44956 0.0
C689 C 0.36155 0.95258 0.46612 0.0
N690 N 0.30155 0.9259 0.46248 0.0
N691 N 0.32132 0.9305 0.44798 0.0
C692 C 0.31362 0.93804 0.49196 0.0
H693 H 0.27886 0.92843 0.49396 0.0
H694 H 0.31138 0.95671 0.49696 0.0
H695 H 0.34241 0.92826 0.49877 0.0
C696 C 0.10982 0.92909 0.47502 0.0
N697 N 0.14527 0.91384 0.47047 0.0
N698 N 0.18734 0.92508 0.47109 0.0
C699 C 0.179 0.94827 0.47601 0.0
C700 C 0.12987 0.95108 0.4791 0.0
C701 C 0.05682 0.92403 0.47339 0.0
H702 H 0.04962 0.91334 0.4621 0.0
H703 H 0.04441 0.91396 0.48442 0.0
H704 H 0.03546 0.94099 0.47259 0.0
O705 O 0.15767 0.88188 0.43897 0.0
O706 O 0.23162 0.89733 0.43969 0.0
H707 H 0.24459 0.96477 0.46736 0.0
H708 H 0.19898 0.98587 0.47417 0.0
C709 C 0.21587 0.96801 0.4766 0.0
H710 H 0.23174 0.96871 0.48914 0.0
H711 H 0.30911 0.92334 0.43682 0.0
O712 O 0.07309 0.87071 0.46378 0.0
C713 C 0.19638 0.88814 0.43174 0.0
Co714 Co 0.61212 0.88559 0.46714 0.0
Co715 Co 0.50769 0.86291 0.46849 0.0
C716 C 0.53085 0.91246 0.48243 0.0
O717 O 0.57434 0.91018 0.47784 0.0
O718 O 0.4997 0.89557 0.48034 0.0
C719 C 0.70227 0.90377 0.48016 0.0
O720 O 0.67802 0.90803 0.4938 0.0
C721 C 0.42543 0.83131 0.48043 0.0
C722 C 0.38813 0.82545 0.45668 0.0
C723 C 0.38779 0.81819 0.47305 0.0
N724 N 0.44754 0.84478 0.46872 0.0
N725 N 0.42395 0.84159 0.45471 0.0
C726 C 0.44212 0.83019 0.49796 0.0
H727 H 0.47785 0.83909 0.49936 0.0
H728 H 0.44402 0.81114 0.50223 0.0
H729 H 0.41567 0.83986 0.50587 0.0
C730 C 0.63877 0.83962 0.48241 0.0
N731 N 0.60448 0.85496 0.477 0.0
N732 N 0.56226 0.84385 0.47666 0.0
C733 C 0.5696 0.82044 0.48124 0.0
C734 C 0.61789 0.81748 0.48557 0.0
C735 C 0.69191 0.84488 0.4824 0.0
H736 H 0.70007 0.85802 0.49235 0.0
H737 H 0.714 0.82844 0.48455 0.0
H738 H 0.70268 0.85255 0.47032 0.0
O739 O 0.59391 0.8842 0.44399 0.0
O740 O 0.51903 0.86997 0.44449 0.0
H741 H 0.55153 0.78371 0.47501 0.0
H742 H 0.51834 0.79615 0.49185 0.0
C743 C 0.53361 0.80041 0.47955 0.0
H744 H 0.50449 0.80545 0.47085 0.0
H745 H 0.43365 0.84959 0.44353 0.0
O746 O 0.68016 0.89551 0.46763 0.0
C747 C 0.5554 0.87805 0.43658 0.0
Co748 Co 0.13929 0.88394 0.27916 0.0
Co749 Co 0.24143 0.85904 0.27609 0.0
C750 C 0.22426 0.90832 0.26267 0.0
O751 O 0.1814 0.9068 0.26812 0.0
O752 O 0.25436 0.8908 0.26396 0.0
C753 C 0.05165 0.90032 0.26423 0.0
O754 O 0.07651 0.89907 0.25045 0.0
C755 C 0.32767 0.82813 0.2661 0.0
C756 C 0.33598 0.80796 0.28946 0.0
C757 C 0.35402 0.80939 0.27357 0.0
N758 N 0.2952 0.83669 0.27711 0.0
N759 N 0.30121 0.82469 0.29106 0.0
C760 C 0.33435 0.83854 0.24921 0.0
H761 H 0.3201 0.85732 0.24875 0.0
H762 H 0.31426 0.82755 0.24005 0.0
H763 H 0.37319 0.83843 0.24579 0.0
C764 C 0.10717 0.83789 0.2652 0.0
N765 N 0.14283 0.85295 0.26985 0.0
N766 N 0.18494 0.84231 0.26769 0.0
C767 C 0.17685 0.82006 0.26113 0.0
C768 C 0.12728 0.8169 0.25907 0.0
C769 C 0.0546 0.84178 0.26873 0.0
H770 H 0.04984 0.85298 0.27995 0.0
H771 H 0.03756 0.85077 0.25799 0.0
H772 H 0.03574 0.82428 0.27071 0.0
O773 O 0.15688 0.88229 0.30211 0.0
O774 O 0.23088 0.86721 0.30008 0.0
H775 H 0.23524 0.79738 0.26876 0.0
H776 H 0.20015 0.78523 0.25182 0.0
C777 C 0.2154 0.80199 0.2573 0.0
H778 H 0.24133 0.8101 0.2485 0.0
H779 H 0.28025 0.82729 0.30161 0.0
O780 O 0.07282 0.8961 0.27784 0.0
C781 C 0.19617 0.87553 0.30871 0.0
Co782 Co 0.61714 0.87837 0.28375 0.0
Co783 Co 0.51549 0.90351 0.28012 0.0
C784 C 0.53111 0.85323 0.2683 0.0
O785 O 0.57393 0.85495 0.27377 0.0
O786 O 0.50163 0.87111 0.26878 0.0
C787 C 0.70195 0.85978 0.26852 0.0
O788 O 0.67453 0.85924 0.25528 0.0
C789 C 0.42965 0.9342 0.26933 0.0
C790 C 0.42178 0.95571 0.29214 0.0
C791 C 0.40345 0.95346 0.27631 0.0
N792 N 0.46211 0.92619 0.28054 0.0
N793 N 0.45641 0.93902 0.29416 0.0
C794 C 0.42341 0.92296 0.25267 0.0
H795 H 0.43983 0.90462 0.25241 0.0
H796 H 0.44171 0.93422 0.24323 0.0
H797 H 0.38445 0.92175 0.2495 0.0
C798 C 0.64989 0.9231 0.26801 0.0
N799 N 0.61404 0.90862 0.27332 0.0
N800 N 0.57214 0.91948 0.27117 0.0
C801 C 0.58061 0.94136 0.2641 0.0
C802 C 0.63011 0.94396 0.26161 0.0
C803 C 0.70262 0.91883 0.27102 0.0
H804 H 0.71787 0.90869 0.26043 0.0
H805 H 0.72268 0.93618 0.27202 0.0
H806 H 0.70812 0.90855 0.28259 0.0
O807 O 0.6005 0.8818 0.30677 0.0
O808 O 0.52632 0.89658 0.30435 0.0
H809 H 0.52343 0.96459 0.27205 0.0
H810 H 0.55852 0.97648 0.25503 0.0
C811 C 0.54266 0.95985 0.26049 0.0
H812 H 0.51606 0.95208 0.25177 0.0
H813 H 0.47742 0.93696 0.30476 0.0
O814 O 0.68323 0.86571 0.28225 0.0
C815 C 0.56117 0.88886 0.31321 0.0
Co816 Co 0.85233 0.63642 0.03662 0.0
Co817 Co 0.75371 0.61094 0.02721 0.0
C818 C 0.77741 0.65998 0.01452 0.0
O819 O 0.8167 0.65879 0.02257 0.0
O820 O 0.74723 0.64237 0.01417 0.0
C821 C 0.94174 0.65606 0.02636 0.0
O822 O 0.91852 0.65839 0.0123 0.0
C823 C 0.67208 0.58022 0.013 0.0
C824 C 0.65387 0.56006 0.03571 0.0
C825 C 0.64208 0.56182 0.01916 0.0
N826 N 0.70036 0.58839 0.02541 0.0
N827 N 0.68859 0.57633 0.03891 0.0
C828 C 0.67269 0.59062 0.99597 0.0
H829 H 0.68809 0.60919 0.99615 0.0
H830 H 0.6956 0.57926 0.98785 0.0
H831 H 0.63558 0.591 0.99077 0.0
C832 C 0.89139 0.58995 0.02478 0.0
N833 N 0.85379 0.60484 0.02767 0.0
N834 N 0.81359 0.59446 0.02258 0.0
C835 C 0.82497 0.57275 0.01583 0.0
C836 C 0.87462 0.56926 0.01707 0.0
C837 C 0.9429 0.59567 0.02892 0.0
H838 H 0.94495 0.60508 0.04098 0.0
H839 H 0.95799 0.60753 0.01917 0.0
H840 H 0.96556 0.57917 0.02949 0.0
O841 O 0.82154 0.63677 0.05809 0.0
O842 O 0.75173 0.61961 0.05125 0.0
H843 H 0.76245 0.55037 0.01841 0.0
H844 H 0.80689 0.53873 0.0041 0.0
C845 C 0.78909 0.55538 0.00878 0.0
H846 H 0.76944 0.5643 -0.00145 0.0
H847 H 0.70534 0.57869 0.05033 0.0
O848 O 0.91898 0.64834 0.0389 0.0
C849 C 0.77951 0.62944 0.06184 0.0
Co850 Co 0.39069 0.63985 0.03771 0.0
Co851 Co 0.49043 0.66263 0.02665 0.0
C852 C 0.45392 0.61853 0.01055 0.0
O853 O 0.41785 0.62017 0.02013 0.0
O854 O 0.48841 0.63394 0.01094 0.0
C855 C 0.29838 0.62907 0.02629 0.0
O856 O 0.32142 0.63179 0.01223 0.0
C857 C 0.57102 0.69421 0.01266 0.0
C858 C 0.60725 0.70322 0.03614 0.0
C859 C 0.60832 0.70831 0.01943 0.0
N860 N 0.5486 0.68218 0.02502 0.0
N861 N 0.57146 0.68738 0.03889 0.0
C862 C 0.55515 0.69297 0.99505 0.0
H863 H 0.52114 0.68243 0.99393 0.0
H864 H 0.55007 0.7115 0.99005 0.0
H865 H 0.58345 0.68379 0.98765 0.0
C866 C 0.35733 0.68927 0.0319 0.0
N867 N 0.3934 0.67297 0.0322 0.0
N868 N 0.43229 0.68226 0.02526 0.0
C869 C 0.42052 0.70455 0.01944 0.0
C870 C 0.37267 0.70954 0.02348 0.0
C871 C 0.30805 0.68538 0.03905 0.0
H872 H 0.30921 0.67183 0.04911 0.0
H873 H 0.28307 0.67941 0.02916 0.0
H874 H 0.29349 0.70249 0.04419 0.0
O875 O 0.4257 0.63354 0.05788 0.0
O876 O 0.49522 0.6499 0.04989 0.0
H877 H 0.43812 0.73931 0.00887 0.0
H878 H 0.45956 0.7133 -0.00239 0.0
C879 C 0.4537 0.72087 0.01012 0.0
H880 H 0.48887 0.72207 0.01658 0.0
H881 H 0.56154 0.6809 0.05048 0.0
O882 O 0.32225 0.63023 0.03967 0.0
C883 C 0.46942 0.63915 0.06065 0.0
Co884 Co 0.85751 0.62714 0.20651 0.0
Co885 Co 0.75967 0.65319 0.21669 0.0
C886 C 0.78185 0.6038 0.22871 0.0
O887 O 0.82073 0.60493 0.22039 0.0
O888 O 0.75244 0.6217 0.22962 0.0
C889 C 0.94806 0.60943 0.21723 0.0
O890 O 0.92518 0.6086 0.23143 0.0
C891 C 0.67661 0.68409 0.23023 0.0
C892 C 0.66613 0.70673 0.20806 0.0
C893 C 0.64924 0.70347 0.22397 0.0
N894 N 0.70801 0.67675 0.21846 0.0
N895 N 0.70095 0.69038 0.20528 0.0
C896 C 0.67243 0.67222 0.24674 0.0
H897 H 0.68825 0.65376 0.24636 0.0
H898 H 0.69262 0.68301 0.25601 0.0
H899 H 0.63398 0.67123 0.25059 0.0
C900 C 0.89792 0.67273 0.21907 0.0
N901 N 0.85979 0.65835 0.21588 0.0
N902 N 0.82015 0.66877 0.22138 0.0
C903 C 0.83241 0.68996 0.22868 0.0
C904 C 0.88227 0.69285 0.22763 0.0
C905 C 0.94809 0.6687 0.21273 0.0
H906 H 0.9694 0.65897 0.22221 0.0
H907 H 0.9664 0.68625 0.21034 0.0
H908 H 0.94738 0.65816 0.2011 0.0
O909 O 0.82638 0.6276 0.18511 0.0
O910 O 0.75709 0.64476 0.19259 0.0
H911 H 0.77494 0.71557 0.22698 0.0
H912 H 0.81603 0.72103 0.24393 0.0
C913 C 0.79726 0.70682 0.23666 0.0
H914 H 0.77277 0.69638 0.24482 0.0
H915 H 0.72078 0.68887 0.19438 0.0
O916 O 0.92445 0.61504 0.20433 0.0
C917 C 0.78423 0.63515 0.18171 0.0
Co918 Co 0.39313 0.63229 0.20461 0.0
Co919 Co 0.49358 0.60859 0.21453 0.0
C920 C 0.46612 0.65726 0.22689 0.0
O921 O 0.42748 0.65546 0.21851 0.0
O922 O 0.4967 0.63991 0.22772 0.0
C923 C 0.30133 0.6471 0.21605 0.0
O924 O 0.32456 0.64744 0.23019 0.0
C925 C 0.57516 0.57736 0.22845 0.0
C926 C 0.61042 0.56801 0.20489 0.0
C927 C 0.61236 0.56321 0.22163 0.0
N928 N 0.55193 0.58902 0.2161 0.0
N929 N 0.57429 0.58363 0.20216 0.0
C930 C 0.56057 0.57933 0.24615 0.0
H931 H 0.52701 0.59019 0.24738 0.0
H932 H 0.55509 0.56102 0.25148 0.0
H933 H 0.58974 0.58848 0.25319 0.0
C934 C 0.35726 0.5853 0.21599 0.0
N935 N 0.39447 0.60052 0.21342 0.0
N936 N 0.43482 0.59046 0.21875 0.0
C937 C 0.42347 0.5685 0.22526 0.0
C938 C 0.37386 0.56498 0.22399 0.0
C939 C 0.30697 0.58873 0.2096 0.0
H940 H 0.3071 0.5998 0.19821 0.0
H941 H 0.28472 0.5975 0.21926 0.0
H942 H 0.29002 0.57097 0.20676 0.0
O943 O 0.42316 0.63321 0.18301 0.0
O944 O 0.49372 0.61755 0.19053 0.0
H945 H 0.44333 0.53261 0.23333 0.0
H946 H 0.46773 0.55712 0.24526 0.0
C947 C 0.45877 0.55113 0.23258 0.0
H948 H 0.49211 0.55065 0.22504 0.0
H949 H 0.564 0.5899 0.19056 0.0
O950 O 0.32497 0.64283 0.20292 0.0
C951 C 0.46592 0.62658 0.17964 0.0
Co952 Co 0.14136 0.38306 0.95708 0.0
Co953 Co 0.23995 0.40885 0.96553 0.0
C954 C 0.21632 0.36043 0.97937 0.0
O955 O 0.17713 0.3613 0.9713 0.0
O956 O 0.24631 0.37809 0.97938 0.0
C957 C 0.05326 0.3647 0.96898 0.0
O958 O 0.07734 0.36443 0.98296 0.0
C959 C 0.31627 0.44278 0.97913 0.0
C960 C 0.3514 0.45307 0.95569 0.0
C961 C 0.35134 0.45806 0.97239 0.0
N962 N 0.29584 0.42992 0.96679 0.0
N963 N 0.31801 0.43592 0.95292 0.0
C964 C 0.30483 0.43917 -0.00299 0.0
H965 H 0.2731 0.42705 -0.00153 0.0
H966 H 0.29804 0.45669 0.00324 0.0
H967 H 0.33652 0.4308 0.00316 0.0
C968 C 0.10223 0.43022 0.96742 0.0
N969 N 0.14009 0.41524 0.96519 0.0
N970 N 0.18026 0.42624 0.96975 0.0
C971 C 0.16831 0.44861 0.97541 0.0
C972 C 0.1186 0.45165 0.97416 0.0
C973 C 0.05086 0.42414 0.96335 0.0
H974 H 0.04914 0.41316 0.95192 0.0
H975 H 0.03502 0.41383 0.97375 0.0
H976 H 0.0286 0.44059 0.96156 0.0
O977 O 0.17039 0.38168 0.93538 0.0
O978 O 0.24027 0.3992 0.94164 0.0
H979 H 0.23452 0.46821 0.97255 0.0
H980 H 0.18608 0.48557 0.98162 0.0
C981 C 0.20332 0.46744 0.98107 0.0
H982 H 0.21605 0.46271 0.99361 0.0
H983 H 0.30913 0.42903 0.94132 0.0
O984 O 0.07514 0.37067 0.95582 0.0
C985 C 0.21216 0.389 0.93131 0.0
Co986 Co 0.61174 0.3794 0.95741 0.0
Co987 Co 0.50863 0.35816 0.96495 0.0
C988 C 0.53193 0.40877 0.97351 0.0
O989 O 0.57269 0.40497 0.96682 0.0
O990 O 0.50062 0.39181 0.97517 0.0
C991 C 0.70034 0.39876 0.96916 0.0
O992 O 0.67583 0.40195 0.98288 0.0
C993 C 0.42129 0.32978 0.97784 0.0
C994 C 0.40921 0.30762 0.95553 0.0
C995 C 0.39264 0.31093 0.97148 0.0
N996 N 0.45333 0.33665 0.96613 0.0
N997 N 0.44512 0.32338 0.95285 0.0
C998 C 0.41751 0.3417 0.99437 0.0
H999 H 0.43539 0.3597 0.99414 0.0
H1000 H 0.4357 0.3304 0.0038 0.0
H1001 H 0.37899 0.34372 -0.00208 0.0
C1002 C 0.64307 0.3365 0.97546 0.0
N1003 N 0.60775 0.35097 0.9698 0.0
N1004 N 0.5653 0.34161 0.97347 0.0
C1005 C 0.57293 0.3207 0.98187 0.0
C1006 C 0.62246 0.31721 0.98358 0.0
C1007 C 0.69581 0.33961 0.97184 0.0
H1008 H 0.71184 0.35182 0.98121 0.0
H1009 H 0.71538 0.3221 0.97249 0.0
H1010 H 0.70101 0.34733 0.95936 0.0
O1011 O 0.591 0.37312 0.93521 0.0
O1012 O 0.51499 0.36282 0.94027 0.0
H1013 H 0.54937 0.28742 0.99337 0.0
H1014 H 0.51105 0.31346 -0.00333 0.0
C1015 C 0.53403 0.30393 0.98757 0.0
H1016 H 0.51108 0.29866 0.97694 0.0
H1017 H 0.46522 0.32444 0.94199 0.0
O1018 O 0.67872 0.39062 0.95652 0.0
C1019 C 0.54912 0.36745 0.93021 0.0
Co1020 Co 0.14339 0.38491 0.78414 0.0
Co1021 Co 0.24404 0.35984 0.77669 0.0
C1022 C 0.22101 0.40896 0.76381 0.0
O1023 O 0.18076 0.40759 0.77121 0.0
O1024 O 0.2511 0.39136 0.76376 0.0
C1025 C 0.05566 0.40292 0.77116 0.0
O1026 O 0.08156 0.40438 0.75761 0.0
C1027 C 0.32484 0.32745 0.76383 0.0
C1028 C 0.35823 0.31813 0.78772 0.0
C1029 C 0.36073 0.31293 0.77104 0.0
N1030 N 0.30168 0.33974 0.7759 0.0
N1031 N 0.32295 0.33438 0.79004 0.0
C1032 C 0.31103 0.32897 0.74603 0.0
H1033 H 0.27714 0.3395 0.74452 0.0
H1034 H 0.30657 0.31054 0.74078 0.0
H1035 H 0.34021 0.33828 0.73911 0.0
C1036 C 0.10686 0.33877 0.77143 0.0
N1037 N 0.14438 0.35337 0.77499 0.0
N1038 N 0.18523 0.34237 0.77117 0.0
C1039 C 0.17402 0.32019 0.76496 0.0
C1040 C 0.12408 0.31769 0.7646 0.0
C1041 C 0.05519 0.34364 0.77578 0.0
H1042 H 0.0528 0.3541 0.78741 0.0
H1043 H 0.03801 0.35377 0.76555 0.0
H1044 H 0.03477 0.32649 0.77739 0.0
O1045 O 0.16946 0.38514 0.80637 0.0
O1046 O 0.24057 0.36848 0.80069 0.0
H1047 H 0.2415 0.30179 0.76833 0.0
H1048 H 0.19303 0.28287 0.76074 0.0
C1049 C 0.20959 0.30117 0.76011 0.0
H1050 H 0.22094 0.30436 0.74718 0.0
H1051 H 0.31234 0.3411 0.8015 0.0
O1052 O 0.07629 0.3967 0.78451 0.0
C1053 C 0.21094 0.3779 0.81084 0.0
Co1054 Co 0.61532 0.37768 0.7799 0.0
Co1055 Co 0.51339 0.40289 0.77618 0.0
C1056 C 0.53359 0.35522 0.7605 0.0
O1057 O 0.57594 0.35622 0.76649 0.0
O1058 O 0.50284 0.37232 0.76254 0.0
C1059 C 0.70524 0.36211 0.76633 0.0
O1060 O 0.68169 0.36293 0.75225 0.0
C1061 C 0.42774 0.43401 0.76585 0.0
C1062 C 0.41836 0.45372 0.78934 0.0
C1063 C 0.40081 0.45259 0.77334 0.0
N1064 N 0.45978 0.42531 0.77696 0.0
N1065 N 0.45321 0.43706 0.79097 0.0
C1066 C 0.42272 0.42407 0.74876 0.0
H1067 H 0.44042 0.40608 0.74786 0.0
H1068 H 0.44039 0.43643 0.73983 0.0
H1069 H 0.38394 0.42243 0.74544 0.0
C1070 C 0.64886 0.42488 0.76808 0.0
N1071 N 0.61291 0.40971 0.77229 0.0
N1072 N 0.57098 0.42024 0.76955 0.0
C1073 C 0.57952 0.44244 0.763 0.0
C1074 C 0.62921 0.44577 0.76167 0.0
C1075 C 0.70144 0.42058 0.77128 0.0
H1076 H 0.70644 0.40929 0.78244 0.0
H1077 H 0.71762 0.41153 0.7604 0.0
H1078 H 0.72086 0.43797 0.77313 0.0
O1079 O 0.59198 0.37555 0.80224 0.0
O1080 O 0.51922 0.39199 0.79988 0.0
H1081 H 0.51889 0.46483 0.76871 0.0
H1082 H 0.55692 0.47655 0.7524 0.0
C1083 C 0.54116 0.45988 0.75785 0.0
H1084 H 0.51734 0.45105 0.74866 0.0
H1085 H 0.47374 0.43426 0.8016 0.0
O1086 O 0.68249 0.36618 0.77965 0.0
C1087 C 0.5517 0.38156 0.80847 0.0
H1088 H 0.42268 0.07087 0.98174 0.0
H1089 H 0.58843 0.95922 0.00928 0.0
H1090 H 0.39705 0.02858 0.02548 0.0
H1091 H 0.60262 0.99446 0.96215 0.0
H1092 H 0.52213 0.98667 0.01629 0.0
H1093 H 0.48905 0.04365 0.97426 0.0
C1094 C 0.43004 0.05524 0.98943 0.0
C1095 C 0.40385 0.0515 0.00401 0.0
C1096 C 0.5402 0.98875 0.00452 0.0
C1097 C 0.48114 0.02107 0.99606 0.0
C1098 C 0.57861 0.97341 0.00067 0.0
C1099 C 0.60155 0.97506 0.98531 0.0
C1100 C 0.52434 1.00577 0.99284 0.0
C1101 C 0.58653 0.9931 0.9743 0.0
C1102 C 0.46838 0.03997 0.98532 0.0
C1103 C 0.41573 0.03162 0.01392 0.0
N1104 N 0.54859 1.0077 0.97823 0.0
N1105 N 0.45387 0.01725 0.00985 0.0
H1106 H 0.67011 0.31762 0.01271 0.0
H1107 H 0.84049 0.20862 0.98415 0.0
H1108 H 0.64259 0.27341 0.96997 0.0
H1109 H 0.85063 0.24063 0.03247 0.0
H1110 H 0.7728 0.23548 0.97773 0.0
H1111 H 0.73758 0.29101 0.02019 0.0
C1112 C 0.67718 0.30167 0.0053 0.0
C1113 C 0.65021 0.29721 0.99097 0.0
C1114 C 0.79025 0.23699 0.98964 0.0
C1115 C 0.72876 0.2676 -0.00116 0.0
C1116 C 0.82949 0.22204 0.99316 0.0
C1117 C 0.85166 0.22292 0.00869 0.0
C1118 C 0.77285 0.25287 0.00181 0.0
C1119 C 0.83512 0.23992 0.02021 0.0
C1120 C 0.71615 0.28676 0.00939 0.0
C1121 C 0.66184 0.27698 0.98135 0.0
N1122 N 0.79642 0.25419 0.01658 0.0
N1123 N 0.70064 0.26306 0.98535 0.0
H1124 H 0.60499 0.27898 0.27997 0.0
H1125 H 0.40536 0.23438 0.21473 0.0
H1126 H 0.59878 0.30375 0.22966 0.0
H1127 H 0.41489 0.20745 0.26446 0.0
H1128 H 0.47395 0.2614 0.2203 0.0
H1129 H 0.53668 0.2518 0.27444 0.0
C1130 C 0.5904 0.2779 0.26758 0.0
C1131 C 0.60807 0.29308 0.25512 0.0
C1132 C 0.46051 0.24994 0.23012 0.0
C1133 C 0.52847 0.26317 0.24889 0.0
C1134 C 0.42077 0.23493 0.22702 0.0
C1135 C 0.40391 0.21923 0.2393 0.0
C1136 C 0.48375 0.24897 0.24556 0.0
C1137 C 0.42625 0.21979 0.25483 0.0
C1138 C 0.55082 0.2628 0.26449 0.0
C1139 C 0.58677 0.29183 0.23945 0.0
N1140 N 0.46524 0.23427 0.25749 0.0
N1141 N 0.54781 0.27732 0.2368 0.0
H1142 H 0.86229 0.0232 0.21496 0.0
H1143 H 0.64316 0.9886 0.2754 0.0
H1144 H 0.83535 0.05857 0.26142 0.0
H1145 H 0.68571 0.94422 0.2342 0.0
H1146 H 0.70889 0.0169 0.26877 0.0
H1147 H 0.79649 0.99462 0.22096 0.0
C1148 C 0.84367 0.02431 0.2267 0.0
C1149 C 0.85477 0.0428 0.23791 0.0
C1150 C 0.70339 1.00117 0.261 0.0
C1151 C 0.77804 0.01124 0.24447 0.0
C1152 C 0.66534 0.98534 0.26461 0.0
C1153 C 0.65872 0.96441 0.25513 0.0
C1154 C 0.73497 0.99591 0.24785 0.0
C1155 C 0.68934 0.96046 0.2416 0.0
C1156 C 0.80557 0.00834 0.23 0.0
C1157 C 0.82836 0.04418 0.25265 0.0
N1158 N 0.72631 0.97597 0.2384 0.0
N1159 N 0.79094 0.02879 0.25544 0.0
H1160 H 0.32833 0.74535 0.04077 0.0
H1161 H 0.15271 0.78328 0.96655 0.0
H1162 H 0.33994 0.71481 0.99205 0.0
H1163 H 0.13213 0.8053 0.01701 0.0
H1164 H 0.2201 0.75733 0.97529 0.0
H1165 H 0.25841 0.76903 0.03169 0.0
C1166 C 0.3168 0.74421 0.02802 0.0
C1167 C 0.34 0.72844 0.01706 0.0
C1168 C 0.20014 0.76738 0.98452 0.0
C1169 C 0.25916 0.7547 0.00667 0.0
C1170 C 0.16116 0.78178 0.97957 0.0
C1171 C 0.13633 0.79588 0.99118 0.0
C1172 C 0.21471 0.7675 0.00116 0.0
C1173 C 0.14977 0.79419 0.00779 0.0
C1174 C 0.27649 0.75739 0.02289 0.0
C1175 C 0.32331 0.72714 0.00075 0.0
N1176 N 0.18838 0.78049 0.01227 0.0
N1177 N 0.28366 0.73999 0.99605 0.0
H1178 H 0.59809 0.7817 0.7797 0.0
H1179 H 0.40388 0.73238 0.71418 0.0
H1180 H 0.59657 0.80252 0.72853 0.0
H1181 H 0.40367 0.71263 0.76556 0.0
H1182 H 0.47292 0.75924 0.71929 0.0
H1183 H 0.5289 0.75489 0.77459 0.0
C1184 C 0.58433 0.77979 0.76725 0.0
C1185 C 0.60359 0.79375 0.75441 0.0
C1186 C 0.45723 0.74944 0.72954 0.0
C1187 C 0.52306 0.7643 0.7486 0.0
C1188 C 0.41723 0.73453 0.72667 0.0
C1189 C 0.39755 0.72084 0.73957 0.0
C1190 C 0.47796 0.75036 0.74539 0.0
C1191 C 0.41726 0.72341 0.75541 0.0
C1192 C 0.54425 0.76493 0.76438 0.0
C1193 C 0.58334 0.79151 0.73863 0.0
N1194 N 0.45666 0.7377 0.75786 0.0
N1195 N 0.54394 0.77724 0.73618 0.0
H1196 H 0.37038 0.0225 0.72004 0.0
H1197 H 0.1293 0.99391 0.77179 0.0
H1198 H 0.29461 0.0762 0.74863 0.0
H1199 H 0.19587 0.94341 0.73824 0.0
H1200 H 0.18932 0.02455 0.7637 0.0
H1201 H 0.309 0.99247 0.72791 0.0
C1202 C 0.34131 0.02777 0.72824 0.0
C1203 C 0.33739 0.05171 0.73375 0.0
C1204 C 0.19044 1.00684 0.75796 0.0
C1205 C 0.26659 0.01789 0.74247 0.0
C1206 C 0.15581 0.98954 0.76242 0.0
C1207 C 0.15769 0.96627 0.75559 0.0
C1208 C 0.22722 1.00066 0.74671 0.0
C1209 C 0.19335 0.96123 0.74377 0.0
C1210 C 0.30595 0.01079 0.73256 0.0
C1211 C 0.29867 0.05785 0.74412 0.0
N1212 N 0.22692 0.97818 0.7398 0.0
N1213 N 0.26467 0.0411 0.7481 0.0
H1214 H 0.59525 0.45873 0.51157 0.0
H1215 H 0.4283 0.56925 0.48286 0.0
H1216 H 0.60427 0.4904 0.46314 0.0
H1217 H 0.40511 0.52892 0.52761 0.0
H1218 H 0.49388 0.54151 0.47542 0.0
H1219 H 0.53011 0.4869 0.51853 0.0
C1220 C 0.58456 0.4723 0.50263 0.0
C1221 C 0.60569 0.47273 0.48693 0.0
C1222 C 0.47391 0.53838 0.48671 0.0
C1223 C 0.52978 0.50424 0.49444 0.0
C1224 C 0.43603 0.55395 0.4908 0.0
C1225 C 0.41073 0.55088 0.50564 0.0
C1226 C 0.48713 0.51989 0.49772 0.0
C1227 C 0.42309 0.53142 0.51587 0.0
C1228 C 0.5468 0.48804 0.50647 0.0
C1229 C 0.58959 0.49 0.47552 0.0
N1230 N 0.46077 0.51677 0.51179 0.0
N1231 N 0.55232 0.50501 0.47947 0.0
H1232 H 0.85485 0.74071 0.52861 0.0
H1233 H 0.64207 0.77845 0.46655 0.0
H1234 H 0.82027 0.69997 0.48487 0.0
H1235 H 0.66 0.80902 0.51505 0.0
H1236 H 0.70774 0.7498 0.47243 0.0
H1237 H 0.78726 0.76817 0.52259 0.0
C1238 C 0.83394 0.73812 0.51744 0.0
C1239 C 0.84357 0.71855 0.50698 0.0
C1240 C 0.69666 0.76243 0.48193 0.0
C1241 C 0.76522 0.74901 0.50035 0.0
C1242 C 0.65863 0.77843 0.47866 0.0
C1243 C 0.64511 0.79565 0.49049 0.0
C1244 C 0.72173 0.76404 0.49701 0.0
C1245 C 0.66889 0.79562 0.50577 0.0
C1246 C 0.79486 0.75345 0.51415 0.0
C1247 C 0.81444 0.71527 0.49299 0.0
N1248 N 0.70639 0.78027 0.50853 0.0
N1249 N 0.77648 0.7303 0.49009 0.0
H1250 H 0.8089 0.57255 0.75084 0.0
H1251 H 0.68877 0.44256 0.7354 0.0
H1252 H 0.86322 0.52096 0.71557 0.0
H1253 H 0.63679 0.49299 0.77184 0.0
H1254 H 0.75037 0.47185 0.72705 0.0
H1255 H 0.74563 0.54384 0.75872 0.0
C1256 C 0.80804 0.55485 0.74505 0.0
C1257 C 0.84161 0.54884 0.73276 0.0
C1258 C 0.72519 0.47673 0.73672 0.0
C1259 C 0.76851 0.51619 0.7413 0.0
C1260 C 0.6897 0.46015 0.74134 0.0
C1261 C 0.65754 0.46559 0.75418 0.0
C1262 C 0.7288 0.49891 0.7451 0.0
C1263 C 0.66055 0.48835 0.76171 0.0
C1264 C 0.77166 0.5386 0.74941 0.0
C1265 C 0.83855 0.526 0.72535 0.0
N1266 N 0.6959 0.50416 0.75714 0.0
N1267 N 0.8024 0.51051 0.72968 0.0
H1268 H 0.12998 0.27479 0.4674 0.0
H1269 H 0.36187 0.24174 0.52207 0.0
H1270 H 0.17218 0.31441 0.51088 0.0
H1271 H 0.29585 0.1907 0.48876 0.0
H1272 H 0.29742 0.2709 0.51565 0.0
H1273 H 0.19262 0.24452 0.47355 0.0
C1274 C 0.1513 0.2766 0.47855 0.0
C1275 C 0.14545 0.29674 0.48886 0.0
C1276 C 0.29731 0.2534 0.50962 0.0
C1277 C 0.21855 0.26318 0.49547 0.0
C1278 C 0.33444 0.23699 0.51309 0.0
C1279 C 0.33413 0.21403 0.50579 0.0
C1280 C 0.25992 0.24674 0.49872 0.0
C1281 C 0.2973 0.2084 0.49452 0.0
C1282 C 0.18754 0.25961 0.48191 0.0
C1283 C 0.17523 0.29885 0.5028 0.0
N1284 N 0.26158 0.2246 0.49133 0.0
N1285 N 0.21083 0.28245 0.50561 0.0
H1286 H 0.37024 0.51683 0.2157 0.0
H1287 H 0.13043 0.49272 0.26926 0.0
H1288 H 0.304 0.57053 0.2469 0.0
H1289 H 0.19369 0.43997 0.23661 0.0
H1290 H 0.19194 0.52216 0.26052 0.0
H1291 H 0.30663 0.48796 0.2236 0.0
C1292 C 0.34295 0.52226 0.22454 0.0
C1293 C 0.34251 0.54583 0.23089 0.0
C1294 C 0.192 0.50424 0.25509 0.0
C1295 C 0.26893 0.51349 0.23953 0.0
C1296 C 0.15647 0.48763 0.25991 0.0
C1297 C 0.15702 0.46407 0.25353 0.0
C1298 C 0.22832 0.49708 0.24392 0.0
C1299 C 0.19213 0.45807 0.24173 0.0
C1300 C 0.30627 0.50599 0.22886 0.0
C1301 C 0.30567 0.55235 0.24191 0.0
N1302 N 0.22661 0.47437 0.23741 0.0
N1303 N 0.27028 0.53633 0.24585 0.0
H1304 H 0.11335 0.99392 0.46301 0.0
H1305 H 0.89059 0.02641 0.52245 0.0
H1306 H 0.07879 0.95449 0.5073 0.0
H1307 H 0.94023 0.07384 0.48384 0.0
H1308 H 0.95484 0.99761 0.51521 0.0
H1309 H 0.04875 0.02294 0.46953 0.0
C1310 C 0.09326 0.99193 0.4744 0.0
C1311 C 0.10185 0.9722 0.48484 0.0
C1312 C 0.95126 0.01416 0.50814 0.0
C1313 C 0.0266 1.00433 0.49195 0.0
C1314 C 0.91408 0.03031 0.5121 0.0
C1315 C 0.90994 0.05221 0.50354 0.0
C1316 C 0.9844 0.02009 0.49558 0.0
C1317 C 0.94206 0.05689 0.49054 0.0
C1318 C 0.05587 1.00818 0.47798 0.0
C1319 C 0.07366 0.96979 0.49913 0.0
N1320 N 0.97814 0.04104 0.487 0.0
N1321 N 0.03703 0.98551 0.50219 0.0
H1322 H 0.10672 0.27354 0.7785 0.0
H1323 H 0.89268 0.24019 0.71578 0.0
H1324 H 0.0682 0.31876 0.73728 0.0
H1325 H 0.91325 0.20535 0.76278 0.0
H1326 H 0.95756 0.26887 0.7227 0.0
H1327 H 0.0398 0.24617 0.77144 0.0
C1328 C 0.08504 0.2772 0.76765 0.0
C1329 C 0.09335 0.29799 0.7582 0.0
C1330 C 0.94721 0.25527 0.73165 0.0
C1331 C 0.01584 0.26757 0.75042 0.0
C1332 C 0.90965 0.23923 0.72781 0.0
C1333 C 0.89715 0.22083 0.7389 0.0
C1334 C 0.9728 0.25248 0.74655 0.0
C1335 C 0.92139 0.21966 0.75407 0.0
C1336 C 0.04637 0.26189 0.76378 0.0
C1337 C 0.06333 0.30254 0.74461 0.0
N1338 N 0.95841 0.23507 0.75738 0.0
N1339 N 0.0258 0.2875 0.74113 0.0
H1340 H 0.12561 0.76985 0.27 0.0
H1341 H 0.88064 0.74133 0.22061 0.0
H1342 H 0.06249 0.81803 0.23419 0.0
H1343 H 0.95758 0.68743 0.24863 0.0
H1344 H 0.94398 0.77091 0.22741 0.0
H1345 H 0.06388 0.7394 0.26312 0.0
C1346 C 0.0996 0.77368 0.26036 0.0
C1347 C 0.09915 0.79627 0.25253 0.0
C1348 C 0.94683 0.75265 0.2322 0.0
C1349 C 0.02759 0.76223 0.24508 0.0
C1350 C 0.91035 0.73596 0.2285 0.0
C1351 C 0.91403 0.7121 0.23416 0.0
C1352 C 0.98701 0.74535 0.24164 0.0
C1353 C 0.95361 0.70577 0.24409 0.0
C1354 C 0.06398 0.75651 0.2566 0.0
C1355 C 0.06401 0.80069 0.24042 0.0
N1356 N 0.98868 0.72225 0.24748 0.0
N1357 N 0.02936 0.78395 0.23719 0.0
H1358 H 0.06527 0.48331 0.95591 0.0
H1359 H 0.92583 0.53637 0.03486 0.0
H1360 H 0.10056 0.46428 0.006 0.0
H1361 H 0.89407 0.55803 0.985 0.0
H1362 H 0.98798 0.5087 0.02444 0.0
H1363 H 0.00286 0.51105 0.96617 0.0
C1364 C 0.06035 0.48541 0.9691 0.0
C1365 C 0.08796 0.4717 0.98018 0.0
C1366 C 0.96719 0.51929 0.01572 0.0
C1367 C 0.01613 0.50281 0.99203 0.0
C1368 C 0.93143 0.53485 0.02167 0.0
C1369 C 0.90488 0.54928 0.01072 0.0
C1370 C 0.97651 0.51821 -0.00132 0.0
C1371 C 0.91364 0.54698 0.99377 0.0
C1372 C 0.02451 0.50103 0.97496 0.0
C1373 C 0.08014 0.47476 -0.00288 0.0
N1374 N 0.94896 0.53184 0.98826 0.0
N1375 N 0.04469 0.48987 0.00254 0.0
H1376 H 0.38284 0.12867 0.08468 0.0
H1377 H 0.22582 0.1442 0.16629 0.0
H1378 H 0.2271 0.12437 0.08314 0.0
H1379 H 0.37692 0.12461 0.16534 0.0
H1380 H 0.22361 0.14026 0.13602 0.0
H1381 H 0.37958 0.13077 0.1145 0.0
C1382 C 0.3478 0.12816 0.09063 0.0
C1383 C 0.30514 0.1264 0.08138 0.0
C1384 C 0.25702 0.13673 0.14255 0.0
C1385 C 0.30116 0.12886 0.11578 0.0
C1386 C 0.2584 0.13907 0.15977 0.0
C1387 C 0.30168 0.13484 0.16838 0.0
C1388 C 0.29934 0.13042 0.134 0.0
C1389 C 0.34272 0.12812 0.15931 0.0
C1390 C 0.34599 0.12927 0.10772 0.0
C1391 C 0.26085 0.12565 0.08984 0.0
N1392 N 0.34053 0.12626 0.14268 0.0
N1393 N 0.25992 0.12705 0.10664 0.0
H1394 H 0.03111 0.14451 0.08115 0.0
H1395 H 0.87503 0.13354 0.16329 0.0
H1396 H 0.87804 0.12924 0.08261 0.0
H1397 H 0.02933 0.12176 0.16403 0.0
H1398 H 0.87797 0.13715 0.13352 0.0
H1399 H 0.03366 0.14068 0.11143 0.0
C1400 C 0.99818 0.14035 0.08779 0.0
C1401 C 0.95428 0.13724 0.07933 0.0
C1402 C 0.91127 0.13371 0.14014 0.0
C1403 C 0.95697 0.13306 0.11369 0.0
C1404 C 0.90968 0.13173 0.1572 0.0
C1405 C 0.95202 0.12727 0.1662 0.0
C1406 C 0.95554 0.1314 0.13189 0.0
C1407 C 0.9958 0.12508 0.15754 0.0
C1408 C 0.99973 0.13809 0.10501 0.0
C1409 C 0.91275 0.13178 0.08853 0.0
N1410 N 0.99652 0.12725 0.14079 0.0
N1411 N 0.91513 0.13001 0.10515 0.0
H1412 H 0.77793 0.8725 0.82669 0.0
H1413 H 0.61982 0.89236 0.90775 0.0
H1414 H 0.6254 0.88909 0.8269 0.0
H1415 H 0.77561 0.89658 0.90894 0.0
H1416 H 0.62275 0.88805 0.87802 0.0
H1417 H 0.77944 0.87826 0.85679 0.0
C1418 C 0.74485 0.87731 0.83303 0.0
C1419 C 0.70144 0.88026 0.82426 0.0
C1420 C 0.65641 0.89001 0.88471 0.0
C1421 C 0.70299 0.88678 0.85847 0.0
C1422 C 0.65478 0.8924 0.90174 0.0
C1423 C 0.69757 0.89477 0.91087 0.0
C1424 C 0.70117 0.88976 0.8766 0.0
C1425 C 0.74176 0.89486 0.90234 0.0
C1426 C 0.74582 0.88069 0.85015 0.0
C1427 C 0.65972 0.88662 0.83308 0.0
N1428 N 0.74249 0.89222 0.88562 0.0
N1429 N 0.66156 0.88955 0.84965 0.0
H1430 H 0.97763 0.89456 0.83136 0.0
H1431 H 0.12548 0.87754 0.91479 0.0
H1432 H 0.12725 0.87259 0.8341 0.0
H1433 H 0.9695 0.87498 0.91443 0.0
H1434 H 0.12534 0.87968 0.88494 0.0
H1435 H 0.97227 0.89095 0.86159 0.0
C1436 C 0.00922 0.88896 0.83827 0.0
C1437 C 0.05302 0.88398 0.83018 0.0
C1438 C 0.09103 0.87856 0.89132 0.0
C1439 C 0.04711 0.87997 0.86451 0.0
C1440 C 0.09106 0.87744 0.90842 0.0
C1441 C 0.0474 0.87611 0.91714 0.0
C1442 C 0.04704 0.87859 0.88273 0.0
C1443 C 0.00397 0.87591 0.90815 0.0
C1444 C 0.00605 0.88683 0.85546 0.0
C1445 C 0.09273 0.8767 0.83972 0.0
N1446 N 0.00482 0.87729 0.89136 0.0
N1447 N 0.08884 0.87506 0.85633 0.0
H1448 H 0.22488 0.64389 0.66544 0.0
H1449 H 0.38678 0.64033 0.58416 0.0
H1450 H 0.37997 0.63522 0.66497 0.0
H1451 H 0.23416 0.62403 0.58251 0.0
H1452 H 0.38204 0.6436 0.61393 0.0
H1453 H 0.22484 0.64127 0.63511 0.0
C1454 C 0.25881 0.6415 0.65899 0.0
C1455 C 0.3025 0.63975 0.66775 0.0
C1456 C 0.3495 0.63926 0.60711 0.0
C1457 C 0.30263 0.63692 0.63331 0.0
C1458 C 0.35211 0.63746 0.59005 0.0
C1459 C 0.31079 0.63183 0.58079 0.0
C1460 C 0.30519 0.63558 0.61511 0.0
C1461 C 0.26694 0.6283 0.5892 0.0
C1462 C 0.2587 0.6399 0.64174 0.0
C1463 C 0.34539 0.63657 0.6588 0.0
N1464 N 0.26521 0.6303 0.60595 0.0
N1465 N 0.34434 0.63536 0.64212 0.0
H1466 H 0.00225 0.67166 0.57773 0.0
H1467 H 1.00076 0.59454 0.66019 0.0
H1468 H 0.94228 0.59954 0.57871 0.0
H1469 H 0.94191 0.66685 0.65911 0.0
H1470 H 0.01153 0.59636 0.63004 0.0
H1471 H 0.01228 0.66987 0.60791 0.0
C1472 C 0.99216 0.65532 0.58428 0.0
C1473 C 0.97102 0.63579 0.57591 0.0
C1474 C 0.99711 0.61191 0.63654 0.0
C1475 C 0.98354 0.63346 0.60991 0.0
C1476 C 0.99111 0.61094 0.65362 0.0
C1477 C 0.97006 0.63052 0.66195 0.0
C1478 C 0.98337 0.63286 0.62799 0.0
C1479 C 0.95781 0.65134 0.653 0.0
C1480 C 0.99776 0.65436 0.60138 0.0
C1481 C 0.95825 0.61503 0.58485 0.0
N1482 N 0.96473 0.65201 0.63642 0.0
N1483 N 0.9648 0.61436 0.60144 0.0
H1484 H 0.62211 0.37779 0.41189 0.0
H1485 H 0.78133 0.37101 0.32987 0.0
H1486 H 0.77502 0.39359 0.41218 0.0
H1487 H 0.62565 0.37616 0.33093 0.0
H1488 H 0.78229 0.37468 0.36013 0.0
H1489 H 0.62548 0.37234 0.38223 0.0
C1490 C 0.65652 0.38012 0.40572 0.0
C1491 C 0.69834 0.38626 0.41457 0.0
C1492 C 0.74806 0.37499 0.35366 0.0
C1493 C 0.70239 0.37999 0.3804 0.0
C1494 C 0.74745 0.37279 0.33645 0.0
C1495 C 0.70335 0.37338 0.32787 0.0
C1496 C 0.70424 0.37745 0.36224 0.0
C1497 C 0.66053 0.37578 0.33697 0.0
C1498 C 0.65837 0.37704 0.38873 0.0
C1499 C 0.74185 0.389 0.40583 0.0
N1500 N 0.6621 0.37768 0.35362 0.0
N1501 N 0.74281 0.3858 0.38916 0.0
H1502 H 0.97285 0.37152 0.41623 0.0
H1503 H 0.131 0.39223 0.33586 0.0
H1504 H 0.11783 0.40063 0.4161 0.0
H1505 H 0.97529 0.3903 0.33275 0.0
H1506 H 0.12546 0.39179 0.36567 0.0
H1507 H 0.97105 0.37542 0.38595 0.0
C1508 C 0.00408 0.37882 0.4099 0.0
C1509 C 0.04577 0.38548 0.41872 0.0
C1510 C 0.09234 0.39158 0.35854 0.0
C1511 C 0.04389 0.38984 0.38436 0.0
C1512 C 0.09549 0.39169 0.34147 0.0
C1513 C 0.05353 0.39119 0.33181 0.0
C1514 C 0.04689 0.39067 0.36616 0.0
C1515 C 0.0085 0.39074 0.33981 0.0
C1516 C 0.00293 0.3811 0.39267 0.0
C1517 C 0.08506 0.39499 0.4099 0.0
N1518 N 0.0063 0.39027 0.35662 0.0
N1519 N 0.08322 0.39668 0.39327 0.0
H1520 H 0.87825 0.12242 0.66462 0.0
H1521 H 0.72765 0.12478 0.58083 0.0
H1522 H 0.72822 0.14408 0.66422 0.0
H1523 H 0.88284 0.13149 0.58419 0.0
H1524 H 0.72327 0.12591 0.61121 0.0
H1525 H 0.87623 0.11892 0.63485 0.0
C1526 C 0.84471 0.12642 0.65829 0.0
C1527 C 0.80342 0.13378 0.66698 0.0
C1528 C 0.7581 0.12716 0.60519 0.0
C1529 C 0.80102 0.12978 0.63264 0.0
C1530 C 0.76067 0.12643 0.58792 0.0
C1531 C 0.80567 0.12814 0.57998 0.0
C1532 C 0.80089 0.12914 0.61441 0.0
C1533 C 0.84733 0.13028 0.58972 0.0
C1534 C 0.84367 0.12446 0.64123 0.0
C1535 C 0.76099 0.13853 0.65799 0.0
N1536 N 0.84389 0.13062 0.60637 0.0
N1537 N 0.76085 0.13647 0.64123 0.0
H1538 H 0.44383 0.09702 0.57853 0.0
H1539 H 0.44371 0.16769 0.65937 0.0
H1540 H 0.50001 0.16989 0.57806 0.0
H1541 H 0.50021 0.09491 0.65992 0.0
H1542 H 0.4573 0.16939 0.62948 0.0
H1543 H 0.45754 0.09526 0.60842 0.0
C1544 C 0.45958 0.11251 0.58475 0.0
C1545 C 0.47062 0.13368 0.576 0.0
C1546 C 0.4675 0.15324 0.63623 0.0
C1547 C 0.48525 0.13196 0.60991 0.0
C1548 C 0.45947 0.1522 0.65317 0.0
C1549 C 0.47067 0.13108 0.66194 0.0
C1550 C 0.48519 0.13273 0.62803 0.0
C1551 C 0.49121 0.11149 0.65349 0.0
C1552 C 0.46766 0.11144 0.60169 0.0
C1553 C 0.49114 0.15327 0.58448 0.0
N1554 N 0.49679 0.11254 0.63684 0.0
N1555 N 0.49676 0.15218 0.60112 0.0
H1556 H 0.12444 0.87367 0.41114 0.0
H1557 H 0.27804 0.87294 0.32812 0.0
H1558 H 0.27465 0.89511 0.41112 0.0
H1559 H 0.12291 0.88076 0.33061 0.0
H1560 H 0.28127 0.87519 0.35848 0.0
H1561 H 0.12743 0.86947 0.38142 0.0
C1562 C 0.15821 0.87747 0.40491 0.0
C1563 C 0.19929 0.88497 0.41367 0.0
C1564 C 0.24672 0.87645 0.35226 0.0
C1565 C 0.2028 0.88017 0.37942 0.0
C1566 C 0.2448 0.87509 0.33502 0.0
C1567 C 0.20016 0.87674 0.32684 0.0
C1568 C 0.20362 0.87901 0.36123 0.0
C1569 C 0.15818 0.87956 0.33633 0.0
C1570 C 0.1598 0.87512 0.38788 0.0
C1571 C 0.24204 0.88948 0.40482 0.0
N1572 N 0.16098 0.88049 0.35298 0.0
N1573 N 0.24274 0.88702 0.38809 0.0
H1574 H 0.63036 0.88864 0.41617 0.0
H1575 H 0.479 0.89225 0.33242 0.0
H1576 H 0.47745 0.87286 0.41551 0.0
H1577 H 0.63393 0.88398 0.33542 0.0
H1578 H 0.4749 0.89008 0.36276 0.0
H1579 H 0.62929 0.89234 0.3864 0.0
C1580 C 0.5964 0.88596 0.40977 0.0
C1581 C 0.55393 0.88031 0.4184 0.0
C1582 C 0.50963 0.88873 0.35668 0.0
C1583 C 0.55257 0.88455 0.38404 0.0
C1584 C 0.51204 0.89006 0.33943 0.0
C1585 C 0.55686 0.88821 0.33138 0.0
C1586 C 0.5524 0.88591 0.36581 0.0
C1587 C 0.59853 0.88534 0.34103 0.0
C1588 C 0.59589 0.88802 0.39271 0.0
C1589 C 0.51108 0.87709 0.40933 0.0
N1590 N 0.59525 0.88435 0.35768 0.0
N1591 N 0.51143 0.87929 0.39258 0.0
H1592 H 0.79079 0.66833 0.0819 0.0
H1593 H 0.79199 0.59629 0.16147 0.0
H1594 H 0.73357 0.59569 0.08072 0.0
H1595 H 0.73924 0.66971 0.16327 0.0
H1596 H 0.7742 0.59505 0.13184 0.0
H1597 H 0.77547 0.6699 0.11168 0.0
C1598 C 0.77428 0.65288 0.08793 0.0
C1599 C 0.76367 0.63179 0.07903 0.0
C1600 C 0.76556 0.61122 0.13881 0.0
C1601 C 0.74725 0.63326 0.11285 0.0
C1602 C 0.77598 0.612 0.15561 0.0
C1603 C 0.76729 0.63319 0.16463 0.0
C1604 C 0.74805 0.63208 0.13097 0.0
C1605 C 0.74638 0.65308 0.15662 0.0
C1606 C 0.76529 0.65385 0.10482 0.0
C1607 C 0.74219 0.61225 0.08726 0.0
N1608 N 0.73857 0.65229 0.14006 0.0
N1609 N 0.7358 0.61319 0.10388 0.0
H1610 H 0.51363 0.59266 0.1615 0.0
H1611 H 0.51974 0.67129 0.07935 0.0
H1612 H 0.45604 0.66514 0.15919 0.0
H1613 H 0.46025 0.59908 0.07989 0.0
H1614 H 0.53442 0.66819 0.10921 0.0
H1615 H 0.5311 0.59468 0.13171 0.0
C1616 C 0.50582 0.60916 0.15477 0.0
C1617 C 0.48292 0.62868 0.16258 0.0
C1618 C 0.51954 0.65283 0.10261 0.0
C1619 C 0.50398 0.6313 0.1291 0.0
C1620 C 0.51139 0.65451 0.08567 0.0
C1621 C 0.48846 0.63545 0.07734 0.0
C1622 C 0.50581 0.63174 0.11102 0.0
C1623 C 0.47766 0.61418 0.08602 0.0
C1624 C 0.51572 0.61026 0.1379 0.0
C1625 C 0.4732 0.64966 0.15346 0.0
N1626 N 0.48623 0.61291 0.10249 0.0
N1627 N 0.48375 0.65043 0.13712 0.0
H1628 H 0.25527 0.42309 0.91203 0.0
H1629 H 0.25694 0.34446 0.82992 0.0
H1630 H 0.20147 0.34977 0.91147 0.0
H1631 H 0.19507 0.41612 0.8312 0.0
H1632 H 0.27019 0.34679 0.85994 0.0
H1633 H 0.26723 0.42077 0.88195 0.0
C1634 C 0.24721 0.40635 0.90561 0.0
C1635 C 0.22698 0.38665 0.91403 0.0
C1636 C 0.25461 0.36211 0.8535 0.0
C1637 C 0.24153 0.38376 0.88016 0.0
C1638 C 0.24712 0.36082 0.83649 0.0
C1639 C 0.22442 0.38004 0.82828 0.0
C1640 C 0.24067 0.38302 0.86207 0.0
C1641 C 0.21213 0.40086 0.83723 0.0
C1642 C 0.25387 0.40509 0.88856 0.0
C1643 C 0.21671 0.36538 0.90527 0.0
N1644 N 0.22045 0.40184 0.85372 0.0
N1645 N 0.22407 0.36447 0.88873 0.0
H1646 H 0.60263 0.35021 0.8274 0.0
H1647 H 0.46717 0.37815 0.9123 0.0
H1648 H 0.4813 0.3993 0.82947 0.0
H1649 H 0.61389 0.35273 0.90754 0.0
H1650 H 0.46039 0.37859 0.8819 0.0
H1651 H 0.59439 0.34288 0.85673 0.0
C1652 C 0.57412 0.35948 0.83403 0.0
C1653 C 0.54327 0.37584 0.82603 0.0
C1654 C 0.49376 0.37274 0.88761 0.0
C1655 C 0.53377 0.36748 0.85981 0.0
C1656 C 0.49757 0.37237 0.90486 0.0
C1657 C 0.54133 0.36564 0.91232 0.0
C1658 C 0.5337 0.36582 0.878 0.0
C1659 C 0.57975 0.35835 0.90225 0.0
C1660 C 0.5694 0.35522 0.85081 0.0
C1661 C 0.50622 0.38679 0.83524 0.0
N1662 N 0.57502 0.35865 0.88565 0.0
N1663 N 0.5028 0.38264 0.85178 0.0
H1664 H 0.50784 0.15293 0.99168 0.0
H1665 H 0.7406 0.1176 0.04497 0.0
H1666 H 0.51424 0.15482 0.04491 0.0
H1667 H 0.74049 0.11854 0.99169 0.0
H1668 H 0.65617 0.12976 0.04483 0.0
H1669 H 0.59311 0.14122 0.99104 0.0
C1670 C 0.5274 0.15142 0.00321 0.0
C1671 C 0.50379 0.15468 0.01839 0.0
C1672 C 0.67439 0.12716 0.03314 0.0
C1673 C 0.60078 0.14076 0.01774 0.0
C1674 C 0.72254 0.11997 0.03321 0.0
C1675 C 0.74771 0.11716 0.01832 0.0
C1676 C 0.65108 0.13164 0.01806 0.0
C1677 C 0.72242 0.12044 0.00346 0.0
C1678 C 0.57591 0.14445 0.00284 0.0
C1679 C 0.53085 0.15232 0.03293 0.0
N1680 N 0.6755 0.12774 0.0037 0.0
N1681 N 0.57772 0.14529 0.03225 0.0
H1682 H 0.74147 0.15015 0.20232 0.0
H1683 H 0.5123 0.11186 0.25645 0.0
H1684 H 0.7451 0.14604 0.25551 0.0
H1685 H 0.51434 0.11424 0.20319 0.0
H1686 H 0.59759 0.12366 0.25672 0.0
H1687 H 0.65667 0.13865 0.20282 0.0
C1688 C 0.72415 0.14722 0.21414 0.0
C1689 C 0.75044 0.14892 0.22889 0.0
C1690 C 0.57941 0.12137 0.24499 0.0
C1691 C 0.65344 0.13518 0.22955 0.0
C1692 C 0.53092 0.11434 0.24482 0.0
C1693 C 0.50615 0.11218 0.22977 0.0
C1694 C 0.60306 0.12622 0.23002 0.0
C1695 C 0.53194 0.11584 0.21508 0.0
C1696 C 0.67579 0.14043 0.21442 0.0
C1697 C 0.72612 0.14499 0.24385 0.0
N1698 N 0.57882 0.12286 0.21559 0.0
N1699 N 0.67898 0.13804 0.2438 0.0
H1700 H 0.25464 0.89655 0.94934 0.0
H1701 H 0.49516 0.86914 0.00073 0.0
H1702 H 0.26298 0.90371 0.00231 0.0
H1703 H 0.48709 0.86928 0.94752 0.0
H1704 H 0.40899 0.879 0.0019 0.0
H1705 H 0.33975 0.88564 0.9487 0.0
C1706 C 0.27465 0.89617 0.96083 0.0
C1707 C 0.25175 0.90104 0.9759 0.0
C1708 C 0.42606 0.87666 0.98999 0.0
C1709 C 0.34916 0.88806 0.97531 0.0
C1710 C 0.47508 0.87073 0.98931 0.0
C1711 C 0.49833 0.8685 0.97399 0.0
C1712 C 0.40029 0.88023 0.97525 0.0
C1713 C 0.47067 0.87098 0.95959 0.0
C1714 C 0.3232 0.88977 0.96047 0.0
C1715 C 0.27937 0.90025 0.99042 0.0
N1716 N 0.42323 0.87686 0.96058 0.0
N1717 N 0.32667 0.89365 0.98978 0.0
H1718 H 0.49264 0.9002 0.78997 0.0
H1719 H 0.25454 0.86878 0.73847 0.0
H1720 H 0.48915 0.90069 0.7367 0.0
H1721 H 0.26826 0.86088 0.79129 0.0
H1722 H 0.33972 0.88055 0.73708 0.0
H1723 H 0.40811 0.88828 0.79032 0.0
C1724 C 0.47379 0.89819 0.77832 0.0
C1725 C 0.49801 0.90131 0.76328 0.0
C1726 C 0.32413 0.87598 0.74893 0.0
C1727 C 0.40128 0.88712 0.76357 0.0
C1728 C 0.27567 0.86898 0.74972 0.0
C1729 C 0.25415 0.86403 0.76505 0.0
C1730 C 0.351 0.87801 0.76357 0.0
C1731 C 0.2832 0.86472 0.77922 0.0
C1732 C 0.4256 0.89114 0.77853 0.0
C1733 C 0.47176 0.89854 0.74857 0.0
N1734 N 0.32995 0.87184 0.77815 0.0
N1735 N 0.42476 0.89136 0.74908 0.0
H1736 H 0.51365 0.65128 0.49019 0.0
H1737 H 0.74357 0.6138 0.54409 0.0
H1738 H 0.5211 0.65601 0.54333 0.0
H1739 H 0.74641 0.61674 0.49084 0.0
H1740 H 0.65945 0.62646 0.54362 0.0
H1741 H 0.5983 0.63847 0.48971 0.0
C1742 C 0.53335 0.65019 0.50172 0.0
C1743 C 0.51016 0.65451 0.51684 0.0
C1744 C 0.67828 0.62418 0.53201 0.0
C1745 C 0.60631 0.63929 0.51639 0.0
C1746 C 0.72622 0.61667 0.53227 0.0
C1747 C 0.75221 0.61442 0.51749 0.0
C1748 C 0.65602 0.62948 0.51686 0.0
C1749 C 0.72776 0.61829 0.50253 0.0
C1750 C 0.58146 0.64257 0.50144 0.0
C1751 C 0.53737 0.65265 0.53139 0.0
N1752 N 0.68105 0.6259 0.5026 0.0
N1753 N 0.58379 0.64494 0.53081 0.0
H1754 H 0.51986 0.61027 0.75236 0.0
H1755 H 0.74014 0.65366 0.69564 0.0
H1756 H 0.5104 0.62118 0.6997 0.0
H1757 H 0.75032 0.64683 0.74861 0.0
H1758 H 0.65509 0.64261 0.69717 0.0
H1759 H 0.60503 0.62229 0.75135 0.0
C1760 C 0.53592 0.61472 0.74055 0.0
C1761 C 0.50803 0.61478 0.72609 0.0
C1762 C 0.67574 0.64374 0.7085 0.0
C1763 C 0.6048 0.62904 0.72491 0.0
C1764 C 0.72425 0.65027 0.70764 0.0
C1765 C 0.75247 0.65104 0.72201 0.0
C1766 C 0.65524 0.63781 0.72383 0.0
C1767 C 0.72992 0.64647 0.73722 0.0
C1768 C 0.58433 0.62187 0.74002 0.0
C1769 C 0.53052 0.62098 0.71116 0.0
N1770 N 0.68269 0.63978 0.73772 0.0
N1771 N 0.57745 0.62798 0.71098 0.0
H1772 H 0.26063 0.40407 0.45365 0.0
H1773 H 0.49477 0.36542 0.50513 0.0
H1774 H 0.26057 0.39733 0.50673 0.0
H1775 H 0.48781 0.36865 0.45194 0.0
H1776 H 0.40924 0.37667 0.50637 0.0
H1777 H 0.34559 0.39293 0.45326 0.0
C1778 C 0.27874 0.40062 0.46527 0.0
C1779 C 0.25342 0.4015 0.48024 0.0
C1780 C 0.42642 0.37469 0.49444 0.0
C1781 C 0.35067 0.38821 0.47987 0.0
C1782 C 0.47506 0.368 0.49372 0.0
C1783 C 0.49848 0.36622 0.4784 0.0
C1784 C 0.4013 0.37961 0.47976 0.0
C1785 C 0.4713 0.36997 0.46402 0.0
C1786 C 0.3272 0.39403 0.46503 0.0
C1787 C 0.27877 0.39691 0.49492 0.0
N1788 N 0.42432 0.37666 0.46506 0.0
N1789 N 0.32602 0.39022 0.49436 0.0
H1790 H 0.25755 0.36617 0.24241 0.0
H1791 H 0.49481 0.39583 0.29497 0.0
H1792 H 0.26676 0.36118 0.2955 0.0
H1793 H 0.48996 0.40075 0.24183 0.0
H1794 H 0.41024 0.38391 0.29512 0.0
H1795 H 0.34306 0.37737 0.24153 0.0
C1796 C 0.27777 0.36689 0.25384 0.0
C1797 C 0.25491 0.36291 0.26907 0.0
C1798 C 0.42743 0.38775 0.2834 0.0
C1799 C 0.35219 0.37623 0.26817 0.0
C1800 C 0.47565 0.39478 0.28333 0.0
C1801 C 0.49946 0.39922 0.26836 0.0
C1802 C 0.4027 0.38503 0.26839 0.0
C1803 C 0.47288 0.39761 0.25365 0.0
C1804 C 0.32641 0.37358 0.25334 0.0
C1805 C 0.28279 0.36426 0.28349 0.0
N1806 N 0.42589 0.39041 0.25402 0.0
N1807 N 0.32981 0.37101 0.28269 0.0
H1808 H 0.24584 0.11426 0.49098 0.0
H1809 H 0.01831 0.15522 0.54479 0.0
H1810 H 0.23982 0.11138 0.5442 0.0
H1811 H 0.01452 0.15065 0.49161 0.0
H1812 H 0.10204 0.1419 0.54437 0.0
H1813 H 0.16165 0.12763 0.49055 0.0
C1814 C 0.22655 0.11588 0.50255 0.0
C1815 C 0.25009 0.11192 0.51767 0.0
C1816 C 0.08309 0.14397 0.53276 0.0
C1817 C 0.15433 0.12779 0.51725 0.0
C1818 C 0.03538 0.15185 0.53298 0.0
C1819 C 0.0092 0.15383 0.51822 0.0
C1820 C 0.10494 0.13802 0.51767 0.0
C1821 C 0.03332 0.14934 0.50329 0.0
C1822 C 0.17867 0.12381 0.50229 0.0
C1823 C 0.2233 0.1144 0.53227 0.0
N1824 N 0.07979 0.14137 0.5034 0.0
N1825 N 0.17706 0.12245 0.53169 0.0
H1826 H 0.01311 0.11686 0.69997 0.0
H1827 H 0.2534 0.15227 0.7491 0.0
H1828 H 0.02144 0.11784 0.75317 0.0
H1829 H 0.23956 0.15407 0.69603 0.0
H1830 H 0.16832 0.14077 0.75116 0.0
H1831 H 0.09729 0.12933 0.69857 0.0
C1832 C 0.03293 0.11933 0.71138 0.0
C1833 C 0.01017 0.11638 0.72672 0.0
C1834 C 0.18383 0.14393 0.73908 0.0
C1835 C 0.10652 0.13119 0.72521 0.0
C1836 C 0.23227 0.15077 0.7379 0.0
C1837 C 0.25376 0.15395 0.72235 0.0
C1838 C 0.15682 0.14028 0.72463 0.0
C1839 C 0.22462 0.15166 0.70826 0.0
C1840 C 0.08093 0.12668 0.71058 0.0
C1841 C 0.03764 0.1198 0.74109 0.0
N1842 N 0.17782 0.14474 0.70974 0.0
N1843 N 0.08439 0.12724 0.73999 0.0
H1844 H 0.76269 0.90301 0.50708 0.0
H1845 H 0.98886 0.86242 0.45226 0.0
H1846 H 0.76243 0.89865 0.45388 0.0
H1847 H 0.99751 0.87183 0.50507 0.0
H1848 H 0.9037 0.87307 0.45325 0.0
H1849 H 0.84812 0.89135 0.5071 0.0
C1850 C 0.7808 0.90009 0.4954 0.0
C1851 C 0.75539 0.9017 0.48045 0.0
C1852 C 0.92402 0.87265 0.46467 0.0
C1853 C 0.85239 0.88783 0.48042 0.0
C1854 C 0.9726 0.86634 0.46412 0.0
C1855 C 1.0004 0.86641 0.47859 0.0
C1856 C 0.90294 0.87917 0.47979 0.0
C1857 C 0.97737 0.87153 0.49362 0.0
C1858 C 0.82937 0.89316 0.49544 0.0
C1859 C 0.78051 0.89749 0.4657 0.0
N1860 N 0.92996 0.87798 0.49383 0.0
N1861 N 0.82745 0.89058 0.46607 0.0
H1862 H 0.99016 0.90406 0.29031 0.0
H1863 H 0.75611 0.86237 0.24016 0.0
H1864 H 0.99217 0.89239 0.23762 0.0
H1865 H 0.76839 0.86171 0.2933 0.0
H1866 H 0.8411 0.87446 0.23833 0.0
H1867 H 0.90552 0.89234 0.29086 0.0
C1868 C 0.97254 0.89943 0.27879 0.0
C1869 C 0.99841 0.89897 0.26392 0.0
C1870 C 0.82521 0.87139 0.25036 0.0
C1871 C 0.90155 0.885 0.26451 0.0
C1872 C 0.77689 0.86422 0.25142 0.0
C1873 C 0.755 0.86122 0.26692 0.0
C1874 C 0.85151 0.87562 0.2649 0.0
C1875 C 0.7836 0.86401 0.28109 0.0
C1876 C 0.92429 0.89248 0.27914 0.0
C1877 C 0.97358 0.89297 0.24936 0.0
N1878 N 0.83017 0.8713 0.27973 0.0
N1879 N 0.92651 0.88596 0.25004 0.0
H1880 H 0.00368 0.66184 0.00032 0.0
H1881 H 0.23878 0.62919 0.0533 0.0
H1882 H 1.00126 0.64954 0.05295 0.0
H1883 H 0.23694 0.63356 8e-05 0.0
H1884 H 0.1523 0.63796 0.05363 0.0
H1885 H 0.09067 0.65464 0.00035 0.0
C1886 C 0.02152 0.65802 0.01193 0.0
C1887 C 0.99508 0.65615 0.02664 0.0
C1888 C 0.17078 0.63684 0.04188 0.0
C1889 C 0.09449 0.64748 0.02671 0.0
C1890 C 0.22009 0.63165 0.04167 0.0
C1891 C 0.24515 0.63065 0.02664 0.0
C1892 C 0.14644 0.64115 0.02696 0.0
C1893 C 0.21911 0.63414 0.01197 0.0
C1894 C 0.07114 0.65368 0.01191 0.0
C1895 C 0.02017 0.65108 0.0413 0.0
N1896 N 0.17124 0.63939 0.0125 0.0
N1897 N 0.06842 0.64675 0.04095 0.0
H1898 H 0.24165 0.64333 0.18918 0.0
H1899 H 0.01048 0.60816 0.24345 0.0
H1900 H 0.23987 0.64433 0.24246 0.0
H1901 H 0.0072 0.61505 0.19037 0.0
H1902 H 0.09621 0.61854 0.24314 0.0
H1903 H 0.15632 0.63208 0.18925 0.0
C1904 C 0.22315 0.64158 0.2009 0.0
C1905 C 0.24805 0.64477 0.21584 0.0
C1906 C 0.07681 0.61761 0.23155 0.0
C1907 C 0.15054 0.63136 0.21601 0.0
C1908 C 0.02793 0.61142 0.23169 0.0
C1909 C 1.00146 0.61084 0.21692 0.0
C1910 C 0.09949 0.62321 0.21652 0.0
C1911 C 0.02609 0.61534 0.20207 0.0
C1912 C 0.17449 0.63495 0.20093 0.0
C1913 C 0.22219 0.64213 0.23064 0.0
N1914 N 0.07361 0.6215 0.20227 0.0
N1915 N 0.17497 0.63539 0.23034 0.0
H1916 H 0.9926 0.36479 0.94246 0.0
H1917 H 0.76024 0.39929 0.99612 0.0
H1918 H 0.99298 0.36719 0.99573 0.0
H1919 H 0.7612 0.39452 0.94292 0.0
H1920 H 0.84611 0.38889 0.99638 0.0
H1921 H 0.90694 0.37472 0.9426 0.0
C1922 C 0.97444 0.36698 0.95421 0.0
C1923 C 1.00004 0.36532 0.9691 0.0
C1924 C 0.82755 0.39031 0.98466 0.0
C1925 C 0.90214 0.37723 0.96935 0.0
C1926 C 0.7787 0.39655 0.98449 0.0
C1927 C 0.75352 0.39764 0.96948 0.0
C1928 C 0.8512 0.38523 0.96972 0.0
C1929 C 0.77915 0.39373 0.95479 0.0
C1930 C 0.92559 0.37288 0.95428 0.0
C1931 C 0.97465 0.36831 0.98395 0.0
N1932 N 0.82648 0.38753 0.95529 0.0
N1933 N 0.92711 0.37438 0.9837 0.0
H1934 H 0.99895 0.40319 0.7434 0.0
H1935 H 0.76464 0.36029 0.79315 0.0
H1936 H 0.99149 0.39742 0.79649 0.0
H1937 H 0.76677 0.3693 0.74022 0.0
H1938 H 0.84929 0.3721 0.79423 0.0
H1939 H 0.91397 0.39135 0.74174 0.0
C1940 C 0.97924 0.39992 0.75473 0.0
C1941 C 0.00249 0.40115 0.77011 0.0
C1942 C 0.83143 0.37133 0.78235 0.0
C1943 C 0.90568 0.38707 0.76826 0.0
C1944 C 0.78316 0.36435 0.78171 0.0
C1945 C 0.75847 0.36395 0.76658 0.0
C1946 C 0.85534 0.37801 0.76776 0.0
C1947 C 0.78439 0.36934 0.75215 0.0
C1948 C 0.93086 0.3929 0.75375 0.0
C1949 C 0.97516 0.3966 0.78436 0.0
N1950 N 0.83138 0.37639 0.75311 0.0
N1951 N 0.92837 0.38955 0.78307 0.0
H1952 H 0.13313 0.05167 0.9919 0.0
H1953 H 0.01119 0.92623 0.01254 0.0
H1954 H 0.0847 0.03333 0.04102 0.0
H1955 H 0.02253 0.95432 0.96315 0.0
H1956 H 0.02943 0.96677 0.02338 0.0
H1957 H 0.08605 0.01811 0.98106 0.0
C1958 C 0.11188 0.04118 0.00045 0.0
C1959 C 0.11347 0.04563 0.01752 0.0
C1960 C 0.02655 0.96425 0.01016 0.0
C1961 C 0.0606 1.00608 0.00507 0.0
C1962 C 0.01516 0.9412 0.00401 0.0
C1963 C 0.01474 0.93706 0.98696 0.0
C1964 C 0.03864 0.98302 -0.00087 0.0
C1965 C 0.02195 0.9569 0.97641 0.0
C1966 C 0.08519 0.02166 0.9942 0.0
C1967 C 0.08542 0.03055 0.0278 0.0
N1968 N 0.03464 0.97886 0.98263 0.0
N1969 N 0.06094 0.0113 0.02148 0.0
H1970 H 0.21755 0.35014 0.01251 0.0
H1971 H 0.14253 0.21354 0.99212 0.0
H1972 H 0.23047 0.31769 0.9644 0.0
H1973 H 0.14263 0.24341 0.04137 0.0
H1974 H 0.18063 0.25065 0.98214 0.0
H1975 H 0.20028 0.30991 0.02414 0.0
C1976 C 0.21895 0.33438 0.00454 0.0
C1977 C 0.22615 0.33711 0.98754 0.0
C1978 C 0.17228 0.24906 0.99514 0.0
C1979 C 0.2035 0.29141 0.00045 0.0
C1980 C 0.14984 0.2279 0.00084 0.0
C1981 C 0.13755 0.22548 0.01756 0.0
C1982 C 0.18329 0.26787 0.00627 0.0
C1983 C 0.1508 0.24441 0.02833 0.0
C1984 C 0.20815 0.31148 0.01109 0.0
C1985 C 0.22572 0.31625 0.97763 0.0
N1986 N 0.17246 0.26479 0.02251 0.0
N1987 N 0.21356 0.29443 0.98414 0.0
H1988 H 0.02084 0.34236 0.23603 0.0
H1989 H 0.11186 0.20816 0.25662 0.0
H1990 H 0.023 0.31223 0.285 0.0
H1991 H 0.10908 0.2388 0.20761 0.0
H1992 H 0.07083 0.24434 0.26694 0.0
H1993 H 0.04007 0.30221 0.22481 0.0
C1994 C 0.023 0.32703 0.24434 0.0
C1995 C 0.01979 0.3305 0.26142 0.0
C1996 C 0.07932 0.24312 0.25392 0.0
C1997 C 0.04478 0.28491 0.24888 0.0
C1998 C 0.10335 0.22251 0.24804 0.0
C1999 C 0.11561 0.22059 0.23127 0.0
C2000 C 0.06683 0.26187 0.24295 0.0
C2001 C 0.10097 0.23943 0.22067 0.0
C2002 C 0.03511 0.30421 0.238 0.0
C2003 C 0.02466 0.31019 0.27172 0.0
N2004 N 0.07784 0.25926 0.22668 0.0
N2005 N 0.03784 0.2884 0.26534 0.0
H2006 H 0.15509 0.02753 0.20229 0.0
H2007 H 0.23688 0.94921 0.28003 0.0
H2008 H 0.14621 0.05282 0.25265 0.0
H2009 H 0.23348 0.92173 0.23034 0.0
H2010 H 0.2183 0.98964 0.26965 0.0
H2011 H 0.19753 0.99165 0.21181 0.0
C2012 C 0.16193 0.02567 0.21539 0.0
C2013 C 0.14509 0.04312 0.2267 0.0
C2014 C 0.22323 0.97501 0.26091 0.0
C2015 C 0.19407 1.00151 0.2377 0.0
C2016 C 0.23481 0.952 0.26681 0.0
C2017 C 0.23743 0.93219 0.25599 0.0
C2018 C 0.21484 0.97838 0.24399 0.0
C2019 C 0.23284 0.93661 0.23904 0.0
C2020 C 0.18619 1.005 0.2208 0.0
C2021 C 0.15599 0.03954 0.24346 0.0
N2022 N 0.22118 0.95921 0.23356 0.0
N2023 N 0.17924 0.01904 0.24846 0.0
H2024 H 0.98152 0.09806 0.98119 0.0
H2025 H 0.89137 0.96358 -0.00023 0.0
H2026 H 0.98275 0.0658 0.02953 0.0
H2027 H 0.90092 0.99405 0.95079 0.0
H2028 H 0.93228 0.99935 0.01059 0.0
H2029 H 0.96443 0.05811 0.96922 0.0
C2030 C 0.98058 0.08235 0.98919 0.0
C2031 C 0.98423 0.08511 0.00632 0.0
C2032 C 0.92546 0.99814 -0.00255 0.0
C2033 C 0.9615 0.03972 0.99295 0.0
C2034 C 0.90129 0.97777 0.99126 0.0
C2035 C 0.89052 0.976 0.97437 0.0
C2036 C 0.94003 0.01673 0.98665 0.0
C2037 C 0.90757 0.99458 0.96395 0.0
C2038 C 0.96978 0.0596 0.98242 0.0
C2039 C 0.98082 0.06431 0.01622 0.0
N2040 N 0.93096 0.01416 0.97025 0.0
N2041 N 0.96859 0.04264 0.00945 0.0
H2042 H 0.84635 0.78096 0.95365 0.0
H2043 H 0.75785 0.7016 0.03032 0.0
H2044 H 0.85041 0.80579 0.00416 0.0
H2045 H 0.78131 0.6722 0.98178 0.0
H2046 H 0.77527 0.74214 0.01976 0.0
H2047 H 0.80747 0.74373 0.96275 0.0
C2048 C 0.8391 0.7787 0.96669 0.0
C2049 C 0.85326 0.79647 0.97819 0.0
C2050 C 0.77537 0.72697 0.01128 0.0
C2051 C 0.80843 0.75345 0.98869 0.0
C2052 C 0.76453 0.70389 0.01724 0.0
C2053 C 0.76743 0.68361 0.00683 0.0
C2054 C 0.78911 0.72987 0.99474 0.0
C2055 C 0.77765 0.68743 0.9901 0.0
C2056 C 0.81698 0.75728 0.97186 0.0
C2057 C 0.84224 0.79236 0.99487 0.0
N2058 N 0.78863 0.71011 0.98459 0.0
N2059 N 0.82086 0.77122 -0.00038 0.0
H2060 H 0.8942 0.776 0.78876 0.0
H2061 H 0.98928 0.70058 0.71128 0.0
H2062 H 0.89661 0.80375 0.73898 0.0
H2063 H 0.9711 0.6701 0.75976 0.0
H2064 H 0.96991 0.7406 0.72227 0.0
H2065 H 0.93516 0.73955 0.77931 0.0
C2066 C 0.90334 0.77453 0.77581 0.0
C2067 C 0.89049 0.79288 0.76459 0.0
C2068 C 0.97158 0.72535 0.73065 0.0
C2069 C 0.93781 0.75082 0.75366 0.0
C2070 C 0.98358 0.70257 0.72444 0.0
C2071 C 0.98249 0.68211 0.73469 0.0
C2072 C 0.95872 0.72777 0.74732 0.0
C2073 C 0.97339 0.68551 0.75153 0.0
C2074 C 0.92667 0.75357 0.77043 0.0
C2075 C 0.90386 0.78983 0.748 0.0
N2076 N 0.96127 0.70789 0.75731 0.0
N2077 N 0.92644 0.76913 0.74303 0.0
H2078 H 0.77449 0.06335 0.71474 0.0
H2079 H 0.84202 0.98383 0.79365 0.0
H2080 H 0.77338 0.09141 0.7643 0.0
H2081 H 0.88424 0.96657 0.74369 0.0
H2082 H 0.79692 0.01855 0.78325 0.0
H2083 H 0.7928 0.0231 0.72554 0.0
C2084 C 0.77552 0.06072 0.72799 0.0
C2085 C 0.77182 0.08062 0.73868 0.0
C2086 C 0.8155 1.0069 0.77457 0.0
C2087 C 0.79374 0.03467 0.75113 0.0
C2088 C 0.84125 0.98695 0.78045 0.0
C2089 C 0.86763 0.972 0.76961 0.0
C2090 C 0.81524 0.01191 0.75763 0.0
C2091 C 0.86444 0.97703 0.75264 0.0
C2092 C 0.78684 0.03783 0.73413 0.0
C2093 C 0.775 0.07642 0.7557 0.0
N2094 N 0.83908 0.99661 0.74722 0.0
N2095 N 0.78633 0.05391 0.76142 0.0
H2096 H 0.09408 0.53434 0.54472 0.0
H2097 H 0.02058 0.45405 0.46669 0.0
H2098 H 0.13774 0.5498 0.49464 0.0
H2099 H 0.02233 0.42645 0.51636 0.0
H2100 H 0.04144 0.49424 0.47716 0.0
H2101 H 0.04787 0.49975 0.53467 0.0
C2102 C 0.09349 0.53085 0.53157 0.0
C2103 C 0.12059 0.54526 0.5206 0.0
C2104 C 0.03576 0.47961 0.48585 0.0
C2105 C 0.0668 0.5055 0.50902 0.0
C2106 C 0.02285 0.45678 0.47992 0.0
C2107 C 0.01907 0.437 0.49072 0.0
C2108 C 0.04416 0.48284 0.50277 0.0
C2109 C 0.02387 0.44134 0.50768 0.0
C2110 C 0.06707 0.51097 0.52589 0.0
C2111 C 0.11749 0.53976 0.50369 0.0
N2112 N 0.03668 0.46378 0.5132 0.0
N2113 N 0.0914 0.52027 0.49846 0.0
H2114 H 0.14528 0.71223 0.48781 0.0
H2115 H 0.22938 0.8462 0.51114 0.0
H2116 H 0.14529 0.74116 0.53735 0.0
H2117 H 0.24007 0.81666 0.46212 0.0
H2118 H 0.21077 0.80567 0.52166 0.0
H2119 H 0.18745 0.74867 0.47845 0.0
C2120 C 0.15344 0.72621 0.49671 0.0
C2121 C 0.14007 0.72374 0.51334 0.0
C2122 C 0.21848 0.80786 0.50865 0.0
C2123 C 0.18996 0.76531 0.50276 0.0
C2124 C 0.23027 0.83093 0.50274 0.0
C2125 C 0.23696 0.83465 0.48581 0.0
C2126 C 0.21223 0.78859 0.49746 0.0
C2127 C 0.23581 0.81441 0.47532 0.0
C2128 C 0.17813 0.74697 0.49137 0.0
C2129 C 0.15422 0.74217 0.52437 0.0
N2130 N 0.22247 0.79236 0.48123 0.0
N2131 N 0.17785 0.76214 0.51888 0.0
H2132 H 0.1051 0.73686 0.70479 0.0
H2133 H 0.01267 0.81412 0.78184 0.0
H2134 H 0.10611 0.71039 0.7549 0.0
H2135 H 0.02869 0.8431 0.73285 0.0
H2136 H 0.03148 0.77372 0.77127 0.0
H2137 H 0.06405 0.77335 0.71407 0.0
C2138 C 0.09666 0.73863 0.71778 0.0
C2139 C 0.11041 0.72061 0.72912 0.0
C2140 C 0.02945 0.78873 0.76271 0.0
C2141 C 0.0629 0.76273 0.73986 0.0
C2142 C 0.01766 0.81171 0.76867 0.0
C2143 C 0.01838 0.83188 0.75814 0.0
C2144 C 0.04182 0.78585 0.74603 0.0
C2145 C 0.02668 0.82794 0.7413 0.0
C2146 C 0.07327 0.75961 0.72307 0.0
C2147 C 0.09798 0.72404 0.74576 0.0
N2148 N 0.0387 0.80542 0.73578 0.0
N2149 N 0.07522 0.74475 0.75064 0.0
H2150 H 0.23093 0.45106 0.77991 0.0
H2151 H 0.14583 0.52428 0.70051 0.0
H2152 H 0.22794 0.42067 0.73099 0.0
H2153 H 0.14235 0.55334 0.75002 0.0
H2154 H 0.18835 0.48897 0.71076 0.0
H2155 H 0.21167 0.49074 0.76848 0.0
C2156 C 0.22858 0.45305 0.76663 0.0
C2157 C 0.23156 0.43265 0.75634 0.0
C2158 C 0.17819 0.50304 0.7194 0.0
C2159 C 0.20852 0.47803 0.74314 0.0
C2160 C 0.15384 0.52341 0.71358 0.0
C2161 C 0.13844 0.54179 0.72445 0.0
C2162 C 0.18762 0.50077 0.7363 0.0
C2163 C 0.15094 0.5394 0.74118 0.0
C2164 C 0.21682 0.47565 0.76013 0.0
C2165 C 0.22691 0.43604 0.73929 0.0
N2166 N 0.17425 0.51916 0.74659 0.0
N2167 N 0.21501 0.45829 0.73322 0.0
H2168 H 0.89806 0.48892 0.4494 0.0
H2169 H 0.98765 0.56533 0.52714 0.0
H2170 H 0.89585 0.46221 0.49948 0.0
H2171 H 0.97502 0.59497 0.47821 0.0
H2172 H 0.96808 0.52529 0.5163 0.0
H2173 H 0.93965 0.52515 0.45887 0.0
C2174 C 0.90622 0.49055 0.46243 0.0
C2175 C 0.89163 0.47257 0.4737 0.0
C2176 C 0.9714 0.5403 0.50778 0.0
C2177 C 0.93954 0.51451 0.48465 0.0
C2178 C 0.98335 0.56311 0.51393 0.0
C2179 C 0.98367 0.5834 0.5035 0.0
C2180 C 0.96042 0.53758 0.49099 0.0
C2181 C 0.97622 0.57971 0.48658 0.0
C2182 C 0.92993 0.51141 0.46781 0.0
C2183 C 0.904 0.47586 0.49037 0.0
N2184 N 0.96437 0.55725 0.48086 0.0
N2185 N 0.92674 0.49652 0.49534 0.0
H2186 H 0.85111 0.28178 0.45524 0.0
H2187 H 0.77012 0.20395 0.53332 0.0
H2188 H 0.85498 0.30862 0.50529 0.0
H2189 H 0.77552 0.17574 0.48384 0.0
H2190 H 0.7869 0.24448 0.52265 0.0
H2191 H 0.81083 0.24536 0.46492 0.0
C2192 C 0.8436 0.28014 0.46831 0.0
C2193 C 0.85826 0.29824 0.4795 0.0
C2194 C 0.78303 0.22962 0.51403 0.0
C2195 C 0.81184 0.25601 0.4907 0.0
C2196 C 0.77245 0.20656 0.52008 0.0
C2197 C 0.77074 0.18657 0.5094 0.0
C2198 C 0.79189 0.23277 0.49712 0.0
C2199 C 0.77553 0.19076 0.49243 0.0
C2200 C 0.82062 0.25916 0.47381 0.0
C2201 C 0.84671 0.29489 0.49623 0.0
N2202 N 0.78656 0.21337 0.48682 0.0
N2203 N 0.8247 0.2741 0.50133 0.0
H2204 H 0.90598 0.27838 0.29077 0.0
H2205 H 0.99159 0.19893 0.21383 0.0
H2206 H 0.89799 0.30296 0.24027 0.0
H2207 H 0.97763 0.17112 0.2632 0.0
H2208 H 0.97348 0.23962 0.22406 0.0
H2209 H 0.94687 0.24188 0.28151 0.0
C2210 C 0.91277 0.27621 0.2777 0.0
C2211 C 0.89685 0.29366 0.26626 0.0
C2212 C 0.97571 0.22478 0.23276 0.0
C2213 C 0.944 0.25142 0.25555 0.0
C2214 C 0.98716 0.20165 0.22699 0.0
C2215 C 0.98692 0.18175 0.23775 0.0
C2216 C 0.96421 0.22807 0.24948 0.0
C2217 C 0.97928 0.18608 0.25458 0.0
C2218 C 0.93607 0.2552 0.27243 0.0
C2219 C 0.90746 0.28971 0.24952 0.0
N2220 N 0.96768 0.20874 0.25991 0.0
N2221 N 0.92996 0.26893 0.24466 0.0
H2222 H 0.77373 0.59285 0.26171 0.0
H2223 H 0.88307 0.46423 0.24246 0.0
H2224 H 0.7738 0.56106 0.21317 0.0
H2225 H 0.8418 0.48525 0.29184 0.0
H2226 H 0.83697 0.49808 0.23167 0.0
H2227 H 0.79076 0.55266 0.27349 0.0
C2228 C 0.7752 0.57724 0.25363 0.0
C2229 C 0.77217 0.58016 0.23649 0.0
C2230 C 0.83742 0.49507 0.24487 0.0
C2231 C 0.79421 0.53462 0.24965 0.0
C2232 C 0.86349 0.47537 0.2511 0.0
C2233 C 0.86686 0.4716 0.26819 0.0
C2234 C 0.81524 0.51148 0.25578 0.0
C2235 C 0.84103 0.4875 0.27858 0.0
C2236 C 0.78575 0.55437 0.26029 0.0
C2237 C 0.77578 0.55948 0.22648 0.0
N2238 N 0.81713 0.50692 0.27226 0.0
N2239 N 0.78764 0.53773 0.23315 0.0
H2240 H 0.51743 0.92618 0.51451 0.0
H2241 H 0.63577 0.05146 0.4915 0.0
H2242 H 0.52303 0.95344 0.46479 0.0
H2243 H 0.59235 0.03374 0.54126 0.0
H2244 H 0.58779 0.01764 0.48143 0.0
H2245 H 0.53549 0.96702 0.52479 0.0
C2246 C 0.52002 0.94103 0.50582 0.0
C2247 C 0.51814 0.93656 0.48881 0.0
C2248 C 0.58828 0.02138 0.49455 0.0
C2249 C 0.54209 0.98286 0.50032 0.0
C2250 C 0.61542 0.04104 0.50035 0.0
C2251 C 0.61862 0.04574 0.51736 0.0
C2252 C 0.56489 1.00594 0.50581 0.0
C2253 C 0.59177 0.03078 0.52806 0.0
C2254 C 0.53131 0.96426 0.51164 0.0
C2255 C 0.52363 0.95626 0.47802 0.0
N2256 N 0.56688 0.01139 0.52217 0.0
N2257 N 0.53655 0.97839 0.4839 0.0
H2258 H 0.61888 0.21836 0.48764 0.0
H2259 H 0.73168 0.34445 0.51138 0.0
H2260 H 0.65517 0.23733 0.53788 0.0
H2261 H 0.73433 0.31612 0.4619 0.0
H2262 H 0.71313 0.30375 0.52173 0.0
H2263 H 0.66831 0.25195 0.47803 0.0
C2264 C 0.63796 0.22901 0.49671 0.0
C2265 C 0.63229 0.22475 0.51369 0.0
C2266 C 0.71922 0.30624 0.50864 0.0
C2267 C 0.68762 0.26427 0.50265 0.0
C2268 C 0.73084 0.3294 0.5028 0.0
C2269 C 0.73516 0.33351 0.48581 0.0
C2270 C 0.71061 0.28735 0.49733 0.0
C2271 C 0.73186 0.31356 0.47513 0.0
C2272 C 0.66597 0.24852 0.49116 0.0
C2273 C 0.65758 0.23998 0.52467 0.0
N2274 N 0.71857 0.29149 0.48099 0.0
N2275 N 0.68324 0.25924 0.519 0.0
H2276 H 0.60639 0.20867 0.75253 0.0
H2277 H 0.53426 0.34342 0.72782 0.0
H2278 H 0.6053 0.23495 0.70234 0.0
H2279 H 0.51189 0.31393 0.77638 0.0
H2280 H 0.55091 0.3025 0.71752 0.0
H2281 H 0.56677 0.24612 0.76127 0.0
C2282 C 0.59846 0.22229 0.74335 0.0
C2283 C 0.61096 0.21882 0.72673 0.0
C2284 C 0.54102 0.30483 0.73034 0.0
C2285 C 0.56374 0.26151 0.73659 0.0
C2286 C 0.53048 0.32815 0.73612 0.0
C2287 C 0.52085 0.33193 0.75288 0.0
C2288 C 0.54326 0.28537 0.74155 0.0
C2289 C 0.51839 0.31165 0.76329 0.0
C2290 C 0.57517 0.24362 0.74833 0.0
C2291 C 0.59703 0.23678 0.71534 0.0
N2292 N 0.53065 0.28933 0.75757 0.0
N2293 N 0.57471 0.25734 0.72048 0.0
H2294 H 0.66202 0.03077 0.69992 0.0
H2295 H 0.73454 0.95003 0.77764 0.0
H2296 H 0.61899 0.04612 0.75006 0.0
H2297 H 0.73579 0.92356 0.72768 0.0
H2298 H 0.71486 0.99046 0.76747 0.0
H2299 H 0.70992 0.99674 0.70988 0.0
C2300 C 0.66323 0.02736 0.71307 0.0
C2301 C 0.6358 0.04149 0.7241 0.0
C2302 C 0.72127 0.97607 0.75866 0.0
C2303 C 0.69132 1.00239 0.73558 0.0
C2304 C 0.73344 0.95308 0.76443 0.0
C2305 C 0.73731 0.93351 0.75346 0.0
C2306 C 0.71402 0.9797 0.74172 0.0
C2307 C 0.73402 0.93826 0.73651 0.0
C2308 C 0.69059 1.00782 0.71871 0.0
C2309 C 0.63961 0.03621 0.74101 0.0
N2310 N 0.72198 0.96087 0.73114 0.0
N2311 N 0.66647 0.01698 0.7462 0.0
H2312 H 0.39685 0.99047 0.44826 0.0
H2313 H 0.48565 0.0646 0.52693 0.0
H2314 H 0.3973 0.96184 0.49785 0.0
H2315 H 0.47598 0.09525 0.47822 0.0
H2316 H 0.4672 0.02478 0.51559 0.0
H2317 H 0.43943 0.02619 0.45808 0.0
C2318 C 0.40579 0.99155 0.46125 0.0
C2319 C 0.39145 0.97322 0.47231 0.0
C2320 C 0.47085 0.03997 0.50723 0.0
C2321 C 0.44054 0.0146 0.48366 0.0
C2322 C 0.4822 0.06266 0.51367 0.0
C2323 C 0.48294 0.08317 0.50345 0.0
C2324 C 0.46104 0.03756 0.49033 0.0
C2325 C 0.47676 0.07982 0.48645 0.0
C2326 C 0.43014 0.01211 0.46683 0.0
C2327 C 0.40499 0.9758 0.48892 0.0
N2328 N 0.46549 0.05745 0.48042 0.0
N2329 N 0.42817 0.99622 0.4941 0.0
H2330 H 0.35269 0.78055 0.45497 0.0
H2331 H 0.26636 0.70329 0.5328 0.0
H2332 H 0.35665 0.80727 0.50504 0.0
H2333 H 0.28053 0.67412 0.48379 0.0
H2334 H 0.28354 0.74377 0.52202 0.0
H2335 H 0.31218 0.74414 0.4646 0.0
C2336 C 0.34512 0.77888 0.46803 0.0
C2337 C 0.3598 0.79692 0.47924 0.0
C2338 C 0.28155 0.72867 0.51351 0.0
C2339 C 0.3131 0.75476 0.49039 0.0
C2340 C 0.27063 0.70565 0.5196 0.0
C2341 C 0.27127 0.68542 0.50911 0.0
C2342 C 0.29306 0.73152 0.49676 0.0
C2343 C 0.27864 0.68932 0.49221 0.0
C2344 C 0.32202 0.75792 0.47351 0.0
C2345 C 0.34821 0.79357 0.49597 0.0
N2346 N 0.28988 0.71187 0.48658 0.0
N2347 N 0.326 0.77281 0.50105 0.0
H2348 H 0.48009 0.66792 0.25975 0.0
H2349 H 0.41957 0.78201 0.29037 0.0
H2350 H 0.46664 0.70044 0.21168 0.0
H2351 H 0.36476 0.79361 0.24113 0.0
H2352 H 0.46283 0.74644 0.28054 0.0
H2353 H 0.46546 0.70762 0.27233 0.0
C2354 C 0.47618 0.68365 0.25188 0.0
C2355 C 0.47461 0.68101 0.23471 0.0
C2356 C 0.44136 0.7567 0.27186 0.0
C2357 C 0.45664 0.72642 0.24883 0.0
C2358 C 0.41697 0.7773 0.27742 0.0
C2359 C 0.38793 0.79102 0.26663 0.0
C2360 C 0.43693 0.74964 0.25529 0.0
C2361 C 0.38685 0.78411 0.24997 0.0
C2362 C 0.46739 0.7064 0.25903 0.0
C2363 C 0.46807 0.7018 0.22501 0.0
N2364 N 0.41065 0.76387 0.24488 0.0
N2365 N 0.45844 0.72347 0.23218 0.0
H2366 H 0.27109 0.09166 0.26534 0.0
H2367 H 0.38409 0.96485 0.24322 0.0
H2368 H 0.27228 0.06269 0.21603 0.0
H2369 H 0.34378 0.98407 0.29304 0.0
H2370 H 0.33696 0.99883 0.23309 0.0
H2371 H 0.28881 0.05105 0.2761 0.0
C2372 C 0.27262 0.07651 0.25686 0.0
C2373 C 0.26961 0.08041 0.23982 0.0
C2374 C 0.33797 0.9954 0.24624 0.0
C2375 C 0.29318 0.03436 0.25183 0.0
C2376 C 0.36468 0.97564 0.25209 0.0
C2377 C 0.36852 0.97127 0.26913 0.0
C2378 C 0.31559 0.01127 0.25746 0.0
C2379 C 0.34273 0.98674 0.27982 0.0
C2380 C 0.28374 0.0534 0.26295 0.0
C2381 C 0.27378 0.06032 0.22929 0.0
N2382 N 0.31821 1.00619 0.27386 0.0
N2383 N 0.28656 0.03832 0.2354 0.0
H2384 H 0.56755 0.53631 0.03272 0.0
H2385 H 0.54591 0.44826 0.95498 0.0
H2386 H 0.6435 0.54578 0.98665 0.0
H2387 H 0.50373 0.42662 0.00398 0.0
H2388 H 0.56191 0.48901 0.96504 0.0
H2389 H 0.52568 0.50131 0.02093 0.0
C2390 C 0.57481 0.53142 0.02001 0.0
C2391 C 0.60949 0.54421 0.01072 0.0
C2392 C 0.54822 0.47557 0.97358 0.0
C2393 C 0.5615 0.50398 -0.00279 0.0
C2394 C 0.53837 0.45238 0.9678 0.0
C2395 C 0.52341 0.43405 0.97867 0.0
C2396 C 0.54281 0.48074 0.99041 0.0
C2397 C 0.51462 0.44031 0.99517 0.0
C2398 C 0.5509 0.51136 0.01334 0.0
C2399 C 0.61687 0.53702 0.99431 0.0
N2400 N 0.52508 0.46314 0.00063 0.0
N2401 N 0.59345 0.5173 0.98816 0.0
H2402 H 0.6395 0.7157 0.98689 0.0
H2403 H 0.73451 0.84913 0.00676 0.0
H2404 H 0.64691 0.7467 0.03579 0.0
H2405 H 0.73039 0.81891 0.95781 0.0
H2406 H 0.71682 0.80894 0.01809 0.0
H2407 H 0.68271 0.75104 0.97625 0.0
C2408 C 0.6495 0.7299 0.9954 0.0
C2409 C 0.63781 0.72836 0.01223 0.0
C2410 C 0.72106 0.8109 0.00488 0.0
C2411 C 0.68887 0.76868 0.00016 0.0
C2412 C 0.73227 0.83377 -0.00153 0.0
C2413 C 0.73434 0.83721 0.98138 0.0
C2414 C 0.71106 0.79156 0.99406 0.0
C2415 C 0.72952 0.81686 0.9711 0.0
C2416 C 0.6748 0.75002 0.98932 0.0
C2417 C 0.65437 0.74701 0.02268 0.0
N2418 N 0.7171 0.79501 0.97755 0.0
N2419 N 0.67847 0.76638 0.01647 0.0
H2420 H 0.63494 0.71459 0.25728 0.0
H2421 H 0.50914 0.83894 0.23667 0.0
H2422 H 0.5829 0.73194 0.20844 0.0
H2423 H 0.52915 0.81236 0.28613 0.0
H2424 H 0.52431 0.79788 0.22611 0.0
H2425 H 0.58684 0.74768 0.26831 0.0
C2426 C 0.61262 0.72477 0.24886 0.0
C2427 C 0.61359 0.72027 0.23181 0.0
C2428 C 0.52399 0.80087 0.23931 0.0
C2429 C 0.55964 0.75929 0.24441 0.0
C2430 C 0.51438 0.82423 0.24533 0.0
C2431 C 0.5176 0.82895 0.26228 0.0
C2432 C 0.53802 0.78243 0.25036 0.0
C2433 C 0.52608 0.80938 0.27296 0.0
C2434 C 0.58535 0.74401 0.25519 0.0
C2435 C 0.58418 0.73485 0.22165 0.0
N2436 N 0.53724 0.78719 0.26683 0.0
N2437 N 0.55926 0.7539 0.22803 0.0
H2438 H 0.74107 0.42278 0.23287 0.0
H2439 H 0.64066 0.55449 0.25445 0.0
H2440 H 0.7304 0.45065 0.28235 0.0
H2441 H 0.65607 0.5265 0.20492 0.0
H2442 H 0.68327 0.51894 0.26481 0.0
H2443 H 0.72421 0.46347 0.22218 0.0
C2444 C 0.73751 0.43773 0.24145 0.0
C2445 C 0.73754 0.43349 0.25848 0.0
C2446 C 0.67725 0.52067 0.25166 0.0
C2447 C 0.71518 0.47965 0.24648 0.0
C2448 C 0.65222 0.54094 0.24571 0.0
C2449 C 0.64263 0.54335 0.22876 0.0
C2450 C 0.6934 0.50275 0.2406 0.0
C2451 C 0.66159 0.52551 0.21812 0.0
C2452 C 0.72682 0.46087 0.23539 0.0
C2453 C 0.7311 0.45332 0.26911 0.0
N2454 N 0.68545 0.50598 0.2242 0.0
N2455 N 0.71913 0.47541 0.26297 0.0
H2456 H 0.44337 0.47337 0.9672 0.0
H2457 H 0.38344 0.60764 0.98916 0.0
H2458 H 0.31092 0.49371 0.99135 0.0
H2459 H 0.51899 0.58089 0.00793 0.0
H2460 H 0.36287 0.56678 0.97997 0.0
H2461 H 0.47696 0.51371 0.97375 0.0
C2462 C 0.42227 0.4859 0.9745 0.0
C2463 C 0.37517 0.47974 0.97943 0.0
C2464 C 0.39769 0.57 0.98569 0.0
C2465 C 0.41266 0.52572 0.98638 0.0
C2466 C 0.40984 0.59332 0.99067 0.0
C2467 C 0.45303 0.59763 -0.00075 0.0
C2468 C 0.42921 0.55085 0.98906 0.0
C2469 C 0.48566 0.57834 0.00115 0.0
C2470 C 0.44137 0.50878 0.97814 0.0
C2471 C 0.3482 0.49709 0.98808 0.0
N2472 N 0.47285 0.55555 0.99623 0.0
N2473 N 0.36715 0.51938 0.99112 0.0
H2474 H 0.26879 0.2035 0.03578 0.0
H2475 H 0.32629 0.28265 0.95586 0.0
H2476 H 0.26265 0.17549 0.98625 0.0
H2477 H 0.37819 0.29958 0.0048 0.0
H2478 H 0.28116 0.24866 0.96724 0.0
H2479 H 0.28449 0.24401 0.02476 0.0
C2480 C 0.26843 0.20615 0.02253 0.0
C2481 C 0.26402 0.18621 0.01188 0.0
C2482 C 0.30187 0.26008 0.9755 0.0
C2483 C 0.28396 0.23225 -0.00079 0.0
C2484 C 0.32769 0.27961 0.96906 0.0
C2485 C 0.357 0.29413 0.97929 0.0
C2486 C 0.30448 0.25505 0.9924 0.0
C2487 C 0.35628 0.28932 0.99631 0.0
C2488 C 0.27841 0.22915 0.01627 0.0
C2489 C 0.26505 0.19046 0.99484 0.0
N2490 N 0.33085 0.27007 0.00229 0.0
N2491 N 0.27568 0.21299 0.98901 0.0
H2492 H 0.47858 0.16984 0.7593 0.0
H2493 H 0.39345 0.30458 0.73878 0.0
H2494 H 0.48755 0.20163 0.7109 0.0
H2495 H 0.39709 0.27449 0.78797 0.0
H2496 H 0.43496 0.26849 0.72866 0.0
H2497 H 0.46011 0.20994 0.77075 0.0
C2498 C 0.47901 0.18548 0.75123 0.0
C2499 C 0.48511 0.18254 0.73419 0.0
C2500 C 0.42663 0.26986 0.74169 0.0
C2501 C 0.4609 0.22809 0.74691 0.0
C2502 C 0.40221 0.29043 0.74746 0.0
C2503 C 0.38985 0.29245 0.76421 0.0
C2504 C 0.43933 0.25126 0.75275 0.0
C2505 C 0.40509 0.27382 0.77491 0.0
C2506 C 0.46736 0.20829 0.75767 0.0
C2507 C 0.48353 0.20326 0.72415 0.0
N2508 N 0.42847 0.25403 0.769 0.0
N2509 N 0.47054 0.22503 0.73058 0.0
H2510 H 0.27062 0.56365 0.71323 0.0
H2511 H 0.34126 0.48227 0.79089 0.0
H2512 H 0.27066 0.58998 0.76323 0.0
H2513 H 0.38047 0.4656 0.74053 0.0
H2514 H 0.29589 0.5171 0.78103 0.0
H2515 H 0.2885 0.52291 0.72336 0.0
C2516 C 0.27196 0.56056 0.72643 0.0
C2517 C 0.26862 0.5801 0.73745 0.0
C2518 C 0.31394 0.50558 0.77214 0.0
C2519 C 0.29081 0.53373 0.74911 0.0
C2520 C 0.33994 0.48555 0.77772 0.0
C2521 C 0.36573 0.47073 0.76662 0.0
C2522 C 0.31258 0.51081 0.75525 0.0
C2523 C 0.36147 0.47599 0.7497 0.0
C2524 C 0.28317 0.53741 0.73218 0.0
C2525 C 0.27206 0.5753 0.75438 0.0
N2526 N 0.33577 0.49565 0.74458 0.0
N2527 N 0.28363 0.55262 0.7597 0.0
loop_
_geom_bond_atom_site_label_1
_geom_bond_atom_site_label_2
_geom_bond_distance
_geom_bond_site_symmetry_2
_ccdc_geom_bond_type
Co0 O3 1.970 . S
Co0 N17 1.989 . S
Co0 O25 1.967 . S
Co0 O32 1.920 . S
Co1 O4 1.966 . S
Co1 N10 2.022 . S
Co1 N18 1.993 . S
Co1 O26 1.941 . S
C2 O3 1.258 . S
C2 O4 1.263 . S
O3 Co0 1.970 . S
O3 C2 1.258 . S
O4 Co1 1.966 . S
O4 C2 1.263 . S
C5 O6 1.235 . S
C5 O32 1.289 . S
O6 C5 1.235 . S
C7 C9 1.400 . S
C7 N10 1.351 . S
C7 C12 1.501 . S
C8 C9 1.387 . S
C8 N11 1.341 . S
C9 C7 1.400 . S
C9 C8 1.387 . S
N10 Co1 2.022 . S
N10 C7 1.351 . S
N10 N11 1.365 . S
N11 C8 1.341 . S
N11 N10 1.365 . S
N11 H31 0.862 . S
C12 C7 1.501 . S
C12 H13 0.961 . S
C12 H14 0.961 1_554 S
C12 H15 0.962 . S
H13 C12 0.961 . S
H14 C12 0.961 1_556 S
H15 C12 0.962 . S
C16 N17 1.342 . S
C16 C20 1.401 . S
C16 C21 1.499 . S
N17 Co0 1.989 . S
N17 C16 1.342 . S
N17 N18 1.388 . S
N18 Co1 1.993 . S
N18 N17 1.388 . S
N18 C19 1.346 . S
C19 N18 1.346 . S
C19 C20 1.396 . S
C19 C29 1.510 . S
C20 C16 1.401 . S
C20 C19 1.396 . S
C21 C16 1.499 . S
C21 H22 0.959 . S
C21 H23 0.960 . S
C21 H24 0.961 . S
H22 C21 0.959 . S
H23 C21 0.960 . S
H24 C21 0.961 . S
O25 Co0 1.967 . S
O25 C33 1.258 . S
O26 Co1 1.941 . S
O26 C33 1.266 . S
H27 C29 0.959 . S
H28 C29 0.961 . S
C29 C19 1.510 . S
C29 H27 0.959 . S
C29 H28 0.961 . S
C29 H30 0.960 . S
H30 C29 0.960 . S
H31 N11 0.862 . S
O32 Co0 1.920 . S
O32 C5 1.289 . S
C33 O25 1.258 . S
C33 O26 1.266 . S
Co34 O37 1.970 . S
Co34 N51 1.989 . S
Co34 O59 1.967 . S
Co34 O66 1.920 . S
Co35 O38 1.966 . S
Co35 N44 2.022 1_655 S
Co35 N52 1.993 . S
Co35 O60 1.941 . S
C36 O37 1.258 . S
C36 O38 1.263 . S
O37 Co34 1.970 . S
O37 C36 1.258 . S
O38 Co35 1.966 . S
O38 C36 1.263 . S
C39 O40 1.235 . S
C39 O66 1.289 . S
O40 C39 1.235 . S
C41 C43 1.400 . S
C41 N44 1.351 . S
C41 C46 1.501 . S
C42 C43 1.387 . S
C42 N45 1.341 . S
C43 C41 1.400 . S
C43 C42 1.387 . S
N44 Co35 2.022 1_455 S
N44 C41 1.351 . S
N44 N45 1.365 . S
N45 C42 1.341 . S
N45 N44 1.365 . S
N45 H65 0.862 . S
C46 C41 1.501 . S
C46 H47 0.961 . S
C46 H48 0.961 1_554 S
C46 H49 0.962 . S
H47 C46 0.961 . S
H48 C46 0.961 1_556 S
H49 C46 0.962 . S
C50 N51 1.342 . S
C50 C54 1.401 . S
C50 C55 1.499 . S
N51 Co34 1.989 . S
N51 C50 1.342 . S
N51 N52 1.388 . S
N52 Co35 1.993 . S
N52 N51 1.388 . S
N52 C53 1.346 . S
C53 N52 1.346 . S
C53 C54 1.396 . S
C53 C63 1.510 . S
C54 C50 1.401 . S
C54 C53 1.396 . S
C55 C50 1.499 . S
C55 H56 0.959 . S
C55 H57 0.960 . S
C55 H58 0.961 . S
H56 C55 0.959 . S
H57 C55 0.960 . S
H58 C55 0.961 . S
O59 Co34 1.967 . S
O59 C67 1.258 . S
O60 Co35 1.941 . S
O60 C67 1.266 . S
H61 C63 0.959 . S
H62 C63 0.961 . S
C63 C53 1.510 . S
C63 H61 0.959 . S
C63 H62 0.961 . S
C63 H64 0.960 . S
H64 C63 0.960 . S
H65 N45 0.862 . S
O66 Co34 1.920 . S
O66 C39 1.289 . S
C67 O59 1.258 . S
C67 O60 1.266 . S
Co68 O71 1.970 . S
Co68 N85 1.989 . S
Co68 O93 1.967 . S
Co68 O100 1.920 . S
Co69 O72 1.966 . S
Co69 N78 2.022 . S
Co69 N86 1.993 . S
Co69 O94 1.941 . S
C70 O71 1.258 . S
C70 O72 1.263 . S
O71 Co68 1.970 . S
O71 C70 1.258 . S
O72 Co69 1.966 . S
O72 C70 1.263 . S
C73 O74 1.235 . S
C73 O100 1.289 . S
O74 C73 1.235 . S
C75 C77 1.400 . S
C75 N78 1.351 . S
C75 C80 1.501 . S
C76 C77 1.387 . S
C76 N79 1.341 . S
C77 C75 1.400 . S
C77 C76 1.387 . S
N78 Co69 2.022 . S
N78 C75 1.351 . S
N78 N79 1.365 . S
N79 C76 1.341 . S
N79 N78 1.365 . S
N79 H99 0.862 . S
C80 C75 1.501 . S
C80 H81 0.961 . S
C80 H82 0.961 . S
C80 H83 0.960 . S
H81 C80 0.961 . S
H82 C80 0.961 . S
H83 C80 0.960 . S
C84 N85 1.342 . S
C84 C88 1.401 . S
C84 C89 1.499 . S
N85 Co68 1.989 . S
N85 C84 1.342 . S
N85 N86 1.388 . S
N86 Co69 1.993 . S
N86 N85 1.388 . S
N86 C87 1.346 . S
C87 N86 1.346 . S
C87 C88 1.396 . S
C87 C97 1.510 . S
C88 C84 1.401 . S
C88 C87 1.396 . S
C89 C84 1.499 . S
C89 H90 0.959 . S
C89 H91 0.960 . S
C89 H92 0.961 . S
H90 C89 0.959 . S
H91 C89 0.960 . S
H92 C89 0.961 . S
O93 Co68 1.967 . S
O93 C101 1.258 . S
O94 Co69 1.941 . S
O94 C101 1.266 . S
H95 C97 0.959 . S
H96 C97 0.961 . S
C97 C87 1.510 . S
C97 H95 0.959 . S
C97 H96 0.961 . S
C97 H98 0.960 . S
H98 C97 0.960 . S
H99 N79 0.862 . S
O100 Co68 1.920 . S
O100 C73 1.289 . S
C101 O93 1.258 . S
C101 O94 1.266 . S
Co102 O105 1.970 . S
Co102 N119 1.989 . S
Co102 O127 1.967 . S
Co102 O134 1.920 . S
Co103 O106 1.966 . S
Co103 N112 2.022 1_655 S
Co103 N120 1.993 . S
Co103 O128 1.941 . S
C104 O105 1.258 . S
C104 O106 1.263 . S
O105 Co102 1.970 . S
O105 C104 1.258 . S
O106 Co103 1.966 . S
O106 C104 1.263 . S
C107 O108 1.235 . S
C107 O134 1.289 . S
O108 C107 1.235 . S
C109 C111 1.400 . S
C109 N112 1.351 . S
C109 C114 1.501 . S
C110 C111 1.387 . S
C110 N113 1.341 . S
C111 C109 1.400 . S
C111 C110 1.387 . S
N112 Co103 2.022 1_455 S
N112 C109 1.351 . S
N112 N113 1.365 . S
N113 C110 1.341 . S
N113 N112 1.365 . S
N113 H133 0.862 . S
C114 C109 1.501 . S
C114 H115 0.961 . S
C114 H116 0.961 . S
C114 H117 0.960 . S
H115 C114 0.961 . S
H116 C114 0.961 . S
H117 C114 0.960 . S
C118 N119 1.342 . S
C118 C122 1.401 . S
C118 C123 1.499 . S
N119 Co102 1.989 . S
N119 C118 1.342 . S
N119 N120 1.388 . S
N120 Co103 1.993 . S
N120 N119 1.388 . S
N120 C121 1.346 . S
C121 N120 1.346 . S
C121 C122 1.396 . S
C121 C131 1.510 . S
C122 C118 1.401 . S
C122 C121 1.396 . S
C123 C118 1.499 . S
C123 H124 0.959 . S
C123 H125 0.960 . S
C123 H126 0.961 . S
H124 C123 0.959 . S
H125 C123 0.960 . S
H126 C123 0.961 . S
O127 Co102 1.967 . S
O127 C135 1.258 . S
O128 Co103 1.941 . S
O128 C135 1.266 . S
H129 C131 0.959 . S
H130 C131 0.961 . S
C131 C121 1.510 . S
C131 H129 0.959 . S
C131 H130 0.961 . S
C131 H132 0.960 . S
H132 C131 0.960 . S
H133 N113 0.862 . S
O134 Co102 1.920 . S
O134 C107 1.289 . S
C135 O127 1.258 . S
C135 O128 1.266 . S
Co136 O139 1.970 . S
Co136 N153 1.989 . S
Co136 O161 1.967 . S
Co136 O168 1.920 . S
Co137 O140 1.966 . S
Co137 N146 2.022 . S
Co137 N154 1.993 . S
Co137 O162 1.941 . S
C138 O139 1.258 . S
C138 O140 1.263 . S
O139 Co136 1.970 . S
O139 C138 1.258 . S
O140 Co137 1.966 . S
O140 C138 1.263 . S
C141 O142 1.235 . S
C141 O168 1.289 . S
O142 C141 1.235 . S
C143 C145 1.400 . S
C143 N146 1.351 . S
C143 C148 1.501 . S
C144 C145 1.387 . S
C144 N147 1.341 . S
C145 C143 1.400 . S
C145 C144 1.387 . S
N146 Co137 2.022 . S
N146 C143 1.351 . S
N146 N147 1.365 . S
N147 C144 1.341 . S
N147 N146 1.365 . S
N147 H167 0.862 . S
C148 C143 1.501 . S
C148 H149 0.961 . S
C148 H150 0.961 1_556 S
C148 H151 0.962 . S
H149 C148 0.961 . S
H150 C148 0.961 1_554 S
H151 C148 0.962 . S
C152 N153 1.342 . S
C152 C156 1.401 . S
C152 C157 1.499 . S
N153 Co136 1.989 . S
N153 C152 1.342 . S
N153 N154 1.388 . S
N154 Co137 1.993 . S
N154 N153 1.388 . S
N154 C155 1.346 . S
C155 N154 1.346 . S
C155 C156 1.396 . S
C155 C165 1.510 . S
C156 C152 1.401 . S
C156 C155 1.396 . S
C157 C152 1.499 . S
C157 H158 0.959 . S
C157 H159 0.960 . S
C157 H160 0.961 . S
H158 C157 0.959 . S
H159 C157 0.960 . S
H160 C157 0.961 . S
O161 Co136 1.967 . S
O161 C169 1.258 . S
O162 Co137 1.941 . S
O162 C169 1.266 . S
H163 C165 0.959 . S
H164 C165 0.961 . S
C165 C155 1.510 . S
C165 H163 0.959 . S
C165 H164 0.961 . S
C165 H166 0.960 . S
H166 C165 0.960 . S
H167 N147 0.862 . S
O168 Co136 1.920 . S
O168 C141 1.289 . S
C169 O161 1.258 . S
C169 O162 1.266 . S
Co170 O173 1.970 . S
Co170 N187 1.989 . S
Co170 O195 1.967 . S
Co170 O202 1.920 . S
Co171 O174 1.966 . S
Co171 N180 2.022 1_455 S
Co171 N188 1.993 . S
Co171 O196 1.941 . S
C172 O173 1.258 . S
C172 O174 1.263 . S
O173 Co170 1.970 . S
O173 C172 1.258 . S
O174 Co171 1.966 . S
O174 C172 1.263 . S
C175 O176 1.235 . S
C175 O202 1.289 . S
O176 C175 1.235 . S
C177 C179 1.400 . S
C177 N180 1.351 . S
C177 C182 1.501 . S
C178 C179 1.387 . S
C178 N181 1.341 . S
C179 C177 1.400 . S
C179 C178 1.387 . S
N180 Co171 2.022 1_655 S
N180 C177 1.351 . S
N180 N181 1.365 . S
N181 C178 1.341 . S
N181 N180 1.365 . S
N181 H201 0.862 . S
C182 C177 1.501 . S
C182 H183 0.961 . S
C182 H184 0.961 1_556 S
C182 H185 0.962 . S
H183 C182 0.961 . S
H184 C182 0.961 1_554 S
H185 C182 0.962 . S
C186 N187 1.342 . S
C186 C190 1.401 . S
C186 C191 1.499 . S
N187 Co170 1.989 . S
N187 C186 1.342 . S
N187 N188 1.388 . S
N188 Co171 1.993 . S
N188 N187 1.388 . S
N188 C189 1.346 . S
C189 N188 1.346 . S
C189 C190 1.396 . S
C189 C199 1.510 . S
C190 C186 1.401 . S
C190 C189 1.396 . S
C191 C186 1.499 . S
C191 H192 0.959 . S
C191 H193 0.960 . S
C191 H194 0.961 . S
H192 C191 0.959 . S
H193 C191 0.960 . S
H194 C191 0.961 . S
O195 Co170 1.967 . S
O195 C203 1.258 . S
O196 Co171 1.941 . S
O196 C203 1.266 . S
H197 C199 0.959 . S
H198 C199 0.961 . S
C199 C189 1.510 . S
C199 H197 0.959 . S
C199 H198 0.961 . S
C199 H200 0.960 . S
H200 C199 0.960 . S
H201 N181 0.862 . S
O202 Co170 1.920 . S
O202 C175 1.289 . S
C203 O195 1.258 . S
C203 O196 1.266 . S
Co204 O207 1.970 . S
Co204 N221 1.989 . S
Co204 O229 1.967 . S
Co204 O236 1.920 . S
Co205 O208 1.966 . S
Co205 N214 2.022 . S
Co205 N222 1.993 . S
Co205 O230 1.941 . S
C206 O207 1.258 . S
C206 O208 1.263 . S
O207 Co204 1.970 . S
O207 C206 1.258 . S
O208 Co205 1.966 . S
O208 C206 1.263 . S
C209 O210 1.235 . S
C209 O236 1.289 . S
O210 C209 1.235 . S
C211 C213 1.400 . S
C211 N214 1.351 . S
C211 C216 1.501 . S
C212 C213 1.387 . S
C212 N215 1.341 . S
C213 C211 1.400 . S
C213 C212 1.387 . S
N214 Co205 2.022 . S
N214 C211 1.351 . S
N214 N215 1.365 . S
N215 C212 1.341 . S
N215 N214 1.365 . S
N215 H235 0.862 . S
C216 C211 1.501 . S
C216 H217 0.961 . S
C216 H218 0.961 . S
C216 H219 0.960 . S
H217 C216 0.961 . S
H218 C216 0.961 . S
H219 C216 0.960 . S
C220 N221 1.342 . S
C220 C224 1.401 . S
C220 C225 1.499 . S
N221 Co204 1.989 . S
N221 C220 1.342 . S
N221 N222 1.388 . S
N222 Co205 1.993 . S
N222 N221 1.388 . S
N222 C223 1.346 . S
C223 N222 1.346 . S
C223 C224 1.396 . S
C223 C233 1.510 . S
C224 C220 1.401 . S
C224 C223 1.396 . S
C225 C220 1.499 . S
C225 H226 0.959 . S
C225 H227 0.960 . S
C225 H228 0.961 . S
H226 C225 0.959 . S
H227 C225 0.960 . S
H228 C225 0.961 . S
O229 Co204 1.967 . S
O229 C237 1.258 . S
O230 Co205 1.941 . S
O230 C237 1.266 . S
H231 C233 0.959 . S
H232 C233 0.961 . S
C233 C223 1.510 . S
C233 H231 0.959 . S
C233 H232 0.961 . S
C233 H234 0.960 . S
H234 C233 0.960 . S
H235 N215 0.862 . S
O236 Co204 1.920 . S
O236 C209 1.289 . S
C237 O229 1.258 . S
C237 O230 1.266 . S
Co238 O241 1.970 . S
Co238 N255 1.989 . S
Co238 O263 1.967 . S
Co238 O270 1.920 . S
Co239 O242 1.966 . S
Co239 N248 2.022 1_455 S
Co239 N256 1.993 . S
Co239 O264 1.941 . S
C240 O241 1.258 . S
C240 O242 1.263 . S
O241 Co238 1.970 . S
O241 C240 1.258 . S
O242 Co239 1.966 . S
O242 C240 1.263 . S
C243 O244 1.235 . S
C243 O270 1.289 . S
O244 C243 1.235 . S
C245 C247 1.400 . S
C245 N248 1.351 . S
C245 C250 1.501 . S
C246 C247 1.387 . S
C246 N249 1.341 . S
C247 C245 1.400 . S
C247 C246 1.387 . S
N248 Co239 2.022 1_655 S
N248 C245 1.351 . S
N248 N249 1.365 . S
N249 C246 1.341 . S
N249 N248 1.365 . S
N249 H269 0.862 . S
C250 C245 1.501 . S
C250 H251 0.961 . S
C250 H252 0.961 . S
C250 H253 0.960 . S
H251 C250 0.961 . S
H252 C250 0.961 . S
H253 C250 0.960 . S
C254 N255 1.342 . S
C254 C258 1.401 . S
C254 C259 1.499 . S
N255 Co238 1.989 . S
N255 C254 1.342 . S
N255 N256 1.388 . S
N256 Co239 1.993 . S
N256 N255 1.388 . S
N256 C257 1.346 . S
C257 N256 1.346 . S
C257 C258 1.396 . S
C257 C267 1.510 . S
C258 C254 1.401 . S
C258 C257 1.396 . S
C259 C254 1.499 . S
C259 H260 0.959 . S
C259 H261 0.960 . S
C259 H262 0.961 . S
H260 C259 0.959 . S
H261 C259 0.960 . S
H262 C259 0.961 . S
O263 Co238 1.967 . S
O263 C271 1.258 . S
O264 Co239 1.941 . S
O264 C271 1.266 . S
H265 C267 0.959 . S
H266 C267 0.961 . S
C267 C257 1.510 . S
C267 H265 0.959 . S
C267 H266 0.961 . S
C267 H268 0.960 . S
H268 C267 0.960 . S
H269 N249 0.862 . S
O270 Co238 1.920 . S
O270 C243 1.289 . S
C271 O263 1.258 . S
C271 O264 1.266 . S
Co272 O275 1.970 . S
Co272 N289 1.989 . S
Co272 O297 1.967 . S
Co272 O304 1.920 . S
Co273 O276 1.966 . S
Co273 N282 2.022 . S
Co273 N290 1.993 . S
Co273 O298 1.941 . S
C274 O275 1.258 . S
C274 O276 1.263 . S
O275 Co272 1.970 . S
O275 C274 1.258 . S
O276 Co273 1.966 . S
O276 C274 1.263 . S
C277 O278 1.235 . S
C277 O304 1.289 . S
O278 C277 1.235 . S
C279 C281 1.400 . S
C279 N282 1.351 . S
C279 C284 1.501 . S
C280 C281 1.387 . S
C280 N283 1.341 . S
C281 C279 1.400 . S
C281 C280 1.387 . S
N282 Co273 2.022 . S
N282 C279 1.351 . S
N282 N283 1.365 . S
N283 C280 1.341 . S
N283 N282 1.365 . S
N283 H303 0.862 . S
C284 C279 1.501 . S
C284 H285 0.961 . S
C284 H286 0.961 . S
C284 H287 0.960 . S
H285 C284 0.961 . S
H286 C284 0.961 . S
H287 C284 0.960 . S
C288 N289 1.342 . S
C288 C292 1.401 . S
C288 C293 1.499 . S
N289 Co272 1.989 . S
N289 C288 1.342 . S
N289 N290 1.388 . S
N290 Co273 1.993 . S
N290 N289 1.388 . S
N290 C291 1.346 . S
C291 N290 1.346 . S
C291 C292 1.396 . S
C291 C301 1.510 . S
C292 C288 1.401 . S
C292 C291 1.396 . S
C293 C288 1.499 . S
C293 H294 0.959 . S
C293 H295 0.960 . S
C293 H296 0.961 . S
H294 C293 0.959 . S
H295 C293 0.960 . S
H296 C293 0.961 . S
O297 Co272 1.967 . S
O297 C305 1.258 . S
O298 Co273 1.941 . S
O298 C305 1.266 . S
H299 C301 0.959 . S
H300 C301 0.961 . S
C301 C291 1.510 . S
C301 H299 0.959 . S
C301 H300 0.961 . S
C301 H302 0.960 . S
H302 C301 0.960 . S
H303 N283 0.862 . S
O304 Co272 1.920 . S
O304 C277 1.289 . S
C305 O297 1.258 . S
C305 O298 1.266 . S
Co306 O309 1.970 . S
Co306 N323 1.989 . S
Co306 O331 1.967 . S
Co306 O338 1.920 . S
Co307 O310 1.966 . S
Co307 N316 2.022 1_655 S
Co307 N324 1.993 . S
Co307 O332 1.941 . S
C308 O309 1.258 . S
C308 O310 1.263 . S
O309 Co306 1.970 . S
O309 C308 1.258 . S
O310 Co307 1.966 . S
O310 C308 1.263 . S
C311 O312 1.235 . S
C311 O338 1.289 . S
O312 C311 1.235 . S
C313 C315 1.400 . S
C313 N316 1.351 . S
C313 C318 1.501 . S
C314 C315 1.387 . S
C314 N317 1.341 . S
C315 C313 1.400 . S
C315 C314 1.387 . S
N316 Co307 2.022 1_455 S
N316 C313 1.351 . S
N316 N317 1.365 . S
N317 C314 1.341 . S
N317 N316 1.365 . S
N317 H337 0.862 . S
C318 C313 1.501 . S
C318 H319 0.961 . S
C318 H320 0.961 . S
C318 H321 0.960 . S
H319 C318 0.961 . S
H320 C318 0.961 . S
H321 C318 0.960 . S
C322 N323 1.342 . S
C322 C326 1.401 . S
C322 C327 1.499 . S
N323 Co306 1.989 . S
N323 C322 1.342 . S
N323 N324 1.388 . S
N324 Co307 1.993 . S
N324 N323 1.388 . S
N324 C325 1.346 . S
C325 N324 1.346 . S
C325 C326 1.396 . S
C325 C335 1.510 . S
C326 C322 1.401 . S
C326 C325 1.396 . S
C327 C322 1.499 . S
C327 H328 0.959 . S
C327 H329 0.960 . S
C327 H330 0.961 . S
H328 C327 0.959 . S
H329 C327 0.960 . S
H330 C327 0.961 . S
O331 Co306 1.967 . S
O331 C339 1.258 . S
O332 Co307 1.941 . S
O332 C339 1.266 . S
H333 C335 0.959 . S
H334 C335 0.961 . S
C335 C325 1.510 . S
C335 H333 0.959 . S
C335 H334 0.961 . S
C335 H336 0.960 . S
H336 C335 0.960 . S
H337 N317 0.862 . S
O338 Co306 1.920 . S
O338 C311 1.289 . S
C339 O331 1.258 . S
C339 O332 1.266 . S
Co340 O343 1.970 . S
Co340 N357 1.989 . S
Co340 O365 1.967 . S
Co340 O372 1.920 . S
Co341 O344 1.966 . S
Co341 N350 2.022 . S
Co341 N358 1.993 . S
Co341 O366 1.941 . S
C342 O343 1.258 . S
C342 O344 1.263 . S
O343 Co340 1.970 . S
O343 C342 1.258 . S
O344 Co341 1.966 . S
O344 C342 1.263 . S
C345 O346 1.235 . S
C345 O372 1.289 . S
O346 C345 1.235 . S
C347 C349 1.400 . S
C347 N350 1.351 . S
C347 C352 1.501 . S
C348 C349 1.387 . S
C348 N351 1.341 . S
C349 C347 1.400 . S
C349 C348 1.387 . S
N350 Co341 2.022 . S
N350 C347 1.351 . S
N350 N351 1.365 . S
N351 C348 1.341 . S
N351 N350 1.365 . S
N351 H371 0.862 . S
C352 C347 1.501 . S
C352 H353 0.961 . S
C352 H354 0.961 . S
C352 H355 0.960 . S
H353 C352 0.961 . S
H354 C352 0.961 . S
H355 C352 0.960 . S
C356 N357 1.342 . S
C356 C360 1.401 . S
C356 C361 1.499 . S
N357 Co340 1.989 . S
N357 C356 1.342 . S
N357 N358 1.388 . S
N358 Co341 1.993 . S
N358 N357 1.388 . S
N358 C359 1.346 . S
C359 N358 1.346 . S
C359 C360 1.396 . S
C359 C369 1.510 . S
C360 C356 1.401 . S
C360 C359 1.396 . S
C361 C356 1.499 . S
C361 H362 0.959 . S
C361 H363 0.960 . S
C361 H364 0.961 . S
H362 C361 0.959 . S
H363 C361 0.960 . S
H364 C361 0.961 . S
O365 Co340 1.967 . S
O365 C373 1.258 . S
O366 Co341 1.941 . S
O366 C373 1.266 . S
H367 C369 0.959 . S
H368 C369 0.961 . S
C369 C359 1.510 . S
C369 H367 0.959 . S
C369 H368 0.961 . S
C369 H370 0.960 . S
H370 C369 0.960 . S
H371 N351 0.862 . S
O372 Co340 1.920 . S
O372 C345 1.289 . S
C373 O365 1.258 . S
C373 O366 1.266 . S
Co374 O377 1.970 . S
Co374 N391 1.989 . S
Co374 O399 1.967 . S
Co374 O406 1.920 . S
Co375 O378 1.966 . S
Co375 N384 2.022 1_655 S
Co375 N392 1.993 . S
Co375 O400 1.941 . S
C376 O377 1.258 . S
C376 O378 1.263 . S
O377 Co374 1.970 . S
O377 C376 1.258 . S
O378 Co375 1.966 . S
O378 C376 1.263 . S
C379 O380 1.235 . S
C379 O406 1.289 . S
O380 C379 1.235 . S
C381 C383 1.400 . S
C381 N384 1.351 . S
C381 C386 1.501 . S
C382 C383 1.387 . S
C382 N385 1.341 . S
C383 C381 1.400 . S
C383 C382 1.387 . S
N384 Co375 2.022 1_455 S
N384 C381 1.351 . S
N384 N385 1.365 . S
N385 C382 1.341 . S
N385 N384 1.365 . S
N385 H405 0.862 . S
C386 C381 1.501 . S
C386 H387 0.961 . S
C386 H388 0.961 . S
C386 H389 0.960 . S
H387 C386 0.961 . S
H388 C386 0.961 . S
H389 C386 0.960 . S
C390 N391 1.342 . S
C390 C394 1.401 . S
C390 C395 1.499 . S
N391 Co374 1.989 . S
N391 C390 1.342 . S
N391 N392 1.388 . S
N392 Co375 1.993 . S
N392 N391 1.388 . S
N392 C393 1.346 . S
C393 N392 1.346 . S
C393 C394 1.396 . S
C393 C403 1.510 . S
C394 C390 1.401 . S
C394 C393 1.396 . S
C395 C390 1.499 . S
C395 H396 0.959 . S
C395 H397 0.960 . S
C395 H398 0.961 . S
H396 C395 0.959 . S
H397 C395 0.960 . S
H398 C395 0.961 . S
O399 Co374 1.967 . S
O399 C407 1.258 . S
O400 Co375 1.941 . S
O400 C407 1.266 . S
H401 C403 0.959 . S
H402 C403 0.961 . S
C403 C393 1.510 . S
C403 H401 0.959 . S
C403 H402 0.961 . S
C403 H404 0.960 . S
H404 C403 0.960 . S
H405 N385 0.862 . S
O406 Co374 1.920 . S
O406 C379 1.289 . S
C407 O399 1.258 . S
C407 O400 1.266 . S
Co408 O411 1.970 . S
Co408 N425 1.989 . S
Co408 O433 1.967 . S
Co408 O440 1.920 . S
Co409 O412 1.966 . S
Co409 N418 2.022 . S
Co409 N426 1.993 . S
Co409 O434 1.941 . S
C410 O411 1.258 . S
C410 O412 1.263 . S
O411 Co408 1.970 . S
O411 C410 1.258 . S
O412 Co409 1.966 . S
O412 C410 1.263 . S
C413 O414 1.235 . S
C413 O440 1.289 . S
O414 C413 1.235 . S
C415 C417 1.400 . S
C415 N418 1.351 . S
C415 C420 1.501 . S
C416 C417 1.387 . S
C416 N419 1.341 . S
C417 C415 1.400 . S
C417 C416 1.387 . S
N418 Co409 2.022 . S
N418 C415 1.351 . S
N418 N419 1.365 . S
N419 C416 1.341 . S
N419 N418 1.365 . S
N419 H439 0.862 . S
C420 C415 1.501 . S
C420 H421 0.961 . S
C420 H422 0.961 . S
C420 H423 0.960 . S
H421 C420 0.961 . S
H422 C420 0.961 . S
H423 C420 0.960 . S
C424 N425 1.342 . S
C424 C428 1.401 . S
C424 C429 1.499 . S
N425 Co408 1.989 . S
N425 C424 1.342 . S
N425 N426 1.388 . S
N426 Co409 1.993 . S
N426 N425 1.388 . S
N426 C427 1.346 . S
C427 N426 1.346 . S
C427 C428 1.396 . S
C427 C437 1.510 . S
C428 C424 1.401 . S
C428 C427 1.396 . S
C429 C424 1.499 . S
C429 H430 0.959 . S
C429 H431 0.960 . S
C429 H432 0.961 . S
H430 C429 0.959 . S
H431 C429 0.960 . S
H432 C429 0.961 . S
O433 Co408 1.967 . S
O433 C441 1.258 . S
O434 Co409 1.941 . S
O434 C441 1.266 . S
H435 C437 0.959 . S
H436 C437 0.961 . S
C437 C427 1.510 . S
C437 H435 0.959 . S
C437 H436 0.961 . S
C437 H438 0.960 . S
H438 C437 0.960 . S
H439 N419 0.862 . S
O440 Co408 1.920 . S
O440 C413 1.289 . S
C441 O433 1.258 . S
C441 O434 1.266 . S
Co442 O445 1.970 . S
Co442 N459 1.989 . S
Co442 O467 1.967 . S
Co442 O474 1.920 . S
Co443 O446 1.966 . S
Co443 N452 2.022 1_455 S
Co443 N460 1.993 . S
Co443 O468 1.941 . S
C444 O445 1.258 . S
C444 O446 1.263 . S
O445 Co442 1.970 . S
O445 C444 1.258 . S
O446 Co443 1.966 . S
O446 C444 1.263 . S
C447 O448 1.235 . S
C447 O474 1.289 . S
O448 C447 1.235 . S
C449 C451 1.400 . S
C449 N452 1.351 . S
C449 C454 1.501 . S
C450 C451 1.387 . S
C450 N453 1.341 . S
C451 C449 1.400 . S
C451 C450 1.387 . S
N452 Co443 2.022 1_655 S
N452 C449 1.351 . S
N452 N453 1.365 . S
N453 C450 1.341 . S
N453 N452 1.365 . S
N453 H473 0.862 . S
C454 C449 1.501 . S
C454 H455 0.961 . S
C454 H456 0.961 . S
C454 H457 0.960 . S
H455 C454 0.961 . S
H456 C454 0.961 . S
H457 C454 0.960 . S
C458 N459 1.342 . S
C458 C462 1.401 . S
C458 C463 1.499 . S
N459 Co442 1.989 . S
N459 C458 1.342 . S
N459 N460 1.388 . S
N460 Co443 1.993 . S
N460 N459 1.388 . S
N460 C461 1.346 . S
C461 N460 1.346 . S
C461 C462 1.396 . S
C461 C471 1.510 . S
C462 C458 1.401 . S
C462 C461 1.396 . S
C463 C458 1.499 . S
C463 H464 0.959 . S
C463 H465 0.960 . S
C463 H466 0.961 . S
H464 C463 0.959 . S
H465 C463 0.960 . S
H466 C463 0.961 . S
O467 Co442 1.967 . S
O467 C475 1.258 . S
O468 Co443 1.941 . S
O468 C475 1.266 . S
H469 C471 0.959 . S
H470 C471 0.961 . S
C471 C461 1.510 . S
C471 H469 0.959 . S
C471 H470 0.961 . S
C471 H472 0.960 . S
H472 C471 0.960 . S
H473 N453 0.862 . S
O474 Co442 1.920 . S
O474 C447 1.289 . S
C475 O467 1.258 . S
C475 O468 1.266 . S
Co476 O479 1.970 . S
Co476 N493 1.989 . S
Co476 O501 1.967 . S
Co476 O508 1.920 . S
Co477 O480 1.966 . S
Co477 N486 2.022 . S
Co477 N494 1.993 . S
Co477 O502 1.941 . S
C478 O479 1.258 . S
C478 O480 1.263 . S
O479 Co476 1.970 . S
O479 C478 1.258 . S
O480 Co477 1.966 . S
O480 C478 1.263 . S
C481 O482 1.235 . S
C481 O508 1.289 . S
O482 C481 1.235 . S
C483 C485 1.400 . S
C483 N486 1.351 . S
C483 C488 1.501 . S
C484 C485 1.387 . S
C484 N487 1.341 . S
C485 C483 1.400 . S
C485 C484 1.387 . S
N486 Co477 2.022 . S
N486 C483 1.351 . S
N486 N487 1.365 . S
N487 C484 1.341 . S
N487 N486 1.365 . S
N487 H507 0.862 . S
C488 C483 1.501 . S
C488 H489 0.961 . S
C488 H490 0.961 . S
C488 H491 0.960 . S
H489 C488 0.961 . S
H490 C488 0.961 . S
H491 C488 0.960 . S
C492 N493 1.342 . S
C492 C496 1.401 . S
C492 C497 1.499 . S
N493 Co476 1.989 . S
N493 C492 1.342 . S
N493 N494 1.388 . S
N494 Co477 1.993 . S
N494 N493 1.388 . S
N494 C495 1.346 . S
C495 N494 1.346 . S
C495 C496 1.396 . S
C495 C505 1.510 . S
C496 C492 1.401 . S
C496 C495 1.396 . S
C497 C492 1.499 . S
C497 H498 0.959 . S
C497 H499 0.960 . S
C497 H500 0.961 . S
H498 C497 0.959 . S
H499 C497 0.960 . S
H500 C497 0.961 . S
O501 Co476 1.967 . S
O501 C509 1.258 . S
O502 Co477 1.941 . S
O502 C509 1.266 . S
H503 C505 0.959 . S
H504 C505 0.961 . S
C505 C495 1.510 . S
C505 H503 0.959 . S
C505 H504 0.961 . S
C505 H506 0.960 . S
H506 C505 0.960 . S
H507 N487 0.862 . S
O508 Co476 1.920 . S
O508 C481 1.289 . S
C509 O501 1.258 . S
C509 O502 1.266 . S
Co510 O513 1.970 . S
Co510 N527 1.989 . S
Co510 O535 1.967 . S
Co510 O542 1.920 . S
Co511 O514 1.966 . S
Co511 N520 2.022 1_455 S
Co511 N528 1.993 . S
Co511 O536 1.941 . S
C512 O513 1.258 . S
C512 O514 1.263 . S
O513 Co510 1.970 . S
O513 C512 1.258 . S
O514 Co511 1.966 . S
O514 C512 1.263 . S
C515 O516 1.235 . S
C515 O542 1.289 . S
O516 C515 1.235 . S
C517 C519 1.400 . S
C517 N520 1.351 . S
C517 C522 1.501 . S
C518 C519 1.387 . S
C518 N521 1.341 . S
C519 C517 1.400 . S
C519 C518 1.387 . S
N520 Co511 2.022 1_655 S
N520 C517 1.351 . S
N520 N521 1.365 . S
N521 C518 1.341 . S
N521 N520 1.365 . S
N521 H541 0.862 . S
C522 C517 1.501 . S
C522 H523 0.961 . S
C522 H524 0.961 . S
C522 H525 0.960 . S
H523 C522 0.961 . S
H524 C522 0.961 . S
H525 C522 0.960 . S
C526 N527 1.342 . S
C526 C530 1.401 . S
C526 C531 1.499 . S
N527 Co510 1.989 . S
N527 C526 1.342 . S
N527 N528 1.388 . S
N528 Co511 1.993 . S
N528 N527 1.388 . S
N528 C529 1.346 . S
C529 N528 1.346 . S
C529 C530 1.396 . S
C529 C539 1.510 . S
C530 C526 1.401 . S
C530 C529 1.396 . S
C531 C526 1.499 . S
C531 H532 0.959 . S
C531 H533 0.960 . S
C531 H534 0.961 . S
H532 C531 0.959 . S
H533 C531 0.960 . S
H534 C531 0.961 . S
O535 Co510 1.967 . S
O535 C543 1.258 . S
O536 Co511 1.941 . S
O536 C543 1.266 . S
H537 C539 0.959 . S
H538 C539 0.961 . S
C539 C529 1.510 . S
C539 H537 0.959 . S
C539 H538 0.961 . S
C539 H540 0.960 . S
H540 C539 0.960 . S
H541 N521 0.862 . S
O542 Co510 1.920 . S
O542 C515 1.289 . S
C543 O535 1.258 . S
C543 O536 1.266 . S
Co544 O547 1.970 . S
Co544 N561 1.989 . S
Co544 O569 1.967 . S
Co544 O576 1.920 . S
Co545 O548 1.966 . S
Co545 N554 2.022 . S
Co545 N562 1.993 . S
Co545 O570 1.941 . S
C546 O547 1.258 . S
C546 O548 1.263 . S
O547 Co544 1.970 . S
O547 C546 1.258 . S
O548 Co545 1.966 . S
O548 C546 1.263 . S
C549 O550 1.235 . S
C549 O576 1.289 . S
O550 C549 1.235 . S
C551 C553 1.400 . S
C551 N554 1.351 . S
C551 C556 1.501 . S
C552 C553 1.387 . S
C552 N555 1.341 . S
C553 C551 1.400 . S
C553 C552 1.387 . S
N554 Co545 2.022 . S
N554 C551 1.351 . S
N554 N555 1.365 . S
N555 C552 1.341 . S
N555 N554 1.365 . S
N555 H575 0.862 . S
C556 C551 1.501 . S
C556 H557 0.961 . S
C556 H558 0.961 . S
C556 H559 0.960 . S
H557 C556 0.961 . S
H558 C556 0.961 . S
H559 C556 0.960 . S
C560 N561 1.342 . S
C560 C564 1.401 . S
C560 C565 1.499 . S
N561 Co544 1.989 . S
N561 C560 1.342 . S
N561 N562 1.388 . S
N562 Co545 1.993 . S
N562 N561 1.388 . S
N562 C563 1.346 . S
C563 N562 1.346 . S
C563 C564 1.396 . S
C563 C573 1.510 . S
C564 C560 1.401 . S
C564 C563 1.396 . S
C565 C560 1.499 . S
C565 H566 0.959 . S
C565 H567 0.960 . S
C565 H568 0.961 . S
H566 C565 0.959 . S
H567 C565 0.960 . S
H568 C565 0.961 . S
O569 Co544 1.967 . S
O569 C577 1.258 . S
O570 Co545 1.941 . S
O570 C577 1.266 . S
H571 C573 0.959 . S
H572 C573 0.961 . S
C573 C563 1.510 . S
C573 H571 0.959 . S
C573 H572 0.961 . S
C573 H574 0.960 . S
H574 C573 0.960 . S
H575 N555 0.862 . S
O576 Co544 1.920 . S
O576 C549 1.289 . S
C577 O569 1.258 . S
C577 O570 1.266 . S
Co578 O581 1.970 . S
Co578 N595 1.989 . S
Co578 O603 1.967 . S
Co578 O610 1.920 . S
Co579 O582 1.966 . S
Co579 N588 2.022 . S
Co579 N596 1.993 . S
Co579 O604 1.941 . S
C580 O581 1.258 . S
C580 O582 1.263 . S
O581 Co578 1.970 . S
O581 C580 1.258 . S
O582 Co579 1.966 . S
O582 C580 1.263 . S
C583 O584 1.235 . S
C583 O610 1.289 . S
O584 C583 1.235 . S
C585 C587 1.400 . S
C585 N588 1.351 . S
C585 C590 1.501 . S
C586 C587 1.387 . S
C586 N589 1.341 . S
C587 C585 1.400 . S
C587 C586 1.387 . S
N588 Co579 2.022 . S
N588 C585 1.351 . S
N588 N589 1.365 . S
N589 C586 1.341 . S
N589 N588 1.365 . S
N589 H609 0.862 . S
C590 C585 1.501 . S
C590 H591 0.961 . S
C590 H592 0.961 . S
C590 H593 0.960 . S
H591 C590 0.961 . S
H592 C590 0.961 . S
H593 C590 0.960 . S
C594 N595 1.342 . S
C594 C598 1.401 . S
C594 C599 1.499 . S
N595 Co578 1.989 . S
N595 C594 1.342 . S
N595 N596 1.388 . S
N596 Co579 1.993 . S
N596 N595 1.388 . S
N596 C597 1.346 . S
C597 N596 1.346 . S
C597 C598 1.396 . S
C597 C607 1.510 . S
C598 C594 1.401 . S
C598 C597 1.396 . S
C599 C594 1.499 . S
C599 H600 0.959 . S
C599 H601 0.960 . S
C599 H602 0.961 . S
H600 C599 0.959 . S
H601 C599 0.960 . S
H602 C599 0.961 . S
O603 Co578 1.967 . S
O603 C611 1.258 . S
O604 Co579 1.941 . S
O604 C611 1.266 . S
H605 C607 0.959 . S
H606 C607 0.961 . S
C607 C597 1.510 . S
C607 H605 0.959 . S
C607 H606 0.961 . S
C607 H608 0.960 . S
H608 C607 0.960 . S
H609 N589 0.862 . S
O610 Co578 1.920 . S
O610 C583 1.289 . S
C611 O603 1.258 . S
C611 O604 1.266 . S
Co612 O615 1.970 . S
Co612 N629 1.989 . S
Co612 O637 1.967 . S
Co612 O644 1.920 . S
Co613 O616 1.966 . S
Co613 N622 2.022 . S
Co613 N630 1.993 . S
Co613 O638 1.941 . S
C614 O615 1.258 . S
C614 O616 1.263 . S
O615 Co612 1.970 . S
O615 C614 1.258 . S
O616 Co613 1.966 . S
O616 C614 1.263 . S
C617 O618 1.235 . S
C617 O644 1.289 . S
O618 C617 1.235 . S
C619 C621 1.400 . S
C619 N622 1.351 . S
C619 C624 1.501 . S
C620 C621 1.387 . S
C620 N623 1.341 . S
C621 C619 1.400 . S
C621 C620 1.387 . S
N622 Co613 2.022 . S
N622 C619 1.351 . S
N622 N623 1.365 . S
N623 C620 1.341 . S
N623 N622 1.365 . S
N623 H643 0.862 . S
C624 C619 1.501 . S
C624 H625 0.961 . S
C624 H626 0.961 . S
C624 H627 0.960 . S
H625 C624 0.961 . S
H626 C624 0.961 . S
H627 C624 0.960 . S
C628 N629 1.342 . S
C628 C632 1.401 . S
C628 C633 1.499 . S
N629 Co612 1.989 . S
N629 C628 1.342 . S
N629 N630 1.388 . S
N630 Co613 1.993 . S
N630 N629 1.388 . S
N630 C631 1.346 . S
C631 N630 1.346 . S
C631 C632 1.396 . S
C631 C641 1.510 . S
C632 C628 1.401 . S
C632 C631 1.396 . S
C633 C628 1.499 . S
C633 H634 0.959 . S
C633 H635 0.960 . S
C633 H636 0.961 . S
H634 C633 0.959 . S
H635 C633 0.960 . S
H636 C633 0.961 . S
O637 Co612 1.967 . S
O637 C645 1.258 . S
O638 Co613 1.941 . S
O638 C645 1.266 . S
H639 C641 0.959 . S
H640 C641 0.961 . S
C641 C631 1.510 . S
C641 H639 0.959 . S
C641 H640 0.961 . S
C641 H642 0.960 . S
H642 C641 0.960 . S
H643 N623 0.862 . S
O644 Co612 1.920 . S
O644 C617 1.289 . S
C645 O637 1.258 . S
C645 O638 1.266 . S
Co646 O649 1.970 . S
Co646 N663 1.989 . S
Co646 O671 1.967 . S
Co646 O678 1.920 . S
Co647 O650 1.966 . S
Co647 N656 2.022 . S
Co647 N664 1.993 . S
Co647 O672 1.941 . S
C648 O649 1.258 . S
C648 O650 1.263 . S
O649 Co646 1.970 . S
O649 C648 1.258 . S
O650 Co647 1.966 . S
O650 C648 1.263 . S
C651 O652 1.235 . S
C651 O678 1.289 . S
O652 C651 1.235 . S
C653 C655 1.400 . S
C653 N656 1.351 . S
C653 C658 1.501 . S
C654 C655 1.387 . S
C654 N657 1.341 . S
C655 C653 1.400 . S
C655 C654 1.387 . S
N656 Co647 2.022 . S
N656 C653 1.351 . S
N656 N657 1.365 . S
N657 C654 1.341 . S
N657 N656 1.365 . S
N657 H677 0.862 . S
C658 C653 1.501 . S
C658 H659 0.961 . S
C658 H660 0.961 . S
C658 H661 0.960 . S
H659 C658 0.961 . S
H660 C658 0.961 . S
H661 C658 0.960 . S
C662 N663 1.342 . S
C662 C666 1.401 . S
C662 C667 1.499 . S
N663 Co646 1.989 . S
N663 C662 1.342 . S
N663 N664 1.388 . S
N664 Co647 1.993 . S
N664 N663 1.388 . S
N664 C665 1.346 . S
C665 N664 1.346 . S
C665 C666 1.396 . S
C665 C675 1.510 . S
C666 C662 1.401 . S
C666 C665 1.396 . S
C667 C662 1.499 . S
C667 H668 0.959 . S
C667 H669 0.960 . S
C667 H670 0.961 . S
H668 C667 0.959 . S
H669 C667 0.960 . S
H670 C667 0.961 . S
O671 Co646 1.967 . S
O671 C679 1.258 . S
O672 Co647 1.941 . S
O672 C679 1.266 . S
H673 C675 0.959 . S
H674 C675 0.961 . S
C675 C665 1.510 . S
C675 H673 0.959 . S
C675 H674 0.961 . S
C675 H676 0.960 . S
H676 C675 0.960 . S
H677 N657 0.862 . S
O678 Co646 1.920 . S
O678 C651 1.289 . S
C679 O671 1.258 . S
C679 O672 1.266 . S
Co680 O683 1.970 . S
Co680 N697 1.989 . S
Co680 O705 1.967 . S
Co680 O712 1.920 . S
Co681 O684 1.966 . S
Co681 N690 2.022 . S
Co681 N698 1.993 . S
Co681 O706 1.941 . S
C682 O683 1.258 . S
C682 O684 1.263 . S
O683 Co680 1.970 . S
O683 C682 1.258 . S
O684 Co681 1.966 . S
O684 C682 1.263 . S
C685 O686 1.235 . S
C685 O712 1.289 . S
O686 C685 1.235 . S
C687 C689 1.400 . S
C687 N690 1.351 . S
C687 C692 1.501 . S
C688 C689 1.387 . S
C688 N691 1.341 . S
C689 C687 1.400 . S
C689 C688 1.387 . S
N690 Co681 2.022 . S
N690 C687 1.351 . S
N690 N691 1.365 . S
N691 C688 1.341 . S
N691 N690 1.365 . S
N691 H711 0.862 . S
C692 C687 1.501 . S
C692 H693 0.961 . S
C692 H694 0.961 . S
C692 H695 0.960 . S
H693 C692 0.961 . S
H694 C692 0.961 . S
H695 C692 0.960 . S
C696 N697 1.342 . S
C696 C700 1.401 . S
C696 C701 1.499 . S
N697 Co680 1.989 . S
N697 C696 1.342 . S
N697 N698 1.388 . S
N698 Co681 1.993 . S
N698 N697 1.388 . S
N698 C699 1.346 . S
C699 N698 1.346 . S
C699 C700 1.396 . S
C699 C709 1.510 . S
C700 C696 1.401 . S
C700 C699 1.396 . S
C701 C696 1.499 . S
C701 H702 0.959 . S
C701 H703 0.960 . S
C701 H704 0.961 . S
H702 C701 0.959 . S
H703 C701 0.960 . S
H704 C701 0.961 . S
O705 Co680 1.967 . S
O705 C713 1.258 . S
O706 Co681 1.941 . S
O706 C713 1.266 . S
H707 C709 0.959 . S
H708 C709 0.961 . S
C709 C699 1.510 . S
C709 H707 0.959 . S
C709 H708 0.961 . S
C709 H710 0.960 . S
H710 C709 0.960 . S
H711 N691 0.862 . S
O712 Co680 1.920 . S
O712 C685 1.289 . S
C713 O705 1.258 . S
C713 O706 1.266 . S
Co714 O717 1.970 . S
Co714 N731 1.989 . S
Co714 O739 1.967 . S
Co714 O746 1.920 . S
Co715 O718 1.966 . S
Co715 N724 2.022 . S
Co715 N732 1.993 . S
Co715 O740 1.941 . S
C716 O717 1.258 . S
C716 O718 1.263 . S
O717 Co714 1.970 . S
O717 C716 1.258 . S
O718 Co715 1.966 . S
O718 C716 1.263 . S
C719 O720 1.235 . S
C719 O746 1.289 . S
O720 C719 1.235 . S
C721 C723 1.400 . S
C721 N724 1.351 . S
C721 C726 1.501 . S
C722 C723 1.387 . S
C722 N725 1.341 . S
C723 C721 1.400 . S
C723 C722 1.387 . S
N724 Co715 2.022 . S
N724 C721 1.351 . S
N724 N725 1.365 . S
N725 C722 1.341 . S
N725 N724 1.365 . S
N725 H745 0.862 . S
C726 C721 1.501 . S
C726 H727 0.961 . S
C726 H728 0.961 . S
C726 H729 0.960 . S
H727 C726 0.961 . S
H728 C726 0.961 . S
H729 C726 0.960 . S
C730 N731 1.342 . S
C730 C734 1.401 . S
C730 C735 1.499 . S
N731 Co714 1.989 . S
N731 C730 1.342 . S
N731 N732 1.388 . S
N732 Co715 1.993 . S
N732 N731 1.388 . S
N732 C733 1.346 . S
C733 N732 1.346 . S
C733 C734 1.396 . S
C733 C743 1.510 . S
C734 C730 1.401 . S
C734 C733 1.396 . S
C735 C730 1.499 . S
C735 H736 0.959 . S
C735 H737 0.960 . S
C735 H738 0.961 . S
H736 C735 0.959 . S
H737 C735 0.960 . S
H738 C735 0.961 . S
O739 Co714 1.967 . S
O739 C747 1.258 . S
O740 Co715 1.941 . S
O740 C747 1.266 . S
H741 C743 0.959 . S
H742 C743 0.961 . S
C743 C733 1.510 . S
C743 H741 0.959 . S
C743 H742 0.961 . S
C743 H744 0.960 . S
H744 C743 0.960 . S
H745 N725 0.862 . S
O746 Co714 1.920 . S
O746 C719 1.289 . S
C747 O739 1.258 . S
C747 O740 1.266 . S
Co748 O751 1.970 . S
Co748 N765 1.989 . S
Co748 O773 1.967 . S
Co748 O780 1.920 . S
Co749 O752 1.966 . S
Co749 N758 2.022 . S
Co749 N766 1.993 . S
Co749 O774 1.941 . S
C750 O751 1.258 . S
C750 O752 1.263 . S
O751 Co748 1.970 . S
O751 C750 1.258 . S
O752 Co749 1.966 . S
O752 C750 1.263 . S
C753 O754 1.235 . S
C753 O780 1.289 . S
O754 C753 1.235 . S
C755 C757 1.400 . S
C755 N758 1.351 . S
C755 C760 1.501 . S
C756 C757 1.387 . S
C756 N759 1.341 . S
C757 C755 1.400 . S
C757 C756 1.387 . S
N758 Co749 2.022 . S
N758 C755 1.351 . S
N758 N759 1.365 . S
N759 C756 1.341 . S
N759 N758 1.365 . S
N759 H779 0.862 . S
C760 C755 1.501 . S
C760 H761 0.961 . S
C760 H762 0.961 . S
C760 H763 0.960 . S
H761 C760 0.961 . S
H762 C760 0.961 . S
H763 C760 0.960 . S
C764 N765 1.342 . S
C764 C768 1.401 . S
C764 C769 1.499 . S
N765 Co748 1.989 . S
N765 C764 1.342 . S
N765 N766 1.388 . S
N766 Co749 1.993 . S
N766 N765 1.388 . S
N766 C767 1.346 . S
C767 N766 1.346 . S
C767 C768 1.396 . S
C767 C777 1.510 . S
C768 C764 1.401 . S
C768 C767 1.396 . S
C769 C764 1.499 . S
C769 H770 0.959 . S
C769 H771 0.960 . S
C769 H772 0.961 . S
H770 C769 0.959 . S
H771 C769 0.960 . S
H772 C769 0.961 . S
O773 Co748 1.967 . S
O773 C781 1.258 . S
O774 Co749 1.941 . S
O774 C781 1.266 . S
H775 C777 0.959 . S
H776 C777 0.961 . S
C777 C767 1.510 . S
C777 H775 0.959 . S
C777 H776 0.961 . S
C777 H778 0.960 . S
H778 C777 0.960 . S
H779 N759 0.862 . S
O780 Co748 1.920 . S
O780 C753 1.289 . S
C781 O773 1.258 . S
C781 O774 1.266 . S
Co782 O785 1.970 . S
Co782 N799 1.989 . S
Co782 O807 1.967 . S
Co782 O814 1.920 . S
Co783 O786 1.966 . S
Co783 N792 2.022 . S
Co783 N800 1.993 . S
Co783 O808 1.941 . S
C784 O785 1.258 . S
C784 O786 1.263 . S
O785 Co782 1.970 . S
O785 C784 1.258 . S
O786 Co783 1.966 . S
O786 C784 1.263 . S
C787 O788 1.235 . S
C787 O814 1.289 . S
O788 C787 1.235 . S
C789 C791 1.400 . S
C789 N792 1.351 . S
C789 C794 1.501 . S
C790 C791 1.387 . S
C790 N793 1.341 . S
C791 C789 1.400 . S
C791 C790 1.387 . S
N792 Co783 2.022 . S
N792 C789 1.351 . S
N792 N793 1.365 . S
N793 C790 1.341 . S
N793 N792 1.365 . S
N793 H813 0.862 . S
C794 C789 1.501 . S
C794 H795 0.961 . S
C794 H796 0.961 . S
C794 H797 0.960 . S
H795 C794 0.961 . S
H796 C794 0.961 . S
H797 C794 0.960 . S
C798 N799 1.342 . S
C798 C802 1.401 . S
C798 C803 1.499 . S
N799 Co782 1.989 . S
N799 C798 1.342 . S
N799 N800 1.388 . S
N800 Co783 1.993 . S
N800 N799 1.388 . S
N800 C801 1.346 . S
C801 N800 1.346 . S
C801 C802 1.396 . S
C801 C811 1.510 . S
C802 C798 1.401 . S
C802 C801 1.396 . S
C803 C798 1.499 . S
C803 H804 0.959 . S
C803 H805 0.960 . S
C803 H806 0.961 . S
H804 C803 0.959 . S
H805 C803 0.960 . S
H806 C803 0.961 . S
O807 Co782 1.967 . S
O807 C815 1.258 . S
O808 Co783 1.941 . S
O808 C815 1.266 . S
H809 C811 0.959 . S
H810 C811 0.961 . S
C811 C801 1.510 . S
C811 H809 0.959 . S
C811 H810 0.961 . S
C811 H812 0.960 . S
H812 C811 0.960 . S
H813 N793 0.862 . S
O814 Co782 1.920 . S
O814 C787 1.289 . S
C815 O807 1.258 . S
C815 O808 1.266 . S
Co816 O819 1.970 . S
Co816 N833 1.989 . S
Co816 O841 1.967 . S
Co816 O848 1.920 . S
Co817 O820 1.966 . S
Co817 N826 2.022 . S
Co817 N834 1.993 . S
Co817 O842 1.941 . S
C818 O819 1.258 . S
C818 O820 1.263 . S
O819 Co816 1.970 . S
O819 C818 1.258 . S
O820 Co817 1.966 . S
O820 C818 1.263 . S
C821 O822 1.235 . S
C821 O848 1.289 . S
O822 C821 1.235 . S
C823 C825 1.400 . S
C823 N826 1.351 . S
C823 C828 1.501 . S
C824 C825 1.387 . S
C824 N827 1.341 . S
C825 C823 1.400 . S
C825 C824 1.387 . S
N826 Co817 2.022 . S
N826 C823 1.351 . S
N826 N827 1.365 . S
N827 C824 1.341 . S
N827 N826 1.365 . S
N827 H847 0.862 . S
C828 C823 1.501 . S
C828 H829 0.961 . S
C828 H830 0.961 1_554 S
C828 H831 0.962 . S
H829 C828 0.961 . S
H830 C828 0.961 1_556 S
H831 C828 0.962 . S
C832 N833 1.342 . S
C832 C836 1.401 . S
C832 C837 1.499 . S
N833 Co816 1.989 . S
N833 C832 1.342 . S
N833 N834 1.388 . S
N834 Co817 1.993 . S
N834 N833 1.388 . S
N834 C835 1.346 . S
C835 N834 1.346 . S
C835 C836 1.396 . S
C835 C845 1.510 . S
C836 C832 1.401 . S
C836 C835 1.396 . S
C837 C832 1.499 . S
C837 H838 0.959 . S
C837 H839 0.960 . S
C837 H840 0.961 . S
H838 C837 0.959 . S
H839 C837 0.960 . S
H840 C837 0.961 . S
O841 Co816 1.967 . S
O841 C849 1.258 . S
O842 Co817 1.941 . S
O842 C849 1.266 . S
H843 C845 0.959 . S
H844 C845 0.961 . S
C845 C835 1.510 . S
C845 H843 0.959 . S
C845 H844 0.961 . S
C845 H846 0.960 . S
H846 C845 0.960 . S
H847 N827 0.862 . S
O848 Co816 1.920 . S
O848 C821 1.289 . S
C849 O841 1.258 . S
C849 O842 1.266 . S
Co850 O853 1.970 . S
Co850 N867 1.989 . S
Co850 O875 1.967 . S
Co850 O882 1.920 . S
Co851 O854 1.966 . S
Co851 N860 2.022 . S
Co851 N868 1.993 . S
Co851 O876 1.941 . S
C852 O853 1.258 . S
C852 O854 1.263 . S
O853 Co850 1.970 . S
O853 C852 1.258 . S
O854 Co851 1.966 . S
O854 C852 1.263 . S
C855 O856 1.235 . S
C855 O882 1.289 . S
O856 C855 1.235 . S
C857 C859 1.400 . S
C857 N860 1.351 . S
C857 C862 1.501 . S
C858 C859 1.387 . S
C858 N861 1.341 . S
C859 C857 1.400 . S
C859 C858 1.387 . S
N860 Co851 2.022 . S
N860 C857 1.351 . S
N860 N861 1.365 . S
N861 C858 1.341 . S
N861 N860 1.365 . S
N861 H881 0.862 . S
C862 C857 1.501 . S
C862 H863 0.961 . S
C862 H864 0.961 1_554 S
C862 H865 0.962 . S
H863 C862 0.961 . S
H864 C862 0.961 1_556 S
H865 C862 0.962 . S
C866 N867 1.342 . S
C866 C870 1.401 . S
C866 C871 1.499 . S
N867 Co850 1.989 . S
N867 C866 1.342 . S
N867 N868 1.388 . S
N868 Co851 1.993 . S
N868 N867 1.388 . S
N868 C869 1.346 . S
C869 N868 1.346 . S
C869 C870 1.396 . S
C869 C879 1.510 . S
C870 C866 1.401 . S
C870 C869 1.396 . S
C871 C866 1.499 . S
C871 H872 0.959 . S
C871 H873 0.960 . S
C871 H874 0.961 . S
H872 C871 0.959 . S
H873 C871 0.960 . S
H874 C871 0.961 . S
O875 Co850 1.967 . S
O875 C883 1.258 . S
O876 Co851 1.941 . S
O876 C883 1.266 . S
H877 C879 0.959 . S
H878 C879 0.961 . S
C879 C869 1.510 . S
C879 H877 0.959 . S
C879 H878 0.961 . S
C879 H880 0.960 . S
H880 C879 0.960 . S
H881 N861 0.862 . S
O882 Co850 1.920 . S
O882 C855 1.289 . S
C883 O875 1.258 . S
C883 O876 1.266 . S
Co884 O887 1.970 . S
Co884 N901 1.989 . S
Co884 O909 1.967 . S
Co884 O916 1.920 . S
Co885 O888 1.966 . S
Co885 N894 2.022 . S
Co885 N902 1.993 . S
Co885 O910 1.941 . S
C886 O887 1.258 . S
C886 O888 1.263 . S
O887 Co884 1.970 . S
O887 C886 1.258 . S
O888 Co885 1.966 . S
O888 C886 1.263 . S
C889 O890 1.235 . S
C889 O916 1.289 . S
O890 C889 1.235 . S
C891 C893 1.400 . S
C891 N894 1.351 . S
C891 C896 1.501 . S
C892 C893 1.387 . S
C892 N895 1.341 . S
C893 C891 1.400 . S
C893 C892 1.387 . S
N894 Co885 2.022 . S
N894 C891 1.351 . S
N894 N895 1.365 . S
N895 C892 1.341 . S
N895 N894 1.365 . S
N895 H915 0.862 . S
C896 C891 1.501 . S
C896 H897 0.961 . S
C896 H898 0.961 . S
C896 H899 0.960 . S
H897 C896 0.961 . S
H898 C896 0.961 . S
H899 C896 0.960 . S
C900 N901 1.342 . S
C900 C904 1.401 . S
C900 C905 1.499 . S
N901 Co884 1.989 . S
N901 C900 1.342 . S
N901 N902 1.388 . S
N902 Co885 1.993 . S
N902 N901 1.388 . S
N902 C903 1.346 . S
C903 N902 1.346 . S
C903 C904 1.396 . S
C903 C913 1.510 . S
C904 C900 1.401 . S
C904 C903 1.396 . S
C905 C900 1.499 . S
C905 H906 0.959 . S
C905 H907 0.960 . S
C905 H908 0.961 . S
H906 C905 0.959 . S
H907 C905 0.960 . S
H908 C905 0.961 . S
O909 Co884 1.967 . S
O909 C917 1.258 . S
O910 Co885 1.941 . S
O910 C917 1.266 . S
H911 C913 0.959 . S
H912 C913 0.961 . S
C913 C903 1.510 . S
C913 H911 0.959 . S
C913 H912 0.961 . S
C913 H914 0.960 . S
H914 C913 0.960 . S
H915 N895 0.862 . S
O916 Co884 1.920 . S
O916 C889 1.289 . S
C917 O909 1.258 . S
C917 O910 1.266 . S
Co918 O921 1.970 . S
Co918 N935 1.989 . S
Co918 O943 1.967 . S
Co918 O950 1.920 . S
Co919 O922 1.966 . S
Co919 N928 2.022 . S
Co919 N936 1.993 . S
Co919 O944 1.941 . S
C920 O921 1.258 . S
C920 O922 1.263 . S
O921 Co918 1.970 . S
O921 C920 1.258 . S
O922 Co919 1.966 . S
O922 C920 1.263 . S
C923 O924 1.235 . S
C923 O950 1.289 . S
O924 C923 1.235 . S
C925 C927 1.400 . S
C925 N928 1.351 . S
C925 C930 1.501 . S
C926 C927 1.387 . S
C926 N929 1.341 . S
C927 C925 1.400 . S
C927 C926 1.387 . S
N928 Co919 2.022 . S
N928 C925 1.351 . S
N928 N929 1.365 . S
N929 C926 1.341 . S
N929 N928 1.365 . S
N929 H949 0.862 . S
C930 C925 1.501 . S
C930 H931 0.961 . S
C930 H932 0.961 . S
C930 H933 0.960 . S
H931 C930 0.961 . S
H932 C930 0.961 . S
H933 C930 0.960 . S
C934 N935 1.342 . S
C934 C938 1.401 . S
C934 C939 1.499 . S
N935 Co918 1.989 . S
N935 C934 1.342 . S
N935 N936 1.388 . S
N936 Co919 1.993 . S
N936 N935 1.388 . S
N936 C937 1.346 . S
C937 N936 1.346 . S
C937 C938 1.396 . S
C937 C947 1.510 . S
C938 C934 1.401 . S
C938 C937 1.396 . S
C939 C934 1.499 . S
C939 H940 0.959 . S
C939 H941 0.960 . S
C939 H942 0.961 . S
H940 C939 0.959 . S
H941 C939 0.960 . S
H942 C939 0.961 . S
O943 Co918 1.967 . S
O943 C951 1.258 . S
O944 Co919 1.941 . S
O944 C951 1.266 . S
H945 C947 0.959 . S
H946 C947 0.961 . S
C947 C937 1.510 . S
C947 H945 0.959 . S
C947 H946 0.961 . S
C947 H948 0.960 . S
H948 C947 0.960 . S
H949 N929 0.862 . S
O950 Co918 1.920 . S
O950 C923 1.289 . S
C951 O943 1.258 . S
C951 O944 1.266 . S
Co952 O955 1.970 . S
Co952 N969 1.989 . S
Co952 O977 1.967 . S
Co952 O984 1.920 . S
Co953 O956 1.966 . S
Co953 N962 2.022 . S
Co953 N970 1.993 . S
Co953 O978 1.941 . S
C954 O955 1.258 . S
C954 O956 1.263 . S
O955 Co952 1.970 . S
O955 C954 1.258 . S
O956 Co953 1.966 . S
O956 C954 1.263 . S
C957 O958 1.235 . S
C957 O984 1.289 . S
O958 C957 1.235 . S
C959 C961 1.400 . S
C959 N962 1.351 . S
C959 C964 1.501 . S
C960 C961 1.387 . S
C960 N963 1.341 . S
C961 C959 1.400 . S
C961 C960 1.387 . S
N962 Co953 2.022 . S
N962 C959 1.351 . S
N962 N963 1.365 . S
N963 C960 1.341 . S
N963 N962 1.365 . S
N963 H983 0.862 . S
C964 C959 1.501 . S
C964 H965 0.961 . S
C964 H966 0.961 1_556 S
C964 H967 0.962 . S
H965 C964 0.961 . S
H966 C964 0.961 1_554 S
H967 C964 0.962 . S
C968 N969 1.342 . S
C968 C972 1.401 . S
C968 C973 1.499 . S
N969 Co952 1.989 . S
N969 C968 1.342 . S
N969 N970 1.388 . S
N970 Co953 1.993 . S
N970 N969 1.388 . S
N970 C971 1.346 . S
C971 N970 1.346 . S
C971 C972 1.396 . S
C971 C981 1.510 . S
C972 C968 1.401 . S
C972 C971 1.396 . S
C973 C968 1.499 . S
C973 H974 0.959 . S
C973 H975 0.960 . S
C973 H976 0.961 . S
H974 C973 0.959 . S
H975 C973 0.960 . S
H976 C973 0.961 . S
O977 Co952 1.967 . S
O977 C985 1.258 . S
O978 Co953 1.941 . S
O978 C985 1.266 . S
H979 C981 0.959 . S
H980 C981 0.961 . S
C981 C971 1.510 . S
C981 H979 0.959 . S
C981 H980 0.961 . S
C981 H982 0.960 . S
H982 C981 0.960 . S
H983 N963 0.862 . S
O984 Co952 1.920 . S
O984 C957 1.289 . S
C985 O977 1.258 . S
C985 O978 1.266 . S
Co986 O989 1.970 . S
Co986 N1003 1.989 . S
Co986 O1011 1.967 . S
Co986 O1018 1.920 . S
Co987 O990 1.966 . S
Co987 N996 2.022 . S
Co987 N1004 1.993 . S
Co987 O1012 1.941 . S
C988 O989 1.258 . S
C988 O990 1.263 . S
O989 Co986 1.970 . S
O989 C988 1.258 . S
O990 Co987 1.966 . S
O990 C988 1.263 . S
C991 O992 1.235 . S
C991 O1018 1.289 . S
O992 C991 1.235 . S
C993 C995 1.400 . S
C993 N996 1.351 . S
C993 C998 1.501 . S
C994 C995 1.387 . S
C994 N997 1.341 . S
C995 C993 1.400 . S
C995 C994 1.387 . S
N996 Co987 2.022 . S
N996 C993 1.351 . S
N996 N997 1.365 . S
N997 C994 1.341 . S
N997 N996 1.365 . S
N997 H1017 0.862 . S
C998 C993 1.501 . S
C998 H999 0.961 . S
C998 H1000 0.961 1_556 S
C998 H1001 0.962 . S
H999 C998 0.961 . S
H1000 C998 0.961 1_554 S
H1001 C998 0.962 . S
C1002 N1003 1.342 . S
C1002 C1006 1.401 . S
C1002 C1007 1.499 . S
N1003 Co986 1.989 . S
N1003 C1002 1.342 . S
N1003 N1004 1.388 . S
N1004 Co987 1.993 . S
N1004 N1003 1.388 . S
N1004 C1005 1.346 . S
C1005 N1004 1.346 . S
C1005 C1006 1.396 . S
C1005 C1015 1.510 . S
C1006 C1002 1.401 . S
C1006 C1005 1.396 . S
C1007 C1002 1.499 . S
C1007 H1008 0.959 . S
C1007 H1009 0.960 . S
C1007 H1010 0.961 . S
H1008 C1007 0.959 . S
H1009 C1007 0.960 . S
H1010 C1007 0.961 . S
O1011 Co986 1.967 . S
O1011 C1019 1.258 . S
O1012 Co987 1.941 . S
O1012 C1019 1.266 . S
H1013 C1015 0.959 . S
H1014 C1015 0.961 . S
C1015 C1005 1.510 . S
C1015 H1013 0.959 . S
C1015 H1014 0.961 . S
C1015 H1016 0.960 . S
H1016 C1015 0.960 . S
H1017 N997 0.862 . S
O1018 Co986 1.920 . S
O1018 C991 1.289 . S
C1019 O1011 1.258 . S
C1019 O1012 1.266 . S
Co1020 O1023 1.970 . S
Co1020 N1037 1.989 . S
Co1020 O1045 1.967 . S
Co1020 O1052 1.920 . S
Co1021 O1024 1.966 . S
Co1021 N1030 2.022 . S
Co1021 N1038 1.993 . S
Co1021 O1046 1.941 . S
C1022 O1023 1.258 . S
C1022 O1024 1.263 . S
O1023 Co1020 1.970 . S
O1023 C1022 1.258 . S
O1024 Co1021 1.966 . S
O1024 C1022 1.263 . S
C1025 O1026 1.235 . S
C1025 O1052 1.289 . S
O1026 C1025 1.235 . S
C1027 C1029 1.400 . S
C1027 N1030 1.351 . S
C1027 C1032 1.501 . S
C1028 C1029 1.387 . S
C1028 N1031 1.341 . S
C1029 C1027 1.400 . S
C1029 C1028 1.387 . S
N1030 Co1021 2.022 . S
N1030 C1027 1.351 . S
N1030 N1031 1.365 . S
N1031 C1028 1.341 . S
N1031 N1030 1.365 . S
N1031 H1051 0.862 . S
C1032 C1027 1.501 . S
C1032 H1033 0.961 . S
C1032 H1034 0.961 . S
C1032 H1035 0.960 . S
H1033 C1032 0.961 . S
H1034 C1032 0.961 . S
H1035 C1032 0.960 . S
C1036 N1037 1.342 . S
C1036 C1040 1.401 . S
C1036 C1041 1.499 . S
N1037 Co1020 1.989 . S
N1037 C1036 1.342 . S
N1037 N1038 1.388 . S
N1038 Co1021 1.993 . S
N1038 N1037 1.388 . S
N1038 C1039 1.346 . S
C1039 N1038 1.346 . S
C1039 C1040 1.396 . S
C1039 C1049 1.510 . S
C1040 C1036 1.401 . S
C1040 C1039 1.396 . S
C1041 C1036 1.499 . S
C1041 H1042 0.959 . S
C1041 H1043 0.960 . S
C1041 H1044 0.961 . S
H1042 C1041 0.959 . S
H1043 C1041 0.960 . S
H1044 C1041 0.961 . S
O1045 Co1020 1.967 . S
O1045 C1053 1.258 . S
O1046 Co1021 1.941 . S
O1046 C1053 1.266 . S
H1047 C1049 0.959 . S
H1048 C1049 0.961 . S
C1049 C1039 1.510 . S
C1049 H1047 0.959 . S
C1049 H1048 0.961 . S
C1049 H1050 0.960 . S
H1050 C1049 0.960 . S
H1051 N1031 0.862 . S
O1052 Co1020 1.920 . S
O1052 C1025 1.289 . S
C1053 O1045 1.258 . S
C1053 O1046 1.266 . S
Co1054 O1057 1.970 . S
Co1054 N1071 1.989 . S
Co1054 O1079 1.967 . S
Co1054 O1086 1.920 . S
Co1055 O1058 1.966 . S
Co1055 N1064 2.022 . S
Co1055 N1072 1.993 . S
Co1055 O1080 1.941 . S
C1056 O1057 1.258 . S
C1056 O1058 1.263 . S
O1057 Co1054 1.970 . S
O1057 C1056 1.258 . S
O1058 Co1055 1.966 . S
O1058 C1056 1.263 . S
C1059 O1060 1.235 . S
C1059 O1086 1.289 . S
O1060 C1059 1.235 . S
C1061 C1063 1.400 . S
C1061 N1064 1.351 . S
C1061 C1066 1.501 . S
C1062 C1063 1.387 . S
C1062 N1065 1.341 . S
C1063 C1061 1.400 . S
C1063 C1062 1.387 . S
N1064 Co1055 2.022 . S
N1064 C1061 1.351 . S
N1064 N1065 1.365 . S
N1065 C1062 1.341 . S
N1065 N1064 1.365 . S
N1065 H1085 0.862 . S
C1066 C1061 1.501 . S
C1066 H1067 0.961 . S
C1066 H1068 0.961 . S
C1066 H1069 0.960 . S
H1067 C1066 0.961 . S
H1068 C1066 0.961 . S
H1069 C1066 0.960 . S
C1070 N1071 1.342 . S
C1070 C1074 1.401 . S
C1070 C1075 1.499 . S
N1071 Co1054 1.989 . S
N1071 C1070 1.342 . S
N1071 N1072 1.388 . S
N1072 Co1055 1.993 . S
N1072 N1071 1.388 . S
N1072 C1073 1.346 . S
C1073 N1072 1.346 . S
C1073 C1074 1.396 . S
C1073 C1083 1.510 . S
C1074 C1070 1.401 . S
C1074 C1073 1.396 . S
C1075 C1070 1.499 . S
C1075 H1076 0.959 . S
C1075 H1077 0.960 . S
C1075 H1078 0.961 . S
H1076 C1075 0.959 . S
H1077 C1075 0.960 . S
H1078 C1075 0.961 . S
O1079 Co1054 1.967 . S
O1079 C1087 1.258 . S
O1080 Co1055 1.941 . S
O1080 C1087 1.266 . S
H1081 C1083 0.959 . S
H1082 C1083 0.961 . S
C1083 C1073 1.510 . S
C1083 H1081 0.959 . S
C1083 H1082 0.961 . S
C1083 H1084 0.960 . S
H1084 C1083 0.960 . S
H1085 N1065 0.862 . S
O1086 Co1054 1.920 . S
O1086 C1059 1.289 . S
C1087 O1079 1.258 . S
C1087 O1080 1.266 . S
H1088 C1094 0.930 . S
H1089 C1098 0.930 . S
H1090 C1103 0.929 1_565 S
H1091 C1101 0.929 1_545 S
H1092 C1096 0.929 1_554 S
H1093 C1102 0.929 1_556 S
C1094 H1088 0.930 . S
C1094 C1095 1.367 . S
C1094 C1102 1.378 . S
C1095 C1094 1.367 . S
C1095 C1103 1.433 . S
C1096 H1092 0.929 1_556 S
C1096 C1098 1.378 . S
C1096 C1100 1.350 . S
C1097 C1100 1.463 1_544 S
C1097 C1102 1.350 . S
C1097 N1105 1.427 1_545 S
C1098 H1089 0.930 . S
C1098 C1096 1.378 . S
C1098 C1099 1.367 . S
C1099 C1098 1.367 . S
C1099 C1101 1.433 . S
C1100 C1096 1.350 . S
C1100 C1097 1.463 1_566 S
C1100 N1104 1.427 1_565 S
C1101 H1091 0.929 1_565 S
C1101 C1099 1.433 . S
C1101 N1104 1.384 1_565 S
C1102 H1093 0.929 1_554 S
C1102 C1094 1.378 . S
C1102 C1097 1.350 . S
C1103 H1090 0.929 1_545 S
C1103 C1095 1.433 . S
C1103 N1105 1.384 1_545 S
N1104 C1100 1.427 1_545 S
N1104 C1101 1.384 1_545 S
N1105 C1097 1.427 1_565 S
N1105 C1103 1.384 1_565 S
H1106 C1112 0.930 1_554 S
H1107 C1116 0.930 1_556 S
H1108 C1121 0.929 . S
H1109 C1119 0.929 . S
H1110 C1114 0.929 . S
H1111 C1120 0.929 . S
C1112 H1106 0.930 1_556 S
C1112 C1113 1.367 . S
C1112 C1120 1.378 1_556 S
C1113 C1112 1.367 . S
C1113 C1121 1.433 . S
C1114 H1110 0.929 . S
C1114 C1116 1.378 1_556 S
C1114 C1118 1.350 1_556 S
C1115 C1118 1.463 1_556 S
C1115 C1120 1.350 1_556 S
C1115 N1123 1.427 . S
C1116 H1107 0.930 1_554 S
C1116 C1114 1.378 1_554 S
C1116 C1117 1.367 . S
C1117 C1116 1.367 . S
C1117 C1119 1.433 . S
C1118 C1114 1.350 1_554 S
C1118 C1115 1.463 1_554 S
C1118 N1122 1.427 . S
C1119 H1109 0.929 . S
C1119 C1117 1.433 . S
C1119 N1122 1.384 . S
C1120 H1111 0.929 . S
C1120 C1112 1.378 1_554 S
C1120 C1115 1.350 1_554 S
C1121 H1108 0.929 . S
C1121 C1113 1.433 . S
C1121 N1123 1.384 . S
N1122 C1118 1.427 . S
N1122 C1119 1.384 . S
N1123 C1115 1.427 . S
N1123 C1121 1.384 . S
H1124 C1130 0.930 . S
H1125 C1134 0.930 . S
H1126 C1139 0.929 . S
H1127 C1137 0.929 . S
H1128 C1132 0.929 . S
H1129 C1138 0.929 . S
C1130 H1124 0.930 . S
C1130 C1131 1.367 . S
C1130 C1138 1.378 . S
C1131 C1130 1.367 . S
C1131 C1139 1.433 . S
C1132 H1128 0.929 . S
C1132 C1134 1.378 . S
C1132 C1136 1.350 . S
C1133 C1136 1.463 . S
C1133 C1138 1.350 . S
C1133 N1141 1.427 . S
C1134 H1125 0.930 . S
C1134 C1132 1.378 . S
C1134 C1135 1.367 . S
C1135 C1134 1.367 . S
C1135 C1137 1.433 . S
C1136 C1132 1.350 . S
C1136 C1133 1.463 . S
C1136 N1140 1.427 . S
C1137 H1127 0.929 . S
C1137 C1135 1.433 . S
C1137 N1140 1.384 . S
C1138 H1129 0.929 . S
C1138 C1130 1.378 . S
C1138 C1133 1.350 . S
C1139 H1126 0.929 . S
C1139 C1131 1.433 . S
C1139 N1141 1.384 . S
N1140 C1136 1.427 . S
N1140 C1137 1.384 . S
N1141 C1133 1.427 . S
N1141 C1139 1.384 . S
H1142 C1148 0.930 . S
H1143 C1152 0.930 . S
H1144 C1157 0.929 . S
H1145 C1155 0.929 . S
H1146 C1150 0.929 . S
H1147 C1156 0.929 . S
C1148 H1142 0.930 . S
C1148 C1149 1.367 . S
C1148 C1156 1.378 . S
C1149 C1148 1.367 . S
C1149 C1157 1.433 . S
C1150 H1146 0.929 . S
C1150 C1152 1.378 . S
C1150 C1154 1.350 . S
C1151 C1154 1.463 1_545 S
C1151 C1156 1.350 . S
C1151 N1159 1.427 . S
C1152 H1143 0.930 . S
C1152 C1150 1.378 . S
C1152 C1153 1.367 . S
C1153 C1152 1.367 . S
C1153 C1155 1.433 . S
C1154 C1150 1.350 . S
C1154 C1151 1.463 1_565 S
C1154 N1158 1.427 . S
C1155 H1145 0.929 . S
C1155 C1153 1.433 . S
C1155 N1158 1.384 . S
C1156 H1147 0.929 . S
C1156 C1148 1.378 . S
C1156 C1151 1.350 . S
C1157 H1144 0.929 . S
C1157 C1149 1.433 . S
C1157 N1159 1.384 . S
N1158 C1154 1.427 . S
N1158 C1155 1.384 . S
N1159 C1151 1.427 . S
N1159 C1157 1.384 . S
H1160 C1166 0.930 . S
H1161 C1170 0.930 . S
H1162 C1175 0.929 . S
H1163 C1173 0.929 . S
H1164 C1168 0.929 . S
H1165 C1174 0.929 . S
C1166 H1160 0.930 . S
C1166 C1167 1.367 . S
C1166 C1174 1.378 . S
C1167 C1166 1.367 . S
C1167 C1175 1.433 . S
C1168 H1164 0.929 . S
C1168 C1170 1.378 . S
C1168 C1172 1.350 . S
C1169 C1172 1.463 1_554 S
C1169 C1174 1.350 . S
C1169 N1177 1.440 . S
C1170 H1161 0.930 . S
C1170 C1168 1.378 . S
C1170 C1171 1.367 . S
C1171 C1170 1.367 . S
C1171 C1173 1.433 . S
C1172 C1168 1.350 . S
C1172 C1169 1.463 1_556 S
C1172 N1176 1.440 . S
C1173 H1163 0.929 . S
C1173 C1171 1.433 . S
C1173 N1176 1.412 . S
C1174 H1165 0.929 . S
C1174 C1166 1.378 . S
C1174 C1169 1.350 . S
C1175 H1162 0.929 . S
C1175 C1167 1.433 . S
C1175 N1177 1.412 . S
N1176 C1172 1.440 . S
N1176 C1173 1.412 . S
N1177 C1169 1.440 . S
N1177 C1175 1.412 . S
H1178 C1184 0.930 . S
H1179 C1188 0.930 . S
H1180 C1193 0.929 . S
H1181 C1191 0.929 . S
H1182 C1186 0.929 . S
H1183 C1192 0.929 . S
C1184 H1178 0.930 . S
C1184 C1185 1.367 . S
C1184 C1192 1.378 . S
C1185 C1184 1.367 . S
C1185 C1193 1.433 . S
C1186 H1182 0.929 . S
C1186 C1188 1.378 . S
C1186 C1190 1.350 . S
C1187 C1190 1.463 . S
C1187 C1192 1.350 . S
C1187 N1195 1.427 . S
C1188 H1179 0.930 . S
C1188 C1186 1.378 . S
C1188 C1189 1.367 . S
C1189 C1188 1.367 . S
C1189 C1191 1.433 . S
C1190 C1186 1.350 . S
C1190 C1187 1.463 . S
C1190 N1194 1.427 . S
C1191 H1181 0.929 . S
C1191 C1189 1.433 . S
C1191 N1194 1.384 . S
C1192 H1183 0.929 . S
C1192 C1184 1.378 . S
C1192 C1187 1.350 . S
C1193 H1180 0.929 . S
C1193 C1185 1.433 . S
C1193 N1195 1.384 . S
N1194 C1190 1.427 . S
N1194 C1191 1.384 . S
N1195 C1187 1.427 . S
N1195 C1193 1.384 . S
H1196 C1202 0.930 1_565 S
H1197 C1206 0.930 1_545 S
H1198 C1211 0.929 . S
H1199 C1209 0.929 . S
H1200 C1204 0.929 . S
H1201 C1210 0.929 . S
C1202 H1196 0.930 1_545 S
C1202 C1203 1.367 . S
C1202 C1210 1.378 1_545 S
C1203 C1202 1.367 . S
C1203 C1211 1.433 . S
C1204 H1200 0.929 . S
C1204 C1206 1.378 1_545 S
C1204 C1208 1.350 1_545 S
C1205 C1208 1.463 1_545 S
C1205 C1210 1.350 1_545 S
C1205 N1213 1.427 . S
C1206 H1197 0.930 1_565 S
C1206 C1204 1.378 1_565 S
C1206 C1207 1.367 . S
C1207 C1206 1.367 . S
C1207 C1209 1.433 . S
C1208 C1204 1.350 1_565 S
C1208 C1205 1.463 1_565 S
C1208 N1212 1.427 . S
C1209 H1199 0.929 . S
C1209 C1207 1.433 . S
C1209 N1212 1.384 . S
C1210 H1201 0.929 . S
C1210 C1202 1.378 1_565 S
C1210 C1205 1.350 1_565 S
C1211 H1198 0.929 . S
C1211 C1203 1.433 . S
C1211 N1213 1.384 . S
N1212 C1208 1.427 . S
N1212 C1209 1.384 . S
N1213 C1205 1.427 . S
N1213 C1211 1.384 . S
H1214 C1220 0.930 . S
H1215 C1224 0.930 . S
H1216 C1229 0.929 . S
H1217 C1227 0.929 . S
H1218 C1222 0.929 . S
H1219 C1228 0.929 . S
C1220 H1214 0.930 . S
C1220 C1221 1.367 . S
C1220 C1228 1.378 . S
C1221 C1220 1.367 . S
C1221 C1229 1.433 . S
C1222 H1218 0.929 . S
C1222 C1224 1.378 . S
C1222 C1226 1.350 . S
C1223 C1226 1.463 . S
C1223 C1228 1.350 . S
C1223 N1231 1.427 . S
C1224 H1215 0.930 . S
C1224 C1222 1.378 . S
C1224 C1225 1.367 . S
C1225 C1224 1.367 . S
C1225 C1227 1.433 . S
C1226 C1222 1.350 . S
C1226 C1223 1.463 . S
C1226 N1230 1.427 . S
C1227 H1217 0.929 . S
C1227 C1225 1.433 . S
C1227 N1230 1.384 . S
C1228 H1219 0.929 . S
C1228 C1220 1.378 . S
C1228 C1223 1.350 . S
C1229 H1216 0.929 . S
C1229 C1221 1.433 . S
C1229 N1231 1.384 . S
N1230 C1226 1.427 . S
N1230 C1227 1.384 . S
N1231 C1223 1.427 . S
N1231 C1229 1.384 . S
H1232 C1238 0.930 . S
H1233 C1242 0.930 . S
H1234 C1247 0.929 . S
H1235 C1245 0.929 . S
H1236 C1240 0.929 . S
H1237 C1246 0.929 . S
C1238 H1232 0.930 . S
C1238 C1239 1.367 . S
C1238 C1246 1.378 . S
C1239 C1238 1.367 . S
C1239 C1247 1.433 . S
C1240 H1236 0.929 . S
C1240 C1242 1.378 . S
C1240 C1244 1.350 . S
C1241 C1244 1.463 . S
C1241 C1246 1.350 . S
C1241 N1249 1.427 . S
C1242 H1233 0.930 . S
C1242 C1240 1.378 . S
C1242 C1243 1.367 . S
C1243 C1242 1.367 . S
C1243 C1245 1.433 . S
C1244 C1240 1.350 . S
C1244 C1241 1.463 . S
C1244 N1248 1.427 . S
C1245 H1235 0.929 . S
C1245 C1243 1.433 . S
C1245 N1248 1.384 . S
C1246 H1237 0.929 . S
C1246 C1238 1.378 . S
C1246 C1241 1.350 . S
C1247 H1234 0.929 . S
C1247 C1239 1.433 . S
C1247 N1249 1.384 . S
N1248 C1244 1.427 . S
N1248 C1245 1.384 . S
N1249 C1241 1.427 . S
N1249 C1247 1.384 . S
H1250 C1256 0.930 . S
H1251 C1260 0.930 . S
H1252 C1265 0.929 . S
H1253 C1263 0.929 . S
H1254 C1258 0.929 . S
H1255 C1264 0.929 . S
C1256 H1250 0.930 . S
C1256 C1257 1.367 . S
C1256 C1264 1.378 . S
C1257 C1256 1.367 . S
C1257 C1265 1.433 . S
C1258 H1254 0.929 . S
C1258 C1260 1.378 . S
C1258 C1262 1.350 . S
C1259 C1262 1.463 . S
C1259 C1264 1.350 . S
C1259 N1267 1.427 . S
C1260 H1251 0.930 . S
C1260 C1258 1.378 . S
C1260 C1261 1.367 . S
C1261 C1260 1.367 . S
C1261 C1263 1.433 . S
C1262 C1258 1.350 . S
C1262 C1259 1.463 . S
C1262 N1266 1.427 . S
C1263 H1253 0.929 . S
C1263 C1261 1.433 . S
C1263 N1266 1.384 . S
C1264 H1255 0.929 . S
C1264 C1256 1.378 . S
C1264 C1259 1.350 . S
C1265 H1252 0.929 . S
C1265 C1257 1.433 . S
C1265 N1267 1.384 . S
N1266 C1262 1.427 . S
N1266 C1263 1.384 . S
N1267 C1259 1.427 . S
N1267 C1265 1.384 . S
H1268 C1274 0.930 . S
H1269 C1278 0.930 . S
H1270 C1283 0.929 . S
H1271 C1281 0.929 . S
H1272 C1276 0.929 . S
H1273 C1282 0.929 . S
C1274 H1268 0.930 . S
C1274 C1275 1.367 . S
C1274 C1282 1.378 . S
C1275 C1274 1.367 . S
C1275 C1283 1.433 . S
C1276 H1272 0.929 . S
C1276 C1278 1.378 . S
C1276 C1280 1.350 . S
C1277 C1280 1.463 . S
C1277 C1282 1.350 . S
C1277 N1285 1.427 . S
C1278 H1269 0.930 . S
C1278 C1276 1.378 . S
C1278 C1279 1.367 . S
C1279 C1278 1.367 . S
C1279 C1281 1.433 . S
C1280 C1276 1.350 . S
C1280 C1277 1.463 . S
C1280 N1284 1.427 . S
C1281 H1271 0.929 . S
C1281 C1279 1.433 . S
C1281 N1284 1.384 . S
C1282 H1273 0.929 . S
C1282 C1274 1.378 . S
C1282 C1277 1.350 . S
C1283 H1270 0.929 . S
C1283 C1275 1.433 . S
C1283 N1285 1.384 . S
N1284 C1280 1.427 . S
N1284 C1281 1.384 . S
N1285 C1277 1.427 . S
N1285 C1283 1.384 . S
H1286 C1292 0.930 . S
H1287 C1296 0.930 . S
H1288 C1301 0.929 . S
H1289 C1299 0.929 . S
H1290 C1294 0.929 . S
H1291 C1300 0.929 . S
C1292 H1286 0.930 . S
C1292 C1293 1.367 . S
C1292 C1300 1.378 . S
C1293 C1292 1.367 . S
C1293 C1301 1.433 . S
C1294 H1290 0.929 . S
C1294 C1296 1.378 . S
C1294 C1298 1.350 . S
C1295 C1298 1.463 . S
C1295 C1300 1.350 . S
C1295 N1303 1.427 . S
C1296 H1287 0.930 . S
C1296 C1294 1.378 . S
C1296 C1297 1.367 . S
C1297 C1296 1.367 . S
C1297 C1299 1.433 . S
C1298 C1294 1.350 . S
C1298 C1295 1.463 . S
C1298 N1302 1.427 . S
C1299 H1289 0.929 . S
C1299 C1297 1.433 . S
C1299 N1302 1.384 . S
C1300 H1291 0.929 . S
C1300 C1292 1.378 . S
C1300 C1295 1.350 . S
C1301 H1288 0.929 . S
C1301 C1293 1.433 . S
C1301 N1303 1.384 . S
N1302 C1298 1.427 . S
N1302 C1299 1.384 . S
N1303 C1295 1.427 . S
N1303 C1301 1.384 . S
H1304 C1310 0.930 . S
H1305 C1314 0.930 . S
H1306 C1319 0.929 . S
H1307 C1317 0.929 . S
H1308 C1312 0.929 1_565 S
H1309 C1318 0.929 1_545 S
C1310 H1304 0.930 . S
C1310 C1311 1.367 . S
C1310 C1318 1.378 . S
C1311 C1310 1.367 . S
C1311 C1319 1.433 . S
C1312 H1308 0.929 1_545 S
C1312 C1314 1.378 . S
C1312 C1316 1.350 . S
C1313 C1316 1.463 1_465 S
C1313 C1318 1.350 . S
C1313 N1321 1.427 . S
C1314 H1305 0.930 . S
C1314 C1312 1.378 . S
C1314 C1315 1.367 . S
C1315 C1314 1.367 . S
C1315 C1317 1.433 . S
C1316 C1312 1.350 . S
C1316 C1313 1.463 1_645 S
C1316 N1320 1.427 . S
C1317 H1307 0.929 . S
C1317 C1315 1.433 . S
C1317 N1320 1.384 . S
C1318 H1309 0.929 1_565 S
C1318 C1310 1.378 . S
C1318 C1313 1.350 . S
C1319 H1306 0.929 . S
C1319 C1311 1.433 . S
C1319 N1321 1.384 . S
N1320 C1316 1.427 . S
N1320 C1317 1.384 . S
N1321 C1313 1.427 . S
N1321 C1319 1.384 . S
H1322 C1328 0.930 . S
H1323 C1332 0.930 . S
H1324 C1337 0.929 . S
H1325 C1335 0.929 . S
H1326 C1330 0.929 . S
H1327 C1336 0.929 . S
C1328 H1322 0.930 . S
C1328 C1329 1.367 . S
C1328 C1336 1.378 . S
C1329 C1328 1.367 . S
C1329 C1337 1.433 . S
C1330 H1326 0.929 . S
C1330 C1332 1.378 . S
C1330 C1334 1.350 . S
C1331 C1334 1.463 1_455 S
C1331 C1336 1.350 . S
C1331 N1339 1.427 . S
C1332 H1323 0.930 . S
C1332 C1330 1.378 . S
C1332 C1333 1.367 . S
C1333 C1332 1.367 . S
C1333 C1335 1.433 . S
C1334 C1330 1.350 . S
C1334 C1331 1.463 1_655 S
C1334 N1338 1.427 . S
C1335 H1325 0.929 . S
C1335 C1333 1.433 . S
C1335 N1338 1.384 . S
C1336 H1327 0.929 . S
C1336 C1328 1.378 . S
C1336 C1331 1.350 . S
C1337 H1324 0.929 . S
C1337 C1329 1.433 . S
C1337 N1339 1.384 . S
N1338 C1334 1.427 . S
N1338 C1335 1.384 . S
N1339 C1331 1.427 . S
N1339 C1337 1.384 . S
H1340 C1346 0.930 . S
H1341 C1350 0.930 . S
H1342 C1355 0.929 . S
H1343 C1353 0.929 . S
H1344 C1348 0.929 1_455 S
H1345 C1354 0.929 1_655 S
C1346 H1340 0.930 . S
C1346 C1347 1.367 . S
C1346 C1354 1.378 . S
C1347 C1346 1.367 . S
C1347 C1355 1.433 . S
C1348 H1344 0.929 1_655 S
C1348 C1350 1.378 . S
C1348 C1352 1.350 . S
C1349 C1352 1.463 1_455 S
C1349 C1354 1.350 . S
C1349 N1357 1.427 . S
C1350 H1341 0.930 . S
C1350 C1348 1.378 . S
C1350 C1351 1.367 . S
C1351 C1350 1.367 . S
C1351 C1353 1.433 . S
C1352 C1348 1.350 . S
C1352 C1349 1.463 1_655 S
C1352 N1356 1.427 . S
C1353 H1343 0.929 . S
C1353 C1351 1.433 . S
C1353 N1356 1.384 . S
C1354 H1345 0.929 1_455 S
C1354 C1346 1.378 . S
C1354 C1349 1.350 . S
C1355 H1342 0.929 . S
C1355 C1347 1.433 . S
C1355 N1357 1.384 . S
N1356 C1352 1.427 . S
N1356 C1353 1.384 . S
N1357 C1349 1.427 . S
N1357 C1355 1.384 . S
H1358 C1364 0.930 . S
H1359 C1368 0.930 . S
H1360 C1373 0.942 . S
H1361 C1371 0.942 . S
H1362 C1366 0.929 . S
H1363 C1372 0.929 . S
C1364 H1358 0.930 . S
C1364 C1365 1.367 . S
C1364 C1372 1.378 . S
C1365 C1364 1.367 . S
C1365 C1373 1.412 1_556 S
C1366 H1362 0.929 . S
C1366 C1368 1.378 . S
C1366 C1370 1.350 . S
C1367 C1370 1.463 1_456 S
C1367 C1372 1.350 . S
C1367 N1375 1.427 1_556 S
C1368 H1359 0.930 . S
C1368 C1366 1.378 . S
C1368 C1369 1.367 . S
C1369 C1368 1.367 . S
C1369 C1371 1.412 1_554 S
C1370 C1366 1.350 . S
C1370 C1367 1.463 1_654 S
C1370 N1374 1.427 1_554 S
C1371 H1361 0.942 . S
C1371 C1369 1.412 1_556 S
C1371 N1374 1.392 . S
C1372 H1363 0.929 . S
C1372 C1364 1.378 . S
C1372 C1367 1.350 . S
C1373 H1360 0.942 . S
C1373 C1365 1.412 1_554 S
C1373 N1375 1.392 . S
N1374 C1370 1.427 1_556 S
N1374 C1371 1.392 . S
N1375 C1367 1.427 1_554 S
N1375 C1373 1.392 . S
H1376 C1382 0.930 . S
H1377 C1386 0.930 . S
H1378 C1391 0.929 . S
H1379 C1389 0.929 . S
H1380 C1384 0.929 . S
H1381 C1390 0.929 . S
C1382 H1376 0.930 . S
C1382 C1383 1.367 . S
C1382 C1390 1.378 . S
C1383 C1382 1.367 . S
C1383 C1391 1.433 . S
C1384 H1380 0.929 . S
C1384 C1386 1.378 . S
C1384 C1388 1.350 . S
C1385 C1388 1.463 . S
C1385 C1390 1.350 . S
C1385 N1393 1.427 . S
C1386 H1377 0.930 . S
C1386 C1384 1.378 . S
C1386 C1387 1.367 . S
C1387 C1386 1.367 . S
C1387 C1389 1.433 . S
C1388 C1384 1.350 . S
C1388 C1385 1.463 . S
C1388 N1392 1.427 . S
C1389 H1379 0.929 . S
C1389 C1387 1.433 . S
C1389 N1392 1.384 . S
C1390 H1381 0.929 . S
C1390 C1382 1.378 . S
C1390 C1385 1.350 . S
C1391 H1378 0.929 . S
C1391 C1383 1.433 . S
C1391 N1393 1.384 . S
N1392 C1388 1.427 . S
N1392 C1389 1.384 . S
N1393 C1385 1.427 . S
N1393 C1391 1.384 . S
H1394 C1400 0.930 1_455 S
H1395 C1404 0.930 . S
H1396 C1409 0.929 . S
H1397 C1407 0.929 1_455 S
H1398 C1402 0.929 . S
H1399 C1408 0.929 1_455 S
C1400 H1394 0.930 1_655 S
C1400 C1401 1.367 . S
C1400 C1408 1.378 . S
C1401 C1400 1.367 . S
C1401 C1409 1.433 . S
C1402 H1398 0.929 . S
C1402 C1404 1.378 . S
C1402 C1406 1.350 . S
C1403 C1406 1.463 . S
C1403 C1408 1.350 . S
C1403 N1411 1.427 . S
C1404 H1395 0.930 . S
C1404 C1402 1.378 . S
C1404 C1405 1.367 . S
C1405 C1404 1.367 . S
C1405 C1407 1.433 . S
C1406 C1402 1.350 . S
C1406 C1403 1.463 . S
C1406 N1410 1.427 . S
C1407 H1397 0.929 1_655 S
C1407 C1405 1.433 . S
C1407 N1410 1.384 . S
C1408 H1399 0.929 1_655 S
C1408 C1400 1.378 . S
C1408 C1403 1.350 . S
C1409 H1396 0.929 . S
C1409 C1401 1.433 . S
C1409 N1411 1.384 . S
N1410 C1406 1.427 . S
N1410 C1407 1.384 . S
N1411 C1403 1.427 . S
N1411 C1409 1.384 . S
H1412 C1418 0.930 . S
H1413 C1422 0.930 . S
H1414 C1427 0.929 . S
H1415 C1425 0.929 . S
H1416 C1420 0.929 . S
H1417 C1426 0.929 . S
C1418 H1412 0.930 . S
C1418 C1419 1.367 . S
C1418 C1426 1.378 . S
C1419 C1418 1.367 . S
C1419 C1427 1.433 . S
C1420 H1416 0.929 . S
C1420 C1422 1.378 . S
C1420 C1424 1.350 . S
C1421 C1424 1.463 . S
C1421 C1426 1.350 . S
C1421 N1429 1.427 . S
C1422 H1413 0.930 . S
C1422 C1420 1.378 . S
C1422 C1423 1.367 . S
C1423 C1422 1.367 . S
C1423 C1425 1.433 . S
C1424 C1420 1.350 . S
C1424 C1421 1.463 . S
C1424 N1428 1.427 . S
C1425 H1415 0.929 . S
C1425 C1423 1.433 . S
C1425 N1428 1.384 . S
C1426 H1417 0.929 . S
C1426 C1418 1.378 . S
C1426 C1421 1.350 . S
C1427 H1414 0.929 . S
C1427 C1419 1.433 . S
C1427 N1429 1.384 . S
N1428 C1424 1.427 . S
N1428 C1425 1.384 . S
N1429 C1421 1.427 . S
N1429 C1427 1.384 . S
H1430 C1436 0.930 1_655 S
H1431 C1440 0.930 . S
H1432 C1445 0.929 . S
H1433 C1443 0.929 1_655 S
H1434 C1438 0.929 . S
H1435 C1444 0.929 1_655 S
C1436 H1430 0.930 1_455 S
C1436 C1437 1.367 . S
C1436 C1444 1.378 . S
C1437 C1436 1.367 . S
C1437 C1445 1.433 . S
C1438 H1434 0.929 . S
C1438 C1440 1.378 . S
C1438 C1442 1.350 . S
C1439 C1442 1.463 . S
C1439 C1444 1.350 . S
C1439 N1447 1.427 . S
C1440 H1431 0.930 . S
C1440 C1438 1.378 . S
C1440 C1441 1.367 . S
C1441 C1440 1.367 . S
C1441 C1443 1.433 . S
C1442 C1438 1.350 . S
C1442 C1439 1.463 . S
C1442 N1446 1.427 . S
C1443 H1433 0.929 1_455 S
C1443 C1441 1.433 . S
C1443 N1446 1.384 . S
C1444 H1435 0.929 1_455 S
C1444 C1436 1.378 . S
C1444 C1439 1.350 . S
C1445 H1432 0.929 . S
C1445 C1437 1.433 . S
C1445 N1447 1.384 . S
N1446 C1442 1.427 . S
N1446 C1443 1.384 . S
N1447 C1439 1.427 . S
N1447 C1445 1.384 . S
H1448 C1454 0.930 . S
H1449 C1458 0.930 . S
H1450 C1463 0.929 . S
H1451 C1461 0.929 . S
H1452 C1456 0.929 . S
H1453 C1462 0.929 . S
C1454 H1448 0.930 . S
C1454 C1455 1.367 . S
C1454 C1462 1.378 . S
C1455 C1454 1.367 . S
C1455 C1463 1.433 . S
C1456 H1452 0.929 . S
C1456 C1458 1.378 . S
C1456 C1460 1.350 . S
C1457 C1460 1.463 . S
C1457 C1462 1.350 . S
C1457 N1465 1.427 . S
C1458 H1449 0.930 . S
C1458 C1456 1.378 . S
C1458 C1459 1.367 . S
C1459 C1458 1.367 . S
C1459 C1461 1.433 . S
C1460 C1456 1.350 . S
C1460 C1457 1.463 . S
C1460 N1464 1.427 . S
C1461 H1451 0.929 . S
C1461 C1459 1.433 . S
C1461 N1464 1.384 . S
C1462 H1453 0.929 . S
C1462 C1454 1.378 . S
C1462 C1457 1.350 . S
C1463 H1450 0.929 . S
C1463 C1455 1.433 . S
C1463 N1465 1.384 . S
N1464 C1460 1.427 . S
N1464 C1461 1.384 . S
N1465 C1457 1.427 . S
N1465 C1463 1.384 . S
H1466 C1472 0.930 . S
H1467 C1476 0.930 . S
H1468 C1481 0.929 . S
H1469 C1479 0.929 . S
H1470 C1474 0.929 . S
H1471 C1480 0.929 . S
C1472 H1466 0.930 . S
C1472 C1473 1.367 . S
C1472 C1480 1.378 . S
C1473 C1472 1.367 . S
C1473 C1481 1.433 . S
C1474 H1470 0.929 . S
C1474 C1476 1.378 . S
C1474 C1478 1.350 . S
C1475 C1478 1.463 . S
C1475 C1480 1.350 . S
C1475 N1483 1.427 . S
C1476 H1467 0.930 . S
C1476 C1474 1.378 . S
C1476 C1477 1.367 . S
C1477 C1476 1.367 . S
C1477 C1479 1.433 . S
C1478 C1474 1.350 . S
C1478 C1475 1.463 . S
C1478 N1482 1.427 . S
C1479 H1469 0.929 . S
C1479 C1477 1.433 . S
C1479 N1482 1.384 . S
C1480 H1471 0.929 . S
C1480 C1472 1.378 . S
C1480 C1475 1.350 . S
C1481 H1468 0.929 . S
C1481 C1473 1.433 . S
C1481 N1483 1.384 . S
N1482 C1478 1.427 . S
N1482 C1479 1.384 . S
N1483 C1475 1.427 . S
N1483 C1481 1.384 . S
H1484 C1490 0.930 . S
H1485 C1494 0.930 . S
H1486 C1499 0.929 . S
H1487 C1497 0.929 . S
H1488 C1492 0.929 . S
H1489 C1498 0.929 . S
C1490 H1484 0.930 . S
C1490 C1491 1.367 . S
C1490 C1498 1.378 . S
C1491 C1490 1.367 . S
C1491 C1499 1.433 . S
C1492 H1488 0.929 . S
C1492 C1494 1.378 . S
C1492 C1496 1.350 . S
C1493 C1496 1.463 . S
C1493 C1498 1.350 . S
C1493 N1501 1.427 . S
C1494 H1485 0.930 . S
C1494 C1492 1.378 . S
C1494 C1495 1.367 . S
C1495 C1494 1.367 . S
C1495 C1497 1.433 . S
C1496 C1492 1.350 . S
C1496 C1493 1.463 . S
C1496 N1500 1.427 . S
C1497 H1487 0.929 . S
C1497 C1495 1.433 . S
C1497 N1500 1.384 . S
C1498 H1489 0.929 . S
C1498 C1490 1.378 . S
C1498 C1493 1.350 . S
C1499 H1486 0.929 . S
C1499 C1491 1.433 . S
C1499 N1501 1.384 . S
N1500 C1496 1.427 . S
N1500 C1497 1.384 . S
N1501 C1493 1.427 . S
N1501 C1499 1.384 . S
H1502 C1508 0.930 1_655 S
H1503 C1512 0.930 . S
H1504 C1517 0.929 . S
H1505 C1515 0.929 1_655 S
H1506 C1510 0.929 . S
H1507 C1516 0.929 1_655 S
C1508 H1502 0.930 1_455 S
C1508 C1509 1.367 . S
C1508 C1516 1.378 . S
C1509 C1508 1.367 . S
C1509 C1517 1.433 . S
C1510 H1506 0.929 . S
C1510 C1512 1.378 . S
C1510 C1514 1.350 . S
C1511 C1514 1.463 . S
C1511 C1516 1.350 . S
C1511 N1519 1.427 . S
C1512 H1503 0.930 . S
C1512 C1510 1.378 . S
C1512 C1513 1.367 . S
C1513 C1512 1.367 . S
C1513 C1515 1.433 . S
C1514 C1510 1.350 . S
C1514 C1511 1.463 . S
C1514 N1518 1.427 . S
C1515 H1505 0.929 1_455 S
C1515 C1513 1.433 . S
C1515 N1518 1.384 . S
C1516 H1507 0.929 1_455 S
C1516 C1508 1.378 . S
C1516 C1511 1.350 . S
C1517 H1504 0.929 . S
C1517 C1509 1.433 . S
C1517 N1519 1.384 . S
N1518 C1514 1.427 . S
N1518 C1515 1.384 . S
N1519 C1511 1.427 . S
N1519 C1517 1.384 . S
H1520 C1526 0.930 . S
H1521 C1530 0.930 . S
H1522 C1535 0.929 . S
H1523 C1533 0.929 . S
H1524 C1528 0.929 . S
H1525 C1534 0.929 . S
C1526 H1520 0.930 . S
C1526 C1527 1.367 . S
C1526 C1534 1.378 . S
C1527 C1526 1.367 . S
C1527 C1535 1.433 . S
C1528 H1524 0.929 . S
C1528 C1530 1.378 . S
C1528 C1532 1.350 . S
C1529 C1532 1.463 . S
C1529 C1534 1.350 . S
C1529 N1537 1.427 . S
C1530 H1521 0.930 . S
C1530 C1528 1.378 . S
C1530 C1531 1.367 . S
C1531 C1530 1.367 . S
C1531 C1533 1.433 . S
C1532 C1528 1.350 . S
C1532 C1529 1.463 . S
C1532 N1536 1.427 . S
C1533 H1523 0.929 . S
C1533 C1531 1.433 . S
C1533 N1536 1.384 . S
C1534 H1525 0.929 . S
C1534 C1526 1.378 . S
C1534 C1529 1.350 . S
C1535 H1522 0.929 . S
C1535 C1527 1.433 . S
C1535 N1537 1.384 . S
N1536 C1532 1.427 . S
N1536 C1533 1.384 . S
N1537 C1529 1.427 . S
N1537 C1535 1.384 . S
H1538 C1544 0.930 . S
H1539 C1548 0.930 . S
H1540 C1553 0.929 . S
H1541 C1551 0.929 . S
H1542 C1546 0.929 . S
H1543 C1552 0.929 . S
C1544 H1538 0.930 . S
C1544 C1545 1.367 . S
C1544 C1552 1.378 . S
C1545 C1544 1.367 . S
C1545 C1553 1.433 . S
C1546 H1542 0.929 . S
C1546 C1548 1.378 . S
C1546 C1550 1.350 . S
C1547 C1550 1.463 . S
C1547 C1552 1.350 . S
C1547 N1555 1.427 . S
C1548 H1539 0.930 . S
C1548 C1546 1.378 . S
C1548 C1549 1.367 . S
C1549 C1548 1.367 . S
C1549 C1551 1.433 . S
C1550 C1546 1.350 . S
C1550 C1547 1.463 . S
C1550 N1554 1.427 . S
C1551 H1541 0.929 . S
C1551 C1549 1.433 . S
C1551 N1554 1.384 . S
C1552 H1543 0.929 . S
C1552 C1544 1.378 . S
C1552 C1547 1.350 . S
C1553 H1540 0.929 . S
C1553 C1545 1.433 . S
C1553 N1555 1.384 . S
N1554 C1550 1.427 . S
N1554 C1551 1.384 . S
N1555 C1547 1.427 . S
N1555 C1553 1.384 . S
H1556 C1562 0.930 . S
H1557 C1566 0.930 . S
H1558 C1571 0.929 . S
H1559 C1569 0.929 . S
H1560 C1564 0.929 . S
H1561 C1570 0.929 . S
C1562 H1556 0.930 . S
C1562 C1563 1.367 . S
C1562 C1570 1.378 . S
C1563 C1562 1.367 . S
C1563 C1571 1.433 . S
C1564 H1560 0.929 . S
C1564 C1566 1.378 . S
C1564 C1568 1.350 . S
C1565 C1568 1.463 . S
C1565 C1570 1.350 . S
C1565 N1573 1.427 . S
C1566 H1557 0.930 . S
C1566 C1564 1.378 . S
C1566 C1567 1.367 . S
C1567 C1566 1.367 . S
C1567 C1569 1.433 . S
C1568 C1564 1.350 . S
C1568 C1565 1.463 . S
C1568 N1572 1.427 . S
C1569 H1559 0.929 . S
C1569 C1567 1.433 . S
C1569 N1572 1.384 . S
C1570 H1561 0.929 . S
C1570 C1562 1.378 . S
C1570 C1565 1.350 . S
C1571 H1558 0.929 . S
C1571 C1563 1.433 . S
C1571 N1573 1.384 . S
N1572 C1568 1.427 . S
N1572 C1569 1.384 . S
N1573 C1565 1.427 . S
N1573 C1571 1.384 . S
H1574 C1580 0.930 . S
H1575 C1584 0.930 . S
H1576 C1589 0.929 . S
H1577 C1587 0.929 . S
H1578 C1582 0.929 . S
H1579 C1588 0.929 . S
C1580 H1574 0.930 . S
C1580 C1581 1.367 . S
C1580 C1588 1.378 . S
C1581 C1580 1.367 . S
C1581 C1589 1.433 . S
C1582 H1578 0.929 . S
C1582 C1584 1.378 . S
C1582 C1586 1.350 . S
C1583 C1586 1.463 . S
C1583 C1588 1.350 . S
C1583 N1591 1.427 . S
C1584 H1575 0.930 . S
C1584 C1582 1.378 . S
C1584 C1585 1.367 . S
C1585 C1584 1.367 . S
C1585 C1587 1.433 . S
C1586 C1582 1.350 . S
C1586 C1583 1.463 . S
C1586 N1590 1.427 . S
C1587 H1577 0.929 . S
C1587 C1585 1.433 . S
C1587 N1590 1.384 . S
C1588 H1579 0.929 . S
C1588 C1580 1.378 . S
C1588 C1583 1.350 . S
C1589 H1576 0.929 . S
C1589 C1581 1.433 . S
C1589 N1591 1.384 . S
N1590 C1586 1.427 . S
N1590 C1587 1.384 . S
N1591 C1583 1.427 . S
N1591 C1589 1.384 . S
H1592 C1598 0.930 . S
H1593 C1602 0.930 . S
H1594 C1607 0.929 . S
H1595 C1605 0.929 . S
H1596 C1600 0.929 . S
H1597 C1606 0.929 . S
C1598 H1592 0.930 . S
C1598 C1599 1.367 . S
C1598 C1606 1.378 . S
C1599 C1598 1.367 . S
C1599 C1607 1.433 . S
C1600 H1596 0.929 . S
C1600 C1602 1.378 . S
C1600 C1604 1.350 . S
C1601 C1604 1.463 . S
C1601 C1606 1.350 . S
C1601 N1609 1.427 . S
C1602 H1593 0.930 . S
C1602 C1600 1.378 . S
C1602 C1603 1.367 . S
C1603 C1602 1.367 . S
C1603 C1605 1.433 . S
C1604 C1600 1.350 . S
C1604 C1601 1.463 . S
C1604 N1608 1.427 . S
C1605 H1595 0.929 . S
C1605 C1603 1.433 . S
C1605 N1608 1.384 . S
C1606 H1597 0.929 . S
C1606 C1598 1.378 . S
C1606 C1601 1.350 . S
C1607 H1594 0.929 . S
C1607 C1599 1.433 . S
C1607 N1609 1.384 . S
N1608 C1604 1.427 . S
N1608 C1605 1.384 . S
N1609 C1601 1.427 . S
N1609 C1607 1.384 . S
H1610 C1616 0.930 . S
H1611 C1620 0.930 . S
H1612 C1625 0.929 . S
H1613 C1623 0.929 . S
H1614 C1618 0.929 . S
H1615 C1624 0.929 . S
C1616 H1610 0.930 . S
C1616 C1617 1.367 . S
C1616 C1624 1.378 . S
C1617 C1616 1.367 . S
C1617 C1625 1.433 . S
C1618 H1614 0.929 . S
C1618 C1620 1.378 . S
C1618 C1622 1.350 . S
C1619 C1622 1.463 . S
C1619 C1624 1.350 . S
C1619 N1627 1.427 . S
C1620 H1611 0.930 . S
C1620 C1618 1.378 . S
C1620 C1621 1.367 . S
C1621 C1620 1.367 . S
C1621 C1623 1.433 . S
C1622 C1618 1.350 . S
C1622 C1619 1.463 . S
C1622 N1626 1.427 . S
C1623 H1613 0.929 . S
C1623 C1621 1.433 . S
C1623 N1626 1.384 . S
C1624 H1615 0.929 . S
C1624 C1616 1.378 . S
C1624 C1619 1.350 . S
C1625 H1612 0.929 . S
C1625 C1617 1.433 . S
C1625 N1627 1.384 . S
N1626 C1622 1.427 . S
N1626 C1623 1.384 . S
N1627 C1619 1.427 . S
N1627 C1625 1.384 . S
H1628 C1634 0.930 . S
H1629 C1638 0.930 . S
H1630 C1643 0.929 . S
H1631 C1641 0.929 . S
H1632 C1636 0.929 . S
H1633 C1642 0.929 . S
C1634 H1628 0.930 . S
C1634 C1635 1.367 . S
C1634 C1642 1.378 . S
C1635 C1634 1.367 . S
C1635 C1643 1.433 . S
C1636 H1632 0.929 . S
C1636 C1638 1.378 . S
C1636 C1640 1.350 . S
C1637 C1640 1.463 . S
C1637 C1642 1.350 . S
C1637 N1645 1.427 . S
C1638 H1629 0.930 . S
C1638 C1636 1.378 . S
C1638 C1639 1.367 . S
C1639 C1638 1.367 . S
C1639 C1641 1.433 . S
C1640 C1636 1.350 . S
C1640 C1637 1.463 . S
C1640 N1644 1.427 . S
C1641 H1631 0.929 . S
C1641 C1639 1.433 . S
C1641 N1644 1.384 . S
C1642 H1633 0.929 . S
C1642 C1634 1.378 . S
C1642 C1637 1.350 . S
C1643 H1630 0.929 . S
C1643 C1635 1.433 . S
C1643 N1645 1.384 . S
N1644 C1640 1.427 . S
N1644 C1641 1.384 . S
N1645 C1637 1.427 . S
N1645 C1643 1.384 . S
H1646 C1652 0.930 . S
H1647 C1656 0.930 . S
H1648 C1661 0.929 . S
H1649 C1659 0.929 . S
H1650 C1654 0.929 . S
H1651 C1660 0.929 . S
C1652 H1646 0.930 . S
C1652 C1653 1.367 . S
C1652 C1660 1.378 . S
C1653 C1652 1.367 . S
C1653 C1661 1.433 . S
C1654 H1650 0.929 . S
C1654 C1656 1.378 . S
C1654 C1658 1.350 . S
C1655 C1658 1.463 . S
C1655 C1660 1.350 . S
C1655 N1663 1.427 . S
C1656 H1647 0.930 . S
C1656 C1654 1.378 . S
C1656 C1657 1.367 . S
C1657 C1656 1.367 . S
C1657 C1659 1.433 . S
C1658 C1654 1.350 . S
C1658 C1655 1.463 . S
C1658 N1662 1.427 . S
C1659 H1649 0.929 . S
C1659 C1657 1.433 . S
C1659 N1662 1.384 . S
C1660 H1651 0.929 . S
C1660 C1652 1.378 . S
C1660 C1655 1.350 . S
C1661 H1648 0.929 . S
C1661 C1653 1.433 . S
C1661 N1663 1.384 . S
N1662 C1658 1.427 . S
N1662 C1659 1.384 . S
N1663 C1655 1.427 . S
N1663 C1661 1.384 . S
H1664 C1670 0.930 . S
H1665 C1674 0.930 . S
H1666 C1679 0.929 . S
H1667 C1677 0.929 . S
H1668 C1672 0.929 . S
H1669 C1678 0.929 . S
C1670 H1664 0.930 . S
C1670 C1671 1.367 . S
C1670 C1678 1.378 . S
C1671 C1670 1.367 . S
C1671 C1679 1.433 . S
C1672 H1668 0.929 . S
C1672 C1674 1.378 . S
C1672 C1676 1.350 . S
C1673 C1676 1.463 . S
C1673 C1678 1.350 . S
C1673 N1681 1.427 . S
C1674 H1665 0.930 . S
C1674 C1672 1.378 . S
C1674 C1675 1.367 . S
C1675 C1674 1.367 . S
C1675 C1677 1.433 . S
C1676 C1672 1.350 . S
C1676 C1673 1.463 . S
C1676 N1680 1.427 . S
C1677 H1667 0.929 . S
C1677 C1675 1.433 . S
C1677 N1680 1.384 . S
C1678 H1669 0.929 . S
C1678 C1670 1.378 . S
C1678 C1673 1.350 . S
C1679 H1666 0.929 . S
C1679 C1671 1.433 . S
C1679 N1681 1.384 . S
N1680 C1676 1.427 . S
N1680 C1677 1.384 . S
N1681 C1673 1.427 . S
N1681 C1679 1.384 . S
H1682 C1688 0.930 . S
H1683 C1692 0.930 . S
H1684 C1697 0.929 . S
H1685 C1695 0.929 . S
H1686 C1690 0.929 . S
H1687 C1696 0.929 . S
C1688 H1682 0.930 . S
C1688 C1689 1.367 . S
C1688 C1696 1.378 . S
C1689 C1688 1.367 . S
C1689 C1697 1.433 . S
C1690 H1686 0.929 . S
C1690 C1692 1.378 . S
C1690 C1694 1.350 . S
C1691 C1694 1.463 . S
C1691 C1696 1.350 . S
C1691 N1699 1.427 . S
C1692 H1683 0.930 . S
C1692 C1690 1.378 . S
C1692 C1693 1.367 . S
C1693 C1692 1.367 . S
C1693 C1695 1.433 . S
C1694 C1690 1.350 . S
C1694 C1691 1.463 . S
C1694 N1698 1.427 . S
C1695 H1685 0.929 . S
C1695 C1693 1.433 . S
C1695 N1698 1.384 . S
C1696 H1687 0.929 . S
C1696 C1688 1.378 . S
C1696 C1691 1.350 . S
C1697 H1684 0.929 . S
C1697 C1689 1.433 . S
C1697 N1699 1.384 . S
N1698 C1694 1.427 . S
N1698 C1695 1.384 . S
N1699 C1691 1.427 . S
N1699 C1697 1.384 . S
H1700 C1706 0.930 . S
H1701 C1710 0.930 . S
H1702 C1715 0.929 . S
H1703 C1713 0.929 . S
H1704 C1708 0.929 . S
H1705 C1714 0.929 . S
C1706 H1700 0.930 . S
C1706 C1707 1.367 . S
C1706 C1714 1.378 . S
C1707 C1706 1.367 . S
C1707 C1715 1.433 . S
C1708 H1704 0.929 . S
C1708 C1710 1.378 . S
C1708 C1712 1.350 . S
C1709 C1712 1.463 . S
C1709 C1714 1.350 . S
C1709 N1717 1.427 . S
C1710 H1701 0.930 . S
C1710 C1708 1.378 . S
C1710 C1711 1.367 . S
C1711 C1710 1.367 . S
C1711 C1713 1.433 . S
C1712 C1708 1.350 . S
C1712 C1709 1.463 . S
C1712 N1716 1.427 . S
C1713 H1703 0.929 . S
C1713 C1711 1.433 . S
C1713 N1716 1.384 . S
C1714 H1705 0.929 . S
C1714 C1706 1.378 . S
C1714 C1709 1.350 . S
C1715 H1702 0.929 . S
C1715 C1707 1.433 . S
C1715 N1717 1.384 . S
N1716 C1712 1.427 . S
N1716 C1713 1.384 . S
N1717 C1709 1.427 . S
N1717 C1715 1.384 . S
H1718 C1724 0.930 . S
H1719 C1728 0.930 . S
H1720 C1733 0.929 . S
H1721 C1731 0.929 . S
H1722 C1726 0.929 . S
H1723 C1732 0.929 . S
C1724 H1718 0.930 . S
C1724 C1725 1.367 . S
C1724 C1732 1.378 . S
C1725 C1724 1.367 . S
C1725 C1733 1.433 . S
C1726 H1722 0.929 . S
C1726 C1728 1.378 . S
C1726 C1730 1.350 . S
C1727 C1730 1.463 . S
C1727 C1732 1.350 . S
C1727 N1735 1.427 . S
C1728 H1719 0.930 . S
C1728 C1726 1.378 . S
C1728 C1729 1.367 . S
C1729 C1728 1.367 . S
C1729 C1731 1.433 . S
C1730 C1726 1.350 . S
C1730 C1727 1.463 . S
C1730 N1734 1.427 . S
C1731 H1721 0.929 . S
C1731 C1729 1.433 . S
C1731 N1734 1.384 . S
C1732 H1723 0.929 . S
C1732 C1724 1.378 . S
C1732 C1727 1.350 . S
C1733 H1720 0.929 . S
C1733 C1725 1.433 . S
C1733 N1735 1.384 . S
N1734 C1730 1.427 . S
N1734 C1731 1.384 . S
N1735 C1727 1.427 . S
N1735 C1733 1.384 . S
H1736 C1742 0.930 . S
H1737 C1746 0.930 . S
H1738 C1751 0.929 . S
H1739 C1749 0.929 . S
H1740 C1744 0.929 . S
H1741 C1750 0.929 . S
C1742 H1736 0.930 . S
C1742 C1743 1.367 . S
C1742 C1750 1.378 . S
C1743 C1742 1.367 . S
C1743 C1751 1.433 . S
C1744 H1740 0.929 . S
C1744 C1746 1.378 . S
C1744 C1748 1.350 . S
C1745 C1748 1.463 . S
C1745 C1750 1.350 . S
C1745 N1753 1.427 . S
C1746 H1737 0.930 . S
C1746 C1744 1.378 . S
C1746 C1747 1.367 . S
C1747 C1746 1.367 . S
C1747 C1749 1.433 . S
C1748 C1744 1.350 . S
C1748 C1745 1.463 . S
C1748 N1752 1.427 . S
C1749 H1739 0.929 . S
C1749 C1747 1.433 . S
C1749 N1752 1.384 . S
C1750 H1741 0.929 . S
C1750 C1742 1.378 . S
C1750 C1745 1.350 . S
C1751 H1738 0.929 . S
C1751 C1743 1.433 . S
C1751 N1753 1.384 . S
N1752 C1748 1.427 . S
N1752 C1749 1.384 . S
N1753 C1745 1.427 . S
N1753 C1751 1.384 . S
H1754 C1760 0.930 . S
H1755 C1764 0.930 . S
H1756 C1769 0.929 . S
H1757 C1767 0.929 . S
H1758 C1762 0.929 . S
H1759 C1768 0.929 . S
C1760 H1754 0.930 . S
C1760 C1761 1.367 . S
C1760 C1768 1.378 . S
C1761 C1760 1.367 . S
C1761 C1769 1.433 . S
C1762 H1758 0.929 . S
C1762 C1764 1.378 . S
C1762 C1766 1.350 . S
C1763 C1766 1.463 . S
C1763 C1768 1.350 . S
C1763 N1771 1.427 . S
C1764 H1755 0.930 . S
C1764 C1762 1.378 . S
C1764 C1765 1.367 . S
C1765 C1764 1.367 . S
C1765 C1767 1.433 . S
C1766 C1762 1.350 . S
C1766 C1763 1.463 . S
C1766 N1770 1.427 . S
C1767 H1757 0.929 . S
C1767 C1765 1.433 . S
C1767 N1770 1.384 . S
C1768 H1759 0.929 . S
C1768 C1760 1.378 . S
C1768 C1763 1.350 . S
C1769 H1756 0.929 . S
C1769 C1761 1.433 . S
C1769 N1771 1.384 . S
N1770 C1766 1.427 . S
N1770 C1767 1.384 . S
N1771 C1763 1.427 . S
N1771 C1769 1.384 . S
H1772 C1778 0.930 . S
H1773 C1782 0.930 . S
H1774 C1787 0.929 . S
H1775 C1785 0.929 . S
H1776 C1780 0.929 . S
H1777 C1786 0.929 . S
C1778 H1772 0.930 . S
C1778 C1779 1.367 . S
C1778 C1786 1.378 . S
C1779 C1778 1.367 . S
C1779 C1787 1.433 . S
C1780 H1776 0.929 . S
C1780 C1782 1.378 . S
C1780 C1784 1.350 . S
C1781 C1784 1.463 . S
C1781 C1786 1.350 . S
C1781 N1789 1.427 . S
C1782 H1773 0.930 . S
C1782 C1780 1.378 . S
C1782 C1783 1.367 . S
C1783 C1782 1.367 . S
C1783 C1785 1.433 . S
C1784 C1780 1.350 . S
C1784 C1781 1.463 . S
C1784 N1788 1.427 . S
C1785 H1775 0.929 . S
C1785 C1783 1.433 . S
C1785 N1788 1.384 . S
C1786 H1777 0.929 . S
C1786 C1778 1.378 . S
C1786 C1781 1.350 . S
C1787 H1774 0.929 . S
C1787 C1779 1.433 . S
C1787 N1789 1.384 . S
N1788 C1784 1.427 . S
N1788 C1785 1.384 . S
N1789 C1781 1.427 . S
N1789 C1787 1.384 . S
H1790 C1796 0.930 . S
H1791 C1800 0.930 . S
H1792 C1805 0.929 . S
H1793 C1803 0.929 . S
H1794 C1798 0.929 . S
H1795 C1804 0.929 . S
C1796 H1790 0.930 . S
C1796 C1797 1.367 . S
C1796 C1804 1.378 . S
C1797 C1796 1.367 . S
C1797 C1805 1.433 . S
C1798 H1794 0.929 . S
C1798 C1800 1.378 . S
C1798 C1802 1.350 . S
C1799 C1802 1.463 . S
C1799 C1804 1.350 . S
C1799 N1807 1.427 . S
C1800 H1791 0.930 . S
C1800 C1798 1.378 . S
C1800 C1801 1.367 . S
C1801 C1800 1.367 . S
C1801 C1803 1.433 . S
C1802 C1798 1.350 . S
C1802 C1799 1.463 . S
C1802 N1806 1.427 . S
C1803 H1793 0.929 . S
C1803 C1801 1.433 . S
C1803 N1806 1.384 . S
C1804 H1795 0.929 . S
C1804 C1796 1.378 . S
C1804 C1799 1.350 . S
C1805 H1792 0.929 . S
C1805 C1797 1.433 . S
C1805 N1807 1.384 . S
N1806 C1802 1.427 . S
N1806 C1803 1.384 . S
N1807 C1799 1.427 . S
N1807 C1805 1.384 . S
H1808 C1814 0.930 . S
H1809 C1818 0.930 . S
H1810 C1823 0.929 . S
H1811 C1821 0.929 . S
H1812 C1816 0.929 . S
H1813 C1822 0.929 . S
C1814 H1808 0.930 . S
C1814 C1815 1.367 . S
C1814 C1822 1.378 . S
C1815 C1814 1.367 . S
C1815 C1823 1.433 . S
C1816 H1812 0.929 . S
C1816 C1818 1.378 . S
C1816 C1820 1.350 . S
C1817 C1820 1.463 . S
C1817 C1822 1.350 . S
C1817 N1825 1.427 . S
C1818 H1809 0.930 . S
C1818 C1816 1.378 . S
C1818 C1819 1.367 . S
C1819 C1818 1.367 . S
C1819 C1821 1.433 . S
C1820 C1816 1.350 . S
C1820 C1817 1.463 . S
C1820 N1824 1.427 . S
C1821 H1811 0.929 . S
C1821 C1819 1.433 . S
C1821 N1824 1.384 . S
C1822 H1813 0.929 . S
C1822 C1814 1.378 . S
C1822 C1817 1.350 . S
C1823 H1810 0.929 . S
C1823 C1815 1.433 . S
C1823 N1825 1.384 . S
N1824 C1820 1.427 . S
N1824 C1821 1.384 . S
N1825 C1817 1.427 . S
N1825 C1823 1.384 . S
H1826 C1832 0.930 1_655 S
H1827 C1836 0.930 . S
H1828 C1841 0.929 . S
H1829 C1839 0.929 . S
H1830 C1834 0.929 . S
H1831 C1840 0.929 . S
C1832 H1826 0.930 1_455 S
C1832 C1833 1.367 . S
C1832 C1840 1.378 . S
C1833 C1832 1.367 . S
C1833 C1841 1.433 . S
C1834 H1830 0.929 . S
C1834 C1836 1.378 . S
C1834 C1838 1.350 . S
C1835 C1838 1.463 . S
C1835 C1840 1.350 . S
C1835 N1843 1.427 . S
C1836 H1827 0.930 . S
C1836 C1834 1.378 . S
C1836 C1837 1.367 . S
C1837 C1836 1.367 . S
C1837 C1839 1.433 . S
C1838 C1834 1.350 . S
C1838 C1835 1.463 . S
C1838 N1842 1.427 . S
C1839 H1829 0.929 . S
C1839 C1837 1.433 . S
C1839 N1842 1.384 . S
C1840 H1831 0.929 . S
C1840 C1832 1.378 . S
C1840 C1835 1.350 . S
C1841 H1828 0.929 . S
C1841 C1833 1.433 . S
C1841 N1843 1.384 . S
N1842 C1838 1.427 . S
N1842 C1839 1.384 . S
N1843 C1835 1.427 . S
N1843 C1841 1.384 . S
H1844 C1850 0.930 . S
H1845 C1854 0.930 . S
H1846 C1859 0.929 . S
H1847 C1857 0.929 . S
H1848 C1852 0.929 . S
H1849 C1858 0.929 . S
C1850 H1844 0.930 . S
C1850 C1851 1.367 . S
C1850 C1858 1.378 . S
C1851 C1850 1.367 . S
C1851 C1859 1.433 . S
C1852 H1848 0.929 . S
C1852 C1854 1.378 . S
C1852 C1856 1.350 . S
C1853 C1856 1.463 . S
C1853 C1858 1.350 . S
C1853 N1861 1.427 . S
C1854 H1845 0.930 . S
C1854 C1852 1.378 . S
C1854 C1855 1.367 . S
C1855 C1854 1.367 . S
C1855 C1857 1.433 . S
C1856 C1852 1.350 . S
C1856 C1853 1.463 . S
C1856 N1860 1.427 . S
C1857 H1847 0.929 . S
C1857 C1855 1.433 . S
C1857 N1860 1.384 . S
C1858 H1849 0.929 . S
C1858 C1850 1.378 . S
C1858 C1853 1.350 . S
C1859 H1846 0.929 . S
C1859 C1851 1.433 . S
C1859 N1861 1.384 . S
N1860 C1856 1.427 . S
N1860 C1857 1.384 . S
N1861 C1853 1.427 . S
N1861 C1859 1.384 . S
H1862 C1868 0.930 . S
H1863 C1872 0.930 . S
H1864 C1877 0.935 . S
H1865 C1875 0.929 . S
H1866 C1870 0.929 . S
H1867 C1876 0.929 . S
C1868 H1862 0.930 . S
C1868 C1869 1.367 . S
C1868 C1876 1.378 . S
C1869 C1868 1.367 . S
C1869 C1877 1.433 . S
C1870 H1866 0.929 . S
C1870 C1872 1.378 . S
C1870 C1874 1.350 . S
C1871 C1874 1.463 . S
C1871 C1876 1.350 . S
C1871 N1879 1.427 . S
C1872 H1863 0.930 . S
C1872 C1870 1.378 . S
C1872 C1873 1.367 . S
C1873 C1872 1.367 . S
C1873 C1875 1.433 . S
C1874 C1870 1.350 . S
C1874 C1871 1.463 . S
C1874 N1878 1.427 . S
C1875 H1865 0.929 . S
C1875 C1873 1.433 . S
C1875 N1878 1.384 . S
C1876 H1867 0.929 . S
C1876 C1868 1.378 . S
C1876 C1871 1.350 . S
C1877 H1864 0.935 . S
C1877 C1869 1.433 . S
C1877 N1879 1.384 . S
N1878 C1874 1.427 . S
N1878 C1875 1.384 . S
N1879 C1871 1.427 . S
N1879 C1877 1.384 . S
H1880 C1886 0.939 . S
H1881 C1890 0.930 . S
H1882 C1895 0.929 . S
H1883 C1893 0.929 . S
H1884 C1888 0.929 . S
H1885 C1894 0.929 . S
C1886 H1880 0.939 . S
C1886 C1887 1.367 . S
C1886 C1894 1.378 . S
C1887 C1886 1.367 . S
C1887 C1895 1.433 . S
C1888 H1884 0.929 . S
C1888 C1890 1.378 . S
C1888 C1892 1.350 . S
C1889 C1892 1.463 . S
C1889 C1894 1.350 . S
C1889 N1897 1.427 . S
C1890 H1881 0.930 . S
C1890 C1888 1.378 . S
C1890 C1891 1.367 . S
C1891 C1890 1.367 . S
C1891 C1893 1.433 . S
C1892 C1888 1.350 . S
C1892 C1889 1.463 . S
C1892 N1896 1.427 . S
C1893 H1883 0.929 . S
C1893 C1891 1.433 . S
C1893 N1896 1.384 . S
C1894 H1885 0.929 . S
C1894 C1886 1.378 . S
C1894 C1889 1.350 . S
C1895 H1882 0.929 . S
C1895 C1887 1.433 . S
C1895 N1897 1.384 . S
N1896 C1892 1.427 . S
N1896 C1893 1.384 . S
N1897 C1889 1.427 . S
N1897 C1895 1.384 . S
H1898 C1904 0.930 . S
H1899 C1908 0.930 . S
H1900 C1913 0.929 . S
H1901 C1911 0.929 . S
H1902 C1906 0.929 . S
H1903 C1912 0.929 . S
C1904 H1898 0.930 . S
C1904 C1905 1.367 . S
C1904 C1912 1.378 . S
C1905 C1904 1.367 . S
C1905 C1913 1.433 . S
C1906 H1902 0.929 . S
C1906 C1908 1.378 . S
C1906 C1910 1.350 . S
C1907 C1910 1.463 . S
C1907 C1912 1.350 . S
C1907 N1915 1.427 . S
C1908 H1899 0.930 . S
C1908 C1906 1.378 . S
C1908 C1909 1.367 . S
C1909 C1908 1.367 . S
C1909 C1911 1.433 . S
C1910 C1906 1.350 . S
C1910 C1907 1.463 . S
C1910 N1914 1.427 . S
C1911 H1901 0.929 . S
C1911 C1909 1.433 . S
C1911 N1914 1.384 . S
C1912 H1903 0.929 . S
C1912 C1904 1.378 . S
C1912 C1907 1.350 . S
C1913 H1900 0.929 . S
C1913 C1905 1.433 . S
C1913 N1915 1.384 . S
N1914 C1910 1.427 . S
N1914 C1911 1.384 . S
N1915 C1907 1.427 . S
N1915 C1913 1.384 . S
H1916 C1922 0.930 . S
H1917 C1926 0.930 . S
H1918 C1931 0.929 1_455 S
H1919 C1929 0.929 . S
H1920 C1924 0.929 . S
H1921 C1930 0.929 . S
C1922 H1916 0.930 . S
C1922 C1923 1.367 . S
C1922 C1930 1.378 . S
C1923 C1922 1.367 . S
C1923 C1931 1.433 . S
C1924 H1920 0.929 . S
C1924 C1926 1.378 . S
C1924 C1928 1.350 . S
C1925 C1928 1.463 . S
C1925 C1930 1.350 . S
C1925 N1933 1.427 . S
C1926 H1917 0.930 . S
C1926 C1924 1.378 . S
C1926 C1927 1.367 . S
C1927 C1926 1.367 . S
C1927 C1929 1.433 . S
C1928 C1924 1.350 . S
C1928 C1925 1.463 . S
C1928 N1932 1.427 . S
C1929 H1919 0.929 . S
C1929 C1927 1.433 . S
C1929 N1932 1.384 . S
C1930 H1921 0.929 . S
C1930 C1922 1.378 . S
C1930 C1925 1.350 . S
C1931 H1918 0.929 1_655 S
C1931 C1923 1.433 . S
C1931 N1933 1.384 . S
N1932 C1928 1.427 . S
N1932 C1929 1.384 . S
N1933 C1925 1.427 . S
N1933 C1931 1.384 . S
H1934 C1940 0.930 . S
H1935 C1944 0.930 . S
H1936 C1949 0.929 . S
H1937 C1947 0.929 . S
H1938 C1942 0.929 . S
H1939 C1948 0.929 . S
C1940 H1934 0.930 . S
C1940 C1941 1.367 . S
C1940 C1948 1.378 . S
C1941 C1940 1.367 . S
C1941 C1949 1.433 . S
C1942 H1938 0.929 . S
C1942 C1944 1.378 . S
C1942 C1946 1.350 . S
C1943 C1946 1.463 . S
C1943 C1948 1.350 . S
C1943 N1951 1.427 . S
C1944 H1935 0.930 . S
C1944 C1942 1.378 . S
C1944 C1945 1.367 . S
C1945 C1944 1.367 . S
C1945 C1947 1.433 . S
C1946 C1942 1.350 . S
C1946 C1943 1.463 . S
C1946 N1950 1.427 . S
C1947 H1937 0.929 . S
C1947 C1945 1.433 . S
C1947 N1950 1.384 . S
C1948 H1939 0.929 . S
C1948 C1940 1.378 . S
C1948 C1943 1.350 . S
C1949 H1936 0.929 . S
C1949 C1941 1.433 . S
C1949 N1951 1.384 . S
N1950 C1946 1.427 . S
N1950 C1947 1.384 . S
N1951 C1943 1.427 . S
N1951 C1949 1.384 . S
H1952 C1958 0.930 . S
H1953 C1962 0.930 1_655 S
H1954 C1967 0.929 . S
H1955 C1965 0.929 . S
H1956 C1960 0.946 . S
H1957 C1966 0.929 1_565 S
C1958 H1952 0.930 . S
C1958 C1959 1.368 1_556 S
C1958 C1966 1.378 . S
C1959 C1958 1.368 1_554 S
C1959 C1967 1.432 . S
C1960 H1956 0.946 . S
C1960 C1962 1.378 . S
C1960 C1964 1.350 . S
C1961 C1964 1.463 . S
C1961 C1966 1.350 1_565 S
C1961 N1969 1.405 1_566 S
C1962 H1953 0.930 1_455 S
C1962 C1960 1.378 . S
C1962 C1963 1.367 . S
C1963 C1962 1.367 . S
C1963 C1965 1.433 . S
C1964 C1960 1.350 . S
C1964 C1961 1.463 . S
C1964 N1968 1.427 . S
C1965 H1955 0.929 . S
C1965 C1963 1.433 . S
C1965 N1968 1.384 . S
C1966 H1957 0.929 1_545 S
C1966 C1958 1.378 . S
C1966 C1961 1.350 1_545 S
C1967 H1954 0.929 . S
C1967 C1959 1.432 . S
C1967 N1969 1.396 . S
N1968 C1964 1.427 . S
N1968 C1965 1.384 . S
N1969 C1961 1.405 1_544 S
N1969 C1967 1.396 . S
H1970 C1976 0.930 1_554 S
H1971 C1980 0.930 . S
H1972 C1985 0.929 . S
H1973 C1983 0.929 . S
H1974 C1978 0.929 . S
H1975 C1984 0.926 . S
C1976 H1970 0.930 1_556 S
C1976 C1977 1.367 . S
C1976 C1984 1.378 1_556 S
C1977 C1976 1.367 . S
C1977 C1985 1.433 . S
C1978 H1974 0.929 . S
C1978 C1980 1.378 . S
C1978 C1982 1.350 . S
C1979 C1982 1.463 . S
C1979 C1984 1.352 1_556 S
C1979 N1987 1.427 . S
C1980 H1971 0.930 . S
C1980 C1978 1.378 . S
C1980 C1981 1.365 . S
C1981 C1980 1.365 . S
C1981 C1983 1.434 1_556 S
C1982 C1978 1.350 . S
C1982 C1979 1.463 . S
C1982 N1986 1.427 1_556 S
C1983 H1973 0.929 . S
C1983 C1981 1.434 1_554 S
C1983 N1986 1.384 . S
C1984 H1975 0.926 . S
C1984 C1976 1.378 1_554 S
C1984 C1979 1.352 1_554 S
C1985 H1972 0.929 . S
C1985 C1977 1.433 . S
C1985 N1987 1.384 . S
N1986 C1982 1.427 1_554 S
N1986 C1983 1.384 . S
N1987 C1979 1.427 . S
N1987 C1985 1.384 . S
H1988 C1994 0.923 1_655 S
H1989 C1998 0.930 . S
H1990 C2003 0.929 . S
H1991 C2001 0.929 . S
H1992 C1996 0.929 . S
H1993 C2002 0.929 . S
C1994 H1988 0.923 1_455 S
C1994 C1995 1.367 . S
C1994 C2002 1.378 . S
C1995 C1994 1.367 . S
C1995 C2003 1.433 . S
C1996 H1992 0.929 . S
C1996 C1998 1.378 . S
C1996 C2000 1.350 . S
C1997 C2000 1.463 . S
C1997 C2002 1.350 . S
C1997 N2005 1.427 . S
C1998 H1989 0.930 . S
C1998 C1996 1.378 . S
C1998 C1999 1.367 . S
C1999 C1998 1.367 . S
C1999 C2001 1.433 . S
C2000 C1996 1.350 . S
C2000 C1997 1.463 . S
C2000 N2004 1.427 . S
C2001 H1991 0.929 . S
C2001 C1999 1.433 . S
C2001 N2004 1.384 . S
C2002 H1993 0.929 . S
C2002 C1994 1.378 . S
C2002 C1997 1.350 . S
C2003 H1990 0.929 . S
C2003 C1995 1.433 . S
C2003 N2005 1.384 . S
N2004 C2000 1.427 . S
N2004 C2001 1.384 . S
N2005 C1997 1.427 . S
N2005 C2003 1.384 . S
H2006 C2012 0.930 . S
H2007 C2016 0.930 . S
H2008 C2021 0.929 . S
H2009 C2019 0.929 . S
H2010 C2014 0.929 . S
H2011 C2020 0.900 1_565 S
C2012 H2006 0.930 . S
C2012 C2013 1.367 . S
C2012 C2020 1.417 . S
C2013 C2012 1.367 . S
C2013 C2021 1.433 . S
C2014 H2010 0.929 . S
C2014 C2016 1.378 . S
C2014 C2018 1.350 . S
C2015 C2018 1.463 . S
C2015 C2020 1.341 1_565 S
C2015 N2023 1.427 1_565 S
C2016 H2007 0.930 . S
C2016 C2014 1.378 . S
C2016 C2017 1.367 . S
C2017 C2016 1.367 . S
C2017 C2019 1.433 . S
C2018 C2014 1.350 . S
C2018 C2015 1.463 . S
C2018 N2022 1.427 . S
C2019 H2009 0.929 . S
C2019 C2017 1.433 . S
C2019 N2022 1.384 . S
C2020 H2011 0.900 1_545 S
C2020 C2012 1.417 . S
C2020 C2015 1.341 1_545 S
C2021 H2008 0.929 . S
C2021 C2013 1.433 . S
C2021 N2023 1.384 . S
N2022 C2018 1.427 . S
N2022 C2019 1.384 . S
N2023 C2015 1.427 1_545 S
N2023 C2021 1.384 . S
H2024 C2030 0.930 . S
H2025 C2034 0.930 . S
H2026 C2039 0.929 1_455 S
H2027 C2037 0.923 1_556 S
H2028 C2032 0.929 . S
H2029 C2038 0.929 . S
C2030 H2024 0.930 . S
C2030 C2031 1.367 . S
C2030 C2038 1.378 . S
C2031 C2030 1.367 . S
C2031 C2039 1.433 . S
C2032 H2028 0.929 . S
C2032 C2034 1.378 . S
C2032 C2036 1.350 1_565 S
C2033 C2036 1.463 . S
C2033 C2038 1.350 . S
C2033 N2041 1.427 . S
C2034 H2025 0.930 . S
C2034 C2032 1.378 . S
C2034 C2035 1.366 1_554 S
C2035 C2034 1.366 1_556 S
C2035 C2037 1.432 1_556 S
C2036 C2032 1.350 1_545 S
C2036 C2033 1.463 . S
C2036 N2040 1.423 1_545 S
C2037 H2027 0.923 1_554 S
C2037 C2035 1.432 1_554 S
C2037 N2040 1.412 . S
C2038 H2029 0.929 . S
C2038 C2030 1.378 . S
C2038 C2033 1.350 . S
C2039 H2026 0.929 1_655 S
C2039 C2031 1.433 . S
C2039 N2041 1.384 . S
N2040 C2036 1.423 1_565 S
N2040 C2037 1.412 . S
N2041 C2033 1.427 . S
N2041 C2039 1.384 . S
H2042 C2048 0.930 . S
H2043 C2052 0.930 . S
H2044 C2057 0.929 . S
H2045 C2055 0.929 1_556 S
H2046 C2050 0.929 . S
H2047 C2056 0.929 . S
C2048 H2042 0.930 . S
C2048 C2049 1.380 . S
C2048 C2056 1.378 . S
C2049 C2048 1.380 . S
C2049 C2057 1.416 1_556 S
C2050 H2046 0.929 . S
C2050 C2052 1.378 . S
C2050 C2054 1.350 . S
C2051 C2054 1.463 . S
C2051 C2056 1.350 1_554 S
C2051 N2059 1.427 . S
C2052 H2043 0.930 . S
C2052 C2050 1.378 . S
C2052 C2053 1.367 . S
C2053 C2052 1.367 . S
C2053 C2055 1.433 . S
C2054 C2050 1.350 . S
C2054 C2051 1.463 . S
C2054 N2058 1.391 1_554 S
C2055 H2045 0.929 1_554 S
C2055 C2053 1.433 . S
C2055 N2058 1.374 1_554 S
C2056 H2047 0.929 . S
C2056 C2048 1.378 . S
C2056 C2051 1.350 1_556 S
C2057 H2044 0.929 . S
C2057 C2049 1.416 1_554 S
C2057 N2059 1.384 . S
N2058 C2054 1.391 1_556 S
N2058 C2055 1.374 1_556 S
N2059 C2051 1.427 . S
N2059 C2057 1.384 . S
H2060 C2066 0.930 . S
H2061 C2070 0.930 . S
H2062 C2075 0.929 . S
H2063 C2073 0.929 . S
H2064 C2068 0.929 . S
H2065 C2074 0.929 . S
C2066 H2060 0.930 . S
C2066 C2067 1.367 . S
C2066 C2074 1.378 . S
C2067 C2066 1.367 . S
C2067 C2075 1.433 . S
C2068 H2064 0.929 . S
C2068 C2070 1.378 . S
C2068 C2072 1.350 . S
C2069 C2072 1.463 . S
C2069 C2074 1.350 . S
C2069 N2077 1.427 . S
C2070 H2061 0.930 . S
C2070 C2068 1.378 . S
C2070 C2071 1.367 . S
C2071 C2070 1.367 . S
C2071 C2073 1.433 . S
C2072 C2068 1.350 . S
C2072 C2069 1.463 . S
C2072 N2076 1.427 . S
C2073 H2063 0.929 . S
C2073 C2071 1.433 . S
C2073 N2076 1.384 . S
C2074 H2065 0.929 . S
C2074 C2066 1.378 . S
C2074 C2069 1.350 . S
C2075 H2062 0.929 . S
C2075 C2067 1.433 . S
C2075 N2077 1.384 . S
N2076 C2072 1.427 . S
N2076 C2073 1.384 . S
N2077 C2069 1.427 . S
N2077 C2075 1.384 . S
H2078 C2084 0.930 . S
H2079 C2088 0.930 . S
H2080 C2093 0.929 . S
H2081 C2091 0.929 . S
H2082 C2086 0.929 . S
H2083 C2092 0.929 . S
C2084 H2078 0.930 . S
C2084 C2085 1.367 . S
C2084 C2092 1.378 . S
C2085 C2084 1.367 . S
C2085 C2093 1.433 . S
C2086 H2082 0.929 . S
C2086 C2088 1.378 . S
C2086 C2090 1.350 1_565 S
C2087 C2090 1.463 . S
C2087 C2092 1.350 . S
C2087 N2095 1.427 . S
C2088 H2079 0.930 . S
C2088 C2086 1.378 . S
C2088 C2089 1.367 . S
C2089 C2088 1.367 . S
C2089 C2091 1.433 . S
C2090 C2086 1.350 1_545 S
C2090 C2087 1.463 . S
C2090 N2094 1.427 1_545 S
C2091 H2081 0.929 . S
C2091 C2089 1.433 . S
C2091 N2094 1.384 . S
C2092 H2083 0.929 . S
C2092 C2084 1.378 . S
C2092 C2087 1.350 . S
C2093 H2080 0.929 . S
C2093 C2085 1.433 . S
C2093 N2095 1.384 . S
N2094 C2090 1.427 1_565 S
N2094 C2091 1.384 . S
N2095 C2087 1.427 . S
N2095 C2093 1.384 . S
H2096 C2102 0.930 . S
H2097 C2106 0.930 . S
H2098 C2111 0.929 . S
H2099 C2109 0.929 . S
H2100 C2104 0.929 . S
H2101 C2110 0.929 . S
C2102 H2096 0.930 . S
C2102 C2103 1.367 . S
C2102 C2110 1.378 . S
C2103 C2102 1.367 . S
C2103 C2111 1.433 . S
C2104 H2100 0.929 . S
C2104 C2106 1.378 . S
C2104 C2108 1.350 . S
C2105 C2108 1.463 . S
C2105 C2110 1.350 . S
C2105 N2113 1.427 . S
C2106 H2097 0.930 . S
C2106 C2104 1.378 . S
C2106 C2107 1.367 . S
C2107 C2106 1.367 . S
C2107 C2109 1.433 . S
C2108 C2104 1.350 . S
C2108 C2105 1.463 . S
C2108 N2112 1.427 . S
C2109 H2099 0.929 . S
C2109 C2107 1.433 . S
C2109 N2112 1.384 . S
C2110 H2101 0.929 . S
C2110 C2102 1.378 . S
C2110 C2105 1.350 . S
C2111 H2098 0.929 . S
C2111 C2103 1.433 . S
C2111 N2113 1.384 . S
N2112 C2108 1.427 . S
N2112 C2109 1.384 . S
N2113 C2105 1.427 . S
N2113 C2111 1.384 . S
H2114 C2120 0.930 . S
H2115 C2124 0.930 . S
H2116 C2129 0.929 . S
H2117 C2127 0.929 . S
H2118 C2122 0.929 . S
H2119 C2128 0.929 . S
C2120 H2114 0.930 . S
C2120 C2121 1.367 . S
C2120 C2128 1.378 . S
C2121 C2120 1.367 . S
C2121 C2129 1.433 . S
C2122 H2118 0.929 . S
C2122 C2124 1.378 . S
C2122 C2126 1.350 . S
C2123 C2126 1.463 . S
C2123 C2128 1.350 . S
C2123 N2131 1.427 . S
C2124 H2115 0.930 . S
C2124 C2122 1.378 . S
C2124 C2125 1.367 . S
C2125 C2124 1.367 . S
C2125 C2127 1.433 . S
C2126 C2122 1.350 . S
C2126 C2123 1.463 . S
C2126 N2130 1.427 . S
C2127 H2117 0.929 . S
C2127 C2125 1.433 . S
C2127 N2130 1.384 . S
C2128 H2119 0.929 . S
C2128 C2120 1.378 . S
C2128 C2123 1.350 . S
C2129 H2116 0.929 . S
C2129 C2121 1.433 . S
C2129 N2131 1.384 . S
N2130 C2126 1.427 . S
N2130 C2127 1.384 . S
N2131 C2123 1.427 . S
N2131 C2129 1.384 . S
H2132 C2138 0.930 . S
H2133 C2142 0.930 . S
H2134 C2147 0.929 . S
H2135 C2145 0.929 . S
H2136 C2140 0.929 . S
H2137 C2146 0.929 . S
C2138 H2132 0.930 . S
C2138 C2139 1.367 . S
C2138 C2146 1.378 . S
C2139 C2138 1.367 . S
C2139 C2147 1.433 . S
C2140 H2136 0.929 . S
C2140 C2142 1.378 . S
C2140 C2144 1.350 . S
C2141 C2144 1.463 . S
C2141 C2146 1.350 . S
C2141 N2149 1.427 . S
C2142 H2133 0.930 . S
C2142 C2140 1.378 . S
C2142 C2143 1.367 . S
C2143 C2142 1.367 . S
C2143 C2145 1.433 . S
C2144 C2140 1.350 . S
C2144 C2141 1.463 . S
C2144 N2148 1.427 . S
C2145 H2135 0.929 . S
C2145 C2143 1.433 . S
C2145 N2148 1.384 . S
C2146 H2137 0.929 . S
C2146 C2138 1.378 . S
C2146 C2141 1.350 . S
C2147 H2134 0.929 . S
C2147 C2139 1.433 . S
C2147 N2149 1.384 . S
N2148 C2144 1.427 . S
N2148 C2145 1.384 . S
N2149 C2141 1.427 . S
N2149 C2147 1.384 . S
H2150 C2156 0.930 . S
H2151 C2160 0.930 . S
H2152 C2165 0.929 . S
H2153 C2163 0.929 . S
H2154 C2158 0.929 . S
H2155 C2164 0.929 . S
C2156 H2150 0.930 . S
C2156 C2157 1.367 . S
C2156 C2164 1.378 . S
C2157 C2156 1.367 . S
C2157 C2165 1.433 . S
C2158 H2154 0.929 . S
C2158 C2160 1.378 . S
C2158 C2162 1.350 . S
C2159 C2162 1.463 . S
C2159 C2164 1.350 . S
C2159 N2167 1.427 . S
C2160 H2151 0.930 . S
C2160 C2158 1.378 . S
C2160 C2161 1.367 . S
C2161 C2160 1.367 . S
C2161 C2163 1.433 . S
C2162 C2158 1.350 . S
C2162 C2159 1.463 . S
C2162 N2166 1.427 . S
C2163 H2153 0.929 . S
C2163 C2161 1.433 . S
C2163 N2166 1.384 . S
C2164 H2155 0.929 . S
C2164 C2156 1.378 . S
C2164 C2159 1.350 . S
C2165 H2152 0.929 . S
C2165 C2157 1.433 . S
C2165 N2167 1.384 . S
N2166 C2162 1.427 . S
N2166 C2163 1.384 . S
N2167 C2159 1.427 . S
N2167 C2165 1.384 . S
H2168 C2174 0.930 . S
H2169 C2178 0.930 . S
H2170 C2183 0.929 . S
H2171 C2181 0.929 . S
H2172 C2176 0.929 . S
H2173 C2182 0.929 . S
C2174 H2168 0.930 . S
C2174 C2175 1.367 . S
C2174 C2182 1.378 . S
C2175 C2174 1.367 . S
C2175 C2183 1.433 . S
C2176 H2172 0.929 . S
C2176 C2178 1.378 . S
C2176 C2180 1.350 . S
C2177 C2180 1.463 . S
C2177 C2182 1.350 . S
C2177 N2185 1.427 . S
C2178 H2169 0.930 . S
C2178 C2176 1.378 . S
C2178 C2179 1.367 . S
C2179 C2178 1.367 . S
C2179 C2181 1.433 . S
C2180 C2176 1.350 . S
C2180 C2177 1.463 . S
C2180 N2184 1.427 . S
C2181 H2171 0.929 . S
C2181 C2179 1.433 . S
C2181 N2184 1.384 . S
C2182 H2173 0.929 . S
C2182 C2174 1.378 . S
C2182 C2177 1.350 . S
C2183 H2170 0.929 . S
C2183 C2175 1.433 . S
C2183 N2185 1.384 . S
N2184 C2180 1.427 . S
N2184 C2181 1.384 . S
N2185 C2177 1.427 . S
N2185 C2183 1.384 . S
H2186 C2192 0.930 . S
H2187 C2196 0.930 . S
H2188 C2201 0.929 . S
H2189 C2199 0.929 . S
H2190 C2194 0.929 . S
H2191 C2200 0.929 . S
C2192 H2186 0.930 . S
C2192 C2193 1.367 . S
C2192 C2200 1.378 . S
C2193 C2192 1.367 . S
C2193 C2201 1.433 . S
C2194 H2190 0.929 . S
C2194 C2196 1.378 . S
C2194 C2198 1.350 . S
C2195 C2198 1.463 . S
C2195 C2200 1.350 . S
C2195 N2203 1.427 . S
C2196 H2187 0.930 . S
C2196 C2194 1.378 . S
C2196 C2197 1.367 . S
C2197 C2196 1.367 . S
C2197 C2199 1.433 . S
C2198 C2194 1.350 . S
C2198 C2195 1.463 . S
C2198 N2202 1.427 . S
C2199 H2189 0.929 . S
C2199 C2197 1.433 . S
C2199 N2202 1.384 . S
C2200 H2191 0.929 . S
C2200 C2192 1.378 . S
C2200 C2195 1.350 . S
C2201 H2188 0.929 . S
C2201 C2193 1.433 . S
C2201 N2203 1.384 . S
N2202 C2198 1.427 . S
N2202 C2199 1.384 . S
N2203 C2195 1.427 . S
N2203 C2201 1.384 . S
H2204 C2210 0.930 . S
H2205 C2214 0.930 . S
H2206 C2219 0.929 . S
H2207 C2217 0.929 . S
H2208 C2212 0.929 . S
H2209 C2218 0.929 . S
C2210 H2204 0.930 . S
C2210 C2211 1.367 . S
C2210 C2218 1.378 . S
C2211 C2210 1.367 . S
C2211 C2219 1.433 . S
C2212 H2208 0.929 . S
C2212 C2214 1.378 . S
C2212 C2216 1.350 . S
C2213 C2216 1.463 . S
C2213 C2218 1.350 . S
C2213 N2221 1.427 . S
C2214 H2205 0.930 . S
C2214 C2212 1.378 . S
C2214 C2215 1.367 . S
C2215 C2214 1.367 . S
C2215 C2217 1.433 . S
C2216 C2212 1.350 . S
C2216 C2213 1.463 . S
C2216 N2220 1.427 . S
C2217 H2207 0.929 . S
C2217 C2215 1.433 . S
C2217 N2220 1.384 . S
C2218 H2209 0.929 . S
C2218 C2210 1.378 . S
C2218 C2213 1.350 . S
C2219 H2206 0.929 . S
C2219 C2211 1.433 . S
C2219 N2221 1.384 . S
N2220 C2216 1.427 . S
N2220 C2217 1.384 . S
N2221 C2213 1.427 . S
N2221 C2219 1.384 . S
H2222 C2228 0.930 . S
H2223 C2232 0.930 . S
H2224 C2237 0.929 . S
H2225 C2235 0.929 . S
H2226 C2230 0.929 . S
H2227 C2236 0.929 . S
C2228 H2222 0.930 . S
C2228 C2229 1.367 . S
C2228 C2236 1.378 . S
C2229 C2228 1.367 . S
C2229 C2237 1.433 . S
C2230 H2226 0.929 . S
C2230 C2232 1.378 . S
C2230 C2234 1.350 . S
C2231 C2234 1.463 . S
C2231 C2236 1.350 . S
C2231 N2239 1.427 . S
C2232 H2223 0.930 . S
C2232 C2230 1.378 . S
C2232 C2233 1.367 . S
C2233 C2232 1.367 . S
C2233 C2235 1.433 . S
C2234 C2230 1.350 . S
C2234 C2231 1.463 . S
C2234 N2238 1.427 . S
C2235 H2225 0.929 . S
C2235 C2233 1.433 . S
C2235 N2238 1.384 . S
C2236 H2227 0.929 . S
C2236 C2228 1.378 . S
C2236 C2231 1.350 . S
C2237 H2224 0.929 . S
C2237 C2229 1.433 . S
C2237 N2239 1.384 . S
N2238 C2234 1.427 . S
N2238 C2235 1.384 . S
N2239 C2231 1.427 . S
N2239 C2237 1.384 . S
H2240 C2246 0.930 . S
H2241 C2250 0.930 . S
H2242 C2255 0.929 . S
H2243 C2253 0.929 . S
H2244 C2248 0.929 . S
H2245 C2254 0.929 . S
C2246 H2240 0.930 . S
C2246 C2247 1.367 . S
C2246 C2254 1.378 . S
C2247 C2246 1.367 . S
C2247 C2255 1.433 . S
C2248 H2244 0.929 . S
C2248 C2250 1.378 . S
C2248 C2252 1.350 1_545 S
C2249 C2252 1.463 . S
C2249 C2254 1.350 . S
C2249 N2257 1.427 . S
C2250 H2241 0.930 . S
C2250 C2248 1.378 . S
C2250 C2251 1.367 . S
C2251 C2250 1.367 . S
C2251 C2253 1.433 . S
C2252 C2248 1.350 1_565 S
C2252 C2249 1.463 . S
C2252 N2256 1.427 1_565 S
C2253 H2243 0.929 . S
C2253 C2251 1.433 . S
C2253 N2256 1.384 . S
C2254 H2245 0.929 . S
C2254 C2246 1.378 . S
C2254 C2249 1.350 . S
C2255 H2242 0.929 . S
C2255 C2247 1.433 . S
C2255 N2257 1.384 . S
N2256 C2252 1.427 1_545 S
N2256 C2253 1.384 . S
N2257 C2249 1.427 . S
N2257 C2255 1.384 . S
H2258 C2264 0.930 . S
H2259 C2268 0.930 . S
H2260 C2273 0.929 . S
H2261 C2271 0.929 . S
H2262 C2266 0.929 . S
H2263 C2272 0.929 . S
C2264 H2258 0.930 . S
C2264 C2265 1.367 . S
C2264 C2272 1.378 . S
C2265 C2264 1.367 . S
C2265 C2273 1.433 . S
C2266 H2262 0.929 . S
C2266 C2268 1.378 . S
C2266 C2270 1.350 . S
C2267 C2270 1.463 . S
C2267 C2272 1.350 . S
C2267 N2275 1.427 . S
C2268 H2259 0.930 . S
C2268 C2266 1.378 . S
C2268 C2269 1.367 . S
C2269 C2268 1.367 . S
C2269 C2271 1.433 . S
C2270 C2266 1.350 . S
C2270 C2267 1.463 . S
C2270 N2274 1.427 . S
C2271 H2261 0.929 . S
C2271 C2269 1.433 . S
C2271 N2274 1.384 . S
C2272 H2263 0.929 . S
C2272 C2264 1.378 . S
C2272 C2267 1.350 . S
C2273 H2260 0.929 . S
C2273 C2265 1.433 . S
C2273 N2275 1.384 . S
N2274 C2270 1.427 . S
N2274 C2271 1.384 . S
N2275 C2267 1.427 . S
N2275 C2273 1.384 . S
H2276 C2282 0.930 . S
H2277 C2286 0.930 . S
H2278 C2291 0.929 . S
H2279 C2289 0.929 . S
H2280 C2284 0.929 . S
H2281 C2290 0.929 . S
C2282 H2276 0.930 . S
C2282 C2283 1.367 . S
C2282 C2290 1.378 . S
C2283 C2282 1.367 . S
C2283 C2291 1.433 . S
C2284 H2280 0.929 . S
C2284 C2286 1.378 . S
C2284 C2288 1.350 . S
C2285 C2288 1.463 . S
C2285 C2290 1.350 . S
C2285 N2293 1.427 . S
C2286 H2277 0.930 . S
C2286 C2284 1.378 . S
C2286 C2287 1.367 . S
C2287 C2286 1.367 . S
C2287 C2289 1.433 . S
C2288 C2284 1.350 . S
C2288 C2285 1.463 . S
C2288 N2292 1.427 . S
C2289 H2279 0.929 . S
C2289 C2287 1.433 . S
C2289 N2292 1.384 . S
C2290 H2281 0.929 . S
C2290 C2282 1.378 . S
C2290 C2285 1.350 . S
C2291 H2278 0.929 . S
C2291 C2283 1.433 . S
C2291 N2293 1.384 . S
N2292 C2288 1.427 . S
N2292 C2289 1.384 . S
N2293 C2285 1.427 . S
N2293 C2291 1.384 . S
H2294 C2300 0.930 . S
H2295 C2304 0.930 . S
H2296 C2309 0.929 . S
H2297 C2307 0.929 . S
H2298 C2302 0.929 . S
H2299 C2308 0.929 1_565 S
C2300 H2294 0.930 . S
C2300 C2301 1.367 . S
C2300 C2308 1.378 . S
C2301 C2300 1.367 . S
C2301 C2309 1.433 . S
C2302 H2298 0.929 . S
C2302 C2304 1.378 . S
C2302 C2306 1.350 . S
C2303 C2306 1.463 . S
C2303 C2308 1.350 1_565 S
C2303 N2311 1.427 1_565 S
C2304 H2295 0.930 . S
C2304 C2302 1.378 . S
C2304 C2305 1.367 . S
C2305 C2304 1.367 . S
C2305 C2307 1.433 . S
C2306 C2302 1.350 . S
C2306 C2303 1.463 . S
C2306 N2310 1.427 . S
C2307 H2297 0.929 . S
C2307 C2305 1.433 . S
C2307 N2310 1.384 . S
C2308 H2299 0.929 1_545 S
C2308 C2300 1.378 . S
C2308 C2303 1.350 1_545 S
C2309 H2296 0.929 . S
C2309 C2301 1.433 . S
C2309 N2311 1.384 . S
N2310 C2306 1.427 . S
N2310 C2307 1.384 . S
N2311 C2303 1.427 1_545 S
N2311 C2309 1.384 . S
H2312 C2318 0.930 . S
H2313 C2322 0.930 . S
H2314 C2327 0.929 . S
H2315 C2325 0.929 . S
H2316 C2320 0.929 . S
H2317 C2326 0.923 1_545 S
C2318 H2312 0.930 . S
C2318 C2319 1.367 . S
C2318 C2326 1.385 . S
C2319 C2318 1.367 . S
C2319 C2327 1.433 . S
C2320 H2316 0.929 . S
C2320 C2322 1.378 . S
C2320 C2324 1.350 . S
C2321 C2324 1.463 . S
C2321 C2326 1.348 1_545 S
C2321 N2329 1.427 1_545 S
C2322 H2313 0.930 . S
C2322 C2320 1.378 . S
C2322 C2323 1.367 . S
C2323 C2322 1.367 . S
C2323 C2325 1.433 . S
C2324 C2320 1.350 . S
C2324 C2321 1.463 . S
C2324 N2328 1.427 . S
C2325 H2315 0.929 . S
C2325 C2323 1.433 . S
C2325 N2328 1.384 . S
C2326 H2317 0.923 1_565 S
C2326 C2318 1.385 . S
C2326 C2321 1.348 1_565 S
C2327 H2314 0.929 . S
C2327 C2319 1.433 . S
C2327 N2329 1.384 . S
N2328 C2324 1.427 . S
N2328 C2325 1.384 . S
N2329 C2321 1.427 1_565 S
N2329 C2327 1.384 . S
H2330 C2336 0.930 . S
H2331 C2340 0.930 . S
H2332 C2345 0.929 . S
H2333 C2343 0.929 . S
H2334 C2338 0.929 . S
H2335 C2344 0.929 . S
C2336 H2330 0.930 . S
C2336 C2337 1.367 . S
C2336 C2344 1.378 . S
C2337 C2336 1.367 . S
C2337 C2345 1.433 . S
C2338 H2334 0.929 . S
C2338 C2340 1.378 . S
C2338 C2342 1.350 . S
C2339 C2342 1.463 . S
C2339 C2344 1.350 . S
C2339 N2347 1.427 . S
C2340 H2331 0.930 . S
C2340 C2338 1.378 . S
C2340 C2341 1.367 . S
C2341 C2340 1.367 . S
C2341 C2343 1.433 . S
C2342 C2338 1.350 . S
C2342 C2339 1.463 . S
C2342 N2346 1.427 . S
C2343 H2333 0.929 . S
C2343 C2341 1.433 . S
C2343 N2346 1.384 . S
C2344 H2335 0.929 . S
C2344 C2336 1.378 . S
C2344 C2339 1.350 . S
C2345 H2332 0.929 . S
C2345 C2337 1.433 . S
C2345 N2347 1.384 . S
N2346 C2342 1.427 . S
N2346 C2343 1.384 . S
N2347 C2339 1.427 . S
N2347 C2345 1.384 . S
H2348 C2354 0.930 . S
H2349 C2358 0.930 . S
H2350 C2363 0.929 . S
H2351 C2361 0.929 . S
H2352 C2356 0.929 . S
H2353 C2362 0.929 . S
C2354 H2348 0.930 . S
C2354 C2355 1.367 . S
C2354 C2362 1.378 . S
C2355 C2354 1.367 . S
C2355 C2363 1.433 . S
C2356 H2352 0.929 . S
C2356 C2358 1.378 . S
C2356 C2360 1.350 . S
C2357 C2360 1.463 . S
C2357 C2362 1.350 . S
C2357 N2365 1.427 . S
C2358 H2349 0.930 . S
C2358 C2356 1.378 . S
C2358 C2359 1.367 . S
C2359 C2358 1.367 . S
C2359 C2361 1.433 . S
C2360 C2356 1.350 . S
C2360 C2357 1.463 . S
C2360 N2364 1.427 . S
C2361 H2351 0.929 . S
C2361 C2359 1.433 . S
C2361 N2364 1.384 . S
C2362 H2353 0.929 . S
C2362 C2354 1.378 . S
C2362 C2357 1.350 . S
C2363 H2350 0.929 . S
C2363 C2355 1.433 . S
C2363 N2365 1.384 . S
N2364 C2360 1.427 . S
N2364 C2361 1.384 . S
N2365 C2357 1.427 . S
N2365 C2363 1.384 . S
H2366 C2372 0.930 . S
H2367 C2376 0.930 . S
H2368 C2381 0.929 . S
H2369 C2379 0.929 . S
H2370 C2374 0.929 . S
H2371 C2380 0.929 . S
C2372 H2366 0.930 . S
C2372 C2373 1.367 . S
C2372 C2380 1.378 . S
C2373 C2372 1.367 . S
C2373 C2381 1.433 . S
C2374 H2370 0.929 . S
C2374 C2376 1.378 . S
C2374 C2378 1.350 1_565 S
C2375 C2378 1.463 . S
C2375 C2380 1.350 . S
C2375 N2383 1.427 . S
C2376 H2367 0.930 . S
C2376 C2374 1.378 . S
C2376 C2377 1.367 . S
C2377 C2376 1.367 . S
C2377 C2379 1.433 . S
C2378 C2374 1.350 1_545 S
C2378 C2375 1.463 . S
C2378 N2382 1.427 1_545 S
C2379 H2369 0.929 . S
C2379 C2377 1.433 . S
C2379 N2382 1.384 . S
C2380 H2371 0.929 . S
C2380 C2372 1.378 . S
C2380 C2375 1.350 . S
C2381 H2368 0.929 . S
C2381 C2373 1.433 . S
C2381 N2383 1.384 . S
N2382 C2378 1.427 1_565 S
N2382 C2379 1.384 . S
N2383 C2375 1.427 . S
N2383 C2381 1.384 . S
H2384 C2390 0.930 . S
H2385 C2394 0.930 . S
H2386 C2399 0.929 . S
H2387 C2397 0.929 . S
H2388 C2392 0.929 . S
H2389 C2398 0.929 . S
C2390 H2384 0.930 . S
C2390 C2391 1.392 . S
C2390 C2398 1.378 . S
C2391 C2390 1.392 . S
C2391 C2399 1.403 1_554 S
C2392 H2388 0.929 . S
C2392 C2394 1.378 . S
C2392 C2396 1.350 . S
C2393 C2396 1.463 . S
C2393 C2398 1.350 1_556 S
C2393 N2401 1.427 . S
C2394 H2385 0.930 . S
C2394 C2392 1.378 . S
C2394 C2395 1.367 . S
C2395 C2394 1.367 . S
C2395 C2397 1.433 1_556 S
C2396 C2392 1.350 . S
C2396 C2393 1.463 . S
C2396 N2400 1.427 1_556 S
C2397 H2387 0.929 . S
C2397 C2395 1.433 1_554 S
C2397 N2400 1.384 . S
C2398 H2389 0.929 . S
C2398 C2390 1.378 . S
C2398 C2393 1.350 1_554 S
C2399 H2386 0.929 . S
C2399 C2391 1.403 1_556 S
C2399 N2401 1.384 . S
N2400 C2396 1.427 1_554 S
N2400 C2397 1.384 . S
N2401 C2393 1.427 . S
N2401 C2399 1.384 . S
H2402 C2408 0.930 . S
H2403 C2412 0.944 . S
H2404 C2417 0.929 . S
H2405 C2415 0.929 . S
H2406 C2410 0.929 . S
H2407 C2416 0.929 . S
C2408 H2402 0.930 . S
C2408 C2409 1.370 . S
C2408 C2416 1.378 . S
C2409 C2408 1.370 . S
C2409 C2417 1.431 1_556 S
C2410 H2406 0.929 . S
C2410 C2412 1.381 . S
C2410 C2414 1.350 1_554 S
C2411 C2414 1.463 . S
C2411 C2416 1.350 . S
C2411 N2419 1.427 1_556 S
C2412 H2403 0.944 . S
C2412 C2410 1.381 . S
C2412 C2413 1.349 1_554 S
C2413 C2412 1.349 1_556 S
C2413 C2415 1.433 . S
C2414 C2410 1.350 1_556 S
C2414 C2411 1.463 . S
C2414 N2418 1.427 . S
C2415 H2405 0.929 . S
C2415 C2413 1.433 . S
C2415 N2418 1.384 . S
C2416 H2407 0.929 . S
C2416 C2408 1.378 . S
C2416 C2411 1.350 . S
C2417 H2404 0.929 . S
C2417 C2409 1.431 1_554 S
C2417 N2419 1.384 . S
N2418 C2414 1.427 . S
N2418 C2415 1.384 . S
N2419 C2411 1.427 1_554 S
N2419 C2417 1.384 . S
H2420 C2426 0.930 . S
H2421 C2430 0.930 . S
H2422 C2435 0.929 . S
H2423 C2433 0.929 . S
H2424 C2428 0.929 . S
H2425 C2434 0.929 . S
C2426 H2420 0.930 . S
C2426 C2427 1.367 . S
C2426 C2434 1.378 . S
C2427 C2426 1.367 . S
C2427 C2435 1.433 . S
C2428 H2424 0.929 . S
C2428 C2430 1.378 . S
C2428 C2432 1.350 . S
C2429 C2432 1.463 . S
C2429 C2434 1.350 . S
C2429 N2437 1.427 . S
C2430 H2421 0.930 . S
C2430 C2428 1.378 . S
C2430 C2431 1.367 . S
C2431 C2430 1.367 . S
C2431 C2433 1.433 . S
C2432 C2428 1.350 . S
C2432 C2429 1.463 . S
C2432 N2436 1.427 . S
C2433 H2423 0.929 . S
C2433 C2431 1.433 . S
C2433 N2436 1.384 . S
C2434 H2425 0.929 . S
C2434 C2426 1.378 . S
C2434 C2429 1.350 . S
C2435 H2422 0.929 . S
C2435 C2427 1.433 . S
C2435 N2437 1.384 . S
N2436 C2432 1.427 . S
N2436 C2433 1.384 . S
N2437 C2429 1.427 . S
N2437 C2435 1.384 . S
H2438 C2444 0.930 . S
H2439 C2448 0.930 . S
H2440 C2453 0.929 . S
H2441 C2451 0.929 . S
H2442 C2446 0.929 . S
H2443 C2452 0.929 . S
C2444 H2438 0.930 . S
C2444 C2445 1.367 . S
C2444 C2452 1.378 . S
C2445 C2444 1.367 . S
C2445 C2453 1.433 . S
C2446 H2442 0.929 . S
C2446 C2448 1.378 . S
C2446 C2450 1.350 . S
C2447 C2450 1.463 . S
C2447 C2452 1.350 . S
C2447 N2455 1.427 . S
C2448 H2439 0.930 . S
C2448 C2446 1.378 . S
C2448 C2449 1.367 . S
C2449 C2448 1.367 . S
C2449 C2451 1.433 . S
C2450 C2446 1.350 . S
C2450 C2447 1.463 . S
C2450 N2454 1.427 . S
C2451 H2441 0.929 . S
C2451 C2449 1.433 . S
C2451 N2454 1.384 . S
C2452 H2443 0.929 . S
C2452 C2444 1.378 . S
C2452 C2447 1.350 . S
C2453 H2440 0.929 . S
C2453 C2445 1.433 . S
C2453 N2455 1.384 . S
N2454 C2450 1.427 . S
N2454 C2451 1.384 . S
N2455 C2447 1.427 . S
N2455 C2453 1.384 . S
H2456 C2462 0.930 . S
H2457 C2466 0.930 . S
H2458 C2471 0.929 . S
H2459 C2469 0.929 . S
H2460 C2464 0.929 . S
H2461 C2470 0.929 . S
C2462 H2456 0.930 . S
C2462 C2463 1.367 1_554 S
C2462 C2470 1.378 . S
C2463 C2462 1.367 1_556 S
C2463 C2471 1.433 . S
C2464 H2460 0.929 . S
C2464 C2466 1.378 . S
C2464 C2468 1.350 . S
C2465 C2468 1.463 . S
C2465 C2470 1.350 . S
C2465 N2473 1.427 . S
C2466 H2457 0.930 . S
C2466 C2464 1.378 . S
C2466 C2467 1.367 . S
C2467 C2466 1.367 . S
C2467 C2469 1.433 . S
C2468 C2464 1.350 . S
C2468 C2465 1.463 . S
C2468 N2472 1.427 . S
C2469 H2459 0.929 . S
C2469 C2467 1.433 . S
C2469 N2472 1.384 . S
C2470 H2461 0.929 . S
C2470 C2462 1.378 . S
C2470 C2465 1.350 . S
C2471 H2458 0.929 . S
C2471 C2463 1.433 . S
C2471 N2473 1.384 1_556 S
N2472 C2468 1.427 . S
N2472 C2469 1.384 . S
N2473 C2465 1.427 . S
N2473 C2471 1.384 1_554 S
H2474 C2480 0.930 . S
H2475 C2484 0.930 . S
H2476 C2489 0.904 1_556 S
H2477 C2487 0.929 . S
H2478 C2482 0.929 . S
H2479 C2488 0.929 . S
C2480 H2474 0.930 . S
C2480 C2481 1.367 . S
C2480 C2488 1.378 . S
C2481 C2480 1.367 . S
C2481 C2489 1.467 . S
C2482 H2478 0.929 . S
C2482 C2484 1.378 . S
C2482 C2486 1.350 1_556 S
C2483 C2486 1.463 . S
C2483 C2488 1.350 . S
C2483 N2491 1.427 1_554 S
C2484 H2475 0.930 . S
C2484 C2482 1.378 . S
C2484 C2485 1.383 . S
C2485 C2484 1.383 . S
C2485 C2487 1.413 1_556 S
C2486 C2482 1.350 1_554 S
C2486 C2483 1.463 . S
C2486 N2490 1.427 . S
C2487 H2477 0.929 . S
C2487 C2485 1.413 1_554 S
C2487 N2490 1.384 . S
C2488 H2479 0.929 . S
C2488 C2480 1.378 . S
C2488 C2483 1.350 . S
C2489 H2476 0.904 1_554 S
C2489 C2481 1.467 . S
C2489 N2491 1.377 1_554 S
N2490 C2486 1.427 . S
N2490 C2487 1.384 . S
N2491 C2483 1.427 1_556 S
N2491 C2489 1.377 1_556 S
H2492 C2498 0.930 . S
H2493 C2502 0.930 . S
H2494 C2507 0.929 . S
H2495 C2505 0.929 . S
H2496 C2500 0.929 . S
H2497 C2506 0.929 . S
C2498 H2492 0.930 . S
C2498 C2499 1.367 . S
C2498 C2506 1.378 . S
C2499 C2498 1.367 . S
C2499 C2507 1.433 . S
C2500 H2496 0.929 . S
C2500 C2502 1.378 . S
C2500 C2504 1.350 . S
C2501 C2504 1.463 . S
C2501 C2506 1.350 . S
C2501 N2509 1.427 . S
C2502 H2493 0.930 . S
C2502 C2500 1.378 . S
C2502 C2503 1.367 . S
C2503 C2502 1.367 . S
C2503 C2505 1.433 . S
C2504 C2500 1.350 . S
C2504 C2501 1.463 . S
C2504 N2508 1.427 . S
C2505 H2495 0.929 . S
C2505 C2503 1.433 . S
C2505 N2508 1.384 . S
C2506 H2497 0.929 . S
C2506 C2498 1.378 . S
C2506 C2501 1.350 . S
C2507 H2494 0.929 . S
C2507 C2499 1.433 . S
C2507 N2509 1.384 . S
N2508 C2504 1.427 . S
N2508 C2505 1.384 . S
N2509 C2501 1.427 . S
N2509 C2507 1.384 . S
H2510 C2516 0.930 . S
H2511 C2520 0.930 . S
H2512 C2525 0.929 . S
H2513 C2523 0.929 . S
H2514 C2518 0.929 . S
H2515 C2524 0.929 . S
C2516 H2510 0.930 . S
C2516 C2517 1.367 . S
C2516 C2524 1.378 . S
C2517 C2516 1.367 . S
C2517 C2525 1.433 . S
C2518 H2514 0.929 . S
C2518 C2520 1.378 . S
C2518 C2522 1.350 . S
C2519 C2522 1.463 . S
C2519 C2524 1.350 . S
C2519 N2527 1.427 . S
C2520 H2511 0.930 . S
C2520 C2518 1.378 . S
C2520 C2521 1.367 . S
C2521 C2520 1.367 . S
C2521 C2523 1.433 . S
C2522 C2518 1.350 . S
C2522 C2519 1.463 . S
C2522 N2526 1.427 . S
C2523 H2513 0.929 . S
C2523 C2521 1.433 . S
C2523 N2526 1.384 . S
C2524 H2515 0.929 . S
C2524 C2516 1.378 . S
C2524 C2519 1.350 . S
C2525 H2512 0.929 . S
C2525 C2517 1.433 . S
C2525 N2527 1.384 . S
N2526 C2522 1.427 . S
N2526 C2523 1.384 . S
N2527 C2519 1.427 . S
N2527 C2525 1.384 . S
C1095 C20 1.114 . S
C1099 C156 1.114 . S
C1113 C1006 1.129 . S
C1117 C54 1.129 . S
C1131 C496 1.135 . S
C1135 C88 1.135 . S
C1149 C122 1.129 . S
C1153 C802 1.129 . S
C1167 C870 1.137 . S
C1171 C190 1.137 . S
C1185 C224 1.132 . S
C1189 C360 1.132 . S
C1203 C666 1.137 . S
C1207 C258 1.137 . S
C1221 C428 1.115 . S
C1225 C292 1.115 . S
C1239 C326 1.117 . S
C1243 C734 1.117 . S
C1257 C394 1.114 . S
C1261 C1074 1.114 . S
C1275 C462 1.136 . S
C1279 C598 1.136 . S
C1293 C938 1.132 . S
C1297 C530 1.132 . S
C1311 C700 1.132 . S
C1315 C564 1.132 . S
C1329 C1040 1.136 . S
C1333 C632 1.136 . S
C1347 C768 1.126 . S
C1351 C904 1.126 . S
C1365 C972 1.130 . S
C1369 C836 1.130 . S
C1383 C33 1.481 . S
C1387 C101 1.484 . S
C1401 C67 1.485 . S
C1405 C135 1.481 . S
C1419 C237 1.484 . S
C1423 C169 1.481 . S
C1437 C271 1.484 . S
C1441 C203 1.481 . S
C1455 C373 1.485 . S
C1459 C305 1.481 . S
C1473 C339 1.482 . S
C1477 C407 1.483 . S
C1491 C441 1.483 . S
C1495 C509 1.485 . S
C1509 C475 1.484 . S
C1513 C543 1.481 . S
C1527 C645 1.482 . S
C1531 C577 1.485 . S
C1545 C611 1.485 . S
C1549 C679 1.483 . S
C1563 C713 1.482 . S
C1567 C781 1.485 . S
C1581 C747 1.482 . S
C1585 C815 1.485 . S
C1599 C849 1.485 . S
C1603 C917 1.483 . S
C1617 C951 1.481 . S
C1621 C883 1.484 . S
C1635 C985 1.482 . S
C1639 C1053 1.483 . S
C1653 C1087 1.483 . S
C1657 C1019 1.485 . S
C1671 C5 0.801 . S
C1675 C39 0.814 . S
C1689 C107 0.806 . S
C1693 C73 0.787 . S
C1707 C175 0.814 . S
C1711 C141 0.801 . S
C1725 C209 0.801 . S
C1729 C243 0.784 . S
C1743 C277 0.803 . S
C1747 C311 0.814 . S
C1761 C345 0.807 . S
C1765 C379 0.813 . S
C1779 C447 0.808 . S
C1783 C413 0.788 . S
C1797 C515 0.788 . S
C1801 C481 0.808 . S
C1815 C583 0.793 . S
C1819 C549 0.812 1_455 S
C1833 C617 0.791 1_455 S
C1837 C651 0.785 . S
C1851 C719 0.786 . S
C1855 C685 0.804 1_655 S
C1869 C753 0.814 1_655 S
C1873 C787 0.802 . S
C1887 C821 0.784 1_455 S
C1891 C855 0.795 . S
C1905 C923 0.806 . S
C1909 C889 0.787 1_455 S
C1923 C957 0.814 1_655 S
C1927 C991 0.806 . S
C1941 C1025 0.784 1_655 S
C1945 C1059 0.801 . S
C1959 C9 1.650 . S
C1963 C172 1.858 . S
C1977 C954 1.848 . S
C1981 C43 1.668 1_556 S
C1995 C512 1.858 . S
C1999 C77 1.654 . S
C2013 C111 1.645 . S
C2017 C750 1.851 . S
C2031 C36 1.845 . S
C2035 C145 1.665 . S
C2049 C179 1.656 . S
C2053 C818 1.853 . S
C2067 C213 1.644 . S
C2071 C376 1.852 . S
C2085 C614 1.844 . S
C2089 C247 1.654 . S
C2103 C281 1.649 . S
C2107 C444 1.846 . S
C2121 C315 1.667 . S
C2125 C682 1.850 . S
C2139 C349 1.648 . S
C2143 C240 1.847 . S
C2157 C1022 1.854 . S
C2161 C383 1.645 . S
C2175 C417 1.645 . S
C2179 C308 1.851 . S
C2193 C451 1.645 . S
C2197 C546 1.854 . S
C2211 C485 1.644 . S
C2215 C104 1.851 . S
C2229 C886 1.855 . S
C2233 C519 1.663 . S
C2247 C716 1.853 . S
C2251 C553 1.666 . S
C2265 C587 1.660 . S
C2269 C410 1.857 . S
C2283 C621 1.661 . S
C2287 C1056 1.844 . S
C2301 C655 1.650 . S
C2305 C206 1.845 . S
C2319 C689 1.648 . S
C2323 C580 1.857 . S
C2337 C723 1.645 . S
C2341 C274 1.850 . S
C2355 C920 1.844 . S
C2359 C757 1.661 . S
C2373 C70 1.853 . S
C2377 C791 1.666 . S
C2391 C825 1.661 . S
C2395 C988 1.848 . S
C2409 C859 1.666 1_556 S
C2413 C138 1.850 . S
C2427 C893 1.664 . S
C2431 C784 1.855 . S
C2445 C478 1.850 . S
C2449 C927 1.667 . S
C2463 C961 1.664 . S
C2467 C852 1.845 . S
C2481 C2 1.845 . S
C2485 C995 1.665 . S
C2499 C648 1.845 . S
C2503 C1029 1.663 . S
C2517 C342 1.845 . S
C2521 C1063 1.653 . S
