# Generated by pormake.
# Topology smu, (6)-cn, num edge types: 1
# Building blocks:
#     Node 0, Type 0, BuildingBlock: PAMTOO_clean_sbu_0, # of connection points: 6
#     Node 1, Type 0, BuildingBlock: PAMTOO_clean_sbu_0, # of connection points: 6
#     Node 2, Type 0, BuildingBlock: PAMTOO_clean_sbu_0, # of connection points: 6
#     Node 3, Type 0, BuildingBlock: PAMTOO_clean_sbu_0, # of connection points: 6
#     Node 4, Type 0, BuildingBlock: PAMTOO_clean_sbu_0, # of connection points: 6
#     Node 5, Type 0, BuildingBlock: PAMTOO_clean_sbu_0, # of connection points: 6
#     Edge 6, Type (0, 0), BuildingBlock: XIVTED_clean_linker_0, # of connection points: 2
#     Edge 7, Type (0, 0), BuildingBlock: XIVTED_clean_linker_0, # of connection points: 2
#     Edge 8, Type (0, 0), BuildingBlock: XIVTED_clean_linker_0, # of connection points: 2
#     Edge 9, Type (0, 0), BuildingBlock: XIVTED_clean_linker_0, # of connection points: 2
#     Edge 10, Type (0, 0), BuildingBlock: XIVTED_clean_linker_0, # of connection points: 2
#     Edge 11, Type (0, 0), BuildingBlock: XIVTED_clean_linker_0, # of connection points: 2
#     Edge 12, Type (0, 0), BuildingBlock: XIVTED_clean_linker_0, # of connection points: 2
#     Edge 13, Type (0, 0), BuildingBlock: XIVTED_clean_linker_0, # of connection points: 2
#     Edge 14, Type (0, 0), BuildingBlock: XIVTED_clean_linker_0, # of connection points: 2
#     Edge 15, Type (0, 0), BuildingBlock: XIVTED_clean_linker_0, # of connection points: 2
#     Edge 16, Type (0, 0), BuildingBlock: XIVTED_clean_linker_0, # of connection points: 2
#     Edge 17, Type (0, 0), BuildingBlock: XIVTED_clean_linker_0, # of connection points: 2
#     Edge 18, Type (0, 0), BuildingBlock: XIVTED_clean_linker_0, # of connection points: 2
#     Edge 19, Type (0, 0), BuildingBlock: XIVTED_clean_linker_0, # of connection points: 2
#     Edge 20, Type (0, 0), BuildingBlock: XIVTED_clean_linker_0, # of connection points: 2
#     Edge 21, Type (0, 0), BuildingBlock: XIVTED_clean_linker_0, # of connection points: 2
#     Edge 22, Type (0, 0), BuildingBlock: XIVTED_clean_linker_0, # of connection points: 2
#     Edge 23, Type (0, 0), BuildingBlock: XIVTED_clean_linker_0, # of connection points: 2
# Relax obj value: 0.217
# Max RMSD: 0.312
# Mean RMSD: 0.312
data_MOF--net-smu--node1-PAMTOO_clean_sbu_0--edge1-XIVTED_clean_linker_0
_symmetry_space_group_name_H-M    P1
_symmetry_Int_Tables_number       1
_symmetry_cell_setting            triclinic
loop_
_symmetry_equiv_pos_as_xyz
'x, y, z'
_cell_length_a     39.528006
_cell_length_b     39.563562
_cell_length_c     28.026596
_cell_angle_alpha  89.712036
_cell_angle_beta   90.391716
_cell_angle_gamma 120.07812
loop_
_atom_site_label
_atom_site_type_symbol
_atom_site_fract_x
_atom_site_fract_y
_atom_site_fract_z
_atom_type_partial_charge
Dy0 Dy 0.37641 0.07985 0.26501 0.0
Dy1 Dy 0.31405 0.11213 0.26261 0.0
C2 C 0.33219 0.07992 0.36078 0.0
O3 O 0.31674 0.02564 0.25911 0.0
O4 O 0.27689 0.0501 0.28281 0.0
O5 O 0.41552 0.06609 0.30342 0.0
O6 O 0.41228 0.0621 0.22654 0.0
O7 O 0.30487 0.0808 0.19363 0.0
O8 O 0.36508 0.08577 0.18819 0.0
O9 O 0.37143 0.15603 0.23212 0.0
O10 O 0.40919 0.14383 0.28136 0.0
O11 O 0.26397 0.11409 0.23444 0.0
O12 O 0.30553 0.1601 0.28188 0.0
C13 C 0.28268 0.02094 0.2729 0.0
O14 O 0.34963 0.06487 0.3364 0.0
O15 O 0.32109 0.10338 0.34129 0.0
C16 C 0.4745 0.08381 0.26206 0.0
C17 C 0.5571 0.12283 0.25683 0.0
C18 C 0.53852 0.12666 0.29739 0.0
C19 C 0.49771 0.1074 0.29999 0.0
C20 C 0.493 0.08036 0.22134 0.0
C21 C 0.53378 0.09977 0.21863 0.0
C22 C 0.43124 0.06209 0.26474 0.0
C23 C 0.33118 0.0772 0.16959 0.0
C24 C 0.40404 0.16855 0.25574 0.0
C25 C 0.24408 0.15755 0.26713 0.0
C26 C 0.19568 0.19069 0.27621 0.0
C27 C 0.19035 0.16547 0.23817 0.0
C28 C 0.21431 0.14914 0.23367 0.0
C29 C 0.24831 0.18126 0.30649 0.0
C30 C 0.22417 0.19753 0.31111 0.0
C31 C 0.27411 0.14723 0.25541 0.0
H32 H 0.55547 0.14376 0.32772 0.0
H33 H 0.48443 0.11071 0.33198 0.0
H34 H 0.47589 0.06244 0.19156 0.0
H35 H 0.54701 0.09668 0.18647 0.0
H36 H 0.16817 0.15902 0.2112 0.0
H37 H 0.21072 0.13136 0.20267 0.0
H38 H 0.27133 0.18865 0.33255 0.0
H39 H 0.22904 0.21691 0.34078 0.0
Dy40 Dy 0.71486 0.64026 0.26856 0.0
Dy41 Dy 0.80834 0.70186 0.25645 0.0
C42 C 0.76798 0.68717 0.35838 0.0
O43 O 0.71844 0.69808 0.28177 0.0
O44 O 0.78364 0.74116 0.26302 0.0
O45 O 0.66423 0.6023 0.31107 0.0
O46 O 0.65975 0.60194 0.23403 0.0
O47 O 0.78076 0.68103 0.1841 0.0
O48 O 0.72194 0.67419 0.20272 0.0
O49 O 0.79962 0.64587 0.2856 0.0
O50 O 0.74449 0.60753 0.24411 0.0
O51 O 0.85725 0.75185 0.22265 0.0
O52 O 0.86641 0.71085 0.26481 0.0
C53 C 0.74837 0.73364 0.27495 0.0
O54 O 0.74127 0.65279 0.34188 0.0
O55 O 0.79614 0.71297 0.33091 0.0
C56 C 0.62046 0.54235 0.27331 0.0
C57 C 0.578 0.46001 0.26669 0.0
C58 C 0.61766 0.47966 0.28048 0.0
C59 C 0.63878 0.52053 0.28354 0.0
C60 C 0.58096 0.52291 0.26001 0.0
C61 C 0.55991 0.48219 0.25677 0.0
C62 C 0.64235 0.58534 0.27378 0.0
C63 C 0.74944 0.68253 0.17162 0.0
C64 C 0.77629 0.61255 0.26529 0.0
C65 C 0.92233 0.77371 0.25135 0.0
C66 C 1.00358 0.82402 0.26251 0.0
C67 C 0.98369 0.82776 0.2229 0.0
C68 C 0.94351 0.80279 0.21736 0.0
C69 C 0.94169 0.77131 0.29238 0.0
C70 C 0.98196 0.79634 0.29795 0.0
C71 C 0.88247 0.74253 0.23895 0.0
H72 H 0.63259 0.46354 0.28787 0.0
H73 H 0.66946 0.5351 0.2933 0.0
H74 H 0.56642 0.53928 0.25171 0.0
H75 H 0.52933 0.46808 0.24673 0.0
H76 H 0.99937 0.84934 0.19547 0.0
H77 H 0.92932 0.80501 0.18524 0.0
H78 H 0.92617 0.74895 0.31904 0.0
H79 H 0.99643 0.79266 0.32883 0.0
Dy80 Dy 0.93647 0.30129 0.25206 0.0
Dy81 Dy 0.90706 0.20727 0.25479 0.0
C82 C 0.93193 0.25849 0.35231 0.0
O83 O 0.99157 0.29731 0.24949 0.0
O84 O 0.96802 0.23522 0.28108 0.0
O85 O 0.95938 0.35905 0.28232 0.0
O86 O 0.94145 0.3487 0.20838 0.0
O87 O 0.94059 0.22873 0.18721 0.0
O88 O 0.93168 0.28101 0.1767 0.0
O89 O 0.86249 0.21901 0.22222 0.0
O90 O 0.8728 0.26907 0.26944 0.0
O91 O 0.9077 0.15572 0.23094 0.0
O92 O 0.85937 0.15043 0.27394 0.0
C93 C 0.99695 0.26979 0.26894 0.0
O94 O 0.94456 0.29099 0.32788 0.0
O95 O 0.91328 0.22347 0.33262 0.0
C96 C 0.93014 0.3941 0.24898 0.0
C97 C 0.88806 0.43438 0.25585 0.0
C98 C 0.89086 0.41367 0.29523 0.0
C99 C 0.91155 0.39359 0.29181 0.0
C100 C 0.92727 0.41469 0.20969 0.0
C101 C 0.90635 0.43447 0.21298 0.0
C102 C 0.95203 0.37302 0.2439 0.0
C103 C 0.94303 0.2572 0.16069 0.0
C104 C 0.84872 0.23804 0.24519 0.0
C105 C 0.86598 0.09338 0.26749 0.0
C106 C 0.83521 0.01269 0.2824 0.0
C107 C 0.86262 0.03234 0.24616 0.0
C108 C 0.8778 0.07224 0.23876 0.0
C109 C 0.84055 0.07434 0.3058 0.0
C110 C 0.82545 0.03431 0.31335 0.0
C111 C 0.87418 0.13221 0.25098 0.0
H112 H 0.8768 0.41275 0.32863 0.0
H113 H 0.91291 0.37768 0.32263 0.0
H114 H 0.94133 0.41552 0.17629 0.0
H115 H 0.90521 0.45054 0.1822 0.0
H116 H 0.87119 0.01653 0.22227 0.0
H117 H 0.89702 0.08605 0.20869 0.0
H118 H 0.83061 0.08979 0.32827 0.0
H119 H 0.80435 0.01987 0.34154 0.0
Dy120 Dy 0.08615 0.37497 0.76305 0.0
Dy121 Dy 0.11218 0.30832 0.75188 0.0
C122 C 0.07751 0.33276 0.66216 0.0
O123 O 0.03178 0.31685 0.77689 0.0
O124 O 0.04865 0.27641 0.73696 0.0
O125 O 0.06703 0.41299 0.73323 0.0
O126 O 0.07812 0.41431 0.80895 0.0
O127 O 0.08831 0.301 0.82564 0.0
O128 O 0.10263 0.36402 0.83536 0.0
O129 O 0.16257 0.36375 0.77798 0.0
O130 O 0.14862 0.40585 0.73951 0.0
O131 O 0.11051 0.25451 0.77173 0.0
O132 O 0.15382 0.29502 0.72013 0.0
C133 C 0.02268 0.28309 0.75703 0.0
O134 O 0.0651 0.35025 0.69092 0.0
O135 O 0.10128 0.32044 0.67658 0.0
C136 C 0.09405 0.47449 0.77193 0.0
C137 C 0.13472 0.55701 0.76961 0.0
C138 C 0.13227 0.53553 0.72864 0.0
C139 C 0.11225 0.49473 0.72978 0.0
C140 C 0.09701 0.49594 0.81308 0.0
C141 C 0.1173 0.53679 0.81202 0.0
C142 C 0.07128 0.4313 0.77327 0.0
C143 C 0.09102 0.32912 0.85289 0.0
C144 C 0.17424 0.39755 0.7576 0.0
C145 C 0.15618 0.23617 0.73938 0.0
C146 C 0.19269 0.19072 0.7356 0.0
C147 C 0.16504 0.18393 0.77116 0.0
C148 C 0.14689 0.2064 0.77297 0.0
C149 C 0.183 0.24232 0.70308 0.0
C150 C 0.20099 0.21969 0.7011 0.0
C151 C 0.14005 0.2624 0.7441 0.0
H152 H 0.14578 0.5503 0.69559 0.0
H153 H 0.11078 0.47915 0.69746 0.0
H154 H 0.08317 0.48105 0.84597 0.0
H155 H 0.11835 0.55253 0.84403 0.0
H156 H 0.15763 0.16139 0.79782 0.0
H157 H 0.12635 0.20111 0.80138 0.0
H158 H 0.19069 0.26513 0.67675 0.0
H159 H 0.22232 0.22571 0.67346 0.0
Dy160 Dy 0.30538 0.93435 0.75589 0.0
Dy161 Dy 0.213 0.9064 0.77043 0.0
C162 C 0.2518 0.92967 0.66721 0.0
O163 O 0.30383 0.98931 0.74006 0.0
O164 O 0.24271 0.97119 0.77113 0.0
O165 O 0.35489 0.9445 0.71286 0.0
O166 O 0.36028 0.94928 0.78975 0.0
O167 O 0.24045 0.91098 0.84246 0.0
O168 O 0.30063 0.96084 0.82299 0.0
O169 O 0.21852 0.85802 0.73885 0.0
O170 O 0.27316 0.87191 0.77999 0.0
O171 O 0.16509 0.91462 0.7924 0.0
O172 O 0.15486 0.85665 0.77617 0.0
C173 C 0.27663 0.99731 0.75333 0.0
O174 O 0.27773 0.92067 0.68332 0.0
O175 O 0.2247 0.92878 0.69521 0.0
C176 C 0.39606 0.92416 0.75098 0.0
C177 C 0.43597 0.88148 0.75306 0.0
C178 C 0.41737 0.88356 0.71108 0.0
C179 C 0.39767 0.90467 0.71001 0.0
C180 C 0.41432 0.92175 0.79309 0.0
C181 C 0.43388 0.9005 0.79419 0.0
C182 C 0.37641 0.94774 0.75004 0.0
C183 C 0.27324 0.9424 0.85458 0.0
C184 C 0.24089 0.84637 0.75863 0.0
C185 C 0.09963 0.86566 0.77389 0.0
C186 C 0.01904 0.83241 0.75539 0.0
C187 C 0.03597 0.8553 0.79628 0.0
C188 C 0.07583 0.87171 0.80538 0.0
C189 C 0.08339 0.84458 0.73161 0.0
C190 C 0.0433 0.82823 0.72228 0.0
C191 C 0.13958 0.87752 0.78969 0.0
H192 H 0.41814 0.86893 0.67889 0.0
H193 H 0.38401 0.90594 0.67694 0.0
H194 H 0.41392 0.93673 0.82515 0.0
H195 H 0.44837 0.89997 0.82689 0.0
H196 H 0.01817 0.85971 0.82193 0.0
H197 H 0.08782 0.88784 0.83821 0.0
H198 H 0.10129 0.83952 0.70682 0.0
H199 H 0.031 0.81079 0.69043 0.0
Dy200 Dy 0.64655 0.71377 0.7523 0.0
Dy201 Dy 0.70907 0.80691 0.7639 0.0
C202 C 0.69376 0.76552 0.66304 0.0
O203 O 0.70444 0.71663 0.74112 0.0
O204 O 0.74819 0.78194 0.75901 0.0
O205 O 0.6094 0.66322 0.70867 0.0
O206 O 0.60663 0.65908 0.78584 0.0
O207 O 0.68768 0.77977 0.83641 0.0
O208 O 0.67969 0.72036 0.81862 0.0
O209 O 0.65291 0.79913 0.73685 0.0
O210 O 0.61387 0.74347 0.77689 0.0
O211 O 0.75244 0.85496 0.80678 0.0
O212 O 0.7258 0.86593 0.74455 0.0
C213 C 0.74022 0.74634 0.74808 0.0
O214 O 0.65873 0.74089 0.6796 0.0
O215 O 0.72063 0.79267 0.69066 0.0
C216 C 0.54729 0.62171 0.74329 0.0
C217 C 0.46466 0.57864 0.74094 0.0
C218 C 0.48671 0.5727 0.70621 0.0
C219 C 0.52757 0.59396 0.70746 0.0
C220 C 0.52537 0.62865 0.77721 0.0
C221 C 0.48447 0.60728 0.77606 0.0
C222 C 0.59046 0.6421 0.74558 0.0
C223 C 0.6884 0.74816 0.8494 0.0
C224 C 0.61936 0.77561 0.75639 0.0
C225 C 0.78266 0.92104 0.77742 0.0
C226 C 0.83482 1.00238 0.77437 0.0
C227 C 0.82214 0.98272 0.81827 0.0
C228 C 0.79649 0.94253 0.8197 0.0
C229 C 0.79638 0.94004 0.73342 0.0
C230 C 0.82245 0.98037 0.73193 0.0
C231 C 0.74962 0.88087 0.78075 0.0
H232 H 0.47236 0.55135 0.67818 0.0
H233 H 0.54381 0.58832 0.68076 0.0
H234 H 0.53976 0.65006 0.80518 0.0
H235 H 0.46843 0.61235 0.80358 0.0
H236 H 0.83042 0.99854 0.85168 0.0
H237 H 0.78578 0.92852 0.85399 0.0
H238 H 0.78594 0.92405 0.70026 0.0
H239 H 0.83222 0.99437 0.69751 0.0
H240 H 0.31635 0.01945 0.87457 0.0
H241 H 0.31943 1.00522 0.15143 0.0
H242 H 0.24142 0.90805 0.94145 0.0
H243 H 0.31626 0.10197 0.08482 0.0
H244 H 0.29966 0.96972 0.07522 0.0
H245 H 0.32576 0.0515 0.95151 0.0
C246 C 0.3018 1.00168 0.90551 0.0
C247 C 0.27806 0.96097 0.90166 0.0
C248 C 0.30311 0.99861 0.07744 0.0
C249 C 0.28958 0.9976 0.99001 0.0
C250 C 0.3147 0.01894 0.12053 0.0
C251 C 0.31986 0.05658 0.12375 0.0
C252 C 0.29775 0.01662 0.03722 0.0
C253 C 0.31288 0.07309 0.08331 0.0
C254 C 0.30708 0.02009 0.94929 0.0
C255 C 0.25993 0.93949 0.94298 0.0
N256 N 0.30278 0.05322 0.04129 0.0
N257 N 0.2666 0.95804 0.98583 0.0
H258 H 0.64816 0.70626 0.60168 0.0
H259 H 0.81295 0.75703 0.40563 0.0
H260 H 0.76409 0.80643 0.61557 0.0
H261 H 0.70803 0.6447 0.4202 0.0
H262 H 0.79556 0.77867 0.47876 0.0
H263 H 0.66845 0.68768 0.52947 0.0
C264 C 0.6778 0.72477 0.58926 0.0
C265 C 0.70445 0.75801 0.61507 0.0
C266 C 0.77665 0.74918 0.46609 0.0
C267 C 0.72815 0.73634 0.53205 0.0
C268 C 0.78667 0.73667 0.42452 0.0
C269 C 0.76199 0.6989 0.40653 0.0
C270 C 0.7415 0.72388 0.48952 0.0
C271 C 0.72811 0.67403 0.43245 0.0
C272 C 0.68949 0.71386 0.54809 0.0
C273 C 0.74251 0.7806 0.5969 0.0
N274 N 0.71877 0.68706 0.47219 0.0
N275 N 0.75329 0.76929 0.55658 0.0
H276 H 0.9668 0.21264 0.11205 0.0
H277 H 0.0818 0.37722 0.9147 0.0
H278 H 0.96535 0.3209 0.10312 0.0
H279 H 0.06086 0.25952 0.90157 0.0
H280 H 0.04531 0.35884 0.98913 0.0
H281 H 1.00546 0.23038 0.03877 0.0
C282 C 0.97424 0.23993 0.09449 0.0
C283 C 0.96264 0.26524 0.11376 0.0
C284 C 0.0489 0.33708 0.97015 0.0
C285 C 1.00753 0.28601 0.03047 0.0
C286 C 0.07009 0.34763 0.92777 0.0
C287 C 0.07447 0.31987 0.90166 0.0
C288 C 0.03204 0.2985 0.9869 0.0
C289 C 0.05832 0.28192 0.92048 0.0
C290 C 0.99645 0.25009 0.05276 0.0
C291 C 0.97337 0.30033 0.08954 0.0
N292 N 0.0377 0.27231 0.96188 0.0
N293 N 0.99538 0.30975 0.0494 0.0
H294 H 0.2675 0.06716 0.413 0.0
H295 H 0.30351 0.93455 0.59973 0.0
H296 H 0.37066 0.05624 0.41975 0.0
H297 H 0.21556 0.96657 0.62483 0.0
H298 H 0.32258 0.97378 0.52754 0.0
H299 H 0.24419 0.02843 0.48721 0.0
C300 C 0.28567 0.05754 0.43067 0.0
C301 C 0.3211 0.06497 0.41017 0.0
C302 C 0.29892 0.97216 0.54857 0.0
C303 C 0.29416 0.0198 0.4936 0.0
C304 C 0.28771 0.94935 0.58976 0.0
C305 C 0.25791 0.94724 0.61876 0.0
C306 C 0.28031 0.99323 0.53574 0.0
C307 C 0.23861 0.9672 0.60354 0.0
C308 C 0.27215 0.03505 0.4726 0.0
C309 C 0.34309 0.0511 0.43404 0.0
N310 N 0.25029 0.9896 0.56319 0.0
N311 N 0.32914 0.02902 0.47399 0.0
H312 H 0.68829 0.78402 0.93382 0.0
H313 H 0.78567 0.68317 0.08752 0.0
H314 H 0.71922 0.70286 0.87408 0.0
H315 H 0.70461 0.71419 0.1474 0.0
H316 H 0.77534 0.70436 1.00866 0.0
H317 H 0.70804 0.77253 0.01316 0.0
C318 C 0.69947 0.76411 0.93731 0.0
C319 C 0.70163 0.744 0.89748 0.0
C320 C 0.76007 0.70667 0.0393 0.0
C321 C 0.72489 0.73142 0.98724 0.0
C322 C 0.76597 0.69463 0.08415 0.0
C323 C 0.74555 0.69638 0.12386 0.0
C324 C 0.7343 0.72132 0.03456 0.0
C325 C 0.72053 0.71177 0.1176 0.0
C326 C 0.71065 0.75753 0.98242 0.0
C327 C 0.71656 0.71863 0.9039 0.0
N328 N 0.71564 0.72367 0.07388 0.0
N329 N 0.72765 0.71312 0.94782 0.0
H330 H 0.94029 0.31449 0.41422 0.0
H331 H 0.06894 0.27349 0.60274 0.0
H332 H 0.9566 0.21495 0.40275 0.0
H333 H 0.04266 0.3667 0.61346 0.0
H334 H 0.02929 0.2512 0.52934 0.0
H335 H 0.97642 0.33199 0.48917 0.0
C336 C 0.95078 0.29579 0.42817 0.0
C337 C 0.94517 0.26307 0.40248 0.0
C338 C 0.03244 0.27663 0.54774 0.0
C339 C 0.98795 0.28366 0.48788 0.0
C340 C 0.05545 0.28966 0.58926 0.0
C341 C 0.05922 0.3221 0.61422 0.0
C342 C 0.0133 0.29633 0.53117 0.0
C343 C 0.04056 0.34153 0.59556 0.0
C344 C 0.97178 0.30598 0.47081 0.0
C345 C 0.95976 0.24007 0.42193 0.0
N346 N 0.01845 0.32832 0.55541 0.0
N347 N 0.98094 0.25107 0.4633 0.0
H348 H 0.61272 0.1953 0.29044 0.0
H349 H 0.79215 0.17216 0.20191 0.0
H350 H 0.60073 0.09329 0.21922 0.0
H351 H 0.80787 0.26918 0.28816 0.0
H352 H 0.72184 0.14535 0.20433 0.0
H353 H 0.68392 0.22475 0.28744 0.0
C354 C 0.62496 0.17901 0.2743 0.0
C355 C 0.6005 0.14172 0.25487 0.0
C356 C 0.74054 0.17256 0.22268 0.0
C357 C 0.68202 0.17555 0.25082 0.0
C358 C 0.78085 0.18803 0.22119 0.0
C359 C 0.80606 0.22307 0.24484 0.0
C360 C 0.72501 0.19218 0.24795 0.0
C361 C 0.78952 0.24212 0.26937 0.0
C362 C 0.66563 0.19596 0.2724 0.0
C363 C 0.6182 0.12233 0.23386 0.0
N364 N 0.74997 0.2264 0.27033 0.0
N365 N 0.65773 0.13945 0.23241 0.0
H366 H 0.52488 0.4163 0.19742 0.0
H367 H 0.46999 0.20878 0.31161 0.0
H368 H 0.57968 0.4047 0.32533 0.0
H369 H 0.40506 0.22473 0.1979 0.0
H370 H 0.51514 0.27964 0.31254 0.0
H371 H 0.48533 0.34537 0.19262 0.0
C372 C 0.52853 0.39885 0.22465 0.0
C373 C 0.55539 0.41665 0.26217 0.0
C374 C 0.49111 0.26752 0.28726 0.0
C375 C 0.5103 0.33497 0.25654 0.0
C376 C 0.46542 0.22708 0.28658 0.0
C377 C 0.43359 0.21076 0.25475 0.0
C378 C 0.48503 0.29172 0.25566 0.0
C379 C 0.42905 0.23593 0.22323 0.0
C380 C 0.50603 0.35826 0.22175 0.0
C381 C 0.55948 0.39233 0.29567 0.0
N382 N 0.45437 0.27502 0.22457 0.0
N383 N 0.53704 0.35276 0.29221 0.0
H384 H 0.89133 0.48116 0.32937 0.0
H385 H 0.74967 0.54766 0.20752 0.0
H386 H 0.838 0.43942 0.19125 0.0
H387 H 0.82869 0.60804 0.32425 0.0
H388 H 0.77364 0.50098 0.20649 0.0
H389 H 0.86007 0.52085 0.3338 0.0
C390 C 0.87268 0.48001 0.30018 0.0
C391 C 0.8674 0.45699 0.25983 0.0
C392 C 0.78548 0.52438 0.23243 0.0
C393 C 0.83165 0.50273 0.26446 0.0
C394 C 0.77169 0.55085 0.23318 0.0
C395 C 0.78733 0.58188 0.26584 0.0
C396 C 0.81465 0.52878 0.26502 0.0
C397 C 0.81595 0.58476 0.29819 0.0
C398 C 0.85504 0.5029 0.30256 0.0
C399 C 0.84326 0.45711 0.22278 0.0
N400 N 0.82863 0.55864 0.29693 0.0
N401 N 0.82629 0.47965 0.22595 0.0
H402 H 0.1851 0.61113 0.83446 0.0
H403 H 0.18533 0.79007 0.70188 0.0
H404 H 0.1272 0.60127 0.69988 0.0
H405 H 0.26771 0.8069 0.81401 0.0
H406 H 0.16195 0.72026 0.70345 0.0
H407 H 0.21382 0.68232 0.83074 0.0
C408 C 0.17849 0.62395 0.80414 0.0
C409 C 0.15374 0.60024 0.7674 0.0
C410 C 0.1853 0.73915 0.72757 0.0
C411 C 0.18637 0.68142 0.76296 0.0
C412 C 0.19863 0.77907 0.72679 0.0
C413 C 0.22847 0.80436 0.75795 0.0
C414 C 0.20152 0.72411 0.76018 0.0
C415 C 0.2447 0.78842 0.78929 0.0
C416 C 0.19505 0.66453 0.80191 0.0
C417 C 0.14644 0.61839 0.72873 0.0
N418 N 0.23077 0.74918 0.78991 0.0
N419 N 0.16245 0.6578 0.72771 0.0
H420 H 0.43981 0.83365 0.82225 0.0
H421 H 0.61504 0.82581 0.69413 0.0
H422 H 0.4859 0.88421 0.68435 0.0
H423 H 0.55391 0.75053 0.81313 0.0
H424 H 0.56819 0.84831 0.69257 0.0
H425 H 0.48155 0.80402 0.8224 0.0
C426 C 0.45858 0.83842 0.79198 0.0
C427 C 0.4593 0.86144 0.75316 0.0
C428 C 0.56466 0.82667 0.71891 0.0
C429 C 0.50695 0.82766 0.75316 0.0
C430 C 0.59155 0.81381 0.71993 0.0
C431 C 0.58849 0.7863 0.75397 0.0
C432 C 0.53446 0.81238 0.75253 0.0
C433 C 0.55723 0.7717 0.78622 0.0
C434 C 0.48217 0.82131 0.79199 0.0
C435 C 0.48392 0.86633 0.71474 0.0
N436 N 0.53153 0.78522 0.78504 0.0
N437 N 0.50684 0.84983 0.71589 0.0
H438 H 0.23253 0.38039 0.76236 0.0
H439 H 0.40937 0.59996 0.75926 0.0
H440 H 0.21273 0.47761 0.7454 0.0
H441 H 0.42113 0.50001 0.72555 0.0
H442 H 0.3381 0.55691 0.76274 0.0
H443 H 0.30261 0.42518 0.75745 0.0
C444 C 0.24296 0.41128 0.75779 0.0
C445 C 0.21673 0.42532 0.75437 0.0
C446 C 0.35639 0.5446 0.75422 0.0
C447 C 0.29733 0.47697 0.74886 0.0
C448 C 0.39702 0.56905 0.75253 0.0
C449 C 0.42133 0.55362 0.74185 0.0
C450 C 0.34006 0.50443 0.74585 0.0
C451 C 0.40365 0.51337 0.73318 0.0
C452 C 0.28304 0.43683 0.75473 0.0
C453 C 0.232 0.46562 0.74801 0.0
N454 N 0.36423 0.49023 0.73561 0.0
N455 N 0.27144 0.49018 0.74578 0.0
H456 H 0.16164 0.20282 0.35427 0.0
H457 H 0.05367 0.29266 0.20125 0.0
H458 H 0.17752 0.22492 0.20282 0.0
H459 H 0.02733 0.25553 0.34774 0.0
H460 H 0.10929 0.28122 0.20502 0.0
H461 H 0.1216 0.23391 0.35592 0.0
C462 C 0.15699 0.21452 0.32145 0.0
C463 C 0.17253 0.2108 0.27827 0.0
C464 C 0.09193 0.27652 0.2367 0.0
C465 C 0.12666 0.2464 0.2798 0.0
C466 C 0.06062 0.28359 0.23469 0.0
C467 C 0.03626 0.27511 0.27432 0.0
C468 C 0.09864 0.26098 0.27865 0.0
C469 C 0.04565 0.26242 0.3165 0.0
C470 C 0.13407 0.23221 0.32236 0.0
C471 C 0.16539 0.22638 0.23674 0.0
N472 N 0.07586 0.25535 0.31744 0.0
N473 N 0.14279 0.24327 0.23848 0.0
H474 H 0.0566 0.84159 0.19072 0.0
H475 H 0.23785 0.98863 0.3504 0.0
H476 H 0.04933 0.85955 0.34123 0.0
H477 H 0.24804 0.96715 0.20214 0.0
H478 H 0.17075 0.93398 0.35031 0.0
H479 H 0.1277 0.88176 0.19573 0.0
C480 C 0.06995 0.85408 0.22483 0.0
C481 C 0.04689 0.8476 0.26553 0.0
C482 C 0.18778 0.94051 0.31799 0.0
C483 C 0.12842 0.89306 0.27165 0.0
C484 C 0.22616 0.97141 0.31823 0.0
C485 C 0.24824 0.98191 0.27633 0.0
C486 C 0.17111 0.92064 0.27516 0.0
C487 C 0.2319 0.95938 0.23528 0.0
C488 C 0.1106 0.87667 0.22774 0.0
C489 C 0.06589 0.86369 0.30897 0.0
N490 N 0.19392 0.93011 0.23544 0.0
N491 N 0.10549 0.88592 0.31078 0.0
H492 H 0.81899 0.96596 0.36178 0.0
H493 H 0.73164 0.77095 0.20616 0.0
H494 H 0.80373 0.96113 0.20891 0.0
H495 H 0.75905 0.77523 0.35568 0.0
H496 H 0.74499 0.83829 0.21043 0.0
H497 H 0.78624 0.89436 0.36373 0.0
C498 C 0.80854 0.94981 0.32874 0.0
C499 C 0.81465 0.96947 0.28505 0.0
C500 C 0.74718 0.8243 0.24268 0.0
C501 C 0.77698 0.88787 0.28699 0.0
C502 C 0.73899 0.78574 0.24031 0.0
C503 C 0.74366 0.7677 0.28082 0.0
C504 C 0.76084 0.84503 0.28574 0.0
C505 C 0.75455 0.78823 0.32396 0.0
C506 C 0.78987 0.90903 0.32984 0.0
C507 C 0.80046 0.94719 0.24325 0.0
N508 N 0.76328 0.82611 0.32523 0.0
N509 N 0.78248 0.90766 0.24525 0.0
H510 H 0.20932 0.1585 0.65915 0.0
H511 H 0.28508 0.04628 0.82447 0.0
H512 H 0.22416 0.17274 0.8118 0.0
H513 H 0.27743 0.03486 0.67156 0.0
H514 H 0.2734 0.10105 0.81848 0.0
H515 H 0.24225 0.12003 0.66081 0.0
C516 C 0.21985 0.15384 0.69293 0.0
C517 C 0.21361 0.16843 0.73549 0.0
C518 C 0.27522 0.08735 0.78599 0.0
C519 C 0.25127 0.1246 0.73766 0.0
C520 C 0.28245 0.05647 0.78947 0.0
C521 C 0.28282 0.03675 0.74841 0.0
C522 C 0.2671 0.09775 0.74115 0.0
C523 C 0.27798 0.04999 0.70388 0.0
C524 C 0.23863 0.13191 0.69385 0.0
C525 C 0.22761 0.16135 0.77828 0.0
N526 N 0.26958 0.07935 0.70141 0.0
N527 N 0.24556 0.13977 0.77828 0.0
H528 H 0.97621 0.82522 0.6744 0.0
H529 H 0.77385 0.72337 0.81537 0.0
H530 H 0.96385 0.79116 0.82258 0.0
H531 H 0.78524 0.76252 0.66977 0.0
H532 H 0.8413 0.73656 0.81367 0.0
H533 H 0.90479 0.79278 0.66744 0.0
C534 C 0.95845 0.8106 0.70529 0.0
C535 C 0.97595 0.81134 0.74928 0.0
C536 C 0.82883 0.74132 0.78158 0.0
C537 C 0.89446 0.77414 0.74165 0.0
C538 C 0.79018 0.73322 0.78244 0.0
C539 C 0.77412 0.74127 0.74239 0.0
C540 C 0.85158 0.75821 0.74058 0.0
C541 C 0.79667 0.75538 0.70102 0.0
C542 C 0.91774 0.79213 0.70135 0.0
C543 C 0.9516 0.79203 0.78824 0.0
N544 N 0.83452 0.76389 0.7013 0.0
N545 N 0.91218 0.77445 0.78358 0.0
H546 H 0.97133 0.24225 0.68676 0.0
H547 H 0.89268 0.0507 0.83708 0.0
H548 H 0.98918 0.24465 0.83873 0.0
H549 H 0.83222 0.05348 0.70937 0.0
H550 H 0.92963 0.12184 0.83683 0.0
H551 H 0.91943 0.17377 0.69284 0.0
C552 C 0.96301 0.22867 0.72166 0.0
C553 C 0.98374 0.24895 0.76246 0.0
C554 C 0.908 0.10683 0.80912 0.0
C555 C 0.92648 0.17051 0.76938 0.0
C556 C 0.88687 0.06614 0.80914 0.0
C557 C 0.8591 0.04578 0.7732 0.0
C558 C 0.90196 0.12752 0.77246 0.0
C559 C 0.85375 0.06769 0.73734 0.0
C560 C 0.9338 0.18958 0.72508 0.0
C561 C 0.97309 0.23001 0.80671 0.0
N562 N 0.8752 0.10736 0.73767 0.0
N563 N 0.94568 0.19146 0.80892 0.0
loop_
_geom_bond_atom_site_label_1
_geom_bond_atom_site_label_2
_geom_bond_distance
_geom_bond_site_symmetry_2
_ccdc_geom_bond_type
Dy0 O3 2.307 . S
Dy0 O5 2.395 . S
Dy0 O6 2.379 . S
Dy0 O8 2.339 . S
Dy0 O10 2.298 . S
Dy0 O14 2.275 . S
Dy0 C22 2.738 . S
Dy1 O4 2.298 . S
Dy1 O7 2.275 . S
Dy1 O9 2.307 . S
Dy1 O11 2.395 . S
Dy1 O12 2.379 . S
Dy1 O15 2.339 . S
Dy1 C31 2.738 . S
C2 O14 1.254 . S
C2 O15 1.257 . S
O3 Dy0 2.307 . S
O3 C13 1.266 . S
O4 Dy1 2.298 . S
O4 C13 1.236 . S
O5 Dy0 2.395 . S
O5 C22 1.255 . S
O6 Dy0 2.379 . S
O6 C22 1.249 . S
O7 Dy1 2.275 . S
O7 C23 1.254 . S
O8 Dy0 2.339 . S
O8 C23 1.257 . S
O9 Dy1 2.307 . S
O9 C24 1.266 . S
O10 Dy0 2.298 . S
O10 C24 1.236 . S
O11 Dy1 2.395 . S
O11 C31 1.255 . S
O12 Dy1 2.379 . S
O12 C31 1.249 . S
C13 O3 1.266 . S
C13 O4 1.236 . S
O14 Dy0 2.275 . S
O14 C2 1.254 . S
O15 Dy1 2.339 . S
O15 C2 1.257 . S
C16 C19 1.344 . S
C16 C20 1.328 . S
C16 C22 1.516 . S
C17 C18 1.304 . S
C17 C21 1.323 . S
C18 C17 1.304 . S
C18 C19 1.371 . S
C18 H32 0.930 . S
C19 C16 1.344 . S
C19 C18 1.371 . S
C19 H33 0.931 . S
C20 C16 1.328 . S
C20 C21 1.433 . S
C20 H34 0.931 . S
C21 C17 1.323 . S
C21 C20 1.433 . S
C21 H35 0.933 . S
C22 Dy0 2.738 . S
C22 O5 1.255 . S
C22 O6 1.249 . S
C22 C16 1.516 . S
C23 O7 1.254 . S
C23 O8 1.257 . S
C24 O9 1.266 . S
C24 O10 1.236 . S
C25 C28 1.344 . S
C25 C29 1.328 . S
C25 C31 1.516 . S
C26 C27 1.304 . S
C26 C30 1.323 . S
C27 C26 1.304 . S
C27 C28 1.371 . S
C27 H36 0.930 . S
C28 C25 1.344 . S
C28 C27 1.371 . S
C28 H37 0.931 . S
C29 C25 1.328 . S
C29 C30 1.433 . S
C29 H38 0.931 . S
C30 C26 1.323 . S
C30 C29 1.433 . S
C30 H39 0.933 . S
C31 Dy1 2.738 . S
C31 O11 1.255 . S
C31 O12 1.249 . S
C31 C25 1.516 . S
H32 C18 0.930 . S
H33 C19 0.931 . S
H34 C20 0.931 . S
H35 C21 0.933 . S
H36 C27 0.930 . S
H37 C28 0.931 . S
H38 C29 0.931 . S
H39 C30 0.933 . S
Dy40 O43 2.307 . S
Dy40 O45 2.395 . S
Dy40 O46 2.379 . S
Dy40 O48 2.339 . S
Dy40 O50 2.298 . S
Dy40 O54 2.275 . S
Dy40 C62 2.738 . S
Dy41 O44 2.298 . S
Dy41 O47 2.275 . S
Dy41 O49 2.307 . S
Dy41 O51 2.395 . S
Dy41 O52 2.379 . S
Dy41 O55 2.339 . S
Dy41 C71 2.738 . S
C42 O54 1.254 . S
C42 O55 1.257 . S
O43 Dy40 2.307 . S
O43 C53 1.266 . S
O44 Dy41 2.298 . S
O44 C53 1.236 . S
O45 Dy40 2.395 . S
O45 C62 1.255 . S
O46 Dy40 2.379 . S
O46 C62 1.249 . S
O47 Dy41 2.275 . S
O47 C63 1.254 . S
O48 Dy40 2.339 . S
O48 C63 1.257 . S
O49 Dy41 2.307 . S
O49 C64 1.266 . S
O50 Dy40 2.298 . S
O50 C64 1.236 . S
O51 Dy41 2.395 . S
O51 C71 1.255 . S
O52 Dy41 2.379 . S
O52 C71 1.249 . S
C53 O43 1.266 . S
C53 O44 1.236 . S
O54 Dy40 2.275 . S
O54 C42 1.254 . S
O55 Dy41 2.339 . S
O55 C42 1.257 . S
C56 C59 1.344 . S
C56 C60 1.328 . S
C56 C62 1.516 . S
C57 C58 1.304 . S
C57 C61 1.323 . S
C58 C57 1.304 . S
C58 C59 1.371 . S
C58 H72 0.930 . S
C59 C56 1.344 . S
C59 C58 1.371 . S
C59 H73 0.931 . S
C60 C56 1.328 . S
C60 C61 1.433 . S
C60 H74 0.931 . S
C61 C57 1.323 . S
C61 C60 1.433 . S
C61 H75 0.933 . S
C62 Dy40 2.738 . S
C62 O45 1.255 . S
C62 O46 1.249 . S
C62 C56 1.516 . S
C63 O47 1.254 . S
C63 O48 1.257 . S
C64 O49 1.266 . S
C64 O50 1.236 . S
C65 C68 1.344 . S
C65 C69 1.328 . S
C65 C71 1.516 . S
C66 C67 1.314 . S
C66 C70 1.321 . S
C67 C66 1.314 . S
C67 C68 1.371 . S
C67 H76 0.930 . S
C68 C65 1.344 . S
C68 C67 1.371 . S
C68 H77 0.931 . S
C69 C65 1.328 . S
C69 C70 1.433 . S
C69 H78 0.931 . S
C70 C66 1.321 . S
C70 C69 1.433 . S
C70 H79 0.933 1_655 S
C71 Dy41 2.738 . S
C71 O51 1.255 . S
C71 O52 1.249 . S
C71 C65 1.516 . S
H72 C58 0.930 . S
H73 C59 0.931 . S
H74 C60 0.931 . S
H75 C61 0.933 . S
H76 C67 0.930 . S
H77 C68 0.931 . S
H78 C69 0.931 . S
H79 C70 0.933 1_455 S
Dy80 O83 2.307 . S
Dy80 O85 2.395 . S
Dy80 O86 2.379 . S
Dy80 O88 2.339 . S
Dy80 O90 2.298 . S
Dy80 O94 2.275 . S
Dy80 C102 2.738 . S
Dy81 O84 2.298 . S
Dy81 O87 2.275 . S
Dy81 O89 2.307 . S
Dy81 O91 2.395 . S
Dy81 O92 2.379 . S
Dy81 O95 2.339 . S
Dy81 C111 2.738 . S
C82 O94 1.254 . S
C82 O95 1.257 . S
O83 Dy80 2.307 . S
O83 C93 1.266 . S
O84 Dy81 2.298 . S
O84 C93 1.236 . S
O85 Dy80 2.395 . S
O85 C102 1.255 . S
O86 Dy80 2.379 . S
O86 C102 1.249 . S
O87 Dy81 2.275 . S
O87 C103 1.254 . S
O88 Dy80 2.339 . S
O88 C103 1.257 . S
O89 Dy81 2.307 . S
O89 C104 1.266 . S
O90 Dy80 2.298 . S
O90 C104 1.236 . S
O91 Dy81 2.395 . S
O91 C111 1.255 . S
O92 Dy81 2.379 . S
O92 C111 1.249 . S
C93 O83 1.266 . S
C93 O84 1.236 . S
O94 Dy80 2.275 . S
O94 C82 1.254 . S
O95 Dy81 2.339 . S
O95 C82 1.257 . S
C96 C99 1.344 . S
C96 C100 1.328 . S
C96 C102 1.516 . S
C97 C98 1.304 . S
C97 C101 1.323 . S
C98 C97 1.304 . S
C98 C99 1.371 . S
C98 H112 0.930 . S
C99 C96 1.344 . S
C99 C98 1.371 . S
C99 H113 0.931 . S
C100 C96 1.328 . S
C100 C101 1.433 . S
C100 H114 0.931 . S
C101 C97 1.323 . S
C101 C100 1.433 . S
C101 H115 0.933 . S
C102 Dy80 2.738 . S
C102 O85 1.255 . S
C102 O86 1.249 . S
C102 C96 1.516 . S
C103 O87 1.254 . S
C103 O88 1.257 . S
C104 O89 1.266 . S
C104 O90 1.236 . S
C105 C108 1.344 . S
C105 C109 1.328 . S
C105 C111 1.516 . S
C106 C107 1.316 . S
C106 C110 1.330 . S
C107 C106 1.316 . S
C107 C108 1.371 . S
C107 H116 0.930 . S
C108 C105 1.344 . S
C108 C107 1.371 . S
C108 H117 0.931 . S
C109 C105 1.328 . S
C109 C110 1.433 . S
C109 H118 0.931 . S
C110 C106 1.330 . S
C110 C109 1.433 . S
C110 H119 0.933 1_545 S
C111 Dy81 2.738 . S
C111 O91 1.255 . S
C111 O92 1.249 . S
C111 C105 1.516 . S
H112 C98 0.930 . S
H113 C99 0.931 . S
H114 C100 0.931 . S
H115 C101 0.933 . S
H116 C107 0.930 . S
H117 C108 0.931 . S
H118 C109 0.931 . S
H119 C110 0.933 1_565 S
Dy120 O123 2.307 . S
Dy120 O125 2.395 . S
Dy120 O126 2.379 . S
Dy120 O128 2.339 . S
Dy120 O130 2.298 . S
Dy120 O134 2.275 . S
Dy120 C142 2.738 . S
Dy121 O124 2.298 . S
Dy121 O127 2.275 . S
Dy121 O129 2.307 . S
Dy121 O131 2.395 . S
Dy121 O132 2.379 . S
Dy121 O135 2.339 . S
Dy121 C151 2.738 . S
C122 O134 1.254 . S
C122 O135 1.257 . S
O123 Dy120 2.307 . S
O123 C133 1.266 . S
O124 Dy121 2.298 . S
O124 C133 1.236 . S
O125 Dy120 2.395 . S
O125 C142 1.255 . S
O126 Dy120 2.379 . S
O126 C142 1.249 . S
O127 Dy121 2.275 . S
O127 C143 1.254 . S
O128 Dy120 2.339 . S
O128 C143 1.257 . S
O129 Dy121 2.307 . S
O129 C144 1.266 . S
O130 Dy120 2.298 . S
O130 C144 1.236 . S
O131 Dy121 2.395 . S
O131 C151 1.255 . S
O132 Dy121 2.379 . S
O132 C151 1.249 . S
C133 O123 1.266 . S
C133 O124 1.236 . S
O134 Dy120 2.275 . S
O134 C122 1.254 . S
O135 Dy121 2.339 . S
O135 C122 1.257 . S
C136 C139 1.344 . S
C136 C140 1.328 . S
C136 C142 1.516 . S
C137 C138 1.304 . S
C137 C141 1.323 . S
C138 C137 1.304 . S
C138 C139 1.371 . S
C138 H152 0.930 . S
C139 C136 1.344 . S
C139 C138 1.371 . S
C139 H153 0.931 . S
C140 C136 1.328 . S
C140 C141 1.433 . S
C140 H154 0.931 . S
C141 C137 1.323 . S
C141 C140 1.433 . S
C141 H155 0.933 . S
C142 Dy120 2.738 . S
C142 O125 1.255 . S
C142 O126 1.249 . S
C142 C136 1.516 . S
C143 O127 1.254 . S
C143 O128 1.257 . S
C144 O129 1.266 . S
C144 O130 1.236 . S
C145 C148 1.344 . S
C145 C149 1.328 . S
C145 C151 1.516 . S
C146 C147 1.304 . S
C146 C150 1.323 . S
C147 C146 1.304 . S
C147 C148 1.371 . S
C147 H156 0.930 . S
C148 C145 1.344 . S
C148 C147 1.371 . S
C148 H157 0.931 . S
C149 C145 1.328 . S
C149 C150 1.433 . S
C149 H158 0.931 . S
C150 C146 1.323 . S
C150 C149 1.433 . S
C150 H159 0.933 . S
C151 Dy121 2.738 . S
C151 O131 1.255 . S
C151 O132 1.249 . S
C151 C145 1.516 . S
H152 C138 0.930 . S
H153 C139 0.931 . S
H154 C140 0.931 . S
H155 C141 0.933 . S
H156 C147 0.930 . S
H157 C148 0.931 . S
H158 C149 0.931 . S
H159 C150 0.933 . S
Dy160 O163 2.307 . S
Dy160 O165 2.395 . S
Dy160 O166 2.379 . S
Dy160 O168 2.339 . S
Dy160 O170 2.298 . S
Dy160 O174 2.275 . S
Dy160 C182 2.738 . S
Dy161 O164 2.298 . S
Dy161 O167 2.275 . S
Dy161 O169 2.307 . S
Dy161 O171 2.395 . S
Dy161 O172 2.379 . S
Dy161 O175 2.339 . S
Dy161 C191 2.738 . S
C162 O174 1.254 . S
C162 O175 1.257 . S
O163 Dy160 2.307 . S
O163 C173 1.266 . S
O164 Dy161 2.298 . S
O164 C173 1.236 . S
O165 Dy160 2.395 . S
O165 C182 1.255 . S
O166 Dy160 2.379 . S
O166 C182 1.249 . S
O167 Dy161 2.275 . S
O167 C183 1.254 . S
O168 Dy160 2.339 . S
O168 C183 1.257 . S
O169 Dy161 2.307 . S
O169 C184 1.266 . S
O170 Dy160 2.298 . S
O170 C184 1.236 . S
O171 Dy161 2.395 . S
O171 C191 1.255 . S
O172 Dy161 2.379 . S
O172 C191 1.249 . S
C173 O163 1.266 . S
C173 O164 1.236 . S
O174 Dy160 2.275 . S
O174 C162 1.254 . S
O175 Dy161 2.339 . S
O175 C162 1.257 . S
C176 C179 1.344 . S
C176 C180 1.328 . S
C176 C182 1.516 . S
C177 C178 1.304 . S
C177 C181 1.323 . S
C178 C177 1.304 . S
C178 C179 1.371 . S
C178 H192 0.930 . S
C179 C176 1.344 . S
C179 C178 1.371 . S
C179 H193 0.931 . S
C180 C176 1.328 . S
C180 C181 1.433 . S
C180 H194 0.931 . S
C181 C177 1.323 . S
C181 C180 1.433 . S
C181 H195 0.933 . S
C182 Dy160 2.738 . S
C182 O165 1.255 . S
C182 O166 1.249 . S
C182 C176 1.516 . S
C183 O167 1.254 . S
C183 O168 1.257 . S
C184 O169 1.266 . S
C184 O170 1.236 . S
C185 C188 1.344 . S
C185 C189 1.328 . S
C185 C191 1.516 . S
C186 C187 1.316 . S
C186 C190 1.330 . S
C187 C186 1.316 . S
C187 C188 1.371 . S
C187 H196 0.930 . S
C188 C185 1.344 . S
C188 C187 1.371 . S
C188 H197 0.931 . S
C189 C185 1.328 . S
C189 C190 1.433 . S
C189 H198 0.931 . S
C190 C186 1.330 . S
C190 C189 1.433 . S
C190 H199 0.933 1_455 S
C191 Dy161 2.738 . S
C191 O171 1.255 . S
C191 O172 1.249 . S
C191 C185 1.516 . S
H192 C178 0.930 . S
H193 C179 0.931 . S
H194 C180 0.931 . S
H195 C181 0.933 . S
H196 C187 0.930 . S
H197 C188 0.931 . S
H198 C189 0.931 . S
H199 C190 0.933 1_655 S
Dy200 O203 2.307 . S
Dy200 O205 2.395 . S
Dy200 O206 2.379 . S
Dy200 O208 2.339 . S
Dy200 O210 2.298 . S
Dy200 O214 2.275 . S
Dy200 C222 2.738 . S
Dy201 O204 2.298 . S
Dy201 O207 2.275 . S
Dy201 O209 2.307 . S
Dy201 O211 2.395 . S
Dy201 O212 2.379 . S
Dy201 O215 2.339 . S
Dy201 C231 2.738 . S
C202 O214 1.254 . S
C202 O215 1.257 . S
O203 Dy200 2.307 . S
O203 C213 1.266 . S
O204 Dy201 2.298 . S
O204 C213 1.236 . S
O205 Dy200 2.395 . S
O205 C222 1.255 . S
O206 Dy200 2.379 . S
O206 C222 1.249 . S
O207 Dy201 2.275 . S
O207 C223 1.254 . S
O208 Dy200 2.339 . S
O208 C223 1.257 . S
O209 Dy201 2.307 . S
O209 C224 1.266 . S
O210 Dy200 2.298 . S
O210 C224 1.236 . S
O211 Dy201 2.395 . S
O211 C231 1.255 . S
O212 Dy201 2.379 . S
O212 C231 1.249 . S
C213 O203 1.266 . S
C213 O204 1.236 . S
O214 Dy200 2.275 . S
O214 C202 1.254 . S
O215 Dy201 2.339 . S
O215 C202 1.257 . S
C216 C219 1.344 . S
C216 C220 1.328 . S
C216 C222 1.516 . S
C217 C218 1.304 . S
C217 C221 1.323 . S
C218 C217 1.304 . S
C218 C219 1.371 . S
C218 H232 0.930 . S
C219 C216 1.344 . S
C219 C218 1.371 . S
C219 H233 0.931 . S
C220 C216 1.328 . S
C220 C221 1.433 . S
C220 H234 0.931 . S
C221 C217 1.323 . S
C221 C220 1.433 . S
C221 H235 0.933 . S
C222 Dy200 2.738 . S
C222 O205 1.255 . S
C222 O206 1.249 . S
C222 C216 1.516 . S
C223 O207 1.254 . S
C223 O208 1.257 . S
C224 O209 1.266 . S
C224 O210 1.236 . S
C225 C228 1.344 . S
C225 C229 1.328 . S
C225 C231 1.516 . S
C226 C227 1.314 . S
C226 C230 1.321 . S
C227 C226 1.314 . S
C227 C228 1.371 . S
C227 H236 0.930 . S
C228 C225 1.344 . S
C228 C227 1.371 . S
C228 H237 0.931 . S
C229 C225 1.328 . S
C229 C230 1.433 . S
C229 H238 0.931 . S
C230 C226 1.321 . S
C230 C229 1.433 . S
C230 H239 0.933 1_565 S
C231 Dy201 2.738 . S
C231 O211 1.255 . S
C231 O212 1.249 . S
C231 C225 1.516 . S
H232 C218 0.930 . S
H233 C219 0.931 . S
H234 C220 0.931 . S
H235 C221 0.933 . S
H236 C227 0.930 . S
H237 C228 0.931 . S
H238 C229 0.931 . S
H239 C230 0.933 1_545 S
H240 C246 0.930 . S
H241 C250 0.930 . S
H242 C255 0.929 . S
H243 C253 0.929 . S
H244 C248 0.935 . S
H245 C254 0.935 . S
C246 H240 0.930 . S
C246 C247 1.367 . S
C246 C254 1.373 1_565 S
C247 C246 1.367 . S
C247 C255 1.433 . S
C248 H244 0.935 . S
C248 C250 1.373 1_565 S
C248 C252 1.347 1_565 S
C249 C252 1.463 1_566 S
C249 C254 1.347 1_565 S
C249 N257 1.427 . S
C250 H241 0.930 . S
C250 C248 1.373 1_545 S
C250 C251 1.367 . S
C251 C250 1.367 . S
C251 C253 1.433 . S
C252 C248 1.347 1_545 S
C252 C249 1.463 1_544 S
C252 N256 1.427 . S
C253 H243 0.929 . S
C253 C251 1.433 . S
C253 N256 1.384 . S
C254 H245 0.935 . S
C254 C246 1.373 1_545 S
C254 C249 1.347 1_545 S
C255 H242 0.929 . S
C255 C247 1.433 . S
C255 N257 1.384 . S
N256 C252 1.427 . S
N256 C253 1.384 . S
N257 C249 1.427 . S
N257 C255 1.384 . S
H258 C264 0.930 . S
H259 C268 0.930 . S
H260 C273 0.929 . S
H261 C271 0.929 . S
H262 C266 0.929 . S
H263 C272 0.929 . S
C264 H258 0.930 . S
C264 C265 1.367 . S
C264 C272 1.378 . S
C265 C264 1.367 . S
C265 C273 1.433 . S
C266 H262 0.929 . S
C266 C268 1.378 . S
C266 C270 1.350 . S
C267 C270 1.463 . S
C267 C272 1.350 . S
C267 N275 1.427 . S
C268 H259 0.930 . S
C268 C266 1.378 . S
C268 C269 1.367 . S
C269 C268 1.367 . S
C269 C271 1.433 . S
C270 C266 1.350 . S
C270 C267 1.463 . S
C270 N274 1.427 . S
C271 H261 0.929 . S
C271 C269 1.433 . S
C271 N274 1.384 . S
C272 H263 0.929 . S
C272 C264 1.378 . S
C272 C267 1.350 . S
C273 H260 0.929 . S
C273 C265 1.433 . S
C273 N275 1.384 . S
N274 C270 1.427 . S
N274 C271 1.384 . S
N275 C267 1.427 . S
N275 C273 1.384 . S
H276 C282 0.930 . S
H277 C286 0.930 . S
H278 C291 0.929 . S
H279 C289 0.929 . S
H280 C284 0.929 1_554 S
H281 C290 0.929 1_556 S
C282 H276 0.930 . S
C282 C283 1.367 . S
C282 C290 1.378 . S
C283 C282 1.367 . S
C283 C291 1.433 . S
C284 H280 0.929 1_556 S
C284 C286 1.378 . S
C284 C288 1.350 . S
C285 C288 1.463 1_654 S
C285 C290 1.350 . S
C285 N293 1.427 . S
C286 H277 0.930 . S
C286 C284 1.378 . S
C286 C287 1.367 . S
C287 C286 1.367 . S
C287 C289 1.433 . S
C288 C284 1.350 . S
C288 C285 1.463 1_456 S
C288 N292 1.427 . S
C289 H279 0.929 . S
C289 C287 1.433 . S
C289 N292 1.384 . S
C290 H281 0.929 1_554 S
C290 C282 1.378 . S
C290 C285 1.350 . S
C291 H278 0.929 . S
C291 C283 1.433 . S
C291 N293 1.384 . S
N292 C288 1.427 . S
N292 C289 1.384 . S
N293 C285 1.427 . S
N293 C291 1.384 . S
H294 C300 0.930 . S
H295 C304 0.930 . S
H296 C309 0.929 . S
H297 C307 0.929 . S
H298 C302 0.929 . S
H299 C308 0.929 . S
C300 H294 0.930 . S
C300 C301 1.367 . S
C300 C308 1.378 . S
C301 C300 1.367 . S
C301 C309 1.433 . S
C302 H298 0.929 . S
C302 C304 1.378 . S
C302 C306 1.350 . S
C303 C306 1.463 1_545 S
C303 C308 1.350 . S
C303 N311 1.427 . S
C304 H295 0.930 . S
C304 C302 1.378 . S
C304 C305 1.367 . S
C305 C304 1.367 . S
C305 C307 1.433 . S
C306 C302 1.350 . S
C306 C303 1.463 1_565 S
C306 N310 1.427 . S
C307 H297 0.929 . S
C307 C305 1.433 . S
C307 N310 1.384 . S
C308 H299 0.929 . S
C308 C300 1.378 . S
C308 C303 1.350 . S
C309 H296 0.929 . S
C309 C301 1.433 . S
C309 N311 1.384 . S
N310 C306 1.427 . S
N310 C307 1.384 . S
N311 C303 1.427 . S
N311 C309 1.384 . S
H312 C318 0.930 . S
H313 C322 0.930 . S
H314 C327 0.929 . S
H315 C325 0.929 . S
H316 C320 0.929 1_556 S
H317 C326 0.929 1_554 S
C318 H312 0.930 . S
C318 C319 1.367 . S
C318 C326 1.378 . S
C319 C318 1.367 . S
C319 C327 1.433 . S
C320 H316 0.929 1_554 S
C320 C322 1.378 . S
C320 C324 1.350 . S
C321 C324 1.463 1_556 S
C321 C326 1.350 . S
C321 N329 1.427 . S
C322 H313 0.930 . S
C322 C320 1.378 . S
C322 C323 1.367 . S
C323 C322 1.367 . S
C323 C325 1.433 . S
C324 C320 1.350 . S
C324 C321 1.463 1_554 S
C324 N328 1.427 . S
C325 H315 0.929 . S
C325 C323 1.433 . S
C325 N328 1.384 . S
C326 H317 0.929 1_556 S
C326 C318 1.378 . S
C326 C321 1.350 . S
C327 H314 0.929 . S
C327 C319 1.433 . S
C327 N329 1.384 . S
N328 C324 1.427 . S
N328 C325 1.384 . S
N329 C321 1.427 . S
N329 C327 1.384 . S
H330 C336 0.930 . S
H331 C340 0.930 . S
H332 C345 0.929 . S
H333 C343 0.929 . S
H334 C338 0.929 . S
H335 C344 0.929 . S
C336 H330 0.930 . S
C336 C337 1.367 . S
C336 C344 1.378 . S
C337 C336 1.367 . S
C337 C345 1.433 . S
C338 H334 0.929 . S
C338 C340 1.378 . S
C338 C342 1.350 . S
C339 C342 1.463 1_655 S
C339 C344 1.350 . S
C339 N347 1.427 . S
C340 H331 0.930 . S
C340 C338 1.378 . S
C340 C341 1.367 . S
C341 C340 1.367 . S
C341 C343 1.433 . S
C342 C338 1.350 . S
C342 C339 1.463 1_455 S
C342 N346 1.427 . S
C343 H333 0.929 . S
C343 C341 1.433 . S
C343 N346 1.384 . S
C344 H335 0.929 . S
C344 C336 1.378 . S
C344 C339 1.350 . S
C345 H332 0.929 . S
C345 C337 1.433 . S
C345 N347 1.384 . S
N346 C342 1.427 . S
N346 C343 1.384 . S
N347 C339 1.427 . S
N347 C345 1.384 . S
H348 C354 0.930 . S
H349 C358 0.930 . S
H350 C363 0.929 . S
H351 C361 0.929 . S
H352 C356 0.929 . S
H353 C362 0.929 . S
C354 H348 0.930 . S
C354 C355 1.367 . S
C354 C362 1.378 . S
C355 C354 1.367 . S
C355 C363 1.433 . S
C356 H352 0.929 . S
C356 C358 1.378 . S
C356 C360 1.350 . S
C357 C360 1.463 . S
C357 C362 1.350 . S
C357 N365 1.427 . S
C358 H349 0.930 . S
C358 C356 1.378 . S
C358 C359 1.367 . S
C359 C358 1.367 . S
C359 C361 1.433 . S
C360 C356 1.350 . S
C360 C357 1.463 . S
C360 N364 1.427 . S
C361 H351 0.929 . S
C361 C359 1.433 . S
C361 N364 1.384 . S
C362 H353 0.929 . S
C362 C354 1.378 . S
C362 C357 1.350 . S
C363 H350 0.929 . S
C363 C355 1.433 . S
C363 N365 1.384 . S
N364 C360 1.427 . S
N364 C361 1.384 . S
N365 C357 1.427 . S
N365 C363 1.384 . S
H366 C372 0.930 . S
H367 C376 0.930 . S
H368 C381 0.929 . S
H369 C379 0.929 . S
H370 C374 0.929 . S
H371 C380 0.929 . S
C372 H366 0.930 . S
C372 C373 1.367 . S
C372 C380 1.378 . S
C373 C372 1.367 . S
C373 C381 1.433 . S
C374 H370 0.929 . S
C374 C376 1.378 . S
C374 C378 1.350 . S
C375 C378 1.463 . S
C375 C380 1.350 . S
C375 N383 1.427 . S
C376 H367 0.930 . S
C376 C374 1.378 . S
C376 C377 1.367 . S
C377 C376 1.367 . S
C377 C379 1.433 . S
C378 C374 1.350 . S
C378 C375 1.463 . S
C378 N382 1.427 . S
C379 H369 0.929 . S
C379 C377 1.433 . S
C379 N382 1.384 . S
C380 H371 0.929 . S
C380 C372 1.378 . S
C380 C375 1.350 . S
C381 H368 0.929 . S
C381 C373 1.433 . S
C381 N383 1.384 . S
N382 C378 1.427 . S
N382 C379 1.384 . S
N383 C375 1.427 . S
N383 C381 1.384 . S
H384 C390 0.930 . S
H385 C394 0.930 . S
H386 C399 0.929 . S
H387 C397 0.929 . S
H388 C392 0.929 . S
H389 C398 0.929 . S
C390 H384 0.930 . S
C390 C391 1.367 . S
C390 C398 1.378 . S
C391 C390 1.367 . S
C391 C399 1.433 . S
C392 H388 0.929 . S
C392 C394 1.378 . S
C392 C396 1.350 . S
C393 C396 1.463 . S
C393 C398 1.350 . S
C393 N401 1.427 . S
C394 H385 0.930 . S
C394 C392 1.378 . S
C394 C395 1.367 . S
C395 C394 1.367 . S
C395 C397 1.433 . S
C396 C392 1.350 . S
C396 C393 1.463 . S
C396 N400 1.427 . S
C397 H387 0.929 . S
C397 C395 1.433 . S
C397 N400 1.384 . S
C398 H389 0.929 . S
C398 C390 1.378 . S
C398 C393 1.350 . S
C399 H386 0.929 . S
C399 C391 1.433 . S
C399 N401 1.384 . S
N400 C396 1.427 . S
N400 C397 1.384 . S
N401 C393 1.427 . S
N401 C399 1.384 . S
H402 C408 0.930 . S
H403 C412 0.930 . S
H404 C417 0.929 . S
H405 C415 0.929 . S
H406 C410 0.929 . S
H407 C416 0.929 . S
C408 H402 0.930 . S
C408 C409 1.367 . S
C408 C416 1.378 . S
C409 C408 1.367 . S
C409 C417 1.433 . S
C410 H406 0.929 . S
C410 C412 1.378 . S
C410 C414 1.350 . S
C411 C414 1.463 . S
C411 C416 1.350 . S
C411 N419 1.427 . S
C412 H403 0.930 . S
C412 C410 1.378 . S
C412 C413 1.367 . S
C413 C412 1.367 . S
C413 C415 1.433 . S
C414 C410 1.350 . S
C414 C411 1.463 . S
C414 N418 1.427 . S
C415 H405 0.929 . S
C415 C413 1.433 . S
C415 N418 1.384 . S
C416 H407 0.929 . S
C416 C408 1.378 . S
C416 C411 1.350 . S
C417 H404 0.929 . S
C417 C409 1.433 . S
C417 N419 1.384 . S
N418 C414 1.427 . S
N418 C415 1.384 . S
N419 C411 1.427 . S
N419 C417 1.384 . S
H420 C426 0.930 . S
H421 C430 0.930 . S
H422 C435 0.929 . S
H423 C433 0.929 . S
H424 C428 0.929 . S
H425 C434 0.929 . S
C426 H420 0.930 . S
C426 C427 1.367 . S
C426 C434 1.378 . S
C427 C426 1.367 . S
C427 C435 1.433 . S
C428 H424 0.929 . S
C428 C430 1.378 . S
C428 C432 1.350 . S
C429 C432 1.463 . S
C429 C434 1.350 . S
C429 N437 1.427 . S
C430 H421 0.930 . S
C430 C428 1.378 . S
C430 C431 1.367 . S
C431 C430 1.367 . S
C431 C433 1.433 . S
C432 C428 1.350 . S
C432 C429 1.463 . S
C432 N436 1.427 . S
C433 H423 0.929 . S
C433 C431 1.433 . S
C433 N436 1.384 . S
C434 H425 0.929 . S
C434 C426 1.378 . S
C434 C429 1.350 . S
C435 H422 0.929 . S
C435 C427 1.433 . S
C435 N437 1.384 . S
N436 C432 1.427 . S
N436 C433 1.384 . S
N437 C429 1.427 . S
N437 C435 1.384 . S
H438 C444 0.930 . S
H439 C448 0.930 . S
H440 C453 0.929 . S
H441 C451 0.929 . S
H442 C446 0.929 . S
H443 C452 0.929 . S
C444 H438 0.930 . S
C444 C445 1.367 . S
C444 C452 1.378 . S
C445 C444 1.367 . S
C445 C453 1.433 . S
C446 H442 0.929 . S
C446 C448 1.378 . S
C446 C450 1.350 . S
C447 C450 1.463 . S
C447 C452 1.350 . S
C447 N455 1.427 . S
C448 H439 0.930 . S
C448 C446 1.378 . S
C448 C449 1.367 . S
C449 C448 1.367 . S
C449 C451 1.433 . S
C450 C446 1.350 . S
C450 C447 1.463 . S
C450 N454 1.427 . S
C451 H441 0.929 . S
C451 C449 1.433 . S
C451 N454 1.384 . S
C452 H443 0.929 . S
C452 C444 1.378 . S
C452 C447 1.350 . S
C453 H440 0.929 . S
C453 C445 1.433 . S
C453 N455 1.384 . S
N454 C450 1.427 . S
N454 C451 1.384 . S
N455 C447 1.427 . S
N455 C453 1.384 . S
H456 C462 0.930 . S
H457 C466 0.930 . S
H458 C471 0.929 . S
H459 C469 0.929 . S
H460 C464 0.929 . S
H461 C470 0.929 . S
C462 H456 0.930 . S
C462 C463 1.367 . S
C462 C470 1.378 . S
C463 C462 1.367 . S
C463 C471 1.433 . S
C464 H460 0.929 . S
C464 C466 1.378 . S
C464 C468 1.350 . S
C465 C468 1.463 . S
C465 C470 1.350 . S
C465 N473 1.427 . S
C466 H457 0.930 . S
C466 C464 1.378 . S
C466 C467 1.367 1_455 S
C467 C466 1.367 1_655 S
C467 C469 1.433 . S
C468 C464 1.350 . S
C468 C465 1.463 . S
C468 N472 1.427 . S
C469 H459 0.929 . S
C469 C467 1.433 . S
C469 N472 1.384 1_655 S
C470 H461 0.929 . S
C470 C462 1.378 . S
C470 C465 1.350 . S
C471 H458 0.929 . S
C471 C463 1.433 . S
C471 N473 1.384 . S
N472 C468 1.427 . S
N472 C469 1.384 1_455 S
N473 C465 1.427 . S
N473 C471 1.384 . S
H474 C480 0.930 . S
H475 C484 0.930 . S
H476 C489 0.929 . S
H477 C487 0.931 1_545 S
H478 C482 0.929 . S
H479 C488 0.929 . S
C480 H474 0.930 . S
C480 C481 1.367 . S
C480 C488 1.378 . S
C481 C480 1.367 . S
C481 C489 1.433 . S
C482 H478 0.929 . S
C482 C484 1.378 1_565 S
C482 C486 1.350 . S
C483 C486 1.463 . S
C483 C488 1.350 . S
C483 N491 1.427 . S
C484 H475 0.930 . S
C484 C482 1.378 1_545 S
C484 C485 1.367 . S
C485 C484 1.367 . S
C485 C487 1.432 1_545 S
C486 C482 1.350 . S
C486 C483 1.463 . S
C486 N490 1.427 . S
C487 H477 0.931 1_565 S
C487 C485 1.432 1_565 S
C487 N490 1.383 . S
C488 H479 0.929 . S
C488 C480 1.378 . S
C488 C483 1.350 . S
C489 H476 0.929 . S
C489 C481 1.433 . S
C489 N491 1.384 . S
N490 C486 1.427 . S
N490 C487 1.383 . S
N491 C483 1.427 . S
N491 C489 1.384 . S
H492 C498 0.930 . S
H493 C502 0.930 . S
H494 C507 0.929 . S
H495 C505 0.929 . S
H496 C500 0.929 . S
H497 C506 0.929 . S
C498 H492 0.930 . S
C498 C499 1.367 . S
C498 C506 1.378 . S
C499 C498 1.367 . S
C499 C507 1.433 . S
C500 H496 0.929 . S
C500 C502 1.378 . S
C500 C504 1.350 . S
C501 C504 1.463 . S
C501 C506 1.350 . S
C501 N509 1.427 . S
C502 H493 0.930 . S
C502 C500 1.378 . S
C502 C503 1.367 . S
C503 C502 1.367 . S
C503 C505 1.433 . S
C504 C500 1.350 . S
C504 C501 1.463 . S
C504 N508 1.427 . S
C505 H495 0.929 . S
C505 C503 1.433 . S
C505 N508 1.384 . S
C506 H497 0.929 . S
C506 C498 1.378 . S
C506 C501 1.350 . S
C507 H494 0.929 . S
C507 C499 1.433 . S
C507 N509 1.384 . S
N508 C504 1.427 . S
N508 C505 1.384 . S
N509 C501 1.427 . S
N509 C507 1.384 . S
H510 C516 0.930 . S
H511 C520 0.930 . S
H512 C525 0.929 . S
H513 C523 0.939 . S
H514 C518 0.929 . S
H515 C524 0.929 . S
C516 H510 0.930 . S
C516 C517 1.367 . S
C516 C524 1.378 . S
C517 C516 1.367 . S
C517 C525 1.433 . S
C518 H514 0.929 . S
C518 C520 1.378 1_545 S
C518 C522 1.350 . S
C519 C522 1.463 . S
C519 C524 1.350 . S
C519 N527 1.427 . S
C520 H511 0.930 . S
C520 C518 1.378 1_565 S
C520 C521 1.367 . S
C521 C520 1.367 . S
C521 C523 1.445 . S
C522 C518 1.350 . S
C522 C519 1.463 . S
C522 N526 1.427 . S
C523 H513 0.939 . S
C523 C521 1.445 . S
C523 N526 1.362 1_565 S
C524 H515 0.929 . S
C524 C516 1.378 . S
C524 C519 1.350 . S
C525 H512 0.929 . S
C525 C517 1.433 . S
C525 N527 1.384 . S
N526 C522 1.427 . S
N526 C523 1.362 1_545 S
N527 C519 1.427 . S
N527 C525 1.384 . S
H528 C534 0.930 . S
H529 C538 0.930 . S
H530 C543 0.929 . S
H531 C541 0.929 . S
H532 C536 0.929 . S
H533 C542 0.929 . S
C534 H528 0.930 . S
C534 C535 1.367 . S
C534 C542 1.378 . S
C535 C534 1.367 . S
C535 C543 1.433 . S
C536 H532 0.929 . S
C536 C538 1.378 . S
C536 C540 1.350 . S
C537 C540 1.463 . S
C537 C542 1.350 . S
C537 N545 1.427 . S
C538 H529 0.930 . S
C538 C536 1.378 . S
C538 C539 1.367 . S
C539 C538 1.367 . S
C539 C541 1.433 . S
C540 C536 1.350 . S
C540 C537 1.463 . S
C540 N544 1.427 . S
C541 H531 0.929 . S
C541 C539 1.433 . S
C541 N544 1.384 . S
C542 H533 0.929 . S
C542 C534 1.378 . S
C542 C537 1.350 . S
C543 H530 0.929 . S
C543 C535 1.433 . S
C543 N545 1.384 . S
N544 C540 1.427 . S
N544 C541 1.384 . S
N545 C537 1.427 . S
N545 C543 1.384 . S
H546 C552 0.930 . S
H547 C556 0.930 . S
H548 C561 0.929 . S
H549 C559 0.929 . S
H550 C554 0.929 . S
H551 C560 0.929 . S
C552 H546 0.930 . S
C552 C553 1.367 1_655 S
C552 C560 1.378 . S
C553 C552 1.367 1_455 S
C553 C561 1.433 . S
C554 H550 0.929 . S
C554 C556 1.378 . S
C554 C558 1.350 . S
C555 C558 1.463 . S
C555 C560 1.350 . S
C555 N563 1.427 1_655 S
C556 H547 0.930 . S
C556 C554 1.378 . S
C556 C557 1.367 . S
C557 C556 1.367 . S
C557 C559 1.433 . S
C558 C554 1.350 . S
C558 C555 1.463 . S
C558 N562 1.427 . S
C559 H549 0.929 . S
C559 C557 1.433 . S
C559 N562 1.384 . S
C560 H551 0.929 . S
C560 C552 1.378 . S
C560 C555 1.350 . S
C561 H548 0.929 . S
C561 C553 1.433 . S
C561 N563 1.384 . S
N562 C558 1.427 . S
N562 C559 1.384 . S
N563 C555 1.427 1_455 S
N563 C561 1.384 . S
C247 C183 2.281 . S
C251 C23 2.281 . S
C265 C202 2.508 . S
C269 C42 2.502 . S
C283 C103 2.293 . S
C287 C143 2.290 . S
C301 C2 2.504 . S
C305 C162 2.508 . S
C319 C223 2.293 . S
C323 C63 2.292 . S
C337 C82 2.508 . S
C341 C122 2.502 . S
C355 C17 1.802 . S
C359 C104 1.810 . S
C373 C57 1.808 . S
C377 C24 1.818 . S
C391 C97 1.807 . S
C395 C64 1.814 . S
C409 C137 1.804 . S
C413 C184 1.815 . S
C427 C177 1.806 . S
C431 C224 1.817 . S
C445 C144 1.813 . S
C449 C217 1.802 . S
C463 C26 1.042 . S
C467 C93 1.039 . S
C481 C66 1.027 1_455 S
C485 C13 1.030 . S
C499 C106 1.019 1_565 S
C503 C53 1.033 . S
C517 C146 1.038 . S
C521 C173 1.035 . S
C535 C186 1.022 1_655 S
C539 C213 1.036 . S
C553 C133 1.041 . S
C557 C226 1.036 1_545 S
