# Generated by pormake.
# Topology upc, (4)-cn, num edge types: 1
# Building blocks:
#     Node 0, Type 0, BuildingBlock: GALJAG_clean_sbu_0, # of connection points: 4
#     Node 1, Type 0, BuildingBlock: GALJAG_clean_sbu_0, # of connection points: 4
#     Node 2, Type 0, BuildingBlock: GALJAG_clean_sbu_0, # of connection points: 4
#     Node 3, Type 0, BuildingBlock: GALJAG_clean_sbu_0, # of connection points: 4
#     Node 4, Type 0, BuildingBlock: GALJAG_clean_sbu_0, # of connection points: 4
#     Node 5, Type 0, BuildingBlock: GALJAG_clean_sbu_0, # of connection points: 4
#     Node 6, Type 0, BuildingBlock: GALJAG_clean_sbu_0, # of connection points: 4
#     Node 7, Type 0, BuildingBlock: GALJAG_clean_sbu_0, # of connection points: 4
#     Node 8, Type 0, BuildingBlock: GALJAG_clean_sbu_0, # of connection points: 4
#     Node 9, Type 0, BuildingBlock: GALJAG_clean_sbu_0, # of connection points: 4
#     Node 10, Type 0, BuildingBlock: GALJAG_clean_sbu_0, # of connection points: 4
#     Node 11, Type 0, BuildingBlock: GALJAG_clean_sbu_0, # of connection points: 4
#     Node 12, Type 0, BuildingBlock: GALJAG_clean_sbu_0, # of connection points: 4
#     Node 13, Type 0, BuildingBlock: GALJAG_clean_sbu_0, # of connection points: 4
#     Node 14, Type 0, BuildingBlock: GALJAG_clean_sbu_0, # of connection points: 4
#     Node 15, Type 0, BuildingBlock: GALJAG_clean_sbu_0, # of connection points: 4
#     Edge 16, Type (0, 0), BuildingBlock: XUDNAN_clean_linker_2, # of connection points: 2
#     Edge 17, Type (0, 0), BuildingBlock: XUDNAN_clean_linker_2, # of connection points: 2
#     Edge 18, Type (0, 0), BuildingBlock: XUDNAN_clean_linker_2, # of connection points: 2
#     Edge 19, Type (0, 0), BuildingBlock: XUDNAN_clean_linker_2, # of connection points: 2
#     Edge 20, Type (0, 0), BuildingBlock: XUDNAN_clean_linker_2, # of connection points: 2
#     Edge 21, Type (0, 0), BuildingBlock: XUDNAN_clean_linker_2, # of connection points: 2
#     Edge 22, Type (0, 0), BuildingBlock: XUDNAN_clean_linker_2, # of connection points: 2
#     Edge 23, Type (0, 0), BuildingBlock: XUDNAN_clean_linker_2, # of connection points: 2
#     Edge 24, Type (0, 0), BuildingBlock: XUDNAN_clean_linker_2, # of connection points: 2
#     Edge 25, Type (0, 0), BuildingBlock: XUDNAN_clean_linker_2, # of connection points: 2
#     Edge 26, Type (0, 0), BuildingBlock: XUDNAN_clean_linker_2, # of connection points: 2
#     Edge 27, Type (0, 0), BuildingBlock: XUDNAN_clean_linker_2, # of connection points: 2
#     Edge 28, Type (0, 0), BuildingBlock: XUDNAN_clean_linker_2, # of connection points: 2
#     Edge 29, Type (0, 0), BuildingBlock: XUDNAN_clean_linker_2, # of connection points: 2
#     Edge 30, Type (0, 0), BuildingBlock: XUDNAN_clean_linker_2, # of connection points: 2
#     Edge 31, Type (0, 0), BuildingBlock: XUDNAN_clean_linker_2, # of connection points: 2
#     Edge 32, Type (0, 0), BuildingBlock: XUDNAN_clean_linker_2, # of connection points: 2
#     Edge 33, Type (0, 0), BuildingBlock: XUDNAN_clean_linker_2, # of connection points: 2
#     Edge 34, Type (0, 0), BuildingBlock: XUDNAN_clean_linker_2, # of connection points: 2
#     Edge 35, Type (0, 0), BuildingBlock: XUDNAN_clean_linker_2, # of connection points: 2
#     Edge 36, Type (0, 0), BuildingBlock: XUDNAN_clean_linker_2, # of connection points: 2
#     Edge 37, Type (0, 0), BuildingBlock: XUDNAN_clean_linker_2, # of connection points: 2
#     Edge 38, Type (0, 0), BuildingBlock: XUDNAN_clean_linker_2, # of connection points: 2
#     Edge 39, Type (0, 0), BuildingBlock: XUDNAN_clean_linker_2, # of connection points: 2
#     Edge 40, Type (0, 0), BuildingBlock: XUDNAN_clean_linker_2, # of connection points: 2
#     Edge 41, Type (0, 0), BuildingBlock: XUDNAN_clean_linker_2, # of connection points: 2
#     Edge 42, Type (0, 0), BuildingBlock: XUDNAN_clean_linker_2, # of connection points: 2
#     Edge 43, Type (0, 0), BuildingBlock: XUDNAN_clean_linker_2, # of connection points: 2
#     Edge 44, Type (0, 0), BuildingBlock: XUDNAN_clean_linker_2, # of connection points: 2
#     Edge 45, Type (0, 0), BuildingBlock: XUDNAN_clean_linker_2, # of connection points: 2
#     Edge 46, Type (0, 0), BuildingBlock: XUDNAN_clean_linker_2, # of connection points: 2
#     Edge 47, Type (0, 0), BuildingBlock: XUDNAN_clean_linker_2, # of connection points: 2
# Relax obj value: 0.220
# Max RMSD: 0.228
# Mean RMSD: 0.228
data_MOF--net-upc--node1-GALJAG_clean_sbu_0--edge1-XUDNAN_clean_linker_2
_symmetry_space_group_name_H-M    P1
_symmetry_Int_Tables_number       1
_symmetry_cell_setting            triclinic
loop_
_symmetry_equiv_pos_as_xyz
'x, y, z'
_cell_length_a     35.568619
_cell_length_b     35.570763
_cell_length_c     39.929823
_cell_angle_alpha  89.978156
_cell_angle_beta   89.961425
_cell_angle_gamma 90.016829
loop_
_atom_site_label
_atom_site_type_symbol
_atom_site_fract_x
_atom_site_fract_y
_atom_site_fract_z
_atom_type_partial_charge
In0 In 0.09194 0.62192 0.12637 0.0
O1 O 0.10662 0.55906 0.13017 0.0
O2 O 0.10346 0.59027 0.17512 0.0
C3 C 0.15326 0.6629 0.10827 0.0
C4 C 0.04687 0.59775 0.07634 0.0
C5 C 0.04994 0.66966 0.16334 0.0
O6 O 0.1496 0.64875 0.13706 0.0
O7 O 0.12713 0.65478 0.08828 0.0
O8 O 0.04894 0.63449 0.16729 0.0
O9 O 0.07093 0.68064 0.13978 0.0
C10 C 0.10755 0.55848 0.16171 0.0
O11 O 0.0351 0.61824 0.09989 0.0
O12 O 0.08152 0.59033 0.07754 0.0
In13 In 0.89574 0.11075 0.14281 0.0
O14 O 0.91822 0.06761 0.10631 0.0
O15 O 0.92713 0.12507 0.09413 0.0
C16 C 0.86743 0.05245 0.17831 0.0
C17 C 0.95075 0.13041 0.1861 0.0
C18 C 0.8356 0.15613 0.13023 0.0
O19 O 0.85975 0.05744 0.1478 0.0
O20 O 0.88929 0.07653 0.19062 0.0
O21 O 0.83488 0.12087 0.12824 0.0
O22 O 0.86741 0.16946 0.13787 0.0
C23 C 0.93258 0.09105 0.0864 0.0
O24 O 0.91714 0.14145 0.18958 0.0
O25 O 0.95671 0.1121 0.15958 0.0
In26 In 0.41122 0.89524 0.11312 0.0
O27 O 0.40307 0.925 0.16315 0.0
O28 O 0.4087 0.95936 0.12024 0.0
C29 C 0.34486 0.8614 0.09813 0.0
C30 C 0.45427 0.91607 0.06073 0.0
C31 C 0.4492 0.84338 0.14893 0.0
O32 O 0.35114 0.87669 0.12604 0.0
O33 O 0.37085 0.86555 0.07701 0.0
O34 O 0.42526 0.83474 0.12695 0.0
O35 O 0.45594 0.87809 0.15111 0.0
C36 C 0.40629 0.95784 0.1517 0.0
O37 O 0.46497 0.89208 0.08202 0.0
O38 O 0.42136 0.92841 0.06521 0.0
In39 In 0.59567 0.40236 0.15742 0.0
O40 O 0.53894 0.38366 0.18105 0.0
O41 O 0.56921 0.42926 0.2024 0.0
C42 C 0.63126 0.34169 0.13174 0.0
C43 C 0.56808 0.44729 0.10898 0.0
C44 C 0.65252 0.41785 0.19851 0.0
O45 O 0.60039 0.33885 0.14732 0.0
O46 O 0.64214 0.37498 0.12687 0.0
O47 O 0.64307 0.44046 0.17547 0.0
O48 O 0.63293 0.3883 0.20074 0.0
C49 C 0.54059 0.40857 0.20362 0.0
O50 O 0.59603 0.45631 0.12666 0.0
O51 O 0.55534 0.41475 0.11451 0.0
In52 In 0.07052 0.9104 0.3712 0.0
O53 O 0.02437 0.90509 0.40988 0.0
O54 O 0.07107 0.94027 0.42182 0.0
C55 C 0.03384 0.86288 0.32972 0.0
C56 C 0.06463 0.98033 0.3456 0.0
C57 C 0.13542 0.8704 0.37465 0.0
O58 O 0.0342 0.85832 0.36106 0.0
O59 O 0.0504 0.8921 0.31973 0.0
O60 O 0.12607 0.88997 0.34973 0.0
O61 O 0.11365 0.87344 0.39945 0.0
C62 C 0.03897 0.92807 0.43022 0.0
O63 O 0.09625 0.96449 0.34879 0.0
O64 O 0.03685 0.96097 0.35477 0.0
In65 In 0.62718 0.0749 0.34911 0.0
O66 O 0.6088 0.03505 0.39055 0.0
O67 O 0.5831 0.08917 0.38835 0.0
C68 C 0.6751 0.02461 0.32209 0.0
C69 C 0.5677 0.07644 0.30734 0.0
C70 C 0.6765 0.13167 0.36196 0.0
O71 O 0.67302 0.0296 0.35334 0.0
O72 O 0.65258 0.04416 0.30516 0.0
O73 O 0.66375 0.12549 0.33298 0.0
O74 O 0.66248 0.11108 0.38443 0.0
C75 C 0.58412 0.05714 0.40211 0.0
O76 O 0.5875 0.10562 0.31208 0.0
O77 O 0.57848 0.04768 0.32302 0.0
In78 In 0.3884 0.63033 0.3818 0.0
O79 O 0.3695 0.57304 0.36053 0.0
O80 O 0.42788 0.58616 0.36201 0.0
C81 C 0.32124 0.6661 0.38716 0.0
C82 C 0.41962 0.61483 0.44171 0.0
C83 C 0.421 0.67486 0.33522 0.0
O84 O 0.32618 0.63712 0.36953 0.0
O85 O 0.34946 0.67559 0.40427 0.0
O86 O 0.42883 0.67748 0.36595 0.0
O87 O 0.39687 0.65018 0.32831 0.0
C88 C 0.4028 0.56272 0.35416 0.0
O89 O 0.4306 0.64133 0.42309 0.0
O90 O 0.39086 0.59754 0.43122 0.0
In91 In 0.94119 0.35575 0.35273 0.0
O92 O 0.9871 0.34403 0.31269 0.0
O93 O 0.97478 0.40041 0.32701 0.0
C94 C 0.90102 0.2934 0.36749 0.0
C95 C 0.9803 0.37135 0.40807 0.0
C96 C 0.88151 0.39023 0.32662 0.0
O97 O 0.92048 0.29573 0.34097 0.0
O98 O 0.90458 0.32085 0.38726 0.0
O99 O 0.89702 0.40266 0.35284 0.0
O100 O 0.8966 0.36165 0.31373 0.0
C101 C 0.99441 0.37876 0.30925 0.0
O102 O 0.95199 0.39028 0.39894 0.0
O103 O 0.98782 0.34298 0.39008 0.0
In104 In 0.89897 0.41151 0.8472 0.0
O105 O 0.94299 0.43312 0.88383 0.0
O106 O 0.8863 0.45117 0.89044 0.0
C107 C 0.95689 0.36807 0.82654 0.0
C108 C 0.88761 0.46414 0.79922 0.0
C109 C 0.8406 0.36343 0.85815 0.0
O110 O 0.93834 0.36083 0.85268 0.0
O111 O 0.94763 0.39816 0.81222 0.0
O112 O 0.848 0.37662 0.82964 0.0
O113 O 0.86116 0.37599 0.8812 0.0
C114 C 0.91999 0.45278 0.90046 0.0
O115 O 0.88751 0.42932 0.79333 0.0
O116 O 0.89021 0.47233 0.82984 0.0
In117 In 0.09535 0.91145 0.86656 0.0
O118 O 0.09735 0.96928 0.89121 0.0
O119 O 0.07554 0.92369 0.91964 0.0
C120 C 0.14771 0.94149 0.82558 0.0
C121 C 0.02667 0.90898 0.83748 0.0
C122 C 0.12486 0.84223 0.87695 0.0
O123 O 0.11306 0.94793 0.82218 0.0
O124 O 0.15602 0.92176 0.85074 0.0
O125 O 0.10063 0.84895 0.85467 0.0
O126 O 0.13204 0.86978 0.89575 0.0
C127 C 0.0821 0.95853 0.9181 0.0
O128 O 0.03093 0.91023 0.86881 0.0
O129 O 0.05693 0.90638 0.82116 0.0
In130 In 0.6102 0.10306 0.83656 0.0
O131 O 0.56849 0.08803 0.8778 0.0
O132 O 0.61989 0.05732 0.87525 0.0
C133 C 0.57135 0.15695 0.80484 0.0
C134 C 0.60162 0.04863 0.79067 0.0
C135 C 0.66931 0.14686 0.85358 0.0
O136 O 0.56266 0.1468 0.83428 0.0
O137 O 0.59944 0.14041 0.79243 0.0
O138 O 0.66912 0.12754 0.82702 0.0
O139 O 0.64092 0.14237 0.87206 0.0
C140 C 0.58852 0.06179 0.88958 0.0
O141 O 0.63294 0.05321 0.80521 0.0
O142 O 0.5759 0.07076 0.79962 0.0
In143 In 0.37553 0.59856 0.89441 0.0
O144 O 0.4234 0.62314 0.86213 0.0
O145 O 0.42319 0.56457 0.873 0.0
C146 C 0.33068 0.659 0.88493 0.0
C147 C 0.4064 0.58625 0.95481 0.0
C148 C 0.32477 0.54818 0.87216 0.0
O149 O 0.34668 0.64165 0.86138 0.0
O150 O 0.3397 0.64792 0.91388 0.0
O151 O 0.32116 0.5646 0.90001 0.0
O152 O 0.35473 0.55581 0.85675 0.0
C153 C 0.43952 0.59164 0.85874 0.0
O154 O 0.38343 0.56377 0.94142 0.0
O155 O 0.41168 0.61643 0.93879 0.0
In156 In 0.89985 0.12551 0.65486 0.0
O157 O 0.94065 0.10975 0.61295 0.0
O158 O 0.8852 0.08699 0.61153 0.0
C159 C 0.95377 0.16718 0.68539 0.0
C160 C 0.89085 0.06368 0.69337 0.0
C161 C 0.8423 0.17419 0.64306 0.0
O162 O 0.93932 0.1383 0.6981 0.0
O163 O 0.94176 0.17499 0.65653 0.0
O164 O 0.84781 0.15981 0.67155 0.0
O165 O 0.86455 0.16278 0.62072 0.0
C166 C 0.9176 0.08803 0.59849 0.0
O167 O 0.86872 0.09143 0.69591 0.0
O168 O 0.91595 0.06733 0.6714 0.0
In169 In 0.38466 0.88937 0.60475 0.0
O170 O 0.37963 0.93438 0.56439 0.0
O171 O 0.42172 0.89265 0.55813 0.0
C172 C 0.33294 0.91532 0.64823 0.0
C173 C 0.44635 0.90735 0.64052 0.0
C174 C 0.3543 0.82161 0.58984 0.0
O175 O 0.33435 0.92625 0.61815 0.0
O176 O 0.3574 0.89122 0.65618 0.0
O177 O 0.38723 0.8251 0.60128 0.0
O178 O 0.33746 0.85223 0.58464 0.0
C179 C 0.40735 0.92284 0.54755 0.0
O180 O 0.4371 0.8734 0.6358 0.0
O181 O 0.42438 0.93112 0.62773 0.0
In182 In 0.59666 0.42351 0.65071 0.0
O183 O 0.54896 0.44035 0.61512 0.0
O184 O 0.60096 0.46942 0.61115 0.0
C185 C 0.54668 0.36984 0.66748 0.0
C186 C 0.60199 0.4732 0.70177 0.0
C187 C 0.66068 0.38327 0.64001 0.0
O188 O 0.57044 0.36567 0.64428 0.0
O189 O 0.54624 0.4022 0.68034 0.0
O190 O 0.65063 0.39404 0.6687 0.0
O191 O 0.63994 0.39491 0.61661 0.0
C192 C 0.56743 0.46633 0.60119 0.0
O193 O 0.60919 0.48219 0.6719 0.0
O194 O 0.59493 0.4388 0.70594 0.0
In195 In 0.13351 0.55457 0.63119 0.0
O196 O 0.08319 0.59013 0.64907 0.0
O197 O 0.07537 0.53161 0.64009 0.0
C198 C 0.18559 0.60579 0.61129 0.0
C199 C 0.12142 0.51028 0.57779 0.0
C200 C 0.15921 0.53073 0.69105 0.0
O201 O 0.19287 0.5719 0.61754 0.0
O202 O 0.15131 0.61446 0.61463 0.0
O203 O 0.13725 0.55825 0.68787 0.0
O204 O 0.16883 0.51522 0.66395 0.0
C205 C 0.061 0.56223 0.64952 0.0
O206 O 0.13819 0.49873 0.6037 0.0
O207 O 0.11228 0.54461 0.5783 0.0
H208 H 0.198 0.70281 0.15138 0.0
H209 H 0.17454 0.68615 0.04584 0.0
H210 H 0.21982 0.73646 0.03154 0.0
H211 H 0.20361 0.8026 0.1476 0.0
H212 H 0.24098 0.80648 0.17787 0.0
H213 H 0.20873 0.7675 0.17985 0.0
H214 H 0.26437 0.72054 0.17693 0.0
H215 H 0.29681 0.75939 0.17548 0.0
H216 H 0.29777 0.72413 0.1431 0.0
H217 H 0.26809 0.78861 0.02883 0.0
H218 H 0.31568 0.83838 0.03815 0.0
H219 H 0.30411 0.8238 0.14549 0.0
C220 C 0.2029 0.70931 0.12524 0.0
C221 C 0.1831 0.69029 0.09967 0.0
C222 C 0.18963 0.70019 0.06579 0.0
C223 C 0.21521 0.72878 0.05744 0.0
C224 C 0.23372 0.74752 0.08328 0.0
C225 C 0.22791 0.73817 0.1165 0.0
C226 C 0.25041 0.76346 0.13955 0.0
C227 C 0.22437 0.78637 0.16257 0.0
C228 C 0.27904 0.74051 0.15996 0.0
C229 C 0.26982 0.78847 0.11412 0.0
C230 C 0.26004 0.77867 0.08178 0.0
C231 C 0.27569 0.79674 0.05406 0.0
C232 C 0.30255 0.82505 0.05956 0.0
C233 C 0.31303 0.83538 0.09249 0.0
C234 C 0.29596 0.81715 0.12004 0.0
H235 H 0.82785 0.23361 0.13178 0.0
H236 H 0.76482 0.13009 0.11905 0.0
H237 H 0.70607 0.16634 0.11462 0.0
H238 H 0.7599 0.28051 0.18214 0.0
H239 H 0.76737 0.32622 0.16382 0.0
H240 H 0.80503 0.29243 0.16452 0.0
H241 H 0.81204 0.29807 0.1001 0.0
H242 H 0.77443 0.33199 0.09918 0.0
H243 H 0.77168 0.29025 0.07371 0.0
H244 H 0.65323 0.21324 0.11638 0.0
H245 H 0.61082 0.26825 0.12148 0.0
H246 H 0.7078 0.34157 0.12947 0.0
C247 C 0.80173 0.21866 0.12768 0.0
C248 C 0.80103 0.17897 0.12568 0.0
C249 C 0.76619 0.16046 0.12054 0.0
C250 C 0.73257 0.18081 0.11799 0.0
C251 C 0.7341 0.21981 0.12032 0.0
C252 C 0.76778 0.23864 0.12479 0.0
C253 C 0.76136 0.28071 0.12719 0.0
C254 C 0.77417 0.29584 0.16144 0.0
C255 C 0.78105 0.30147 0.09832 0.0
C256 C 0.7189 0.28244 0.12365 0.0
C257 C 0.70367 0.24698 0.11993 0.0
C258 C 0.66485 0.24124 0.11865 0.0
C259 C 0.64097 0.27256 0.12153 0.0
C260 C 0.65602 0.30913 0.12506 0.0
C261 C 0.69551 0.31402 0.12574 0.0
H262 H 0.18345 0.84111 0.42301 0.0
H263 H 0.14918 0.82977 0.3192 0.0
H264 H 0.18914 0.7737 0.31337 0.0
H265 H 0.28147 0.8153 0.40685 0.0
H266 H 0.28715 0.79092 0.44611 0.0
H267 H 0.25442 0.82939 0.44292 0.0
H268 H 0.20141 0.78597 0.46477 0.0
H269 H 0.2338 0.74714 0.46731 0.0
H270 H 0.19133 0.7427 0.44304 0.0
H271 H 0.22847 0.71689 0.31927 0.0
H272 H 0.27639 0.66931 0.33259 0.0
H273 H 0.29279 0.72008 0.43035 0.0
C274 C 0.18473 0.82688 0.39907 0.0
C275 C 0.16324 0.83973 0.37152 0.0
C276 C 0.16569 0.82063 0.3405 0.0
C277 C 0.18799 0.7885 0.33702 0.0
C278 C 0.20843 0.77618 0.36461 0.0
C279 C 0.20802 0.79524 0.39478 0.0
C280 C 0.23511 0.77717 0.41948 0.0
C281 C 0.2664 0.80484 0.42941 0.0
C282 C 0.21414 0.76238 0.45048 0.0
C283 C 0.25044 0.745 0.39842 0.0
C284 C 0.23377 0.74457 0.36719 0.0
C285 C 0.24208 0.7171 0.3435 0.0
C286 C 0.26913 0.68999 0.35143 0.0
C287 C 0.28833 0.691 0.38246 0.0
C288 C 0.27852 0.71865 0.40644 0.0
H289 H 0.86094 0.25368 0.32025 0.0
H290 H 0.87277 0.27041 0.4273 0.0
H291 H 0.81663 0.23111 0.4372 0.0
H292 H 0.76167 0.2606 0.31872 0.0
H293 H 0.75479 0.22538 0.28691 0.0
H294 H 0.79798 0.25178 0.2882 0.0
H295 H 0.83604 0.1897 0.2914 0.0
H296 H 0.79286 0.16325 0.28988 0.0
H297 H 0.82542 0.15608 0.32386 0.0
H298 H 0.75763 0.19303 0.43566 0.0
H299 H 0.70094 0.15569 0.42294 0.0
H300 H 0.72499 0.16496 0.31668 0.0
C301 C 0.85233 0.24806 0.34578 0.0
C302 C 0.87163 0.26452 0.3731 0.0
C303 C 0.85871 0.25767 0.40609 0.0
C304 C 0.82674 0.23553 0.41194 0.0
C305 C 0.80766 0.22064 0.38451 0.0
C306 C 0.82002 0.22633 0.35207 0.0
C307 C 0.79317 0.2085 0.32707 0.0
C308 C 0.77589 0.23836 0.30385 0.0
C309 C 0.81306 0.17754 0.30687 0.0
C310 C 0.7638 0.19208 0.35056 0.0
C311 C 0.77285 0.1994 0.38357 0.0
C312 C 0.75028 0.18706 0.40991 0.0
C313 C 0.71802 0.16599 0.40242 0.0
C314 C 0.70831 0.1576 0.36885 0.0
C315 C 0.73138 0.17129 0.34259 0.0
H316 H 0.80661 0.31837 0.81107 0.0
H317 H 0.81356 0.3386 0.91807 0.0
H318 H 0.7724 0.28391 0.92842 0.0
H319 H 0.70891 0.28732 0.80991 0.0
H320 H 0.71711 0.25203 0.77838 0.0
H321 H 0.74573 0.29379 0.77943 0.0
H322 H 0.8056 0.25241 0.7826 0.0
H323 H 0.77696 0.21067 0.78182 0.0
H324 H 0.80986 0.21799 0.81554 0.0
H325 H 0.73043 0.22759 0.92737 0.0
H326 H 0.68912 0.17354 0.91484 0.0
H327 H 0.71184 0.18716 0.8088 0.0
C328 C 0.79901 0.31157 0.83663 0.0
C329 C 0.81303 0.3329 0.8638 0.0
C330 C 0.80298 0.32277 0.89691 0.0
C331 C 0.77972 0.29169 0.90304 0.0
C332 C 0.76698 0.2708 0.8758 0.0
C333 C 0.77611 0.2803 0.84323 0.0
C334 C 0.75902 0.25271 0.81855 0.0
C335 C 0.73103 0.27265 0.79519 0.0
C336 C 0.7897 0.23223 0.79846 0.0
C337 C 0.73901 0.22615 0.8424 0.0
C338 C 0.74382 0.23731 0.87528 0.0
C339 C 0.7267 0.21838 0.90177 0.0
C340 C 0.70341 0.18767 0.89444 0.0
C341 C 0.69785 0.17586 0.86097 0.0
C342 C 0.71638 0.19503 0.83468 0.0
H343 H 0.30154 0.71414 0.92642 0.0
H344 H 0.28719 0.66098 0.82942 0.0
H345 H 0.22957 0.6978 0.82002 0.0
H346 H 0.20343 0.72191 0.94863 0.0
H347 H 0.20765 0.76809 0.96682 0.0
H348 H 0.24726 0.73653 0.96717 0.0
H349 H 0.28815 0.78642 0.93708 0.0
H350 H 0.24885 0.81831 0.93716 0.0
H351 H 0.27187 0.80664 0.89829 0.0
H352 H 0.17266 0.7379 0.82153 0.0
H353 H 0.12565 0.78801 0.82897 0.0
H354 H 0.17829 0.81983 0.92286 0.0
C355 C 0.28631 0.71053 0.90317 0.0
C356 C 0.2988 0.6847 0.87864 0.0
C357 C 0.27832 0.68083 0.84843 0.0
C358 C 0.24531 0.70131 0.84299 0.0
C359 C 0.23337 0.72606 0.86778 0.0
C360 C 0.2536 0.73154 0.89692 0.0
C361 C 0.23567 0.762 0.91828 0.0
C362 C 0.22273 0.74617 0.95223 0.0
C363 C 0.26274 0.79532 0.92296 0.0
C364 C 0.20233 0.77265 0.89648 0.0
C365 C 0.20121 0.7509 0.86785 0.0
C366 C 0.17327 0.75529 0.84376 0.0
C367 C 0.14652 0.78369 0.84833 0.0
C368 C 0.14826 0.80784 0.87647 0.0
C369 C 0.1761 0.80165 0.90121 0.0
H370 H 0.69669 0.33955 0.68703 0.0
H371 H 0.69189 0.36268 0.58039 0.0
H372 H 0.73706 0.3113 0.56998 0.0
H373 H 0.79674 0.3144 0.69049 0.0
H374 H 0.78905 0.27781 0.72099 0.0
H375 H 0.75833 0.31806 0.71976 0.0
H376 H 0.70125 0.27305 0.71395 0.0
H377 H 0.73218 0.23296 0.71425 0.0
H378 H 0.70005 0.23985 0.67988 0.0
H379 H 0.78082 0.25654 0.57065 0.0
H380 H 0.82297 0.2032 0.58245 0.0
H381 H 0.79914 0.21383 0.68868 0.0
C382 C 0.70572 0.33424 0.66156 0.0
C383 C 0.69104 0.35539 0.63449 0.0
C384 C 0.70294 0.34705 0.60149 0.0
C385 C 0.7285 0.31784 0.59532 0.0
C386 C 0.7418 0.29702 0.62242 0.0
C387 C 0.73107 0.3049 0.65492 0.0
C388 C 0.74896 0.27747 0.67938 0.0
C389 C 0.77481 0.29817 0.70411 0.0
C390 C 0.71881 0.25447 0.69795 0.0
C391 C 0.7714 0.25297 0.65548 0.0
C392 C 0.76677 0.26484 0.62277 0.0
C393 C 0.78472 0.24701 0.59616 0.0
C394 C 0.80855 0.21664 0.60312 0.0
C395 C 0.81428 0.20419 0.63644 0.0
C396 C 0.79509 0.22246 0.66292 0.0
H397 H 0.17929 0.68194 0.59829 0.0
H398 H 0.26021 0.59091 0.60495 0.0
H399 H 0.31177 0.63559 0.59463 0.0
H400 H 0.2302 0.73543 0.53212 0.0
H401 H 0.21798 0.78033 0.54995 0.0
H402 H 0.18665 0.74083 0.55472 0.0
H403 H 0.18805 0.74904 0.61919 0.0
H404 H 0.21919 0.78859 0.61469 0.0
H405 H 0.23265 0.74937 0.64064 0.0
H406 H 0.35512 0.69042 0.58978 0.0
H407 H 0.3871 0.75213 0.58939 0.0
H408 H 0.27884 0.80791 0.58375 0.0
C409 C 0.2078 0.67138 0.59699 0.0
C410 C 0.21566 0.63289 0.6024 0.0
C411 C 0.25341 0.62022 0.60083 0.0
C412 C 0.28297 0.64539 0.59489 0.0
C413 C 0.27442 0.68319 0.59019 0.0
C414 C 0.23778 0.69619 0.59085 0.0
C415 C 0.23664 0.73858 0.58666 0.0
C416 C 0.21668 0.74943 0.55391 0.0
C417 C 0.21804 0.7575 0.61711 0.0
C418 C 0.27835 0.74737 0.58488 0.0
C419 C 0.29962 0.71495 0.58664 0.0
C420 C 0.3388 0.71599 0.5878 0.0
C421 C 0.35673 0.75114 0.58762 0.0
C422 C 0.33551 0.78473 0.58617 0.0
C423 C 0.29584 0.78266 0.5842 0.0
H424 H 0.02852 0.44619 0.31457 0.0
H425 H 0.02292 0.34758 0.25113 0.0
H426 H 0.06216 0.38029 0.20861 0.0
H427 H 0.01577 0.51113 0.25389 0.0
H428 H 0.04711 0.54603 0.27096 0.0
H429 H 0.02524 0.51239 0.29823 0.0
H430 H 0.09068 0.49152 0.31992 0.0
H431 H 0.11286 0.52531 0.29264 0.0
H432 H 0.12606 0.47645 0.2905 0.0
H433 H 0.09228 0.42845 0.16945 0.0
H434 H 0.11029 0.48588 0.13831 0.0
H435 H 0.09723 0.55162 0.22895 0.0
C436 C 0.03641 0.43103 0.29212 0.0
C437 C 0.0228 0.39439 0.28604 0.0
C438 C 0.03344 0.37555 0.25634 0.0
C439 C 0.05569 0.39395 0.23212 0.0
C440 C 0.06758 0.43077 0.23845 0.0
C441 C 0.05867 0.44879 0.26808 0.0
C442 C 0.07137 0.48938 0.2679 0.0
C443 C 0.03788 0.51628 0.27302 0.0
C444 C 0.10208 0.49604 0.2943 0.0
C445 C 0.08716 0.49221 0.23285 0.0
C446 C 0.08535 0.45806 0.21632 0.0
C447 C 0.09466 0.45503 0.18246 0.0
C448 C 0.10492 0.48781 0.16496 0.0
C449 C 0.10557 0.52316 0.1813 0.0
C450 C 0.09781 0.52492 0.21592 0.0
H451 H 0.01901 0.09591 0.18728 0.0
H452 H 0.94089 0.15807 0.2495 0.0
H453 H 0.97464 0.13668 0.29988 0.0
H454 H 0.01752 0.01872 0.23053 0.0
H455 H 0.06613 0.00505 0.22655 0.0
H456 H 0.04527 0.03485 0.19552 0.0
H457 H 0.09665 0.08521 0.20528 0.0
H458 H 0.11827 0.05518 0.23617 0.0
H459 H 0.10519 0.1026 0.24698 0.0
H460 H 0.00257 0.0944 0.34188 0.0
H461 H 0.02557 0.03831 0.37201 0.0
H462 H 0.08759 0.00368 0.28411 0.0
C463 C 0.0103 0.10671 0.21142 0.0
C464 C 0.97745 0.12881 0.21447 0.0
C465 C 0.96622 0.14151 0.24652 0.0
C466 C 0.98527 0.12942 0.27533 0.0
C467 C 0.01583 0.10513 0.27164 0.0
C468 C 0.02887 0.09457 0.24038 0.0
C469 C 0.05781 0.06337 0.24309 0.0
C470 C 0.04593 0.02847 0.22275 0.0
C471 C 0.0968 0.07744 0.23224 0.0
C472 C 0.05668 0.05581 0.28041 0.0
C473 C 0.03295 0.08085 0.29654 0.0
C474 C 0.02241 0.07568 0.32988 0.0
C475 C 0.0355 0.04374 0.3468 0.0
C476 C 0.05918 0.01762 0.33053 0.0
C477 C 0.07092 0.02435 0.29738 0.0
H478 H 0.51108 0.02619 0.3104 0.0
H479 H 0.55198 0.12049 0.25219 0.0
H480 H 0.50339 0.10762 0.20906 0.0
H481 H 0.5006 0.96596 0.2469 0.0
H482 H 0.45876 0.94306 0.26219 0.0
H483 H 0.49036 0.96508 0.29113 0.0
H484 H 0.43579 0.00592 0.31416 0.0
H485 H 0.40384 0.98388 0.28513 0.0
H486 H 0.40848 0.03434 0.28579 0.0
H487 H 0.45938 0.07602 0.16772 0.0
H488 H 0.42564 0.02957 0.13285 0.0
H489 H 0.41258 0.95732 0.21948 0.0
C490 C 0.50903 0.04491 0.28907 0.0
C491 C 0.53511 0.07434 0.28452 0.0
C492 C 0.53191 0.09804 0.25623 0.0
C493 C 0.50438 0.0909 0.23169 0.0
C494 C 0.47992 0.06053 0.23633 0.0
C495 C 0.48172 0.03832 0.26471 0.0
C496 C 0.45575 0.00476 0.26231 0.0
C497 C 0.47769 0.96756 0.26581 0.0
C498 C 0.42408 0.00741 0.2884 0.0
C499 C 0.4407 0.01004 0.22724 0.0
C500 C 0.45423 0.04275 0.21281 0.0
C501 C 0.44782 0.05094 0.17909 0.0
C502 C 0.42851 0.0244 0.15945 0.0
C503 C 0.41618 0.98997 0.17355 0.0
C504 C 0.42093 0.98371 0.20816 0.0
H505 H 0.55163 0.43717 0.26495 0.0
H506 H 0.46395 0.39806 0.1984 0.0
H507 H 0.41574 0.42468 0.23673 0.0
H508 H 0.49763 0.42689 0.34632 0.0
H509 H 0.51897 0.46918 0.36236 0.0
H510 H 0.54485 0.43926 0.33412 0.0
H511 H 0.55589 0.49609 0.29465 0.0
H512 H 0.52986 0.52598 0.32239 0.0
H513 H 0.51599 0.52203 0.27912 0.0
H514 H 0.37873 0.46681 0.27703 0.0
H515 H 0.35753 0.51846 0.31434 0.0
H516 H 0.47074 0.52904 0.35314 0.0
C517 C 0.52219 0.43295 0.2591 0.0
C518 C 0.51131 0.41548 0.22899 0.0
C519 C 0.47268 0.41088 0.22173 0.0
C520 C 0.44522 0.42599 0.24333 0.0
C521 C 0.45706 0.44485 0.27221 0.0
C522 C 0.49478 0.44767 0.28029 0.0
C523 C 0.50115 0.47309 0.31002 0.0
C524 C 0.51655 0.45076 0.33998 0.0
C525 C 0.52722 0.50624 0.30097 0.0
C526 C 0.46142 0.48606 0.31639 0.0
C527 C 0.43607 0.46899 0.29496 0.0
C528 C 0.39824 0.47962 0.2944 0.0
C529 C 0.38641 0.50894 0.31565 0.0
C530 C 0.41255 0.52755 0.3366 0.0
C531 C 0.4501 0.51507 0.33755 0.0
H532 H 0.00751 0.5084 0.64454 0.0
H533 H 0.03023 0.61652 0.69009 0.0
H534 H 0.97398 0.60907 0.72595 0.0
H535 H 0.89963 0.51103 0.65356 0.0
H536 H 0.89918 0.46143 0.66281 0.0
H537 H 0.93362 0.48035 0.63423 0.0
H538 H 0.98693 0.45124 0.6701 0.0
H539 H 0.95289 0.43246 0.69861 0.0
H540 H 0.98972 0.46266 0.71404 0.0
H541 H 0.92681 0.58272 0.76597 0.0
H542 H 0.89443 0.54056 0.80571 0.0
H543 H 0.90109 0.44992 0.73351 0.0
C544 C 0.99966 0.53126 0.66103 0.0
C545 C 0.02301 0.5631 0.6645 0.0
C546 C 0.01239 0.59213 0.68675 0.0
C547 C 0.98044 0.5881 0.70718 0.0
C548 C 0.95912 0.55521 0.70455 0.0
C549 C 0.96801 0.52755 0.68151 0.0
C550 C 0.94483 0.49239 0.68702 0.0
C551 C 0.91769 0.48594 0.65766 0.0
C552 C 0.9701 0.45771 0.69282 0.0
C553 C 0.92368 0.50333 0.71842 0.0
C554 C 0.93139 0.54004 0.72765 0.0
C555 C 0.91959 0.55441 0.75844 0.0
C556 C 0.90114 0.53024 0.7809 0.0
C557 C 0.89499 0.49205 0.77255 0.0
C558 C 0.90459 0.4792 0.74024 0.0
H559 H 0.01114 0.90601 0.77092 0.0
H560 H 0.96233 0.93575 0.86671 0.0
H561 H 0.91042 0.96827 0.8377 0.0
H562 H 0.0017 0.98799 0.73536 0.0
H563 H 0.99029 0.97259 0.69357 0.0
H564 H 0.01627 0.94224 0.72084 0.0
H565 H 0.9663 0.88989 0.71338 0.0
H566 H 0.94012 0.92013 0.68562 0.0
H567 H 0.91753 0.89993 0.72182 0.0
H568 H 0.87442 0.01112 0.79929 0.0
H569 H 0.85776 0.05765 0.75557 0.0
H570 H 0.92888 0.99874 0.68486 0.0
C571 C 0.98851 0.91777 0.78573 0.0
C572 C 0.99063 0.91823 0.82098 0.0
C573 C 0.96101 0.93465 0.83963 0.0
C574 C 0.93136 0.95323 0.82332 0.0
C575 C 0.93135 0.95443 0.78838 0.0
C576 C 0.95881 0.93631 0.7698 0.0
C577 C 0.9561 0.94638 0.73307 0.0
C578 C 0.99326 0.96332 0.72 0.0
C579 C 0.94429 0.91203 0.71225 0.0
C580 C 0.92501 0.97534 0.73426 0.0
C581 C 0.91024 0.97897 0.76613 0.0
C582 C 0.88488 0.00768 0.77402 0.0
C583 C 0.87549 0.03401 0.74905 0.0
C584 C 0.8919 0.03159 0.71686 0.0
C585 C 0.91552 1.00093 0.70916 0.0
H586 H 0.56473 0.06116 0.73355 0.0
H587 H 0.6191 0.97321 0.79056 0.0
H588 H 0.59115 0.92522 0.75269 0.0
H589 H 0.48138 0.01903 0.72481 0.0
H590 H 0.47145 0.03517 0.68294 0.0
H591 H 0.50201 0.06204 0.70948 0.0
H592 H 0.55504 0.05877 0.66504 0.0
H593 H 0.52436 0.03237 0.6379 0.0
H594 H 0.56979 0.01374 0.64903 0.0
H595 H 0.54694 0.88726 0.71443 0.0
H596 H 0.4951 0.86399 0.67824 0.0
H597 H 0.47185 0.97847 0.64725 0.0
C598 C 0.57195 0.03184 0.73717 0.0
C599 C 0.59422 0.02063 0.76449 0.0
C600 C 0.60263 0.98216 0.76919 0.0
C601 C 0.58671 0.95484 0.74793 0.0
C602 C 0.56322 0.96681 0.72194 0.0
C603 C 0.55666 0.00462 0.71617 0.0
C604 C 0.52768 0.01069 0.68913 0.0
C605 C 0.49364 0.03302 0.70241 0.0
C606 C 0.54529 0.03003 0.65845 0.0
C607 C 0.51738 0.97048 0.68156 0.0
C608 C 0.53833 0.94533 0.70024 0.0
C609 C 0.53103 0.90672 0.69918 0.0
C610 C 0.5015 0.89375 0.67869 0.0
C611 C 0.47955 0.91944 0.65996 0.0
C612 C 0.48825 0.95807 0.66111 0.0
H613 H 0.58104 0.45921 0.76595 0.0
H614 H 0.6012 0.55005 0.69584 0.0
H615 H 0.57023 0.59447 0.73462 0.0
H616 H 0.4928 0.48154 0.78315 0.0
H617 H 0.49282 0.46912 0.82692 0.0
H618 H 0.52535 0.44691 0.79887 0.0
H619 H 0.58138 0.46845 0.83561 0.0
H620 H 0.54889 0.4903 0.8643 0.0
H621 H 0.58648 0.51748 0.84608 0.0
H622 H 0.52538 0.62564 0.7752 0.0
H623 H 0.47322 0.64043 0.81428 0.0
H624 H 0.48203 0.52853 0.8566 0.0
C625 C 0.58051 0.48877 0.75944 0.0
C626 C 0.59373 0.50125 0.72804 0.0
C627 C 0.59168 0.53997 0.72 0.0
C628 C 0.57405 0.56541 0.74188 0.0
C629 C 0.55912 0.5517 0.77182 0.0
C630 C 0.56283 0.5143 0.78084 0.0
C631 C 0.53996 0.5052 0.81173 0.0
C632 C 0.51104 0.47388 0.80471 0.0
C633 C 0.56572 0.49475 0.84118 0.0
C634 C 0.52102 0.54264 0.81756 0.0
C635 C 0.53295 0.56946 0.79486 0.0
C636 C 0.51653 0.60512 0.79361 0.0
C637 C 0.48688 0.61327 0.81579 0.0
C638 C 0.47371 0.58563 0.83843 0.0
C639 C 0.4917 0.55033 0.83972 0.0
H640 H 0.05612 0.74609 0.16433 0.0
H641 H 0.00547 0.65227 0.21708 0.0
H642 H 0.98569 0.69511 0.26244 0.0
H643 H 0.09621 0.78631 0.23211 0.0
H644 H 0.08913 0.83454 0.21978 0.0
H645 H 0.09206 0.79849 0.18843 0.0
H646 H 0.02711 0.81842 0.16494 0.0
H647 H 0.02405 0.85481 0.19625 0.0
H648 H 0.98704 0.82044 0.19256 0.0
H649 H 0.98214 0.7453 0.30635 0.0
H650 H 0.99407 0.79889 0.34436 0.0
H651 H 0.04582 0.86016 0.26251 0.0
C652 C 0.03965 0.73481 0.18482 0.0
C653 C 0.03206 0.69596 0.18711 0.0
C654 C 0.01128 0.68204 0.21471 0.0
C655 C 0.99986 0.70619 0.24057 0.0
C656 C 0.00909 0.74419 0.23822 0.0
C657 C 0.02813 0.75851 0.21081 0.0
C658 C 0.03862 0.79932 0.21604 0.0
C659 C 0.08153 0.80496 0.21399 0.0
C660 C 0.01796 0.82475 0.19096 0.0
C661 C 0.02415 0.80523 0.25128 0.0
C662 C 0.00668 0.77333 0.26351 0.0
C663 C 0.99485 0.77078 0.29677 0.0
C664 C 0.00178 0.80129 0.3182 0.0
C665 C 0.02043 0.83378 0.30625 0.0
C666 C 0.0307 0.83604 0.27215 0.0
H667 H 0.79844 0.02268 0.16782 0.0
H668 H 0.89102 0.02404 0.23798 0.0
H669 H 0.85086 0.99443 0.28076 0.0
H670 H 0.73801 0.05784 0.2173 0.0
H671 H 0.69664 0.03208 0.20484 0.0
H672 H 0.73483 0.03723 0.17612 0.0
H673 H 0.73936 0.9649 0.16986 0.0
H674 H 0.70066 0.95948 0.1987 0.0
H675 H 0.7446 0.93583 0.20655 0.0
H676 H 0.79872 0.98488 0.31962 0.0
H677 H 0.74047 0.99945 0.35042 0.0
H678 H 0.67972 0.00565 0.25666 0.0
C679 C 0.81066 0.01454 0.19157 0.0
C680 C 0.84769 0.02511 0.19965 0.0
C681 C 0.86269 0.01571 0.23132 0.0
C682 C 0.84009 0.99866 0.2557 0.0
C683 C 0.80256 0.99122 0.24799 0.0
C684 C 0.78802 0.99842 0.2164 0.0
C685 C 0.7455 0.99647 0.21654 0.0
C686 C 0.72778 0.03308 0.20296 0.0
C687 C 0.73173 0.96211 0.19674 0.0
C688 C 0.73833 0.99144 0.25365 0.0
C689 C 0.77152 0.98652 0.27118 0.0
C690 C 0.77245 0.98743 0.30615 0.0
C691 C 0.7392 0.99575 0.32352 0.0
C692 C 0.70579 0.0037 0.30577 0.0
C693 C 0.70494 0.99919 0.2707 0.0
H694 H 0.40488 0.67492 0.26862 0.0
H695 H 0.47388 0.7303 0.34333 0.0
H696 H 0.49781 0.77389 0.29992 0.0
H697 H 0.47063 0.68621 0.19662 0.0
H698 H 0.43251 0.69474 0.16789 0.0
H699 H 0.4255 0.66447 0.20357 0.0
H700 H 0.36902 0.70537 0.22263 0.0
H701 H 0.37569 0.73541 0.18696 0.0
H702 H 0.37563 0.75519 0.22851 0.0
H703 H 0.50733 0.81633 0.25031 0.0
H704 H 0.49922 0.85565 0.19983 0.0
H705 H 0.42486 0.77151 0.15754 0.0
C706 C 0.42567 0.69567 0.27572 0.0
C707 C 0.43771 0.6992 0.30925 0.0
C708 C 0.46445 0.72708 0.3177 0.0
C709 C 0.47833 0.75178 0.29319 0.0
C710 C 0.4654 0.74791 0.26038 0.0
C711 C 0.43971 0.72045 0.25165 0.0
C712 C 0.42723 0.72448 0.21562 0.0
C713 C 0.43973 0.69045 0.19469 0.0
C714 C 0.38438 0.73049 0.21332 0.0
C715 C 0.4487 0.75948 0.20578 0.0
C716 C 0.47111 0.77223 0.2317 0.0
C717 C 0.49055 0.80619 0.2296 0.0
C718 C 0.48585 0.82831 0.2008 0.0
C719 C 0.46173 0.81641 0.17467 0.0
C720 C 0.44416 0.78093 0.17676 0.0
H721 H 0.68887 0.36491 0.23416 0.0
H722 H 0.68989 0.48409 0.21132 0.0
H723 H 0.74625 0.49208 0.24736 0.0
H724 H 0.72145 0.37069 0.32013 0.0
H725 H 0.75036 0.32933 0.3166 0.0
H726 H 0.70804 0.33332 0.29206 0.0
H727 H 0.74536 0.32281 0.23737 0.0
H728 H 0.78793 0.31773 0.26115 0.0
H729 H 0.78534 0.35222 0.22817 0.0
H730 H 0.80441 0.48549 0.2849 0.0
H731 H 0.86195 0.46379 0.31471 0.0
H732 H 0.82249 0.34883 0.30819 0.0
C733 C 0.70047 0.39287 0.2372 0.0
C734 C 0.68498 0.42401 0.22046 0.0
C735 C 0.70146 0.45996 0.22425 0.0
C736 C 0.73322 0.46474 0.24475 0.0
C737 C 0.74799 0.4332 0.26084 0.0
C738 C 0.7322 0.39793 0.25692 0.0
C739 C 0.75493 0.3678 0.27401 0.0
C740 C 0.73233 0.34919 0.30238 0.0
C741 C 0.76924 0.33844 0.24866 0.0
C742 C 0.78653 0.39139 0.28767 0.0
C743 C 0.78184 0.42917 0.28064 0.0
C744 C 0.80826 0.456 0.29061 0.0
C745 C 0.84063 0.44359 0.30754 0.0
C746 C 0.8462 0.40482 0.31333 0.0
C747 C 0.81865 0.37867 0.30379 0.0
H748 H 0.96782 0.24132 0.67358 0.0
H749 H 0.98999 0.15103 0.74359 0.0
H750 H 0.01264 0.19686 0.78502 0.0
H751 H 0.04614 0.30993 0.70701 0.0
H752 H 0.01496 0.34914 0.70023 0.0
H753 H 0.01402 0.30946 0.67212 0.0
H754 H 0.94254 0.30201 0.68276 0.0
H755 H 0.94338 0.3412 0.7108 0.0
H756 H 0.92581 0.29643 0.72513 0.0
H757 H 0.01183 0.25015 0.82351 0.0
H758 H 0.99037 0.30627 0.85433 0.0
H759 H 0.97217 0.36418 0.76033 0.0
C760 C 0.97952 0.2312 0.69693 0.0
C761 C 0.97735 0.19279 0.70542 0.0
C762 C 0.99162 0.18041 0.73658 0.0
C763 C 0.00474 0.20628 0.76023 0.0
C764 C 0.00389 0.24441 0.7522 0.0
C765 C 0.99244 0.25688 0.72093 0.0
C766 C 0.98736 0.29917 0.72065 0.0
C767 C 0.01743 0.31803 0.69871 0.0
C768 C 0.94742 0.31029 0.70921 0.0
C769 C 0.99376 0.3079 0.75735 0.0
C770 C 0.00448 0.27614 0.77495 0.0
C771 C 0.00503 0.27558 0.80993 0.0
C772 C 0.9927 0.30753 0.82731 0.0
C773 C 0.9802 0.33958 0.80965 0.0
C774 C 0.98278 0.3404 0.77439 0.0
H775 H 0.32443 0.8943 0.71353 0.0
H776 H 0.2772 0.96696 0.63707 0.0
H777 H 0.22816 0.9877 0.67695 0.0
H778 H 0.23868 0.86321 0.74627 0.0
H779 H 0.25447 0.86164 0.78913 0.0
H780 H 0.28768 0.85563 0.75559 0.0
H781 H 0.32752 0.91075 0.77899 0.0
H782 H 0.2942 0.91706 0.81254 0.0
H783 H 0.30583 0.95597 0.78551 0.0
H784 H 0.18087 0.99562 0.72342 0.0
H785 H 0.13861 0.98911 0.77233 0.0
H786 H 0.21814 0.91265 0.81856 0.0
C787 C 0.30411 0.91499 0.70531 0.0
C788 C 0.30462 0.92914 0.67228 0.0
C789 C 0.27732 0.95586 0.66234 0.0
C790 C 0.24948 0.9679 0.68483 0.0
C791 C 0.24958 0.95314 0.71718 0.0
C792 C 0.27626 0.92732 0.7274 0.0
C793 C 0.26881 0.91381 0.76272 0.0
C794 C 0.26199 0.87106 0.76344 0.0
C795 C 0.30101 0.92509 0.78633 0.0
C796 C 0.23327 0.93543 0.77056 0.0
C797 C 0.22273 0.95818 0.7441 0.0
C798 C 0.18918 0.97845 0.74453 0.0
C799 C 0.1654 0.97463 0.77239 0.0
C800 C 0.17539 0.9508 0.79935 0.0
C801 C 0.21019 0.93178 0.79868 0.0
H802 H 0.57851 0.17172 0.73879 0.0
H803 H 0.51989 0.20856 0.82813 0.0
H804 H 0.49357 0.26241 0.79646 0.0
H805 H 0.60909 0.2566 0.71474 0.0
H806 H 0.60467 0.24903 0.67029 0.0
H807 H 0.61118 0.2097 0.69773 0.0
H808 H 0.55025 0.17912 0.67454 0.0
H809 H 0.54343 0.21877 0.64706 0.0
H810 H 0.50669 0.20499 0.67566 0.0
H811 H 0.485 0.31815 0.75869 0.0
H812 H 0.49701 0.37086 0.71992 0.0
H813 H 0.55933 0.29611 0.65464 0.0
C814 C 0.55926 0.19052 0.75149 0.0
C815 C 0.55117 0.18614 0.78584 0.0
C816 C 0.52619 0.2114 0.80172 0.0
C817 C 0.51101 0.24189 0.78386 0.0
C818 C 0.52058 0.24611 0.75011 0.0
C819 C 0.5439 0.22077 0.73406 0.0
C820 C 0.55428 0.23389 0.69926 0.0
C821 C 0.59731 0.23755 0.69532 0.0
C822 C 0.53765 0.20763 0.67255 0.0
C823 C 0.53511 0.27178 0.69885 0.0
C824 C 0.51506 0.27805 0.72806 0.0
C825 C 0.49963 0.31316 0.73534 0.0
C826 C 0.50652 0.34296 0.71312 0.0
C827 C 0.52885 0.33741 0.68417 0.0
C828 C 0.5414 0.30094 0.67615 0.0
H829 H 0.32757 0.51009 0.81327 0.0
H830 H 0.25131 0.54479 0.89208 0.0
H831 H 0.19732 0.52969 0.85583 0.0
H832 H 0.28562 0.553 0.75193 0.0
H833 H 0.292 0.51849 0.71936 0.0
H834 H 0.32393 0.51987 0.75403 0.0
H835 H 0.3098 0.45014 0.76774 0.0
H836 H 0.27815 0.44817 0.73251 0.0
H837 H 0.26186 0.43506 0.77364 0.0
H838 H 0.1544 0.52967 0.80728 0.0
H839 H 0.12527 0.53831 0.75169 0.0
H840 H 0.2281 0.50101 0.70405 0.0
C841 C 0.29946 0.51265 0.82346 0.0
C842 C 0.29352 0.5285 0.85542 0.0
C843 C 0.25645 0.53229 0.86778 0.0
C844 C 0.22559 0.52379 0.84731 0.0
C845 C 0.23239 0.51079 0.8149 0.0
C846 C 0.26846 0.50423 0.80331 0.0
C847 C 0.26862 0.49578 0.76612 0.0
C848 C 0.29401 0.52345 0.74676 0.0
C849 C 0.28029 0.45484 0.75963 0.0
C850 C 0.22752 0.50179 0.75803 0.0
C851 C 0.20693 0.50968 0.78662 0.0
C852 C 0.1698 0.5221 0.7849 0.0
C853 C 0.15357 0.52721 0.75327 0.0
C854 C 0.17439 0.51969 0.72385 0.0
C855 C 0.21133 0.50572 0.7263 0.0
H856 H 0.06543 0.5488 0.02613 0.0
H857 H 0.97132 0.60957 0.0692 0.0
H858 H 0.92847 0.57924 0.02864 0.0
H859 H 0.03398 0.55281 0.93968 0.0
H860 H 0.05065 0.50618 0.93014 0.0
H861 H 0.07389 0.53381 0.96175 0.0
H862 H 0.06385 0.48014 0.00476 0.0
H863 H 0.04033 0.45246 0.97337 0.0
H864 H 0.017 0.46276 0.01239 0.0
H865 H 0.89568 0.54075 0.98453 0.0
H866 H 0.8756 0.49833 0.93892 0.0
H867 H 0.99122 0.46256 0.92503 0.0
C868 C 0.03588 0.55603 0.0268 0.0
C869 C 0.02167 0.58162 0.0507 0.0
C870 C 0.98278 0.59012 0.05099 0.0
C871 C 0.95824 0.573 0.02811 0.0
C872 C 0.97308 0.5475 0.00515 0.0
C873 C 0.01101 0.53917 0.00422 0.0
C874 C 0.01972 0.51031 0.97745 0.0
C875 C 0.04612 0.52677 0.95067 0.0
C876 C 0.03619 0.47429 0.99293 0.0
C877 C 0.98072 0.50355 0.96357 0.0
C878 C 0.9542 0.52527 0.97986 0.0
C879 C 0.91621 0.52368 0.97152 0.0
C880 C 0.90506 0.49946 0.94565 0.0
C881 C 0.93183 0.47716 0.92848 0.0
C882 C 0.9701 0.47923 0.93773 0.0
H883 H 0.04064 0.94203 0.97369 0.0
H884 H 0.08954 0.0352 0.91866 0.0
H885 H 0.05721 0.08001 0.95629 0.0
H886 H 0.95185 0.98192 0.98472 0.0
H887 H 0.9445 0.96349 0.02626 0.0
H888 H 0.97441 0.9388 0.99732 0.0
H889 H 0.02944 0.9412 0.03981 0.0
H890 H 0.99949 0.96532 0.06916 0.0
H891 H 0.04379 0.98582 0.05697 0.0
H892 H 0.01549 0.11454 0.99777 0.0
H893 H 0.97119 0.13562 0.04187 0.0
H894 H 0.94943 0.01926 0.06823 0.0
C895 C 0.04527 0.97184 0.97 0.0
C896 C 0.06777 0.98518 0.94342 0.0
C897 C 0.07263 0.02441 0.93908 0.0
C898 C 0.05427 0.05005 0.96022 0.0
C899 C 0.03128 0.03594 0.98557 0.0
C900 C 0.02709 0.99772 0.99073 0.0
C901 C 0.99965 0.98964 0.01875 0.0
C902 C 0.96559 0.96714 0.00598 0.0
C903 C 0.01927 0.96931 0.0479 0.0
C904 C 0.98862 0.02925 0.0283 0.0
C905 C 0.00717 0.05565 0.009 0.0
C906 C 1.00099 0.0941 0.01315 0.0
C907 C 0.97565 0.10581 0.03808 0.0
C908 C 0.95683 0.07909 0.05835 0.0
C909 C 0.96331 0.04039 0.05307 0.0
H910 H 0.44016 0.97408 0.01755 0.0
H911 H 0.52549 0.89268 0.04537 0.0
H912 H 0.56938 0.92132 0.00464 0.0
H913 H 0.46298 0.97839 0.92889 0.0
H914 H 0.45403 0.02817 0.9261 0.0
H915 H 0.42904 1.00005 0.95632 0.0
H916 H 0.45202 0.04412 0.00376 0.0
H917 H 0.4774 0.07215 0.97375 0.0
H918 H 0.50171 0.05211 0.0091 0.0
H919 H 0.60448 0.96008 0.9621 0.0
H920 H 0.62758 0.00477 0.91941 0.0
H921 H 0.5195 0.06138 0.92017 0.0
C922 C 0.46791 0.96196 0.01477 0.0
C923 C 0.4794 0.93104 0.03446 0.0
C924 C 0.51608 0.91627 0.03039 0.0
C925 C 0.54121 0.93239 0.0074 0.0
C926 C 0.5292 0.96327 0.98877 0.0
C927 C 0.49336 0.97779 0.99208 0.0
C928 C 0.48767 0.01161 0.9696 0.0
C929 C 0.45659 0.00409 0.94369 0.0
C930 C 0.47921 0.04709 0.9903 0.0
C931 C 0.52596 0.01395 0.95318 0.0
C932 C 0.54951 0.9858 0.96456 0.0
C933 C 0.58628 0.98219 0.95297 0.0
C934 C 0.59918 0.00776 0.92881 0.0
C935 C 0.57538 0.03659 0.91658 0.0
C936 C 0.53841 0.03977 0.92918 0.0
H937 H 0.40636 0.51868 0.98706 0.0
H938 H 0.46161 0.62744 0.98546 0.0
H939 H 0.50896 0.60396 0.02568 0.0
H940 H 0.42421 0.49684 0.07603 0.0
H941 H 0.43177 0.44772 0.06725 0.0
H942 H 0.4002 0.47476 0.04149 0.0
H943 H 0.43808 0.455 0.98889 0.0
H944 H 0.47025 0.42859 0.01449 0.0
H945 H 0.48777 0.46477 0.98698 0.0
H946 H 0.55339 0.56663 0.06206 0.0
H947 H 0.58851 0.51994 0.09562 0.0
H948 H 0.50436 0.43559 0.07219 0.0
C949 C 0.4278 0.53791 0.99586 0.0
C950 C 0.4302 0.57497 0.98336 0.0
C951 C 0.45908 0.59905 0.99499 0.0
C952 C 0.48618 0.5859 0.01768 0.0
C953 C 0.48385 0.5487 0.02848 0.0
C954 C 0.45509 0.52521 0.0183 0.0
C955 C 0.45987 0.48594 0.03224 0.0
C956 C 0.42707 0.47573 0.05565 0.0
C957 C 0.46426 0.45688 0.00396 0.0
C958 C 0.49614 0.4908 0.05148 0.0
C959 C 0.50953 0.52718 0.04908 0.0
C960 C 0.54301 0.53814 0.06434 0.0
C961 C 0.56286 0.51138 0.08314 0.0
C962 C 0.54918 0.47416 0.08641 0.0
C963 C 0.51559 0.46379 0.07005 0.0
H964 H 0.05901 0.98618 0.47193 0.0
H965 H 0.96914 0.90697 0.45115 0.0
H966 H 0.92832 0.93987 0.49155 0.0
H967 H 0.0384 0.99717 0.56207 0.0
H968 H 0.05002 0.04649 0.56177 0.0
H969 H 0.07302 0.01489 0.53308 0.0
H970 H 0.05174 0.05677 0.48348 0.0
H971 H 0.02804 0.08809 0.51193 0.0
H972 H 0.00243 0.06672 0.47796 0.0
H973 H 0.89553 0.98413 0.53028 0.0
H974 H 0.87497 0.03288 0.57018 0.0
H975 H 0.98616 0.08314 0.56686 0.0
C976 C 0.03106 0.97524 0.47649 0.0
C977 C 0.01729 0.94391 0.45849 0.0
C978 C 0.98035 0.93078 0.46478 0.0
C979 C 0.95688 0.94939 0.48756 0.0
C980 C 0.97083 0.98095 0.50401 0.0
C981 C 0.00723 0.99345 0.49925 0.0
C982 C 0.0149 0.02856 0.51967 0.0
C983 C 0.04592 0.02133 0.5457 0.0
C984 C 0.02486 0.062 0.49689 0.0
C985 C 0.97697 0.03406 0.53628 0.0
C986 C 0.95194 0.00635 0.52674 0.0
C987 C 0.91495 0.0058 0.53818 0.0
C988 C 0.90347 0.03377 0.56066 0.0
C989 C 0.92893 0.06182 0.5716 0.0
C990 C 0.96603 0.06212 0.55888 0.0
H991 H 0.57885 0.9887 0.43334 0.0
H992 H 0.52273 0.09649 0.42369 0.0
H993 H 0.46948 0.07246 0.45719 0.0
H994 H 0.49735 0.9315 0.42631 0.0
H995 H 0.51229 0.89742 0.45696 0.0
H996 H 0.54676 0.92326 0.4332 0.0
H997 H 0.57778 0.94685 0.48804 0.0
H998 H 0.5439 0.92045 0.51194 0.0
H999 H 0.5493 0.97019 0.51908 0.0
H1000 H 0.42125 0.03585 0.48983 0.0
H1001 H 0.3848 0.99175 0.52493 0.0
H1002 H 0.47256 0.90797 0.51345 0.0
C1003 C 0.55562 0.00743 0.43869 0.0
C1004 C 0.55497 0.04451 0.426 0.0
C1005 C 0.52394 0.06806 0.43336 0.0
C1006 C 0.49344 0.05458 0.45215 0.0
C1007 C 0.49449 0.01754 0.46348 0.0
C1008 C 0.52501 0.99447 0.45748 0.0
C1009 C 0.5193 0.95592 0.4728 0.0
C1010 C 0.5189 0.92522 0.44569 0.0
C1011 C 0.54935 0.9479 0.49956 0.0
C1012 C 0.48077 0.96089 0.48833 0.0
C1013 C 0.46681 0.99653 0.48243 0.0
C1014 C 0.43191 0.00788 0.49465 0.0
C1015 C 0.4113 0.98254 0.51437 0.0
C1016 C 0.42574 0.94637 0.52179 0.0
C1017 C 0.46058 0.93526 0.50793 0.0
H1018 H 0.4987 0.46157 0.56977 0.0
H1019 H 0.59722 0.5327 0.57993 0.0
H1020 H 0.56733 0.58063 0.54411 0.0
H1021 H 0.48197 0.48313 0.48282 0.0
H1022 H 0.4315 0.482 0.4868 0.0
H1023 H 0.46019 0.45388 0.51422 0.0
H1024 H 0.4284 0.48507 0.5656 0.0
H1025 H 0.39999 0.51368 0.53829 0.0
H1026 H 0.4291 0.53554 0.56967 0.0
H1027 H 0.52712 0.62093 0.50773 0.0
H1028 H 0.48221 0.64808 0.46745 0.0
H1029 H 0.41004 0.5505 0.47913 0.0
C1030 C 0.51397 0.48721 0.56436 0.0
C1031 C 0.55027 0.49347 0.57767 0.0
C1032 C 0.56946 0.52725 0.5699 0.0
C1033 C 0.5526 0.55477 0.54979 0.0
C1034 C 0.51663 0.54801 0.53744 0.0
C1035 C 0.4977 0.51488 0.54398 0.0
C1036 C 0.46003 0.51402 0.52618 0.0
C1037 C 0.45834 0.48133 0.50101 0.0
C1038 C 0.42746 0.51196 0.55145 0.0
C1039 C 0.46089 0.55176 0.50851 0.0
C1040 C 0.49361 0.57106 0.51575 0.0
C1041 C 0.50136 0.60613 0.50188 0.0
C1042 C 0.47558 0.62139 0.47913 0.0
C1043 C 0.44255 0.6015 0.47025 0.0
C1044 C 0.43479 0.56659 0.48575 0.0
H1045 H 0.97985 0.43994 0.438 0.0
H1046 H 0.03733 0.33238 0.43877 0.0
H1047 H 0.08168 0.35672 0.48146 0.0
H1048 H 0.06219 0.49635 0.44411 0.0
H1049 H 0.04051 0.53145 0.47032 0.0
H1050 H 0.01234 0.50491 0.44127 0.0
H1051 H 0.96867 0.48338 0.48966 0.0
H1052 H 0.99638 0.51029 0.51877 0.0
H1053 H 0.98882 0.46082 0.52589 0.0
H1054 H 0.11913 0.39331 0.52478 0.0
H1055 H 0.14631 0.43885 0.56498 0.0
H1056 H 0.06609 0.52296 0.53219 0.0
C1057 C 0.00145 0.42128 0.44745 0.0
C1058 C 0.00501 0.38416 0.43542 0.0
C1059 C 0.03404 0.36086 0.44792 0.0
C1060 C 0.05937 0.37447 0.47203 0.0
C1061 C 0.05542 0.41151 0.48294 0.0
C1062 C 0.02717 0.43455 0.47099 0.0
C1063 C 0.02937 0.47349 0.48599 0.0
C1064 C 0.03653 0.5033 0.4588 0.0
C1065 C 0.9937 0.4825 0.50629 0.0
C1066 C 0.06318 0.46882 0.50848 0.0
C1067 C 0.07779 0.43287 0.50655 0.0
C1068 C 0.10812 0.42162 0.52625 0.0
C1069 C 0.12343 0.44765 0.5489 0.0
C1070 C 0.10859 0.48448 0.55129 0.0
C1071 C 0.0785 0.49523 0.53041 0.0
loop_
_geom_bond_atom_site_label_1
_geom_bond_atom_site_label_2
_geom_bond_distance
_geom_bond_site_symmetry_2
_ccdc_geom_bond_type
In0 O1 2.294 . S
In0 O2 2.326 . S
In0 O6 2.266 . S
In0 O7 2.326 . S
In0 O8 2.266 . S
In0 O9 2.326 . S
In0 O11 2.294 . S
In0 O12 2.326 . S
O1 In0 2.294 . S
O1 C10 1.240 . S
O2 In0 2.326 . S
O2 C10 1.252 . S
C3 O6 1.252 . S
C3 O7 1.260 . S
C4 O11 1.240 . S
C4 O12 1.252 . S
C5 O8 1.252 . S
C5 O9 1.260 . S
O6 In0 2.266 . S
O6 C3 1.252 . S
O7 In0 2.326 . S
O7 C3 1.260 . S
O8 In0 2.266 . S
O8 C5 1.252 . S
O9 In0 2.326 . S
O9 C5 1.260 . S
C10 O1 1.240 . S
C10 O2 1.252 . S
O11 In0 2.294 . S
O11 C4 1.240 . S
O12 In0 2.326 . S
O12 C4 1.252 . S
In13 O14 2.294 . S
In13 O15 2.326 . S
In13 O19 2.266 . S
In13 O20 2.326 . S
In13 O21 2.266 . S
In13 O22 2.326 . S
In13 O24 2.294 . S
In13 O25 2.326 . S
O14 In13 2.294 . S
O14 C23 1.240 . S
O15 In13 2.326 . S
O15 C23 1.252 . S
C16 O19 1.252 . S
C16 O20 1.260 . S
C17 O24 1.240 . S
C17 O25 1.252 . S
C18 O21 1.252 . S
C18 O22 1.260 . S
O19 In13 2.266 . S
O19 C16 1.252 . S
O20 In13 2.326 . S
O20 C16 1.260 . S
O21 In13 2.266 . S
O21 C18 1.252 . S
O22 In13 2.326 . S
O22 C18 1.260 . S
C23 O14 1.240 . S
C23 O15 1.252 . S
O24 In13 2.294 . S
O24 C17 1.240 . S
O25 In13 2.326 . S
O25 C17 1.252 . S
In26 O27 2.294 . S
In26 O28 2.326 . S
In26 O32 2.266 . S
In26 O33 2.326 . S
In26 O34 2.266 . S
In26 O35 2.326 . S
In26 O37 2.294 . S
In26 O38 2.326 . S
O27 In26 2.294 . S
O27 C36 1.240 . S
O28 In26 2.326 . S
O28 C36 1.252 . S
C29 O32 1.252 . S
C29 O33 1.260 . S
C30 O37 1.240 . S
C30 O38 1.252 . S
C31 O34 1.252 . S
C31 O35 1.260 . S
O32 In26 2.266 . S
O32 C29 1.252 . S
O33 In26 2.326 . S
O33 C29 1.260 . S
O34 In26 2.266 . S
O34 C31 1.252 . S
O35 In26 2.326 . S
O35 C31 1.260 . S
C36 O27 1.240 . S
C36 O28 1.252 . S
O37 In26 2.294 . S
O37 C30 1.240 . S
O38 In26 2.326 . S
O38 C30 1.252 . S
In39 O40 2.294 . S
In39 O41 2.326 . S
In39 O45 2.266 . S
In39 O46 2.326 . S
In39 O47 2.266 . S
In39 O48 2.326 . S
In39 O50 2.294 . S
In39 O51 2.326 . S
O40 In39 2.294 . S
O40 C49 1.240 . S
O41 In39 2.326 . S
O41 C49 1.252 . S
C42 O45 1.252 . S
C42 O46 1.260 . S
C43 O50 1.240 . S
C43 O51 1.252 . S
C44 O47 1.252 . S
C44 O48 1.260 . S
O45 In39 2.266 . S
O45 C42 1.252 . S
O46 In39 2.326 . S
O46 C42 1.260 . S
O47 In39 2.266 . S
O47 C44 1.252 . S
O48 In39 2.326 . S
O48 C44 1.260 . S
C49 O40 1.240 . S
C49 O41 1.252 . S
O50 In39 2.294 . S
O50 C43 1.240 . S
O51 In39 2.326 . S
O51 C43 1.252 . S
In52 O53 2.294 . S
In52 O54 2.326 . S
In52 O58 2.266 . S
In52 O59 2.326 . S
In52 O60 2.266 . S
In52 O61 2.326 . S
In52 O63 2.294 . S
In52 O64 2.326 . S
O53 In52 2.294 . S
O53 C62 1.240 . S
O54 In52 2.326 . S
O54 C62 1.252 . S
C55 O58 1.252 . S
C55 O59 1.260 . S
C56 O63 1.240 . S
C56 O64 1.252 . S
C57 O60 1.252 . S
C57 O61 1.260 . S
O58 In52 2.266 . S
O58 C55 1.252 . S
O59 In52 2.326 . S
O59 C55 1.260 . S
O60 In52 2.266 . S
O60 C57 1.252 . S
O61 In52 2.326 . S
O61 C57 1.260 . S
C62 O53 1.240 . S
C62 O54 1.252 . S
O63 In52 2.294 . S
O63 C56 1.240 . S
O64 In52 2.326 . S
O64 C56 1.252 . S
In65 O66 2.294 . S
In65 O67 2.326 . S
In65 O71 2.266 . S
In65 O72 2.326 . S
In65 O73 2.266 . S
In65 O74 2.326 . S
In65 O76 2.294 . S
In65 O77 2.326 . S
O66 In65 2.294 . S
O66 C75 1.240 . S
O67 In65 2.326 . S
O67 C75 1.252 . S
C68 O71 1.252 . S
C68 O72 1.260 . S
C69 O76 1.240 . S
C69 O77 1.252 . S
C70 O73 1.252 . S
C70 O74 1.260 . S
O71 In65 2.266 . S
O71 C68 1.252 . S
O72 In65 2.326 . S
O72 C68 1.260 . S
O73 In65 2.266 . S
O73 C70 1.252 . S
O74 In65 2.326 . S
O74 C70 1.260 . S
C75 O66 1.240 . S
C75 O67 1.252 . S
O76 In65 2.294 . S
O76 C69 1.240 . S
O77 In65 2.326 . S
O77 C69 1.252 . S
In78 O79 2.294 . S
In78 O80 2.326 . S
In78 O84 2.266 . S
In78 O85 2.326 . S
In78 O86 2.266 . S
In78 O87 2.326 . S
In78 O89 2.294 . S
In78 O90 2.326 . S
O79 In78 2.294 . S
O79 C88 1.240 . S
O80 In78 2.326 . S
O80 C88 1.252 . S
C81 O84 1.252 . S
C81 O85 1.260 . S
C82 O89 1.240 . S
C82 O90 1.252 . S
C83 O86 1.252 . S
C83 O87 1.260 . S
O84 In78 2.266 . S
O84 C81 1.252 . S
O85 In78 2.326 . S
O85 C81 1.260 . S
O86 In78 2.266 . S
O86 C83 1.252 . S
O87 In78 2.326 . S
O87 C83 1.260 . S
C88 O79 1.240 . S
C88 O80 1.252 . S
O89 In78 2.294 . S
O89 C82 1.240 . S
O90 In78 2.326 . S
O90 C82 1.252 . S
In91 O92 2.294 . S
In91 O93 2.326 . S
In91 O97 2.266 . S
In91 O98 2.326 . S
In91 O99 2.266 . S
In91 O100 2.326 . S
In91 O102 2.294 . S
In91 O103 2.326 . S
O92 In91 2.294 . S
O92 C101 1.240 . S
O93 In91 2.326 . S
O93 C101 1.252 . S
C94 O97 1.252 . S
C94 O98 1.260 . S
C95 O102 1.240 . S
C95 O103 1.252 . S
C96 O99 1.252 . S
C96 O100 1.260 . S
O97 In91 2.266 . S
O97 C94 1.252 . S
O98 In91 2.326 . S
O98 C94 1.260 . S
O99 In91 2.266 . S
O99 C96 1.252 . S
O100 In91 2.326 . S
O100 C96 1.260 . S
C101 O92 1.240 . S
C101 O93 1.252 . S
O102 In91 2.294 . S
O102 C95 1.240 . S
O103 In91 2.326 . S
O103 C95 1.252 . S
In104 O105 2.294 . S
In104 O106 2.326 . S
In104 O110 2.266 . S
In104 O111 2.326 . S
In104 O112 2.266 . S
In104 O113 2.326 . S
In104 O115 2.294 . S
In104 O116 2.326 . S
O105 In104 2.294 . S
O105 C114 1.240 . S
O106 In104 2.326 . S
O106 C114 1.252 . S
C107 O110 1.252 . S
C107 O111 1.260 . S
C108 O115 1.240 . S
C108 O116 1.252 . S
C109 O112 1.252 . S
C109 O113 1.260 . S
O110 In104 2.266 . S
O110 C107 1.252 . S
O111 In104 2.326 . S
O111 C107 1.260 . S
O112 In104 2.266 . S
O112 C109 1.252 . S
O113 In104 2.326 . S
O113 C109 1.260 . S
C114 O105 1.240 . S
C114 O106 1.252 . S
O115 In104 2.294 . S
O115 C108 1.240 . S
O116 In104 2.326 . S
O116 C108 1.252 . S
In117 O118 2.294 . S
In117 O119 2.326 . S
In117 O123 2.266 . S
In117 O124 2.326 . S
In117 O125 2.266 . S
In117 O126 2.326 . S
In117 O128 2.294 . S
In117 O129 2.326 . S
O118 In117 2.294 . S
O118 C127 1.240 . S
O119 In117 2.326 . S
O119 C127 1.252 . S
C120 O123 1.252 . S
C120 O124 1.260 . S
C121 O128 1.240 . S
C121 O129 1.252 . S
C122 O125 1.252 . S
C122 O126 1.260 . S
O123 In117 2.266 . S
O123 C120 1.252 . S
O124 In117 2.326 . S
O124 C120 1.260 . S
O125 In117 2.266 . S
O125 C122 1.252 . S
O126 In117 2.326 . S
O126 C122 1.260 . S
C127 O118 1.240 . S
C127 O119 1.252 . S
O128 In117 2.294 . S
O128 C121 1.240 . S
O129 In117 2.326 . S
O129 C121 1.252 . S
In130 O131 2.294 . S
In130 O132 2.326 . S
In130 O136 2.266 . S
In130 O137 2.326 . S
In130 O138 2.266 . S
In130 O139 2.326 . S
In130 O141 2.294 . S
In130 O142 2.326 . S
O131 In130 2.294 . S
O131 C140 1.240 . S
O132 In130 2.326 . S
O132 C140 1.252 . S
C133 O136 1.252 . S
C133 O137 1.260 . S
C134 O141 1.240 . S
C134 O142 1.252 . S
C135 O138 1.252 . S
C135 O139 1.260 . S
O136 In130 2.266 . S
O136 C133 1.252 . S
O137 In130 2.326 . S
O137 C133 1.260 . S
O138 In130 2.266 . S
O138 C135 1.252 . S
O139 In130 2.326 . S
O139 C135 1.260 . S
C140 O131 1.240 . S
C140 O132 1.252 . S
O141 In130 2.294 . S
O141 C134 1.240 . S
O142 In130 2.326 . S
O142 C134 1.252 . S
In143 O144 2.294 . S
In143 O145 2.326 . S
In143 O149 2.266 . S
In143 O150 2.326 . S
In143 O151 2.266 . S
In143 O152 2.326 . S
In143 O154 2.294 . S
In143 O155 2.326 . S
O144 In143 2.294 . S
O144 C153 1.240 . S
O145 In143 2.326 . S
O145 C153 1.252 . S
C146 O149 1.252 . S
C146 O150 1.260 . S
C147 O154 1.240 . S
C147 O155 1.252 . S
C148 O151 1.252 . S
C148 O152 1.260 . S
O149 In143 2.266 . S
O149 C146 1.252 . S
O150 In143 2.326 . S
O150 C146 1.260 . S
O151 In143 2.266 . S
O151 C148 1.252 . S
O152 In143 2.326 . S
O152 C148 1.260 . S
C153 O144 1.240 . S
C153 O145 1.252 . S
O154 In143 2.294 . S
O154 C147 1.240 . S
O155 In143 2.326 . S
O155 C147 1.252 . S
In156 O157 2.294 . S
In156 O158 2.326 . S
In156 O162 2.266 . S
In156 O163 2.326 . S
In156 O164 2.266 . S
In156 O165 2.326 . S
In156 O167 2.294 . S
In156 O168 2.326 . S
O157 In156 2.294 . S
O157 C166 1.240 . S
O158 In156 2.326 . S
O158 C166 1.252 . S
C159 O162 1.252 . S
C159 O163 1.260 . S
C160 O167 1.240 . S
C160 O168 1.252 . S
C161 O164 1.252 . S
C161 O165 1.260 . S
O162 In156 2.266 . S
O162 C159 1.252 . S
O163 In156 2.326 . S
O163 C159 1.260 . S
O164 In156 2.266 . S
O164 C161 1.252 . S
O165 In156 2.326 . S
O165 C161 1.260 . S
C166 O157 1.240 . S
C166 O158 1.252 . S
O167 In156 2.294 . S
O167 C160 1.240 . S
O168 In156 2.326 . S
O168 C160 1.252 . S
In169 O170 2.294 . S
In169 O171 2.326 . S
In169 O175 2.266 . S
In169 O176 2.326 . S
In169 O177 2.266 . S
In169 O178 2.326 . S
In169 O180 2.294 . S
In169 O181 2.326 . S
O170 In169 2.294 . S
O170 C179 1.240 . S
O171 In169 2.326 . S
O171 C179 1.252 . S
C172 O175 1.252 . S
C172 O176 1.260 . S
C173 O180 1.240 . S
C173 O181 1.252 . S
C174 O177 1.252 . S
C174 O178 1.260 . S
O175 In169 2.266 . S
O175 C172 1.252 . S
O176 In169 2.326 . S
O176 C172 1.260 . S
O177 In169 2.266 . S
O177 C174 1.252 . S
O178 In169 2.326 . S
O178 C174 1.260 . S
C179 O170 1.240 . S
C179 O171 1.252 . S
O180 In169 2.294 . S
O180 C173 1.240 . S
O181 In169 2.326 . S
O181 C173 1.252 . S
In182 O183 2.294 . S
In182 O184 2.326 . S
In182 O188 2.266 . S
In182 O189 2.326 . S
In182 O190 2.266 . S
In182 O191 2.326 . S
In182 O193 2.294 . S
In182 O194 2.326 . S
O183 In182 2.294 . S
O183 C192 1.240 . S
O184 In182 2.326 . S
O184 C192 1.252 . S
C185 O188 1.252 . S
C185 O189 1.260 . S
C186 O193 1.240 . S
C186 O194 1.252 . S
C187 O190 1.252 . S
C187 O191 1.260 . S
O188 In182 2.266 . S
O188 C185 1.252 . S
O189 In182 2.326 . S
O189 C185 1.260 . S
O190 In182 2.266 . S
O190 C187 1.252 . S
O191 In182 2.326 . S
O191 C187 1.260 . S
C192 O183 1.240 . S
C192 O184 1.252 . S
O193 In182 2.294 . S
O193 C186 1.240 . S
O194 In182 2.326 . S
O194 C186 1.252 . S
In195 O196 2.294 . S
In195 O197 2.326 . S
In195 O201 2.266 . S
In195 O202 2.326 . S
In195 O203 2.266 . S
In195 O204 2.326 . S
In195 O206 2.294 . S
In195 O207 2.326 . S
O196 In195 2.294 . S
O196 C205 1.240 . S
O197 In195 2.326 . S
O197 C205 1.252 . S
C198 O201 1.252 . S
C198 O202 1.260 . S
C199 O206 1.240 . S
C199 O207 1.252 . S
C200 O203 1.252 . S
C200 O204 1.260 . S
O201 In195 2.266 . S
O201 C198 1.252 . S
O202 In195 2.326 . S
O202 C198 1.260 . S
O203 In195 2.266 . S
O203 C200 1.252 . S
O204 In195 2.326 . S
O204 C200 1.260 . S
C205 O196 1.240 . S
C205 O197 1.252 . S
O206 In195 2.294 . S
O206 C199 1.240 . S
O207 In195 2.326 . S
O207 C199 1.252 . S
H208 C220 0.930 . S
H209 C222 0.930 . S
H210 C223 0.930 . S
H211 C227 0.959 . S
H212 C227 0.959 . S
H213 C227 0.961 . S
H214 C228 0.960 . S
H215 C228 0.961 . S
H216 C228 0.959 . S
H217 C231 0.929 . S
H218 C232 0.931 . S
H219 C234 0.930 . S
C220 H208 0.930 . S
C220 C221 1.399 . S
C220 C225 1.399 . S
C221 C220 1.399 . S
C221 C222 1.376 . S
C222 H209 0.930 . S
C222 C221 1.376 . S
C222 C223 1.388 . S
C223 H210 0.930 . S
C223 C222 1.388 . S
C223 C224 1.390 . S
C224 C223 1.390 . S
C224 C225 1.394 . S
C224 C230 1.465 . S
C225 C220 1.399 . S
C225 C224 1.394 . S
C225 C226 1.516 . S
C226 C225 1.516 . S
C226 C227 1.502 . S
C226 C228 1.561 . S
C226 C229 1.526 . S
C227 H211 0.959 . S
C227 H212 0.959 . S
C227 H213 0.961 . S
C227 C226 1.502 . S
C228 H214 0.960 . S
C228 H215 0.961 . S
C228 H216 0.959 . S
C228 C226 1.561 . S
C229 C226 1.526 . S
C229 C230 1.396 . S
C229 C234 1.390 . S
C230 C224 1.465 . S
C230 C229 1.396 . S
C230 C231 1.399 . S
C231 H217 0.929 . S
C231 C230 1.399 . S
C231 C232 1.385 . S
C232 H218 0.931 . S
C232 C231 1.385 . S
C232 C233 1.389 . S
C233 C232 1.389 . S
C233 C234 1.387 . S
C234 H219 0.930 . S
C234 C229 1.390 . S
C234 C233 1.387 . S
H235 C247 0.930 . S
H236 C249 0.930 . S
H237 C250 0.930 . S
H238 C254 0.959 . S
H239 C254 0.959 . S
H240 C254 0.961 . S
H241 C255 0.960 . S
H242 C255 0.961 . S
H243 C255 0.959 . S
H244 C258 0.929 . S
H245 C259 0.931 . S
H246 C261 0.930 . S
C247 H235 0.930 . S
C247 C248 1.399 . S
C247 C252 1.399 . S
C248 C247 1.399 . S
C248 C249 1.376 . S
C249 H236 0.930 . S
C249 C248 1.376 . S
C249 C250 1.388 . S
C250 H237 0.930 . S
C250 C249 1.388 . S
C250 C251 1.390 . S
C251 C250 1.390 . S
C251 C252 1.394 . S
C251 C257 1.465 . S
C252 C247 1.399 . S
C252 C251 1.394 . S
C252 C253 1.516 . S
C253 C252 1.516 . S
C253 C254 1.502 . S
C253 C255 1.561 . S
C253 C256 1.526 . S
C254 H238 0.959 . S
C254 H239 0.959 . S
C254 H240 0.961 . S
C254 C253 1.502 . S
C255 H241 0.960 . S
C255 H242 0.961 . S
C255 H243 0.959 . S
C255 C253 1.561 . S
C256 C253 1.526 . S
C256 C257 1.396 . S
C256 C261 1.390 . S
C257 C251 1.465 . S
C257 C256 1.396 . S
C257 C258 1.399 . S
C258 H244 0.929 . S
C258 C257 1.399 . S
C258 C259 1.385 . S
C259 H245 0.931 . S
C259 C258 1.385 . S
C259 C260 1.389 . S
C260 C259 1.389 . S
C260 C261 1.387 . S
C261 H246 0.930 . S
C261 C256 1.390 . S
C261 C260 1.387 . S
H262 C274 0.930 . S
H263 C276 0.930 . S
H264 C277 0.930 . S
H265 C281 0.959 . S
H266 C281 0.959 . S
H267 C281 0.961 . S
H268 C282 0.960 . S
H269 C282 0.961 . S
H270 C282 0.959 . S
H271 C285 0.929 . S
H272 C286 0.931 . S
H273 C288 0.930 . S
C274 H262 0.930 . S
C274 C275 1.399 . S
C274 C279 1.399 . S
C275 C274 1.399 . S
C275 C276 1.376 . S
C276 H263 0.930 . S
C276 C275 1.376 . S
C276 C277 1.388 . S
C277 H264 0.930 . S
C277 C276 1.388 . S
C277 C278 1.390 . S
C278 C277 1.390 . S
C278 C279 1.394 . S
C278 C284 1.465 . S
C279 C274 1.399 . S
C279 C278 1.394 . S
C279 C280 1.516 . S
C280 C279 1.516 . S
C280 C281 1.502 . S
C280 C282 1.561 . S
C280 C283 1.526 . S
C281 H265 0.959 . S
C281 H266 0.959 . S
C281 H267 0.961 . S
C281 C280 1.502 . S
C282 H268 0.960 . S
C282 H269 0.961 . S
C282 H270 0.959 . S
C282 C280 1.561 . S
C283 C280 1.526 . S
C283 C284 1.396 . S
C283 C288 1.390 . S
C284 C278 1.465 . S
C284 C283 1.396 . S
C284 C285 1.399 . S
C285 H271 0.929 . S
C285 C284 1.399 . S
C285 C286 1.385 . S
C286 H272 0.931 . S
C286 C285 1.385 . S
C286 C287 1.389 . S
C287 C286 1.389 . S
C287 C288 1.387 . S
C288 H273 0.930 . S
C288 C283 1.390 . S
C288 C287 1.387 . S
H289 C301 0.930 . S
H290 C303 0.930 . S
H291 C304 0.930 . S
H292 C308 0.959 . S
H293 C308 0.959 . S
H294 C308 0.961 . S
H295 C309 0.960 . S
H296 C309 0.961 . S
H297 C309 0.959 . S
H298 C312 0.929 . S
H299 C313 0.931 . S
H300 C315 0.930 . S
C301 H289 0.930 . S
C301 C302 1.399 . S
C301 C306 1.399 . S
C302 C301 1.399 . S
C302 C303 1.376 . S
C303 H290 0.930 . S
C303 C302 1.376 . S
C303 C304 1.388 . S
C304 H291 0.930 . S
C304 C303 1.388 . S
C304 C305 1.390 . S
C305 C304 1.390 . S
C305 C306 1.394 . S
C305 C311 1.465 . S
C306 C301 1.399 . S
C306 C305 1.394 . S
C306 C307 1.516 . S
C307 C306 1.516 . S
C307 C308 1.502 . S
C307 C309 1.561 . S
C307 C310 1.526 . S
C308 H292 0.959 . S
C308 H293 0.959 . S
C308 H294 0.961 . S
C308 C307 1.502 . S
C309 H295 0.960 . S
C309 H296 0.961 . S
C309 H297 0.959 . S
C309 C307 1.561 . S
C310 C307 1.526 . S
C310 C311 1.396 . S
C310 C315 1.390 . S
C311 C305 1.465 . S
C311 C310 1.396 . S
C311 C312 1.399 . S
C312 H298 0.929 . S
C312 C311 1.399 . S
C312 C313 1.385 . S
C313 H299 0.931 . S
C313 C312 1.385 . S
C313 C314 1.389 . S
C314 C313 1.389 . S
C314 C315 1.387 . S
C315 H300 0.930 . S
C315 C310 1.390 . S
C315 C314 1.387 . S
H316 C328 0.930 . S
H317 C330 0.930 . S
H318 C331 0.930 . S
H319 C335 0.959 . S
H320 C335 0.959 . S
H321 C335 0.961 . S
H322 C336 0.960 . S
H323 C336 0.961 . S
H324 C336 0.959 . S
H325 C339 0.929 . S
H326 C340 0.931 . S
H327 C342 0.930 . S
C328 H316 0.930 . S
C328 C329 1.399 . S
C328 C333 1.399 . S
C329 C328 1.399 . S
C329 C330 1.376 . S
C330 H317 0.930 . S
C330 C329 1.376 . S
C330 C331 1.388 . S
C331 H318 0.930 . S
C331 C330 1.388 . S
C331 C332 1.390 . S
C332 C331 1.390 . S
C332 C333 1.394 . S
C332 C338 1.465 . S
C333 C328 1.399 . S
C333 C332 1.394 . S
C333 C334 1.516 . S
C334 C333 1.516 . S
C334 C335 1.502 . S
C334 C336 1.561 . S
C334 C337 1.526 . S
C335 H319 0.959 . S
C335 H320 0.959 . S
C335 H321 0.961 . S
C335 C334 1.502 . S
C336 H322 0.960 . S
C336 H323 0.961 . S
C336 H324 0.959 . S
C336 C334 1.561 . S
C337 C334 1.526 . S
C337 C338 1.396 . S
C337 C342 1.390 . S
C338 C332 1.465 . S
C338 C337 1.396 . S
C338 C339 1.399 . S
C339 H325 0.929 . S
C339 C338 1.399 . S
C339 C340 1.385 . S
C340 H326 0.931 . S
C340 C339 1.385 . S
C340 C341 1.389 . S
C341 C340 1.389 . S
C341 C342 1.387 . S
C342 H327 0.930 . S
C342 C337 1.390 . S
C342 C341 1.387 . S
H343 C355 0.930 . S
H344 C357 0.930 . S
H345 C358 0.930 . S
H346 C362 0.959 . S
H347 C362 0.959 . S
H348 C362 0.961 . S
H349 C363 0.960 . S
H350 C363 0.961 . S
H351 C363 0.959 . S
H352 C366 0.929 . S
H353 C367 0.931 . S
H354 C369 0.930 . S
C355 H343 0.930 . S
C355 C356 1.399 . S
C355 C360 1.399 . S
C356 C355 1.399 . S
C356 C357 1.376 . S
C357 H344 0.930 . S
C357 C356 1.376 . S
C357 C358 1.388 . S
C358 H345 0.930 . S
C358 C357 1.388 . S
C358 C359 1.390 . S
C359 C358 1.390 . S
C359 C360 1.394 . S
C359 C365 1.465 . S
C360 C355 1.399 . S
C360 C359 1.394 . S
C360 C361 1.516 . S
C361 C360 1.516 . S
C361 C362 1.502 . S
C361 C363 1.561 . S
C361 C364 1.526 . S
C362 H346 0.959 . S
C362 H347 0.959 . S
C362 H348 0.961 . S
C362 C361 1.502 . S
C363 H349 0.960 . S
C363 H350 0.961 . S
C363 H351 0.959 . S
C363 C361 1.561 . S
C364 C361 1.526 . S
C364 C365 1.396 . S
C364 C369 1.390 . S
C365 C359 1.465 . S
C365 C364 1.396 . S
C365 C366 1.399 . S
C366 H352 0.929 . S
C366 C365 1.399 . S
C366 C367 1.385 . S
C367 H353 0.931 . S
C367 C366 1.385 . S
C367 C368 1.389 . S
C368 C367 1.389 . S
C368 C369 1.387 . S
C369 H354 0.930 . S
C369 C364 1.390 . S
C369 C368 1.387 . S
H370 C382 0.930 . S
H371 C384 0.930 . S
H372 C385 0.930 . S
H373 C389 0.959 . S
H374 C389 0.959 . S
H375 C389 0.961 . S
H376 C390 0.960 . S
H377 C390 0.961 . S
H378 C390 0.959 . S
H379 C393 0.929 . S
H380 C394 0.931 . S
H381 C396 0.930 . S
C382 H370 0.930 . S
C382 C383 1.399 . S
C382 C387 1.399 . S
C383 C382 1.399 . S
C383 C384 1.376 . S
C384 H371 0.930 . S
C384 C383 1.376 . S
C384 C385 1.388 . S
C385 H372 0.930 . S
C385 C384 1.388 . S
C385 C386 1.390 . S
C386 C385 1.390 . S
C386 C387 1.394 . S
C386 C392 1.465 . S
C387 C382 1.399 . S
C387 C386 1.394 . S
C387 C388 1.516 . S
C388 C387 1.516 . S
C388 C389 1.502 . S
C388 C390 1.561 . S
C388 C391 1.526 . S
C389 H373 0.959 . S
C389 H374 0.959 . S
C389 H375 0.961 . S
C389 C388 1.502 . S
C390 H376 0.960 . S
C390 H377 0.961 . S
C390 H378 0.959 . S
C390 C388 1.561 . S
C391 C388 1.526 . S
C391 C392 1.396 . S
C391 C396 1.390 . S
C392 C386 1.465 . S
C392 C391 1.396 . S
C392 C393 1.399 . S
C393 H379 0.929 . S
C393 C392 1.399 . S
C393 C394 1.385 . S
C394 H380 0.931 . S
C394 C393 1.385 . S
C394 C395 1.389 . S
C395 C394 1.389 . S
C395 C396 1.387 . S
C396 H381 0.930 . S
C396 C391 1.390 . S
C396 C395 1.387 . S
H397 C409 0.930 . S
H398 C411 0.930 . S
H399 C412 0.930 . S
H400 C416 0.959 . S
H401 C416 0.959 . S
H402 C416 0.961 . S
H403 C417 0.960 . S
H404 C417 0.961 . S
H405 C417 0.959 . S
H406 C420 0.929 . S
H407 C421 0.931 . S
H408 C423 0.930 . S
C409 H397 0.930 . S
C409 C410 1.399 . S
C409 C414 1.399 . S
C410 C409 1.399 . S
C410 C411 1.376 . S
C411 H398 0.930 . S
C411 C410 1.376 . S
C411 C412 1.388 . S
C412 H399 0.930 . S
C412 C411 1.388 . S
C412 C413 1.390 . S
C413 C412 1.390 . S
C413 C414 1.394 . S
C413 C419 1.465 . S
C414 C409 1.399 . S
C414 C413 1.394 . S
C414 C415 1.516 . S
C415 C414 1.516 . S
C415 C416 1.502 . S
C415 C417 1.561 . S
C415 C418 1.526 . S
C416 H400 0.959 . S
C416 H401 0.959 . S
C416 H402 0.961 . S
C416 C415 1.502 . S
C417 H403 0.960 . S
C417 H404 0.961 . S
C417 H405 0.959 . S
C417 C415 1.561 . S
C418 C415 1.526 . S
C418 C419 1.396 . S
C418 C423 1.390 . S
C419 C413 1.465 . S
C419 C418 1.396 . S
C419 C420 1.399 . S
C420 H406 0.929 . S
C420 C419 1.399 . S
C420 C421 1.385 . S
C421 H407 0.931 . S
C421 C420 1.385 . S
C421 C422 1.389 . S
C422 C421 1.389 . S
C422 C423 1.387 . S
C423 H408 0.930 . S
C423 C418 1.390 . S
C423 C422 1.387 . S
H424 C436 0.930 . S
H425 C438 0.930 . S
H426 C439 0.930 . S
H427 C443 0.959 . S
H428 C443 0.959 . S
H429 C443 0.961 . S
H430 C444 0.960 1_655 S
H431 C444 0.961 . S
H432 C444 0.959 . S
H433 C447 0.929 . S
H434 C448 0.931 . S
H435 C450 0.930 . S
C436 H424 0.930 . S
C436 C437 1.399 . S
C436 C441 1.399 . S
C437 C436 1.399 . S
C437 C438 1.376 . S
C438 H425 0.930 . S
C438 C437 1.376 . S
C438 C439 1.388 1_655 S
C439 H426 0.930 . S
C439 C438 1.388 1_455 S
C439 C440 1.390 . S
C440 C439 1.390 . S
C440 C441 1.394 1_455 S
C440 C446 1.465 . S
C441 C436 1.399 . S
C441 C440 1.394 1_655 S
C441 C442 1.516 . S
C442 C441 1.516 . S
C442 C443 1.502 . S
C442 C444 1.561 1_655 S
C442 C445 1.526 1_655 S
C443 H427 0.959 . S
C443 H428 0.959 . S
C443 H429 0.961 . S
C443 C442 1.502 . S
C444 H430 0.960 1_455 S
C444 H431 0.961 . S
C444 H432 0.959 . S
C444 C442 1.561 1_455 S
C445 C442 1.526 1_455 S
C445 C446 1.396 . S
C445 C450 1.390 . S
C446 C440 1.465 . S
C446 C445 1.396 . S
C446 C447 1.399 . S
C447 H433 0.929 . S
C447 C446 1.399 . S
C447 C448 1.385 . S
C448 H434 0.931 . S
C448 C447 1.385 . S
C448 C449 1.389 . S
C449 C448 1.389 . S
C449 C450 1.387 . S
C450 H435 0.930 . S
C450 C445 1.390 . S
C450 C449 1.387 . S
H451 C463 0.930 . S
H452 C465 0.930 . S
H453 C466 0.930 . S
H454 C470 0.959 . S
H455 C470 0.959 . S
H456 C470 0.961 . S
H457 C471 0.960 . S
H458 C471 0.961 1_565 S
H459 C471 0.959 . S
H460 C474 0.929 . S
H461 C475 0.931 . S
H462 C477 0.930 . S
C463 H451 0.930 . S
C463 C464 1.399 . S
C463 C468 1.396 1_655 S
C464 C463 1.399 . S
C464 C465 1.376 . S
C465 H452 0.930 . S
C465 C464 1.376 . S
C465 C466 1.388 . S
C466 H453 0.930 . S
C466 C465 1.388 . S
C466 C467 1.390 . S
C467 C466 1.390 . S
C467 C468 1.390 1_655 S
C467 C473 1.465 1_655 S
C468 C463 1.396 1_455 S
C468 C467 1.390 1_455 S
C468 C469 1.523 1_545 S
C469 C468 1.523 1_565 S
C469 C470 1.502 . S
C469 C471 1.561 1_565 S
C469 C472 1.526 . S
C470 H454 0.959 . S
C470 H455 0.959 . S
C470 H456 0.961 . S
C470 C469 1.502 . S
C471 H457 0.960 . S
C471 H458 0.961 1_545 S
C471 H459 0.959 . S
C471 C469 1.561 1_545 S
C472 C469 1.526 . S
C472 C473 1.396 1_565 S
C472 C477 1.390 . S
C473 C467 1.465 1_455 S
C473 C472 1.396 1_545 S
C473 C474 1.399 1_455 S
C474 H460 0.929 . S
C474 C473 1.399 1_655 S
C474 C475 1.385 1_645 S
C475 H461 0.931 . S
C475 C474 1.385 1_465 S
C475 C476 1.389 . S
C476 C475 1.389 . S
C476 C477 1.387 . S
C477 H462 0.930 . S
C477 C472 1.390 . S
C477 C476 1.387 . S
H478 C490 0.930 . S
H479 C492 0.930 . S
H480 C493 0.930 . S
H481 C497 0.959 . S
H482 C497 0.959 . S
H483 C497 0.961 . S
H484 C498 0.960 . S
H485 C498 0.961 1_565 S
H486 C498 0.959 . S
H487 C501 0.929 . S
H488 C502 0.931 . S
H489 C504 0.930 . S
C490 H478 0.930 . S
C490 C491 1.399 . S
C490 C495 1.399 . S
C491 C490 1.399 . S
C491 C492 1.376 . S
C492 H479 0.930 . S
C492 C491 1.376 . S
C492 C493 1.388 . S
C493 H480 0.930 . S
C493 C492 1.388 . S
C493 C494 1.390 . S
C494 C493 1.390 . S
C494 C495 1.394 . S
C494 C500 1.465 . S
C495 C490 1.399 . S
C495 C494 1.394 . S
C495 C496 1.516 1_545 S
C496 C495 1.516 1_565 S
C496 C497 1.502 . S
C496 C498 1.561 1_565 S
C496 C499 1.526 . S
C497 H481 0.959 . S
C497 H482 0.959 . S
C497 H483 0.961 . S
C497 C496 1.502 . S
C498 H484 0.960 . S
C498 H485 0.961 1_545 S
C498 H486 0.959 . S
C498 C496 1.561 1_545 S
C499 C496 1.526 . S
C499 C500 1.396 1_565 S
C499 C504 1.390 . S
C500 C494 1.465 . S
C500 C499 1.396 1_545 S
C500 C501 1.399 . S
C501 H487 0.929 . S
C501 C500 1.399 . S
C501 C502 1.385 1_545 S
C502 H488 0.931 . S
C502 C501 1.385 1_565 S
C502 C503 1.389 . S
C503 C502 1.389 . S
C503 C504 1.387 . S
C504 H489 0.930 . S
C504 C499 1.390 . S
C504 C503 1.387 . S
H505 C517 0.930 . S
H506 C519 0.930 . S
H507 C520 0.930 . S
H508 C524 0.959 . S
H509 C524 0.959 . S
H510 C524 0.961 . S
H511 C525 0.960 . S
H512 C525 0.961 . S
H513 C525 0.959 . S
H514 C528 0.929 . S
H515 C529 0.931 . S
H516 C531 0.930 . S
C517 H505 0.930 . S
C517 C518 1.399 . S
C517 C522 1.399 . S
C518 C517 1.399 . S
C518 C519 1.376 . S
C519 H506 0.930 . S
C519 C518 1.376 . S
C519 C520 1.388 . S
C520 H507 0.930 . S
C520 C519 1.388 . S
C520 C521 1.390 . S
C521 C520 1.390 . S
C521 C522 1.394 . S
C521 C527 1.465 . S
C522 C517 1.399 . S
C522 C521 1.394 . S
C522 C523 1.516 . S
C523 C522 1.516 . S
C523 C524 1.502 . S
C523 C525 1.561 . S
C523 C526 1.526 . S
C524 H508 0.959 . S
C524 H509 0.959 . S
C524 H510 0.961 . S
C524 C523 1.502 . S
C525 H511 0.960 . S
C525 H512 0.961 . S
C525 H513 0.959 . S
C525 C523 1.561 . S
C526 C523 1.526 . S
C526 C527 1.396 . S
C526 C531 1.390 . S
C527 C521 1.465 . S
C527 C526 1.396 . S
C527 C528 1.399 . S
C528 H514 0.929 . S
C528 C527 1.399 . S
C528 C529 1.385 . S
C529 H515 0.931 . S
C529 C528 1.385 . S
C529 C530 1.389 . S
C530 C529 1.389 . S
C530 C531 1.387 . S
C531 H516 0.930 . S
C531 C526 1.390 . S
C531 C530 1.387 . S
H532 C544 0.930 . S
H533 C546 0.930 . S
H534 C547 0.930 . S
H535 C551 0.959 . S
H536 C551 0.959 . S
H537 C551 0.961 . S
H538 C552 0.960 . S
H539 C552 0.961 . S
H540 C552 0.959 1_455 S
H541 C555 0.929 . S
H542 C556 0.931 . S
H543 C558 0.930 . S
C544 H532 0.930 . S
C544 C545 1.399 . S
C544 C549 1.399 . S
C545 C544 1.399 . S
C545 C546 1.376 . S
C546 H533 0.930 . S
C546 C545 1.376 . S
C546 C547 1.388 . S
C547 H534 0.930 . S
C547 C546 1.388 . S
C547 C548 1.390 . S
C548 C547 1.390 . S
C548 C549 1.394 . S
C548 C554 1.465 . S
C549 C544 1.399 . S
C549 C548 1.394 . S
C549 C550 1.516 1_455 S
C550 C549 1.516 1_655 S
C550 C551 1.502 . S
C550 C552 1.561 . S
C550 C553 1.526 . S
C551 H535 0.959 . S
C551 H536 0.959 . S
C551 H537 0.961 . S
C551 C550 1.502 . S
C552 H538 0.960 . S
C552 H539 0.961 . S
C552 H540 0.959 1_655 S
C552 C550 1.561 . S
C553 C550 1.526 . S
C553 C554 1.396 1_655 S
C553 C558 1.390 . S
C554 C548 1.465 . S
C554 C553 1.396 1_455 S
C554 C555 1.399 . S
C555 H541 0.929 . S
C555 C554 1.399 . S
C555 C556 1.385 1_455 S
C556 H542 0.931 . S
C556 C555 1.385 1_655 S
C556 C557 1.389 . S
C557 C556 1.389 . S
C557 C558 1.387 . S
C558 H543 0.930 . S
C558 C553 1.390 . S
C558 C557 1.387 . S
H559 C571 0.930 . S
H560 C573 0.930 . S
H561 C574 0.930 1_655 S
H562 C578 0.959 . S
H563 C578 0.959 . S
H564 C578 0.961 . S
H565 C579 0.960 . S
H566 C579 0.961 . S
H567 C579 0.959 . S
H568 C582 0.929 . S
H569 C583 0.931 . S
H570 C585 0.930 1_565 S
C571 H559 0.930 . S
C571 C572 1.399 . S
C571 C576 1.399 . S
C572 C571 1.399 . S
C572 C573 1.376 . S
C573 H560 0.930 . S
C573 C572 1.376 . S
C573 C574 1.388 1_565 S
C574 H561 0.930 1_455 S
C574 C573 1.388 1_545 S
C574 C575 1.393 . S
C575 C574 1.393 . S
C575 C576 1.384 1_545 S
C575 C581 1.470 1_455 S
C576 C571 1.399 . S
C576 C575 1.384 1_565 S
C576 C577 1.516 . S
C577 C576 1.516 . S
C577 C578 1.502 . S
C577 C579 1.561 1_455 S
C577 C580 1.526 1_455 S
C578 H562 0.959 . S
C578 H563 0.959 . S
C578 H564 0.961 . S
C578 C577 1.502 . S
C579 H565 0.960 . S
C579 H566 0.961 . S
C579 H567 0.959 . S
C579 C577 1.561 1_655 S
C580 C577 1.526 1_655 S
C580 C581 1.396 1_565 S
C580 C585 1.390 1_565 S
C581 C575 1.470 1_655 S
C581 C580 1.396 1_545 S
C581 C582 1.399 . S
C582 H568 0.929 . S
C582 C581 1.399 . S
C582 C583 1.385 . S
C583 H569 0.931 . S
C583 C582 1.385 . S
C583 C584 1.389 . S
C584 C583 1.389 . S
C584 C585 1.387 . S
C585 H570 0.930 1_545 S
C585 C580 1.390 1_545 S
C585 C584 1.387 . S
H586 C598 0.930 . S
H587 C600 0.930 1_565 S
H588 C601 0.930 . S
H589 C605 0.959 . S
H590 C605 0.959 . S
H591 C605 0.961 . S
H592 C606 0.960 . S
H593 C606 0.961 . S
H594 C606 0.959 . S
H595 C609 0.929 . S
H596 C610 0.931 . S
H597 C612 0.930 1_545 S
C598 H586 0.930 . S
C598 C599 1.399 . S
C598 C603 1.399 . S
C599 C598 1.399 . S
C599 C600 1.376 . S
C600 H587 0.930 1_545 S
C600 C599 1.376 . S
C600 C601 1.388 1_545 S
C601 H588 0.930 . S
C601 C600 1.388 1_565 S
C601 C602 1.390 . S
C602 C601 1.390 . S
C602 C603 1.394 1_565 S
C602 C608 1.465 . S
C603 C598 1.399 . S
C603 C602 1.394 1_545 S
C603 C604 1.516 . S
C604 C603 1.516 . S
C604 C605 1.502 . S
C604 C606 1.561 . S
C604 C607 1.526 1_545 S
C605 H589 0.959 . S
C605 H590 0.959 . S
C605 H591 0.961 . S
C605 C604 1.502 . S
C606 H592 0.960 . S
C606 H593 0.961 . S
C606 H594 0.959 . S
C606 C604 1.561 . S
C607 C604 1.526 1_565 S
C607 C608 1.396 . S
C607 C612 1.390 . S
C608 C602 1.465 . S
C608 C607 1.396 . S
C608 C609 1.399 . S
C609 H595 0.929 . S
C609 C608 1.399 . S
C609 C610 1.385 . S
C610 H596 0.931 . S
C610 C609 1.385 . S
C610 C611 1.389 . S
C611 C610 1.389 . S
C611 C612 1.387 . S
C612 H597 0.930 1_565 S
C612 C607 1.390 . S
C612 C611 1.387 . S
H613 C625 0.930 . S
H614 C627 0.930 . S
H615 C628 0.930 . S
H616 C632 0.959 . S
H617 C632 0.959 . S
H618 C632 0.961 . S
H619 C633 0.960 . S
H620 C633 0.961 . S
H621 C633 0.959 . S
H622 C636 0.929 . S
H623 C637 0.931 . S
H624 C639 0.930 . S
C625 H613 0.930 . S
C625 C626 1.399 . S
C625 C630 1.399 . S
C626 C625 1.399 . S
C626 C627 1.376 . S
C627 H614 0.930 . S
C627 C626 1.376 . S
C627 C628 1.388 . S
C628 H615 0.930 . S
C628 C627 1.388 . S
C628 C629 1.390 . S
C629 C628 1.390 . S
C629 C630 1.394 . S
C629 C635 1.465 . S
C630 C625 1.399 . S
C630 C629 1.394 . S
C630 C631 1.516 . S
C631 C630 1.516 . S
C631 C632 1.502 . S
C631 C633 1.561 . S
C631 C634 1.526 . S
C632 H616 0.959 . S
C632 H617 0.959 . S
C632 H618 0.961 . S
C632 C631 1.502 . S
C633 H619 0.960 . S
C633 H620 0.961 . S
C633 H621 0.959 . S
C633 C631 1.561 . S
C634 C631 1.526 . S
C634 C635 1.396 . S
C634 C639 1.390 . S
C635 C629 1.465 . S
C635 C634 1.396 . S
C635 C636 1.399 . S
C636 H622 0.929 . S
C636 C635 1.399 . S
C636 C637 1.385 . S
C637 H623 0.931 . S
C637 C636 1.385 . S
C637 C638 1.389 . S
C638 C637 1.389 . S
C638 C639 1.387 . S
C639 H624 0.930 . S
C639 C634 1.390 . S
C639 C638 1.387 . S
H640 C652 0.930 . S
H641 C654 0.930 . S
H642 C655 0.930 . S
H643 C659 0.959 . S
H644 C659 0.959 . S
H645 C659 0.961 . S
H646 C660 0.960 . S
H647 C660 0.961 . S
H648 C660 0.959 . S
H649 C663 0.929 . S
H650 C664 0.931 . S
H651 C666 0.930 . S
C652 H640 0.930 . S
C652 C653 1.399 . S
C652 C657 1.399 . S
C653 C652 1.399 . S
C653 C654 1.376 . S
C654 H641 0.930 . S
C654 C653 1.376 . S
C654 C655 1.388 . S
C655 H642 0.930 . S
C655 C654 1.388 . S
C655 C656 1.390 . S
C656 C655 1.390 . S
C656 C657 1.394 . S
C656 C662 1.465 . S
C657 C652 1.399 . S
C657 C656 1.394 . S
C657 C658 1.516 . S
C658 C657 1.516 . S
C658 C659 1.502 . S
C658 C660 1.561 . S
C658 C661 1.526 . S
C659 H643 0.959 . S
C659 H644 0.959 . S
C659 H645 0.961 . S
C659 C658 1.502 . S
C660 H646 0.960 . S
C660 H647 0.961 . S
C660 H648 0.959 . S
C660 C658 1.561 . S
C661 C658 1.526 . S
C661 C662 1.396 . S
C661 C666 1.390 . S
C662 C656 1.465 . S
C662 C661 1.396 . S
C662 C663 1.399 . S
C663 H649 0.929 . S
C663 C662 1.399 . S
C663 C664 1.385 . S
C664 H650 0.931 . S
C664 C663 1.385 . S
C664 C665 1.389 . S
C665 C664 1.389 . S
C665 C666 1.387 . S
C666 H651 0.930 . S
C666 C661 1.390 . S
C666 C665 1.387 . S
H667 C679 0.930 . S
H668 C681 0.930 . S
H669 C682 0.930 . S
H670 C686 0.959 . S
H671 C686 0.959 . S
H672 C686 0.961 . S
H673 C687 0.960 . S
H674 C687 0.961 . S
H675 C687 0.959 1_545 S
H676 C690 0.929 . S
H677 C691 0.931 . S
H678 C693 0.930 . S
C679 H667 0.930 . S
C679 C680 1.399 . S
C679 C684 1.399 . S
C680 C679 1.399 . S
C680 C681 1.376 . S
C681 H668 0.930 . S
C681 C680 1.376 . S
C681 C682 1.388 . S
C682 H669 0.930 . S
C682 C681 1.388 . S
C682 C683 1.390 . S
C683 C682 1.390 . S
C683 C684 1.394 . S
C683 C689 1.465 . S
C684 C679 1.399 . S
C684 C683 1.394 . S
C684 C685 1.516 . S
C685 C684 1.516 . S
C685 C686 1.502 . S
C685 C687 1.561 1_545 S
C685 C688 1.526 . S
C686 H670 0.959 . S
C686 H671 0.959 . S
C686 H672 0.961 . S
C686 C685 1.502 . S
C687 H673 0.960 . S
C687 H674 0.961 . S
C687 H675 0.959 1_565 S
C687 C685 1.561 1_565 S
C688 C685 1.526 . S
C688 C689 1.396 . S
C688 C693 1.390 . S
C689 C683 1.465 . S
C689 C688 1.396 . S
C689 C690 1.399 . S
C690 H676 0.929 . S
C690 C689 1.399 . S
C690 C691 1.385 . S
C691 H677 0.931 . S
C691 C690 1.385 . S
C691 C692 1.389 . S
C692 C691 1.389 . S
C692 C693 1.387 . S
C693 H678 0.930 . S
C693 C688 1.390 . S
C693 C692 1.387 . S
H694 C706 0.930 . S
H695 C708 0.930 . S
H696 C709 0.930 . S
H697 C713 0.959 . S
H698 C713 0.959 . S
H699 C713 0.961 . S
H700 C714 0.960 . S
H701 C714 0.961 . S
H702 C714 0.959 . S
H703 C717 0.929 . S
H704 C718 0.931 . S
H705 C720 0.930 . S
C706 H694 0.930 . S
C706 C707 1.399 . S
C706 C711 1.399 . S
C707 C706 1.399 . S
C707 C708 1.376 . S
C708 H695 0.930 . S
C708 C707 1.376 . S
C708 C709 1.388 . S
C709 H696 0.930 . S
C709 C708 1.388 . S
C709 C710 1.390 . S
C710 C709 1.390 . S
C710 C711 1.394 . S
C710 C716 1.465 . S
C711 C706 1.399 . S
C711 C710 1.394 . S
C711 C712 1.516 . S
C712 C711 1.516 . S
C712 C713 1.502 . S
C712 C714 1.561 . S
C712 C715 1.526 . S
C713 H697 0.959 . S
C713 H698 0.959 . S
C713 H699 0.961 . S
C713 C712 1.502 . S
C714 H700 0.960 . S
C714 H701 0.961 . S
C714 H702 0.959 . S
C714 C712 1.561 . S
C715 C712 1.526 . S
C715 C716 1.396 . S
C715 C720 1.390 . S
C716 C710 1.465 . S
C716 C715 1.396 . S
C716 C717 1.399 . S
C717 H703 0.929 . S
C717 C716 1.399 . S
C717 C718 1.385 . S
C718 H704 0.931 . S
C718 C717 1.385 . S
C718 C719 1.389 . S
C719 C718 1.389 . S
C719 C720 1.387 . S
C720 H705 0.930 . S
C720 C715 1.390 . S
C720 C719 1.387 . S
H721 C733 0.930 . S
H722 C735 0.930 . S
H723 C736 0.930 . S
H724 C740 0.959 . S
H725 C740 0.959 . S
H726 C740 0.961 . S
H727 C741 0.960 . S
H728 C741 0.961 . S
H729 C741 0.959 . S
H730 C744 0.929 . S
H731 C745 0.931 . S
H732 C747 0.930 . S
C733 H721 0.930 . S
C733 C734 1.399 . S
C733 C738 1.399 . S
C734 C733 1.399 . S
C734 C735 1.376 . S
C735 H722 0.930 . S
C735 C734 1.376 . S
C735 C736 1.388 . S
C736 H723 0.930 . S
C736 C735 1.388 . S
C736 C737 1.390 . S
C737 C736 1.390 . S
C737 C738 1.394 . S
C737 C743 1.465 . S
C738 C733 1.399 . S
C738 C737 1.394 . S
C738 C739 1.516 . S
C739 C738 1.516 . S
C739 C740 1.502 . S
C739 C741 1.561 . S
C739 C742 1.526 . S
C740 H724 0.959 . S
C740 H725 0.959 . S
C740 H726 0.961 . S
C740 C739 1.502 . S
C741 H727 0.960 . S
C741 H728 0.961 . S
C741 H729 0.959 . S
C741 C739 1.561 . S
C742 C739 1.526 . S
C742 C743 1.396 . S
C742 C747 1.390 . S
C743 C737 1.465 . S
C743 C742 1.396 . S
C743 C744 1.399 . S
C744 H730 0.929 . S
C744 C743 1.399 . S
C744 C745 1.385 . S
C745 H731 0.931 . S
C745 C744 1.385 . S
C745 C746 1.389 . S
C746 C745 1.389 . S
C746 C747 1.387 . S
C747 H732 0.930 . S
C747 C742 1.390 . S
C747 C746 1.387 . S
H748 C760 0.930 . S
H749 C762 0.930 . S
H750 C763 0.930 . S
H751 C767 0.959 . S
H752 C767 0.959 . S
H753 C767 0.961 . S
H754 C768 0.960 . S
H755 C768 0.961 . S
H756 C768 0.959 . S
H757 C771 0.929 . S
H758 C772 0.931 . S
H759 C774 0.930 . S
C760 H748 0.930 . S
C760 C761 1.399 . S
C760 C765 1.399 . S
C761 C760 1.399 . S
C761 C762 1.376 . S
C762 H749 0.930 . S
C762 C761 1.376 . S
C762 C763 1.388 . S
C763 H750 0.930 . S
C763 C762 1.388 . S
C763 C764 1.390 . S
C764 C763 1.390 . S
C764 C765 1.394 . S
C764 C770 1.465 . S
C765 C760 1.399 . S
C765 C764 1.394 . S
C765 C766 1.516 . S
C766 C765 1.516 . S
C766 C767 1.502 . S
C766 C768 1.561 . S
C766 C769 1.526 . S
C767 H751 0.959 . S
C767 H752 0.959 . S
C767 H753 0.961 . S
C767 C766 1.502 . S
C768 H754 0.960 . S
C768 H755 0.961 . S
C768 H756 0.959 . S
C768 C766 1.561 . S
C769 C766 1.526 . S
C769 C770 1.396 . S
C769 C774 1.390 . S
C770 C764 1.465 . S
C770 C769 1.396 . S
C770 C771 1.399 . S
C771 H757 0.929 . S
C771 C770 1.399 . S
C771 C772 1.385 . S
C772 H758 0.931 . S
C772 C771 1.385 . S
C772 C773 1.389 . S
C773 C772 1.389 . S
C773 C774 1.387 . S
C774 H759 0.930 . S
C774 C769 1.390 . S
C774 C773 1.387 . S
H775 C787 0.930 . S
H776 C789 0.930 . S
H777 C790 0.930 . S
H778 C794 0.959 . S
H779 C794 0.959 . S
H780 C794 0.961 . S
H781 C795 0.960 . S
H782 C795 0.961 . S
H783 C795 0.959 . S
H784 C798 0.929 . S
H785 C799 0.931 . S
H786 C801 0.930 . S
C787 H775 0.930 . S
C787 C788 1.399 . S
C787 C792 1.399 . S
C788 C787 1.399 . S
C788 C789 1.376 . S
C789 H776 0.930 . S
C789 C788 1.376 . S
C789 C790 1.388 . S
C790 H777 0.930 . S
C790 C789 1.388 . S
C790 C791 1.390 . S
C791 C790 1.390 . S
C791 C792 1.394 . S
C791 C797 1.465 . S
C792 C787 1.399 . S
C792 C791 1.394 . S
C792 C793 1.516 . S
C793 C792 1.516 . S
C793 C794 1.502 . S
C793 C795 1.561 . S
C793 C796 1.526 . S
C794 H778 0.959 . S
C794 H779 0.959 . S
C794 H780 0.961 . S
C794 C793 1.502 . S
C795 H781 0.960 . S
C795 H782 0.961 . S
C795 H783 0.959 . S
C795 C793 1.561 . S
C796 C793 1.526 . S
C796 C797 1.396 . S
C796 C801 1.390 . S
C797 C791 1.465 . S
C797 C796 1.396 . S
C797 C798 1.399 . S
C798 H784 0.929 . S
C798 C797 1.399 . S
C798 C799 1.385 . S
C799 H785 0.931 . S
C799 C798 1.385 . S
C799 C800 1.389 . S
C800 C799 1.389 . S
C800 C801 1.387 . S
C801 H786 0.930 . S
C801 C796 1.390 . S
C801 C800 1.387 . S
H802 C814 0.930 . S
H803 C816 0.930 . S
H804 C817 0.930 . S
H805 C821 0.959 . S
H806 C821 0.959 . S
H807 C821 0.961 . S
H808 C822 0.960 . S
H809 C822 0.961 . S
H810 C822 0.959 . S
H811 C825 0.929 . S
H812 C826 0.931 . S
H813 C828 0.930 . S
C814 H802 0.930 . S
C814 C815 1.399 . S
C814 C819 1.399 . S
C815 C814 1.399 . S
C815 C816 1.376 . S
C816 H803 0.930 . S
C816 C815 1.376 . S
C816 C817 1.388 . S
C817 H804 0.930 . S
C817 C816 1.388 . S
C817 C818 1.390 . S
C818 C817 1.390 . S
C818 C819 1.394 . S
C818 C824 1.465 . S
C819 C814 1.399 . S
C819 C818 1.394 . S
C819 C820 1.516 . S
C820 C819 1.516 . S
C820 C821 1.502 . S
C820 C822 1.561 . S
C820 C823 1.526 . S
C821 H805 0.959 . S
C821 H806 0.959 . S
C821 H807 0.961 . S
C821 C820 1.502 . S
C822 H808 0.960 . S
C822 H809 0.961 . S
C822 H810 0.959 . S
C822 C820 1.561 . S
C823 C820 1.526 . S
C823 C824 1.396 . S
C823 C828 1.390 . S
C824 C818 1.465 . S
C824 C823 1.396 . S
C824 C825 1.399 . S
C825 H811 0.929 . S
C825 C824 1.399 . S
C825 C826 1.385 . S
C826 H812 0.931 . S
C826 C825 1.385 . S
C826 C827 1.389 . S
C827 C826 1.389 . S
C827 C828 1.387 . S
C828 H813 0.930 . S
C828 C823 1.390 . S
C828 C827 1.387 . S
H829 C841 0.930 . S
H830 C843 0.930 . S
H831 C844 0.930 . S
H832 C848 0.959 . S
H833 C848 0.959 . S
H834 C848 0.961 . S
H835 C849 0.960 . S
H836 C849 0.961 . S
H837 C849 0.959 . S
H838 C852 0.929 . S
H839 C853 0.931 . S
H840 C855 0.930 . S
C841 H829 0.930 . S
C841 C842 1.399 . S
C841 C846 1.399 . S
C842 C841 1.399 . S
C842 C843 1.376 . S
C843 H830 0.930 . S
C843 C842 1.376 . S
C843 C844 1.388 . S
C844 H831 0.930 . S
C844 C843 1.388 . S
C844 C845 1.390 . S
C845 C844 1.390 . S
C845 C846 1.394 . S
C845 C851 1.465 . S
C846 C841 1.399 . S
C846 C845 1.394 . S
C846 C847 1.516 . S
C847 C846 1.516 . S
C847 C848 1.502 . S
C847 C849 1.561 . S
C847 C850 1.526 . S
C848 H832 0.959 . S
C848 H833 0.959 . S
C848 H834 0.961 . S
C848 C847 1.502 . S
C849 H835 0.960 . S
C849 H836 0.961 . S
C849 H837 0.959 . S
C849 C847 1.561 . S
C850 C847 1.526 . S
C850 C851 1.396 . S
C850 C855 1.390 . S
C851 C845 1.465 . S
C851 C850 1.396 . S
C851 C852 1.399 . S
C852 H838 0.929 . S
C852 C851 1.399 . S
C852 C853 1.385 . S
C853 H839 0.931 . S
C853 C852 1.385 . S
C853 C854 1.389 . S
C854 C853 1.389 . S
C854 C855 1.387 . S
C855 H840 0.930 . S
C855 C850 1.390 . S
C855 C854 1.387 . S
H856 C868 0.930 . S
H857 C870 0.930 1_655 S
H858 C871 0.930 . S
H859 C875 0.959 . S
H860 C875 0.959 . S
H861 C875 0.961 . S
H862 C876 0.960 . S
H863 C876 0.961 . S
H864 C876 0.959 . S
H865 C879 0.929 . S
H866 C880 0.931 . S
H867 C882 0.930 1_455 S
C868 H856 0.930 . S
C868 C869 1.399 . S
C868 C873 1.399 . S
C869 C868 1.399 . S
C869 C870 1.376 . S
C870 H857 0.930 1_455 S
C870 C869 1.376 . S
C870 C871 1.388 1_455 S
C871 H858 0.930 . S
C871 C870 1.388 1_655 S
C871 C872 1.390 . S
C872 C871 1.390 . S
C872 C873 1.394 1_655 S
C872 C878 1.465 1_554 S
C873 C868 1.399 . S
C873 C872 1.394 1_455 S
C873 C874 1.516 . S
C874 C873 1.516 . S
C874 C875 1.502 1_554 S
C874 C876 1.561 . S
C874 C877 1.526 1_454 S
C875 H859 0.959 . S
C875 H860 0.959 . S
C875 H861 0.961 . S
C875 C874 1.502 1_556 S
C876 H862 0.960 . S
C876 H863 0.961 . S
C876 H864 0.959 . S
C876 C874 1.561 . S
C877 C874 1.526 1_656 S
C877 C878 1.396 . S
C877 C882 1.390 . S
C878 C872 1.465 1_556 S
C878 C877 1.396 . S
C878 C879 1.399 . S
C879 H865 0.929 . S
C879 C878 1.399 . S
C879 C880 1.385 . S
C880 H866 0.931 . S
C880 C879 1.385 . S
C880 C881 1.389 . S
C881 C880 1.389 . S
C881 C882 1.387 . S
C882 H867 0.930 1_655 S
C882 C877 1.390 . S
C882 C881 1.387 . S
H883 C895 0.930 . S
H884 C897 0.930 1_545 S
H885 C898 0.930 . S
H886 C902 0.959 . S
H887 C902 0.959 1_554 S
H888 C902 0.961 . S
H889 C903 0.960 1_455 S
H890 C903 0.961 . S
H891 C903 0.959 1_455 S
H892 C906 0.929 1_455 S
H893 C907 0.931 . S
H894 C909 0.930 1_565 S
C895 H883 0.930 . S
C895 C896 1.399 . S
C895 C900 1.399 . S
C896 C895 1.399 . S
C896 C897 1.376 . S
C897 H884 0.930 1_565 S
C897 C896 1.376 . S
C897 C898 1.388 1_565 S
C898 H885 0.930 . S
C898 C897 1.388 1_545 S
C898 C899 1.390 . S
C899 C898 1.390 . S
C899 C900 1.394 1_545 S
C899 C905 1.465 1_456 S
C900 C895 1.399 . S
C900 C899 1.394 1_565 S
C900 C901 1.516 1_456 S
C901 C900 1.516 1_654 S
C901 C902 1.502 1_554 S
C901 C903 1.561 . S
C901 C904 1.526 . S
C902 H886 0.959 . S
C902 H887 0.959 1_556 S
C902 H888 0.961 . S
C902 C901 1.502 1_556 S
C903 H889 0.960 1_655 S
C903 H890 0.961 . S
C903 H891 0.959 1_655 S
C903 C901 1.561 . S
C904 C901 1.526 . S
C904 C905 1.396 1_565 S
C904 C909 1.390 1_565 S
C905 C899 1.465 1_654 S
C905 C904 1.396 1_545 S
C905 C906 1.399 . S
C906 H892 0.929 1_655 S
C906 C905 1.399 . S
C906 C907 1.385 . S
C907 H893 0.931 . S
C907 C906 1.385 . S
C907 C908 1.389 . S
C908 C907 1.389 . S
C908 C909 1.387 . S
C909 H894 0.930 1_545 S
C909 C904 1.390 1_545 S
C909 C908 1.387 . S
H910 C922 0.930 . S
H911 C924 0.930 . S
H912 C925 0.930 1_556 S
H913 C929 0.959 1_556 S
H914 C929 0.959 . S
H915 C929 0.961 . S
H916 C930 0.960 . S
H917 C930 0.961 . S
H918 C930 0.959 . S
H919 C933 0.929 . S
H920 C934 0.931 . S
H921 C936 0.930 . S
C922 H910 0.930 . S
C922 C923 1.399 . S
C922 C927 1.399 . S
C923 C922 1.399 . S
C923 C924 1.376 . S
C924 H911 0.930 . S
C924 C923 1.376 . S
C924 C925 1.388 . S
C925 H912 0.930 1_554 S
C925 C924 1.388 . S
C925 C926 1.390 . S
C926 C925 1.390 . S
C926 C927 1.394 . S
C926 C932 1.466 1_554 S
C927 C922 1.399 . S
C927 C926 1.394 . S
C927 C928 1.516 1_565 S
C928 C927 1.516 1_545 S
C928 C929 1.502 . S
C928 C930 1.561 . S
C928 C931 1.526 1_554 S
C929 H913 0.959 1_554 S
C929 H914 0.959 . S
C929 H915 0.961 . S
C929 C928 1.502 . S
C930 H916 0.960 . S
C930 H917 0.961 . S
C930 H918 0.959 . S
C930 C928 1.561 . S
C931 C928 1.526 1_556 S
C931 C932 1.395 1_545 S
C931 C936 1.390 . S
C932 C926 1.466 1_556 S
C932 C931 1.395 1_565 S
C932 C933 1.399 . S
C933 H919 0.929 . S
C933 C932 1.399 . S
C933 C934 1.385 1_565 S
C934 H920 0.931 . S
C934 C933 1.385 1_545 S
C934 C935 1.389 . S
C935 C934 1.389 . S
C935 C936 1.387 . S
C936 H921 0.930 . S
C936 C931 1.390 . S
C936 C935 1.387 . S
H937 C949 0.930 . S
H938 C951 0.930 . S
H939 C952 0.930 . S
H940 C956 0.959 . S
H941 C956 0.959 . S
H942 C956 0.961 . S
H943 C957 0.960 . S
H944 C957 0.961 . S
H945 C957 0.959 . S
H946 C960 0.929 . S
H947 C961 0.931 . S
H948 C963 0.930 . S
C949 H937 0.930 . S
C949 C950 1.399 . S
C949 C954 1.399 . S
C950 C949 1.399 . S
C950 C951 1.376 . S
C951 H938 0.930 . S
C951 C950 1.376 . S
C951 C952 1.388 . S
C952 H939 0.930 . S
C952 C951 1.388 . S
C952 C953 1.390 . S
C953 C952 1.390 . S
C953 C954 1.394 . S
C953 C959 1.465 1_556 S
C954 C949 1.399 . S
C954 C953 1.394 . S
C954 C955 1.516 1_556 S
C955 C954 1.516 1_554 S
C955 C956 1.502 . S
C955 C957 1.561 1_554 S
C955 C958 1.526 . S
C956 H940 0.959 . S
C956 H941 0.959 . S
C956 H942 0.961 . S
C956 C955 1.502 . S
C957 H943 0.960 . S
C957 H944 0.961 . S
C957 H945 0.959 . S
C957 C955 1.561 1_556 S
C958 C955 1.526 . S
C958 C959 1.396 . S
C958 C963 1.390 . S
C959 C953 1.465 1_554 S
C959 C958 1.396 . S
C959 C960 1.399 . S
C960 H946 0.929 . S
C960 C959 1.399 . S
C960 C961 1.385 . S
C961 H947 0.931 . S
C961 C960 1.385 . S
C961 C962 1.389 . S
C962 C961 1.389 . S
C962 C963 1.387 . S
C963 H948 0.930 . S
C963 C958 1.390 . S
C963 C962 1.387 . S
H964 C976 0.930 . S
H965 C978 0.930 1_655 S
H966 C979 0.930 . S
H967 C983 0.959 1_565 S
H968 C983 0.959 . S
H969 C983 0.961 1_565 S
H970 C984 0.960 . S
H971 C984 0.961 . S
H972 C984 0.959 . S
H973 C987 0.929 . S
H974 C988 0.931 . S
H975 C990 0.930 1_455 S
C976 H964 0.930 . S
C976 C977 1.399 . S
C976 C981 1.399 . S
C977 C976 1.399 . S
C977 C978 1.376 . S
C978 H965 0.930 1_455 S
C978 C977 1.376 . S
C978 C979 1.388 1_455 S
C979 H966 0.930 . S
C979 C978 1.388 1_655 S
C979 C980 1.390 . S
C980 C979 1.390 . S
C980 C981 1.394 1_655 S
C980 C986 1.465 1_565 S
C981 C976 1.399 . S
C981 C980 1.394 1_455 S
C981 C982 1.516 1_565 S
C982 C981 1.516 1_545 S
C982 C983 1.502 . S
C982 C984 1.561 . S
C982 C985 1.526 . S
C983 H967 0.959 1_545 S
C983 H968 0.959 . S
C983 H969 0.961 1_545 S
C983 C982 1.502 . S
C984 H970 0.960 . S
C984 H971 0.961 . S
C984 H972 0.959 . S
C984 C982 1.561 . S
C985 C982 1.526 . S
C985 C986 1.396 1_455 S
C985 C990 1.390 1_455 S
C986 C980 1.465 1_545 S
C986 C985 1.396 1_655 S
C986 C987 1.399 . S
C987 H973 0.929 . S
C987 C986 1.399 . S
C987 C988 1.385 . S
C988 H974 0.931 . S
C988 C987 1.385 . S
C988 C989 1.389 . S
C989 C988 1.389 . S
C989 C990 1.387 . S
C990 H975 0.930 1_655 S
C990 C985 1.390 1_655 S
C990 C989 1.387 . S
H991 C1003 0.930 1_565 S
H992 C1005 0.930 . S
H993 C1006 0.930 . S
H994 C1010 0.959 . S
H995 C1010 0.959 . S
H996 C1010 0.961 . S
H997 C1011 0.960 . S
H998 C1011 0.961 . S
H999 C1011 0.959 . S
H1000 C1014 0.929 . S
H1001 C1015 0.931 1_545 S
H1002 C1017 0.930 . S
C1003 H991 0.930 1_545 S
C1003 C1004 1.399 . S
C1003 C1008 1.399 1_545 S
C1004 C1003 1.399 . S
C1004 C1005 1.376 . S
C1005 H992 0.930 . S
C1005 C1004 1.376 . S
C1005 C1006 1.388 . S
C1006 H993 0.930 . S
C1006 C1005 1.388 . S
C1006 C1007 1.390 . S
C1007 C1006 1.390 . S
C1007 C1008 1.394 1_545 S
C1007 C1013 1.465 . S
C1008 C1003 1.399 1_565 S
C1008 C1007 1.394 1_565 S
C1008 C1009 1.516 . S
C1009 C1008 1.516 . S
C1009 C1010 1.502 . S
C1009 C1011 1.561 . S
C1009 C1012 1.526 . S
C1010 H994 0.959 . S
C1010 H995 0.959 . S
C1010 H996 0.961 . S
C1010 C1009 1.502 . S
C1011 H997 0.960 . S
C1011 H998 0.961 . S
C1011 H999 0.959 . S
C1011 C1009 1.561 . S
C1012 C1009 1.526 . S
C1012 C1013 1.396 1_565 S
C1012 C1017 1.390 . S
C1013 C1007 1.465 . S
C1013 C1012 1.396 1_545 S
C1013 C1014 1.399 . S
C1014 H1000 0.929 . S
C1014 C1013 1.399 . S
C1014 C1015 1.385 1_545 S
C1015 H1001 0.931 1_565 S
C1015 C1014 1.385 1_565 S
C1015 C1016 1.389 . S
C1016 C1015 1.389 . S
C1016 C1017 1.387 . S
C1017 H1002 0.930 . S
C1017 C1012 1.390 . S
C1017 C1016 1.387 . S
H1018 C1030 0.930 . S
H1019 C1032 0.930 . S
H1020 C1033 0.930 . S
H1021 C1037 0.959 . S
H1022 C1037 0.959 . S
H1023 C1037 0.961 . S
H1024 C1038 0.960 . S
H1025 C1038 0.961 . S
H1026 C1038 0.959 . S
H1027 C1041 0.929 . S
H1028 C1042 0.931 . S
H1029 C1044 0.930 . S
C1030 H1018 0.930 . S
C1030 C1031 1.399 . S
C1030 C1035 1.399 . S
C1031 C1030 1.399 . S
C1031 C1032 1.376 . S
C1032 H1019 0.930 . S
C1032 C1031 1.376 . S
C1032 C1033 1.388 . S
C1033 H1020 0.930 . S
C1033 C1032 1.388 . S
C1033 C1034 1.390 . S
C1034 C1033 1.390 . S
C1034 C1035 1.394 . S
C1034 C1040 1.465 . S
C1035 C1030 1.399 . S
C1035 C1034 1.394 . S
C1035 C1036 1.516 . S
C1036 C1035 1.516 . S
C1036 C1037 1.502 . S
C1036 C1038 1.561 . S
C1036 C1039 1.526 . S
C1037 H1021 0.959 . S
C1037 H1022 0.959 . S
C1037 H1023 0.961 . S
C1037 C1036 1.502 . S
C1038 H1024 0.960 . S
C1038 H1025 0.961 . S
C1038 H1026 0.959 . S
C1038 C1036 1.561 . S
C1039 C1036 1.526 . S
C1039 C1040 1.396 . S
C1039 C1044 1.390 . S
C1040 C1034 1.465 . S
C1040 C1039 1.396 . S
C1040 C1041 1.399 . S
C1041 H1027 0.929 . S
C1041 C1040 1.399 . S
C1041 C1042 1.385 . S
C1042 H1028 0.931 . S
C1042 C1041 1.385 . S
C1042 C1043 1.389 . S
C1043 C1042 1.389 . S
C1043 C1044 1.387 . S
C1044 H1029 0.930 . S
C1044 C1039 1.390 . S
C1044 C1043 1.387 . S
H1045 C1057 0.930 . S
H1046 C1059 0.930 . S
H1047 C1060 0.930 . S
H1048 C1064 0.959 . S
H1049 C1064 0.959 . S
H1050 C1064 0.961 . S
H1051 C1065 0.960 . S
H1052 C1065 0.961 . S
H1053 C1065 0.959 . S
H1054 C1068 0.929 . S
H1055 C1069 0.931 . S
H1056 C1071 0.930 . S
C1057 H1045 0.930 . S
C1057 C1058 1.399 . S
C1057 C1062 1.399 . S
C1058 C1057 1.399 . S
C1058 C1059 1.376 . S
C1059 H1046 0.930 . S
C1059 C1058 1.376 . S
C1059 C1060 1.388 1_655 S
C1060 H1047 0.930 . S
C1060 C1059 1.388 1_455 S
C1060 C1061 1.390 . S
C1061 C1060 1.390 . S
C1061 C1062 1.395 1_455 S
C1061 C1067 1.464 . S
C1062 C1057 1.399 . S
C1062 C1061 1.395 1_655 S
C1062 C1063 1.516 . S
C1063 C1062 1.516 . S
C1063 C1064 1.502 . S
C1063 C1065 1.561 . S
C1063 C1066 1.526 1_655 S
C1064 H1048 0.959 . S
C1064 H1049 0.959 . S
C1064 H1050 0.961 . S
C1064 C1063 1.502 . S
C1065 H1051 0.960 . S
C1065 H1052 0.961 . S
C1065 H1053 0.959 . S
C1065 C1063 1.561 . S
C1066 C1063 1.526 1_455 S
C1066 C1067 1.396 . S
C1066 C1071 1.390 . S
C1067 C1061 1.464 . S
C1067 C1066 1.396 . S
C1067 C1068 1.399 . S
C1068 H1054 0.929 . S
C1068 C1067 1.399 . S
C1068 C1069 1.385 . S
C1069 H1055 0.931 . S
C1069 C1068 1.385 . S
C1069 C1070 1.389 . S
C1070 C1069 1.389 . S
C1070 C1071 1.387 . S
C1071 H1056 0.930 . S
C1071 C1066 1.390 . S
C1071 C1070 1.387 . S
C221 C3 1.542 . S
C233 C29 1.509 . S
C248 C18 1.466 . S
C260 C42 1.512 . S
C275 C57 1.467 . S
C287 C81 1.510 . S
C302 C94 1.542 . S
C314 C70 1.509 . S
C329 C109 1.490 . S
C341 C135 1.536 . S
C356 C146 1.504 . S
C368 C122 1.492 . S
C383 C187 1.477 . S
C395 C161 1.545 . S
C410 C198 1.524 . S
C422 C174 1.475 . S
C437 C101 1.159 . S
C449 C10 1.164 . S
C464 C17 1.124 . S
C476 C56 1.151 . S
C491 C69 1.125 . S
C503 C36 1.151 . S
C518 C49 1.162 . S
C530 C88 1.141 . S
C545 C205 1.107 . S
C557 C108 1.146 . S
C572 C121 1.153 . S
C584 C160 1.112 . S
C599 C134 1.162 . S
C611 C173 1.151 . S
C626 C186 1.163 . S
C638 C153 1.149 . S
C653 C5 0.670 . S
C665 C55 0.759 . S
C680 C16 0.599 . S
C692 C68 0.718 . S
C707 C83 0.717 . S
C719 C31 0.601 . S
C734 C44 0.756 . S
C746 C96 0.682 . S
C761 C159 0.612 . S
C773 C107 0.732 . S
C788 C172 0.685 . S
C800 C120 0.720 . S
C815 C133 0.765 . S
C827 C185 0.609 . S
C842 C148 0.713 . S
C854 C200 0.628 . S
C869 C4 1.556 . S
C881 C114 1.557 . S
C896 C127 1.574 . S
C908 C23 1.556 . S
C923 C30 1.573 . S
C935 C140 1.541 . S
C950 C147 1.537 . S
C962 C43 1.577 . S
C977 C62 1.544 . S
C989 C166 1.569 . S
C1004 C75 1.584 . S
C1016 C179 1.543 . S
C1031 C192 1.537 . S
C1043 C82 1.587 . S
C1058 C95 1.547 . S
C1070 C199 1.581 . S
