# Generated by pormake.
# Topology wmp, (6)-cn, num edge types: 1
# Building blocks:
#     Node 0, Type 0, BuildingBlock: OJICUG_clean_sbu_0, # of connection points: 6
#     Node 1, Type 0, BuildingBlock: OJICUG_clean_sbu_0, # of connection points: 6
#     Node 2, Type 0, BuildingBlock: OJICUG_clean_sbu_0, # of connection points: 6
#     Node 3, Type 0, BuildingBlock: OJICUG_clean_sbu_0, # of connection points: 6
#     Node 4, Type 0, BuildingBlock: OJICUG_clean_sbu_0, # of connection points: 6
#     Node 5, Type 0, BuildingBlock: OJICUG_clean_sbu_0, # of connection points: 6
#     Node 6, Type 0, BuildingBlock: OJICUG_clean_sbu_0, # of connection points: 6
#     Node 7, Type 0, BuildingBlock: OJICUG_clean_sbu_0, # of connection points: 6
#     Node 8, Type 0, BuildingBlock: OJICUG_clean_sbu_0, # of connection points: 6
#     Node 9, Type 0, BuildingBlock: OJICUG_clean_sbu_0, # of connection points: 6
#     Node 10, Type 0, BuildingBlock: OJICUG_clean_sbu_0, # of connection points: 6
#     Node 11, Type 0, BuildingBlock: OJICUG_clean_sbu_0, # of connection points: 6
#     Node 12, Type 0, BuildingBlock: OJICUG_clean_sbu_0, # of connection points: 6
#     Node 13, Type 0, BuildingBlock: OJICUG_clean_sbu_0, # of connection points: 6
#     Node 14, Type 0, BuildingBlock: OJICUG_clean_sbu_0, # of connection points: 6
#     Node 15, Type 0, BuildingBlock: OJICUG_clean_sbu_0, # of connection points: 6
#     Node 16, Type 0, BuildingBlock: OJICUG_clean_sbu_0, # of connection points: 6
#     Node 17, Type 0, BuildingBlock: OJICUG_clean_sbu_0, # of connection points: 6
#     Node 18, Type 0, BuildingBlock: OJICUG_clean_sbu_0, # of connection points: 6
#     Node 19, Type 0, BuildingBlock: OJICUG_clean_sbu_0, # of connection points: 6
#     Node 20, Type 0, BuildingBlock: OJICUG_clean_sbu_0, # of connection points: 6
#     Node 21, Type 0, BuildingBlock: OJICUG_clean_sbu_0, # of connection points: 6
#     Node 22, Type 0, BuildingBlock: OJICUG_clean_sbu_0, # of connection points: 6
#     Node 23, Type 0, BuildingBlock: OJICUG_clean_sbu_0, # of connection points: 6
#     Node 24, Type 0, BuildingBlock: OJICUG_clean_sbu_0, # of connection points: 6
#     Node 25, Type 0, BuildingBlock: OJICUG_clean_sbu_0, # of connection points: 6
#     Node 26, Type 0, BuildingBlock: OJICUG_clean_sbu_0, # of connection points: 6
#     Node 27, Type 0, BuildingBlock: OJICUG_clean_sbu_0, # of connection points: 6
#     Node 28, Type 0, BuildingBlock: OJICUG_clean_sbu_0, # of connection points: 6
#     Node 29, Type 0, BuildingBlock: OJICUG_clean_sbu_0, # of connection points: 6
#     Node 30, Type 0, BuildingBlock: OJICUG_clean_sbu_0, # of connection points: 6
#     Node 31, Type 0, BuildingBlock: OJICUG_clean_sbu_0, # of connection points: 6
#     Node 32, Type 0, BuildingBlock: OJICUG_clean_sbu_0, # of connection points: 6
#     Node 33, Type 0, BuildingBlock: OJICUG_clean_sbu_0, # of connection points: 6
#     Node 34, Type 0, BuildingBlock: OJICUG_clean_sbu_0, # of connection points: 6
#     Node 35, Type 0, BuildingBlock: OJICUG_clean_sbu_0, # of connection points: 6
#     Edge 36, Type (0, 0), BuildingBlock: XIVTED_clean_linker_0, # of connection points: 2
#     Edge 37, Type (0, 0), BuildingBlock: XIVTED_clean_linker_0, # of connection points: 2
#     Edge 38, Type (0, 0), BuildingBlock: XIVTED_clean_linker_0, # of connection points: 2
#     Edge 39, Type (0, 0), BuildingBlock: XIVTED_clean_linker_0, # of connection points: 2
#     Edge 40, Type (0, 0), BuildingBlock: XIVTED_clean_linker_0, # of connection points: 2
#     Edge 41, Type (0, 0), BuildingBlock: XIVTED_clean_linker_0, # of connection points: 2
#     Edge 42, Type (0, 0), BuildingBlock: XIVTED_clean_linker_0, # of connection points: 2
#     Edge 43, Type (0, 0), BuildingBlock: XIVTED_clean_linker_0, # of connection points: 2
#     Edge 44, Type (0, 0), BuildingBlock: XIVTED_clean_linker_0, # of connection points: 2
#     Edge 45, Type (0, 0), BuildingBlock: XIVTED_clean_linker_0, # of connection points: 2
#     Edge 46, Type (0, 0), BuildingBlock: XIVTED_clean_linker_0, # of connection points: 2
#     Edge 47, Type (0, 0), BuildingBlock: XIVTED_clean_linker_0, # of connection points: 2
#     Edge 48, Type (0, 0), BuildingBlock: XIVTED_clean_linker_0, # of connection points: 2
#     Edge 49, Type (0, 0), BuildingBlock: XIVTED_clean_linker_0, # of connection points: 2
#     Edge 50, Type (0, 0), BuildingBlock: XIVTED_clean_linker_0, # of connection points: 2
#     Edge 51, Type (0, 0), BuildingBlock: XIVTED_clean_linker_0, # of connection points: 2
#     Edge 52, Type (0, 0), BuildingBlock: XIVTED_clean_linker_0, # of connection points: 2
#     Edge 53, Type (0, 0), BuildingBlock: XIVTED_clean_linker_0, # of connection points: 2
#     Edge 54, Type (0, 0), BuildingBlock: XIVTED_clean_linker_0, # of connection points: 2
#     Edge 55, Type (0, 0), BuildingBlock: XIVTED_clean_linker_0, # of connection points: 2
#     Edge 56, Type (0, 0), BuildingBlock: XIVTED_clean_linker_0, # of connection points: 2
#     Edge 57, Type (0, 0), BuildingBlock: XIVTED_clean_linker_0, # of connection points: 2
#     Edge 58, Type (0, 0), BuildingBlock: XIVTED_clean_linker_0, # of connection points: 2
#     Edge 59, Type (0, 0), BuildingBlock: XIVTED_clean_linker_0, # of connection points: 2
#     Edge 60, Type (0, 0), BuildingBlock: XIVTED_clean_linker_0, # of connection points: 2
#     Edge 61, Type (0, 0), BuildingBlock: XIVTED_clean_linker_0, # of connection points: 2
#     Edge 62, Type (0, 0), BuildingBlock: XIVTED_clean_linker_0, # of connection points: 2
#     Edge 63, Type (0, 0), BuildingBlock: XIVTED_clean_linker_0, # of connection points: 2
#     Edge 64, Type (0, 0), BuildingBlock: XIVTED_clean_linker_0, # of connection points: 2
#     Edge 65, Type (0, 0), BuildingBlock: XIVTED_clean_linker_0, # of connection points: 2
#     Edge 66, Type (0, 0), BuildingBlock: XIVTED_clean_linker_0, # of connection points: 2
#     Edge 67, Type (0, 0), BuildingBlock: XIVTED_clean_linker_0, # of connection points: 2
#     Edge 68, Type (0, 0), BuildingBlock: XIVTED_clean_linker_0, # of connection points: 2
#     Edge 69, Type (0, 0), BuildingBlock: XIVTED_clean_linker_0, # of connection points: 2
#     Edge 70, Type (0, 0), BuildingBlock: XIVTED_clean_linker_0, # of connection points: 2
#     Edge 71, Type (0, 0), BuildingBlock: XIVTED_clean_linker_0, # of connection points: 2
#     Edge 72, Type (0, 0), BuildingBlock: XIVTED_clean_linker_0, # of connection points: 2
#     Edge 73, Type (0, 0), BuildingBlock: XIVTED_clean_linker_0, # of connection points: 2
#     Edge 74, Type (0, 0), BuildingBlock: XIVTED_clean_linker_0, # of connection points: 2
#     Edge 75, Type (0, 0), BuildingBlock: XIVTED_clean_linker_0, # of connection points: 2
#     Edge 76, Type (0, 0), BuildingBlock: XIVTED_clean_linker_0, # of connection points: 2
#     Edge 77, Type (0, 0), BuildingBlock: XIVTED_clean_linker_0, # of connection points: 2
#     Edge 78, Type (0, 0), BuildingBlock: XIVTED_clean_linker_0, # of connection points: 2
#     Edge 79, Type (0, 0), BuildingBlock: XIVTED_clean_linker_0, # of connection points: 2
#     Edge 80, Type (0, 0), BuildingBlock: XIVTED_clean_linker_0, # of connection points: 2
#     Edge 81, Type (0, 0), BuildingBlock: XIVTED_clean_linker_0, # of connection points: 2
#     Edge 82, Type (0, 0), BuildingBlock: XIVTED_clean_linker_0, # of connection points: 2
#     Edge 83, Type (0, 0), BuildingBlock: XIVTED_clean_linker_0, # of connection points: 2
#     Edge 84, Type (0, 0), BuildingBlock: XIVTED_clean_linker_0, # of connection points: 2
#     Edge 85, Type (0, 0), BuildingBlock: XIVTED_clean_linker_0, # of connection points: 2
#     Edge 86, Type (0, 0), BuildingBlock: XIVTED_clean_linker_0, # of connection points: 2
#     Edge 87, Type (0, 0), BuildingBlock: XIVTED_clean_linker_0, # of connection points: 2
#     Edge 88, Type (0, 0), BuildingBlock: XIVTED_clean_linker_0, # of connection points: 2
#     Edge 89, Type (0, 0), BuildingBlock: XIVTED_clean_linker_0, # of connection points: 2
#     Edge 90, Type (0, 0), BuildingBlock: XIVTED_clean_linker_0, # of connection points: 2
#     Edge 91, Type (0, 0), BuildingBlock: XIVTED_clean_linker_0, # of connection points: 2
#     Edge 92, Type (0, 0), BuildingBlock: XIVTED_clean_linker_0, # of connection points: 2
#     Edge 93, Type (0, 0), BuildingBlock: XIVTED_clean_linker_0, # of connection points: 2
#     Edge 94, Type (0, 0), BuildingBlock: XIVTED_clean_linker_0, # of connection points: 2
#     Edge 95, Type (0, 0), BuildingBlock: XIVTED_clean_linker_0, # of connection points: 2
#     Edge 96, Type (0, 0), BuildingBlock: XIVTED_clean_linker_0, # of connection points: 2
#     Edge 97, Type (0, 0), BuildingBlock: XIVTED_clean_linker_0, # of connection points: 2
#     Edge 98, Type (0, 0), BuildingBlock: XIVTED_clean_linker_0, # of connection points: 2
#     Edge 99, Type (0, 0), BuildingBlock: XIVTED_clean_linker_0, # of connection points: 2
#     Edge 100, Type (0, 0), BuildingBlock: XIVTED_clean_linker_0, # of connection points: 2
#     Edge 101, Type (0, 0), BuildingBlock: XIVTED_clean_linker_0, # of connection points: 2
#     Edge 102, Type (0, 0), BuildingBlock: XIVTED_clean_linker_0, # of connection points: 2
#     Edge 103, Type (0, 0), BuildingBlock: XIVTED_clean_linker_0, # of connection points: 2
#     Edge 104, Type (0, 0), BuildingBlock: XIVTED_clean_linker_0, # of connection points: 2
#     Edge 105, Type (0, 0), BuildingBlock: XIVTED_clean_linker_0, # of connection points: 2
#     Edge 106, Type (0, 0), BuildingBlock: XIVTED_clean_linker_0, # of connection points: 2
#     Edge 107, Type (0, 0), BuildingBlock: XIVTED_clean_linker_0, # of connection points: 2
#     Edge 108, Type (0, 0), BuildingBlock: XIVTED_clean_linker_0, # of connection points: 2
#     Edge 109, Type (0, 0), BuildingBlock: XIVTED_clean_linker_0, # of connection points: 2
#     Edge 110, Type (0, 0), BuildingBlock: XIVTED_clean_linker_0, # of connection points: 2
#     Edge 111, Type (0, 0), BuildingBlock: XIVTED_clean_linker_0, # of connection points: 2
#     Edge 112, Type (0, 0), BuildingBlock: XIVTED_clean_linker_0, # of connection points: 2
#     Edge 113, Type (0, 0), BuildingBlock: XIVTED_clean_linker_0, # of connection points: 2
#     Edge 114, Type (0, 0), BuildingBlock: XIVTED_clean_linker_0, # of connection points: 2
#     Edge 115, Type (0, 0), BuildingBlock: XIVTED_clean_linker_0, # of connection points: 2
#     Edge 116, Type (0, 0), BuildingBlock: XIVTED_clean_linker_0, # of connection points: 2
#     Edge 117, Type (0, 0), BuildingBlock: XIVTED_clean_linker_0, # of connection points: 2
#     Edge 118, Type (0, 0), BuildingBlock: XIVTED_clean_linker_0, # of connection points: 2
#     Edge 119, Type (0, 0), BuildingBlock: XIVTED_clean_linker_0, # of connection points: 2
#     Edge 120, Type (0, 0), BuildingBlock: XIVTED_clean_linker_0, # of connection points: 2
#     Edge 121, Type (0, 0), BuildingBlock: XIVTED_clean_linker_0, # of connection points: 2
#     Edge 122, Type (0, 0), BuildingBlock: XIVTED_clean_linker_0, # of connection points: 2
#     Edge 123, Type (0, 0), BuildingBlock: XIVTED_clean_linker_0, # of connection points: 2
#     Edge 124, Type (0, 0), BuildingBlock: XIVTED_clean_linker_0, # of connection points: 2
#     Edge 125, Type (0, 0), BuildingBlock: XIVTED_clean_linker_0, # of connection points: 2
#     Edge 126, Type (0, 0), BuildingBlock: XIVTED_clean_linker_0, # of connection points: 2
#     Edge 127, Type (0, 0), BuildingBlock: XIVTED_clean_linker_0, # of connection points: 2
#     Edge 128, Type (0, 0), BuildingBlock: XIVTED_clean_linker_0, # of connection points: 2
#     Edge 129, Type (0, 0), BuildingBlock: XIVTED_clean_linker_0, # of connection points: 2
#     Edge 130, Type (0, 0), BuildingBlock: XIVTED_clean_linker_0, # of connection points: 2
#     Edge 131, Type (0, 0), BuildingBlock: XIVTED_clean_linker_0, # of connection points: 2
#     Edge 132, Type (0, 0), BuildingBlock: XIVTED_clean_linker_0, # of connection points: 2
#     Edge 133, Type (0, 0), BuildingBlock: XIVTED_clean_linker_0, # of connection points: 2
#     Edge 134, Type (0, 0), BuildingBlock: XIVTED_clean_linker_0, # of connection points: 2
#     Edge 135, Type (0, 0), BuildingBlock: XIVTED_clean_linker_0, # of connection points: 2
#     Edge 136, Type (0, 0), BuildingBlock: XIVTED_clean_linker_0, # of connection points: 2
#     Edge 137, Type (0, 0), BuildingBlock: XIVTED_clean_linker_0, # of connection points: 2
#     Edge 138, Type (0, 0), BuildingBlock: XIVTED_clean_linker_0, # of connection points: 2
#     Edge 139, Type (0, 0), BuildingBlock: XIVTED_clean_linker_0, # of connection points: 2
#     Edge 140, Type (0, 0), BuildingBlock: XIVTED_clean_linker_0, # of connection points: 2
#     Edge 141, Type (0, 0), BuildingBlock: XIVTED_clean_linker_0, # of connection points: 2
#     Edge 142, Type (0, 0), BuildingBlock: XIVTED_clean_linker_0, # of connection points: 2
#     Edge 143, Type (0, 0), BuildingBlock: XIVTED_clean_linker_0, # of connection points: 2
# Relax obj value: 0.347
# Max RMSD: 0.287
# Mean RMSD: 0.287
data_MOF--net-wmp--node1-OJICUG_clean_sbu_0--edge1-XIVTED_clean_linker_0
_symmetry_space_group_name_H-M    P1
_symmetry_Int_Tables_number       1
_symmetry_cell_setting            triclinic
loop_
_symmetry_equiv_pos_as_xyz
'x, y, z'
_cell_length_a     125.3777
_cell_length_b     125.37407
_cell_length_c     15.842212
_cell_angle_alpha  90.004619
_cell_angle_beta   90.000961
_cell_angle_gamma 120.01165
loop_
_atom_site_label
_atom_site_type_symbol
_atom_site_fract_x
_atom_site_fract_y
_atom_site_fract_z
_atom_type_partial_charge
Sc0 Sc 0.13768 0.38477 0.14963 0.0
Sc1 Sc 0.11623 0.38467 0.01003 0.0
Sc2 Sc 0.14112 0.41255 0.07834 0.0
O3 O 0.13165 0.39401 0.07956 0.0
C4 C 0.14297 0.4074 0.26961 0.0
C5 C 0.10958 0.36829 0.17863 0.0
C6 C 0.11299 0.40578 0.08564 0.0
C7 C 0.12813 0.36841 0.98189 0.0
C8 C 0.16228 0.40577 0.07278 0.0
C9 C 0.13362 0.407 0.888 0.0
O10 O 0.14369 0.39786 0.25268 0.0
O11 O 0.10723 0.37018 0.10364 0.0
O12 O 0.12446 0.41345 0.07924 0.0
O13 O 0.13229 0.37031 0.05698 0.0
O14 O 0.15893 0.41378 0.07821 0.0
O15 O 0.12324 0.39768 0.90625 0.0
O16 O 0.15524 0.39443 0.08933 0.0
O17 O 0.12348 0.37439 0.94865 0.0
O18 O 0.14195 0.41285 0.94273 0.0
O19 O 0.12021 0.37445 0.21167 0.0
O20 O 0.14078 0.41334 0.21392 0.0
O21 O 0.10823 0.39439 0.06898 0.0
Sc22 Sc 0.60902 0.75394 0.15813 0.0
Sc23 Sc 0.61235 0.73453 0.01837 0.0
Sc24 Sc 0.58308 0.72825 0.08013 0.0
O25 O 0.60149 0.73883 0.0858 0.0
C26 C 0.58667 0.73461 0.27158 0.0
C27 C 0.62707 0.74437 0.19361 0.0
C28 C 0.59228 0.70861 0.0754 0.0
C29 C 0.62685 0.76291 0.99799 0.0
C30 C 0.58711 0.75522 0.07746 0.0
C31 C 0.59004 0.72819 0.89091 0.0
O32 O 0.59506 0.74558 0.2551 0.0
O33 O 0.62615 0.74059 0.11769 0.0
O34 O 0.58399 0.71161 0.07093 0.0
O35 O 0.62417 0.76444 0.07271 0.0
O36 O 0.5799 0.7437 0.08659 0.0
O37 O 0.59988 0.72817 0.91105 0.0
O38 O 0.5986 0.76049 0.09197 0.0
O39 O 0.62169 0.75248 0.96172 0.0
O40 O 0.58338 0.72976 0.94455 0.0
O41 O 0.61996 0.74789 0.22449 0.0
O42 O 0.58209 0.7262 0.21575 0.0
O43 O 0.60371 0.71632 0.07049 0.0
Sc44 Sc 0.23826 0.8518 0.15674 0.0
Sc45 Sc 0.25921 0.87388 0.01806 0.0
Sc46 Sc 0.26336 0.84964 0.08577 0.0
O47 O 0.25366 0.85847 0.08704 0.0
C48 C 0.2561 0.84729 0.27688 0.0
C49 C 0.24904 0.8798 0.18767 0.0
C50 C 0.28393 0.87807 0.09434 0.0
C51 C 0.23095 0.86109 0.98996 0.0
C52 C 0.23576 0.82773 0.07794 0.0
C53 C 0.26506 0.85719 0.8953 0.0
O54 O 0.24566 0.84613 0.25974 0.0
O55 O 0.25334 0.8824 0.11288 0.0
O56 O 0.28054 0.86668 0.08886 0.0
O57 O 0.22879 0.85678 0.06461 0.0
O58 O 0.24721 0.83149 0.08372 0.0
O59 O 0.26552 0.86731 0.91349 0.0
O60 O 0.23104 0.83438 0.09522 0.0
O61 O 0.24162 0.86615 0.95692 0.0
O62 O 0.26306 0.849 0.95009 0.0
O63 O 0.24476 0.86913 0.21968 0.0
O64 O 0.26433 0.84982 0.22135 0.0
O65 O 0.277 0.88245 0.07636 0.0
Sc66 Sc 0.38345 0.13855 0.85837 0.0
Sc67 Sc 0.37948 0.11577 0.9998 0.0
Sc68 Sc 0.409 0.13823 0.93853 0.0
O69 O 0.39064 0.13076 0.93184 0.0
C70 C 0.40562 0.14081 0.74653 0.0
C71 C 0.36485 0.11103 0.82414 0.0
C72 C 0.3991 0.10925 0.94482 0.0
C73 C 0.36584 0.13053 0.01905 0.0
C74 C 0.40562 0.16152 0.93919 0.0
C75 C 0.40184 0.1315 0.1274 0.0
O76 O 0.39739 0.14365 0.76185 0.0
O77 O 0.36561 0.1082 0.90045 0.0
O78 O 0.40758 0.12047 0.94955 0.0
O79 O 0.36845 0.13448 0.94368 0.0
O80 O 0.4127 0.15705 0.93089 0.0
O81 O 0.39193 0.12169 0.10737 0.0
O82 O 0.39416 0.1555 0.9237 0.0
O83 O 0.37066 0.12495 0.05548 0.0
O84 O 0.4086 0.13963 0.0736 0.0
O85 O 0.3722 0.12155 0.79286 0.0
O86 O 0.41005 0.13695 0.80324 0.0
O87 O 0.38771 0.10578 0.94841 0.0
Sc88 Sc 0.84974 0.24151 0.87482 0.0
Sc89 Sc 0.87278 0.26035 0.0147 0.0
Sc90 Sc 0.85041 0.26761 0.95424 0.0
O91 O 0.85772 0.25656 0.9476 0.0
C92 C 0.84752 0.26139 0.76219 0.0
C93 C 0.87719 0.25016 0.83944 0.0
C94 C 0.87947 0.28648 0.95778 0.0
C95 C 0.8578 0.23197 0.03579 0.0
C96 C 0.8269 0.24102 0.95568 0.0
C97 C 0.85745 0.26742 0.14296 0.0
O98 O 0.84472 0.25034 0.77784 0.0
O99 O 0.88013 0.25385 0.91544 0.0
O100 O 0.86829 0.28387 0.96315 0.0
O101 O 0.8537 0.23056 0.96078 0.0
O102 O 0.83152 0.2526 0.94835 0.0
O103 O 0.86714 0.26713 0.12226 0.0
O104 O 0.8328 0.23546 0.94002 0.0
O105 O 0.86355 0.24243 0.07146 0.0
O106 O 0.84926 0.26607 0.08972 0.0
O107 O 0.86664 0.247 0.80876 0.0
O108 O 0.85144 0.26974 0.81858 0.0
O109 O 0.88283 0.27849 0.96206 0.0
Sc110 Sc 0.74854 0.60716 0.86689 0.0
Sc111 Sc 0.7295 0.61052 0.00979 0.0
Sc112 Sc 0.72302 0.58121 0.94712 0.0
O113 O 0.73361 0.59963 0.94093 0.0
C114 C 0.72891 0.58478 0.75487 0.0
C115 C 0.73917 0.62545 0.83509 0.0
C116 C 0.7035 0.59055 0.95362 0.0
C117 C 0.75792 0.62471 0.02825 0.0
C118 C 0.74996 0.58519 0.94584 0.0
C119 C 0.72325 0.58816 0.13633 0.0
O120 O 0.73987 0.59331 0.76976 0.0
O121 O 0.73554 0.62447 0.91142 0.0
O122 O 0.70644 0.58222 0.95789 0.0
O123 O 0.75928 0.62212 0.95285 0.0
O124 O 0.73841 0.57794 0.93923 0.0
O125 O 0.72317 0.59799 0.11679 0.0
O126 O 0.75518 0.59664 0.93036 0.0
O127 O 0.74754 0.61967 0.06517 0.0
O128 O 0.72478 0.58154 0.08223 0.0
O129 O 0.74248 0.61827 0.80278 0.0
O130 O 0.72068 0.58011 0.81184 0.0
O131 O 0.71125 0.60198 0.9584 0.0
Sc132 Sc 0.84843 0.58232 0.93392 0.0
Sc133 Sc 0.87239 0.61095 0.99806 0.0
Sc134 Sc 0.85044 0.6091 0.85636 0.0
O135 O 0.85716 0.6008 0.92915 0.0
C136 C 0.84645 0.58641 0.74228 0.0
C137 C 0.8769 0.59001 0.94035 0.0
C138 C 0.87836 0.62618 0.82438 0.0
C139 C 0.8553 0.58881 0.12346 0.0
C140 C 0.82641 0.58778 0.93349 0.0
C141 C 0.8596 0.62652 0.01866 0.0
O142 O 0.84964 0.58134 0.79863 0.0
O143 O 0.8812 0.60155 0.94582 0.0
O144 O 0.86773 0.61952 0.7923 0.0
O145 O 0.84701 0.58259 0.06912 0.0
O146 O 0.83315 0.59924 0.91969 0.0
O147 O 0.86447 0.62094 0.05465 0.0
O148 O 0.83021 0.58014 0.92566 0.0
O149 O 0.86554 0.5983 0.10431 0.0
O150 O 0.85551 0.62415 0.94348 0.0
O151 O 0.86545 0.58218 0.94439 0.0
O152 O 0.84455 0.59528 0.75815 0.0
O153 O 0.88092 0.62491 0.90036 0.0
Sc154 Sc 0.41124 0.26405 0.93551 0.0
Sc155 Sc 0.38321 0.26071 0.00332 0.0
Sc156 Sc 0.38365 0.23941 0.86478 0.0
O157 O 0.3927 0.25475 0.93435 0.0
C158 C 0.40612 0.25698 0.74441 0.0
C159 C 0.40416 0.28516 0.92768 0.0
C160 C 0.36686 0.25068 0.83479 0.0
C161 C 0.40559 0.26589 0.12569 0.0
C162 C 0.40493 0.23625 0.94094 0.0
C163 C 0.36723 0.23251 0.03237 0.0
O164 O 0.41196 0.26518 0.79993 0.0
O165 O 0.39277 0.27843 0.94388 0.0
O166 O 0.37309 0.24626 0.80235 0.0
O167 O 0.41151 0.26347 0.07111 0.0
O168 O 0.39354 0.23177 0.92533 0.0
O169 O 0.37305 0.24319 0.06512 0.0
O170 O 0.41278 0.24765 0.93505 0.0
O171 O 0.39623 0.26688 0.10719 0.0
O172 O 0.36924 0.23023 0.95764 0.0
O173 O 0.41192 0.28149 0.93498 0.0
O174 O 0.39672 0.24662 0.76161 0.0
O175 O 0.36872 0.25503 0.90949 0.0
Sc176 Sc 0.72712 0.14196 0.93085 0.0
Sc177 Sc 0.73226 0.11825 0.99301 0.0
Sc178 Sc 0.75242 0.14081 0.85466 0.0
O179 O 0.7372 0.13359 0.92585 0.0
C180 C 0.73359 0.14446 0.73962 0.0
C181 C 0.70671 0.11336 0.93497 0.0
C182 C 0.74209 0.11301 0.81901 0.0
C183 C 0.72663 0.13478 0.12001 0.0
C184 C 0.75436 0.1644 0.93358 0.0
C185 C 0.76062 0.13146 0.01617 0.0
O186 O 0.72516 0.14093 0.79519 0.0
O187 O 0.7141 0.10923 0.93967 0.0
O188 O 0.74605 0.12374 0.78851 0.0
O189 O 0.7286 0.14314 0.06645 0.0
O190 O 0.75936 0.15791 0.92017 0.0
O191 O 0.75008 0.12629 0.05098 0.0
O192 O 0.7429 0.16036 0.92417 0.0
O193 O 0.72613 0.12468 0.09981 0.0
O194 O 0.76246 0.1358 0.9417 0.0
O195 O 0.71014 0.12475 0.9399 0.0
O196 O 0.74443 0.14667 0.75654 0.0
O197 O 0.73805 0.11016 0.89437 0.0
Sc198 Sc 0.5778 0.85008 0.04576 0.0
Sc199 Sc 0.60703 0.87331 0.98427 0.0
Sc200 Sc 0.60392 0.85063 0.12416 0.0
O201 O 0.59625 0.85808 0.0517 0.0
C202 C 0.5815 0.8475 0.23786 0.0
C203 C 0.58681 0.87889 0.04258 0.0
C204 C 0.62204 0.87836 0.1583 0.0
C205 C 0.58475 0.85727 0.85677 0.0
C206 C 0.58196 0.82722 0.0447 0.0
C207 C 0.62144 0.85929 0.96235 0.0
O208 O 0.57667 0.85098 0.18146 0.0
O209 O 0.59826 0.88272 0.03707 0.0
O210 O 0.61506 0.86772 0.18926 0.0
O211 O 0.57815 0.84899 0.91021 0.0
O212 O 0.5934 0.83349 0.06031 0.0
O213 O 0.61648 0.86484 0.92731 0.0
O214 O 0.57467 0.83146 0.05132 0.0
O215 O 0.59454 0.86717 0.87709 0.0
O216 O 0.61875 0.85498 0.03684 0.0
O217 O 0.57859 0.86757 0.03769 0.0
O218 O 0.59018 0.84532 0.22226 0.0
O219 O 0.62093 0.88121 0.0828 0.0
Sc220 Sc 0.13852 0.72522 0.03992 0.0
Sc221 Sc 0.11575 0.73194 0.97976 0.0
Sc222 Sc 0.13857 0.75101 0.12038 0.0
O223 O 0.13088 0.736 0.04699 0.0
C224 C 0.14108 0.73124 0.23277 0.0
C225 C 0.10957 0.70593 0.03664 0.0
C226 C 0.11097 0.742 0.15425 0.0
C227 C 0.13135 0.72524 0.8514 0.0
C228 C 0.16175 0.752 0.04025 0.0
C229 C 0.13035 0.76039 0.95898 0.0
O230 O 0.13758 0.72304 0.17553 0.0
O231 O 0.106 0.71377 0.03228 0.0
O232 O 0.12154 0.74537 0.18537 0.0
O233 O 0.13963 0.72677 0.90437 0.0
O234 O 0.15568 0.75736 0.05679 0.0
O235 O 0.12463 0.74991 0.92341 0.0
O236 O 0.15729 0.74043 0.04591 0.0
O237 O 0.12159 0.72536 0.8723 0.0
O238 O 0.13459 0.76184 0.03361 0.0
O239 O 0.1208 0.70875 0.03112 0.0
O240 O 0.1435 0.74221 0.21797 0.0
O241 O 0.1081 0.73818 0.0785 0.0
Sc242 Sc 0.26577 0.41212 0.06246 0.0
Sc243 Sc 0.26067 0.38329 0.99956 0.0
Sc244 Sc 0.24087 0.38555 0.14152 0.0
O245 O 0.25586 0.39366 0.06827 0.0
C246 C 0.25978 0.40826 0.25451 0.0
C247 C 0.28624 0.40401 0.05693 0.0
C248 C 0.25126 0.36813 0.17361 0.0
C249 C 0.26603 0.40542 0.87329 0.0
C250 C 0.23841 0.4069 0.06203 0.0
C251 C 0.23229 0.36819 0.97929 0.0
O252 O 0.268 0.41325 0.19778 0.0
O253 O 0.27889 0.39248 0.05185 0.0
O254 O 0.24755 0.375 0.20584 0.0
O255 O 0.26406 0.41174 0.92732 0.0
O256 O 0.23363 0.39549 0.07757 0.0
O257 O 0.24273 0.37358 0.94317 0.0
O258 O 0.24985 0.41455 0.06972 0.0
O259 O 0.26666 0.39588 0.8929 0.0
O260 O 0.23069 0.37053 0.05479 0.0
O261 O 0.28278 0.41196 0.05246 0.0
O262 O 0.24898 0.39941 0.2392 0.0
O263 O 0.25501 0.36929 0.09746 0.0
Sc264 Sc 0.80449 0.71991 0.46509 0.0
Sc265 Sc 0.78191 0.71646 0.32333 0.0
Sc266 Sc 0.80475 0.74579 0.3855 0.0
O267 O 0.79697 0.72738 0.39165 0.0
C268 C 0.80713 0.74221 0.5776 0.0
C269 C 0.77685 0.70154 0.49787 0.0
C270 C 0.77587 0.7364 0.37993 0.0
C271 C 0.79625 0.70237 0.30366 0.0
C272 C 0.82779 0.74196 0.38596 0.0
C273 C 0.79796 0.73881 0.19648 0.0
O274 O 0.80965 0.73374 0.5624 0.0
O275 O 0.7741 0.70252 0.4218 0.0
O276 O 0.78715 0.74475 0.37492 0.0
O277 O 0.80029 0.705 0.37882 0.0
O278 O 0.82345 0.74916 0.39329 0.0
O279 O 0.78804 0.729 0.21626 0.0
O280 O 0.8216 0.73049 0.40109 0.0
O281 O 0.79077 0.70733 0.26733 0.0
O282 O 0.80614 0.74543 0.25041 0.0
O283 O 0.78738 0.70873 0.5297 0.0
O284 O 0.80351 0.74685 0.52082 0.0
O285 O 0.77221 0.72497 0.3755 0.0
Sc286 Sc 0.27046 0.08274 0.45137 0.0
Sc287 Sc 0.27389 0.06334 0.31216 0.0
Sc288 Sc 0.24456 0.05705 0.37254 0.0
O289 O 0.26297 0.06763 0.37902 0.0
C290 C 0.24809 0.06333 0.56449 0.0
C291 C 0.28866 0.07335 0.48708 0.0
C292 C 0.25386 0.03748 0.3701 0.0
C293 C 0.288 0.09173 0.29004 0.0
C294 C 0.24853 0.08399 0.37036 0.0
C295 C 0.25165 0.05691 0.1839 0.0
O296 O 0.25659 0.07428 0.54863 0.0
O297 O 0.28778 0.06955 0.41124 0.0
O298 O 0.24554 0.04043 0.36417 0.0
O299 O 0.28544 0.0933 0.36501 0.0
O300 O 0.24128 0.07246 0.37818 0.0
O301 O 0.26143 0.05681 0.20471 0.0
O302 O 0.25998 0.08923 0.38594 0.0
O303 O 0.28306 0.08123 0.25481 0.0
O304 O 0.24499 0.05855 0.23704 0.0
O305 O 0.28151 0.07681 0.51761 0.0
O306 O 0.24343 0.05498 0.50824 0.0
O307 O 0.26529 0.04521 0.36555 0.0
Sc308 Sc 0.90499 0.1837 0.46806 0.0
Sc309 Sc 0.92437 0.20637 0.32763 0.0
Sc310 Sc 0.93061 0.18338 0.38969 0.0
O311 O 0.92007 0.19124 0.39546 0.0
C312 C 0.92451 0.18096 0.58139 0.0
C313 C 0.91454 0.21137 0.50247 0.0
C314 C 0.95028 0.21221 0.38414 0.0
C315 C 0.89595 0.19218 0.30662 0.0
C316 C 0.90369 0.16041 0.38878 0.0
C317 C 0.93052 0.19022 0.20064 0.0
O318 O 0.91352 0.17837 0.56555 0.0
O319 O 0.91833 0.21422 0.42656 0.0
O320 O 0.94724 0.20091 0.37931 0.0
O321 O 0.8944 0.18806 0.38163 0.0
O322 O 0.91521 0.16472 0.39738 0.0
O323 O 0.93071 0.20018 0.22049 0.0
O324 O 0.89843 0.16664 0.40323 0.0
O325 O 0.90643 0.19767 0.27109 0.0
O326 O 0.92891 0.18202 0.25453 0.0
O327 O 0.91099 0.20075 0.53338 0.0
O328 O 0.93283 0.18462 0.52499 0.0
O329 O 0.94259 0.21596 0.37978 0.0
Sc330 Sc 0.0479 0.47305 0.18913 0.0
Sc331 Sc 0.04611 0.45095 0.32904 0.0
Sc332 Sc 0.07472 0.47516 0.2671 0.0
O333 O 0.05625 0.46631 0.2614 0.0
C334 C 0.07076 0.4775 0.07531 0.0
C335 C 0.03098 0.44518 0.15491 0.0
C336 C 0.06719 0.44672 0.27047 0.0
C337 C 0.03046 0.46362 0.35099 0.0
C338 C 0.06898 0.49699 0.26943 0.0
C339 C 0.06809 0.46781 0.45618 0.0
O340 O 0.06178 0.47921 0.09135 0.0
O341 O 0.03221 0.44253 0.23073 0.0
O342 O 0.07496 0.45817 0.27526 0.0
O343 O 0.03278 0.46774 0.27592 0.0
O344 O 0.07674 0.49334 0.2615 0.0
O345 O 0.05865 0.45761 0.43589 0.0
O346 O 0.05757 0.49021 0.25399 0.0
O347 O 0.03606 0.45873 0.38645 0.0
O348 O 0.07434 0.47624 0.40269 0.0
O349 O 0.03764 0.45587 0.12359 0.0
O350 O 0.07588 0.47431 0.13143 0.0
O351 O 0.05563 0.44232 0.27594 0.0
Sc352 Sc 0.51848 0.57651 0.18336 0.0
Sc353 Sc 0.54137 0.59688 0.321 0.0
Sc354 Sc 0.51818 0.60276 0.25242 0.0
O355 O 0.52603 0.59209 0.25222 0.0
C356 C 0.51494 0.59484 0.06174 0.0
C357 C 0.54633 0.58609 0.15057 0.0
C358 C 0.54701 0.62209 0.24269 0.0
C359 C 0.52728 0.56851 0.34939 0.0
C360 C 0.49519 0.57572 0.26308 0.0
C361 C 0.52575 0.60417 0.44391 0.0
O362 O 0.51341 0.58429 0.07968 0.0
O363 O 0.54929 0.59056 0.22477 0.0
O364 O 0.53576 0.61925 0.24449 0.0
O365 O 0.52268 0.56646 0.27561 0.0
O366 O 0.49964 0.5873 0.25909 0.0
O367 O 0.5353 0.60347 0.4266 0.0
O368 O 0.50116 0.57032 0.24444 0.0
O369 O 0.53301 0.57922 0.38158 0.0
O370 O 0.51798 0.60313 0.38828 0.0
O371 O 0.53558 0.58199 0.12017 0.0
O372 O 0.51788 0.60325 0.1165 0.0
O373 O 0.5508 0.61481 0.26439 0.0
Sc374 Sc 0.416 0.94127 0.19001 0.0
Sc375 Sc 0.39625 0.94414 0.32942 0.0
Sc376 Sc 0.39072 0.91503 0.26916 0.0
O377 O 0.40091 0.93348 0.26257 0.0
C378 C 0.397 0.91861 0.07729 0.0
C379 C 0.40583 0.95883 0.15379 0.0
C380 C 0.37054 0.92353 0.27275 0.0
C381 C 0.42468 0.9591 0.35005 0.0
C382 C 0.41793 0.9198 0.27244 0.0
C383 C 0.39049 0.9221 0.45803 0.0
O384 O 0.40785 0.92728 0.09317 0.0
O385 O 0.40196 0.95783 0.22952 0.0
O386 O 0.37384 0.91546 0.27739 0.0
O387 O 0.42629 0.95641 0.27555 0.0
O388 O 0.40647 0.91229 0.26398 0.0
O389 O 0.39021 0.93179 0.43744 0.0
O390 O 0.42291 0.93122 0.25631 0.0
O391 O 0.4142 0.95393 0.38572 0.0
O392 O 0.39221 0.91551 0.40473 0.0
O393 O 0.40962 0.95192 0.12342 0.0
O394 O 0.38866 0.91381 0.1335 0.0
O395 O 0.37801 0.93502 0.27766 0.0
Sc396 Sc 0.51476 0.91354 0.26114 0.0
Sc397 Sc 0.53977 0.94152 0.32699 0.0
Sc398 Sc 0.51788 0.94121 0.19069 0.0
O399 O 0.52416 0.93208 0.25946 0.0
C400 C 0.51246 0.91861 0.07012 0.0
C401 C 0.54287 0.92039 0.24984 0.0
C402 C 0.54589 0.95773 0.15793 0.0
C403 C 0.52271 0.91928 0.45091 0.0
C404 C 0.49352 0.92019 0.26971 0.0
C405 C 0.52786 0.95772 0.3576 0.0
O406 O 0.51484 0.91272 0.1252 0.0
O407 O 0.54764 0.93179 0.26623 0.0
O408 O 0.53516 0.95152 0.12647 0.0
O409 O 0.51425 0.91335 0.39708 0.0
O410 O 0.50049 0.93154 0.2531 0.0
O411 O 0.53266 0.95182 0.38986 0.0
O412 O 0.49691 0.91222 0.26326 0.0
O413 O 0.53305 0.92858 0.4314 0.0
O414 O 0.52346 0.95572 0.28316 0.0
O415 O 0.53144 0.91269 0.25822 0.0
O416 O 0.51164 0.92807 0.08788 0.0
O417 O 0.54849 0.95594 0.23251 0.0
Sc418 Sc 0.07715 0.60117 0.2687 0.0
Sc419 Sc 0.04885 0.59722 0.33702 0.0
Sc420 Sc 0.04975 0.57607 0.19976 0.0
O421 O 0.0586 0.59154 0.26831 0.0
C422 C 0.07208 0.59355 0.07828 0.0
C423 C 0.06942 0.62183 0.25934 0.0
C424 C 0.03272 0.58697 0.16753 0.0
C425 C 0.07143 0.60303 0.45952 0.0
C426 C 0.0712 0.57351 0.27903 0.0
C427 C 0.03325 0.56904 0.3667 0.0
O428 O 0.07781 0.60196 0.13276 0.0
O429 O 0.05812 0.61493 0.27751 0.0
O430 O 0.03911 0.58267 0.13583 0.0
O431 O 0.07759 0.60103 0.40446 0.0
O432 O 0.05982 0.56885 0.26266 0.0
O433 O 0.03897 0.57973 0.39924 0.0
O434 O 0.079 0.58491 0.27141 0.0
O435 O 0.06179 0.60354 0.4414 0.0
O436 O 0.03526 0.56679 0.29192 0.0
O437 O 0.0774 0.61842 0.26524 0.0
O438 O 0.06283 0.58316 0.09675 0.0
O439 O 0.0344 0.59129 0.24233 0.0
Sc440 Sc 0.39325 0.47818 0.26995 0.0
Sc441 Sc 0.39619 0.45322 0.33712 0.0
Sc442 Sc 0.4178 0.47495 0.20015 0.0
O443 O 0.40238 0.46876 0.26882 0.0
C444 C 0.40066 0.48035 0.07888 0.0
C445 C 0.37197 0.45002 0.2594 0.0
C446 C 0.40627 0.44689 0.16897 0.0
C447 C 0.39093 0.47031 0.45995 0.0
C448 C 0.4212 0.49941 0.27829 0.0
C449 C 0.42431 0.46532 0.36855 0.0
O450 O 0.39243 0.47811 0.13399 0.0
O451 O 0.37862 0.44529 0.27634 0.0
O452 O 0.41082 0.45759 0.137 0.0
O453 O 0.3935 0.47875 0.40589 0.0
O454 O 0.42555 0.49243 0.26132 0.0
O455 O 0.41357 0.46047 0.40023 0.0
O456 O 0.40983 0.49602 0.27242 0.0
O457 O 0.38991 0.45997 0.44082 0.0
O458 O 0.42675 0.46955 0.29367 0.0
O459 O 0.37571 0.46147 0.26668 0.0
O460 O 0.41088 0.48104 0.0966 0.0
O461 O 0.4019 0.44439 0.2436 0.0
Sc462 Sc 0.24496 0.1819 0.41491 0.0
Sc463 Sc 0.27336 0.20635 0.34958 0.0
Sc464 Sc 0.27226 0.18424 0.48766 0.0
O465 O 0.26352 0.19085 0.4176 0.0
C466 C 0.24974 0.17956 0.60685 0.0
C467 C 0.25263 0.21029 0.42448 0.0
C468 C 0.28945 0.21223 0.51909 0.0
C469 C 0.25098 0.18979 0.22522 0.0
C470 C 0.25081 0.16009 0.40812 0.0
C471 C 0.28891 0.19365 0.32104 0.0
O472 O 0.24398 0.18192 0.55068 0.0
O473 O 0.264 0.21474 0.40831 0.0
O474 O 0.28305 0.20155 0.55092 0.0
O475 O 0.2448 0.1814 0.27893 0.0
O476 O 0.26215 0.16678 0.42635 0.0
O477 O 0.28332 0.19875 0.28823 0.0
O478 O 0.24309 0.16382 0.41263 0.0
O479 O 0.26054 0.19991 0.24473 0.0
O480 O 0.28672 0.18926 0.39551 0.0
O481 O 0.24471 0.19889 0.41773 0.0
O482 O 0.25915 0.17859 0.59034 0.0
O483 O 0.28772 0.21485 0.44445 0.0
Sc484 Sc 0.80787 0.05692 0.39011 0.0
Sc485 Sc 0.78446 0.06254 0.32455 0.0
Sc486 Sc 0.80739 0.08296 0.46063 0.0
O487 O 0.79988 0.06743 0.3919 0.0
C488 C 0.81094 0.06452 0.58108 0.0
C489 C 0.7791 0.03743 0.40131 0.0
C490 C 0.77969 0.07351 0.49476 0.0
C491 C 0.80006 0.05544 0.20011 0.0
C492 C 0.83071 0.08401 0.38021 0.0
C493 C 0.79846 0.09081 0.2946 0.0
O494 O 0.80787 0.05611 0.52606 0.0
O495 O 0.77526 0.04482 0.38391 0.0
O496 O 0.79038 0.07737 0.52535 0.0
O497 O 0.80824 0.05706 0.25414 0.0
O498 O 0.82456 0.08927 0.39751 0.0
O499 O 0.79281 0.08009 0.26241 0.0
O500 O 0.82643 0.07247 0.3865 0.0
O501 O 0.79027 0.05557 0.21938 0.0
O502 O 0.80295 0.09288 0.36876 0.0
O503 O 0.79033 0.04024 0.3946 0.0
O504 O 0.81269 0.07517 0.56328 0.0
O505 O 0.77672 0.06915 0.42026 0.0
Sc506 Sc 0.93077 0.74801 0.4064 0.0
Sc507 Sc 0.92659 0.71958 0.33886 0.0
Sc508 Sc 0.90574 0.72074 0.47807 0.0
O509 O 0.92107 0.72946 0.4079 0.0
C510 C 0.92361 0.74315 0.59768 0.0
C511 C 0.95135 0.74016 0.4145 0.0
C512 C 0.91658 0.70358 0.50883 0.0
C513 C 0.93239 0.74211 0.21599 0.0
C514 C 0.90312 0.74224 0.39967 0.0
C515 C 0.89832 0.70411 0.31135 0.0
O516 O 0.93182 0.74884 0.54198 0.0
O517 O 0.94439 0.72884 0.39693 0.0
O518 O 0.91233 0.71 0.54085 0.0
O519 O 0.93039 0.74831 0.27074 0.0
O520 O 0.89844 0.73088 0.41694 0.0
O521 O 0.90897 0.70969 0.27809 0.0
O522 O 0.91457 0.74997 0.40492 0.0
O523 O 0.93286 0.73246 0.23423 0.0
O524 O 0.89621 0.70627 0.38614 0.0
O525 O 0.94797 0.74816 0.40885 0.0
O526 O 0.91317 0.73385 0.58079 0.0
O527 O 0.92078 0.70521 0.43378 0.0
Sc528 Sc 0.47303 0.05338 0.79837 0.0
Sc529 Sc 0.45082 0.05164 0.65904 0.0
Sc530 Sc 0.47444 0.08038 0.7285 0.0
O531 O 0.46606 0.06183 0.72883 0.0
C532 C 0.47721 0.07554 0.91928 0.0
C533 C 0.44516 0.03567 0.82905 0.0
C534 C 0.44572 0.07156 0.73644 0.0
C535 C 0.46435 0.03691 0.6312 0.0
C536 C 0.49678 0.0753 0.71903 0.0
C537 C 0.467 0.0745 0.53717 0.0
O538 O 0.47851 0.06637 0.90145 0.0
O539 O 0.44252 0.03718 0.75385 0.0
O540 O 0.45704 0.07985 0.73321 0.0
O541 O 0.46845 0.03899 0.70638 0.0
O542 O 0.49281 0.08284 0.72477 0.0
O543 O 0.45716 0.06452 0.55459 0.0
O544 O 0.49035 0.06393 0.73686 0.0
O545 O 0.45909 0.0423 0.59813 0.0
O546 O 0.47497 0.08094 0.59269 0.0
O547 O 0.45578 0.04229 0.86116 0.0
O548 O 0.47441 0.08112 0.86441 0.0
O549 O 0.44175 0.06038 0.7166 0.0
Sc550 Sc 0.93592 0.41605 0.80156 0.0
Sc551 Sc 0.93783 0.39542 0.66445 0.0
Sc552 Sc 0.90903 0.39045 0.73044 0.0
O553 O 0.92757 0.40059 0.73232 0.0
C554 C 0.91369 0.39798 0.92173 0.0
C555 C 0.95375 0.40609 0.83423 0.0
C556 C 0.91781 0.3706 0.74279 0.0
C557 C 0.95248 0.42365 0.63462 0.0
C558 C 0.91406 0.41781 0.72043 0.0
C559 C 0.91517 0.38867 0.54046 0.0
O560 O 0.92286 0.40849 0.90439 0.0
O561 O 0.95228 0.40184 0.75936 0.0
O562 O 0.90952 0.37358 0.73589 0.0
O563 O 0.95029 0.42575 0.70935 0.0
O564 O 0.90652 0.40632 0.72593 0.0
O565 O 0.92498 0.38857 0.55968 0.0
O566 O 0.9254 0.42278 0.73909 0.0
O567 O 0.94718 0.41294 0.60217 0.0
O568 O 0.90877 0.39051 0.59448 0.0
O569 O 0.94704 0.41003 0.86563 0.0
O570 O 0.90812 0.38967 0.86639 0.0
O571 O 0.92906 0.37777 0.72448 0.0
Sc572 Sc 0.57374 0.51926 0.79284 0.0
Sc573 Sc 0.59456 0.5417 0.65623 0.0
Sc574 Sc 0.59899 0.5175 0.72082 0.0
O575 O 0.58913 0.52618 0.72334 0.0
C576 C 0.59164 0.51472 0.91186 0.0
C577 C 0.58437 0.5471 0.82771 0.0
C578 C 0.61938 0.54597 0.73122 0.0
C579 C 0.56634 0.52889 0.62821 0.0
C580 C 0.57144 0.49548 0.71192 0.0
C581 C 0.6006 0.52535 0.53105 0.0
O582 O 0.58109 0.51327 0.89424 0.0
O583 O 0.58856 0.5499 0.75272 0.0
O584 O 0.61613 0.53464 0.72347 0.0
O585 O 0.56423 0.52446 0.70254 0.0
O586 O 0.58289 0.49926 0.71895 0.0
O587 O 0.601 0.5354 0.55063 0.0
O588 O 0.56664 0.50207 0.72864 0.0
O589 O 0.57698 0.534 0.59486 0.0
O590 O 0.59861 0.51703 0.58489 0.0
O591 O 0.5802 0.53637 0.85835 0.0
O592 O 0.60001 0.51763 0.85674 0.0
O593 O 0.61231 0.55023 0.71516 0.0
Sc594 Sc 0.72203 0.81101 0.55247 0.0
Sc595 Sc 0.71968 0.78835 0.69016 0.0
Sc596 Sc 0.74866 0.81187 0.6245 0.0
O597 O 0.73014 0.80373 0.62236 0.0
C598 C 0.7442 0.8148 0.43323 0.0
C599 C 0.70403 0.78325 0.51929 0.0
C600 C 0.73959 0.78314 0.61422 0.0
C601 C 0.70509 0.80203 0.71783 0.0
C602 C 0.74408 0.83453 0.63247 0.0
C603 C 0.74235 0.80414 0.81456 0.0
O604 O 0.73521 0.81643 0.4505 0.0
O605 O 0.70537 0.78043 0.59432 0.0
O606 O 0.74797 0.79438 0.62089 0.0
O607 O 0.70753 0.80643 0.64342 0.0
O608 O 0.75145 0.83037 0.62716 0.0
O609 O 0.73243 0.79432 0.79543 0.0
O610 O 0.73268 0.82826 0.61504 0.0
O611 O 0.71031 0.79661 0.75127 0.0
O612 O 0.74888 0.81232 0.76046 0.0
O613 O 0.71085 0.7939 0.48812 0.0
O614 O 0.74956 0.8118 0.48858 0.0
O615 O 0.72834 0.77926 0.63149 0.0
Sc616 Sc 0.18318 0.90833 0.53834 0.0
Sc617 Sc 0.20519 0.92908 0.67756 0.0
Sc618 Sc 0.18107 0.93339 0.61047 0.0
O619 O 0.18983 0.92363 0.60867 0.0
C620 C 0.17888 0.9264 0.41917 0.0
C621 C 0.2111 0.91892 0.50801 0.0
C622 C 0.20949 0.95387 0.60258 0.0
C623 C 0.19232 0.90085 0.70512 0.0
C624 C 0.15906 0.9058 0.61539 0.0
C625 C 0.18848 0.93488 0.80048 0.0
O626 O 0.17753 0.91587 0.43608 0.0
O627 O 0.21365 0.92306 0.58322 0.0
O628 O 0.19816 0.95059 0.61072 0.0
O629 O 0.18811 0.89878 0.63012 0.0
O630 O 0.16286 0.91726 0.60951 0.0
O631 O 0.19868 0.93555 0.78177 0.0
O632 O 0.16574 0.90107 0.59953 0.0
O633 O 0.19732 0.91148 0.73877 0.0
O634 O 0.18019 0.93272 0.74601 0.0
O635 O 0.2005 0.91488 0.47545 0.0
O636 O 0.18155 0.93465 0.47489 0.0
O637 O 0.21378 0.9468 0.61821 0.0
Sc638 Sc 0.08193 0.27401 0.52032 0.0
Sc639 Sc 0.06047 0.27429 0.658 0.0
Sc640 Sc 0.05732 0.24628 0.59045 0.0
O641 O 0.06653 0.26484 0.58938 0.0
C642 C 0.06473 0.25145 0.3993 0.0
C643 C 0.07056 0.29068 0.48968 0.0
C644 C 0.03616 0.25333 0.5801 0.0
C645 C 0.08862 0.29034 0.6882 0.0
C646 C 0.08522 0.25288 0.59879 0.0
C647 C 0.05507 0.25188 0.78071 0.0
O648 O 0.07495 0.26101 0.41684 0.0
O649 O 0.06617 0.28878 0.56427 0.0
O650 O 0.03985 0.24557 0.58651 0.0
O651 O 0.09097 0.28839 0.61348 0.0
O652 O 0.07383 0.24492 0.59341 0.0
O653 O 0.05423 0.26131 0.76192 0.0
O654 O 0.08961 0.2642 0.58136 0.0
O655 O 0.07792 0.28447 0.72053 0.0
O656 O 0.05749 0.24593 0.72642 0.0
O657 O 0.07504 0.28449 0.4574 0.0
O658 O 0.05652 0.24549 0.45451 0.0
O659 O 0.04282 0.26468 0.59793 0.0
Sc660 Sc 0.18262 0.24702 0.60852 0.0
Sc661 Sc 0.20643 0.2759 0.67028 0.0
Sc662 Sc 0.1842 0.27358 0.52968 0.0
O663 O 0.19117 0.26549 0.6024 0.0
C664 C 0.18022 0.25082 0.41653 0.0
C665 C 0.21123 0.25516 0.613 0.0
C666 C 0.212 0.29095 0.49591 0.0
C667 C 0.18985 0.25381 0.79753 0.0
C668 C 0.16046 0.25224 0.61026 0.0
C669 C 0.19319 0.29103 0.6914 0.0
O670 O 0.18355 0.24585 0.47288 0.0
O671 O 0.2154 0.26668 0.61776 0.0
O672 O 0.20136 0.28412 0.46434 0.0
O673 O 0.18148 0.24743 0.74404 0.0
O674 O 0.16708 0.26365 0.59455 0.0
O675 O 0.19828 0.28564 0.72714 0.0
O676 O 0.16427 0.2446 0.60243 0.0
O677 O 0.19995 0.26338 0.77724 0.0
O678 O 0.18915 0.28865 0.61615 0.0
O679 O 0.19983 0.2472 0.61758 0.0
O680 O 0.17831 0.25968 0.43223 0.0
O681 O 0.21467 0.28981 0.57187 0.0
Sc682 Sc 0.74256 0.93349 0.60468 0.0
Sc683 Sc 0.71332 0.92699 0.66823 0.0
Sc684 Sc 0.71663 0.90773 0.52681 0.0
O685 O 0.72416 0.92281 0.59946 0.0
C686 C 0.73877 0.92736 0.41291 0.0
C687 C 0.73311 0.95293 0.61084 0.0
C688 C 0.69816 0.9169 0.49478 0.0
C689 C 0.7358 0.93342 0.79394 0.0
C690 C 0.73883 0.90663 0.60484 0.0
C691 C 0.69938 0.89859 0.68964 0.0
O692 O 0.74346 0.93568 0.46937 0.0
O693 O 0.72169 0.94514 0.61535 0.0
O694 O 0.70532 0.91355 0.46265 0.0
O695 O 0.74235 0.9318 0.73982 0.0
O696 O 0.72733 0.90131 0.59041 0.0
O697 O 0.70438 0.90908 0.72521 0.0
O698 O 0.74596 0.91818 0.59671 0.0
O699 O 0.72599 0.93356 0.77446 0.0
O700 O 0.70182 0.89706 0.61423 0.0
O701 O 0.74148 0.95003 0.61549 0.0
O702 O 0.73034 0.91638 0.42863 0.0
O703 O 0.69922 0.92069 0.57074 0.0
Sc704 Sc 0.05674 0.808 0.60413 0.0
Sc705 Sc 0.06288 0.78497 0.66697 0.0
Sc706 Sc 0.0823 0.8075 0.5259 0.0
O707 O 0.06723 0.80006 0.59853 0.0
C708 C 0.06285 0.81034 0.41229 0.0
C709 C 0.03703 0.77917 0.60978 0.0
C710 C 0.07284 0.77982 0.49315 0.0
C711 C 0.05673 0.80116 0.79326 0.0
C712 C 0.08368 0.83086 0.60507 0.0
C713 C 0.0913 0.79919 0.68836 0.0
O714 O 0.05455 0.8068 0.4688 0.0
O715 O 0.04469 0.77538 0.61434 0.0
O716 O 0.07631 0.79038 0.46134 0.0
O717 O 0.05842 0.80938 0.73928 0.0
O718 O 0.08889 0.8246 0.5901 0.0
O719 O 0.08081 0.79374 0.72384 0.0
O720 O 0.07218 0.82664 0.59683 0.0
O721 O 0.05647 0.79117 0.77358 0.0
O722 O 0.09286 0.80319 0.61304 0.0
O723 O 0.0401 0.79048 0.61438 0.0
O724 O 0.07379 0.81275 0.42793 0.0
O725 O 0.06902 0.77707 0.56903 0.0
Sc726 Sc 0.91091 0.51608 0.75111 0.0
Sc727 Sc 0.93912 0.54083 0.68512 0.0
Sc728 Sc 0.93838 0.5188 0.82281 0.0
O729 O 0.92947 0.52527 0.75311 0.0
C730 C 0.91582 0.51382 0.94232 0.0
C731 C 0.91803 0.54429 0.7597 0.0
C732 C 0.95505 0.54689 0.8556 0.0
C733 C 0.91687 0.52377 0.56095 0.0
C734 C 0.91717 0.49455 0.74354 0.0
C735 C 0.95521 0.52865 0.65715 0.0
O736 O 0.91004 0.51623 0.88671 0.0
O737 O 0.9294 0.54893 0.74283 0.0
O738 O 0.9489 0.53612 0.88649 0.0
O739 O 0.91073 0.5155 0.61546 0.0
O740 O 0.92851 0.50138 0.76084 0.0
O741 O 0.94955 0.53368 0.62451 0.0
O742 O 0.90933 0.49812 0.74933 0.0
O743 O 0.92638 0.534 0.5796 0.0
O744 O 0.95291 0.52408 0.73109 0.0
O745 O 0.91027 0.53285 0.75359 0.0
O746 O 0.92521 0.51284 0.92532 0.0
O747 O 0.95329 0.54955 0.78112 0.0
Sc748 Sc 0.47389 0.39301 0.74589 0.0
Sc749 Sc 0.44954 0.39722 0.68385 0.0
Sc750 Sc 0.47163 0.41768 0.82352 0.0
O751 O 0.46495 0.40256 0.75144 0.0
C752 C 0.47624 0.3994 0.93778 0.0
C753 C 0.44548 0.37198 0.74343 0.0
C754 C 0.44373 0.40665 0.85752 0.0
C755 C 0.46645 0.39217 0.55673 0.0
C756 C 0.49562 0.42064 0.74256 0.0
C757 C 0.46211 0.42557 0.66137 0.0
O758 O 0.47319 0.39112 0.88162 0.0
O759 O 0.44103 0.37909 0.73707 0.0
O760 O 0.45443 0.41078 0.88883 0.0
O761 O 0.47486 0.39434 0.61027 0.0
O762 O 0.48881 0.4252 0.75893 0.0
O763 O 0.45713 0.41504 0.62635 0.0
O764 O 0.49205 0.40924 0.7502 0.0
O765 O 0.45625 0.39142 0.57691 0.0
O766 O 0.46637 0.42743 0.73608 0.0
O767 O 0.45695 0.37572 0.7389 0.0
O768 O 0.47778 0.41003 0.92182 0.0
O769 O 0.44107 0.40264 0.78199 0.0
Sc770 Sc 0.59912 0.08007 0.74568 0.0
Sc771 Sc 0.59539 0.05178 0.67929 0.0
Sc772 Sc 0.57407 0.05268 0.81534 0.0
O773 O 0.58958 0.06152 0.74699 0.0
C774 C 0.59152 0.0751 0.93638 0.0
C775 C 0.61993 0.07253 0.75626 0.0
C776 C 0.58506 0.03572 0.849 0.0
C777 C 0.60115 0.0742 0.55547 0.0
C778 C 0.57145 0.07406 0.7348 0.0
C779 C 0.5672 0.03603 0.64908 0.0
O780 O 0.59987 0.08084 0.8816 0.0
O781 O 0.6131 0.0612 0.73862 0.0
O782 O 0.58063 0.04205 0.88001 0.0
O783 O 0.599 0.08037 0.60967 0.0
O784 O 0.5668 0.06269 0.75178 0.0
O785 O 0.57792 0.04174 0.61688 0.0
O786 O 0.58285 0.08186 0.74211 0.0
O787 O 0.60173 0.06463 0.5745 0.0
O788 O 0.56487 0.03815 0.72335 0.0
O789 O 0.61641 0.08042 0.75019 0.0
O790 O 0.58113 0.0658 0.91824 0.0
O791 O 0.5895 0.03744 0.77458 0.0
H792 H 0.09067 0.34712 0.11273 0.0
H793 H 0.07268 0.31183 0.55469 0.0
H794 H 0.10726 0.36457 0.34954 0.0
H795 H 0.07228 0.29441 0.31875 0.0
H796 H 0.07914 0.33114 0.47878 0.0
H797 H 0.07773 0.32781 0.1883 0.0
C798 C 0.09137 0.34698 0.18083 0.0
C799 C 0.10015 0.35743 0.22496 0.0
C800 C 0.0774 0.32301 0.44366 0.0
C801 C 0.08536 0.33543 0.31123 0.0
C802 C 0.07364 0.31198 0.48668 0.0
C803 C 0.07208 0.30155 0.44294 0.0
C804 C 0.07938 0.32353 0.35628 0.0
C805 C 0.07353 0.30229 0.35493 0.0
C806 C 0.08404 0.33595 0.22367 0.0
C807 C 0.10071 0.35669 0.31309 0.0
N808 N 0.07718 0.31313 0.31445 0.0
N809 N 0.09347 0.34584 0.35338 0.0
H810 H 0.70142 0.78168 0.34762 0.0
H811 H 0.62955 0.74584 0.36569 0.0
H812 H 0.68203 0.76477 0.57848 0.0
H813 H 0.64905 0.74756 0.13691 0.0
H814 H 0.64853 0.75245 0.4459 0.0
H815 H 0.6824 0.76907 0.26851 0.0
C816 C 0.6932 0.77517 0.38146 0.0
C817 C 0.69327 0.77432 0.46972 0.0
C818 C 0.64858 0.75115 0.37834 0.0
C819 C 0.67147 0.76007 0.37998 0.0
C820 C 0.63777 0.74742 0.33255 0.0
C821 C 0.63775 0.74626 0.24445 0.0
C822 C 0.65949 0.754 0.33545 0.0
C823 C 0.64865 0.74835 0.20474 0.0
C824 C 0.68237 0.76795 0.33632 0.0
C825 C 0.68238 0.7657 0.51045 0.0
N826 N 0.65915 0.75236 0.25033 0.0
N827 N 0.67184 0.75907 0.46539 0.0
H828 H 0.22974 0.91598 0.57134 0.0
H829 H 0.24669 0.89881 0.12487 0.0
H830 H 0.21308 0.91756 0.33672 0.0
H831 H 0.24748 0.8816 0.35895 0.0
H832 H 0.24039 0.91162 0.203 0.0
H833 H 0.24227 0.90933 0.49338 0.0
C834 C 0.22893 0.91522 0.50324 0.0
C835 C 0.22026 0.91719 0.46042 0.0
C836 C 0.24217 0.90519 0.2372 0.0
C837 C 0.23457 0.90966 0.37139 0.0
C838 C 0.24583 0.89793 0.1929 0.0
C839 C 0.24748 0.88904 0.2355 0.0
C840 C 0.24036 0.90367 0.32472 0.0
C841 C 0.24616 0.88825 0.32362 0.0
C842 C 0.23602 0.91136 0.45903 0.0
C843 C 0.21955 0.916 0.37221 0.0
N844 N 0.24261 0.89542 0.36536 0.0
N845 N 0.22656 0.91224 0.33057 0.0
H846 H 0.36283 0.10975 0.65191 0.0
H847 H 0.29069 0.07432 0.65929 0.0
H848 H 0.34241 0.0928 0.87949 0.0
H849 H 0.31093 0.07699 0.43234 0.0
H850 H 0.30943 0.08074 0.74184 0.0
H851 H 0.34403 0.0976 0.56959 0.0
C852 C 0.35443 0.10334 0.68441 0.0
C853 C 0.35416 0.10235 0.77272 0.0
C854 C 0.30971 0.0797 0.67414 0.0
C855 C 0.3326 0.0886 0.67916 0.0
C856 C 0.29903 0.07608 0.627 0.0
C857 C 0.29928 0.07521 0.53878 0.0
C858 C 0.32077 0.08276 0.63258 0.0
C859 C 0.31033 0.07753 0.50022 0.0
C860 C 0.34372 0.09638 0.6374 0.0
C861 C 0.34303 0.09384 0.81154 0.0
N862 N 0.3207 0.08143 0.54721 0.0
N863 N 0.33264 0.08746 0.76465 0.0
H864 H 0.87817 0.24911 0.66717 0.0
H865 H 0.91383 0.21268 0.67461 0.0
H866 H 0.89557 0.24614 0.89405 0.0
H867 H 0.91083 0.22992 0.447 0.0
H868 H 0.9075 0.22509 0.75686 0.0
H869 H 0.89027 0.24243 0.58458 0.0
C870 C 0.88467 0.24723 0.69945 0.0
C871 C 0.88579 0.24808 0.78766 0.0
C872 C 0.90844 0.22632 0.68907 0.0
C873 C 0.89949 0.24025 0.6938 0.0
C874 C 0.91202 0.21922 0.64211 0.0
C875 C 0.91276 0.22021 0.55382 0.0
C876 C 0.90531 0.23425 0.64727 0.0
C877 C 0.91038 0.22887 0.51496 0.0
C878 C 0.8916 0.24346 0.65227 0.0
C879 C 0.8944 0.2456 0.82618 0.0
N880 N 0.90652 0.23539 0.5618 0.0
N881 N 0.90076 0.24157 0.77917 0.0
H882 H 0.74273 0.6475 0.8938 0.0
H883 H 0.75837 0.67943 0.43958 0.0
H884 H 0.74029 0.62808 0.66305 0.0
H885 H 0.77551 0.6989 0.66989 0.0
H886 H 0.74627 0.66059 0.52177 0.0
H887 H 0.74928 0.66632 0.81178 0.0
C888 C 0.74331 0.64712 0.82575 0.0
C889 C 0.74108 0.63623 0.7852 0.0
C890 C 0.75255 0.66905 0.55424 0.0
C891 C 0.74851 0.6577 0.69145 0.0
C892 C 0.7594 0.67982 0.50759 0.0
C893 C 0.76805 0.69073 0.54795 0.0
C894 C 0.75422 0.66924 0.64188 0.0
C895 C 0.76904 0.69066 0.63619 0.0
C896 C 0.74711 0.65788 0.77919 0.0
C897 C 0.74205 0.63631 0.69689 0.0
N898 N 0.76225 0.68006 0.68023 0.0
N899 N 0.74576 0.6469 0.65294 0.0
H900 H 0.88002 0.62901 0.65263 0.0
H901 H 0.91556 0.70062 0.68021 0.0
H902 H 0.89729 0.64783 0.88445 0.0
H903 H 0.9138 0.68199 0.44708 0.0
H904 H 0.90942 0.68148 0.75703 0.0
H905 H 0.89274 0.64815 0.57502 0.0
C906 C 0.88665 0.63711 0.68697 0.0
C907 C 0.88752 0.63687 0.77517 0.0
C908 C 0.91062 0.68165 0.68925 0.0
C909 C 0.9019 0.6588 0.68714 0.0
C910 C 0.91408 0.69255 0.64541 0.0
C911 C 0.91508 0.69285 0.55715 0.0
C912 C 0.90784 0.67091 0.64427 0.0
C913 C 0.91313 0.68215 0.51515 0.0
C914 C 0.89392 0.64802 0.64266 0.0
C915 C 0.89631 0.64761 0.81648 0.0
N916 N 0.90934 0.67153 0.55892 0.0
N917 N 0.90298 0.65822 0.77232 0.0
H918 H 0.34554 0.24818 0.89966 0.0
H919 H 0.31076 0.23125 0.4557 0.0
H920 H 0.36329 0.24927 0.66375 0.0
H921 H 0.29302 0.21395 0.69027 0.0
H922 H 0.32999 0.24393 0.53285 0.0
H923 H 0.32628 0.24172 0.8231 0.0
C924 C 0.34547 0.24737 0.83156 0.0
C925 C 0.35599 0.24914 0.78796 0.0
C926 C 0.32181 0.23751 0.5674 0.0
C927 C 0.33406 0.24184 0.70056 0.0
C928 C 0.31082 0.23033 0.52367 0.0
C929 C 0.30032 0.22144 0.56664 0.0
C930 C 0.32221 0.23594 0.65475 0.0
C931 C 0.30095 0.2206 0.65465 0.0
C932 C 0.33447 0.24361 0.78816 0.0
C933 C 0.35535 0.24787 0.6998 0.0
N934 N 0.31175 0.22771 0.69584 0.0
N935 N 0.34453 0.24422 0.65896 0.0
H936 H 0.74359 0.11192 0.64704 0.0
H937 H 0.77828 0.0748 0.66637 0.0
H938 H 0.74476 0.09393 0.87626 0.0
H939 H 0.76138 0.07731 0.43551 0.0
H940 H 0.76596 0.0816 0.74523 0.0
H941 H 0.74986 0.09924 0.56731 0.0
C942 C 0.74497 0.10516 0.68037 0.0
C943 C 0.74375 0.10404 0.76845 0.0
C944 C 0.76478 0.08044 0.67749 0.0
C945 C 0.75113 0.0897 0.678 0.0
C946 C 0.77183 0.0766 0.63249 0.0
C947 C 0.7709 0.07557 0.54429 0.0
C948 C 0.757 0.08357 0.63373 0.0
C949 C 0.76237 0.07796 0.50351 0.0
C950 C 0.74851 0.09791 0.63485 0.0
C951 C 0.7456 0.0951 0.80843 0.0
N952 N 0.75592 0.0821 0.5484 0.0
N953 N 0.74944 0.08844 0.7631 0.0
H954 H 0.64392 0.89726 0.10058 0.0
H955 H 0.67603 0.91303 0.55413 0.0
H956 H 0.62473 0.87948 0.33029 0.0
H957 H 0.69546 0.91577 0.32286 0.0
H958 H 0.65712 0.90624 0.47251 0.0
H959 H 0.66272 0.90957 0.18281 0.0
C960 C 0.64358 0.89613 0.16849 0.0
C961 C 0.63277 0.88724 0.20863 0.0
C962 C 0.66559 0.90853 0.43973 0.0
C963 C 0.6542 0.90131 0.30261 0.0
C964 C 0.67639 0.91247 0.48604 0.0
C965 C 0.68731 0.91485 0.44521 0.0
C966 C 0.66576 0.90715 0.35195 0.0
C967 C 0.68721 0.9139 0.35689 0.0
C968 C 0.65432 0.9031 0.21515 0.0
C969 C 0.6329 0.88613 0.29675 0.0
N970 N 0.67657 0.91006 0.31317 0.0
N971 N 0.64347 0.89304 0.34082 0.0
H972 H 0.09222 0.74528 0.09717 0.0
H973 H 0.07666 0.7615 0.55186 0.0
H974 H 0.10994 0.74357 0.32636 0.0
H975 H 0.07387 0.77827 0.3212 0.0
H976 H 0.0834 0.74939 0.46965 0.0
H977 H 0.08004 0.75185 0.18 0.0
C978 C 0.09337 0.74603 0.16508 0.0
C979 C 0.10221 0.74399 0.2049 0.0
C980 C 0.08112 0.75558 0.43713 0.0
C981 C 0.08827 0.75144 0.29958 0.0
C982 C 0.0772 0.76243 0.48379 0.0
C983 C 0.07482 0.77099 0.44328 0.0
C984 C 0.08246 0.75715 0.34936 0.0
C985 C 0.07574 0.77187 0.35497 0.0
C986 C 0.08647 0.74984 0.21209 0.0
C987 C 0.10333 0.74517 0.29305 0.0
N988 N 0.07955 0.76508 0.31093 0.0
N989 N 0.09648 0.74888 0.33747 0.0
H990 H 0.21338 0.29362 0.32397 0.0
H991 H 0.25042 0.36548 0.34541 0.0
H992 H 0.23096 0.31274 0.5543 0.0
H993 H 0.24762 0.3461 0.11389 0.0
H994 H 0.24375 0.34637 0.42394 0.0
H995 H 0.22613 0.31262 0.24492 0.0
C996 C 0.22006 0.30176 0.35771 0.0
C997 C 0.22104 0.30163 0.44589 0.0
C998 C 0.24483 0.34636 0.35612 0.0
C999 C 0.23547 0.32341 0.35616 0.0
C1000 C 0.24861 0.35725 0.31129 0.0
C1001 C 0.24949 0.35736 0.22298 0.0
C1002 C 0.24163 0.33544 0.31211 0.0
C1003 C 0.24707 0.34644 0.18195 0.0
C1004 C 0.22736 0.31258 0.31257 0.0
C1005 C 0.2299 0.31242 0.48637 0.0
N1006 N 0.24301 0.33585 0.2267 0.0
N1007 N 0.23661 0.32295 0.44138 0.0
H1008 H 0.95658 0.40724 0.00574 0.0
H1009 H 0.02833 0.44375 0.98302 0.0
H1010 H 0.97568 0.40954 0.77386 0.0
H1011 H 0.00928 0.42614 0.21343 0.0
H1012 H 0.00931 0.43102 0.90413 0.0
H1013 H 0.9757 0.41377 0.08376 0.0
C1014 C 0.96475 0.40893 0.97145 0.0
C1015 C 0.96457 0.40794 0.8832 0.0
C1016 C 0.00936 0.42977 0.97175 0.0
C1017 C 0.9865 0.41563 0.97172 0.0
C1018 C 0.0202 0.43705 0.01678 0.0
C1019 C 0.02035 0.43607 0.10495 0.0
C1020 C -0.00145 0.42168 0.01546 0.0
C1021 C 0.00957 0.4272 0.14551 0.0
C1022 C 0.97565 0.41262 0.01598 0.0
C1023 C 0.97541 0.41018 0.8419 0.0
N1024 N -0.00097 0.42052 0.10064 0.0
N1025 N 0.98602 0.41417 0.88634 0.0
H1026 H 0.54768 0.58473 0.979 0.0
H1027 H 0.58314 0.54849 0.99947 0.0
H1028 H 0.56498 0.58284 0.20963 0.0
H1029 H 0.58156 0.56606 0.76927 0.0
H1030 H 0.57686 0.5612 0.07867 0.0
H1031 H 0.56023 0.57822 0.90013 0.0
C1032 C 0.55427 0.58314 0.01281 0.0
C1033 C 0.55524 0.58423 0.10097 0.0
C1034 C 0.57813 0.56244 0.01103 0.0
C1035 C 0.56942 0.57657 0.01153 0.0
C1036 C 0.58167 0.55517 0.96582 0.0
C1037 C 0.58277 0.55616 0.87765 0.0
C1038 C 0.57538 0.57052 0.96748 0.0
C1039 C 0.58082 0.565 0.8372 0.0
C1040 C 0.56145 0.57947 0.9678 0.0
C1041 C 0.56395 0.58211 0.14167 0.0
N1042 N 0.57697 0.57168 0.88225 0.0
N1043 N 0.57054 0.57813 0.0968 0.0
H1044 H 0.4431 0.03305 1.00052 0.0
H1045 H 0.40735 0.96126 0.9817 0.0
H1046 H 0.4267 0.01375 0.76843 0.0
H1047 H 0.40862 0.9807 0.20978 0.0
H1048 H 0.41394 0.98021 0.90123 0.0
H1049 H 0.43022 0.01404 0.07899 0.0
C1050 C 0.43664 0.02485 0.96625 0.0
C1051 C 0.43603 0.02493 0.87787 0.0
C1052 C 0.41254 0.98025 0.96866 0.0
C1053 C 0.42146 0.00314 0.96692 0.0
C1054 C 0.40881 0.96946 0.01461 0.0
C1055 C 0.40755 0.96944 0.10264 0.0
C1056 C 0.41529 0.99115 0.01133 0.0
C1057 C 0.4095 0.9803 0.14203 0.0
C1058 C 0.42927 0.01402 0.01103 0.0
C1059 C 0.42746 0.01408 0.83657 0.0
N1060 N 0.41352 0.9908 0.09632 0.0
N1061 N 0.42068 0.00354 0.88133 0.0
H1062 H 0.54779 0.96099 0.98672 0.0
H1063 H 0.58335 0.03244 0.02027 0.0
H1064 H 0.56479 0.97916 0.22078 0.0
H1065 H 0.58265 0.0143 0.7871 0.0
H1066 H 0.57693 0.01315 0.09601 0.0
H1067 H 0.56074 0.98029 0.91134 0.0
C1068 C 0.55441 0.96899 0.02199 0.0
C1069 C 0.55516 0.96851 0.11012 0.0
C1070 C 0.57843 0.01346 0.02851 0.0
C1071 C 0.56977 0.99063 0.02473 0.0
C1072 C 0.58205 0.02445 0.98528 0.0
C1073 C 0.58344 0.02493 0.89726 0.0
C1074 C 0.57588 0.00283 0.98307 0.0
C1075 C 0.58169 0.01433 0.855 0.0
C1076 C 0.56181 0.97998 0.97897 0.0
C1077 C 0.56392 0.97913 0.15277 0.0
N1078 N 0.57774 0.00362 0.89807 0.0
N1079 N 0.57071 0.98984 0.10987 0.0
H1080 H 0.02961 0.58581 0.99626 0.0
H1081 H 0.95817 0.54847 0.027 0.0
H1082 H 0.01103 0.58384 0.22998 0.0
H1083 H 0.9763 0.56628 0.79465 0.0
H1084 H 0.97729 0.56166 0.10362 0.0
H1085 H 0.0103 0.57915 0.92021 0.0
C1086 C 0.02152 0.5842 0.03132 0.0
C1087 C 0.02188 0.58529 0.11954 0.0
C1088 C 0.977 0.56285 0.03611 0.0
C1089 C -0.00024 0.57743 0.03335 0.0
C1090 C 0.96611 0.55531 0.99237 0.0
C1091 C 0.96568 0.55622 0.90432 0.0
C1092 C 0.9876 0.57113 0.99116 0.0
C1093 C 0.97623 0.56527 0.86256 0.0
C1094 C 0.01052 0.58043 0.98793 0.0
C1095 C 0.01115 0.58312 0.16192 0.0
N1096 N 0.98685 0.5722 0.90612 0.0
N1097 N 0.00044 0.57903 0.11862 0.0
H1098 H 0.4423 0.40825 0.02917 0.0
H1099 H 0.40735 0.44477 0.99781 0.0
H1100 H 0.42473 0.40922 0.7973 0.0
H1101 H 0.40868 0.42794 0.23225 0.0
H1102 H 0.41328 0.43149 0.92232 0.0
H1103 H 0.42974 0.41495 0.10602 0.0
C1104 C 0.43564 0.40965 0.9947 0.0
C1105 C 0.43463 0.40829 0.90667 0.0
C1106 C 0.41202 0.43053 0.99009 0.0
C1107 C 0.42045 0.41617 0.99376 0.0
C1108 C 0.40868 0.43813 0.03317 0.0
C1109 C 0.40762 0.43751 0.12139 0.0
C1110 C 0.41463 0.42251 0.03583 0.0
C1111 C 0.4094 0.42871 0.16416 0.0
C1112 C 0.42845 0.41344 0.03857 0.0
C1113 C 0.42581 0.41017 0.86515 0.0
N1114 N 0.41308 0.42173 0.12114 0.0
N1115 N 0.41924 0.41428 0.90882 0.0
H1116 H 0.15588 0.41675 0.80859 0.0
H1117 H 0.12995 0.41661 0.3486 0.0
H1118 H 0.11759 0.40482 0.76317 0.0
H1119 H 0.15717 0.40583 0.39405 0.0
H1120 H 0.12875 0.41923 0.50142 0.0
H1121 H 0.15971 0.41968 0.65608 0.0
C1122 C 0.14834 0.415 0.76671 0.0
C1123 C 0.13638 0.41046 0.79824 0.0
C1124 C 0.13513 0.4165 0.47746 0.0
C1125 C 0.14074 0.41392 0.62486 0.0
C1126 C 0.13588 0.41508 0.39058 0.0
C1127 C 0.14363 0.41093 0.35907 0.0
C1128 C 0.14239 0.41403 0.53256 0.0
C1129 C 0.15102 0.40895 0.41609 0.0
C1130 C 0.15053 0.41661 0.67996 0.0
C1131 C 0.12692 0.40824 0.7412 0.0
N1132 N 0.15022 0.41052 0.50026 0.0
N1133 N 0.1293 0.40999 0.65709 0.0
H1134 H 0.59481 0.71571 0.76924 0.0
H1135 H 0.5842 0.74896 0.39008 0.0
H1136 H 0.57756 0.73771 0.80714 0.0
H1137 H 0.58167 0.71363 0.35652 0.0
H1138 H 0.58219 0.74549 0.5428 0.0
H1139 H 0.59079 0.71521 0.6176 0.0
C1140 C 0.59009 0.72034 0.74567 0.0
C1141 C 0.58658 0.72682 0.80067 0.0
C1142 C 0.58183 0.73839 0.50192 0.0
C1143 C 0.58211 0.72642 0.62746 0.0
C1144 C 0.58299 0.74036 0.41492 0.0
C1145 C 0.58311 0.73156 0.3609 0.0
C1146 C 0.58117 0.72771 0.53524 0.0
C1147 C 0.58154 0.7206 0.39613 0.0
C1148 C 0.58772 0.71999 0.65931 0.0
C1149 C 0.5804 0.7326 0.76689 0.0
N1150 N 0.5809 0.71909 0.48141 0.0
N1151 N 0.57856 0.73245 0.68216 0.0
H1152 H 0.27824 0.86106 0.3556 0.0
H1153 H 0.25334 0.83485 0.81639 0.0
H1154 H 0.24062 0.83281 0.40178 0.0
H1155 H 0.27831 0.87347 0.76988 0.0
H1156 H 0.25249 0.831 0.66392 0.0
H1157 H 0.28212 0.86252 0.50837 0.0
C1158 C 0.27089 0.85496 0.39774 0.0
C1159 C 0.25908 0.84683 0.36641 0.0
C1160 C 0.25829 0.84026 0.68755 0.0
C1161 C 0.26349 0.84839 0.53991 0.0
C1162 C 0.25885 0.84247 0.77427 0.0
C1163 C 0.26585 0.85451 0.8055 0.0
C1164 C 0.26502 0.85012 0.63216 0.0
C1165 C 0.27272 0.86406 0.74815 0.0
C1166 C 0.27309 0.85587 0.4846 0.0
C1167 C 0.24983 0.83924 0.42366 0.0
N1168 N 0.27214 0.86167 0.66406 0.0
N1169 N 0.25223 0.8402 0.50783 0.0
H1170 H 0.40994 0.12417 0.66446 0.0
H1171 H 0.41499 0.15361 0.20851 0.0
H1172 H 0.40871 0.15759 0.62603 0.0
H1173 H 0.39658 0.11438 0.25128 0.0
H1174 H 0.41899 0.15697 0.36057 0.0
H1175 H 0.41152 0.12248 0.51086 0.0
C1176 C 0.41035 0.13132 0.62384 0.0
C1177 C 0.40914 0.141 0.65751 0.0
C1178 C 0.41421 0.14764 0.33624 0.0
C1179 C 0.41098 0.13915 0.48312 0.0
C1180 C 0.41196 0.14572 0.24969 0.0
C1181 C 0.40533 0.13369 0.21751 0.0
C1182 C 0.41004 0.13749 0.39055 0.0
C1183 C 0.40158 0.12379 0.27372 0.0
C1184 C 0.41115 0.13029 0.53648 0.0
C1185 C 0.40956 0.14995 0.60226 0.0
N1186 N 0.40398 0.1259 0.35763 0.0
N1187 N 0.41041 0.1488 0.51765 0.0
H1188 H 0.83035 0.24769 0.64384 0.0
H1189 H 0.87492 0.27924 0.26479 0.0
H1190 H 0.86425 0.28204 0.67753 0.0
H1191 H 0.83557 0.25885 0.22685 0.0
H1192 H 0.87151 0.27998 0.41641 0.0
H1193 H 0.832 0.25115 0.4911 0.0
C1194 C 0.83801 0.25608 0.61899 0.0
C1195 C 0.84718 0.2646 0.67304 0.0
C1196 C 0.86363 0.2755 0.37468 0.0
C1197 C 0.84932 0.26842 0.4987 0.0
C1198 C 0.86556 0.27501 0.28833 0.0
C1199 C 0.85551 0.26891 0.2333 0.0
C1200 C 0.85157 0.26959 0.4065 0.0
C1201 C 0.84358 0.26365 0.26708 0.0
C1202 C 0.83895 0.25805 0.53199 0.0
C1203 C 0.85695 0.27531 0.63786 0.0
N1204 N 0.84194 0.26392 0.35178 0.0
N1205 N 0.85791 0.2768 0.55256 0.0
H1206 H 0.73262 0.57537 0.21732 0.0
H1207 H 0.70772 0.57976 0.67298 0.0
H1208 H 0.71098 0.59291 0.25988 0.0
H1209 H 0.74288 0.58207 0.63467 0.0
H1210 H 0.70438 0.57794 0.51943 0.0
H1211 H 0.73202 0.57136 0.36939 0.0
C1212 C 0.72758 0.5782 0.25845 0.0
C1213 C 0.72195 0.5846 0.22626 0.0
C1214 C 0.7127 0.5786 0.54509 0.0
C1215 C 0.72108 0.57988 0.39921 0.0
C1216 C 0.71456 0.57953 0.63241 0.0
C1217 C 0.72561 0.58113 0.66604 0.0
C1218 C 0.72185 0.57902 0.49178 0.0
C1219 C 0.73427 0.58094 0.61088 0.0
C1220 C 0.72728 0.57594 0.34499 0.0
C1221 C 0.71557 0.58809 0.28237 0.0
N1222 N 0.73223 0.57995 0.52631 0.0
N1223 N 0.71532 0.5857 0.36624 0.0
H1224 H 0.86139 0.57973 0.66041 0.0
H1225 H 0.83306 0.57744 0.20447 0.0
H1226 H 0.83047 0.5853 0.62147 0.0
H1227 H 0.87196 0.59226 0.24685 0.0
H1228 H 0.8295 0.57373 0.35674 0.0
H1229 H 0.86264 0.57759 0.50698 0.0
C1230 C 0.85467 0.58017 0.61974 0.0
C1231 C 0.84586 0.58276 0.65319 0.0
C1232 C 0.83877 0.57764 0.33225 0.0
C1233 C 0.8472 0.58027 0.47902 0.0
C1234 C 0.84081 0.57971 0.24561 0.0
C1235 C 0.85284 0.58528 0.21333 0.0
C1236 C 0.8488 0.5809 0.38645 0.0
C1237 C 0.86256 0.58809 0.26941 0.0
C1238 C 0.85545 0.57905 0.53249 0.0
C1239 C 0.83745 0.58339 0.59787 0.0
N1240 N 0.86033 0.58588 0.35338 0.0
N1241 N 0.83834 0.58219 0.51335 0.0
H1242 H 0.41552 0.25358 0.20531 0.0
H1243 H 0.41498 0.27917 0.66528 0.0
H1244 H 0.40317 0.2796 0.25053 0.0
H1245 H 0.40474 0.2413 0.61988 0.0
H1246 H 0.41752 0.28298 0.51244 0.0
H1247 H 0.41843 0.25269 0.35786 0.0
C1248 C 0.41367 0.2593 0.24716 0.0
C1249 C 0.40902 0.26662 0.21554 0.0
C1250 C 0.41492 0.27391 0.53641 0.0
C1251 C 0.41246 0.26574 0.38899 0.0
C1252 C 0.41355 0.27175 0.6233 0.0
C1253 C 0.40958 0.25988 0.65486 0.0
C1254 C 0.41258 0.26422 0.48131 0.0
C1255 C 0.40772 0.25055 0.59783 0.0
C1256 C 0.41527 0.25873 0.33393 0.0
C1257 C 0.40667 0.27377 0.27255 0.0
N1258 N 0.40924 0.25291 0.51365 0.0
N1259 N 0.40841 0.27315 0.3567 0.0
H1260 H 0.74844 0.16087 0.62076 0.0
H1261 H 0.7136 0.11771 0.24155 0.0
H1262 H 0.71234 0.12913 0.65473 0.0
H1263 H 0.73704 0.15682 0.20399 0.0
H1264 H 0.71338 0.12131 0.39333 0.0
H1265 H 0.74494 0.15955 0.46808 0.0
C1266 C 0.73969 0.15376 0.59602 0.0
C1267 C 0.73067 0.14508 0.65015 0.0
C1268 C 0.71841 0.12911 0.35166 0.0
C1269 C 0.72676 0.14332 0.47587 0.0
C1270 C 0.71861 0.12706 0.26522 0.0
C1271 C 0.72541 0.13698 0.21027 0.0
C1272 C 0.72533 0.14112 0.38364 0.0
C1273 C 0.73167 0.14892 0.24419 0.0
C1274 C 0.7377 0.15302 0.50905 0.0
C1275 C 0.7195 0.13603 0.61505 0.0
N1276 N 0.73167 0.15065 0.32898 0.0
N1277 N 0.71795 0.13522 0.52979 0.0
H1278 H 0.58956 0.87455 0.73513 0.0
H1279 H 0.57901 0.8307 0.3563 0.0
H1280 H 0.57223 0.83528 0.77297 0.0
H1281 H 0.5764 0.86344 0.32227 0.0
H1282 H 0.57694 0.83215 0.50896 0.0
H1283 H 0.58553 0.87102 0.58348 0.0
C1284 C 0.58482 0.86518 0.71155 0.0
C1285 C 0.58129 0.85519 0.76654 0.0
C1286 C 0.57657 0.83888 0.46799 0.0
C1287 C 0.57681 0.85113 0.59335 0.0
C1288 C 0.57775 0.83806 0.38105 0.0
C1289 C 0.57787 0.84697 0.32696 0.0
C1290 C 0.57588 0.84889 0.50117 0.0
C1291 C 0.57627 0.85635 0.36199 0.0
C1292 C 0.58245 0.86318 0.6252 0.0
C1293 C 0.57509 0.84324 0.73275 0.0
N1294 N 0.5756 0.85723 0.44725 0.0
N1295 N 0.57324 0.84154 0.64804 0.0
H1296 H 0.12631 0.70906 0.31001 0.0
H1297 H 0.11371 0.71254 0.73255 0.0
H1298 H 0.15607 0.74591 0.35864 0.0
H1299 H 0.1531 0.73439 0.76476 0.0
H1300 H 0.11675 0.7115 0.58095 0.0
H1301 H 0.1242 0.70514 0.4627 0.0
C1302 C 0.13256 0.71623 0.35268 0.0
C1303 C 0.14128 0.72788 0.32192 0.0
C1304 C 0.12474 0.71627 0.6214 0.0
C1305 C 0.13881 0.72354 0.49574 0.0
C1306 C 0.12301 0.71699 0.70776 0.0
C1307 C 0.13317 0.72358 0.76117 0.0
C1308 C 0.13672 0.7224 0.58794 0.0
C1309 C 0.14502 0.72916 0.72578 0.0
C1310 C 0.13125 0.71404 0.43966 0.0
C1311 C 0.14912 0.73686 0.37995 0.0
N1312 N 0.14646 0.72866 0.641 0.0
N1313 N 0.14767 0.73452 0.46415 0.0
H1314 H 0.28128 0.41436 0.33619 0.0
H1315 H 0.25564 0.41726 0.79233 0.0
H1316 H 0.24523 0.40991 0.37523 0.0
H1317 H 0.27887 0.40147 0.74956 0.0
H1318 H 0.25592 0.42107 0.6402 0.0
H1319 H 0.28465 0.41631 0.48969 0.0
C1320 C 0.27423 0.41414 0.37691 0.0
C1321 C 0.26294 0.41191 0.34348 0.0
C1322 C 0.26108 0.41693 0.66456 0.0
C1323 C 0.26674 0.41418 0.5177 0.0
C1324 C 0.26096 0.41478 0.75114 0.0
C1325 C 0.26714 0.40893 0.78331 0.0
C1326 C 0.26764 0.41343 0.61026 0.0
C1327 C 0.27386 0.40587 0.72711 0.0
C1328 C 0.27611 0.41514 0.4642 0.0
C1329 C 0.25402 0.41154 0.39884 0.0
N1330 N 0.27392 0.40815 0.64318 0.0
N1331 N 0.2561 0.41262 0.48338 0.0
H1332 H 0.82012 0.75157 0.11541 0.0
H1333 H 0.79089 0.74713 0.65947 0.0
H1334 H 0.78092 0.73397 0.07276 0.0
H1335 H 0.82375 0.74485 0.69812 0.0
H1336 H 0.78932 0.74888 0.81302 0.0
H1337 H 0.82352 0.75551 0.96331 0.0
C1338 C 0.81225 0.74871 0.07425 0.0
C1339 C 0.80021 0.74232 0.10645 0.0
C1340 C 0.79699 0.74824 0.78744 0.0
C1341 C 0.80406 0.74697 0.93342 0.0
C1342 C 0.79795 0.74735 0.70012 0.0
C1343 C 0.80743 0.74579 0.66656 0.0
C1344 C 0.80571 0.74782 0.84085 0.0
C1345 C 0.81626 0.74596 0.72184 0.0
C1346 C 0.8142 0.75093 0.98769 0.0
C1347 C 0.79034 0.73879 0.05029 0.0
N1348 N 0.81517 0.74692 0.80641 0.0
N1349 N 0.79248 0.74115 0.96637 0.0
H1350 H 0.25678 0.0447 0.06193 0.0
H1351 H 0.24533 0.07746 0.68313 0.0
H1352 H 0.23895 0.06616 0.1 0.0
H1353 H 0.24346 0.04244 0.64907 0.0
H1354 H 0.24344 0.07399 0.83586 0.0
H1355 H 0.25275 0.04418 0.91024 0.0
C1356 C 0.25193 0.04922 0.03841 0.0
C1357 C 0.24825 0.05555 0.0935 0.0
C1358 C 0.2432 0.06695 0.79488 0.0
C1359 C 0.24377 0.05511 0.92025 0.0
C1360 C 0.24427 0.06893 0.70789 0.0
C1361 C 0.24454 0.06021 0.65373 0.0
C1362 C 0.24277 0.05637 0.82805 0.0
C1363 C 0.2432 0.04933 0.68881 0.0
C1364 C 0.24956 0.04884 0.95202 0.0
C1365 C 0.24192 0.06117 0.05973 0.0
N1366 N 0.24263 0.04783 0.7741 0.0
N1367 N 0.24007 0.06101 0.97502 0.0
H1368 H 0.94571 0.19709 0.66328 0.0
H1369 H 0.92091 0.16805 0.11951 0.0
H1370 H 0.91037 0.1645 0.70233 0.0
H1371 H 0.94278 0.20723 0.07682 0.0
H1372 H 0.92131 0.16463 0.96731 0.0
H1373 H 0.94906 0.19869 0.8168 0.0
C1374 C 0.93882 0.1901 0.70402 0.0
C1375 C 0.92773 0.18068 0.67054 0.0
C1376 C 0.92614 0.17395 0.9917 0.0
C1377 C 0.93151 0.18242 0.84483 0.0
C1378 C 0.92596 0.17591 0.07832 0.0
C1379 C 0.93172 0.18795 0.11056 0.0
C1380 C 0.93235 0.18407 0.9374 0.0
C1381 C 0.9381 0.19781 0.05434 0.0
C1382 C 0.94069 0.19107 0.79132 0.0
C1383 C 0.91902 0.17193 0.72594 0.0
N1384 N 0.93824 0.19566 0.97036 0.0
N1385 N 0.92107 0.17303 0.8105 0.0
H1386 H 0.07216 0.49385 0.95663 0.0
H1387 H 0.06429 0.45082 0.57788 0.0
H1388 H 0.07706 0.46244 0.99084 0.0
H1389 H 0.07953 0.48987 0.53997 0.0
H1390 H 0.06818 0.4545 0.72957 0.0
H1391 H 0.07439 0.49256 0.80397 0.0
C1392 C 0.07394 0.48683 0.93193 0.0
C1393 C 0.07443 0.47823 0.98609 0.0
C1394 C 0.07084 0.46227 0.68783 0.0
C1395 C 0.07661 0.47649 0.81186 0.0
C1396 C 0.06855 0.46018 0.60145 0.0
C1397 C 0.07153 0.47005 0.54642 0.0
C1398 C 0.07582 0.47427 0.71967 0.0
C1399 C 0.07711 0.482 0.58021 0.0
C1400 C 0.07522 0.48611 0.84499 0.0
C1401 C 0.07671 0.46929 0.95109 0.0
N1402 N 0.07888 0.48376 0.66495 0.0
N1403 N 0.07746 0.46848 0.86583 0.0
H1404 H 0.50323 0.59579 0.51783 0.0
H1405 H 0.49929 0.57943 0.94129 0.0
H1406 H 0.5421 0.61435 0.57466 0.0
H1407 H 0.52959 0.61635 0.97792 0.0
H1408 H 0.50047 0.58319 0.7889 0.0
H1409 H 0.49882 0.59468 0.66938 0.0
C1410 C 0.51084 0.59982 0.56203 0.0
C1411 C 0.52306 0.60506 0.53373 0.0
C1412 C 0.50665 0.59056 0.83049 0.0
C1413 C 0.51805 0.60377 0.7065 0.0
C1414 C 0.50603 0.5884 0.91722 0.0
C1415 C 0.51431 0.59762 0.97199 0.0
C1416 C 0.51583 0.60191 0.79826 0.0
C1417 C 0.52295 0.60906 0.93772 0.0
C1418 C 0.5083 0.59908 0.64834 0.0
C1419 C 0.53255 0.61011 0.59389 0.0
N1420 N 0.52368 0.6108 0.85266 0.0
N1421 N 0.52985 0.60933 0.67757 0.0
H1422 H 0.37803 0.92686 0.58015 0.0
H1423 H 0.41139 0.91625 0.95877 0.0
H1424 H 0.40016 0.90975 0.54167 0.0
H1425 H 0.37596 0.91347 0.99263 0.0
H1426 H 0.40795 0.91432 0.806 0.0
H1427 H 0.37757 0.92281 0.73175 0.0
C1428 C 0.38271 0.92216 0.60357 0.0
C1429 C 0.38921 0.9187 0.54839 0.0
C1430 C 0.40082 0.91388 0.84694 0.0
C1431 C 0.38884 0.91419 0.72155 0.0
C1432 C 0.40278 0.91498 0.93396 0.0
C1433 C 0.39393 0.91501 0.98807 0.0
C1434 C 0.39012 0.91319 0.81372 0.0
C1435 C 0.38296 0.9134 0.95292 0.0
C1436 C 0.38237 0.91979 0.6899 0.0
C1437 C 0.39503 0.91256 0.58202 0.0
N1438 N 0.38146 0.91282 0.86763 0.0
N1439 N 0.3949 0.9107 0.6667 0.0
H1440 H 0.49791 0.91999 0.9476 0.0
H1441 H 0.53912 0.92186 0.57415 0.0
H1442 H 0.52575 0.90992 0.98811 0.0
H1443 H 0.50064 0.90948 0.53325 0.0
H1444 H 0.53515 0.91874 0.7263 0.0
H1445 H 0.49916 0.91732 0.7953 0.0
C1446 C 0.50414 0.91703 0.9244 0.0
C1447 C 0.51173 0.91517 0.98027 0.0
C1448 C 0.52756 0.91652 0.68377 0.0
C1449 C 0.51344 0.91243 0.80659 0.0
C1450 C 0.52981 0.91834 0.59716 0.0
C1451 C 0.52019 0.91594 0.54116 0.0
C1452 C 0.51568 0.91263 0.7147 0.0
C1453 C 0.5083 0.91138 0.57425 0.0
C1454 C 0.50483 0.91549 0.8377 0.0
C1455 C 0.51968 0.91137 0.94707 0.0
N1456 N 0.50642 0.9101 0.6591 0.0
N1457 N 0.52052 0.91037 0.86209 0.0
H1458 H 0.07131 0.5776 0.95831 0.0
H1459 H 0.08426 0.59324 0.53457 0.0
H1460 H 0.08004 0.61523 0.99361 0.0
H1461 H 0.06628 0.61415 0.58973 0.0
H1462 H 0.08732 0.59194 0.68622 0.0
H1463 H 0.07403 0.5812 0.80589 0.0
C1464 C 0.07403 0.58668 0.93395 0.0
C1465 C 0.07552 0.59615 0.9884 0.0
C1466 C 0.08279 0.59688 0.66482 0.0
C1467 C 0.07847 0.60028 0.8145 0.0
C1468 C 0.08113 0.59772 0.57841 0.0
C1469 C 0.07487 0.60369 0.54955 0.0
C1470 C 0.07829 0.60217 0.72258 0.0
C1471 C 0.07101 0.60933 0.60933 0.0
C1472 C 0.07565 0.58875 0.84717 0.0
C1473 C 0.07894 0.60773 0.95369 0.0
N1474 N 0.07277 0.60842 0.69314 0.0
N1475 N 0.08004 0.6094 0.86856 0.0
H1476 H 0.37691 0.45398 0.58289 0.0
H1477 H 0.41669 0.49474 0.95622 0.0
H1478 H 0.40337 0.49236 0.54228 0.0
H1479 H 0.37862 0.46733 0.99711 0.0
H1480 H 0.41272 0.4936 0.80402 0.0
H1481 H 0.37782 0.45793 0.73508 0.0
C1482 C 0.38278 0.46326 0.60598 0.0
C1483 C 0.39009 0.47286 0.55007 0.0
C1484 C 0.40519 0.488 0.8465 0.0
C1485 C 0.39137 0.47735 0.72363 0.0
C1486 C 0.40745 0.48863 0.93313 0.0
C1487 C 0.39796 0.48112 0.98907 0.0
C1488 C 0.39346 0.47954 0.8155 0.0
C1489 C 0.38616 0.47333 0.95601 0.0
C1490 C 0.38326 0.46551 0.69261 0.0
C1491 C 0.39754 0.48472 0.58324 0.0
N1492 N 0.38429 0.47255 0.87108 0.0
N1493 N 0.39818 0.4866 0.66811 0.0
H1494 H 0.25363 0.20654 0.10498 0.0
H1495 H 0.23893 0.19145 0.68181 0.0
H1496 H 0.24092 0.16789 0.14035 0.0
H1497 H 0.25288 0.16693 0.73605 0.0
H1498 H 0.23644 0.1933 0.83382 0.0
H1499 H 0.2503 0.20298 0.95281 0.0
C1500 C 0.24995 0.19727 0.08074 0.0
C1501 C 0.24752 0.18748 0.13515 0.0
C1502 C 0.23994 0.18744 0.81212 0.0
C1503 C 0.24379 0.18338 0.96153 0.0
C1504 C 0.24124 0.18627 0.72556 0.0
C1505 C 0.24625 0.17913 0.69646 0.0
C1506 C 0.2435 0.18127 0.86961 0.0
C1507 C 0.24913 0.17265 0.75596 0.0
C1508 C 0.24796 0.19523 0.9941 0.0
C1509 C 0.24281 0.17566 0.10053 0.0
N1510 N 0.24773 0.17389 0.83982 0.0
N1511 N 0.24135 0.17398 0.01556 0.0
H1512 H 0.7832 0.0427 0.07649 0.0
H1513 H 0.82624 0.0798 0.70378 0.0
H1514 H 0.82221 0.06609 0.11829 0.0
H1515 H 0.79623 0.04284 0.66297 0.0
H1516 H 0.82461 0.07582 0.85612 0.0
H1517 H 0.78711 0.04324 0.9244 0.0
C1518 C 0.79259 0.04782 0.05368 0.0
C1519 C 0.8024 0.05437 0.1099 0.0
C1520 C 0.81854 0.06852 0.81363 0.0
C1521 C 0.80687 0.05524 0.93646 0.0
C1522 C 0.81944 0.07078 0.72692 0.0
C1523 C 0.81136 0.06162 0.67095 0.0
C1524 C 0.80923 0.05715 0.84464 0.0
C1525 C 0.80269 0.05011 0.70408 0.0
C1526 C 0.79481 0.04808 0.96711 0.0
C1527 C 0.8144 0.06085 0.07709 0.0
N1528 N 0.80167 0.04828 0.78905 0.0
N1529 N 0.81629 0.06133 0.99228 0.0
H1530 H 0.94573 0.75145 0.67648 0.0
H1531 H 0.92076 0.75281 0.13699 0.0
H1532 H 0.90817 0.7423 0.7223 0.0
H1533 H 0.94564 0.73905 0.09072 0.0
H1534 H 0.91999 0.75588 0.98455 0.0
H1535 H 0.94958 0.75385 0.82932 0.0
C1536 C 0.9384 0.75025 0.71856 0.0
C1537 C 0.9266 0.74661 0.68713 0.0
C1538 C 0.92576 0.75237 0.00823 0.0
C1539 C 0.93098 0.74946 0.86065 0.0
C1540 C 0.92626 0.75068 0.09493 0.0
C1541 C 0.93321 0.74559 0.12621 0.0
C1542 C 0.93248 0.74922 0.95291 0.0
C1543 C 0.94008 0.7429 0.06895 0.0
C1544 C 0.94058 0.75153 0.80544 0.0
C1545 C 0.91737 0.74502 0.74427 0.0
N1546 N 0.93954 0.74474 0.98487 0.0
N1547 N 0.91975 0.74645 0.82845 0.0
H1548 H 0.49276 0.07548 0.03908 0.0
H1549 H 0.48957 0.08817 0.46261 0.0
H1550 H 0.46301 0.08294 0.0035 0.0
H1551 H 0.45064 0.06886 0.40709 0.0
H1552 H 0.49391 0.09144 0.31098 0.0
H1553 H 0.49183 0.07824 0.19141 0.0
C1554 C 0.4862 0.07793 0.06337 0.0
C1555 C 0.47799 0.07904 0.00892 0.0
C1556 C 0.48443 0.08658 0.33232 0.0
C1557 C 0.47675 0.08204 0.18264 0.0
C1558 C 0.48194 0.0848 0.41869 0.0
C1559 C 0.46972 0.0781 0.44738 0.0
C1560 C 0.47464 0.08177 0.2745 0.0
C1561 C 0.46019 0.07393 0.38756 0.0
C1562 C 0.48572 0.07958 0.15008 0.0
C1563 C 0.46958 0.08214 0.04347 0.0
N1564 N 0.46286 0.07582 0.30382 0.0
N1565 N 0.46898 0.08325 0.12855 0.0
H1566 H 0.91397 0.41338 0.04455 0.0
H1567 H 0.91898 0.37571 0.41681 0.0
H1568 H 0.90625 0.37618 0.00318 0.0
H1569 H 0.90396 0.39961 0.45871 0.0
H1570 H 0.91565 0.37632 0.26473 0.0
H1571 H 0.9115 0.40935 0.19681 0.0
C1572 C 0.91156 0.4043 0.06756 0.0
C1573 C 0.9103 0.39509 0.01147 0.0
C1574 C 0.9129 0.38125 0.30747 0.0
C1575 C 0.90781 0.39055 0.18505 0.0
C1576 C 0.91484 0.38095 0.39403 0.0
C1577 C 0.91175 0.38763 0.45028 0.0
C1578 C 0.90819 0.38858 0.27685 0.0
C1579 C 0.90641 0.39427 0.4175 0.0
C1580 C 0.91013 0.40201 0.15422 0.0
C1581 C 0.90721 0.3835 0.0444 0.0
N1582 N 0.90501 0.39478 0.3327 0.0
N1583 N 0.90632 0.38162 0.12934 0.0
H1584 H 0.61372 0.54209 0.40763 0.0
H1585 H 0.57616 0.49951 0.03398 0.0
H1586 H 0.58943 0.50321 0.4489 0.0
H1587 H 0.61339 0.52904 0.99419 0.0
H1588 H 0.58005 0.501 0.18639 0.0
H1589 H 0.61318 0.53816 0.25559 0.0
C1590 C 0.60839 0.53272 0.38472 0.0
C1591 C 0.60159 0.52296 0.44079 0.0
C1592 C 0.58743 0.507 0.14412 0.0
C1593 C 0.60073 0.51847 0.26736 0.0
C1594 C 0.58521 0.50617 0.05737 0.0
C1595 C 0.59447 0.51416 1.00166 0.0
C1596 C 0.59885 0.51614 0.17547 0.0
C1597 C 0.60603 0.52265 0.0351 0.0
C1598 C 0.60813 0.53048 0.29818 0.0
C1599 C 0.59485 0.51098 0.40783 0.0
N1600 N 0.60783 0.5236 0.12012 0.0
N1601 N 0.5944 0.5091 0.32303 0.0
H1602 H 0.73828 0.78726 0.9378 0.0
H1603 H 0.74442 0.83023 0.31107 0.0
H1604 H 0.75393 0.82628 0.8965 0.0
H1605 H 0.75118 0.8001 0.35127 0.0
H1606 H 0.74682 0.82868 0.15875 0.0
H1607 H 0.74176 0.79113 0.08982 0.0
C1608 C 0.74259 0.79665 0.96071 0.0
C1609 C 0.74581 0.80646 0.90467 0.0
C1610 C 0.748 0.82257 0.20109 0.0
C1611 C 0.74954 0.81091 0.07803 0.0
C1612 C 0.74661 0.82343 0.28779 0.0
C1613 C 0.74761 0.81529 0.34356 0.0
C1614 C 0.75002 0.81325 0.16988 0.0
C1615 C 0.75043 0.80661 0.31029 0.0
C1616 C 0.74461 0.79885 0.04723 0.0
C1617 C 0.75137 0.81846 0.93758 0.0
N1618 N 0.75128 0.80564 0.2253 0.0
N1619 N 0.75285 0.82033 0.02237 0.0
H1620 H 0.19291 0.94846 0.33985 0.0
H1621 H 0.16619 0.92329 0.88015 0.0
H1622 H 0.16409 0.91103 0.29502 0.0
H1623 H 0.20486 0.94818 0.92531 0.0
H1624 H 0.16243 0.92263 0.03262 0.0
H1625 H 0.19432 0.95224 0.18693 0.0
C1626 C 0.18668 0.94114 0.29798 0.0
C1627 C 0.17841 0.9294 0.32971 0.0
C1628 C 0.17169 0.92837 0.0087 0.0
C1629 C 0.17991 0.9337 0.15608 0.0
C1630 C 0.17384 0.92881 0.92196 0.0
C1631 C 0.18587 0.93574 0.89035 0.0
C1632 C 0.18159 0.93513 0.06374 0.0
C1633 C 0.19546 0.94264 0.94733 0.0
C1634 C 0.18756 0.94328 0.21104 0.0
C1635 C 0.17065 0.92019 0.27282 0.0
N1636 N 0.19312 0.94216 0.03145 0.0
N1637 N 0.17158 0.92253 0.1886 0.0
H1638 H 0.08073 0.253 0.27671 0.0
H1639 H 0.04112 0.25427 0.90372 0.0
H1640 H 0.04269 0.24246 0.31766 0.0
H1641 H 0.06737 0.24209 0.86271 0.0
H1642 H 0.04198 0.25115 0.05584 0.0
H1643 H 0.07675 0.25016 0.12452 0.0
C1644 C 0.0715 0.2499 0.25363 0.0
C1645 C 0.06202 0.24796 0.30956 0.0
C1646 C 0.04738 0.24897 0.0133 0.0
C1647 C 0.05751 0.24502 0.13604 0.0
C1648 C 0.04693 0.25078 0.92672 0.0
C1649 C 0.0542 0.24845 0.87073 0.0
C1650 C 0.05543 0.24515 0.0442 0.0
C1651 C 0.06157 0.24394 0.90375 0.0
C1652 C 0.06923 0.24826 0.16701 0.0
C1653 C 0.05023 0.24398 0.27655 0.0
N1654 N 0.06219 0.24267 0.98859 0.0
N1655 N 0.04835 0.24288 0.19162 0.0
H1656 H 0.16359 0.24884 0.29828 0.0
H1657 H 0.20697 0.25799 0.91908 0.0
H1658 H 0.19567 0.24506 0.33188 0.0
H1659 H 0.16782 0.24192 0.88141 0.0
H1660 H 0.20338 0.25399 0.07069 0.0
H1661 H 0.16492 0.24669 0.14559 0.0
C1662 C 0.17077 0.24731 0.27343 0.0
C1663 C 0.17954 0.24713 0.32742 0.0
C1664 C 0.19557 0.25118 0.02903 0.0
C1665 C 0.18133 0.24504 0.15316 0.0
C1666 C 0.19761 0.25352 0.94268 0.0
C1667 C 0.18768 0.25035 0.88775 0.0
C1668 C 0.18354 0.24591 0.06094 0.0
C1669 C 0.17573 0.24451 0.92159 0.0
C1670 C 0.17152 0.24608 0.18647 0.0
C1671 C 0.18869 0.24517 0.29225 0.0
N1672 N 0.17401 0.24267 0.0063 0.0
N1673 N 0.18951 0.24447 0.20697 0.0
H1674 H 0.74829 0.92375 0.8751 0.0
H1675 H 0.74409 0.94865 0.3311 0.0
H1676 H 0.73127 0.94588 0.91739 0.0
H1677 H 0.74102 0.91317 0.29205 0.0
H1678 H 0.74601 0.95205 0.17765 0.0
H1679 H 0.7521 0.92415 0.02735 0.0
C1680 C 0.74555 0.92886 0.91621 0.0
C1681 C 0.73934 0.93469 0.88389 0.0
C1682 C 0.74514 0.94364 0.20313 0.0
C1683 C 0.74383 0.93532 0.05705 0.0
C1684 C 0.74415 0.94174 0.29039 0.0
C1685 C 0.74232 0.93059 0.32382 0.0
C1686 C 0.74457 0.93444 0.14963 0.0
C1687 C 0.74232 0.92185 0.26846 0.0
C1688 C 0.74769 0.92904 0.00285 0.0
C1689 C 0.73594 0.94114 0.93997 0.0
N1690 N 0.74339 0.92394 0.18394 0.0
N1691 N 0.73822 0.94128 0.02396 0.0
H1692 H 0.06655 0.82335 0.87435 0.0
H1693 H 0.04154 0.79442 0.33053 0.0
H1694 H 0.04426 0.78421 0.91693 0.0
H1695 H 0.0771 0.82672 0.29138 0.0
H1696 H 0.03816 0.79289 0.17705 0.0
H1697 H 0.06619 0.8268 0.02656 0.0
C1698 C 0.06142 0.81551 0.91552 0.0
C1699 C 0.05553 0.80347 0.88327 0.0
C1700 C 0.04658 0.80043 0.2025 0.0
C1701 C 0.05494 0.80738 0.05641 0.0
C1702 C 0.04847 0.80137 0.28979 0.0
C1703 C 0.05963 0.81067 0.32321 0.0
C1704 C 0.05582 0.80902 0.14898 0.0
C1705 C 0.0684 0.81937 0.2678 0.0
C1706 C 0.06125 0.81749 0.00214 0.0
C1707 C 0.04905 0.79363 0.93945 0.0
N1708 N 0.06632 0.81832 0.18327 0.0
N1709 N 0.04893 0.7958 0.02342 0.0
H1710 H 0.90729 0.52743 0.02125 0.0
H1711 H 0.90648 0.50145 0.48196 0.0
H1712 H 0.91696 0.49939 0.06701 0.0
H1713 H 0.91981 0.54 0.43531 0.0
H1714 H 0.90346 0.49756 0.32956 0.0
H1715 H 0.90497 0.52892 0.17414 0.0
C1716 C 0.90862 0.52138 0.06333 0.0
C1717 C 0.91237 0.51331 0.03185 0.0
C1718 C 0.90686 0.50682 0.35314 0.0
C1719 C 0.90963 0.51489 0.20546 0.0
C1720 C 0.90853 0.50904 0.43983 0.0
C1721 C 0.91348 0.52108 0.47102 0.0
C1722 C 0.90989 0.51665 0.29772 0.0
C1723 C 0.91607 0.5306 0.41363 0.0
C1724 C 0.90739 0.5223 0.15025 0.0
C1725 C 0.91413 0.50578 0.08901 0.0
N1726 N 0.91425 0.52819 0.32957 0.0
N1727 N 0.91274 0.50675 0.17323 0.0
H1728 H 0.44952 0.37895 0.43476 0.0
H1729 H 0.49244 0.41446 0.05676 0.0
H1730 H 0.48852 0.40293 0.47326 0.0
H1731 H 0.46137 0.37796 0.02193 0.0
H1732 H 0.49115 0.41092 0.20939 0.0
H1733 H 0.45324 0.37882 0.28307 0.0
C1734 C 0.45888 0.3841 0.41132 0.0
C1735 C 0.46872 0.39102 0.4665 0.0
C1736 C 0.48477 0.4036 0.16824 0.0
C1737 C 0.473 0.39104 0.2933 0.0
C1738 C 0.4855 0.40561 0.08132 0.0
C1739 C 0.47699 0.39648 0.02699 0.0
C1740 C 0.47524 0.39252 0.20116 0.0
C1741 C 0.46814 0.38519 0.06181 0.0
C1742 C 0.461 0.38396 0.32494 0.0
C1743 C 0.48068 0.39746 0.43288 0.0
N1744 N 0.46732 0.38361 0.14704 0.0
N1745 N 0.48246 0.3975 0.34816 0.0
H1746 H 0.57566 0.07386 0.05923 0.0
H1747 H 0.61472 0.07129 0.43192 0.0
H1748 H 0.61346 0.0835 0.01832 0.0
H1749 H 0.5892 0.08437 0.47368 0.0
H1750 H 0.61386 0.07443 0.27981 0.0
H1751 H 0.57962 0.07646 0.21155 0.0
C1752 C 0.58484 0.07671 0.08234 0.0
C1753 C 0.59425 0.07848 0.02633 0.0
C1754 C 0.60861 0.0768 0.32251 0.0
C1755 C 0.59873 0.08113 0.20001 0.0
C1756 C 0.60906 0.07497 0.40909 0.0
C1757 C 0.60201 0.07757 0.46531 0.0
C1758 C 0.60078 0.0809 0.29184 0.0
C1759 C 0.59483 0.08232 0.43247 0.0
C1760 C 0.58709 0.07822 0.16903 0.0
C1761 C 0.60598 0.08213 0.05943 0.0
N1762 N 0.59421 0.08361 0.34764 0.0
N1763 N 0.60783 0.0831 0.14439 0.0
H1764 H 0.05654 0.42448 0.18739 0.0
H1765 H 0.12035 0.42537 0.18852 0.0
H1766 H 0.089 0.45014 0.32592 0.0
H1767 H 0.08803 0.39641 0.06596 0.0
H1768 H 0.10799 0.43335 0.24749 0.0
H1769 H 0.0667 0.41261 0.15183 0.0
C1770 C 0.0657 0.42747 0.21134 0.0
C1771 C 0.07209 0.4384 0.258 0.0
C1772 C 0.10351 0.42524 0.20786 0.0
C1773 C 0.08364 0.42504 0.21808 0.0
C1774 C 0.11062 0.42074 0.17345 0.0
C1775 C 0.10523 0.41037 0.12091 0.0
C1776 C 0.09091 0.41946 0.18886 0.0
C1777 C 0.09252 0.40452 0.10557 0.0
C1778 C 0.07149 0.42075 0.19095 0.0
C1779 C 0.08388 0.44192 0.28805 0.0
N1780 N 0.08575 0.40926 0.13868 0.0
N1781 N 0.0893 0.43531 0.26697 0.0
H1782 H 0.54287 0.63219 0.10652 0.0
H1783 H 0.60302 0.69776 0.16591 0.0
H1784 H 0.57077 0.63862 0.291 0.0
H1785 H 0.57219 0.68977 0.0045 0.0
H1786 H 0.59389 0.67555 0.19355 0.0
H1787 H 0.55614 0.6525 0.04816 0.0
C1788 C 0.55185 0.63796 0.13475 0.0
C1789 C 0.55567 0.63396 0.20484 0.0
C1790 C 0.58926 0.6787 0.15113 0.0
C1791 C 0.57088 0.65732 0.13928 0.0
C1792 C 0.59446 0.6913 0.1353 0.0
C1793 C 0.58816 0.6955 0.08439 0.0
C1794 C 0.57784 0.67041 0.11472 0.0
C1795 C 0.57716 0.68688 0.0457 0.0
C1796 C 0.55946 0.64954 0.10123 0.0
C1797 C 0.5675 0.64155 0.23756 0.0
N1798 N 0.57232 0.67477 0.06217 0.0
N1799 N 0.57466 0.65307 0.20542 0.0
H1800 H 0.35937 0.93418 0.18476 0.0
H1801 H 0.29514 0.87186 0.21322 0.0
H1802 H 0.35187 0.90268 0.33751 0.0
H1803 H 0.29997 0.90263 0.06228 0.0
H1804 H 0.31541 0.88457 0.27286 0.0
H1805 H 0.33724 0.92447 0.15283 0.0
C1806 C 0.35303 0.92534 0.21261 0.0
C1807 C 0.35737 0.91905 0.26219 0.0
C1808 C 0.31212 0.88864 0.22683 0.0
C1809 C 0.33235 0.90803 0.22664 0.0
C1810 C 0.30056 0.88133 0.19225 0.0
C1811 C 0.29607 0.88616 0.13132 0.0
C1812 C 0.3194 0.90085 0.19929 0.0
C1813 C 0.30327 0.89858 0.1084 0.0
C1814 C 0.34046 0.91981 0.19431 0.0
C1815 C 0.34889 0.90769 0.29731 0.0
N1816 N 0.31475 0.90551 0.14154 0.0
N1817 N 0.33681 0.90251 0.27828 0.0
H1818 H 0.41744 0.10857 0.02769 0.0
H1819 H 0.42068 0.06077 0.71201 0.0
H1820 H 0.38971 0.08952 0.83716 0.0
H1821 H 0.45125 0.08986 0.84809 0.0
H1822 H 0.40687 0.06697 0.77912 0.0
H1823 H 0.42703 0.09651 0.98951 0.0
C1824 C 0.41328 0.10167 0.97857 0.0
C1825 C 0.40298 0.10014 0.9341 0.0
C1826 C 0.4166 0.07189 0.79419 0.0
C1827 C 0.41404 0.08661 0.88842 0.0
C1828 C 0.42446 0.06842 0.75589 0.0
C1829 C 0.43713 0.07499 0.77343 0.0
C1830 C 0.42151 0.08176 0.85137 0.0
C1831 C 0.44159 0.08473 0.83126 0.0
C1832 C 0.41876 0.09483 0.9566 0.0
C1833 C 0.39775 0.09096 0.8721 0.0
N1834 N 0.43379 0.0878 0.86806 0.0
N1835 N 0.40352 0.08466 0.84949 0.0
H1836 H 0.90074 0.35971 0.86421 0.0
H1837 H 0.89954 0.29628 0.85283 0.0
H1838 H 0.92719 0.35513 0.71756 0.0
H1839 H 0.88004 0.30596 0.0334 0.0
H1840 H 0.9117 0.31808 0.8114 0.0
H1841 H 0.8945 0.34032 0.9339 0.0
C1842 C 0.90517 0.35451 0.84623 0.0
C1843 C 0.91427 0.35882 0.78377 0.0
C1844 C 0.90496 0.31544 0.86143 0.0
C1845 C 0.90721 0.33653 0.86376 0.0
C1846 C 0.89808 0.30306 0.88514 0.0
C1847 C 0.88867 0.29943 0.94502 0.0
C1848 C 0.90228 0.32403 0.89835 0.0
C1849 C 0.88706 0.30843 0.98549 0.0
C1850 C 0.90171 0.34349 0.88681 0.0
C1851 C 0.92 0.35195 0.76476 0.0
N1852 N 0.8937 0.3203 0.96068 0.0
N1853 N 0.91621 0.34096 0.80379 0.0
H1854 H 0.63375 0.57125 0.72024 0.0
H1855 H 0.68422 0.57079 0.02414 0.0
H1856 H 0.63224 0.5391 0.83219 0.0
H1857 H 0.6933 0.60094 0.85333 0.0
H1858 H 0.66275 0.56142 0.98186 0.0
H1859 H 0.65373 0.58418 0.79041 0.0
C1860 C 0.63761 0.56694 0.75935 0.0
C1861 C 0.63148 0.55409 0.76933 0.0
C1862 C 0.66939 0.57016 0.9541 0.0
C1863 C 0.65385 0.56869 0.85078 0.0
C1864 C 0.68161 0.5755 0.9784 0.0
C1865 C 0.69046 0.58646 0.94062 0.0
C1866 C 0.66606 0.5757 0.89035 0.0
C1867 C 0.68666 0.59239 0.88306 0.0
C1868 C 0.64893 0.57429 0.7994 0.0
C1869 C 0.63676 0.54893 0.82121 0.0
N1870 N 0.67468 0.58678 0.85806 0.0
N1871 N 0.64762 0.55625 0.85993 0.0
H1872 H 0.89916 0.60071 0.85758 0.0
H1873 H 0.89902 0.53724 0.86727 0.0
H1874 H 0.87365 0.56835 0.99762 0.0
H1875 H 0.92714 0.56915 0.73609 0.0
H1876 H 0.8911 0.54968 0.92586 0.0
H1877 H 0.91119 0.59065 0.82368 0.0
C1878 C 0.89624 0.5916 0.88224 0.0
C1879 C 0.88531 0.5852 0.92887 0.0
C1880 C 0.89901 0.55405 0.8844 0.0
C1881 C 0.89886 0.57378 0.89086 0.0
C1882 C 0.90348 0.5469 0.85027 0.0
C1883 C 0.91357 0.55214 0.79532 0.0
C1884 C 0.90453 0.56655 0.86262 0.0
C1885 C 0.91923 0.56478 0.77755 0.0
C1886 C 0.90305 0.58587 0.86278 0.0
C1887 C 0.88188 0.57347 0.9598 0.0
N1888 N 0.91451 0.57158 0.81035 0.0
N1889 N 0.88858 0.56812 0.93966 0.0
H1890 H 0.42302 0.36036 0.82382 0.0
H1891 H 0.42331 0.29704 0.82117 0.0
H1892 H 0.44918 0.3536 0.69169 0.0
H1893 H 0.39506 0.30096 0.94929 0.0
H1894 H 0.43139 0.3174 0.76228 0.0
H1895 H 0.41102 0.3383 0.85883 0.0
C1896 C 0.42611 0.3542 0.80123 0.0
C1897 C 0.43719 0.35876 0.75639 0.0
C1898 C 0.42342 0.3139 0.80316 0.0
C1899 C 0.42366 0.33381 0.79558 0.0
C1900 C 0.41885 0.30227 0.83744 0.0
C1901 C 0.40868 0.29746 0.89166 0.0
C1902 C 0.41791 0.32091 0.82401 0.0
C1903 C 0.40303 0.30447 0.90843 0.0
C1904 C 0.4193 0.34167 0.8213 0.0
C1905 C 0.44082 0.35049 0.72808 0.0
N1906 N 0.40784 0.31599 0.87549 0.0
N1907 N 0.43412 0.33845 0.74868 0.0
H1908 H 0.63174 0.09097 0.86808 0.0
H1909 H 0.6953 0.09147 0.84753 0.0
H1910 H 0.63565 0.06348 0.72931 0.0
H1911 H 0.68819 0.1159 0.99852 0.0
H1912 H 0.67318 0.07934 0.81467 0.0
H1913 H 0.65208 0.09865 0.92679 0.0
C1914 C 0.63697 0.0866 0.84954 0.0
C1915 C 0.63216 0.07677 0.7924 0.0
C1916 C 0.67648 0.08725 0.85599 0.0
C1917 C 0.65557 0.08552 0.85962 0.0
C1918 C 0.68905 0.09412 0.87482 0.0
C1919 C 0.69351 0.1048 0.92416 0.0
C1920 C 0.6685 0.09114 0.88742 0.0
C1921 C 0.68513 0.10788 0.95852 0.0
C1922 C 0.64856 0.09092 0.88369 0.0
C1923 C 0.63915 0.07119 0.77254 0.0
N1924 N 0.67306 0.10114 0.9389 0.0
N1925 N 0.65066 0.07578 0.80529 0.0
H1926 H 0.53515 0.90117 0.14336 0.0
H1927 H 0.59792 0.90038 0.1342 0.0
H1928 H 0.56788 0.92956 0.26569 0.0
H1929 H 0.56598 0.87728 0.9822 0.0
H1930 H 0.58834 0.91262 0.17512 0.0
H1931 H 0.54726 0.89335 0.07802 0.0
C1932 C 0.54492 0.90571 0.15703 0.0
C1933 C 0.5505 0.91586 0.21134 0.0
C1934 C 0.58357 0.905 0.13166 0.0
C1935 C 0.56455 0.90697 0.1359 0.0
C1936 C 0.58902 0.89807 0.10821 0.0
C1937 C 0.58255 0.8877 0.05641 0.0
C1938 C 0.57166 0.90145 0.10254 0.0
C1939 C 0.57112 0.88505 0.02395 0.0
C1940 C 0.55189 0.90132 0.11888 0.0
C1941 C 0.56325 0.9216 0.22479 0.0
N1942 N 0.56599 0.89181 0.04823 0.0
N1943 N 0.56988 0.91696 0.18805 0.0
H1944 H 0.10962 0.68649 0.96517 0.0
H1945 H 0.059 0.6366 0.27381 0.0
H1946 H 0.08921 0.696 0.13905 0.0
H1947 H 0.08874 0.63425 0.15441 0.0
H1948 H 0.06618 0.65662 0.20379 0.0
H1949 H 0.09731 0.66505 0.00745 0.0
C1950 C 0.1024 0.68398 0.01165 0.0
C1951 C 0.10054 0.69294 0.05022 0.0
C1952 C 0.07104 0.65162 0.19311 0.0
C1953 C 0.08667 0.66856 0.1005 0.0
C1954 C 0.067 0.64029 0.23307 0.0
C1955 C 0.07344 0.63392 0.221 0.0
C1956 C 0.08135 0.65633 0.1398 0.0
C1957 C 0.08366 0.63897 0.16706 0.0
C1958 C 0.09541 0.67177 0.03594 0.0
C1959 C 0.09094 0.68927 0.10871 0.0
N1960 N 0.08727 0.64985 0.12856 0.0
N1961 N 0.08446 0.6773 0.13368 0.0
H1962 H 0.29735 0.39345 0.14644 0.0
H1963 H 0.35953 0.45752 0.1594 0.0
H1964 H 0.30495 0.42527 0.99711 0.0
H1965 H 0.35679 0.42489 0.27258 0.0
H1966 H 0.33953 0.44504 0.09573 0.0
H1967 H 0.31922 0.40369 0.18685 0.0
C1968 C 0.30368 0.40246 0.1209 0.0
C1969 C 0.2994 0.40869 0.07004 0.0
C1970 C 0.34325 0.44052 0.1342 0.0
C1971 C 0.3241 0.42034 0.11571 0.0
C1972 C 0.35464 0.44769 0.17144 0.0
C1973 C 0.35971 0.44224 0.22253 0.0
C1974 C 0.33671 0.42778 0.14885 0.0
C1975 C 0.3531 0.42943 0.23409 0.0
C1976 C 0.31609 0.4083 0.14408 0.0
C1977 C 0.30787 0.4203 0.03815 0.0
N1978 N 0.3418 0.42259 0.19818 0.0
N1979 N 0.31978 0.4258 0.06223 0.0
H1980 H 0.77582 0.7557 0.30622 0.0
H1981 H 0.72796 0.75783 0.62717 0.0
H1982 H 0.75602 0.7266 0.48682 0.0
H1983 H 0.75876 0.78919 0.50941 0.0
H1984 H 0.73394 0.74423 0.55433 0.0
H1985 H 0.76432 0.76555 0.35243 0.0
C1986 C 0.76887 0.7513 0.35476 0.0
C1987 C 0.76698 0.74051 0.3942 0.0
C1988 C 0.7393 0.7541 0.54471 0.0
C1989 C 0.75408 0.75185 0.44894 0.0
C1990 C 0.73595 0.76183 0.58629 0.0
C1991 C 0.74302 0.77464 0.57532 0.0
C1992 C 0.74955 0.75929 0.49073 0.0
C1993 C 0.7532 0.77939 0.52115 0.0
C1994 C 0.76235 0.75692 0.38134 0.0
C1995 C 0.75775 0.735 0.45565 0.0
N1996 N 0.75613 0.77171 0.48087 0.0
N1997 N 0.75176 0.7409 0.48277 0.0
H1998 H 0.2339 0.018 0.30291 0.0
H1999 H 0.23482 0.96811 0.61023 0.0
H2000 H 0.26438 0.02755 0.47176 0.0
H2001 H 0.20244 0.96684 0.50432 0.0
H2002 H 0.24765 0.98798 0.53826 0.0
H2003 H 0.22454 -0.00332 0.34869 0.0
C2004 C 0.23868 0.01552 0.34898 0.0
C2005 C 0.24974 0.02448 0.3852 0.0
C2006 C 0.23773 0.98325 0.53109 0.0
C2007 C 0.23899 0.00025 0.43935 0.0
C2008 C 0.23044 0.97201 0.57217 0.0
C2009 C 0.21756 0.96596 0.56425 0.0
C2010 C 0.23203 0.98818 0.48072 0.0
C2011 C 0.21231 0.97128 0.51367 0.0
C2012 C 0.23334 0.00339 0.37526 0.0
C2013 C 0.25575 0.02083 0.44321 0.0
N2014 N 0.21956 0.98205 0.47383 0.0
N2015 N 0.25015 0.00894 0.47011 0.0
H2016 H 0.96089 0.23356 0.47727 0.0
H2017 H 0.02454 0.23455 0.47024 0.0
H2018 H 0.96933 0.21087 0.31767 0.0
H2019 H 0.02036 0.26242 0.60164 0.0
H2020 H 0.00449 0.22695 0.40707 0.0
H2021 H 0.98284 0.24581 0.5149 0.0
C2022 C 0.96741 0.23135 0.4489 0.0
C2023 C 0.96338 0.22109 0.39593 0.0
C2024 C 0.00789 0.23476 0.44944 0.0
C2025 C 0.98817 0.23485 0.4383 0.0
C2026 C 0.01932 0.23902 0.48631 0.0
C2027 C 0.02397 0.24896 0.54255 0.0
C2028 C 0.0009 0.24031 0.46979 0.0
C2029 C 0.01698 0.25463 0.55917 0.0
C2030 C 0.97988 0.23829 0.47048 0.0
C2031 C 0.97208 0.21856 0.36038 0.0
N2032 N 0.00564 0.2501 0.52371 0.0
N2033 N 0.98404 0.22531 0.3829 0.0
H2034 H 0.26301 0.23545 0.40795 0.0
H2035 H 0.20908 0.23451 0.68109 0.0
H2036 H 0.2327 0.20339 0.52336 0.0
H2037 H 0.23272 0.2653 0.52172 0.0
H2038 H 0.22131 0.22497 0.64808 0.0
H2039 H 0.25506 0.24819 0.46887 0.0
C2040 C 0.25473 0.23113 0.44608 0.0
C2041 C 0.24835 0.21834 0.45942 0.0
C2042 C 0.22391 0.23385 0.6205 0.0
C2043 C 0.23949 0.23274 0.53001 0.0
C2044 C 0.21693 0.23928 0.6394 0.0
C2045 C 0.21979 0.25053 0.60243 0.0
C2046 C 0.23368 0.23958 0.5629 0.0
C2047 C 0.23021 0.25652 0.55058 0.0
C2048 C 0.25025 0.23837 0.48081 0.0
C2049 C 0.23776 0.21316 0.50983 0.0
N2050 N 0.23672 0.25084 0.53086 0.0
N2051 N 0.23368 0.22038 0.54307 0.0
H2052 H 0.75396 0.02312 0.38053 0.0
H2053 H 0.7521 0.97197 0.68932 0.0
H2054 H 0.78497 0.02488 0.51209 0.0
H2055 H 0.72341 0.96339 0.50669 0.0
H2056 H 0.76157 0.99362 0.65165 0.0
H2057 H 0.74044 0.00303 0.4479 0.0
C2058 C 0.75789 0.01929 0.42356 0.0
C2059 C 0.7706 0.02548 0.43955 0.0
C2060 C 0.75312 0.98705 0.62025 0.0
C2061 C 0.75533 0.00299 0.5177 0.0
C2062 C 0.74773 0.97473 0.64191 0.0
C2063 C 0.73716 0.96598 0.5996 0.0
C2064 C 0.74807 0.99061 0.55445 0.0
C2065 C 0.73165 0.96996 0.53991 0.0
C2066 C 0.7502 0.00792 0.46197 0.0
C2067 C 0.77527 0.02028 0.49636 0.0
N2068 N 0.73735 0.98205 0.51751 0.0
N2069 N 0.76764 0.00935 0.5332 0.0
H2070 H 0.96345 0.75872 0.52516 0.0
H2071 H 0.02627 0.75833 0.51153 0.0
H2072 H 0.96659 0.73046 0.39071 0.0
H2073 H 0.01814 0.78015 0.68203 0.0
H2074 H 0.00429 0.74648 0.47366 0.0
H2075 H 0.9834 0.76564 0.58813 0.0
C2076 C 0.96843 0.75403 0.50836 0.0
C2077 C 0.96351 0.74417 0.45139 0.0
C2078 C 0.00732 0.7537 0.5206 0.0
C2079 C 0.98645 0.75202 0.52399 0.0
C2080 C 0.0198 0.7604 0.5423 0.0
C2081 C 0.02392 0.77033 0.59839 0.0
C2082 C -0.00087 0.75706 0.55571 0.0
C2083 C 0.0153 0.77271 0.63696 0.0
C2084 C 0.97979 0.75789 0.54516 0.0
C2085 C 0.97019 0.73819 0.43379 0.0
N2086 N 0.00334 0.76621 0.6142 0.0
N2087 N 0.98148 0.74234 0.4692 0.0
H2088 H 0.22213 0.3975 0.93482 0.0
H2089 H 0.1836 0.42698 0.11285 0.0
H2090 H 0.23593 0.42585 0.12527 0.0
H2091 H 0.16933 0.39332 0.96962 0.0
H2092 H 0.20466 0.43137 0.08197 0.0
H2093 H 0.20514 0.40124 0.90758 0.0
C2094 C 0.22165 0.40469 0.96972 0.0
C2095 C 0.23014 0.4112 0.03351 0.0
C2096 C 0.1969 0.42318 0.05597 0.0
C2097 C 0.21063 0.41524 0.00515 0.0
C2098 C 0.18494 0.42068 0.07356 0.0
C2099 C 0.17484 0.40963 0.04541 0.0
C2100 C 0.19859 0.41463 0.00907 0.0
C2101 C 0.17693 0.40178 0.99424 0.0
C2102 C 0.21198 0.40683 0.95433 0.0
C2103 C 0.22937 0.42057 0.07624 0.0
N2104 N 0.18858 0.40438 0.97835 0.0
N2105 N 0.21952 0.42211 0.06286 0.0
H2106 H 0.56561 0.75425 0.12472 0.0
H2107 H 0.58917 0.81933 0.9104 0.0
H2108 H 0.59726 0.77344 0.96245 0.0
H2109 H 0.56433 0.8064 0.12242 0.0
H2110 H 0.58575 0.79856 0.88995 0.0
H2111 H 0.55945 0.76953 0.08892 0.0
C2112 C 0.57108 0.76153 0.08025 0.0
C2113 C 0.5821 0.76288 0.04796 0.0
C2114 C 0.5808 0.80016 0.93979 0.0
C2115 C 0.57508 0.78003 0.00594 0.0
C2116 C 0.58273 0.81197 0.95116 0.0
C2117 C 0.57717 0.81446 0.01891 0.0
C2118 C 0.57361 0.79094 0.99851 0.0
C2119 C 0.56883 0.80473 0.06989 0.0
C2120 C 0.56757 0.77019 0.05982 0.0
C2121 C 0.58886 0.77232 0.99019 0.0
N2122 N 0.56753 0.79337 0.06012 0.0
N2123 N 0.5853 0.7806 0.9716 0.0
H2124 H 0.16988 0.76772 0.90935 0.0
H2125 H 0.23582 0.80652 0.11875 0.0
H2126 H 0.1824 0.75416 0.11426 0.0
H2127 H 0.21713 0.82071 0.96719 0.0
H2128 H 0.2198 0.78543 0.081 0.0
H2129 H 0.19087 0.78469 0.88952 0.0
C2130 C 0.17718 0.7682 0.94867 0.0
C2131 C 0.17454 0.75981 0.01437 0.0
C2132 C 0.2194 0.7932 0.0547 0.0
C2133 C 0.19833 0.77932 0.99469 0.0
C2134 C 0.22848 0.80516 0.07625 0.0
C2135 C 0.2275 0.81522 0.04758 0.0
C2136 C 0.20953 0.79146 0.00322 0.0
C2137 C 0.21797 0.81312 0.99221 0.0
C2138 C 0.18912 0.77786 0.93764 0.0
C2139 C 0.1842 0.76062 0.0634 0.0
N2140 N 0.20929 0.80147 0.9724 0.0
N2141 N 0.19571 0.77048 0.05411 0.0
H2142 H 0.39818 0.16871 0.07565 0.0
H2143 H 0.42605 0.23639 0.89475 0.0
H2144 H 0.42407 0.18269 0.86968 0.0
H2145 H 0.39324 0.21688 0.04631 0.0
H2146 H 0.43081 0.21989 0.92218 0.0
H2147 H 0.40247 0.18958 0.10566 0.0
C2148 C 0.405 0.17629 0.0381 0.0
C2149 C 0.41062 0.17412 0.96928 0.0
C2150 C 0.42274 0.21941 0.95086 0.0
C2151 C 0.41523 0.1978 1.00084 0.0
C2152 C 0.42002 0.22876 0.93523 0.0
C2153 C 0.40909 0.22772 0.96674 0.0
C2154 C 0.41453 0.20917 0.99923 0.0
C2155 C 0.4016 0.2178 0.01925 0.0
C2156 C 0.40744 0.18816 0.05501 0.0
C2157 C 0.41949 0.18412 0.92279 0.0
N2158 N 0.4044 0.20884 0.03324 0.0
N2159 N 0.42132 0.19559 0.93801 0.0
H2160 H 0.81897 0.22673 0.09388 0.0
H2161 H 0.75345 0.18492 0.8857 0.0
H2162 H 0.80616 0.23785 0.87705 0.0
H2163 H 0.77309 0.17265 0.04505 0.0
H2164 H 0.76891 0.20641 0.91873 0.0
H2165 H 0.79812 0.20961 0.11662 0.0
C2166 C 0.81162 0.22572 0.05264 0.0
C2167 C 0.81415 0.23345 0.98288 0.0
C2168 C 0.76963 0.19897 0.9478 0.0
C2169 C 0.79056 0.21374 0.00602 0.0
C2170 C 0.76087 0.18678 0.92893 0.0
C2171 C 0.76228 0.17714 0.96119 0.0
C2172 C 0.77962 0.20137 1.00025 0.0
C2173 C 0.77192 0.17989 0.01734 0.0
C2174 C 0.79977 0.21596 0.0653 0.0
C2175 C 0.80445 0.23193 0.93118 0.0
N2176 N 0.78029 0.19177 0.03454 0.0
N2177 N 0.79304 0.22199 0.94241 0.0
H2178 H 0.80559 0.56665 0.88466 0.0
H2179 H 0.76493 0.59262 0.08066 0.0
H2180 H 0.81848 0.59877 0.04287 0.0
H2181 H 0.75301 0.56723 0.87171 0.0
H2182 H 0.78191 0.58877 0.10581 0.0
H2183 H 0.78423 0.56138 0.91455 0.0
C2184 C 0.80388 0.57242 0.92702 0.0
C2185 C 0.81368 0.58331 0.95983 0.0
C2186 C 0.77545 0.58381 0.05553 0.0
C2187 C 0.78958 0.57729 0.99514 0.0
C2188 C 0.76578 0.58599 0.04144 0.0
C2189 C 0.75784 0.58038 0.97327 0.0
C2190 C 0.77738 0.5763 0.99918 0.0
C2191 C 0.75911 0.57178 0.92446 0.0
C2192 C 0.79176 0.56942 0.94405 0.0
C2193 C 0.81111 0.59046 0.01478 0.0
N2194 N 0.76897 0.57022 0.93694 0.0
N2195 N 0.79931 0.58738 0.03012 0.0
H2196 H 0.83552 0.73406 0.25455 0.0
H2197 H 0.90259 0.76298 0.44747 0.0
H2198 H 0.8487 0.76073 0.456 0.0
H2199 H 0.8847 0.73096 0.28718 0.0
H2200 H 0.88593 0.76741 0.41662 0.0
H2201 H 0.85655 0.73861 0.22837 0.0
C2202 C 0.84296 0.74108 0.29205 0.0
C2203 C 0.84051 0.74688 0.35843 0.0
C2204 C 0.88584 0.75959 0.38676 0.0
C2205 C 0.8644 0.7518 0.3314 0.0
C2206 C 0.8953 0.75708 0.40428 0.0
C2207 C 0.89473 0.74644 0.37126 0.0
C2208 C 0.87598 0.75145 0.3352 0.0
C2209 C 0.88524 0.73909 0.31534 0.0
C2210 C 0.85493 0.74367 0.27732 0.0
C2211 C 0.85034 0.75601 0.40478 0.0
N2212 N 0.87617 0.74166 0.29972 0.0
N2213 N 0.86192 0.75799 0.39189 0.0
H2214 H 0.25648 0.09984 0.24018 0.0
H2215 H 0.22933 0.1389 0.44593 0.0
H2216 H 0.23001 0.08626 0.4428 0.0
H2217 H 0.26281 0.15304 0.30098 0.0
H2218 H 0.22424 0.11781 0.40808 0.0
H2219 H 0.25275 0.117 0.22059 0.0
C2220 C 0.24963 0.10036 0.27901 0.0
C2221 C 0.24369 0.0919 0.34409 0.0
C2222 C 0.23255 0.12557 0.38328 0.0
C2223 C 0.23974 0.11162 0.32462 0.0
C2224 C 0.23546 0.13754 0.4049 0.0
C2225 C 0.24664 0.14758 0.37807 0.0
C2226 C 0.24082 0.12382 0.3335 0.0
C2227 C 0.25426 0.14547 0.32457 0.0
C2228 C 0.24752 0.11013 0.26811 0.0
C2229 C 0.23481 0.09276 0.39244 0.0
N2230 N 0.25125 0.13381 0.30456 0.0
N2231 N 0.23332 0.10272 0.3833 0.0
H2232 H 0.83794 0.09886 0.24458 0.0
H2233 H 0.90428 0.13986 0.44075 0.0
H2234 H 0.85187 0.08706 0.45138 0.0
H2235 H 0.8856 0.15221 0.27283 0.0
H2236 H 0.88851 0.1184 0.41037 0.0
H2237 H 0.85874 0.11571 0.21661 0.0
C2238 C 0.8455 0.09971 0.28275 0.0
C2239 C 0.84332 0.09185 0.35112 0.0
C2240 C 0.88807 0.12582 0.37871 0.0
C2241 C 0.86693 0.11126 0.3222 0.0
C2242 C 0.89702 0.13801 0.39601 0.0
C2243 C 0.89594 0.14767 0.36076 0.0
C2244 C 0.87818 0.12347 0.32522 0.0
C2245 C 0.88651 0.14494 0.3028 0.0
C2246 C 0.85735 0.10931 0.26705 0.0
C2247 C 0.85331 0.09311 0.39854 0.0
N2248 N 0.87791 0.13308 0.28752 0.0
N2249 N 0.86472 0.10292 0.38464 0.0
H2250 H 0.0614 0.5571 0.40546 0.0
H2251 H 0.0902 0.51814 0.22614 0.0
H2252 H 0.09016 0.5709 0.21803 0.0
H2253 H 0.05734 0.50431 0.37772 0.0
H2254 H 0.09492 0.53929 0.25731 0.0
H2255 H 0.065 0.54006 0.43379 0.0
C2256 C 0.06864 0.5566 0.37142 0.0
C2257 C 0.07532 0.56513 0.30819 0.0
C2258 C 0.08683 0.53161 0.28514 0.0
C2259 C 0.0792 0.54552 0.33766 0.0
C2260 C 0.08415 0.51959 0.26739 0.0
C2261 C 0.07321 0.5096 0.29772 0.0
C2262 C 0.07855 0.53346 0.33417 0.0
C2263 C 0.0657 0.51184 0.35139 0.0
C2264 C 0.0707 0.5469 0.38743 0.0
C2265 C 0.08475 0.56432 0.2666 0.0
N2266 N 0.06845 0.52353 0.36719 0.0
N2267 N 0.08621 0.55443 0.28046 0.0
H2268 H 0.48804 0.56461 0.41451 0.0
H2269 H 0.44104 0.50675 0.37879 0.0
H2270 H 0.47406 0.56926 0.17731 0.0
H2271 H 0.42111 0.52058 0.23745 0.0
H2272 H 0.45735 0.52772 0.40438 0.0
H2273 H 0.46746 0.54771 0.44991 0.0
C2274 C 0.48051 0.56217 0.37082 0.0
C2275 C 0.4826 0.56803 0.2926 0.0
C2276 C 0.44925 0.52629 0.37038 0.0
C2277 C 0.45944 0.54845 0.32973 0.0
C2278 C 0.44003 0.51428 0.3547 0.0
C2279 C 0.42989 0.51203 0.30493 0.0
C2280 C 0.44844 0.53612 0.33458 0.0
C2281 C 0.42888 0.52203 0.27575 0.0
C2282 C 0.46884 0.55249 0.39045 0.0
C2283 C 0.47269 0.56476 0.23794 0.0
N2284 N 0.43826 0.53371 0.28905 0.0
N2285 N 0.4615 0.55495 0.25678 0.0
H2286 H 0.47221 0.89908 0.22786 0.0
H2287 H 0.43391 0.92899 0.40151 0.0
H2288 H 0.48642 0.9324 0.37484 0.0
H2289 H 0.42025 0.90068 0.21082 0.0
H2290 H 0.45062 0.92494 0.43159 0.0
H2291 H 0.45115 0.89478 0.25724 0.0
C2292 C 0.47085 0.90532 0.26778 0.0
C2293 C 0.48094 0.91626 0.29732 0.0
C2294 C 0.44387 0.91943 0.38417 0.0
C2295 C 0.45718 0.91138 0.33179 0.0
C2296 C 0.43436 0.92174 0.36716 0.0
C2297 C 0.42599 0.91533 0.30251 0.0
C2298 C 0.44521 0.91093 0.33408 0.0
C2299 C 0.42671 0.90589 0.2605 0.0
C2300 C 0.45889 0.90288 0.28449 0.0
C2301 C 0.47883 0.92403 0.3492 0.0
N2302 N 0.43643 0.90417 0.27546 0.0
N2303 N 0.46718 0.9215 0.36409 0.0
H2304 H 0.55439 0.06344 0.61273 0.0
H2305 H 0.51799 0.09552 0.77355 0.0
H2306 H 0.5698 0.09401 0.78628 0.0
H2307 H 0.50404 0.06484 0.60124 0.0
H2308 H 0.53895 0.09927 0.74923 0.0
H2309 H 0.53826 0.06805 0.57665 0.0
C2310 C 0.55439 0.07123 0.64249 0.0
C2311 C 0.56314 0.07819 0.70386 0.0
C2312 C 0.53134 0.09193 0.71502 0.0
C2313 C 0.54457 0.08333 0.66523 0.0
C2314 C 0.51943 0.08984 0.72874 0.0
C2315 C 0.5094 0.0797 0.69077 0.0
C2316 C 0.53304 0.08381 0.66301 0.0
C2317 C 0.5116 0.07258 0.63308 0.0
C2318 C 0.54523 0.0739 0.62183 0.0
C2319 C 0.56302 0.08835 0.73944 0.0
N2320 N 0.52317 0.07467 0.62184 0.0
N2321 N 0.55363 0.09045 0.72123 0.0
H2322 H 0.92332 0.43391 0.59204 0.0
H2323 H 0.89547 0.47344 0.77863 0.0
H2324 H 0.89527 0.42043 0.78435 0.0
H2325 H 0.92955 0.48733 0.64102 0.0
H2326 H 0.89044 0.45231 0.7433 0.0
H2327 H 0.92005 0.45127 0.56748 0.0
C2328 C 0.91625 0.43451 0.62759 0.0
C2329 C 0.90971 0.42601 0.69129 0.0
C2330 C 0.89889 0.46002 0.71953 0.0
C2331 C 0.90625 0.44595 0.66619 0.0
C2332 C 0.90175 0.47202 0.73972 0.0
C2333 C 0.91307 0.48201 0.71439 0.0
C2334 C 0.90734 0.45817 0.67277 0.0
C2335 C 0.92088 0.4798 0.66354 0.0
C2336 C 0.9144 0.44439 0.61384 0.0
C2337 C 0.90055 0.42697 0.73523 0.0
N2338 N 0.91792 0.46811 0.645 0.0
N2339 N 0.89929 0.43703 0.72347 0.0
H2340 H 0.55443 0.48813 0.58875 0.0
H2341 H 0.51714 0.42112 0.78314 0.0
H2342 H 0.56955 0.47432 0.77491 0.0
H2343 H 0.5022 0.43909 0.63116 0.0
H2344 H 0.53804 0.43762 0.74648 0.0
H2345 H 0.53746 0.46726 0.56585 0.0
C2346 C 0.55424 0.48059 0.62358 0.0
C2347 C 0.56313 0.48283 0.68495 0.0
C2348 C 0.53017 0.43777 0.71982 0.0
C2349 C 0.5436 0.4591 0.66184 0.0
C2350 C 0.5183 0.42841 0.74072 0.0
C2351 C 0.50807 0.42905 0.71178 0.0
C2352 C 0.53164 0.44761 0.66904 0.0
C2353 C 0.50992 0.43851 0.65649 0.0
C2354 C 0.54458 0.4687 0.61071 0.0
C2355 C 0.5627 0.47285 0.7277 0.0
N2356 N 0.52149 0.44749 0.6376 0.0
N2357 N 0.55285 0.46137 0.71703 0.0
H2358 H 0.73643 0.84214 0.76609 0.0
H2359 H 0.76022 0.9075 0.55556 0.0
H2360 H 0.76182 0.85551 0.55717 0.0
H2361 H 0.72885 0.88851 0.72043 0.0
H2362 H 0.7663 0.89212 0.5899 0.0
H2363 H 0.73975 0.86285 0.7877 0.0
C2364 C 0.74297 0.84958 0.72626 0.0
C2365 C 0.74873 0.84724 0.6591 0.0
C2366 C 0.75826 0.89152 0.61989 0.0
C2367 C 0.75218 0.87071 0.6807 0.0
C2368 C 0.7548 0.90025 0.60032 0.0
C2369 C 0.74388 0.89898 0.63376 0.0
C2370 C 0.75079 0.88169 0.67401 0.0
C2371 C 0.73718 0.88956 0.69184 0.0
C2372 C 0.74484 0.86137 0.73826 0.0
C2373 C 0.75717 0.85708 0.60927 0.0
N2374 N 0.74068 0.88121 0.70952 0.0
N2375 N 0.75842 0.86841 0.61959 0.0
H2376 H 0.09861 0.83784 0.74006 0.0
H2377 H 0.13818 0.90573 0.56386 0.0
H2378 H 0.08647 0.85219 0.53782 0.0
H2379 H 0.1512 0.88697 0.72533 0.0
H2380 H 0.1169 0.88908 0.58859 0.0
H2381 H 0.11501 0.85867 0.77261 0.0
C2382 C 0.09932 0.84549 0.70364 0.0
C2383 C 0.09148 0.84343 0.63527 0.0
C2384 C 0.12442 0.8888 0.62012 0.0
C2385 C 0.11036 0.86712 0.66971 0.0
C2386 C 0.1365 0.89826 0.60611 0.0
C2387 C 0.14633 0.89744 0.64112 0.0
C2388 C 0.12233 0.87867 0.67014 0.0
C2389 C 0.14381 0.88771 0.69569 0.0
C2390 C 0.10864 0.85735 0.72205 0.0
C2391 C 0.09252 0.85353 0.59047 0.0
N2392 N 0.13205 0.87862 0.70783 0.0
N2393 N 0.10207 0.865 0.60706 0.0
H2394 H 0.15351 0.26174 0.73653 0.0
H2395 H 0.0855 0.23177 0.55804 0.0
H2396 H 0.13906 0.23314 0.54788 0.0
H2397 H 0.10444 0.26518 0.70424 0.0
H2398 H 0.10227 0.22753 0.58906 0.0
H2399 H 0.13275 0.25786 0.76382 0.0
C2400 C 0.14586 0.25448 0.70201 0.0
C2401 C 0.14788 0.24792 0.63874 0.0
C2402 C 0.10258 0.23563 0.61573 0.0
C2403 C 0.12426 0.24371 0.66713 0.0
C2404 C 0.09306 0.23804 0.5981 0.0
C2405 C 0.09386 0.24898 0.62702 0.0
C2406 C 0.11274 0.24417 0.66335 0.0
C2407 C 0.1037 0.2568 0.67909 0.0
C2408 C 0.13403 0.25226 0.71743 0.0
C2409 C 0.13776 0.23845 0.59651 0.0
N2410 N 0.11282 0.2543 0.69492 0.0
N2411 N 0.12633 0.23683 0.60988 0.0
H2412 H 0.09066 0.29412 0.85893 0.0
H2413 H 0.12675 0.36464 0.81122 0.0
H2414 H 0.10833 0.31083 0.62287 0.0
H2415 H 0.12667 0.34768 0.04858 0.0
H2416 H 0.12081 0.34517 0.73957 0.0
H2417 H 0.1044 0.31349 0.93115 0.0
C2418 C 0.09758 0.3018 0.82264 0.0
C2419 C 0.09826 0.30095 0.73478 0.0
C2420 C 0.12238 0.34581 0.80708 0.0
C2421 C 0.11378 0.32309 0.81637 0.0
C2422 C 0.12571 0.35688 0.84794 0.0
C2423 C 0.12703 0.3577 0.93594 0.0
C2424 C 0.12005 0.33544 0.85499 0.0
C2425 C 0.12568 0.34742 0.98059 0.0
C2426 C 0.10545 0.31281 0.86383 0.0
C2427 C 0.10746 0.31112 0.69071 0.0
N2428 N 0.12197 0.3366 0.93985 0.0
N2429 N 0.11468 0.32189 0.73172 0.0
H2430 H 0.64677 0.78198 0.07398 0.0
H2431 H 0.68553 0.80265 0.64775 0.0
H2432 H 0.63165 0.76692 0.82901 0.0
H2433 H 0.70036 0.79992 0.88762 0.0
H2434 H 0.66604 0.79715 0.71742 0.0
H2435 H 0.66649 0.79606 0.00696 0.0
C2436 C 0.64748 0.78189 0.00587 0.0
C2437 C 0.63765 0.77315 0.95687 0.0
C2438 C 0.67369 0.79807 0.75487 0.0
C2439 C 0.66005 0.78924 0.88057 0.0
C2440 C 0.68482 0.80124 0.71546 0.0
C2441 C 0.69449 0.80151 0.76193 0.0
C2442 C 0.67233 0.79536 0.84132 0.0
C2443 C 0.69305 0.7996 0.84938 0.0
C2444 C 0.65874 0.78988 0.96795 0.0
C2445 C 0.63908 0.7734 0.86902 0.0
N2446 N 0.68209 0.79647 0.88627 0.0
N2447 N 0.65015 0.78124 0.83359 0.0
H2448 H 0.19384 0.89825 0.87545 0.0
H2449 H 0.22848 0.86271 0.81961 0.0
H2450 H 0.19284 0.88117 0.63665 0.0
H2451 H 0.21136 0.86182 0.05796 0.0
H2452 H 0.21472 0.86851 0.74976 0.0
H2453 H 0.19931 0.88423 0.94508 0.0
C2454 C 0.19453 0.89139 0.83801 0.0
C2455 C 0.19307 0.89097 0.75015 0.0
C2456 C 0.21378 0.86674 0.81704 0.0
C2457 C 0.19952 0.87514 0.82878 0.0
C2458 C 0.22165 0.86348 0.85688 0.0
C2459 C 0.22115 0.86196 0.9447 0.0
C2460 C 0.20563 0.8688 0.86584 0.0
C2461 C 0.21208 0.86298 0.99009 0.0
C2462 C 0.19759 0.88336 0.87773 0.0
C2463 C 0.19396 0.88184 0.70456 0.0
N2464 N 0.20487 0.86665 0.95041 0.0
N2465 N 0.19744 0.87447 0.74414 0.0
H2466 H 0.29229 0.09513 0.1204 0.0
H2467 H 0.36161 0.13028 0.18836 0.0
H2468 H 0.30743 0.11185 0.36174 0.0
H2469 H 0.34635 0.13085 0.94532 0.0
H2470 H 0.34214 0.12557 0.25455 0.0
H2471 H 0.31171 0.10983 0.05327 0.0
C2472 C 0.29962 0.10207 0.15891 0.0
C2473 C 0.29838 0.10213 0.24679 0.0
C2474 C 0.34316 0.12707 0.18699 0.0
C2475 C 0.3206 0.11877 0.171 0.0
C2476 C 0.35424 0.12969 0.14924 0.0
C2477 C 0.35546 0.13069 0.06125 0.0
C2478 C 0.33318 0.12509 0.13597 0.0
C2479 C 0.34572 0.13001 0.0134 0.0
C2480 C 0.31066 0.1105 0.12061 0.0
C2481 C 0.30807 0.11141 0.2938 0.0
N2482 N 0.33483 0.1269 0.05116 0.0
N2483 N 0.31893 0.11917 0.25558 0.0
H2484 H 0.8583 0.22821 0.20523 0.0
H2485 H 0.89241 0.19297 0.13707 0.0
H2486 H 0.85711 0.21194 0.9628 0.0
H2487 H 0.87609 0.19194 0.37904 0.0
H2488 H 0.87789 0.19798 0.07036 0.0
H2489 H 0.86285 0.21335 0.27169 0.0
C2490 C 0.85872 0.22133 0.16633 0.0
C2491 C 0.85758 0.22143 0.07839 0.0
C2492 C 0.87726 0.19632 0.13776 0.0
C2493 C 0.863 0.20464 0.15341 0.0
C2494 C 0.88558 0.19353 0.17582 0.0
C2495 C 0.88559 0.19229 0.26373 0.0
C2496 C 0.86918 0.19823 0.18841 0.0
C2497 C 0.87647 0.19295 0.31106 0.0
C2498 C 0.86126 0.21281 0.20423 0.0
C2499 C 0.85806 0.21224 0.03083 0.0
N2500 N 0.86883 0.19622 0.27305 0.0
N2501 N 0.86108 0.2044 0.06871 0.0
H2502 H 0.77756 0.64419 0.95298 0.0
H2503 H 0.79696 0.68312 0.37797 0.0
H2504 H 0.76192 0.62939 0.19738 0.0
H2505 H 0.7953 0.69767 0.13439 0.0
H2506 H 0.79214 0.66367 0.31034 0.0
H2507 H 0.79197 0.66376 0.0202 0.0
C2508 C 0.7774 0.64493 0.02105 0.0
C2509 C 0.76837 0.63527 0.06972 0.0
C2510 C 0.79317 0.67126 0.27169 0.0
C2511 C 0.78484 0.6575 0.14625 0.0
C2512 C 0.79595 0.68236 0.30997 0.0
C2513 C 0.79625 0.6919 0.2617 0.0
C2514 C 0.79089 0.66982 0.18468 0.0
C2515 C 0.79489 0.69043 0.17394 0.0
C2516 C 0.7856 0.6561 0.05909 0.0
C2517 C 0.76859 0.63672 0.15755 0.0
N2518 N 0.79211 0.6795 0.1382 0.0
N2519 N 0.7766 0.64771 0.19306 0.0
H2520 H 0.87831 0.68408 0.37881 0.0
H2521 H 0.86098 0.64688 0.94581 0.0
H2522 H 0.89596 0.69993 0.14096 0.0
H2523 H 0.86024 0.63081 0.1883 0.0
H2524 H 0.86662 0.66639 0.01612 0.0
H2525 H 0.86457 0.66477 0.30608 0.0
C2526 C 0.87908 0.68362 0.31097 0.0
C2527 C 0.88843 0.69353 0.26589 0.0
C2528 C 0.86493 0.65848 0.05384 0.0
C2529 C 0.87272 0.67158 0.18299 0.0
C2530 C 0.86167 0.64735 0.01403 0.0
C2531 C 0.86036 0.6373 0.06142 0.0
C2532 C 0.86667 0.65946 0.14148 0.0
C2533 C 0.86138 0.63842 0.1495 0.0
C2534 C 0.87127 0.67259 0.26979 0.0
C2535 C 0.88901 0.69242 0.17816 0.0
N2536 N 0.8646 0.64937 0.18678 0.0
N2537 N 0.88133 0.68156 0.13953 0.0
H2538 H 0.36324 0.23031 0.20291 0.0
H2539 H 0.29289 0.19515 0.15063 0.0
H2540 H 0.34678 0.2129 0.96567 0.0
H2541 H 0.3093 0.19449 0.38874 0.0
H2542 H 0.31238 0.20082 0.08016 0.0
H2543 H 0.34374 0.21663 0.27381 0.0
C2544 C 0.35559 0.22345 0.16609 0.0
C2545 C 0.35655 0.22284 0.07828 0.0
C2546 C 0.31161 0.19914 0.14755 0.0
C2547 C 0.33426 0.20738 0.15835 0.0
C2548 C 0.30052 0.19596 0.18773 0.0
C2549 C 0.29956 0.19451 0.27562 0.0
C2550 C 0.32185 0.20121 0.19606 0.0
C2551 C 0.30968 0.19558 0.32082 0.0
C2552 C 0.3445 0.21561 0.20653 0.0
C2553 C 0.34641 0.21372 0.03351 0.0
N2554 N 0.32053 0.19917 0.28077 0.0
N2555 N 0.33556 0.20653 0.07377 0.0
H2556 H 0.7641 0.13057 0.18572 0.0
H2557 H 0.79646 0.0931 0.12442 0.0
H2558 H 0.77961 0.1301 0.94346 0.0
H2559 H 0.79939 0.11128 0.36181 0.0
H2560 H 0.79148 0.10749 0.05496 0.0
H2561 H 0.77797 0.12468 0.25273 0.0
C2562 C 0.77061 0.12949 0.14696 0.0
C2563 C 0.77061 0.13065 0.05898 0.0
C2564 C 0.79352 0.10852 0.12187 0.0
C2565 C 0.78624 0.12368 0.13462 0.0
C2566 C 0.79631 0.10028 0.16152 0.0
C2567 C 0.79814 0.1009 0.24907 0.0
C2568 C 0.79224 0.11716 0.17066 0.0
C2569 C 0.79795 0.11044 0.29418 0.0
C2570 C 0.77855 0.12618 0.18515 0.0
C2571 C 0.77929 0.12924 0.01154 0.0
N2572 N 0.79472 0.11802 0.2548 0.0
N2573 N 0.78655 0.1255 0.04976 0.0
H2574 H 0.69555 0.89495 0.85942 0.0
H2575 H 0.63949 0.85599 0.03332 0.0
H2576 H 0.67952 0.87887 0.61841 0.0
H2577 H 0.6275 0.86305 0.79473 0.0
H2578 H 0.65918 0.86108 0.96869 0.0
H2579 H 0.67625 0.8804 0.92814 0.0
C2580 C 0.68807 0.88812 0.82133 0.0
C2581 C 0.68904 0.8882 0.7332 0.0
C2582 C 0.65215 0.86134 0.93043 0.0
C2583 C 0.66697 0.87158 0.81096 0.0
C2584 C 0.64088 0.85835 0.96691 0.0
C2585 C 0.63199 0.85946 0.9198 0.0
C2586 C 0.65446 0.86539 0.84643 0.0
C2587 C 0.63424 0.8624 0.83383 0.0
C2588 C 0.67709 0.87973 0.86059 0.0
C2589 C 0.67911 0.87914 0.6866 0.0
N2590 N 0.64534 0.86542 0.80008 0.0
N2591 N 0.66833 0.87142 0.72587 0.0
H2592 H 0.13372 0.78166 0.03142 0.0
H2593 H 0.09481 0.79876 0.85818 0.0
H2594 H 0.127 0.76306 0.79127 0.0
H2595 H 0.11116 0.79932 0.61729 0.0
H2596 H 0.10943 0.7941 0.92668 0.0
H2597 H 0.12876 0.79641 0.96759 0.0
C2598 C 0.13148 0.78083 0.96483 0.0
C2599 C 0.1304 0.7709 0.91702 0.0
C2600 C 0.11014 0.7957 0.85923 0.0
C2601 C 0.12462 0.7876 0.84459 0.0
C2602 C 0.10171 0.79824 0.82008 0.0
C2603 C 0.10168 0.79924 0.732 0.0
C2604 C 0.11839 0.79391 0.80955 0.0
C2605 C 0.11084 0.79854 0.68542 0.0
C2606 C 0.12857 0.7892 0.92881 0.0
C2607 C 0.12762 0.77039 0.83088 0.0
N2608 N 0.11861 0.79554 0.72456 0.0
N2609 N 0.12465 0.77853 0.79758 0.0
H2610 H 0.21255 0.34839 0.05115 0.0
H2611 H 0.19355 0.31097 0.61954 0.0
H2612 H 0.2288 0.36397 0.80949 0.0
H2613 H 0.19396 0.29525 0.86116 0.0
H2614 H 0.19881 0.33035 0.69013 0.0
H2615 H 0.1982 0.32909 0.98058 0.0
C2616 C 0.21288 0.34787 0.98302 0.0
C2617 C 0.22203 0.35767 0.93605 0.0
C2618 C 0.19743 0.32253 0.72764 0.0
C2619 C 0.20564 0.33577 0.8557 0.0
C2620 C 0.1944 0.31148 0.68767 0.0
C2621 C 0.19359 0.3016 0.73463 0.0
C2622 C 0.19946 0.3236 0.81499 0.0
C2623 C 0.19476 0.30274 0.82263 0.0
C2624 C 0.20472 0.33686 0.94306 0.0
C2625 C 0.22203 0.35652 0.84804 0.0
N2626 N 0.19779 0.31363 0.86004 0.0
N2627 N 0.21404 0.34568 0.81063 0.0
H2628 H 0.02635 0.46299 0.52072 0.0
H2629 H 0.95644 0.42583 0.46413 0.0
H2630 H 0.01004 0.46219 0.27917 0.0
H2631 H 0.97218 0.44411 0.70047 0.0
H2632 H 0.9757 0.44012 0.39315 0.0
H2633 H 0.00674 0.45737 0.58894 0.0
C2634 C 0.01871 0.46187 0.48234 0.0
C2635 C 0.01972 0.46285 0.39425 0.0
C2636 C 0.97481 0.4412 0.46019 0.0
C2637 C -0.0027 0.45622 0.47129 0.0
C2638 C 0.96386 0.43301 0.5007 0.0
C2639 C 0.96282 0.43367 0.58839 0.0
C2640 C 0.98485 0.44983 0.50823 0.0
C2641 C 0.97265 0.44323 0.63278 0.0
C2642 C 0.00755 0.45873 0.52122 0.0
C2643 C 0.0096 0.46144 0.34732 0.0
N2644 N 0.9834 0.45075 0.59254 0.0
N2645 N -0.00132 0.45787 0.38625 0.0
H2646 H 0.56373 0.53077 0.45825 0.0
H2647 H 0.52888 0.56583 0.51943 0.0
H2648 H 0.5467 0.52936 0.698 0.0
H2649 H 0.52723 0.54859 0.28019 0.0
H2650 H 0.53443 0.55178 0.58785 0.0
H2651 H 0.54972 0.5364 0.39019 0.0
C2652 C 0.55688 0.5314 0.4962 0.0
C2653 C 0.55647 0.52977 0.5839 0.0
C2654 C 0.53253 0.55087 0.52072 0.0
C2655 C 0.54065 0.5364 0.50708 0.0
C2656 C 0.52941 0.5589 0.48172 0.0
C2657 C 0.52776 0.55845 0.39403 0.0
C2658 C 0.53435 0.54263 0.47117 0.0
C2659 C 0.52848 0.54926 0.34799 0.0
C2660 C 0.54886 0.53455 0.45738 0.0
C2661 C 0.54736 0.5306 0.63019 0.0
N2662 N 0.53205 0.54191 0.3868 0.0
N2663 N 0.54 0.53417 0.59151 0.0
H2664 H 0.44561 0.97755 0.2777 0.0
H2665 H 0.46342 0.03343 0.46054 0.0
H2666 H 0.42719 0.96501 0.51792 0.0
H2667 H 0.46406 0.01669 0.69717 0.0
H2668 H 0.45815 0.01422 0.38828 0.0
H2669 H 0.46022 -0.00279 0.34286 0.0
C2670 C 0.44478 0.97882 0.34451 0.0
C2671 C 0.43497 0.96977 0.39212 0.0
C2672 C 0.45988 0.01488 0.45556 0.0
C2673 C 0.45152 0.99219 0.46613 0.0
C2674 C 0.46278 0.02581 0.49687 0.0
C2675 C 0.46401 0.02657 0.58492 0.0
C2676 C 0.45797 0.00461 0.50308 0.0
C2677 C 0.46314 0.01646 0.62914 0.0
C2678 C 0.45306 0.99007 0.3813 0.0
C2679 C 0.43444 0.97187 0.47853 0.0
N2680 N 0.4598 0.00575 0.58799 0.0
N2681 N 0.44252 0.98295 0.51265 0.0
H2682 H 0.56495 0.03212 0.47856 0.0
H2683 H 0.52975 0.96166 0.52819 0.0
H2684 H 0.5477 0.0155 0.71578 0.0
H2685 H 0.52891 0.9783 0.29151 0.0
H2686 H 0.53563 0.98114 0.59968 0.0
H2687 H 0.55128 0.01265 0.40731 0.0
C2688 C 0.55812 0.02444 0.5153 0.0
C2689 C 0.55754 0.02535 0.60317 0.0
C2690 C 0.53387 0.98042 0.53239 0.0
C2691 C 0.54212 0.00308 0.52273 0.0
C2692 C 0.53058 0.96934 0.49162 0.0
C2693 C 0.52901 0.96844 0.4038 0.0
C2694 C 0.53592 0.9907 0.48454 0.0
C2695 C 0.53009 0.97863 0.35934 0.0
C2696 C 0.5503 0.01336 0.47467 0.0
C2697 C 0.54847 0.01516 0.64789 0.0
N2698 N 0.53378 0.98945 0.39993 0.0
N2699 N 0.5413 0.00433 0.60742 0.0
H2700 H 0.9744 0.5269 0.72378 0.0
H2701 H 0.02981 0.56668 0.53752 0.0
H2702 H 0.96078 0.53306 0.48901 0.0
H2703 H 0.01267 0.54944 0.30139 0.0
H2704 H 0.01066 0.55272 0.6108 0.0
H2705 H 0.99414 0.53313 0.6555 0.0
C2706 C 0.97546 0.52932 0.65745 0.0
C2707 C 0.96603 0.52975 0.6124 0.0
C2708 C 0.01122 0.55172 0.54333 0.0
C2709 C 0.98857 0.53698 0.53485 0.0
C2710 C 0.0221 0.55975 0.50147 0.0
C2711 C 0.02276 0.55926 0.41336 0.0
C2712 C 0.00089 0.54333 0.49634 0.0
C2713 C 0.01253 0.55012 0.36947 0.0
C2714 C 0.98676 0.53297 0.61893 0.0
C2715 C 0.9679 0.53285 0.52649 0.0
N2716 N 0.00188 0.54271 0.41123 0.0
N2717 N 0.97903 0.53647 0.49061 0.0
H2718 H 0.46395 0.44638 0.73121 0.0
H2719 H 0.42617 0.46406 0.53964 0.0
H2720 H 0.45863 0.42761 0.49291 0.0
H2721 H 0.44404 0.4643 0.30614 0.0
H2722 H 0.43965 0.45845 0.6149 0.0
H2723 H 0.45863 0.46061 0.66338 0.0
C2724 C 0.46189 0.44538 0.6643 0.0
C2725 C 0.46141 0.4356 0.61795 0.0
C2726 C 0.44092 0.46015 0.54764 0.0
C2727 C 0.45523 0.45173 0.54089 0.0
C2728 C 0.43315 0.46323 0.50462 0.0
C2729 C 0.43392 0.4645 0.41659 0.0
C2730 C 0.44932 0.4581 0.50187 0.0
C2731 C 0.44313 0.46337 0.37409 0.0
C2732 C 0.45877 0.45345 0.626 0.0
C2733 C 0.45882 0.43485 0.53134 0.0
N2734 N 0.45026 0.45989 0.41692 0.0
N2735 N 0.4557 0.44274 0.49569 0.0
loop_
_geom_bond_atom_site_label_1
_geom_bond_atom_site_label_2
_geom_bond_distance
_geom_bond_site_symmetry_2
_ccdc_geom_bond_type
Sc0 O3 2.025 . S
Sc0 O10 2.105 . S
Sc0 O13 2.105 . S
Sc0 O16 2.105 . S
Sc0 O19 2.105 . S
Sc1 O3 2.025 . S
Sc1 O11 2.105 . S
Sc1 O15 2.105 1_554 S
Sc1 O17 2.105 1_554 S
Sc1 O21 2.105 . S
Sc2 O3 2.025 . S
Sc2 O12 2.105 . S
Sc2 O14 2.105 . S
Sc2 O18 2.105 1_554 S
Sc2 O20 2.105 . S
O3 Sc0 2.025 . S
O3 Sc1 2.025 . S
O3 Sc2 2.025 . S
C4 O10 1.268 . S
C4 O20 1.268 . S
C5 O11 1.268 . S
C5 O19 1.268 . S
C6 O12 1.268 . S
C6 O21 1.268 . S
C7 O13 1.268 1_556 S
C7 O17 1.268 . S
C8 O14 1.268 . S
C8 O16 1.268 . S
C9 O15 1.268 . S
C9 O18 1.268 . S
O10 Sc0 2.105 . S
O10 C4 1.268 . S
O11 Sc1 2.105 . S
O11 C5 1.268 . S
O12 Sc2 2.105 . S
O12 C6 1.268 . S
O13 Sc0 2.105 . S
O13 C7 1.268 1_554 S
O14 Sc2 2.105 . S
O14 C8 1.268 . S
O15 Sc1 2.105 1_556 S
O15 C9 1.268 . S
O16 Sc0 2.105 . S
O16 C8 1.268 . S
O17 Sc1 2.105 1_556 S
O17 C7 1.268 . S
O18 Sc2 2.105 1_556 S
O18 C9 1.268 . S
O19 Sc0 2.105 . S
O19 C5 1.268 . S
O20 Sc2 2.105 . S
O20 C4 1.268 . S
O21 Sc1 2.105 . S
O21 C6 1.268 . S
Sc22 O25 2.025 . S
Sc22 O32 2.105 . S
Sc22 O35 2.105 . S
Sc22 O38 2.105 . S
Sc22 O41 2.105 . S
Sc23 O25 2.025 . S
Sc23 O33 2.105 . S
Sc23 O37 2.105 1_554 S
Sc23 O39 2.105 1_554 S
Sc23 O43 2.105 . S
Sc24 O25 2.025 . S
Sc24 O34 2.105 . S
Sc24 O36 2.105 . S
Sc24 O40 2.105 1_554 S
Sc24 O42 2.105 . S
O25 Sc22 2.025 . S
O25 Sc23 2.025 . S
O25 Sc24 2.025 . S
C26 O32 1.268 . S
C26 O42 1.268 . S
C27 O33 1.268 . S
C27 O41 1.268 . S
C28 O34 1.268 . S
C28 O43 1.268 . S
C29 O35 1.268 1_556 S
C29 O39 1.268 . S
C30 O36 1.268 . S
C30 O38 1.268 . S
C31 O37 1.268 . S
C31 O40 1.268 . S
O32 Sc22 2.105 . S
O32 C26 1.268 . S
O33 Sc23 2.105 . S
O33 C27 1.268 . S
O34 Sc24 2.105 . S
O34 C28 1.268 . S
O35 Sc22 2.105 . S
O35 C29 1.268 1_554 S
O36 Sc24 2.105 . S
O36 C30 1.268 . S
O37 Sc23 2.105 1_556 S
O37 C31 1.268 . S
O38 Sc22 2.105 . S
O38 C30 1.268 . S
O39 Sc23 2.105 1_556 S
O39 C29 1.268 . S
O40 Sc24 2.105 1_556 S
O40 C31 1.268 . S
O41 Sc22 2.105 . S
O41 C27 1.268 . S
O42 Sc24 2.105 . S
O42 C26 1.268 . S
O43 Sc23 2.105 . S
O43 C28 1.268 . S
Sc44 O47 2.025 . S
Sc44 O54 2.105 . S
Sc44 O57 2.105 . S
Sc44 O60 2.105 . S
Sc44 O63 2.105 . S
Sc45 O47 2.025 . S
Sc45 O55 2.105 . S
Sc45 O59 2.105 1_554 S
Sc45 O61 2.105 1_554 S
Sc45 O65 2.105 . S
Sc46 O47 2.025 . S
Sc46 O56 2.105 . S
Sc46 O58 2.105 . S
Sc46 O62 2.105 1_554 S
Sc46 O64 2.105 . S
O47 Sc44 2.025 . S
O47 Sc45 2.025 . S
O47 Sc46 2.025 . S
C48 O54 1.268 . S
C48 O64 1.268 . S
C49 O55 1.268 . S
C49 O63 1.268 . S
C50 O56 1.268 . S
C50 O65 1.268 . S
C51 O57 1.268 1_556 S
C51 O61 1.268 . S
C52 O58 1.268 . S
C52 O60 1.268 . S
C53 O59 1.268 . S
C53 O62 1.268 . S
O54 Sc44 2.105 . S
O54 C48 1.268 . S
O55 Sc45 2.105 . S
O55 C49 1.268 . S
O56 Sc46 2.105 . S
O56 C50 1.268 . S
O57 Sc44 2.105 . S
O57 C51 1.268 1_554 S
O58 Sc46 2.105 . S
O58 C52 1.268 . S
O59 Sc45 2.105 1_556 S
O59 C53 1.268 . S
O60 Sc44 2.105 . S
O60 C52 1.268 . S
O61 Sc45 2.105 1_556 S
O61 C51 1.268 . S
O62 Sc46 2.105 1_556 S
O62 C53 1.268 . S
O63 Sc44 2.105 . S
O63 C49 1.268 . S
O64 Sc46 2.105 . S
O64 C48 1.268 . S
O65 Sc45 2.105 . S
O65 C50 1.268 . S
Sc66 O69 2.025 . S
Sc66 O76 2.105 . S
Sc66 O79 2.105 . S
Sc66 O82 2.105 . S
Sc66 O85 2.105 . S
Sc67 O69 2.025 . S
Sc67 O77 2.105 . S
Sc67 O81 2.105 1_556 S
Sc67 O83 2.105 1_556 S
Sc67 O87 2.105 . S
Sc68 O69 2.025 . S
Sc68 O78 2.105 . S
Sc68 O80 2.105 . S
Sc68 O84 2.105 1_556 S
Sc68 O86 2.105 . S
O69 Sc66 2.025 . S
O69 Sc67 2.025 . S
O69 Sc68 2.025 . S
C70 O76 1.268 . S
C70 O86 1.268 . S
C71 O77 1.268 . S
C71 O85 1.268 . S
C72 O78 1.268 . S
C72 O87 1.268 . S
C73 O79 1.268 1_554 S
C73 O83 1.268 . S
C74 O80 1.268 . S
C74 O82 1.268 . S
C75 O81 1.268 . S
C75 O84 1.268 . S
O76 Sc66 2.105 . S
O76 C70 1.268 . S
O77 Sc67 2.105 . S
O77 C71 1.268 . S
O78 Sc68 2.105 . S
O78 C72 1.268 . S
O79 Sc66 2.105 . S
O79 C73 1.268 1_556 S
O80 Sc68 2.105 . S
O80 C74 1.268 . S
O81 Sc67 2.105 1_554 S
O81 C75 1.268 . S
O82 Sc66 2.105 . S
O82 C74 1.268 . S
O83 Sc67 2.105 1_554 S
O83 C73 1.268 . S
O84 Sc68 2.105 1_554 S
O84 C75 1.268 . S
O85 Sc66 2.105 . S
O85 C71 1.268 . S
O86 Sc68 2.105 . S
O86 C70 1.268 . S
O87 Sc67 2.105 . S
O87 C72 1.268 . S
Sc88 O91 2.025 . S
Sc88 O98 2.105 . S
Sc88 O101 2.105 . S
Sc88 O104 2.105 . S
Sc88 O107 2.105 . S
Sc89 O91 2.025 . S
Sc89 O99 2.105 . S
Sc89 O103 2.105 1_556 S
Sc89 O105 2.105 1_556 S
Sc89 O109 2.105 . S
Sc90 O91 2.025 . S
Sc90 O100 2.105 . S
Sc90 O102 2.105 . S
Sc90 O106 2.105 1_556 S
Sc90 O108 2.105 . S
O91 Sc88 2.025 . S
O91 Sc89 2.025 . S
O91 Sc90 2.025 . S
C92 O98 1.268 . S
C92 O108 1.268 . S
C93 O99 1.268 . S
C93 O107 1.268 . S
C94 O100 1.268 . S
C94 O109 1.268 . S
C95 O101 1.268 1_554 S
C95 O105 1.268 . S
C96 O102 1.268 . S
C96 O104 1.268 . S
C97 O103 1.268 . S
C97 O106 1.268 . S
O98 Sc88 2.105 . S
O98 C92 1.268 . S
O99 Sc89 2.105 . S
O99 C93 1.268 . S
O100 Sc90 2.105 . S
O100 C94 1.268 . S
O101 Sc88 2.105 . S
O101 C95 1.268 1_556 S
O102 Sc90 2.105 . S
O102 C96 1.268 . S
O103 Sc89 2.105 1_554 S
O103 C97 1.268 . S
O104 Sc88 2.105 . S
O104 C96 1.268 . S
O105 Sc89 2.105 1_554 S
O105 C95 1.268 . S
O106 Sc90 2.105 1_554 S
O106 C97 1.268 . S
O107 Sc88 2.105 . S
O107 C93 1.268 . S
O108 Sc90 2.105 . S
O108 C92 1.268 . S
O109 Sc89 2.105 . S
O109 C94 1.268 . S
Sc110 O113 2.025 . S
Sc110 O120 2.105 . S
Sc110 O123 2.105 . S
Sc110 O126 2.105 . S
Sc110 O129 2.105 . S
Sc111 O113 2.025 . S
Sc111 O121 2.105 . S
Sc111 O125 2.105 1_556 S
Sc111 O127 2.105 1_556 S
Sc111 O131 2.105 . S
Sc112 O113 2.025 . S
Sc112 O122 2.105 . S
Sc112 O124 2.105 . S
Sc112 O128 2.105 1_556 S
Sc112 O130 2.105 . S
O113 Sc110 2.025 . S
O113 Sc111 2.025 . S
O113 Sc112 2.025 . S
C114 O120 1.268 . S
C114 O130 1.268 . S
C115 O121 1.268 . S
C115 O129 1.268 . S
C116 O122 1.268 . S
C116 O131 1.268 . S
C117 O123 1.268 1_554 S
C117 O127 1.268 . S
C118 O124 1.268 . S
C118 O126 1.268 . S
C119 O125 1.268 . S
C119 O128 1.268 . S
O120 Sc110 2.105 . S
O120 C114 1.268 . S
O121 Sc111 2.105 . S
O121 C115 1.268 . S
O122 Sc112 2.105 . S
O122 C116 1.268 . S
O123 Sc110 2.105 . S
O123 C117 1.268 1_556 S
O124 Sc112 2.105 . S
O124 C118 1.268 . S
O125 Sc111 2.105 1_554 S
O125 C119 1.268 . S
O126 Sc110 2.105 . S
O126 C118 1.268 . S
O127 Sc111 2.105 1_554 S
O127 C117 1.268 . S
O128 Sc112 2.105 1_554 S
O128 C119 1.268 . S
O129 Sc110 2.105 . S
O129 C115 1.268 . S
O130 Sc112 2.105 . S
O130 C114 1.268 . S
O131 Sc111 2.105 . S
O131 C116 1.268 . S
Sc132 O135 2.025 . S
Sc132 O142 2.105 . S
Sc132 O145 2.105 1_556 S
Sc132 O148 2.105 . S
Sc132 O151 2.105 . S
Sc133 O135 2.025 . S
Sc133 O143 2.105 . S
Sc133 O147 2.105 1_556 S
Sc133 O149 2.105 1_556 S
Sc133 O153 2.105 . S
Sc134 O135 2.025 . S
Sc134 O144 2.105 . S
Sc134 O146 2.105 . S
Sc134 O150 2.105 . S
Sc134 O152 2.105 . S
O135 Sc132 2.025 . S
O135 Sc133 2.025 . S
O135 Sc134 2.025 . S
C136 O142 1.268 . S
C136 O152 1.268 . S
C137 O143 1.268 . S
C137 O151 1.268 . S
C138 O144 1.268 . S
C138 O153 1.268 . S
C139 O145 1.268 . S
C139 O149 1.268 . S
C140 O146 1.268 . S
C140 O148 1.268 . S
C141 O147 1.268 . S
C141 O150 1.268 1_554 S
O142 Sc132 2.105 . S
O142 C136 1.268 . S
O143 Sc133 2.105 . S
O143 C137 1.268 . S
O144 Sc134 2.105 . S
O144 C138 1.268 . S
O145 Sc132 2.105 1_554 S
O145 C139 1.268 . S
O146 Sc134 2.105 . S
O146 C140 1.268 . S
O147 Sc133 2.105 1_554 S
O147 C141 1.268 . S
O148 Sc132 2.105 . S
O148 C140 1.268 . S
O149 Sc133 2.105 1_554 S
O149 C139 1.268 . S
O150 Sc134 2.105 . S
O150 C141 1.268 1_556 S
O151 Sc132 2.105 . S
O151 C137 1.268 . S
O152 Sc134 2.105 . S
O152 C136 1.268 . S
O153 Sc133 2.105 . S
O153 C138 1.268 . S
Sc154 O157 2.025 . S
Sc154 O164 2.105 . S
Sc154 O167 2.105 1_556 S
Sc154 O170 2.105 . S
Sc154 O173 2.105 . S
Sc155 O157 2.025 . S
Sc155 O165 2.105 . S
Sc155 O169 2.105 1_556 S
Sc155 O171 2.105 1_556 S
Sc155 O175 2.105 . S
Sc156 O157 2.025 . S
Sc156 O166 2.105 . S
Sc156 O168 2.105 . S
Sc156 O172 2.105 . S
Sc156 O174 2.105 . S
O157 Sc154 2.025 . S
O157 Sc155 2.025 . S
O157 Sc156 2.025 . S
C158 O164 1.268 . S
C158 O174 1.268 . S
C159 O165 1.268 . S
C159 O173 1.268 . S
C160 O166 1.268 . S
C160 O175 1.268 . S
C161 O167 1.268 . S
C161 O171 1.268 . S
C162 O168 1.268 . S
C162 O170 1.268 . S
C163 O169 1.268 . S
C163 O172 1.268 1_554 S
O164 Sc154 2.105 . S
O164 C158 1.268 . S
O165 Sc155 2.105 . S
O165 C159 1.268 . S
O166 Sc156 2.105 . S
O166 C160 1.268 . S
O167 Sc154 2.105 1_554 S
O167 C161 1.268 . S
O168 Sc156 2.105 . S
O168 C162 1.268 . S
O169 Sc155 2.105 1_554 S
O169 C163 1.268 . S
O170 Sc154 2.105 . S
O170 C162 1.268 . S
O171 Sc155 2.105 1_554 S
O171 C161 1.268 . S
O172 Sc156 2.105 . S
O172 C163 1.268 1_556 S
O173 Sc154 2.105 . S
O173 C159 1.268 . S
O174 Sc156 2.105 . S
O174 C158 1.268 . S
O175 Sc155 2.105 . S
O175 C160 1.268 . S
Sc176 O179 2.025 . S
Sc176 O186 2.105 . S
Sc176 O189 2.105 1_556 S
Sc176 O192 2.105 . S
Sc176 O195 2.105 . S
Sc177 O179 2.025 . S
Sc177 O187 2.105 . S
Sc177 O191 2.105 1_556 S
Sc177 O193 2.105 1_556 S
Sc177 O197 2.105 . S
Sc178 O179 2.025 . S
Sc178 O188 2.105 . S
Sc178 O190 2.105 . S
Sc178 O194 2.105 . S
Sc178 O196 2.105 . S
O179 Sc176 2.025 . S
O179 Sc177 2.025 . S
O179 Sc178 2.025 . S
C180 O186 1.268 . S
C180 O196 1.268 . S
C181 O187 1.268 . S
C181 O195 1.268 . S
C182 O188 1.268 . S
C182 O197 1.268 . S
C183 O189 1.268 . S
C183 O193 1.268 . S
C184 O190 1.268 . S
C184 O192 1.268 . S
C185 O191 1.268 . S
C185 O194 1.268 1_554 S
O186 Sc176 2.105 . S
O186 C180 1.268 . S
O187 Sc177 2.105 . S
O187 C181 1.268 . S
O188 Sc178 2.105 . S
O188 C182 1.268 . S
O189 Sc176 2.105 1_554 S
O189 C183 1.268 . S
O190 Sc178 2.105 . S
O190 C184 1.268 . S
O191 Sc177 2.105 1_554 S
O191 C185 1.268 . S
O192 Sc176 2.105 . S
O192 C184 1.268 . S
O193 Sc177 2.105 1_554 S
O193 C183 1.268 . S
O194 Sc178 2.105 . S
O194 C185 1.268 1_556 S
O195 Sc176 2.105 . S
O195 C181 1.268 . S
O196 Sc178 2.105 . S
O196 C180 1.268 . S
O197 Sc177 2.105 . S
O197 C182 1.268 . S
Sc198 O201 2.025 . S
Sc198 O208 2.105 . S
Sc198 O211 2.105 1_554 S
Sc198 O214 2.105 . S
Sc198 O217 2.105 . S
Sc199 O201 2.025 . S
Sc199 O209 2.105 . S
Sc199 O213 2.105 1_554 S
Sc199 O215 2.105 1_554 S
Sc199 O219 2.105 . S
Sc200 O201 2.025 . S
Sc200 O210 2.105 . S
Sc200 O212 2.105 . S
Sc200 O216 2.105 . S
Sc200 O218 2.105 . S
O201 Sc198 2.025 . S
O201 Sc199 2.025 . S
O201 Sc200 2.025 . S
C202 O208 1.268 . S
C202 O218 1.268 . S
C203 O209 1.268 . S
C203 O217 1.268 . S
C204 O210 1.268 . S
C204 O219 1.268 . S
C205 O211 1.268 . S
C205 O215 1.268 . S
C206 O212 1.268 . S
C206 O214 1.268 . S
C207 O213 1.268 . S
C207 O216 1.268 1_556 S
O208 Sc198 2.105 . S
O208 C202 1.268 . S
O209 Sc199 2.105 . S
O209 C203 1.268 . S
O210 Sc200 2.105 . S
O210 C204 1.268 . S
O211 Sc198 2.105 1_556 S
O211 C205 1.268 . S
O212 Sc200 2.105 . S
O212 C206 1.268 . S
O213 Sc199 2.105 1_556 S
O213 C207 1.268 . S
O214 Sc198 2.105 . S
O214 C206 1.268 . S
O215 Sc199 2.105 1_556 S
O215 C205 1.268 . S
O216 Sc200 2.105 . S
O216 C207 1.268 1_554 S
O217 Sc198 2.105 . S
O217 C203 1.268 . S
O218 Sc200 2.105 . S
O218 C202 1.268 . S
O219 Sc199 2.105 . S
O219 C204 1.268 . S
Sc220 O223 2.025 . S
Sc220 O230 2.105 . S
Sc220 O233 2.105 1_554 S
Sc220 O236 2.105 . S
Sc220 O239 2.105 . S
Sc221 O223 2.025 . S
Sc221 O231 2.105 . S
Sc221 O235 2.105 1_554 S
Sc221 O237 2.105 1_554 S
Sc221 O241 2.105 . S
Sc222 O223 2.025 . S
Sc222 O232 2.105 . S
Sc222 O234 2.105 . S
Sc222 O238 2.105 . S
Sc222 O240 2.105 . S
O223 Sc220 2.025 . S
O223 Sc221 2.025 . S
O223 Sc222 2.025 . S
C224 O230 1.268 . S
C224 O240 1.268 . S
C225 O231 1.268 . S
C225 O239 1.268 . S
C226 O232 1.268 . S
C226 O241 1.268 . S
C227 O233 1.268 . S
C227 O237 1.268 . S
C228 O234 1.268 . S
C228 O236 1.268 . S
C229 O235 1.268 . S
C229 O238 1.268 1_556 S
O230 Sc220 2.105 . S
O230 C224 1.268 . S
O231 Sc221 2.105 . S
O231 C225 1.268 . S
O232 Sc222 2.105 . S
O232 C226 1.268 . S
O233 Sc220 2.105 1_556 S
O233 C227 1.268 . S
O234 Sc222 2.105 . S
O234 C228 1.268 . S
O235 Sc221 2.105 1_556 S
O235 C229 1.268 . S
O236 Sc220 2.105 . S
O236 C228 1.268 . S
O237 Sc221 2.105 1_556 S
O237 C227 1.268 . S
O238 Sc222 2.105 . S
O238 C229 1.268 1_554 S
O239 Sc220 2.105 . S
O239 C225 1.268 . S
O240 Sc222 2.105 . S
O240 C224 1.268 . S
O241 Sc221 2.105 . S
O241 C226 1.268 . S
Sc242 O245 2.025 . S
Sc242 O252 2.105 . S
Sc242 O255 2.105 1_554 S
Sc242 O258 2.105 . S
Sc242 O261 2.105 . S
Sc243 O245 2.025 . S
Sc243 O253 2.105 . S
Sc243 O257 2.105 1_554 S
Sc243 O259 2.105 1_554 S
Sc243 O263 2.105 . S
Sc244 O245 2.025 . S
Sc244 O254 2.105 . S
Sc244 O256 2.105 . S
Sc244 O260 2.105 . S
Sc244 O262 2.105 . S
O245 Sc242 2.025 . S
O245 Sc243 2.025 . S
O245 Sc244 2.025 . S
C246 O252 1.268 . S
C246 O262 1.268 . S
C247 O253 1.268 . S
C247 O261 1.268 . S
C248 O254 1.268 . S
C248 O263 1.268 . S
C249 O255 1.268 . S
C249 O259 1.268 . S
C250 O256 1.268 . S
C250 O258 1.268 . S
C251 O257 1.268 . S
C251 O260 1.268 1_556 S
O252 Sc242 2.105 . S
O252 C246 1.268 . S
O253 Sc243 2.105 . S
O253 C247 1.268 . S
O254 Sc244 2.105 . S
O254 C248 1.268 . S
O255 Sc242 2.105 1_556 S
O255 C249 1.268 . S
O256 Sc244 2.105 . S
O256 C250 1.268 . S
O257 Sc243 2.105 1_556 S
O257 C251 1.268 . S
O258 Sc242 2.105 . S
O258 C250 1.268 . S
O259 Sc243 2.105 1_556 S
O259 C249 1.268 . S
O260 Sc244 2.105 . S
O260 C251 1.268 1_554 S
O261 Sc242 2.105 . S
O261 C247 1.268 . S
O262 Sc244 2.105 . S
O262 C246 1.268 . S
O263 Sc243 2.105 . S
O263 C248 1.268 . S
Sc264 O267 2.025 . S
Sc264 O274 2.105 . S
Sc264 O277 2.105 . S
Sc264 O280 2.105 . S
Sc264 O283 2.105 . S
Sc265 O267 2.025 . S
Sc265 O275 2.105 . S
Sc265 O279 2.105 . S
Sc265 O281 2.105 . S
Sc265 O285 2.105 . S
Sc266 O267 2.025 . S
Sc266 O276 2.105 . S
Sc266 O278 2.105 . S
Sc266 O282 2.105 . S
Sc266 O284 2.105 . S
O267 Sc264 2.025 . S
O267 Sc265 2.025 . S
O267 Sc266 2.025 . S
C268 O274 1.268 . S
C268 O284 1.268 . S
C269 O275 1.268 . S
C269 O283 1.268 . S
C270 O276 1.268 . S
C270 O285 1.268 . S
C271 O277 1.268 . S
C271 O281 1.268 . S
C272 O278 1.268 . S
C272 O280 1.268 . S
C273 O279 1.268 . S
C273 O282 1.268 . S
O274 Sc264 2.105 . S
O274 C268 1.268 . S
O275 Sc265 2.105 . S
O275 C269 1.268 . S
O276 Sc266 2.105 . S
O276 C270 1.268 . S
O277 Sc264 2.105 . S
O277 C271 1.268 . S
O278 Sc266 2.105 . S
O278 C272 1.268 . S
O279 Sc265 2.105 . S
O279 C273 1.268 . S
O280 Sc264 2.105 . S
O280 C272 1.268 . S
O281 Sc265 2.105 . S
O281 C271 1.268 . S
O282 Sc266 2.105 . S
O282 C273 1.268 . S
O283 Sc264 2.105 . S
O283 C269 1.268 . S
O284 Sc266 2.105 . S
O284 C268 1.268 . S
O285 Sc265 2.105 . S
O285 C270 1.268 . S
Sc286 O289 2.025 . S
Sc286 O296 2.105 . S
Sc286 O299 2.105 . S
Sc286 O302 2.105 . S
Sc286 O305 2.105 . S
Sc287 O289 2.025 . S
Sc287 O297 2.105 . S
Sc287 O301 2.105 . S
Sc287 O303 2.105 . S
Sc287 O307 2.105 . S
Sc288 O289 2.025 . S
Sc288 O298 2.105 . S
Sc288 O300 2.105 . S
Sc288 O304 2.105 . S
Sc288 O306 2.105 . S
O289 Sc286 2.025 . S
O289 Sc287 2.025 . S
O289 Sc288 2.025 . S
C290 O296 1.268 . S
C290 O306 1.268 . S
C291 O297 1.268 . S
C291 O305 1.268 . S
C292 O298 1.268 . S
C292 O307 1.268 . S
C293 O299 1.268 . S
C293 O303 1.268 . S
C294 O300 1.268 . S
C294 O302 1.268 . S
C295 O301 1.268 . S
C295 O304 1.268 . S
O296 Sc286 2.105 . S
O296 C290 1.268 . S
O297 Sc287 2.105 . S
O297 C291 1.268 . S
O298 Sc288 2.105 . S
O298 C292 1.268 . S
O299 Sc286 2.105 . S
O299 C293 1.268 . S
O300 Sc288 2.105 . S
O300 C294 1.268 . S
O301 Sc287 2.105 . S
O301 C295 1.268 . S
O302 Sc286 2.105 . S
O302 C294 1.268 . S
O303 Sc287 2.105 . S
O303 C293 1.268 . S
O304 Sc288 2.105 . S
O304 C295 1.268 . S
O305 Sc286 2.105 . S
O305 C291 1.268 . S
O306 Sc288 2.105 . S
O306 C290 1.268 . S
O307 Sc287 2.105 . S
O307 C292 1.268 . S
Sc308 O311 2.025 . S
Sc308 O318 2.105 . S
Sc308 O321 2.105 . S
Sc308 O324 2.105 . S
Sc308 O327 2.105 . S
Sc309 O311 2.025 . S
Sc309 O319 2.105 . S
Sc309 O323 2.105 . S
Sc309 O325 2.105 . S
Sc309 O329 2.105 . S
Sc310 O311 2.025 . S
Sc310 O320 2.105 . S
Sc310 O322 2.105 . S
Sc310 O326 2.105 . S
Sc310 O328 2.105 . S
O311 Sc308 2.025 . S
O311 Sc309 2.025 . S
O311 Sc310 2.025 . S
C312 O318 1.268 . S
C312 O328 1.268 . S
C313 O319 1.268 . S
C313 O327 1.268 . S
C314 O320 1.268 . S
C314 O329 1.268 . S
C315 O321 1.268 . S
C315 O325 1.268 . S
C316 O322 1.268 . S
C316 O324 1.268 . S
C317 O323 1.268 . S
C317 O326 1.268 . S
O318 Sc308 2.105 . S
O318 C312 1.268 . S
O319 Sc309 2.105 . S
O319 C313 1.268 . S
O320 Sc310 2.105 . S
O320 C314 1.268 . S
O321 Sc308 2.105 . S
O321 C315 1.268 . S
O322 Sc310 2.105 . S
O322 C316 1.268 . S
O323 Sc309 2.105 . S
O323 C317 1.268 . S
O324 Sc308 2.105 . S
O324 C316 1.268 . S
O325 Sc309 2.105 . S
O325 C315 1.268 . S
O326 Sc310 2.105 . S
O326 C317 1.268 . S
O327 Sc308 2.105 . S
O327 C313 1.268 . S
O328 Sc310 2.105 . S
O328 C312 1.268 . S
O329 Sc309 2.105 . S
O329 C314 1.268 . S
Sc330 O333 2.025 . S
Sc330 O340 2.105 . S
Sc330 O343 2.105 . S
Sc330 O346 2.105 . S
Sc330 O349 2.105 . S
Sc331 O333 2.025 . S
Sc331 O341 2.105 . S
Sc331 O345 2.105 . S
Sc331 O347 2.105 . S
Sc331 O351 2.105 . S
Sc332 O333 2.025 . S
Sc332 O342 2.105 . S
Sc332 O344 2.105 . S
Sc332 O348 2.105 . S
Sc332 O350 2.105 . S
O333 Sc330 2.025 . S
O333 Sc331 2.025 . S
O333 Sc332 2.025 . S
C334 O340 1.268 . S
C334 O350 1.268 . S
C335 O341 1.268 . S
C335 O349 1.268 . S
C336 O342 1.268 . S
C336 O351 1.268 . S
C337 O343 1.268 . S
C337 O347 1.268 . S
C338 O344 1.268 . S
C338 O346 1.268 . S
C339 O345 1.268 . S
C339 O348 1.268 . S
O340 Sc330 2.105 . S
O340 C334 1.268 . S
O341 Sc331 2.105 . S
O341 C335 1.268 . S
O342 Sc332 2.105 . S
O342 C336 1.268 . S
O343 Sc330 2.105 . S
O343 C337 1.268 . S
O344 Sc332 2.105 . S
O344 C338 1.268 . S
O345 Sc331 2.105 . S
O345 C339 1.268 . S
O346 Sc330 2.105 . S
O346 C338 1.268 . S
O347 Sc331 2.105 . S
O347 C337 1.268 . S
O348 Sc332 2.105 . S
O348 C339 1.268 . S
O349 Sc330 2.105 . S
O349 C335 1.268 . S
O350 Sc332 2.105 . S
O350 C334 1.268 . S
O351 Sc331 2.105 . S
O351 C336 1.268 . S
Sc352 O355 2.025 . S
Sc352 O362 2.105 . S
Sc352 O365 2.105 . S
Sc352 O368 2.105 . S
Sc352 O371 2.105 . S
Sc353 O355 2.025 . S
Sc353 O363 2.105 . S
Sc353 O367 2.105 . S
Sc353 O369 2.105 . S
Sc353 O373 2.105 . S
Sc354 O355 2.025 . S
Sc354 O364 2.105 . S
Sc354 O366 2.105 . S
Sc354 O370 2.105 . S
Sc354 O372 2.105 . S
O355 Sc352 2.025 . S
O355 Sc353 2.025 . S
O355 Sc354 2.025 . S
C356 O362 1.268 . S
C356 O372 1.268 . S
C357 O363 1.268 . S
C357 O371 1.268 . S
C358 O364 1.268 . S
C358 O373 1.268 . S
C359 O365 1.268 . S
C359 O369 1.268 . S
C360 O366 1.268 . S
C360 O368 1.268 . S
C361 O367 1.268 . S
C361 O370 1.268 . S
O362 Sc352 2.105 . S
O362 C356 1.268 . S
O363 Sc353 2.105 . S
O363 C357 1.268 . S
O364 Sc354 2.105 . S
O364 C358 1.268 . S
O365 Sc352 2.105 . S
O365 C359 1.268 . S
O366 Sc354 2.105 . S
O366 C360 1.268 . S
O367 Sc353 2.105 . S
O367 C361 1.268 . S
O368 Sc352 2.105 . S
O368 C360 1.268 . S
O369 Sc353 2.105 . S
O369 C359 1.268 . S
O370 Sc354 2.105 . S
O370 C361 1.268 . S
O371 Sc352 2.105 . S
O371 C357 1.268 . S
O372 Sc354 2.105 . S
O372 C356 1.268 . S
O373 Sc353 2.105 . S
O373 C358 1.268 . S
Sc374 O377 2.025 . S
Sc374 O384 2.105 . S
Sc374 O387 2.105 . S
Sc374 O390 2.105 . S
Sc374 O393 2.105 . S
Sc375 O377 2.025 . S
Sc375 O385 2.105 . S
Sc375 O389 2.105 . S
Sc375 O391 2.105 . S
Sc375 O395 2.105 . S
Sc376 O377 2.025 . S
Sc376 O386 2.105 . S
Sc376 O388 2.105 . S
Sc376 O392 2.105 . S
Sc376 O394 2.105 . S
O377 Sc374 2.025 . S
O377 Sc375 2.025 . S
O377 Sc376 2.025 . S
C378 O384 1.268 . S
C378 O394 1.268 . S
C379 O385 1.268 . S
C379 O393 1.268 . S
C380 O386 1.268 . S
C380 O395 1.268 . S
C381 O387 1.268 . S
C381 O391 1.268 . S
C382 O388 1.268 . S
C382 O390 1.268 . S
C383 O389 1.268 . S
C383 O392 1.268 . S
O384 Sc374 2.105 . S
O384 C378 1.268 . S
O385 Sc375 2.105 . S
O385 C379 1.268 . S
O386 Sc376 2.105 . S
O386 C380 1.268 . S
O387 Sc374 2.105 . S
O387 C381 1.268 . S
O388 Sc376 2.105 . S
O388 C382 1.268 . S
O389 Sc375 2.105 . S
O389 C383 1.268 . S
O390 Sc374 2.105 . S
O390 C382 1.268 . S
O391 Sc375 2.105 . S
O391 C381 1.268 . S
O392 Sc376 2.105 . S
O392 C383 1.268 . S
O393 Sc374 2.105 . S
O393 C379 1.268 . S
O394 Sc376 2.105 . S
O394 C378 1.268 . S
O395 Sc375 2.105 . S
O395 C380 1.268 . S
Sc396 O399 2.025 . S
Sc396 O406 2.105 . S
Sc396 O409 2.105 . S
Sc396 O412 2.105 . S
Sc396 O415 2.105 . S
Sc397 O399 2.025 . S
Sc397 O407 2.105 . S
Sc397 O411 2.105 . S
Sc397 O413 2.105 . S
Sc397 O417 2.105 . S
Sc398 O399 2.025 . S
Sc398 O408 2.105 . S
Sc398 O410 2.105 . S
Sc398 O414 2.105 . S
Sc398 O416 2.105 . S
O399 Sc396 2.025 . S
O399 Sc397 2.025 . S
O399 Sc398 2.025 . S
C400 O406 1.268 . S
C400 O416 1.268 . S
C401 O407 1.268 . S
C401 O415 1.268 . S
C402 O408 1.268 . S
C402 O417 1.268 . S
C403 O409 1.268 . S
C403 O413 1.268 . S
C404 O410 1.268 . S
C404 O412 1.268 . S
C405 O411 1.268 . S
C405 O414 1.268 . S
O406 Sc396 2.105 . S
O406 C400 1.268 . S
O407 Sc397 2.105 . S
O407 C401 1.268 . S
O408 Sc398 2.105 . S
O408 C402 1.268 . S
O409 Sc396 2.105 . S
O409 C403 1.268 . S
O410 Sc398 2.105 . S
O410 C404 1.268 . S
O411 Sc397 2.105 . S
O411 C405 1.268 . S
O412 Sc396 2.105 . S
O412 C404 1.268 . S
O413 Sc397 2.105 . S
O413 C403 1.268 . S
O414 Sc398 2.105 . S
O414 C405 1.268 . S
O415 Sc396 2.105 . S
O415 C401 1.268 . S
O416 Sc398 2.105 . S
O416 C400 1.268 . S
O417 Sc397 2.105 . S
O417 C402 1.268 . S
Sc418 O421 2.025 . S
Sc418 O428 2.105 . S
Sc418 O431 2.105 . S
Sc418 O434 2.105 . S
Sc418 O437 2.105 . S
Sc419 O421 2.025 . S
Sc419 O429 2.105 . S
Sc419 O433 2.105 . S
Sc419 O435 2.105 . S
Sc419 O439 2.105 . S
Sc420 O421 2.025 . S
Sc420 O430 2.105 . S
Sc420 O432 2.105 . S
Sc420 O436 2.105 . S
Sc420 O438 2.105 . S
O421 Sc418 2.025 . S
O421 Sc419 2.025 . S
O421 Sc420 2.025 . S
C422 O428 1.268 . S
C422 O438 1.268 . S
C423 O429 1.268 . S
C423 O437 1.268 . S
C424 O430 1.268 . S
C424 O439 1.268 . S
C425 O431 1.268 . S
C425 O435 1.268 . S
C426 O432 1.268 . S
C426 O434 1.268 . S
C427 O433 1.268 . S
C427 O436 1.268 . S
O428 Sc418 2.105 . S
O428 C422 1.268 . S
O429 Sc419 2.105 . S
O429 C423 1.268 . S
O430 Sc420 2.105 . S
O430 C424 1.268 . S
O431 Sc418 2.105 . S
O431 C425 1.268 . S
O432 Sc420 2.105 . S
O432 C426 1.268 . S
O433 Sc419 2.105 . S
O433 C427 1.268 . S
O434 Sc418 2.105 . S
O434 C426 1.268 . S
O435 Sc419 2.105 . S
O435 C425 1.268 . S
O436 Sc420 2.105 . S
O436 C427 1.268 . S
O437 Sc418 2.105 . S
O437 C423 1.268 . S
O438 Sc420 2.105 . S
O438 C422 1.268 . S
O439 Sc419 2.105 . S
O439 C424 1.268 . S
Sc440 O443 2.025 . S
Sc440 O450 2.105 . S
Sc440 O453 2.105 . S
Sc440 O456 2.105 . S
Sc440 O459 2.105 . S
Sc441 O443 2.025 . S
Sc441 O451 2.105 . S
Sc441 O455 2.105 . S
Sc441 O457 2.105 . S
Sc441 O461 2.105 . S
Sc442 O443 2.025 . S
Sc442 O452 2.105 . S
Sc442 O454 2.105 . S
Sc442 O458 2.105 . S
Sc442 O460 2.105 . S
O443 Sc440 2.025 . S
O443 Sc441 2.025 . S
O443 Sc442 2.025 . S
C444 O450 1.268 . S
C444 O460 1.268 . S
C445 O451 1.268 . S
C445 O459 1.268 . S
C446 O452 1.268 . S
C446 O461 1.268 . S
C447 O453 1.268 . S
C447 O457 1.268 . S
C448 O454 1.268 . S
C448 O456 1.268 . S
C449 O455 1.268 . S
C449 O458 1.268 . S
O450 Sc440 2.105 . S
O450 C444 1.268 . S
O451 Sc441 2.105 . S
O451 C445 1.268 . S
O452 Sc442 2.105 . S
O452 C446 1.268 . S
O453 Sc440 2.105 . S
O453 C447 1.268 . S
O454 Sc442 2.105 . S
O454 C448 1.268 . S
O455 Sc441 2.105 . S
O455 C449 1.268 . S
O456 Sc440 2.105 . S
O456 C448 1.268 . S
O457 Sc441 2.105 . S
O457 C447 1.268 . S
O458 Sc442 2.105 . S
O458 C449 1.268 . S
O459 Sc440 2.105 . S
O459 C445 1.268 . S
O460 Sc442 2.105 . S
O460 C444 1.268 . S
O461 Sc441 2.105 . S
O461 C446 1.268 . S
Sc462 O465 2.025 . S
Sc462 O472 2.105 . S
Sc462 O475 2.105 . S
Sc462 O478 2.105 . S
Sc462 O481 2.105 . S
Sc463 O465 2.025 . S
Sc463 O473 2.105 . S
Sc463 O477 2.105 . S
Sc463 O479 2.105 . S
Sc463 O483 2.105 . S
Sc464 O465 2.025 . S
Sc464 O474 2.105 . S
Sc464 O476 2.105 . S
Sc464 O480 2.105 . S
Sc464 O482 2.105 . S
O465 Sc462 2.025 . S
O465 Sc463 2.025 . S
O465 Sc464 2.025 . S
C466 O472 1.268 . S
C466 O482 1.268 . S
C467 O473 1.268 . S
C467 O481 1.268 . S
C468 O474 1.268 . S
C468 O483 1.268 . S
C469 O475 1.268 . S
C469 O479 1.268 . S
C470 O476 1.268 . S
C470 O478 1.268 . S
C471 O477 1.268 . S
C471 O480 1.268 . S
O472 Sc462 2.105 . S
O472 C466 1.268 . S
O473 Sc463 2.105 . S
O473 C467 1.268 . S
O474 Sc464 2.105 . S
O474 C468 1.268 . S
O475 Sc462 2.105 . S
O475 C469 1.268 . S
O476 Sc464 2.105 . S
O476 C470 1.268 . S
O477 Sc463 2.105 . S
O477 C471 1.268 . S
O478 Sc462 2.105 . S
O478 C470 1.268 . S
O479 Sc463 2.105 . S
O479 C469 1.268 . S
O480 Sc464 2.105 . S
O480 C471 1.268 . S
O481 Sc462 2.105 . S
O481 C467 1.268 . S
O482 Sc464 2.105 . S
O482 C466 1.268 . S
O483 Sc463 2.105 . S
O483 C468 1.268 . S
Sc484 O487 2.025 . S
Sc484 O494 2.105 . S
Sc484 O497 2.105 . S
Sc484 O500 2.105 . S
Sc484 O503 2.105 . S
Sc485 O487 2.025 . S
Sc485 O495 2.105 . S
Sc485 O499 2.105 . S
Sc485 O501 2.105 . S
Sc485 O505 2.105 . S
Sc486 O487 2.025 . S
Sc486 O496 2.105 . S
Sc486 O498 2.105 . S
Sc486 O502 2.105 . S
Sc486 O504 2.105 . S
O487 Sc484 2.025 . S
O487 Sc485 2.025 . S
O487 Sc486 2.025 . S
C488 O494 1.268 . S
C488 O504 1.268 . S
C489 O495 1.268 . S
C489 O503 1.268 . S
C490 O496 1.268 . S
C490 O505 1.268 . S
C491 O497 1.268 . S
C491 O501 1.268 . S
C492 O498 1.268 . S
C492 O500 1.268 . S
C493 O499 1.268 . S
C493 O502 1.268 . S
O494 Sc484 2.105 . S
O494 C488 1.268 . S
O495 Sc485 2.105 . S
O495 C489 1.268 . S
O496 Sc486 2.105 . S
O496 C490 1.268 . S
O497 Sc484 2.105 . S
O497 C491 1.268 . S
O498 Sc486 2.105 . S
O498 C492 1.268 . S
O499 Sc485 2.105 . S
O499 C493 1.268 . S
O500 Sc484 2.105 . S
O500 C492 1.268 . S
O501 Sc485 2.105 . S
O501 C491 1.268 . S
O502 Sc486 2.105 . S
O502 C493 1.268 . S
O503 Sc484 2.105 . S
O503 C489 1.268 . S
O504 Sc486 2.105 . S
O504 C488 1.268 . S
O505 Sc485 2.105 . S
O505 C490 1.268 . S
Sc506 O509 2.025 . S
Sc506 O516 2.105 . S
Sc506 O519 2.105 . S
Sc506 O522 2.105 . S
Sc506 O525 2.105 . S
Sc507 O509 2.025 . S
Sc507 O517 2.105 . S
Sc507 O521 2.105 . S
Sc507 O523 2.105 . S
Sc507 O527 2.105 . S
Sc508 O509 2.025 . S
Sc508 O518 2.105 . S
Sc508 O520 2.105 . S
Sc508 O524 2.105 . S
Sc508 O526 2.105 . S
O509 Sc506 2.025 . S
O509 Sc507 2.025 . S
O509 Sc508 2.025 . S
C510 O516 1.268 . S
C510 O526 1.268 . S
C511 O517 1.268 . S
C511 O525 1.268 . S
C512 O518 1.268 . S
C512 O527 1.268 . S
C513 O519 1.268 . S
C513 O523 1.268 . S
C514 O520 1.268 . S
C514 O522 1.268 . S
C515 O521 1.268 . S
C515 O524 1.268 . S
O516 Sc506 2.105 . S
O516 C510 1.268 . S
O517 Sc507 2.105 . S
O517 C511 1.268 . S
O518 Sc508 2.105 . S
O518 C512 1.268 . S
O519 Sc506 2.105 . S
O519 C513 1.268 . S
O520 Sc508 2.105 . S
O520 C514 1.268 . S
O521 Sc507 2.105 . S
O521 C515 1.268 . S
O522 Sc506 2.105 . S
O522 C514 1.268 . S
O523 Sc507 2.105 . S
O523 C513 1.268 . S
O524 Sc508 2.105 . S
O524 C515 1.268 . S
O525 Sc506 2.105 . S
O525 C511 1.268 . S
O526 Sc508 2.105 . S
O526 C510 1.268 . S
O527 Sc507 2.105 . S
O527 C512 1.268 . S
Sc528 O531 2.025 . S
Sc528 O538 2.105 . S
Sc528 O541 2.105 . S
Sc528 O544 2.105 . S
Sc528 O547 2.105 . S
Sc529 O531 2.025 . S
Sc529 O539 2.105 . S
Sc529 O543 2.105 . S
Sc529 O545 2.105 . S
Sc529 O549 2.105 . S
Sc530 O531 2.025 . S
Sc530 O540 2.105 . S
Sc530 O542 2.105 . S
Sc530 O546 2.105 . S
Sc530 O548 2.105 . S
O531 Sc528 2.025 . S
O531 Sc529 2.025 . S
O531 Sc530 2.025 . S
C532 O538 1.268 . S
C532 O548 1.268 . S
C533 O539 1.268 . S
C533 O547 1.268 . S
C534 O540 1.268 . S
C534 O549 1.268 . S
C535 O541 1.268 . S
C535 O545 1.268 . S
C536 O542 1.268 . S
C536 O544 1.268 . S
C537 O543 1.268 . S
C537 O546 1.268 . S
O538 Sc528 2.105 . S
O538 C532 1.268 . S
O539 Sc529 2.105 . S
O539 C533 1.268 . S
O540 Sc530 2.105 . S
O540 C534 1.268 . S
O541 Sc528 2.105 . S
O541 C535 1.268 . S
O542 Sc530 2.105 . S
O542 C536 1.268 . S
O543 Sc529 2.105 . S
O543 C537 1.268 . S
O544 Sc528 2.105 . S
O544 C536 1.268 . S
O545 Sc529 2.105 . S
O545 C535 1.268 . S
O546 Sc530 2.105 . S
O546 C537 1.268 . S
O547 Sc528 2.105 . S
O547 C533 1.268 . S
O548 Sc530 2.105 . S
O548 C532 1.268 . S
O549 Sc529 2.105 . S
O549 C534 1.268 . S
Sc550 O553 2.025 . S
Sc550 O560 2.105 . S
Sc550 O563 2.105 . S
Sc550 O566 2.105 . S
Sc550 O569 2.105 . S
Sc551 O553 2.025 . S
Sc551 O561 2.105 . S
Sc551 O565 2.105 . S
Sc551 O567 2.105 . S
Sc551 O571 2.105 . S
Sc552 O553 2.025 . S
Sc552 O562 2.105 . S
Sc552 O564 2.105 . S
Sc552 O568 2.105 . S
Sc552 O570 2.105 . S
O553 Sc550 2.025 . S
O553 Sc551 2.025 . S
O553 Sc552 2.025 . S
C554 O560 1.268 . S
C554 O570 1.268 . S
C555 O561 1.268 . S
C555 O569 1.268 . S
C556 O562 1.268 . S
C556 O571 1.268 . S
C557 O563 1.268 . S
C557 O567 1.268 . S
C558 O564 1.268 . S
C558 O566 1.268 . S
C559 O565 1.268 . S
C559 O568 1.268 . S
O560 Sc550 2.105 . S
O560 C554 1.268 . S
O561 Sc551 2.105 . S
O561 C555 1.268 . S
O562 Sc552 2.105 . S
O562 C556 1.268 . S
O563 Sc550 2.105 . S
O563 C557 1.268 . S
O564 Sc552 2.105 . S
O564 C558 1.268 . S
O565 Sc551 2.105 . S
O565 C559 1.268 . S
O566 Sc550 2.105 . S
O566 C558 1.268 . S
O567 Sc551 2.105 . S
O567 C557 1.268 . S
O568 Sc552 2.105 . S
O568 C559 1.268 . S
O569 Sc550 2.105 . S
O569 C555 1.268 . S
O570 Sc552 2.105 . S
O570 C554 1.268 . S
O571 Sc551 2.105 . S
O571 C556 1.268 . S
Sc572 O575 2.025 . S
Sc572 O582 2.105 . S
Sc572 O585 2.105 . S
Sc572 O588 2.105 . S
Sc572 O591 2.105 . S
Sc573 O575 2.025 . S
Sc573 O583 2.105 . S
Sc573 O587 2.105 . S
Sc573 O589 2.105 . S
Sc573 O593 2.105 . S
Sc574 O575 2.025 . S
Sc574 O584 2.105 . S
Sc574 O586 2.105 . S
Sc574 O590 2.105 . S
Sc574 O592 2.105 . S
O575 Sc572 2.025 . S
O575 Sc573 2.025 . S
O575 Sc574 2.025 . S
C576 O582 1.268 . S
C576 O592 1.268 . S
C577 O583 1.268 . S
C577 O591 1.268 . S
C578 O584 1.268 . S
C578 O593 1.268 . S
C579 O585 1.268 . S
C579 O589 1.268 . S
C580 O586 1.268 . S
C580 O588 1.268 . S
C581 O587 1.268 . S
C581 O590 1.268 . S
O582 Sc572 2.105 . S
O582 C576 1.268 . S
O583 Sc573 2.105 . S
O583 C577 1.268 . S
O584 Sc574 2.105 . S
O584 C578 1.268 . S
O585 Sc572 2.105 . S
O585 C579 1.268 . S
O586 Sc574 2.105 . S
O586 C580 1.268 . S
O587 Sc573 2.105 . S
O587 C581 1.268 . S
O588 Sc572 2.105 . S
O588 C580 1.268 . S
O589 Sc573 2.105 . S
O589 C579 1.268 . S
O590 Sc574 2.105 . S
O590 C581 1.268 . S
O591 Sc572 2.105 . S
O591 C577 1.268 . S
O592 Sc574 2.105 . S
O592 C576 1.268 . S
O593 Sc573 2.105 . S
O593 C578 1.268 . S
Sc594 O597 2.025 . S
Sc594 O604 2.105 . S
Sc594 O607 2.105 . S
Sc594 O610 2.105 . S
Sc594 O613 2.105 . S
Sc595 O597 2.025 . S
Sc595 O605 2.105 . S
Sc595 O609 2.105 . S
Sc595 O611 2.105 . S
Sc595 O615 2.105 . S
Sc596 O597 2.025 . S
Sc596 O606 2.105 . S
Sc596 O608 2.105 . S
Sc596 O612 2.105 . S
Sc596 O614 2.105 . S
O597 Sc594 2.025 . S
O597 Sc595 2.025 . S
O597 Sc596 2.025 . S
C598 O604 1.268 . S
C598 O614 1.268 . S
C599 O605 1.268 . S
C599 O613 1.268 . S
C600 O606 1.268 . S
C600 O615 1.268 . S
C601 O607 1.268 . S
C601 O611 1.268 . S
C602 O608 1.268 . S
C602 O610 1.268 . S
C603 O609 1.268 . S
C603 O612 1.268 . S
O604 Sc594 2.105 . S
O604 C598 1.268 . S
O605 Sc595 2.105 . S
O605 C599 1.268 . S
O606 Sc596 2.105 . S
O606 C600 1.268 . S
O607 Sc594 2.105 . S
O607 C601 1.268 . S
O608 Sc596 2.105 . S
O608 C602 1.268 . S
O609 Sc595 2.105 . S
O609 C603 1.268 . S
O610 Sc594 2.105 . S
O610 C602 1.268 . S
O611 Sc595 2.105 . S
O611 C601 1.268 . S
O612 Sc596 2.105 . S
O612 C603 1.268 . S
O613 Sc594 2.105 . S
O613 C599 1.268 . S
O614 Sc596 2.105 . S
O614 C598 1.268 . S
O615 Sc595 2.105 . S
O615 C600 1.268 . S
Sc616 O619 2.025 . S
Sc616 O626 2.105 . S
Sc616 O629 2.105 . S
Sc616 O632 2.105 . S
Sc616 O635 2.105 . S
Sc617 O619 2.025 . S
Sc617 O627 2.105 . S
Sc617 O631 2.105 . S
Sc617 O633 2.105 . S
Sc617 O637 2.105 . S
Sc618 O619 2.025 . S
Sc618 O628 2.105 . S
Sc618 O630 2.105 . S
Sc618 O634 2.105 . S
Sc618 O636 2.105 . S
O619 Sc616 2.025 . S
O619 Sc617 2.025 . S
O619 Sc618 2.025 . S
C620 O626 1.268 . S
C620 O636 1.268 . S
C621 O627 1.268 . S
C621 O635 1.268 . S
C622 O628 1.268 . S
C622 O637 1.268 . S
C623 O629 1.268 . S
C623 O633 1.268 . S
C624 O630 1.268 . S
C624 O632 1.268 . S
C625 O631 1.268 . S
C625 O634 1.268 . S
O626 Sc616 2.105 . S
O626 C620 1.268 . S
O627 Sc617 2.105 . S
O627 C621 1.268 . S
O628 Sc618 2.105 . S
O628 C622 1.268 . S
O629 Sc616 2.105 . S
O629 C623 1.268 . S
O630 Sc618 2.105 . S
O630 C624 1.268 . S
O631 Sc617 2.105 . S
O631 C625 1.268 . S
O632 Sc616 2.105 . S
O632 C624 1.268 . S
O633 Sc617 2.105 . S
O633 C623 1.268 . S
O634 Sc618 2.105 . S
O634 C625 1.268 . S
O635 Sc616 2.105 . S
O635 C621 1.268 . S
O636 Sc618 2.105 . S
O636 C620 1.268 . S
O637 Sc617 2.105 . S
O637 C622 1.268 . S
Sc638 O641 2.025 . S
Sc638 O648 2.105 . S
Sc638 O651 2.105 . S
Sc638 O654 2.105 . S
Sc638 O657 2.105 . S
Sc639 O641 2.025 . S
Sc639 O649 2.105 . S
Sc639 O653 2.105 . S
Sc639 O655 2.105 . S
Sc639 O659 2.105 . S
Sc640 O641 2.025 . S
Sc640 O650 2.105 . S
Sc640 O652 2.105 . S
Sc640 O656 2.105 . S
Sc640 O658 2.105 . S
O641 Sc638 2.025 . S
O641 Sc639 2.025 . S
O641 Sc640 2.025 . S
C642 O648 1.268 . S
C642 O658 1.268 . S
C643 O649 1.268 . S
C643 O657 1.268 . S
C644 O650 1.268 . S
C644 O659 1.268 . S
C645 O651 1.268 . S
C645 O655 1.268 . S
C646 O652 1.268 . S
C646 O654 1.268 . S
C647 O653 1.268 . S
C647 O656 1.268 . S
O648 Sc638 2.105 . S
O648 C642 1.268 . S
O649 Sc639 2.105 . S
O649 C643 1.268 . S
O650 Sc640 2.105 . S
O650 C644 1.268 . S
O651 Sc638 2.105 . S
O651 C645 1.268 . S
O652 Sc640 2.105 . S
O652 C646 1.268 . S
O653 Sc639 2.105 . S
O653 C647 1.268 . S
O654 Sc638 2.105 . S
O654 C646 1.268 . S
O655 Sc639 2.105 . S
O655 C645 1.268 . S
O656 Sc640 2.105 . S
O656 C647 1.268 . S
O657 Sc638 2.105 . S
O657 C643 1.268 . S
O658 Sc640 2.105 . S
O658 C642 1.268 . S
O659 Sc639 2.105 . S
O659 C644 1.268 . S
Sc660 O663 2.025 . S
Sc660 O670 2.105 . S
Sc660 O673 2.105 . S
Sc660 O676 2.105 . S
Sc660 O679 2.105 . S
Sc661 O663 2.025 . S
Sc661 O671 2.105 . S
Sc661 O675 2.105 . S
Sc661 O677 2.105 . S
Sc661 O681 2.105 . S
Sc662 O663 2.025 . S
Sc662 O672 2.105 . S
Sc662 O674 2.105 . S
Sc662 O678 2.105 . S
Sc662 O680 2.105 . S
O663 Sc660 2.025 . S
O663 Sc661 2.025 . S
O663 Sc662 2.025 . S
C664 O670 1.268 . S
C664 O680 1.268 . S
C665 O671 1.268 . S
C665 O679 1.268 . S
C666 O672 1.268 . S
C666 O681 1.268 . S
C667 O673 1.268 . S
C667 O677 1.268 . S
C668 O674 1.268 . S
C668 O676 1.268 . S
C669 O675 1.268 . S
C669 O678 1.268 . S
O670 Sc660 2.105 . S
O670 C664 1.268 . S
O671 Sc661 2.105 . S
O671 C665 1.268 . S
O672 Sc662 2.105 . S
O672 C666 1.268 . S
O673 Sc660 2.105 . S
O673 C667 1.268 . S
O674 Sc662 2.105 . S
O674 C668 1.268 . S
O675 Sc661 2.105 . S
O675 C669 1.268 . S
O676 Sc660 2.105 . S
O676 C668 1.268 . S
O677 Sc661 2.105 . S
O677 C667 1.268 . S
O678 Sc662 2.105 . S
O678 C669 1.268 . S
O679 Sc660 2.105 . S
O679 C665 1.268 . S
O680 Sc662 2.105 . S
O680 C664 1.268 . S
O681 Sc661 2.105 . S
O681 C666 1.268 . S
Sc682 O685 2.025 . S
Sc682 O692 2.105 . S
Sc682 O695 2.105 . S
Sc682 O698 2.105 . S
Sc682 O701 2.105 . S
Sc683 O685 2.025 . S
Sc683 O693 2.105 . S
Sc683 O697 2.105 . S
Sc683 O699 2.105 . S
Sc683 O703 2.105 . S
Sc684 O685 2.025 . S
Sc684 O694 2.105 . S
Sc684 O696 2.105 . S
Sc684 O700 2.105 . S
Sc684 O702 2.105 . S
O685 Sc682 2.025 . S
O685 Sc683 2.025 . S
O685 Sc684 2.025 . S
C686 O692 1.268 . S
C686 O702 1.268 . S
C687 O693 1.268 . S
C687 O701 1.268 . S
C688 O694 1.268 . S
C688 O703 1.268 . S
C689 O695 1.268 . S
C689 O699 1.268 . S
C690 O696 1.268 . S
C690 O698 1.268 . S
C691 O697 1.268 . S
C691 O700 1.268 . S
O692 Sc682 2.105 . S
O692 C686 1.268 . S
O693 Sc683 2.105 . S
O693 C687 1.268 . S
O694 Sc684 2.105 . S
O694 C688 1.268 . S
O695 Sc682 2.105 . S
O695 C689 1.268 . S
O696 Sc684 2.105 . S
O696 C690 1.268 . S
O697 Sc683 2.105 . S
O697 C691 1.268 . S
O698 Sc682 2.105 . S
O698 C690 1.268 . S
O699 Sc683 2.105 . S
O699 C689 1.268 . S
O700 Sc684 2.105 . S
O700 C691 1.268 . S
O701 Sc682 2.105 . S
O701 C687 1.268 . S
O702 Sc684 2.105 . S
O702 C686 1.268 . S
O703 Sc683 2.105 . S
O703 C688 1.268 . S
Sc704 O707 2.025 . S
Sc704 O714 2.105 . S
Sc704 O717 2.105 . S
Sc704 O720 2.105 . S
Sc704 O723 2.105 . S
Sc705 O707 2.025 . S
Sc705 O715 2.105 . S
Sc705 O719 2.105 . S
Sc705 O721 2.105 . S
Sc705 O725 2.105 . S
Sc706 O707 2.025 . S
Sc706 O716 2.105 . S
Sc706 O718 2.105 . S
Sc706 O722 2.105 . S
Sc706 O724 2.105 . S
O707 Sc704 2.025 . S
O707 Sc705 2.025 . S
O707 Sc706 2.025 . S
C708 O714 1.268 . S
C708 O724 1.268 . S
C709 O715 1.268 . S
C709 O723 1.268 . S
C710 O716 1.268 . S
C710 O725 1.268 . S
C711 O717 1.268 . S
C711 O721 1.268 . S
C712 O718 1.268 . S
C712 O720 1.268 . S
C713 O719 1.268 . S
C713 O722 1.268 . S
O714 Sc704 2.105 . S
O714 C708 1.268 . S
O715 Sc705 2.105 . S
O715 C709 1.268 . S
O716 Sc706 2.105 . S
O716 C710 1.268 . S
O717 Sc704 2.105 . S
O717 C711 1.268 . S
O718 Sc706 2.105 . S
O718 C712 1.268 . S
O719 Sc705 2.105 . S
O719 C713 1.268 . S
O720 Sc704 2.105 . S
O720 C712 1.268 . S
O721 Sc705 2.105 . S
O721 C711 1.268 . S
O722 Sc706 2.105 . S
O722 C713 1.268 . S
O723 Sc704 2.105 . S
O723 C709 1.268 . S
O724 Sc706 2.105 . S
O724 C708 1.268 . S
O725 Sc705 2.105 . S
O725 C710 1.268 . S
Sc726 O729 2.025 . S
Sc726 O736 2.105 . S
Sc726 O739 2.105 . S
Sc726 O742 2.105 . S
Sc726 O745 2.105 . S
Sc727 O729 2.025 . S
Sc727 O737 2.105 . S
Sc727 O741 2.105 . S
Sc727 O743 2.105 . S
Sc727 O747 2.105 . S
Sc728 O729 2.025 . S
Sc728 O738 2.105 . S
Sc728 O740 2.105 . S
Sc728 O744 2.105 . S
Sc728 O746 2.105 . S
O729 Sc726 2.025 . S
O729 Sc727 2.025 . S
O729 Sc728 2.025 . S
C730 O736 1.268 . S
C730 O746 1.268 . S
C731 O737 1.268 . S
C731 O745 1.268 . S
C732 O738 1.268 . S
C732 O747 1.268 . S
C733 O739 1.268 . S
C733 O743 1.268 . S
C734 O740 1.268 . S
C734 O742 1.268 . S
C735 O741 1.268 . S
C735 O744 1.268 . S
O736 Sc726 2.105 . S
O736 C730 1.268 . S
O737 Sc727 2.105 . S
O737 C731 1.268 . S
O738 Sc728 2.105 . S
O738 C732 1.268 . S
O739 Sc726 2.105 . S
O739 C733 1.268 . S
O740 Sc728 2.105 . S
O740 C734 1.268 . S
O741 Sc727 2.105 . S
O741 C735 1.268 . S
O742 Sc726 2.105 . S
O742 C734 1.268 . S
O743 Sc727 2.105 . S
O743 C733 1.268 . S
O744 Sc728 2.105 . S
O744 C735 1.268 . S
O745 Sc726 2.105 . S
O745 C731 1.268 . S
O746 Sc728 2.105 . S
O746 C730 1.268 . S
O747 Sc727 2.105 . S
O747 C732 1.268 . S
Sc748 O751 2.025 . S
Sc748 O758 2.105 . S
Sc748 O761 2.105 . S
Sc748 O764 2.105 . S
Sc748 O767 2.105 . S
Sc749 O751 2.025 . S
Sc749 O759 2.105 . S
Sc749 O763 2.105 . S
Sc749 O765 2.105 . S
Sc749 O769 2.105 . S
Sc750 O751 2.025 . S
Sc750 O760 2.105 . S
Sc750 O762 2.105 . S
Sc750 O766 2.105 . S
Sc750 O768 2.105 . S
O751 Sc748 2.025 . S
O751 Sc749 2.025 . S
O751 Sc750 2.025 . S
C752 O758 1.268 . S
C752 O768 1.268 . S
C753 O759 1.268 . S
C753 O767 1.268 . S
C754 O760 1.268 . S
C754 O769 1.268 . S
C755 O761 1.268 . S
C755 O765 1.268 . S
C756 O762 1.268 . S
C756 O764 1.268 . S
C757 O763 1.268 . S
C757 O766 1.268 . S
O758 Sc748 2.105 . S
O758 C752 1.268 . S
O759 Sc749 2.105 . S
O759 C753 1.268 . S
O760 Sc750 2.105 . S
O760 C754 1.268 . S
O761 Sc748 2.105 . S
O761 C755 1.268 . S
O762 Sc750 2.105 . S
O762 C756 1.268 . S
O763 Sc749 2.105 . S
O763 C757 1.268 . S
O764 Sc748 2.105 . S
O764 C756 1.268 . S
O765 Sc749 2.105 . S
O765 C755 1.268 . S
O766 Sc750 2.105 . S
O766 C757 1.268 . S
O767 Sc748 2.105 . S
O767 C753 1.268 . S
O768 Sc750 2.105 . S
O768 C752 1.268 . S
O769 Sc749 2.105 . S
O769 C754 1.268 . S
Sc770 O773 2.025 . S
Sc770 O780 2.105 . S
Sc770 O783 2.105 . S
Sc770 O786 2.105 . S
Sc770 O789 2.105 . S
Sc771 O773 2.025 . S
Sc771 O781 2.105 . S
Sc771 O785 2.105 . S
Sc771 O787 2.105 . S
Sc771 O791 2.105 . S
Sc772 O773 2.025 . S
Sc772 O782 2.105 . S
Sc772 O784 2.105 . S
Sc772 O788 2.105 . S
Sc772 O790 2.105 . S
O773 Sc770 2.025 . S
O773 Sc771 2.025 . S
O773 Sc772 2.025 . S
C774 O780 1.268 . S
C774 O790 1.268 . S
C775 O781 1.268 . S
C775 O789 1.268 . S
C776 O782 1.268 . S
C776 O791 1.268 . S
C777 O783 1.268 . S
C777 O787 1.268 . S
C778 O784 1.268 . S
C778 O786 1.268 . S
C779 O785 1.268 . S
C779 O788 1.268 . S
O780 Sc770 2.105 . S
O780 C774 1.268 . S
O781 Sc771 2.105 . S
O781 C775 1.268 . S
O782 Sc772 2.105 . S
O782 C776 1.268 . S
O783 Sc770 2.105 . S
O783 C777 1.268 . S
O784 Sc772 2.105 . S
O784 C778 1.268 . S
O785 Sc771 2.105 . S
O785 C779 1.268 . S
O786 Sc770 2.105 . S
O786 C778 1.268 . S
O787 Sc771 2.105 . S
O787 C777 1.268 . S
O788 Sc772 2.105 . S
O788 C779 1.268 . S
O789 Sc770 2.105 . S
O789 C775 1.268 . S
O790 Sc772 2.105 . S
O790 C774 1.268 . S
O791 Sc771 2.105 . S
O791 C776 1.268 . S
H792 C798 0.930 . S
H793 C802 0.930 . S
H794 C807 0.929 . S
H795 C805 0.929 . S
H796 C800 0.929 . S
H797 C806 0.929 . S
C798 H792 0.930 . S
C798 C799 1.367 . S
C798 C806 1.378 . S
C799 C798 1.367 . S
C799 C807 1.433 . S
C800 H796 0.929 . S
C800 C802 1.378 . S
C800 C804 1.350 . S
C801 C804 1.463 . S
C801 C806 1.350 . S
C801 N809 1.427 . S
C802 H793 0.930 . S
C802 C800 1.378 . S
C802 C803 1.367 . S
C803 C802 1.367 . S
C803 C805 1.433 . S
C804 C800 1.350 . S
C804 C801 1.463 . S
C804 N808 1.427 . S
C805 H795 0.929 . S
C805 C803 1.433 . S
C805 N808 1.384 . S
C806 H797 0.929 . S
C806 C798 1.378 . S
C806 C801 1.350 . S
C807 H794 0.929 . S
C807 C799 1.433 . S
C807 N809 1.384 . S
N808 C804 1.427 . S
N808 C805 1.384 . S
N809 C801 1.427 . S
N809 C807 1.384 . S
H810 C816 0.930 . S
H811 C820 0.930 . S
H812 C825 0.929 . S
H813 C823 0.929 . S
H814 C818 0.929 . S
H815 C824 0.929 . S
C816 H810 0.930 . S
C816 C817 1.367 . S
C816 C824 1.378 . S
C817 C816 1.367 . S
C817 C825 1.433 . S
C818 H814 0.929 . S
C818 C820 1.378 . S
C818 C822 1.350 . S
C819 C822 1.463 . S
C819 C824 1.350 . S
C819 N827 1.427 . S
C820 H811 0.930 . S
C820 C818 1.378 . S
C820 C821 1.367 . S
C821 C820 1.367 . S
C821 C823 1.433 . S
C822 C818 1.350 . S
C822 C819 1.463 . S
C822 N826 1.427 . S
C823 H813 0.929 . S
C823 C821 1.433 . S
C823 N826 1.384 . S
C824 H815 0.929 . S
C824 C816 1.378 . S
C824 C819 1.350 . S
C825 H812 0.929 . S
C825 C817 1.433 . S
C825 N827 1.384 . S
N826 C822 1.427 . S
N826 C823 1.384 . S
N827 C819 1.427 . S
N827 C825 1.384 . S
H828 C834 0.930 . S
H829 C838 0.930 . S
H830 C843 0.929 . S
H831 C841 0.929 . S
H832 C836 0.929 . S
H833 C842 0.929 . S
C834 H828 0.930 . S
C834 C835 1.367 . S
C834 C842 1.378 . S
C835 C834 1.367 . S
C835 C843 1.433 . S
C836 H832 0.929 . S
C836 C838 1.378 . S
C836 C840 1.350 . S
C837 C840 1.463 . S
C837 C842 1.350 . S
C837 N845 1.427 . S
C838 H829 0.930 . S
C838 C836 1.378 . S
C838 C839 1.367 . S
C839 C838 1.367 . S
C839 C841 1.433 . S
C840 C836 1.350 . S
C840 C837 1.463 . S
C840 N844 1.427 . S
C841 H831 0.929 . S
C841 C839 1.433 . S
C841 N844 1.384 . S
C842 H833 0.929 . S
C842 C834 1.378 . S
C842 C837 1.350 . S
C843 H830 0.929 . S
C843 C835 1.433 . S
C843 N845 1.384 . S
N844 C840 1.427 . S
N844 C841 1.384 . S
N845 C837 1.427 . S
N845 C843 1.384 . S
H846 C852 0.930 . S
H847 C856 0.930 . S
H848 C861 0.929 . S
H849 C859 0.929 . S
H850 C854 0.929 . S
H851 C860 0.929 . S
C852 H846 0.930 . S
C852 C853 1.367 . S
C852 C860 1.378 . S
C853 C852 1.367 . S
C853 C861 1.433 . S
C854 H850 0.929 . S
C854 C856 1.378 . S
C854 C858 1.350 . S
C855 C858 1.463 . S
C855 C860 1.350 . S
C855 N863 1.427 . S
C856 H847 0.930 . S
C856 C854 1.378 . S
C856 C857 1.367 . S
C857 C856 1.367 . S
C857 C859 1.433 . S
C858 C854 1.350 . S
C858 C855 1.463 . S
C858 N862 1.427 . S
C859 H849 0.929 . S
C859 C857 1.433 . S
C859 N862 1.384 . S
C860 H851 0.929 . S
C860 C852 1.378 . S
C860 C855 1.350 . S
C861 H848 0.929 . S
C861 C853 1.433 . S
C861 N863 1.384 . S
N862 C858 1.427 . S
N862 C859 1.384 . S
N863 C855 1.427 . S
N863 C861 1.384 . S
H864 C870 0.930 . S
H865 C874 0.930 . S
H866 C879 0.929 . S
H867 C877 0.929 . S
H868 C872 0.929 . S
H869 C878 0.929 . S
C870 H864 0.930 . S
C870 C871 1.367 . S
C870 C878 1.378 . S
C871 C870 1.367 . S
C871 C879 1.433 . S
C872 H868 0.929 . S
C872 C874 1.378 . S
C872 C876 1.350 . S
C873 C876 1.463 . S
C873 C878 1.350 . S
C873 N881 1.427 . S
C874 H865 0.930 . S
C874 C872 1.378 . S
C874 C875 1.367 . S
C875 C874 1.367 . S
C875 C877 1.433 . S
C876 C872 1.350 . S
C876 C873 1.463 . S
C876 N880 1.427 . S
C877 H867 0.929 . S
C877 C875 1.433 . S
C877 N880 1.384 . S
C878 H869 0.929 . S
C878 C870 1.378 . S
C878 C873 1.350 . S
C879 H866 0.929 . S
C879 C871 1.433 . S
C879 N881 1.384 . S
N880 C876 1.427 . S
N880 C877 1.384 . S
N881 C873 1.427 . S
N881 C879 1.384 . S
H882 C888 0.930 . S
H883 C892 0.930 . S
H884 C897 0.929 . S
H885 C895 0.929 . S
H886 C890 0.929 . S
H887 C896 0.929 . S
C888 H882 0.930 . S
C888 C889 1.367 . S
C888 C896 1.378 . S
C889 C888 1.367 . S
C889 C897 1.433 . S
C890 H886 0.929 . S
C890 C892 1.378 . S
C890 C894 1.350 . S
C891 C894 1.463 . S
C891 C896 1.350 . S
C891 N899 1.427 . S
C892 H883 0.930 . S
C892 C890 1.378 . S
C892 C893 1.367 . S
C893 C892 1.367 . S
C893 C895 1.433 . S
C894 C890 1.350 . S
C894 C891 1.463 . S
C894 N898 1.427 . S
C895 H885 0.929 . S
C895 C893 1.433 . S
C895 N898 1.384 . S
C896 H887 0.929 . S
C896 C888 1.378 . S
C896 C891 1.350 . S
C897 H884 0.929 . S
C897 C889 1.433 . S
C897 N899 1.384 . S
N898 C894 1.427 . S
N898 C895 1.384 . S
N899 C891 1.427 . S
N899 C897 1.384 . S
H900 C906 0.930 . S
H901 C910 0.930 . S
H902 C915 0.929 . S
H903 C913 0.929 . S
H904 C908 0.929 . S
H905 C914 0.929 . S
C906 H900 0.930 . S
C906 C907 1.367 . S
C906 C914 1.378 . S
C907 C906 1.367 . S
C907 C915 1.433 . S
C908 H904 0.929 . S
C908 C910 1.378 . S
C908 C912 1.350 . S
C909 C912 1.463 . S
C909 C914 1.350 . S
C909 N917 1.427 . S
C910 H901 0.930 . S
C910 C908 1.378 . S
C910 C911 1.367 . S
C911 C910 1.367 . S
C911 C913 1.433 . S
C912 C908 1.350 . S
C912 C909 1.463 . S
C912 N916 1.427 . S
C913 H903 0.929 . S
C913 C911 1.433 . S
C913 N916 1.384 . S
C914 H905 0.929 . S
C914 C906 1.378 . S
C914 C909 1.350 . S
C915 H902 0.929 . S
C915 C907 1.433 . S
C915 N917 1.384 . S
N916 C912 1.427 . S
N916 C913 1.384 . S
N917 C909 1.427 . S
N917 C915 1.384 . S
H918 C924 0.930 . S
H919 C928 0.930 . S
H920 C933 0.929 . S
H921 C931 0.929 . S
H922 C926 0.929 . S
H923 C932 0.929 . S
C924 H918 0.930 . S
C924 C925 1.367 . S
C924 C932 1.378 . S
C925 C924 1.367 . S
C925 C933 1.433 . S
C926 H922 0.929 . S
C926 C928 1.378 . S
C926 C930 1.350 . S
C927 C930 1.463 . S
C927 C932 1.350 . S
C927 N935 1.427 . S
C928 H919 0.930 . S
C928 C926 1.378 . S
C928 C929 1.367 . S
C929 C928 1.367 . S
C929 C931 1.433 . S
C930 C926 1.350 . S
C930 C927 1.463 . S
C930 N934 1.427 . S
C931 H921 0.929 . S
C931 C929 1.433 . S
C931 N934 1.384 . S
C932 H923 0.929 . S
C932 C924 1.378 . S
C932 C927 1.350 . S
C933 H920 0.929 . S
C933 C925 1.433 . S
C933 N935 1.384 . S
N934 C930 1.427 . S
N934 C931 1.384 . S
N935 C927 1.427 . S
N935 C933 1.384 . S
H936 C942 0.930 . S
H937 C946 0.930 . S
H938 C951 0.929 . S
H939 C949 0.929 . S
H940 C944 0.929 . S
H941 C950 0.929 . S
C942 H936 0.930 . S
C942 C943 1.367 . S
C942 C950 1.378 . S
C943 C942 1.367 . S
C943 C951 1.433 . S
C944 H940 0.929 . S
C944 C946 1.378 . S
C944 C948 1.350 . S
C945 C948 1.463 . S
C945 C950 1.350 . S
C945 N953 1.427 . S
C946 H937 0.930 . S
C946 C944 1.378 . S
C946 C947 1.367 . S
C947 C946 1.367 . S
C947 C949 1.433 . S
C948 C944 1.350 . S
C948 C945 1.463 . S
C948 N952 1.427 . S
C949 H939 0.929 . S
C949 C947 1.433 . S
C949 N952 1.384 . S
C950 H941 0.929 . S
C950 C942 1.378 . S
C950 C945 1.350 . S
C951 H938 0.929 . S
C951 C943 1.433 . S
C951 N953 1.384 . S
N952 C948 1.427 . S
N952 C949 1.384 . S
N953 C945 1.427 . S
N953 C951 1.384 . S
H954 C960 0.930 . S
H955 C964 0.930 . S
H956 C969 0.929 . S
H957 C967 0.929 . S
H958 C962 0.929 . S
H959 C968 0.929 . S
C960 H954 0.930 . S
C960 C961 1.367 . S
C960 C968 1.378 . S
C961 C960 1.367 . S
C961 C969 1.433 . S
C962 H958 0.929 . S
C962 C964 1.378 . S
C962 C966 1.350 . S
C963 C966 1.463 . S
C963 C968 1.350 . S
C963 N971 1.427 . S
C964 H955 0.930 . S
C964 C962 1.378 . S
C964 C965 1.367 . S
C965 C964 1.367 . S
C965 C967 1.433 . S
C966 C962 1.350 . S
C966 C963 1.463 . S
C966 N970 1.427 . S
C967 H957 0.929 . S
C967 C965 1.433 . S
C967 N970 1.384 . S
C968 H959 0.929 . S
C968 C960 1.378 . S
C968 C963 1.350 . S
C969 H956 0.929 . S
C969 C961 1.433 . S
C969 N971 1.384 . S
N970 C966 1.427 . S
N970 C967 1.384 . S
N971 C963 1.427 . S
N971 C969 1.384 . S
H972 C978 0.930 . S
H973 C982 0.930 . S
H974 C987 0.929 . S
H975 C985 0.929 . S
H976 C980 0.929 . S
H977 C986 0.929 . S
C978 H972 0.930 . S
C978 C979 1.367 . S
C978 C986 1.378 . S
C979 C978 1.367 . S
C979 C987 1.433 . S
C980 H976 0.929 . S
C980 C982 1.378 . S
C980 C984 1.350 . S
C981 C984 1.463 . S
C981 C986 1.350 . S
C981 N989 1.427 . S
C982 H973 0.930 . S
C982 C980 1.378 . S
C982 C983 1.367 . S
C983 C982 1.367 . S
C983 C985 1.433 . S
C984 C980 1.350 . S
C984 C981 1.463 . S
C984 N988 1.427 . S
C985 H975 0.929 . S
C985 C983 1.433 . S
C985 N988 1.384 . S
C986 H977 0.929 . S
C986 C978 1.378 . S
C986 C981 1.350 . S
C987 H974 0.929 . S
C987 C979 1.433 . S
C987 N989 1.384 . S
N988 C984 1.427 . S
N988 C985 1.384 . S
N989 C981 1.427 . S
N989 C987 1.384 . S
H990 C996 0.930 . S
H991 C1000 0.930 . S
H992 C1005 0.929 . S
H993 C1003 0.929 . S
H994 C998 0.929 . S
H995 C1004 0.929 . S
C996 H990 0.930 . S
C996 C997 1.367 . S
C996 C1004 1.378 . S
C997 C996 1.367 . S
C997 C1005 1.433 . S
C998 H994 0.929 . S
C998 C1000 1.378 . S
C998 C1002 1.350 . S
C999 C1002 1.463 . S
C999 C1004 1.350 . S
C999 N1007 1.427 . S
C1000 H991 0.930 . S
C1000 C998 1.378 . S
C1000 C1001 1.367 . S
C1001 C1000 1.367 . S
C1001 C1003 1.433 . S
C1002 C998 1.350 . S
C1002 C999 1.463 . S
C1002 N1006 1.427 . S
C1003 H993 0.929 . S
C1003 C1001 1.433 . S
C1003 N1006 1.384 . S
C1004 H995 0.929 . S
C1004 C996 1.378 . S
C1004 C999 1.350 . S
C1005 H992 0.929 . S
C1005 C997 1.433 . S
C1005 N1007 1.384 . S
N1006 C1002 1.427 . S
N1006 C1003 1.384 . S
N1007 C999 1.427 . S
N1007 C1005 1.384 . S
H1008 C1014 0.930 . S
H1009 C1018 0.930 . S
H1010 C1023 0.929 . S
H1011 C1021 0.929 . S
H1012 C1016 0.937 . S
H1013 C1022 0.938 . S
C1014 H1008 0.930 . S
C1014 C1015 1.367 . S
C1014 C1022 1.372 1_556 S
C1015 C1014 1.367 . S
C1015 C1023 1.433 . S
C1016 H1012 0.937 . S
C1016 C1018 1.373 1_556 S
C1016 C1020 1.347 1_556 S
C1017 C1020 1.463 1_656 S
C1017 C1022 1.347 1_556 S
C1017 N1025 1.427 . S
C1018 H1009 0.930 . S
C1018 C1016 1.373 1_554 S
C1018 C1019 1.367 . S
C1019 C1018 1.367 . S
C1019 C1021 1.433 . S
C1020 C1016 1.347 1_554 S
C1020 C1017 1.463 1_454 S
C1020 N1024 1.427 . S
C1021 H1011 0.929 . S
C1021 C1019 1.433 . S
C1021 N1024 1.384 . S
C1022 H1013 0.938 . S
C1022 C1014 1.372 1_554 S
C1022 C1017 1.347 1_554 S
C1023 H1010 0.929 . S
C1023 C1015 1.433 . S
C1023 N1025 1.384 . S
N1024 C1020 1.427 . S
N1024 C1021 1.384 . S
N1025 C1017 1.427 . S
N1025 C1023 1.384 . S
H1026 C1032 0.930 . S
H1027 C1036 0.930 . S
H1028 C1041 0.929 . S
H1029 C1039 0.929 . S
H1030 C1034 0.929 1_554 S
H1031 C1040 0.929 1_556 S
C1032 H1026 0.930 . S
C1032 C1033 1.367 . S
C1032 C1040 1.378 . S
C1033 C1032 1.367 . S
C1033 C1041 1.433 . S
C1034 H1030 0.929 1_556 S
C1034 C1036 1.378 . S
C1034 C1038 1.350 . S
C1035 C1038 1.463 1_554 S
C1035 C1040 1.350 . S
C1035 N1043 1.427 . S
C1036 H1027 0.930 . S
C1036 C1034 1.378 . S
C1036 C1037 1.367 . S
C1037 C1036 1.367 . S
C1037 C1039 1.433 . S
C1038 C1034 1.350 . S
C1038 C1035 1.463 1_556 S
C1038 N1042 1.427 . S
C1039 H1029 0.929 . S
C1039 C1037 1.433 . S
C1039 N1042 1.384 . S
C1040 H1031 0.929 1_554 S
C1040 C1032 1.378 . S
C1040 C1035 1.350 . S
C1041 H1028 0.929 . S
C1041 C1033 1.433 . S
C1041 N1043 1.384 . S
N1042 C1038 1.427 . S
N1042 C1039 1.384 . S
N1043 C1035 1.427 . S
N1043 C1041 1.384 . S
H1044 C1050 0.925 1_554 S
H1045 C1054 0.925 1_556 S
H1046 C1059 0.929 . S
H1047 C1057 0.929 . S
H1048 C1052 0.929 . S
H1049 C1058 0.929 . S
C1050 H1044 0.925 1_556 S
C1050 C1051 1.367 . S
C1050 C1058 1.378 1_556 S
C1051 C1050 1.367 . S
C1051 C1059 1.433 . S
C1052 H1048 0.929 . S
C1052 C1054 1.378 1_556 S
C1052 C1056 1.350 1_556 S
C1053 C1056 1.463 1_546 S
C1053 C1058 1.350 1_556 S
C1053 N1061 1.427 . S
C1054 H1045 0.925 1_554 S
C1054 C1052 1.378 1_554 S
C1054 C1055 1.367 . S
C1055 C1054 1.367 . S
C1055 C1057 1.433 . S
C1056 C1052 1.350 1_554 S
C1056 C1053 1.463 1_564 S
C1056 N1060 1.427 . S
C1057 H1047 0.929 . S
C1057 C1055 1.433 . S
C1057 N1060 1.384 . S
C1058 H1049 0.929 . S
C1058 C1050 1.378 1_554 S
C1058 C1053 1.350 1_554 S
C1059 H1046 0.929 . S
C1059 C1051 1.433 . S
C1059 N1061 1.384 . S
N1060 C1056 1.427 . S
N1060 C1057 1.384 . S
N1061 C1053 1.427 . S
N1061 C1059 1.384 . S
H1062 C1068 0.930 1_556 S
H1063 C1072 0.930 1_554 S
H1064 C1077 0.929 . S
H1065 C1075 0.929 . S
H1066 C1070 0.929 . S
H1067 C1076 0.929 . S
C1068 H1062 0.930 1_554 S
C1068 C1069 1.367 . S
C1068 C1076 1.378 1_554 S
C1069 C1068 1.367 . S
C1069 C1077 1.433 . S
C1070 H1066 0.929 . S
C1070 C1072 1.378 1_554 S
C1070 C1074 1.350 1_554 S
C1071 C1074 1.463 1_564 S
C1071 C1076 1.350 1_554 S
C1071 N1079 1.427 . S
C1072 H1063 0.930 1_556 S
C1072 C1070 1.378 1_556 S
C1072 C1073 1.367 . S
C1073 C1072 1.367 . S
C1073 C1075 1.433 . S
C1074 C1070 1.350 1_556 S
C1074 C1071 1.463 1_546 S
C1074 N1078 1.427 . S
C1075 H1065 0.929 . S
C1075 C1073 1.433 . S
C1075 N1078 1.384 . S
C1076 H1067 0.929 . S
C1076 C1068 1.378 1_556 S
C1076 C1071 1.350 1_556 S
C1077 H1064 0.929 . S
C1077 C1069 1.433 . S
C1077 N1079 1.384 . S
N1078 C1074 1.427 . S
N1078 C1075 1.384 . S
N1079 C1071 1.427 . S
N1079 C1077 1.384 . S
H1080 C1086 0.930 1_556 S
H1081 C1090 0.930 1_554 S
H1082 C1095 0.929 . S
H1083 C1093 0.929 . S
H1084 C1088 0.929 . S
H1085 C1094 0.929 . S
C1086 H1080 0.930 1_554 S
C1086 C1087 1.367 . S
C1086 C1094 1.378 1_554 S
C1087 C1086 1.367 . S
C1087 C1095 1.433 . S
C1088 H1084 0.929 . S
C1088 C1090 1.378 1_554 S
C1088 C1092 1.350 1_554 S
C1089 C1092 1.463 1_454 S
C1089 C1094 1.350 1_554 S
C1089 N1097 1.427 . S
C1090 H1081 0.930 1_556 S
C1090 C1088 1.378 1_556 S
C1090 C1091 1.367 . S
C1091 C1090 1.367 . S
C1091 C1093 1.433 . S
C1092 C1088 1.350 1_556 S
C1092 C1089 1.463 1_656 S
C1092 N1096 1.427 . S
C1093 H1083 0.929 . S
C1093 C1091 1.433 . S
C1093 N1096 1.384 . S
C1094 H1085 0.929 . S
C1094 C1086 1.378 1_556 S
C1094 C1089 1.350 1_556 S
C1095 H1082 0.929 . S
C1095 C1087 1.433 . S
C1095 N1097 1.384 . S
N1096 C1092 1.427 . S
N1096 C1093 1.384 . S
N1097 C1089 1.427 . S
N1097 C1095 1.384 . S
H1098 C1104 0.930 . S
H1099 C1108 0.930 . S
H1100 C1113 0.929 . S
H1101 C1111 0.929 . S
H1102 C1106 0.929 . S
H1103 C1112 0.929 . S
C1104 H1098 0.930 . S
C1104 C1105 1.367 . S
C1104 C1112 1.378 1_556 S
C1105 C1104 1.367 . S
C1105 C1113 1.433 . S
C1106 H1102 0.929 . S
C1106 C1108 1.378 1_556 S
C1106 C1110 1.350 1_556 S
C1107 C1110 1.463 1_556 S
C1107 C1112 1.350 1_556 S
C1107 N1115 1.427 . S
C1108 H1099 0.930 . S
C1108 C1106 1.378 1_554 S
C1108 C1109 1.367 . S
C1109 C1108 1.367 . S
C1109 C1111 1.433 . S
C1110 C1106 1.350 1_554 S
C1110 C1107 1.463 1_554 S
C1110 N1114 1.427 . S
C1111 H1101 0.929 . S
C1111 C1109 1.433 . S
C1111 N1114 1.384 . S
C1112 H1103 0.929 . S
C1112 C1104 1.378 1_554 S
C1112 C1107 1.350 1_554 S
C1113 H1100 0.929 . S
C1113 C1105 1.433 . S
C1113 N1115 1.384 . S
N1114 C1110 1.427 . S
N1114 C1111 1.384 . S
N1115 C1107 1.427 . S
N1115 C1113 1.384 . S
H1116 C1122 0.930 . S
H1117 C1126 0.930 . S
H1118 C1131 0.929 . S
H1119 C1129 0.929 . S
H1120 C1124 0.929 . S
H1121 C1130 0.929 . S
C1122 H1116 0.930 . S
C1122 C1123 1.367 . S
C1122 C1130 1.378 . S
C1123 C1122 1.367 . S
C1123 C1131 1.433 . S
C1124 H1120 0.929 . S
C1124 C1126 1.378 . S
C1124 C1128 1.350 . S
C1125 C1128 1.463 . S
C1125 C1130 1.350 . S
C1125 N1133 1.427 . S
C1126 H1117 0.930 . S
C1126 C1124 1.378 . S
C1126 C1127 1.367 . S
C1127 C1126 1.367 . S
C1127 C1129 1.433 . S
C1128 C1124 1.350 . S
C1128 C1125 1.463 . S
C1128 N1132 1.427 . S
C1129 H1119 0.929 . S
C1129 C1127 1.433 . S
C1129 N1132 1.384 . S
C1130 H1121 0.929 . S
C1130 C1122 1.378 . S
C1130 C1125 1.350 . S
C1131 H1118 0.929 . S
C1131 C1123 1.433 . S
C1131 N1133 1.384 . S
N1132 C1128 1.427 . S
N1132 C1129 1.384 . S
N1133 C1125 1.427 . S
N1133 C1131 1.384 . S
H1134 C1140 0.930 . S
H1135 C1144 0.930 . S
H1136 C1149 0.929 . S
H1137 C1147 0.929 . S
H1138 C1142 0.929 . S
H1139 C1148 0.929 . S
C1140 H1134 0.930 . S
C1140 C1141 1.367 . S
C1140 C1148 1.378 . S
C1141 C1140 1.367 . S
C1141 C1149 1.433 . S
C1142 H1138 0.929 . S
C1142 C1144 1.378 . S
C1142 C1146 1.350 . S
C1143 C1146 1.463 . S
C1143 C1148 1.350 . S
C1143 N1151 1.427 . S
C1144 H1135 0.930 . S
C1144 C1142 1.378 . S
C1144 C1145 1.367 . S
C1145 C1144 1.367 . S
C1145 C1147 1.433 . S
C1146 C1142 1.350 . S
C1146 C1143 1.463 . S
C1146 N1150 1.427 . S
C1147 H1137 0.929 . S
C1147 C1145 1.433 . S
C1147 N1150 1.384 . S
C1148 H1139 0.929 . S
C1148 C1140 1.378 . S
C1148 C1143 1.350 . S
C1149 H1136 0.929 . S
C1149 C1141 1.433 . S
C1149 N1151 1.384 . S
N1150 C1146 1.427 . S
N1150 C1147 1.384 . S
N1151 C1143 1.427 . S
N1151 C1149 1.384 . S
H1152 C1158 0.930 . S
H1153 C1162 0.930 . S
H1154 C1167 0.929 . S
H1155 C1165 0.929 . S
H1156 C1160 0.929 . S
H1157 C1166 0.929 . S
C1158 H1152 0.930 . S
C1158 C1159 1.367 . S
C1158 C1166 1.378 . S
C1159 C1158 1.367 . S
C1159 C1167 1.433 . S
C1160 H1156 0.929 . S
C1160 C1162 1.378 . S
C1160 C1164 1.350 . S
C1161 C1164 1.463 . S
C1161 C1166 1.350 . S
C1161 N1169 1.427 . S
C1162 H1153 0.930 . S
C1162 C1160 1.378 . S
C1162 C1163 1.367 . S
C1163 C1162 1.367 . S
C1163 C1165 1.433 . S
C1164 C1160 1.350 . S
C1164 C1161 1.463 . S
C1164 N1168 1.427 . S
C1165 H1155 0.929 . S
C1165 C1163 1.433 . S
C1165 N1168 1.384 . S
C1166 H1157 0.929 . S
C1166 C1158 1.378 . S
C1166 C1161 1.350 . S
C1167 H1154 0.929 . S
C1167 C1159 1.433 . S
C1167 N1169 1.384 . S
N1168 C1164 1.427 . S
N1168 C1165 1.384 . S
N1169 C1161 1.427 . S
N1169 C1167 1.384 . S
H1170 C1176 0.930 . S
H1171 C1180 0.930 . S
H1172 C1185 0.929 . S
H1173 C1183 0.929 . S
H1174 C1178 0.929 . S
H1175 C1184 0.929 . S
C1176 H1170 0.930 . S
C1176 C1177 1.367 . S
C1176 C1184 1.378 . S
C1177 C1176 1.367 . S
C1177 C1185 1.433 . S
C1178 H1174 0.929 . S
C1178 C1180 1.378 . S
C1178 C1182 1.350 . S
C1179 C1182 1.463 . S
C1179 C1184 1.350 . S
C1179 N1187 1.427 . S
C1180 H1171 0.930 . S
C1180 C1178 1.378 . S
C1180 C1181 1.367 . S
C1181 C1180 1.367 . S
C1181 C1183 1.433 . S
C1182 C1178 1.350 . S
C1182 C1179 1.463 . S
C1182 N1186 1.427 . S
C1183 H1173 0.929 . S
C1183 C1181 1.433 . S
C1183 N1186 1.384 . S
C1184 H1175 0.929 . S
C1184 C1176 1.378 . S
C1184 C1179 1.350 . S
C1185 H1172 0.929 . S
C1185 C1177 1.433 . S
C1185 N1187 1.384 . S
N1186 C1182 1.427 . S
N1186 C1183 1.384 . S
N1187 C1179 1.427 . S
N1187 C1185 1.384 . S
H1188 C1194 0.930 . S
H1189 C1198 0.930 . S
H1190 C1203 0.929 . S
H1191 C1201 0.929 . S
H1192 C1196 0.929 . S
H1193 C1202 0.929 . S
C1194 H1188 0.930 . S
C1194 C1195 1.367 . S
C1194 C1202 1.378 . S
C1195 C1194 1.367 . S
C1195 C1203 1.433 . S
C1196 H1192 0.929 . S
C1196 C1198 1.378 . S
C1196 C1200 1.350 . S
C1197 C1200 1.463 . S
C1197 C1202 1.350 . S
C1197 N1205 1.427 . S
C1198 H1189 0.930 . S
C1198 C1196 1.378 . S
C1198 C1199 1.367 . S
C1199 C1198 1.367 . S
C1199 C1201 1.433 . S
C1200 C1196 1.350 . S
C1200 C1197 1.463 . S
C1200 N1204 1.427 . S
C1201 H1191 0.929 . S
C1201 C1199 1.433 . S
C1201 N1204 1.384 . S
C1202 H1193 0.929 . S
C1202 C1194 1.378 . S
C1202 C1197 1.350 . S
C1203 H1190 0.929 . S
C1203 C1195 1.433 . S
C1203 N1205 1.384 . S
N1204 C1200 1.427 . S
N1204 C1201 1.384 . S
N1205 C1197 1.427 . S
N1205 C1203 1.384 . S
H1206 C1212 0.930 . S
H1207 C1216 0.930 . S
H1208 C1221 0.929 . S
H1209 C1219 0.929 . S
H1210 C1214 0.929 . S
H1211 C1220 0.929 . S
C1212 H1206 0.930 . S
C1212 C1213 1.367 . S
C1212 C1220 1.378 . S
C1213 C1212 1.367 . S
C1213 C1221 1.433 . S
C1214 H1210 0.929 . S
C1214 C1216 1.378 . S
C1214 C1218 1.350 . S
C1215 C1218 1.463 . S
C1215 C1220 1.350 . S
C1215 N1223 1.427 . S
C1216 H1207 0.930 . S
C1216 C1214 1.378 . S
C1216 C1217 1.367 . S
C1217 C1216 1.367 . S
C1217 C1219 1.433 . S
C1218 C1214 1.350 . S
C1218 C1215 1.463 . S
C1218 N1222 1.427 . S
C1219 H1209 0.929 . S
C1219 C1217 1.433 . S
C1219 N1222 1.384 . S
C1220 H1211 0.929 . S
C1220 C1212 1.378 . S
C1220 C1215 1.350 . S
C1221 H1208 0.929 . S
C1221 C1213 1.433 . S
C1221 N1223 1.384 . S
N1222 C1218 1.427 . S
N1222 C1219 1.384 . S
N1223 C1215 1.427 . S
N1223 C1221 1.384 . S
H1224 C1230 0.930 . S
H1225 C1234 0.930 . S
H1226 C1239 0.929 . S
H1227 C1237 0.929 . S
H1228 C1232 0.929 . S
H1229 C1238 0.929 . S
C1230 H1224 0.930 . S
C1230 C1231 1.367 . S
C1230 C1238 1.378 . S
C1231 C1230 1.367 . S
C1231 C1239 1.433 . S
C1232 H1228 0.929 . S
C1232 C1234 1.378 . S
C1232 C1236 1.350 . S
C1233 C1236 1.463 . S
C1233 C1238 1.350 . S
C1233 N1241 1.427 . S
C1234 H1225 0.930 . S
C1234 C1232 1.378 . S
C1234 C1235 1.367 . S
C1235 C1234 1.367 . S
C1235 C1237 1.433 . S
C1236 C1232 1.350 . S
C1236 C1233 1.463 . S
C1236 N1240 1.427 . S
C1237 H1227 0.929 . S
C1237 C1235 1.433 . S
C1237 N1240 1.384 . S
C1238 H1229 0.929 . S
C1238 C1230 1.378 . S
C1238 C1233 1.350 . S
C1239 H1226 0.929 . S
C1239 C1231 1.433 . S
C1239 N1241 1.384 . S
N1240 C1236 1.427 . S
N1240 C1237 1.384 . S
N1241 C1233 1.427 . S
N1241 C1239 1.384 . S
H1242 C1248 0.930 . S
H1243 C1252 0.930 . S
H1244 C1257 0.929 . S
H1245 C1255 0.929 . S
H1246 C1250 0.929 . S
H1247 C1256 0.929 . S
C1248 H1242 0.930 . S
C1248 C1249 1.367 . S
C1248 C1256 1.378 . S
C1249 C1248 1.367 . S
C1249 C1257 1.433 . S
C1250 H1246 0.929 . S
C1250 C1252 1.378 . S
C1250 C1254 1.350 . S
C1251 C1254 1.463 . S
C1251 C1256 1.350 . S
C1251 N1259 1.427 . S
C1252 H1243 0.930 . S
C1252 C1250 1.378 . S
C1252 C1253 1.367 . S
C1253 C1252 1.367 . S
C1253 C1255 1.433 . S
C1254 C1250 1.350 . S
C1254 C1251 1.463 . S
C1254 N1258 1.427 . S
C1255 H1245 0.929 . S
C1255 C1253 1.433 . S
C1255 N1258 1.384 . S
C1256 H1247 0.929 . S
C1256 C1248 1.378 . S
C1256 C1251 1.350 . S
C1257 H1244 0.929 . S
C1257 C1249 1.433 . S
C1257 N1259 1.384 . S
N1258 C1254 1.427 . S
N1258 C1255 1.384 . S
N1259 C1251 1.427 . S
N1259 C1257 1.384 . S
H1260 C1266 0.930 . S
H1261 C1270 0.930 . S
H1262 C1275 0.929 . S
H1263 C1273 0.929 . S
H1264 C1268 0.929 . S
H1265 C1274 0.929 . S
C1266 H1260 0.930 . S
C1266 C1267 1.367 . S
C1266 C1274 1.378 . S
C1267 C1266 1.367 . S
C1267 C1275 1.433 . S
C1268 H1264 0.929 . S
C1268 C1270 1.378 . S
C1268 C1272 1.350 . S
C1269 C1272 1.463 . S
C1269 C1274 1.350 . S
C1269 N1277 1.427 . S
C1270 H1261 0.930 . S
C1270 C1268 1.378 . S
C1270 C1271 1.367 . S
C1271 C1270 1.367 . S
C1271 C1273 1.433 . S
C1272 C1268 1.350 . S
C1272 C1269 1.463 . S
C1272 N1276 1.427 . S
C1273 H1263 0.929 . S
C1273 C1271 1.433 . S
C1273 N1276 1.384 . S
C1274 H1265 0.929 . S
C1274 C1266 1.378 . S
C1274 C1269 1.350 . S
C1275 H1262 0.929 . S
C1275 C1267 1.433 . S
C1275 N1277 1.384 . S
N1276 C1272 1.427 . S
N1276 C1273 1.384 . S
N1277 C1269 1.427 . S
N1277 C1275 1.384 . S
H1278 C1284 0.930 . S
H1279 C1288 0.930 . S
H1280 C1293 0.929 . S
H1281 C1291 0.929 . S
H1282 C1286 0.929 . S
H1283 C1292 0.929 . S
C1284 H1278 0.930 . S
C1284 C1285 1.367 . S
C1284 C1292 1.378 . S
C1285 C1284 1.367 . S
C1285 C1293 1.433 . S
C1286 H1282 0.929 . S
C1286 C1288 1.378 . S
C1286 C1290 1.350 . S
C1287 C1290 1.463 . S
C1287 C1292 1.350 . S
C1287 N1295 1.427 . S
C1288 H1279 0.930 . S
C1288 C1286 1.378 . S
C1288 C1289 1.367 . S
C1289 C1288 1.367 . S
C1289 C1291 1.433 . S
C1290 C1286 1.350 . S
C1290 C1287 1.463 . S
C1290 N1294 1.427 . S
C1291 H1281 0.929 . S
C1291 C1289 1.433 . S
C1291 N1294 1.384 . S
C1292 H1283 0.929 . S
C1292 C1284 1.378 . S
C1292 C1287 1.350 . S
C1293 H1280 0.929 . S
C1293 C1285 1.433 . S
C1293 N1295 1.384 . S
N1294 C1290 1.427 . S
N1294 C1291 1.384 . S
N1295 C1287 1.427 . S
N1295 C1293 1.384 . S
H1296 C1302 0.930 . S
H1297 C1306 0.930 . S
H1298 C1311 0.929 . S
H1299 C1309 0.929 . S
H1300 C1304 0.929 . S
H1301 C1310 0.929 . S
C1302 H1296 0.930 . S
C1302 C1303 1.367 . S
C1302 C1310 1.378 . S
C1303 C1302 1.367 . S
C1303 C1311 1.433 . S
C1304 H1300 0.929 . S
C1304 C1306 1.378 . S
C1304 C1308 1.350 . S
C1305 C1308 1.463 . S
C1305 C1310 1.350 . S
C1305 N1313 1.427 . S
C1306 H1297 0.930 . S
C1306 C1304 1.378 . S
C1306 C1307 1.367 . S
C1307 C1306 1.367 . S
C1307 C1309 1.433 . S
C1308 C1304 1.350 . S
C1308 C1305 1.463 . S
C1308 N1312 1.427 . S
C1309 H1299 0.929 . S
C1309 C1307 1.433 . S
C1309 N1312 1.384 . S
C1310 H1301 0.929 . S
C1310 C1302 1.378 . S
C1310 C1305 1.350 . S
C1311 H1298 0.929 . S
C1311 C1303 1.433 . S
C1311 N1313 1.384 . S
N1312 C1308 1.427 . S
N1312 C1309 1.384 . S
N1313 C1305 1.427 . S
N1313 C1311 1.384 . S
H1314 C1320 0.930 . S
H1315 C1324 0.930 . S
H1316 C1329 0.929 . S
H1317 C1327 0.929 . S
H1318 C1322 0.929 . S
H1319 C1328 0.929 . S
C1320 H1314 0.930 . S
C1320 C1321 1.367 . S
C1320 C1328 1.378 . S
C1321 C1320 1.367 . S
C1321 C1329 1.433 . S
C1322 H1318 0.929 . S
C1322 C1324 1.378 . S
C1322 C1326 1.350 . S
C1323 C1326 1.463 . S
C1323 C1328 1.350 . S
C1323 N1331 1.427 . S
C1324 H1315 0.930 . S
C1324 C1322 1.378 . S
C1324 C1325 1.367 . S
C1325 C1324 1.367 . S
C1325 C1327 1.433 . S
C1326 C1322 1.350 . S
C1326 C1323 1.463 . S
C1326 N1330 1.427 . S
C1327 H1317 0.929 . S
C1327 C1325 1.433 . S
C1327 N1330 1.384 . S
C1328 H1319 0.929 . S
C1328 C1320 1.378 . S
C1328 C1323 1.350 . S
C1329 H1316 0.929 . S
C1329 C1321 1.433 . S
C1329 N1331 1.384 . S
N1330 C1326 1.427 . S
N1330 C1327 1.384 . S
N1331 C1323 1.427 . S
N1331 C1329 1.384 . S
H1332 C1338 0.930 . S
H1333 C1342 0.930 . S
H1334 C1347 0.929 . S
H1335 C1345 0.929 . S
H1336 C1340 0.929 . S
H1337 C1346 0.928 1_556 S
C1338 H1332 0.930 . S
C1338 C1339 1.367 . S
C1338 C1346 1.379 . S
C1339 C1338 1.367 . S
C1339 C1347 1.433 . S
C1340 H1336 0.929 . S
C1340 C1342 1.378 . S
C1340 C1344 1.350 . S
C1341 C1344 1.463 . S
C1341 C1346 1.349 1_556 S
C1341 N1349 1.427 . S
C1342 H1333 0.930 . S
C1342 C1340 1.378 . S
C1342 C1343 1.367 . S
C1343 C1342 1.367 . S
C1343 C1345 1.433 . S
C1344 C1340 1.350 . S
C1344 C1341 1.463 . S
C1344 N1348 1.427 . S
C1345 H1335 0.929 . S
C1345 C1343 1.433 . S
C1345 N1348 1.384 . S
C1346 H1337 0.928 1_554 S
C1346 C1338 1.379 . S
C1346 C1341 1.349 1_554 S
C1347 H1334 0.929 . S
C1347 C1339 1.433 . S
C1347 N1349 1.384 1_554 S
N1348 C1344 1.427 . S
N1348 C1345 1.384 . S
N1349 C1341 1.427 . S
N1349 C1347 1.384 1_556 S
H1350 C1356 0.930 . S
H1351 C1360 0.930 . S
H1352 C1365 0.929 . S
H1353 C1363 0.929 . S
H1354 C1358 0.929 . S
H1355 C1364 0.929 . S
C1356 H1350 0.930 . S
C1356 C1357 1.367 . S
C1356 C1364 1.378 1_554 S
C1357 C1356 1.367 . S
C1357 C1365 1.433 . S
C1358 H1354 0.929 . S
C1358 C1360 1.378 . S
C1358 C1362 1.350 . S
C1359 C1362 1.463 . S
C1359 C1364 1.350 . S
C1359 N1367 1.427 1_556 S
C1360 H1351 0.930 . S
C1360 C1358 1.378 . S
C1360 C1361 1.367 . S
C1361 C1360 1.367 . S
C1361 C1363 1.433 . S
C1362 C1358 1.350 . S
C1362 C1359 1.463 . S
C1362 N1366 1.427 . S
C1363 H1353 0.929 . S
C1363 C1361 1.433 . S
C1363 N1366 1.384 . S
C1364 H1355 0.929 . S
C1364 C1356 1.378 1_556 S
C1364 C1359 1.350 . S
C1365 H1352 0.929 . S
C1365 C1357 1.433 . S
C1365 N1367 1.384 . S
N1366 C1362 1.427 . S
N1366 C1363 1.384 . S
N1367 C1359 1.427 1_554 S
N1367 C1365 1.384 . S
H1368 C1374 0.930 . S
H1369 C1378 0.930 . S
H1370 C1383 0.929 . S
H1371 C1381 0.929 . S
H1372 C1376 0.929 . S
H1373 C1382 0.929 . S
C1374 H1368 0.930 . S
C1374 C1375 1.367 . S
C1374 C1382 1.378 . S
C1375 C1374 1.367 . S
C1375 C1383 1.433 . S
C1376 H1372 0.929 . S
C1376 C1378 1.378 1_556 S
C1376 C1380 1.350 . S
C1377 C1380 1.463 . S
C1377 C1382 1.350 . S
C1377 N1385 1.427 . S
C1378 H1369 0.930 . S
C1378 C1376 1.378 1_554 S
C1378 C1379 1.367 . S
C1379 C1378 1.367 . S
C1379 C1381 1.433 . S
C1380 C1376 1.350 . S
C1380 C1377 1.463 . S
C1380 N1384 1.427 . S
C1381 H1371 0.929 . S
C1381 C1379 1.433 . S
C1381 N1384 1.384 1_554 S
C1382 H1373 0.929 . S
C1382 C1374 1.378 . S
C1382 C1377 1.350 . S
C1383 H1370 0.929 . S
C1383 C1375 1.433 . S
C1383 N1385 1.384 . S
N1384 C1380 1.427 . S
N1384 C1381 1.384 1_556 S
N1385 C1377 1.427 . S
N1385 C1383 1.384 . S
H1386 C1392 0.930 . S
H1387 C1396 0.930 . S
H1388 C1401 0.929 . S
H1389 C1399 0.929 . S
H1390 C1394 0.929 . S
H1391 C1400 0.929 . S
C1392 H1386 0.930 . S
C1392 C1393 1.367 . S
C1392 C1400 1.378 . S
C1393 C1392 1.367 . S
C1393 C1401 1.433 . S
C1394 H1390 0.929 . S
C1394 C1396 1.378 . S
C1394 C1398 1.350 . S
C1395 C1398 1.463 . S
C1395 C1400 1.350 . S
C1395 N1403 1.427 . S
C1396 H1387 0.930 . S
C1396 C1394 1.378 . S
C1396 C1397 1.367 . S
C1397 C1396 1.367 . S
C1397 C1399 1.433 . S
C1398 C1394 1.350 . S
C1398 C1395 1.463 . S
C1398 N1402 1.427 . S
C1399 H1389 0.929 . S
C1399 C1397 1.433 . S
C1399 N1402 1.384 . S
C1400 H1391 0.929 . S
C1400 C1392 1.378 . S
C1400 C1395 1.350 . S
C1401 H1388 0.929 . S
C1401 C1393 1.433 . S
C1401 N1403 1.384 . S
N1402 C1398 1.427 . S
N1402 C1399 1.384 . S
N1403 C1395 1.427 . S
N1403 C1401 1.384 . S
H1404 C1410 0.930 . S
H1405 C1414 0.930 . S
H1406 C1419 0.929 . S
H1407 C1417 0.929 . S
H1408 C1412 0.929 . S
H1409 C1418 0.929 . S
C1410 H1404 0.930 . S
C1410 C1411 1.367 . S
C1410 C1418 1.378 . S
C1411 C1410 1.367 . S
C1411 C1419 1.433 . S
C1412 H1408 0.929 . S
C1412 C1414 1.378 . S
C1412 C1416 1.350 . S
C1413 C1416 1.463 . S
C1413 C1418 1.350 . S
C1413 N1421 1.427 . S
C1414 H1405 0.930 . S
C1414 C1412 1.378 . S
C1414 C1415 1.367 . S
C1415 C1414 1.367 . S
C1415 C1417 1.433 . S
C1416 C1412 1.350 . S
C1416 C1413 1.463 . S
C1416 N1420 1.427 . S
C1417 H1407 0.929 . S
C1417 C1415 1.433 . S
C1417 N1420 1.384 . S
C1418 H1409 0.929 . S
C1418 C1410 1.378 . S
C1418 C1413 1.350 . S
C1419 H1406 0.929 . S
C1419 C1411 1.433 . S
C1419 N1421 1.384 . S
N1420 C1416 1.427 . S
N1420 C1417 1.384 . S
N1421 C1413 1.427 . S
N1421 C1419 1.384 . S
H1422 C1428 0.930 . S
H1423 C1432 0.930 . S
H1424 C1437 0.929 . S
H1425 C1435 0.929 . S
H1426 C1430 0.929 . S
H1427 C1436 0.929 . S
C1428 H1422 0.930 . S
C1428 C1429 1.367 . S
C1428 C1436 1.378 . S
C1429 C1428 1.367 . S
C1429 C1437 1.433 . S
C1430 H1426 0.929 . S
C1430 C1432 1.378 . S
C1430 C1434 1.350 . S
C1431 C1434 1.463 . S
C1431 C1436 1.350 . S
C1431 N1439 1.427 . S
C1432 H1423 0.930 . S
C1432 C1430 1.378 . S
C1432 C1433 1.367 . S
C1433 C1432 1.367 . S
C1433 C1435 1.433 . S
C1434 C1430 1.350 . S
C1434 C1431 1.463 . S
C1434 N1438 1.427 . S
C1435 H1425 0.929 . S
C1435 C1433 1.433 . S
C1435 N1438 1.384 . S
C1436 H1427 0.929 . S
C1436 C1428 1.378 . S
C1436 C1431 1.350 . S
C1437 H1424 0.929 . S
C1437 C1429 1.433 . S
C1437 N1439 1.384 . S
N1438 C1434 1.427 . S
N1438 C1435 1.384 . S
N1439 C1431 1.427 . S
N1439 C1437 1.384 . S
H1440 C1446 0.930 . S
H1441 C1450 0.930 . S
H1442 C1455 0.929 . S
H1443 C1453 0.929 . S
H1444 C1448 0.929 . S
H1445 C1454 0.929 . S
C1446 H1440 0.930 . S
C1446 C1447 1.367 . S
C1446 C1454 1.378 . S
C1447 C1446 1.367 . S
C1447 C1455 1.433 . S
C1448 H1444 0.929 . S
C1448 C1450 1.378 . S
C1448 C1452 1.350 . S
C1449 C1452 1.463 . S
C1449 C1454 1.350 . S
C1449 N1457 1.427 . S
C1450 H1441 0.930 . S
C1450 C1448 1.378 . S
C1450 C1451 1.367 . S
C1451 C1450 1.367 . S
C1451 C1453 1.433 . S
C1452 C1448 1.350 . S
C1452 C1449 1.463 . S
C1452 N1456 1.427 . S
C1453 H1443 0.929 . S
C1453 C1451 1.433 . S
C1453 N1456 1.384 . S
C1454 H1445 0.929 . S
C1454 C1446 1.378 . S
C1454 C1449 1.350 . S
C1455 H1442 0.929 . S
C1455 C1447 1.433 . S
C1455 N1457 1.384 . S
N1456 C1452 1.427 . S
N1456 C1453 1.384 . S
N1457 C1449 1.427 . S
N1457 C1455 1.384 . S
H1458 C1464 0.930 . S
H1459 C1468 0.930 . S
H1460 C1473 0.929 . S
H1461 C1471 0.929 . S
H1462 C1466 0.929 . S
H1463 C1472 0.929 . S
C1464 H1458 0.930 . S
C1464 C1465 1.367 . S
C1464 C1472 1.378 . S
C1465 C1464 1.367 . S
C1465 C1473 1.433 . S
C1466 H1462 0.929 . S
C1466 C1468 1.378 . S
C1466 C1470 1.350 . S
C1467 C1470 1.463 . S
C1467 C1472 1.350 . S
C1467 N1475 1.427 . S
C1468 H1459 0.930 . S
C1468 C1466 1.378 . S
C1468 C1469 1.367 . S
C1469 C1468 1.367 . S
C1469 C1471 1.433 . S
C1470 C1466 1.350 . S
C1470 C1467 1.463 . S
C1470 N1474 1.427 . S
C1471 H1461 0.929 . S
C1471 C1469 1.433 . S
C1471 N1474 1.384 . S
C1472 H1463 0.929 . S
C1472 C1464 1.378 . S
C1472 C1467 1.350 . S
C1473 H1460 0.929 . S
C1473 C1465 1.433 . S
C1473 N1475 1.384 . S
N1474 C1470 1.427 . S
N1474 C1471 1.384 . S
N1475 C1467 1.427 . S
N1475 C1473 1.384 . S
H1476 C1482 0.930 . S
H1477 C1486 0.930 . S
H1478 C1491 0.929 . S
H1479 C1489 0.929 . S
H1480 C1484 0.929 . S
H1481 C1490 0.929 . S
C1482 H1476 0.930 . S
C1482 C1483 1.367 . S
C1482 C1490 1.378 . S
C1483 C1482 1.367 . S
C1483 C1491 1.433 . S
C1484 H1480 0.929 . S
C1484 C1486 1.378 . S
C1484 C1488 1.350 . S
C1485 C1488 1.463 . S
C1485 C1490 1.350 . S
C1485 N1493 1.427 . S
C1486 H1477 0.930 . S
C1486 C1484 1.378 . S
C1486 C1487 1.367 . S
C1487 C1486 1.367 . S
C1487 C1489 1.433 . S
C1488 C1484 1.350 . S
C1488 C1485 1.463 . S
C1488 N1492 1.427 . S
C1489 H1479 0.929 . S
C1489 C1487 1.433 . S
C1489 N1492 1.384 . S
C1490 H1481 0.929 . S
C1490 C1482 1.378 . S
C1490 C1485 1.350 . S
C1491 H1478 0.929 . S
C1491 C1483 1.433 . S
C1491 N1493 1.384 . S
N1492 C1488 1.427 . S
N1492 C1489 1.384 . S
N1493 C1485 1.427 . S
N1493 C1491 1.384 . S
H1494 C1500 0.930 . S
H1495 C1504 0.930 . S
H1496 C1509 0.929 . S
H1497 C1507 0.929 . S
H1498 C1502 0.929 . S
H1499 C1508 0.929 . S
C1500 H1494 0.930 . S
C1500 C1501 1.367 . S
C1500 C1508 1.378 1_554 S
C1501 C1500 1.367 . S
C1501 C1509 1.433 . S
C1502 H1498 0.929 . S
C1502 C1504 1.378 . S
C1502 C1506 1.350 . S
C1503 C1506 1.463 . S
C1503 C1508 1.350 . S
C1503 N1511 1.427 . S
C1504 H1495 0.930 . S
C1504 C1502 1.378 . S
C1504 C1505 1.367 . S
C1505 C1504 1.367 . S
C1505 C1507 1.433 . S
C1506 C1502 1.350 . S
C1506 C1503 1.463 . S
C1506 N1510 1.427 . S
C1507 H1497 0.929 . S
C1507 C1505 1.433 . S
C1507 N1510 1.384 . S
C1508 H1499 0.929 . S
C1508 C1500 1.378 1_556 S
C1508 C1503 1.350 . S
C1509 H1496 0.929 . S
C1509 C1501 1.433 . S
C1509 N1511 1.384 1_554 S
N1510 C1506 1.427 . S
N1510 C1507 1.384 . S
N1511 C1503 1.427 . S
N1511 C1509 1.384 1_556 S
H1512 C1518 0.930 . S
H1513 C1522 0.930 . S
H1514 C1527 0.929 . S
H1515 C1525 0.929 . S
H1516 C1520 0.929 . S
H1517 C1526 0.929 . S
C1518 H1512 0.930 . S
C1518 C1519 1.367 . S
C1518 C1526 1.378 1_554 S
C1519 C1518 1.367 . S
C1519 C1527 1.433 . S
C1520 H1516 0.929 . S
C1520 C1522 1.378 . S
C1520 C1524 1.350 . S
C1521 C1524 1.463 . S
C1521 C1526 1.350 . S
C1521 N1529 1.427 1_556 S
C1522 H1513 0.930 . S
C1522 C1520 1.378 . S
C1522 C1523 1.367 . S
C1523 C1522 1.367 . S
C1523 C1525 1.433 . S
C1524 C1520 1.350 . S
C1524 C1521 1.463 . S
C1524 N1528 1.427 . S
C1525 H1515 0.929 . S
C1525 C1523 1.433 . S
C1525 N1528 1.384 . S
C1526 H1517 0.929 . S
C1526 C1518 1.378 1_556 S
C1526 C1521 1.350 . S
C1527 H1514 0.929 . S
C1527 C1519 1.433 . S
C1527 N1529 1.384 . S
N1528 C1524 1.427 . S
N1528 C1525 1.384 . S
N1529 C1521 1.427 1_554 S
N1529 C1527 1.384 . S
H1530 C1536 0.930 . S
H1531 C1540 0.930 . S
H1532 C1545 0.929 . S
H1533 C1543 0.929 . S
H1534 C1538 0.926 1_556 S
H1535 C1544 0.929 . S
C1536 H1530 0.930 . S
C1536 C1537 1.367 . S
C1536 C1544 1.378 . S
C1537 C1536 1.367 . S
C1537 C1545 1.433 . S
C1538 H1534 0.926 1_554 S
C1538 C1540 1.384 . S
C1538 C1542 1.347 1_554 S
C1539 C1542 1.463 . S
C1539 C1544 1.350 . S
C1539 N1547 1.427 . S
C1540 H1531 0.930 . S
C1540 C1538 1.384 . S
C1540 C1541 1.367 . S
C1541 C1540 1.367 . S
C1541 C1543 1.433 . S
C1542 C1538 1.347 1_556 S
C1542 C1539 1.463 . S
C1542 N1546 1.427 . S
C1543 H1533 0.929 . S
C1543 C1541 1.433 . S
C1543 N1546 1.384 1_554 S
C1544 H1535 0.929 . S
C1544 C1536 1.378 . S
C1544 C1539 1.350 . S
C1545 H1532 0.929 . S
C1545 C1537 1.433 . S
C1545 N1547 1.384 . S
N1546 C1542 1.427 . S
N1546 C1543 1.384 1_556 S
N1547 C1539 1.427 . S
N1547 C1545 1.384 . S
H1548 C1554 0.930 . S
H1549 C1558 0.930 . S
H1550 C1563 0.929 . S
H1551 C1561 0.929 . S
H1552 C1556 0.929 . S
H1553 C1562 0.929 . S
C1554 H1548 0.930 . S
C1554 C1555 1.367 . S
C1554 C1562 1.378 . S
C1555 C1554 1.367 . S
C1555 C1563 1.433 . S
C1556 H1552 0.929 . S
C1556 C1558 1.378 . S
C1556 C1560 1.350 . S
C1557 C1560 1.463 . S
C1557 C1562 1.350 . S
C1557 N1565 1.427 . S
C1558 H1549 0.930 . S
C1558 C1556 1.378 . S
C1558 C1559 1.367 . S
C1559 C1558 1.367 . S
C1559 C1561 1.433 . S
C1560 C1556 1.350 . S
C1560 C1557 1.463 . S
C1560 N1564 1.427 . S
C1561 H1551 0.929 . S
C1561 C1559 1.433 . S
C1561 N1564 1.384 . S
C1562 H1553 0.929 . S
C1562 C1554 1.378 . S
C1562 C1557 1.350 . S
C1563 H1550 0.929 . S
C1563 C1555 1.433 . S
C1563 N1565 1.384 . S
N1564 C1560 1.427 . S
N1564 C1561 1.384 . S
N1565 C1557 1.427 . S
N1565 C1563 1.384 . S
H1566 C1572 0.930 . S
H1567 C1576 0.930 . S
H1568 C1581 0.929 . S
H1569 C1579 0.929 . S
H1570 C1574 0.929 . S
H1571 C1580 0.929 . S
C1572 H1566 0.930 . S
C1572 C1573 1.367 . S
C1572 C1580 1.378 . S
C1573 C1572 1.367 . S
C1573 C1581 1.433 . S
C1574 H1570 0.929 . S
C1574 C1576 1.378 . S
C1574 C1578 1.350 . S
C1575 C1578 1.463 . S
C1575 C1580 1.350 . S
C1575 N1583 1.427 . S
C1576 H1567 0.930 . S
C1576 C1574 1.378 . S
C1576 C1577 1.367 . S
C1577 C1576 1.367 . S
C1577 C1579 1.433 . S
C1578 C1574 1.350 . S
C1578 C1575 1.463 . S
C1578 N1582 1.427 . S
C1579 H1569 0.929 . S
C1579 C1577 1.433 . S
C1579 N1582 1.384 . S
C1580 H1571 0.929 . S
C1580 C1572 1.378 . S
C1580 C1575 1.350 . S
C1581 H1568 0.929 . S
C1581 C1573 1.433 . S
C1581 N1583 1.384 . S
N1582 C1578 1.427 . S
N1582 C1579 1.384 . S
N1583 C1575 1.427 . S
N1583 C1581 1.384 . S
H1584 C1590 0.930 . S
H1585 C1594 0.930 . S
H1586 C1599 0.929 . S
H1587 C1597 0.929 . S
H1588 C1592 0.929 . S
H1589 C1598 0.929 . S
C1590 H1584 0.930 . S
C1590 C1591 1.367 . S
C1590 C1598 1.378 . S
C1591 C1590 1.367 . S
C1591 C1599 1.433 . S
C1592 H1588 0.929 . S
C1592 C1594 1.378 . S
C1592 C1596 1.350 . S
C1593 C1596 1.463 . S
C1593 C1598 1.350 . S
C1593 N1601 1.427 . S
C1594 H1585 0.930 . S
C1594 C1592 1.378 . S
C1594 C1595 1.367 . S
C1595 C1594 1.367 . S
C1595 C1597 1.433 . S
C1596 C1592 1.350 . S
C1596 C1593 1.463 . S
C1596 N1600 1.427 . S
C1597 H1587 0.929 . S
C1597 C1595 1.433 . S
C1597 N1600 1.384 . S
C1598 H1589 0.929 . S
C1598 C1590 1.378 . S
C1598 C1593 1.350 . S
C1599 H1586 0.929 . S
C1599 C1591 1.433 . S
C1599 N1601 1.384 . S
N1600 C1596 1.427 . S
N1600 C1597 1.384 . S
N1601 C1593 1.427 . S
N1601 C1599 1.384 . S
H1602 C1608 0.930 . S
H1603 C1612 0.930 . S
H1604 C1617 0.929 . S
H1605 C1615 0.929 . S
H1606 C1610 0.929 . S
H1607 C1616 0.929 . S
C1608 H1602 0.930 . S
C1608 C1609 1.367 . S
C1608 C1616 1.378 1_556 S
C1609 C1608 1.367 . S
C1609 C1617 1.433 . S
C1610 H1606 0.929 . S
C1610 C1612 1.378 . S
C1610 C1614 1.350 . S
C1611 C1614 1.463 . S
C1611 C1616 1.350 . S
C1611 N1619 1.427 1_554 S
C1612 H1603 0.930 . S
C1612 C1610 1.378 . S
C1612 C1613 1.367 . S
C1613 C1612 1.367 . S
C1613 C1615 1.433 . S
C1614 C1610 1.350 . S
C1614 C1611 1.463 . S
C1614 N1618 1.427 . S
C1615 H1605 0.929 . S
C1615 C1613 1.433 . S
C1615 N1618 1.384 . S
C1616 H1607 0.929 . S
C1616 C1608 1.378 1_554 S
C1616 C1611 1.350 . S
C1617 H1604 0.929 . S
C1617 C1609 1.433 . S
C1617 N1619 1.384 . S
N1618 C1614 1.427 . S
N1618 C1615 1.384 . S
N1619 C1611 1.427 1_556 S
N1619 C1617 1.384 . S
H1620 C1626 0.930 . S
H1621 C1630 0.930 . S
H1622 C1635 0.929 . S
H1623 C1633 0.929 . S
H1624 C1628 0.929 1_554 S
H1625 C1634 0.929 . S
C1626 H1620 0.930 . S
C1626 C1627 1.367 . S
C1626 C1634 1.378 . S
C1627 C1626 1.367 . S
C1627 C1635 1.433 . S
C1628 H1624 0.929 1_556 S
C1628 C1630 1.378 . S
C1628 C1632 1.350 1_556 S
C1629 C1632 1.463 . S
C1629 C1634 1.350 . S
C1629 N1637 1.427 . S
C1630 H1621 0.930 . S
C1630 C1628 1.378 . S
C1630 C1631 1.367 . S
C1631 C1630 1.367 . S
C1631 C1633 1.433 . S
C1632 C1628 1.350 1_554 S
C1632 C1629 1.463 . S
C1632 N1636 1.427 . S
C1633 H1623 0.929 . S
C1633 C1631 1.433 . S
C1633 N1636 1.384 1_556 S
C1634 H1625 0.929 . S
C1634 C1626 1.378 . S
C1634 C1629 1.350 . S
C1635 H1622 0.929 . S
C1635 C1627 1.433 . S
C1635 N1637 1.384 . S
N1636 C1632 1.427 . S
N1636 C1633 1.384 1_554 S
N1637 C1629 1.427 . S
N1637 C1635 1.384 . S
H1638 C1644 0.930 . S
H1639 C1648 0.930 . S
H1640 C1653 0.929 . S
H1641 C1651 0.929 . S
H1642 C1646 0.929 . S
H1643 C1652 0.929 . S
C1644 H1638 0.930 . S
C1644 C1645 1.367 . S
C1644 C1652 1.378 . S
C1645 C1644 1.367 . S
C1645 C1653 1.433 . S
C1646 H1642 0.929 . S
C1646 C1648 1.378 1_554 S
C1646 C1650 1.350 . S
C1647 C1650 1.463 . S
C1647 C1652 1.350 . S
C1647 N1655 1.427 . S
C1648 H1639 0.930 . S
C1648 C1646 1.378 1_556 S
C1648 C1649 1.367 . S
C1649 C1648 1.367 . S
C1649 C1651 1.433 . S
C1650 C1646 1.350 . S
C1650 C1647 1.463 . S
C1650 N1654 1.427 1_554 S
C1651 H1641 0.929 . S
C1651 C1649 1.433 . S
C1651 N1654 1.384 . S
C1652 H1643 0.929 . S
C1652 C1644 1.378 . S
C1652 C1647 1.350 . S
C1653 H1640 0.929 . S
C1653 C1645 1.433 . S
C1653 N1655 1.384 . S
N1654 C1650 1.427 1_556 S
N1654 C1651 1.384 . S
N1655 C1647 1.427 . S
N1655 C1653 1.384 . S
H1656 C1662 0.930 . S
H1657 C1666 0.930 . S
H1658 C1671 0.929 . S
H1659 C1669 0.929 . S
H1660 C1664 0.929 . S
H1661 C1670 0.929 . S
C1662 H1656 0.930 . S
C1662 C1663 1.367 . S
C1662 C1670 1.378 . S
C1663 C1662 1.367 . S
C1663 C1671 1.433 . S
C1664 H1660 0.929 . S
C1664 C1666 1.378 1_554 S
C1664 C1668 1.350 . S
C1665 C1668 1.463 . S
C1665 C1670 1.350 . S
C1665 N1673 1.427 . S
C1666 H1657 0.930 . S
C1666 C1664 1.378 1_556 S
C1666 C1667 1.367 . S
C1667 C1666 1.367 . S
C1667 C1669 1.433 . S
C1668 C1664 1.350 . S
C1668 C1665 1.463 . S
C1668 N1672 1.427 1_554 S
C1669 H1659 0.929 . S
C1669 C1667 1.433 . S
C1669 N1672 1.384 . S
C1670 H1661 0.929 . S
C1670 C1662 1.378 . S
C1670 C1665 1.350 . S
C1671 H1658 0.929 . S
C1671 C1663 1.433 . S
C1671 N1673 1.384 . S
N1672 C1668 1.427 1_556 S
N1672 C1669 1.384 . S
N1673 C1665 1.427 . S
N1673 C1671 1.384 . S
H1674 C1680 0.930 . S
H1675 C1684 0.930 . S
H1676 C1689 0.929 . S
H1677 C1687 0.929 . S
H1678 C1682 0.929 . S
H1679 C1688 0.929 1_554 S
C1680 H1674 0.930 . S
C1680 C1681 1.367 . S
C1680 C1688 1.378 . S
C1681 C1680 1.367 . S
C1681 C1689 1.433 . S
C1682 H1678 0.929 . S
C1682 C1684 1.378 . S
C1682 C1686 1.350 . S
C1683 C1686 1.463 . S
C1683 C1688 1.350 1_554 S
C1683 N1691 1.427 . S
C1684 H1675 0.930 . S
C1684 C1682 1.378 . S
C1684 C1685 1.367 . S
C1685 C1684 1.367 . S
C1685 C1687 1.433 . S
C1686 C1682 1.350 . S
C1686 C1683 1.463 . S
C1686 N1690 1.427 . S
C1687 H1677 0.929 . S
C1687 C1685 1.433 . S
C1687 N1690 1.384 . S
C1688 H1679 0.929 1_556 S
C1688 C1680 1.378 . S
C1688 C1683 1.350 1_556 S
C1689 H1676 0.929 . S
C1689 C1681 1.433 . S
C1689 N1691 1.384 1_556 S
N1690 C1686 1.427 . S
N1690 C1687 1.384 . S
N1691 C1683 1.427 . S
N1691 C1689 1.384 1_554 S
H1692 C1698 0.930 . S
H1693 C1702 0.930 . S
H1694 C1707 0.929 . S
H1695 C1705 0.929 . S
H1696 C1700 0.929 . S
H1697 C1706 0.929 . S
C1698 H1692 0.930 . S
C1698 C1699 1.367 . S
C1698 C1706 1.378 1_556 S
C1699 C1698 1.367 . S
C1699 C1707 1.433 . S
C1700 H1696 0.929 . S
C1700 C1702 1.378 . S
C1700 C1704 1.350 . S
C1701 C1704 1.463 . S
C1701 C1706 1.350 . S
C1701 N1709 1.427 . S
C1702 H1693 0.930 . S
C1702 C1700 1.378 . S
C1702 C1703 1.367 . S
C1703 C1702 1.367 . S
C1703 C1705 1.433 . S
C1704 C1700 1.350 . S
C1704 C1701 1.463 . S
C1704 N1708 1.427 . S
C1705 H1695 0.929 . S
C1705 C1703 1.433 . S
C1705 N1708 1.384 . S
C1706 H1697 0.929 . S
C1706 C1698 1.378 1_554 S
C1706 C1701 1.350 . S
C1707 H1694 0.929 . S
C1707 C1699 1.433 . S
C1707 N1709 1.384 1_556 S
N1708 C1704 1.427 . S
N1708 C1705 1.384 . S
N1709 C1701 1.427 . S
N1709 C1707 1.384 1_554 S
H1710 C1716 0.930 . S
H1711 C1720 0.930 . S
H1712 C1725 0.929 . S
H1713 C1723 0.929 . S
H1714 C1718 0.929 . S
H1715 C1724 0.929 . S
C1716 H1710 0.930 . S
C1716 C1717 1.367 . S
C1716 C1724 1.378 . S
C1717 C1716 1.367 . S
C1717 C1725 1.433 . S
C1718 H1714 0.929 . S
C1718 C1720 1.378 . S
C1718 C1722 1.350 . S
C1719 C1722 1.463 . S
C1719 C1724 1.350 . S
C1719 N1727 1.427 . S
C1720 H1711 0.930 . S
C1720 C1718 1.378 . S
C1720 C1721 1.367 . S
C1721 C1720 1.367 . S
C1721 C1723 1.433 . S
C1722 C1718 1.350 . S
C1722 C1719 1.463 . S
C1722 N1726 1.427 . S
C1723 H1713 0.929 . S
C1723 C1721 1.433 . S
C1723 N1726 1.384 . S
C1724 H1715 0.929 . S
C1724 C1716 1.378 . S
C1724 C1719 1.350 . S
C1725 H1712 0.929 . S
C1725 C1717 1.433 . S
C1725 N1727 1.384 . S
N1726 C1722 1.427 . S
N1726 C1723 1.384 . S
N1727 C1719 1.427 . S
N1727 C1725 1.384 . S
H1728 C1734 0.930 . S
H1729 C1738 0.930 . S
H1730 C1743 0.929 . S
H1731 C1741 0.929 . S
H1732 C1736 0.929 . S
H1733 C1742 0.929 . S
C1734 H1728 0.930 . S
C1734 C1735 1.367 . S
C1734 C1742 1.378 . S
C1735 C1734 1.367 . S
C1735 C1743 1.433 . S
C1736 H1732 0.929 . S
C1736 C1738 1.378 . S
C1736 C1740 1.350 . S
C1737 C1740 1.463 . S
C1737 C1742 1.350 . S
C1737 N1745 1.427 . S
C1738 H1729 0.930 . S
C1738 C1736 1.378 . S
C1738 C1739 1.367 . S
C1739 C1738 1.367 . S
C1739 C1741 1.433 . S
C1740 C1736 1.350 . S
C1740 C1737 1.463 . S
C1740 N1744 1.427 . S
C1741 H1731 0.929 . S
C1741 C1739 1.433 . S
C1741 N1744 1.384 . S
C1742 H1733 0.929 . S
C1742 C1734 1.378 . S
C1742 C1737 1.350 . S
C1743 H1730 0.929 . S
C1743 C1735 1.433 . S
C1743 N1745 1.384 . S
N1744 C1740 1.427 . S
N1744 C1741 1.384 . S
N1745 C1737 1.427 . S
N1745 C1743 1.384 . S
H1746 C1752 0.930 . S
H1747 C1756 0.930 . S
H1748 C1761 0.929 . S
H1749 C1759 0.929 . S
H1750 C1754 0.929 . S
H1751 C1760 0.929 . S
C1752 H1746 0.930 . S
C1752 C1753 1.367 . S
C1752 C1760 1.378 . S
C1753 C1752 1.367 . S
C1753 C1761 1.433 . S
C1754 H1750 0.929 . S
C1754 C1756 1.378 . S
C1754 C1758 1.350 . S
C1755 C1758 1.463 . S
C1755 C1760 1.350 . S
C1755 N1763 1.427 . S
C1756 H1747 0.930 . S
C1756 C1754 1.378 . S
C1756 C1757 1.367 . S
C1757 C1756 1.367 . S
C1757 C1759 1.433 . S
C1758 C1754 1.350 . S
C1758 C1755 1.463 . S
C1758 N1762 1.427 . S
C1759 H1749 0.929 . S
C1759 C1757 1.433 . S
C1759 N1762 1.384 . S
C1760 H1751 0.929 . S
C1760 C1752 1.378 . S
C1760 C1755 1.350 . S
C1761 H1748 0.929 . S
C1761 C1753 1.433 . S
C1761 N1763 1.384 . S
N1762 C1758 1.427 . S
N1762 C1759 1.384 . S
N1763 C1755 1.427 . S
N1763 C1761 1.384 . S
H1764 C1770 0.930 . S
H1765 C1774 0.930 . S
H1766 C1779 0.929 . S
H1767 C1777 0.929 . S
H1768 C1772 0.929 . S
H1769 C1778 0.929 . S
C1770 H1764 0.930 . S
C1770 C1771 1.367 . S
C1770 C1778 1.378 . S
C1771 C1770 1.367 . S
C1771 C1779 1.433 . S
C1772 H1768 0.929 . S
C1772 C1774 1.378 . S
C1772 C1776 1.350 . S
C1773 C1776 1.463 . S
C1773 C1778 1.350 . S
C1773 N1781 1.427 . S
C1774 H1765 0.930 . S
C1774 C1772 1.378 . S
C1774 C1775 1.367 . S
C1775 C1774 1.367 . S
C1775 C1777 1.433 . S
C1776 C1772 1.350 . S
C1776 C1773 1.463 . S
C1776 N1780 1.427 . S
C1777 H1767 0.929 . S
C1777 C1775 1.433 . S
C1777 N1780 1.384 . S
C1778 H1769 0.929 . S
C1778 C1770 1.378 . S
C1778 C1773 1.350 . S
C1779 H1766 0.929 . S
C1779 C1771 1.433 . S
C1779 N1781 1.384 . S
N1780 C1776 1.427 . S
N1780 C1777 1.384 . S
N1781 C1773 1.427 . S
N1781 C1779 1.384 . S
H1782 C1788 0.930 . S
H1783 C1792 0.930 . S
H1784 C1797 0.929 . S
H1785 C1795 0.929 . S
H1786 C1790 0.929 . S
H1787 C1796 0.929 . S
C1788 H1782 0.930 . S
C1788 C1789 1.367 . S
C1788 C1796 1.378 . S
C1789 C1788 1.367 . S
C1789 C1797 1.433 . S
C1790 H1786 0.929 . S
C1790 C1792 1.378 . S
C1790 C1794 1.350 . S
C1791 C1794 1.463 . S
C1791 C1796 1.350 . S
C1791 N1799 1.427 . S
C1792 H1783 0.930 . S
C1792 C1790 1.378 . S
C1792 C1793 1.367 . S
C1793 C1792 1.367 . S
C1793 C1795 1.433 . S
C1794 C1790 1.350 . S
C1794 C1791 1.463 . S
C1794 N1798 1.427 . S
C1795 H1785 0.929 . S
C1795 C1793 1.433 . S
C1795 N1798 1.384 . S
C1796 H1787 0.929 . S
C1796 C1788 1.378 . S
C1796 C1791 1.350 . S
C1797 H1784 0.929 . S
C1797 C1789 1.433 . S
C1797 N1799 1.384 . S
N1798 C1794 1.427 . S
N1798 C1795 1.384 . S
N1799 C1791 1.427 . S
N1799 C1797 1.384 . S
H1800 C1806 0.930 . S
H1801 C1810 0.930 . S
H1802 C1815 0.929 . S
H1803 C1813 0.929 . S
H1804 C1808 0.929 . S
H1805 C1814 0.929 . S
C1806 H1800 0.930 . S
C1806 C1807 1.367 . S
C1806 C1814 1.378 . S
C1807 C1806 1.367 . S
C1807 C1815 1.433 . S
C1808 H1804 0.929 . S
C1808 C1810 1.378 . S
C1808 C1812 1.350 . S
C1809 C1812 1.463 . S
C1809 C1814 1.350 . S
C1809 N1817 1.427 . S
C1810 H1801 0.930 . S
C1810 C1808 1.378 . S
C1810 C1811 1.367 . S
C1811 C1810 1.367 . S
C1811 C1813 1.433 . S
C1812 C1808 1.350 . S
C1812 C1809 1.463 . S
C1812 N1816 1.427 . S
C1813 H1803 0.929 . S
C1813 C1811 1.433 . S
C1813 N1816 1.384 . S
C1814 H1805 0.929 . S
C1814 C1806 1.378 . S
C1814 C1809 1.350 . S
C1815 H1802 0.929 . S
C1815 C1807 1.433 . S
C1815 N1817 1.384 . S
N1816 C1812 1.427 . S
N1816 C1813 1.384 . S
N1817 C1809 1.427 . S
N1817 C1815 1.384 . S
H1818 C1824 0.930 . S
H1819 C1828 0.930 . S
H1820 C1833 0.929 . S
H1821 C1831 0.929 . S
H1822 C1826 0.929 . S
H1823 C1832 0.929 . S
C1824 H1818 0.930 . S
C1824 C1825 1.367 . S
C1824 C1832 1.378 . S
C1825 C1824 1.367 . S
C1825 C1833 1.433 . S
C1826 H1822 0.929 . S
C1826 C1828 1.378 . S
C1826 C1830 1.350 . S
C1827 C1830 1.463 . S
C1827 C1832 1.350 . S
C1827 N1835 1.427 . S
C1828 H1819 0.930 . S
C1828 C1826 1.378 . S
C1828 C1829 1.367 . S
C1829 C1828 1.367 . S
C1829 C1831 1.433 . S
C1830 C1826 1.350 . S
C1830 C1827 1.463 . S
C1830 N1834 1.427 . S
C1831 H1821 0.929 . S
C1831 C1829 1.433 . S
C1831 N1834 1.384 . S
C1832 H1823 0.929 . S
C1832 C1824 1.378 . S
C1832 C1827 1.350 . S
C1833 H1820 0.929 . S
C1833 C1825 1.433 . S
C1833 N1835 1.384 . S
N1834 C1830 1.427 . S
N1834 C1831 1.384 . S
N1835 C1827 1.427 . S
N1835 C1833 1.384 . S
H1836 C1842 0.930 . S
H1837 C1846 0.930 . S
H1838 C1851 0.929 . S
H1839 C1849 0.929 . S
H1840 C1844 0.929 . S
H1841 C1850 0.929 . S
C1842 H1836 0.930 . S
C1842 C1843 1.367 . S
C1842 C1850 1.378 . S
C1843 C1842 1.367 . S
C1843 C1851 1.433 . S
C1844 H1840 0.929 . S
C1844 C1846 1.378 . S
C1844 C1848 1.350 . S
C1845 C1848 1.463 . S
C1845 C1850 1.350 . S
C1845 N1853 1.427 . S
C1846 H1837 0.930 . S
C1846 C1844 1.378 . S
C1846 C1847 1.367 . S
C1847 C1846 1.367 . S
C1847 C1849 1.433 . S
C1848 C1844 1.350 . S
C1848 C1845 1.463 . S
C1848 N1852 1.427 . S
C1849 H1839 0.929 . S
C1849 C1847 1.433 . S
C1849 N1852 1.384 . S
C1850 H1841 0.929 . S
C1850 C1842 1.378 . S
C1850 C1845 1.350 . S
C1851 H1838 0.929 . S
C1851 C1843 1.433 . S
C1851 N1853 1.384 . S
N1852 C1848 1.427 . S
N1852 C1849 1.384 . S
N1853 C1845 1.427 . S
N1853 C1851 1.384 . S
H1854 C1860 0.930 . S
H1855 C1864 0.930 . S
H1856 C1869 0.929 . S
H1857 C1867 0.929 . S
H1858 C1862 0.929 . S
H1859 C1868 0.929 . S
C1860 H1854 0.930 . S
C1860 C1861 1.367 . S
C1860 C1868 1.378 . S
C1861 C1860 1.367 . S
C1861 C1869 1.433 . S
C1862 H1858 0.929 . S
C1862 C1864 1.378 . S
C1862 C1866 1.350 . S
C1863 C1866 1.463 . S
C1863 C1868 1.350 . S
C1863 N1871 1.427 . S
C1864 H1855 0.930 . S
C1864 C1862 1.378 . S
C1864 C1865 1.367 . S
C1865 C1864 1.367 . S
C1865 C1867 1.433 . S
C1866 C1862 1.350 . S
C1866 C1863 1.463 . S
C1866 N1870 1.427 . S
C1867 H1857 0.929 . S
C1867 C1865 1.433 . S
C1867 N1870 1.384 . S
C1868 H1859 0.929 . S
C1868 C1860 1.378 . S
C1868 C1863 1.350 . S
C1869 H1856 0.929 . S
C1869 C1861 1.433 . S
C1869 N1871 1.384 . S
N1870 C1866 1.427 . S
N1870 C1867 1.384 . S
N1871 C1863 1.427 . S
N1871 C1869 1.384 . S
H1872 C1878 0.930 . S
H1873 C1882 0.930 . S
H1874 C1887 0.929 . S
H1875 C1885 0.929 . S
H1876 C1880 0.929 . S
H1877 C1886 0.929 . S
C1878 H1872 0.930 . S
C1878 C1879 1.367 . S
C1878 C1886 1.378 . S
C1879 C1878 1.367 . S
C1879 C1887 1.433 . S
C1880 H1876 0.929 . S
C1880 C1882 1.378 . S
C1880 C1884 1.350 . S
C1881 C1884 1.463 . S
C1881 C1886 1.350 . S
C1881 N1889 1.427 . S
C1882 H1873 0.930 . S
C1882 C1880 1.378 . S
C1882 C1883 1.367 . S
C1883 C1882 1.367 . S
C1883 C1885 1.433 . S
C1884 C1880 1.350 . S
C1884 C1881 1.463 . S
C1884 N1888 1.427 . S
C1885 H1875 0.929 . S
C1885 C1883 1.433 . S
C1885 N1888 1.384 . S
C1886 H1877 0.929 . S
C1886 C1878 1.378 . S
C1886 C1881 1.350 . S
C1887 H1874 0.929 . S
C1887 C1879 1.433 . S
C1887 N1889 1.384 . S
N1888 C1884 1.427 . S
N1888 C1885 1.384 . S
N1889 C1881 1.427 . S
N1889 C1887 1.384 . S
H1890 C1896 0.930 . S
H1891 C1900 0.930 . S
H1892 C1905 0.929 . S
H1893 C1903 0.929 . S
H1894 C1898 0.929 . S
H1895 C1904 0.929 . S
C1896 H1890 0.930 . S
C1896 C1897 1.367 . S
C1896 C1904 1.378 . S
C1897 C1896 1.367 . S
C1897 C1905 1.433 . S
C1898 H1894 0.929 . S
C1898 C1900 1.378 . S
C1898 C1902 1.350 . S
C1899 C1902 1.463 . S
C1899 C1904 1.350 . S
C1899 N1907 1.427 . S
C1900 H1891 0.930 . S
C1900 C1898 1.378 . S
C1900 C1901 1.367 . S
C1901 C1900 1.367 . S
C1901 C1903 1.433 . S
C1902 C1898 1.350 . S
C1902 C1899 1.463 . S
C1902 N1906 1.427 . S
C1903 H1893 0.929 . S
C1903 C1901 1.433 . S
C1903 N1906 1.384 . S
C1904 H1895 0.929 . S
C1904 C1896 1.378 . S
C1904 C1899 1.350 . S
C1905 H1892 0.929 . S
C1905 C1897 1.433 . S
C1905 N1907 1.384 . S
N1906 C1902 1.427 . S
N1906 C1903 1.384 . S
N1907 C1899 1.427 . S
N1907 C1905 1.384 . S
H1908 C1914 0.930 . S
H1909 C1918 0.930 . S
H1910 C1923 0.929 . S
H1911 C1921 0.929 . S
H1912 C1916 0.929 . S
H1913 C1922 0.929 . S
C1914 H1908 0.930 . S
C1914 C1915 1.367 . S
C1914 C1922 1.378 . S
C1915 C1914 1.367 . S
C1915 C1923 1.433 . S
C1916 H1912 0.929 . S
C1916 C1918 1.378 . S
C1916 C1920 1.350 . S
C1917 C1920 1.463 . S
C1917 C1922 1.350 . S
C1917 N1925 1.427 . S
C1918 H1909 0.930 . S
C1918 C1916 1.378 . S
C1918 C1919 1.367 . S
C1919 C1918 1.367 . S
C1919 C1921 1.433 . S
C1920 C1916 1.350 . S
C1920 C1917 1.463 . S
C1920 N1924 1.427 . S
C1921 H1911 0.929 . S
C1921 C1919 1.433 . S
C1921 N1924 1.384 . S
C1922 H1913 0.929 . S
C1922 C1914 1.378 . S
C1922 C1917 1.350 . S
C1923 H1910 0.929 . S
C1923 C1915 1.433 . S
C1923 N1925 1.384 . S
N1924 C1920 1.427 . S
N1924 C1921 1.384 . S
N1925 C1917 1.427 . S
N1925 C1923 1.384 . S
H1926 C1932 0.930 . S
H1927 C1936 0.930 . S
H1928 C1941 0.929 . S
H1929 C1939 0.929 . S
H1930 C1934 0.929 . S
H1931 C1940 0.929 . S
C1932 H1926 0.930 . S
C1932 C1933 1.367 . S
C1932 C1940 1.378 . S
C1933 C1932 1.367 . S
C1933 C1941 1.433 . S
C1934 H1930 0.929 . S
C1934 C1936 1.378 . S
C1934 C1938 1.350 . S
C1935 C1938 1.463 . S
C1935 C1940 1.350 . S
C1935 N1943 1.427 . S
C1936 H1927 0.930 . S
C1936 C1934 1.378 . S
C1936 C1937 1.367 . S
C1937 C1936 1.367 . S
C1937 C1939 1.433 . S
C1938 C1934 1.350 . S
C1938 C1935 1.463 . S
C1938 N1942 1.427 . S
C1939 H1929 0.929 . S
C1939 C1937 1.433 . S
C1939 N1942 1.384 . S
C1940 H1931 0.929 . S
C1940 C1932 1.378 . S
C1940 C1935 1.350 . S
C1941 H1928 0.929 . S
C1941 C1933 1.433 . S
C1941 N1943 1.384 . S
N1942 C1938 1.427 . S
N1942 C1939 1.384 . S
N1943 C1935 1.427 . S
N1943 C1941 1.384 . S
H1944 C1950 0.930 . S
H1945 C1954 0.930 . S
H1946 C1959 0.929 . S
H1947 C1957 0.929 . S
H1948 C1952 0.929 . S
H1949 C1958 0.929 . S
C1950 H1944 0.930 . S
C1950 C1951 1.367 . S
C1950 C1958 1.378 . S
C1951 C1950 1.367 . S
C1951 C1959 1.433 . S
C1952 H1948 0.929 . S
C1952 C1954 1.378 . S
C1952 C1956 1.350 . S
C1953 C1956 1.463 . S
C1953 C1958 1.350 . S
C1953 N1961 1.427 . S
C1954 H1945 0.930 . S
C1954 C1952 1.378 . S
C1954 C1955 1.367 . S
C1955 C1954 1.367 . S
C1955 C1957 1.433 . S
C1956 C1952 1.350 . S
C1956 C1953 1.463 . S
C1956 N1960 1.427 . S
C1957 H1947 0.929 . S
C1957 C1955 1.433 . S
C1957 N1960 1.384 . S
C1958 H1949 0.929 . S
C1958 C1950 1.378 . S
C1958 C1953 1.350 . S
C1959 H1946 0.929 . S
C1959 C1951 1.433 . S
C1959 N1961 1.384 . S
N1960 C1956 1.427 . S
N1960 C1957 1.384 . S
N1961 C1953 1.427 . S
N1961 C1959 1.384 . S
H1962 C1968 0.930 . S
H1963 C1972 0.930 . S
H1964 C1977 0.929 . S
H1965 C1975 0.929 . S
H1966 C1970 0.929 . S
H1967 C1976 0.929 . S
C1968 H1962 0.930 . S
C1968 C1969 1.367 . S
C1968 C1976 1.378 . S
C1969 C1968 1.367 . S
C1969 C1977 1.433 . S
C1970 H1966 0.929 . S
C1970 C1972 1.378 . S
C1970 C1974 1.350 . S
C1971 C1974 1.463 . S
C1971 C1976 1.350 . S
C1971 N1979 1.427 . S
C1972 H1963 0.930 . S
C1972 C1970 1.378 . S
C1972 C1973 1.367 . S
C1973 C1972 1.367 . S
C1973 C1975 1.433 . S
C1974 C1970 1.350 . S
C1974 C1971 1.463 . S
C1974 N1978 1.427 . S
C1975 H1965 0.929 . S
C1975 C1973 1.433 . S
C1975 N1978 1.384 . S
C1976 H1967 0.929 . S
C1976 C1968 1.378 . S
C1976 C1971 1.350 . S
C1977 H1964 0.929 . S
C1977 C1969 1.433 . S
C1977 N1979 1.384 . S
N1978 C1974 1.427 . S
N1978 C1975 1.384 . S
N1979 C1971 1.427 . S
N1979 C1977 1.384 . S
H1980 C1986 0.930 . S
H1981 C1990 0.930 . S
H1982 C1995 0.929 . S
H1983 C1993 0.929 . S
H1984 C1988 0.929 . S
H1985 C1994 0.929 . S
C1986 H1980 0.930 . S
C1986 C1987 1.367 . S
C1986 C1994 1.378 . S
C1987 C1986 1.367 . S
C1987 C1995 1.433 . S
C1988 H1984 0.929 . S
C1988 C1990 1.378 . S
C1988 C1992 1.350 . S
C1989 C1992 1.463 . S
C1989 C1994 1.350 . S
C1989 N1997 1.427 . S
C1990 H1981 0.930 . S
C1990 C1988 1.378 . S
C1990 C1991 1.367 . S
C1991 C1990 1.367 . S
C1991 C1993 1.433 . S
C1992 C1988 1.350 . S
C1992 C1989 1.463 . S
C1992 N1996 1.427 . S
C1993 H1983 0.929 . S
C1993 C1991 1.433 . S
C1993 N1996 1.384 . S
C1994 H1985 0.929 . S
C1994 C1986 1.378 . S
C1994 C1989 1.350 . S
C1995 H1982 0.929 . S
C1995 C1987 1.433 . S
C1995 N1997 1.384 . S
N1996 C1992 1.427 . S
N1996 C1993 1.384 . S
N1997 C1989 1.427 . S
N1997 C1995 1.384 . S
H1998 C2004 0.930 . S
H1999 C2008 0.930 . S
H2000 C2013 0.929 . S
H2001 C2011 0.929 . S
H2002 C2006 0.929 . S
H2003 C2012 0.929 . S
C2004 H1998 0.930 . S
C2004 C2005 1.367 . S
C2004 C2012 1.378 . S
C2005 C2004 1.367 . S
C2005 C2013 1.433 . S
C2006 H2002 0.929 . S
C2006 C2008 1.378 . S
C2006 C2010 1.350 . S
C2007 C2010 1.463 1_545 S
C2007 C2012 1.350 . S
C2007 N2015 1.427 . S
C2008 H1999 0.930 . S
C2008 C2006 1.378 . S
C2008 C2009 1.367 . S
C2009 C2008 1.367 . S
C2009 C2011 1.433 . S
C2010 C2006 1.350 . S
C2010 C2007 1.463 1_565 S
C2010 N2014 1.427 . S
C2011 H2001 0.929 . S
C2011 C2009 1.433 . S
C2011 N2014 1.384 . S
C2012 H2003 0.929 . S
C2012 C2004 1.378 . S
C2012 C2007 1.350 . S
C2013 H2000 0.929 . S
C2013 C2005 1.433 . S
C2013 N2015 1.384 . S
N2014 C2010 1.427 . S
N2014 C2011 1.384 . S
N2015 C2007 1.427 . S
N2015 C2013 1.384 . S
H2016 C2022 0.930 . S
H2017 C2026 0.930 . S
H2018 C2031 0.929 . S
H2019 C2029 0.929 . S
H2020 C2024 0.929 . S
H2021 C2030 0.929 . S
C2022 H2016 0.930 . S
C2022 C2023 1.367 . S
C2022 C2030 1.378 . S
C2023 C2022 1.367 . S
C2023 C2031 1.433 . S
C2024 H2020 0.929 . S
C2024 C2026 1.378 . S
C2024 C2028 1.350 . S
C2025 C2028 1.463 1_655 S
C2025 C2030 1.350 . S
C2025 N2033 1.427 . S
C2026 H2017 0.930 . S
C2026 C2024 1.378 . S
C2026 C2027 1.367 . S
C2027 C2026 1.367 . S
C2027 C2029 1.433 . S
C2028 C2024 1.350 . S
C2028 C2025 1.463 1_455 S
C2028 N2032 1.427 . S
C2029 H2019 0.929 . S
C2029 C2027 1.433 . S
C2029 N2032 1.384 . S
C2030 H2021 0.929 . S
C2030 C2022 1.378 . S
C2030 C2025 1.350 . S
C2031 H2018 0.929 . S
C2031 C2023 1.433 . S
C2031 N2033 1.384 . S
N2032 C2028 1.427 . S
N2032 C2029 1.384 . S
N2033 C2025 1.427 . S
N2033 C2031 1.384 . S
H2034 C2040 0.930 . S
H2035 C2044 0.930 . S
H2036 C2049 0.929 . S
H2037 C2047 0.929 . S
H2038 C2042 0.929 . S
H2039 C2048 0.929 . S
C2040 H2034 0.930 . S
C2040 C2041 1.367 . S
C2040 C2048 1.378 . S
C2041 C2040 1.367 . S
C2041 C2049 1.433 . S
C2042 H2038 0.929 . S
C2042 C2044 1.378 . S
C2042 C2046 1.350 . S
C2043 C2046 1.463 . S
C2043 C2048 1.350 . S
C2043 N2051 1.427 . S
C2044 H2035 0.930 . S
C2044 C2042 1.378 . S
C2044 C2045 1.367 . S
C2045 C2044 1.367 . S
C2045 C2047 1.433 . S
C2046 C2042 1.350 . S
C2046 C2043 1.463 . S
C2046 N2050 1.427 . S
C2047 H2037 0.929 . S
C2047 C2045 1.433 . S
C2047 N2050 1.384 . S
C2048 H2039 0.929 . S
C2048 C2040 1.378 . S
C2048 C2043 1.350 . S
C2049 H2036 0.929 . S
C2049 C2041 1.433 . S
C2049 N2051 1.384 . S
N2050 C2046 1.427 . S
N2050 C2047 1.384 . S
N2051 C2043 1.427 . S
N2051 C2049 1.384 . S
H2052 C2058 0.930 . S
H2053 C2062 0.930 . S
H2054 C2067 0.929 . S
H2055 C2065 0.929 . S
H2056 C2060 0.929 . S
H2057 C2066 0.929 . S
C2058 H2052 0.930 . S
C2058 C2059 1.367 . S
C2058 C2066 1.378 . S
C2059 C2058 1.367 . S
C2059 C2067 1.433 . S
C2060 H2056 0.929 . S
C2060 C2062 1.378 . S
C2060 C2064 1.350 . S
C2061 C2064 1.463 1_545 S
C2061 C2066 1.350 . S
C2061 N2069 1.427 . S
C2062 H2053 0.930 . S
C2062 C2060 1.378 . S
C2062 C2063 1.367 . S
C2063 C2062 1.367 . S
C2063 C2065 1.433 . S
C2064 C2060 1.350 . S
C2064 C2061 1.463 1_565 S
C2064 N2068 1.427 . S
C2065 H2055 0.929 . S
C2065 C2063 1.433 . S
C2065 N2068 1.384 . S
C2066 H2057 0.929 . S
C2066 C2058 1.378 . S
C2066 C2061 1.350 . S
C2067 H2054 0.929 . S
C2067 C2059 1.433 . S
C2067 N2069 1.384 . S
N2068 C2064 1.427 . S
N2068 C2065 1.384 . S
N2069 C2061 1.427 . S
N2069 C2067 1.384 . S
H2070 C2076 0.930 . S
H2071 C2080 0.930 . S
H2072 C2085 0.929 . S
H2073 C2083 0.929 . S
H2074 C2078 0.929 . S
H2075 C2084 0.929 . S
C2076 H2070 0.930 . S
C2076 C2077 1.367 . S
C2076 C2084 1.378 . S
C2077 C2076 1.367 . S
C2077 C2085 1.433 . S
C2078 H2074 0.929 . S
C2078 C2080 1.378 . S
C2078 C2082 1.350 . S
C2079 C2082 1.463 1_655 S
C2079 C2084 1.350 . S
C2079 N2087 1.427 . S
C2080 H2071 0.930 . S
C2080 C2078 1.378 . S
C2080 C2081 1.367 . S
C2081 C2080 1.367 . S
C2081 C2083 1.433 . S
C2082 C2078 1.350 . S
C2082 C2079 1.463 1_455 S
C2082 N2086 1.427 . S
C2083 H2073 0.929 . S
C2083 C2081 1.433 . S
C2083 N2086 1.384 . S
C2084 H2075 0.929 . S
C2084 C2076 1.378 . S
C2084 C2079 1.350 . S
C2085 H2072 0.929 . S
C2085 C2077 1.433 . S
C2085 N2087 1.384 . S
N2086 C2082 1.427 . S
N2086 C2083 1.384 . S
N2087 C2079 1.427 . S
N2087 C2085 1.384 . S
H2088 C2094 0.930 . S
H2089 C2098 0.930 . S
H2090 C2103 0.929 . S
H2091 C2101 0.929 . S
H2092 C2096 0.929 . S
H2093 C2102 0.929 . S
C2094 H2088 0.930 . S
C2094 C2095 1.367 1_556 S
C2094 C2102 1.378 . S
C2095 C2094 1.367 1_554 S
C2095 C2103 1.433 . S
C2096 H2092 0.929 . S
C2096 C2098 1.378 . S
C2096 C2100 1.350 . S
C2097 C2100 1.463 . S
C2097 C2102 1.350 1_554 S
C2097 N2105 1.427 . S
C2098 H2089 0.930 . S
C2098 C2096 1.378 . S
C2098 C2099 1.367 . S
C2099 C2098 1.367 . S
C2099 C2101 1.433 1_554 S
C2100 C2096 1.350 . S
C2100 C2097 1.463 . S
C2100 N2104 1.427 1_554 S
C2101 H2091 0.929 . S
C2101 C2099 1.433 1_556 S
C2101 N2104 1.384 . S
C2102 H2093 0.929 . S
C2102 C2094 1.378 . S
C2102 C2097 1.350 1_556 S
C2103 H2090 0.929 . S
C2103 C2095 1.433 . S
C2103 N2105 1.384 . S
N2104 C2100 1.427 1_556 S
N2104 C2101 1.384 . S
N2105 C2097 1.427 . S
N2105 C2103 1.384 . S
H2106 C2112 0.930 . S
H2107 C2116 0.930 . S
H2108 C2121 0.929 . S
H2109 C2119 0.929 . S
H2110 C2114 0.929 . S
H2111 C2120 0.929 . S
C2112 H2106 0.930 . S
C2112 C2113 1.367 . S
C2112 C2120 1.378 . S
C2113 C2112 1.367 . S
C2113 C2121 1.433 1_554 S
C2114 H2110 0.929 . S
C2114 C2116 1.378 . S
C2114 C2118 1.350 1_556 S
C2115 C2118 1.463 . S
C2115 C2120 1.350 . S
C2115 N2123 1.427 1_554 S
C2116 H2107 0.930 . S
C2116 C2114 1.378 . S
C2116 C2117 1.367 1_556 S
C2117 C2116 1.367 1_554 S
C2117 C2119 1.433 . S
C2118 C2114 1.350 1_554 S
C2118 C2115 1.463 . S
C2118 N2122 1.427 . S
C2119 H2109 0.929 . S
C2119 C2117 1.433 . S
C2119 N2122 1.384 . S
C2120 H2111 0.929 . S
C2120 C2112 1.378 . S
C2120 C2115 1.350 . S
C2121 H2108 0.929 . S
C2121 C2113 1.433 1_556 S
C2121 N2123 1.384 . S
N2122 C2118 1.427 . S
N2122 C2119 1.384 . S
N2123 C2115 1.427 1_556 S
N2123 C2121 1.384 . S
H2124 C2130 0.930 . S
H2125 C2134 0.930 . S
H2126 C2139 0.929 . S
H2127 C2137 0.929 . S
H2128 C2132 0.929 . S
H2129 C2138 0.929 . S
C2130 H2124 0.930 . S
C2130 C2131 1.367 1_556 S
C2130 C2138 1.378 . S
C2131 C2130 1.367 1_554 S
C2131 C2139 1.433 . S
C2132 H2128 0.929 . S
C2132 C2134 1.378 . S
C2132 C2136 1.350 . S
C2133 C2136 1.463 . S
C2133 C2138 1.350 1_554 S
C2133 N2141 1.427 . S
C2134 H2125 0.930 . S
C2134 C2132 1.378 . S
C2134 C2135 1.367 . S
C2135 C2134 1.367 . S
C2135 C2137 1.433 1_554 S
C2136 C2132 1.350 . S
C2136 C2133 1.463 . S
C2136 N2140 1.427 1_554 S
C2137 H2127 0.929 . S
C2137 C2135 1.433 1_556 S
C2137 N2140 1.384 . S
C2138 H2129 0.929 . S
C2138 C2130 1.378 . S
C2138 C2133 1.350 1_556 S
C2139 H2126 0.929 . S
C2139 C2131 1.433 . S
C2139 N2141 1.384 . S
N2140 C2136 1.427 1_556 S
N2140 C2137 1.384 . S
N2141 C2133 1.427 . S
N2141 C2139 1.384 . S
H2142 C2148 0.930 . S
H2143 C2152 0.930 1_554 S
H2144 C2157 0.929 1_554 S
H2145 C2155 0.929 . S
H2146 C2150 0.929 1_554 S
H2147 C2156 0.929 . S
C2148 H2142 0.930 . S
C2148 C2149 1.367 . S
C2148 C2156 1.378 . S
C2149 C2148 1.367 . S
C2149 C2157 1.433 . S
C2150 H2146 0.929 1_556 S
C2150 C2152 1.378 . S
C2150 C2154 1.350 . S
C2151 C2154 1.463 . S
C2151 C2156 1.350 . S
C2151 N2159 1.427 . S
C2152 H2143 0.930 1_556 S
C2152 C2150 1.378 . S
C2152 C2153 1.367 . S
C2153 C2152 1.367 . S
C2153 C2155 1.433 . S
C2154 C2150 1.350 . S
C2154 C2151 1.463 . S
C2154 N2158 1.427 . S
C2155 H2145 0.929 . S
C2155 C2153 1.433 . S
C2155 N2158 1.384 . S
C2156 H2147 0.929 . S
C2156 C2148 1.378 . S
C2156 C2151 1.350 . S
C2157 H2144 0.929 1_556 S
C2157 C2149 1.433 . S
C2157 N2159 1.384 . S
N2158 C2154 1.427 . S
N2158 C2155 1.384 . S
N2159 C2151 1.427 . S
N2159 C2157 1.384 . S
H2160 C2166 0.930 . S
H2161 C2170 0.930 1_554 S
H2162 C2175 0.929 1_554 S
H2163 C2173 0.929 . S
H2164 C2168 0.929 1_554 S
H2165 C2174 0.929 . S
C2166 H2160 0.930 . S
C2166 C2167 1.367 . S
C2166 C2174 1.378 . S
C2167 C2166 1.367 . S
C2167 C2175 1.433 . S
C2168 H2164 0.929 1_556 S
C2168 C2170 1.378 . S
C2168 C2172 1.350 . S
C2169 C2172 1.463 . S
C2169 C2174 1.350 . S
C2169 N2177 1.427 . S
C2170 H2161 0.930 1_556 S
C2170 C2168 1.378 . S
C2170 C2171 1.367 . S
C2171 C2170 1.367 . S
C2171 C2173 1.433 . S
C2172 C2168 1.350 . S
C2172 C2169 1.463 . S
C2172 N2176 1.427 . S
C2173 H2163 0.929 . S
C2173 C2171 1.433 . S
C2173 N2176 1.384 . S
C2174 H2165 0.929 . S
C2174 C2166 1.378 . S
C2174 C2169 1.350 . S
C2175 H2162 0.929 1_556 S
C2175 C2167 1.433 . S
C2175 N2177 1.384 . S
N2176 C2172 1.427 . S
N2176 C2173 1.384 . S
N2177 C2169 1.427 . S
N2177 C2175 1.384 . S
H2178 C2184 0.930 . S
H2179 C2188 0.930 . S
H2180 C2193 0.929 . S
H2181 C2191 0.929 . S
H2182 C2186 0.929 . S
H2183 C2192 0.929 . S
C2184 H2178 0.930 . S
C2184 C2185 1.367 . S
C2184 C2192 1.378 . S
C2185 C2184 1.367 . S
C2185 C2193 1.433 1_556 S
C2186 H2182 0.929 . S
C2186 C2188 1.378 . S
C2186 C2190 1.350 1_554 S
C2187 C2190 1.463 . S
C2187 C2192 1.350 . S
C2187 N2195 1.427 1_556 S
C2188 H2179 0.930 . S
C2188 C2186 1.378 . S
C2188 C2189 1.367 1_554 S
C2189 C2188 1.367 1_556 S
C2189 C2191 1.433 . S
C2190 C2186 1.350 1_556 S
C2190 C2187 1.463 . S
C2190 N2194 1.427 . S
C2191 H2181 0.929 . S
C2191 C2189 1.433 . S
C2191 N2194 1.384 . S
C2192 H2183 0.929 . S
C2192 C2184 1.378 . S
C2192 C2187 1.350 . S
C2193 H2180 0.929 . S
C2193 C2185 1.433 1_554 S
C2193 N2195 1.384 . S
N2194 C2190 1.427 . S
N2194 C2191 1.384 . S
N2195 C2187 1.427 1_554 S
N2195 C2193 1.384 . S
H2196 C2202 0.930 . S
H2197 C2206 0.930 . S
H2198 C2211 0.929 . S
H2199 C2209 0.929 . S
H2200 C2204 0.929 . S
H2201 C2210 0.929 . S
C2202 H2196 0.930 . S
C2202 C2203 1.367 . S
C2202 C2210 1.378 . S
C2203 C2202 1.367 . S
C2203 C2211 1.433 . S
C2204 H2200 0.929 . S
C2204 C2206 1.378 . S
C2204 C2208 1.350 . S
C2205 C2208 1.463 . S
C2205 C2210 1.350 . S
C2205 N2213 1.427 . S
C2206 H2197 0.930 . S
C2206 C2204 1.378 . S
C2206 C2207 1.367 . S
C2207 C2206 1.367 . S
C2207 C2209 1.433 . S
C2208 C2204 1.350 . S
C2208 C2205 1.463 . S
C2208 N2212 1.427 . S
C2209 H2199 0.929 . S
C2209 C2207 1.433 . S
C2209 N2212 1.384 . S
C2210 H2201 0.929 . S
C2210 C2202 1.378 . S
C2210 C2205 1.350 . S
C2211 H2198 0.929 . S
C2211 C2203 1.433 . S
C2211 N2213 1.384 . S
N2212 C2208 1.427 . S
N2212 C2209 1.384 . S
N2213 C2205 1.427 . S
N2213 C2211 1.384 . S
H2214 C2220 0.930 . S
H2215 C2224 0.930 . S
H2216 C2229 0.929 . S
H2217 C2227 0.929 . S
H2218 C2222 0.929 . S
H2219 C2228 0.929 . S
C2220 H2214 0.930 . S
C2220 C2221 1.367 . S
C2220 C2228 1.378 . S
C2221 C2220 1.367 . S
C2221 C2229 1.433 . S
C2222 H2218 0.929 . S
C2222 C2224 1.378 . S
C2222 C2226 1.350 . S
C2223 C2226 1.463 . S
C2223 C2228 1.350 . S
C2223 N2231 1.427 . S
C2224 H2215 0.930 . S
C2224 C2222 1.378 . S
C2224 C2225 1.367 . S
C2225 C2224 1.367 . S
C2225 C2227 1.433 . S
C2226 C2222 1.350 . S
C2226 C2223 1.463 . S
C2226 N2230 1.427 . S
C2227 H2217 0.929 . S
C2227 C2225 1.433 . S
C2227 N2230 1.384 . S
C2228 H2219 0.929 . S
C2228 C2220 1.378 . S
C2228 C2223 1.350 . S
C2229 H2216 0.929 . S
C2229 C2221 1.433 . S
C2229 N2231 1.384 . S
N2230 C2226 1.427 . S
N2230 C2227 1.384 . S
N2231 C2223 1.427 . S
N2231 C2229 1.384 . S
H2232 C2238 0.930 . S
H2233 C2242 0.930 . S
H2234 C2247 0.929 . S
H2235 C2245 0.929 . S
H2236 C2240 0.929 . S
H2237 C2246 0.929 . S
C2238 H2232 0.930 . S
C2238 C2239 1.367 . S
C2238 C2246 1.378 . S
C2239 C2238 1.367 . S
C2239 C2247 1.433 . S
C2240 H2236 0.929 . S
C2240 C2242 1.378 . S
C2240 C2244 1.350 . S
C2241 C2244 1.463 . S
C2241 C2246 1.350 . S
C2241 N2249 1.427 . S
C2242 H2233 0.930 . S
C2242 C2240 1.378 . S
C2242 C2243 1.367 . S
C2243 C2242 1.367 . S
C2243 C2245 1.433 . S
C2244 C2240 1.350 . S
C2244 C2241 1.463 . S
C2244 N2248 1.427 . S
C2245 H2235 0.929 . S
C2245 C2243 1.433 . S
C2245 N2248 1.384 . S
C2246 H2237 0.929 . S
C2246 C2238 1.378 . S
C2246 C2241 1.350 . S
C2247 H2234 0.929 . S
C2247 C2239 1.433 . S
C2247 N2249 1.384 . S
N2248 C2244 1.427 . S
N2248 C2245 1.384 . S
N2249 C2241 1.427 . S
N2249 C2247 1.384 . S
H2250 C2256 0.930 . S
H2251 C2260 0.930 . S
H2252 C2265 0.929 . S
H2253 C2263 0.929 . S
H2254 C2258 0.929 . S
H2255 C2264 0.929 . S
C2256 H2250 0.930 . S
C2256 C2257 1.367 . S
C2256 C2264 1.378 . S
C2257 C2256 1.367 . S
C2257 C2265 1.433 . S
C2258 H2254 0.929 . S
C2258 C2260 1.378 . S
C2258 C2262 1.350 . S
C2259 C2262 1.463 . S
C2259 C2264 1.350 . S
C2259 N2267 1.427 . S
C2260 H2251 0.930 . S
C2260 C2258 1.378 . S
C2260 C2261 1.367 . S
C2261 C2260 1.367 . S
C2261 C2263 1.433 . S
C2262 C2258 1.350 . S
C2262 C2259 1.463 . S
C2262 N2266 1.427 . S
C2263 H2253 0.929 . S
C2263 C2261 1.433 . S
C2263 N2266 1.384 . S
C2264 H2255 0.929 . S
C2264 C2256 1.378 . S
C2264 C2259 1.350 . S
C2265 H2252 0.929 . S
C2265 C2257 1.433 . S
C2265 N2267 1.384 . S
N2266 C2262 1.427 . S
N2266 C2263 1.384 . S
N2267 C2259 1.427 . S
N2267 C2265 1.384 . S
H2268 C2274 0.930 . S
H2269 C2278 0.930 . S
H2270 C2283 0.929 . S
H2271 C2281 0.929 . S
H2272 C2276 0.929 . S
H2273 C2282 0.929 . S
C2274 H2268 0.930 . S
C2274 C2275 1.367 . S
C2274 C2282 1.378 . S
C2275 C2274 1.367 . S
C2275 C2283 1.433 . S
C2276 H2272 0.929 . S
C2276 C2278 1.378 . S
C2276 C2280 1.350 . S
C2277 C2280 1.463 . S
C2277 C2282 1.350 . S
C2277 N2285 1.427 . S
C2278 H2269 0.930 . S
C2278 C2276 1.378 . S
C2278 C2279 1.367 . S
C2279 C2278 1.367 . S
C2279 C2281 1.433 . S
C2280 C2276 1.350 . S
C2280 C2277 1.463 . S
C2280 N2284 1.427 . S
C2281 H2271 0.929 . S
C2281 C2279 1.433 . S
C2281 N2284 1.384 . S
C2282 H2273 0.929 . S
C2282 C2274 1.378 . S
C2282 C2277 1.350 . S
C2283 H2270 0.929 . S
C2283 C2275 1.433 . S
C2283 N2285 1.384 . S
N2284 C2280 1.427 . S
N2284 C2281 1.384 . S
N2285 C2277 1.427 . S
N2285 C2283 1.384 . S
H2286 C2292 0.930 . S
H2287 C2296 0.930 . S
H2288 C2301 0.929 . S
H2289 C2299 0.929 . S
H2290 C2294 0.929 . S
H2291 C2300 0.929 . S
C2292 H2286 0.930 . S
C2292 C2293 1.367 . S
C2292 C2300 1.378 . S
C2293 C2292 1.367 . S
C2293 C2301 1.433 . S
C2294 H2290 0.929 . S
C2294 C2296 1.378 . S
C2294 C2298 1.350 . S
C2295 C2298 1.463 . S
C2295 C2300 1.350 . S
C2295 N2303 1.427 . S
C2296 H2287 0.930 . S
C2296 C2294 1.378 . S
C2296 C2297 1.367 . S
C2297 C2296 1.367 . S
C2297 C2299 1.433 . S
C2298 C2294 1.350 . S
C2298 C2295 1.463 . S
C2298 N2302 1.427 . S
C2299 H2289 0.929 . S
C2299 C2297 1.433 . S
C2299 N2302 1.384 . S
C2300 H2291 0.929 . S
C2300 C2292 1.378 . S
C2300 C2295 1.350 . S
C2301 H2288 0.929 . S
C2301 C2293 1.433 . S
C2301 N2303 1.384 . S
N2302 C2298 1.427 . S
N2302 C2299 1.384 . S
N2303 C2295 1.427 . S
N2303 C2301 1.384 . S
H2304 C2310 0.930 . S
H2305 C2314 0.930 . S
H2306 C2319 0.929 . S
H2307 C2317 0.929 . S
H2308 C2312 0.929 . S
H2309 C2318 0.929 . S
C2310 H2304 0.930 . S
C2310 C2311 1.367 . S
C2310 C2318 1.378 . S
C2311 C2310 1.367 . S
C2311 C2319 1.433 . S
C2312 H2308 0.929 . S
C2312 C2314 1.378 . S
C2312 C2316 1.350 . S
C2313 C2316 1.463 . S
C2313 C2318 1.350 . S
C2313 N2321 1.427 . S
C2314 H2305 0.930 . S
C2314 C2312 1.378 . S
C2314 C2315 1.367 . S
C2315 C2314 1.367 . S
C2315 C2317 1.433 . S
C2316 C2312 1.350 . S
C2316 C2313 1.463 . S
C2316 N2320 1.427 . S
C2317 H2307 0.929 . S
C2317 C2315 1.433 . S
C2317 N2320 1.384 . S
C2318 H2309 0.929 . S
C2318 C2310 1.378 . S
C2318 C2313 1.350 . S
C2319 H2306 0.929 . S
C2319 C2311 1.433 . S
C2319 N2321 1.384 . S
N2320 C2316 1.427 . S
N2320 C2317 1.384 . S
N2321 C2313 1.427 . S
N2321 C2319 1.384 . S
H2322 C2328 0.930 . S
H2323 C2332 0.930 . S
H2324 C2337 0.929 . S
H2325 C2335 0.929 . S
H2326 C2330 0.929 . S
H2327 C2336 0.929 . S
C2328 H2322 0.930 . S
C2328 C2329 1.367 . S
C2328 C2336 1.378 . S
C2329 C2328 1.367 . S
C2329 C2337 1.433 . S
C2330 H2326 0.929 . S
C2330 C2332 1.378 . S
C2330 C2334 1.350 . S
C2331 C2334 1.463 . S
C2331 C2336 1.350 . S
C2331 N2339 1.427 . S
C2332 H2323 0.930 . S
C2332 C2330 1.378 . S
C2332 C2333 1.367 . S
C2333 C2332 1.367 . S
C2333 C2335 1.433 . S
C2334 C2330 1.350 . S
C2334 C2331 1.463 . S
C2334 N2338 1.427 . S
C2335 H2325 0.929 . S
C2335 C2333 1.433 . S
C2335 N2338 1.384 . S
C2336 H2327 0.929 . S
C2336 C2328 1.378 . S
C2336 C2331 1.350 . S
C2337 H2324 0.929 . S
C2337 C2329 1.433 . S
C2337 N2339 1.384 . S
N2338 C2334 1.427 . S
N2338 C2335 1.384 . S
N2339 C2331 1.427 . S
N2339 C2337 1.384 . S
H2340 C2346 0.930 . S
H2341 C2350 0.930 . S
H2342 C2355 0.929 . S
H2343 C2353 0.929 . S
H2344 C2348 0.929 . S
H2345 C2354 0.929 . S
C2346 H2340 0.930 . S
C2346 C2347 1.367 . S
C2346 C2354 1.378 . S
C2347 C2346 1.367 . S
C2347 C2355 1.433 . S
C2348 H2344 0.929 . S
C2348 C2350 1.378 . S
C2348 C2352 1.350 . S
C2349 C2352 1.463 . S
C2349 C2354 1.350 . S
C2349 N2357 1.427 . S
C2350 H2341 0.930 . S
C2350 C2348 1.378 . S
C2350 C2351 1.367 . S
C2351 C2350 1.367 . S
C2351 C2353 1.433 . S
C2352 C2348 1.350 . S
C2352 C2349 1.463 . S
C2352 N2356 1.427 . S
C2353 H2343 0.929 . S
C2353 C2351 1.433 . S
C2353 N2356 1.384 . S
C2354 H2345 0.929 . S
C2354 C2346 1.378 . S
C2354 C2349 1.350 . S
C2355 H2342 0.929 . S
C2355 C2347 1.433 . S
C2355 N2357 1.384 . S
N2356 C2352 1.427 . S
N2356 C2353 1.384 . S
N2357 C2349 1.427 . S
N2357 C2355 1.384 . S
H2358 C2364 0.930 . S
H2359 C2368 0.930 . S
H2360 C2373 0.929 . S
H2361 C2371 0.929 . S
H2362 C2366 0.929 . S
H2363 C2372 0.929 . S
C2364 H2358 0.930 . S
C2364 C2365 1.367 . S
C2364 C2372 1.378 . S
C2365 C2364 1.367 . S
C2365 C2373 1.433 . S
C2366 H2362 0.929 . S
C2366 C2368 1.378 . S
C2366 C2370 1.350 . S
C2367 C2370 1.463 . S
C2367 C2372 1.350 . S
C2367 N2375 1.427 . S
C2368 H2359 0.930 . S
C2368 C2366 1.378 . S
C2368 C2369 1.367 . S
C2369 C2368 1.367 . S
C2369 C2371 1.433 . S
C2370 C2366 1.350 . S
C2370 C2367 1.463 . S
C2370 N2374 1.427 . S
C2371 H2361 0.929 . S
C2371 C2369 1.433 . S
C2371 N2374 1.384 . S
C2372 H2363 0.929 . S
C2372 C2364 1.378 . S
C2372 C2367 1.350 . S
C2373 H2360 0.929 . S
C2373 C2365 1.433 . S
C2373 N2375 1.384 . S
N2374 C2370 1.427 . S
N2374 C2371 1.384 . S
N2375 C2367 1.427 . S
N2375 C2373 1.384 . S
H2376 C2382 0.930 . S
H2377 C2386 0.930 . S
H2378 C2391 0.929 . S
H2379 C2389 0.929 . S
H2380 C2384 0.929 . S
H2381 C2390 0.929 . S
C2382 H2376 0.930 . S
C2382 C2383 1.367 . S
C2382 C2390 1.378 . S
C2383 C2382 1.367 . S
C2383 C2391 1.433 . S
C2384 H2380 0.929 . S
C2384 C2386 1.378 . S
C2384 C2388 1.350 . S
C2385 C2388 1.463 . S
C2385 C2390 1.350 . S
C2385 N2393 1.427 . S
C2386 H2377 0.930 . S
C2386 C2384 1.378 . S
C2386 C2387 1.367 . S
C2387 C2386 1.367 . S
C2387 C2389 1.433 . S
C2388 C2384 1.350 . S
C2388 C2385 1.463 . S
C2388 N2392 1.427 . S
C2389 H2379 0.929 . S
C2389 C2387 1.433 . S
C2389 N2392 1.384 . S
C2390 H2381 0.929 . S
C2390 C2382 1.378 . S
C2390 C2385 1.350 . S
C2391 H2378 0.929 . S
C2391 C2383 1.433 . S
C2391 N2393 1.384 . S
N2392 C2388 1.427 . S
N2392 C2389 1.384 . S
N2393 C2385 1.427 . S
N2393 C2391 1.384 . S
H2394 C2400 0.930 . S
H2395 C2404 0.930 . S
H2396 C2409 0.929 . S
H2397 C2407 0.929 . S
H2398 C2402 0.929 . S
H2399 C2408 0.929 . S
C2400 H2394 0.930 . S
C2400 C2401 1.367 . S
C2400 C2408 1.378 . S
C2401 C2400 1.367 . S
C2401 C2409 1.433 . S
C2402 H2398 0.929 . S
C2402 C2404 1.378 . S
C2402 C2406 1.350 . S
C2403 C2406 1.463 . S
C2403 C2408 1.350 . S
C2403 N2411 1.427 . S
C2404 H2395 0.930 . S
C2404 C2402 1.378 . S
C2404 C2405 1.367 . S
C2405 C2404 1.367 . S
C2405 C2407 1.433 . S
C2406 C2402 1.350 . S
C2406 C2403 1.463 . S
C2406 N2410 1.427 . S
C2407 H2397 0.929 . S
C2407 C2405 1.433 . S
C2407 N2410 1.384 . S
C2408 H2399 0.929 . S
C2408 C2400 1.378 . S
C2408 C2403 1.350 . S
C2409 H2396 0.929 . S
C2409 C2401 1.433 . S
C2409 N2411 1.384 . S
N2410 C2406 1.427 . S
N2410 C2407 1.384 . S
N2411 C2403 1.427 . S
N2411 C2409 1.384 . S
H2412 C2418 0.930 . S
H2413 C2422 0.930 . S
H2414 C2427 0.929 . S
H2415 C2425 0.929 1_554 S
H2416 C2420 0.929 . S
H2417 C2426 0.929 . S
C2418 H2412 0.930 . S
C2418 C2419 1.367 . S
C2418 C2426 1.378 . S
C2419 C2418 1.367 . S
C2419 C2427 1.433 . S
C2420 H2416 0.929 . S
C2420 C2422 1.378 . S
C2420 C2424 1.350 . S
C2421 C2424 1.463 . S
C2421 C2426 1.350 . S
C2421 N2429 1.427 . S
C2422 H2413 0.930 . S
C2422 C2420 1.378 . S
C2422 C2423 1.367 . S
C2423 C2422 1.367 . S
C2423 C2425 1.433 . S
C2424 C2420 1.350 . S
C2424 C2421 1.463 . S
C2424 N2428 1.427 . S
C2425 H2415 0.929 1_556 S
C2425 C2423 1.433 . S
C2425 N2428 1.384 . S
C2426 H2417 0.929 . S
C2426 C2418 1.378 . S
C2426 C2421 1.350 . S
C2427 H2414 0.929 . S
C2427 C2419 1.433 . S
C2427 N2429 1.384 . S
N2428 C2424 1.427 . S
N2428 C2425 1.384 . S
N2429 C2421 1.427 . S
N2429 C2427 1.384 . S
H2430 C2436 0.930 1_554 S
H2431 C2440 0.930 . S
H2432 C2445 0.929 . S
H2433 C2443 0.929 . S
H2434 C2438 0.929 . S
H2435 C2444 0.929 . S
C2436 H2430 0.930 1_556 S
C2436 C2437 1.367 . S
C2436 C2444 1.378 . S
C2437 C2436 1.367 . S
C2437 C2445 1.433 . S
C2438 H2434 0.929 . S
C2438 C2440 1.378 . S
C2438 C2442 1.350 . S
C2439 C2442 1.463 . S
C2439 C2444 1.350 . S
C2439 N2447 1.427 . S
C2440 H2431 0.930 . S
C2440 C2438 1.378 . S
C2440 C2441 1.367 . S
C2441 C2440 1.367 . S
C2441 C2443 1.433 . S
C2442 C2438 1.350 . S
C2442 C2439 1.463 . S
C2442 N2446 1.427 . S
C2443 H2433 0.929 . S
C2443 C2441 1.433 . S
C2443 N2446 1.384 . S
C2444 H2435 0.929 . S
C2444 C2436 1.378 . S
C2444 C2439 1.350 . S
C2445 H2432 0.929 . S
C2445 C2437 1.433 . S
C2445 N2447 1.384 . S
N2446 C2442 1.427 . S
N2446 C2443 1.384 . S
N2447 C2439 1.427 . S
N2447 C2445 1.384 . S
H2448 C2454 0.930 . S
H2449 C2458 0.930 . S
H2450 C2463 0.929 . S
H2451 C2461 0.929 1_554 S
H2452 C2456 0.929 . S
H2453 C2462 0.929 . S
C2454 H2448 0.930 . S
C2454 C2455 1.367 . S
C2454 C2462 1.378 . S
C2455 C2454 1.367 . S
C2455 C2463 1.433 . S
C2456 H2452 0.929 . S
C2456 C2458 1.378 . S
C2456 C2460 1.350 . S
C2457 C2460 1.463 . S
C2457 C2462 1.350 . S
C2457 N2465 1.427 . S
C2458 H2449 0.930 . S
C2458 C2456 1.378 . S
C2458 C2459 1.367 . S
C2459 C2458 1.367 . S
C2459 C2461 1.433 . S
C2460 C2456 1.350 . S
C2460 C2457 1.463 . S
C2460 N2464 1.427 . S
C2461 H2451 0.929 1_556 S
C2461 C2459 1.433 . S
C2461 N2464 1.384 . S
C2462 H2453 0.929 . S
C2462 C2454 1.378 . S
C2462 C2457 1.350 . S
C2463 H2450 0.929 . S
C2463 C2455 1.433 . S
C2463 N2465 1.384 . S
N2464 C2460 1.427 . S
N2464 C2461 1.384 . S
N2465 C2457 1.427 . S
N2465 C2463 1.384 . S
H2466 C2472 0.930 . S
H2467 C2476 0.930 . S
H2468 C2481 0.929 . S
H2469 C2479 0.929 1_556 S
H2470 C2474 0.929 . S
H2471 C2480 0.929 . S
C2472 H2466 0.930 . S
C2472 C2473 1.367 . S
C2472 C2480 1.378 . S
C2473 C2472 1.367 . S
C2473 C2481 1.433 . S
C2474 H2470 0.929 . S
C2474 C2476 1.378 . S
C2474 C2478 1.350 . S
C2475 C2478 1.463 . S
C2475 C2480 1.350 . S
C2475 N2483 1.427 . S
C2476 H2467 0.930 . S
C2476 C2474 1.378 . S
C2476 C2477 1.367 . S
C2477 C2476 1.367 . S
C2477 C2479 1.433 . S
C2478 C2474 1.350 . S
C2478 C2475 1.463 . S
C2478 N2482 1.427 . S
C2479 H2469 0.929 1_554 S
C2479 C2477 1.433 . S
C2479 N2482 1.384 . S
C2480 H2471 0.929 . S
C2480 C2472 1.378 . S
C2480 C2475 1.350 . S
C2481 H2468 0.929 . S
C2481 C2473 1.433 . S
C2481 N2483 1.384 . S
N2482 C2478 1.427 . S
N2482 C2479 1.384 . S
N2483 C2475 1.427 . S
N2483 C2481 1.384 . S
H2484 C2490 0.930 . S
H2485 C2494 0.930 . S
H2486 C2499 0.929 1_556 S
H2487 C2497 0.929 . S
H2488 C2492 0.929 . S
H2489 C2498 0.929 . S
C2490 H2484 0.930 . S
C2490 C2491 1.367 . S
C2490 C2498 1.378 . S
C2491 C2490 1.367 . S
C2491 C2499 1.433 . S
C2492 H2488 0.929 . S
C2492 C2494 1.378 . S
C2492 C2496 1.350 . S
C2493 C2496 1.463 . S
C2493 C2498 1.350 . S
C2493 N2501 1.427 . S
C2494 H2485 0.930 . S
C2494 C2492 1.378 . S
C2494 C2495 1.367 . S
C2495 C2494 1.367 . S
C2495 C2497 1.433 . S
C2496 C2492 1.350 . S
C2496 C2493 1.463 . S
C2496 N2500 1.427 . S
C2497 H2487 0.929 . S
C2497 C2495 1.433 . S
C2497 N2500 1.384 . S
C2498 H2489 0.929 . S
C2498 C2490 1.378 . S
C2498 C2493 1.350 . S
C2499 H2486 0.929 1_554 S
C2499 C2491 1.433 . S
C2499 N2501 1.384 . S
N2500 C2496 1.427 . S
N2500 C2497 1.384 . S
N2501 C2493 1.427 . S
N2501 C2499 1.384 . S
H2502 C2508 0.930 1_556 S
H2503 C2512 0.930 . S
H2504 C2517 0.929 . S
H2505 C2515 0.929 . S
H2506 C2510 0.929 . S
H2507 C2516 0.929 . S
C2508 H2502 0.930 1_554 S
C2508 C2509 1.367 . S
C2508 C2516 1.378 . S
C2509 C2508 1.367 . S
C2509 C2517 1.433 . S
C2510 H2506 0.929 . S
C2510 C2512 1.378 . S
C2510 C2514 1.350 . S
C2511 C2514 1.463 . S
C2511 C2516 1.350 . S
C2511 N2519 1.427 . S
C2512 H2503 0.930 . S
C2512 C2510 1.378 . S
C2512 C2513 1.367 . S
C2513 C2512 1.367 . S
C2513 C2515 1.433 . S
C2514 C2510 1.350 . S
C2514 C2511 1.463 . S
C2514 N2518 1.427 . S
C2515 H2505 0.929 . S
C2515 C2513 1.433 . S
C2515 N2518 1.384 . S
C2516 H2507 0.929 . S
C2516 C2508 1.378 . S
C2516 C2511 1.350 . S
C2517 H2504 0.929 . S
C2517 C2509 1.433 . S
C2517 N2519 1.384 . S
N2518 C2514 1.427 . S
N2518 C2515 1.384 . S
N2519 C2511 1.427 . S
N2519 C2517 1.384 . S
H2520 C2526 0.930 . S
H2521 C2530 0.930 1_556 S
H2522 C2535 0.929 . S
H2523 C2533 0.929 . S
H2524 C2528 0.929 . S
H2525 C2534 0.929 . S
C2526 H2520 0.930 . S
C2526 C2527 1.367 . S
C2526 C2534 1.378 . S
C2527 C2526 1.367 . S
C2527 C2535 1.433 . S
C2528 H2524 0.929 . S
C2528 C2530 1.378 . S
C2528 C2532 1.350 . S
C2529 C2532 1.463 . S
C2529 C2534 1.350 . S
C2529 N2537 1.427 . S
C2530 H2521 0.930 1_554 S
C2530 C2528 1.378 . S
C2530 C2531 1.367 . S
C2531 C2530 1.367 . S
C2531 C2533 1.433 . S
C2532 C2528 1.350 . S
C2532 C2529 1.463 . S
C2532 N2536 1.427 . S
C2533 H2523 0.929 . S
C2533 C2531 1.433 . S
C2533 N2536 1.384 . S
C2534 H2525 0.929 . S
C2534 C2526 1.378 . S
C2534 C2529 1.350 . S
C2535 H2522 0.929 . S
C2535 C2527 1.433 . S
C2535 N2537 1.384 . S
N2536 C2532 1.427 . S
N2536 C2533 1.384 . S
N2537 C2529 1.427 . S
N2537 C2535 1.384 . S
H2538 C2544 0.930 . S
H2539 C2548 0.930 . S
H2540 C2553 0.929 1_556 S
H2541 C2551 0.929 . S
H2542 C2546 0.929 . S
H2543 C2552 0.929 . S
C2544 H2538 0.930 . S
C2544 C2545 1.367 . S
C2544 C2552 1.378 . S
C2545 C2544 1.367 . S
C2545 C2553 1.433 . S
C2546 H2542 0.929 . S
C2546 C2548 1.378 . S
C2546 C2550 1.350 . S
C2547 C2550 1.463 . S
C2547 C2552 1.350 . S
C2547 N2555 1.427 . S
C2548 H2539 0.930 . S
C2548 C2546 1.378 . S
C2548 C2549 1.367 . S
C2549 C2548 1.367 . S
C2549 C2551 1.433 . S
C2550 C2546 1.350 . S
C2550 C2547 1.463 . S
C2550 N2554 1.427 . S
C2551 H2541 0.929 . S
C2551 C2549 1.433 . S
C2551 N2554 1.384 . S
C2552 H2543 0.929 . S
C2552 C2544 1.378 . S
C2552 C2547 1.350 . S
C2553 H2540 0.929 1_554 S
C2553 C2545 1.433 . S
C2553 N2555 1.384 . S
N2554 C2550 1.427 . S
N2554 C2551 1.384 . S
N2555 C2547 1.427 . S
N2555 C2553 1.384 . S
H2556 C2562 0.930 . S
H2557 C2566 0.930 . S
H2558 C2571 0.929 . S
H2559 C2569 0.929 . S
H2560 C2564 0.929 . S
H2561 C2570 0.929 . S
C2562 H2556 0.930 . S
C2562 C2563 1.367 . S
C2562 C2570 1.378 . S
C2563 C2562 1.367 . S
C2563 C2571 1.433 . S
C2564 H2560 0.929 . S
C2564 C2566 1.378 . S
C2564 C2568 1.350 . S
C2565 C2568 1.463 . S
C2565 C2570 1.350 . S
C2565 N2573 1.427 . S
C2566 H2557 0.930 . S
C2566 C2564 1.378 . S
C2566 C2567 1.367 . S
C2567 C2566 1.367 . S
C2567 C2569 1.433 . S
C2568 C2564 1.350 . S
C2568 C2565 1.463 . S
C2568 N2572 1.427 . S
C2569 H2559 0.929 . S
C2569 C2567 1.433 . S
C2569 N2572 1.384 . S
C2570 H2561 0.929 . S
C2570 C2562 1.378 . S
C2570 C2565 1.350 . S
C2571 H2558 0.929 . S
C2571 C2563 1.433 . S
C2571 N2573 1.384 . S
N2572 C2568 1.427 . S
N2572 C2569 1.384 . S
N2573 C2565 1.427 . S
N2573 C2571 1.384 . S
H2574 C2580 0.930 . S
H2575 C2584 0.930 . S
H2576 C2589 0.929 . S
H2577 C2587 0.929 . S
H2578 C2582 0.929 . S
H2579 C2588 0.929 . S
C2580 H2574 0.930 . S
C2580 C2581 1.367 . S
C2580 C2588 1.378 . S
C2581 C2580 1.367 . S
C2581 C2589 1.433 . S
C2582 H2578 0.929 . S
C2582 C2584 1.378 . S
C2582 C2586 1.350 . S
C2583 C2586 1.463 . S
C2583 C2588 1.350 . S
C2583 N2591 1.427 . S
C2584 H2575 0.930 . S
C2584 C2582 1.378 . S
C2584 C2585 1.367 . S
C2585 C2584 1.367 . S
C2585 C2587 1.433 . S
C2586 C2582 1.350 . S
C2586 C2583 1.463 . S
C2586 N2590 1.427 . S
C2587 H2577 0.929 . S
C2587 C2585 1.433 . S
C2587 N2590 1.384 . S
C2588 H2579 0.929 . S
C2588 C2580 1.378 . S
C2588 C2583 1.350 . S
C2589 H2576 0.929 . S
C2589 C2581 1.433 . S
C2589 N2591 1.384 . S
N2590 C2586 1.427 . S
N2590 C2587 1.384 . S
N2591 C2583 1.427 . S
N2591 C2589 1.384 . S
H2592 C2598 0.930 . S
H2593 C2602 0.930 . S
H2594 C2607 0.929 . S
H2595 C2605 0.929 . S
H2596 C2600 0.929 . S
H2597 C2606 0.929 . S
C2598 H2592 0.930 . S
C2598 C2599 1.367 . S
C2598 C2606 1.378 . S
C2599 C2598 1.367 . S
C2599 C2607 1.433 . S
C2600 H2596 0.929 . S
C2600 C2602 1.378 . S
C2600 C2604 1.350 . S
C2601 C2604 1.463 . S
C2601 C2606 1.350 . S
C2601 N2609 1.427 . S
C2602 H2593 0.930 . S
C2602 C2600 1.378 . S
C2602 C2603 1.367 . S
C2603 C2602 1.367 . S
C2603 C2605 1.433 . S
C2604 C2600 1.350 . S
C2604 C2601 1.463 . S
C2604 N2608 1.427 . S
C2605 H2595 0.929 . S
C2605 C2603 1.433 . S
C2605 N2608 1.384 . S
C2606 H2597 0.929 . S
C2606 C2598 1.378 . S
C2606 C2601 1.350 . S
C2607 H2594 0.929 . S
C2607 C2599 1.433 . S
C2607 N2609 1.384 . S
N2608 C2604 1.427 . S
N2608 C2605 1.384 . S
N2609 C2601 1.427 . S
N2609 C2607 1.384 . S
H2610 C2616 0.930 . S
H2611 C2620 0.930 . S
H2612 C2625 0.929 . S
H2613 C2623 0.929 . S
H2614 C2618 0.929 . S
H2615 C2624 0.929 . S
C2616 H2610 0.930 . S
C2616 C2617 1.367 . S
C2616 C2624 1.378 . S
C2617 C2616 1.367 . S
C2617 C2625 1.433 . S
C2618 H2614 0.929 . S
C2618 C2620 1.378 . S
C2618 C2622 1.350 . S
C2619 C2622 1.463 . S
C2619 C2624 1.350 . S
C2619 N2627 1.427 . S
C2620 H2611 0.930 . S
C2620 C2618 1.378 . S
C2620 C2621 1.367 . S
C2621 C2620 1.367 . S
C2621 C2623 1.433 . S
C2622 C2618 1.350 . S
C2622 C2619 1.463 . S
C2622 N2626 1.427 . S
C2623 H2613 0.929 . S
C2623 C2621 1.433 . S
C2623 N2626 1.384 . S
C2624 H2615 0.929 . S
C2624 C2616 1.378 . S
C2624 C2619 1.350 . S
C2625 H2612 0.929 . S
C2625 C2617 1.433 . S
C2625 N2627 1.384 . S
N2626 C2622 1.427 . S
N2626 C2623 1.384 . S
N2627 C2619 1.427 . S
N2627 C2625 1.384 . S
H2628 C2634 0.930 . S
H2629 C2638 0.930 . S
H2630 C2643 0.929 . S
H2631 C2641 0.929 . S
H2632 C2636 0.929 . S
H2633 C2642 0.929 . S
C2634 H2628 0.930 . S
C2634 C2635 1.367 . S
C2634 C2642 1.378 . S
C2635 C2634 1.367 . S
C2635 C2643 1.433 . S
C2636 H2632 0.929 . S
C2636 C2638 1.378 . S
C2636 C2640 1.350 . S
C2637 C2640 1.463 1_455 S
C2637 C2642 1.350 . S
C2637 N2645 1.427 . S
C2638 H2629 0.930 . S
C2638 C2636 1.378 . S
C2638 C2639 1.367 . S
C2639 C2638 1.367 . S
C2639 C2641 1.433 . S
C2640 C2636 1.350 . S
C2640 C2637 1.463 1_655 S
C2640 N2644 1.427 . S
C2641 H2631 0.929 . S
C2641 C2639 1.433 . S
C2641 N2644 1.384 . S
C2642 H2633 0.929 . S
C2642 C2634 1.378 . S
C2642 C2637 1.350 . S
C2643 H2630 0.929 . S
C2643 C2635 1.433 . S
C2643 N2645 1.384 . S
N2644 C2640 1.427 . S
N2644 C2641 1.384 . S
N2645 C2637 1.427 . S
N2645 C2643 1.384 . S
H2646 C2652 0.930 . S
H2647 C2656 0.930 . S
H2648 C2661 0.929 . S
H2649 C2659 0.929 . S
H2650 C2654 0.929 . S
H2651 C2660 0.929 . S
C2652 H2646 0.930 . S
C2652 C2653 1.367 . S
C2652 C2660 1.378 . S
C2653 C2652 1.367 . S
C2653 C2661 1.433 . S
C2654 H2650 0.929 . S
C2654 C2656 1.378 . S
C2654 C2658 1.350 . S
C2655 C2658 1.463 . S
C2655 C2660 1.350 . S
C2655 N2663 1.427 . S
C2656 H2647 0.930 . S
C2656 C2654 1.378 . S
C2656 C2657 1.367 . S
C2657 C2656 1.367 . S
C2657 C2659 1.433 . S
C2658 C2654 1.350 . S
C2658 C2655 1.463 . S
C2658 N2662 1.427 . S
C2659 H2649 0.929 . S
C2659 C2657 1.433 . S
C2659 N2662 1.384 . S
C2660 H2651 0.929 . S
C2660 C2652 1.378 . S
C2660 C2655 1.350 . S
C2661 H2648 0.929 . S
C2661 C2653 1.433 . S
C2661 N2663 1.384 . S
N2662 C2658 1.427 . S
N2662 C2659 1.384 . S
N2663 C2655 1.427 . S
N2663 C2661 1.384 . S
H2664 C2670 0.930 . S
H2665 C2674 0.930 . S
H2666 C2679 0.929 . S
H2667 C2677 0.929 . S
H2668 C2672 0.929 . S
H2669 C2678 0.929 . S
C2670 H2664 0.930 . S
C2670 C2671 1.367 . S
C2670 C2678 1.378 . S
C2671 C2670 1.367 . S
C2671 C2679 1.433 . S
C2672 H2668 0.929 . S
C2672 C2674 1.378 . S
C2672 C2676 1.350 . S
C2673 C2676 1.463 1_565 S
C2673 C2678 1.350 . S
C2673 N2681 1.427 . S
C2674 H2665 0.930 . S
C2674 C2672 1.378 . S
C2674 C2675 1.367 . S
C2675 C2674 1.367 . S
C2675 C2677 1.433 . S
C2676 C2672 1.350 . S
C2676 C2673 1.463 1_545 S
C2676 N2680 1.427 . S
C2677 H2667 0.929 . S
C2677 C2675 1.433 . S
C2677 N2680 1.384 . S
C2678 H2669 0.929 . S
C2678 C2670 1.378 . S
C2678 C2673 1.350 . S
C2679 H2666 0.929 . S
C2679 C2671 1.433 . S
C2679 N2681 1.384 . S
N2680 C2676 1.427 . S
N2680 C2677 1.384 . S
N2681 C2673 1.427 . S
N2681 C2679 1.384 . S
H2682 C2688 0.930 . S
H2683 C2692 0.930 . S
H2684 C2697 0.929 . S
H2685 C2695 0.929 . S
H2686 C2690 0.929 . S
H2687 C2696 0.929 . S
C2688 H2682 0.930 . S
C2688 C2689 1.367 . S
C2688 C2696 1.378 . S
C2689 C2688 1.367 . S
C2689 C2697 1.433 . S
C2690 H2686 0.929 . S
C2690 C2692 1.378 . S
C2690 C2694 1.350 . S
C2691 C2694 1.463 1_545 S
C2691 C2696 1.350 . S
C2691 N2699 1.427 . S
C2692 H2683 0.930 . S
C2692 C2690 1.378 . S
C2692 C2693 1.367 . S
C2693 C2692 1.367 . S
C2693 C2695 1.433 . S
C2694 C2690 1.350 . S
C2694 C2691 1.463 1_565 S
C2694 N2698 1.427 . S
C2695 H2685 0.929 . S
C2695 C2693 1.433 . S
C2695 N2698 1.384 . S
C2696 H2687 0.929 . S
C2696 C2688 1.378 . S
C2696 C2691 1.350 . S
C2697 H2684 0.929 . S
C2697 C2689 1.433 . S
C2697 N2699 1.384 . S
N2698 C2694 1.427 . S
N2698 C2695 1.384 . S
N2699 C2691 1.427 . S
N2699 C2697 1.384 . S
H2700 C2706 0.930 . S
H2701 C2710 0.930 . S
H2702 C2715 0.929 . S
H2703 C2713 0.929 . S
H2704 C2708 0.929 . S
H2705 C2714 0.929 . S
C2706 H2700 0.930 . S
C2706 C2707 1.367 . S
C2706 C2714 1.378 . S
C2707 C2706 1.367 . S
C2707 C2715 1.433 . S
C2708 H2704 0.929 . S
C2708 C2710 1.378 . S
C2708 C2712 1.350 . S
C2709 C2712 1.463 1_655 S
C2709 C2714 1.350 . S
C2709 N2717 1.427 . S
C2710 H2701 0.930 . S
C2710 C2708 1.378 . S
C2710 C2711 1.367 . S
C2711 C2710 1.367 . S
C2711 C2713 1.433 . S
C2712 C2708 1.350 . S
C2712 C2709 1.463 1_455 S
C2712 N2716 1.427 . S
C2713 H2703 0.929 . S
C2713 C2711 1.433 . S
C2713 N2716 1.384 . S
C2714 H2705 0.929 . S
C2714 C2706 1.378 . S
C2714 C2709 1.350 . S
C2715 H2702 0.929 . S
C2715 C2707 1.433 . S
C2715 N2717 1.384 . S
N2716 C2712 1.427 . S
N2716 C2713 1.384 . S
N2717 C2709 1.427 . S
N2717 C2715 1.384 . S
H2718 C2724 0.930 . S
H2719 C2728 0.930 . S
H2720 C2733 0.929 . S
H2721 C2731 0.929 . S
H2722 C2726 0.929 . S
H2723 C2732 0.929 . S
C2724 H2718 0.930 . S
C2724 C2725 1.367 . S
C2724 C2732 1.378 . S
C2725 C2724 1.367 . S
C2725 C2733 1.433 . S
C2726 H2722 0.929 . S
C2726 C2728 1.378 . S
C2726 C2730 1.350 . S
C2727 C2730 1.463 . S
C2727 C2732 1.350 . S
C2727 N2735 1.427 . S
C2728 H2719 0.930 . S
C2728 C2726 1.378 . S
C2728 C2729 1.367 . S
C2729 C2728 1.367 . S
C2729 C2731 1.433 . S
C2730 C2726 1.350 . S
C2730 C2727 1.463 . S
C2730 N2734 1.427 . S
C2731 H2721 0.929 . S
C2731 C2729 1.433 . S
C2731 N2734 1.384 . S
C2732 H2723 0.929 . S
C2732 C2724 1.378 . S
C2732 C2727 1.350 . S
C2733 H2720 0.929 . S
C2733 C2725 1.433 . S
C2733 N2735 1.384 . S
N2734 C2730 1.427 . S
N2734 C2731 1.384 . S
N2735 C2727 1.427 . S
N2735 C2733 1.384 . S
C799 C5 1.331 . S
C803 C643 1.339 . S
C817 C599 1.346 . S
C821 C27 1.348 . S
C835 C621 1.337 . S
C839 C49 1.330 . S
C853 C71 1.347 . S
C857 C291 1.348 . S
C871 C93 1.333 . S
C875 C313 1.350 . S
C889 C115 1.330 . S
C893 C269 1.340 . S
C907 C138 1.342 . S
C911 C512 1.350 . S
C925 C160 1.338 . S
C929 C468 1.331 . S
C943 C182 1.335 . S
C947 C490 1.352 . S
C961 C204 1.339 . S
C965 C688 1.331 . S
C979 C226 1.331 . S
C983 C710 1.336 . S
C997 C666 1.345 . S
C1001 C248 1.348 . S
C1015 C555 1.352 . S
C1019 C335 1.338 . S
C1033 C357 1.337 . S
C1037 C577 1.352 . S
C1051 C533 1.351 . S
C1055 C379 1.342 . S
C1069 C402 1.345 . S
C1073 C776 1.350 . S
C1087 C424 1.347 . S
C1091 C732 1.348 . S
C1105 C754 1.338 . S
C1109 C446 1.352 . S
C1123 C9 1.615 . S
C1127 C4 1.613 . S
C1141 C31 1.616 . S
C1145 C26 1.613 . S
C1159 C48 1.613 . S
C1163 C53 1.616 . S
C1177 C70 1.614 . S
C1181 C75 1.615 . S
C1195 C92 1.616 . S
C1199 C97 1.612 . S
C1213 C119 1.616 . S
C1217 C114 1.613 . S
C1231 C136 1.613 . S
C1235 C139 1.616 . S
C1249 C161 1.615 . S
C1253 C158 1.614 . S
C1267 C180 1.616 . S
C1271 C183 1.612 . S
C1285 C205 1.609 . S
C1289 C202 1.619 . S
C1303 C224 1.619 . S
C1307 C227 1.610 . S
C1321 C246 1.613 . S
C1325 C249 1.616 . S
C1339 C273 1.616 . S
C1343 C268 1.613 . S
C1357 C295 1.616 . S
C1361 C290 1.613 . S
C1375 C312 1.613 . S
C1379 C317 1.616 . S
C1393 C334 1.618 1_556 S
C1397 C339 1.610 . S
C1411 C361 1.616 . S
C1415 C356 1.613 1_556 S
C1429 C383 1.610 . S
C1433 C378 1.618 1_556 S
C1447 C400 1.618 1_556 S
C1451 C403 1.610 . S
C1465 C422 1.613 1_556 S
C1469 C425 1.616 . S
C1483 C447 1.615 . S
C1487 C444 1.614 1_556 S
C1501 C469 1.610 . S
C1505 C466 1.619 . S
C1519 C491 1.614 . S
C1523 C488 1.614 . S
C1537 C510 1.613 . S
C1541 C513 1.616 . S
C1555 C532 1.613 1_554 S
C1559 C537 1.616 . S
C1573 C554 1.618 1_554 S
C1577 C559 1.611 . S
C1591 C581 1.610 . S
C1595 C576 1.618 1_554 S
C1609 C603 1.614 . S
C1613 C598 1.615 . S
C1627 C620 1.615 . S
C1631 C625 1.613 . S
C1645 C642 1.614 . S
C1649 C647 1.615 . S
C1663 C664 1.617 . S
C1667 C667 1.611 . S
C1681 C689 1.615 . S
C1685 C686 1.614 . S
C1699 C711 1.616 . S
C1703 C708 1.613 . S
C1717 C730 1.614 1_554 S
C1721 C733 1.614 . S
C1735 C755 1.613 . S
C1739 C752 1.616 1_554 S
C1753 C774 1.613 1_554 S
C1757 C777 1.616 . S
C1771 C336 1.182 . S
C1775 C6 1.180 . S
C1789 C358 1.181 . S
C1793 C28 1.183 . S
C1807 C380 1.182 . S
C1811 C50 1.182 . S
C1825 C72 1.173 . S
C1829 C534 1.176 . S
C1843 C556 1.182 . S
C1847 C94 1.183 . S
C1861 C578 1.173 . S
C1865 C116 1.172 . S
C1879 C137 1.184 . S
C1883 C731 1.182 . S
C1897 C753 1.181 . S
C1901 C159 1.179 . S
C1915 C775 1.182 . S
C1919 C181 1.182 . S
C1933 C401 1.182 . S
C1937 C203 1.183 . S
C1951 C225 1.172 . S
C1955 C423 1.174 . S
C1969 C247 1.183 . S
C1973 C445 1.181 . S
C1987 C270 1.173 . S
C1991 C600 1.174 . S
C2005 C292 1.172 . S
C2009 C622 1.172 . S
C2023 C314 1.183 . S
C2027 C644 1.181 . S
C2041 C467 1.177 . S
C2045 C665 1.174 . S
C2059 C489 1.175 . S
C2063 C687 1.172 . S
C2077 C511 1.182 . S
C2081 C709 1.182 . S
C2095 C250 1.485 . S
C2099 C8 1.477 . S
C2113 C30 1.474 . S
C2117 C206 1.488 . S
C2131 C228 1.485 . S
C2135 C52 1.476 . S
C2149 C74 1.476 . S
C2153 C162 1.484 . S
C2167 C96 1.477 . S
C2171 C184 1.484 . S
C2185 C140 1.473 . S
C2189 C118 1.487 . S
C2203 C272 1.477 . S
C2207 C514 1.485 . S
C2221 C294 1.487 . S
C2225 C470 1.474 . S
C2239 C492 1.486 . S
C2243 C316 1.475 . S
C2257 C426 1.480 . S
C2261 C338 1.481 . S
C2275 C360 1.487 . S
C2279 C448 1.474 . S
C2293 C404 1.478 . S
C2297 C382 1.482 . S
C2311 C778 1.481 . S
C2315 C536 1.481 . S
C2329 C558 1.486 . S
C2333 C734 1.473 . S
C2347 C580 1.487 . S
C2351 C756 1.473 . S
C2365 C602 1.487 . S
C2369 C690 1.473 . S
C2383 C712 1.486 . S
C2387 C624 1.475 . S
C2401 C668 1.487 . S
C2405 C646 1.473 . S
C2419 C645 0.912 . S
C2423 C7 0.898 . S
C2437 C29 0.892 . S
C2441 C601 0.888 . S
C2455 C623 0.907 . S
C2459 C51 0.908 . S
C2473 C293 0.912 . S
C2477 C73 0.900 . S
C2491 C95 0.908 . S
C2495 C315 0.908 . S
C2509 C117 0.886 . S
C2513 C271 0.896 . S
C2527 C515 0.893 . S
C2531 C141 0.886 . S
C2545 C163 0.911 . S
C2549 C471 0.904 . S
C2563 C185 0.912 . S
C2567 C493 0.897 . S
C2581 C691 0.892 . S
C2585 C207 0.911 . S
C2599 C229 0.910 . S
C2603 C713 0.891 . S
C2617 C251 0.903 . S
C2621 C669 0.886 . S
C2635 C337 0.912 . S
C2639 C557 0.897 . S
C2653 C579 0.912 . S
C2657 C359 0.895 . S
C2671 C381 0.908 . S
C2675 C535 0.888 . S
C2689 C779 0.897 . S
C2693 C405 0.912 . S
C2707 C735 0.909 . S
C2711 C427 0.890 . S
C2725 C757 0.904 . S
C2729 C449 0.886 . S
