# Generated by pormake.
# Topology vme, (6)-cn, num edge types: 1
# Building blocks:
#     Node 0, Type 0, BuildingBlock: OJICUG_clean_sbu_0, # of connection points: 6
#     Node 1, Type 0, BuildingBlock: OJICUG_clean_sbu_0, # of connection points: 6
#     Node 2, Type 0, BuildingBlock: OJICUG_clean_sbu_0, # of connection points: 6
#     Node 3, Type 0, BuildingBlock: OJICUG_clean_sbu_0, # of connection points: 6
#     Edge 4, Type (0, 0), BuildingBlock: UVAHIK_clean_linker_0, # of connection points: 2
#     Edge 5, Type (0, 0), BuildingBlock: UVAHIK_clean_linker_0, # of connection points: 2
#     Edge 6, Type (0, 0), BuildingBlock: UVAHIK_clean_linker_0, # of connection points: 2
#     Edge 7, Type (0, 0), BuildingBlock: UVAHIK_clean_linker_0, # of connection points: 2
#     Edge 8, Type (0, 0), BuildingBlock: UVAHIK_clean_linker_0, # of connection points: 2
#     Edge 9, Type (0, 0), BuildingBlock: UVAHIK_clean_linker_0, # of connection points: 2
#     Edge 10, Type (0, 0), BuildingBlock: UVAHIK_clean_linker_0, # of connection points: 2
#     Edge 11, Type (0, 0), BuildingBlock: UVAHIK_clean_linker_0, # of connection points: 2
#     Edge 12, Type (0, 0), BuildingBlock: UVAHIK_clean_linker_0, # of connection points: 2
#     Edge 13, Type (0, 0), BuildingBlock: UVAHIK_clean_linker_0, # of connection points: 2
#     Edge 14, Type (0, 0), BuildingBlock: UVAHIK_clean_linker_0, # of connection points: 2
#     Edge 15, Type (0, 0), BuildingBlock: UVAHIK_clean_linker_0, # of connection points: 2
# Relax obj value: 0.276
# Max RMSD: 0.267
# Mean RMSD: 0.267
data_MOF--net-vme--node1-OJICUG_clean_sbu_0--edge1-UVAHIK_clean_linker_0
_symmetry_space_group_name_H-M    P1
_symmetry_Int_Tables_number       1
_symmetry_cell_setting            triclinic
loop_
_symmetry_equiv_pos_as_xyz
'x, y, z'
_cell_length_a     34.747514
_cell_length_b     33.359855
_cell_length_c     37.283249
_cell_angle_alpha  90.029173
_cell_angle_beta   121.6328
_cell_angle_gamma 90.112311
loop_
_atom_site_label
_atom_site_type_symbol
_atom_site_fract_x
_atom_site_fract_y
_atom_site_fract_z
_atom_type_partial_charge
Sc0 Sc 0.21447 0.31862 0.39818 0.0
Sc1 Sc 0.12833 0.38286 0.32513 0.0
Sc2 Sc 0.18772 0.40596 0.43319 0.0
O3 O 0.17693 0.36914 0.38542 0.0
C4 C 0.20148 0.32005 0.47623 0.0
C5 C 0.11484 0.28908 0.32843 0.0
C6 C 0.08156 0.40519 0.37726 0.0
C7 C 0.20559 0.34663 0.31251 0.0
C8 C 0.2874 0.38501 0.45758 0.0
C9 C 0.16688 0.46897 0.35999 0.0
O10 O 0.20796 0.30177 0.45008 0.0
O11 O 0.1008 0.3238 0.31337 0.0
O12 O 0.1182 0.40549 0.41272 0.0
O13 O 0.22526 0.32825 0.34744 0.0
O14 O 0.25847 0.40826 0.45753 0.0
O15 O 0.15145 0.44298 0.33085 0.0
O16 O 0.27711 0.35128 0.43848 0.0
O17 O 0.17001 0.36728 0.29988 0.0
O18 O 0.17919 0.4604 0.39782 0.0
O19 O 0.15488 0.28203 0.35896 0.0
O20 O 0.19564 0.35769 0.47497 0.0
O21 O 0.07962 0.40055 0.3424 0.0
Sc22 Sc 0.79404 0.90346 0.06426 0.0
Sc23 Sc 0.85686 0.88057 0.17208 0.0
Sc24 Sc 0.76864 0.81642 0.10095 0.0
O25 O 0.80642 0.86677 0.11251 0.0
C26 C 0.69545 0.88311 0.04326 0.0
C27 C 0.81859 0.96668 0.13839 0.0
C28 C 0.78127 0.84537 0.18783 0.0
C29 C 0.90019 0.90229 0.11692 0.0
C30 C 0.7783 0.81726 0.02096 0.0
C31 C 0.86892 0.78681 0.16863 0.0
O32 O 0.72398 0.90653 0.04269 0.0
O33 O 0.83417 0.94063 0.16738 0.0
O34 O 0.75943 0.82735 0.15266 0.0
O35 O 0.86282 0.90214 0.08208 0.0
O36 O 0.77369 0.79883 0.04821 0.0
O37 O 0.88395 0.82163 0.18277 0.0
O38 O 0.78331 0.85501 0.02171 0.0
O39 O 0.90351 0.89835 0.15244 0.0
O40 O 0.82815 0.77967 0.13952 0.0
O41 O 0.8052 0.95807 0.1003 0.0
O42 O 0.70598 0.84908 0.06161 0.0
O43 O 0.8175 0.86483 0.19957 0.0
Sc44 Sc 0.77418 0.58106 0.54669 0.0
Sc45 Sc 0.86107 0.60836 0.6457 0.0
Sc46 Sc 0.7617 0.66376 0.59693 0.0
O47 O 0.79869 0.61794 0.59636 0.0
C48 C 0.73717 0.66651 0.50319 0.0
C49 C 0.87169 0.58717 0.56758 0.0
C50 C 0.86247 0.70052 0.63864 0.0
C51 C 0.82717 0.52168 0.62562 0.0
C52 C 0.69029 0.59118 0.5555 0.0
C53 C 0.80893 0.63819 0.69068 0.0
O54 O 0.73967 0.62856 0.50137 0.0
O55 O 0.88682 0.58568 0.60699 0.0
O56 O 0.82091 0.70369 0.62758 0.0
O57 O 0.80722 0.52824 0.58605 0.0
O58 O 0.69989 0.62754 0.56809 0.0
O59 O 0.84521 0.62901 0.69197 0.0
O60 O 0.71633 0.56882 0.55007 0.0
O61 O 0.84225 0.54973 0.65261 0.0
O62 O 0.77249 0.64608 0.65648 0.0
O63 O 0.83037 0.59285 0.54048 0.0
O64 O 0.74805 0.68489 0.53708 0.0
O65 O 0.88074 0.66711 0.64015 0.0
Sc66 Sc 0.22036 0.16337 0.89804 0.0
Sc67 Sc 0.12192 0.10687 0.85013 0.0
Sc68 Sc 0.20835 0.08238 0.95012 0.0
O69 O 0.18386 0.11767 0.89948 0.0
C70 C 0.29316 0.09262 0.94334 0.0
C71 C 0.17504 0.13522 0.80562 0.0
C72 C 0.15684 0.02092 0.87264 0.0
C73 C 0.11906 0.19884 0.85371 0.0
C74 C 0.24293 0.16928 0.99067 0.0
C75 C 0.11056 0.08763 0.92809 0.0
O76 O 0.28323 0.12871 0.93004 0.0
O77 O 0.13845 0.12676 0.80414 0.0
O78 O 0.17593 0.02846 0.912 0.0
O79 O 0.16058 0.20196 0.86461 0.0
O80 O 0.24265 0.1313 0.9942 0.0
O81 O 0.09599 0.08483 0.88886 0.0
O82 O 0.23095 0.18658 0.95604 0.0
O83 O 0.10123 0.16567 0.85401 0.0
O84 O 0.1516 0.09469 0.95528 0.0
O85 O 0.21151 0.14309 0.83991 0.0
O86 O 0.26658 0.06983 0.94766 0.0
O87 O 0.14194 0.04829 0.845 0.0
C88 C 0.83073 0.0387 0.1282 0.0
C89 C 0.82515 0.00908 0.15194 0.0
C90 C 0.85234 0.07485 0.14717 0.0
C91 C 0.94492 0.10216 0.24824 0.0
H92 H 0.92368 0.21161 0.20781 0.0
C93 C 0.07942 0.22609 0.33438 0.0
C94 C 0.08195 0.25611 0.3094 0.0
C95 C 0.04413 0.19809 0.31637 0.0
C96 C 0.93043 0.18106 0.21926 0.0
H97 H 0.83144 -0.00347 0.21195 0.0
H98 H 0.86943 0.05934 0.24487 0.0
H99 H 0.86352 0.16178 0.17214 0.0
H100 H 0.05138 0.27953 0.24603 0.0
H101 H 0.99167 0.22955 0.21419 0.0
H102 H 0.01238 0.12016 0.29355 0.0
C103 C 0.85788 0.05431 0.21201 0.0
C104 C 0.89574 0.15276 0.19904 0.0
C105 C 0.83607 0.01843 0.19306 0.0
C106 C 0.04988 0.25678 0.26601 0.0
C107 C 0.01529 0.22842 0.24789 0.0
C108 C 0.97982 0.13016 0.26793 0.0
C109 C 0.86853 0.08169 0.18998 0.0
C110 C 0.90285 0.11306 0.21327 0.0
C111 C 0.0113 0.19918 0.27291 0.0
C112 C 0.97326 0.16991 0.25344 0.0
H113 H 0.82254 0.03252 0.09642 0.0
H114 H 0.86011 0.09568 0.12954 0.0
H115 H 0.95148 0.07145 0.2593 0.0
H116 H 0.10349 0.22534 0.36804 0.0
H117 H 0.04197 0.17633 0.33678 0.0
C118 C 0.15129 0.52064 0.30589 0.0
C119 C 0.16113 0.51137 0.34668 0.0
C120 C 0.12953 0.55634 0.28659 0.0
C121 C 0.08931 0.65407 0.29831 0.0
H122 H 0.97401 0.61948 0.20286 0.0
C123 C 0.93304 0.7543 0.23098 0.0
C124 C 0.90146 0.7538 0.18749 0.0
C125 C 0.968 0.72649 0.24907 0.0
C126 C 0.00619 0.63003 0.22875 0.0
H127 H 0.16215 0.53487 0.40145 0.0
H128 H 0.12471 0.59767 0.36778 0.0
H129 H 0.03592 0.57204 0.23762 0.0
H130 H 0.88099 0.72386 0.12862 0.0
H131 H 0.94322 0.67571 0.15988 0.0
H132 H 0.05995 0.71217 0.28936 0.0
C133 C 0.13323 0.57694 0.35063 0.0
C134 C 0.04168 0.60278 0.24871 0.0
C135 C 0.15478 0.54099 0.36993 0.0
C136 C 0.9047 0.72439 0.16235 0.0
C137 C 0.9404 0.69694 0.18036 0.0
C138 C 0.05404 0.68162 0.27783 0.0
C139 C 0.1179 0.58359 0.30798 0.0
C140 C 0.08324 0.61436 0.28408 0.0
C141 C 0.97289 0.69804 0.22392 0.0
C142 C 0.01165 0.66969 0.24338 0.0
H143 H 0.15655 0.49875 0.2874 0.0
H144 H 0.11867 0.56123 0.25388 0.0
H145 H 0.12111 0.66362 0.3255 0.0
H146 H 0.93096 0.77663 0.25103 0.0
H147 H 0.99131 0.72752 0.28283 0.0
C148 C 0.13533 0.97075 0.81614 0.0
C149 C 0.14421 0.97957 0.85663 0.0
C150 C 0.1111 0.93653 0.7949 0.0
C151 C 0.02521 0.86998 0.79219 0.0
H152 H 0.03372 0.81881 0.70327 0.0
C153 C 0.88026 0.77093 0.66735 0.0
C154 C 0.89317 0.73558 0.65595 0.0
C155 C 0.91244 0.80058 0.69085 0.0
C156 C 0.03095 0.83238 0.72821 0.0
H157 H 0.13872 0.95751 0.90842 0.0
H158 H 0.09751 0.89653 0.87175 0.0
H159 H 0.09338 0.8637 0.75195 0.0
H160 H 0.94948 0.70497 0.65799 0.0
H161 H 0.00501 0.7554 0.69953 0.0
H162 H 0.96366 0.83731 0.76945 0.0
C163 C 0.10813 0.91686 0.85592 0.0
C164 C 0.06508 0.85852 0.75596 0.0
C165 C 0.13236 0.95142 0.87722 0.0
C166 C 0.93821 0.73166 0.6664 0.0
C167 C 0.97025 0.76088 0.69013 0.0
C168 C 0.9914 0.84328 0.76482 0.0
C169 C 0.09546 0.91001 0.81379 0.0
C170 C 0.06235 0.87817 0.78791 0.0
C171 C 0.95812 0.79533 0.70355 0.0
C172 C -0.00643 0.82445 0.73218 0.0
H173 H 0.14435 0.99183 0.7996 0.0
H174 H 0.10192 0.93261 0.76252 0.0
H175 H 0.02149 0.88501 0.81594 0.0
H176 H 0.84585 0.77496 0.65975 0.0
H177 H 0.90167 0.82721 0.69979 0.0
C178 C 0.85192 0.45234 0.62139 0.0
C179 C 0.84088 0.48075 0.64239 0.0
C180 C 0.87734 0.41847 0.64292 0.0
C181 C 0.92086 0.34232 0.69758 0.0
H182 H 0.02749 0.37433 0.80354 0.0
C183 C 0.04205 0.22881 0.82036 0.0
C184 C 0.0883 0.23355 0.83496 0.0
C185 C 0.01117 0.25878 0.79692 0.0
C186 C -0.002 0.36507 0.77398 0.0
H187 H 0.84308 0.4939 0.70045 0.0
H188 H 0.88707 0.43492 0.73766 0.0
H189 H 0.97038 0.42426 0.76016 0.0
H190 H 0.13849 0.27466 0.83817 0.0
H191 H 0.08413 0.32778 0.7978 0.0
H192 H 0.94844 0.28299 0.7117 0.0
C193 C 0.87705 0.43918 0.70507 0.0
C194 C 0.96518 0.39344 0.74938 0.0
C195 C 0.85166 0.47275 0.68367 0.0
C196 C 0.10319 0.27002 0.82743 0.0
C197 C 0.07213 0.30034 0.80426 0.0
C198 C 0.95343 0.31378 0.72252 0.0
C199 C 0.89192 0.41282 0.68557 0.0
C200 C 0.92623 0.38227 0.71111 0.0
C201 C 0.02575 0.29445 0.78794 0.0
C202 C -0.00783 0.32494 0.76098 0.0
H203 H 0.84424 0.45787 0.58967 0.0
H204 H 0.88831 0.39837 0.6272 0.0
H205 H 0.8912 0.33309 0.66814 0.0
H206 H 0.02921 0.20133 0.82576 0.0
H207 H 0.9757 0.25388 0.78539 0.0
C208 C 0.89206 0.59252 0.5132 0.0
C209 C 0.90022 0.57541 0.551 0.0
C210 C 0.90928 0.57478 0.49065 0.0
C211 C 0.93658 0.4757 0.47088 0.0
H212 H -0.0073 0.53098 0.41839 0.0
C213 C 0.03584 0.39623 0.40946 0.0
C214 C 0.04084 0.41437 0.37822 0.0
C215 C 0.00882 0.4138 0.42243 0.0
C216 C 0.97599 0.51522 0.4319 0.0
H217 H 0.9348 0.52786 0.59624 0.0
H218 H 0.96506 0.4966 0.55661 0.0
H219 H 0.97235 0.56843 0.46225 0.0
H220 H 0.0184 0.46268 0.33297 0.0
H221 H 0.96986 0.49326 0.35494 0.0
H222 H 0.93985 0.42256 0.44051 0.0
C223 C 0.94521 0.52371 0.54449 0.0
C224 C 0.96491 0.53664 0.45746 0.0
C225 C 0.92852 0.54187 0.56743 0.0
C226 C 0.01461 0.44798 0.35686 0.0
C227 C 0.98752 0.46578 0.36996 0.0
C228 C 0.94716 0.45437 0.44496 0.0
C229 C 0.9344 0.53926 0.50521 0.0
C230 C 0.94598 0.51689 0.47786 0.0
C231 C 0.98635 0.45004 0.40446 0.0
C232 C 0.96789 0.47368 0.42586 0.0
H233 H 0.87013 0.61832 0.49985 0.0
H234 H 0.90045 0.58737 0.46049 0.0
H235 H 0.92088 0.45997 0.48538 0.0
H236 H 0.05607 0.37039 0.42651 0.0
H237 H 0.00905 0.40085 0.44916 0.0
C238 C 0.94307 0.89441 0.0817 0.0
C239 C 0.94008 0.91149 0.11454 0.0
C240 C 0.97016 0.91194 0.06877 0.0
C241 C 0.00655 0.01277 0.06303 0.0
H242 H 0.05862 0.9585 0.00635 0.0
C243 C 0.09037 0.09189 0.98268 0.0
C244 C 0.08198 0.07545 0.9445 0.0
C245 C 0.07298 0.07365 0.00486 0.0
C246 C 0.04375 0.97397 0.02174 0.0
H247 H 0.96609 0.95767 0.16247 0.0
H248 H 0.01453 0.98828 0.14031 0.0
H249 H 0.0392 0.92008 0.05036 0.0
H250 H 0.04653 0.02874 0.89811 0.0
H251 H 0.01585 -0.00328 0.937 0.0
H252 H 0.01121 0.06668 0.03428 0.0
C253 C -0.00467 0.96165 0.12414 0.0
C254 C 0.03297 0.95206 0.04719 0.0
C255 C 0.96823 0.94385 0.13726 0.0
C256 C 0.05312 0.0422 0.92727 0.0
C257 C 0.03617 0.02359 0.94978 0.0
C258 C 0.01773 0.03474 0.03786 0.0
C259 C -0.00534 0.94707 0.08835 0.0
C260 C 0.01339 0.97106 0.06745 0.0
C261 C 0.04734 0.03837 0.98947 0.0
C262 C 0.03558 0.01539 0.01633 0.0
H263 H 0.92146 0.86947 0.06369 0.0
H264 H 0.96857 0.89996 0.04102 0.0
H265 H 0.99072 0.02827 0.0775 0.0
H266 H 0.11263 0.11753 0.9966 0.0
H267 H 0.08208 0.08567 0.03533 0.0
C268 C 0.23504 0.23277 0.02165 0.0
C269 C 0.2539 0.19434 0.02751 0.0
C270 C 0.24002 0.25451 0.05584 0.0
C271 C 0.26287 0.2366 0.16316 0.0
H272 H 0.25698 0.35263 0.16556 0.0
C273 C 0.26154 0.31652 0.29751 0.0
C274 C 0.22289 0.34028 0.28409 0.0
C275 C 0.27387 0.30448 0.26912 0.0
C276 C 0.2588 0.32023 0.16524 0.0
H277 H 0.29558 0.14977 0.07401 0.0
H278 H 0.30625 0.18844 0.13404 0.0
H279 H 0.26556 0.3199 0.11141 0.0
H280 H 0.16921 0.37281 0.23098 0.0
H281 H 0.19117 0.35176 0.18132 0.0
H282 H 0.25634 0.237 0.21703 0.0
C283 C 0.28596 0.20121 0.10286 0.0
C284 C 0.26347 0.30141 0.13418 0.0
C285 C 0.28017 0.1791 0.06852 0.0
C286 C 0.19896 0.3543 0.24231 0.0
C287 C 0.21159 0.34242 0.21391 0.0
C288 C 0.25901 0.25541 0.19448 0.0
C289 C 0.26467 0.23862 0.09682 0.0
C290 C 0.26477 0.25926 0.13231 0.0
C291 C 0.24816 0.31621 0.22679 0.0
C292 C 0.25626 0.29731 0.19547 0.0
H293 H 0.21437 0.24524 0.99033 0.0
H294 H 0.22258 0.28287 0.04968 0.0
H295 H 0.26256 0.20416 0.16232 0.0
H296 H 0.28125 0.3056 0.32957 0.0
H297 H 0.30256 0.28468 0.2799 0.0
C298 C 0.72053 0.82942 0.2026 0.0
C299 C 0.76549 0.84058 0.21748 0.0
C300 C 0.70708 0.81931 0.23076 0.0
C301 C 0.69897 0.76781 0.29279 0.0
H302 H 0.75699 0.80889 0.40684 0.0
C303 C 0.72294 0.67211 0.43027 0.0
C304 C 0.72495 0.69039 0.46518 0.0
C305 C 0.71771 0.6952 0.39682 0.0
C306 C 0.73967 0.79745 0.3749 0.0
H307 H 0.831 0.85193 0.27355 0.0
H308 H 0.80813 0.83298 0.32262 0.0
H309 H 0.76615 0.84437 0.35483 0.0
H310 H 0.72006 0.74718 0.49097 0.0
H311 H 0.70984 0.78739 0.43202 0.0
H312 H 0.6722 0.7211 0.31273 0.0
C313 C 0.78281 0.83285 0.28928 0.0
C314 C 0.7455 0.81753 0.34519 0.0
C315 C 0.79609 0.84354 0.26111 0.0
C316 C 0.71908 0.73214 0.46475 0.0
C317 C 0.71349 0.75525 0.43107 0.0
C318 C 0.69273 0.74802 0.32234 0.0
C319 C 0.73845 0.81952 0.27444 0.0
C320 C 0.72645 0.80222 0.30413 0.0
C321 C 0.71391 0.73716 0.3972 0.0
C322 C 0.71426 0.7618 0.36414 0.0
H323 H 0.69598 0.82746 0.1691 0.0
H324 H 0.67237 0.81019 0.2182 0.0
H325 H 0.68399 0.75483 0.26164 0.0
H326 H 0.72747 0.64006 0.42953 0.0
H327 H 0.71888 0.6802 0.37165 0.0
C328 C 0.77871 0.75144 0.98841 0.0
C329 C 0.7809 0.79358 0.98863 0.0
C330 C 0.78451 0.72906 0.95987 0.0
C331 C 0.833 0.73627 0.89252 0.0
H332 H 0.75426 0.64624 0.8328 0.0
C333 C 0.76863 0.64801 0.72919 0.0
C334 C 0.80954 0.64367 0.73039 0.0
C335 C 0.76857 0.65909 0.76521 0.0
C336 C 0.77663 0.67122 0.84936 0.0
H337 H 0.79001 0.84515 0.95827 0.0
H338 H 0.7994 0.80615 0.90826 0.0
H339 H 0.74613 0.68188 0.88564 0.0
H340 H 0.88258 0.64511 0.77111 0.0
H341 H 0.88242 0.66435 0.83432 0.0
H342 H 0.86222 0.72678 0.85507 0.0
C343 C 0.79402 0.7904 0.93067 0.0
C344 C 0.77218 0.69145 0.87983 0.0
C345 C 0.7882 0.81278 0.95912 0.0
C346 C 0.85048 0.64836 0.76908 0.0
C347 C 0.8504 0.65965 0.8052 0.0
C348 C 0.83746 0.71605 0.86212 0.0
C349 C 0.7927 0.74829 0.931 0.0
C350 C 0.79969 0.72474 0.90109 0.0
C351 C 0.8094 0.66615 0.80335 0.0
C352 C 0.80871 0.68381 0.83957 0.0
H353 H 0.77333 0.7356 0.01077 0.0
H354 H 0.78355 0.69665 0.96106 0.0
H355 H 0.85523 0.76138 0.9089 0.0
H356 H 0.73644 0.6443 0.69999 0.0
H357 H 0.73638 0.66416 0.76255 0.0
C358 C 0.21525 0.1464 0.76722 0.0
C359 C 0.17447 0.14063 0.76596 0.0
C360 C 0.215 0.15804 0.7312 0.0
C361 C 0.20658 0.17187 0.64722 0.0
H362 H 0.12465 0.25979 0.58778 0.0
C363 C 0.20196 0.25406 0.50856 0.0
C364 C 0.19834 0.2961 0.50804 0.0
C365 C 0.19655 0.23116 0.53695 0.0
C366 C 0.14782 0.23535 0.60416 0.0
H367 H 0.10141 0.13979 0.72509 0.0
H368 H 0.10103 0.15989 0.66193 0.0
H369 H 0.119 0.22367 0.64159 0.0
H370 H 0.18676 0.34697 0.53749 0.0
H371 H 0.17811 0.30702 0.58748 0.0
H372 H 0.23669 0.18476 0.61106 0.0
C373 C 0.13318 0.15599 0.69109 0.0
C374 C 0.14413 0.21423 0.63452 0.0
C375 C 0.13342 0.14421 0.72719 0.0
C376 C 0.18972 0.3147 0.53695 0.0
C377 C 0.18434 0.29177 0.56536 0.0
C378 C 0.21028 0.19301 0.61685 0.0
C379 C 0.17396 0.16418 0.69305 0.0
C380 C 0.17403 0.18276 0.65697 0.0
C381 C 0.18741 0.24974 0.56548 0.0
C382 C 0.1815 0.22548 0.59558 0.0
H383 H 0.24753 0.14356 0.79648 0.0
H384 H 0.247 0.16438 0.73391 0.0
H385 H 0.22984 0.14752 0.66373 0.0
H386 H 0.20835 0.23864 0.48662 0.0
H387 H 0.19873 0.19884 0.53602 0.0
C388 C 0.34803 0.43158 0.5078 0.0
C389 C 0.33439 0.39989 0.47866 0.0
C390 C 0.3895 0.45054 0.52289 0.0
C391 C 0.49969 0.44306 0.53087 0.0
H392 H 0.49151 0.55915 0.52336 0.0
C393 C 0.63204 0.53752 0.52343 0.0
C394 C 0.64779 0.57283 0.54759 0.0
C395 C 0.59499 0.51699 0.51909 0.0
C396 C 0.49455 0.52684 0.52631 0.0
H397 H 0.35477 0.36161 0.44452 0.0
H398 H 0.42742 0.39505 0.47076 0.0
H399 H 0.42623 0.5198 0.51051 0.0
H400 H 0.63591 0.61508 0.58495 0.0
H401 H 0.57044 0.57884 0.57724 0.0
H402 H 0.56774 0.45009 0.54588 0.0
C403 C 0.40598 0.40503 0.48205 0.0
C404 C 0.45721 0.50426 0.51897 0.0
C405 C 0.36438 0.38588 0.46699 0.0
C406 C 0.62445 0.58802 0.56605 0.0
C407 C 0.58714 0.56726 0.56172 0.0
C408 C 0.53701 0.46563 0.53826 0.0
C409 C 0.41827 0.43833 0.50915 0.0
C410 C 0.45918 0.46211 0.52051 0.0
C411 C 0.57269 0.53109 0.53886 0.0
C412 C 0.53452 0.5077 0.53521 0.0
H413 H 0.32598 0.44269 0.51796 0.0
H414 H 0.39852 0.47552 0.54448 0.0
H415 H 0.5024 0.4107 0.53292 0.0
H416 H 0.64877 0.52527 0.50821 0.0
H417 H 0.58388 0.48987 0.50027 0.0
C418 C 0.35367 0.04223 0.98187 0.0
C419 C 0.33727 0.07543 0.9547 0.0
C420 C 0.39285 0.02279 0.99025 0.0
C421 C 0.46247 0.0033 0.94552 0.0
H422 H 0.54718 0.96345 0.05782 0.0
C423 C 0.63412 0.93016 0.9956 0.0
C424 C 0.64895 0.89838 0.02462 0.0
C425 C 0.59384 0.94997 0.98351 0.0
C426 C 0.52345 0.97387 0.02617 0.0
H427 H 0.34987 0.11507 0.9159 0.0
H428 H 0.4193 0.08078 0.93084 0.0
H429 H 0.48484 0.00601 0.0462 0.0
H430 H 0.63173 0.8607 0.06157 0.0
H431 H 0.56087 0.8953 0.04015 0.0
H432 H 0.50145 0.97113 0.92564 0.0
C433 C 0.40122 0.06983 0.94529 0.0
C434 C 0.48795 -0.00153 0.01957 0.0
C435 C 0.36182 0.08961 0.93704 0.0
C436 C 0.62119 0.88508 0.03919 0.0
C437 C 0.58091 0.90513 0.02725 0.0
C438 C 0.49817 0.97871 0.95217 0.0
C439 C 0.41679 0.03598 0.97171 0.0
C440 C 0.4568 0.0131 0.97912 0.0
C441 C 0.56761 0.93853 0.00031 0.0
C442 C 0.52875 0.96346 0.99252 0.0
H443 H 0.33575 0.03066 0.99627 0.0
H444 H 0.40359 -0.00344 0.01031 0.0
H445 H 0.43862 0.0137 0.9139 0.0
H446 H 0.65461 0.9409 0.98352 0.0
H447 H 0.58457 0.97564 0.96281 0.0
loop_
_geom_bond_atom_site_label_1
_geom_bond_atom_site_label_2
_geom_bond_distance
_geom_bond_site_symmetry_2
_ccdc_geom_bond_type
Sc0 O3 2.025 . S
Sc0 O10 2.105 . S
Sc0 O13 2.105 . S
Sc0 O16 2.105 . S
Sc0 O19 2.105 . S
Sc1 O3 2.025 . S
Sc1 O11 2.105 . S
Sc1 O15 2.105 . S
Sc1 O17 2.105 . S
Sc1 O21 2.105 . S
Sc2 O3 2.025 . S
Sc2 O12 2.105 . S
Sc2 O14 2.105 . S
Sc2 O18 2.105 . S
Sc2 O20 2.105 . S
O3 Sc0 2.025 . S
O3 Sc1 2.025 . S
O3 Sc2 2.025 . S
C4 O10 1.268 . S
C4 O20 1.268 . S
C5 O11 1.268 . S
C5 O19 1.268 . S
C6 O12 1.268 . S
C6 O21 1.268 . S
C7 O13 1.268 . S
C7 O17 1.268 . S
C8 O14 1.268 . S
C8 O16 1.268 . S
C9 O15 1.268 . S
C9 O18 1.268 . S
O10 Sc0 2.105 . S
O10 C4 1.268 . S
O11 Sc1 2.105 . S
O11 C5 1.268 . S
O12 Sc2 2.105 . S
O12 C6 1.268 . S
O13 Sc0 2.105 . S
O13 C7 1.268 . S
O14 Sc2 2.105 . S
O14 C8 1.268 . S
O15 Sc1 2.105 . S
O15 C9 1.268 . S
O16 Sc0 2.105 . S
O16 C8 1.268 . S
O17 Sc1 2.105 . S
O17 C7 1.268 . S
O18 Sc2 2.105 . S
O18 C9 1.268 . S
O19 Sc0 2.105 . S
O19 C5 1.268 . S
O20 Sc2 2.105 . S
O20 C4 1.268 . S
O21 Sc1 2.105 . S
O21 C6 1.268 . S
Sc22 O25 2.025 . S
Sc22 O32 2.105 . S
Sc22 O35 2.105 . S
Sc22 O38 2.105 . S
Sc22 O41 2.105 . S
Sc23 O25 2.025 . S
Sc23 O33 2.105 . S
Sc23 O37 2.105 . S
Sc23 O39 2.105 . S
Sc23 O43 2.105 . S
Sc24 O25 2.025 . S
Sc24 O34 2.105 . S
Sc24 O36 2.105 . S
Sc24 O40 2.105 . S
Sc24 O42 2.105 . S
O25 Sc22 2.025 . S
O25 Sc23 2.025 . S
O25 Sc24 2.025 . S
C26 O32 1.268 . S
C26 O42 1.268 . S
C27 O33 1.268 . S
C27 O41 1.268 . S
C28 O34 1.268 . S
C28 O43 1.268 . S
C29 O35 1.268 . S
C29 O39 1.268 . S
C30 O36 1.268 . S
C30 O38 1.268 . S
C31 O37 1.268 . S
C31 O40 1.268 . S
O32 Sc22 2.105 . S
O32 C26 1.268 . S
O33 Sc23 2.105 . S
O33 C27 1.268 . S
O34 Sc24 2.105 . S
O34 C28 1.268 . S
O35 Sc22 2.105 . S
O35 C29 1.268 . S
O36 Sc24 2.105 . S
O36 C30 1.268 . S
O37 Sc23 2.105 . S
O37 C31 1.268 . S
O38 Sc22 2.105 . S
O38 C30 1.268 . S
O39 Sc23 2.105 . S
O39 C29 1.268 . S
O40 Sc24 2.105 . S
O40 C31 1.268 . S
O41 Sc22 2.105 . S
O41 C27 1.268 . S
O42 Sc24 2.105 . S
O42 C26 1.268 . S
O43 Sc23 2.105 . S
O43 C28 1.268 . S
Sc44 O47 2.025 . S
Sc44 O54 2.105 . S
Sc44 O57 2.105 . S
Sc44 O60 2.105 . S
Sc44 O63 2.105 . S
Sc45 O47 2.025 . S
Sc45 O55 2.105 . S
Sc45 O59 2.105 . S
Sc45 O61 2.105 . S
Sc45 O65 2.105 . S
Sc46 O47 2.025 . S
Sc46 O56 2.105 . S
Sc46 O58 2.105 . S
Sc46 O62 2.105 . S
Sc46 O64 2.105 . S
O47 Sc44 2.025 . S
O47 Sc45 2.025 . S
O47 Sc46 2.025 . S
C48 O54 1.268 . S
C48 O64 1.268 . S
C49 O55 1.268 . S
C49 O63 1.268 . S
C50 O56 1.268 . S
C50 O65 1.268 . S
C51 O57 1.268 . S
C51 O61 1.268 . S
C52 O58 1.268 . S
C52 O60 1.268 . S
C53 O59 1.268 . S
C53 O62 1.268 . S
O54 Sc44 2.105 . S
O54 C48 1.268 . S
O55 Sc45 2.105 . S
O55 C49 1.268 . S
O56 Sc46 2.105 . S
O56 C50 1.268 . S
O57 Sc44 2.105 . S
O57 C51 1.268 . S
O58 Sc46 2.105 . S
O58 C52 1.268 . S
O59 Sc45 2.105 . S
O59 C53 1.268 . S
O60 Sc44 2.105 . S
O60 C52 1.268 . S
O61 Sc45 2.105 . S
O61 C51 1.268 . S
O62 Sc46 2.105 . S
O62 C53 1.268 . S
O63 Sc44 2.105 . S
O63 C49 1.268 . S
O64 Sc46 2.105 . S
O64 C48 1.268 . S
O65 Sc45 2.105 . S
O65 C50 1.268 . S
Sc66 O69 2.025 . S
Sc66 O76 2.105 . S
Sc66 O79 2.105 . S
Sc66 O82 2.105 . S
Sc66 O85 2.105 . S
Sc67 O69 2.025 . S
Sc67 O77 2.105 . S
Sc67 O81 2.105 . S
Sc67 O83 2.105 . S
Sc67 O87 2.105 . S
Sc68 O69 2.025 . S
Sc68 O78 2.105 . S
Sc68 O80 2.105 . S
Sc68 O84 2.105 . S
Sc68 O86 2.105 . S
O69 Sc66 2.025 . S
O69 Sc67 2.025 . S
O69 Sc68 2.025 . S
C70 O76 1.268 . S
C70 O86 1.268 . S
C71 O77 1.268 . S
C71 O85 1.268 . S
C72 O78 1.268 . S
C72 O87 1.268 . S
C73 O79 1.268 . S
C73 O83 1.268 . S
C74 O80 1.268 . S
C74 O82 1.268 . S
C75 O81 1.268 . S
C75 O84 1.268 . S
O76 Sc66 2.105 . S
O76 C70 1.268 . S
O77 Sc67 2.105 . S
O77 C71 1.268 . S
O78 Sc68 2.105 . S
O78 C72 1.268 . S
O79 Sc66 2.105 . S
O79 C73 1.268 . S
O80 Sc68 2.105 . S
O80 C74 1.268 . S
O81 Sc67 2.105 . S
O81 C75 1.268 . S
O82 Sc66 2.105 . S
O82 C74 1.268 . S
O83 Sc67 2.105 . S
O83 C73 1.268 . S
O84 Sc68 2.105 . S
O84 C75 1.268 . S
O85 Sc66 2.105 . S
O85 C71 1.268 . S
O86 Sc68 2.105 . S
O86 C70 1.268 . S
O87 Sc67 2.105 . S
O87 C72 1.268 . S
C88 C89 1.349 . S
C88 C90 1.327 . S
C88 H113 0.950 . S
C89 C88 1.349 . S
C89 C105 1.351 . S
C90 C88 1.327 . S
C90 C109 1.429 . S
C90 H114 0.950 . S
C91 C108 1.574 1_655 S
C91 C110 1.368 . S
C91 H115 0.949 . S
H92 C96 0.949 . S
C93 C94 1.349 . S
C93 C95 1.327 . S
C93 H116 0.950 . S
C94 C93 1.349 . S
C94 C106 1.349 . S
C95 C93 1.327 . S
C95 C111 1.429 . S
C95 H117 0.950 . S
C96 H92 0.949 . S
C96 C104 1.574 . S
C96 C112 1.368 1_655 S
H97 C105 0.937 1_565 S
H98 C103 0.950 . S
H99 C104 0.949 . S
H100 C106 0.950 . S
H101 C107 0.950 . S
H102 C108 0.949 . S
C103 H98 0.950 . S
C103 C105 1.337 . S
C103 C109 1.429 . S
C104 C96 1.574 . S
C104 H99 0.949 . S
C104 C110 1.368 . S
C105 C89 1.351 . S
C105 H97 0.937 1_545 S
C105 C103 1.337 . S
C106 C94 1.349 . S
C106 H100 0.950 . S
C106 C107 1.327 . S
C107 H101 0.950 . S
C107 C106 1.327 . S
C107 C111 1.429 . S
C108 C91 1.574 1_455 S
C108 H102 0.949 . S
C108 C112 1.368 . S
C109 C90 1.429 . S
C109 C103 1.429 . S
C109 C110 1.523 . S
C110 C91 1.368 . S
C110 C104 1.368 . S
C110 C109 1.523 . S
C111 C95 1.429 . S
C111 C107 1.429 . S
C111 C112 1.523 . S
C112 C96 1.368 1_455 S
C112 C108 1.368 . S
C112 C111 1.523 . S
H113 C88 0.950 . S
H114 C90 0.950 . S
H115 C91 0.949 . S
H116 C93 0.950 . S
H117 C95 0.950 . S
C118 C119 1.349 . S
C118 C120 1.327 . S
C118 H143 0.950 . S
C119 C118 1.349 . S
C119 C135 1.349 . S
C120 C118 1.327 . S
C120 C139 1.429 . S
C120 H144 0.950 . S
C121 C138 1.574 . S
C121 C140 1.368 . S
C121 H145 0.949 . S
H122 C126 0.949 . S
C123 C124 1.349 . S
C123 C125 1.327 . S
C123 H146 0.950 . S
C124 C123 1.349 . S
C124 C136 1.349 . S
C125 C123 1.327 . S
C125 C141 1.429 . S
C125 H147 0.950 . S
C126 H122 0.949 . S
C126 C134 1.574 1_655 S
C126 C142 1.368 . S
H127 C135 0.950 . S
H128 C133 0.950 . S
H129 C134 0.949 . S
H130 C136 0.950 . S
H131 C137 0.950 . S
H132 C138 0.949 . S
C133 H128 0.950 . S
C133 C135 1.327 . S
C133 C139 1.429 . S
C134 C126 1.574 1_455 S
C134 H129 0.949 . S
C134 C140 1.368 . S
C135 C119 1.349 . S
C135 H127 0.950 . S
C135 C133 1.327 . S
C136 C124 1.349 . S
C136 H130 0.950 . S
C136 C137 1.327 . S
C137 H131 0.950 . S
C137 C136 1.327 . S
C137 C141 1.429 . S
C138 C121 1.574 . S
C138 H132 0.949 . S
C138 C142 1.368 1_455 S
C139 C120 1.429 . S
C139 C133 1.429 . S
C139 C140 1.523 . S
C140 C121 1.368 . S
C140 C134 1.368 . S
C140 C139 1.523 . S
C141 C125 1.429 . S
C141 C137 1.429 . S
C141 C142 1.523 . S
C142 C126 1.368 . S
C142 C138 1.368 1_655 S
C142 C141 1.523 . S
H143 C118 0.950 . S
H144 C120 0.950 . S
H145 C121 0.949 . S
H146 C123 0.950 . S
H147 C125 0.950 . S
C148 C149 1.349 . S
C148 C150 1.327 . S
C148 H173 0.950 . S
C149 C148 1.349 . S
C149 C165 1.349 . S
C150 C148 1.327 . S
C150 C169 1.429 . S
C150 H174 0.950 . S
C151 C168 1.574 1_455 S
C151 C170 1.368 . S
C151 H175 0.949 . S
H152 C156 0.949 . S
C153 C154 1.349 . S
C153 C155 1.327 . S
C153 H176 0.950 . S
C154 C153 1.349 . S
C154 C166 1.349 . S
C155 C153 1.327 . S
C155 C171 1.429 . S
C155 H177 0.950 . S
C156 H152 0.949 . S
C156 C164 1.574 . S
C156 C172 1.368 1_455 S
H157 C165 0.950 . S
H158 C163 0.950 . S
H159 C164 0.949 . S
H160 C166 0.950 . S
H161 C167 0.950 . S
H162 C168 0.949 . S
C163 H158 0.950 . S
C163 C165 1.327 . S
C163 C169 1.429 . S
C164 C156 1.574 . S
C164 H159 0.949 . S
C164 C170 1.368 . S
C165 C149 1.349 . S
C165 H157 0.950 . S
C165 C163 1.327 . S
C166 C154 1.349 . S
C166 H160 0.950 . S
C166 C167 1.327 . S
C167 H161 0.950 . S
C167 C166 1.327 . S
C167 C171 1.429 . S
C168 C151 1.574 1_655 S
C168 H162 0.949 . S
C168 C172 1.368 . S
C169 C150 1.429 . S
C169 C163 1.429 . S
C169 C170 1.523 . S
C170 C151 1.368 . S
C170 C164 1.368 . S
C170 C169 1.523 . S
C171 C155 1.429 . S
C171 C167 1.429 . S
C171 C172 1.523 . S
C172 C156 1.368 1_655 S
C172 C168 1.368 . S
C172 C171 1.523 . S
H173 C148 0.950 . S
H174 C150 0.950 . S
H175 C151 0.949 . S
H176 C153 0.950 . S
H177 C155 0.950 . S
C178 C179 1.349 . S
C178 C180 1.327 . S
C178 H203 0.950 . S
C179 C178 1.349 . S
C179 C195 1.349 . S
C180 C178 1.327 . S
C180 C199 1.429 . S
C180 H204 0.950 . S
C181 C198 1.574 . S
C181 C200 1.368 . S
C181 H205 0.949 . S
H182 C186 0.949 . S
C183 C184 1.349 . S
C183 C185 1.327 . S
C183 H206 0.950 . S
C184 C183 1.349 . S
C184 C196 1.349 . S
C185 C183 1.327 . S
C185 C201 1.429 . S
C185 H207 0.950 1_455 S
C186 H182 0.949 . S
C186 C194 1.574 1_455 S
C186 C202 1.368 . S
H187 C195 0.950 . S
H188 C193 0.950 . S
H189 C194 0.949 1_455 S
H190 C196 0.950 . S
H191 C197 0.950 . S
H192 C198 0.949 . S
C193 H188 0.950 . S
C193 C195 1.327 . S
C193 C199 1.429 . S
C194 C186 1.574 1_655 S
C194 H189 0.949 1_655 S
C194 C200 1.368 . S
C195 C179 1.349 . S
C195 H187 0.950 . S
C195 C193 1.327 . S
C196 C184 1.349 . S
C196 H190 0.950 . S
C196 C197 1.327 . S
C197 H191 0.950 . S
C197 C196 1.327 . S
C197 C201 1.429 . S
C198 C181 1.574 . S
C198 H192 0.949 . S
C198 C202 1.368 1_655 S
C199 C180 1.429 . S
C199 C193 1.429 . S
C199 C200 1.523 . S
C200 C181 1.368 . S
C200 C194 1.368 . S
C200 C199 1.523 . S
C201 C185 1.429 . S
C201 C197 1.429 . S
C201 C202 1.523 . S
C202 C186 1.368 . S
C202 C198 1.368 1_455 S
C202 C201 1.523 . S
H203 C178 0.950 . S
H204 C180 0.950 . S
H205 C181 0.949 . S
H206 C183 0.950 . S
H207 C185 0.950 1_655 S
C208 C209 1.349 . S
C208 C210 1.327 . S
C208 H233 0.950 . S
C209 C208 1.349 . S
C209 C225 1.349 . S
C210 C208 1.327 . S
C210 C229 1.429 . S
C210 H234 0.950 . S
C211 C228 1.574 . S
C211 C230 1.368 . S
C211 H235 0.949 . S
H212 C216 0.949 . S
C213 C214 1.349 . S
C213 C215 1.327 . S
C213 H236 0.950 . S
C214 C213 1.349 . S
C214 C226 1.349 . S
C215 C213 1.327 . S
C215 C231 1.429 . S
C215 H237 0.950 . S
C216 H212 0.949 . S
C216 C224 1.574 . S
C216 C232 1.368 . S
H217 C225 0.950 . S
H218 C223 0.950 . S
H219 C224 0.949 . S
H220 C226 0.950 . S
H221 C227 0.950 . S
H222 C228 0.949 . S
C223 H218 0.950 . S
C223 C225 1.327 . S
C223 C229 1.429 . S
C224 C216 1.574 . S
C224 H219 0.949 . S
C224 C230 1.368 1_455 S
C225 C209 1.349 . S
C225 H217 0.950 . S
C225 C223 1.327 . S
C226 C214 1.349 . S
C226 H220 0.950 . S
C226 C227 1.327 . S
C227 H221 0.950 . S
C227 C226 1.327 . S
C227 C231 1.429 . S
C228 C211 1.574 . S
C228 H222 0.949 . S
C228 C232 1.368 1_655 S
C229 C210 1.429 . S
C229 C223 1.429 . S
C229 C230 1.523 . S
C230 C211 1.368 . S
C230 C224 1.368 1_655 S
C230 C229 1.523 . S
C231 C215 1.429 . S
C231 C227 1.429 . S
C231 C232 1.523 . S
C232 C216 1.368 . S
C232 C228 1.368 1_455 S
C232 C231 1.523 . S
H233 C208 0.950 . S
H234 C210 0.950 . S
H235 C211 0.949 . S
H236 C213 0.950 . S
H237 C215 0.950 . S
C238 C239 1.349 . S
C238 C240 1.327 . S
C238 H263 0.950 . S
C239 C238 1.349 . S
C239 C255 1.349 . S
C240 C238 1.327 . S
C240 C259 1.429 . S
C240 H264 0.950 1_655 S
C241 C258 1.574 1_554 S
C241 C260 1.368 1_545 S
C241 H265 0.949 . S
H242 C246 0.949 . S
C243 C244 1.349 . S
C243 C245 1.327 . S
C243 H266 0.950 . S
C244 C243 1.349 . S
C244 C256 1.349 . S
C245 C243 1.327 . S
C245 C261 1.429 . S
C245 H267 0.950 1_455 S
C246 H242 0.949 . S
C246 C254 1.574 1_556 S
C246 C262 1.368 1_565 S
H247 C255 0.950 . S
H248 C253 0.950 . S
H249 C254 0.949 . S
H250 C256 0.950 . S
H251 C257 0.950 . S
H252 C258 0.949 . S
C253 H248 0.950 . S
C253 C255 1.327 . S
C253 C259 1.429 . S
C254 C246 1.574 1_554 S
C254 H249 0.949 . S
C254 C260 1.368 1_455 S
C255 C239 1.349 . S
C255 H247 0.950 . S
C255 C253 1.327 . S
C256 C244 1.349 . S
C256 H250 0.950 . S
C256 C257 1.327 . S
C257 H251 0.950 . S
C257 C256 1.327 . S
C257 C261 1.429 . S
C258 C241 1.574 1_556 S
C258 H252 0.949 . S
C258 C262 1.368 1_655 S
C259 C240 1.429 . S
C259 C253 1.429 . S
C259 C260 1.523 . S
C260 C241 1.368 1_565 S
C260 C254 1.368 1_655 S
C260 C259 1.523 . S
C261 C245 1.429 . S
C261 C257 1.429 . S
C261 C262 1.523 . S
C262 C246 1.368 1_545 S
C262 C258 1.368 1_455 S
C262 C261 1.523 . S
H263 C238 0.950 . S
H264 C240 0.950 1_455 S
H265 C241 0.949 . S
H266 C243 0.950 . S
H267 C245 0.950 1_655 S
C268 C269 1.349 . S
C268 C270 1.327 . S
C268 H293 0.950 1_554 S
C269 C268 1.349 . S
C269 C285 1.349 . S
C270 C268 1.327 . S
C270 C289 1.429 . S
C270 H294 0.950 . S
C271 C288 1.574 . S
C271 C290 1.368 . S
C271 H295 0.949 . S
H272 C276 0.949 . S
C273 C274 1.349 . S
C273 C275 1.327 . S
C273 H296 0.950 . S
C274 C273 1.349 . S
C274 C286 1.349 . S
C275 C273 1.327 . S
C275 C291 1.429 . S
C275 H297 0.950 . S
C276 H272 0.949 . S
C276 C284 1.574 . S
C276 C292 1.368 . S
H277 C285 0.950 . S
H278 C283 0.950 . S
H279 C284 0.949 . S
H280 C286 0.950 . S
H281 C287 0.950 . S
H282 C288 0.949 . S
C283 H278 0.950 . S
C283 C285 1.327 . S
C283 C289 1.429 . S
C284 C276 1.574 . S
C284 H279 0.949 . S
C284 C290 1.368 . S
C285 C269 1.349 . S
C285 H277 0.950 . S
C285 C283 1.327 . S
C286 C274 1.349 . S
C286 H280 0.950 . S
C286 C287 1.327 . S
C287 H281 0.950 . S
C287 C286 1.327 . S
C287 C291 1.429 . S
C288 C271 1.574 . S
C288 H282 0.949 . S
C288 C292 1.368 . S
C289 C270 1.429 . S
C289 C283 1.429 . S
C289 C290 1.523 . S
C290 C271 1.368 . S
C290 C284 1.368 . S
C290 C289 1.523 . S
C291 C275 1.429 . S
C291 C287 1.429 . S
C291 C292 1.523 . S
C292 C276 1.368 . S
C292 C288 1.368 . S
C292 C291 1.523 . S
H293 C268 0.950 1_556 S
H294 C270 0.950 . S
H295 C271 0.949 . S
H296 C273 0.950 . S
H297 C275 0.950 . S
C298 C299 1.349 . S
C298 C300 1.327 . S
C298 H323 0.950 . S
C299 C298 1.349 . S
C299 C315 1.349 . S
C300 C298 1.327 . S
C300 C319 1.429 . S
C300 H324 0.950 . S
C301 C318 1.574 . S
C301 C320 1.368 . S
C301 H325 0.949 . S
H302 C306 0.949 . S
C303 C304 1.349 . S
C303 C305 1.327 . S
C303 H326 0.950 . S
C304 C303 1.349 . S
C304 C316 1.349 . S
C305 C303 1.327 . S
C305 C321 1.429 . S
C305 H327 0.950 . S
C306 H302 0.949 . S
C306 C314 1.574 . S
C306 C322 1.368 . S
H307 C315 0.950 . S
H308 C313 0.950 . S
H309 C314 0.949 . S
H310 C316 0.950 . S
H311 C317 0.950 . S
H312 C318 0.949 . S
C313 H308 0.950 . S
C313 C315 1.327 . S
C313 C319 1.429 . S
C314 C306 1.574 . S
C314 H309 0.949 . S
C314 C320 1.368 . S
C315 C299 1.349 . S
C315 H307 0.950 . S
C315 C313 1.327 . S
C316 C304 1.349 . S
C316 H310 0.950 . S
C316 C317 1.327 . S
C317 H311 0.950 . S
C317 C316 1.327 . S
C317 C321 1.429 . S
C318 C301 1.574 . S
C318 H312 0.949 . S
C318 C322 1.368 . S
C319 C300 1.429 . S
C319 C313 1.429 . S
C319 C320 1.523 . S
C320 C301 1.368 . S
C320 C314 1.368 . S
C320 C319 1.523 . S
C321 C305 1.429 . S
C321 C317 1.429 . S
C321 C322 1.523 . S
C322 C306 1.368 . S
C322 C318 1.368 . S
C322 C321 1.523 . S
H323 C298 0.950 . S
H324 C300 0.950 . S
H325 C301 0.949 . S
H326 C303 0.950 . S
H327 C305 0.950 . S
C328 C329 1.349 . S
C328 C330 1.327 . S
C328 H353 0.950 1_556 S
C329 C328 1.349 . S
C329 C345 1.349 . S
C330 C328 1.327 . S
C330 C349 1.429 . S
C330 H354 0.950 . S
C331 C348 1.574 . S
C331 C350 1.368 . S
C331 H355 0.949 . S
H332 C336 0.949 . S
C333 C334 1.349 . S
C333 C335 1.327 . S
C333 H356 0.950 . S
C334 C333 1.349 . S
C334 C346 1.349 . S
C335 C333 1.327 . S
C335 C351 1.429 . S
C335 H357 0.950 . S
C336 H332 0.949 . S
C336 C344 1.574 . S
C336 C352 1.368 . S
H337 C345 0.950 . S
H338 C343 0.950 . S
H339 C344 0.949 . S
H340 C346 0.950 . S
H341 C347 0.950 . S
H342 C348 0.949 . S
C343 H338 0.950 . S
C343 C345 1.327 . S
C343 C349 1.429 . S
C344 C336 1.574 . S
C344 H339 0.949 . S
C344 C350 1.368 . S
C345 C329 1.349 . S
C345 H337 0.950 . S
C345 C343 1.327 . S
C346 C334 1.349 . S
C346 H340 0.950 . S
C346 C347 1.327 . S
C347 H341 0.950 . S
C347 C346 1.327 . S
C347 C351 1.429 . S
C348 C331 1.574 . S
C348 H342 0.949 . S
C348 C352 1.368 . S
C349 C330 1.429 . S
C349 C343 1.429 . S
C349 C350 1.523 . S
C350 C331 1.368 . S
C350 C344 1.368 . S
C350 C349 1.523 . S
C351 C335 1.429 . S
C351 C347 1.429 . S
C351 C352 1.523 . S
C352 C336 1.368 . S
C352 C348 1.368 . S
C352 C351 1.523 . S
H353 C328 0.950 1_554 S
H354 C330 0.950 . S
H355 C331 0.949 . S
H356 C333 0.950 . S
H357 C335 0.950 . S
C358 C359 1.349 . S
C358 C360 1.327 . S
C358 H383 0.950 . S
C359 C358 1.349 . S
C359 C375 1.349 . S
C360 C358 1.327 . S
C360 C379 1.429 . S
C360 H384 0.950 . S
C361 C378 1.574 . S
C361 C380 1.368 . S
C361 H385 0.949 . S
H362 C366 0.949 . S
C363 C364 1.349 . S
C363 C365 1.327 . S
C363 H386 0.950 . S
C364 C363 1.349 . S
C364 C376 1.349 . S
C365 C363 1.327 . S
C365 C381 1.429 . S
C365 H387 0.950 . S
C366 H362 0.949 . S
C366 C374 1.574 . S
C366 C382 1.368 . S
H367 C375 0.950 . S
H368 C373 0.950 . S
H369 C374 0.949 . S
H370 C376 0.950 . S
H371 C377 0.950 . S
H372 C378 0.949 . S
C373 H368 0.950 . S
C373 C375 1.327 . S
C373 C379 1.429 . S
C374 C366 1.574 . S
C374 H369 0.949 . S
C374 C380 1.368 . S
C375 C359 1.349 . S
C375 H367 0.950 . S
C375 C373 1.327 . S
C376 C364 1.349 . S
C376 H370 0.950 . S
C376 C377 1.327 . S
C377 H371 0.950 . S
C377 C376 1.327 . S
C377 C381 1.429 . S
C378 C361 1.574 . S
C378 H372 0.949 . S
C378 C382 1.368 . S
C379 C360 1.429 . S
C379 C373 1.429 . S
C379 C380 1.523 . S
C380 C361 1.368 . S
C380 C374 1.368 . S
C380 C379 1.523 . S
C381 C365 1.429 . S
C381 C377 1.429 . S
C381 C382 1.523 . S
C382 C366 1.368 . S
C382 C378 1.368 . S
C382 C381 1.523 . S
H383 C358 0.950 . S
H384 C360 0.950 . S
H385 C361 0.949 . S
H386 C363 0.950 . S
H387 C365 0.950 . S
C388 C389 1.349 . S
C388 C390 1.327 . S
C388 H413 0.950 . S
C389 C388 1.349 . S
C389 C405 1.349 . S
C390 C388 1.327 . S
C390 C409 1.429 . S
C390 H414 0.950 . S
C391 C408 1.574 . S
C391 C410 1.368 . S
C391 H415 0.949 . S
H392 C396 0.949 . S
C393 C394 1.349 . S
C393 C395 1.327 . S
C393 H416 0.950 . S
C394 C393 1.349 . S
C394 C406 1.349 . S
C395 C393 1.327 . S
C395 C411 1.429 . S
C395 H417 0.950 . S
C396 H392 0.949 . S
C396 C404 1.574 . S
C396 C412 1.368 . S
H397 C405 0.950 . S
H398 C403 0.950 . S
H399 C404 0.949 . S
H400 C406 0.950 . S
H401 C407 0.950 . S
H402 C408 0.949 . S
C403 H398 0.950 . S
C403 C405 1.327 . S
C403 C409 1.429 . S
C404 C396 1.574 . S
C404 H399 0.949 . S
C404 C410 1.368 . S
C405 C389 1.349 . S
C405 H397 0.950 . S
C405 C403 1.327 . S
C406 C394 1.349 . S
C406 H400 0.950 . S
C406 C407 1.327 . S
C407 H401 0.950 . S
C407 C406 1.327 . S
C407 C411 1.429 . S
C408 C391 1.574 . S
C408 H402 0.949 . S
C408 C412 1.368 . S
C409 C390 1.429 . S
C409 C403 1.429 . S
C409 C410 1.523 . S
C410 C391 1.368 . S
C410 C404 1.368 . S
C410 C409 1.523 . S
C411 C395 1.429 . S
C411 C407 1.429 . S
C411 C412 1.523 . S
C412 C396 1.368 . S
C412 C408 1.368 . S
C412 C411 1.523 . S
H413 C388 0.950 . S
H414 C390 0.950 . S
H415 C391 0.949 . S
H416 C393 0.950 . S
H417 C395 0.950 . S
C418 C419 1.349 . S
C418 C420 1.327 1_556 S
C418 H443 0.950 1_556 S
C419 C418 1.349 . S
C419 C435 1.349 . S
C420 C418 1.327 1_554 S
C420 C439 1.429 1_554 S
C420 H444 0.950 . S
C421 C438 1.574 1_545 S
C421 C440 1.368 . S
C421 H445 0.949 . S
H422 C426 0.949 . S
C423 C424 1.349 . S
C423 C425 1.327 1_554 S
C423 H446 0.950 1_554 S
C424 C423 1.349 . S
C424 C436 1.349 . S
C425 C423 1.327 1_556 S
C425 C441 1.429 1_556 S
C425 H447 0.950 . S
C426 H422 0.949 . S
C426 C434 1.574 1_565 S
C426 C442 1.368 . S
H427 C435 0.950 . S
H428 C433 0.950 . S
H429 C434 0.949 . S
H430 C436 0.950 . S
H431 C437 0.950 . S
H432 C438 0.949 . S
C433 H428 0.950 . S
C433 C435 1.327 . S
C433 C439 1.429 . S
C434 C426 1.574 1_545 S
C434 H429 0.949 . S
C434 C440 1.368 1_554 S
C435 C419 1.349 . S
C435 H427 0.950 . S
C435 C433 1.327 . S
C436 C424 1.349 . S
C436 H430 0.950 . S
C436 C437 1.327 . S
C437 H431 0.950 . S
C437 C436 1.327 . S
C437 C441 1.429 . S
C438 C421 1.574 1_565 S
C438 H432 0.949 . S
C438 C442 1.368 1_556 S
C439 C420 1.429 1_556 S
C439 C433 1.429 . S
C439 C440 1.523 . S
C440 C421 1.368 . S
C440 C434 1.368 1_556 S
C440 C439 1.523 . S
C441 C425 1.429 1_554 S
C441 C437 1.429 . S
C441 C442 1.523 . S
C442 C426 1.368 . S
C442 C438 1.368 1_554 S
C442 C441 1.523 . S
H443 C418 0.950 1_554 S
H444 C420 0.950 . S
H445 C421 0.949 . S
H446 C423 0.950 1_556 S
H447 C425 0.950 . S
C89 C27 1.262 1_545 S
C94 C5 1.303 . S
C119 C9 1.262 . S
C124 C31 1.303 . S
C149 C72 1.262 1_565 S
C154 C50 1.303 . S
C179 C51 1.262 . S
C184 C73 1.303 . S
C209 C49 0.899 . S
C214 C6 0.899 . S
C239 C29 0.899 . S
C244 C75 0.899 . S
C269 C74 1.573 1_554 S
C274 C7 1.505 . S
C299 C28 1.505 . S
C304 C48 1.573 . S
C329 C30 1.573 1_556 S
C334 C53 1.505 . S
C359 C71 1.505 . S
C364 C4 1.573 . S
C389 C8 1.540 . S
C394 C52 1.540 . S
C419 C70 1.540 . S
C424 C26 1.540 . S
